# Generated by pormake.
# Topology ptr, (4,4)-cn, num edge types: 1
# Building blocks:
#     Node 0, Type 0, BuildingBlock: UXUYUI_clean_sbu_0, # of connection points: 4
#     Node 1, Type 0, BuildingBlock: UXUYUI_clean_sbu_0, # of connection points: 4
#     Node 2, Type 0, BuildingBlock: UXUYUI_clean_sbu_0, # of connection points: 4
#     Node 3, Type 0, BuildingBlock: UXUYUI_clean_sbu_0, # of connection points: 4
#     Node 4, Type 0, BuildingBlock: UXUYUI_clean_sbu_0, # of connection points: 4
#     Node 5, Type 0, BuildingBlock: UXUYUI_clean_sbu_0, # of connection points: 4
#     Node 6, Type 0, BuildingBlock: UXUYUI_clean_sbu_0, # of connection points: 4
#     Node 7, Type 0, BuildingBlock: UXUYUI_clean_sbu_0, # of connection points: 4
#     Node 8, Type 0, BuildingBlock: UXUYUI_clean_sbu_0, # of connection points: 4
#     Node 9, Type 0, BuildingBlock: UXUYUI_clean_sbu_0, # of connection points: 4
#     Node 10, Type 0, BuildingBlock: UXUYUI_clean_sbu_0, # of connection points: 4
#     Node 11, Type 0, BuildingBlock: UXUYUI_clean_sbu_0, # of connection points: 4
#     Node 12, Type 0, BuildingBlock: UXUYUI_clean_sbu_0, # of connection points: 4
#     Node 13, Type 0, BuildingBlock: UXUYUI_clean_sbu_0, # of connection points: 4
#     Node 14, Type 0, BuildingBlock: UXUYUI_clean_sbu_0, # of connection points: 4
#     Node 15, Type 0, BuildingBlock: UXUYUI_clean_sbu_0, # of connection points: 4
#     Node 16, Type 0, BuildingBlock: UXUYUI_clean_sbu_0, # of connection points: 4
#     Node 17, Type 0, BuildingBlock: UXUYUI_clean_sbu_0, # of connection points: 4
#     Node 18, Type 1, BuildingBlock: NAHDIM_clean_linker_0, # of connection points: 4
#     Node 19, Type 1, BuildingBlock: NAHDIM_clean_linker_0, # of connection points: 4
#     Node 20, Type 1, BuildingBlock: NAHDIM_clean_linker_0, # of connection points: 4
#     Node 21, Type 1, BuildingBlock: NAHDIM_clean_linker_0, # of connection points: 4
#     Node 22, Type 1, BuildingBlock: NAHDIM_clean_linker_0, # of connection points: 4
#     Node 23, Type 1, BuildingBlock: NAHDIM_clean_linker_0, # of connection points: 4
#     Node 24, Type 1, BuildingBlock: NAHDIM_clean_linker_0, # of connection points: 4
#     Node 25, Type 1, BuildingBlock: NAHDIM_clean_linker_0, # of connection points: 4
#     Node 26, Type 1, BuildingBlock: NAHDIM_clean_linker_0, # of connection points: 4
#     Node 27, Type 1, BuildingBlock: NAHDIM_clean_linker_0, # of connection points: 4
#     Node 28, Type 1, BuildingBlock: NAHDIM_clean_linker_0, # of connection points: 4
#     Node 29, Type 1, BuildingBlock: NAHDIM_clean_linker_0, # of connection points: 4
#     Node 30, Type 1, BuildingBlock: NAHDIM_clean_linker_0, # of connection points: 4
#     Node 31, Type 1, BuildingBlock: NAHDIM_clean_linker_0, # of connection points: 4
#     Node 32, Type 1, BuildingBlock: NAHDIM_clean_linker_0, # of connection points: 4
#     Node 33, Type 1, BuildingBlock: NAHDIM_clean_linker_0, # of connection points: 4
#     Node 34, Type 1, BuildingBlock: NAHDIM_clean_linker_0, # of connection points: 4
#     Node 35, Type 1, BuildingBlock: NAHDIM_clean_linker_0, # of connection points: 4
#     Edge 36, Type (0, 1), BuildingBlock: EZIPEK_clean_linker_0, # of connection points: 2
#     Edge 37, Type (0, 1), BuildingBlock: EZIPEK_clean_linker_0, # of connection points: 2
#     Edge 38, Type (0, 1), BuildingBlock: EZIPEK_clean_linker_0, # of connection points: 2
#     Edge 39, Type (0, 1), BuildingBlock: EZIPEK_clean_linker_0, # of connection points: 2
#     Edge 40, Type (0, 1), BuildingBlock: EZIPEK_clean_linker_0, # of connection points: 2
#     Edge 41, Type (0, 1), BuildingBlock: EZIPEK_clean_linker_0, # of connection points: 2
#     Edge 42, Type (0, 1), BuildingBlock: EZIPEK_clean_linker_0, # of connection points: 2
#     Edge 43, Type (0, 1), BuildingBlock: EZIPEK_clean_linker_0, # of connection points: 2
#     Edge 44, Type (0, 1), BuildingBlock: EZIPEK_clean_linker_0, # of connection points: 2
#     Edge 45, Type (0, 1), BuildingBlock: EZIPEK_clean_linker_0, # of connection points: 2
#     Edge 46, Type (0, 1), BuildingBlock: EZIPEK_clean_linker_0, # of connection points: 2
#     Edge 47, Type (0, 1), BuildingBlock: EZIPEK_clean_linker_0, # of connection points: 2
#     Edge 48, Type (0, 1), BuildingBlock: EZIPEK_clean_linker_0, # of connection points: 2
#     Edge 49, Type (0, 1), BuildingBlock: EZIPEK_clean_linker_0, # of connection points: 2
#     Edge 50, Type (0, 1), BuildingBlock: EZIPEK_clean_linker_0, # of connection points: 2
#     Edge 51, Type (0, 1), BuildingBlock: EZIPEK_clean_linker_0, # of connection points: 2
#     Edge 52, Type (0, 1), BuildingBlock: EZIPEK_clean_linker_0, # of connection points: 2
#     Edge 53, Type (0, 1), BuildingBlock: EZIPEK_clean_linker_0, # of connection points: 2
#     Edge 54, Type (0, 1), BuildingBlock: EZIPEK_clean_linker_0, # of connection points: 2
#     Edge 55, Type (0, 1), BuildingBlock: EZIPEK_clean_linker_0, # of connection points: 2
#     Edge 56, Type (0, 1), BuildingBlock: EZIPEK_clean_linker_0, # of connection points: 2
#     Edge 57, Type (0, 1), BuildingBlock: EZIPEK_clean_linker_0, # of connection points: 2
#     Edge 58, Type (0, 1), BuildingBlock: EZIPEK_clean_linker_0, # of connection points: 2
#     Edge 59, Type (0, 1), BuildingBlock: EZIPEK_clean_linker_0, # of connection points: 2
#     Edge 60, Type (0, 1), BuildingBlock: EZIPEK_clean_linker_0, # of connection points: 2
#     Edge 61, Type (0, 1), BuildingBlock: EZIPEK_clean_linker_0, # of connection points: 2
#     Edge 62, Type (0, 1), BuildingBlock: EZIPEK_clean_linker_0, # of connection points: 2
#     Edge 63, Type (0, 1), BuildingBlock: EZIPEK_clean_linker_0, # of connection points: 2
#     Edge 64, Type (0, 1), BuildingBlock: EZIPEK_clean_linker_0, # of connection points: 2
#     Edge 65, Type (0, 1), BuildingBlock: EZIPEK_clean_linker_0, # of connection points: 2
#     Edge 66, Type (0, 1), BuildingBlock: EZIPEK_clean_linker_0, # of connection points: 2
#     Edge 67, Type (0, 1), BuildingBlock: EZIPEK_clean_linker_0, # of connection points: 2
#     Edge 68, Type (0, 1), BuildingBlock: EZIPEK_clean_linker_0, # of connection points: 2
#     Edge 69, Type (0, 1), BuildingBlock: EZIPEK_clean_linker_0, # of connection points: 2
#     Edge 70, Type (0, 1), BuildingBlock: EZIPEK_clean_linker_0, # of connection points: 2
#     Edge 71, Type (0, 1), BuildingBlock: EZIPEK_clean_linker_0, # of connection points: 2
#     Edge 72, Type (0, 1), BuildingBlock: EZIPEK_clean_linker_0, # of connection points: 2
#     Edge 73, Type (0, 1), BuildingBlock: EZIPEK_clean_linker_0, # of connection points: 2
#     Edge 74, Type (0, 1), BuildingBlock: EZIPEK_clean_linker_0, # of connection points: 2
#     Edge 75, Type (0, 1), BuildingBlock: EZIPEK_clean_linker_0, # of connection points: 2
#     Edge 76, Type (0, 1), BuildingBlock: EZIPEK_clean_linker_0, # of connection points: 2
#     Edge 77, Type (0, 1), BuildingBlock: EZIPEK_clean_linker_0, # of connection points: 2
#     Edge 78, Type (0, 1), BuildingBlock: EZIPEK_clean_linker_0, # of connection points: 2
#     Edge 79, Type (0, 1), BuildingBlock: EZIPEK_clean_linker_0, # of connection points: 2
#     Edge 80, Type (0, 1), BuildingBlock: EZIPEK_clean_linker_0, # of connection points: 2
#     Edge 81, Type (0, 1), BuildingBlock: EZIPEK_clean_linker_0, # of connection points: 2
#     Edge 82, Type (0, 1), BuildingBlock: EZIPEK_clean_linker_0, # of connection points: 2
#     Edge 83, Type (0, 1), BuildingBlock: EZIPEK_clean_linker_0, # of connection points: 2
#     Edge 84, Type (0, 1), BuildingBlock: EZIPEK_clean_linker_0, # of connection points: 2
#     Edge 85, Type (0, 1), BuildingBlock: EZIPEK_clean_linker_0, # of connection points: 2
#     Edge 86, Type (0, 1), BuildingBlock: EZIPEK_clean_linker_0, # of connection points: 2
#     Edge 87, Type (0, 1), BuildingBlock: EZIPEK_clean_linker_0, # of connection points: 2
#     Edge 88, Type (0, 1), BuildingBlock: EZIPEK_clean_linker_0, # of connection points: 2
#     Edge 89, Type (0, 1), BuildingBlock: EZIPEK_clean_linker_0, # of connection points: 2
#     Edge 90, Type (0, 1), BuildingBlock: EZIPEK_clean_linker_0, # of connection points: 2
#     Edge 91, Type (0, 1), BuildingBlock: EZIPEK_clean_linker_0, # of connection points: 2
#     Edge 92, Type (0, 1), BuildingBlock: EZIPEK_clean_linker_0, # of connection points: 2
#     Edge 93, Type (0, 1), BuildingBlock: EZIPEK_clean_linker_0, # of connection points: 2
#     Edge 94, Type (0, 1), BuildingBlock: EZIPEK_clean_linker_0, # of connection points: 2
#     Edge 95, Type (0, 1), BuildingBlock: EZIPEK_clean_linker_0, # of connection points: 2
#     Edge 96, Type (0, 1), BuildingBlock: EZIPEK_clean_linker_0, # of connection points: 2
#     Edge 97, Type (0, 1), BuildingBlock: EZIPEK_clean_linker_0, # of connection points: 2
#     Edge 98, Type (0, 1), BuildingBlock: EZIPEK_clean_linker_0, # of connection points: 2
#     Edge 99, Type (0, 1), BuildingBlock: EZIPEK_clean_linker_0, # of connection points: 2
#     Edge 100, Type (0, 1), BuildingBlock: EZIPEK_clean_linker_0, # of connection points: 2
#     Edge 101, Type (0, 1), BuildingBlock: EZIPEK_clean_linker_0, # of connection points: 2
#     Edge 102, Type (0, 1), BuildingBlock: EZIPEK_clean_linker_0, # of connection points: 2
#     Edge 103, Type (0, 1), BuildingBlock: EZIPEK_clean_linker_0, # of connection points: 2
#     Edge 104, Type (0, 1), BuildingBlock: EZIPEK_clean_linker_0, # of connection points: 2
#     Edge 105, Type (0, 1), BuildingBlock: EZIPEK_clean_linker_0, # of connection points: 2
#     Edge 106, Type (0, 1), BuildingBlock: EZIPEK_clean_linker_0, # of connection points: 2
#     Edge 107, Type (0, 1), BuildingBlock: EZIPEK_clean_linker_0, # of connection points: 2
# Relax obj value: 0.120
# Max RMSD: 0.338
# Mean RMSD: 0.137
data_MOF--net-ptr--node1-UXUYUI_clean_sbu_0--node2-NAHDIM_clean_linker_0--edge1-EZIPEK_clean_linker_0
_symmetry_space_group_name_H-M    P1
_symmetry_Int_Tables_number       1
_symmetry_cell_setting            triclinic
loop_
_symmetry_equiv_pos_as_xyz
'x, y, z'
_cell_length_a     92.826913
_cell_length_b     92.624126
_cell_length_c     76.143467
_cell_angle_alpha  90.925613
_cell_angle_beta   90.324466
_cell_angle_gamma 120.43171
loop_
_atom_site_label
_atom_site_type_symbol
_atom_site_fract_x
_atom_site_fract_y
_atom_site_fract_z
_atom_type_partial_charge
Li0 Li 0.98299 0.32349 0.00507 0.0
Li1 Li 0.01081 0.33796 0.0157 0.0
Li2 Li 0.99061 0.34707 0.0255 0.0
Li3 Li 0.00164 0.35128 0.99509 0.0
C4 C 0.97777 0.31198 0.03792 0.0
N5 N 0.95266 0.28397 0.05385 0.0
C6 C 0.9771 0.29658 0.03626 0.0
C7 C 0.96572 0.31313 0.04779 0.0
C8 C 0.96429 0.28257 0.04437 0.0
C9 C 0.95313 0.29883 0.05573 0.0
C10 C 0.01354 0.32504 0.98669 0.0
C11 C 0.03821 0.32795 0.97295 0.0
N12 N 0.03434 0.31263 0.97884 0.0
C13 C 0.00984 0.30933 0.99263 0.0
C14 C 0.02786 0.33444 0.97679 0.0
C15 C 0.02049 0.30327 0.98852 0.0
C16 C 0.96881 0.2957 0.98232 0.0
N17 N 0.9653 0.30185 0.99698 0.0
C18 C 0.93939 0.27615 5e-05 0.0
C19 C 0.95057 0.29268 0.00545 0.0
C20 C 0.94349 0.26927 0.98579 0.0
C21 C 0.95813 0.27926 0.97661 0.0
H22 H 0.98017 0.30338 0.97529 0.0
H23 H 0.94771 0.29796 0.0167 0.0
C24 C 0.02397 0.32369 0.03759 0.0
N25 N 0.02843 0.33491 0.0245 0.0
C26 C 0.03512 0.31906 0.04388 0.0
C27 C 0.05573 0.33826 0.02375 0.0
C28 C 0.0441 0.34253 0.0178 0.0
C29 C 0.05106 0.32617 0.03673 0.0
H30 H 0.01163 0.31808 0.04299 0.0
H31 H 0.04745 0.35156 0.00755 0.0
C32 C 0.9628 0.33421 0.99596 0.0
N33 N 0.93101 0.31674 0.98143 0.0
C34 C 0.96059 0.33082 0.97788 0.0
C35 C 0.94889 0.32884 0.00664 0.0
C36 C 0.9444 0.32193 0.97079 0.0
C37 C 0.9329 0.32 0.99904 0.0
C38 C 0.02486 0.377 0.01304 0.0
C39 C 0.02248 0.38983 0.01953 0.0
C40 C 0.03771 0.38071 0.00125 0.0
C41 C 0.03293 0.40618 0.01397 0.0
C42 C 0.04786 0.39721 0.99597 0.0
N43 N 0.04528 0.4095 0.00238 0.0
C44 C 0.99351 0.36003 0.05944 0.0
C45 C 0.97705 0.36577 0.03996 0.0
C46 C 0.99308 0.37074 0.07225 0.0
N47 N 0.98579 0.358 0.04362 0.0
C48 C 0.97628 0.37659 0.05242 0.0
C49 C 0.98471 0.3794 0.06857 0.0
H50 H 0.00066 0.35394 0.06176 0.0
H51 H 0.97143 0.36423 0.02707 0.0
C52 C 0.01255 0.36621 0.9609 0.0
N53 N 0.00583 0.36644 0.97667 0.0
C54 C 0.01419 0.37749 0.94796 0.0
C55 C 0.00173 0.38868 0.96769 0.0
C56 C 0.00039 0.3773 0.9802 0.0
C57 C 0.0086 0.38876 0.95138 0.0
H58 H 0.01634 0.35714 0.95824 0.0
H59 H 0.99482 0.37695 0.99274 0.0
O60 O 0.9903 0.3259 0.0302 0.0
O61 O 0.00324 0.33118 0.99067 0.0
O62 O 0.97852 0.34251 0.00319 0.0
O63 O 0.01444 0.36083 0.0179 0.0
H64 H 0.9863 0.29542 0.0287 0.0
H65 H 0.96599 0.32489 0.04922 0.0
H66 H 0.96356 0.27057 0.04309 0.0
H67 H 0.94369 0.29953 0.06334 0.0
H68 H 0.04936 0.33513 0.96536 0.0
H69 H 0.9989 0.30192 0.00043 0.0
H70 H 0.03113 0.34673 0.97234 0.0
H71 H 0.01779 0.29116 0.99308 0.0
H72 H 0.92803 0.26867 0.00727 0.0
H73 H 0.96145 0.27427 0.96538 0.0
H74 H 0.03126 0.3098 0.05403 0.0
H75 H 0.06805 0.344 0.01808 0.0
H76 H 0.97128 0.33487 0.96947 0.0
H77 H 0.95043 0.3313 0.02068 0.0
H78 H 0.94248 0.31912 0.95684 0.0
H79 H 0.922 0.31567 0.00715 0.0
H80 H 0.0126 0.38718 0.02866 0.0
H81 H 0.03959 0.37089 0.99597 0.0
H82 H 0.03119 0.41623 0.01882 0.0
H83 H 0.05774 0.40024 0.98671 0.0
H84 H 0.99979 0.3728 0.08459 0.0
H85 H 0.96986 0.38327 0.04923 0.0
H86 H 0.01947 0.37727 0.93538 0.0
H87 H 0.99728 0.39723 0.97063 0.0
Li88 Li 0.67421 0.66117 0.0032 0.0
Li89 Li 0.66103 0.67307 0.02091 0.0
Li90 Li 0.6534 0.64351 0.02416 0.0
Li91 Li 0.64461 0.65219 0.99798 0.0
C92 C 0.6907 0.67719 0.03472 0.0
N93 N 0.72167 0.7034 0.04521 0.0
C94 C 0.69863 0.69176 0.02491 0.0
C95 C 0.69852 0.67596 0.04988 0.0
C96 C 0.71428 0.70486 0.03041 0.0
C97 C 0.71418 0.68935 0.05498 0.0
C98 C 0.6652 0.68814 0.98741 0.0
C99 C 0.65196 0.70345 0.97804 0.0
N100 N 0.66686 0.71576 0.97201 0.0
C101 C 0.68036 0.70087 0.98095 0.0
C102 C 0.65086 0.68937 0.9858 0.0
C103 C 0.68095 0.71475 0.97328 0.0
C104 C 0.69515 0.67141 0.97458 0.0
N105 N 0.69424 0.66661 0.99149 0.0
C106 C 0.72308 0.67463 0.99176 0.0
C107 C 0.70763 0.66755 0.0 0.0
C108 C 0.72453 0.68062 0.9747 0.0
C109 C 0.71032 0.67855 0.96586 0.0
H110 H 0.68426 0.67047 0.96818 0.0
H111 H 0.70653 0.66358 0.01344 0.0
C112 C 0.65626 0.68896 0.04979 0.0
N113 N 0.66364 0.69209 0.03383 0.0
C114 C 0.65667 0.70192 0.05982 0.0
C115 C 0.67261 0.72118 0.03701 0.0
C116 C 0.67203 0.70789 0.02749 0.0
C117 C 0.66474 0.71814 0.05325 0.0
H118 H 0.64978 0.6763 0.05456 0.0
H119 H 0.67819 0.71024 0.01505 0.0
C120 C 0.66091 0.62705 0.99817 0.0
N121 N 0.67276 0.60508 0.99619 0.0
C122 C 0.65519 0.61478 0.98482 0.0
C123 C 0.67264 0.62815 0.01053 0.0
C124 C 0.66133 0.60378 0.98404 0.0
C125 C 0.67848 0.61693 0.00929 0.0
C126 C 0.62356 0.65154 0.02566 0.0
C127 C 0.61029 0.63643 0.03151 0.0
C128 C 0.62127 0.66517 0.02325 0.0
C129 C 0.59481 0.63508 0.03439 0.0
C130 C 0.60561 0.66334 0.0263 0.0
N131 N 0.5928 0.64845 0.03173 0.0
C132 C 0.65202 0.62795 0.05648 0.0
C133 C 0.63239 0.61076 0.03434 0.0
C134 C 0.64467 0.61498 0.06848 0.0
N135 N 0.64561 0.62564 0.0399 0.0
C136 C 0.62459 0.59755 0.04591 0.0
C137 C 0.63053 0.59976 0.06327 0.0
H138 H 0.66247 0.63998 0.06052 0.0
H139 H 0.62755 0.60941 0.02108 0.0
C140 C 0.63108 0.65188 0.96457 0.0
N141 N 0.62734 0.64486 0.98068 0.0
C142 C 0.61867 0.64654 0.95155 0.0
C143 C 0.5989 0.62654 0.97178 0.0
C144 C 0.6117 0.63223 0.98439 0.0
C145 C 0.6024 0.63377 0.9552 0.0
H146 H 0.64373 0.66154 0.96179 0.0
H147 H 0.60922 0.62642 0.99704 0.0
O148 O 0.67548 0.66405 0.02946 0.0
O149 O 0.66445 0.6745 0.99505 0.0
O150 O 0.65493 0.63784 0.99908 0.0
O151 O 0.63882 0.65306 0.02287 0.0
H152 H 0.69284 0.69288 0.01309 0.0
H153 H 0.69259 0.66474 0.05759 0.0
H154 H 0.72057 0.71617 0.02288 0.0
H155 H 0.72039 0.68856 0.06668 0.0
H156 H 0.64096 0.70457 0.97675 0.0
H157 H 0.6916 0.70015 0.98202 0.0
H158 H 0.63896 0.67948 0.99029 0.0
H159 H 0.69261 0.72474 0.96834 0.0
H160 H 0.73391 0.67614 0.99887 0.0
H161 H 0.71115 0.68313 0.95268 0.0
H162 H 0.65044 0.69925 0.07234 0.0
H163 H 0.67901 0.73365 0.03171 0.0
H164 H 0.64608 0.61376 0.97518 0.0
H165 H 0.67718 0.63751 0.02099 0.0
H166 H 0.65701 0.59422 0.97378 0.0
H167 H 0.68756 0.61763 0.01876 0.0
H168 H 0.61188 0.62581 0.03367 0.0
H169 H 0.63149 0.67712 0.01927 0.0
H170 H 0.58439 0.62342 0.03877 0.0
H171 H 0.60366 0.67378 0.02442 0.0
H172 H 0.64953 0.61697 0.08182 0.0
H173 H 0.61371 0.58591 0.04154 0.0
H174 H 0.62172 0.6522 0.93875 0.0
H175 H 0.58648 0.61649 0.97482 0.0
Li176 Li 0.34538 0.99561 0.98997 0.0
Li177 Li 0.3532 0.00895 0.01898 0.0
Li178 Li 0.32309 0.98801 0.01172 0.0
Li179 Li 0.33683 0.01584 0.99977 0.0
C180 C 0.34234 0.96991 0.014 0.0
N181 N 0.34172 0.93986 0.017 0.0
C182 C 0.35683 0.96976 0.01879 0.0
C183 C 0.32744 0.95471 0.01115 0.0
C184 C 0.35629 0.95447 0.02012 0.0
C185 C 0.3274 0.93968 0.01261 0.0
C186 C 0.37576 0.03238 0.99805 0.0
C187 C 0.39661 0.05771 0.01289 0.0
N188 N 0.40869 0.05732 0.00321 0.0
C189 C 0.38836 0.0323 0.98814 0.0
C190 C 0.37989 0.04525 0.01042 0.0
C191 C 0.40493 0.045 0.99097 0.0
C192 C 0.35049 0.99007 0.95432 0.0
N193 N 0.35481 0.98954 0.9713 0.0
C194 C 0.37772 0.98651 0.96222 0.0
C195 C 0.36794 0.98754 0.97544 0.0
C196 C 0.3739 0.98761 0.94466 0.0
C197 C 0.35986 0.98894 0.94064 0.0
H198 H 0.34032 0.99224 0.95144 0.0
H199 H 0.37154 0.98793 0.98902 0.0
C200 C 0.36762 0.01867 0.05334 0.0
N201 N 0.3701 0.01547 0.03648 0.0
C202 C 0.37914 0.02083 0.06654 0.0
C203 C 0.39561 0.01676 0.04462 0.0
C204 C 0.38388 0.01479 0.03189 0.0
C205 C 0.39307 0.01946 0.06218 0.0
H206 H 0.3564 0.01886 0.05663 0.0
H207 H 0.38535 0.01193 0.01843 0.0
C208 C 0.31163 0.98086 0.97636 0.0
N209 N 0.28847 0.95424 0.95568 0.0
C210 C 0.29841 0.98151 0.9683 0.0
C211 C 0.31318 0.96675 0.97368 0.0
C212 C 0.2868 0.96791 0.95795 0.0
C213 C 0.30133 0.9534 0.96324 0.0
C214 C 0.3262 0.01907 0.03079 0.0
C215 C 0.30898 0.01265 0.02933 0.0
C216 C 0.33647 0.0351 0.03805 0.0
C217 C 0.30234 0.02248 0.03496 0.0
C218 C 0.32936 0.04455 0.0435 0.0
N219 N 0.31258 0.0381 0.04184 0.0
C220 C 0.3042 0.97278 0.04043 0.0
C221 C 0.28814 0.96248 0.01404 0.0
C222 C 0.28985 0.96456 0.05046 0.0
N223 N 0.30305 0.97201 0.02259 0.0
C224 C 0.27345 0.95389 0.02359 0.0
C225 C 0.27426 0.95539 0.04198 0.0
H226 H 0.31621 0.98065 0.04682 0.0
H227 H 0.28745 0.96217 -0.0001 0.0
C228 C 0.34429 0.04881 0.99035 0.0
N229 N 0.33214 0.03258 0.99243 0.0
C230 C 0.34008 0.06054 0.98476 0.0
C231 C 0.31103 0.03856 0.98352 0.0
C232 C 0.31578 0.02732 0.98917 0.0
C233 C 0.32328 0.05534 0.98126 0.0
H234 H 0.3572 0.05265 0.99292 0.0
H235 H 0.3064 0.01437 0.99109 0.0
O236 O 0.34256 0.98479 0.01302 0.0
O237 O 0.35949 0.0199 0.99565 0.0
O238 O 0.32311 0.99411 0.98653 0.0
O239 O 0.33299 0.00978 0.025 0.0
H240 H 0.36842 0.9813 0.0214 0.0
H241 H 0.31597 0.95446 0.00792 0.0
H242 H 0.36746 0.95421 0.02367 0.0
H243 H 0.31597 0.92785 0.01033 0.0
H244 H 0.39999 0.06768 0.02252 0.0
H245 H 0.38539 0.02259 0.97833 0.0
H246 H 0.3703 0.04551 0.01815 0.0
H247 H 0.41481 0.04507 0.98344 0.0
H248 H 0.38862 0.98569 0.96566 0.0
H249 H 0.35677 0.98999 0.92716 0.0
H250 H 0.37687 0.02284 0.08005 0.0
H251 H 0.40623 0.01559 0.04093 0.0
H252 H 0.29707 0.99238 0.97 0.0
H253 H 0.32351 0.96616 0.9794 0.0
H254 H 0.27646 0.96822 0.95172 0.0
H255 H 0.30239 0.94241 0.9611 0.0
H256 H 0.30083 0.00033 0.02363 0.0
H257 H 0.3498 0.0402 0.03946 0.0
H258 H 0.28905 0.01771 0.03378 0.0
H259 H 0.33717 0.05701 0.04906 0.0
H260 H 0.2908 0.966 0.06464 0.0
H261 H 0.26153 0.94694 0.01674 0.0
H262 H 0.34978 0.07345 0.98307 0.0
H263 H 0.29797 0.03425 0.98093 0.0
Li264 Li 0.0056 0.67297 0.01044 0.0
Li265 Li 0.98532 0.64386 0.01703 0.0
Li266 Li 0.99883 0.64992 0.98827 0.0
Li267 Li 0.97839 0.65773 0.99521 0.0
C268 C 0.02626 0.65905 0.01098 0.0
N269 N 0.05972 0.66926 0.00799 0.0
C270 C 0.0335 0.65236 0.02183 0.0
C271 C 0.03602 0.67092 0.99858 0.0
C272 C 0.05045 0.65769 0.02014 0.0
C273 C 0.05291 0.67592 0.99728 0.0
C274 C 0.97582 0.66227 0.03595 0.0
C275 C 0.95111 0.65167 0.05352 0.0
N276 N 0.96089 0.65916 0.06802 0.0
C277 C 0.98563 0.66999 0.05098 0.0
C278 C 0.95843 0.65316 0.03716 0.0
C279 C 0.97784 0.66821 0.0671 0.0
C280 C 0.01317 0.70421 0.01995 0.0
N281 N 0.02025 0.69448 0.02031 0.0
C282 C 0.04353 0.71544 0.03712 0.0
C283 C 0.0352 0.69973 0.02857 0.0
C284 C 0.03607 0.72539 0.03744 0.0
C285 C 0.02088 0.71976 0.0285 0.0
H286 H 0.00119 0.69957 0.01347 0.0
H287 H 0.04039 0.69161 0.02903 0.0
C288 C 0.96693 0.61208 0.03279 0.0
N289 N 0.9787 0.62848 0.0355 0.0
C290 C 0.96452 0.60031 0.04543 0.0
C291 C 0.98591 0.62268 0.0636 0.0
C292 C 0.988 0.63396 0.05058 0.0
C293 C 0.97434 0.60562 0.06084 0.0
H294 H 0.96006 0.60802 0.02046 0.0
H295 H 0.99767 0.64697 0.05208 0.0
C296 C 0.99903 0.67856 0.96985 0.0
N297 N 0.9958 0.69225 0.93917 0.0
C298 C 0.99195 0.66844 0.95482 0.0
C299 C 0.00435 0.69561 0.96933 0.0
C300 C 0.99042 0.6756 0.93944 0.0
C301 C 0.00262 0.7023 0.95368 0.0
C302 C 0.96015 0.62548 0.98484 0.0
C303 C 0.95985 0.62073 0.96726 0.0
C304 C 0.94515 0.62049 0.99345 0.0
C305 C 0.94448 0.61124 0.9585 0.0
C306 C 0.93004 0.61104 0.98423 0.0
N307 N 0.93003 0.60665 0.96709 0.0
C308 C 0.00181 0.62474 0.9718 0.0
C309 C 0.01729 0.65091 0.95788 0.0
C310 C 0.0063 0.61695 0.95892 0.0
N311 N 0.00715 0.64134 0.97091 0.0
C312 C 0.02208 0.64361 0.94468 0.0
C313 C 0.01639 0.62642 0.94512 0.0
H314 H 0.99375 0.6175 0.98234 0.0
H315 H 0.0214 0.66411 0.95757 0.0
C316 C 0.9636 0.6767 0.99465 0.0
N317 N 0.9628 0.66341 0.98587 0.0
C318 C 0.95604 0.68505 0.98768 0.0
C319 C 0.94593 0.66528 0.96316 0.0
C320 C 0.95398 0.65742 0.9705 0.0
C321 C 0.94749 0.67962 0.97155 0.0
H322 H 0.97096 0.68145 0.00662 0.0
H323 H 0.95399 0.64727 0.96339 0.0
O324 O 0.00965 0.65377 0.01243 0.0
O325 O 0.9832 0.66391 0.02005 0.0
O326 O 0.00106 0.67189 0.9849 0.0
O327 O 0.97505 0.63461 0.99369 0.0
H328 H 0.02609 0.64312 0.03147 0.0
H329 H 0.03067 0.6763 0.99011 0.0
H330 H 0.05623 0.65263 0.02846 0.0
H331 H 0.06062 0.68511 0.98776 0.0
H332 H 0.93766 0.64462 0.05467 0.0
H333 H 0.99912 0.67719 0.05023 0.0
H334 H 0.95068 0.64737 0.02558 0.0
H335 H 0.98527 0.67404 0.07887 0.0
H336 H 0.05528 0.71952 0.04395 0.0
H337 H 0.01486 0.72719 0.02851 0.0
H338 H 0.95568 0.58715 0.04289 0.0
H339 H 0.99383 0.62705 0.07527 0.0
H340 H 0.98768 0.65521 0.95504 0.0
H341 H 0.00989 0.70363 0.98084 0.0
H342 H 0.98498 0.66792 0.9277 0.0
H343 H 0.00673 0.71549 0.95306 0.0
H344 H 0.97134 0.62436 0.96042 0.0
H345 H 0.94518 0.62386 0.00712 0.0
H346 H 0.94405 0.60753 0.94487 0.0
H347 H 0.91833 0.60714 0.99071 0.0
H348 H 0.00175 0.60364 0.95952 0.0
H349 H 0.0299 0.65119 0.93413 0.0
H350 H 0.95744 0.69609 0.99442 0.0
H351 H 0.93945 0.6609 0.95061 0.0
Li352 Li 0.33549 0.34524 0.01033 0.0
Li353 Li 0.36455 0.35371 0.01543 0.0
Li354 Li 0.35705 0.36213 0.9881 0.0
Li355 Li 0.34941 0.33348 0.99294 0.0
C356 C 0.34951 0.37992 0.01238 0.0
N357 N 0.33937 0.40324 0.01043 0.0
C358 C 0.35864 0.39542 0.02113 0.0
C359 C 0.33524 0.37632 0.00256 0.0
C360 C 0.3533 0.40703 0.02001 0.0
C361 C 0.33031 0.38826 0.00177 0.0
C362 C 0.34751 0.32743 0.03438 0.0
C363 C 0.35848 0.31437 0.05306 0.0
N364 N 0.35452 0.3205 0.06743 0.0
C365 C 0.34346 0.33353 0.04931 0.0
C366 C 0.35501 0.31771 0.03623 0.0
C367 C 0.34714 0.32992 0.06591 0.0
C368 C 0.30286 0.32239 0.01569 0.0
N369 N 0.31447 0.33835 0.0205 0.0
C370 C 0.29495 0.34036 0.03925 0.0
C371 C 0.31096 0.34739 0.03218 0.0
C372 C 0.2827 0.32399 0.03415 0.0
C373 C 0.28677 0.31496 0.02229 0.0
H374 H 0.30624 0.31537 0.00684 0.0
H375 H 0.32058 0.3599 0.03615 0.0
C376 C 0.39168 0.35524 0.03521 0.0
N377 N 0.38078 0.36092 0.03392 0.0
C378 C 0.40288 0.36024 0.04945 0.0
C379 C 0.39159 0.37705 0.06052 0.0
C380 C 0.38053 0.3716 0.0462 0.0
C381 C 0.40286 0.37129 0.06223 0.0
H382 H 0.39154 0.34666 0.02535 0.0
H383 H 0.37156 0.37572 0.04497 0.0
C384 C 0.32867 0.33532 0.96811 0.0
N385 N 0.31616 0.32147 0.93517 0.0
C386 C 0.33932 0.33986 0.95376 0.0
C387 C 0.31164 0.3238 0.96568 0.0
C388 C 0.33277 0.33269 0.93723 0.0
C389 C 0.30556 0.31695 0.94893 0.0
C390 C 0.38009 0.34697 0.98125 0.0
C391 C 0.3856 0.3531 0.96447 0.0
C392 C 0.38249 0.33428 0.98768 0.0
C393 C 0.39331 0.3463 0.95432 0.0
C394 C 0.39024 0.3278 0.97712 0.0
N395 N 0.39543 0.33389 0.96079 0.0
C396 C 0.38039 0.39145 0.97127 0.0
C397 C 0.35234 0.38093 0.96186 0.0
C398 C 0.38598 0.40489 0.95993 0.0
N399 N 0.36385 0.37981 0.97197 0.0
C400 C 0.35737 0.39415 0.95033 0.0
C401 C 0.37437 0.40628 0.94935 0.0
H402 H 0.38922 0.39028 0.97959 0.0
H403 H 0.33924 0.37161 0.96284 0.0
C404 C 0.33178 0.29909 0.99151 0.0
N405 N 0.34306 0.31229 0.98206 0.0
C406 C 0.32344 0.28302 0.98405 0.0
C407 C 0.33891 0.29417 0.95739 0.0
C408 C 0.34695 0.31012 0.96537 0.0
C409 C 0.3267 0.28056 0.96669 0.0
H410 H 0.32856 0.30115 0.00455 0.0
H411 H 0.35561 0.3208 0.95791 0.0
O412 O 0.35485 0.36861 0.01309 0.0
O413 O 0.34452 0.33129 0.01802 0.0
O414 O 0.33487 0.34215 0.98443 0.0
O415 O 0.37263 0.35355 0.99142 0.0
H416 H 0.3698 0.39848 0.02865 0.0
H417 H 0.32803 0.36447 0.9956 0.0
H418 H 0.36026 0.41907 0.02673 0.0
H419 H 0.3193 0.38563 0.99423 0.0
H420 H 0.36436 0.30693 0.05471 0.0
H421 H 0.33777 0.34118 0.04808 0.0
H422 H 0.35823 0.31292 0.02478 0.0
H423 H 0.34421 0.33466 0.07759 0.0
H424 H 0.29215 0.34753 0.04855 0.0
H425 H 0.27761 0.30224 0.01832 0.0
H426 H 0.41142 0.35555 0.05052 0.0
H427 H 0.39125 0.38551 0.07028 0.0
H428 H 0.35253 0.3487 0.9554 0.0
H429 H 0.30317 0.32024 0.97657 0.0
H430 H 0.34089 0.33603 0.92604 0.0
H431 H 0.29241 0.308 0.94687 0.0
H432 H 0.38393 0.36298 0.95931 0.0
H433 H 0.37814 0.32927 0.00055 0.0
H434 H 0.39758 0.35088 0.94128 0.0
H435 H 0.39205 0.31789 0.98188 0.0
H436 H 0.39917 0.41413 0.95945 0.0
H437 H 0.34815 0.395 0.94234 0.0
H438 H 0.31396 0.27273 0.99146 0.0
H439 H 0.34152 0.2926 0.94388 0.0
Li440 Li 0.66021 0.985 0.02094 0.0
Li441 Li 0.65193 0.00553 0.02898 0.0
Li442 Li 0.64352 0.9906 0.99941 0.0
Li443 Li 0.67209 0.01202 0.00619 0.0
C444 C 0.62475 0.96755 0.03109 0.0
N445 N 0.59883 0.94009 0.04692 0.0
C446 C 0.62364 0.96695 0.04938 0.0
C447 C 0.61256 0.95423 0.02084 0.0
C448 C 0.61048 0.95295 0.05714 0.0
C449 C 0.59959 0.94045 0.02909 0.0
C450 C 0.68101 0.0153 0.04696 0.0
C451 C 0.69181 0.03924 0.06676 0.0
N452 N 0.6941 0.0303 0.07934 0.0
C453 C 0.68354 0.00637 0.06006 0.0
C454 C 0.68525 0.03189 0.05028 0.0
C455 C 0.69016 0.01418 0.07635 0.0
C456 C 0.68007 0.97085 0.02213 0.0
N457 N 0.66619 0.96956 0.02956 0.0
C458 C 0.6652 0.94986 0.05013 0.0
C459 C 0.65861 0.95924 0.04323 0.0
C460 C 0.67965 0.9512 0.04281 0.0
C461 C 0.687 0.96166 0.02852 0.0
H462 H 0.68604 0.97944 0.01154 0.0
H463 H 0.64785 0.95871 0.04919 0.0
C464 C 0.6344 0.02033 0.04273 0.0
N465 N 0.64373 0.01344 0.04747 0.0
C466 C 0.62678 0.02508 0.05552 0.0
C467 C 0.63879 0.01588 0.07786 0.0
C468 C 0.64602 0.01116 0.06465 0.0
C469 C 0.62892 0.02278 0.0733 0.0
H470 H 0.63257 0.02177 0.02897 0.0
H471 H 0.65309 0.00526 0.06812 0.0
C472 C 0.66057 0.9755 0.98552 0.0
N473 N 0.65367 0.94717 0.96613 0.0
C474 C 0.66987 0.97684 0.97063 0.0
C475 C 0.64785 0.95975 0.99062 0.0
C476 C 0.66616 0.96237 0.96097 0.0
C477 C 0.64453 0.94558 0.98063 0.0
C478 C 0.65842 0.02903 0.99631 0.0
C479 C 0.65695 0.02835 0.97799 0.0
C480 C 0.66672 0.04455 0.00512 0.0
C481 C 0.66402 0.04326 0.96876 0.0
C482 C 0.67363 0.05919 0.99542 0.0
N483 N 0.67217 0.05824 0.97759 0.0
C484 C 0.6118 0.9812 0.98666 0.0
C485 C 0.62964 0.98044 0.9649 0.0
C486 C 0.59969 0.97825 0.97393 0.0
N487 N 0.62648 0.98246 0.98192 0.0
C488 C 0.61786 0.97746 0.95174 0.0
C489 C 0.60289 0.97673 0.95625 0.0
H490 H 0.60985 0.98326 0.00025 0.0
H491 H 0.64163 0.98207 0.96141 0.0
C492 C 0.70501 0.04061 0.00465 0.0
N493 N 0.69177 0.02849 0.99524 0.0
C494 C 0.71997 0.05125 0.99626 0.0
C495 C 0.70725 0.03686 0.96871 0.0
C496 C 0.69253 0.02659 0.97759 0.0
C497 C 0.7212 0.04915 0.97816 0.0
H498 H 0.70414 0.04168 0.01868 0.0
H499 H 0.68181 0.01678 0.97051 0.0
O500 O 0.63732 0.98133 0.0232 0.0
O501 O 0.67452 0.00785 0.03094 0.0
O502 O 0.66408 0.98957 0.99509 0.0
O503 O 0.65198 0.01458 0.00554 0.0
H504 H 0.63297 0.97707 0.05752 0.0
H505 H 0.61305 0.95454 0.00665 0.0
H506 H 0.60955 0.9523 0.07129 0.0
H507 H 0.59011 0.93005 0.02131 0.0
H508 H 0.69505 0.05203 0.06955 0.0
H509 H 0.68041 0.99356 0.05768 0.0
H510 H 0.68333 0.03896 0.04032 0.0
H511 H 0.69215 0.00741 0.08662 0.0
H512 H 0.6594 0.942 0.06132 0.0
H513 H 0.69825 0.96304 0.02272 0.0
H514 H 0.6191 0.03025 0.05162 0.0
H515 H 0.64053 0.01383 0.09147 0.0
H516 H 0.67985 0.98892 0.96656 0.0
H517 H 0.64075 0.95845 0.00224 0.0
H518 H 0.67323 0.96323 0.94939 0.0
H519 H 0.63472 0.93331 0.98444 0.0
H520 H 0.65059 0.01644 0.97097 0.0
H521 H 0.66784 0.04528 0.0193 0.0
H522 H 0.66308 0.04293 0.95458 0.0
H523 H 0.68017 0.07129 0.00205 0.0
H524 H 0.5883 0.97793 0.9777 0.0
H525 H 0.6207 0.97656 0.93813 0.0
H526 H 0.73062 0.06062 0.00385 0.0
H527 H 0.70789 0.03499 0.95472 0.0
Li528 Li 0.65516 0.66426 0.3323 0.0
Li529 Li 0.68103 0.67739 0.34942 0.0
Li530 Li 0.66135 0.6863 0.3537 0.0
Li531 Li 0.67737 0.69454 0.32677 0.0
C532 C 0.64272 0.65325 0.36546 0.0
N533 N 0.6118 0.63229 0.3797 0.0
C534 C 0.64063 0.64076 0.37699 0.0
C535 C 0.62907 0.65507 0.36121 0.0
C536 C 0.6249 0.63028 0.38404 0.0
C537 C 0.61355 0.64437 0.36855 0.0
C538 C 0.68426 0.66351 0.31853 0.0
C539 C 0.7043 0.65917 0.30289 0.0
N540 N 0.69773 0.64375 0.30999 0.0
C541 C 0.67766 0.64761 0.32565 0.0
C542 C 0.69767 0.66936 0.30706 0.0
C543 C 0.68467 0.63781 0.32118 0.0
C544 C 0.63497 0.64679 0.30341 0.0
N545 N 0.63872 0.64469 0.32012 0.0
C546 C 0.61868 0.61541 0.31825 0.0
C547 C 0.63106 0.62936 0.32756 0.0
C548 C 0.61445 0.61734 0.30113 0.0
C549 C 0.62276 0.63316 0.2936 0.0
H550 H 0.64137 0.65912 0.29781 0.0
H551 H 0.6345 0.62792 0.34071 0.0
C552 C 0.69319 0.66157 0.37146 0.0
N553 N 0.69738 0.67305 0.35869 0.0
C554 C 0.7043 0.65635 0.37642 0.0
C555 C 0.72394 0.67515 0.35531 0.0
C556 C 0.71253 0.68016 0.35088 0.0
C557 C 0.71969 0.66293 0.36802 0.0
H558 H 0.68101 0.65607 0.37732 0.0
H559 H 0.71542 0.68915 0.34064 0.0
C560 C 0.6423 0.689 0.32308 0.0
N561 N 0.62059 0.69848 0.30986 0.0
C562 C 0.64821 0.70566 0.31868 0.0
C563 C 0.62537 0.67712 0.32049 0.0
C564 C 0.63703 0.71022 0.31209 0.0
C565 C 0.61459 0.68218 0.31388 0.0
C566 C 0.6889 0.71314 0.36306 0.0
C567 C 0.68759 0.72685 0.35788 0.0
C568 C 0.69242 0.71179 0.38061 0.0
C569 C 0.68969 0.73895 0.37045 0.0
C570 C 0.69444 0.72416 0.39278 0.0
N571 N 0.69303 0.73735 0.38749 0.0
C572 C 0.6505 0.689 0.38788 0.0
C573 C 0.64643 0.70481 0.36631 0.0
C574 C 0.64336 0.69433 0.40066 0.0
N575 N 0.65172 0.69414 0.37102 0.0
C576 C 0.63914 0.71035 0.37859 0.0
C577 C 0.63747 0.70501 0.39593 0.0
H578 H 0.65507 0.68074 0.39139 0.0
H579 H 0.648 0.7092 0.35308 0.0
C580 C 0.68046 0.70962 0.29385 0.0
N581 N 0.68804 0.71106 0.30965 0.0
C582 C 0.68793 0.72251 0.2818 0.0
C583 C 0.71105 0.73775 0.30231 0.0
C584 C 0.70314 0.72461 0.31396 0.0
C585 C 0.70329 0.73679 0.28616 0.0
H586 H 0.66846 0.69864 0.29081 0.0
H587 H 0.70887 0.72533 0.3266 0.0
O588 O 0.65808 0.66354 0.35841 0.0
O589 O 0.67804 0.67356 0.32329 0.0
O590 O 0.65313 0.68423 0.32922 0.0
O591 O 0.68636 0.7009 0.35107 0.0
H592 H 0.65102 0.63911 0.38041 0.0
H593 H 0.63047 0.66474 0.35251 0.0
H594 H 0.62311 0.62054 0.39294 0.0
H595 H 0.60291 0.6457 0.36539 0.0
H596 H 0.71473 0.66354 0.29406 0.0
H597 H 0.66746 0.64302 0.33478 0.0
H598 H 0.70299 0.68171 0.30156 0.0
H599 H 0.67978 0.62553 0.32669 0.0
H600 H 0.61245 0.60327 0.32434 0.0
H601 H 0.61965 0.63499 0.2804 0.0
H602 H 0.70071 0.64689 0.38631 0.0
H603 H 0.73567 0.68032 0.34846 0.0
H604 H 0.66125 0.71504 0.32057 0.0
H605 H 0.62059 0.66411 0.32348 0.0
H606 H 0.64142 0.72309 0.30876 0.0
H607 H 0.60146 0.67312 0.31188 0.0
H608 H 0.68473 0.72799 0.34436 0.0
H609 H 0.69339 0.70119 0.38481 0.0
H610 H 0.68859 0.74956 0.36667 0.0
H611 H 0.69706 0.72323 0.40645 0.0
H612 H 0.64231 0.6901 0.41402 0.0
H613 H 0.63484 0.71875 0.37463 0.0
H614 H 0.6817 0.72151 0.26939 0.0
H615 H 0.72293 0.74867 0.30596 0.0
Li616 Li 0.30023 0.97965 0.33849 0.0
Li617 Li 0.30712 0.96727 0.36408 0.0
Li618 Li 0.32082 0.99824 0.3609 0.0
Li619 Li 0.32699 0.98189 0.34159 0.0
C620 C 0.28334 0.97937 0.37298 0.0
N621 N 0.2555 0.97441 0.39103 0.0
C622 C 0.26998 0.96315 0.37542 0.0
C623 C 0.28253 0.99307 0.37972 0.0
C624 C 0.25602 0.9609 0.38458 0.0
C625 C 0.26835 0.9903 0.3888 0.0
C626 C 0.30934 0.95138 0.32938 0.0
C627 C 0.32116 0.93344 0.32795 0.0
N628 N 0.31995 0.93305 0.31012 0.0
C629 C 0.30813 0.95074 0.31105 0.0
C630 C 0.31584 0.94262 0.33793 0.0
C631 C 0.3136 0.94143 0.30155 0.0
C632 C 0.28628 0.97769 0.30516 0.0
N633 N 0.28286 0.97638 0.3226 0.0
C634 C 0.25453 0.9686 0.31649 0.0
C635 C 0.26743 0.97221 0.32843 0.0
C636 C 0.2576 0.96926 0.29845 0.0
C637 C 0.27371 0.97408 0.29274 0.0
H638 H 0.29872 0.98122 0.30092 0.0
H639 H 0.26499 0.97136 0.34229 0.0
C640 C 0.30261 0.9506 0.39658 0.0
N641 N 0.2979 0.94889 0.37937 0.0
C642 C 0.29579 0.93658 0.40728 0.0
C643 C 0.27951 0.91948 0.38233 0.0
C644 C 0.28657 0.93376 0.37215 0.0
C645 C 0.28411 0.92086 0.40007 0.0
H646 H 0.3117 0.96281 0.40192 0.0
H647 H 0.28307 0.9328 0.35842 0.0
C648 C 0.32029 0.01241 0.3289 0.0
N649 N 0.31583 0.03801 0.31727 0.0
C650 C 0.3306 0.02312 0.31595 0.0
C651 C 0.30767 0.01469 0.33589 0.0
C652 C 0.32817 0.036 0.31026 0.0
C653 C 0.30562 0.0277 0.32984 0.0
C654 C 0.34743 0.9953 0.3718 0.0
C655 C 0.35742 0.00885 0.36114 0.0
C656 C 0.3542 0.99301 0.38721 0.0
C657 C 0.37404 0.01988 0.36609 0.0
C658 C 0.37088 0.00431 0.39171 0.0
N659 N 0.38037 0.0174 0.38115 0.0
C660 C 0.3264 0.01785 0.3916 0.0
C661 C 0.34038 0.03353 0.3666 0.0
C662 C 0.33368 0.0324 0.40214 0.0
N663 N 0.32981 0.01869 0.37417 0.0
C664 C 0.34783 0.04836 0.37662 0.0
C665 C 0.34453 0.04782 0.39458 0.0
H666 H 0.31825 0.00582 0.39734 0.0
H667 H 0.34339 0.03387 0.35289 0.0
C668 C 0.34696 0.98701 0.3119 0.0
N669 N 0.34437 0.98167 0.32873 0.0
C670 C 0.35977 0.98716 0.30223 0.0
C671 C 0.36695 0.97632 0.32743 0.0
C672 C 0.35393 0.97624 0.33655 0.0
C673 C 0.36999 0.98193 0.31014 0.0
H674 H 0.33907 0.99115 0.30603 0.0
H675 H 0.35145 0.9719 0.34989 0.0
O676 O 0.29721 0.98186 0.36418 0.0
O677 O 0.30456 0.96086 0.33892 0.0
O678 O 0.32259 0.99975 0.3345 0.0
O679 O 0.33102 0.98446 0.36743 0.0
H680 H 0.27028 0.95243 0.37008 0.0
H681 H 0.29272 0.00572 0.3779 0.0
H682 H 0.24558 0.94842 0.38653 0.0
H683 H 0.26755 0.00079 0.39407 0.0
H684 H 0.32633 0.92671 0.33438 0.0
H685 H 0.30318 0.95747 0.30423 0.0
H686 H 0.31706 0.94316 0.3521 0.0
H687 H 0.31283 0.94089 0.28735 0.0
H688 H 0.24217 0.96492 0.32123 0.0
H689 H 0.27641 0.97471 0.27886 0.0
H690 H 0.29958 0.93797 0.42098 0.0
H691 H 0.27065 0.90746 0.37637 0.0
H692 H 0.34042 0.0215 0.3104 0.0
H693 H 0.29951 0.0065 0.34582 0.0
H694 H 0.33609 0.04441 0.30028 0.0
H695 H 0.2959 0.0296 0.33514 0.0
H696 H 0.35241 0.01087 0.34918 0.0
H697 H 0.3466 0.98261 0.39563 0.0
H698 H 0.3819 0.03042 0.35798 0.0
H699 H 0.37628 0.00269 0.40361 0.0
H700 H 0.33111 0.03158 0.41606 0.0
H701 H 0.35629 0.0601 0.37047 0.0
H702 H 0.36185 0.99151 0.28886 0.0
H703 H 0.37463 0.97216 0.33381 0.0
Li704 Li 0.02883 0.32 0.3294 0.0
Li705 Li 0.03825 0.33813 0.35582 0.0
Li706 Li 0.00738 0.3183 0.34982 0.0
Li707 Li 0.0234 0.34394 0.33345 0.0
C708 C 0.02495 0.29847 0.35761 0.0
N709 N 0.02383 0.26864 0.36415 0.0
C710 C 0.03855 0.29854 0.36569 0.0
C711 C 0.01065 0.28319 0.35321 0.0
C712 C 0.03779 0.28334 0.36878 0.0
C713 C 0.01035 0.26826 0.35654 0.0
C714 C 0.0618 0.35538 0.33124 0.0
C715 C 0.08578 0.38208 0.33949 0.0
N716 N 0.09598 0.37706 0.3324 0.0
C717 C 0.07253 0.35057 0.32385 0.0
C718 C 0.06847 0.37134 0.33893 0.0
C719 C 0.08977 0.36168 0.32463 0.0
C720 C 0.02939 0.30482 0.29666 0.0
N721 N 0.03518 0.30812 0.31357 0.0
C722 C 0.05232 0.29614 0.30821 0.0
C723 C 0.04647 0.304 0.31945 0.0
C724 C 0.04663 0.29269 0.29075 0.0
C725 C 0.03491 0.29692 0.28495 0.0
H726 H 0.02072 0.30857 0.29218 0.0
H727 H 0.05136 0.30733 0.33271 0.0
C728 C 0.05529 0.35662 0.38695 0.0
N729 N 0.05587 0.34772 0.37287 0.0
C730 C 0.06893 0.36463 0.39861 0.0
C731 C 0.08338 0.35409 0.38106 0.0
C732 C 0.0694 0.34606 0.36996 0.0
C733 C 0.08321 0.36352 0.39552 0.0
H734 H 0.04433 0.35767 0.389 0.0
H735 H 0.06948 0.3388 0.35875 0.0
C736 C 0.99423 0.30902 0.31506 0.0
N737 N 0.96578 0.285 0.2974 0.0
C738 C 0.98335 0.31338 0.30719 0.0
C739 C 0.99079 0.29251 0.31361 0.0
C740 C 0.96898 0.30104 0.29842 0.0
C741 C 0.97631 0.28053 0.30472 0.0
C742 C 0.01522 0.35393 0.36301 0.0
C743 C 0.99859 0.34959 0.3653 0.0
C744 C 0.02784 0.37074 0.3645 0.0
C745 C 0.99481 0.36218 0.36861 0.0
C746 C 0.02356 0.38297 0.36777 0.0
N747 N 0.00727 0.37848 0.36972 0.0
C748 C 0.98488 0.29451 0.37386 0.0
C749 C 0.97238 0.30336 0.35259 0.0
C750 C 0.9693 0.28383 0.38113 0.0
N751 N 0.98609 0.30383 0.35972 0.0
C752 C 0.9566 0.29292 0.35945 0.0
C753 C 0.955 0.283 0.37382 0.0
H754 H 0.99601 0.29537 0.37951 0.0
H755 H 0.97373 0.3113 0.34175 0.0
C756 C 0.03506 0.3738 0.31425 0.0
N757 N 0.02155 0.36105 0.32206 0.0
C758 C 0.03375 0.38654 0.30622 0.0
C759 C 0.00464 0.3727 0.31425 0.0
C760 C 0.0065 0.36023 0.3221 0.0
C761 C 0.0184 0.386 0.30623 0.0
H762 H 0.04681 0.37405 0.31421 0.0
H763 H 0.99595 0.3499 0.32829 0.0
O764 O 0.02552 0.31328 0.3545 0.0
O765 O 0.04488 0.34452 0.33088 0.0
O766 O 0.00831 0.32096 0.3238 0.0
O767 O 0.01913 0.34179 0.3594 0.0
H768 H 0.04963 0.3102 0.36946 0.0
H769 H 0.99977 0.28282 0.34756 0.0
H770 H 0.04829 0.28323 0.37488 0.0
H771 H 0.99936 0.25636 0.35315 0.0
H772 H 0.09109 0.39441 0.34557 0.0
H773 H 0.06763 0.33839 0.31759 0.0
H774 H 0.06039 0.37537 0.34452 0.0
H775 H 0.0982 0.35806 0.31905 0.0
H776 H 0.06142 0.29306 0.31302 0.0
H777 H 0.0304 0.29449 0.27146 0.0
H778 H 0.06844 0.37179 0.40974 0.0
H779 H 0.0943 0.35315 0.37821 0.0
H780 H 0.98591 0.32613 0.30791 0.0
H781 H 0.99934 0.28903 0.31904 0.0
H782 H 0.9604 0.30422 0.2924 0.0
H783 H 0.9735 0.2677 0.30356 0.0
H784 H 0.98867 0.33666 0.36442 0.0
H785 H 0.04079 0.37432 0.36311 0.0
H786 H 0.98197 0.359 0.37027 0.0
H787 H 0.0332 0.39604 0.36879 0.0
H788 H 0.96839 0.27636 0.39231 0.0
H789 H 0.94575 0.29261 0.35367 0.0
H790 H 0.04454 0.39666 0.30001 0.0
H791 H 0.99263 0.37198 0.31436 0.0
Li792 Li 0.68061 0.99711 0.34885 0.0
Li793 Li 0.66156 0.96634 0.35419 0.0
Li794 Li 0.6794 0.97614 0.32777 0.0
Li795 Li 0.6561 0.98034 0.33095 0.0
C796 C 0.70375 0.98631 0.35408 0.0
N797 N 0.73797 0.99987 0.35595 0.0
C798 C 0.7106 0.97896 0.36454 0.0
C799 C 0.7143 0.00055 0.34456 0.0
C800 C 0.72793 0.986 0.36531 0.0
C801 C 0.73156 0.00722 0.34568 0.0
C802 C 0.64363 0.98687 0.35898 0.0
C803 C 0.614 0.975 0.36288 0.0
N804 N 0.61603 0.99058 0.36218 0.0
C805 C 0.64545 0.0028 0.3585 0.0
C806 C 0.62781 0.97287 0.36136 0.0
C807 C 0.63134 0.0044 0.36005 0.0
C808 C 0.69281 0.03101 0.35003 0.0
N809 N 0.69369 0.01886 0.3589 0.0
C810 C 0.71143 0.03874 0.38095 0.0
C811 C 0.70279 0.02233 0.37407 0.0
C812 C 0.71042 0.05139 0.37212 0.0
C813 C 0.70109 0.04745 0.35647 0.0
H814 H 0.68537 0.02781 0.33808 0.0
H815 H 0.70318 0.01237 0.38087 0.0
C816 C 0.65108 0.93446 0.36718 0.0
N817 N 0.65273 0.94958 0.37126 0.0
C818 C 0.64477 0.92178 0.37949 0.0
C819 C 0.64209 0.94052 0.39997 0.0
C820 C 0.64836 0.95283 0.38721 0.0
C821 C 0.64032 0.92485 0.39609 0.0
H822 H 0.65473 0.93232 0.35438 0.0
H823 H 0.64987 0.965 0.39004 0.0
C824 C 0.68066 0.00056 0.30578 0.0
N825 N 0.68452 0.00824 0.27059 0.0
C826 C 0.67025 0.98863 0.29318 0.0
C827 C 0.69301 0.01643 0.30051 0.0
C828 C 0.67239 0.99274 0.27545 0.0
C829 C 0.69478 0.02006 0.28264 0.0
C830 C 0.64166 0.94563 0.32201 0.0
C831 C 0.64168 0.94112 0.30441 0.0
C832 C 0.62741 0.93624 0.33203 0.0
C833 C 0.62728 0.92756 0.29698 0.0
C834 C 0.61327 0.92275 0.32414 0.0
N835 N 0.61348 0.91874 0.30691 0.0
C836 C 0.68734 0.95413 0.31053 0.0
C837 C 0.70446 0.98251 0.3026 0.0
C838 C 0.69562 0.94917 0.2988 0.0
N839 N 0.69179 0.97052 0.31209 0.0
C840 C 0.71293 0.97809 0.29058 0.0
C841 C 0.70843 0.96125 0.28856 0.0
H842 H 0.67726 0.9449 0.31832 0.0
H843 H 0.70796 0.99548 0.30429 0.0
C844 C 0.64506 0.99955 0.31556 0.0
N845 N 0.63964 0.9832 0.31879 0.0
C846 C 0.63464 0.0041 0.30722 0.0
C847 C 0.61298 0.9749 0.30573 0.0
C848 C 0.6239 0.97088 0.31414 0.0
C849 C 0.61846 0.9917 0.30219 0.0
H850 H 0.65747 0.00914 0.31974 0.0
H851 H 0.61969 0.95803 0.3171 0.0
O852 O 0.6868 0.97947 0.35312 0.0
O853 O 0.65722 0.98498 0.35699 0.0
O854 O 0.67885 0.99684 0.32323 0.0
O855 O 0.65575 0.9587 0.32957 0.0
H856 H 0.70259 0.9679 0.37196 0.0
H857 H 0.70924 0.0064 0.33636 0.0
H858 H 0.73341 0.98045 0.37335 0.0
H859 H 0.73986 0.01823 0.33838 0.0
H860 H 0.60167 0.96425 0.36462 0.0
H861 H 0.6576 0.01377 0.35673 0.0
H862 H 0.6262 0.96049 0.36198 0.0
H863 H 0.63254 0.01663 0.35953 0.0
H864 H 0.71857 0.0415 0.39309 0.0
H865 H 0.70012 0.057 0.34942 0.0
H866 H 0.64358 0.90979 0.37622 0.0
H867 H 0.6388 0.94321 0.41274 0.0
H868 H 0.66054 0.9764 0.29707 0.0
H869 H 0.70119 0.02581 0.31012 0.0
H870 H 0.66439 0.98361 0.26556 0.0
H871 H 0.70431 0.03228 0.27836 0.0
H872 H 0.65274 0.94791 0.29657 0.0
H873 H 0.62724 0.93933 0.34573 0.0
H874 H 0.6271 0.92399 0.28335 0.0
H875 H 0.60213 0.91545 0.33171 0.0
H876 H 0.69198 0.93608 0.29755 0.0
H877 H 0.7229 0.98767 0.28294 0.0
H878 H 0.63911 0.01719 0.30479 0.0
H879 H 0.60044 0.9651 0.30212 0.0
Li880 Li 0.03814 0.70062 0.3606 0.0
Li881 Li 0.00853 0.68996 0.35508 0.0
Li882 Li 0.02427 0.67989 0.33803 0.0
Li883 Li 0.0295 0.70782 0.33306 0.0
C884 C 0.02224 0.6733 0.37929 0.0
N885 N 0.02905 0.6655 0.412 0.0
C886 C 0.01579 0.67665 0.39434 0.0
C887 C 0.03198 0.6658 0.38084 0.0
C888 C 0.01942 0.67266 0.41077 0.0
C889 C 0.03533 0.662 0.39751 0.0
C890 C 0.02037 0.72432 0.35744 0.0
C891 C 0.00011 0.73118 0.34671 0.0
N892 N 0.00781 0.7457 0.35637 0.0
C893 C 0.02807 0.7393 0.36726 0.0
C894 C 0.00626 0.7202 0.34707 0.0
C895 C 0.02153 0.74995 0.36655 0.0
C896 C 0.06953 0.71 0.3767 0.0
N897 N 0.05468 0.70923 0.37889 0.0
C898 C 0.06266 0.72042 0.40814 0.0
C899 C 0.05106 0.71424 0.39423 0.0
C900 C 0.07875 0.72241 0.40617 0.0
C901 C 0.08153 0.7162 0.3902 0.0
H902 H 0.07203 0.70563 0.36452 0.0
H903 H 0.03896 0.71311 0.39581 0.0
C904 C 0.97475 0.66772 0.35938 0.0
N905 N 0.98739 0.6828 0.3653 0.0
C906 C 0.95879 0.66105 0.36624 0.0
C907 C 0.96926 0.6853 0.38572 0.0
C908 C 0.98503 0.69161 0.3783 0.0
C909 C 0.95594 0.66989 0.37956 0.0
H910 H 0.97717 0.66075 0.34949 0.0
H911 H 0.99541 0.70339 0.38307 0.0
C912 C 0.05586 0.69616 0.32733 0.0
N913 N 0.07488 0.6862 0.3086 0.0
C914 C 0.06168 0.70258 0.31071 0.0
C915 C 0.05984 0.68479 0.33448 0.0
C916 C 0.07125 0.69736 0.30144 0.0
C917 C 0.06942 0.67986 0.32479 0.0
C918 C 0.00346 0.68001 0.31239 0.0
C919 C 0.01503 0.68592 0.29884 0.0
C920 C 0.98707 0.66717 0.30883 0.0
C921 C 0.01004 0.67887 0.28197 0.0
C922 C 0.98256 0.66042 0.29179 0.0
N923 N 0.99405 0.66636 0.27882 0.0
C924 C 0.01025 0.64538 0.33595 0.0
C925 C 0.02593 0.6587 0.31069 0.0
C926 C 0.00464 0.62963 0.3282 0.0
N927 N 0.02055 0.65951 0.32708 0.0
C928 C 0.02064 0.64319 0.30246 0.0
C929 C 0.00966 0.62852 0.31118 0.0
H930 H 0.00586 0.64634 0.34879 0.0
H931 H 0.0338 0.67002 0.30369 0.0
C932 C 0.05152 0.73719 0.3154 0.0
N933 N 0.03518 0.7251 0.31663 0.0
C934 C 0.05646 0.74952 0.30277 0.0
C935 C 0.02758 0.73702 0.2933 0.0
C936 C 0.02319 0.72493 0.30611 0.0
C937 C 0.04441 0.74935 0.29147 0.0
H938 H 0.06074 0.73701 0.324 0.0
H939 H 0.01028 0.71521 0.30742 0.0
O940 O 0.01905 0.67735 0.36311 0.0
O941 O 0.02673 0.71385 0.35797 0.0
O942 O 0.0465 0.70116 0.33663 0.0
O943 O 0.0082 0.68659 0.32909 0.0
H944 H 0.00824 0.68246 0.39337 0.0
H945 H 0.03687 0.6629 0.36931 0.0
H946 H 0.01461 0.6753 0.42255 0.0
H947 H 0.04291 0.65625 0.39892 0.0
H948 H 0.9892 0.72815 0.33875 0.0
H949 H 0.03901 0.74266 0.37534 0.0
H950 H 9e-05 0.70865 0.33941 0.0
H951 H 0.02738 0.76159 0.37408 0.0
H952 H 0.05839 0.7229 0.42029 0.0
H953 H 0.09262 0.71546 0.38803 0.0
H954 H 0.9488 0.64902 0.36139 0.0
H955 H 0.96746 0.69228 0.39617 0.0
H956 H 0.05882 0.71146 0.30498 0.0
H957 H 0.05543 0.67969 0.34731 0.0
H958 H 0.07579 0.70218 0.28853 0.0
H959 H 0.0725 0.67099 0.33014 0.0
H960 H 0.02781 0.69566 0.30135 0.0
H961 H 0.97789 0.66245 0.31908 0.0
H962 H 0.01891 0.68329 0.2714 0.0
H963 H 0.96993 0.65045 0.28888 0.0
H964 H 0.99604 0.61846 0.33515 0.0
H965 H 0.02457 0.64264 0.28922 0.0
H966 H 0.06955 0.75889 0.30158 0.0
H967 H 0.01803 0.7366 0.28471 0.0
Li968 Li 0.31611 0.34386 0.3644 0.0
Li969 Li 0.32377 0.3225 0.35877 0.0
Li970 Li 0.33533 0.34806 0.34139 0.0
Li971 Li 0.30639 0.3261 0.33657 0.0
C972 C 0.34457 0.35363 0.38273 0.0
N973 N 0.35662 0.36887 0.41525 0.0
C974 C 0.34525 0.34438 0.3967 0.0
C975 C 0.35014 0.37065 0.38525 0.0
C976 C 0.35137 0.35232 0.41305 0.0
C977 C 0.35613 0.37812 0.40181 0.0
C978 C 0.29003 0.30535 0.37051 0.0
C979 C 0.26774 0.27651 0.37112 0.0
N980 N 0.26755 0.2776 0.38893 0.0
C981 C 0.28951 0.30621 0.38881 0.0
C982 C 0.27896 0.29041 0.36156 0.0
C983 C 0.27809 0.29204 0.3979 0.0
C984 C 0.30145 0.36246 0.37531 0.0
N985 N 0.30904 0.35422 0.38149 0.0
C986 C 0.30379 0.35894 0.41112 0.0
C987 C 0.31043 0.35249 0.39903 0.0
C988 C 0.29558 0.36711 0.40502 0.0
C989 C 0.29458 0.36907 0.38694 0.0
H990 H 0.30031 0.36348 0.36131 0.0
H991 H 0.31629 0.34573 0.40368 0.0
C992 C 0.34501 0.31052 0.36138 0.0
N993 N 0.33027 0.30765 0.36807 0.0
C994 C 0.35205 0.30112 0.36677 0.0
C995 C 0.32872 0.28604 0.38614 0.0
C996 C 0.32203 0.29568 0.38023 0.0
C997 C 0.34388 0.28874 0.37928 0.0
H998 H 0.35133 0.32021 0.35184 0.0
H999 H 0.31041 0.29367 0.38547 0.0
C1000 C 0.32182 0.36447 0.32975 0.0
N1001 N 0.33582 0.39247 0.30909 0.0
C1002 C 0.31886 0.3628 0.31161 0.0
C1003 C 0.33174 0.38039 0.33742 0.0
C1004 C 0.32608 0.37711 0.30138 0.0
C1005 C 0.33876 0.39439 0.32674 0.0
C1006 C 0.32347 0.31068 0.32345 0.0
C1007 C 0.33168 0.31201 0.3077 0.0
C1008 C 0.31205 0.29487 0.32968 0.0
C1009 C 0.32815 0.29746 0.29833 0.0
C1010 C 0.30888 0.28061 0.31996 0.0
N1011 N 0.31691 0.28218 0.3046 0.0
C1012 C 0.36876 0.37461 0.33866 0.0
C1013 C 0.35512 0.36137 0.31171 0.0
C1014 C 0.38384 0.38423 0.33006 0.0
N1015 N 0.35488 0.36334 0.32942 0.0
C1016 C 0.36995 0.37066 0.3026 0.0
C1017 C 0.38453 0.382 0.3119 0.0
H1018 H 0.36828 0.37568 0.35276 0.0
H1019 H 0.3439 0.35219 0.30477 0.0
C1020 C 0.27301 0.31116 0.32506 0.0
N1021 N 0.28871 0.31576 0.3198 0.0
C1022 C 0.25988 0.30504 0.31279 0.0
C1023 C 0.27935 0.30848 0.28997 0.0
C1024 C 0.29208 0.31445 0.30268 0.0
C1025 C 0.26312 0.30391 0.29503 0.0
H1026 H 0.2708 0.31267 0.33872 0.0
H1027 H 0.30476 0.31862 0.29881 0.0
O1028 O 0.33865 0.34609 0.36661 0.0
O1029 O 0.30092 0.31919 0.36136 0.0
O1030 O 0.31522 0.35059 0.33993 0.0
O1031 O 0.32676 0.32484 0.33272 0.0
H1032 H 0.34104 0.33121 0.39499 0.0
H1033 H 0.3497 0.378 0.37459 0.0
H1034 H 0.35192 0.3453 0.424 0.0
H1035 H 0.36038 0.39125 0.40398 0.0
H1036 H 0.25916 0.26486 0.36435 0.0
H1037 H 0.29795 0.3176 0.39597 0.0
H1038 H 0.27894 0.28953 0.34738 0.0
H1039 H 0.27763 0.29252 0.41208 0.0
H1040 H 0.30458 0.35714 0.42503 0.0
H1041 H 0.28817 0.37521 0.38191 0.0
H1042 H 0.3638 0.30354 0.36132 0.0
H1043 H 0.32222 0.27661 0.39591 0.0
H1044 H 0.3112 0.35058 0.30547 0.0
H1045 H 0.33407 0.38188 0.35145 0.0
H1046 H 0.32398 0.376 0.28731 0.0
H1047 H 0.34655 0.40678 0.33248 0.0
H1048 H 0.34065 0.32415 0.30273 0.0
H1049 H 0.30584 0.2936 0.34196 0.0
H1050 H 0.33435 0.2983 0.28609 0.0
H1051 H 0.30007 0.26828 0.32466 0.0
H1052 H 0.39497 0.39288 0.33754 0.0
H1053 H 0.37018 0.36869 0.28857 0.0
H1054 H 0.24747 0.30172 0.317 0.0
H1055 H 0.28218 0.30787 0.27629 0.0
Li1056 Li 0.32386 0.00213 0.66552 0.0
Li1057 Li 0.3481 0.01824 0.68393 0.0
Li1058 Li 0.32468 0.02242 0.6869 0.0
Li1059 Li 0.34299 0.03258 0.6608 0.0
C1060 C 0.32423 0.98732 0.697 0.0
N1061 N 0.32259 0.95825 0.70798 0.0
C1062 C 0.33281 0.9808 0.68795 0.0
C1063 C 0.31484 0.97907 0.71165 0.0
C1064 C 0.33183 0.96609 0.6937 0.0
C1065 C 0.31415 0.96438 0.71698 0.0
C1066 C 0.36017 0.01444 0.64928 0.0
C1067 C 0.38736 0.02988 0.63621 0.0
N1068 N 0.38609 0.01521 0.6308 0.0
C1069 C 0.35911 0.99952 0.6435 0.0
C1070 C 0.37439 0.02976 0.64555 0.0
C1071 C 0.37236 0.00017 0.63422 0.0
C1072 C 0.31436 0.98007 0.63661 0.0
N1073 N 0.31053 0.98124 0.65358 0.0
C1074 C 0.29035 0.952 0.65365 0.0
C1075 C 0.29851 0.96771 0.66206 0.0
C1076 C 0.29454 0.95039 0.63639 0.0
C1077 C 0.30646 0.96462 0.62769 0.0
H1078 H 0.32395 0.99107 0.6302 0.0
H1079 H 0.29557 0.969 0.6755 0.0
C1080 C 0.36183 0.01437 0.71508 0.0
N1081 N 0.36462 0.01654 0.69753 0.0
C1082 C 0.37204 0.01104 0.72574 0.0
C1083 C 0.38802 0.01257 0.70018 0.0
C1084 C 0.37765 0.01605 0.69005 0.0
C1085 C 0.38504 0.00979 0.71812 0.0
H1086 H 0.3513 0.01467 0.72068 0.0
H1087 H 0.37978 0.01784 0.6762 0.0
C1088 C 0.30093 0.01211 0.65924 0.0
N1089 N 0.26669 0.99672 0.65478 0.0
C1090 C 0.29416 0.01618 0.64505 0.0
C1091 C 0.2903 0.00019 0.67117 0.0
C1092 C 0.27681 0.00827 0.64302 0.0
C1093 C 0.27302 0.99257 0.66869 0.0
C1094 C 0.3615 0.04827 0.69746 0.0
C1095 C 0.3583 0.04941 0.71518 0.0
C1096 C 0.378 0.05529 0.69191 0.0
C1097 C 0.37169 0.05738 0.72713 0.0
C1098 C 0.39104 0.06312 0.70426 0.0
N1099 N 0.38764 0.06398 0.72147 0.0
C1100 C 0.31009 0.02326 0.71922 0.0
C1101 C 0.30597 0.03741 0.69574 0.0
C1102 C 0.30184 0.02845 0.73073 0.0
N1103 N 0.31212 0.02797 0.70217 0.0
C1104 C 0.29743 0.04266 0.7067 0.0
C1105 C 0.29555 0.03836 0.72445 0.0
H1106 H 0.31524 0.01583 0.72394 0.0
H1107 H 0.30793 0.04108 0.68216 0.0
C1108 C 0.3494 0.04587 0.62666 0.0
N1109 N 0.35235 0.04968 0.64412 0.0
C1110 C 0.35653 0.0586 0.61439 0.0
C1111 C 0.36958 0.07877 0.63836 0.0
C1112 C 0.36214 0.06571 0.65014 0.0
C1113 C 0.36675 0.07522 0.62031 0.0
H1114 H 0.34155 0.03297 0.62232 0.0
H1115 H 0.36419 0.06832 0.66411 0.0
O1116 O 0.32511 0.00182 0.69176 0.0
O1117 O 0.34722 0.01401 0.65824 0.0
O1118 O 0.31789 0.0197 0.66132 0.0
O1119 O 0.34854 0.04014 0.68564 0.0
H1120 H 0.34019 0.98705 0.67667 0.0
H1121 H 0.30815 0.98398 0.71881 0.0
H1122 H 0.33842 0.96093 0.68683 0.0
H1123 H 0.30692 0.95785 0.7283 0.0
H1124 H 0.39844 0.04164 0.63329 0.0
H1125 H 0.34819 0.98754 0.64617 0.0
H1126 H 0.37549 0.04143 0.6499 0.0
H1127 H 0.37171 0.98872 0.62972 0.0
H1128 H 0.28113 0.94118 0.66064 0.0
H1129 H 0.30998 0.96369 0.61436 0.0
H1130 H 0.3694 0.00878 0.73958 0.0
H1131 H 0.39799 0.01159 0.69399 0.0
H1132 H 0.30224 0.02535 0.63569 0.0
H1133 H 0.2953 0.99686 0.68223 0.0
H1134 H 0.27139 0.0113 0.63209 0.0
H1135 H 0.26465 0.98333 0.67781 0.0
H1136 H 0.34563 0.04409 0.7197 0.0
H1137 H 0.3807 0.05453 0.67825 0.0
H1138 H 0.36939 0.05826 0.74091 0.0
H1139 H 0.40385 0.06848 0.70017 0.0
H1140 H 0.30057 0.02499 0.7444 0.0
H1141 H 0.29271 0.05032 0.70153 0.0
H1142 H 0.35417 0.05556 0.60049 0.0
H1143 H 0.37741 0.09152 0.64324 0.0
Li1144 Li 0.99909 0.31806 0.66543 0.0
Li1145 Li 0.98274 0.32493 0.68425 0.0
Li1146 Li 0.97906 0.29733 0.68528 0.0
Li1147 Li 0.96863 0.30612 0.6597 0.0
C1148 C 0.01382 0.33227 0.69786 0.0
N1149 N 0.0429 0.35977 0.71058 0.0
C1150 C 0.01998 0.34785 0.69011 0.0
C1151 C 0.02245 0.33067 0.7121 0.0
C1152 C 0.03469 0.3616 0.69672 0.0
C1153 C 0.03713 0.34472 0.71833 0.0
C1154 C 0.98609 0.34229 0.65122 0.0
C1155 C 0.97008 0.3539 0.6393 0.0
N1156 N 0.98452 0.36814 0.63542 0.0
C1157 C 0.00077 0.35701 0.64702 0.0
C1158 C 0.97061 0.34069 0.64727 0.0
C1159 C 0.99971 0.36995 0.63908 0.0
C1160 C 0.02199 0.3338 0.63853 0.0
N1161 N 0.02015 0.32676 0.6545 0.0
C1162 C 0.04927 0.33599 0.65617 0.0
C1163 C 0.03328 0.32732 0.66318 0.0
C1164 C 0.05159 0.344 0.64012 0.0
C1165 C 0.03776 0.3426 0.63104 0.0
H1166 H 0.0113 0.33309 0.63192 0.0
H1167 H 0.03147 0.32158 0.67584 0.0
C1168 C 0.98675 0.34144 0.71663 0.0
N1169 N 0.98403 0.34247 0.69922 0.0
C1170 C 0.98981 0.35452 0.72827 0.0
C1171 C 0.98682 0.36933 0.70399 0.0
C1172 C 0.98362 0.3559 0.69286 0.0
C1173 C 0.99017 0.36873 0.72178 0.0
H1174 H 0.9871 0.33067 0.72136 0.0
H1175 H 0.98131 0.35654 0.67914 0.0
C1176 C 0.98963 0.28536 0.65662 0.0
N1177 N 0.00541 0.26727 0.65062 0.0
C1178 C 0.98596 0.27542 0.64138 0.0
C1179 C 0.00133 0.28612 0.6688 0.0
C1180 C 0.99407 0.26636 0.63859 0.0
C1181 C 0.00917 0.27687 0.66553 0.0
C1182 C 0.95285 0.30707 0.69639 0.0
C1183 C 0.95225 0.30256 0.71391 0.0
C1184 C 0.9452 0.31606 0.69131 0.0
C1185 C 0.94417 0.30732 0.72613 0.0
C1186 C 0.93726 0.32061 0.70392 0.0
N1187 N 0.93693 0.31619 0.72093 0.0
C1188 C 0.97913 0.28102 0.71638 0.0
C1189 C 0.96453 0.26311 0.69197 0.0
C1190 C 0.97447 0.26722 0.727 0.0
N1191 N 0.97396 0.27869 0.69929 0.0
C1192 C 0.95978 0.24899 0.70203 0.0
C1193 C 0.96458 0.25103 0.71979 0.0
H1194 H 0.98654 0.29359 0.72182 0.0
H1195 H 0.96054 0.26169 0.67836 0.0
C1196 C 0.95518 0.30101 0.62515 0.0
N1197 N 0.95145 0.29857 0.64249 0.0
C1198 C 0.94239 0.29583 0.61257 0.0
C1199 C 0.92229 0.28577 0.63599 0.0
C1200 C 0.93542 0.29105 0.64808 0.0
C1201 C 0.92577 0.28819 0.61806 0.0
H1202 H 0.96808 0.30709 0.62115 0.0
H1203 H 0.93287 0.28926 0.66196 0.0
O1204 O 0.99941 0.31859 0.69168 0.0
O1205 O 0.98691 0.32941 0.65881 0.0
O1206 O 0.98182 0.29434 0.65947 0.0
O1207 O 0.96111 0.30294 0.68434 0.0
H1208 H 0.01346 0.34933 0.67916 0.0
H1209 H 0.01784 0.31869 0.71824 0.0
H1210 H 0.03958 0.37373 0.69085 0.0
H1211 H 0.04394 0.34367 0.72934 0.0
H1212 H 0.95818 0.35284 0.63623 0.0
H1213 H 0.01288 0.35849 0.64986 0.0
H1214 H 0.95911 0.32948 0.65044 0.0
H1215 H 0.01098 0.38142 0.63581 0.0
H1216 H 0.05978 0.33691 0.66343 0.0
H1217 H 0.03925 0.3487 0.61861 0.0
H1218 H 0.99253 0.35386 0.74198 0.0
H1219 H 0.98712 0.38026 0.69868 0.0
H1220 H 0.97694 0.27474 0.63182 0.0
H1221 H 0.00434 0.29375 0.68065 0.0
H1222 H 0.99136 0.25862 0.62686 0.0
H1223 H 0.01825 0.27734 0.67484 0.0
H1224 H 0.9581 0.29561 0.71807 0.0
H1225 H 0.94553 0.31964 0.67781 0.0
H1226 H 0.94371 0.30401 0.73976 0.0
H1227 H 0.9314 0.32767 0.7002 0.0
H1228 H 0.97832 0.26912 0.7407 0.0
H1229 H 0.95211 0.23661 0.69617 0.0
H1230 H 0.94538 0.29784 0.59877 0.0
H1231 H 0.90955 0.27987 0.64055 0.0
Li1232 Li 0.6751 0.67318 0.66688 0.0
Li1233 Li 0.66311 0.64751 0.68294 0.0
Li1234 Li 0.69321 0.67051 0.68872 0.0
Li1235 Li 0.68523 0.65264 0.66192 0.0
C1236 C 0.66989 0.68339 0.69879 0.0
N1237 N 0.66547 0.70936 0.71027 0.0
C1238 C 0.65385 0.68052 0.70208 0.0
C1239 C 0.68369 0.69941 0.70173 0.0
C1240 C 0.65187 0.69383 0.70775 0.0
C1241 C 0.68121 0.71238 0.70744 0.0
C1242 C 0.64877 0.63573 0.65061 0.0
C1243 C 0.63414 0.60627 0.64289 0.0
N1244 N 0.6203 0.60706 0.63868 0.0
C1245 C 0.63449 0.63631 0.64591 0.0
C1246 C 0.64866 0.62064 0.64885 0.0
C1247 C 0.62019 0.62166 0.64002 0.0
C1248 C 0.6798 0.70278 0.64969 0.0
N1249 N 0.66882 0.68799 0.65712 0.0
C1250 C 0.64668 0.69385 0.6541 0.0
C1251 C 0.6525 0.68332 0.65917 0.0
C1252 C 0.65783 0.7094 0.647 0.0
C1253 C 0.67453 0.71383 0.64458 0.0
H1254 H 0.69266 0.70614 0.64803 0.0
H1255 H 0.64413 0.6716 0.6653 0.0
C1256 C 0.64066 0.61831 0.70244 0.0
N1257 N 0.64247 0.63133 0.69276 0.0
C1258 C 0.62499 0.60672 0.70895 0.0
C1259 C 0.6136 0.62253 0.69593 0.0
C1260 C 0.62936 0.63362 0.68948 0.0
C1261 C 0.6113 0.60884 0.70566 0.0
H1262 H 0.65132 0.61693 0.70515 0.0
H1263 H 0.63117 0.64407 0.68175 0.0
C1264 C 0.71392 0.69069 0.66093 0.0
N1265 N 0.74589 0.7171 0.65555 0.0
C1266 C 0.7254 0.68813 0.6516 0.0
C1267 C 0.71866 0.70676 0.66729 0.0
C1268 C 0.74151 0.70162 0.64907 0.0
C1269 C 0.73488 0.71992 0.6645 0.0
C1270 C 0.68757 0.63394 0.69036 0.0
C1271 C 0.70251 0.63842 0.69929 0.0
C1272 C 0.67695 0.61725 0.6851 0.0
C1273 C 0.70675 0.62621 0.70245 0.0
C1274 C 0.68162 0.6054 0.68851 0.0
N1275 N 0.69631 0.61009 0.69701 0.0
C1276 C 0.708 0.68485 0.72216 0.0
C1277 C 0.72667 0.68603 0.70033 0.0
C1278 C 0.72118 0.69301 0.73435 0.0
N1279 N 0.71101 0.6817 0.70548 0.0
C1280 C 0.74019 0.69441 0.71195 0.0
C1281 C 0.73748 0.69796 0.72915 0.0
H1282 H 0.69537 0.68099 0.72599 0.0
H1283 H 0.72866 0.68275 0.68728 0.0
C1284 C 0.68812 0.63836 0.62928 0.0
N1285 N 0.69412 0.6431 0.64601 0.0
C1286 C 0.69511 0.63154 0.61801 0.0
C1287 C 0.71427 0.63468 0.64137 0.0
C1288 C 0.70712 0.64163 0.65205 0.0
C1289 C 0.70832 0.62965 0.62414 0.0
H1290 H 0.67796 0.63993 0.62468 0.0
H1291 H 0.71215 0.64612 0.6651 0.0
O1292 O 0.67208 0.67058 0.69289 0.0
O1293 O 0.6628 0.64986 0.65681 0.0
O1294 O 0.69815 0.67752 0.66372 0.0
O1295 O 0.68333 0.64583 0.68702 0.0
H1296 H 0.64302 0.6682 0.70019 0.0
H1297 H 0.6962 0.70178 0.69977 0.0
H1298 H 0.63951 0.6918 0.71016 0.0
H1299 H 0.6918 0.72485 0.70967 0.0
H1300 H 0.63388 0.59449 0.64156 0.0
H1301 H 0.63439 0.6479 0.64685 0.0
H1302 H 0.6597 0.62004 0.65193 0.0
H1303 H 0.60902 0.62191 0.6365 0.0
H1304 H 0.63372 0.69015 0.65615 0.0
H1305 H 0.68338 0.72578 0.63907 0.0
H1306 H 0.62356 0.59629 0.71654 0.0
H1307 H 0.60325 0.62449 0.69322 0.0
H1308 H 0.72195 0.67588 0.64635 0.0
H1309 H 0.70992 0.70911 0.67421 0.0
H1310 H 0.75052 0.69977 0.64195 0.0
H1311 H 0.73871 0.7324 0.66942 0.0
H1312 H 0.71081 0.6512 0.70367 0.0
H1313 H 0.66514 0.61341 0.67862 0.0
H1314 H 0.71833 0.62954 0.70924 0.0
H1315 H 0.67353 0.59246 0.68445 0.0
H1316 H 0.71873 0.6955 0.74761 0.0
H1317 H 0.75263 0.6979 0.70766 0.0
H1318 H 0.69032 0.62785 0.60469 0.0
H1319 H 0.72443 0.63333 0.64652 0.0
Li1320 Li 0.35125 0.33336 0.69158 0.0
Li1321 Li 0.33006 0.30498 0.69722 0.0
Li1322 Li 0.34539 0.31271 0.66944 0.0
Li1323 Li 0.32505 0.32146 0.67462 0.0
C1324 C 0.36834 0.31993 0.70364 0.0
N1325 N 0.39701 0.33317 0.72423 0.0
C1326 C 0.36762 0.31437 0.72074 0.0
C1327 C 0.38364 0.33211 0.69695 0.0
C1328 C 0.38226 0.32125 0.73096 0.0
C1329 C 0.39799 0.33869 0.70759 0.0
C1330 C 0.32941 0.33285 0.71621 0.0
C1331 C 0.32623 0.35293 0.73379 0.0
N1332 N 0.33186 0.3486 0.74815 0.0
C1333 C 0.33506 0.32852 0.73116 0.0
C1334 C 0.32493 0.34513 0.71752 0.0
C1335 C 0.33627 0.33666 0.74717 0.0
C1336 C 0.3695 0.36791 0.6921 0.0
N1337 N 0.36686 0.3547 0.70197 0.0
C1338 C 0.38158 0.37308 0.72637 0.0
C1339 C 0.37293 0.35699 0.71875 0.0
C1340 C 0.3838 0.38674 0.7166 0.0
C1341 C 0.37803 0.38413 0.69917 0.0
H1342 H 0.36422 0.36577 0.67898 0.0
H1343 H 0.37034 0.34634 0.72655 0.0
C1344 C 0.32346 0.27557 0.71421 0.0
N1345 N 0.31911 0.28754 0.71357 0.0
C1346 C 0.31508 0.262 0.72532 0.0
C1347 C 0.29794 0.27337 0.73488 0.0
C1348 C 0.30665 0.28672 0.7236 0.0
C1349 C 0.30213 0.26084 0.7357 0.0
H1350 H 0.3333 0.27648 0.70592 0.0
H1351 H 0.3033 0.29629 0.72263 0.0
C1352 C 0.35467 0.33879 0.65008 0.0
N1353 N 0.36815 0.34543 0.61691 0.0
C1354 C 0.34419 0.33307 0.63522 0.0
C1355 C 0.37199 0.34795 0.64809 0.0
C1356 C 0.35125 0.33654 0.61856 0.0
C1357 C 0.37856 0.35116 0.63121 0.0
C1358 C 0.30416 0.28636 0.67344 0.0
C1359 C 0.29799 0.27063 0.66533 0.0
C1360 C 0.29339 0.28975 0.68308 0.0
C1361 C 0.28109 0.25859 0.66687 0.0
C1362 C 0.27658 0.27738 0.68432 0.0
N1363 N 0.27083 0.26219 0.67625 0.0
C1364 C 0.36997 0.30989 0.64927 0.0
C1365 C 0.34199 0.29478 0.63851 0.0
C1366 C 0.37539 0.30455 0.63478 0.0
N1367 N 0.35352 0.30499 0.65079 0.0
C1368 C 0.34683 0.28905 0.62394 0.0
C1369 C 0.36369 0.29401 0.62198 0.0
H1370 H 0.37888 0.31812 0.65914 0.0
H1371 H 0.32905 0.29131 0.63992 0.0
C1372 C 0.3155 0.34419 0.66665 0.0
N1373 N 0.31072 0.32782 0.66384 0.0
C1374 C 0.30708 0.35109 0.65826 0.0
C1375 C 0.28891 0.32413 0.64417 0.0
C1376 C 0.29775 0.31775 0.65281 0.0
C1377 C 0.29372 0.34102 0.64681 0.0
H1378 H 0.32622 0.352 0.67503 0.0
H1379 H 0.29458 0.30494 0.6503 0.0
O1380 O 0.35416 0.31326 0.69341 0.0
O1381 O 0.32809 0.32499 0.70041 0.0
O1382 O 0.34802 0.33512 0.66649 0.0
O1383 O 0.32078 0.29808 0.67245 0.0
H1384 H 0.3559 0.30489 0.72609 0.0
H1385 H 0.38439 0.33662 0.68379 0.0
H1386 H 0.38189 0.31712 0.74424 0.0
H1387 H 0.4099 0.34822 0.70264 0.0
H1388 H 0.32282 0.36247 0.73499 0.0
H1389 H 0.33864 0.3191 0.73037 0.0
H1390 H 0.32041 0.34856 0.70613 0.0
H1391 H 0.34072 0.33351 0.75882 0.0
H1392 H 0.38577 0.37477 0.73995 0.0
H1393 H 0.37945 0.39446 0.69141 0.0
H1394 H 0.31849 0.25242 0.72567 0.0
H1395 H 0.28792 0.2727 0.7427 0.0
H1396 H 0.33076 0.32584 0.63653 0.0
H1397 H 0.38025 0.35244 0.65948 0.0
H1398 H 0.34331 0.3321 0.60693 0.0
H1399 H 0.39194 0.35817 0.62946 0.0
H1400 H 0.30619 0.26773 0.65799 0.0
H1401 H 0.29794 0.30179 0.68958 0.0
H1402 H 0.27614 0.24637 0.66065 0.0
H1403 H 0.26812 0.27985 0.69172 0.0
H1404 H 0.38852 0.30863 0.6335 0.0
H1405 H 0.33756 0.28101 0.61418 0.0
H1406 H 0.31116 0.36422 0.66035 0.0
H1407 H 0.27875 0.31616 0.63519 0.0
Li1408 Li 0.68083 0.02215 0.66798 0.0
Li1409 Li 0.70844 0.02661 0.67216 0.0
Li1410 Li 0.70031 0.03471 0.64448 0.0
Li1411 Li 0.68845 0.00453 0.65204 0.0
C1412 C 0.70175 0.05769 0.67386 0.0
N1413 N 0.70133 0.08614 0.68462 0.0
C1414 C 0.70671 0.06412 0.69098 0.0
C1415 C 0.6968 0.06591 0.66215 0.0
C1416 C 0.70632 0.07845 0.69619 0.0
C1417 C 0.69663 0.08024 0.66785 0.0
C1418 C 0.68514 0.0043 0.69537 0.0
C1419 C 0.67921 0.98715 0.72086 0.0
N1420 N 0.68159 0.00028 0.73127 0.0
C1421 C 0.6875 0.0176 0.70632 0.0
C1422 C 0.68094 0.98893 0.70268 0.0
C1423 C 0.68566 0.01533 0.72443 0.0
C1424 C 0.6504 0.00432 0.6842 0.0
N1425 N 0.66184 0.02027 0.67984 0.0
C1426 C 0.64568 0.03062 0.69361 0.0
C1427 C 0.65963 0.03334 0.68411 0.0
C1428 C 0.63402 0.01433 0.69862 0.0
C1429 C 0.63632 0.00104 0.69369 0.0
H1430 H 0.65235 0.99413 0.68047 0.0
H1431 H 0.66866 0.04586 0.68037 0.0
C1432 C 0.73696 0.04961 0.69167 0.0
N1433 N 0.72597 0.03299 0.68901 0.0
C1434 C 0.74839 0.0551 0.70571 0.0
C1435 C 0.73748 0.02621 0.71351 0.0
C1436 C 0.72632 0.02128 0.69928 0.0
C1437 C 0.7484 0.04329 0.71698 0.0
H1438 H 0.73637 0.05863 0.6833 0.0
H1439 H 0.71749 0.00814 0.69689 0.0
C1440 C 0.661 0.01275 0.64043 0.0
N1441 N 0.62864 0.00654 0.63777 0.0
C1442 C 0.64752 0.99634 0.64098 0.0
C1443 C 0.65802 0.02597 0.63825 0.0
C1444 C 0.63125 0.99347 0.63967 0.0
C1445 C 0.64157 0.02259 0.63701 0.0
C1446 C 0.72242 0.01489 0.64769 0.0
C1447 C 0.73676 0.02149 0.63749 0.0
C1448 C 0.71833 0.00118 0.65829 0.0
C1449 C 0.74679 0.01424 0.63805 0.0
C1450 C 0.72867 0.99429 0.65848 0.0
N1451 N 0.74257 0.0009 0.64844 0.0
C1452 C 0.72186 0.06557 0.62866 0.0
C1453 C 0.69746 0.0471 0.61201 0.0
C1454 C 0.72619 0.07818 0.61646 0.0
N1455 N 0.70756 0.05053 0.62634 0.0
C1456 C 0.70132 0.05933 0.5995 0.0
C1457 C 0.71565 0.07514 0.60188 0.0
H1458 H 0.72953 0.06795 0.64031 0.0
H1459 H 0.68612 0.03505 0.6106 0.0
C1460 C 0.66728 0.97041 0.65337 0.0
N1461 N 0.67969 0.98226 0.64355 0.0
C1462 C 0.65909 0.95366 0.64796 0.0
C1463 C 0.67688 0.96147 0.62257 0.0
C1464 C 0.6847 0.9782 0.62844 0.0
C1465 C 0.66382 0.94911 0.63237 0.0
H1466 H 0.66347 0.97408 0.66522 0.0
H1467 H 0.69457 0.98793 0.62088 0.0
O1468 O 0.70232 0.04382 0.66846 0.0
O1469 O 0.68697 0.00623 0.67759 0.0
O1470 O 0.67702 0.01587 0.64228 0.0
O1471 O 0.71255 0.02192 0.64731 0.0
H1472 H 0.71091 0.05818 0.70017 0.0
H1473 H 0.69305 0.06129 0.64884 0.0
H1474 H 0.71006 0.0835 0.70942 0.0
H1475 H 0.69276 0.08665 0.65893 0.0
H1476 H 0.67599 0.97534 0.7267 0.0
H1477 H 0.69064 0.02949 0.70088 0.0
H1478 H 0.67913 0.97852 0.69439 0.0
H1479 H 0.68745 0.02554 0.73304 0.0
H1480 H 0.64414 0.0411 0.6973 0.0
H1481 H 0.62747 0.98834 0.69741 0.0
H1482 H 0.75667 0.06839 0.70816 0.0
H1483 H 0.73722 0.01685 0.72206 0.0
H1484 H 0.64957 0.98595 0.64256 0.0
H1485 H 0.66828 0.03872 0.63768 0.0
H1486 H 0.6207 0.98084 0.64021 0.0
H1487 H 0.63909 0.03272 0.63548 0.0
H1488 H 0.74011 0.03212 0.62925 0.0
H1489 H 0.7073 0.9959 0.6663 0.0
H1490 H 0.75794 0.01922 0.63022 0.0
H1491 H 0.72565 0.98368 0.66662 0.0
H1492 H 0.73733 0.09031 0.61861 0.0
H1493 H 0.69297 0.05667 0.58835 0.0
H1494 H 0.64902 0.94435 0.65574 0.0
H1495 H 0.68074 0.95824 0.61045 0.0
Li1496 Li 0.96827 0.67228 0.6891 0.0
Li1497 Li 0.97272 0.64896 0.68482 0.0
Li1498 Li 0.98844 0.67472 0.66837 0.0
Li1499 Li 0.95865 0.65533 0.66143 0.0
C1500 C 0.99261 0.67845 0.71038 0.0
N1501 N 0.99874 0.69207 0.74403 0.0
C1502 C 0.98782 0.66803 0.72487 0.0
C1503 C 0.00055 0.69581 0.71299 0.0
C1504 C 0.99104 0.67516 0.74179 0.0
C1505 C 0.00351 0.70245 0.73011 0.0
C1506 C 0.93724 0.63243 0.68691 0.0
C1507 C 0.92029 0.6043 0.67516 0.0
N1508 N 0.9092 0.60085 0.68828 0.0
C1509 C 0.92562 0.62864 0.70022 0.0
C1510 C 0.93453 0.62019 0.67425 0.0
C1511 C 0.91156 0.61258 0.70072 0.0
C1512 C 0.96628 0.69969 0.70393 0.0
N1513 N 0.96252 0.68363 0.70627 0.0
C1514 C 0.95059 0.68297 0.73417 0.0
C1515 C 0.95482 0.67521 0.72099 0.0
C1516 C 0.95451 0.69959 0.7322 0.0
C1517 C 0.96245 0.70801 0.71689 0.0
H1518 H 0.97235 0.70606 0.69208 0.0
H1519 H 0.95214 0.6625 0.72254 0.0
C1520 C 0.99207 0.63657 0.69675 0.0
N1521 N 0.97574 0.63221 0.69571 0.0
C1522 C 0.99659 0.6253 0.7028 0.0
C1523 C 0.96749 0.6057 0.70839 0.0
C1524 C 0.96347 0.61725 0.70174 0.0
C1525 C 0.98421 0.60956 0.70847 0.0
H1526 H 0.00162 0.6488 0.69259 0.0
H1527 H 0.95061 0.61417 0.70135 0.0
C1528 C 0.97811 0.69291 0.65318 0.0
N1529 N 0.99472 0.71831 0.62958 0.0
C1530 C 0.97364 0.69013 0.63536 0.0
C1531 C 0.99094 0.70865 0.65902 0.0
C1532 C 0.98219 0.70314 0.62364 0.0
C1533 C 0.99923 0.72131 0.64687 0.0
C1534 C 0.98454 0.64193 0.65469 0.0
C1535 C 0.00179 0.64869 0.65658 0.0
C1536 C 0.9746 0.62544 0.64839 0.0
C1537 C 0.00876 0.63878 0.65246 0.0
C1538 C 0.98203 0.61592 0.64445 0.0
N1539 N 0.99881 0.62273 0.64656 0.0
C1540 C 0.023 0.69847 0.66883 0.0
C1541 C 0.01096 0.68879 0.6404 0.0
C1542 C 0.03876 0.70838 0.66167 0.0
N1543 N 0.00953 0.68902 0.65815 0.0
C1544 C 0.02649 0.69856 0.63267 0.0
C1545 C 0.04055 0.70843 0.64342 0.0
H1546 H 0.02156 0.69809 0.6829 0.0
H1547 H 7e-05 0.68087 0.63228 0.0
C1548 C 0.92771 0.6466 0.64538 0.0
N1549 N 0.94208 0.64625 0.6434 0.0
C1550 C 0.91516 0.63948 0.63243 0.0
C1551 C 0.93251 0.63186 0.61571 0.0
C1552 C 0.94477 0.63926 0.62889 0.0
C1553 C 0.91751 0.63189 0.61751 0.0
H1554 H 0.92597 0.65227 0.6571 0.0
H1555 H 0.9564 0.63932 0.62763 0.0
O1556 O 0.9892 0.67168 0.69371 0.0
O1557 O 0.9509 0.64819 0.68604 0.0
O1558 O 0.97014 0.68022 0.6648 0.0
O1559 O 0.97743 0.6514 0.65885 0.0
H1560 H 0.98152 0.65457 0.72311 0.0
H1561 H 0.00413 0.70405 0.70192 0.0
H1562 H 0.98735 0.66724 0.75313 0.0
H1563 H 0.00952 0.71584 0.73233 0.0
H1564 H 0.91807 0.59472 0.66543 0.0
H1565 H 0.92741 0.638 0.71003 0.0
H1566 H 0.94332 0.62294 0.66387 0.0
H1567 H 0.90249 0.60947 0.71098 0.0
H1568 H 0.94445 0.67616 0.74585 0.0
H1569 H 0.96558 0.72084 0.715 0.0
H1570 H 0.00963 0.6288 0.70295 0.0
H1571 H 0.95769 0.59376 0.71303 0.0
H1572 H 0.96375 0.67804 0.63061 0.0
H1573 H 0.99472 0.71096 0.67273 0.0
H1574 H 0.97891 0.70115 0.6098 0.0
H1575 H 0.0093 0.73349 0.65118 0.0
H1576 H 0.00974 0.6613 0.66159 0.0
H1577 H 0.9613 0.61997 0.64648 0.0
H1578 H 0.02206 0.64384 0.65406 0.0
H1579 H 0.97446 0.60313 0.63966 0.0
H1580 H 0.04947 0.71583 0.67025 0.0
H1581 H 0.02759 0.69831 0.61853 0.0
H1582 H 0.90366 0.63964 0.63412 0.0
H1583 H 0.93464 0.6261 0.60429 0.0
C1584 C 0.20243 0.27257 0.04963 0.0
C1585 C 0.2141 0.28913 0.05952 0.0
C1586 C 0.20209 0.28577 0.08813 0.0
C1587 C 0.20242 0.30045 0.09338 0.0
C1588 C 0.18949 0.29976 0.10345 0.0
C1589 C 0.17588 0.28399 0.10807 0.0
C1590 C 0.1758 0.26914 0.10317 0.0
C1591 C 0.18909 0.27024 0.09339 0.0
C1592 C 0.19014 0.31586 0.10868 0.0
C1593 C 0.16146 0.25213 0.10777 0.0
C1594 C 0.06318 0.27306 0.06934 0.0
C1595 C 0.07858 0.29082 0.07045 0.0
C1596 C 0.1029 0.28905 0.07756 0.0
C1597 C 0.09934 0.27315 0.08261 0.0
C1598 C 0.10979 0.27132 0.09464 0.0
C1599 C 0.12406 0.28578 0.10165 0.0
C1600 C 0.12766 0.30187 0.09647 0.0
C1601 C 0.11707 0.30329 0.0843 0.0
C1602 C 0.10573 0.254 0.09971 0.0
C1603 C 0.14278 0.31753 0.10362 0.0
C1604 C 0.09089 0.28615 0.2156 0.0
C1605 C 0.08809 0.27019 0.21083 0.0
C1606 C 0.1001 0.26844 0.20139 0.0
C1607 C 0.11511 0.28291 0.19656 0.0
C1608 C 0.11773 0.29897 0.20096 0.0
C1609 C 0.10554 0.30036 0.2104 0.0
C1610 C 0.0969 0.25115 0.19678 0.0
C1611 C 0.13357 0.31467 0.196 0.0
C1612 C 0.22678 0.2816 0.22117 0.0
C1613 C 0.21962 0.28879 0.23458 0.0
C1614 C 0.19095 0.27964 0.22461 0.0
C1615 C 0.17596 0.2648 0.22084 0.0
C1616 C 0.16369 0.26464 0.20984 0.0
C1617 C 0.16638 0.27982 0.20277 0.0
C1618 C 0.18122 0.295 0.20708 0.0
C1619 C 0.19339 0.29476 0.21788 0.0
C1620 C 0.14794 0.24825 0.20562 0.0
C1621 C 0.18422 0.31151 0.20028 0.0
C1622 C 0.16123 0.28305 0.11692 0.0
C1623 C 0.14939 0.28402 0.10639 0.0
C1624 C 0.13567 0.28408 0.11373 0.0
C1625 C 0.13355 0.28306 0.13213 0.0
C1626 C 0.11999 0.2833 0.13998 0.0
C1627 C 0.11819 0.2826 0.15814 0.0
C1628 C 0.12989 0.28163 0.16913 0.0
C1629 C 0.12842 0.28132 0.18762 0.0
C1630 C 0.14028 0.28036 0.19815 0.0
C1631 C 0.15377 0.27987 0.19074 0.0
C1632 C 0.15551 0.28023 0.17229 0.0
C1633 C 0.16901 0.27989 0.16442 0.0
C1634 C 0.17094 0.28084 0.1463 0.0
C1635 C 0.15929 0.28188 0.13533 0.0
C1636 C 0.14541 0.28193 0.14296 0.0
C1637 C 0.14354 0.28116 0.16147 0.0
C1638 C 0.06015 0.28295 0.24814 0.0
C1639 C 0.06593 0.27614 0.23372 0.0
O1640 O 0.21399 0.28649 0.07741 0.0
O1641 O 0.20237 0.27883 0.23517 0.0
O1642 O 0.08013 0.28845 0.22565 0.0
O1643 O 0.0929 0.2907 0.0658 0.0
H1644 H 0.20912 0.2977 0.05774 0.0
H1645 H 0.18936 0.26764 0.05387 0.0
H1646 H 0.20587 0.26294 0.05215 0.0
H1647 H 0.20281 0.27444 0.03524 0.0
H1648 H 0.21267 0.31239 0.0893 0.0
H1649 H 0.18909 0.25899 0.08926 0.0
H1650 H 0.18064 0.31702 0.10092 0.0
H1651 H 0.20259 0.32702 0.10631 0.0
H1652 H 0.18714 0.31577 0.12279 0.0
H1653 H 0.16317 0.24179 0.10273 0.0
H1654 H 0.14961 0.25048 0.10222 0.0
H1655 H 0.16017 0.2512 0.12225 0.0
H1656 H 0.07929 0.29444 0.08457 0.0
H1657 H 0.06375 0.26543 0.08012 0.0
H1658 H 0.06239 0.26649 0.05677 0.0
H1659 H 0.05156 0.27358 0.07092 0.0
H1660 H 0.08848 0.2622 0.07699 0.0
H1661 H 0.11981 0.3155 0.07999 0.0
H1662 H 0.1163 0.25213 0.09632 0.0
H1663 H 0.0942 0.24403 0.09303 0.0
H1664 H 0.10407 0.25267 0.11414 0.0
H1665 H 0.14297 0.32909 0.09952 0.0
H1666 H 0.15426 0.31798 0.09885 0.0
H1667 H 0.14308 0.31735 0.1182 0.0
H1668 H 0.05609 0.26763 0.22403 0.0
H1669 H 0.07668 0.25908 0.2146 0.0
H1670 H 0.10756 0.3126 0.21411 0.0
H1671 H 0.09812 0.24999 0.1824 0.0
H1672 H 0.0843 0.24115 0.20076 0.0
H1673 H 0.10644 0.24917 0.20339 0.0
H1674 H 0.1336 0.32623 0.20021 0.0
H1675 H 0.13512 0.31483 0.18154 0.0
H1676 H 0.14451 0.31479 0.20214 0.0
H1677 H 0.22348 0.3013 0.22937 0.0
H1678 H 0.24066 0.2889 0.22171 0.0
H1679 H 0.22268 0.28256 0.20771 0.0
H1680 H 0.22252 0.26824 0.22326 0.0
H1681 H 0.17405 0.25323 0.22631 0.0
H1682 H 0.20452 0.3065 0.22122 0.0
H1683 H 0.14629 0.24622 0.19116 0.0
H1684 H 0.13698 0.24872 0.21065 0.0
H1685 H 0.14809 0.23742 0.21149 0.0
H1686 H 0.19566 0.32236 0.20611 0.0
H1687 H 0.17335 0.31305 0.20318 0.0
H1688 H 0.18555 0.31168 0.18579 0.0
H1689 H 0.15101 0.28499 0.09227 0.0
H1690 H 0.11066 0.28412 0.13216 0.0
H1691 H 0.10755 0.28288 0.16347 0.0
H1692 H 0.1392 0.28036 0.21233 0.0
H1693 H 0.17834 0.27904 0.1722 0.0
H1694 H 0.18168 0.28073 0.14098 0.0
H1695 H 0.04765 0.28074 0.24347 0.0
H1696 H 0.06677 0.29695 0.24663 0.0
H1697 H 0.06288 0.27193 0.2703 0.0
C1698 C 0.72916 0.92496 0.04527 0.0
C1699 C 0.71767 0.91957 0.0612 0.0
C1700 C 0.72504 0.91282 0.08936 0.0
C1701 C 0.7093 0.90223 0.0964 0.0
C1702 C 0.70714 0.89027 0.1088 0.0
C1703 C 0.72105 0.88896 0.11418 0.0
C1704 C 0.73711 0.90026 0.10773 0.0
C1705 C 0.73892 0.91224 0.09552 0.0
C1706 C 0.68993 0.87874 0.11579 0.0
C1707 C 0.75222 0.89927 0.11323 0.0
C1708 C 0.6784 0.76199 0.06738 0.0
C1709 C 0.67986 0.77764 0.07481 0.0
C1710 C 0.69763 0.80084 0.09497 0.0
C1711 C 0.71367 0.81038 0.10228 0.0
C1712 C 0.7183 0.82506 0.11216 0.0
C1713 C 0.70633 0.82994 0.11534 0.0
C1714 C 0.68996 0.82017 0.10821 0.0
C1715 C 0.68584 0.80586 0.09792 0.0
C1716 C 0.73605 0.83539 0.11903 0.0
C1717 C 0.67681 0.82489 0.11134 0.0
C1718 C 0.71835 0.80874 0.22633 0.0
C1719 C 0.73247 0.81921 0.21638 0.0
C1720 C 0.73386 0.83328 0.20811 0.0
C1721 C 0.72068 0.83673 0.2094 0.0
C1722 C 0.70657 0.82638 0.21958 0.0
C1723 C 0.70567 0.81258 0.22801 0.0
C1724 C 0.74931 0.84427 0.1977 0.0
C1725 C 0.69229 0.82967 0.22121 0.0
C1726 C 0.7642 0.97056 0.23652 0.0
C1727 C 0.74875 0.95291 0.23565 0.0
C1728 C 0.74731 0.92644 0.22787 0.0
C1729 C 0.75824 0.92116 0.22232 0.0
C1730 C 0.75239 0.90611 0.21273 0.0
C1731 C 0.73508 0.89592 0.209 0.0
C1732 C 0.72387 0.90094 0.21511 0.0
C1733 C 0.73013 0.9162 0.22448 0.0
C1734 C 0.76472 0.90113 0.20654 0.0
C1735 C 0.7053 0.89011 0.21186 0.0
C1736 C 0.71851 0.87478 0.12513 0.0
C1737 C 0.71387 0.85961 0.11642 0.0
C1738 C 0.71102 0.84551 0.12563 0.0
C1739 C 0.71282 0.84649 0.14414 0.0
C1740 C 0.70959 0.83243 0.15388 0.0
C1741 C 0.71215 0.8337 0.17198 0.0
C1742 C 0.71793 0.84906 0.18105 0.0
C1743 C 0.72136 0.85064 0.19932 0.0
C1744 C 0.72655 0.86593 0.20805 0.0
C1745 C 0.72876 0.8799 0.19895 0.0
C1746 C 0.72584 0.87868 0.18057 0.0
C1747 C 0.72835 0.89256 0.17089 0.0
C1748 C 0.72576 0.89129 0.15275 0.0
C1749 C 0.72075 0.87613 0.14359 0.0
C1750 C 0.71796 0.86193 0.15311 0.0
C1751 C 0.72047 0.8632 0.17161 0.0
C1752 C 0.7223 0.77759 0.2165 0.0
C1753 C 0.72666 0.78806 0.23374 0.0
O1754 O 0.72716 0.92368 0.07656 0.0
O1755 O 0.75374 0.94118 0.23697 0.0
O1756 O 0.71627 0.79478 0.23433 0.0
O1757 O 0.69403 0.78694 0.08525 0.0
H1758 H 0.71045 0.90578 0.05955 0.0
H1759 H 0.73675 0.91877 0.04545 0.0
H1760 H 0.73785 0.93868 0.04511 0.0
H1761 H 0.72157 0.92109 0.03292 0.0
H1762 H 0.69875 0.90332 0.09219 0.0
H1763 H 0.75108 0.92074 0.09018 0.0
H1764 H 0.68537 0.8658 0.11074 0.0
H1765 H 0.68082 0.88255 0.11183 0.0
H1766 H 0.69044 0.8785 0.13036 0.0
H1767 H 0.76387 0.90914 0.10719 0.0
H1768 H 0.75037 0.88682 0.10936 0.0
H1769 H 0.75377 0.90055 0.12774 0.0
H1770 H 0.67805 0.78553 0.06513 0.0
H1771 H 0.67962 0.76384 0.05277 0.0
H1772 H 0.65689 0.74329 0.07865 0.0
H1773 H 0.69096 0.76307 0.06924 0.0
H1774 H 0.72267 0.80643 0.09993 0.0
H1775 H 0.67337 0.79863 0.09233 0.0
H1776 H 0.73628 0.83403 0.13346 0.0
H1777 H 0.7411 0.84887 0.11642 0.0
H1778 H 0.74441 0.83143 0.11302 0.0
H1779 H 0.66409 0.81459 0.10751 0.0
H1780 H 0.67971 0.83599 0.10347 0.0
H1781 H 0.67678 0.82829 0.1254 0.0
H1782 H 0.73997 0.79817 0.234 0.0
H1783 H 0.74241 0.81647 0.21477 0.0
H1784 H 0.69486 0.8045 0.23575 0.0
H1785 H 0.74613 0.84222 0.18346 0.0
H1786 H 0.75947 0.84153 0.20028 0.0
H1787 H 0.75404 0.8577 0.20088 0.0
H1788 H 0.68189 0.82004 0.22903 0.0
H1789 H 0.68742 0.82995 0.20794 0.0
H1790 H 0.69684 0.84213 0.22759 0.0
H1791 H 0.74404 0.95217 0.22214 0.0
H1792 H 0.76041 0.98011 0.23515 0.0
H1793 H 0.77268 0.97205 0.22557 0.0
H1794 H 0.77134 0.97305 0.24902 0.0
H1795 H 0.77146 0.92905 0.2253 0.0
H1796 H 0.72157 0.91986 0.22954 0.0
H1797 H 0.76307 0.89828 0.1922 0.0
H1798 H 0.76233 0.88959 0.21326 0.0
H1799 H 0.77787 0.91108 0.20928 0.0
H1800 H 0.69816 0.89534 0.2183 0.0
H1801 H 0.70083 0.87734 0.21682 0.0
H1802 H 0.70259 0.88889 0.19752 0.0
H1803 H 0.71246 0.85877 0.10222 0.0
H1804 H 0.70521 0.82031 0.14761 0.0
H1805 H 0.70962 0.82249 0.17876 0.0
H1806 H 0.72926 0.86707 0.22205 0.0
H1807 H 0.73241 0.9046 0.17722 0.0
H1808 H 0.7279 0.90237 0.14596 0.0
H1809 H 0.70955 0.76643 0.21716 0.0
H1810 H 0.73126 0.77339 0.21345 0.0
H1811 H 0.72251 0.78514 0.20522 0.0
C1812 C 0.19892 0.9231 0.05763 0.0
C1813 C 0.20949 0.92559 0.07431 0.0
C1814 C 0.19227 0.90045 0.0916 0.0
C1815 C 0.18005 0.90446 0.09633 0.0
C1816 C 0.16711 0.89425 0.10765 0.0
C1817 C 0.16644 0.87984 0.11454 0.0
C1818 C 0.17877 0.87584 0.10996 0.0
C1819 C 0.19147 0.88616 0.09844 0.0
C1820 C 0.15397 0.89872 0.11202 0.0
C1821 C 0.17843 0.86059 0.11713 0.0
C1822 C 0.04764 0.79274 0.08105 0.0
C1823 C 0.06155 0.78908 0.07597 0.0
C1824 C 0.08355 0.80291 0.09885 0.0
C1825 C 0.09317 0.80014 0.111 0.0
C1826 C 0.10668 0.81351 0.12002 0.0
C1827 C 0.11013 0.83007 0.1174 0.0
C1828 C 0.10034 0.83298 0.10522 0.0
C1829 C 0.08738 0.81941 0.09582 0.0
C1830 C 0.11725 0.80987 0.13224 0.0
C1831 C 0.1035 0.85041 0.10211 0.0
C1832 C 0.07936 0.82301 0.22955 0.0
C1833 C 0.09094 0.8183 0.2245 0.0
C1834 C 0.10536 0.82934 0.21536 0.0
C1835 C 0.10804 0.8453 0.21087 0.0
C1836 C 0.09662 0.85025 0.21643 0.0
C1837 C 0.08252 0.83908 0.22596 0.0
C1838 C 0.11762 0.82388 0.21038 0.0
C1839 C 0.09912 0.86718 0.212 0.0
C1840 C 0.22014 0.96008 0.22636 0.0
C1841 C 0.2096 0.94844 0.24119 0.0
C1842 C 0.19273 0.92045 0.22704 0.0
C1843 C 0.19071 0.90446 0.22601 0.0
C1844 C 0.17713 0.8913 0.21685 0.0
C1845 C 0.16526 0.89427 0.20851 0.0
C1846 C 0.16724 0.91046 0.20938 0.0
C1847 C 0.18103 0.92343 0.21854 0.0
C1848 C 0.17547 0.87423 0.21607 0.0
C1849 C 0.1548 0.91402 0.20057 0.0
C1850 C 0.15232 0.86854 0.1258 0.0
C1851 C 0.13858 0.85482 0.11766 0.0
C1852 C 0.12421 0.84438 0.12704 0.0
C1853 C 0.12344 0.84771 0.1451 0.0
C1854 C 0.1089 0.838 0.15477 0.0
C1855 C 0.10849 0.84098 0.17267 0.0
C1856 C 0.1226 0.85383 0.1816 0.0
C1857 C 0.12252 0.85655 0.19993 0.0
C1858 C 0.13656 0.86983 0.20825 0.0
C1859 C 0.15083 0.88046 0.19878 0.0
C1860 C 0.1513 0.87767 0.18053 0.0
C1861 C 0.16559 0.88789 0.17068 0.0
C1862 C 0.16596 0.88496 0.15275 0.0
C1863 C 0.15209 0.87166 0.144 0.0
C1864 C 0.13757 0.86119 0.15368 0.0
C1865 C 0.13715 0.86425 0.17194 0.0
C1866 C 0.03737 0.79072 0.23366 0.0
C1867 C 0.05566 0.79527 0.23514 0.0
O1868 O 0.20484 0.9098 0.08038 0.0
O1869 O 0.20614 0.93247 0.23634 0.0
O1870 O 0.0652 0.8124 0.23821 0.0
O1871 O 0.07071 0.78932 0.09054 0.0
H1872 H 0.20706 0.93269 0.0846 0.0
H1873 H 0.18544 0.91473 0.0602 0.0
H1874 H 0.20245 0.91724 0.04693 0.0
H1875 H 0.20046 0.93505 0.05292 0.0
H1876 H 0.18029 0.91534 0.09104 0.0
H1877 H 0.20091 0.88314 0.09473 0.0
H1878 H 0.14138 0.88807 0.10844 0.0
H1879 H 0.1559 0.91001 0.10508 0.0
H1880 H 0.15416 0.90108 0.12638 0.0
H1881 H 0.18965 0.85992 0.11341 0.0
H1882 H 0.16713 0.84912 0.11204 0.0
H1883 H 0.17767 0.86067 0.13168 0.0
H1884 H 0.07053 0.79913 0.06737 0.0
H1885 H 0.04297 0.79602 0.06921 0.0
H1886 H 0.0523 0.80339 0.09059 0.0
H1887 H 0.03682 0.78181 0.08698 0.0
H1888 H 0.09021 0.7874 0.11318 0.0
H1889 H 0.08023 0.82187 0.08632 0.0
H1890 H 0.11404 0.81087 0.14604 0.0
H1891 H 0.13074 0.81907 0.1306 0.0
H1892 H 0.11516 0.79706 0.12998 0.0
H1893 H 0.09305 0.85023 0.09475 0.0
H1894 H 0.11505 0.85744 0.09437 0.0
H1895 H 0.10541 0.8573 0.11478 0.0
H1896 H 0.05913 0.79263 0.2221 0.0
H1897 H 0.0888 0.80605 0.22786 0.0
H1898 H 0.07363 0.84268 0.23021 0.0
H1899 H 0.11669 0.82123 0.19602 0.0
H1900 H 0.11519 0.8124 0.21728 0.0
H1901 H 0.13062 0.83402 0.21345 0.0
H1902 H 0.08843 0.86861 0.21609 0.0
H1903 H 0.10083 0.86914 0.19764 0.0
H1904 H 0.11063 0.87713 0.2187 0.0
H1905 H 0.19787 0.94875 0.24276 0.0
H1906 H 0.22149 0.97263 0.22737 0.0
H1907 H 0.21407 0.95466 0.21341 0.0
H1908 H 0.23277 0.9615 0.22634 0.0
H1909 H 0.19984 0.9023 0.23253 0.0
H1910 H 0.18257 0.93582 0.21885 0.0
H1911 H 0.17482 0.87013 0.20216 0.0
H1912 H 0.16366 0.86498 0.22236 0.0
H1913 H 0.18607 0.87411 0.22278 0.0
H1914 H 0.1577 0.92708 0.20307 0.0
H1915 H 0.14204 0.90527 0.20534 0.0
H1916 H 0.15471 0.91187 0.18617 0.0
H1917 H 0.139 0.85238 0.10374 0.0
H1918 H 0.09767 0.82791 0.14863 0.0
H1919 H 0.09698 0.83302 0.17944 0.0
H1920 H 0.13642 0.87186 0.22231 0.0
H1921 H 0.17667 0.89825 0.17674 0.0
H1922 H 0.1773 0.89318 0.14583 0.0
H1923 H 0.0332 0.79342 0.24631 0.0
H1924 H 0.02912 0.77726 0.23011 0.0
H1925 H 0.03594 0.79821 0.22327 0.0
C1926 C 0.32625 0.12265 0.96823 0.0
C1927 C 0.31204 0.10794 0.95772 0.0
C1928 C 0.30978 0.118 0.92897 0.0
C1929 C 0.29264 0.11246 0.92807 0.0
C1930 C 0.28647 0.1198 0.91654 0.0
C1931 C 0.2977 0.13298 0.90575 0.0
C1932 C 0.31492 0.13824 0.90629 0.0
C1933 C 0.32068 0.13045 0.91772 0.0
C1934 C 0.26798 0.1136 0.916 0.0
C1935 C 0.32729 0.15234 0.8951 0.0
C1936 C 0.26254 0.21263 0.96125 0.0
C1937 C 0.27613 0.21293 0.94963 0.0
C1938 C 0.27309 0.19631 0.9235 0.0
C1939 C 0.28924 0.20208 0.91735 0.0
C1940 C 0.2929 0.19146 0.90745 0.0
C1941 C 0.28002 0.17487 0.90346 0.0
C1942 C 0.26358 0.16922 0.90925 0.0
C1943 C 0.2603 0.18013 0.9191 0.0
C1944 C 0.31048 0.19792 0.90123 0.0
C1945 C 0.24953 0.15164 0.90516 0.0
C1946 C 0.25911 0.18221 0.78949 0.0
C1947 C 0.27594 0.18693 0.79143 0.0
C1948 C 0.28062 0.17722 0.80126 0.0
C1949 C 0.26813 0.16235 0.80901 0.0
C1950 C 0.25107 0.15724 0.80644 0.0
C1951 C 0.24678 0.16722 0.79658 0.0
C1952 C 0.2989 0.18283 0.80343 0.0
C1953 C 0.23743 0.14134 0.81427 0.0
C1954 C 0.26523 0.04915 0.79318 0.0
C1955 C 0.26868 0.06198 0.77879 0.0
C1956 C 0.28038 0.08939 0.79413 0.0
C1957 C 0.29474 0.10519 0.7959 0.0
C1958 C 0.2944 0.11842 0.80475 0.0
C1959 C 0.27931 0.11566 0.81218 0.0
C1960 C 0.26476 0.09964 0.81068 0.0
C1961 C 0.26544 0.08664 0.80169 0.0
C1962 C 0.31014 0.13534 0.80616 0.0
C1963 C 0.24851 0.09626 0.81863 0.0
C1964 C 0.29161 0.14193 0.89472 0.0
C1965 C 0.2891 0.15404 0.903 0.0
C1966 C 0.2837 0.16325 0.89351 0.0
C1967 C 0.28119 0.16077 0.87514 0.0
C1968 C 0.27646 0.17035 0.86512 0.0
C1969 C 0.27388 0.16772 0.84705 0.0
C1970 C 0.27571 0.15524 0.83836 0.0
C1971 C 0.27289 0.1523 0.82004 0.0
C1972 C 0.27435 0.13947 0.8119 0.0
C1973 C 0.2787 0.1295 0.82157 0.0
C1974 C 0.282 0.13252 0.83983 0.0
C1975 C 0.28674 0.12294 0.84988 0.0
C1976 C 0.28995 0.12602 0.86785 0.0
C1977 C 0.2884 0.13869 0.87647 0.0
C1978 C 0.28338 0.14831 0.86662 0.0
C1979 C 0.28041 0.14538 0.84825 0.0
C1980 C 0.24456 0.21069 0.78385 0.0
C1981 C 0.25973 0.20826 0.7835 0.0
O1982 O 0.31609 0.11124 0.94016 0.0
O1983 O 0.28161 0.07727 0.78508 0.0
O1984 O 0.25439 0.19152 0.78021 0.0
O1985 O 0.26943 0.20637 0.93315 0.0
H1986 H 0.30018 0.10765 0.96053 0.0
H1987 H 0.32388 0.12207 0.9825 0.0
H1988 H 0.33823 0.12291 0.96617 0.0
H1989 H 0.32774 0.13466 0.96365 0.0
H1990 H 0.28404 0.10227 0.9362 0.0
H1991 H 0.33385 0.13441 0.91831 0.0
H1992 H 0.26574 0.12336 0.92177 0.0
H1993 H 0.26068 0.10191 0.92345 0.0
H1994 H 0.2633 0.11127 0.90219 0.0
H1995 H 0.34038 0.15561 0.89787 0.0
H1996 H 0.32626 0.16366 0.89741 0.0
H1997 H 0.32438 0.1487 0.88101 0.0
H1998 H 0.27913 0.20423 0.95637 0.0
H1999 H 0.26775 0.21787 0.97455 0.0
H2000 H 0.25221 0.1995 0.9627 0.0
H2001 H 0.25717 0.21986 0.9556 0.0
H2002 H 0.29891 0.21489 0.92019 0.0
H2003 H 0.24779 0.17598 0.92368 0.0
H2004 H 0.31553 0.1904 0.90699 0.0
H2005 H 0.31896 0.21131 0.90493 0.0
H2006 H 0.31042 0.19644 0.88672 0.0
H2007 H 0.23753 0.14908 0.91097 0.0
H2008 H 0.25277 0.14245 0.91024 0.0
H2009 H 0.24776 0.14963 0.89071 0.0
H2010 H 0.26453 0.21158 0.79719 0.0
H2011 H 0.28535 0.19801 0.785 0.0
H2012 H 0.23378 0.16353 0.79462 0.0
H2013 H 0.30241 0.18485 0.8176 0.0
H2014 H 0.30708 0.19461 0.79644 0.0
H2015 H 0.30121 0.17289 0.79836 0.0
H2016 H 0.22476 0.13902 0.8109 0.0
H2017 H 0.23894 0.14207 0.82879 0.0
H2018 H 0.23845 0.13051 0.80949 0.0
H2019 H 0.25736 0.06282 0.77609 0.0
H2020 H 0.25378 0.03693 0.79048 0.0
H2021 H 0.26346 0.05385 0.80601 0.0
H2022 H 0.27599 0.04711 0.79459 0.0
H2023 H 0.30623 0.10718 0.79011 0.0
H2024 H 0.25429 0.0744 0.8008 0.0
H2025 H 0.31349 0.13896 0.82021 0.0
H2026 H 0.30795 0.14493 0.80017 0.0
H2027 H 0.32085 0.13549 0.79956 0.0
H2028 H 0.23832 0.08308 0.81644 0.0
H2029 H 0.2446 0.1047 0.81286 0.0
H2030 H 0.25029 0.099 0.83299 0.0
H2031 H 0.29122 0.15621 0.91707 0.0
H2032 H 0.27477 0.18006 0.87112 0.0
H2033 H 0.27032 0.17552 0.84001 0.0
H2034 H 0.27192 0.13713 0.79788 0.0
H2035 H 0.28808 0.11299 0.84396 0.0
H2036 H 0.29358 0.11828 0.87494 0.0
H2037 H 0.24866 0.22402 0.78681 0.0
H2038 H 0.23591 0.20295 0.79431 0.0
H2039 H 0.23747 0.20695 0.77122 0.0
C2040 C 0.79835 0.09803 0.96495 0.0
C2041 C 0.78651 0.0926 0.94886 0.0
C2042 C 0.80478 0.09696 0.92415 0.0
C2043 C 0.80507 0.11055 0.91596 0.0
C2044 C 0.81814 0.12082 0.90481 0.0
C2045 C 0.83124 0.11749 0.90194 0.0
C2046 C 0.83074 0.10352 0.90982 0.0
C2047 C 0.81731 0.09324 0.92061 0.0
C2048 C 0.81808 0.13542 0.89632 0.0
C2049 C 0.84459 0.09972 0.90721 0.0
C2050 C 0.92955 0.23341 0.95571 0.0
C2051 C 0.92262 0.2169 0.94654 0.0
C2052 C 0.90369 0.20102 0.92207 0.0
C2053 C 0.90496 0.18663 0.924 0.0
C2054 C 0.89503 0.17214 0.91371 0.0
C2055 C 0.88336 0.17192 0.90153 0.0
C2056 C 0.882 0.18637 0.89961 0.0
C2057 C 0.8924 0.20081 0.90975 0.0
C2058 C 0.89688 0.157 0.91601 0.0
C2059 C 0.86936 0.18648 0.88714 0.0
C2060 C 0.91791 0.18613 0.78906 0.0
C2061 C 0.91975 0.173 0.79552 0.0
C2062 C 0.90701 0.16017 0.80525 0.0
C2063 C 0.8922 0.1605 0.80857 0.0
C2064 C 0.89034 0.17369 0.80208 0.0
C2065 C 0.90328 0.18638 0.7925 0.0
C2066 C 0.9094 0.14634 0.81215 0.0
C2067 C 0.87468 0.17441 0.80531 0.0
C2068 C 0.78068 0.03748 0.78455 0.0
C2069 C 0.78722 0.05604 0.78113 0.0
C2070 C 0.8158 0.07738 0.78936 0.0
C2071 C 0.83083 0.07849 0.79434 0.0
C2072 C 0.84296 0.0923 0.80422 0.0
C2073 C 0.84011 0.10552 0.80876 0.0
C2074 C 0.82516 0.10475 0.80315 0.0
C2075 C 0.8131 0.09062 0.79362 0.0
C2076 C 0.8588 0.09275 0.80986 0.0
C2077 C 0.82197 0.1189 0.80711 0.0
C2078 C 0.84598 0.12935 0.89173 0.0
C2079 C 0.85798 0.14402 0.90038 0.0
C2080 C 0.87184 0.15627 0.89159 0.0
C2081 C 0.87402 0.15381 0.87365 0.0
C2082 C 0.88797 0.16578 0.86447 0.0
C2083 C 0.88963 0.16358 0.84663 0.0
C2084 C 0.87745 0.14927 0.83733 0.0
C2085 C 0.87871 0.14722 0.81907 0.0
C2086 C 0.86649 0.13278 0.81025 0.0
C2087 C 0.85285 0.12025 0.81915 0.0
C2088 C 0.85127 0.12215 0.83739 0.0
C2089 C 0.83763 0.1099 0.84675 0.0
C2090 C 0.83585 0.1122 0.86455 0.0
C2091 C 0.8478 0.12671 0.87374 0.0
C2092 C 0.86185 0.13905 0.86466 0.0
C2093 C 0.86358 0.13677 0.84647 0.0
C2094 C 0.95818 0.2087 0.7857 0.0
C2095 C 0.94388 0.19995 0.77199 0.0
O2096 O 0.79245 0.08703 0.93525 0.0
O2097 O 0.80443 0.06372 0.77982 0.0
O2098 O 0.92982 0.19885 0.77958 0.0
O2099 O 0.91291 0.21523 0.93191 0.0
H2100 H 0.78679 0.10429 0.94533 0.0
H2101 H 0.81055 0.10916 0.96169 0.0
H2102 H 0.80086 0.08815 0.96929 0.0
H2103 H 0.79302 0.10159 0.97609 0.0
H2104 H 0.79505 0.1131 0.91808 0.0
H2105 H 0.81681 0.08256 0.92683 0.0
H2106 H 0.8282 0.14731 0.90229 0.0
H2107 H 0.80602 0.13504 0.89802 0.0
H2108 H 0.82059 0.13553 0.88206 0.0
H2109 H 0.84263 0.08873 0.9148 0.0
H2110 H 0.85675 0.11076 0.91131 0.0
H2111 H 0.84542 0.09717 0.89308 0.0
H2112 H 0.93201 0.21304 0.94385 0.0
H2113 H 0.94348 0.23963 0.95418 0.0
H2114 H 0.91828 0.22739 0.97999 0.0
H2115 H 0.92808 0.24194 0.94642 0.0
H2116 H 0.91364 0.18657 0.9335 0.0
H2117 H 0.89148 0.21195 0.9084 0.0
H2118 H 0.88556 0.14698 0.92237 0.0
H2119 H 0.90797 0.15987 0.92425 0.0
H2120 H 0.89798 0.15205 0.90301 0.0
H2121 H 0.86865 0.19806 0.88864 0.0
H2122 H 0.85677 0.17548 0.88937 0.0
H2123 H 0.87278 0.18556 0.87341 0.0
H2124 H 0.94165 0.18727 0.76853 0.0
H2125 H 0.93112 0.17277 0.79325 0.0
H2126 H 0.902 0.19657 0.7875 0.0
H2127 H 0.90828 0.14593 0.82667 0.0
H2128 H 0.92174 0.14797 0.80868 0.0
H2129 H 0.89942 0.13408 0.80672 0.0
H2130 H 0.87487 0.18511 0.7987 0.0
H2131 H 0.87325 0.1756 0.81964 0.0
H2132 H 0.86356 0.1626 0.80053 0.0
H2133 H 0.78438 0.0613 0.79289 0.0
H2134 H 0.76705 0.03056 0.78694 0.0
H2135 H 0.78704 0.03625 0.79637 0.0
H2136 H 0.78325 0.03151 0.77315 0.0
H2137 H 0.8329 0.06833 0.79071 0.0
H2138 H 0.80174 0.09008 0.78915 0.0
H2139 H 0.86084 0.0952 0.82424 0.0
H2140 H 0.86962 0.10315 0.80324 0.0
H2141 H 0.85849 0.08087 0.80658 0.0
H2142 H 0.81062 0.1172 0.8002 0.0
H2143 H 0.83287 0.13102 0.80323 0.0
H2144 H 0.82033 0.11968 0.82145 0.0
H2145 H 0.85632 0.14607 0.91411 0.0
H2146 H 0.89769 0.17706 0.87095 0.0
H2147 H 0.90054 0.1733 0.8402 0.0
H2148 H 0.86746 0.1314 0.79619 0.0
H2149 H 0.82807 0.09846 0.84038 0.0
H2150 H 0.82498 0.10248 0.87103 0.0
H2151 H 0.96175 0.22204 0.78752 0.0
H2152 H 0.96939 0.20809 0.78212 0.0
H2153 H 0.95409 0.20256 0.79859 0.0
C2154 C 0.80203 0.72511 0.96806 0.0
C2155 C 0.79254 0.71838 0.95039 0.0
C2156 C 0.81049 0.71127 0.93299 0.0
C2157 C 0.82291 0.72784 0.92943 0.0
C2158 C 0.83627 0.73113 0.91846 0.0
C2159 C 0.83735 0.71762 0.91102 0.0
C2160 C 0.82501 0.70097 0.91472 0.0
C2161 C 0.81171 0.69803 0.92565 0.0
C2162 C 0.84933 0.74905 0.91488 0.0
C2163 C 0.82592 0.6863 0.90716 0.0
C2164 C 0.94685 0.74454 0.97008 0.0
C2165 C 0.93376 0.73188 0.95696 0.0
C2166 C 0.92267 0.73624 0.92991 0.0
C2167 C 0.91077 0.71988 0.92457 0.0
C2168 C 0.89717 0.71682 0.91379 0.0
C2169 C 0.89557 0.73045 0.90822 0.0
C2170 C 0.90796 0.74702 0.91304 0.0
C2171 C 0.92152 0.74971 0.92367 0.0
C2172 C 0.88437 0.69902 0.90856 0.0
C2173 C 0.90664 0.76185 0.90734 0.0
C2174 C 0.92062 0.74146 0.79256 0.0
C2175 C 0.91095 0.72547 0.79956 0.0
C2176 C 0.89674 0.72149 0.80949 0.0
C2177 C 0.8925 0.73396 0.81296 0.0
C2178 C 0.90222 0.75005 0.80576 0.0
C2179 C 0.91596 0.75346 0.79535 0.0
C2180 C 0.88625 0.70394 0.81618 0.0
C2181 C 0.89816 0.7637 0.80908 0.0
C2182 C 0.78098 0.73442 0.79681 0.0
C2183 C 0.78965 0.72946 0.78275 0.0
C2184 C 0.80617 0.71965 0.79873 0.0
C2185 C 0.80767 0.7056 0.80156 0.0
C2186 C 0.82175 0.70703 0.81016 0.0
C2187 C 0.83459 0.72294 0.81622 0.0
C2188 C 0.8331 0.73722 0.81361 0.0
C2189 C 0.81889 0.73544 0.80493 0.0
C2190 C 0.82289 0.69153 0.81288 0.0
C2191 C 0.84648 0.75435 0.82015 0.0
C2192 C 0.85165 0.72098 0.89975 0.0
C2193 C 0.8663 0.72371 0.90801 0.0
C2194 C 0.88042 0.72731 0.89832 0.0
C2195 C 0.87997 0.72809 0.87982 0.0
C2196 C 0.89397 0.73168 0.86969 0.0
C2197 C 0.89342 0.73256 0.85149 0.0
C2198 C 0.87877 0.72962 0.84269 0.0
C2199 C 0.878 0.73025 0.82416 0.0
C2200 C 0.86335 0.72773 0.81594 0.0
C2201 C 0.8494 0.72463 0.82572 0.0
C2202 C 0.84982 0.72361 0.84419 0.0
C2203 C 0.8359 0.72025 0.85438 0.0
C2204 C 0.83644 0.71934 0.87257 0.0
C2205 C 0.85094 0.72181 0.88127 0.0
C2206 C 0.86515 0.7253 0.87127 0.0
C2207 C 0.86456 0.72612 0.8527 0.0
C2208 C 0.9629 0.75523 0.78207 0.0
C2209 C 0.94542 0.74015 0.78482 0.0
O2210 O 0.79722 0.70745 0.94345 0.0
O2211 O 0.79226 0.71732 0.79005 0.0
O2212 O 0.93408 0.74548 0.78241 0.0
O2213 O 0.93548 0.73939 0.94093 0.0
H2214 H 0.79589 0.72879 0.94123 0.0
H2215 H 0.8156 0.7301 0.9663 0.0
H2216 H 0.79745 0.71487 0.97769 0.0
H2217 H 0.80073 0.73546 0.97376 0.0
H2218 H 0.82242 0.7383 0.93526 0.0
H2219 H 0.80215 0.68531 0.92852 0.0
H2220 H 0.86164 0.75168 0.92012 0.0
H2221 H 0.8463 0.75815 0.92095 0.0
H2222 H 0.85058 0.75102 0.90049 0.0
H2223 H 0.81549 0.6741 0.91155 0.0
H2224 H 0.83794 0.68733 0.91112 0.0
H2225 H 0.82556 0.6865 0.89259 0.0
H2226 H 0.92185 0.72945 0.96277 0.0
H2227 H 0.94531 0.73872 0.9831 0.0
H2228 H 0.94512 0.75551 0.97173 0.0
H2229 H 0.9598 0.74919 0.9657 0.0
H2230 H 0.91213 0.70952 0.92873 0.0
H2231 H 0.931 0.76231 0.92766 0.0
H2232 H 0.88231 0.69794 0.8941 0.0
H2233 H 0.87227 0.69555 0.91475 0.0
H2234 H 0.8882 0.68997 0.91263 0.0
H2235 H 0.91715 0.77392 0.91253 0.0
H2236 H 0.89471 0.76052 0.91195 0.0
H2237 H 0.90651 0.76223 0.89279 0.0
H2238 H 0.94502 0.73703 0.79884 0.0
H2239 H 0.91428 0.71601 0.79693 0.0
H2240 H 0.92339 0.76567 0.78961 0.0
H2241 H 0.88832 0.70399 0.83055 0.0
H2242 H 0.88945 0.69507 0.8098 0.0
H2243 H 0.87276 0.6993 0.81386 0.0
H2244 H 0.90827 0.7761 0.80471 0.0
H2245 H 0.89601 0.76466 0.82328 0.0
H2246 H 0.88649 0.76057 0.80183 0.0
H2247 H 0.80178 0.74049 0.77915 0.0
H2248 H 0.77992 0.74534 0.79307 0.0
H2249 H 0.78822 0.73785 0.80936 0.0
H2250 H 0.76826 0.72371 0.79927 0.0
H2251 H 0.79776 0.69346 0.79684 0.0
H2252 H 0.81778 0.74641 0.80326 0.0
H2253 H 0.82377 0.68976 0.82715 0.0
H2254 H 0.83441 0.6931 0.80676 0.0
H2255 H 0.81193 0.68009 0.80718 0.0
H2256 H 0.84362 0.76427 0.81684 0.0
H2257 H 0.85866 0.75753 0.81434 0.0
H2258 H 0.84789 0.75427 0.83464 0.0
H2259 H 0.86677 0.72317 0.92222 0.0
H2260 H 0.90552 0.73391 0.87573 0.0
H2261 H 0.90463 0.73553 0.8444 0.0
H2262 H 0.86287 0.7284 0.80175 0.0
H2263 H 0.8244 0.71826 0.84841 0.0
H2264 H 0.82536 0.71671 0.87973 0.0
H2265 H 0.96435 0.75926 0.76821 0.0
H2266 H 0.97268 0.75212 0.78536 0.0
H2267 H 0.9649 0.76587 0.79076 0.0
C2268 C 0.87884 0.62286 0.38362 0.0
C2269 C 0.8861 0.63598 0.39864 0.0
C2270 C 0.86831 0.62831 0.42406 0.0
C2271 C 0.87006 0.64326 0.43081 0.0
C2272 C 0.85725 0.64319 0.44057 0.0
C2273 C 0.84236 0.62781 0.44346 0.0
C2274 C 0.84067 0.61267 0.43673 0.0
C2275 C 0.85385 0.61311 0.42733 0.0
C2276 C 0.85959 0.65952 0.44778 0.0
C2277 C 0.8249 0.59608 0.43929 0.0
C2278 C 0.73972 0.6447 0.39502 0.0
C2279 C 0.7489 0.63667 0.40198 0.0
C2280 C 0.77145 0.6425 0.42288 0.0
C2281 C 0.77013 0.62674 0.42098 0.0
C2282 C 0.78089 0.62303 0.43034 0.0
C2283 C 0.79346 0.63545 0.44149 0.0
C2284 C 0.79526 0.65155 0.44284 0.0
C2285 C 0.78405 0.65476 0.43369 0.0
C2286 C 0.77865 0.60576 0.42853 0.0
C2287 C 0.80889 0.66529 0.4541 0.0
C2288 C 0.75664 0.62226 0.55304 0.0
C2289 C 0.7534 0.60626 0.54772 0.0
C2290 C 0.76534 0.60431 0.53839 0.0
C2291 C 0.78086 0.61861 0.53447 0.0
C2292 C 0.78417 0.6347 0.53994 0.0
C2293 C 0.77191 0.6363 0.54898 0.0
C2294 C 0.76136 0.587 0.53262 0.0
C2295 C 0.80068 0.65023 0.53629 0.0
C2296 C 0.87482 0.58049 0.55781 0.0
C2297 C 0.87115 0.5948 0.56017 0.0
C2298 C 0.84515 0.59403 0.55302 0.0
C2299 C 0.83106 0.58281 0.54312 0.0
C2300 C 0.82153 0.58828 0.53412 0.0
C2301 C 0.82624 0.60539 0.53522 0.0
C2302 C 0.84014 0.61667 0.54581 0.0
C2303 C 0.84935 0.61078 0.55481 0.0
C2304 C 0.80652 0.57581 0.52331 0.0
C2305 C 0.84529 0.63491 0.54755 0.0
C2306 C 0.82845 0.62762 0.45318 0.0
C2307 C 0.8178 0.63146 0.44394 0.0
C2308 C 0.80435 0.63142 0.45214 0.0
C2309 C 0.80138 0.62748 0.47012 0.0
C2310 C 0.78787 0.62717 0.47875 0.0
C2311 C 0.7853 0.6237 0.49653 0.0
C2312 C 0.79597 0.62014 0.50632 0.0
C2313 C 0.79361 0.61686 0.52447 0.0
C2314 C 0.80381 0.61234 0.53358 0.0
C2315 C 0.81666 0.61141 0.52511 0.0
C2316 C 0.81982 0.61561 0.50721 0.0
C2317 C 0.83321 0.6157 0.49854 0.0
C2318 C 0.83618 0.6198 0.48091 0.0
C2319 C 0.82571 0.62368 0.47118 0.0
C2320 C 0.81214 0.62366 0.47967 0.0
C2321 C 0.80931 0.6198 0.49775 0.0
C2322 C 0.72431 0.61938 0.58327 0.0
C2323 C 0.73113 0.61245 0.57009 0.0
O2324 O 0.88064 0.62831 0.41466 0.0
O2325 O 0.85405 0.58818 0.56131 0.0
O2326 O 0.74557 0.62471 0.56234 0.0
O2327 O 0.76084 0.64637 0.41467 0.0
H2328 H 0.88053 0.64388 0.39607 0.0
H2329 H 0.86497 0.61625 0.38382 0.0
H2330 H 0.88265 0.61334 0.38459 0.0
H2331 H 0.88297 0.62909 0.37077 0.0
H2332 H 0.88154 0.65491 0.4286 0.0
H2333 H 0.85276 0.60163 0.42214 0.0
H2334 H 0.85054 0.66226 0.44126 0.0
H2335 H 0.87242 0.67017 0.44569 0.0
H2336 H 0.85702 0.65852 0.46207 0.0
H2337 H 0.82503 0.58566 0.432 0.0
H2338 H 0.81386 0.59679 0.43485 0.0
H2339 H 0.82337 0.59314 0.45347 0.0
H2340 H 0.74063 0.62344 0.40595 0.0
H2341 H 0.72639 0.63638 0.39906 0.0
H2342 H 0.74658 0.64858 0.36904 0.0
H2343 H 0.74221 0.65523 0.40446 0.0
H2344 H 0.76061 0.61717 0.41245 0.0
H2345 H 0.7851 0.66693 0.43492 0.0
H2346 H 0.78988 0.60664 0.42239 0.0
H2347 H 0.76751 0.59712 0.42037 0.0
H2348 H 0.77739 0.60029 0.4417 0.0
H2349 H 0.81012 0.67767 0.45174 0.0
H2350 H 0.82107 0.66617 0.45151 0.0
H2351 H 0.80605 0.66234 0.46817 0.0
H2352 H 0.72184 0.60341 0.56027 0.0
H2353 H 0.74157 0.59528 0.55074 0.0
H2354 H 0.77431 0.64856 0.55319 0.0
H2355 H 0.76339 0.58669 0.51829 0.0
H2356 H 0.74829 0.57729 0.53552 0.0
H2357 H 0.76994 0.5838 0.53946 0.0
H2358 H 0.80198 0.66153 0.54311 0.0
H2359 H 0.80179 0.65244 0.52195 0.0
H2360 H 0.81117 0.6485 0.5405 0.0
H2361 H 0.87548 0.60141 0.54762 0.0
H2362 H 0.88849 0.58564 0.55665 0.0
H2363 H 0.86862 0.5732 0.54557 0.0
H2364 H 0.87021 0.57172 0.56888 0.0
H2365 H 0.82771 0.56978 0.54223 0.0
H2366 H 0.85959 0.61917 0.56344 0.0
H2367 H 0.80869 0.57909 0.50923 0.0
H2368 H 0.79532 0.57637 0.52729 0.0
H2369 H 0.8039 0.56278 0.52473 0.0
H2370 H 0.85678 0.64219 0.55578 0.0
H2371 H 0.83502 0.63606 0.55351 0.0
H2372 H 0.84755 0.6405 0.53434 0.0
H2373 H 0.81998 0.63448 0.43014 0.0
H2374 H 0.77919 0.62973 0.4719 0.0
H2375 H 0.77477 0.62376 0.50249 0.0
H2376 H 0.80171 0.60949 0.54742 0.0
H2377 H 0.84164 0.61274 0.50534 0.0
H2378 H 0.84675 0.61981 0.47497 0.0
H2379 H 0.71185 0.61646 0.57768 0.0
H2380 H 0.73056 0.63325 0.58107 0.0
H2381 H 0.72658 0.60963 0.60657 0.0
C2382 C 0.39279 0.26253 0.37297 0.0
C2383 C 0.38141 0.25509 0.38882 0.0
C2384 C 0.38877 0.24552 0.41525 0.0
C2385 C 0.37285 0.23366 0.42102 0.0
C2386 C 0.37076 0.22097 0.43237 0.0
C2387 C 0.38492 0.22024 0.43806 0.0
C2388 C 0.40106 0.23262 0.43278 0.0
C2389 C 0.40277 0.24526 0.42158 0.0
C2390 C 0.35343 0.20824 0.43816 0.0
C2391 C 0.41643 0.23228 0.43867 0.0
C2392 C 0.36373 0.0933 0.40395 0.0
C2393 C 0.37282 0.11076 0.41118 0.0
C2394 C 0.36701 0.13262 0.42077 0.0
C2395 C 0.3833 0.14392 0.42696 0.0
C2396 C 0.38695 0.15882 0.43583 0.0
C2397 C 0.37397 0.16228 0.43897 0.0
C2398 C 0.35759 0.15098 0.43264 0.0
C2399 C 0.35439 0.13638 0.42345 0.0
C2400 C 0.40465 0.1708 0.44199 0.0
C2401 C 0.34343 0.15423 0.43575 0.0
C2402 C 0.38105 0.14082 0.55219 0.0
C2403 C 0.39593 0.15267 0.5442 0.0
C2404 C 0.39678 0.16617 0.53519 0.0
C2405 C 0.38238 0.16766 0.53382 0.0
C2406 C 0.36739 0.15576 0.5418 0.0
C2407 C 0.36696 0.14252 0.55093 0.0
C2408 C 0.41302 0.17875 0.52694 0.0
C2409 C 0.35178 0.1569 0.54047 0.0
C2410 C 0.40385 0.29155 0.5568 0.0
C2411 C 0.38809 0.27478 0.56084 0.0
C2412 C 0.39192 0.25106 0.55431 0.0
C2413 C 0.40533 0.24831 0.55291 0.0
C2414 C 0.40408 0.2351 0.54242 0.0
C2415 C 0.38876 0.22398 0.5337 0.0
C2416 C 0.37494 0.2264 0.53557 0.0
C2417 C 0.37677 0.24008 0.54561 0.0
C2418 C 0.41911 0.233 0.54076 0.0
C2419 C 0.35812 0.21438 0.52728 0.0
C2420 C 0.38279 0.20611 0.44884 0.0
C2421 C 0.37959 0.1914 0.44001 0.0
C2422 C 0.37742 0.17753 0.4492 0.0
C2423 C 0.3785 0.17828 0.46776 0.0
C2424 C 0.37624 0.1645 0.47743 0.0
C2425 C 0.37768 0.16547 0.49565 0.0
C2426 C 0.38121 0.18018 0.50493 0.0
C2427 C 0.38288 0.18133 0.52343 0.0
C2428 C 0.38547 0.19577 0.53235 0.0
C2429 C 0.38693 0.20944 0.52324 0.0
C2430 C 0.38615 0.20885 0.50464 0.0
C2431 C 0.38837 0.22262 0.49496 0.0
C2432 C 0.38724 0.22176 0.47669 0.0
C2433 C 0.38397 0.20714 0.46739 0.0
C2434 C 0.38186 0.19317 0.47687 0.0
C2435 C 0.38307 0.19407 0.49549 0.0
C2436 C 0.39298 0.11376 0.54961 0.0
C2437 C 0.39207 0.12404 0.56525 0.0
O2438 O 0.39105 0.25748 0.40374 0.0
O2439 O 0.39363 0.26383 0.56489 0.0
O2440 O 0.37959 0.12754 0.56111 0.0
O2441 O 0.36289 0.11795 0.41234 0.0
H2442 H 0.37431 0.24156 0.38545 0.0
H2443 H 0.40054 0.2566 0.37129 0.0
H2444 H 0.4013 0.27624 0.37448 0.0
H2445 H 0.38511 0.26001 0.36081 0.0
H2446 H 0.36213 0.23443 0.41681 0.0
H2447 H 0.41504 0.25471 0.41725 0.0
H2448 H 0.3501 0.19567 0.43289 0.0
H2449 H 0.34386 0.21121 0.43358 0.0
H2450 H 0.35312 0.2076 0.45272 0.0
H2451 H 0.42807 0.24277 0.4333 0.0
H2452 H 0.41538 0.22026 0.43441 0.0
H2453 H 0.41738 0.23302 0.45324 0.0
H2454 H 0.38507 0.11911 0.40493 0.0
H2455 H 0.36994 0.09384 0.39112 0.0
H2456 H 0.35183 0.09134 0.39768 0.0
H2457 H 0.3639 0.07929 0.42465 0.0
H2458 H 0.39323 0.14123 0.42489 0.0
H2459 H 0.34188 0.1276 0.4186 0.0
H2460 H 0.40852 0.18377 0.43814 0.0
H2461 H 0.41365 0.16741 0.43653 0.0
H2462 H 0.40536 0.17071 0.45654 0.0
H2463 H 0.33117 0.14353 0.43133 0.0
H2464 H 0.34576 0.16551 0.42852 0.0
H2465 H 0.34278 0.15678 0.44994 0.0
H2466 H 0.40422 0.13581 0.56733 0.0
H2467 H 0.40691 0.15145 0.54472 0.0
H2468 H 0.35554 0.13331 0.5571 0.0
H2469 H 0.41158 0.1776 0.51242 0.0
H2470 H 0.42352 0.17688 0.53078 0.0
H2471 H 0.41628 0.19168 0.53082 0.0
H2472 H 0.34093 0.14625 0.54681 0.0
H2473 H 0.34857 0.15716 0.52644 0.0
H2474 H 0.35405 0.16876 0.54683 0.0
H2475 H 0.38008 0.27036 0.5488 0.0
H2476 H 0.40093 0.30095 0.55178 0.0
H2477 H 0.41117 0.28955 0.54654 0.0
H2478 H 0.41186 0.29681 0.56879 0.0
H2479 H 0.4169 0.25672 0.55989 0.0
H2480 H 0.36615 0.24182 0.54717 0.0
H2481 H 0.42101 0.23081 0.5268 0.0
H2482 H 0.41698 0.22189 0.5482 0.0
H2483 H 0.4307 0.2441 0.54599 0.0
H2484 H 0.34807 0.21633 0.5325 0.0
H2485 H 0.35472 0.20122 0.52958 0.0
H2486 H 0.35869 0.21618 0.51288 0.0
H2487 H 0.37877 0.19074 0.42577 0.0
H2488 H 0.37342 0.15281 0.47104 0.0
H2489 H 0.37591 0.15448 0.50237 0.0
H2490 H 0.38633 0.19637 0.54659 0.0
H2491 H 0.39101 0.23423 0.50142 0.0
H2492 H 0.38897 0.23271 0.46993 0.0
H2493 H 0.38145 0.10122 0.5488 0.0
H2494 H 0.40394 0.11208 0.55038 0.0
H2495 H 0.39401 0.12022 0.53712 0.0
C2496 C 0.87662 0.24133 0.37674 0.0
C2497 C 0.886 0.24443 0.39442 0.0
C2498 C 0.86556 0.22185 0.41313 0.0
C2499 C 0.85453 0.22797 0.41516 0.0
C2500 C 0.83983 0.2191 0.42483 0.0
C2501 C 0.8361 0.20386 0.43262 0.0
C2502 C 0.84719 0.19771 0.43066 0.0
C2503 C 0.86178 0.20682 0.42095 0.0
C2504 C 0.82824 0.22598 0.42672 0.0
C2505 C 0.84357 0.18147 0.43877 0.0
C2506 C 0.7267 0.12377 0.36848 0.0
C2507 C 0.73717 0.12202 0.38303 0.0
C2508 C 0.74896 0.13941 0.40941 0.0
C2509 C 0.75984 0.13427 0.41564 0.0
C2510 C 0.77352 0.14491 0.42657 0.0
C2511 C 0.77621 0.16092 0.43141 0.0
C2512 C 0.76488 0.16587 0.42558 0.0
C2513 C 0.75124 0.15491 0.41479 0.0
C2514 C 0.78513 0.1391 0.4329 0.0
C2515 C 0.76733 0.18283 0.43052 0.0
C2516 C 0.74372 0.14889 0.54409 0.0
C2517 C 0.75488 0.14326 0.54051 0.0
C2518 C 0.76978 0.15339 0.53159 0.0
C2519 C 0.77354 0.16946 0.52616 0.0
C2520 C 0.76255 0.17537 0.53029 0.0
C2521 C 0.74784 0.16503 0.53939 0.0
C2522 C 0.78148 0.14691 0.52792 0.0
C2523 C 0.76625 0.1925 0.52488 0.0
C2524 C 0.88731 0.28033 0.54718 0.0
C2525 C 0.87698 0.26779 0.56147 0.0
C2526 C 0.86003 0.24064 0.54586 0.0
C2527 C 0.85767 0.22455 0.54388 0.0
C2528 C 0.84393 0.21195 0.53437 0.0
C2529 C 0.83232 0.21561 0.52658 0.0
C2530 C 0.83466 0.23189 0.5284 0.0
C2531 C 0.84853 0.24428 0.53797 0.0
C2532 C 0.84184 0.19474 0.53257 0.0
C2533 C 0.82254 0.23621 0.52013 0.0
C2534 C 0.82052 0.19421 0.44268 0.0
C2535 C 0.8061 0.18252 0.4335 0.0
C2536 C 0.79109 0.17267 0.44218 0.0
C2537 C 0.7904 0.17434 0.4606 0.0
C2538 C 0.77561 0.16436 0.4698 0.0
C2539 C 0.77505 0.16617 0.48793 0.0
C2540 C 0.78926 0.17804 0.49754 0.0
C2541 C 0.78883 0.17999 0.51597 0.0
C2542 C 0.80307 0.1922 0.52504 0.0
C2543 C 0.81788 0.20252 0.51622 0.0
C2544 C 0.81869 0.20049 0.49788 0.0
C2545 C 0.83351 0.21041 0.48868 0.0
C2546 C 0.83417 0.20833 0.47062 0.0
C2547 C 0.82 0.19638 0.46105 0.0
C2548 C 0.8049 0.18632 0.47004 0.0
C2549 C 0.80429 0.18827 0.4885 0.0
C2550 C 0.70035 0.11793 0.5501 0.0
C2551 C 0.71859 0.12211 0.55012 0.0
O2552 O 0.87987 0.2298 0.40375 0.0
O2553 O 0.87357 0.25214 0.55541 0.0
O2554 O 0.72906 0.13926 0.55233 0.0
O2555 O 0.73601 0.12955 0.39841 0.0
H2556 H 0.88365 0.25353 0.40158 0.0
H2557 H 0.86357 0.23823 0.37899 0.0
H2558 H 0.87601 0.23082 0.36898 0.0
H2559 H 0.88276 0.25282 0.36879 0.0
H2560 H 0.85717 0.23958 0.40927 0.0
H2561 H 0.87034 0.20219 0.41934 0.0
H2562 H 0.81578 0.21688 0.42099 0.0
H2563 H 0.83302 0.23816 0.42014 0.0
H2564 H 0.82649 0.2277 0.44086 0.0
H2565 H 0.85341 0.17834 0.43594 0.0
H2566 H 0.83139 0.1711 0.43371 0.0
H2567 H 0.84257 0.18232 0.45323 0.0
H2568 H 0.75004 0.12953 0.37808 0.0
H2569 H 0.72789 0.11813 0.35598 0.0
H2570 H 0.73129 0.13725 0.36631 0.0
H2571 H 0.71328 0.11766 0.37177 0.0
H2572 H 0.7575 0.1219 0.41217 0.0
H2573 H 0.74253 0.15858 0.41011 0.0
H2574 H 0.78637 0.1403 0.44745 0.0
H2575 H 0.79775 0.1472 0.42745 0.0
H2576 H 0.78071 0.12589 0.42892 0.0
H2577 H 0.75775 0.18502 0.42435 0.0
H2578 H 0.7799 0.19283 0.42646 0.0
H2579 H 0.76672 0.1839 0.44501 0.0
H2580 H 0.71998 0.11866 0.53659 0.0
H2581 H 0.75215 0.13113 0.54495 0.0
H2582 H 0.73926 0.16936 0.54252 0.0
H2583 H 0.78225 0.14542 0.51352 0.0
H2584 H 0.77734 0.13465 0.53408 0.0
H2585 H 0.79425 0.15609 0.53286 0.0
H2586 H 0.75604 0.19492 0.52835 0.0
H2587 H 0.76817 0.19378 0.51047 0.0
H2588 H 0.77799 0.20222 0.53142 0.0
H2589 H 0.86518 0.26781 0.56371 0.0
H2590 H 0.88892 0.29289 0.54956 0.0
H2591 H 0.88097 0.27583 0.53418 0.0
H2592 H 0.89985 0.2816 0.54633 0.0
H2593 H 0.86664 0.22188 0.54993 0.0
H2594 H 0.85033 0.25674 0.53902 0.0
H2595 H 0.84173 0.19147 0.51846 0.0
H2596 H 0.82965 0.18531 0.53805 0.0
H2597 H 0.85197 0.1939 0.53944 0.0
H2598 H 0.82589 0.24934 0.52309 0.0
H2599 H 0.80974 0.22766 0.52493 0.0
H2600 H 0.82226 0.23438 0.50566 0.0
H2601 H 0.80656 0.18106 0.41938 0.0
H2602 H 0.76429 0.15501 0.46309 0.0
H2603 H 0.76331 0.15816 0.49429 0.0
H2604 H 0.80259 0.19377 0.53914 0.0
H2605 H 0.8448 0.21985 0.49535 0.0
H2606 H 0.84593 0.21629 0.46425 0.0
H2607 H 0.69182 0.10423 0.54807 0.0
H2608 H 0.69816 0.12446 0.53919 0.0
H2609 H 0.69704 0.12188 0.56253 0.0
C2610 C 0.02649 0.44034 0.25157 0.0
C2611 C 0.01829 0.44019 0.2692 0.0
C2612 C 0.00118 0.4522 0.2596 0.0
C2613 C 0.98492 0.44783 0.25474 0.0
C2614 C 0.98162 0.45923 0.24634 0.0
C2615 C 0.99499 0.47545 0.24276 0.0
C2616 C 0.01141 0.48023 0.2483 0.0
C2617 C 0.01435 0.46859 0.25677 0.0
C2618 C 0.96392 0.45381 0.24086 0.0
C2619 C 0.02589 0.49753 0.24488 0.0
C2620 C 0.95801 0.55265 0.2939 0.0
C2621 C 0.97512 0.55985 0.28519 0.0
C2622 C 0.97623 0.54451 0.25983 0.0
C2623 C 0.99221 0.5494 0.25382 0.0
C2624 C 0.99543 0.53786 0.24519 0.0
C2625 C 0.9822 0.5212 0.24222 0.0
C2626 C 0.96601 0.51626 0.24833 0.0
C2627 C 0.96321 0.52804 0.2571 0.0
C2628 C 0.01286 0.54353 0.23895 0.0
C2629 C 0.95162 0.49865 0.24526 0.0
C2630 C 0.97613 0.54221 0.12872 0.0
C2631 C 0.99202 0.54738 0.13609 0.0
C2632 C 0.99511 0.5361 0.14507 0.0
C2633 C 0.98201 0.51939 0.14709 0.0
C2634 C 0.96607 0.5141 0.13965 0.0
C2635 C 0.96338 0.52559 0.1305 0.0
C2636 C 0.01236 0.54211 0.15263 0.0
C2637 C 0.95182 0.49638 0.14159 0.0
C2638 C 0.01494 0.42001 0.12922 0.0
C2639 C 0.002 0.42516 0.12524 0.0
C2640 C 0.00527 0.45275 0.13173 0.0
C2641 C 0.01749 0.46931 0.1357 0.0
C2642 C 0.01333 0.4804 0.14377 0.0
C2643 C 0.99645 0.47477 0.14775 0.0
C2644 C 0.9839 0.45826 0.14295 0.0
C2645 C 0.98843 0.44741 0.13491 0.0
C2646 C 0.027 0.49799 0.14849 0.0
C2647 C 0.96575 0.452 0.14665 0.0
C2648 C 0.99189 0.48701 0.2323 0.0
C2649 C 0.98866 0.49835 0.2412 0.0
C2650 C 0.98516 0.5092 0.23201 0.0
C2651 C 0.98471 0.50866 0.21343 0.0
C2652 C 0.98081 0.5191 0.20378 0.0
C2653 C 0.98067 0.51867 0.18551 0.0
C2654 C 0.98452 0.50786 0.17615 0.0
C2655 C 0.98488 0.50767 0.15758 0.0
C2656 C 0.98861 0.49666 0.14869 0.0
C2657 C 0.9921 0.48582 0.15788 0.0
C2658 C 0.99192 0.48591 0.17646 0.0
C2659 C 0.9955 0.47525 0.18611 0.0
C2660 C 0.99546 0.47554 0.20437 0.0
C2661 C 0.99189 0.48656 0.21372 0.0
C2662 C 0.98824 0.4974 0.20427 0.0
C2663 C 0.98818 0.49702 0.18561 0.0
C2664 C 0.98479 0.58071 0.13239 0.0
C2665 C 0.98306 0.56945 0.11647 0.0
O2666 O 0.00347 0.44015 0.26676 0.0
O2667 O 0.01026 0.44245 0.12468 0.0
O2668 O 0.97246 0.55268 0.11995 0.0
O2669 O 0.97313 0.55592 0.26741 0.0
H2670 H 0.02762 0.45193 0.276 0.0
H2671 H 0.03225 0.45293 0.24572 0.0
H2672 H 0.01745 0.43132 0.24173 0.0
H2673 H 0.03663 0.43748 0.25367 0.0
H2674 H 0.97482 0.43525 0.25719 0.0
H2675 H 0.02695 0.47236 0.26095 0.0
H2676 H 0.96048 0.46294 0.24597 0.0
H2677 H 0.95478 0.44117 0.24564 0.0
H2678 H 0.96298 0.45362 0.2263 0.0
H2679 H 0.03788 0.49947 0.25034 0.0
H2680 H 0.02343 0.5071 0.25076 0.0
H2681 H 0.02719 0.49957 0.23051 0.0
H2682 H 0.98068 0.55321 0.2919 0.0
H2683 H 0.95968 0.55635 0.30805 0.0
H2684 H 0.95126 0.53875 0.29293 0.0
H2685 H 0.94999 0.55684 0.28766 0.0
H2686 H 0.00208 0.56232 0.25573 0.0
H2687 H 0.95084 0.52454 0.26165 0.0
H2688 H 0.01699 0.53487 0.24362 0.0
H2689 H 0.02203 0.55645 0.24363 0.0
H2690 H 0.01288 0.54316 0.22437 0.0
H2691 H 0.93972 0.49688 0.25058 0.0
H2692 H 0.95448 0.48964 0.25157 0.0
H2693 H 0.94992 0.49562 0.23096 0.0
H2694 H 0.99594 0.57199 0.11441 0.0
H2695 H 0.00209 0.56018 0.13509 0.0
H2696 H 0.95118 0.52167 0.12481 0.0
H2697 H 0.01194 0.54249 0.16719 0.0
H2698 H 0.02166 0.55482 0.14815 0.0
H2699 H 0.01666 0.53329 0.14887 0.0
H2700 H 0.93999 0.4944 0.13561 0.0
H2701 H 0.94977 0.49329 0.15572 0.0
H2702 H 0.95506 0.48755 0.13522 0.0
H2703 H 0.99371 0.42099 0.13675 0.0
H2704 H 0.00876 0.40617 0.13024 0.0
H2705 H 0.02141 0.42577 0.14193 0.0
H2706 H 0.02445 0.42423 0.11877 0.0
H2707 H 0.03041 0.47339 0.13287 0.0
H2708 H 0.97883 0.43486 0.13112 0.0
H2709 H 0.02758 0.49996 0.16296 0.0
H2710 H 0.02416 0.50716 0.14253 0.0
H2711 H 0.03944 0.50061 0.14399 0.0
H2712 H 0.95739 0.43912 0.1413 0.0
H2713 H 0.96197 0.46054 0.14087 0.0
H2714 H 0.96398 0.45203 0.16106 0.0
H2715 H 0.98883 0.49872 0.25546 0.0
H2716 H 0.97783 0.52773 0.21024 0.0
H2717 H 0.97758 0.52699 0.17882 0.0
H2718 H 0.98899 0.49667 0.13445 0.0
H2719 H 0.9984 0.46655 0.17966 0.0
H2720 H 0.99834 0.46707 0.21106 0.0
H2721 H 0.99223 0.59411 0.12884 0.0
H2722 H 0.99146 0.57866 0.14333 0.0
H2723 H 0.9726 0.57818 0.13746 0.0
C2724 C 0.46177 0.42712 0.30208 0.0
C2725 C 0.45126 0.42241 0.28503 0.0
C2726 C 0.47074 0.42664 0.26181 0.0
C2727 C 0.47019 0.43869 0.25144 0.0
C2728 C 0.48369 0.4492 0.24091 0.0
C2729 C 0.49812 0.44768 0.24091 0.0
C2730 C 0.49851 0.43516 0.25093 0.0
C2731 C 0.48466 0.42461 0.26114 0.0
C2732 C 0.48253 0.46195 0.22982 0.0
C2733 C 0.51359 0.43306 0.25097 0.0
C2734 C 0.58543 0.57266 0.28755 0.0
C2735 C 0.57171 0.55663 0.27987 0.0
C2736 C 0.56748 0.53335 0.26073 0.0
C2737 C 0.57417 0.52351 0.25525 0.0
C2738 C 0.56452 0.50861 0.24543 0.0
C2739 C 0.54795 0.50382 0.24037 0.0
C2740 C 0.54127 0.51399 0.24548 0.0
C2741 C 0.55097 0.52843 0.25585 0.0
C2742 C 0.57195 0.49788 0.24071 0.0
C2743 C 0.52374 0.50951 0.24031 0.0
C2744 C 0.57438 0.52166 0.12373 0.0
C2745 C 0.57934 0.51141 0.13183 0.0
C2746 C 0.56844 0.49831 0.14264 0.0
C2747 C 0.55225 0.49562 0.14564 0.0
C2748 C 0.54723 0.50614 0.13782 0.0
C2749 C 0.55829 0.519 0.12689 0.0
C2750 C 0.57414 0.48723 0.15069 0.0
C2751 C 0.5301 0.50374 0.14092 0.0
C2752 C 0.44667 0.37168 0.1255 0.0
C2753 C 0.4488 0.3889 0.12173 0.0
C2754 C 0.47726 0.41191 0.12736 0.0
C2755 C 0.49325 0.41405 0.12839 0.0
C2756 C 0.50599 0.42725 0.13845 0.0
C2757 C 0.50274 0.43894 0.14708 0.0
C2758 C 0.4867 0.43718 0.14548 0.0
C2759 C 0.47406 0.4235 0.13593 0.0
C2760 C 0.52289 0.42869 0.13981 0.0
C2761 C 0.48289 0.44986 0.15357 0.0
C2762 C 0.51295 0.45974 0.23094 0.0
C2763 C 0.52461 0.47456 0.2396 0.0
C2764 C 0.53727 0.48786 0.23044 0.0
C2765 C 0.53849 0.48626 0.21207 0.0
C2766 C 0.55049 0.49963 0.20223 0.0
C2767 C 0.55129 0.49805 0.1841 0.0
C2768 C 0.54003 0.48309 0.17509 0.0
C2769 C 0.54035 0.48155 0.15661 0.0
C2770 C 0.52846 0.46678 0.14799 0.0
C2771 C 0.51618 0.45334 0.15731 0.0
C2772 C 0.51599 0.45443 0.17585 0.0
C2773 C 0.50408 0.44101 0.1857 0.0
C2774 C 0.50318 0.44263 0.20378 0.0
C2775 C 0.51437 0.45764 0.21275 0.0
C2776 C 0.52706 0.47103 0.20323 0.0
C2777 C 0.52782 0.46945 0.18473 0.0
C2778 C 0.57172 0.53256 0.08542 0.0
C2779 C 0.58228 0.54324 0.10135 0.0
O2780 O 0.45787 0.41665 0.27231 0.0
O2781 O 0.4654 0.39911 0.11723 0.0
O2782 O 0.58544 0.53378 0.11298 0.0
O2783 O 0.57728 0.54742 0.27061 0.0
H2784 H 0.45248 0.43445 0.28109 0.0
H2785 H 0.47454 0.43776 0.29968 0.0
H2786 H 0.46305 0.41665 0.30708 0.0
H2787 H 0.45606 0.43113 0.31243 0.0
H2788 H 0.45917 0.43983 0.25144 0.0
H2789 H 0.48481 0.41505 0.26901 0.0
H2790 H 0.49297 0.47469 0.23322 0.0
H2791 H 0.47055 0.46174 0.23158 0.0
H2792 H 0.48368 0.45947 0.21574 0.0
H2793 H 0.51163 0.42221 0.2588 0.0
H2794 H 0.52455 0.44459 0.2565 0.0
H2795 H 0.51661 0.43133 0.23729 0.0
H2796 H 0.56155 0.54875 0.28913 0.0
H2797 H 0.58413 0.57112 0.30219 0.0
H2798 H 0.58272 0.59068 0.27463 0.0
H2799 H 0.59719 0.57197 0.28692 0.0
H2800 H 0.58691 0.52738 0.25907 0.0
H2801 H 0.54553 0.53583 0.26 0.0
H2802 H 0.57394 0.49821 0.22634 0.0
H2803 H 0.56321 0.48464 0.24414 0.0
H2804 H 0.58412 0.50222 0.24753 0.0
H2805 H 0.52191 0.52044 0.24159 0.0
H2806 H 0.51479 0.49963 0.24909 0.0
H2807 H 0.5207 0.50459 0.22657 0.0
H2808 H 0.57445 0.54762 0.10772 0.0
H2809 H 0.59176 0.51355 0.1294 0.0
H2810 H 0.55414 0.5268 0.12093 0.0
H2811 H 0.57408 0.48828 0.16523 0.0
H2812 H 0.5869 0.49057 0.14654 0.0
H2813 H 0.56531 0.47394 0.1469 0.0
H2814 H 0.52859 0.51383 0.13513 0.0
H2815 H 0.52774 0.50337 0.15523 0.0
H2816 H 0.52046 0.49155 0.13502 0.0
H2817 H 0.44614 0.39369 0.13402 0.0
H2818 H 0.43423 0.36282 0.13081 0.0
H2819 H 0.45615 0.3731 0.13543 0.0
H2820 H 0.44851 0.36607 0.11331 0.0
H2821 H 0.49566 0.40517 0.1215 0.0
H2822 H 0.46185 0.42223 0.13464 0.0
H2823 H 0.52727 0.43076 0.15372 0.0
H2824 H 0.53208 0.43965 0.13231 0.0
H2825 H 0.52268 0.41734 0.13449 0.0
H2826 H 0.47123 0.44866 0.148 0.0
H2827 H 0.49332 0.46282 0.15153 0.0
H2828 H 0.48127 0.44792 0.16792 0.0
H2829 H 0.52331 0.4761 0.25356 0.0
H2830 H 0.55933 0.51153 0.20841 0.0
H2831 H 0.56075 0.50879 0.17721 0.0
H2832 H 0.52842 0.46596 0.13375 0.0
H2833 H 0.49512 0.42918 0.17947 0.0
H2834 H 0.49356 0.43201 0.21067 0.0
H2835 H 0.57693 0.52536 0.07917 0.0
H2836 H 0.57077 0.54068 0.07546 0.0
H2837 H 0.55886 0.52341 0.08956 0.0
C2838 C 0.43261 0.97508 0.29796 0.0
C2839 C 0.42947 0.98469 0.28361 0.0
C2840 C 0.44485 0.98424 0.25784 0.0
C2841 C 0.45689 0.00129 0.25663 0.0
C2842 C 0.4715 0.00646 0.24705 0.0
C2843 C 0.47419 0.99432 0.23862 0.0
C2844 C 0.46191 0.97714 0.2395 0.0
C2845 C 0.44725 0.97235 0.24892 0.0
C2846 C 0.48413 0.02492 0.24606 0.0
C2847 C 0.46436 0.96388 0.23063 0.0
C2848 C 0.60707 0.04395 0.26768 0.0
C2849 C 0.59114 0.02668 0.26628 0.0
C2850 C 0.56331 0.02269 0.26286 0.0
C2851 C 0.55411 0.00643 0.25569 0.0
C2852 C 0.53955 0.00151 0.24565 0.0
C2853 C 0.53421 0.01314 0.24282 0.0
C2854 C 0.54323 0.02939 0.25058 0.0
C2855 C 0.5576 0.03388 0.26071 0.0
C2856 C 0.53001 0.984 0.23786 0.0
C2857 C 0.53786 0.0421 0.24795 0.0
C2858 C 0.57445 0.04019 0.13562 0.0
C2859 C 0.56284 0.02297 0.13571 0.0
C2860 C 0.54687 0.01694 0.14266 0.0
C2861 C 0.54244 0.02843 0.14954 0.0
C2862 C 0.55384 0.04584 0.14861 0.0
C2863 C 0.56969 0.0515 0.14149 0.0
C2864 C 0.53483 0.99831 0.143 0.0
C2865 C 0.54944 0.05843 0.15561 0.0
C2866 C 0.42534 0.01723 0.13571 0.0
C2867 C 0.43618 0.02174 0.11921 0.0
C2868 C 0.45688 0.01352 0.12709 0.0
C2869 C 0.46067 0.00081 0.12493 0.0
C2870 C 0.47378 0.00105 0.13447 0.0
C2871 C 0.48352 0.01456 0.14626 0.0
C2872 C 0.48005 0.02773 0.14821 0.0
C2873 C 0.46666 0.02699 0.13876 0.0
C2874 C 0.47708 0.98678 0.13211 0.0
C2875 C 0.49044 0.04255 0.16037 0.0
C2876 C 0.48999 0.99965 0.22917 0.0
C2877 C 0.50399 0.00258 0.23907 0.0
C2878 C 0.51954 0.00864 0.23128 0.0
C2879 C 0.52121 0.01155 0.21304 0.0
C2880 C 0.53666 0.01747 0.20477 0.0
C2881 C 0.5383 0.02074 0.18691 0.0
C2882 C 0.52461 0.01845 0.17666 0.0
C2883 C 0.52628 0.02221 0.15859 0.0
C2884 C 0.51261 0.02049 0.14896 0.0
C2885 C 0.49714 0.01484 0.15685 0.0
C2886 C 0.49506 0.0104 0.17474 0.0
C2887 C 0.47953 0.00416 0.18294 0.0
C2888 C 0.47778 0.00045 0.20071 0.0
C2889 C 0.49148 0.00282 0.21097 0.0
C2890 C 0.50716 0.00878 0.20289 0.0
C2891 C 0.50892 0.01244 0.18472 0.0
C2892 C 0.61595 0.05237 0.14376 0.0
C2893 C 0.60048 0.03969 0.13301 0.0
O2894 O 0.4306 0.9789 0.26706 0.0
O2895 O 0.44376 0.01218 0.11764 0.0
O2896 O 0.59026 0.04631 0.1298 0.0
O2897 O 0.57765 0.02784 0.2721 0.0
H2898 H 0.43978 0.99773 0.28594 0.0
H2899 H 0.44556 0.97743 0.29698 0.0
H2900 H 0.424 0.96137 0.2969 0.0
H2901 H 0.43127 0.97952 0.31116 0.0
H2902 H 0.45489 0.01066 0.26286 0.0
H2903 H 0.43775 0.95924 0.24972 0.0
H2904 H 0.49548 0.02771 0.25373 0.0
H2905 H 0.47927 0.03283 0.25142 0.0
H2906 H 0.48789 0.02842 0.23225 0.0
H2907 H 0.45385 0.95102 0.23299 0.0
H2908 H 0.47615 0.96489 0.23549 0.0
H2909 H 0.46555 0.96591 0.21626 0.0
H2910 H 0.58972 0.02405 0.25194 0.0
H2911 H 0.61788 0.0432 0.26258 0.0
H2912 H 0.60998 0.04892 0.28137 0.0
H2913 H 0.60556 0.05301 0.25963 0.0
H2914 H 0.5582 0.99759 0.25814 0.0
H2915 H 0.56473 0.04632 0.26661 0.0
H2916 H 0.51677 0.9778 0.24197 0.0
H2917 H 0.53539 0.97622 0.24191 0.0
H2918 H 0.5301 0.98457 0.22331 0.0
H2919 H 0.54663 0.05441 0.25432 0.0
H2920 H 0.52527 0.03736 0.25353 0.0
H2921 H 0.53696 0.04396 0.2337 0.0
H2922 H 0.59426 0.02937 0.14225 0.0
H2923 H 0.5662 0.01425 0.13027 0.0
H2924 H 0.57865 0.0648 0.14101 0.0
H2925 H 0.53236 0.99422 0.15683 0.0
H2926 H 0.53972 0.99107 0.13604 0.0
H2927 H 0.52272 0.99527 0.13683 0.0
H2928 H 0.55964 0.07155 0.15375 0.0
H2929 H 0.54675 0.05648 0.16985 0.0
H2930 H 0.53795 0.05655 0.14888 0.0
H2931 H 0.44571 0.0351 0.12135 0.0
H2932 H 0.41842 0.02412 0.13596 0.0
H2933 H 0.4334 0.02099 0.1477 0.0
H2934 H 0.41625 0.00366 0.13652 0.0
H2935 H 0.45311 0.99049 0.11587 0.0
H2936 H 0.46404 0.03702 0.14063 0.0
H2937 H 0.477 0.98139 0.14506 0.0
H2938 H 0.48967 0.99154 0.1265 0.0
H2939 H 0.46769 0.97667 0.12329 0.0
H2940 H 0.48761 0.05276 0.15865 0.0
H2941 H 0.50396 0.04763 0.15809 0.0
H2942 H 0.48794 0.03848 0.1742 0.0
H2943 H 0.50286 0.00056 0.25312 0.0
H2944 H 0.54768 0.01966 0.21201 0.0
H2945 H 0.55051 0.02531 0.1813 0.0
H2946 H 0.51411 0.02383 0.13522 0.0
H2947 H 0.46856 0.00215 0.17572 0.0
H2948 H 0.46557 0.99584 0.20634 0.0
H2949 H 0.62336 0.06445 0.13708 0.0
H2950 H 0.62415 0.0471 0.1464 0.0
H2951 H 0.61201 0.05502 0.15659 0.0
C2952 C 0.57189 0.97487 0.74729 0.0
C2953 C 0.57471 0.99156 0.74011 0.0
C2954 C 0.56044 0.00155 0.75988 0.0
C2955 C 0.5632 0.01495 0.77086 0.0
C2956 C 0.54988 0.01563 0.77855 0.0
C2957 C 0.53336 0.00221 0.77561 0.0
C2958 C 0.53041 0.98862 0.7644 0.0
C2959 C 0.54398 0.98851 0.75646 0.0
C2960 C 0.55353 0.03064 0.78994 0.0
C2961 C 0.51296 0.97407 0.76098 0.0
C2962 C 0.42059 0.00381 0.72887 0.0
C2963 C 0.43213 0.9985 0.73584 0.0
C2964 C 0.45909 0.01003 0.75093 0.0
C2965 C 0.45696 0.99429 0.75495 0.0
C2966 C 0.46891 0.99303 0.76504 0.0
C2967 C 0.48329 0.00777 0.77132 0.0
C2968 C 0.48566 0.02363 0.76707 0.0
C2969 C 0.47349 0.02454 0.75689 0.0
C2970 C 0.46604 0.97589 0.76922 0.0
C2971 C 0.50087 0.03954 0.77358 0.0
C2972 C 0.44541 0.99799 0.8816 0.0
C2973 C 0.44163 0.98344 0.87181 0.0
C2974 C 0.45433 0.98195 0.86358 0.0
C2975 C 0.47104 0.99538 0.86485 0.0
C2976 C 0.47488 0.00995 0.87477 0.0
C2977 C 0.46201 0.01095 0.88319 0.0
C2978 C 0.44988 0.96602 0.85349 0.0
C2979 C 0.49255 0.02454 0.87635 0.0
C2980 C 0.56591 0.96512 0.8827 0.0
C2981 C 0.56321 0.9757 0.8966 0.0
C2982 C 0.53734 0.97503 0.88821 0.0
C2983 C 0.5211 0.9629 0.88311 0.0
C2984 C 0.51116 0.96705 0.87284 0.0
C2985 C 0.51748 0.9839 0.86811 0.0
C2986 C 0.53367 0.99638 0.87388 0.0
C2987 C 0.54351 0.99178 0.88368 0.0
C2988 C 0.49396 0.9534 0.86695 0.0
C2989 C 0.54057 0.0146 0.86978 0.0
C2990 C 0.51926 0.00222 0.78468 0.0
C2991 C 0.50881 0.00598 0.77495 0.0
C2992 C 0.49543 0.00635 0.78281 0.0
C2993 C 0.49285 0.00377 0.80104 0.0
C2994 C 0.48012 0.00505 0.80952 0.0
C2995 C 0.4775 0.0022 0.8274 0.0
C2996 C 0.48728 0.99761 0.83741 0.0
C2997 C 0.48446 0.9943 0.85551 0.0
C2998 C 0.49446 0.98987 0.86511 0.0
C2999 C 0.50722 0.98847 0.85707 0.0
C3000 C 0.51013 0.99158 0.83893 0.0
C3001 C 0.52264 0.98998 0.83033 0.0
C3002 C 0.52565 0.99344 0.81258 0.0
C3003 C 0.51617 0.99847 0.80269 0.0
C3004 C 0.50313 0.99959 0.81096 0.0
C3005 C 0.5002 0.99628 0.82912 0.0
C3006 C 0.41249 0.0002 0.87192 0.0
C3007 C 0.41663 0.99197 0.88698 0.0
O3008 O 0.57406 0.00169 0.75326 0.0
O3009 O 0.54634 0.97021 0.8981 0.0
O3010 O 0.43371 2e-05 0.89012 0.0
O3011 O 0.44744 0.01166 0.74165 0.0
H3012 H 0.56425 0.98773 0.73059 0.0
H3013 H 0.55872 0.96687 0.75129 0.0
H3014 H 0.5798 0.97652 0.75894 0.0
H3015 H 0.57439 0.9679 0.7369 0.0
H3016 H 0.57593 0.02497 0.77336 0.0
H3017 H 0.54157 0.97808 0.74791 0.0
H3018 H 0.54469 0.03502 0.78677 0.0
H3019 H 0.56651 0.0412 0.78833 0.0
H3020 H 0.55189 0.02707 0.80394 0.0
H3021 H 0.51297 0.96353 0.75381 0.0
H3022 H 0.50582 0.97832 0.75299 0.0
H3023 H 0.50632 0.96941 0.77355 0.0
H3024 H 0.43346 0.98942 0.72719 0.0
H3025 H 0.41893 0.00019 0.7145 0.0
H3026 H 0.42834 0.01768 0.72663 0.0
H3027 H 0.40091 0.99356 0.74623 0.0
H3028 H 0.44593 0.98291 0.75039 0.0
H3029 H 0.47505 0.03661 0.75373 0.0
H3030 H 0.46455 0.97399 0.7836 0.0
H3031 H 0.47704 0.97493 0.76532 0.0
H3032 H 0.45474 0.96567 0.76245 0.0
H3033 H 0.50093 0.05092 0.76907 0.0
H3034 H 0.51234 0.03988 0.76889 0.0
H3035 H 0.50135 0.0398 0.78817 0.0
H3036 H 0.41172 0.97902 0.88202 0.0
H3037 H 0.42898 0.97305 0.87071 0.0
H3038 H 0.46482 0.02205 0.89089 0.0
H3039 H 0.45182 0.96866 0.83927 0.0
H3040 H 0.43669 0.95605 0.85538 0.0
H3041 H 0.45818 0.96127 0.85766 0.0
H3042 H 0.49329 0.0354 0.88361 0.0
H3043 H 0.49782 0.02859 0.86308 0.0
H3044 H 0.50047 0.02058 0.88334 0.0
H3045 H 0.57006 0.98844 0.8912 0.0
H3046 H 0.57936 0.96903 0.88216 0.0
H3047 H 0.56201 0.96711 0.86957 0.0
H3048 H 0.55859 0.95153 0.88521 0.0
H3049 H 0.51635 0.95006 0.88691 0.0
H3050 H 0.55581 0.00141 0.88805 0.0
H3051 H 0.49242 0.95388 0.85253 0.0
H3052 H 0.4844 0.95539 0.8734 0.0
H3053 H 0.49155 0.94073 0.87024 0.0
H3054 H 0.55221 0.02298 0.8774 0.0
H3055 H 0.53118 0.01834 0.87266 0.0
H3056 H 0.54342 0.01652 0.85559 0.0
H3057 H 0.51086 0.00826 0.761 0.0
H3058 H 0.47212 0.00841 0.80245 0.0
H3059 H 0.46762 0.00353 0.83324 0.0
H3060 H 0.49229 0.98746 0.87902 0.0
H3061 H 0.53029 0.98609 0.83723 0.0
H3062 H 0.53547 0.99202 0.80669 0.0
H3063 H 0.39872 0.99417 0.87018 0.0
H3064 H 0.41765 0.99842 0.85948 0.0
H3065 H 0.41779 0.01382 0.87404 0.0
C3066 C 0.02849 0.57776 0.70776 0.0
C3067 C 0.0143 0.56901 0.72087 0.0
C3068 C 0.01539 0.55583 0.74809 0.0
C3069 C 0.99837 0.54399 0.74975 0.0
C3070 C 0.99314 0.53054 0.76121 0.0
C3071 C 0.00523 0.52888 0.77098 0.0
C3072 C 0.02243 0.54092 0.7693 0.0
C3073 C 0.02719 0.55445 0.75817 0.0
C3074 C 0.97473 0.51812 0.76286 0.0
C3075 C 0.03588 0.53947 0.77899 0.0
C3076 C 0.99663 0.41032 0.73445 0.0
C3077 C 0.00197 0.42708 0.74237 0.0
C3078 C 0.99049 0.44296 0.7561 0.0
C3079 C 0.00614 0.4564 0.76161 0.0
C3080 C 0.00742 0.4703 0.77064 0.0
C3081 C 0.99276 0.47079 0.77437 0.0
C3082 C 0.97699 0.45733 0.7689 0.0
C3083 C 0.97606 0.44355 0.75983 0.0
C3084 C 0.02448 0.48451 0.77619 0.0
C3085 C 0.96116 0.45752 0.77271 0.0
C3086 C 0.00948 0.4575 0.88894 0.0
C3087 C 0.02235 0.46778 0.87773 0.0
C3088 C 0.02128 0.47959 0.86738 0.0
C3089 C 0.00676 0.48093 0.86806 0.0
C3090 C 0.99348 0.4703 0.87905 0.0
C3091 C 0.99495 0.45868 0.8894 0.0
C3092 C 0.03574 0.49075 0.85585 0.0
C3093 C 0.97775 0.47127 0.87986 0.0
C3094 C 0.04891 0.61337 0.87782 0.0
C3095 C 0.03419 0.59794 0.88597 0.0
C3096 C 0.03169 0.5707 0.88111 0.0
C3097 C 0.04214 0.5662 0.87258 0.0
C3098 C 0.03562 0.55046 0.86426 0.0
C3099 C 0.01823 0.5389 0.86478 0.0
C3100 C 0.00766 0.54325 0.87386 0.0
C3101 C 0.01456 0.55913 0.88206 0.0
C3102 C 0.04732 0.54616 0.85494 0.0
C3103 C 0.98914 0.53111 0.87492 0.0
C3104 C 0.00013 0.51424 0.78238 0.0
C3105 C 0.99631 0.49905 0.77422 0.0
C3106 C 0.99412 0.48548 0.78403 0.0
C3107 C 0.99558 0.48694 0.80255 0.0
C3108 C 0.9938 0.47363 0.81277 0.0
C3109 C 0.99665 0.47565 0.83084 0.0
C3110 C 0.00143 0.49105 0.83934 0.0
C3111 C 0.00566 0.49366 0.85744 0.0
C3112 C 0.01039 0.50914 0.86548 0.0
C3113 C 0.01124 0.52227 0.85587 0.0
C3114 C 0.00707 0.51992 0.83775 0.0
C3115 C 0.00788 0.53289 0.82766 0.0
C3116 C 0.00501 0.53086 0.80959 0.0
C3117 C 0.00138 0.51585 0.80092 0.0
C3118 C 0.99949 0.50227 0.81098 0.0
C3119 C 0.0024 0.50433 0.82942 0.0
C3120 C 0.00525 0.45011 0.92904 0.0
C3121 C 0.00262 0.43812 0.91346 0.0
O3122 O 0.02095 0.56893 0.73715 0.0
O3123 O 0.03858 0.58596 0.88912 0.0
O3124 O 0.01174 0.44679 0.89904 0.0
O3125 O 0.98885 0.4293 0.74728 0.0
H3126 H 0.00721 0.55598 0.71574 0.0
H3127 H 0.0359 0.57138 0.7072 0.0
H3128 H 0.03704 0.59111 0.71146 0.0
H3129 H 0.02327 0.57712 0.6944 0.0
H3130 H 0.98919 0.54539 0.74234 0.0
H3131 H 0.04029 0.5638 0.75688 0.0
H3132 H 0.97187 0.50591 0.75692 0.0
H3133 H 0.96687 0.52233 0.75616 0.0
H3134 H 0.97131 0.51607 0.77692 0.0
H3135 H 0.04843 0.54766 0.77341 0.0
H3136 H 0.03322 0.52636 0.77861 0.0
H3137 H 0.0363 0.54328 0.79296 0.0
H3138 H 0.01157 0.4378 0.73474 0.0
H3139 H 0.00089 0.41278 0.72045 0.0
H3140 H 0.98294 0.40443 0.73101 0.0
H3141 H 0.00565 0.39995 0.75221 0.0
H3142 H 0.01745 0.45616 0.75893 0.0
H3143 H 0.96405 0.43314 0.75559 0.0
H3144 H 0.02515 0.48618 0.79069 0.0
H3145 H 0.02662 0.49636 0.77042 0.0
H3146 H 0.03469 0.48233 0.77202 0.0
H3147 H 0.94983 0.44598 0.76776 0.0
H3148 H 0.96167 0.46854 0.76651 0.0
H3149 H 0.96009 0.4588 0.7871 0.0
H3150 H 0.98908 0.43186 0.91038 0.0
H3151 H 0.03344 0.4667 0.87736 0.0
H3152 H 0.9847 0.45064 0.89773 0.0
H3153 H 0.03171 0.48806 0.84184 0.0
H3154 H 0.04659 0.48894 0.85777 0.0
H3155 H 0.03983 0.50409 0.85865 0.0
H3156 H 0.96812 0.46145 0.88824 0.0
H3157 H 0.97243 0.46991 0.86643 0.0
H3158 H 0.98079 0.48374 0.8852 0.0
H3159 H 0.02466 0.59341 0.87531 0.0
H3160 H 0.04527 0.6228 0.87481 0.0
H3161 H 0.05242 0.60966 0.86532 0.0
H3162 H 0.06013 0.61937 0.88653 0.0
H3163 H 0.05543 0.57517 0.8723 0.0
H3164 H 0.00669 0.56235 0.88955 0.0
H3165 H 0.04365 0.54333 0.84085 0.0
H3166 H 0.04637 0.53477 0.86066 0.0
H3167 H 0.06054 0.55649 0.8559 0.0
H3168 H 0.98256 0.53649 0.88222 0.0
H3169 H 0.98694 0.51958 0.88154 0.0
H3170 H 0.98363 0.52737 0.86147 0.0
H3171 H 0.99597 0.49807 0.75998 0.0
H3172 H 0.99046 0.4616 0.80687 0.0
H3173 H 0.99537 0.46507 0.83802 0.0
H3174 H 0.01406 0.51119 0.87927 0.0
H3175 H 0.011 0.54485 0.83359 0.0
H3176 H 0.00603 0.54133 0.80242 0.0
H3177 H 0.01864 0.45924 0.9317 0.0
H3178 H 0.99963 0.44288 0.94109 0.0
H3179 H 0.99902 0.45739 0.92627 0.0
C3180 C 0.54906 0.54168 0.7271 0.0
C3181 C 0.54816 0.55721 0.73286 0.0
C3182 C 0.53485 0.55063 0.76126 0.0
C3183 C 0.52254 0.55504 0.75956 0.0
C3184 C 0.50825 0.54761 0.77 0.0
C3185 C 0.50613 0.53527 0.78214 0.0
C3186 C 0.5187 0.53097 0.78399 0.0
C3187 C 0.5331 0.53903 0.77376 0.0
C3188 C 0.49536 0.55284 0.76792 0.0
C3189 C 0.51678 0.5176 0.79643 0.0
C3190 C 0.39384 0.45724 0.71971 0.0
C3191 C 0.40567 0.45568 0.73267 0.0
C3192 C 0.41839 0.47215 0.7593 0.0
C3193 C 0.42842 0.46627 0.7662 0.0
C3194 C 0.44234 0.47671 0.77696 0.0
C3195 C 0.44602 0.49321 0.781 0.0
C3196 C 0.43556 0.49895 0.77442 0.0
C3197 C 0.42173 0.48823 0.76375 0.0
C3198 C 0.45308 0.47014 0.78402 0.0
C3199 C 0.43908 0.51645 0.77852 0.0
C3200 C 0.41298 0.48397 0.89349 0.0
C3201 C 0.42507 0.47924 0.89217 0.0
C3202 C 0.43988 0.48908 0.88299 0.0
C3203 C 0.4427 0.50408 0.87525 0.0
C3204 C 0.43074 0.50916 0.87715 0.0
C3205 C 0.41605 0.49905 0.88638 0.0
C3206 C 0.45253 0.48349 0.88152 0.0
C3207 C 0.43343 0.52517 0.86928 0.0
C3208 C 0.5526 0.61683 0.88598 0.0
C3209 C 0.54815 0.60676 0.90293 0.0
C3210 C 0.52963 0.57771 0.8919 0.0
C3211 C 0.52856 0.56225 0.88913 0.0
C3212 C 0.51446 0.54878 0.88095 0.0
C3213 C 0.50122 0.55098 0.87513 0.0
C3214 C 0.502 0.56646 0.87826 0.0
C3215 C 0.51612 0.57963 0.88677 0.0
C3216 C 0.51388 0.53233 0.87821 0.0
C3217 C 0.48802 0.56918 0.87234 0.0
C3218 C 0.49042 0.52623 0.79219 0.0
C3219 C 0.47611 0.51406 0.78319 0.0
C3220 C 0.46098 0.50468 0.7918 0.0
C3221 C 0.46015 0.50692 0.81009 0.0
C3222 C 0.44534 0.49707 0.81932 0.0
C3223 C 0.44465 0.4994 0.83733 0.0
C3224 C 0.45867 0.51183 0.84676 0.0
C3225 C 0.45806 0.51438 0.86504 0.0
C3226 C 0.47213 0.52707 0.87393 0.0
C3227 C 0.4869 0.53738 0.86503 0.0
C3228 C 0.48783 0.53488 0.84679 0.0
C3229 C 0.5025 0.54501 0.83742 0.0
C3230 C 0.50338 0.54224 0.81954 0.0
C3231 C 0.48958 0.52935 0.8103 0.0
C3232 C 0.47448 0.5194 0.81935 0.0
C3233 C 0.47367 0.52201 0.83765 0.0
C3234 C 0.36959 0.45531 0.89693 0.0
C3235 C 0.38718 0.4578 0.89888 0.0
O3236 O 0.5486 0.55754 0.75108 0.0
O3237 O 0.54398 0.59034 0.89931 0.0
O3238 O 0.39859 0.4746 0.90222 0.0
O3239 O 0.40498 0.46226 0.74888 0.0
H3240 H 0.53619 0.55579 0.72798 0.0
H3241 H 0.5476 0.53929 0.71273 0.0
H3242 H 0.5612 0.5431 0.73134 0.0
H3243 H 0.53887 0.53036 0.73332 0.0
H3244 H 0.52419 0.5644 0.75016 0.0
H3245 H 0.5428 0.53586 0.77504 0.0
H3246 H 0.48419 0.5427 0.76092 0.0
H3247 H 0.50016 0.56447 0.76029 0.0
H3248 H 0.49133 0.55487 0.78098 0.0
H3249 H 0.52646 0.51407 0.79443 0.0
H3250 H 0.50426 0.50621 0.79471 0.0
H3251 H 0.51787 0.52223 0.81017 0.0
H3252 H 0.4181 0.46385 0.7269 0.0
H3253 H 0.39429 0.45205 0.7066 0.0
H3254 H 0.39779 0.47066 0.71823 0.0
H3255 H 0.38074 0.45061 0.72422 0.0
H3256 H 0.42525 0.4535 0.76334 0.0
H3257 H 0.41362 0.49245 0.75856 0.0
H3258 H 0.45385 0.47137 0.79858 0.0
H3259 H 0.46597 0.47775 0.77902 0.0
H3260 H 0.44818 0.45681 0.78019 0.0
H3261 H 0.42996 0.51912 0.77201 0.0
H3262 H 0.45184 0.52575 0.7742 0.0
H3263 H 0.43865 0.51818 0.79293 0.0
H3264 H 0.38932 0.45431 0.8856 0.0
H3265 H 0.42307 0.46808 0.89864 0.0
H3266 H 0.40674 0.50274 0.88785 0.0
H3267 H 0.45452 0.48175 0.86746 0.0
H3268 H 0.44853 0.47157 0.88837 0.0
H3269 H 0.46471 0.49333 0.8872 0.0
H3270 H 0.42293 0.52737 0.87196 0.0
H3271 H 0.43485 0.52473 0.85485 0.0
H3272 H 0.44516 0.53594 0.8747 0.0
H3273 H 0.53707 0.60621 0.90899 0.0
H3274 H 0.55614 0.63001 0.88897 0.0
H3275 H 0.54183 0.61147 0.87665 0.0
H3276 H 0.56321 0.6168 0.87936 0.0
H3277 H 0.53895 0.56082 0.89327 0.0
H3278 H 0.51654 0.59138 0.88908 0.0
H3279 H 0.51485 0.53021 0.86398 0.0
H3280 H 0.50177 0.52185 0.88271 0.0
H3281 H 0.52421 0.53202 0.88531 0.0
H3282 H 0.49091 0.58223 0.8749 0.0
H3283 H 0.47642 0.56053 0.87934 0.0
H3284 H 0.4855 0.56628 0.85806 0.0
H3285 H 0.4767 0.51197 0.76921 0.0
H3286 H 0.43415 0.48736 0.81274 0.0
H3287 H 0.43294 0.49138 0.84376 0.0
H3288 H 0.47154 0.52905 0.88793 0.0
H3289 H 0.51352 0.55514 0.84381 0.0
H3290 H 0.51501 0.55036 0.81304 0.0
H3291 H 0.36039 0.44195 0.89383 0.0
H3292 H 0.36932 0.46295 0.88596 0.0
H3293 H 0.3656 0.45911 0.90898 0.0
C3294 C 0.6557 0.77594 0.6418 0.0
C3295 C 0.64224 0.76092 0.6309 0.0
C3296 C 0.64005 0.77284 0.60331 0.0
C3297 C 0.62309 0.76812 0.60313 0.0
C3298 C 0.61725 0.77635 0.59244 0.0
C3299 C 0.62863 0.78957 0.5818 0.0
C3300 C 0.64569 0.79417 0.58182 0.0
C3301 C 0.6511 0.78551 0.59237 0.0
C3302 C 0.59893 0.7709 0.59243 0.0
C3303 C 0.65825 0.80836 0.57084 0.0
C3304 C 0.60916 0.87602 0.6405 0.0
C3305 C 0.62048 0.87773 0.62511 0.0
C3306 C 0.61245 0.85861 0.59988 0.0
C3307 C 0.62799 0.86236 0.59331 0.0
C3308 C 0.62962 0.85051 0.58313 0.0
C3309 C 0.61532 0.83468 0.57936 0.0
C3310 C 0.5995 0.83115 0.58541 0.0
C3311 C 0.59825 0.84329 0.59548 0.0
C3312 C 0.64659 0.85483 0.57649 0.0
C3313 C 0.58398 0.81447 0.5815 0.0
C3314 C 0.61071 0.85206 0.4639 0.0
C3315 C 0.62545 0.85509 0.47255 0.0
C3316 C 0.62577 0.84266 0.48253 0.0
C3317 C 0.61094 0.827 0.48435 0.0
C3318 C 0.59613 0.82381 0.47553 0.0
C3319 C 0.5963 0.83632 0.4652 0.0
C3320 C 0.64204 0.84632 0.49108 0.0
C3321 C 0.58011 0.80725 0.47712 0.0
C3322 C 0.60323 0.71122 0.46465 0.0
C3323 C 0.60809 0.72521 0.45127 0.0
C3324 C 0.61846 0.75138 0.46869 0.0
C3325 C 0.63268 0.76688 0.47252 0.0
C3326 C 0.63158 0.77949 0.48179 0.0
C3327 C 0.61582 0.77643 0.48748 0.0
C3328 C 0.60138 0.76069 0.48392 0.0
C3329 C 0.60283 0.74828 0.47464 0.0
C3330 C 0.64725 0.79611 0.48547 0.0
C3331 C 0.58441 0.75701 0.48996 0.0
C3332 C 0.62284 0.79886 0.57094 0.0
C3333 C 0.6211 0.81147 0.5792 0.0
C3334 C 0.61697 0.82163 0.56959 0.0
C3335 C 0.61481 0.81943 0.55116 0.0
C3336 C 0.61131 0.82987 0.54102 0.0
C3337 C 0.60982 0.82799 0.52282 0.0
C3338 C 0.61168 0.81554 0.51409 0.0
C3339 C 0.61109 0.8141 0.49555 0.0
C3340 C 0.61223 0.80111 0.48733 0.0
C3341 C 0.61443 0.78972 0.49713 0.0
C3342 C 0.61587 0.79145 0.51564 0.0
C3343 C 0.61886 0.78069 0.52586 0.0
C3344 C 0.62098 0.78297 0.544 0.0
C3345 C 0.62002 0.79599 0.55262 0.0
C3346 C 0.61632 0.80654 0.54266 0.0
C3347 C 0.61449 0.80442 0.52413 0.0
C3348 C 0.60988 0.8873 0.46683 0.0
C3349 C 0.61922 0.88089 0.4555 0.0
O3350 O 0.64606 0.76508 0.61344 0.0
O3351 O 0.62046 0.73991 0.45926 0.0
O3352 O 0.60994 0.86358 0.45368 0.0
O3353 O 0.61076 0.86961 0.61033 0.0
H3354 H 0.6298 0.75913 0.63412 0.0
H3355 H 0.65651 0.78769 0.63733 0.0
H3356 H 0.66811 0.77709 0.64004 0.0
H3357 H 0.65294 0.77509 0.65599 0.0
H3358 H 0.61433 0.75781 0.611 0.0
H3359 H 0.66411 0.78886 0.59245 0.0
H3360 H 0.59735 0.78112 0.5981 0.0
H3361 H 0.59145 0.75944 0.60018 0.0
H3362 H 0.59392 0.76845 0.57875 0.0
H3363 H 0.67128 0.8115 0.57374 0.0
H3364 H 0.65732 0.81973 0.57317 0.0
H3365 H 0.65551 0.80483 0.5567 0.0
H3366 H 0.62648 0.87071 0.62965 0.0
H3367 H 0.61684 0.88209 0.65254 0.0
H3368 H 0.6006 0.86255 0.64317 0.0
H3369 H 0.60141 0.88174 0.63779 0.0
H3370 H 0.63878 0.8746 0.59595 0.0
H3371 H 0.58625 0.84069 0.60039 0.0
H3372 H 0.64601 0.85296 0.562 0.0
H3373 H 0.65036 0.84629 0.58228 0.0
H3374 H 0.65632 0.86796 0.57983 0.0
H3375 H 0.57262 0.81366 0.58723 0.0
H3376 H 0.58556 0.80425 0.58682 0.0
H3377 H 0.58209 0.81236 0.56707 0.0
H3378 H 0.63087 0.88508 0.46318 0.0
H3379 H 0.63691 0.86689 0.47136 0.0
H3380 H 0.58504 0.83398 0.45831 0.0
H3381 H 0.6415 0.84813 0.50545 0.0
H3382 H 0.65291 0.8578 0.48593 0.0
H3383 H 0.64414 0.83563 0.48897 0.0
H3384 H 0.56933 0.80729 0.47077 0.0
H3385 H 0.57731 0.80418 0.49119 0.0
H3386 H 0.5816 0.79719 0.47086 0.0
H3387 H 0.59713 0.72642 0.44779 0.0
H3388 H 0.59214 0.69923 0.46039 0.0
H3389 H 0.60013 0.71488 0.47741 0.0
H3390 H 0.61384 0.7091 0.46693 0.0
H3391 H 0.64468 0.76913 0.46801 0.0
H3392 H 0.59173 0.73622 0.47221 0.0
H3393 H 0.6489 0.79872 0.49986 0.0
H3394 H 0.64607 0.80629 0.47939 0.0
H3395 H 0.65859 0.79645 0.48033 0.0
H3396 H 0.57434 0.74417 0.48608 0.0
H3397 H 0.58144 0.7662 0.4843 0.0
H3398 H 0.58456 0.75841 0.50448 0.0
H3399 H 0.62321 0.81355 0.59328 0.0
H3400 H 0.60992 0.83977 0.54701 0.0
H3401 H 0.60728 0.83648 0.51565 0.0
H3402 H 0.61181 0.80011 0.47309 0.0
H3403 H 0.61985 0.77054 0.51991 0.0
H3404 H 0.62345 0.77444 0.55118 0.0
H3405 H 0.61685 0.90122 0.46737 0.0
H3406 H 0.60893 0.8828 0.48045 0.0
H3407 H 0.59701 0.88283 0.46195 0.0
C3408 C 0.11738 0.75818 0.64154 0.0
C3409 C 0.10858 0.75417 0.62346 0.0
C3410 C 0.13003 0.76133 0.60135 0.0
C3411 C 0.12959 0.77442 0.59284 0.0
C3412 C 0.14307 0.78582 0.5828 0.0
C3413 C 0.15732 0.78412 0.58126 0.0
C3414 C 0.15765 0.77069 0.58944 0.0
C3415 C 0.14385 0.7593 0.59921 0.0
C3416 C 0.14212 0.79979 0.57392 0.0
C3417 C 0.17263 0.76849 0.58797 0.0
C3418 C 0.26275 0.90571 0.62644 0.0
C3419 C 0.25333 0.88792 0.62024 0.0
C3420 C 0.22889 0.86942 0.60185 0.0
C3421 C 0.23244 0.85637 0.60052 0.0
C3422 C 0.22201 0.84176 0.5906 0.0
C3423 C 0.20776 0.84016 0.58189 0.0
C3424 C 0.20416 0.85326 0.58322 0.0
C3425 C 0.21482 0.86774 0.59318 0.0
C3426 C 0.2262 0.82803 0.58938 0.0
C3427 C 0.18903 0.85195 0.57416 0.0
C3428 C 0.23585 0.86261 0.46875 0.0
C3429 C 0.23981 0.85035 0.47331 0.0
C3430 C 0.22846 0.83617 0.4826 0.0
C3431 C 0.21287 0.83422 0.48738 0.0
C3432 C 0.20882 0.84648 0.48268 0.0
C3433 C 0.22043 0.86055 0.47348 0.0
C3434 C 0.23315 0.82335 0.48749 0.0
C3435 C 0.19228 0.84476 0.48747 0.0
C3436 C 0.11023 0.70108 0.46634 0.0
C3437 C 0.11641 0.71981 0.46523 0.0
C3438 C 0.14416 0.74425 0.47131 0.0
C3439 C 0.16067 0.74867 0.47497 0.0
C3440 C 0.17183 0.76401 0.48333 0.0
C3441 C 0.16638 0.77536 0.48774 0.0
C3442 C 0.14995 0.77138 0.48312 0.0
C3443 C 0.13895 0.75579 0.47508 0.0
C3444 C 0.1893 0.7679 0.48784 0.0
C3445 C 0.14392 0.78346 0.48699 0.0
C3446 C 0.17194 0.79671 0.57142 0.0
C3447 C 0.18346 0.81142 0.58039 0.0
C3448 C 0.19647 0.82469 0.57158 0.0
C3449 C 0.19806 0.82335 0.55325 0.0
C3450 C 0.21071 0.83664 0.54389 0.0
C3451 C 0.21176 0.83544 0.52576 0.0
C3452 C 0.20032 0.82083 0.51632 0.0
C3453 C 0.20098 0.81968 0.49783 0.0
C3454 C 0.18975 0.80479 0.48889 0.0
C3455 C 0.17763 0.79098 0.49793 0.0
C3456 C 0.17641 0.79209 0.51638 0.0
C3457 C 0.16405 0.77864 0.52585 0.0
C3458 C 0.16253 0.78011 0.54387 0.0
C3459 C 0.17362 0.79492 0.5532 0.0
C3460 C 0.18658 0.8084 0.54404 0.0
C3461 C 0.18781 0.80708 0.52557 0.0
C3462 C 0.26795 0.89386 0.43973 0.0
C3463 C 0.26147 0.87996 0.45243 0.0
O3464 O 0.11719 0.75022 0.61129 0.0
O3465 O 0.1337 0.72875 0.46429 0.0
O3466 O 0.24637 0.87645 0.45963 0.0
O3467 O 0.23873 0.88384 0.61116 0.0
H3468 H 0.10927 0.7661 0.6202 0.0
H3469 H 0.1299 0.76966 0.64074 0.0
H3470 H 0.11928 0.74802 0.64627 0.0
H3471 H 0.11004 0.7606 0.6514 0.0
H3472 H 0.11869 0.7757 0.59375 0.0
H3473 H 0.14396 0.74898 0.6056 0.0
H3474 H 0.1518 0.81201 0.57969 0.0
H3475 H 0.12972 0.79871 0.57539 0.0
H3476 H 0.14473 0.79978 0.5597 0.0
H3477 H 0.17099 0.75745 0.59521 0.0
H3478 H 0.18392 0.77988 0.59322 0.0
H3479 H 0.17487 0.76697 0.57394 0.0
H3480 H 0.25138 0.87858 0.6304 0.0
H3481 H 0.26242 0.90517 0.6412 0.0
H3482 H 0.25397 0.91072 0.62537 0.0
H3483 H 0.28477 0.91559 0.61271 0.0
H3484 H 0.24332 0.8575 0.60717 0.0
H3485 H 0.21221 0.87788 0.59425 0.0
H3486 H 0.2159 0.81639 0.59496 0.0
H3487 H 0.23801 0.83137 0.59649 0.0
H3488 H 0.22738 0.82528 0.57538 0.0
H3489 H 0.18793 0.86321 0.57658 0.0
H3490 H 0.17755 0.84079 0.57884 0.0
H3491 H 0.1897 0.85024 0.55978 0.0
H3492 H 0.27069 0.88101 0.46257 0.0
H3493 H 0.25174 0.85181 0.46973 0.0
H3494 H 0.21748 0.87004 0.46985 0.0
H3495 H 0.23249 0.82181 0.50195 0.0
H3496 H 0.24592 0.82688 0.48319 0.0
H3497 H 0.22408 0.81103 0.48138 0.0
H3498 H 0.19056 0.85476 0.48176 0.0
H3499 H 0.19147 0.84535 0.50198 0.0
H3500 H 0.18187 0.83239 0.48283 0.0
H3501 H 0.11326 0.72346 0.47793 0.0
H3502 H 0.09651 0.69393 0.46836 0.0
H3503 H 0.1164 0.69882 0.47764 0.0
H3504 H 0.11297 0.69618 0.4542 0.0
H3505 H 0.16463 0.73978 0.47176 0.0
H3506 H 0.12632 0.75268 0.4718 0.0
H3507 H 0.1918 0.77068 0.50214 0.0
H3508 H 0.19849 0.77922 0.48079 0.0
H3509 H 0.19135 0.7574 0.48425 0.0
H3510 H 0.13173 0.77955 0.48044 0.0
H3511 H 0.15326 0.79621 0.48266 0.0
H3512 H 0.14246 0.7842 0.50138 0.0
H3513 H 0.18202 0.81274 0.59436 0.0
H3514 H 0.21983 0.8482 0.55044 0.0
H3515 H 0.22166 0.84614 0.51923 0.0
H3516 H 0.19041 0.80398 0.47472 0.0
H3517 H 0.15521 0.76688 0.51942 0.0
H3518 H 0.15259 0.76946 0.55042 0.0
H3519 H 0.27986 0.90415 0.44593 0.0
H3520 H 0.26074 0.90052 0.4418 0.0
H3521 H 0.26752 0.8823 0.41617 0.0
C3522 C 0.12917 0.38782 0.64187 0.0
C3523 C 0.12148 0.38276 0.6232 0.0
C3524 C 0.14001 0.37565 0.60691 0.0
C3525 C 0.15349 0.39211 0.60533 0.0
C3526 C 0.16736 0.39543 0.59515 0.0
C3527 C 0.16775 0.38205 0.58639 0.0
C3528 C 0.15434 0.36546 0.58819 0.0
C3529 C 0.14068 0.3625 0.59851 0.0
C3530 C 0.18159 0.41322 0.59365 0.0
C3531 C 0.15438 0.3509 0.57908 0.0
C3532 C 0.28511 0.39521 0.60563 0.0
C3533 C 0.26914 0.37959 0.61188 0.0
C3534 C 0.24545 0.37584 0.59348 0.0
C3535 C 0.23263 0.36427 0.5824 0.0
C3536 C 0.22013 0.36717 0.57615 0.0
C3537 C 0.22089 0.38247 0.58055 0.0
C3538 C 0.23371 0.39419 0.59199 0.0
C3539 C 0.24577 0.39068 0.59853 0.0
C3540 C 0.20629 0.35394 0.56461 0.0
C3541 C 0.23487 0.41059 0.59697 0.0
C3542 C 0.24548 0.39335 0.46835 0.0
C3543 C 0.23221 0.37859 0.47514 0.0
C3544 C 0.21955 0.37894 0.48476 0.0
C3545 C 0.22024 0.39438 0.48784 0.0
C3546 C 0.23321 0.40916 0.4805 0.0
C3547 C 0.24558 0.4084 0.47066 0.0
C3548 C 0.20553 0.36278 0.4918 0.0
C3549 C 0.23418 0.42579 0.48337 0.0
C3550 C 0.10917 0.38227 0.43663 0.0
C3551 C 0.12289 0.39158 0.44982 0.0
C3552 C 0.13704 0.38478 0.47266 0.0
C3553 C 0.13719 0.37147 0.4808 0.0
C3554 C 0.15126 0.37391 0.49029 0.0
C3555 C 0.16531 0.39027 0.49225 0.0
C3556 C 0.16501 0.40392 0.48456 0.0
C3557 C 0.15092 0.40103 0.47471 0.0
C3558 C 0.15121 0.3589 0.49783 0.0
C3559 C 0.17968 0.42153 0.48654 0.0
C3560 C 0.18205 0.3854 0.57513 0.0
C3561 C 0.1952 0.38421 0.58264 0.0
C3562 C 0.20862 0.38631 0.57253 0.0
C3563 C 0.20922 0.39012 0.55455 0.0
C3564 C 0.22286 0.39294 0.54417 0.0
C3565 C 0.22263 0.39508 0.52617 0.0
C3566 C 0.20874 0.39444 0.51785 0.0
C3567 C 0.20771 0.39502 0.49937 0.0
C3568 C 0.19371 0.39429 0.49152 0.0
C3569 C 0.18055 0.39289 0.50165 0.0
C3570 C 0.18139 0.39234 0.52017 0.0
C3571 C 0.16844 0.39101 0.53079 0.0
C3572 C 0.16877 0.3891 0.54886 0.0
C3573 C 0.1821 0.3885 0.55699 0.0
C3574 C 0.19568 0.39069 0.54665 0.0
C3575 C 0.19538 0.39274 0.52824 0.0
C3576 C 0.27838 0.39128 0.47693 0.0
C3577 C 0.26508 0.38356 0.46215 0.0
O3578 O 0.12616 0.3718 0.61637 0.0
O3579 O 0.12358 0.38128 0.46241 0.0
O3580 O 0.25816 0.39356 0.45926 0.0
O3581 O 0.25734 0.37225 0.59848 0.0
H3582 H 0.12622 0.39397 0.61487 0.0
H3583 H 0.1427 0.39205 0.64161 0.0
H3584 H 0.12302 0.37693 0.65067 0.0
H3585 H 0.12813 0.39828 0.64767 0.0
H3586 H 0.15337 0.40243 0.61204 0.0
H3587 H 0.13028 0.34985 0.59989 0.0
H3588 H 0.19345 0.4141 0.59799 0.0
H3589 H 0.17963 0.42222 0.60162 0.0
H3590 H 0.18301 0.41695 0.57969 0.0
H3591 H 0.14291 0.33876 0.58169 0.0
H3592 H 0.16543 0.35022 0.58354 0.0
H3593 H 0.15541 0.3528 0.56468 0.0
H3594 H 0.26447 0.38444 0.62248 0.0
H3595 H 0.29504 0.3997 0.61596 0.0
H3596 H 0.28261 0.40552 0.60315 0.0
H3597 H 0.28996 0.39295 0.59329 0.0
H3598 H 0.23244 0.35282 0.57867 0.0
H3599 H 0.25554 0.39974 0.60721 0.0
H3600 H 0.20874 0.35773 0.55069 0.0
H3601 H 0.19404 0.35252 0.56809 0.0
H3602 H 0.20543 0.34158 0.56569 0.0
H3603 H 0.24629 0.41893 0.6049 0.0
H3604 H 0.22377 0.40812 0.6047 0.0
H3605 H 0.23485 0.41722 0.58495 0.0
H3606 H 0.25586 0.37121 0.46733 0.0
H3607 H 0.23139 0.36667 0.47285 0.0
H3608 H 0.25567 0.41968 0.46512 0.0
H3609 H 0.20686 0.3628 0.5063 0.0
H3610 H 0.20551 0.35161 0.48623 0.0
H3611 H 0.19326 0.36163 0.48883 0.0
H3612 H 0.2453 0.43622 0.47715 0.0
H3613 H 0.23466 0.42858 0.49768 0.0
H3614 H 0.22277 0.42514 0.47786 0.0
H3615 H 0.1236 0.40303 0.45571 0.0
H3616 H 0.1004 0.38717 0.43865 0.0
H3617 H 0.10048 0.3696 0.4422 0.0
H3618 H 0.12168 0.38525 0.41347 0.0
H3619 H 0.12643 0.359 0.47909 0.0
H3620 H 0.15084 0.41147 0.46861 0.0
H3621 H 0.15062 0.35937 0.51236 0.0
H3622 H 0.16289 0.35902 0.49444 0.0
H3623 H 0.14038 0.34689 0.49297 0.0
H3624 H 0.17673 0.43099 0.48164 0.0
H3625 H 0.19038 0.42258 0.47905 0.0
H3626 H 0.18366 0.42446 0.50055 0.0
H3627 H 0.19468 0.38106 0.59637 0.0
H3628 H 0.23374 0.39325 0.54981 0.0
H3629 H 0.23335 0.39692 0.5188 0.0
H3630 H 0.19275 0.39415 0.4773 0.0
H3631 H 0.15775 0.39113 0.52519 0.0
H3632 H 0.15829 0.38778 0.55632 0.0
H3633 H 0.28667 0.40498 0.47558 0.0
H3634 H 0.28602 0.38515 0.47728 0.0
H3635 H 0.27212 0.38935 0.48979 0.0
C3636 C 0.99893 0.40933 0.07893 0.0
C3637 C 0.98609 0.39248 0.08109 0.0
C3638 C 0.9782 0.40028 0.10879 0.0
C3639 C 0.99269 0.41648 0.10794 0.0
N3640 N 0.01024 0.43825 0.08792 0.0
N3641 N 0.96271 0.37168 0.09714 0.0
C3642 C 0.0011 0.42164 0.09169 0.0
C3643 C 0.97527 0.38795 0.09561 0.0
N3644 N 0.00958 0.41347 0.06512 0.0
N3645 N 0.96696 0.39701 0.12182 0.0
H3646 H 0.95985 0.36258 0.08733 0.0
H3647 H 0.95558 0.36692 0.10833 0.0
H3648 H 0.96799 0.40622 0.13061 0.0
H3649 H 0.95561 0.38587 0.12274 0.0
H3650 H 0.02052 0.42503 0.06419 0.0
H3651 H 0.00818 0.40496 0.05517 0.0
H3652 H 0.01576 0.44266 0.07582 0.0
H3653 H 0.00998 0.4475 0.09559 0.0
C3654 C 0.61131 0.58817 0.08887 0.0
C3655 C 0.62129 0.5863 0.07604 0.0
C3656 C 0.60996 0.557 0.08417 0.0
C3657 C 0.59871 0.55854 0.09568 0.0
N3658 N 0.59596 0.57745 0.11564 0.0
N3659 N 0.63384 0.57088 0.06484 0.0
C3660 C 0.60172 0.57476 0.1002 0.0
C3661 C 0.62182 0.57128 0.0748 0.0
N3662 N 0.61025 0.60235 0.08972 0.0
N3663 N 0.60921 0.54195 0.08217 0.0
H3664 H 0.64272 0.58126 0.05804 0.0
H3665 H 0.6359 0.56085 0.06425 0.0
H3666 H 0.60226 0.53192 0.09035 0.0
H3667 H 0.61535 0.53927 0.07241 0.0
H3668 H 0.60167 0.60343 0.09757 0.0
H3669 H 0.61694 0.61251 0.08158 0.0
H3670 H 0.59887 0.58933 0.12015 0.0
H3671 H 0.59032 0.5682 0.12503 0.0
C3672 C 0.42043 0.03397 0.07865 0.0
C3673 C 0.40444 0.01957 0.07601 0.0
C3674 C 0.41092 0.00467 0.09822 0.0
C3675 C 0.42613 0.0198 0.10236 0.0
N3676 N 0.44849 0.04515 0.09018 0.0
N3677 N 0.38402 0.99114 0.08305 0.0
C3678 C 0.43185 0.03344 0.09073 0.0
C3679 C 0.39961 0.00485 0.08565 0.0
N3680 N 0.42452 0.04836 0.07004 0.0
N3681 N 0.40792 0.9899 0.10517 0.0
H3682 H 0.37576 0.99034 0.07322 0.0
H3683 H 0.3788 0.98091 0.09128 0.0
H3684 H 0.41643 0.9889 0.11325 0.0
H3685 H 0.39793 0.97824 0.10138 0.0
H3686 H 0.4352 0.05983 0.07301 0.0
H3687 H 0.41654 0.0492 0.06095 0.0
H3688 H 0.45359 0.0546 0.08097 0.0
H3689 H 0.45757 0.04403 0.09714 0.0
C3690 C 0.38575 0.97451 0.92483 0.0
C3691 C 0.38561 0.989 0.93076 0.0
C3692 C 0.40898 0.00642 0.91148 0.0
C3693 C 0.40776 0.9916 0.90405 0.0
N3694 N 0.4014 0.96351 0.91044 0.0
N3695 N 0.39684 0.01885 0.93014 0.0
C3696 C 0.398 0.97616 0.91269 0.0
C3697 C 0.39725 0.00501 0.92429 0.0
N3698 N 0.3738 0.95907 0.93035 0.0
N3699 N 0.42214 0.0218 0.90746 0.0
H3700 H 0.38931 0.01858 0.94039 0.0
H3701 H 0.40322 0.03045 0.92423 0.0
H3702 H 0.43179 0.02346 0.8993 0.0
H3703 H 0.42469 0.03294 0.9137 0.0
H3704 H 0.37205 0.94791 0.92485 0.0
H3705 H 0.36469 0.95736 0.93939 0.0
H3706 H 0.39562 0.9525 0.91751 0.0
H3707 H 0.41169 0.96496 0.9035 0.0
C3708 C 0.0229 0.41748 0.93872 0.0
C3709 C 0.00958 0.40062 0.93798 0.0
C3710 C 0.99546 0.40758 0.91536 0.0
C3711 C 0.00712 0.42488 0.91846 0.0
N3712 N 0.03602 0.44481 0.9255 0.0
N3713 N 0.98429 0.37898 0.92375 0.0
C3714 C 0.02221 0.42942 0.92777 0.0
C3715 C 0.99636 0.39547 0.92559 0.0
N3716 N 0.03582 0.42219 0.95042 0.0
N3717 N 0.98361 0.40219 0.90238 0.0
H3718 H 0.98441 0.36954 0.93092 0.0
H3719 H 0.97419 0.37484 0.915 0.0
H3720 H 0.98292 0.41002 0.89313 0.0
H3721 H 0.98292 0.41002 0.89313 0.0
H3722 H 0.04479 0.43463 0.95323 0.0
H3723 H 0.03709 0.41362 0.95804 0.0
H3724 H 0.04775 0.44835 0.93078 0.0
H3725 H 0.03623 0.45335 0.91663 0.0
C3726 C 0.58783 0.61586 0.92865 0.0
C3727 C 0.5891 0.62769 0.94148 0.0
C3728 C 0.56455 0.62732 0.92864 0.0
C3729 C 0.56303 0.61508 0.91593 0.0
N3730 N 0.57629 0.60265 0.90016 0.0
N3731 N 0.58097 0.64706 0.95222 0.0
C3732 C 0.57574 0.61087 0.9149 0.0
C3733 C 0.57808 0.63408 0.94108 0.0
N3734 N 0.59774 0.60892 0.93 0.0
N3735 N 0.55321 0.6326 0.92878 0.0
H3736 H 0.59059 0.65211 0.96163 0.0
H3737 H 0.57466 0.65365 0.95151 0.0
H3738 H 0.54488 0.63038 0.91847 0.0
H3739 H 0.5519 0.63921 0.93922 0.0
H3740 H 0.59588 0.5986 0.92248 0.0
H3741 H 0.607 0.61253 0.93968 0.0
H3742 H 0.58583 0.60019 0.89732 0.0
H3743 H 0.58583 0.60019 0.89732 0.0
C3744 C 0.03585 0.61832 0.9314 0.0
C3745 C 0.02051 0.6181 0.93083 0.0
C3746 C 0.01234 0.60118 0.90359 0.0
C3747 C 0.02849 0.6028 0.90292 0.0
N3748 N 0.05361 0.60873 0.91927 0.0
N3749 N 0.99507 0.61155 0.91557 0.0
C3750 C 0.03969 0.61016 0.91773 0.0
C3751 C 0.00899 0.61008 0.91676 0.0
N3752 N 0.04714 0.6271 0.94464 0.0
N3753 N 0.99968 0.59029 0.89248 0.0
H3754 H 0.99187 0.61756 0.92517 0.0
H3755 H 0.98745 0.60814 0.90438 0.0
H3756 H 0.00061 0.58235 0.88339 0.0
H3757 H 0.98733 0.58734 0.8938 0.0
H3758 H 0.05955 0.63004 0.94464 0.0
H3759 H 0.04448 0.63255 0.95529 0.0
H3760 H 0.0608 0.61165 0.93071 0.0
H3761 H 0.05757 0.60338 0.90979 0.0
C3762 C 0.37921 0.43485 0.94293 0.0
C3763 C 0.37996 0.42058 0.93737 0.0
C3764 C 0.39032 0.43304 0.90866 0.0
C3765 C 0.38761 0.4465 0.9133 0.0
N3766 N 0.38456 0.46268 0.93696 0.0
N3767 N 0.3846 0.40501 0.91477 0.0
C3768 C 0.3836 0.44816 0.93109 0.0
C3769 C 0.38522 0.41947 0.92026 0.0
N3770 N 0.37337 0.4352 0.95932 0.0
N3771 N 0.39865 0.43355 0.8937 0.0
H3772 H 0.38151 0.395 0.92302 0.0
H3773 H 0.38584 0.40236 0.90172 0.0
H3774 H 0.40384 0.44354 0.8852 0.0
H3775 H 0.40249 0.42501 0.89075 0.0
H3776 H 0.36999 0.44382 0.96344 0.0
H3777 H 0.37085 0.42613 0.96866 0.0
H3778 H 0.38406 0.4655 0.95013 0.0
H3779 H 0.3872 0.47275 0.92911 0.0
C3780 C 0.57807 0.96063 0.93601 0.0
C3781 C 0.59138 0.97621 0.94237 0.0
C3782 C 0.58237 0.99107 0.923 0.0
C3783 C 0.57078 0.97561 0.91459 0.0
N3784 N 0.55254 0.94588 0.91858 0.0
N3785 N 0.60712 0.00638 0.94142 0.0
C3786 C 0.56709 0.96037 0.9227 0.0
C3787 C 0.59371 0.99147 0.93582 0.0
N3788 N 0.57638 0.94608 0.94221 0.0
N3789 N 0.58164 0.00516 0.91979 0.0
H3790 H 0.61547 0.00733 0.95122 0.0
H3791 H 0.61071 0.01772 0.93541 0.0
H3792 H 0.5721 0.0049 0.91228 0.0
H3793 H 0.58885 0.0165 0.92656 0.0
H3794 H 0.56835 0.93431 0.93663 0.0
H3795 H 0.58388 0.94583 0.95233 0.0
H3796 H 0.54835 0.93474 0.92519 0.0
H3797 H 0.54359 0.94534 0.90988 0.0
C3798 C 0.62485 0.04362 0.09091 0.0
C3799 C 0.62023 0.02682 0.08717 0.0
C3800 C 0.60129 0.01758 0.11217 0.0
C3801 C 0.60545 0.03456 0.11572 0.0
N3802 N 0.61679 0.06239 0.10351 0.0
N3803 N 0.60046 0.99754 0.0907 0.0
C3804 C 0.61576 0.04714 0.1035 0.0
C3805 C 0.60735 0.01373 0.09672 0.0
N3806 N 0.63842 0.05638 0.083 0.0
N3807 N 0.59194 0.00496 0.12346 0.0
H3808 H 0.60442 0.99423 0.07932 0.0
H3809 H 0.58969 0.98762 0.0959 0.0
H3810 H 0.58511 0.00565 0.13384 0.0
H3811 H 0.59135 0.99343 0.1228 0.0
H3812 H 0.64352 0.06891 0.08682 0.0
H3813 H 0.64556 0.0544 0.07381 0.0
H3814 H 0.62269 0.07103 0.09363 0.0
H3815 H 0.61048 0.06598 0.11213 0.0
C3816 C 0.96207 0.58671 0.08654 0.0
C3817 C 0.9741 0.59326 0.07313 0.0
C3818 C 0.98687 0.57761 0.0843 0.0
C3819 C 0.97726 0.57418 0.09974 0.0
N3820 N 0.95071 0.56915 0.1112 0.0
N3821 N 0.99771 0.59456 0.05848 0.0
C3822 C 0.96333 0.57667 0.09956 0.0
C3823 C 0.98632 0.58842 0.07165 0.0
N3824 N 0.94945 0.59022 0.08712 0.0
N3825 N 0.99569 0.56968 0.08128 0.0
H3826 H 0.9972 0.60181 0.04841 0.0
H3827 H 0.00821 0.59327 0.05807 0.0
H3828 H 0.9949 0.56037 0.08943 0.0
H3829 H 0.00192 0.57063 0.06964 0.0
H3830 H 0.94055 0.58581 0.097 0.0
H3831 H 0.94797 0.59753 0.07781 0.0
H3832 H 0.94974 0.56037 0.12023 0.0
H3833 H 0.94974 0.56037 0.12023 0.0
C3834 C 0.43118 0.38981 0.07597 0.0
C3835 C 0.4144 0.37675 0.07765 0.0
C3836 C 0.41892 0.37589 0.10927 0.0
C3837 C 0.43633 0.38735 0.10719 0.0
N3838 N 0.45543 0.41187 0.09103 0.0
N3839 N 0.39231 0.3563 0.09542 0.0
C3840 C 0.44164 0.39621 0.09118 0.0
C3841 C 0.40821 0.36964 0.09422 0.0
N3842 N 0.43721 0.39615 0.05981 0.0
N3843 N 0.41246 0.37181 0.12574 0.0
H3844 H 0.38405 0.35136 0.0847 0.0
H3845 H 0.38773 0.3492 0.10666 0.0
H3846 H 0.41967 0.37683 0.13715 0.0
H3847 H 0.3997 0.36496 0.12817 0.0
H3848 H 0.44987 0.40412 0.05748 0.0
H3849 H 0.42975 0.3925 0.04846 0.0
H3850 H 0.45929 0.41936 0.08002 0.0
H3851 H 0.4611 0.4186 0.10254 0.0
C3852 C 0.63818 0.72726 0.41568 0.0
C3853 C 0.62937 0.71059 0.40894 0.0
C3854 C 0.60458 0.7055 0.42527 0.0
C3855 C 0.61429 0.72128 0.43406 0.0
N3856 N 0.63541 0.74981 0.42808 0.0
N3857 N 0.60403 0.68367 0.4067 0.0
C3858 C 0.62977 0.73307 0.4266 0.0
C3859 C 0.61245 0.69968 0.41344 0.0
N3860 N 0.65469 0.73749 0.412 0.0
N3861 N 0.58762 0.6968 0.4271 0.0
H3862 H 0.60906 0.67923 0.3973 0.0
H3863 H 0.59245 0.67446 0.41117 0.0
H3864 H 0.58135 0.70151 0.43436 0.0
H3865 H 0.57958 0.68598 0.41989 0.0
H3866 H 0.66208 0.74915 0.41816 0.0
H3867 H 0.66135 0.73374 0.404 0.0
H3868 H 0.64605 0.75889 0.42184 0.0
H3869 H 0.62793 0.75434 0.43296 0.0
C3870 C 0.25427 0.89282 0.41197 0.0
C3871 C 0.27693 0.90578 0.41076 0.0
C3872 C 0.28232 0.88016 0.43252 0.0
C3873 C 0.25966 0.87004 0.43738 0.0
N3874 N 0.22817 0.86313 0.42486 0.0
N3875 N 0.30741 0.90848 0.41747 0.0
C3876 C 0.24485 0.87346 0.42397 0.0
C3877 C 0.29081 0.89933 0.42023 0.0
N3878 N 0.24444 0.89773 0.40409 0.0
N3879 N 0.292 0.87479 0.43983 0.0
H3880 H 0.31246 0.91919 0.40992 0.0
H3881 H 0.31554 0.90492 0.42264 0.0
H3882 H 0.28658 0.8642 0.44761 0.0
H3883 H 0.30483 0.88097 0.4378 0.0
H3884 H 0.23146 0.8905 0.4047 0.0
H3885 H 0.24958 0.9091 0.39768 0.0
H3886 H 0.2199 0.86547 0.41787 0.0
H3887 H 0.22335 0.85242 0.43243 0.0
C3888 C 0.10763 0.36117 0.416 0.0
C3889 C 0.09815 0.37257 0.40692 0.0
C3890 C 0.12697 0.40703 0.42259 0.0
C3891 C 0.13336 0.39416 0.43536 0.0
N3892 N 0.13481 0.36453 0.43526 0.0
N3893 N 0.10153 0.40344 0.40094 0.0
C3894 C 0.1267 0.3721 0.42911 0.0
C3895 C 0.10795 0.39526 0.4095 0.0
N3896 N 0.10031 0.34445 0.41324 0.0
N3897 N 0.13474 0.42379 0.42498 0.0
H3898 H 0.09112 0.39707 0.39264 0.0
H3899 H 0.10707 0.41641 0.40213 0.0
H3900 H 0.1451 0.42984 0.43343 0.0
H3901 H 0.13065 0.43092 0.41849 0.0
H3902 H 0.10555 0.33777 0.41841 0.0
H3903 H 0.08894 0.33772 0.40648 0.0
H3904 H 0.13072 0.35203 0.43214 0.0
H3905 H 0.14566 0.37134 0.44289 0.0
C3906 C 0.0758 0.29591 0.27524 0.0
C3907 C 0.05332 0.28517 0.27857 0.0
C3908 C 0.04716 0.25465 0.25422 0.0
C3909 C 0.06927 0.26822 0.24756 0.0
N3910 N 0.10129 0.29386 0.25846 0.0
N3911 N 0.02287 0.25646 0.27299 0.0
C3912 C 0.0847 0.2868 0.26086 0.0
C3913 C 0.03922 0.26457 0.26885 0.0
N3914 N 0.08588 0.31084 0.28335 0.0
N3915 N 0.03728 0.23945 0.2466 0.0
H3916 H 0.01822 0.26182 0.28174 0.0
H3917 H 0.0146 0.24462 0.26768 0.0
H3918 H 0.04229 0.23473 0.23749 0.0
H3919 H 0.02469 0.23222 0.24969 0.0
H3920 H 0.09875 0.3172 0.28155 0.0
H3921 H 0.08099 0.3166 0.29121 0.0
H3922 H 0.10985 0.30461 0.26547 0.0
H3923 H 0.10578 0.28834 0.24969 0.0
C3924 C 0.72257 0.75197 0.26145 0.0
C3925 C 0.71106 0.7511 0.27415 0.0
C3926 C 0.71557 0.77826 0.26495 0.0
C3927 C 0.72404 0.77725 0.24992 0.0
N3928 N 0.74413 0.76948 0.2411 0.0
N3929 N 0.69645 0.76336 0.28831 0.0
C3930 C 0.73016 0.76596 0.25026 0.0
C3931 C 0.70762 0.76431 0.2761 0.0
N3932 N 0.72584 0.7392 0.25969 0.0
N3933 N 0.71675 0.79312 0.26963 0.0
H3934 H 0.69067 0.75356 0.29708 0.0
H3935 H 0.69203 0.7717 0.28886 0.0
H3936 H 0.72484 0.80424 0.26338 0.0
H3937 H 0.71188 0.79495 0.28119 0.0
H3938 H 0.73257 0.73821 0.24931 0.0
H3939 H 0.72084 0.72896 0.26796 0.0
H3940 H 0.75007 0.76253 0.24195 0.0
H3941 H 0.75098 0.78066 0.23441 0.0
C3942 C 0.23244 0.94665 0.28235 0.0
C3943 C 0.24368 0.96397 0.28561 0.0
C3944 C 0.22791 0.97076 0.26472 0.0
C3945 C 0.21898 0.95371 0.25904 0.0
N3946 N 0.20523 0.92596 0.27089 0.0
N3947 N 0.25193 0.99279 0.28065 0.0
C3948 C 0.21894 0.94167 0.27035 0.0
C3949 C 0.24126 0.97614 0.27715 0.0
N3950 N 0.23496 0.93493 0.29022 0.0
N3951 N 0.22259 0.98133 0.25951 0.0
H3952 H 0.26141 0.99714 0.2902 0.0
H3953 H 0.25201 0.00226 0.27339 0.0
H3954 H 0.21157 0.97705 0.25219 0.0
H3955 H 0.22769 0.99359 0.26424 0.0
H3956 H 0.22821 0.92224 0.28671 0.0
H3957 H 0.24463 0.93799 0.29925 0.0
H3958 H 0.204 0.91704 0.27985 0.0
H3959 H 0.19412 0.92284 0.26427 0.0
C3960 C 0.73254 0.95756 0.28061 0.0
C3961 C 0.71727 0.95639 0.27572 0.0
C3962 C 0.72045 0.94933 0.24532 0.0
C3963 C 0.73622 0.95099 0.25 0.0
N3964 N 0.75408 0.95125 0.27374 0.0
N3965 N 0.69464 0.94748 0.25488 0.0
C3966 C 0.74122 0.9533 0.26815 0.0
C3967 C 0.7106 0.95111 0.25853 0.0
N3968 N 0.73913 0.96337 0.29708 0.0
N3969 N 0.71484 0.94647 0.22825 0.0
H3970 H 0.68729 0.94925 0.26398 0.0
H3971 H 0.68813 0.94149 0.24334 0.0
H3972 H 0.71911 0.94171 0.21844 0.0
H3973 H 0.70559 0.94874 0.22369 0.0
H3974 H 0.75134 0.96689 0.30068 0.0
H3975 H 0.73281 0.96583 0.30689 0.0
H3976 H 0.75664 0.95061 0.28695 0.0
H3977 H 0.76143 0.94867 0.26555 0.0
C3978 C 0.05477 0.77851 0.28093 0.0
C3979 C 0.04947 0.76156 0.27711 0.0
C3980 C 0.05136 0.76709 0.24563 0.0
C3981 C 0.05743 0.7845 0.24939 0.0
N3982 N 0.07245 0.80665 0.27147 0.0
N3983 N 0.04751 0.74083 0.25622 0.0
C3984 C 0.06131 0.79028 0.26728 0.0
C3985 C 0.04936 0.75623 0.25959 0.0
N3986 N 0.05355 0.78347 0.29758 0.0
N3987 N 0.04666 0.7605 0.22896 0.0
H3988 H 0.04589 0.73247 0.2661 0.0
H3989 H 0.04924 0.73703 0.24384 0.0
H3990 H 0.04841 0.76741 0.21776 0.0
H3991 H 0.0399 0.74764 0.22629 0.0
H3992 H 0.05567 0.79543 0.30056 0.0
H3993 H 0.04898 0.77524 0.30802 0.0
H3994 H 0.076 0.81102 0.28437 0.0
H3995 H 0.08066 0.81501 0.26246 0.0
C3996 C 0.24093 0.28238 0.27475 0.0
C3997 C 0.24978 0.29905 0.28155 0.0
C3998 C 0.23384 0.30675 0.26202 0.0
C3999 C 0.22732 0.29108 0.25303 0.0
N4000 N 0.21787 0.26178 0.25658 0.0
N4001 N 0.25524 0.32745 0.28157 0.0
C4002 C 0.22881 0.27814 0.26109 0.0
C4003 C 0.24622 0.31129 0.27534 0.0
N4004 N 0.24455 0.27078 0.28092 0.0
N4005 N 0.22735 0.31679 0.2586 0.0
H4006 H 0.26425 0.33128 0.29156 0.0
H4007 H 0.25467 0.33734 0.27596 0.0
H4008 H 0.21704 0.31299 0.25029 0.0
H4009 H 0.23058 0.32773 0.26574 0.0
H4010 H 0.24017 0.25904 0.27502 0.0
H4011 H 0.2528 0.27326 0.29143 0.0
H4012 H 0.21735 0.25168 0.26298 0.0
H4013 H 0.20791 0.2582 0.24783 0.0
C4014 C 0.27034 0.36055 0.42253 0.0
C4015 C 0.28686 0.37237 0.41755 0.0
C4016 C 0.2871 0.39314 0.43808 0.0
C4017 C 0.27173 0.38059 0.44489 0.0
N4018 N 0.24543 0.35574 0.43753 0.0
N4019 N 0.31119 0.39996 0.41999 0.0
C4020 C 0.2623 0.36523 0.43531 0.0
C4021 C 0.29522 0.38884 0.42491 0.0
N4022 N 0.26254 0.34465 0.41549 0.0
N4023 N 0.29304 0.40918 0.44385 0.0
H4024 H 0.31721 0.39731 0.41001 0.0
H4025 H 0.31888 0.41137 0.42643 0.0
H4026 H 0.30347 0.41965 0.43887 0.0
H4027 H 0.30347 0.41965 0.43887 0.0
H4028 H 0.25147 0.33486 0.42031 0.0
H4029 H 0.26767 0.3409 0.4055 0.0
H4030 H 0.23763 0.34515 0.42986 0.0
H4031 H 0.23884 0.35966 0.44536 0.0
C4032 C 0.6462 0.90934 0.41898 0.0
C4033 C 0.63441 0.91183 0.40964 0.0
C4034 C 0.61162 0.88974 0.42645 0.0
C4035 C 0.62371 0.88899 0.4374 0.0
N4036 N 0.65069 0.89111 0.43765 0.0
N4037 N 0.60593 0.90457 0.40395 0.0
C4038 C 0.64051 0.89671 0.43175 0.0
C4039 C 0.61708 0.90193 0.41309 0.0
N4040 N 0.66292 0.91954 0.41623 0.0
N4041 N 0.59508 0.87806 0.428 0.0
H4042 H 0.60938 0.91276 0.39349 0.0
H4043 H 0.59345 0.89942 0.4073 0.0
H4044 H 0.59078 0.86812 0.43658 0.0
H4045 H 0.58576 0.87697 0.41948 0.0
H4046 H 0.67213 0.91966 0.4242 0.0
H4047 H 0.66767 0.92888 0.40686 0.0
H4048 H 0.66264 0.89528 0.43291 0.0
H4049 H 0.64632 0.88054 0.44534 0.0
C4050 C 0.08747 0.73021 0.43855 0.0
C4051 C 0.09162 0.72858 0.42113 0.0
C4052 C 0.11466 0.72551 0.43229 0.0
C4053 C 0.10803 0.72321 0.44964 0.0
N4054 N 0.08528 0.72053 0.46791 0.0
N4055 N 0.11646 0.73829 0.4043 0.0
C4056 C 0.09371 0.72487 0.45245 0.0
C4057 C 0.10749 0.73034 0.41873 0.0
N4058 N 0.07995 0.73928 0.44209 0.0
N4059 N 0.12689 0.72202 0.42816 0.0
H4060 H 0.11199 0.74349 0.39522 0.0
H4061 H 0.12887 0.7415 0.40265 0.0
H4062 H 0.13184 0.71706 0.43685 0.0
H4063 H 0.13075 0.72217 0.41529 0.0
H4064 H 0.07798 0.74207 0.45486 0.0
H4065 H 0.07819 0.74604 0.43231 0.0
H4066 H 0.07419 0.72065 0.46957 0.0
H4067 H 0.08787 0.71484 0.47815 0.0
C4068 C 0.27103 0.03396 0.74244 0.0
C4069 C 0.2875 0.04481 0.73652 0.0
C4070 C 0.28801 0.06829 0.75222 0.0
C4071 C 0.2735 0.05686 0.7614 0.0
N4072 N 0.24694 0.03143 0.75761 0.0
N4073 N 0.31224 0.07236 0.73652 0.0
C4074 C 0.26364 0.04036 0.75424 0.0
C4075 C 0.29611 0.06203 0.74148 0.0
N4076 N 0.26264 0.0175 0.73711 0.0
N4077 N 0.29297 0.0849 0.75218 0.0
H4078 H 0.3188 0.06832 0.72876 0.0
H4079 H 0.31954 0.08458 0.74143 0.0
H4080 H 0.28555 0.08939 0.75733 0.0
H4081 H 0.3028 0.09359 0.74464 0.0
H4082 H 0.25151 0.00847 0.74262 0.0
H4083 H 0.26725 0.01264 0.72771 0.0
H4084 H 0.23867 0.01989 0.75173 0.0
H4085 H 0.24098 0.03652 0.76481 0.0
C4086 C 0.96964 0.23039 0.73579 0.0
C4087 C 0.95864 0.23617 0.73099 0.0
C4088 C 0.93607 0.21302 0.74668 0.0
C4089 C 0.94795 0.20988 0.75487 0.0
N4090 N 0.97245 0.20818 0.74881 0.0
N4091 N 0.93127 0.23325 0.73225 0.0
C4092 C 0.96379 0.21637 0.74693 0.0
C4093 C 0.94175 0.22744 0.73636 0.0
N4094 N 0.98574 0.23854 0.73006 0.0
N4095 N 0.91944 0.20139 0.74727 0.0
H4096 H 0.93489 0.24385 0.72475 0.0
H4097 H 0.9194 0.22832 0.73755 0.0
H4098 H 0.91517 0.18952 0.75232 0.0
H4099 H 0.91031 0.20248 0.7404 0.0
H4100 H 0.99492 0.23626 0.73482 0.0
H4101 H 0.99018 0.24828 0.72117 0.0
H4102 H 0.98347 0.2114 0.74228 0.0
H4103 H 0.96744 0.19682 0.75527 0.0
C4104 C 0.75828 0.72384 0.74617 0.0
C4105 C 0.75185 0.70669 0.74162 0.0
C4106 C 0.77474 0.7071 0.75804 0.0
C4107 C 0.77886 0.72279 0.7658 0.0
N4108 N 0.78085 0.7492 0.7598 0.0
N4109 N 0.7532 0.68144 0.74432 0.0
C4110 C 0.77246 0.73217 0.75768 0.0
C4111 C 0.75991 0.69818 0.7478 0.0
N4112 N 0.75066 0.73205 0.73976 0.0
N4113 N 0.78592 0.70166 0.75861 0.0
H4114 H 0.74221 0.67431 0.73699 0.0
H4115 H 0.75778 0.6744 0.75011 0.0
H4116 H 0.79822 0.70942 0.76298 0.0
H4117 H 0.78398 0.69083 0.75206 0.0
H4118 H 0.75331 0.74381 0.74429 0.0
H4119 H 0.74096 0.72671 0.73046 0.0
H4120 H 0.7778 0.75703 0.75313 0.0
H4121 H 0.79212 0.75574 0.76681 0.0
C4122 C 0.73859 0.63377 0.6105 0.0
C4123 C 0.71594 0.6224 0.61279 0.0
C4124 C 0.71196 0.59141 0.59073 0.0
C4125 C 0.73423 0.60536 0.58489 0.0
N4126 N 0.76538 0.63222 0.59629 0.0
N4127 N 0.68634 0.59261 0.60728 0.0
C4128 C 0.74865 0.62469 0.59784 0.0
C4129 C 0.7028 0.60127 0.60369 0.0
N4130 N 0.74795 0.64919 0.61794 0.0
N4131 N 0.70285 0.57584 0.58368 0.0
H4132 H 0.68095 0.59775 0.61532 0.0
H4133 H 0.67867 0.58047 0.60234 0.0
H4134 H 0.70857 0.57111 0.57551 0.0
H4135 H 0.69017 0.56832 0.58626 0.0
H4136 H 0.76089 0.65586 0.61668 0.0
H4137 H 0.74244 0.65507 0.62452 0.0
H4138 H 0.77338 0.64337 0.60307 0.0
H4139 H 0.77054 0.62669 0.58846 0.0
C4140 C 0.3894 0.09251 0.5991 0.0
C4141 C 0.37449 0.08904 0.6077 0.0
C4142 C 0.3756 0.11325 0.59395 0.0
C4143 C 0.3881 0.11431 0.58248 0.0
N4144 N 0.41295 0.11229 0.58204 0.0
N4145 N 0.35292 0.09578 0.6131 0.0
C4146 C 0.39689 0.10609 0.58736 0.0
C4147 C 0.36752 0.09941 0.60519 0.0
N4148 N 0.39617 0.0826 0.60184 0.0
N4149 N 0.37282 0.12634 0.59556 0.0
H4150 H 0.34662 0.0858 0.62156 0.0
H4151 H 0.3464 0.10188 0.6101 0.0
H4152 H 0.3806 0.13783 0.58978 0.0
H4153 H 0.36472 0.12675 0.6047 0.0
H4154 H 0.4058 0.08321 0.59434 0.0
H4155 H 0.39147 0.07302 0.61093 0.0
H4156 H 0.4206 0.1078 0.58631 0.0
H4157 H 0.41931 0.12335 0.57506 0.0
C4158 C 0.90191 0.26547 0.6005 0.0
C4159 C 0.91189 0.2827 0.60513 0.0
C4160 C 0.89447 0.28901 0.5861 0.0
C4161 C 0.8866 0.27236 0.57917 0.0
N4162 N 0.87521 0.24397 0.58881 0.0
N4163 N 0.91752 0.31107 0.60314 0.0
C4164 C 0.88802 0.26021 0.58896 0.0
C4165 C 0.90801 0.29453 0.5983 0.0
N4166 N 0.90593 0.25417 0.60668 0.0
N4167 N 0.88802 0.29897 0.58219 0.0
H4168 H 0.92702 0.31546 0.61265 0.0
H4169 H 0.91664 0.32057 0.59701 0.0
H4170 H 0.87705 0.29456 0.57476 0.0
H4171 H 0.89221 0.31073 0.58795 0.0
H4172 H 0.90011 0.24178 0.6021 0.0
H4173 H 0.91596 0.25747 0.61528 0.0
H4174 H 0.87508 0.23483 0.59672 0.0
H4175 H 0.86364 0.24037 0.58299 0.0
C4176 C 0.37006 0.29595 0.58988 0.0
C4177 C 0.36893 0.28833 0.6062 0.0
C4178 C 0.37437 0.26782 0.59165 0.0
C4179 C 0.3782 0.27706 0.57587 0.0
N4180 N 0.371 0.29402 0.55824 0.0
N4181 N 0.3709 0.26762 0.62315 0.0
C4182 C 0.37342 0.28939 0.57444 0.0
C4183 C 0.37138 0.27447 0.60724 0.0
N4184 N 0.36872 0.30997 0.58926 0.0
N4185 N 0.3712 0.25174 0.59125 0.0
H4186 H 0.36791 0.27154 0.63479 0.0
H4187 H 0.37469 0.2589 0.62499 0.0
H4188 H 0.3694 0.24511 0.57952 0.0
H4189 H 0.36729 0.24401 0.60209 0.0
H4190 H 0.37149 0.31733 0.57819 0.0
H4191 H 0.36623 0.31514 0.60028 0.0
H4192 H 0.36588 0.30161 0.55629 0.0
H4193 H 0.37227 0.28876 0.54658 0.0
C4194 C 0.71532 0.10121 0.59433 0.0
C4195 C 0.71905 0.08868 0.58951 0.0
C4196 C 0.72535 0.09936 0.55959 0.0
C4197 C 0.72162 0.11217 0.56433 0.0
N4198 N 0.71872 0.12819 0.58839 0.0
N4199 N 0.73183 0.07844 0.56942 0.0
C4200 C 0.71852 0.11409 0.58239 0.0
C4201 C 0.72536 0.08858 0.57271 0.0
N4202 N 0.70789 0.1004 0.61005 0.0
N4203 N 0.72854 0.09699 0.54259 0.0
H4204 H 0.73195 0.07033 0.57871 0.0
H4205 H 0.73849 0.07917 0.55818 0.0
H4206 H 0.73174 0.10565 0.53271 0.0
H4207 H 0.72794 0.08601 0.53813 0.0
H4208 H 0.70284 0.10788 0.61327 0.0
H4209 H 0.70545 0.09129 0.61932 0.0
H4210 H 0.7186 0.13089 0.60171 0.0
H4211 H 0.72056 0.13804 0.58057 0.0
C4212 C 0.90566 0.63154 0.58771 0.0
C4213 C 0.90413 0.62356 0.60388 0.0
C4214 C 0.87815 0.59887 0.59337 0.0
C4215 C 0.88071 0.60593 0.5763 0.0
N4216 N 0.89345 0.63151 0.55958 0.0
N4217 N 0.89005 0.59929 0.62193 0.0
C4218 C 0.89347 0.62302 0.57412 0.0
C4219 C 0.89053 0.60727 0.60677 0.0
N4220 N 0.91921 0.64711 0.58515 0.0
N4221 N 0.8637 0.58441 0.5971 0.0
H4222 H 0.89868 0.60501 0.63224 0.0
H4223 H 0.88194 0.58656 0.6238 0.0
H4224 H 0.8542 0.57737 0.58803 0.0
H4225 H 0.86028 0.58005 0.6098 0.0
H4226 H 0.92268 0.65266 0.57295 0.0
H4227 H 0.92773 0.65422 0.59516 0.0
H4228 H 0.90133 0.64432 0.55811 0.0
H4229 H 0.88433 0.62655 0.54971 0.0
C4230 C 0.93774 0.71234 0.74288 0.0
C4231 C 0.95017 0.70812 0.74614 0.0
C4232 C 0.95236 0.71769 0.77665 0.0
C4233 C 0.94281 0.72543 0.77257 0.0
N4234 N 0.9248 0.7282 0.75103 0.0
N4235 N 0.97133 0.70918 0.76549 0.0
C4236 C 0.93501 0.72221 0.75549 0.0
C4237 C 0.95799 0.71139 0.76286 0.0
N4238 N 0.92789 0.70619 0.72807 0.0
N4239 N 0.95597 0.71611 0.79369 0.0
H4240 H 0.97612 0.70494 0.75563 0.0
H4241 H 0.97868 0.71322 0.77692 0.0
H4242 H 0.95113 0.71917 0.80446 0.0
H4243 H 0.96185 0.70949 0.79717 0.0
H4244 H 0.91736 0.70722 0.72586 0.0
H4245 H 0.92928 0.69868 0.71867 0.0
H4246 H 0.92246 0.72984 0.73803 0.0
H4247 H 0.91739 0.72992 0.75997 0.0
C4248 C 0.29803 0.24684 0.76462 0.0
C4249 C 0.29259 0.24622 0.74709 0.0
C4250 C 0.26794 0.21854 0.75176 0.0
C4251 C 0.27253 0.21979 0.76995 0.0
N4252 N 0.29541 0.23209 0.79134 0.0
N4253 N 0.27234 0.23231 0.72376 0.0
C4254 C 0.28859 0.23304 0.77572 0.0
C4255 C 0.27768 0.23216 0.74053 0.0
N4256 N 0.31188 0.26103 0.77095 0.0
N4257 N 0.25466 0.20413 0.74495 0.0
H4258 H 0.27946 0.24168 0.71489 0.0
H4259 H 0.26045 0.22382 0.71888 0.0
H4260 H 0.24677 0.1938 0.75229 0.0
H4261 H 0.25213 0.20167 0.73156 0.0
H4262 H 0.31515 0.26338 0.78422 0.0
H4263 H 0.31952 0.27113 0.76307 0.0
H4264 H 0.30769 0.24047 0.79525 0.0
H4265 H 0.28986 0.22188 0.79956 0.0
C4266 C 0.75153 0.04913 0.74943 0.0
C4267 C 0.75883 0.04885 0.73325 0.0
C4268 C 0.7861 0.06129 0.74791 0.0
C4269 C 0.77833 0.05768 0.76466 0.0
N4270 N 0.75283 0.04883 0.78105 0.0
N4271 N 0.78295 0.05332 0.71712 0.0
C4272 C 0.76084 0.05206 0.76533 0.0
C4273 C 0.77606 0.05445 0.73251 0.0
N4274 N 0.73576 0.04681 0.74959 0.0
N4275 N 0.80269 0.07267 0.74634 0.0
H4276 H 0.77606 0.04869 0.70543 0.0
H4277 H 0.79517 0.05568 0.71642 0.0
H4278 H 0.80968 0.08102 0.75645 0.0
H4279 H 0.80859 0.07616 0.73426 0.0
H4280 H 0.73048 0.04883 0.76071 0.0
H4281 H 0.72844 0.04431 0.73825 0.0
H4282 H 0.73986 0.04225 0.78206 0.0
H4283 H 0.75884 0.0519 0.79325 0.0
C4284 C 0.07124 0.32665 0.05899 0.0
C4285 C 0.06245 0.32039 0.0428 0.0
C4286 C 0.07084 0.29923 0.04137 0.0
C4287 C 0.07646 0.3032 0.05914 0.0
N4288 N 0.0899 0.32565 0.08072 0.0
N4289 N 0.05418 0.30123 0.01796 0.0
C4290 C 0.07913 0.3185 0.06673 0.0
C4291 C 0.06267 0.30706 0.0336 0.0
N4292 N 0.07132 0.33987 0.06733 0.0
N4293 N 0.07397 0.28859 0.03172 0.0
H4294 H 0.04858 0.30703 0.01156 0.0
H4295 H 0.05189 0.29013 0.0118 0.0
H4296 H 0.08089 0.2835 0.03664 0.0
H4297 H 0.07149 0.28635 0.01829 0.0
H4298 H 0.07552 0.34369 0.0802 0.0
H4299 H 0.06643 0.34665 0.06154 0.0
H4300 H 0.09341 0.3374 0.08607 0.0
H4301 H 0.09698 0.32074 0.08567 0.0
C4302 C 0.67427 0.73823 0.08449 0.0
C4303 C 0.66429 0.73172 0.06291 0.0
C4304 C 0.6514 0.75727 0.06487 0.0
C4305 C 0.66563 0.7665 0.08432 0.0
N4306 N 0.68082 0.76015 0.11289 0.0
N4307 N 0.64413 0.73427 0.03804 0.0
C4308 C 0.6738 0.75493 0.09676 0.0
C4309 C 0.65245 0.74052 0.05346 0.0
N4310 N 0.68208 0.73062 0.09135 0.0
N4311 N 0.64297 0.76438 0.05837 0.0
H4312 H 0.64433 0.72439 0.03151 0.0
H4313 H 0.63724 0.73909 0.03239 0.0
H4314 H 0.64362 0.77468 0.06491 0.0
H4315 H 0.63572 0.75975 0.04692 0.0
H4316 H 0.6879 0.73416 0.10368 0.0
H4317 H 0.68266 0.72117 0.08432 0.0
H4318 H 0.68605 0.75409 0.11948 0.0
H4319 H 0.68091 0.77035 0.11903 0.0
C4320 C 0.25004 0.95793 0.05243 0.0
C4321 C 0.25879 0.94901 0.05231 0.0
C4322 C 0.23909 0.92934 0.07328 0.0
C4323 C 0.22827 0.93573 0.07015 0.0
N4324 N 0.22756 0.96093 0.0646 0.0
N4325 N 0.26151 0.92587 0.06219 0.0
C4326 C 0.235 0.95156 0.06206 0.0
C4327 C 0.25335 0.93468 0.06271 0.0
N4328 N 0.25592 0.97222 0.04297 0.0
N4329 N 0.23693 0.91983 0.08763 0.0
H4330 H 0.27213 0.92945 0.0547 0.0
H4331 H 0.25691 0.9143 0.06809 0.0
H4332 H 0.22866 0.91849 0.09755 0.0
H4333 H 0.24516 0.9158 0.09117 0.0
H4334 H 0.24911 0.97811 0.04051 0.0
H4335 H 0.26746 0.97794 0.03681 0.0
H4336 H 0.23251 0.97316 0.06044 0.0
H4337 H 0.21717 0.95709 0.07251 0.0
C4338 C 0.31812 0.07003 0.95678 0.0
C4339 C 0.31839 0.06733 0.97502 0.0
C4340 C 0.30827 0.08663 0.98119 0.0
C4341 C 0.31027 0.09114 0.96318 0.0
N4342 N 0.30615 0.07878 0.93408 0.0
N4343 N 0.31177 0.07151 0.00463 0.0
C4344 C 0.31211 0.0805 0.95088 0.0
C4345 C 0.31274 0.07504 0.98717 0.0
N4346 N 0.32367 0.06268 0.94506 0.0
N4347 N 0.30153 0.09271 0.9929 0.0
H4348 H 0.31504 0.06315 0.00977 0.0
H4349 H 0.30783 0.07711 0.01396 0.0
H4350 H 0.29667 0.1003 0.98953 0.0
H4351 H 0.29667 0.1003 0.98953 0.0
H4352 H 0.32547 0.06575 0.93183 0.0
H4353 H 0.32763 0.05443 0.94879 0.0
H4354 H 0.30614 0.07032 0.9249 0.0
H4355 H 0.29865 0.08363 0.93034 0.0
C4356 C 0.94215 0.23818 0.98492 0.0
C4357 C 0.93336 0.25148 0.98097 0.0
C4358 C 0.90146 0.22217 0.962 0.0
C4359 C 0.91324 0.21077 0.96197 0.0
N4360 N 0.93743 0.20629 0.97931 0.0
N4361 N 0.90677 0.25381 0.96858 0.0
C4362 C 0.93138 0.21665 0.97692 0.0
C4363 C 0.91307 0.24359 0.9704 0.0
N4364 N 0.95677 0.24442 0.99389 0.0
N4365 N 0.88627 0.21557 0.95422 0.0
H4366 H 0.91344 0.26619 0.97321 0.0
H4367 H 0.89523 0.24962 0.96242 0.0
H4368 H 0.88045 0.20343 0.94888 0.0
H4369 H 0.88008 0.22231 0.95357 0.0
H4370 H 0.9621 0.23707 0.99626 0.0
H4371 H 0.96296 0.25673 0.99876 0.0
H4372 H 0.94811 0.20994 0.98697 0.0
H4373 H 0.93128 0.19433 0.97351 0.0
C4374 C 0.74691 0.68305 0.95453 0.0
C4375 C 0.74115 0.69065 0.9667 0.0
C4376 C 0.76652 0.71779 0.96255 0.0
C4377 C 0.77349 0.70956 0.95297 0.0
N4378 N 0.76588 0.68781 0.93084 0.0
N4379 N 0.74501 0.71532 0.98226 0.0
C4380 C 0.76246 0.69309 0.94627 0.0
C4381 C 0.75074 0.7081 0.97054 0.0
N4382 N 0.73772 0.6662 0.95113 0.0
N4383 N 0.77439 0.73488 0.96281 0.0
H4384 H 0.73322 0.70883 0.98787 0.0
H4385 H 0.75234 0.72747 0.9873 0.0
H4386 H 0.78526 0.74227 0.95581 0.0
H4387 H 0.76924 0.74164 0.96814 0.0
H4388 H 0.74225 0.65974 0.94389 0.0
H4389 H 0.72607 0.65849 0.95666 0.0
H4390 H 0.75771 0.67634 0.92471 0.0
H4391 H 0.77551 0.69599 0.92275 0.0
C4392 C 0.92645 0.68885 0.96876 0.0
C4393 C 0.94149 0.69001 0.9632 0.0
C4394 C 0.94972 0.71653 0.94889 0.0
C4395 C 0.93501 0.71595 0.95542 0.0
N4396 N 0.90632 0.69764 0.96418 0.0
N4397 N 0.96459 0.70165 0.94341 0.0
C4398 C 0.92237 0.70087 0.96303 0.0
C4399 C 0.95212 0.70273 0.95164 0.0
N4400 N 0.91626 0.6765 0.9799 0.0
N4401 N 0.96183 0.73045 0.94081 0.0
H4402 H 0.96677 0.69182 0.94538 0.0
H4403 H 0.97169 0.7095 0.93338 0.0
H4404 H 0.96054 0.74051 0.93722 0.0
H4405 H 0.97374 0.73251 0.93838 0.0
H4406 H 0.90626 0.67633 0.98624 0.0
H4407 H 0.91841 0.66693 0.98355 0.0
H4408 H 0.89649 0.68627 0.96839 0.0
H4409 H 0.90222 0.70516 0.95865 0.0
C4410 C 0.31918 0.25081 0.96115 0.0
C4411 C 0.31601 0.26397 0.958 0.0
C4412 C 0.28955 0.24433 0.94305 0.0
C4413 C 0.29138 0.23075 0.94877 0.0
N4414 N 0.31107 0.22179 0.95597 0.0
N4415 N 0.29846 0.27379 0.94618 0.0
C4416 C 0.30718 0.23418 0.95561 0.0
C4417 C 0.30147 0.26094 0.94862 0.0
N4418 N 0.33333 0.25414 0.97021 0.0
N4419 N 0.2767 0.2415 0.93196 0.0
H4420 H 0.30709 0.28622 0.9495 0.0
H4421 H 0.28702 0.27209 0.94189 0.0
H4422 H 0.26756 0.22969 0.92744 0.0
H4423 H 0.2759 0.251 0.92574 0.0
H4424 H 0.33538 0.24493 0.97525 0.0
H4425 H 0.3428 0.26629 0.97354 0.0
H4426 H 0.32284 0.22382 0.95936 0.0
H4427 H 0.30331 0.20978 0.95079 0.0
C4428 C 0.74978 0.0546 0.97065 0.0
C4429 C 0.73734 0.05914 0.96917 0.0
C4430 C 0.75514 0.08177 0.94951 0.0
C4431 C 0.7686 0.07908 0.95331 0.0
N4432 N 0.77616 0.05841 0.96057 0.0
N4433 N 0.72826 0.07756 0.95825 0.0
C4434 C 0.76521 0.06414 0.96188 0.0
C4435 C 0.73997 0.07277 0.95876 0.0
N4436 N 0.747 0.04145 0.98089 0.0
N4437 N 0.75637 0.09193 0.93608 0.0
H4438 H 0.71687 0.07117 0.96468 0.0
H4439 H 0.73038 0.08865 0.95265 0.0
H4440 H 0.76642 0.09704 0.92756 0.0
H4441 H 0.74648 0.09332 0.93176 0.0
H4442 H 0.75628 0.0389 0.98458 0.0
H4443 H 0.73553 0.03354 0.98664 0.0
H4444 H 0.77371 0.04683 0.96501 0.0
H4445 H 0.78702 0.06431 0.95328 0.0
C4446 C 0.68097 0.92517 0.04823 0.0
C4447 C 0.6879 0.94262 0.05065 0.0
C4448 C 0.71347 0.94516 0.06314 0.0
C4449 C 0.7065 0.92744 0.06088 0.0
N4450 N 0.68069 0.9005 0.0582 0.0
N4451 N 0.70812 0.96819 0.06543 0.0
C4452 C 0.68934 0.91738 0.05561 0.0
C4453 C 0.70329 0.95225 0.05979 0.0
N4454 N 0.66669 0.91605 0.03839 0.0
N4455 N 0.72992 0.9555 0.06769 0.0
H4456 H 0.70092 0.97374 0.0632 0.0
H4457 H 0.71832 0.97521 0.07384 0.0
H4458 H 0.73812 0.95146 0.07115 0.0
H4459 H 0.73591 0.96849 0.06689 0.0
H4460 H 0.66222 0.90364 0.03448 0.0
H4461 H 0.66006 0.92124 0.0329 0.0
H4462 H 0.66788 0.89307 0.0558 0.0
H4463 H 0.68546 0.89418 0.06505 0.0
C4464 C 0.04205 0.74141 0.06609 0.0
C4465 C 0.04353 0.74147 0.04756 0.0
C4466 C 0.05408 0.77163 0.04739 0.0
C4467 C 0.05413 0.77212 0.06614 0.0
N4468 N 0.04362 0.75648 0.09299 0.0
N4469 N 0.05395 0.75673 0.02091 0.0
C4470 C 0.04695 0.75672 0.07546 0.0
C4471 C 0.05042 0.75662 0.03834 0.0
N4472 N 0.03612 0.72666 0.07475 0.0
N4473 N 0.05623 0.78507 0.03805 0.0
H4474 H 0.05149 0.74596 0.01383 0.0
H4475 H 0.06083 0.7677 0.01394 0.0
H4476 H 0.05746 0.79593 0.04376 0.0
H4477 H 0.05459 0.78468 0.02447 0.0
H4478 H 0.03694 0.72583 0.08829 0.0
H4479 H 0.03118 0.71505 0.06835 0.0
H4480 H 0.03677 0.74562 0.10007 0.0
H4481 H 0.0462 0.76698 0.10056 0.0
C4482 C 0.25349 0.31892 0.03344 0.0
C4483 C 0.26555 0.31589 0.04124 0.0
C4484 C 0.24401 0.29378 0.05909 0.0
C4485 C 0.23191 0.29753 0.05229 0.0
N4486 N 0.22432 0.30982 0.02863 0.0
N4487 N 0.27331 0.30285 0.06349 0.0
C4488 C 0.23643 0.3091 0.03827 0.0
C4489 C 0.26108 0.30399 0.05461 0.0
N4490 N 0.25844 0.33151 0.02164 0.0
N4491 N 0.23917 0.27975 0.06872 0.0
H4492 H 0.28595 0.31005 0.0605 0.0
H4493 H 0.27117 0.29601 0.07488 0.0
H4494 H 0.22682 0.27105 0.07147 0.0
H4495 H 0.24721 0.27549 0.07226 0.0
H4496 H 0.25087 0.33605 0.01728 0.0
H4497 H 0.27065 0.33844 0.01716 0.0
H4498 H 0.22663 0.3165 0.01712 0.0
H4499 H 0.21157 0.30237 0.03073 0.0
C4500 C 0.75235 0.67049 0.37859 0.0
C4501 C 0.73073 0.65625 0.37174 0.0
C4502 C 0.73534 0.62483 0.3734 0.0
C4503 C 0.75549 0.63914 0.38492 0.0
N4504 N 0.78217 0.67234 0.38863 0.0
N4505 N 0.70694 0.62405 0.36157 0.0
C4506 C 0.76602 0.66239 0.38373 0.0
C4507 C 0.72247 0.63385 0.36843 0.0
N4508 N 0.75814 0.68709 0.38022 0.0
N4509 N 0.72987 0.60835 0.37124 0.0
H4510 H 0.69962 0.62909 0.35783 0.0
H4511 H 0.70205 0.61124 0.35948 0.0
H4512 H 0.73743 0.60364 0.37525 0.0
H4513 H 0.71821 0.60016 0.36556 0.0
H4514 H 0.77043 0.69539 0.38423 0.0
H4515 H 0.75034 0.69194 0.37797 0.0
H4516 H 0.78783 0.68534 0.38869 0.0
H4517 H 0.78928 0.667 0.39227 0.0
C4518 C 0.34048 0.06969 0.41811 0.0
C4519 C 0.35294 0.06328 0.40538 0.0
C4520 C 0.3867 0.09494 0.41828 0.0
C4521 C 0.37333 0.10303 0.42683 0.0
N4522 N 0.34202 0.09439 0.44078 0.0
N4523 N 0.38445 0.06922 0.39768 0.0
C4524 C 0.35057 0.0892 0.4308 0.0
C4525 C 0.37572 0.07527 0.40597 0.0
N4526 N 0.32364 0.06012 0.4178 0.0
N4527 N 0.40351 0.10436 0.4191 0.0
H4528 H 0.37838 0.05762 0.39113 0.0
H4529 H 0.39747 0.07586 0.39791 0.0
H4530 H 0.40921 0.11605 0.4255 0.0
H4531 H 0.41102 0.10018 0.41353 0.0
H4532 H 0.31633 0.06367 0.42489 0.0
H4533 H 0.31755 0.04919 0.4101 0.0
H4534 H 0.32917 0.0869 0.44237 0.0
H4535 H 0.34835 0.10602 0.44728 0.0
C4536 C 0.92793 0.25564 0.37346 0.0
C4537 C 0.93828 0.27177 0.38117 0.0
C4538 C 0.91619 0.26695 0.40179 0.0
C4539 C 0.90491 0.25222 0.39204 0.0
N4540 N 0.90247 0.22873 0.37521 0.0
N4541 N 0.94259 0.29318 0.40249 0.0
C4542 C 0.91148 0.24534 0.37981 0.0
C4543 C 0.93259 0.27745 0.39547 0.0
N4544 N 0.9336 0.25044 0.3596 0.0
N4545 N 0.91161 0.27023 0.41771 0.0
H4546 H 0.95485 0.30108 0.39854 0.0
H4547 H 0.93838 0.29884 0.41138 0.0
H4548 H 0.9004 0.26182 0.42364 0.0
H4549 H 0.91972 0.28002 0.42612 0.0
H4550 H 0.92596 0.23985 0.35186 0.0
H4551 H 0.94582 0.2573 0.3551 0.0
H4552 H 0.90716 0.22263 0.36762 0.0
H4553 H 0.891 0.22048 0.3807 0.0
C4554 C 0.02138 0.41444 0.3067 0.0
C4555 C 0.01659 0.3992 0.29756 0.0
C4556 C 0.00708 0.40867 0.27255 0.0
C4557 C 0.0149 0.42508 0.28024 0.0
N4558 N 0.02325 0.44101 0.30794 0.0
N4559 N 0.00557 0.3818 0.2714 0.0
C4560 C 0.02017 0.42725 0.29818 0.0
C4561 C 0.00949 0.39624 0.28043 0.0
N4562 N 0.02705 0.4168 0.3237 0.0
N4563 N 0.99645 0.40461 0.25845 0.0
H4564 H 0.0069 0.37225 0.2768 0.0
H4565 H 0.00227 0.37987 0.25811 0.0
H4566 H 0.99309 0.41285 0.25331 0.0
H4567 H 0.98928 0.39246 0.25333 0.0
H4568 H 0.03088 0.42796 0.33076 0.0
H4569 H 0.02791 0.40766 0.3307 0.0
H4570 H 0.02101 0.45033 0.3036 0.0
H4571 H 0.02101 0.45033 0.3036 0.0
C4572 C 0.57978 0.59386 0.29939 0.0
C4573 C 0.60099 0.60304 0.29137 0.0
C4574 C 0.58917 0.57907 0.25797 0.0
C4575 C 0.56879 0.56728 0.26928 0.0
N4576 N 0.54667 0.56918 0.29292 0.0
N4577 N 0.62149 0.60418 0.26479 0.0
C4578 C 0.56261 0.57655 0.28748 0.0
C4579 C 0.60566 0.59631 0.27067 0.0
N4580 N 0.57679 0.60029 0.31403 0.0
N4581 N 0.59185 0.57368 0.24244 0.0
H4582 H 0.63116 0.6139 0.2721 0.0
H4583 H 0.62443 0.60052 0.25297 0.0
H4584 H 0.58209 0.56319 0.23606 0.0
H4585 H 0.60349 0.57989 0.23653 0.0
H4586 H 0.56473 0.59527 0.31883 0.0
H4587 H 0.58647 0.61051 0.32079 0.0
H4588 H 0.54336 0.57386 0.30372 0.0
H4589 H 0.53739 0.55859 0.28618 0.0
C4590 C 0.38306 0.96766 0.29416 0.0
C4591 C 0.38415 0.98265 0.3005 0.0
C4592 C 0.41227 0.99879 0.28863 0.0
C4593 C 0.41257 0.98375 0.28575 0.0
N4594 N 0.39555 0.95353 0.28048 0.0
N4595 N 0.40027 0.01265 0.30494 0.0
C4596 C 0.39727 0.96816 0.28682 0.0
C4597 C 0.39882 0.9983 0.2979 0.0
N4598 N 0.3684 0.95274 0.2952 0.0
N4599 N 0.42427 0.0134 0.28156 0.0
H4600 H 0.39073 0.0129 0.31187 0.0
H4601 H 0.41145 0.0241 0.30518 0.0
H4602 H 0.43311 0.01382 0.2729 0.0
H4603 H 0.42392 0.02446 0.28211 0.0
H4604 H 0.36719 0.9414 0.29093 0.0
H4605 H 0.35746 0.95175 0.30006 0.0
H4606 H 0.40478 0.95255 0.27376 0.0
H4607 H 0.40478 0.95255 0.27376 0.0
C4608 C 0.60091 0.00498 0.30375 0.0
C4609 C 0.60739 0.99675 0.29359 0.0
C4610 C 0.59582 0.00175 0.26705 0.0
C4611 C 0.59323 0.01366 0.27652 0.0
N4612 N 0.59304 0.02607 0.30499 0.0
N4613 N 0.61188 0.98782 0.26529 0.0
C4614 C 0.59538 0.01491 0.29525 0.0
C4615 C 0.60494 0.99511 0.27517 0.0
N4616 N 0.6001 0.00331 0.32159 0.0
N4617 N 0.5892 0.99629 0.25054 0.0
H4618 H 0.61837 0.98247 0.27076 0.0
H4619 H 0.61226 0.98821 0.25162 0.0
H4620 H 0.58117 0.99948 0.24445 0.0
H4621 H 0.58973 0.98668 0.24385 0.0
H4622 H 0.59391 0.00754 0.32965 0.0
H4623 H 0.60413 0.99614 0.32811 0.0
H4624 H 0.59687 0.02909 0.31808 0.0
H4625 H 0.58828 0.03322 0.30007 0.0
C4626 C 0.0098 0.60204 0.3042 0.0
C4627 C 0.00235 0.61199 0.30205 0.0
C4628 C 0.97994 0.58979 0.28387 0.0
C4629 C 0.98602 0.57889 0.28819 0.0
N4630 N 0.01077 0.57746 0.29487 0.0
N4631 N 0.98023 0.61565 0.29043 0.0
C4632 C 0.00218 0.58583 0.29613 0.0
C4633 C 0.98753 0.60605 0.29182 0.0
N4634 N 0.02385 0.60787 0.31451 0.0
N4635 N 0.96757 0.58504 0.27145 0.0
H4636 H 0.98566 0.62786 0.29551 0.0
H4637 H 0.96825 0.61118 0.28531 0.0
H4638 H 0.96212 0.57364 0.2646 0.0
H4639 H 0.96391 0.5931 0.2664 0.0
H4640 H 0.02863 0.60043 0.3186 0.0
H4641 H 0.03019 0.61996 0.32 0.0
H4642 H 0.02313 0.58249 0.29905 0.0
H4643 H 0.00646 0.56641 0.28754 0.0
C4644 C 0.41216 0.38494 0.30445 0.0
C4645 C 0.40074 0.39079 0.3028 0.0
C4646 C 0.42024 0.41329 0.28398 0.0
C4647 C 0.43283 0.4094 0.2882 0.0
N4648 N 0.43848 0.38749 0.29597 0.0
N4649 N 0.39397 0.41099 0.29197 0.0
C4650 C 0.42813 0.39398 0.29653 0.0
C4651 C 0.40471 0.40498 0.29268 0.0
N4652 N 0.4079 0.37106 0.31413 0.0
N4653 N 0.42265 0.42403 0.27075 0.0
H4654 H 0.38233 0.40512 0.29795 0.0
H4655 H 0.39714 0.4225 0.28665 0.0
H4656 H 0.43296 0.42873 0.26261 0.0
H4657 H 0.41341 0.4263 0.26613 0.0
H4658 H 0.41629 0.36736 0.31802 0.0
H4659 H 0.39598 0.36351 0.31913 0.0
H4660 H 0.43519 0.37561 0.30023 0.0
H4661 H 0.44989 0.39321 0.28965 0.0
C4662 C 0.36674 0.28731 0.39512 0.0
C4663 C 0.35165 0.27903 0.38526 0.0
C4664 C 0.35313 0.25343 0.38504 0.0
C4665 C 0.37015 0.26276 0.39099 0.0
N4666 N 0.39338 0.28983 0.40117 0.0
N4667 N 0.33102 0.25447 0.36919 0.0
C4668 C 0.37698 0.28 0.39615 0.0
C4669 C 0.34491 0.26212 0.37987 0.0
N4670 N 0.37129 0.3022 0.40353 0.0
N4671 N 0.34448 0.23631 0.38477 0.0
H4672 H 0.32453 0.26033 0.36515 0.0
H4673 H 0.32681 0.24279 0.36317 0.0
H4674 H 0.34911 0.22907 0.3898 0.0
H4675 H 0.33173 0.22924 0.38185 0.0
H4676 H 0.38127 0.30799 0.41246 0.0
H4677 H 0.36401 0.30784 0.403 0.0
H4678 H 0.39921 0.30281 0.40256 0.0
H4679 H 0.40174 0.28562 0.40274 0.0
C4680 C 0.73527 0.08045 0.37409 0.0
C4681 C 0.7188 0.06884 0.37912 0.0
C4682 C 0.7154 0.09158 0.3912 0.0
C4683 C 0.73184 0.1035 0.38546 0.0
N4684 N 0.75936 0.10798 0.3787 0.0
N4685 N 0.69515 0.06248 0.39699 0.0
C4686 C 0.74242 0.09756 0.37921 0.0
C4687 C 0.70956 0.07416 0.38926 0.0
N4688 N 0.74395 0.07525 0.36392 0.0
N4689 N 0.70497 0.09669 0.39771 0.0
H4690 H 0.69044 0.04963 0.39551 0.0
H4691 H 0.68874 0.06546 0.40617 0.0
H4692 H 0.70854 0.10907 0.40059 0.0
H4693 H 0.69223 0.08861 0.39944 0.0
H4694 H 0.75514 0.08351 0.3579 0.0
H4695 H 0.73941 0.06269 0.36053 0.0
H4696 H 0.76758 0.1038 0.37562 0.0
H4697 H 0.76554 0.12022 0.38367 0.0
C4698 C 0.93255 0.64763 0.39688 0.0
C4699 C 0.93905 0.66258 0.38729 0.0
C4700 C 0.91338 0.6631 0.39252 0.0
C4701 C 0.90531 0.64618 0.39809 0.0
N4702 N 0.90815 0.62236 0.40618 0.0
N4703 N 0.93488 0.68379 0.37425 0.0
C4704 C 0.91519 0.63849 0.40066 0.0
C4705 C 0.9293 0.67017 0.3847 0.0
N4706 N 0.94304 0.64234 0.40269 0.0
N4707 N 0.90634 0.67277 0.39539 0.0
H4708 H 0.94641 0.68931 0.36807 0.0
H4709 H 0.92737 0.68861 0.37047 0.0
H4710 H 0.89576 0.66897 0.40295 0.0
H4711 H 0.91243 0.68549 0.3926 0.0
H4712 H 0.93942 0.63254 0.41135 0.0
H4713 H 0.95585 0.64886 0.40031 0.0
H4714 H 0.91429 0.61557 0.40565 0.0
H4715 H 0.89593 0.61525 0.41042 0.0
C4716 C 0.40848 0.01736 0.74597 0.0
C4717 C 0.3945 0.00408 0.72837 0.0
C4718 C 0.40299 0.97577 0.73515 0.0
C4719 C 0.42034 0.99162 0.74936 0.0
N4720 N 0.4312 0.01991 0.77167 0.0
N4721 N 0.3796 0.97342 0.71124 0.0
C4722 C 0.42078 0.0107 0.75834 0.0
C4723 C 0.39119 0.98334 0.72344 0.0
N4724 N 0.40971 0.03223 0.74976 0.0
N4725 N 0.4011 0.96053 0.73197 0.0
H4726 H 0.37243 0.97747 0.70468 0.0
H4727 H 0.37744 0.96146 0.70823 0.0
H4728 H 0.40891 0.95715 0.73835 0.0
H4729 H 0.3919 0.95194 0.72331 0.0
H4730 H 0.41769 0.04009 0.75975 0.0
H4731 H 0.40281 0.03623 0.74261 0.0
H4732 H 0.43194 0.03098 0.77611 0.0
H4733 H 0.43857 0.01589 0.77785 0.0
C4734 C 0.98187 0.38387 0.74962 0.0
C4735 C 0.99572 0.38361 0.73303 0.0
C4736 C 0.02415 0.42023 0.74314 0.0
C4737 C 0.00795 0.42148 0.7562 0.0
N4738 N 0.97861 0.40344 0.7757 0.0
N4739 N 0.02695 0.39974 0.71861 0.0
C4740 C 0.98831 0.40254 0.76311 0.0
C4741 C 0.01675 0.40112 0.73023 0.0
N4742 N 0.96676 0.37009 0.75186 0.0
N4743 N 0.0396 0.43366 0.74149 0.0
H4744 H 0.02289 0.3887 0.71127 0.0
H4745 H 0.03908 0.40959 0.71676 0.0
H4746 H 0.04291 0.44473 0.74845 0.0
H4747 H 0.04841 0.43321 0.73343 0.0
H4748 H 0.95856 0.36993 0.76125 0.0
H4749 H 0.96297 0.35934 0.7441 0.0
H4750 H 0.96725 0.39299 0.77892 0.0
H4751 H 0.98253 0.41474 0.78248 0.0
C4752 C 0.58185 0.58542 0.70048 0.0
C4753 C 0.59448 0.59683 0.71233 0.0
C4754 C 0.57413 0.58702 0.73605 0.0
C4755 C 0.5627 0.57328 0.72515 0.0
N4756 N 0.55336 0.56493 0.69483 0.0
N4757 N 0.6028 0.60888 0.74158 0.0
C4758 C 0.56576 0.57419 0.70679 0.0
C4759 C 0.59068 0.59775 0.73019 0.0
N4760 N 0.58515 0.58499 0.68306 0.0
N4761 N 0.56864 0.59111 0.75086 0.0
H4762 H 0.61482 0.61765 0.73764 0.0
H4763 H 0.6012 0.60866 0.75513 0.0
H4764 H 0.55597 0.58557 0.75361 0.0
H4765 H 0.57612 0.6017 0.75867 0.0
H4766 H 0.57614 0.57662 0.67406 0.0
H4767 H 0.59691 0.59262 0.67773 0.0
H4768 H 0.54082 0.55733 0.69805 0.0
H4769 H 0.54082 0.55733 0.69805 0.0
C4770 C 0.64823 0.72297 0.62521 0.0
C4771 C 0.65199 0.72119 0.64284 0.0
C4772 C 0.64252 0.74025 0.65277 0.0
C4773 C 0.64213 0.74463 0.63508 0.0
N4774 N 0.63366 0.73211 0.60608 0.0
N4775 N 0.65327 0.72849 0.67365 0.0
C4776 C 0.64184 0.7337 0.62158 0.0
C4777 C 0.64907 0.72975 0.65674 0.0
N4778 N 0.65092 0.71457 0.61191 0.0
N4779 N 0.63541 0.74501 0.66552 0.0
H4780 H 0.65822 0.72102 0.67714 0.0
H4781 H 0.65314 0.73593 0.68399 0.0
H4782 H 0.62904 0.7513 0.66263 0.0
H4783 H 0.63396 0.74093 0.67841 0.0
H4784 H 0.65036 0.71697 0.59868 0.0
H4785 H 0.65477 0.70593 0.6141 0.0
H4786 H 0.63194 0.72347 0.59618 0.0
H4787 H 0.62628 0.73753 0.6043 0.0
C4788 C 0.2755 0.92973 0.60731 0.0
C4789 C 0.2872 0.93379 0.62784 0.0
C4790 C 0.28275 0.89772 0.62722 0.0
C4791 C 0.26718 0.89285 0.60925 0.0
N4792 N 0.25794 0.90579 0.58095 0.0
N4793 N 0.30147 0.92252 0.65172 0.0
C4794 C 0.26645 0.9094 0.59636 0.0
C4795 C 0.29142 0.91837 0.63736 0.0
N4796 N 0.27343 0.94187 0.60029 0.0
N4797 N 0.2854 0.8858 0.63374 0.0
H4798 H 0.30698 0.93449 0.6574 0.0
H4799 H 0.30412 0.91391 0.65732 0.0
H4800 H 0.27933 0.8738 0.62802 0.0
H4801 H 0.29349 0.88831 0.6444 0.0
H4802 H 0.26673 0.93978 0.58858 0.0
H4803 H 0.2782 0.9535 0.60663 0.0
H4804 H 0.25696 0.91493 0.57415 0.0
H4805 H 0.25237 0.89368 0.57556 0.0
C4806 C 0.07526 0.34837 0.62085 0.0
C4807 C 0.06865 0.35483 0.6334 0.0
C4808 C 0.09468 0.38195 0.63324 0.0
C4809 C 0.10228 0.37441 0.62356 0.0
N4810 N 0.09651 0.35524 0.59911 0.0
N4811 N 0.07153 0.37797 0.65122 0.0
C4812 C 0.09165 0.35893 0.61462 0.0
C4813 C 0.07813 0.37178 0.63932 0.0
N4814 N 0.06609 0.33203 0.61525 0.0
N4815 N 0.10285 0.39896 0.63539 0.0
H4816 H 0.05923 0.37112 0.65548 0.0
H4817 H 0.07854 0.38953 0.65767 0.0
H4818 H 0.11434 0.40677 0.62962 0.0
H4819 H 0.09746 0.40541 0.64097 0.0
H4820 H 0.07107 0.32618 0.60767 0.0
H4821 H 0.05385 0.324 0.61919 0.0
H4822 H 0.0888 0.34468 0.59137 0.0
H4823 H 0.10718 0.36408 0.59267 0.0
C4824 C 0.27312 0.35094 0.64508 0.0
C4825 C 0.28542 0.34849 0.63688 0.0
C4826 C 0.28264 0.3612 0.61009 0.0
C4827 C 0.27269 0.36638 0.61934 0.0
N4828 N 0.25184 0.35856 0.6417 0.0
N4829 N 0.30277 0.35199 0.61196 0.0
C4830 C 0.26594 0.35901 0.63575 0.0
C4831 C 0.29027 0.35362 0.6194 0.0
N4832 N 0.26868 0.34599 0.66199 0.0
N4833 N 0.2838 0.36236 0.59223 0.0
H4834 H 0.30853 0.34625 0.61818 0.0
H4835 H 0.30832 0.3575 0.60017 0.0
H4836 H 0.27708 0.36628 0.58468 0.0
H4837 H 0.28962 0.35737 0.58468 0.0
H4838 H 0.26148 0.34934 0.66954 0.0
H4839 H 0.27304 0.33928 0.66888 0.0
H4840 H 0.24551 0.35225 0.65285 0.0
H4841 H 0.24513 0.36257 0.63423 0.0
C4842 C 0.66017 0.92037 0.63144 0.0
C4843 C 0.65458 0.93133 0.62636 0.0
C4844 C 0.62784 0.90757 0.6162 0.0
C4845 C 0.63319 0.8963 0.62182 0.0
N4846 N 0.65725 0.89313 0.6276 0.0
N4847 N 0.63565 0.93611 0.60922 0.0
C4848 C 0.65024 0.90303 0.62716 0.0
C4849 C 0.63927 0.92514 0.6171 0.0
N4850 N 0.67474 0.92642 0.64088 0.0
N4851 N 0.6117 0.90176 0.61083 0.0
H4852 H 0.64366 0.94906 0.60995 0.0
H4853 H 0.62558 0.9324 0.60059 0.0
H4854 H 0.60281 0.88921 0.60881 0.0
H4855 H 0.60667 0.90949 0.60929 0.0
H4856 H 0.67833 0.9187 0.64696 0.0
H4857 H 0.68272 0.93915 0.64364 0.0
H4858 H 0.66995 0.89788 0.62997 0.0
H4859 H 0.65119 0.8807 0.62327 0.0
C4860 C 0.06877 0.71291 0.63585 0.0
C4861 C 0.05725 0.71869 0.63565 0.0
C4862 C 0.07742 0.74364 0.62024 0.0
C4863 C 0.09022 0.74003 0.62431 0.0
N4864 N 0.09737 0.7193 0.63285 0.0
N4865 N 0.05065 0.73995 0.62835 0.0
C4866 C 0.08565 0.72397 0.631 0.0
C4867 C 0.06154 0.73412 0.62793 0.0
N4868 N 0.0634 0.69672 0.64031 0.0
N4869 N 0.08008 0.75549 0.60822 0.0
H4870 H 0.03874 0.73325 0.63366 0.0
H4871 H 0.05397 0.75203 0.62468 0.0
H4872 H 0.09079 0.76121 0.60065 0.0
H4873 H 0.07074 0.75773 0.60386 0.0
H4874 H 0.07058 0.69105 0.63909 0.0
H4875 H 0.05115 0.68841 0.64401 0.0
H4876 H 0.09554 0.70905 0.64001 0.0
H4877 H 0.10922 0.72586 0.62749 0.0
C4878 C 0.98356 0.58204 0.70522 0.0
C4879 C 0.98913 0.59742 0.71441 0.0
C4880 C 0.01012 0.59377 0.72999 0.0
C4881 C 0.00389 0.5777 0.72155 0.0
N4882 N 0.97974 0.5544 0.70677 0.0
N4883 N 0.00344 0.61466 0.73985 0.0
C4884 C 0.98901 0.57109 0.71101 0.0
C4885 C 0.00091 0.60211 0.72832 0.0
N4886 N 0.97379 0.57814 0.69042 0.0
N4887 N 0.0252 0.60179 0.7387 0.0
H4888 H 0.99668 0.62085 0.73907 0.0
H4889 H 0.01082 0.61756 0.7512 0.0
H4890 H 0.03314 0.59706 0.74019 0.0
H4891 H 0.03072 0.6142 0.74311 0.0
H4892 H 0.97095 0.56782 0.68231 0.0
H4893 H 0.96992 0.586 0.68525 0.0
H4894 H 0.9683 0.54919 0.70008 0.0
H4895 H 0.98192 0.54539 0.71206 0.0
C4896 C 0.37941 0.40763 0.73326 0.0
C4897 C 0.39055 0.40358 0.72491 0.0
C4898 C 0.41321 0.43278 0.72801 0.0
C4899 C 0.40144 0.43736 0.73378 0.0
N4900 N 0.37518 0.42822 0.74857 0.0
N4901 N 0.41789 0.41168 0.71426 0.0
C4902 C 0.38512 0.42449 0.73857 0.0
C4903 C 0.40748 0.41594 0.72254 0.0
N4904 N 0.36299 0.39552 0.73497 0.0
N4905 N 0.42995 0.44426 0.72861 0.0
H4906 H 0.41433 0.39932 0.71095 0.0
H4907 H 0.42968 0.42038 0.70977 0.0
H4908 H 0.43494 0.45634 0.7338 0.0
H4909 H 0.43917 0.44131 0.72607 0.0
H4910 H 0.35359 0.39798 0.7384 0.0
H4911 H 0.35845 0.38292 0.73189 0.0
H4912 H 0.36416 0.41919 0.75425 0.0
H4913 H 0.37847 0.44024 0.75274 0.0
C4914 C 0.60509 0.00941 0.70216 0.0
C4915 C 0.61983 0.0112 0.70987 0.0
C4916 C 0.60683 0.005 0.73886 0.0
C4917 C 0.59143 0.00134 0.73064 0.0
N4918 N 0.57929 0.00914 0.70715 0.0
N4919 N 0.63627 0.01374 0.73554 0.0
C4920 C 0.59155 0.00629 0.71306 0.0
C4921 C 0.62119 0.00999 0.7283 0.0
N4922 N 0.60383 0.01018 0.68434 0.0
N4923 N 0.60778 0.00417 0.75671 0.0
H4924 H 0.64699 0.01765 0.72813 0.0
H4925 H 0.6386 0.01349 0.74885 0.0
H4926 H 0.59844 0.00306 0.76503 0.0
H4927 H 0.61793 0.00516 0.76361 0.0
H4928 H 0.59265 0.00697 0.67786 0.0
H4929 H 0.61364 0.01283 0.67589 0.0
H4930 H 0.57948 0.01403 0.69487 0.0
H4931 H 0.57027 0.00897 0.71539 0.0
loop_
_geom_bond_atom_site_label_1
_geom_bond_atom_site_label_2
_geom_bond_distance
_geom_bond_site_symmetry_2
_ccdc_geom_bond_type
Li0 N17 1.997 . S
Li0 O60 1.935 1_556 S
Li0 O61 1.981 1_655 S
Li0 O62 1.963 . S
Li1 N25 1.990 . S
Li1 O60 1.970 1_455 S
Li1 O61 1.956 1_554 S
Li1 O63 1.961 . S
Li2 N47 1.990 . S
Li2 O60 1.961 . S
Li2 O62 1.956 1_554 S
Li2 O63 1.970 1_655 S
Li3 N53 1.990 . S
Li3 O61 1.961 . S
Li3 O62 1.970 1_455 S
Li3 O63 1.956 1_556 S
C4 C6 1.364 . S
C4 C7 1.356 . S
C4 O60 1.325 . S
N5 C8 1.314 . S
N5 C9 1.279 . S
C6 C4 1.364 . S
C6 C8 1.355 . S
C6 H64 0.912 1_655 S
C7 C4 1.356 . S
C7 C9 1.358 . S
C7 H65 0.930 . S
C8 N5 1.314 . S
C8 C6 1.355 . S
C8 H66 0.990 . S
C9 N5 1.279 . S
C9 C7 1.358 . S
C9 H67 0.930 . S
C10 C13 1.348 . S
C10 C14 1.356 . S
C10 O61 1.325 . S
C11 N12 1.279 . S
C11 C14 1.358 . S
C11 H68 0.930 . S
N12 C11 1.279 . S
N12 C15 1.314 . S
C13 C10 1.348 . S
C13 C15 1.353 . S
C13 H69 0.912 1_455 S
C14 C10 1.356 . S
C14 C11 1.358 . S
C14 H70 0.930 . S
C15 N12 1.314 . S
C15 C13 1.353 . S
C15 H71 0.930 . S
C16 N17 1.314 . S
C16 C21 1.353 . S
C16 H22 0.930 . S
N17 Li0 1.997 . S
N17 C16 1.314 . S
N17 C19 1.302 . S
C18 C19 1.374 . S
C18 C20 1.356 . S
C18 H72 0.934 1_556 S
C19 N17 1.302 . S
C19 C18 1.374 . S
C19 H23 0.889 1_556 S
C20 C18 1.356 . S
C20 C21 1.348 . S
C21 C16 1.353 . S
C21 C20 1.348 . S
C21 H73 0.929 . S
H22 C16 0.930 . S
H23 C19 0.889 1_554 S
C24 N25 1.314 . S
C24 C26 1.353 . S
C24 H30 0.930 . S
N25 Li1 1.990 . S
N25 C24 1.314 . S
N25 C28 1.279 . S
C26 C24 1.353 . S
C26 C29 1.348 . S
C26 H74 0.929 . S
C27 C28 1.358 . S
C27 C29 1.356 . S
C27 H75 0.930 . S
C28 N25 1.279 . S
C28 C27 1.358 . S
C28 H31 0.930 . S
C29 C26 1.348 . S
C29 C27 1.356 . S
H30 C24 0.930 . S
H31 C28 0.930 . S
C32 C34 1.348 . S
C32 C35 1.356 . S
C32 O62 1.325 . S
N33 C36 1.314 . S
N33 C37 1.279 . S
C34 C32 1.348 . S
C34 C36 1.353 . S
C34 H76 0.929 . S
C35 C32 1.356 . S
C35 C37 1.358 . S
C35 H77 0.930 1_556 S
C36 N33 1.314 . S
C36 C34 1.353 . S
C36 H78 0.930 . S
C37 N33 1.279 . S
C37 C35 1.358 . S
C37 H79 0.930 . S
C38 C39 1.348 . S
C38 C40 1.356 . S
C38 O63 1.325 . S
C39 C38 1.348 . S
C39 C41 1.353 . S
C39 H80 0.929 . S
C40 C38 1.356 . S
C40 C42 1.358 . S
C40 H81 0.930 . S
C41 C39 1.353 . S
C41 N43 1.314 . S
C41 H82 0.930 . S
C42 C40 1.358 . S
C42 N43 1.279 . S
C42 H83 0.930 . S
N43 C41 1.314 . S
N43 C42 1.279 . S
C44 C46 1.353 . S
C44 N47 1.314 . S
C44 H50 0.930 . S
C45 N47 1.279 . S
C45 C48 1.358 . S
C45 H51 0.930 . S
C46 C44 1.353 . S
C46 C49 1.348 . S
C46 H84 0.929 . S
N47 Li2 1.990 . S
N47 C44 1.314 . S
N47 C45 1.279 . S
C48 C45 1.358 . S
C48 C49 1.356 . S
C48 H85 0.930 . S
C49 C46 1.348 . S
C49 C48 1.356 . S
H50 C44 0.930 . S
H51 C45 0.930 . S
C52 N53 1.314 . S
C52 C54 1.353 . S
C52 H58 0.930 . S
N53 Li3 1.990 . S
N53 C52 1.314 . S
N53 C56 1.279 . S
C54 C52 1.353 . S
C54 C57 1.348 . S
C54 H86 0.929 . S
C55 C56 1.358 . S
C55 C57 1.356 . S
C55 H87 0.930 . S
C56 N53 1.279 . S
C56 C55 1.358 . S
C56 H59 0.930 . S
C57 C54 1.348 . S
C57 C55 1.356 . S
H58 C52 0.930 . S
H59 C56 0.930 . S
O60 Li0 1.935 1_554 S
O60 Li1 1.970 1_655 S
O60 Li2 1.961 . S
O60 C4 1.325 . S
O61 Li0 1.981 1_455 S
O61 Li1 1.956 1_556 S
O61 Li3 1.961 . S
O61 C10 1.325 . S
O62 Li0 1.963 . S
O62 Li2 1.956 1_556 S
O62 Li3 1.970 1_655 S
O62 C32 1.325 . S
O63 Li1 1.961 . S
O63 Li2 1.970 1_455 S
O63 Li3 1.956 1_554 S
O63 C38 1.325 . S
H64 C6 0.912 1_455 S
H65 C7 0.930 . S
H66 C8 0.990 . S
H67 C9 0.930 . S
H68 C11 0.930 . S
H69 C13 0.912 1_655 S
H70 C14 0.930 . S
H71 C15 0.930 . S
H72 C18 0.934 1_554 S
H73 C21 0.929 . S
H74 C26 0.929 . S
H75 C27 0.930 . S
H76 C34 0.929 . S
H77 C35 0.930 1_554 S
H78 C36 0.930 . S
H79 C37 0.930 . S
H80 C39 0.929 . S
H81 C40 0.930 . S
H82 C41 0.930 . S
H83 C42 0.930 . S
H84 C46 0.929 . S
H85 C48 0.930 . S
H86 C54 0.929 . S
H87 C55 0.930 . S
Li88 N105 1.990 1_554 S
Li88 O148 1.956 . S
Li88 O149 1.970 1_554 S
Li88 O150 1.961 . S
Li89 N113 1.990 . S
Li89 O148 1.970 . S
Li89 O149 1.956 1_554 S
Li89 O151 1.961 . S
Li90 N135 1.990 . S
Li90 O148 1.961 . S
Li90 O150 1.956 . S
Li90 O151 1.970 . S
Li91 N141 1.961 1_554 S
Li91 O149 1.958 1_554 S
Li91 O150 1.977 . S
Li91 O151 1.999 . S
C92 C94 1.348 . S
C92 C95 1.356 . S
C92 O148 1.325 . S
N93 C96 1.314 . S
N93 C97 1.279 . S
C94 C92 1.348 . S
C94 C96 1.353 . S
C94 H152 0.929 . S
C95 C92 1.356 . S
C95 C97 1.358 . S
C95 H153 0.930 . S
C96 N93 1.314 . S
C96 C94 1.353 . S
C96 H154 0.930 . S
C97 N93 1.279 . S
C97 C95 1.358 . S
C97 H155 0.930 . S
C98 C101 1.348 . S
C98 C102 1.356 . S
C98 O149 1.325 . S
C99 N100 1.279 . S
C99 C102 1.358 . S
C99 H156 0.930 . S
N100 C99 1.279 . S
N100 C103 1.314 . S
C101 C98 1.348 . S
C101 C103 1.353 . S
C101 H157 0.929 . S
C102 C98 1.356 . S
C102 C99 1.358 . S
C102 H158 0.930 . S
C103 N100 1.314 . S
C103 C101 1.353 . S
C103 H159 0.930 . S
C104 N105 1.314 . S
C104 C109 1.353 . S
C104 H110 0.930 . S
N105 Li88 1.990 1_556 S
N105 C104 1.314 . S
N105 C107 1.279 1_556 S
C106 C107 1.358 1_556 S
C106 C108 1.356 . S
C106 H160 0.930 1_556 S
C107 N105 1.279 1_554 S
C107 C106 1.358 1_554 S
C107 H111 0.930 . S
C108 C106 1.356 . S
C108 C109 1.348 . S
C109 C104 1.353 . S
C109 C108 1.348 . S
C109 H161 0.929 . S
H110 C104 0.930 . S
H111 C107 0.930 . S
C112 N113 1.314 . S
C112 C114 1.353 . S
C112 H118 0.930 . S
N113 Li89 1.990 . S
N113 C112 1.314 . S
N113 C116 1.279 . S
C114 C112 1.353 . S
C114 C117 1.348 . S
C114 H162 0.929 . S
C115 C116 1.358 . S
C115 C117 1.356 . S
C115 H163 0.930 . S
C116 N113 1.279 . S
C116 C115 1.358 . S
C116 H119 0.930 . S
C117 C114 1.348 . S
C117 C115 1.356 . S
H118 C112 0.930 . S
H119 C116 0.930 . S
C120 C122 1.348 . S
C120 C123 1.357 . S
C120 O150 1.325 1_556 S
N121 C124 1.314 . S
N121 C125 1.279 . S
C122 C120 1.348 . S
C122 C124 1.353 . S
C122 H164 0.929 . S
C123 C120 1.357 . S
C123 C125 1.362 . S
C123 H165 0.925 1_556 S
C124 N121 1.314 . S
C124 C122 1.353 . S
C124 H166 0.930 . S
C125 N121 1.279 . S
C125 C123 1.362 . S
C125 H167 0.930 . S
C126 C127 1.348 . S
C126 C128 1.356 . S
C126 O151 1.325 . S
C127 C126 1.348 . S
C127 C129 1.353 . S
C127 H168 0.929 . S
C128 C126 1.356 . S
C128 C130 1.358 . S
C128 H169 0.930 . S
C129 C127 1.353 . S
C129 N131 1.314 . S
C129 H170 0.930 . S
C130 C128 1.358 . S
C130 N131 1.279 . S
C130 H171 0.930 . S
N131 C129 1.314 . S
N131 C130 1.279 . S
C132 C134 1.353 . S
C132 N135 1.314 . S
C132 H138 0.930 . S
C133 N135 1.279 . S
C133 C136 1.358 . S
C133 H139 0.930 . S
C134 C132 1.353 . S
C134 C137 1.348 . S
C134 H172 0.929 . S
N135 Li90 1.990 . S
N135 C132 1.314 . S
N135 C133 1.279 . S
C136 C133 1.358 . S
C136 C137 1.356 . S
C136 H173 0.930 . S
C137 C134 1.348 . S
C137 C136 1.356 . S
H138 C132 0.930 . S
H139 C133 0.930 . S
C140 N141 1.314 . S
C140 C142 1.353 . S
C140 H146 0.930 . S
N141 Li91 1.961 1_556 S
N141 C140 1.314 . S
N141 C144 1.279 . S
C142 C140 1.353 . S
C142 C145 1.348 . S
C142 H174 0.929 . S
C143 C144 1.358 . S
C143 C145 1.356 . S
C143 H175 0.930 . S
C144 N141 1.279 . S
C144 C143 1.358 . S
C144 H147 0.930 . S
C145 C142 1.348 . S
C145 C143 1.356 . S
H146 C140 0.930 . S
H147 C144 0.930 . S
O148 Li88 1.956 . S
O148 Li89 1.970 . S
O148 Li90 1.961 . S
O148 C92 1.325 . S
O149 Li88 1.970 1_556 S
O149 Li89 1.956 1_556 S
O149 Li91 1.958 1_556 S
O149 C98 1.325 . S
O150 Li88 1.961 . S
O150 Li90 1.956 . S
O150 Li91 1.977 . S
O150 C120 1.325 1_554 S
O151 Li89 1.961 . S
O151 Li90 1.970 . S
O151 Li91 1.999 . S
O151 C126 1.325 . S
H152 C94 0.929 . S
H153 C95 0.930 . S
H154 C96 0.930 . S
H155 C97 0.930 . S
H156 C99 0.930 . S
H157 C101 0.929 . S
H158 C102 0.930 . S
H159 C103 0.930 . S
H160 C106 0.930 1_554 S
H161 C109 0.929 . S
H162 C114 0.929 . S
H163 C115 0.930 . S
H164 C122 0.929 . S
H165 C123 0.925 1_554 S
H166 C124 0.930 . S
H167 C125 0.930 . S
H168 C127 0.929 . S
H169 C128 0.930 . S
H170 C129 0.930 . S
H171 C130 0.930 . S
H172 C134 0.929 . S
H173 C136 0.930 . S
H174 C142 0.929 . S
H175 C143 0.930 . S
Li176 N193 1.990 . S
Li176 O236 1.956 1_556 S
Li176 O237 1.983 1_565 S
Li176 O238 1.961 . S
Li177 N201 1.990 . S
Li177 O236 1.970 1_545 S
Li177 O237 1.915 1_554 S
Li177 O239 1.961 . S
Li178 N223 1.990 . S
Li178 O236 1.961 . S
Li178 O238 1.956 1_554 S
Li178 O239 1.970 1_565 S
Li179 N229 1.990 1_554 S
Li179 O237 1.958 1_554 S
Li179 O238 1.970 1_544 S
Li179 O239 1.956 . S
C180 C182 1.348 . S
C180 C183 1.356 . S
C180 O236 1.325 . S
N181 C184 1.314 . S
N181 C185 1.279 . S
C182 C180 1.348 . S
C182 C184 1.353 . S
C182 H240 0.929 . S
C183 C180 1.356 . S
C183 C185 1.358 . S
C183 H241 0.930 . S
C184 N181 1.314 . S
C184 C182 1.353 . S
C184 H242 0.930 . S
C185 N181 1.279 . S
C185 C183 1.358 . S
C185 H243 0.930 . S
C186 C189 1.348 . S
C186 C190 1.362 . S
C186 O237 1.339 . S
C187 N188 1.279 . S
C187 C190 1.366 . S
C187 H244 0.930 . S
N188 C187 1.279 . S
N188 C191 1.314 . S
C189 C186 1.348 . S
C189 C191 1.353 . S
C189 H245 0.929 . S
C190 C186 1.362 . S
C190 C187 1.366 . S
C190 H246 0.917 1_556 S
C191 N188 1.314 . S
C191 C189 1.353 . S
C191 H247 0.930 . S
C192 N193 1.314 . S
C192 C197 1.353 . S
C192 H198 0.930 . S
N193 Li176 1.990 . S
N193 C192 1.314 . S
N193 C195 1.279 . S
C194 C195 1.358 . S
C194 C196 1.356 . S
C194 H248 0.930 . S
C195 N193 1.279 . S
C195 C194 1.358 . S
C195 H199 0.930 . S
C196 C194 1.356 . S
C196 C197 1.348 . S
C197 C192 1.353 . S
C197 C196 1.348 . S
C197 H249 0.929 . S
H198 C192 0.930 . S
H199 C195 0.930 . S
C200 N201 1.314 . S
C200 C202 1.353 . S
C200 H206 0.930 . S
N201 Li177 1.990 . S
N201 C200 1.314 . S
N201 C204 1.279 . S
C202 C200 1.353 . S
C202 C205 1.348 . S
C202 H250 0.929 . S
C203 C204 1.358 . S
C203 C205 1.356 . S
C203 H251 0.930 . S
C204 N201 1.279 . S
C204 C203 1.358 . S
C204 H207 0.930 . S
C205 C202 1.348 . S
C205 C203 1.356 . S
H206 C200 0.930 . S
H207 C204 0.930 . S
C208 C210 1.348 . S
C208 C211 1.356 . S
C208 O238 1.325 . S
N209 C212 1.314 . S
N209 C213 1.279 . S
C210 C208 1.348 . S
C210 C212 1.353 . S
C210 H252 0.929 1_565 S
C211 C208 1.356 . S
C211 C213 1.358 . S
C211 H253 0.930 . S
C212 N209 1.314 . S
C212 C210 1.353 . S
C212 H254 0.930 . S
C213 N209 1.279 . S
C213 C211 1.358 . S
C213 H255 0.930 . S
C214 C215 1.348 . S
C214 C216 1.356 . S
C214 O239 1.325 . S
C215 C214 1.348 . S
C215 C217 1.353 . S
C215 H256 0.929 1_545 S
C216 C214 1.356 . S
C216 C218 1.358 . S
C216 H257 0.930 . S
C217 C215 1.353 . S
C217 N219 1.314 . S
C217 H258 0.930 . S
C218 C216 1.358 . S
C218 N219 1.279 . S
C218 H259 0.930 . S
N219 C217 1.314 . S
N219 C218 1.279 . S
C220 C222 1.353 . S
C220 N223 1.314 . S
C220 H226 0.930 . S
C221 N223 1.279 . S
C221 C224 1.358 . S
C221 H227 0.930 . S
C222 C220 1.353 . S
C222 C225 1.348 . S
C222 H260 0.929 . S
N223 Li178 1.990 . S
N223 C220 1.314 . S
N223 C221 1.279 . S
C224 C221 1.358 . S
C224 C225 1.356 . S
C224 H261 0.930 . S
C225 C222 1.348 . S
C225 C224 1.356 . S
H226 C220 0.930 . S
H227 C221 0.930 . S
C228 N229 1.314 . S
C228 C230 1.353 . S
C228 H234 0.930 . S
N229 Li179 1.990 1_556 S
N229 C228 1.314 . S
N229 C232 1.279 1_556 S
C230 C228 1.353 . S
C230 C233 1.348 . S
C230 H262 0.929 . S
C231 C232 1.358 1_556 S
C231 C233 1.356 . S
C231 H263 0.930 1_556 S
C232 N229 1.279 1_554 S
C232 C231 1.358 1_554 S
C232 H235 0.930 . S
C233 C230 1.348 . S
C233 C231 1.356 . S
H234 C228 0.930 . S
H235 C232 0.930 . S
O236 Li176 1.956 1_554 S
O236 Li177 1.970 1_565 S
O236 Li178 1.961 . S
O236 C180 1.325 . S
O237 Li176 1.983 1_545 S
O237 Li177 1.915 1_556 S
O237 Li179 1.958 1_556 S
O237 C186 1.339 . S
O238 Li176 1.961 . S
O238 Li178 1.956 1_556 S
O238 Li179 1.970 1_566 S
O238 C208 1.325 . S
O239 Li177 1.961 . S
O239 Li178 1.970 1_545 S
O239 Li179 1.956 . S
O239 C214 1.325 . S
H240 C182 0.929 . S
H241 C183 0.930 . S
H242 C184 0.930 . S
H243 C185 0.930 . S
H244 C187 0.930 . S
H245 C189 0.929 . S
H246 C190 0.917 1_554 S
H247 C191 0.930 . S
H248 C194 0.930 . S
H249 C197 0.929 . S
H250 C202 0.929 . S
H251 C203 0.930 . S
H252 C210 0.929 1_545 S
H253 C211 0.930 . S
H254 C212 0.930 . S
H255 C213 0.930 . S
H256 C215 0.929 1_565 S
H257 C216 0.930 . S
H258 C217 0.930 . S
H259 C218 0.930 . S
H260 C222 0.929 . S
H261 C224 0.930 . S
H262 C230 0.929 . S
H263 C231 0.930 1_554 S
Li264 N281 1.990 . S
Li264 O324 1.956 . S
Li264 O325 1.970 1_455 S
Li264 O326 1.961 1_554 S
Li265 N289 1.990 . S
Li265 O324 1.970 1_655 S
Li265 O325 1.956 . S
Li265 O327 1.961 . S
Li266 N311 1.990 . S
Li266 O324 1.961 1_556 S
Li266 O326 1.956 . S
Li266 O327 1.970 1_456 S
Li267 N317 1.990 1_554 S
Li267 O325 1.961 . S
Li267 O326 1.970 1_654 S
Li267 O327 1.956 . S
C268 C270 1.348 . S
C268 C271 1.356 . S
C268 O324 1.325 . S
N269 C272 1.314 . S
N269 C273 1.279 . S
C270 C268 1.348 . S
C270 C272 1.353 . S
C270 H328 0.929 . S
C271 C268 1.356 . S
C271 C273 1.358 . S
C271 H329 0.930 . S
C272 N269 1.314 . S
C272 C270 1.353 . S
C272 H330 0.930 . S
C273 N269 1.279 . S
C273 C271 1.358 . S
C273 H331 0.930 . S
C274 C277 1.348 . S
C274 C278 1.356 . S
C274 O325 1.325 . S
C275 N276 1.279 . S
C275 C278 1.358 . S
C275 H332 0.930 . S
N276 C275 1.279 . S
N276 C279 1.314 . S
C277 C274 1.348 . S
C277 C279 1.353 . S
C277 H333 0.929 1_655 S
C278 C274 1.356 . S
C278 C275 1.358 . S
C278 H334 0.930 . S
C279 N276 1.314 . S
C279 C277 1.353 . S
C279 H335 0.930 . S
C280 N281 1.314 . S
C280 C285 1.353 . S
C280 H286 0.930 . S
N281 Li264 1.990 . S
N281 C280 1.314 . S
N281 C283 1.279 . S
C282 C283 1.358 . S
C282 C284 1.356 . S
C282 H336 0.930 . S
C283 N281 1.279 . S
C283 C282 1.358 . S
C283 H287 0.930 . S
C284 C282 1.356 . S
C284 C285 1.348 . S
C285 C280 1.353 . S
C285 C284 1.348 . S
C285 H337 0.929 . S
H286 C280 0.930 . S
H287 C283 0.930 . S
C288 N289 1.314 . S
C288 C290 1.353 . S
C288 H294 0.930 . S
N289 Li265 1.990 . S
N289 C288 1.314 . S
N289 C292 1.279 . S
C290 C288 1.353 . S
C290 C293 1.348 . S
C290 H338 0.929 . S
C291 C292 1.358 . S
C291 C293 1.356 . S
C291 H339 0.930 . S
C292 N289 1.279 . S
C292 C291 1.358 . S
C292 H295 0.930 . S
C293 C290 1.348 . S
C293 C291 1.356 . S
H294 C288 0.930 . S
H295 C292 0.930 . S
C296 C298 1.348 . S
C296 C299 1.356 . S
C296 O326 1.325 . S
N297 C300 1.314 . S
N297 C301 1.279 . S
C298 C296 1.348 . S
C298 C300 1.353 . S
C298 H340 0.929 1_455 S
C299 C296 1.356 . S
C299 C301 1.358 . S
C299 H341 0.930 . S
C300 N297 1.314 . S
C300 C298 1.353 . S
C300 H342 0.930 . S
C301 N297 1.279 . S
C301 C299 1.358 . S
C301 H343 0.930 . S
C302 C303 1.348 . S
C302 C304 1.356 1_556 S
C302 O327 1.325 1_556 S
C303 C302 1.348 . S
C303 C305 1.353 . S
C303 H344 0.929 . S
C304 C302 1.356 1_554 S
C304 C306 1.353 1_554 S
C304 H345 0.930 . S
C305 C303 1.353 . S
C305 N307 1.314 . S
C305 H346 0.930 . S
C306 C304 1.353 1_556 S
C306 N307 1.292 . S
C306 H347 0.921 1_556 S
N307 C305 1.314 . S
N307 C306 1.292 . S
C308 C310 1.353 . S
C308 N311 1.314 . S
C308 H314 0.930 . S
C309 N311 1.279 . S
C309 C312 1.358 . S
C309 H315 0.930 . S
C310 C308 1.353 . S
C310 C313 1.348 . S
C310 H348 0.929 . S
N311 Li266 1.990 . S
N311 C308 1.314 . S
N311 C309 1.279 . S
C312 C309 1.358 . S
C312 C313 1.356 . S
C312 H349 0.930 . S
C313 C310 1.348 . S
C313 C312 1.356 . S
H314 C308 0.930 . S
H315 C309 0.930 . S
C316 N317 1.317 . S
C316 C318 1.357 . S
C316 H322 0.923 1_556 S
N317 Li267 1.990 1_556 S
N317 C316 1.317 . S
N317 C320 1.279 . S
C318 C316 1.357 . S
C318 C321 1.348 . S
C318 H350 0.929 . S
C319 C320 1.358 . S
C319 C321 1.356 . S
C319 H351 0.930 . S
C320 N317 1.279 . S
C320 C319 1.358 . S
C320 H323 0.930 . S
C321 C318 1.348 . S
C321 C319 1.356 . S
H322 C316 0.923 1_554 S
H323 C320 0.930 . S
O324 Li264 1.956 . S
O324 Li265 1.970 1_455 S
O324 Li266 1.961 1_554 S
O324 C268 1.325 . S
O325 Li264 1.970 1_655 S
O325 Li265 1.956 . S
O325 Li267 1.961 . S
O325 C274 1.325 . S
O326 Li264 1.961 1_556 S
O326 Li266 1.956 . S
O326 Li267 1.970 1_456 S
O326 C296 1.325 . S
O327 Li265 1.961 . S
O327 Li266 1.970 1_654 S
O327 Li267 1.956 . S
O327 C302 1.325 1_554 S
H328 C270 0.929 . S
H329 C271 0.930 . S
H330 C272 0.930 . S
H331 C273 0.930 . S
H332 C275 0.930 . S
H333 C277 0.929 1_455 S
H334 C278 0.930 . S
H335 C279 0.930 . S
H336 C282 0.930 . S
H337 C285 0.929 . S
H338 C290 0.929 . S
H339 C291 0.930 . S
H340 C298 0.929 1_655 S
H341 C299 0.930 . S
H342 C300 0.930 . S
H343 C301 0.930 . S
H344 C303 0.929 . S
H345 C304 0.930 . S
H346 C305 0.930 . S
H347 C306 0.921 1_554 S
H348 C310 0.929 . S
H349 C312 0.930 . S
H350 C318 0.929 . S
H351 C319 0.930 . S
Li352 N369 1.990 . S
Li352 O412 1.956 . S
Li352 O413 1.970 . S
Li352 O414 1.961 1_554 S
Li353 N377 1.990 . S
Li353 O412 1.970 . S
Li353 O413 1.956 . S
Li353 O415 1.961 1_554 S
Li354 N399 1.990 . S
Li354 O412 1.961 1_556 S
Li354 O414 1.956 . S
Li354 O415 1.970 . S
Li355 N405 1.990 . S
Li355 O413 1.961 1_556 S
Li355 O414 1.970 . S
Li355 O415 1.956 . S
C356 C358 1.348 . S
C356 C359 1.356 . S
C356 O412 1.325 . S
N357 C360 1.314 . S
N357 C361 1.279 . S
C358 C356 1.348 . S
C358 C360 1.353 . S
C358 H416 0.929 . S
C359 C356 1.356 . S
C359 C361 1.358 . S
C359 H417 0.930 . S
C360 N357 1.314 . S
C360 C358 1.353 . S
C360 H418 0.930 . S
C361 N357 1.279 . S
C361 C359 1.358 . S
C361 H419 0.930 . S
C362 C365 1.348 . S
C362 C366 1.356 . S
C362 O413 1.325 . S
C363 N364 1.279 . S
C363 C366 1.358 . S
C363 H420 0.930 . S
N364 C363 1.279 . S
N364 C367 1.314 . S
C365 C362 1.348 . S
C365 C367 1.353 . S
C365 H421 0.929 . S
C366 C362 1.356 . S
C366 C363 1.358 . S
C366 H422 0.930 . S
C367 N364 1.314 . S
C367 C365 1.353 . S
C367 H423 0.930 . S
C368 N369 1.314 . S
C368 C373 1.353 . S
C368 H374 0.930 . S
N369 Li352 1.990 . S
N369 C368 1.314 . S
N369 C371 1.279 . S
C370 C371 1.358 . S
C370 C372 1.356 . S
C370 H424 0.930 . S
C371 N369 1.279 . S
C371 C370 1.358 . S
C371 H375 0.930 . S
C372 C370 1.356 . S
C372 C373 1.348 . S
C373 C368 1.353 . S
C373 C372 1.348 . S
C373 H425 0.929 . S
H374 C368 0.930 . S
H375 C371 0.930 . S
C376 N377 1.314 . S
C376 C378 1.353 . S
C376 H382 0.930 . S
N377 Li353 1.990 . S
N377 C376 1.314 . S
N377 C380 1.279 . S
C378 C376 1.353 . S
C378 C381 1.348 . S
C378 H426 0.929 . S
C379 C380 1.358 . S
C379 C381 1.356 . S
C379 H427 0.930 . S
C380 N377 1.279 . S
C380 C379 1.358 . S
C380 H383 0.930 . S
C381 C378 1.348 . S
C381 C379 1.356 . S
H382 C376 0.930 . S
H383 C380 0.930 . S
C384 C386 1.348 . S
C384 C387 1.356 . S
C384 O414 1.325 . S
N385 C388 1.314 . S
N385 C389 1.279 . S
C386 C384 1.348 . S
C386 C388 1.353 . S
C386 H428 0.929 . S
C387 C384 1.356 . S
C387 C389 1.358 . S
C387 H429 0.930 . S
C388 N385 1.314 . S
C388 C386 1.353 . S
C388 H430 0.930 . S
C389 N385 1.279 . S
C389 C387 1.358 . S
C389 H431 0.930 . S
C390 C391 1.348 . S
C390 C392 1.356 . S
C390 O415 1.325 . S
C391 C390 1.348 . S
C391 C393 1.353 . S
C391 H432 0.929 . S
C392 C390 1.356 . S
C392 C394 1.358 . S
C392 H433 0.930 1_556 S
C393 C391 1.353 . S
C393 N395 1.314 . S
C393 H434 0.930 . S
C394 C392 1.358 . S
C394 N395 1.279 . S
C394 H435 0.930 . S
N395 C393 1.314 . S
N395 C394 1.279 . S
C396 C398 1.353 . S
C396 N399 1.314 . S
C396 H402 0.930 . S
C397 N399 1.279 . S
C397 C400 1.358 . S
C397 H403 0.930 . S
C398 C396 1.353 . S
C398 C401 1.348 . S
C398 H436 0.929 . S
N399 Li354 1.990 . S
N399 C396 1.314 . S
N399 C397 1.279 . S
C400 C397 1.358 . S
C400 C401 1.356 . S
C400 H437 0.930 . S
C401 C398 1.348 . S
C401 C400 1.356 . S
H402 C396 0.930 . S
H403 C397 0.930 . S
C404 N405 1.314 . S
C404 C406 1.353 . S
C404 H410 0.930 . S
N405 Li355 1.990 . S
N405 C404 1.314 . S
N405 C408 1.279 . S
C406 C404 1.353 . S
C406 C409 1.348 . S
C406 H438 0.929 . S
C407 C408 1.358 . S
C407 C409 1.356 . S
C407 H439 0.930 . S
C408 N405 1.279 . S
C408 C407 1.358 . S
C408 H411 0.930 . S
C409 C406 1.348 . S
C409 C407 1.356 . S
H410 C404 0.930 . S
H411 C408 0.930 . S
O412 Li352 1.956 . S
O412 Li353 1.970 . S
O412 Li354 1.961 1_554 S
O412 C356 1.325 . S
O413 Li352 1.970 . S
O413 Li353 1.956 . S
O413 Li355 1.961 1_554 S
O413 C362 1.325 . S
O414 Li352 1.961 1_556 S
O414 Li354 1.956 . S
O414 Li355 1.970 . S
O414 C384 1.325 . S
O415 Li353 1.961 1_556 S
O415 Li354 1.970 . S
O415 Li355 1.956 . S
O415 C390 1.325 . S
H416 C358 0.929 . S
H417 C359 0.930 . S
H418 C360 0.930 . S
H419 C361 0.930 . S
H420 C363 0.930 . S
H421 C365 0.929 . S
H422 C366 0.930 . S
H423 C367 0.930 . S
H424 C370 0.930 . S
H425 C373 0.929 . S
H426 C378 0.929 . S
H427 C379 0.930 . S
H428 C386 0.929 . S
H429 C387 0.930 . S
H430 C388 0.930 . S
H431 C389 0.930 . S
H432 C391 0.929 . S
H433 C392 0.930 1_554 S
H434 C393 0.930 . S
H435 C394 0.930 . S
H436 C398 0.929 . S
H437 C400 0.930 . S
H438 C406 0.929 . S
H439 C407 0.930 . S
Li440 N457 1.990 . S
Li440 O500 1.956 . S
Li440 O501 1.970 1_565 S
Li440 O502 1.961 1_554 S
Li441 N465 1.990 . S
Li441 O500 1.970 1_545 S
Li441 O501 1.956 . S
Li441 O503 1.961 . S
Li442 N487 1.990 . S
Li442 O500 1.961 1_556 S
Li442 O502 1.956 . S
Li442 O503 1.970 1_566 S
Li443 N493 1.990 1_554 S
Li443 O501 1.961 . S
Li443 O502 1.970 1_544 S
Li443 O503 1.956 . S
C444 C446 1.348 . S
C444 C447 1.356 . S
C444 O500 1.325 . S
N445 C448 1.314 . S
N445 C449 1.279 . S
C446 C444 1.348 . S
C446 C448 1.353 . S
C446 H504 0.929 . S
C447 C444 1.356 . S
C447 C449 1.358 . S
C447 H505 0.930 . S
C448 N445 1.314 . S
C448 C446 1.353 . S
C448 H506 0.930 . S
C449 N445 1.279 . S
C449 C447 1.358 . S
C449 H507 0.930 . S
C450 C453 1.348 . S
C450 C454 1.356 . S
C450 O501 1.325 . S
C451 N452 1.279 . S
C451 C454 1.358 . S
C451 H508 0.930 . S
N452 C451 1.279 . S
N452 C455 1.314 . S
C453 C450 1.348 . S
C453 C455 1.353 . S
C453 H509 0.929 1_545 S
C454 C450 1.356 . S
C454 C451 1.358 . S
C454 H510 0.930 . S
C455 N452 1.314 . S
C455 C453 1.353 . S
C455 H511 0.930 . S
C456 N457 1.314 . S
C456 C461 1.353 . S
C456 H462 0.930 . S
N457 Li440 1.990 . S
N457 C456 1.314 . S
N457 C459 1.279 . S
C458 C459 1.358 . S
C458 C460 1.356 . S
C458 H512 0.930 . S
C459 N457 1.279 . S
C459 C458 1.358 . S
C459 H463 0.930 . S
C460 C458 1.356 . S
C460 C461 1.348 . S
C461 C456 1.353 . S
C461 C460 1.348 . S
C461 H513 0.929 . S
H462 C456 0.930 . S
H463 C459 0.930 . S
C464 N465 1.314 . S
C464 C466 1.353 . S
C464 H470 0.930 . S
N465 Li441 1.990 . S
N465 C464 1.314 . S
N465 C468 1.279 . S
C466 C464 1.353 . S
C466 C469 1.348 . S
C466 H514 0.929 . S
C467 C468 1.358 . S
C467 C469 1.356 . S
C467 H515 0.930 . S
C468 N465 1.279 . S
C468 C467 1.358 . S
C468 H471 0.930 . S
C469 C466 1.348 . S
C469 C467 1.356 . S
H470 C464 0.930 . S
H471 C468 0.930 . S
C472 C474 1.348 . S
C472 C475 1.356 . S
C472 O502 1.325 . S
N473 C476 1.314 . S
N473 C477 1.279 . S
C474 C472 1.348 . S
C474 C476 1.353 . S
C474 H516 0.929 1_565 S
C475 C472 1.356 . S
C475 C477 1.358 . S
C475 H517 0.930 . S
C476 N473 1.314 . S
C476 C474 1.353 . S
C476 H518 0.930 . S
C477 N473 1.279 . S
C477 C475 1.358 . S
C477 H519 0.930 . S
C478 C479 1.348 . S
C478 C480 1.356 1_556 S
C478 O503 1.325 1_556 S
C479 C478 1.348 . S
C479 C481 1.353 . S
C479 H520 0.929 . S
C480 C478 1.356 1_554 S
C480 C482 1.358 . S
C480 H521 0.930 . S
C481 C479 1.353 . S
C481 N483 1.314 . S
C481 H522 0.930 . S
C482 C480 1.358 . S
C482 N483 1.279 1_554 S
C482 H523 0.930 . S
N483 C481 1.314 . S
N483 C482 1.279 1_556 S
C484 C486 1.353 . S
C484 N487 1.314 . S
C484 H490 0.930 . S
C485 N487 1.279 . S
C485 C488 1.358 . S
C485 H491 0.930 . S
C486 C484 1.353 . S
C486 C489 1.348 . S
C486 H524 0.929 . S
N487 Li442 1.990 . S
N487 C484 1.314 . S
N487 C485 1.279 . S
C488 C485 1.358 . S
C488 C489 1.356 . S
C488 H525 0.930 . S
C489 C486 1.348 . S
C489 C488 1.356 . S
H490 C484 0.930 . S
H491 C485 0.930 . S
C492 N493 1.307 1_554 S
C492 C494 1.341 1_554 S
C492 H498 0.954 . S
N493 Li443 1.990 1_556 S
N493 C492 1.307 1_556 S
N493 C496 1.279 . S
C494 C492 1.341 1_556 S
C494 C497 1.348 . S
C494 H526 0.946 . S
C495 C496 1.358 . S
C495 C497 1.356 . S
C495 H527 0.930 . S
C496 N493 1.279 . S
C496 C495 1.358 . S
C496 H499 0.930 . S
C497 C494 1.348 . S
C497 C495 1.356 . S
H498 C492 0.954 . S
H499 C496 0.930 . S
O500 Li440 1.956 . S
O500 Li441 1.970 1_565 S
O500 Li442 1.961 1_554 S
O500 C444 1.325 . S
O501 Li440 1.970 1_545 S
O501 Li441 1.956 . S
O501 Li443 1.961 . S
O501 C450 1.325 . S
O502 Li440 1.961 1_556 S
O502 Li442 1.956 . S
O502 Li443 1.970 1_566 S
O502 C472 1.325 . S
O503 Li441 1.961 . S
O503 Li442 1.970 1_544 S
O503 Li443 1.956 . S
O503 C478 1.325 1_554 S
H504 C446 0.929 . S
H505 C447 0.930 . S
H506 C448 0.930 . S
H507 C449 0.930 . S
H508 C451 0.930 . S
H509 C453 0.929 1_565 S
H510 C454 0.930 . S
H511 C455 0.930 . S
H512 C458 0.930 . S
H513 C461 0.929 . S
H514 C466 0.929 . S
H515 C467 0.930 . S
H516 C474 0.929 1_545 S
H517 C475 0.930 . S
H518 C476 0.930 . S
H519 C477 0.930 . S
H520 C479 0.929 . S
H521 C480 0.930 . S
H522 C481 0.930 . S
H523 C482 0.930 . S
H524 C486 0.929 . S
H525 C488 0.930 . S
H526 C494 0.946 . S
H527 C495 0.930 . S
Li528 N545 1.990 . S
Li528 O588 1.956 . S
Li528 O589 1.970 . S
Li528 O590 1.961 . S
Li529 N553 1.990 . S
Li529 O588 1.970 . S
Li529 O589 1.956 . S
Li529 O591 1.961 . S
Li530 N575 1.990 . S
Li530 O588 1.961 . S
Li530 O590 1.956 . S
Li530 O591 1.970 . S
Li531 N581 1.990 . S
Li531 O589 1.961 . S
Li531 O590 1.970 . S
Li531 O591 1.956 . S
C532 C534 1.348 . S
C532 C535 1.356 . S
C532 O588 1.325 . S
N533 C536 1.314 . S
N533 C537 1.279 . S
C534 C532 1.348 . S
C534 C536 1.353 . S
C534 H592 0.929 . S
C535 C532 1.356 . S
C535 C537 1.358 . S
C535 H593 0.930 . S
C536 N533 1.314 . S
C536 C534 1.353 . S
C536 H594 0.930 . S
C537 N533 1.279 . S
C537 C535 1.358 . S
C537 H595 0.930 . S
C538 C541 1.348 . S
C538 C542 1.356 . S
C538 O589 1.325 . S
C539 N540 1.279 . S
C539 C542 1.358 . S
C539 H596 0.930 . S
N540 C539 1.279 . S
N540 C543 1.314 . S
C541 C538 1.348 . S
C541 C543 1.353 . S
C541 H597 0.929 . S
C542 C538 1.356 . S
C542 C539 1.358 . S
C542 H598 0.930 . S
C543 N540 1.314 . S
C543 C541 1.353 . S
C543 H599 0.930 . S
C544 N545 1.314 . S
C544 C549 1.353 . S
C544 H550 0.930 . S
N545 Li528 1.990 . S
N545 C544 1.314 . S
N545 C547 1.279 . S
C546 C547 1.358 . S
C546 C548 1.356 . S
C546 H600 0.930 . S
C547 N545 1.279 . S
C547 C546 1.358 . S
C547 H551 0.930 . S
C548 C546 1.356 . S
C548 C549 1.348 . S
C549 C544 1.353 . S
C549 C548 1.348 . S
C549 H601 0.929 . S
H550 C544 0.930 . S
H551 C547 0.930 . S
C552 N553 1.314 . S
C552 C554 1.353 . S
C552 H558 0.930 . S
N553 Li529 1.990 . S
N553 C552 1.314 . S
N553 C556 1.279 . S
C554 C552 1.353 . S
C554 C557 1.348 . S
C554 H602 0.929 . S
C555 C556 1.358 . S
C555 C557 1.356 . S
C555 H603 0.930 . S
C556 N553 1.279 . S
C556 C555 1.358 . S
C556 H559 0.930 . S
C557 C554 1.348 . S
C557 C555 1.356 . S
H558 C552 0.930 . S
H559 C556 0.930 . S
C560 C562 1.348 . S
C560 C563 1.356 . S
C560 O590 1.325 . S
N561 C564 1.314 . S
N561 C565 1.279 . S
C562 C560 1.348 . S
C562 C564 1.353 . S
C562 H604 0.929 . S
C563 C560 1.356 . S
C563 C565 1.358 . S
C563 H605 0.930 . S
C564 N561 1.314 . S
C564 C562 1.353 . S
C564 H606 0.930 . S
C565 N561 1.279 . S
C565 C563 1.358 . S
C565 H607 0.930 . S
C566 C567 1.348 . S
C566 C568 1.356 . S
C566 O591 1.325 . S
C567 C566 1.348 . S
C567 C569 1.353 . S
C567 H608 0.929 . S
C568 C566 1.356 . S
C568 C570 1.358 . S
C568 H609 0.930 . S
C569 C567 1.353 . S
C569 N571 1.314 . S
C569 H610 0.930 . S
C570 C568 1.358 . S
C570 N571 1.279 . S
C570 H611 0.930 . S
N571 C569 1.314 . S
N571 C570 1.279 . S
C572 C574 1.353 . S
C572 N575 1.314 . S
C572 H578 0.930 . S
C573 N575 1.279 . S
C573 C576 1.358 . S
C573 H579 0.930 . S
C574 C572 1.353 . S
C574 C577 1.348 . S
C574 H612 0.929 . S
N575 Li530 1.990 . S
N575 C572 1.314 . S
N575 C573 1.279 . S
C576 C573 1.358 . S
C576 C577 1.356 . S
C576 H613 0.930 . S
C577 C574 1.348 . S
C577 C576 1.356 . S
H578 C572 0.930 . S
H579 C573 0.930 . S
C580 N581 1.314 . S
C580 C582 1.353 . S
C580 H586 0.930 . S
N581 Li531 1.990 . S
N581 C580 1.314 . S
N581 C584 1.279 . S
C582 C580 1.353 . S
C582 C585 1.348 . S
C582 H614 0.929 . S
C583 C584 1.358 . S
C583 C585 1.356 . S
C583 H615 0.930 . S
C584 N581 1.279 . S
C584 C583 1.358 . S
C584 H587 0.930 . S
C585 C582 1.348 . S
C585 C583 1.356 . S
H586 C580 0.930 . S
H587 C584 0.930 . S
O588 Li528 1.956 . S
O588 Li529 1.970 . S
O588 Li530 1.961 . S
O588 C532 1.325 . S
O589 Li528 1.970 . S
O589 Li529 1.956 . S
O589 Li531 1.961 . S
O589 C538 1.325 . S
O590 Li528 1.961 . S
O590 Li530 1.956 . S
O590 Li531 1.970 . S
O590 C560 1.325 . S
O591 Li529 1.961 . S
O591 Li530 1.970 . S
O591 Li531 1.956 . S
O591 C566 1.325 . S
H592 C534 0.929 . S
H593 C535 0.930 . S
H594 C536 0.930 . S
H595 C537 0.930 . S
H596 C539 0.930 . S
H597 C541 0.929 . S
H598 C542 0.930 . S
H599 C543 0.930 . S
H600 C546 0.930 . S
H601 C549 0.929 . S
H602 C554 0.929 . S
H603 C555 0.930 . S
H604 C562 0.929 . S
H605 C563 0.930 . S
H606 C564 0.930 . S
H607 C565 0.930 . S
H608 C567 0.929 . S
H609 C568 0.930 . S
H610 C569 0.930 . S
H611 C570 0.930 . S
H612 C574 0.929 . S
H613 C576 0.930 . S
H614 C582 0.929 . S
H615 C583 0.930 . S
Li616 N633 1.990 . S
Li616 O676 1.956 . S
Li616 O677 1.970 . S
Li616 O678 1.961 . S
Li617 N641 1.990 . S
Li617 O676 1.970 . S
Li617 O677 1.956 . S
Li617 O679 1.961 . S
Li618 N663 1.988 . S
Li618 O676 1.962 1_545 S
Li618 O678 1.957 1_545 S
Li618 O679 1.973 1_545 S
Li619 N669 1.990 . S
Li619 O677 1.961 . S
Li619 O678 1.970 . S
Li619 O679 1.956 . S
C620 C622 1.348 . S
C620 C623 1.356 . S
C620 O676 1.325 . S
N621 C624 1.314 . S
N621 C625 1.279 . S
C622 C620 1.348 . S
C622 C624 1.353 . S
C622 H680 0.929 . S
C623 C620 1.356 . S
C623 C625 1.358 . S
C623 H681 0.929 . S
C624 N621 1.314 . S
C624 C622 1.353 . S
C624 H682 0.930 . S
C625 N621 1.279 . S
C625 C623 1.358 . S
C625 H683 0.930 . S
C626 C629 1.348 . S
C626 C630 1.356 . S
C626 O677 1.325 . S
C627 N628 1.279 . S
C627 C630 1.358 . S
C627 H684 0.930 . S
N628 C627 1.279 . S
N628 C631 1.314 . S
C629 C626 1.348 . S
C629 C631 1.353 . S
C629 H685 0.929 . S
C630 C626 1.356 . S
C630 C627 1.358 . S
C630 H686 0.930 . S
C631 N628 1.314 . S
C631 C629 1.353 . S
C631 H687 0.930 . S
C632 N633 1.314 . S
C632 C637 1.353 . S
C632 H638 0.930 . S
N633 Li616 1.990 . S
N633 C632 1.314 . S
N633 C635 1.279 . S
C634 C635 1.358 . S
C634 C636 1.356 . S
C634 H688 0.930 . S
C635 N633 1.279 . S
C635 C634 1.358 . S
C635 H639 0.930 . S
C636 C634 1.356 . S
C636 C637 1.348 . S
C637 C632 1.353 . S
C637 C636 1.348 . S
C637 H689 0.929 . S
H638 C632 0.930 . S
H639 C635 0.930 . S
C640 N641 1.314 . S
C640 C642 1.353 . S
C640 H646 0.930 . S
N641 Li617 1.990 . S
N641 C640 1.314 . S
N641 C644 1.279 . S
C642 C640 1.353 . S
C642 C645 1.348 . S
C642 H690 0.929 . S
C643 C644 1.358 . S
C643 C645 1.356 . S
C643 H691 0.930 . S
C644 N641 1.279 . S
C644 C643 1.358 . S
C644 H647 0.930 . S
C645 C642 1.348 . S
C645 C643 1.356 . S
H646 C640 0.930 . S
H647 C644 0.930 . S
C648 C650 1.348 . S
C648 C651 1.356 . S
C648 O678 1.325 1_545 S
N649 C652 1.314 . S
N649 C653 1.279 . S
C650 C648 1.348 . S
C650 C652 1.353 . S
C650 H692 0.929 . S
C651 C648 1.356 . S
C651 C653 1.358 . S
C651 H693 0.930 . S
C652 N649 1.314 . S
C652 C650 1.353 . S
C652 H694 0.930 . S
C653 N649 1.279 . S
C653 C651 1.358 . S
C653 H695 0.930 . S
C654 C655 1.348 1_565 S
C654 C656 1.356 . S
C654 O679 1.325 . S
C655 C654 1.348 1_545 S
C655 C657 1.353 . S
C655 H696 0.929 . S
C656 C654 1.356 . S
C656 C658 1.358 . S
C656 H697 0.930 . S
C657 C655 1.353 . S
C657 N659 1.332 . S
C657 H698 0.930 . S
C658 C656 1.358 . S
C658 N659 1.265 1_565 S
C658 H699 0.930 . S
N659 C657 1.332 . S
N659 C658 1.265 1_545 S
C660 C662 1.353 . S
C660 N663 1.314 . S
C660 H666 0.930 . S
C661 N663 1.279 . S
C661 C664 1.358 . S
C661 H667 0.930 . S
C662 C660 1.353 . S
C662 C665 1.348 . S
C662 H700 0.929 . S
N663 Li618 1.988 . S
N663 C660 1.314 . S
N663 C661 1.279 . S
C664 C661 1.358 . S
C664 C665 1.356 . S
C664 H701 0.930 . S
C665 C662 1.348 . S
C665 C664 1.356 . S
H666 C660 0.930 . S
H667 C661 0.930 . S
C668 N669 1.314 . S
C668 C670 1.353 . S
C668 H674 0.930 . S
N669 Li619 1.990 . S
N669 C668 1.314 . S
N669 C672 1.279 . S
C670 C668 1.353 . S
C670 C673 1.348 . S
C670 H702 0.929 . S
C671 C672 1.358 . S
C671 C673 1.356 . S
C671 H703 0.930 . S
C672 N669 1.279 . S
C672 C671 1.358 . S
C672 H675 0.930 . S
C673 C670 1.348 . S
C673 C671 1.356 . S
H674 C668 0.930 . S
H675 C672 0.930 . S
O676 Li616 1.956 . S
O676 Li617 1.970 . S
O676 Li618 1.962 1_565 S
O676 C620 1.325 . S
O677 Li616 1.970 . S
O677 Li617 1.956 . S
O677 Li619 1.961 . S
O677 C626 1.325 . S
O678 Li616 1.961 . S
O678 Li618 1.957 1_565 S
O678 Li619 1.970 . S
O678 C648 1.325 1_565 S
O679 Li617 1.961 . S
O679 Li618 1.973 1_565 S
O679 Li619 1.956 . S
O679 C654 1.325 . S
H680 C622 0.929 . S
H681 C623 0.929 . S
H682 C624 0.930 . S
H683 C625 0.930 . S
H684 C627 0.930 . S
H685 C629 0.929 . S
H686 C630 0.930 . S
H687 C631 0.930 . S
H688 C634 0.930 . S
H689 C637 0.929 . S
H690 C642 0.929 . S
H691 C643 0.930 . S
H692 C650 0.929 . S
H693 C651 0.930 . S
H694 C652 0.930 . S
H695 C653 0.930 . S
H696 C655 0.929 . S
H697 C656 0.930 . S
H698 C657 0.930 . S
H699 C658 0.930 . S
H700 C662 0.929 . S
H701 C664 0.930 . S
H702 C670 0.929 . S
H703 C671 0.930 . S
Li704 N721 1.990 . S
Li704 O764 1.956 . S
Li704 O765 1.970 . S
Li704 O766 1.961 . S
Li705 N729 1.990 . S
Li705 O764 1.970 . S
Li705 O765 1.956 . S
Li705 O767 1.961 . S
Li706 N751 1.990 1_455 S
Li706 O764 1.961 . S
Li706 O766 1.956 . S
Li706 O767 1.970 . S
Li707 N757 1.990 . S
Li707 O765 1.961 . S
Li707 O766 1.970 . S
Li707 O767 1.956 . S
C708 C710 1.348 . S
C708 C711 1.356 . S
C708 O764 1.325 . S
N709 C712 1.314 . S
N709 C713 1.279 . S
C710 C708 1.348 . S
C710 C712 1.353 . S
C710 H768 0.929 . S
C711 C708 1.356 . S
C711 C713 1.358 . S
C711 H769 0.930 . S
C712 N709 1.314 . S
C712 C710 1.353 . S
C712 H770 0.930 . S
C713 N709 1.279 . S
C713 C711 1.358 . S
C713 H771 0.930 . S
C714 C717 1.348 . S
C714 C718 1.356 . S
C714 O765 1.325 . S
C715 N716 1.279 . S
C715 C718 1.358 . S
C715 H772 0.930 . S
N716 C715 1.279 . S
N716 C719 1.314 . S
C717 C714 1.348 . S
C717 C719 1.353 . S
C717 H773 0.929 . S
C718 C714 1.356 . S
C718 C715 1.358 . S
C718 H774 0.930 . S
C719 N716 1.314 . S
C719 C717 1.353 . S
C719 H775 0.930 . S
C720 N721 1.314 . S
C720 C725 1.353 . S
C720 H726 0.930 . S
N721 Li704 1.990 . S
N721 C720 1.314 . S
N721 C723 1.279 . S
C722 C723 1.358 . S
C722 C724 1.356 . S
C722 H776 0.930 . S
C723 N721 1.279 . S
C723 C722 1.358 . S
C723 H727 0.930 . S
C724 C722 1.356 . S
C724 C725 1.348 . S
C725 C720 1.353 . S
C725 C724 1.348 . S
C725 H777 0.929 . S
H726 C720 0.930 . S
H727 C723 0.930 . S
C728 N729 1.314 . S
C728 C730 1.353 . S
C728 H734 0.930 . S
N729 Li705 1.990 . S
N729 C728 1.314 . S
N729 C732 1.279 . S
C730 C728 1.353 . S
C730 C733 1.348 . S
C730 H778 0.929 . S
C731 C732 1.358 . S
C731 C733 1.356 . S
C731 H779 0.930 . S
C732 N729 1.279 . S
C732 C731 1.358 . S
C732 H735 0.930 . S
C733 C730 1.348 . S
C733 C731 1.356 . S
H734 C728 0.930 . S
H735 C732 0.930 . S
C736 C738 1.348 . S
C736 C739 1.356 . S
C736 O766 1.325 1_655 S
N737 C740 1.314 . S
N737 C741 1.279 . S
C738 C736 1.348 . S
C738 C740 1.353 . S
C738 H780 0.929 . S
C739 C736 1.356 . S
C739 C741 1.358 . S
C739 H781 0.930 . S
C740 N737 1.314 . S
C740 C738 1.353 . S
C740 H782 0.930 . S
C741 N737 1.279 . S
C741 C739 1.358 . S
C741 H783 0.930 . S
C742 C743 1.348 1_455 S
C742 C744 1.356 . S
C742 O767 1.325 . S
C743 C742 1.348 1_655 S
C743 C745 1.353 . S
C743 H784 0.929 . S
C744 C742 1.356 . S
C744 C746 1.358 . S
C744 H785 0.930 . S
C745 C743 1.353 . S
C745 N747 1.314 1_655 S
C745 H786 0.930 . S
C746 C744 1.358 . S
C746 N747 1.279 . S
C746 H787 0.930 . S
N747 C745 1.314 1_455 S
N747 C746 1.279 . S
C748 C750 1.353 . S
C748 N751 1.314 . S
C748 H754 0.930 . S
C749 N751 1.279 . S
C749 C752 1.358 . S
C749 H755 0.930 . S
C750 C748 1.353 . S
C750 C753 1.348 . S
C750 H788 0.929 . S
N751 Li706 1.990 1_655 S
N751 C748 1.314 . S
N751 C749 1.279 . S
C752 C749 1.358 . S
C752 C753 1.356 . S
C752 H789 0.930 . S
C753 C750 1.348 . S
C753 C752 1.356 . S
H754 C748 0.930 . S
H755 C749 0.930 . S
C756 N757 1.314 . S
C756 C758 1.353 . S
C756 H762 0.930 . S
N757 Li707 1.990 . S
N757 C756 1.314 . S
N757 C760 1.279 . S
C758 C756 1.353 . S
C758 C761 1.348 . S
C758 H790 0.929 . S
C759 C760 1.358 . S
C759 C761 1.356 . S
C759 H791 0.930 . S
C760 N757 1.279 . S
C760 C759 1.358 . S
C760 H763 0.930 . S
C761 C758 1.348 . S
C761 C759 1.356 . S
H762 C756 0.930 . S
H763 C760 0.930 . S
O764 Li704 1.956 . S
O764 Li705 1.970 . S
O764 Li706 1.961 . S
O764 C708 1.325 . S
O765 Li704 1.970 . S
O765 Li705 1.956 . S
O765 Li707 1.961 . S
O765 C714 1.325 . S
O766 Li704 1.961 . S
O766 Li706 1.956 . S
O766 Li707 1.970 . S
O766 C736 1.325 1_455 S
O767 Li705 1.961 . S
O767 Li706 1.970 . S
O767 Li707 1.956 . S
O767 C742 1.325 . S
H768 C710 0.929 . S
H769 C711 0.930 . S
H770 C712 0.930 . S
H771 C713 0.930 . S
H772 C715 0.930 . S
H773 C717 0.929 . S
H774 C718 0.930 . S
H775 C719 0.930 . S
H776 C722 0.930 . S
H777 C725 0.929 . S
H778 C730 0.929 . S
H779 C731 0.930 . S
H780 C738 0.929 . S
H781 C739 0.930 . S
H782 C740 0.930 . S
H783 C741 0.930 . S
H784 C743 0.929 . S
H785 C744 0.930 . S
H786 C745 0.930 . S
H787 C746 0.930 . S
H788 C750 0.929 . S
H789 C752 0.930 . S
H790 C758 0.929 . S
H791 C759 0.930 . S
Li792 N809 1.990 1_565 S
Li792 O852 1.956 . S
Li792 O853 1.970 . S
Li792 O854 1.961 . S
Li793 N817 1.990 . S
Li793 O852 1.970 . S
Li793 O853 1.956 . S
Li793 O855 1.961 . S
Li794 N839 1.990 . S
Li794 O852 1.961 . S
Li794 O854 1.956 . S
Li794 O855 1.970 . S
Li795 N845 1.990 . S
Li795 O853 1.961 . S
Li795 O854 1.970 . S
Li795 O855 1.956 . S
C796 C798 1.348 . S
C796 C799 1.356 . S
C796 O852 1.325 . S
N797 C800 1.314 . S
N797 C801 1.279 . S
C798 C796 1.348 . S
C798 C800 1.353 . S
C798 H856 0.929 . S
C799 C796 1.356 . S
C799 C801 1.358 . S
C799 H857 0.930 . S
C800 N797 1.314 . S
C800 C798 1.353 . S
C800 H858 0.930 . S
C801 N797 1.279 . S
C801 C799 1.358 . S
C801 H859 0.930 . S
C802 C805 1.348 1_565 S
C802 C806 1.356 . S
C802 O853 1.325 . S
C803 N804 1.279 . S
C803 C806 1.358 . S
C803 H860 0.930 . S
N804 C803 1.279 . S
N804 C807 1.314 1_565 S
C805 C802 1.348 1_545 S
C805 C807 1.353 . S
C805 H861 0.929 . S
C806 C802 1.356 . S
C806 C803 1.358 . S
C806 H862 0.930 . S
C807 N804 1.314 1_545 S
C807 C805 1.353 . S
C807 H863 0.930 . S
C808 N809 1.314 . S
C808 C813 1.353 . S
C808 H814 0.930 . S
N809 Li792 1.990 1_545 S
N809 C808 1.314 . S
N809 C811 1.279 . S
C810 C811 1.358 . S
C810 C812 1.356 . S
C810 H864 0.930 . S
C811 N809 1.279 . S
C811 C810 1.358 . S
C811 H815 0.930 . S
C812 C810 1.356 . S
C812 C813 1.348 . S
C813 C808 1.353 . S
C813 C812 1.348 . S
C813 H865 0.929 . S
H814 C808 0.930 . S
H815 C811 0.930 . S
C816 N817 1.314 . S
C816 C818 1.353 . S
C816 H822 0.930 . S
N817 Li793 1.990 . S
N817 C816 1.314 . S
N817 C820 1.279 . S
C818 C816 1.353 . S
C818 C821 1.348 . S
C818 H866 0.929 . S
C819 C820 1.358 . S
C819 C821 1.356 . S
C819 H867 0.930 . S
C820 N817 1.279 . S
C820 C819 1.358 . S
C820 H823 0.930 . S
C821 C818 1.348 . S
C821 C819 1.356 . S
H822 C816 0.930 . S
H823 C820 0.930 . S
C824 C826 1.348 . S
C824 C827 1.356 . S
C824 O854 1.325 1_545 S
N825 C828 1.314 . S
N825 C829 1.279 . S
C826 C824 1.348 . S
C826 C828 1.353 . S
C826 H868 0.925 1_545 S
C827 C824 1.356 . S
C827 C829 1.358 . S
C827 H869 0.930 . S
C828 N825 1.314 . S
C828 C826 1.353 . S
C828 H870 0.930 . S
C829 N825 1.279 . S
C829 C827 1.358 . S
C829 H871 0.930 . S
C830 C831 1.348 . S
C830 C832 1.356 . S
C830 O855 1.325 . S
C831 C830 1.348 . S
C831 C833 1.353 . S
C831 H872 0.929 . S
C832 C830 1.356 . S
C832 C834 1.358 . S
C832 H873 0.930 . S
C833 C831 1.353 . S
C833 N835 1.314 . S
C833 H874 0.930 . S
C834 C832 1.358 . S
C834 N835 1.279 . S
C834 H875 0.930 . S
N835 C833 1.314 . S
N835 C834 1.279 . S
C836 C838 1.353 . S
C836 N839 1.314 . S
C836 H842 0.930 . S
C837 N839 1.279 . S
C837 C840 1.358 . S
C837 H843 0.930 . S
C838 C836 1.353 . S
C838 C841 1.348 . S
C838 H876 0.929 . S
N839 Li794 1.990 . S
N839 C836 1.314 . S
N839 C837 1.279 . S
C840 C837 1.358 . S
C840 C841 1.356 . S
C840 H877 0.930 . S
C841 C838 1.348 . S
C841 C840 1.356 . S
H842 C836 0.930 . S
H843 C837 0.930 . S
C844 N845 1.314 . S
C844 C846 1.353 . S
C844 H850 0.930 1_565 S
N845 Li795 1.990 . S
N845 C844 1.314 . S
N845 C848 1.279 . S
C846 C844 1.353 . S
C846 C849 1.348 . S
C846 H878 0.929 1_565 S
C847 C848 1.358 . S
C847 C849 1.356 . S
C847 H879 0.930 . S
C848 N845 1.279 . S
C848 C847 1.358 . S
C848 H851 0.930 . S
C849 C846 1.348 . S
C849 C847 1.356 . S
H850 C844 0.930 1_545 S
H851 C848 0.930 . S
O852 Li792 1.956 . S
O852 Li793 1.970 . S
O852 Li794 1.961 . S
O852 C796 1.325 . S
O853 Li792 1.970 . S
O853 Li793 1.956 . S
O853 Li795 1.961 . S
O853 C802 1.325 . S
O854 Li792 1.961 . S
O854 Li794 1.956 . S
O854 Li795 1.970 . S
O854 C824 1.325 1_565 S
O855 Li793 1.961 . S
O855 Li794 1.970 . S
O855 Li795 1.956 . S
O855 C830 1.325 . S
H856 C798 0.929 . S
H857 C799 0.930 . S
H858 C800 0.930 . S
H859 C801 0.930 . S
H860 C803 0.930 . S
H861 C805 0.929 . S
H862 C806 0.930 . S
H863 C807 0.930 . S
H864 C810 0.930 . S
H865 C813 0.929 . S
H866 C818 0.929 . S
H867 C819 0.930 . S
H868 C826 0.925 1_565 S
H869 C827 0.930 . S
H870 C828 0.930 . S
H871 C829 0.930 . S
H872 C831 0.929 . S
H873 C832 0.930 . S
H874 C833 0.930 . S
H875 C834 0.930 . S
H876 C838 0.929 . S
H877 C840 0.930 . S
H878 C846 0.929 1_545 S
H879 C847 0.930 . S
Li880 N897 1.990 . S
Li880 O940 1.956 . S
Li880 O941 1.970 . S
Li880 O942 1.961 . S
Li881 N905 1.990 1_455 S
Li881 O940 1.970 . S
Li881 O941 1.956 . S
Li881 O943 1.961 . S
Li882 N927 1.990 . S
Li882 O940 1.961 . S
Li882 O942 1.956 . S
Li882 O943 1.970 . S
Li883 N933 1.990 . S
Li883 O941 1.961 . S
Li883 O942 1.970 . S
Li883 O943 1.956 . S
C884 C886 1.348 1_455 S
C884 C887 1.356 . S
C884 O940 1.325 . S
N885 C888 1.314 1_455 S
N885 C889 1.279 . S
C886 C884 1.348 1_655 S
C886 C888 1.353 . S
C886 H944 0.929 . S
C887 C884 1.356 . S
C887 C889 1.358 . S
C887 H945 0.930 . S
C888 N885 1.314 1_655 S
C888 C886 1.353 . S
C888 H946 0.930 . S
C889 N885 1.279 . S
C889 C887 1.358 . S
C889 H947 0.930 . S
C890 C893 1.348 . S
C890 C894 1.356 . S
C890 O941 1.325 . S
C891 N892 1.279 . S
C891 C894 1.358 . S
C891 H948 0.930 . S
N892 C891 1.279 . S
N892 C895 1.314 . S
C893 C890 1.348 . S
C893 C895 1.353 . S
C893 H949 0.929 . S
C894 C890 1.356 . S
C894 C891 1.358 . S
C894 H950 0.930 . S
C895 N892 1.314 . S
C895 C893 1.353 . S
C895 H951 0.930 . S
C896 N897 1.314 . S
C896 C901 1.353 . S
C896 H902 0.930 . S
N897 Li880 1.990 . S
N897 C896 1.314 . S
N897 C899 1.279 . S
C898 C899 1.358 . S
C898 C900 1.356 . S
C898 H952 0.930 . S
C899 N897 1.279 . S
C899 C898 1.358 . S
C899 H903 0.930 . S
C900 C898 1.356 . S
C900 C901 1.348 . S
C901 C896 1.353 . S
C901 C900 1.348 . S
C901 H953 0.929 . S
H902 C896 0.930 . S
H903 C899 0.930 . S
C904 N905 1.314 . S
C904 C906 1.353 . S
C904 H910 0.930 . S
N905 Li881 1.990 1_655 S
N905 C904 1.314 . S
N905 C908 1.279 . S
C906 C904 1.353 . S
C906 C909 1.348 . S
C906 H954 0.929 . S
C907 C908 1.358 . S
C907 C909 1.356 . S
C907 H955 0.930 . S
C908 N905 1.279 . S
C908 C907 1.358 . S
C908 H911 0.930 . S
C909 C906 1.348 . S
C909 C907 1.356 . S
H910 C904 0.930 . S
H911 C908 0.930 . S
C912 C914 1.348 . S
C912 C915 1.356 . S
C912 O942 1.325 . S
N913 C916 1.314 . S
N913 C917 1.279 . S
C914 C912 1.348 . S
C914 C916 1.353 . S
C914 H956 0.929 . S
C915 C912 1.356 . S
C915 C917 1.358 . S
C915 H957 0.930 . S
C916 N913 1.314 . S
C916 C914 1.353 . S
C916 H958 0.930 . S
C917 N913 1.279 . S
C917 C915 1.358 . S
C917 H959 0.930 . S
C918 C919 1.348 . S
C918 C920 1.356 . S
C918 O943 1.325 1_655 S
C919 C918 1.348 . S
C919 C921 1.353 . S
C919 H960 0.987 . S
C920 C918 1.356 . S
C920 C922 1.358 . S
C920 H961 0.930 . S
C921 C919 1.353 . S
C921 N923 1.314 . S
C921 H962 0.930 . S
C922 C920 1.358 . S
C922 N923 1.279 . S
C922 H963 0.930 . S
N923 C921 1.314 . S
N923 C922 1.279 . S
C924 C926 1.353 . S
C924 N927 1.314 . S
C924 H930 0.930 1_455 S
C925 N927 1.279 . S
C925 C928 1.358 . S
C925 H931 0.930 . S
C926 C924 1.353 . S
C926 C929 1.348 . S
C926 H964 0.929 1_455 S
N927 Li882 1.990 . S
N927 C924 1.314 . S
N927 C925 1.279 . S
C928 C925 1.358 . S
C928 C929 1.356 . S
C928 H965 0.930 . S
C929 C926 1.348 . S
C929 C928 1.356 . S
H930 C924 0.930 1_655 S
H931 C925 0.930 . S
C932 N933 1.314 . S
C932 C934 1.353 . S
C932 H938 0.930 . S
N933 Li883 1.990 . S
N933 C932 1.314 . S
N933 C936 1.279 . S
C934 C932 1.353 . S
C934 C937 1.348 . S
C934 H966 0.929 . S
C935 C936 1.358 . S
C935 C937 1.356 . S
C935 H967 0.930 . S
C936 N933 1.279 . S
C936 C935 1.358 . S
C936 H939 0.930 . S
C937 C934 1.348 . S
C937 C935 1.356 . S
H938 C932 0.930 . S
H939 C936 0.930 . S
O940 Li880 1.956 . S
O940 Li881 1.970 . S
O940 Li882 1.961 . S
O940 C884 1.325 . S
O941 Li880 1.970 . S
O941 Li881 1.956 . S
O941 Li883 1.961 . S
O941 C890 1.325 . S
O942 Li880 1.961 . S
O942 Li882 1.956 . S
O942 Li883 1.970 . S
O942 C912 1.325 . S
O943 Li881 1.961 . S
O943 Li882 1.970 . S
O943 Li883 1.956 . S
O943 C918 1.325 1_455 S
H944 C886 0.929 . S
H945 C887 0.930 . S
H946 C888 0.930 . S
H947 C889 0.930 . S
H948 C891 0.930 . S
H949 C893 0.929 . S
H950 C894 0.930 . S
H951 C895 0.930 . S
H952 C898 0.930 . S
H953 C901 0.929 . S
H954 C906 0.929 . S
H955 C907 0.930 . S
H956 C914 0.929 . S
H957 C915 0.930 . S
H958 C916 0.930 . S
H959 C917 0.930 . S
H960 C919 0.987 . S
H961 C920 0.930 . S
H962 C921 0.930 . S
H963 C922 0.930 . S
H964 C926 0.929 1_655 S
H965 C928 0.930 . S
H966 C934 0.929 . S
H967 C935 0.930 . S
Li968 N985 1.990 . S
Li968 O1028 1.956 . S
Li968 O1029 1.970 . S
Li968 O1030 1.961 . S
Li969 N993 1.990 . S
Li969 O1028 1.970 . S
Li969 O1029 1.956 . S
Li969 O1031 1.961 . S
Li970 N1015 1.990 . S
Li970 O1028 1.961 . S
Li970 O1030 1.956 . S
Li970 O1031 1.970 . S
Li971 N1021 1.990 . S
Li971 O1029 1.961 . S
Li971 O1030 1.970 . S
Li971 O1031 1.956 . S
C972 C974 1.348 . S
C972 C975 1.356 . S
C972 O1028 1.325 . S
N973 C976 1.314 . S
N973 C977 1.279 . S
C974 C972 1.348 . S
C974 C976 1.353 . S
C974 H1032 0.929 . S
C975 C972 1.356 . S
C975 C977 1.358 . S
C975 H1033 0.930 . S
C976 N973 1.314 . S
C976 C974 1.353 . S
C976 H1034 0.930 . S
C977 N973 1.279 . S
C977 C975 1.358 . S
C977 H1035 0.930 . S
C978 C981 1.348 . S
C978 C982 1.356 . S
C978 O1029 1.325 . S
C979 N980 1.279 . S
C979 C982 1.358 . S
C979 H1036 0.930 . S
N980 C979 1.279 . S
N980 C983 1.314 . S
C981 C978 1.348 . S
C981 C983 1.353 . S
C981 H1037 0.929 . S
C982 C978 1.356 . S
C982 C979 1.358 . S
C982 H1038 0.930 . S
C983 N980 1.314 . S
C983 C981 1.353 . S
C983 H1039 0.930 . S
C984 N985 1.314 . S
C984 C989 1.353 . S
C984 H990 0.930 . S
N985 Li968 1.990 . S
N985 C984 1.314 . S
N985 C987 1.279 . S
C986 C987 1.358 . S
C986 C988 1.356 . S
C986 H1040 0.930 . S
C987 N985 1.279 . S
C987 C986 1.358 . S
C987 H991 0.930 . S
C988 C986 1.356 . S
C988 C989 1.348 . S
C989 C984 1.353 . S
C989 C988 1.348 . S
C989 H1041 0.929 . S
H990 C984 0.930 . S
H991 C987 0.930 . S
C992 N993 1.314 . S
C992 C994 1.353 . S
C992 H998 0.930 . S
N993 Li969 1.990 . S
N993 C992 1.314 . S
N993 C996 1.279 . S
C994 C992 1.353 . S
C994 C997 1.348 . S
C994 H1042 0.929 . S
C995 C996 1.358 . S
C995 C997 1.356 . S
C995 H1043 0.930 . S
C996 N993 1.279 . S
C996 C995 1.358 . S
C996 H999 0.930 . S
C997 C994 1.348 . S
C997 C995 1.356 . S
H998 C992 0.930 . S
H999 C996 0.930 . S
C1000 C1002 1.348 . S
C1000 C1003 1.356 . S
C1000 O1030 1.325 . S
N1001 C1004 1.314 . S
N1001 C1005 1.279 . S
C1002 C1000 1.348 . S
C1002 C1004 1.353 . S
C1002 H1044 0.929 . S
C1003 C1000 1.356 . S
C1003 C1005 1.358 . S
C1003 H1045 0.930 . S
C1004 N1001 1.314 . S
C1004 C1002 1.353 . S
C1004 H1046 0.930 . S
C1005 N1001 1.279 . S
C1005 C1003 1.358 . S
C1005 H1047 0.930 . S
C1006 C1007 1.348 . S
C1006 C1008 1.356 . S
C1006 O1031 1.325 . S
C1007 C1006 1.348 . S
C1007 C1009 1.353 . S
C1007 H1048 0.929 . S
C1008 C1006 1.356 . S
C1008 C1010 1.358 . S
C1008 H1049 0.930 . S
C1009 C1007 1.353 . S
C1009 N1011 1.314 . S
C1009 H1050 0.930 . S
C1010 C1008 1.358 . S
C1010 N1011 1.279 . S
C1010 H1051 0.930 . S
N1011 C1009 1.314 . S
N1011 C1010 1.279 . S
C1012 C1014 1.353 . S
C1012 N1015 1.314 . S
C1012 H1018 0.930 . S
C1013 N1015 1.279 . S
C1013 C1016 1.358 . S
C1013 H1019 0.930 . S
C1014 C1012 1.353 . S
C1014 C1017 1.348 . S
C1014 H1052 0.929 . S
N1015 Li970 1.990 . S
N1015 C1012 1.314 . S
N1015 C1013 1.279 . S
C1016 C1013 1.358 . S
C1016 C1017 1.356 . S
C1016 H1053 0.930 . S
C1017 C1014 1.348 . S
C1017 C1016 1.356 . S
H1018 C1012 0.930 . S
H1019 C1013 0.930 . S
C1020 N1021 1.314 . S
C1020 C1022 1.353 . S
C1020 H1026 0.930 . S
N1021 Li971 1.990 . S
N1021 C1020 1.314 . S
N1021 C1024 1.279 . S
C1022 C1020 1.353 . S
C1022 C1025 1.348 . S
C1022 H1054 0.929 . S
C1023 C1024 1.358 . S
C1023 C1025 1.356 . S
C1023 H1055 0.930 . S
C1024 N1021 1.279 . S
C1024 C1023 1.358 . S
C1024 H1027 0.930 . S
C1025 C1022 1.348 . S
C1025 C1023 1.356 . S
H1026 C1020 0.930 . S
H1027 C1024 0.930 . S
O1028 Li968 1.956 . S
O1028 Li969 1.970 . S
O1028 Li970 1.961 . S
O1028 C972 1.325 . S
O1029 Li968 1.970 . S
O1029 Li969 1.956 . S
O1029 Li971 1.961 . S
O1029 C978 1.325 . S
O1030 Li968 1.961 . S
O1030 Li970 1.956 . S
O1030 Li971 1.970 . S
O1030 C1000 1.325 . S
O1031 Li969 1.961 . S
O1031 Li970 1.970 . S
O1031 Li971 1.956 . S
O1031 C1006 1.325 . S
H1032 C974 0.929 . S
H1033 C975 0.930 . S
H1034 C976 0.930 . S
H1035 C977 0.930 . S
H1036 C979 0.930 . S
H1037 C981 0.929 . S
H1038 C982 0.930 . S
H1039 C983 0.930 . S
H1040 C986 0.930 . S
H1041 C989 0.929 . S
H1042 C994 0.929 . S
H1043 C995 0.930 . S
H1044 C1002 0.929 . S
H1045 C1003 0.930 . S
H1046 C1004 0.930 . S
H1047 C1005 0.930 . S
H1048 C1007 0.929 . S
H1049 C1008 0.930 . S
H1050 C1009 0.930 . S
H1051 C1010 0.930 . S
H1052 C1014 0.929 . S
H1053 C1016 0.930 . S
H1054 C1022 0.929 . S
H1055 C1023 0.930 . S
Li1056 N1073 1.990 1_545 S
Li1056 O1116 1.956 . S
Li1056 O1117 1.970 . S
Li1056 O1118 1.961 . S
Li1057 N1081 1.990 . S
Li1057 O1116 1.970 . S
Li1057 O1117 1.956 . S
Li1057 O1119 1.961 . S
Li1058 N1103 1.990 . S
Li1058 O1116 1.961 . S
Li1058 O1118 1.956 . S
Li1058 O1119 1.970 . S
Li1059 N1109 1.990 . S
Li1059 O1117 1.961 . S
Li1059 O1118 1.970 . S
Li1059 O1119 1.956 . S
C1060 C1062 1.348 . S
C1060 C1063 1.356 . S
C1060 O1116 1.325 1_565 S
N1061 C1064 1.314 . S
N1061 C1065 1.279 . S
C1062 C1060 1.348 . S
C1062 C1064 1.353 . S
C1062 H1120 0.929 . S
C1063 C1060 1.356 . S
C1063 C1065 1.358 . S
C1063 H1121 0.930 . S
C1064 N1061 1.314 . S
C1064 C1062 1.353 . S
C1064 H1122 0.930 . S
C1065 N1061 1.279 . S
C1065 C1063 1.358 . S
C1065 H1123 0.930 . S
C1066 C1069 1.348 1_545 S
C1066 C1070 1.356 . S
C1066 O1117 1.325 . S
C1067 N1068 1.279 . S
C1067 C1070 1.358 . S
C1067 H1124 0.930 . S
N1068 C1067 1.279 . S
N1068 C1071 1.314 1_545 S
C1069 C1066 1.348 1_565 S
C1069 C1071 1.353 . S
C1069 H1125 0.929 . S
C1070 C1066 1.356 . S
C1070 C1067 1.358 . S
C1070 H1126 0.930 . S
C1071 N1068 1.314 1_565 S
C1071 C1069 1.353 . S
C1071 H1127 0.930 . S
C1072 N1073 1.314 . S
C1072 C1077 1.353 . S
C1072 H1078 0.930 . S
N1073 Li1056 1.990 1_565 S
N1073 C1072 1.314 . S
N1073 C1075 1.279 . S
C1074 C1075 1.358 . S
C1074 C1076 1.356 . S
C1074 H1128 0.930 . S
C1075 N1073 1.279 . S
C1075 C1074 1.358 . S
C1075 H1079 0.930 . S
C1076 C1074 1.356 . S
C1076 C1077 1.348 . S
C1077 C1072 1.353 . S
C1077 C1076 1.348 . S
C1077 H1129 0.929 . S
H1078 C1072 0.930 . S
H1079 C1075 0.930 . S
C1080 N1081 1.314 . S
C1080 C1082 1.353 . S
C1080 H1086 0.930 . S
N1081 Li1057 1.990 . S
N1081 C1080 1.314 . S
N1081 C1084 1.279 . S
C1082 C1080 1.353 . S
C1082 C1085 1.348 . S
C1082 H1130 0.929 . S
C1083 C1084 1.358 . S
C1083 C1085 1.356 . S
C1083 H1131 0.930 . S
C1084 N1081 1.279 . S
C1084 C1083 1.358 . S
C1084 H1087 0.930 . S
C1085 C1082 1.348 . S
C1085 C1083 1.356 . S
H1086 C1080 0.930 . S
H1087 C1084 0.930 . S
C1088 C1090 1.348 . S
C1088 C1091 1.356 . S
C1088 O1118 1.325 . S
N1089 C1092 1.314 . S
N1089 C1093 1.279 . S
C1090 C1088 1.348 . S
C1090 C1092 1.353 . S
C1090 H1132 0.929 . S
C1091 C1088 1.356 . S
C1091 C1093 1.358 . S
C1091 H1133 0.930 . S
C1092 N1089 1.314 . S
C1092 C1090 1.353 . S
C1092 H1134 0.930 . S
C1093 N1089 1.279 . S
C1093 C1091 1.358 . S
C1093 H1135 0.930 . S
C1094 C1095 1.348 . S
C1094 C1096 1.356 . S
C1094 O1119 1.325 . S
C1095 C1094 1.348 . S
C1095 C1097 1.353 . S
C1095 H1136 0.929 . S
C1096 C1094 1.356 . S
C1096 C1098 1.358 . S
C1096 H1137 0.930 . S
C1097 C1095 1.353 . S
C1097 N1099 1.314 . S
C1097 H1138 0.930 . S
C1098 C1096 1.358 . S
C1098 N1099 1.279 . S
C1098 H1139 0.930 . S
N1099 C1097 1.314 . S
N1099 C1098 1.279 . S
C1100 C1102 1.353 . S
C1100 N1103 1.314 . S
C1100 H1106 0.930 . S
C1101 N1103 1.279 . S
C1101 C1104 1.358 . S
C1101 H1107 0.930 . S
C1102 C1100 1.353 . S
C1102 C1105 1.348 . S
C1102 H1140 0.929 . S
N1103 Li1058 1.990 . S
N1103 C1100 1.314 . S
N1103 C1101 1.279 . S
C1104 C1101 1.358 . S
C1104 C1105 1.356 . S
C1104 H1141 0.930 . S
C1105 C1102 1.348 . S
C1105 C1104 1.356 . S
H1106 C1100 0.930 . S
H1107 C1101 0.930 . S
C1108 N1109 1.314 . S
C1108 C1110 1.353 . S
C1108 H1114 0.930 . S
N1109 Li1059 1.990 . S
N1109 C1108 1.314 . S
N1109 C1112 1.279 . S
C1110 C1108 1.353 . S
C1110 C1113 1.348 . S
C1110 H1142 0.929 . S
C1111 C1112 1.358 . S
C1111 C1113 1.356 . S
C1111 H1143 0.930 . S
C1112 N1109 1.279 . S
C1112 C1111 1.358 . S
C1112 H1115 0.930 . S
C1113 C1110 1.348 . S
C1113 C1111 1.356 . S
H1114 C1108 0.930 . S
H1115 C1112 0.930 . S
O1116 Li1056 1.956 . S
O1116 Li1057 1.970 . S
O1116 Li1058 1.961 . S
O1116 C1060 1.325 1_545 S
O1117 Li1056 1.970 . S
O1117 Li1057 1.956 . S
O1117 Li1059 1.961 . S
O1117 C1066 1.325 . S
O1118 Li1056 1.961 . S
O1118 Li1058 1.956 . S
O1118 Li1059 1.970 . S
O1118 C1088 1.325 . S
O1119 Li1057 1.961 . S
O1119 Li1058 1.970 . S
O1119 Li1059 1.956 . S
O1119 C1094 1.325 . S
H1120 C1062 0.929 . S
H1121 C1063 0.930 . S
H1122 C1064 0.930 . S
H1123 C1065 0.930 . S
H1124 C1067 0.930 . S
H1125 C1069 0.929 . S
H1126 C1070 0.930 . S
H1127 C1071 0.930 . S
H1128 C1074 0.930 . S
H1129 C1077 0.929 . S
H1130 C1082 0.929 . S
H1131 C1083 0.930 . S
H1132 C1090 0.929 . S
H1133 C1091 0.930 . S
H1134 C1092 0.930 . S
H1135 C1093 0.930 . S
H1136 C1095 0.929 . S
H1137 C1096 0.930 . S
H1138 C1097 0.930 . S
H1139 C1098 0.930 . S
H1140 C1102 0.929 . S
H1141 C1104 0.930 . S
H1142 C1110 0.929 . S
H1143 C1111 0.930 . S
Li1144 N1161 1.990 . S
Li1144 O1204 1.956 1_455 S
Li1144 O1205 1.970 1_455 S
Li1144 O1206 1.961 1_455 S
Li1145 N1169 1.990 . S
Li1145 O1204 1.970 . S
Li1145 O1205 1.956 . S
Li1145 O1207 1.961 . S
Li1146 N1191 1.990 . S
Li1146 O1204 1.961 . S
Li1146 O1206 1.956 . S
Li1146 O1207 1.970 . S
Li1147 N1197 1.990 . S
Li1147 O1205 1.961 . S
Li1147 O1206 1.970 . S
Li1147 O1207 1.956 . S
C1148 C1150 1.348 . S
C1148 C1151 1.356 . S
C1148 O1204 1.325 1_455 S
N1149 C1152 1.314 . S
N1149 C1153 1.279 . S
C1150 C1148 1.348 . S
C1150 C1152 1.353 . S
C1150 H1208 0.929 . S
C1151 C1148 1.356 . S
C1151 C1153 1.358 . S
C1151 H1209 0.930 . S
C1152 N1149 1.314 . S
C1152 C1150 1.353 . S
C1152 H1210 0.930 . S
C1153 N1149 1.279 . S
C1153 C1151 1.358 . S
C1153 H1211 0.930 . S
C1154 C1157 1.348 1_655 S
C1154 C1158 1.356 . S
C1154 O1205 1.325 . S
C1155 N1156 1.222 1_655 S
C1155 C1158 1.358 . S
C1155 H1212 0.930 . S
N1156 C1155 1.222 1_455 S
N1156 C1159 1.387 . S
C1157 C1154 1.348 1_455 S
C1157 C1159 1.353 . S
C1157 H1213 0.929 . S
C1158 C1154 1.356 . S
C1158 C1155 1.358 . S
C1158 H1214 0.930 . S
C1159 N1156 1.387 . S
C1159 C1157 1.353 . S
C1159 H1215 0.930 . S
C1160 N1161 1.314 . S
C1160 C1165 1.353 . S
C1160 H1166 0.930 . S
N1161 Li1144 1.990 . S
N1161 C1160 1.314 . S
N1161 C1163 1.279 . S
C1162 C1163 1.358 . S
C1162 C1164 1.356 . S
C1162 H1216 0.930 . S
C1163 N1161 1.279 . S
C1163 C1162 1.358 . S
C1163 H1167 0.930 . S
C1164 C1162 1.356 . S
C1164 C1165 1.348 . S
C1165 C1160 1.353 . S
C1165 C1164 1.348 . S
C1165 H1217 0.929 . S
H1166 C1160 0.930 . S
H1167 C1163 0.930 . S
C1168 N1169 1.314 . S
C1168 C1170 1.353 . S
C1168 H1174 0.930 . S
N1169 Li1145 1.990 . S
N1169 C1168 1.314 . S
N1169 C1172 1.279 . S
C1170 C1168 1.353 . S
C1170 C1173 1.348 . S
C1170 H1218 0.929 . S
C1171 C1172 1.358 . S
C1171 C1173 1.356 . S
C1171 H1219 0.932 . S
C1172 N1169 1.279 . S
C1172 C1171 1.358 . S
C1172 H1175 0.930 . S
C1173 C1170 1.348 . S
C1173 C1171 1.356 . S
H1174 C1168 0.930 . S
H1175 C1172 0.930 . S
C1176 C1178 1.348 . S
C1176 C1179 1.356 . S
C1176 O1206 1.325 . S
N1177 C1180 1.314 . S
N1177 C1181 1.279 . S
C1178 C1176 1.348 . S
C1178 C1180 1.353 . S
C1178 H1220 0.929 . S
C1179 C1176 1.356 . S
C1179 C1181 1.358 . S
C1179 H1221 0.930 1_655 S
C1180 N1177 1.314 . S
C1180 C1178 1.353 . S
C1180 H1222 0.930 . S
C1181 N1177 1.279 . S
C1181 C1179 1.358 . S
C1181 H1223 1.005 . S
C1182 C1183 1.348 . S
C1182 C1184 1.356 . S
C1182 O1207 1.325 . S
C1183 C1182 1.348 . S
C1183 C1185 1.353 . S
C1183 H1224 0.929 . S
C1184 C1182 1.356 . S
C1184 C1186 1.358 . S
C1184 H1225 0.930 . S
C1185 C1183 1.353 . S
C1185 N1187 1.314 . S
C1185 H1226 0.930 . S
C1186 C1184 1.358 . S
C1186 N1187 1.279 . S
C1186 H1227 0.930 . S
N1187 C1185 1.314 . S
N1187 C1186 1.279 . S
C1188 C1190 1.353 . S
C1188 N1191 1.314 . S
C1188 H1194 0.930 . S
C1189 N1191 1.279 . S
C1189 C1192 1.358 . S
C1189 H1195 0.930 . S
C1190 C1188 1.353 . S
C1190 C1193 1.348 . S
C1190 H1228 0.929 . S
N1191 Li1146 1.990 . S
N1191 C1188 1.314 . S
N1191 C1189 1.279 . S
C1192 C1189 1.358 . S
C1192 C1193 1.356 . S
C1192 H1229 0.930 . S
C1193 C1190 1.348 . S
C1193 C1192 1.356 . S
H1194 C1188 0.930 . S
H1195 C1189 0.930 . S
C1196 N1197 1.314 . S
C1196 C1198 1.353 . S
C1196 H1202 0.930 . S
N1197 Li1147 1.990 . S
N1197 C1196 1.314 . S
N1197 C1200 1.279 . S
C1198 C1196 1.353 . S
C1198 C1201 1.348 . S
C1198 H1230 0.929 . S
C1199 C1200 1.358 . S
C1199 C1201 1.356 . S
C1199 H1231 0.930 . S
C1200 N1197 1.279 . S
C1200 C1199 1.358 . S
C1200 H1203 0.930 . S
C1201 C1198 1.348 . S
C1201 C1199 1.356 . S
H1202 C1196 0.930 . S
H1203 C1200 0.930 . S
O1204 Li1144 1.956 1_655 S
O1204 Li1145 1.970 . S
O1204 Li1146 1.961 . S
O1204 C1148 1.325 1_655 S
O1205 Li1144 1.970 1_655 S
O1205 Li1145 1.956 . S
O1205 Li1147 1.961 . S
O1205 C1154 1.325 . S
O1206 Li1144 1.961 1_655 S
O1206 Li1146 1.956 . S
O1206 Li1147 1.970 . S
O1206 C1176 1.325 . S
O1207 Li1145 1.961 . S
O1207 Li1146 1.970 . S
O1207 Li1147 1.956 . S
O1207 C1182 1.325 . S
H1208 C1150 0.929 . S
H1209 C1151 0.930 . S
H1210 C1152 0.930 . S
H1211 C1153 0.930 . S
H1212 C1155 0.930 . S
H1213 C1157 0.929 . S
H1214 C1158 0.930 . S
H1215 C1159 0.930 . S
H1216 C1162 0.930 . S
H1217 C1165 0.929 . S
H1218 C1170 0.929 . S
H1219 C1171 0.932 . S
H1220 C1178 0.929 . S
H1221 C1179 0.930 1_455 S
H1222 C1180 0.930 . S
H1223 C1181 1.005 . S
H1224 C1183 0.929 . S
H1225 C1184 0.930 . S
H1226 C1185 0.930 . S
H1227 C1186 0.930 . S
H1228 C1190 0.929 . S
H1229 C1192 0.930 . S
H1230 C1198 0.929 . S
H1231 C1199 0.930 . S
Li1232 N1249 1.990 . S
Li1232 O1292 1.956 . S
Li1232 O1293 1.970 . S
Li1232 O1294 1.961 . S
Li1233 N1257 1.990 . S
Li1233 O1292 1.970 . S
Li1233 O1293 1.956 . S
Li1233 O1295 1.961 . S
Li1234 N1279 1.990 . S
Li1234 O1292 1.961 . S
Li1234 O1294 1.956 . S
Li1234 O1295 1.970 . S
Li1235 N1285 1.990 . S
Li1235 O1293 1.961 . S
Li1235 O1294 1.970 . S
Li1235 O1295 1.956 . S
C1236 C1238 1.348 . S
C1236 C1239 1.356 . S
C1236 O1292 1.325 . S
N1237 C1240 1.314 . S
N1237 C1241 1.279 . S
C1238 C1236 1.348 . S
C1238 C1240 1.353 . S
C1238 H1296 0.929 . S
C1239 C1236 1.356 . S
C1239 C1241 1.358 . S
C1239 H1297 0.930 . S
C1240 N1237 1.314 . S
C1240 C1238 1.353 . S
C1240 H1298 0.930 . S
C1241 N1237 1.279 . S
C1241 C1239 1.358 . S
C1241 H1299 0.930 . S
C1242 C1245 1.348 . S
C1242 C1246 1.356 . S
C1242 O1293 1.325 . S
C1243 N1244 1.279 . S
C1243 C1246 1.358 . S
C1243 H1300 0.930 . S
N1244 C1243 1.279 . S
N1244 C1247 1.314 . S
C1245 C1242 1.348 . S
C1245 C1247 1.353 . S
C1245 H1301 0.929 . S
C1246 C1242 1.356 . S
C1246 C1243 1.358 . S
C1246 H1302 0.930 . S
C1247 N1244 1.314 . S
C1247 C1245 1.353 . S
C1247 H1303 0.930 . S
C1248 N1249 1.314 . S
C1248 C1253 1.353 . S
C1248 H1254 0.930 . S
N1249 Li1232 1.990 . S
N1249 C1248 1.314 . S
N1249 C1251 1.279 . S
C1250 C1251 1.358 . S
C1250 C1252 1.356 . S
C1250 H1304 0.930 . S
C1251 N1249 1.279 . S
C1251 C1250 1.358 . S
C1251 H1255 0.930 . S
C1252 C1250 1.356 . S
C1252 C1253 1.348 . S
C1253 C1248 1.353 . S
C1253 C1252 1.348 . S
C1253 H1305 0.929 . S
H1254 C1248 0.930 . S
H1255 C1251 0.930 . S
C1256 N1257 1.314 . S
C1256 C1258 1.353 . S
C1256 H1262 0.930 . S
N1257 Li1233 1.990 . S
N1257 C1256 1.314 . S
N1257 C1260 1.279 . S
C1258 C1256 1.353 . S
C1258 C1261 1.348 . S
C1258 H1306 0.929 . S
C1259 C1260 1.358 . S
C1259 C1261 1.356 . S
C1259 H1307 0.930 . S
C1260 N1257 1.279 . S
C1260 C1259 1.358 . S
C1260 H1263 0.930 . S
C1261 C1258 1.348 . S
C1261 C1259 1.356 . S
H1262 C1256 0.930 . S
H1263 C1260 0.930 . S
C1264 C1266 1.348 . S
C1264 C1267 1.356 . S
C1264 O1294 1.325 . S
N1265 C1268 1.314 . S
N1265 C1269 1.279 . S
C1266 C1264 1.348 . S
C1266 C1268 1.353 . S
C1266 H1308 0.929 . S
C1267 C1264 1.356 . S
C1267 C1269 1.358 . S
C1267 H1309 0.930 . S
C1268 N1265 1.314 . S
C1268 C1266 1.353 . S
C1268 H1310 0.930 . S
C1269 N1265 1.279 . S
C1269 C1267 1.358 . S
C1269 H1311 0.930 . S
C1270 C1271 1.348 . S
C1270 C1272 1.356 . S
C1270 O1295 1.325 . S
C1271 C1270 1.348 . S
C1271 C1273 1.353 . S
C1271 H1312 0.929 . S
C1272 C1270 1.356 . S
C1272 C1274 1.358 . S
C1272 H1313 0.930 . S
C1273 C1271 1.353 . S
C1273 N1275 1.314 . S
C1273 H1314 0.930 . S
C1274 C1272 1.358 . S
C1274 N1275 1.279 . S
C1274 H1315 0.930 . S
N1275 C1273 1.314 . S
N1275 C1274 1.279 . S
C1276 C1278 1.353 . S
C1276 N1279 1.314 . S
C1276 H1282 0.930 . S
C1277 N1279 1.279 . S
C1277 C1280 1.358 . S
C1277 H1283 0.930 . S
C1278 C1276 1.353 . S
C1278 C1281 1.348 . S
C1278 H1316 0.929 . S
N1279 Li1234 1.990 . S
N1279 C1276 1.314 . S
N1279 C1277 1.279 . S
C1280 C1277 1.358 . S
C1280 C1281 1.356 . S
C1280 H1317 0.930 . S
C1281 C1278 1.348 . S
C1281 C1280 1.356 . S
H1282 C1276 0.930 . S
H1283 C1277 0.930 . S
C1284 N1285 1.314 . S
C1284 C1286 1.353 . S
C1284 H1290 0.930 . S
N1285 Li1235 1.990 . S
N1285 C1284 1.314 . S
N1285 C1288 1.279 . S
C1286 C1284 1.353 . S
C1286 C1289 1.348 . S
C1286 H1318 0.929 . S
C1287 C1288 1.358 . S
C1287 C1289 1.356 . S
C1287 H1319 0.930 . S
C1288 N1285 1.279 . S
C1288 C1287 1.358 . S
C1288 H1291 0.930 . S
C1289 C1286 1.348 . S
C1289 C1287 1.356 . S
H1290 C1284 0.930 . S
H1291 C1288 0.930 . S
O1292 Li1232 1.956 . S
O1292 Li1233 1.970 . S
O1292 Li1234 1.961 . S
O1292 C1236 1.325 . S
O1293 Li1232 1.970 . S
O1293 Li1233 1.956 . S
O1293 Li1235 1.961 . S
O1293 C1242 1.325 . S
O1294 Li1232 1.961 . S
O1294 Li1234 1.956 . S
O1294 Li1235 1.970 . S
O1294 C1264 1.325 . S
O1295 Li1233 1.961 . S
O1295 Li1234 1.970 . S
O1295 Li1235 1.956 . S
O1295 C1270 1.325 . S
H1296 C1238 0.929 . S
H1297 C1239 0.930 . S
H1298 C1240 0.930 . S
H1299 C1241 0.930 . S
H1300 C1243 0.930 . S
H1301 C1245 0.929 . S
H1302 C1246 0.930 . S
H1303 C1247 0.930 . S
H1304 C1250 0.930 . S
H1305 C1253 0.929 . S
H1306 C1258 0.929 . S
H1307 C1259 0.930 . S
H1308 C1266 0.929 . S
H1309 C1267 0.930 . S
H1310 C1268 0.930 . S
H1311 C1269 0.930 . S
H1312 C1271 0.929 . S
H1313 C1272 0.930 . S
H1314 C1273 0.930 . S
H1315 C1274 0.930 . S
H1316 C1278 0.929 . S
H1317 C1280 0.930 . S
H1318 C1286 0.929 . S
H1319 C1287 0.930 . S
Li1320 N1337 1.990 . S
Li1320 O1380 1.956 . S
Li1320 O1381 1.970 . S
Li1320 O1382 1.961 . S
Li1321 N1345 1.990 . S
Li1321 O1380 1.970 . S
Li1321 O1381 1.956 . S
Li1321 O1383 1.961 . S
Li1322 N1367 1.990 . S
Li1322 O1380 1.961 . S
Li1322 O1382 1.956 . S
Li1322 O1383 1.970 . S
Li1323 N1373 1.990 . S
Li1323 O1381 1.961 . S
Li1323 O1382 1.970 . S
Li1323 O1383 1.956 . S
C1324 C1326 1.348 . S
C1324 C1327 1.356 . S
C1324 O1380 1.325 . S
N1325 C1328 1.314 . S
N1325 C1329 1.279 . S
C1326 C1324 1.348 . S
C1326 C1328 1.353 . S
C1326 H1384 0.929 . S
C1327 C1324 1.356 . S
C1327 C1329 1.358 . S
C1327 H1385 0.930 . S
C1328 N1325 1.314 . S
C1328 C1326 1.353 . S
C1328 H1386 0.930 . S
C1329 N1325 1.279 . S
C1329 C1327 1.358 . S
C1329 H1387 0.930 . S
C1330 C1333 1.348 . S
C1330 C1334 1.356 . S
C1330 O1381 1.325 . S
C1331 N1332 1.279 . S
C1331 C1334 1.358 . S
C1331 H1388 0.930 . S
N1332 C1331 1.279 . S
N1332 C1335 1.314 . S
C1333 C1330 1.348 . S
C1333 C1335 1.353 . S
C1333 H1389 0.929 . S
C1334 C1330 1.356 . S
C1334 C1331 1.358 . S
C1334 H1390 0.930 . S
C1335 N1332 1.314 . S
C1335 C1333 1.353 . S
C1335 H1391 0.930 . S
C1336 N1337 1.314 . S
C1336 C1341 1.353 . S
C1336 H1342 0.930 . S
N1337 Li1320 1.990 . S
N1337 C1336 1.314 . S
N1337 C1339 1.279 . S
C1338 C1339 1.358 . S
C1338 C1340 1.356 . S
C1338 H1392 0.930 . S
C1339 N1337 1.279 . S
C1339 C1338 1.358 . S
C1339 H1343 0.930 . S
C1340 C1338 1.356 . S
C1340 C1341 1.348 . S
C1341 C1336 1.353 . S
C1341 C1340 1.348 . S
C1341 H1393 0.929 . S
H1342 C1336 0.930 . S
H1343 C1339 0.930 . S
C1344 N1345 1.314 . S
C1344 C1346 1.353 . S
C1344 H1350 0.930 . S
N1345 Li1321 1.990 . S
N1345 C1344 1.314 . S
N1345 C1348 1.279 . S
C1346 C1344 1.353 . S
C1346 C1349 1.348 . S
C1346 H1394 0.929 . S
C1347 C1348 1.358 . S
C1347 C1349 1.356 . S
C1347 H1395 0.930 . S
C1348 N1345 1.279 . S
C1348 C1347 1.358 . S
C1348 H1351 0.930 . S
C1349 C1346 1.348 . S
C1349 C1347 1.356 . S
H1350 C1344 0.930 . S
H1351 C1348 0.930 . S
C1352 C1354 1.348 . S
C1352 C1355 1.356 . S
C1352 O1382 1.325 . S
N1353 C1356 1.314 . S
N1353 C1357 1.279 . S
C1354 C1352 1.348 . S
C1354 C1356 1.353 . S
C1354 H1396 0.929 . S
C1355 C1352 1.356 . S
C1355 C1357 1.358 . S
C1355 H1397 0.930 . S
C1356 N1353 1.314 . S
C1356 C1354 1.353 . S
C1356 H1398 0.930 . S
C1357 N1353 1.279 . S
C1357 C1355 1.358 . S
C1357 H1399 0.930 . S
C1358 C1359 1.348 . S
C1358 C1360 1.356 . S
C1358 O1383 1.325 . S
C1359 C1358 1.348 . S
C1359 C1361 1.353 . S
C1359 H1400 0.929 . S
C1360 C1358 1.356 . S
C1360 C1362 1.358 . S
C1360 H1401 0.930 . S
C1361 C1359 1.353 . S
C1361 N1363 1.314 . S
C1361 H1402 0.930 . S
C1362 C1360 1.358 . S
C1362 N1363 1.279 . S
C1362 H1403 0.930 . S
N1363 C1361 1.314 . S
N1363 C1362 1.279 . S
C1364 C1366 1.353 . S
C1364 N1367 1.314 . S
C1364 H1370 0.930 . S
C1365 N1367 1.279 . S
C1365 C1368 1.358 . S
C1365 H1371 0.930 . S
C1366 C1364 1.353 . S
C1366 C1369 1.348 . S
C1366 H1404 0.929 . S
N1367 Li1322 1.990 . S
N1367 C1364 1.314 . S
N1367 C1365 1.279 . S
C1368 C1365 1.358 . S
C1368 C1369 1.356 . S
C1368 H1405 0.930 . S
C1369 C1366 1.348 . S
C1369 C1368 1.356 . S
H1370 C1364 0.930 . S
H1371 C1365 0.930 . S
C1372 N1373 1.314 . S
C1372 C1374 1.353 . S
C1372 H1378 0.930 . S
N1373 Li1323 1.990 . S
N1373 C1372 1.314 . S
N1373 C1376 1.279 . S
C1374 C1372 1.353 . S
C1374 C1377 1.348 . S
C1374 H1406 0.929 . S
C1375 C1376 1.358 . S
C1375 C1377 1.356 . S
C1375 H1407 0.930 . S
C1376 N1373 1.279 . S
C1376 C1375 1.358 . S
C1376 H1379 0.930 . S
C1377 C1374 1.348 . S
C1377 C1375 1.356 . S
H1378 C1372 0.930 . S
H1379 C1376 0.930 . S
O1380 Li1320 1.956 . S
O1380 Li1321 1.970 . S
O1380 Li1322 1.961 . S
O1380 C1324 1.325 . S
O1381 Li1320 1.970 . S
O1381 Li1321 1.956 . S
O1381 Li1323 1.961 . S
O1381 C1330 1.325 . S
O1382 Li1320 1.961 . S
O1382 Li1322 1.956 . S
O1382 Li1323 1.970 . S
O1382 C1352 1.325 . S
O1383 Li1321 1.961 . S
O1383 Li1322 1.970 . S
O1383 Li1323 1.956 . S
O1383 C1358 1.325 . S
H1384 C1326 0.929 . S
H1385 C1327 0.930 . S
H1386 C1328 0.930 . S
H1387 C1329 0.930 . S
H1388 C1331 0.930 . S
H1389 C1333 0.929 . S
H1390 C1334 0.930 . S
H1391 C1335 0.930 . S
H1392 C1338 0.930 . S
H1393 C1341 0.929 . S
H1394 C1346 0.929 . S
H1395 C1347 0.930 . S
H1396 C1354 0.929 . S
H1397 C1355 0.930 . S
H1398 C1356 0.930 . S
H1399 C1357 0.930 . S
H1400 C1359 0.929 . S
H1401 C1360 0.930 . S
H1402 C1361 0.930 . S
H1403 C1362 0.930 . S
H1404 C1366 0.929 . S
H1405 C1368 0.930 . S
H1406 C1374 0.929 . S
H1407 C1375 0.930 . S
Li1408 N1425 1.990 . S
Li1408 O1468 1.956 . S
Li1408 O1469 1.970 . S
Li1408 O1470 1.961 . S
Li1409 N1433 1.990 . S
Li1409 O1468 1.970 . S
Li1409 O1469 1.956 . S
Li1409 O1471 1.961 . S
Li1410 N1455 1.990 . S
Li1410 O1468 1.961 . S
Li1410 O1470 1.956 . S
Li1410 O1471 1.970 . S
Li1411 N1461 1.922 1_545 S
Li1411 O1469 1.977 . S
Li1411 O1470 2.034 . S
Li1411 O1471 1.989 . S
C1412 C1414 1.348 . S
C1412 C1415 1.356 . S
C1412 O1468 1.325 . S
N1413 C1416 1.314 . S
N1413 C1417 1.279 . S
C1414 C1412 1.348 . S
C1414 C1416 1.353 . S
C1414 H1472 0.929 . S
C1415 C1412 1.356 . S
C1415 C1417 1.358 . S
C1415 H1473 0.930 . S
C1416 N1413 1.314 . S
C1416 C1414 1.353 . S
C1416 H1474 0.930 . S
C1417 N1413 1.279 . S
C1417 C1415 1.358 . S
C1417 H1475 0.930 . S
C1418 C1421 1.348 . S
C1418 C1422 1.356 . S
C1418 O1469 1.325 1_565 S
C1419 N1420 1.279 . S
C1419 C1422 1.358 . S
C1419 H1476 0.930 . S
N1420 C1419 1.279 . S
N1420 C1423 1.314 . S
C1421 C1418 1.348 . S
C1421 C1423 1.353 . S
C1421 H1477 0.998 . S
C1422 C1418 1.356 . S
C1422 C1419 1.358 . S
C1422 H1478 0.930 . S
C1423 N1420 1.314 . S
C1423 C1421 1.353 . S
C1423 H1479 0.930 . S
C1424 N1425 1.314 . S
C1424 C1429 1.353 . S
C1424 H1430 0.930 1_545 S
N1425 Li1408 1.990 . S
N1425 C1424 1.314 . S
N1425 C1427 1.279 . S
C1426 C1427 1.358 . S
C1426 C1428 1.356 . S
C1426 H1480 0.930 . S
C1427 N1425 1.279 . S
C1427 C1426 1.358 . S
C1427 H1431 0.930 . S
C1428 C1426 1.356 . S
C1428 C1429 1.348 . S
C1429 C1424 1.353 . S
C1429 C1428 1.348 . S
C1429 H1481 0.929 1_545 S
H1430 C1424 0.930 1_565 S
H1431 C1427 0.930 . S
C1432 N1433 1.314 . S
C1432 C1434 1.353 . S
C1432 H1438 0.930 . S
N1433 Li1409 1.990 . S
N1433 C1432 1.314 . S
N1433 C1436 1.279 . S
C1434 C1432 1.353 . S
C1434 C1437 1.348 . S
C1434 H1482 0.929 . S
C1435 C1436 1.358 . S
C1435 C1437 1.356 . S
C1435 H1483 0.930 . S
C1436 N1433 1.279 . S
C1436 C1435 1.358 . S
C1436 H1439 0.930 . S
C1437 C1434 1.348 . S
C1437 C1435 1.356 . S
H1438 C1432 0.930 . S
H1439 C1436 0.930 . S
C1440 C1442 1.348 1_545 S
C1440 C1443 1.356 . S
C1440 O1470 1.325 . S
N1441 C1444 1.314 1_545 S
N1441 C1445 1.279 . S
C1442 C1440 1.348 1_565 S
C1442 C1444 1.353 . S
C1442 H1484 0.929 . S
C1443 C1440 1.356 . S
C1443 C1445 1.358 . S
C1443 H1485 0.930 . S
C1444 N1441 1.314 1_565 S
C1444 C1442 1.353 . S
C1444 H1486 0.930 . S
C1445 N1441 1.279 . S
C1445 C1443 1.358 . S
C1445 H1487 0.930 . S
C1446 C1447 1.348 . S
C1446 C1448 1.356 . S
C1446 O1471 1.325 . S
C1447 C1446 1.348 . S
C1447 C1449 1.353 . S
C1447 H1488 0.929 . S
C1448 C1446 1.356 . S
C1448 C1450 1.358 . S
C1448 H1489 0.930 . S
C1449 C1447 1.353 . S
C1449 N1451 1.314 . S
C1449 H1490 0.930 . S
C1450 C1448 1.358 . S
C1450 N1451 1.279 . S
C1450 H1491 0.930 . S
N1451 C1449 1.314 . S
N1451 C1450 1.279 . S
C1452 C1454 1.353 . S
C1452 N1455 1.314 . S
C1452 H1458 0.930 . S
C1453 N1455 1.279 . S
C1453 C1456 1.358 . S
C1453 H1459 0.930 . S
C1454 C1452 1.353 . S
C1454 C1457 1.348 . S
C1454 H1492 0.929 . S
N1455 Li1410 1.990 . S
N1455 C1452 1.314 . S
N1455 C1453 1.279 . S
C1456 C1453 1.358 . S
C1456 C1457 1.356 . S
C1456 H1493 0.930 . S
C1457 C1454 1.348 . S
C1457 C1456 1.356 . S
H1458 C1452 0.930 . S
H1459 C1453 0.930 . S
C1460 N1461 1.314 . S
C1460 C1462 1.353 . S
C1460 H1466 0.930 . S
N1461 Li1411 1.922 1_565 S
N1461 C1460 1.314 . S
N1461 C1464 1.279 . S
C1462 C1460 1.353 . S
C1462 C1465 1.348 . S
C1462 H1494 0.929 . S
C1463 C1464 1.358 . S
C1463 C1465 1.356 . S
C1463 H1495 0.930 . S
C1464 N1461 1.279 . S
C1464 C1463 1.358 . S
C1464 H1467 0.930 . S
C1465 C1462 1.348 . S
C1465 C1463 1.356 . S
H1466 C1460 0.930 . S
H1467 C1464 0.930 . S
O1468 Li1408 1.956 . S
O1468 Li1409 1.970 . S
O1468 Li1410 1.961 . S
O1468 C1412 1.325 . S
O1469 Li1408 1.970 . S
O1469 Li1409 1.956 . S
O1469 Li1411 1.977 . S
O1469 C1418 1.325 1_545 S
O1470 Li1408 1.961 . S
O1470 Li1410 1.956 . S
O1470 Li1411 2.034 . S
O1470 C1440 1.325 . S
O1471 Li1409 1.961 . S
O1471 Li1410 1.970 . S
O1471 Li1411 1.989 . S
O1471 C1446 1.325 . S
H1472 C1414 0.929 . S
H1473 C1415 0.930 . S
H1474 C1416 0.930 . S
H1475 C1417 0.930 . S
H1476 C1419 0.930 . S
H1477 C1421 0.998 . S
H1478 C1422 0.930 . S
H1479 C1423 0.930 . S
H1480 C1426 0.930 . S
H1481 C1429 0.929 1_565 S
H1482 C1434 0.929 . S
H1483 C1435 0.930 . S
H1484 C1442 0.929 . S
H1485 C1443 0.930 . S
H1486 C1444 0.930 . S
H1487 C1445 0.930 . S
H1488 C1447 0.929 . S
H1489 C1448 0.930 . S
H1490 C1449 0.930 . S
H1491 C1450 0.930 . S
H1492 C1454 0.929 . S
H1493 C1456 0.930 . S
H1494 C1462 0.929 . S
H1495 C1463 0.930 . S
Li1496 N1513 1.990 . S
Li1496 O1556 1.956 . S
Li1496 O1557 1.970 . S
Li1496 O1558 1.961 . S
Li1497 N1521 1.990 . S
Li1497 O1556 1.970 . S
Li1497 O1557 1.956 . S
Li1497 O1559 1.961 . S
Li1498 N1543 1.990 1_655 S
Li1498 O1556 1.961 . S
Li1498 O1558 1.956 . S
Li1498 O1559 1.970 . S
Li1499 N1549 1.990 . S
Li1499 O1557 1.961 . S
Li1499 O1558 1.970 . S
Li1499 O1559 1.956 . S
C1500 C1502 1.348 . S
C1500 C1503 1.356 . S
C1500 O1556 1.325 1_455 S
N1501 C1504 1.314 . S
N1501 C1505 1.279 . S
C1502 C1500 1.348 . S
C1502 C1504 1.353 . S
C1502 H1560 0.921 1_455 S
C1503 C1500 1.356 . S
C1503 C1505 1.358 . S
C1503 H1561 0.930 . S
C1504 N1501 1.314 . S
C1504 C1502 1.353 . S
C1504 H1562 0.930 . S
C1505 N1501 1.279 . S
C1505 C1503 1.358 . S
C1505 H1563 0.930 . S
C1506 C1509 1.348 . S
C1506 C1510 1.356 . S
C1506 O1557 1.325 . S
C1507 N1508 1.279 . S
C1507 C1510 1.358 . S
C1507 H1564 0.930 . S
N1508 C1507 1.279 . S
N1508 C1511 1.314 . S
C1509 C1506 1.348 . S
C1509 C1511 1.353 . S
C1509 H1565 0.929 . S
C1510 C1506 1.356 . S
C1510 C1507 1.358 . S
C1510 H1566 0.930 . S
C1511 N1508 1.314 . S
C1511 C1509 1.353 . S
C1511 H1567 0.930 . S
C1512 N1513 1.314 . S
C1512 C1517 1.353 . S
C1512 H1518 0.930 . S
N1513 Li1496 1.990 . S
N1513 C1512 1.314 . S
N1513 C1515 1.279 . S
C1514 C1515 1.358 . S
C1514 C1516 1.356 . S
C1514 H1568 0.930 . S
C1515 N1513 1.279 . S
C1515 C1514 1.358 . S
C1515 H1519 0.930 . S
C1516 C1514 1.356 . S
C1516 C1517 1.348 . S
C1517 C1512 1.353 . S
C1517 C1516 1.348 . S
C1517 H1569 0.929 . S
H1518 C1512 0.930 . S
H1519 C1515 0.930 . S
C1520 N1521 1.314 . S
C1520 C1522 1.353 . S
C1520 H1526 0.908 1_655 S
N1521 Li1497 1.990 . S
N1521 C1520 1.314 . S
N1521 C1524 1.279 . S
C1522 C1520 1.353 . S
C1522 C1525 1.348 . S
C1522 H1570 0.929 1_655 S
C1523 C1524 1.358 . S
C1523 C1525 1.356 . S
C1523 H1571 0.930 . S
C1524 N1521 1.279 . S
C1524 C1523 1.358 . S
C1524 H1527 0.930 . S
C1525 C1522 1.348 . S
C1525 C1523 1.356 . S
H1526 C1520 0.908 1_455 S
H1527 C1524 0.930 . S
C1528 C1530 1.348 . S
C1528 C1531 1.356 . S
C1528 O1558 1.325 . S
N1529 C1532 1.314 . S
N1529 C1533 1.279 . S
C1530 C1528 1.348 . S
C1530 C1532 1.353 . S
C1530 H1572 0.929 . S
C1531 C1528 1.356 . S
C1531 C1533 1.358 . S
C1531 H1573 0.930 . S
C1532 N1529 1.314 . S
C1532 C1530 1.353 . S
C1532 H1574 0.930 . S
C1533 N1529 1.279 . S
C1533 C1531 1.358 . S
C1533 H1575 0.930 . S
C1534 C1535 1.341 1_655 S
C1534 C1536 1.356 . S
C1534 O1559 1.325 . S
C1535 C1534 1.341 1_455 S
C1535 C1537 1.360 . S
C1535 H1576 0.929 . S
C1536 C1534 1.356 . S
C1536 C1538 1.358 . S
C1536 H1577 0.930 . S
C1537 C1535 1.360 . S
C1537 N1539 1.314 1_455 S
C1537 H1578 0.930 . S
C1538 C1536 1.358 . S
C1538 N1539 1.279 . S
C1538 H1579 0.930 . S
N1539 C1537 1.314 1_655 S
N1539 C1538 1.279 . S
C1540 C1542 1.353 . S
C1540 N1543 1.314 . S
C1540 H1546 0.930 . S
C1541 N1543 1.279 . S
C1541 C1544 1.358 . S
C1541 H1547 0.930 . S
C1542 C1540 1.353 . S
C1542 C1545 1.348 . S
C1542 H1580 0.929 . S
N1543 Li1498 1.990 1_455 S
N1543 C1540 1.314 . S
N1543 C1541 1.279 . S
C1544 C1541 1.358 . S
C1544 C1545 1.356 . S
C1544 H1581 0.930 . S
C1545 C1542 1.348 . S
C1545 C1544 1.356 . S
H1546 C1540 0.930 . S
H1547 C1541 0.930 . S
C1548 N1549 1.314 . S
C1548 C1550 1.353 . S
C1548 H1554 0.930 . S
N1549 Li1499 1.990 . S
N1549 C1548 1.314 . S
N1549 C1552 1.279 . S
C1550 C1548 1.353 . S
C1550 C1553 1.348 . S
C1550 H1582 0.929 . S
C1551 C1552 1.358 . S
C1551 C1553 1.356 . S
C1551 H1583 0.930 . S
C1552 N1549 1.279 . S
C1552 C1551 1.358 . S
C1552 H1555 0.930 . S
C1553 C1550 1.348 . S
C1553 C1551 1.356 . S
H1554 C1548 0.930 . S
H1555 C1552 0.930 . S
O1556 Li1496 1.956 . S
O1556 Li1497 1.970 . S
O1556 Li1498 1.961 . S
O1556 C1500 1.325 1_655 S
O1557 Li1496 1.970 . S
O1557 Li1497 1.956 . S
O1557 Li1499 1.961 . S
O1557 C1506 1.325 . S
O1558 Li1496 1.961 . S
O1558 Li1498 1.956 . S
O1558 Li1499 1.970 . S
O1558 C1528 1.325 . S
O1559 Li1497 1.961 . S
O1559 Li1498 1.970 . S
O1559 Li1499 1.956 . S
O1559 C1534 1.325 . S
H1560 C1502 0.921 1_655 S
H1561 C1503 0.930 . S
H1562 C1504 0.930 . S
H1563 C1505 0.930 . S
H1564 C1507 0.930 . S
H1565 C1509 0.929 . S
H1566 C1510 0.930 . S
H1567 C1511 0.930 . S
H1568 C1514 0.930 . S
H1569 C1517 0.929 . S
H1570 C1522 0.929 1_455 S
H1571 C1523 0.930 . S
H1572 C1530 0.929 . S
H1573 C1531 0.930 . S
H1574 C1532 0.930 . S
H1575 C1533 0.930 . S
H1576 C1535 0.929 . S
H1577 C1536 0.930 . S
H1578 C1537 0.930 . S
H1579 C1538 0.930 . S
H1580 C1542 0.929 . S
H1581 C1544 0.930 . S
H1582 C1550 0.929 . S
H1583 C1551 0.930 . S
C1584 C1585 1.560 . S
C1584 H1645 0.959 . S
C1584 H1646 0.959 . S
C1584 H1647 0.960 . S
C1585 C1584 1.560 . S
C1585 O1640 1.426 . S
C1585 H1644 0.980 . S
C1586 C1587 1.407 . S
C1586 C1591 1.418 . S
C1586 O1640 1.334 . S
C1587 C1586 1.407 . S
C1587 C1588 1.360 . S
C1587 H1648 0.929 . S
C1588 C1587 1.360 . S
C1588 C1589 1.401 . S
C1588 C1592 1.527 . S
C1589 C1588 1.401 . S
C1589 C1590 1.405 . S
C1589 C1622 1.587 . S
C1590 C1589 1.405 . S
C1590 C1591 1.332 . S
C1590 C1593 1.496 . S
C1591 C1586 1.418 . S
C1591 C1590 1.332 . S
C1591 H1649 0.929 . S
C1592 C1588 1.527 . S
C1592 H1650 0.959 . S
C1592 H1651 0.961 . S
C1592 H1652 0.961 . S
C1593 C1590 1.496 . S
C1593 H1653 0.960 . S
C1593 H1654 0.960 . S
C1593 H1655 0.961 . S
C1594 C1595 1.517 . S
C1594 H1657 0.961 . S
C1594 H1658 0.960 . S
C1594 H1659 0.959 . S
C1595 C1594 1.517 . S
C1595 O1643 1.468 . S
C1595 H1656 0.980 . S
C1596 C1597 1.349 . S
C1596 C1601 1.367 . S
C1596 O1643 1.408 . S
C1597 C1596 1.349 . S
C1597 C1598 1.407 . S
C1597 H1660 0.930 . S
C1598 C1597 1.407 . S
C1598 C1599 1.449 . S
C1598 C1602 1.535 . S
C1599 C1598 1.449 . S
C1599 C1600 1.384 . S
C1599 C1624 1.553 . S
C1600 C1599 1.384 . S
C1600 C1601 1.364 . S
C1600 C1603 1.450 . S
C1601 C1596 1.367 . S
C1601 C1600 1.364 . S
C1601 H1661 0.931 . S
C1602 C1598 1.535 . S
C1602 H1662 0.959 . S
C1602 H1663 0.961 . S
C1602 H1664 0.959 . S
C1603 C1600 1.450 . S
C1603 H1665 0.960 . S
C1603 H1666 0.960 . S
C1603 H1667 0.960 . S
C1604 C1605 1.309 . S
C1604 C1609 1.304 . S
C1604 O1642 1.435 . S
C1605 C1604 1.309 . S
C1605 C1606 1.476 . S
C1605 H1669 0.930 . S
C1606 C1605 1.476 . S
C1606 C1607 1.400 . S
C1606 C1610 1.567 . S
C1607 C1606 1.400 . S
C1607 C1608 1.373 . S
C1607 C1629 1.432 . S
C1608 C1607 1.373 . S
C1608 C1609 1.339 . S
C1608 C1611 1.530 . S
C1609 C1604 1.304 . S
C1609 C1608 1.339 . S
C1609 H1670 0.930 . S
C1610 C1606 1.567 . S
C1610 H1671 0.961 . S
C1610 H1672 0.960 . S
C1610 H1673 0.958 . S
C1611 C1608 1.530 . S
C1611 H1674 0.961 . S
C1611 H1675 0.960 . S
C1611 H1676 0.960 . S
C1612 C1613 1.530 . S
C1612 H1678 0.961 . S
C1612 H1679 0.961 . S
C1612 H1680 0.959 . S
C1613 C1612 1.530 . S
C1613 O1641 1.412 . S
C1613 H1677 0.980 . S
C1614 C1615 1.288 . S
C1614 C1619 1.377 . S
C1614 O1641 1.393 . S
C1615 C1614 1.288 . S
C1615 C1616 1.369 . S
C1615 H1681 0.932 . S
C1616 C1615 1.369 . S
C1616 C1617 1.398 . S
C1616 C1620 1.527 . S
C1617 C1616 1.398 . S
C1617 C1618 1.380 . S
C1617 C1631 1.497 . S
C1618 C1617 1.380 . S
C1618 C1619 1.383 . S
C1618 C1621 1.603 . S
C1619 C1614 1.377 . S
C1619 C1618 1.383 . S
C1619 H1682 0.929 . S
C1620 C1616 1.527 . S
C1620 H1683 0.961 . S
C1620 H1684 0.959 . S
C1620 H1685 0.959 . S
C1621 C1618 1.603 . S
C1621 H1686 0.960 . S
C1621 H1687 0.962 . S
C1621 H1688 0.961 . S
C1622 C1589 1.587 . S
C1622 C1623 1.360 . S
C1622 C1635 1.412 . S
C1623 C1622 1.360 . S
C1623 C1624 1.365 . S
C1623 H1689 0.929 . S
C1624 C1599 1.553 . S
C1624 C1623 1.365 . S
C1624 C1625 1.404 . S
C1625 C1624 1.404 . S
C1625 C1626 1.395 . S
C1625 C1636 1.451 . S
C1626 C1625 1.395 . S
C1626 C1627 1.322 . S
C1626 H1690 0.930 . S
C1627 C1626 1.322 . S
C1627 C1628 1.459 . S
C1627 H1691 0.929 . S
C1628 C1627 1.459 . S
C1628 C1629 1.445 . S
C1628 C1637 1.395 . S
C1629 C1607 1.432 . S
C1629 C1628 1.445 . S
C1629 C1630 1.370 . S
C1630 C1629 1.370 . S
C1630 C1631 1.438 . S
C1630 H1692 0.930 . S
C1631 C1617 1.497 . S
C1631 C1630 1.438 . S
C1631 C1632 1.360 . S
C1632 C1631 1.360 . S
C1632 C1633 1.401 . S
C1632 C1637 1.446 . S
C1633 C1632 1.401 . S
C1633 C1634 1.347 . S
C1633 H1693 0.929 . S
C1634 C1633 1.347 . S
C1634 C1635 1.455 . S
C1634 H1694 0.930 . S
C1635 C1622 1.412 . S
C1635 C1634 1.455 . S
C1635 C1636 1.331 . S
C1636 C1625 1.451 . S
C1636 C1635 1.331 . S
C1636 C1637 1.497 . S
C1637 C1628 1.395 . S
C1637 C1632 1.446 . S
C1637 C1636 1.497 . S
C1638 C1639 1.582 . S
C1638 H1695 0.962 . S
C1638 H1696 0.959 . S
C1638 H1697 0.958 . S
C1639 C1638 1.582 . S
C1639 O1642 1.458 . S
C1639 H1668 0.980 . S
O1640 C1585 1.426 . S
O1640 C1586 1.334 . S
O1641 C1613 1.412 . S
O1641 C1614 1.393 . S
O1642 C1604 1.435 . S
O1642 C1639 1.458 . S
O1643 C1595 1.468 . S
O1643 C1596 1.408 . S
H1644 C1585 0.980 . S
H1645 C1584 0.959 . S
H1646 C1584 0.959 . S
H1647 C1584 0.960 . S
H1648 C1587 0.929 . S
H1649 C1591 0.929 . S
H1650 C1592 0.959 . S
H1651 C1592 0.961 . S
H1652 C1592 0.961 . S
H1653 C1593 0.960 . S
H1654 C1593 0.960 . S
H1655 C1593 0.961 . S
H1656 C1595 0.980 . S
H1657 C1594 0.961 . S
H1658 C1594 0.960 . S
H1659 C1594 0.959 . S
H1660 C1597 0.930 . S
H1661 C1601 0.931 . S
H1662 C1602 0.959 . S
H1663 C1602 0.961 . S
H1664 C1602 0.959 . S
H1665 C1603 0.960 . S
H1666 C1603 0.960 . S
H1667 C1603 0.960 . S
H1668 C1639 0.980 . S
H1669 C1605 0.930 . S
H1670 C1609 0.930 . S
H1671 C1610 0.961 . S
H1672 C1610 0.960 . S
H1673 C1610 0.958 . S
H1674 C1611 0.961 . S
H1675 C1611 0.960 . S
H1676 C1611 0.960 . S
H1677 C1613 0.980 . S
H1678 C1612 0.961 . S
H1679 C1612 0.961 . S
H1680 C1612 0.959 . S
H1681 C1615 0.932 . S
H1682 C1619 0.929 . S
H1683 C1620 0.961 . S
H1684 C1620 0.959 . S
H1685 C1620 0.959 . S
H1686 C1621 0.960 . S
H1687 C1621 0.962 . S
H1688 C1621 0.961 . S
H1689 C1623 0.929 . S
H1690 C1626 0.930 . S
H1691 C1627 0.929 . S
H1692 C1630 0.930 . S
H1693 C1633 0.929 . S
H1694 C1634 0.930 . S
H1695 C1638 0.962 . S
H1696 C1638 0.959 . S
H1697 C1638 0.958 . S
C1698 C1699 1.560 . S
C1698 H1759 0.959 . S
C1698 H1760 0.959 . S
C1698 H1761 0.960 . S
C1699 C1698 1.560 . S
C1699 O1754 1.426 . S
C1699 H1758 0.980 . S
C1700 C1701 1.407 . S
C1700 C1705 1.418 . S
C1700 O1754 1.334 . S
C1701 C1700 1.407 . S
C1701 C1702 1.360 . S
C1701 H1762 0.929 . S
C1702 C1701 1.360 . S
C1702 C1703 1.401 . S
C1702 C1706 1.527 . S
C1703 C1702 1.401 . S
C1703 C1704 1.405 . S
C1703 C1736 1.587 . S
C1704 C1703 1.405 . S
C1704 C1705 1.332 . S
C1704 C1707 1.496 . S
C1705 C1700 1.418 . S
C1705 C1704 1.332 . S
C1705 H1763 0.929 . S
C1706 C1702 1.527 . S
C1706 H1764 0.959 . S
C1706 H1765 0.961 . S
C1706 H1766 0.961 . S
C1707 C1704 1.496 . S
C1707 H1767 0.960 . S
C1707 H1768 0.960 . S
C1707 H1769 0.961 . S
C1708 C1709 1.517 . S
C1708 H1771 0.961 . S
C1708 H1772 0.960 . S
C1708 H1773 0.959 . S
C1709 C1708 1.517 . S
C1709 O1757 1.468 . S
C1709 H1770 0.980 . S
C1710 C1711 1.349 . S
C1710 C1715 1.367 . S
C1710 O1757 1.408 . S
C1711 C1710 1.349 . S
C1711 C1712 1.407 . S
C1711 H1774 0.930 . S
C1712 C1711 1.407 . S
C1712 C1713 1.449 . S
C1712 C1716 1.535 . S
C1713 C1712 1.449 . S
C1713 C1714 1.384 . S
C1713 C1738 1.553 . S
C1714 C1713 1.384 . S
C1714 C1715 1.364 . S
C1714 C1717 1.450 . S
C1715 C1710 1.367 . S
C1715 C1714 1.364 . S
C1715 H1775 0.931 . S
C1716 C1712 1.535 . S
C1716 H1776 0.959 . S
C1716 H1777 0.961 . S
C1716 H1778 0.959 . S
C1717 C1714 1.450 . S
C1717 H1779 0.960 . S
C1717 H1780 0.960 . S
C1717 H1781 0.960 . S
C1718 C1719 1.309 . S
C1718 C1723 1.304 . S
C1718 O1756 1.435 . S
C1719 C1718 1.309 . S
C1719 C1720 1.476 . S
C1719 H1783 0.930 . S
C1720 C1719 1.476 . S
C1720 C1721 1.400 . S
C1720 C1724 1.567 . S
C1721 C1720 1.400 . S
C1721 C1722 1.373 . S
C1721 C1743 1.432 . S
C1722 C1721 1.373 . S
C1722 C1723 1.339 . S
C1722 C1725 1.530 . S
C1723 C1718 1.304 . S
C1723 C1722 1.339 . S
C1723 H1784 0.930 . S
C1724 C1720 1.567 . S
C1724 H1785 0.961 . S
C1724 H1786 0.960 . S
C1724 H1787 0.958 . S
C1725 C1722 1.530 . S
C1725 H1788 0.961 . S
C1725 H1789 0.960 . S
C1725 H1790 0.960 . S
C1726 C1727 1.530 . S
C1726 H1792 0.961 . S
C1726 H1793 0.961 . S
C1726 H1794 0.959 . S
C1727 C1726 1.530 . S
C1727 O1755 1.412 . S
C1727 H1791 0.980 . S
C1728 C1729 1.288 . S
C1728 C1733 1.377 . S
C1728 O1755 1.393 . S
C1729 C1728 1.288 . S
C1729 C1730 1.369 . S
C1729 H1795 0.932 . S
C1730 C1729 1.369 . S
C1730 C1731 1.398 . S
C1730 C1734 1.527 . S
C1731 C1730 1.398 . S
C1731 C1732 1.380 . S
C1731 C1745 1.497 . S
C1732 C1731 1.380 . S
C1732 C1733 1.383 . S
C1732 C1735 1.603 . S
C1733 C1728 1.377 . S
C1733 C1732 1.383 . S
C1733 H1796 0.929 . S
C1734 C1730 1.527 . S
C1734 H1797 0.961 . S
C1734 H1798 0.959 . S
C1734 H1799 0.959 . S
C1735 C1732 1.603 . S
C1735 H1800 0.960 . S
C1735 H1801 0.962 . S
C1735 H1802 0.961 . S
C1736 C1703 1.587 . S
C1736 C1737 1.360 . S
C1736 C1749 1.412 . S
C1737 C1736 1.360 . S
C1737 C1738 1.365 . S
C1737 H1803 0.929 . S
C1738 C1713 1.553 . S
C1738 C1737 1.365 . S
C1738 C1739 1.404 . S
C1739 C1738 1.404 . S
C1739 C1740 1.395 . S
C1739 C1750 1.451 . S
C1740 C1739 1.395 . S
C1740 C1741 1.322 . S
C1740 H1804 0.930 . S
C1741 C1740 1.322 . S
C1741 C1742 1.459 . S
C1741 H1805 0.929 . S
C1742 C1741 1.459 . S
C1742 C1743 1.445 . S
C1742 C1751 1.395 . S
C1743 C1721 1.432 . S
C1743 C1742 1.445 . S
C1743 C1744 1.370 . S
C1744 C1743 1.370 . S
C1744 C1745 1.438 . S
C1744 H1806 0.930 . S
C1745 C1731 1.497 . S
C1745 C1744 1.438 . S
C1745 C1746 1.360 . S
C1746 C1745 1.360 . S
C1746 C1747 1.401 . S
C1746 C1751 1.446 . S
C1747 C1746 1.401 . S
C1747 C1748 1.347 . S
C1747 H1807 0.929 . S
C1748 C1747 1.347 . S
C1748 C1749 1.455 . S
C1748 H1808 0.930 . S
C1749 C1736 1.412 . S
C1749 C1748 1.455 . S
C1749 C1750 1.331 . S
C1750 C1739 1.451 . S
C1750 C1749 1.331 . S
C1750 C1751 1.497 . S
C1751 C1742 1.395 . S
C1751 C1746 1.446 . S
C1751 C1750 1.497 . S
C1752 C1753 1.582 . S
C1752 H1809 0.962 . S
C1752 H1810 0.959 . S
C1752 H1811 0.958 . S
C1753 C1752 1.582 . S
C1753 O1756 1.458 . S
C1753 H1782 0.980 . S
O1754 C1699 1.426 . S
O1754 C1700 1.334 . S
O1755 C1727 1.412 . S
O1755 C1728 1.393 . S
O1756 C1718 1.435 . S
O1756 C1753 1.458 . S
O1757 C1709 1.468 . S
O1757 C1710 1.408 . S
H1758 C1699 0.980 . S
H1759 C1698 0.959 . S
H1760 C1698 0.959 . S
H1761 C1698 0.960 . S
H1762 C1701 0.929 . S
H1763 C1705 0.929 . S
H1764 C1706 0.959 . S
H1765 C1706 0.961 . S
H1766 C1706 0.961 . S
H1767 C1707 0.960 . S
H1768 C1707 0.960 . S
H1769 C1707 0.961 . S
H1770 C1709 0.980 . S
H1771 C1708 0.961 . S
H1772 C1708 0.960 . S
H1773 C1708 0.959 . S
H1774 C1711 0.930 . S
H1775 C1715 0.931 . S
H1776 C1716 0.959 . S
H1777 C1716 0.961 . S
H1778 C1716 0.959 . S
H1779 C1717 0.960 . S
H1780 C1717 0.960 . S
H1781 C1717 0.960 . S
H1782 C1753 0.980 . S
H1783 C1719 0.930 . S
H1784 C1723 0.930 . S
H1785 C1724 0.961 . S
H1786 C1724 0.960 . S
H1787 C1724 0.958 . S
H1788 C1725 0.961 . S
H1789 C1725 0.960 . S
H1790 C1725 0.960 . S
H1791 C1727 0.980 . S
H1792 C1726 0.961 . S
H1793 C1726 0.961 . S
H1794 C1726 0.959 . S
H1795 C1729 0.932 . S
H1796 C1733 0.929 . S
H1797 C1734 0.961 . S
H1798 C1734 0.959 . S
H1799 C1734 0.959 . S
H1800 C1735 0.960 . S
H1801 C1735 0.962 . S
H1802 C1735 0.961 . S
H1803 C1737 0.929 . S
H1804 C1740 0.930 . S
H1805 C1741 0.929 . S
H1806 C1744 0.930 . S
H1807 C1747 0.929 . S
H1808 C1748 0.930 . S
H1809 C1752 0.962 . S
H1810 C1752 0.959 . S
H1811 C1752 0.958 . S
C1812 C1813 1.560 . S
C1812 H1873 0.959 . S
C1812 H1874 0.959 . S
C1812 H1875 0.960 . S
C1813 C1812 1.560 . S
C1813 O1868 1.426 . S
C1813 H1872 0.980 . S
C1814 C1815 1.407 . S
C1814 C1819 1.418 . S
C1814 O1868 1.334 . S
C1815 C1814 1.407 . S
C1815 C1816 1.360 . S
C1815 H1876 0.929 . S
C1816 C1815 1.360 . S
C1816 C1817 1.401 . S
C1816 C1820 1.527 . S
C1817 C1816 1.401 . S
C1817 C1818 1.405 . S
C1817 C1850 1.587 . S
C1818 C1817 1.405 . S
C1818 C1819 1.332 . S
C1818 C1821 1.496 . S
C1819 C1814 1.418 . S
C1819 C1818 1.332 . S
C1819 H1877 0.929 . S
C1820 C1816 1.527 . S
C1820 H1878 0.959 . S
C1820 H1879 0.961 . S
C1820 H1880 0.961 . S
C1821 C1818 1.496 . S
C1821 H1881 0.960 . S
C1821 H1882 0.960 . S
C1821 H1883 0.961 . S
C1822 C1823 1.517 . S
C1822 H1885 0.961 . S
C1822 H1886 0.960 . S
C1822 H1887 0.959 . S
C1823 C1822 1.517 . S
C1823 O1871 1.468 . S
C1823 H1884 0.980 . S
C1824 C1825 1.349 . S
C1824 C1829 1.367 . S
C1824 O1871 1.408 . S
C1825 C1824 1.349 . S
C1825 C1826 1.407 . S
C1825 H1888 0.930 . S
C1826 C1825 1.407 . S
C1826 C1827 1.449 . S
C1826 C1830 1.535 . S
C1827 C1826 1.449 . S
C1827 C1828 1.384 . S
C1827 C1852 1.553 . S
C1828 C1827 1.384 . S
C1828 C1829 1.364 . S
C1828 C1831 1.450 . S
C1829 C1824 1.367 . S
C1829 C1828 1.364 . S
C1829 H1889 0.931 . S
C1830 C1826 1.535 . S
C1830 H1890 0.959 . S
C1830 H1891 0.961 . S
C1830 H1892 0.959 . S
C1831 C1828 1.450 . S
C1831 H1893 0.960 . S
C1831 H1894 0.960 . S
C1831 H1895 0.960 . S
C1832 C1833 1.309 . S
C1832 C1837 1.304 . S
C1832 O1870 1.435 . S
C1833 C1832 1.309 . S
C1833 C1834 1.476 . S
C1833 H1897 0.930 . S
C1834 C1833 1.476 . S
C1834 C1835 1.400 . S
C1834 C1838 1.567 . S
C1835 C1834 1.400 . S
C1835 C1836 1.373 . S
C1835 C1857 1.432 . S
C1836 C1835 1.373 . S
C1836 C1837 1.339 . S
C1836 C1839 1.530 . S
C1837 C1832 1.304 . S
C1837 C1836 1.339 . S
C1837 H1898 0.930 . S
C1838 C1834 1.567 . S
C1838 H1899 0.961 . S
C1838 H1900 0.960 . S
C1838 H1901 0.958 . S
C1839 C1836 1.530 . S
C1839 H1902 0.961 . S
C1839 H1903 0.960 . S
C1839 H1904 0.960 . S
C1840 C1841 1.530 . S
C1840 H1906 0.961 . S
C1840 H1907 0.961 . S
C1840 H1908 0.959 . S
C1841 C1840 1.530 . S
C1841 O1869 1.412 . S
C1841 H1905 0.980 . S
C1842 C1843 1.288 . S
C1842 C1847 1.377 . S
C1842 O1869 1.393 . S
C1843 C1842 1.288 . S
C1843 C1844 1.369 . S
C1843 H1909 0.932 . S
C1844 C1843 1.369 . S
C1844 C1845 1.398 . S
C1844 C1848 1.527 . S
C1845 C1844 1.398 . S
C1845 C1846 1.380 . S
C1845 C1859 1.497 . S
C1846 C1845 1.380 . S
C1846 C1847 1.383 . S
C1846 C1849 1.603 . S
C1847 C1842 1.377 . S
C1847 C1846 1.383 . S
C1847 H1910 0.929 . S
C1848 C1844 1.527 . S
C1848 H1911 0.961 . S
C1848 H1912 0.959 . S
C1848 H1913 0.959 . S
C1849 C1846 1.603 . S
C1849 H1914 0.960 . S
C1849 H1915 0.962 . S
C1849 H1916 0.961 . S
C1850 C1817 1.587 . S
C1850 C1851 1.360 . S
C1850 C1863 1.412 . S
C1851 C1850 1.360 . S
C1851 C1852 1.365 . S
C1851 H1917 0.929 . S
C1852 C1827 1.553 . S
C1852 C1851 1.365 . S
C1852 C1853 1.404 . S
C1853 C1852 1.404 . S
C1853 C1854 1.395 . S
C1853 C1864 1.451 . S
C1854 C1853 1.395 . S
C1854 C1855 1.322 . S
C1854 H1918 0.930 . S
C1855 C1854 1.322 . S
C1855 C1856 1.459 . S
C1855 H1919 0.929 . S
C1856 C1855 1.459 . S
C1856 C1857 1.445 . S
C1856 C1865 1.395 . S
C1857 C1835 1.432 . S
C1857 C1856 1.445 . S
C1857 C1858 1.370 . S
C1858 C1857 1.370 . S
C1858 C1859 1.438 . S
C1858 H1920 0.930 . S
C1859 C1845 1.497 . S
C1859 C1858 1.438 . S
C1859 C1860 1.360 . S
C1860 C1859 1.360 . S
C1860 C1861 1.401 . S
C1860 C1865 1.446 . S
C1861 C1860 1.401 . S
C1861 C1862 1.347 . S
C1861 H1921 0.929 . S
C1862 C1861 1.347 . S
C1862 C1863 1.455 . S
C1862 H1922 0.930 . S
C1863 C1850 1.412 . S
C1863 C1862 1.455 . S
C1863 C1864 1.331 . S
C1864 C1853 1.451 . S
C1864 C1863 1.331 . S
C1864 C1865 1.497 . S
C1865 C1856 1.395 . S
C1865 C1860 1.446 . S
C1865 C1864 1.497 . S
C1866 C1867 1.582 . S
C1866 H1923 0.962 . S
C1866 H1924 0.959 . S
C1866 H1925 0.958 . S
C1867 C1866 1.582 . S
C1867 O1870 1.458 . S
C1867 H1896 0.980 . S
O1868 C1813 1.426 . S
O1868 C1814 1.334 . S
O1869 C1841 1.412 . S
O1869 C1842 1.393 . S
O1870 C1832 1.435 . S
O1870 C1867 1.458 . S
O1871 C1823 1.468 . S
O1871 C1824 1.408 . S
H1872 C1813 0.980 . S
H1873 C1812 0.959 . S
H1874 C1812 0.959 . S
H1875 C1812 0.960 . S
H1876 C1815 0.929 . S
H1877 C1819 0.929 . S
H1878 C1820 0.959 . S
H1879 C1820 0.961 . S
H1880 C1820 0.961 . S
H1881 C1821 0.960 . S
H1882 C1821 0.960 . S
H1883 C1821 0.961 . S
H1884 C1823 0.980 . S
H1885 C1822 0.961 . S
H1886 C1822 0.960 . S
H1887 C1822 0.959 . S
H1888 C1825 0.930 . S
H1889 C1829 0.931 . S
H1890 C1830 0.959 . S
H1891 C1830 0.961 . S
H1892 C1830 0.959 . S
H1893 C1831 0.960 . S
H1894 C1831 0.960 . S
H1895 C1831 0.960 . S
H1896 C1867 0.980 . S
H1897 C1833 0.930 . S
H1898 C1837 0.930 . S
H1899 C1838 0.961 . S
H1900 C1838 0.960 . S
H1901 C1838 0.958 . S
H1902 C1839 0.961 . S
H1903 C1839 0.960 . S
H1904 C1839 0.960 . S
H1905 C1841 0.980 . S
H1906 C1840 0.961 . S
H1907 C1840 0.961 . S
H1908 C1840 0.959 . S
H1909 C1843 0.932 . S
H1910 C1847 0.929 . S
H1911 C1848 0.961 . S
H1912 C1848 0.959 . S
H1913 C1848 0.959 . S
H1914 C1849 0.960 . S
H1915 C1849 0.962 . S
H1916 C1849 0.961 . S
H1917 C1851 0.929 . S
H1918 C1854 0.930 . S
H1919 C1855 0.929 . S
H1920 C1858 0.930 . S
H1921 C1861 0.929 . S
H1922 C1862 0.930 . S
H1923 C1866 0.962 . S
H1924 C1866 0.959 . S
H1925 C1866 0.958 . S
C1926 C1927 1.560 . S
C1926 H1987 0.959 . S
C1926 H1988 0.959 . S
C1926 H1989 0.960 . S
C1927 C1926 1.560 . S
C1927 O1982 1.426 . S
C1927 H1986 0.980 . S
C1928 C1929 1.407 . S
C1928 C1933 1.418 . S
C1928 O1982 1.334 . S
C1929 C1928 1.407 . S
C1929 C1930 1.360 . S
C1929 H1990 0.929 . S
C1930 C1929 1.360 . S
C1930 C1931 1.401 . S
C1930 C1934 1.527 . S
C1931 C1930 1.401 . S
C1931 C1932 1.405 . S
C1931 C1964 1.587 . S
C1932 C1931 1.405 . S
C1932 C1933 1.332 . S
C1932 C1935 1.496 . S
C1933 C1928 1.418 . S
C1933 C1932 1.332 . S
C1933 H1991 0.929 . S
C1934 C1930 1.527 . S
C1934 H1992 0.959 . S
C1934 H1993 0.961 . S
C1934 H1994 0.961 . S
C1935 C1932 1.496 . S
C1935 H1995 0.960 . S
C1935 H1996 0.960 . S
C1935 H1997 0.961 . S
C1936 C1937 1.517 . S
C1936 H1999 0.961 . S
C1936 H2000 0.960 . S
C1936 H2001 0.959 . S
C1937 C1936 1.517 . S
C1937 O1985 1.468 . S
C1937 H1998 0.980 . S
C1938 C1939 1.349 . S
C1938 C1943 1.367 . S
C1938 O1985 1.408 . S
C1939 C1938 1.349 . S
C1939 C1940 1.407 . S
C1939 H2002 0.930 . S
C1940 C1939 1.407 . S
C1940 C1941 1.449 . S
C1940 C1944 1.535 . S
C1941 C1940 1.449 . S
C1941 C1942 1.384 . S
C1941 C1966 1.553 . S
C1942 C1941 1.384 . S
C1942 C1943 1.364 . S
C1942 C1945 1.450 . S
C1943 C1938 1.367 . S
C1943 C1942 1.364 . S
C1943 H2003 0.931 . S
C1944 C1940 1.535 . S
C1944 H2004 0.959 . S
C1944 H2005 0.961 . S
C1944 H2006 0.959 . S
C1945 C1942 1.450 . S
C1945 H2007 0.960 . S
C1945 H2008 0.960 . S
C1945 H2009 0.960 . S
C1946 C1947 1.309 . S
C1946 C1951 1.304 . S
C1946 O1984 1.435 . S
C1947 C1946 1.309 . S
C1947 C1948 1.476 . S
C1947 H2011 0.930 . S
C1948 C1947 1.476 . S
C1948 C1949 1.400 . S
C1948 C1952 1.567 . S
C1949 C1948 1.400 . S
C1949 C1950 1.373 . S
C1949 C1971 1.432 . S
C1950 C1949 1.373 . S
C1950 C1951 1.339 . S
C1950 C1953 1.530 . S
C1951 C1946 1.304 . S
C1951 C1950 1.339 . S
C1951 H2012 0.930 . S
C1952 C1948 1.567 . S
C1952 H2013 0.961 . S
C1952 H2014 0.960 . S
C1952 H2015 0.958 . S
C1953 C1950 1.530 . S
C1953 H2016 0.961 . S
C1953 H2017 0.960 . S
C1953 H2018 0.960 . S
C1954 C1955 1.530 . S
C1954 H2020 0.961 . S
C1954 H2021 0.961 . S
C1954 H2022 0.959 . S
C1955 C1954 1.530 . S
C1955 O1983 1.412 . S
C1955 H2019 0.980 . S
C1956 C1957 1.288 . S
C1956 C1961 1.377 . S
C1956 O1983 1.393 . S
C1957 C1956 1.288 . S
C1957 C1958 1.369 . S
C1957 H2023 0.932 . S
C1958 C1957 1.369 . S
C1958 C1959 1.398 . S
C1958 C1962 1.527 . S
C1959 C1958 1.398 . S
C1959 C1960 1.380 . S
C1959 C1973 1.497 . S
C1960 C1959 1.380 . S
C1960 C1961 1.383 . S
C1960 C1963 1.603 . S
C1961 C1956 1.377 . S
C1961 C1960 1.383 . S
C1961 H2024 0.929 . S
C1962 C1958 1.527 . S
C1962 H2025 0.961 . S
C1962 H2026 0.959 . S
C1962 H2027 0.959 . S
C1963 C1960 1.603 . S
C1963 H2028 0.960 . S
C1963 H2029 0.962 . S
C1963 H2030 0.961 . S
C1964 C1931 1.587 . S
C1964 C1965 1.360 . S
C1964 C1977 1.412 . S
C1965 C1964 1.360 . S
C1965 C1966 1.365 . S
C1965 H2031 0.929 . S
C1966 C1941 1.553 . S
C1966 C1965 1.365 . S
C1966 C1967 1.404 . S
C1967 C1966 1.404 . S
C1967 C1968 1.395 . S
C1967 C1978 1.451 . S
C1968 C1967 1.395 . S
C1968 C1969 1.322 . S
C1968 H2032 0.930 . S
C1969 C1968 1.322 . S
C1969 C1970 1.459 . S
C1969 H2033 0.929 . S
C1970 C1969 1.459 . S
C1970 C1971 1.445 . S
C1970 C1979 1.395 . S
C1971 C1949 1.432 . S
C1971 C1970 1.445 . S
C1971 C1972 1.370 . S
C1972 C1971 1.370 . S
C1972 C1973 1.438 . S
C1972 H2034 0.930 . S
C1973 C1959 1.497 . S
C1973 C1972 1.438 . S
C1973 C1974 1.360 . S
C1974 C1973 1.360 . S
C1974 C1975 1.401 . S
C1974 C1979 1.446 . S
C1975 C1974 1.401 . S
C1975 C1976 1.347 . S
C1975 H2035 0.929 . S
C1976 C1975 1.347 . S
C1976 C1977 1.455 . S
C1976 H2036 0.930 . S
C1977 C1964 1.412 . S
C1977 C1976 1.455 . S
C1977 C1978 1.331 . S
C1978 C1967 1.451 . S
C1978 C1977 1.331 . S
C1978 C1979 1.497 . S
C1979 C1970 1.395 . S
C1979 C1974 1.446 . S
C1979 C1978 1.497 . S
C1980 C1981 1.582 . S
C1980 H2037 0.962 . S
C1980 H2038 0.959 . S
C1980 H2039 0.958 . S
C1981 C1980 1.582 . S
C1981 O1984 1.458 . S
C1981 H2010 0.980 . S
O1982 C1927 1.426 . S
O1982 C1928 1.334 . S
O1983 C1955 1.412 . S
O1983 C1956 1.393 . S
O1984 C1946 1.435 . S
O1984 C1981 1.458 . S
O1985 C1937 1.468 . S
O1985 C1938 1.408 . S
H1986 C1927 0.980 . S
H1987 C1926 0.959 . S
H1988 C1926 0.959 . S
H1989 C1926 0.960 . S
H1990 C1929 0.929 . S
H1991 C1933 0.929 . S
H1992 C1934 0.959 . S
H1993 C1934 0.961 . S
H1994 C1934 0.961 . S
H1995 C1935 0.960 . S
H1996 C1935 0.960 . S
H1997 C1935 0.961 . S
H1998 C1937 0.980 . S
H1999 C1936 0.961 . S
H2000 C1936 0.960 . S
H2001 C1936 0.959 . S
H2002 C1939 0.930 . S
H2003 C1943 0.931 . S
H2004 C1944 0.959 . S
H2005 C1944 0.961 . S
H2006 C1944 0.959 . S
H2007 C1945 0.960 . S
H2008 C1945 0.960 . S
H2009 C1945 0.960 . S
H2010 C1981 0.980 . S
H2011 C1947 0.930 . S
H2012 C1951 0.930 . S
H2013 C1952 0.961 . S
H2014 C1952 0.960 . S
H2015 C1952 0.958 . S
H2016 C1953 0.961 . S
H2017 C1953 0.960 . S
H2018 C1953 0.960 . S
H2019 C1955 0.980 . S
H2020 C1954 0.961 . S
H2021 C1954 0.961 . S
H2022 C1954 0.959 . S
H2023 C1957 0.932 . S
H2024 C1961 0.929 . S
H2025 C1962 0.961 . S
H2026 C1962 0.959 . S
H2027 C1962 0.959 . S
H2028 C1963 0.960 . S
H2029 C1963 0.962 . S
H2030 C1963 0.961 . S
H2031 C1965 0.929 . S
H2032 C1968 0.930 . S
H2033 C1969 0.929 . S
H2034 C1972 0.930 . S
H2035 C1975 0.929 . S
H2036 C1976 0.930 . S
H2037 C1980 0.962 . S
H2038 C1980 0.959 . S
H2039 C1980 0.958 . S
C2040 C2041 1.560 . S
C2040 H2101 0.959 . S
C2040 H2102 0.959 . S
C2040 H2103 0.960 . S
C2041 C2040 1.560 . S
C2041 O2096 1.426 . S
C2041 H2100 0.980 . S
C2042 C2043 1.407 . S
C2042 C2047 1.418 . S
C2042 O2096 1.334 . S
C2043 C2042 1.407 . S
C2043 C2044 1.360 . S
C2043 H2104 0.929 . S
C2044 C2043 1.360 . S
C2044 C2045 1.401 . S
C2044 C2048 1.527 . S
C2045 C2044 1.401 . S
C2045 C2046 1.405 . S
C2045 C2078 1.587 . S
C2046 C2045 1.405 . S
C2046 C2047 1.332 . S
C2046 C2049 1.496 . S
C2047 C2042 1.418 . S
C2047 C2046 1.332 . S
C2047 H2105 0.929 . S
C2048 C2044 1.527 . S
C2048 H2106 0.959 . S
C2048 H2107 0.961 . S
C2048 H2108 0.961 . S
C2049 C2046 1.496 . S
C2049 H2109 0.960 . S
C2049 H2110 0.960 . S
C2049 H2111 0.961 . S
C2050 C2051 1.517 . S
C2050 H2113 0.961 . S
C2050 H2114 0.960 . S
C2050 H2115 0.959 . S
C2051 C2050 1.517 . S
C2051 O2099 1.468 . S
C2051 H2112 0.980 . S
C2052 C2053 1.349 . S
C2052 C2057 1.367 . S
C2052 O2099 1.408 . S
C2053 C2052 1.349 . S
C2053 C2054 1.407 . S
C2053 H2116 0.930 . S
C2054 C2053 1.407 . S
C2054 C2055 1.449 . S
C2054 C2058 1.535 . S
C2055 C2054 1.449 . S
C2055 C2056 1.384 . S
C2055 C2080 1.553 . S
C2056 C2055 1.384 . S
C2056 C2057 1.364 . S
C2056 C2059 1.450 . S
C2057 C2052 1.367 . S
C2057 C2056 1.364 . S
C2057 H2117 0.931 . S
C2058 C2054 1.535 . S
C2058 H2118 0.959 . S
C2058 H2119 0.961 . S
C2058 H2120 0.959 . S
C2059 C2056 1.450 . S
C2059 H2121 0.960 . S
C2059 H2122 0.960 . S
C2059 H2123 0.960 . S
C2060 C2061 1.309 . S
C2060 C2065 1.304 . S
C2060 O2098 1.435 . S
C2061 C2060 1.309 . S
C2061 C2062 1.476 . S
C2061 H2125 0.930 . S
C2062 C2061 1.476 . S
C2062 C2063 1.400 . S
C2062 C2066 1.567 . S
C2063 C2062 1.400 . S
C2063 C2064 1.373 . S
C2063 C2085 1.432 . S
C2064 C2063 1.373 . S
C2064 C2065 1.339 . S
C2064 C2067 1.530 . S
C2065 C2060 1.304 . S
C2065 C2064 1.339 . S
C2065 H2126 0.930 . S
C2066 C2062 1.567 . S
C2066 H2127 0.961 . S
C2066 H2128 0.960 . S
C2066 H2129 0.958 . S
C2067 C2064 1.530 . S
C2067 H2130 0.961 . S
C2067 H2131 0.960 . S
C2067 H2132 0.960 . S
C2068 C2069 1.530 . S
C2068 H2134 0.961 . S
C2068 H2135 0.961 . S
C2068 H2136 0.959 . S
C2069 C2068 1.530 . S
C2069 O2097 1.412 . S
C2069 H2133 0.980 . S
C2070 C2071 1.288 . S
C2070 C2075 1.377 . S
C2070 O2097 1.393 . S
C2071 C2070 1.288 . S
C2071 C2072 1.369 . S
C2071 H2137 0.932 . S
C2072 C2071 1.369 . S
C2072 C2073 1.398 . S
C2072 C2076 1.527 . S
C2073 C2072 1.398 . S
C2073 C2074 1.380 . S
C2073 C2087 1.497 . S
C2074 C2073 1.380 . S
C2074 C2075 1.383 . S
C2074 C2077 1.603 . S
C2075 C2070 1.377 . S
C2075 C2074 1.383 . S
C2075 H2138 0.929 . S
C2076 C2072 1.527 . S
C2076 H2139 0.961 . S
C2076 H2140 0.959 . S
C2076 H2141 0.959 . S
C2077 C2074 1.603 . S
C2077 H2142 0.960 . S
C2077 H2143 0.962 . S
C2077 H2144 0.961 . S
C2078 C2045 1.587 . S
C2078 C2079 1.360 . S
C2078 C2091 1.412 . S
C2079 C2078 1.360 . S
C2079 C2080 1.365 . S
C2079 H2145 0.929 . S
C2080 C2055 1.553 . S
C2080 C2079 1.365 . S
C2080 C2081 1.404 . S
C2081 C2080 1.404 . S
C2081 C2082 1.395 . S
C2081 C2092 1.451 . S
C2082 C2081 1.395 . S
C2082 C2083 1.322 . S
C2082 H2146 0.930 . S
C2083 C2082 1.322 . S
C2083 C2084 1.459 . S
C2083 H2147 0.929 . S
C2084 C2083 1.459 . S
C2084 C2085 1.445 . S
C2084 C2093 1.395 . S
C2085 C2063 1.432 . S
C2085 C2084 1.445 . S
C2085 C2086 1.370 . S
C2086 C2085 1.370 . S
C2086 C2087 1.438 . S
C2086 H2148 0.930 . S
C2087 C2073 1.497 . S
C2087 C2086 1.438 . S
C2087 C2088 1.360 . S
C2088 C2087 1.360 . S
C2088 C2089 1.401 . S
C2088 C2093 1.446 . S
C2089 C2088 1.401 . S
C2089 C2090 1.347 . S
C2089 H2149 0.929 . S
C2090 C2089 1.347 . S
C2090 C2091 1.455 . S
C2090 H2150 0.930 . S
C2091 C2078 1.412 . S
C2091 C2090 1.455 . S
C2091 C2092 1.331 . S
C2092 C2081 1.451 . S
C2092 C2091 1.331 . S
C2092 C2093 1.497 . S
C2093 C2084 1.395 . S
C2093 C2088 1.446 . S
C2093 C2092 1.497 . S
C2094 C2095 1.582 . S
C2094 H2151 0.962 . S
C2094 H2152 0.959 . S
C2094 H2153 0.958 . S
C2095 C2094 1.582 . S
C2095 O2098 1.458 . S
C2095 H2124 0.980 . S
O2096 C2041 1.426 . S
O2096 C2042 1.334 . S
O2097 C2069 1.412 . S
O2097 C2070 1.393 . S
O2098 C2060 1.435 . S
O2098 C2095 1.458 . S
O2099 C2051 1.468 . S
O2099 C2052 1.408 . S
H2100 C2041 0.980 . S
H2101 C2040 0.959 . S
H2102 C2040 0.959 . S
H2103 C2040 0.960 . S
H2104 C2043 0.929 . S
H2105 C2047 0.929 . S
H2106 C2048 0.959 . S
H2107 C2048 0.961 . S
H2108 C2048 0.961 . S
H2109 C2049 0.960 . S
H2110 C2049 0.960 . S
H2111 C2049 0.961 . S
H2112 C2051 0.980 . S
H2113 C2050 0.961 . S
H2114 C2050 0.960 . S
H2115 C2050 0.959 . S
H2116 C2053 0.930 . S
H2117 C2057 0.931 . S
H2118 C2058 0.959 . S
H2119 C2058 0.961 . S
H2120 C2058 0.959 . S
H2121 C2059 0.960 . S
H2122 C2059 0.960 . S
H2123 C2059 0.960 . S
H2124 C2095 0.980 . S
H2125 C2061 0.930 . S
H2126 C2065 0.930 . S
H2127 C2066 0.961 . S
H2128 C2066 0.960 . S
H2129 C2066 0.958 . S
H2130 C2067 0.961 . S
H2131 C2067 0.960 . S
H2132 C2067 0.960 . S
H2133 C2069 0.980 . S
H2134 C2068 0.961 . S
H2135 C2068 0.961 . S
H2136 C2068 0.959 . S
H2137 C2071 0.932 . S
H2138 C2075 0.929 . S
H2139 C2076 0.961 . S
H2140 C2076 0.959 . S
H2141 C2076 0.959 . S
H2142 C2077 0.960 . S
H2143 C2077 0.962 . S
H2144 C2077 0.961 . S
H2145 C2079 0.929 . S
H2146 C2082 0.930 . S
H2147 C2083 0.929 . S
H2148 C2086 0.930 . S
H2149 C2089 0.929 . S
H2150 C2090 0.930 . S
H2151 C2094 0.962 . S
H2152 C2094 0.959 . S
H2153 C2094 0.958 . S
C2154 C2155 1.560 . S
C2154 H2215 0.959 . S
C2154 H2216 0.959 . S
C2154 H2217 0.960 . S
C2155 C2154 1.560 . S
C2155 O2210 1.426 . S
C2155 H2214 0.980 . S
C2156 C2157 1.407 . S
C2156 C2161 1.418 . S
C2156 O2210 1.334 . S
C2157 C2156 1.407 . S
C2157 C2158 1.360 . S
C2157 H2218 0.929 . S
C2158 C2157 1.360 . S
C2158 C2159 1.401 . S
C2158 C2162 1.527 . S
C2159 C2158 1.401 . S
C2159 C2160 1.405 . S
C2159 C2192 1.587 . S
C2160 C2159 1.405 . S
C2160 C2161 1.332 . S
C2160 C2163 1.496 . S
C2161 C2156 1.418 . S
C2161 C2160 1.332 . S
C2161 H2219 0.929 . S
C2162 C2158 1.527 . S
C2162 H2220 0.959 . S
C2162 H2221 0.961 . S
C2162 H2222 0.961 . S
C2163 C2160 1.496 . S
C2163 H2223 0.960 . S
C2163 H2224 0.960 . S
C2163 H2225 0.961 . S
C2164 C2165 1.517 . S
C2164 H2227 0.961 . S
C2164 H2228 0.960 . S
C2164 H2229 0.959 . S
C2165 C2164 1.517 . S
C2165 O2213 1.468 . S
C2165 H2226 0.980 . S
C2166 C2167 1.349 . S
C2166 C2171 1.367 . S
C2166 O2213 1.408 . S
C2167 C2166 1.349 . S
C2167 C2168 1.407 . S
C2167 H2230 0.930 . S
C2168 C2167 1.407 . S
C2168 C2169 1.449 . S
C2168 C2172 1.535 . S
C2169 C2168 1.449 . S
C2169 C2170 1.384 . S
C2169 C2194 1.553 . S
C2170 C2169 1.384 . S
C2170 C2171 1.364 . S
C2170 C2173 1.450 . S
C2171 C2166 1.367 . S
C2171 C2170 1.364 . S
C2171 H2231 0.931 . S
C2172 C2168 1.535 . S
C2172 H2232 0.959 . S
C2172 H2233 0.961 . S
C2172 H2234 0.959 . S
C2173 C2170 1.450 . S
C2173 H2235 0.960 . S
C2173 H2236 0.960 . S
C2173 H2237 0.960 . S
C2174 C2175 1.309 . S
C2174 C2179 1.304 . S
C2174 O2212 1.435 . S
C2175 C2174 1.309 . S
C2175 C2176 1.476 . S
C2175 H2239 0.930 . S
C2176 C2175 1.476 . S
C2176 C2177 1.400 . S
C2176 C2180 1.567 . S
C2177 C2176 1.400 . S
C2177 C2178 1.373 . S
C2177 C2199 1.432 . S
C2178 C2177 1.373 . S
C2178 C2179 1.339 . S
C2178 C2181 1.530 . S
C2179 C2174 1.304 . S
C2179 C2178 1.339 . S
C2179 H2240 0.930 . S
C2180 C2176 1.567 . S
C2180 H2241 0.961 . S
C2180 H2242 0.960 . S
C2180 H2243 0.958 . S
C2181 C2178 1.530 . S
C2181 H2244 0.961 . S
C2181 H2245 0.960 . S
C2181 H2246 0.960 . S
C2182 C2183 1.530 . S
C2182 H2248 0.961 . S
C2182 H2249 0.961 . S
C2182 H2250 0.959 . S
C2183 C2182 1.530 . S
C2183 O2211 1.412 . S
C2183 H2247 0.980 . S
C2184 C2185 1.288 . S
C2184 C2189 1.377 . S
C2184 O2211 1.393 . S
C2185 C2184 1.288 . S
C2185 C2186 1.369 . S
C2185 H2251 0.932 . S
C2186 C2185 1.369 . S
C2186 C2187 1.398 . S
C2186 C2190 1.527 . S
C2187 C2186 1.398 . S
C2187 C2188 1.380 . S
C2187 C2201 1.497 . S
C2188 C2187 1.380 . S
C2188 C2189 1.383 . S
C2188 C2191 1.603 . S
C2189 C2184 1.377 . S
C2189 C2188 1.383 . S
C2189 H2252 0.929 . S
C2190 C2186 1.527 . S
C2190 H2253 0.961 . S
C2190 H2254 0.959 . S
C2190 H2255 0.959 . S
C2191 C2188 1.603 . S
C2191 H2256 0.960 . S
C2191 H2257 0.962 . S
C2191 H2258 0.961 . S
C2192 C2159 1.587 . S
C2192 C2193 1.360 . S
C2192 C2205 1.412 . S
C2193 C2192 1.360 . S
C2193 C2194 1.365 . S
C2193 H2259 0.929 . S
C2194 C2169 1.553 . S
C2194 C2193 1.365 . S
C2194 C2195 1.404 . S
C2195 C2194 1.404 . S
C2195 C2196 1.395 . S
C2195 C2206 1.451 . S
C2196 C2195 1.395 . S
C2196 C2197 1.322 . S
C2196 H2260 0.930 . S
C2197 C2196 1.322 . S
C2197 C2198 1.459 . S
C2197 H2261 0.929 . S
C2198 C2197 1.459 . S
C2198 C2199 1.445 . S
C2198 C2207 1.395 . S
C2199 C2177 1.432 . S
C2199 C2198 1.445 . S
C2199 C2200 1.370 . S
C2200 C2199 1.370 . S
C2200 C2201 1.438 . S
C2200 H2262 0.930 . S
C2201 C2187 1.497 . S
C2201 C2200 1.438 . S
C2201 C2202 1.360 . S
C2202 C2201 1.360 . S
C2202 C2203 1.401 . S
C2202 C2207 1.446 . S
C2203 C2202 1.401 . S
C2203 C2204 1.347 . S
C2203 H2263 0.929 . S
C2204 C2203 1.347 . S
C2204 C2205 1.455 . S
C2204 H2264 0.930 . S
C2205 C2192 1.412 . S
C2205 C2204 1.455 . S
C2205 C2206 1.331 . S
C2206 C2195 1.451 . S
C2206 C2205 1.331 . S
C2206 C2207 1.497 . S
C2207 C2198 1.395 . S
C2207 C2202 1.446 . S
C2207 C2206 1.497 . S
C2208 C2209 1.582 . S
C2208 H2265 0.962 . S
C2208 H2266 0.959 . S
C2208 H2267 0.958 . S
C2209 C2208 1.582 . S
C2209 O2212 1.458 . S
C2209 H2238 0.980 . S
O2210 C2155 1.426 . S
O2210 C2156 1.334 . S
O2211 C2183 1.412 . S
O2211 C2184 1.393 . S
O2212 C2174 1.435 . S
O2212 C2209 1.458 . S
O2213 C2165 1.468 . S
O2213 C2166 1.408 . S
H2214 C2155 0.980 . S
H2215 C2154 0.959 . S
H2216 C2154 0.959 . S
H2217 C2154 0.960 . S
H2218 C2157 0.929 . S
H2219 C2161 0.929 . S
H2220 C2162 0.959 . S
H2221 C2162 0.961 . S
H2222 C2162 0.961 . S
H2223 C2163 0.960 . S
H2224 C2163 0.960 . S
H2225 C2163 0.961 . S
H2226 C2165 0.980 . S
H2227 C2164 0.961 . S
H2228 C2164 0.960 . S
H2229 C2164 0.959 . S
H2230 C2167 0.930 . S
H2231 C2171 0.931 . S
H2232 C2172 0.959 . S
H2233 C2172 0.961 . S
H2234 C2172 0.959 . S
H2235 C2173 0.960 . S
H2236 C2173 0.960 . S
H2237 C2173 0.960 . S
H2238 C2209 0.980 . S
H2239 C2175 0.930 . S
H2240 C2179 0.930 . S
H2241 C2180 0.961 . S
H2242 C2180 0.960 . S
H2243 C2180 0.958 . S
H2244 C2181 0.961 . S
H2245 C2181 0.960 . S
H2246 C2181 0.960 . S
H2247 C2183 0.980 . S
H2248 C2182 0.961 . S
H2249 C2182 0.961 . S
H2250 C2182 0.959 . S
H2251 C2185 0.932 . S
H2252 C2189 0.929 . S
H2253 C2190 0.961 . S
H2254 C2190 0.959 . S
H2255 C2190 0.959 . S
H2256 C2191 0.960 . S
H2257 C2191 0.962 . S
H2258 C2191 0.961 . S
H2259 C2193 0.929 . S
H2260 C2196 0.930 . S
H2261 C2197 0.929 . S
H2262 C2200 0.930 . S
H2263 C2203 0.929 . S
H2264 C2204 0.930 . S
H2265 C2208 0.962 . S
H2266 C2208 0.959 . S
H2267 C2208 0.958 . S
C2268 C2269 1.560 . S
C2268 H2329 0.959 . S
C2268 H2330 0.959 . S
C2268 H2331 0.960 . S
C2269 C2268 1.560 . S
C2269 O2324 1.426 . S
C2269 H2328 0.980 . S
C2270 C2271 1.407 . S
C2270 C2275 1.418 . S
C2270 O2324 1.334 . S
C2271 C2270 1.407 . S
C2271 C2272 1.360 . S
C2271 H2332 0.929 . S
C2272 C2271 1.360 . S
C2272 C2273 1.401 . S
C2272 C2276 1.527 . S
C2273 C2272 1.401 . S
C2273 C2274 1.405 . S
C2273 C2306 1.587 . S
C2274 C2273 1.405 . S
C2274 C2275 1.332 . S
C2274 C2277 1.496 . S
C2275 C2270 1.418 . S
C2275 C2274 1.332 . S
C2275 H2333 0.929 . S
C2276 C2272 1.527 . S
C2276 H2334 0.959 . S
C2276 H2335 0.961 . S
C2276 H2336 0.961 . S
C2277 C2274 1.496 . S
C2277 H2337 0.960 . S
C2277 H2338 0.960 . S
C2277 H2339 0.961 . S
C2278 C2279 1.517 . S
C2278 H2341 0.961 . S
C2278 H2342 0.960 . S
C2278 H2343 0.959 . S
C2279 C2278 1.517 . S
C2279 O2327 1.468 . S
C2279 H2340 0.980 . S
C2280 C2281 1.349 . S
C2280 C2285 1.367 . S
C2280 O2327 1.408 . S
C2281 C2280 1.349 . S
C2281 C2282 1.407 . S
C2281 H2344 0.930 . S
C2282 C2281 1.407 . S
C2282 C2283 1.449 . S
C2282 C2286 1.535 . S
C2283 C2282 1.449 . S
C2283 C2284 1.384 . S
C2283 C2308 1.553 . S
C2284 C2283 1.384 . S
C2284 C2285 1.364 . S
C2284 C2287 1.450 . S
C2285 C2280 1.367 . S
C2285 C2284 1.364 . S
C2285 H2345 0.931 . S
C2286 C2282 1.535 . S
C2286 H2346 0.959 . S
C2286 H2347 0.961 . S
C2286 H2348 0.959 . S
C2287 C2284 1.450 . S
C2287 H2349 0.960 . S
C2287 H2350 0.960 . S
C2287 H2351 0.960 . S
C2288 C2289 1.309 . S
C2288 C2293 1.304 . S
C2288 O2326 1.435 . S
C2289 C2288 1.309 . S
C2289 C2290 1.476 . S
C2289 H2353 0.930 . S
C2290 C2289 1.476 . S
C2290 C2291 1.400 . S
C2290 C2294 1.567 . S
C2291 C2290 1.400 . S
C2291 C2292 1.373 . S
C2291 C2313 1.432 . S
C2292 C2291 1.373 . S
C2292 C2293 1.339 . S
C2292 C2295 1.530 . S
C2293 C2288 1.304 . S
C2293 C2292 1.339 . S
C2293 H2354 0.930 . S
C2294 C2290 1.567 . S
C2294 H2355 0.961 . S
C2294 H2356 0.960 . S
C2294 H2357 0.958 . S
C2295 C2292 1.530 . S
C2295 H2358 0.961 . S
C2295 H2359 0.960 . S
C2295 H2360 0.960 . S
C2296 C2297 1.530 . S
C2296 H2362 0.961 . S
C2296 H2363 0.961 . S
C2296 H2364 0.959 . S
C2297 C2296 1.530 . S
C2297 O2325 1.412 . S
C2297 H2361 0.980 . S
C2298 C2299 1.288 . S
C2298 C2303 1.377 . S
C2298 O2325 1.393 . S
C2299 C2298 1.288 . S
C2299 C2300 1.369 . S
C2299 H2365 0.932 . S
C2300 C2299 1.369 . S
C2300 C2301 1.398 . S
C2300 C2304 1.527 . S
C2301 C2300 1.398 . S
C2301 C2302 1.380 . S
C2301 C2315 1.497 . S
C2302 C2301 1.380 . S
C2302 C2303 1.383 . S
C2302 C2305 1.603 . S
C2303 C2298 1.377 . S
C2303 C2302 1.383 . S
C2303 H2366 0.929 . S
C2304 C2300 1.527 . S
C2304 H2367 0.961 . S
C2304 H2368 0.959 . S
C2304 H2369 0.959 . S
C2305 C2302 1.603 . S
C2305 H2370 0.960 . S
C2305 H2371 0.962 . S
C2305 H2372 0.961 . S
C2306 C2273 1.587 . S
C2306 C2307 1.360 . S
C2306 C2319 1.412 . S
C2307 C2306 1.360 . S
C2307 C2308 1.365 . S
C2307 H2373 0.929 . S
C2308 C2283 1.553 . S
C2308 C2307 1.365 . S
C2308 C2309 1.404 . S
C2309 C2308 1.404 . S
C2309 C2310 1.395 . S
C2309 C2320 1.451 . S
C2310 C2309 1.395 . S
C2310 C2311 1.322 . S
C2310 H2374 0.930 . S
C2311 C2310 1.322 . S
C2311 C2312 1.459 . S
C2311 H2375 0.929 . S
C2312 C2311 1.459 . S
C2312 C2313 1.445 . S
C2312 C2321 1.395 . S
C2313 C2291 1.432 . S
C2313 C2312 1.445 . S
C2313 C2314 1.370 . S
C2314 C2313 1.370 . S
C2314 C2315 1.438 . S
C2314 H2376 0.930 . S
C2315 C2301 1.497 . S
C2315 C2314 1.438 . S
C2315 C2316 1.360 . S
C2316 C2315 1.360 . S
C2316 C2317 1.401 . S
C2316 C2321 1.446 . S
C2317 C2316 1.401 . S
C2317 C2318 1.347 . S
C2317 H2377 0.929 . S
C2318 C2317 1.347 . S
C2318 C2319 1.455 . S
C2318 H2378 0.930 . S
C2319 C2306 1.412 . S
C2319 C2318 1.455 . S
C2319 C2320 1.331 . S
C2320 C2309 1.451 . S
C2320 C2319 1.331 . S
C2320 C2321 1.497 . S
C2321 C2312 1.395 . S
C2321 C2316 1.446 . S
C2321 C2320 1.497 . S
C2322 C2323 1.582 . S
C2322 H2379 0.962 . S
C2322 H2380 0.959 . S
C2322 H2381 0.958 . S
C2323 C2322 1.582 . S
C2323 O2326 1.458 . S
C2323 H2352 0.980 . S
O2324 C2269 1.426 . S
O2324 C2270 1.334 . S
O2325 C2297 1.412 . S
O2325 C2298 1.393 . S
O2326 C2288 1.435 . S
O2326 C2323 1.458 . S
O2327 C2279 1.468 . S
O2327 C2280 1.408 . S
H2328 C2269 0.980 . S
H2329 C2268 0.959 . S
H2330 C2268 0.959 . S
H2331 C2268 0.960 . S
H2332 C2271 0.929 . S
H2333 C2275 0.929 . S
H2334 C2276 0.959 . S
H2335 C2276 0.961 . S
H2336 C2276 0.961 . S
H2337 C2277 0.960 . S
H2338 C2277 0.960 . S
H2339 C2277 0.961 . S
H2340 C2279 0.980 . S
H2341 C2278 0.961 . S
H2342 C2278 0.960 . S
H2343 C2278 0.959 . S
H2344 C2281 0.930 . S
H2345 C2285 0.931 . S
H2346 C2286 0.959 . S
H2347 C2286 0.961 . S
H2348 C2286 0.959 . S
H2349 C2287 0.960 . S
H2350 C2287 0.960 . S
H2351 C2287 0.960 . S
H2352 C2323 0.980 . S
H2353 C2289 0.930 . S
H2354 C2293 0.930 . S
H2355 C2294 0.961 . S
H2356 C2294 0.960 . S
H2357 C2294 0.958 . S
H2358 C2295 0.961 . S
H2359 C2295 0.960 . S
H2360 C2295 0.960 . S
H2361 C2297 0.980 . S
H2362 C2296 0.961 . S
H2363 C2296 0.961 . S
H2364 C2296 0.959 . S
H2365 C2299 0.932 . S
H2366 C2303 0.929 . S
H2367 C2304 0.961 . S
H2368 C2304 0.959 . S
H2369 C2304 0.959 . S
H2370 C2305 0.960 . S
H2371 C2305 0.962 . S
H2372 C2305 0.961 . S
H2373 C2307 0.929 . S
H2374 C2310 0.930 . S
H2375 C2311 0.929 . S
H2376 C2314 0.930 . S
H2377 C2317 0.929 . S
H2378 C2318 0.930 . S
H2379 C2322 0.962 . S
H2380 C2322 0.959 . S
H2381 C2322 0.958 . S
C2382 C2383 1.560 . S
C2382 H2443 0.959 . S
C2382 H2444 0.959 . S
C2382 H2445 0.960 . S
C2383 C2382 1.560 . S
C2383 O2438 1.426 . S
C2383 H2442 0.980 . S
C2384 C2385 1.407 . S
C2384 C2389 1.418 . S
C2384 O2438 1.334 . S
C2385 C2384 1.407 . S
C2385 C2386 1.360 . S
C2385 H2446 0.929 . S
C2386 C2385 1.360 . S
C2386 C2387 1.401 . S
C2386 C2390 1.527 . S
C2387 C2386 1.401 . S
C2387 C2388 1.405 . S
C2387 C2420 1.587 . S
C2388 C2387 1.405 . S
C2388 C2389 1.332 . S
C2388 C2391 1.496 . S
C2389 C2384 1.418 . S
C2389 C2388 1.332 . S
C2389 H2447 0.929 . S
C2390 C2386 1.527 . S
C2390 H2448 0.959 . S
C2390 H2449 0.961 . S
C2390 H2450 0.961 . S
C2391 C2388 1.496 . S
C2391 H2451 0.960 . S
C2391 H2452 0.960 . S
C2391 H2453 0.961 . S
C2392 C2393 1.517 . S
C2392 H2455 0.961 . S
C2392 H2456 0.960 . S
C2392 H2457 0.959 . S
C2393 C2392 1.517 . S
C2393 O2441 1.468 . S
C2393 H2454 0.980 . S
C2394 C2395 1.349 . S
C2394 C2399 1.367 . S
C2394 O2441 1.408 . S
C2395 C2394 1.349 . S
C2395 C2396 1.407 . S
C2395 H2458 0.930 . S
C2396 C2395 1.407 . S
C2396 C2397 1.449 . S
C2396 C2400 1.535 . S
C2397 C2396 1.449 . S
C2397 C2398 1.384 . S
C2397 C2422 1.553 . S
C2398 C2397 1.384 . S
C2398 C2399 1.364 . S
C2398 C2401 1.450 . S
C2399 C2394 1.367 . S
C2399 C2398 1.364 . S
C2399 H2459 0.931 . S
C2400 C2396 1.535 . S
C2400 H2460 0.959 . S
C2400 H2461 0.961 . S
C2400 H2462 0.959 . S
C2401 C2398 1.450 . S
C2401 H2463 0.960 . S
C2401 H2464 0.960 . S
C2401 H2465 0.960 . S
C2402 C2403 1.309 . S
C2402 C2407 1.304 . S
C2402 O2440 1.435 . S
C2403 C2402 1.309 . S
C2403 C2404 1.476 . S
C2403 H2467 0.930 . S
C2404 C2403 1.476 . S
C2404 C2405 1.400 . S
C2404 C2408 1.567 . S
C2405 C2404 1.400 . S
C2405 C2406 1.373 . S
C2405 C2427 1.432 . S
C2406 C2405 1.373 . S
C2406 C2407 1.339 . S
C2406 C2409 1.530 . S
C2407 C2402 1.304 . S
C2407 C2406 1.339 . S
C2407 H2468 0.930 . S
C2408 C2404 1.567 . S
C2408 H2469 0.961 . S
C2408 H2470 0.960 . S
C2408 H2471 0.958 . S
C2409 C2406 1.530 . S
C2409 H2472 0.961 . S
C2409 H2473 0.960 . S
C2409 H2474 0.960 . S
C2410 C2411 1.530 . S
C2410 H2476 0.961 . S
C2410 H2477 0.961 . S
C2410 H2478 0.959 . S
C2411 C2410 1.530 . S
C2411 O2439 1.412 . S
C2411 H2475 0.980 . S
C2412 C2413 1.288 . S
C2412 C2417 1.377 . S
C2412 O2439 1.393 . S
C2413 C2412 1.288 . S
C2413 C2414 1.369 . S
C2413 H2479 0.932 . S
C2414 C2413 1.369 . S
C2414 C2415 1.398 . S
C2414 C2418 1.527 . S
C2415 C2414 1.398 . S
C2415 C2416 1.380 . S
C2415 C2429 1.497 . S
C2416 C2415 1.380 . S
C2416 C2417 1.383 . S
C2416 C2419 1.603 . S
C2417 C2412 1.377 . S
C2417 C2416 1.383 . S
C2417 H2480 0.929 . S
C2418 C2414 1.527 . S
C2418 H2481 0.961 . S
C2418 H2482 0.959 . S
C2418 H2483 0.959 . S
C2419 C2416 1.603 . S
C2419 H2484 0.960 . S
C2419 H2485 0.962 . S
C2419 H2486 0.961 . S
C2420 C2387 1.587 . S
C2420 C2421 1.360 . S
C2420 C2433 1.412 . S
C2421 C2420 1.360 . S
C2421 C2422 1.365 . S
C2421 H2487 0.929 . S
C2422 C2397 1.553 . S
C2422 C2421 1.365 . S
C2422 C2423 1.404 . S
C2423 C2422 1.404 . S
C2423 C2424 1.395 . S
C2423 C2434 1.451 . S
C2424 C2423 1.395 . S
C2424 C2425 1.322 . S
C2424 H2488 0.930 . S
C2425 C2424 1.322 . S
C2425 C2426 1.459 . S
C2425 H2489 0.929 . S
C2426 C2425 1.459 . S
C2426 C2427 1.445 . S
C2426 C2435 1.395 . S
C2427 C2405 1.432 . S
C2427 C2426 1.445 . S
C2427 C2428 1.370 . S
C2428 C2427 1.370 . S
C2428 C2429 1.438 . S
C2428 H2490 0.930 . S
C2429 C2415 1.497 . S
C2429 C2428 1.438 . S
C2429 C2430 1.360 . S
C2430 C2429 1.360 . S
C2430 C2431 1.401 . S
C2430 C2435 1.446 . S
C2431 C2430 1.401 . S
C2431 C2432 1.347 . S
C2431 H2491 0.929 . S
C2432 C2431 1.347 . S
C2432 C2433 1.455 . S
C2432 H2492 0.930 . S
C2433 C2420 1.412 . S
C2433 C2432 1.455 . S
C2433 C2434 1.331 . S
C2434 C2423 1.451 . S
C2434 C2433 1.331 . S
C2434 C2435 1.497 . S
C2435 C2426 1.395 . S
C2435 C2430 1.446 . S
C2435 C2434 1.497 . S
C2436 C2437 1.582 . S
C2436 H2493 0.962 . S
C2436 H2494 0.959 . S
C2436 H2495 0.958 . S
C2437 C2436 1.582 . S
C2437 O2440 1.458 . S
C2437 H2466 0.980 . S
O2438 C2383 1.426 . S
O2438 C2384 1.334 . S
O2439 C2411 1.412 . S
O2439 C2412 1.393 . S
O2440 C2402 1.435 . S
O2440 C2437 1.458 . S
O2441 C2393 1.468 . S
O2441 C2394 1.408 . S
H2442 C2383 0.980 . S
H2443 C2382 0.959 . S
H2444 C2382 0.959 . S
H2445 C2382 0.960 . S
H2446 C2385 0.929 . S
H2447 C2389 0.929 . S
H2448 C2390 0.959 . S
H2449 C2390 0.961 . S
H2450 C2390 0.961 . S
H2451 C2391 0.960 . S
H2452 C2391 0.960 . S
H2453 C2391 0.961 . S
H2454 C2393 0.980 . S
H2455 C2392 0.961 . S
H2456 C2392 0.960 . S
H2457 C2392 0.959 . S
H2458 C2395 0.930 . S
H2459 C2399 0.931 . S
H2460 C2400 0.959 . S
H2461 C2400 0.961 . S
H2462 C2400 0.959 . S
H2463 C2401 0.960 . S
H2464 C2401 0.960 . S
H2465 C2401 0.960 . S
H2466 C2437 0.980 . S
H2467 C2403 0.930 . S
H2468 C2407 0.930 . S
H2469 C2408 0.961 . S
H2470 C2408 0.960 . S
H2471 C2408 0.958 . S
H2472 C2409 0.961 . S
H2473 C2409 0.960 . S
H2474 C2409 0.960 . S
H2475 C2411 0.980 . S
H2476 C2410 0.961 . S
H2477 C2410 0.961 . S
H2478 C2410 0.959 . S
H2479 C2413 0.932 . S
H2480 C2417 0.929 . S
H2481 C2418 0.961 . S
H2482 C2418 0.959 . S
H2483 C2418 0.959 . S
H2484 C2419 0.960 . S
H2485 C2419 0.962 . S
H2486 C2419 0.961 . S
H2487 C2421 0.929 . S
H2488 C2424 0.930 . S
H2489 C2425 0.929 . S
H2490 C2428 0.930 . S
H2491 C2431 0.929 . S
H2492 C2432 0.930 . S
H2493 C2436 0.962 . S
H2494 C2436 0.959 . S
H2495 C2436 0.958 . S
C2496 C2497 1.560 . S
C2496 H2557 0.959 . S
C2496 H2558 0.959 . S
C2496 H2559 0.960 . S
C2497 C2496 1.560 . S
C2497 O2552 1.426 . S
C2497 H2556 0.980 . S
C2498 C2499 1.407 . S
C2498 C2503 1.418 . S
C2498 O2552 1.334 . S
C2499 C2498 1.407 . S
C2499 C2500 1.360 . S
C2499 H2560 0.929 . S
C2500 C2499 1.360 . S
C2500 C2501 1.401 . S
C2500 C2504 1.527 . S
C2501 C2500 1.401 . S
C2501 C2502 1.405 . S
C2501 C2534 1.587 . S
C2502 C2501 1.405 . S
C2502 C2503 1.332 . S
C2502 C2505 1.496 . S
C2503 C2498 1.418 . S
C2503 C2502 1.332 . S
C2503 H2561 0.929 . S
C2504 C2500 1.527 . S
C2504 H2562 0.959 . S
C2504 H2563 0.961 . S
C2504 H2564 0.961 . S
C2505 C2502 1.496 . S
C2505 H2565 0.960 . S
C2505 H2566 0.960 . S
C2505 H2567 0.961 . S
C2506 C2507 1.517 . S
C2506 H2569 0.961 . S
C2506 H2570 0.960 . S
C2506 H2571 0.959 . S
C2507 C2506 1.517 . S
C2507 O2555 1.468 . S
C2507 H2568 0.980 . S
C2508 C2509 1.349 . S
C2508 C2513 1.367 . S
C2508 O2555 1.408 . S
C2509 C2508 1.349 . S
C2509 C2510 1.407 . S
C2509 H2572 0.930 . S
C2510 C2509 1.407 . S
C2510 C2511 1.449 . S
C2510 C2514 1.535 . S
C2511 C2510 1.449 . S
C2511 C2512 1.384 . S
C2511 C2536 1.553 . S
C2512 C2511 1.384 . S
C2512 C2513 1.364 . S
C2512 C2515 1.450 . S
C2513 C2508 1.367 . S
C2513 C2512 1.364 . S
C2513 H2573 0.931 . S
C2514 C2510 1.535 . S
C2514 H2574 0.959 . S
C2514 H2575 0.961 . S
C2514 H2576 0.959 . S
C2515 C2512 1.450 . S
C2515 H2577 0.960 . S
C2515 H2578 0.960 . S
C2515 H2579 0.960 . S
C2516 C2517 1.309 . S
C2516 C2521 1.304 . S
C2516 O2554 1.435 . S
C2517 C2516 1.309 . S
C2517 C2518 1.476 . S
C2517 H2581 0.930 . S
C2518 C2517 1.476 . S
C2518 C2519 1.400 . S
C2518 C2522 1.567 . S
C2519 C2518 1.400 . S
C2519 C2520 1.373 . S
C2519 C2541 1.432 . S
C2520 C2519 1.373 . S
C2520 C2521 1.339 . S
C2520 C2523 1.530 . S
C2521 C2516 1.304 . S
C2521 C2520 1.339 . S
C2521 H2582 0.930 . S
C2522 C2518 1.567 . S
C2522 H2583 0.961 . S
C2522 H2584 0.960 . S
C2522 H2585 0.958 . S
C2523 C2520 1.530 . S
C2523 H2586 0.961 . S
C2523 H2587 0.960 . S
C2523 H2588 0.960 . S
C2524 C2525 1.530 . S
C2524 H2590 0.961 . S
C2524 H2591 0.961 . S
C2524 H2592 0.959 . S
C2525 C2524 1.530 . S
C2525 O2553 1.412 . S
C2525 H2589 0.980 . S
C2526 C2527 1.288 . S
C2526 C2531 1.377 . S
C2526 O2553 1.393 . S
C2527 C2526 1.288 . S
C2527 C2528 1.369 . S
C2527 H2593 0.932 . S
C2528 C2527 1.369 . S
C2528 C2529 1.398 . S
C2528 C2532 1.527 . S
C2529 C2528 1.398 . S
C2529 C2530 1.380 . S
C2529 C2543 1.497 . S
C2530 C2529 1.380 . S
C2530 C2531 1.383 . S
C2530 C2533 1.603 . S
C2531 C2526 1.377 . S
C2531 C2530 1.383 . S
C2531 H2594 0.929 . S
C2532 C2528 1.527 . S
C2532 H2595 0.961 . S
C2532 H2596 0.959 . S
C2532 H2597 0.959 . S
C2533 C2530 1.603 . S
C2533 H2598 0.960 . S
C2533 H2599 0.962 . S
C2533 H2600 0.961 . S
C2534 C2501 1.587 . S
C2534 C2535 1.360 . S
C2534 C2547 1.412 . S
C2535 C2534 1.360 . S
C2535 C2536 1.365 . S
C2535 H2601 0.929 . S
C2536 C2511 1.553 . S
C2536 C2535 1.365 . S
C2536 C2537 1.404 . S
C2537 C2536 1.404 . S
C2537 C2538 1.395 . S
C2537 C2548 1.451 . S
C2538 C2537 1.395 . S
C2538 C2539 1.322 . S
C2538 H2602 0.930 . S
C2539 C2538 1.322 . S
C2539 C2540 1.459 . S
C2539 H2603 0.929 . S
C2540 C2539 1.459 . S
C2540 C2541 1.445 . S
C2540 C2549 1.395 . S
C2541 C2519 1.432 . S
C2541 C2540 1.445 . S
C2541 C2542 1.370 . S
C2542 C2541 1.370 . S
C2542 C2543 1.438 . S
C2542 H2604 0.930 . S
C2543 C2529 1.497 . S
C2543 C2542 1.438 . S
C2543 C2544 1.360 . S
C2544 C2543 1.360 . S
C2544 C2545 1.401 . S
C2544 C2549 1.446 . S
C2545 C2544 1.401 . S
C2545 C2546 1.347 . S
C2545 H2605 0.929 . S
C2546 C2545 1.347 . S
C2546 C2547 1.455 . S
C2546 H2606 0.930 . S
C2547 C2534 1.412 . S
C2547 C2546 1.455 . S
C2547 C2548 1.331 . S
C2548 C2537 1.451 . S
C2548 C2547 1.331 . S
C2548 C2549 1.497 . S
C2549 C2540 1.395 . S
C2549 C2544 1.446 . S
C2549 C2548 1.497 . S
C2550 C2551 1.582 . S
C2550 H2607 0.962 . S
C2550 H2608 0.959 . S
C2550 H2609 0.958 . S
C2551 C2550 1.582 . S
C2551 O2554 1.458 . S
C2551 H2580 0.980 . S
O2552 C2497 1.426 . S
O2552 C2498 1.334 . S
O2553 C2525 1.412 . S
O2553 C2526 1.393 . S
O2554 C2516 1.435 . S
O2554 C2551 1.458 . S
O2555 C2507 1.468 . S
O2555 C2508 1.408 . S
H2556 C2497 0.980 . S
H2557 C2496 0.959 . S
H2558 C2496 0.959 . S
H2559 C2496 0.960 . S
H2560 C2499 0.929 . S
H2561 C2503 0.929 . S
H2562 C2504 0.959 . S
H2563 C2504 0.961 . S
H2564 C2504 0.961 . S
H2565 C2505 0.960 . S
H2566 C2505 0.960 . S
H2567 C2505 0.961 . S
H2568 C2507 0.980 . S
H2569 C2506 0.961 . S
H2570 C2506 0.960 . S
H2571 C2506 0.959 . S
H2572 C2509 0.930 . S
H2573 C2513 0.931 . S
H2574 C2514 0.959 . S
H2575 C2514 0.961 . S
H2576 C2514 0.959 . S
H2577 C2515 0.960 . S
H2578 C2515 0.960 . S
H2579 C2515 0.960 . S
H2580 C2551 0.980 . S
H2581 C2517 0.930 . S
H2582 C2521 0.930 . S
H2583 C2522 0.961 . S
H2584 C2522 0.960 . S
H2585 C2522 0.958 . S
H2586 C2523 0.961 . S
H2587 C2523 0.960 . S
H2588 C2523 0.960 . S
H2589 C2525 0.980 . S
H2590 C2524 0.961 . S
H2591 C2524 0.961 . S
H2592 C2524 0.959 . S
H2593 C2527 0.932 . S
H2594 C2531 0.929 . S
H2595 C2532 0.961 . S
H2596 C2532 0.959 . S
H2597 C2532 0.959 . S
H2598 C2533 0.960 . S
H2599 C2533 0.962 . S
H2600 C2533 0.961 . S
H2601 C2535 0.929 . S
H2602 C2538 0.930 . S
H2603 C2539 0.929 . S
H2604 C2542 0.930 . S
H2605 C2545 0.929 . S
H2606 C2546 0.930 . S
H2607 C2550 0.962 . S
H2608 C2550 0.959 . S
H2609 C2550 0.958 . S
C2610 C2611 1.560 . S
C2610 H2671 0.959 . S
C2610 H2672 0.959 . S
C2610 H2673 0.960 . S
C2611 C2610 1.560 . S
C2611 O2666 1.426 . S
C2611 H2670 0.980 . S
C2612 C2613 1.407 1_455 S
C2612 C2617 1.418 . S
C2612 O2666 1.334 . S
C2613 C2612 1.407 1_655 S
C2613 C2614 1.360 . S
C2613 H2674 0.929 . S
C2614 C2613 1.360 . S
C2614 C2615 1.401 1_655 S
C2614 C2618 1.527 . S
C2615 C2614 1.401 1_455 S
C2615 C2616 1.405 . S
C2615 C2648 1.587 1_455 S
C2616 C2615 1.405 . S
C2616 C2617 1.332 . S
C2616 C2619 1.496 . S
C2617 C2612 1.418 . S
C2617 C2616 1.332 . S
C2617 H2675 0.929 . S
C2618 C2614 1.527 . S
C2618 H2676 0.959 . S
C2618 H2677 0.961 . S
C2618 H2678 0.961 . S
C2619 C2616 1.496 . S
C2619 H2679 0.960 . S
C2619 H2680 0.960 . S
C2619 H2681 0.961 . S
C2620 C2621 1.517 . S
C2620 H2683 0.963 . S
C2620 H2684 0.960 . S
C2620 H2685 0.959 . S
C2621 C2620 1.517 . S
C2621 O2669 1.468 . S
C2621 H2682 0.980 1_655 S
C2622 C2623 1.349 . S
C2622 C2627 1.367 . S
C2622 O2669 1.408 . S
C2623 C2622 1.349 . S
C2623 C2624 1.407 1_655 S
C2623 H2686 0.930 1_655 S
C2624 C2623 1.407 1_455 S
C2624 C2625 1.449 1_455 S
C2624 C2628 1.535 . S
C2625 C2624 1.449 1_655 S
C2625 C2626 1.384 . S
C2625 C2650 1.553 . S
C2626 C2625 1.384 . S
C2626 C2627 1.364 . S
C2626 C2629 1.450 . S
C2627 C2622 1.367 . S
C2627 C2626 1.364 . S
C2627 H2687 0.931 . S
C2628 C2624 1.535 . S
C2628 H2688 0.959 . S
C2628 H2689 0.961 . S
C2628 H2690 0.959 . S
C2629 C2626 1.450 . S
C2629 H2691 0.960 . S
C2629 H2692 0.960 . S
C2629 H2693 0.960 . S
C2630 C2631 1.309 . S
C2630 C2635 1.304 . S
C2630 O2668 1.435 . S
C2631 C2630 1.309 . S
C2631 C2632 1.479 1_655 S
C2631 H2695 0.930 1_655 S
C2632 C2631 1.479 1_455 S
C2632 C2633 1.402 1_455 S
C2632 C2636 1.561 . S
C2633 C2632 1.402 1_655 S
C2633 C2634 1.373 . S
C2633 C2655 1.432 . S
C2634 C2633 1.373 . S
C2634 C2635 1.339 . S
C2634 C2637 1.530 . S
C2635 C2630 1.304 . S
C2635 C2634 1.339 . S
C2635 H2696 0.930 . S
C2636 C2632 1.561 . S
C2636 H2697 0.961 . S
C2636 H2698 0.960 . S
C2636 H2699 0.958 . S
C2637 C2634 1.530 . S
C2637 H2700 0.961 . S
C2637 H2701 0.960 . S
C2637 H2702 0.960 . S
C2638 C2639 1.498 1_455 S
C2638 H2704 0.961 . S
C2638 H2705 0.961 . S
C2638 H2706 0.959 . S
C2639 C2638 1.498 1_655 S
C2639 O2667 1.405 1_655 S
C2639 H2703 0.990 . S
C2640 C2641 1.288 . S
C2640 C2645 1.377 1_455 S
C2640 O2667 1.393 . S
C2641 C2640 1.288 . S
C2641 C2642 1.369 . S
C2641 H2707 0.932 . S
C2642 C2641 1.369 . S
C2642 C2643 1.398 1_455 S
C2642 C2646 1.527 . S
C2643 C2642 1.398 1_655 S
C2643 C2644 1.380 . S
C2643 C2657 1.497 . S
C2644 C2643 1.380 . S
C2644 C2645 1.383 . S
C2644 C2647 1.603 . S
C2645 C2640 1.377 1_655 S
C2645 C2644 1.383 . S
C2645 H2708 0.929 . S
C2646 C2642 1.527 . S
C2646 H2709 0.961 . S
C2646 H2710 0.959 . S
C2646 H2711 0.959 . S
C2647 C2644 1.603 . S
C2647 H2712 0.960 . S
C2647 H2713 0.962 . S
C2647 H2714 0.961 . S
C2648 C2615 1.587 1_655 S
C2648 C2649 1.360 . S
C2648 C2661 1.412 . S
C2649 C2648 1.360 . S
C2649 C2650 1.365 . S
C2649 H2715 0.929 . S
C2650 C2625 1.553 . S
C2650 C2649 1.365 . S
C2650 C2651 1.404 . S
C2651 C2650 1.404 . S
C2651 C2652 1.395 . S
C2651 C2662 1.451 . S
C2652 C2651 1.395 . S
C2652 C2653 1.322 . S
C2652 H2716 0.930 . S
C2653 C2652 1.322 . S
C2653 C2654 1.459 . S
C2653 H2717 0.929 . S
C2654 C2653 1.459 . S
C2654 C2655 1.445 . S
C2654 C2663 1.395 . S
C2655 C2633 1.432 . S
C2655 C2654 1.445 . S
C2655 C2656 1.370 . S
C2656 C2655 1.370 . S
C2656 C2657 1.438 . S
C2656 H2718 0.930 . S
C2657 C2643 1.497 . S
C2657 C2656 1.438 . S
C2657 C2658 1.360 . S
C2658 C2657 1.360 . S
C2658 C2659 1.401 . S
C2658 C2663 1.446 . S
C2659 C2658 1.401 . S
C2659 C2660 1.347 . S
C2659 H2719 0.929 . S
C2660 C2659 1.347 . S
C2660 C2661 1.455 . S
C2660 H2720 0.930 . S
C2661 C2648 1.412 . S
C2661 C2660 1.455 . S
C2661 C2662 1.331 . S
C2662 C2651 1.451 . S
C2662 C2661 1.331 . S
C2662 C2663 1.497 . S
C2663 C2654 1.395 . S
C2663 C2658 1.446 . S
C2663 C2662 1.497 . S
C2664 C2665 1.582 . S
C2664 H2721 0.962 . S
C2664 H2722 0.959 . S
C2664 H2723 0.958 . S
C2665 C2664 1.582 . S
C2665 O2668 1.458 . S
C2665 H2694 0.980 . S
O2666 C2611 1.426 . S
O2666 C2612 1.334 . S
O2667 C2639 1.405 1_455 S
O2667 C2640 1.393 . S
O2668 C2630 1.435 . S
O2668 C2665 1.458 . S
O2669 C2621 1.468 . S
O2669 C2622 1.408 . S
H2670 C2611 0.980 . S
H2671 C2610 0.959 . S
H2672 C2610 0.959 . S
H2673 C2610 0.960 . S
H2674 C2613 0.929 . S
H2675 C2617 0.929 . S
H2676 C2618 0.959 . S
H2677 C2618 0.961 . S
H2678 C2618 0.961 . S
H2679 C2619 0.960 . S
H2680 C2619 0.960 . S
H2681 C2619 0.961 . S
H2682 C2621 0.980 1_455 S
H2683 C2620 0.963 . S
H2684 C2620 0.960 . S
H2685 C2620 0.959 . S
H2686 C2623 0.930 1_455 S
H2687 C2627 0.931 . S
H2688 C2628 0.959 . S
H2689 C2628 0.961 . S
H2690 C2628 0.959 . S
H2691 C2629 0.960 . S
H2692 C2629 0.960 . S
H2693 C2629 0.960 . S
H2694 C2665 0.980 . S
H2695 C2631 0.930 1_455 S
H2696 C2635 0.930 . S
H2697 C2636 0.961 . S
H2698 C2636 0.960 . S
H2699 C2636 0.958 . S
H2700 C2637 0.961 . S
H2701 C2637 0.960 . S
H2702 C2637 0.960 . S
H2703 C2639 0.990 . S
H2704 C2638 0.961 . S
H2705 C2638 0.961 . S
H2706 C2638 0.959 . S
H2707 C2641 0.932 . S
H2708 C2645 0.929 . S
H2709 C2646 0.961 . S
H2710 C2646 0.959 . S
H2711 C2646 0.959 . S
H2712 C2647 0.960 . S
H2713 C2647 0.962 . S
H2714 C2647 0.961 . S
H2715 C2649 0.929 . S
H2716 C2652 0.930 . S
H2717 C2653 0.929 . S
H2718 C2656 0.930 . S
H2719 C2659 0.929 . S
H2720 C2660 0.930 . S
H2721 C2664 0.962 . S
H2722 C2664 0.959 . S
H2723 C2664 0.958 . S
C2724 C2725 1.560 . S
C2724 H2785 0.959 . S
C2724 H2786 0.959 . S
C2724 H2787 0.960 . S
C2725 C2724 1.560 . S
C2725 O2780 1.426 . S
C2725 H2784 0.980 . S
C2726 C2727 1.407 . S
C2726 C2731 1.418 . S
C2726 O2780 1.334 . S
C2727 C2726 1.407 . S
C2727 C2728 1.360 . S
C2727 H2788 0.929 . S
C2728 C2727 1.360 . S
C2728 C2729 1.401 . S
C2728 C2732 1.527 . S
C2729 C2728 1.401 . S
C2729 C2730 1.405 . S
C2729 C2762 1.587 . S
C2730 C2729 1.405 . S
C2730 C2731 1.332 . S
C2730 C2733 1.496 . S
C2731 C2726 1.418 . S
C2731 C2730 1.332 . S
C2731 H2789 0.929 . S
C2732 C2728 1.527 . S
C2732 H2790 0.959 . S
C2732 H2791 0.961 . S
C2732 H2792 0.961 . S
C2733 C2730 1.496 . S
C2733 H2793 0.960 . S
C2733 H2794 0.960 . S
C2733 H2795 0.961 . S
C2734 C2735 1.517 . S
C2734 H2797 0.961 . S
C2734 H2798 0.960 . S
C2734 H2799 0.959 . S
C2735 C2734 1.517 . S
C2735 O2783 1.468 . S
C2735 H2796 0.980 . S
C2736 C2737 1.349 . S
C2736 C2741 1.367 . S
C2736 O2783 1.408 . S
C2737 C2736 1.349 . S
C2737 C2738 1.407 . S
C2737 H2800 0.930 . S
C2738 C2737 1.407 . S
C2738 C2739 1.449 . S
C2738 C2742 1.535 . S
C2739 C2738 1.449 . S
C2739 C2740 1.384 . S
C2739 C2764 1.553 . S
C2740 C2739 1.384 . S
C2740 C2741 1.364 . S
C2740 C2743 1.450 . S
C2741 C2736 1.367 . S
C2741 C2740 1.364 . S
C2741 H2801 0.931 . S
C2742 C2738 1.535 . S
C2742 H2802 0.959 . S
C2742 H2803 0.961 . S
C2742 H2804 0.959 . S
C2743 C2740 1.450 . S
C2743 H2805 0.960 . S
C2743 H2806 0.960 . S
C2743 H2807 0.960 . S
C2744 C2745 1.309 . S
C2744 C2749 1.304 . S
C2744 O2782 1.435 . S
C2745 C2744 1.309 . S
C2745 C2746 1.476 . S
C2745 H2809 0.930 . S
C2746 C2745 1.476 . S
C2746 C2747 1.400 . S
C2746 C2750 1.567 . S
C2747 C2746 1.400 . S
C2747 C2748 1.373 . S
C2747 C2769 1.432 . S
C2748 C2747 1.373 . S
C2748 C2749 1.339 . S
C2748 C2751 1.530 . S
C2749 C2744 1.304 . S
C2749 C2748 1.339 . S
C2749 H2810 0.930 . S
C2750 C2746 1.567 . S
C2750 H2811 0.961 . S
C2750 H2812 0.960 . S
C2750 H2813 0.958 . S
C2751 C2748 1.530 . S
C2751 H2814 0.961 . S
C2751 H2815 0.960 . S
C2751 H2816 0.960 . S
C2752 C2753 1.530 . S
C2752 H2818 0.961 . S
C2752 H2819 0.961 . S
C2752 H2820 0.959 . S
C2753 C2752 1.530 . S
C2753 O2781 1.412 . S
C2753 H2817 0.980 . S
C2754 C2755 1.288 . S
C2754 C2759 1.377 . S
C2754 O2781 1.393 . S
C2755 C2754 1.288 . S
C2755 C2756 1.369 . S
C2755 H2821 0.932 . S
C2756 C2755 1.369 . S
C2756 C2757 1.398 . S
C2756 C2760 1.527 . S
C2757 C2756 1.398 . S
C2757 C2758 1.380 . S
C2757 C2771 1.497 . S
C2758 C2757 1.380 . S
C2758 C2759 1.383 . S
C2758 C2761 1.603 . S
C2759 C2754 1.377 . S
C2759 C2758 1.383 . S
C2759 H2822 0.929 . S
C2760 C2756 1.527 . S
C2760 H2823 0.961 . S
C2760 H2824 0.959 . S
C2760 H2825 0.959 . S
C2761 C2758 1.603 . S
C2761 H2826 0.960 . S
C2761 H2827 0.962 . S
C2761 H2828 0.961 . S
C2762 C2729 1.587 . S
C2762 C2763 1.360 . S
C2762 C2775 1.412 . S
C2763 C2762 1.360 . S
C2763 C2764 1.365 . S
C2763 H2829 0.929 . S
C2764 C2739 1.553 . S
C2764 C2763 1.365 . S
C2764 C2765 1.404 . S
C2765 C2764 1.404 . S
C2765 C2766 1.395 . S
C2765 C2776 1.451 . S
C2766 C2765 1.395 . S
C2766 C2767 1.322 . S
C2766 H2830 0.930 . S
C2767 C2766 1.322 . S
C2767 C2768 1.459 . S
C2767 H2831 0.929 . S
C2768 C2767 1.459 . S
C2768 C2769 1.445 . S
C2768 C2777 1.395 . S
C2769 C2747 1.432 . S
C2769 C2768 1.445 . S
C2769 C2770 1.370 . S
C2770 C2769 1.370 . S
C2770 C2771 1.438 . S
C2770 H2832 0.930 . S
C2771 C2757 1.497 . S
C2771 C2770 1.438 . S
C2771 C2772 1.360 . S
C2772 C2771 1.360 . S
C2772 C2773 1.401 . S
C2772 C2777 1.446 . S
C2773 C2772 1.401 . S
C2773 C2774 1.347 . S
C2773 H2833 0.929 . S
C2774 C2773 1.347 . S
C2774 C2775 1.455 . S
C2774 H2834 0.930 . S
C2775 C2762 1.412 . S
C2775 C2774 1.455 . S
C2775 C2776 1.331 . S
C2776 C2765 1.451 . S
C2776 C2775 1.331 . S
C2776 C2777 1.497 . S
C2777 C2768 1.395 . S
C2777 C2772 1.446 . S
C2777 C2776 1.497 . S
C2778 C2779 1.582 . S
C2778 H2835 0.962 . S
C2778 H2836 0.959 . S
C2778 H2837 0.958 . S
C2779 C2778 1.582 . S
C2779 O2782 1.458 . S
C2779 H2808 0.980 . S
O2780 C2725 1.426 . S
O2780 C2726 1.334 . S
O2781 C2753 1.412 . S
O2781 C2754 1.393 . S
O2782 C2744 1.435 . S
O2782 C2779 1.458 . S
O2783 C2735 1.468 . S
O2783 C2736 1.408 . S
H2784 C2725 0.980 . S
H2785 C2724 0.959 . S
H2786 C2724 0.959 . S
H2787 C2724 0.960 . S
H2788 C2727 0.929 . S
H2789 C2731 0.929 . S
H2790 C2732 0.959 . S
H2791 C2732 0.961 . S
H2792 C2732 0.961 . S
H2793 C2733 0.960 . S
H2794 C2733 0.960 . S
H2795 C2733 0.961 . S
H2796 C2735 0.980 . S
H2797 C2734 0.961 . S
H2798 C2734 0.960 . S
H2799 C2734 0.959 . S
H2800 C2737 0.930 . S
H2801 C2741 0.931 . S
H2802 C2742 0.959 . S
H2803 C2742 0.961 . S
H2804 C2742 0.959 . S
H2805 C2743 0.960 . S
H2806 C2743 0.960 . S
H2807 C2743 0.960 . S
H2808 C2779 0.980 . S
H2809 C2745 0.930 . S
H2810 C2749 0.930 . S
H2811 C2750 0.961 . S
H2812 C2750 0.960 . S
H2813 C2750 0.958 . S
H2814 C2751 0.961 . S
H2815 C2751 0.960 . S
H2816 C2751 0.960 . S
H2817 C2753 0.980 . S
H2818 C2752 0.961 . S
H2819 C2752 0.961 . S
H2820 C2752 0.959 . S
H2821 C2755 0.932 . S
H2822 C2759 0.929 . S
H2823 C2760 0.961 . S
H2824 C2760 0.959 . S
H2825 C2760 0.959 . S
H2826 C2761 0.960 . S
H2827 C2761 0.962 . S
H2828 C2761 0.961 . S
H2829 C2763 0.929 . S
H2830 C2766 0.930 . S
H2831 C2767 0.929 . S
H2832 C2770 0.930 . S
H2833 C2773 0.929 . S
H2834 C2774 0.930 . S
H2835 C2778 0.962 . S
H2836 C2778 0.959 . S
H2837 C2778 0.958 . S
C2838 C2839 1.560 . S
C2838 H2899 0.959 . S
C2838 H2900 0.959 . S
C2838 H2901 0.960 . S
C2839 C2838 1.560 . S
C2839 O2894 1.426 . S
C2839 H2898 0.980 . S
C2840 C2841 1.407 1_565 S
C2840 C2845 1.418 . S
C2840 O2894 1.334 . S
C2841 C2840 1.407 1_545 S
C2841 C2842 1.360 . S
C2841 H2902 0.929 . S
C2842 C2841 1.360 . S
C2842 C2843 1.401 1_545 S
C2842 C2846 1.527 . S
C2843 C2842 1.401 1_565 S
C2843 C2844 1.405 . S
C2843 C2876 1.587 1_565 S
C2844 C2843 1.405 . S
C2844 C2845 1.332 . S
C2844 C2847 1.496 . S
C2845 C2840 1.418 . S
C2845 C2844 1.332 . S
C2845 H2903 0.929 . S
C2846 C2842 1.527 . S
C2846 H2904 0.959 . S
C2846 H2905 0.961 . S
C2846 H2906 0.961 . S
C2847 C2844 1.496 . S
C2847 H2907 0.960 . S
C2847 H2908 0.960 . S
C2847 H2909 0.961 . S
C2848 C2849 1.517 . S
C2848 H2911 0.961 1_545 S
C2848 H2912 0.960 . S
C2848 H2913 0.959 . S
C2849 C2848 1.517 . S
C2849 O2897 1.468 . S
C2849 H2910 0.980 1_545 S
C2850 C2851 1.380 . S
C2850 C2855 1.367 . S
C2850 O2897 1.408 . S
C2851 C2850 1.380 . S
C2851 C2852 1.426 1_545 S
C2851 H2914 0.881 1_545 S
C2852 C2851 1.426 1_565 S
C2852 C2853 1.449 1_565 S
C2852 C2856 1.535 . S
C2853 C2852 1.449 1_545 S
C2853 C2854 1.384 . S
C2853 C2878 1.553 . S
C2854 C2853 1.384 . S
C2854 C2855 1.364 . S
C2854 C2857 1.450 . S
C2855 C2850 1.367 . S
C2855 C2854 1.364 . S
C2855 H2915 0.931 . S
C2856 C2852 1.535 . S
C2856 H2916 0.959 . S
C2856 H2917 0.961 . S
C2856 H2918 0.959 . S
C2857 C2854 1.450 . S
C2857 H2919 0.960 . S
C2857 H2920 0.960 . S
C2857 H2921 0.960 . S
C2858 C2859 1.309 . S
C2858 C2863 1.304 . S
C2858 O2896 1.435 . S
C2859 C2858 1.309 . S
C2859 C2860 1.489 1_545 S
C2859 H2923 0.930 1_545 S
C2860 C2859 1.489 1_565 S
C2860 C2861 1.357 1_565 S
C2860 C2864 1.596 . S
C2861 C2860 1.357 1_545 S
C2861 C2862 1.373 . S
C2861 C2883 1.432 . S
C2862 C2861 1.373 . S
C2862 C2863 1.339 . S
C2862 C2865 1.530 . S
C2863 C2858 1.304 . S
C2863 C2862 1.339 . S
C2863 H2924 0.930 . S
C2864 C2860 1.596 . S
C2864 H2925 0.961 . S
C2864 H2926 0.960 . S
C2864 H2927 0.958 . S
C2865 C2862 1.530 . S
C2865 H2928 0.961 . S
C2865 H2929 0.960 . S
C2865 H2930 0.960 . S
C2866 C2867 1.530 1_565 S
C2866 H2932 0.961 . S
C2866 H2933 0.961 . S
C2866 H2934 0.959 . S
C2867 C2866 1.530 1_545 S
C2867 O2895 1.412 1_545 S
C2867 H2931 0.980 . S
C2868 C2869 1.288 . S
C2868 C2873 1.377 1_565 S
C2868 O2895 1.393 . S
C2869 C2868 1.288 . S
C2869 C2870 1.369 . S
C2869 H2935 0.932 . S
C2870 C2869 1.369 . S
C2870 C2871 1.398 1_565 S
C2870 C2874 1.527 . S
C2871 C2870 1.398 1_545 S
C2871 C2872 1.380 . S
C2871 C2885 1.497 . S
C2872 C2871 1.380 . S
C2872 C2873 1.383 . S
C2872 C2875 1.603 . S
C2873 C2868 1.377 1_545 S
C2873 C2872 1.383 . S
C2873 H2936 0.929 . S
C2874 C2870 1.527 . S
C2874 H2937 0.961 . S
C2874 H2938 0.959 . S
C2874 H2939 0.959 . S
C2875 C2872 1.603 . S
C2875 H2940 0.960 . S
C2875 H2941 0.962 . S
C2875 H2942 0.961 . S
C2876 C2843 1.587 1_545 S
C2876 C2877 1.360 . S
C2876 C2889 1.412 . S
C2877 C2876 1.360 . S
C2877 C2878 1.365 . S
C2877 H2943 0.929 . S
C2878 C2853 1.553 . S
C2878 C2877 1.365 . S
C2878 C2879 1.404 . S
C2879 C2878 1.404 . S
C2879 C2880 1.395 . S
C2879 C2890 1.451 . S
C2880 C2879 1.395 . S
C2880 C2881 1.322 . S
C2880 H2944 0.930 . S
C2881 C2880 1.322 . S
C2881 C2882 1.459 . S
C2881 H2945 0.929 . S
C2882 C2881 1.459 . S
C2882 C2883 1.445 . S
C2882 C2891 1.395 . S
C2883 C2861 1.432 . S
C2883 C2882 1.445 . S
C2883 C2884 1.370 . S
C2884 C2883 1.370 . S
C2884 C2885 1.438 . S
C2884 H2946 0.930 . S
C2885 C2871 1.497 . S
C2885 C2884 1.438 . S
C2885 C2886 1.360 . S
C2886 C2885 1.360 . S
C2886 C2887 1.401 . S
C2886 C2891 1.446 . S
C2887 C2886 1.401 . S
C2887 C2888 1.347 . S
C2887 H2947 0.929 . S
C2888 C2887 1.347 . S
C2888 C2889 1.455 . S
C2888 H2948 0.930 . S
C2889 C2876 1.412 . S
C2889 C2888 1.455 . S
C2889 C2890 1.331 . S
C2890 C2879 1.451 . S
C2890 C2889 1.331 . S
C2890 C2891 1.497 . S
C2891 C2882 1.395 . S
C2891 C2886 1.446 . S
C2891 C2890 1.497 . S
C2892 C2893 1.582 . S
C2892 H2949 0.962 . S
C2892 H2950 0.959 . S
C2892 H2951 0.958 . S
C2893 C2892 1.582 . S
C2893 O2896 1.458 . S
C2893 H2922 0.980 . S
O2894 C2839 1.426 . S
O2894 C2840 1.334 . S
O2895 C2867 1.412 1_565 S
O2895 C2868 1.393 . S
O2896 C2858 1.435 . S
O2896 C2893 1.458 . S
O2897 C2849 1.468 . S
O2897 C2850 1.408 . S
H2898 C2839 0.980 . S
H2899 C2838 0.959 . S
H2900 C2838 0.959 . S
H2901 C2838 0.960 . S
H2902 C2841 0.929 . S
H2903 C2845 0.929 . S
H2904 C2846 0.959 . S
H2905 C2846 0.961 . S
H2906 C2846 0.961 . S
H2907 C2847 0.960 . S
H2908 C2847 0.960 . S
H2909 C2847 0.961 . S
H2910 C2849 0.980 1_565 S
H2911 C2848 0.961 1_565 S
H2912 C2848 0.960 . S
H2913 C2848 0.959 . S
H2914 C2851 0.881 1_565 S
H2915 C2855 0.931 . S
H2916 C2856 0.959 . S
H2917 C2856 0.961 . S
H2918 C2856 0.959 . S
H2919 C2857 0.960 . S
H2920 C2857 0.960 . S
H2921 C2857 0.960 . S
H2922 C2893 0.980 . S
H2923 C2859 0.930 1_565 S
H2924 C2863 0.930 . S
H2925 C2864 0.961 . S
H2926 C2864 0.960 . S
H2927 C2864 0.958 . S
H2928 C2865 0.961 . S
H2929 C2865 0.960 . S
H2930 C2865 0.960 . S
H2931 C2867 0.980 . S
H2932 C2866 0.961 . S
H2933 C2866 0.961 . S
H2934 C2866 0.959 . S
H2935 C2869 0.932 . S
H2936 C2873 0.929 . S
H2937 C2874 0.961 . S
H2938 C2874 0.959 . S
H2939 C2874 0.959 . S
H2940 C2875 0.960 . S
H2941 C2875 0.962 . S
H2942 C2875 0.961 . S
H2943 C2877 0.929 . S
H2944 C2880 0.930 . S
H2945 C2881 0.929 . S
H2946 C2884 0.930 . S
H2947 C2887 0.929 . S
H2948 C2888 0.930 . S
H2949 C2892 0.962 . S
H2950 C2892 0.959 . S
H2951 C2892 0.958 . S
C2952 C2953 1.560 . S
C2952 H3013 0.959 . S
C2952 H3014 0.959 . S
C2952 H3015 0.960 . S
C2953 C2952 1.560 . S
C2953 O3008 1.426 . S
C2953 H3012 0.980 1_565 S
C2954 C2955 1.407 1_565 S
C2954 C2959 1.418 . S
C2954 O3008 1.334 . S
C2955 C2954 1.407 1_545 S
C2955 C2956 1.360 . S
C2955 H3016 0.929 . S
C2956 C2955 1.360 . S
C2956 C2957 1.401 . S
C2956 C2960 1.527 . S
C2957 C2956 1.401 . S
C2957 C2958 1.405 1_545 S
C2957 C2990 1.587 . S
C2958 C2957 1.405 1_565 S
C2958 C2959 1.332 . S
C2958 C2961 1.496 . S
C2959 C2954 1.418 . S
C2959 C2958 1.332 . S
C2959 H3017 0.929 . S
C2960 C2956 1.527 . S
C2960 H3018 0.959 . S
C2960 H3019 0.961 . S
C2960 H3020 0.961 . S
C2961 C2958 1.496 . S
C2961 H3021 0.960 . S
C2961 H3022 0.960 . S
C2961 H3023 0.961 . S
C2962 C2963 1.517 . S
C2962 H3025 0.961 . S
C2962 H3026 0.960 . S
C2962 H3027 0.959 . S
C2963 C2962 1.517 . S
C2963 O3011 1.468 . S
C2963 H3024 0.980 . S
C2964 C2965 1.349 . S
C2964 C2969 1.367 . S
C2964 O3011 1.408 . S
C2965 C2964 1.349 . S
C2965 C2966 1.407 . S
C2965 H3028 0.936 . S
C2966 C2965 1.407 . S
C2966 C2967 1.449 . S
C2966 C2970 1.535 1_545 S
C2967 C2966 1.449 . S
C2967 C2968 1.384 . S
C2967 C2992 1.553 . S
C2968 C2967 1.384 . S
C2968 C2969 1.364 . S
C2968 C2971 1.450 . S
C2969 C2964 1.367 . S
C2969 C2968 1.364 . S
C2969 H3029 0.931 . S
C2970 C2966 1.535 1_565 S
C2970 H3030 0.959 . S
C2970 H3031 0.961 . S
C2970 H3032 0.959 . S
C2971 C2968 1.450 . S
C2971 H3033 0.960 . S
C2971 H3034 0.960 . S
C2971 H3035 0.960 . S
C2972 C2973 1.309 1_545 S
C2972 C2977 1.304 . S
C2972 O3010 1.435 . S
C2973 C2972 1.309 1_565 S
C2973 C2974 1.476 . S
C2973 H3037 0.930 . S
C2974 C2973 1.476 . S
C2974 C2975 1.400 1_565 S
C2974 C2978 1.567 . S
C2975 C2974 1.400 1_545 S
C2975 C2976 1.373 . S
C2975 C2997 1.432 . S
C2976 C2975 1.373 . S
C2976 C2977 1.339 . S
C2976 C2979 1.530 . S
C2977 C2972 1.304 . S
C2977 C2976 1.339 . S
C2977 H3038 0.930 . S
C2978 C2974 1.567 . S
C2978 H3039 0.961 . S
C2978 H3040 0.960 . S
C2978 H3041 0.958 . S
C2979 C2976 1.530 . S
C2979 H3042 0.961 . S
C2979 H3043 0.960 . S
C2979 H3044 0.960 . S
C2980 C2981 1.530 . S
C2980 H3046 0.961 . S
C2980 H3047 0.961 . S
C2980 H3048 0.959 . S
C2981 C2980 1.530 . S
C2981 O3009 1.412 . S
C2981 H3045 0.980 . S
C2982 C2983 1.288 . S
C2982 C2987 1.377 1_565 S
C2982 O3009 1.393 . S
C2983 C2982 1.288 . S
C2983 C2984 1.369 . S
C2983 H3049 0.932 . S
C2984 C2983 1.369 . S
C2984 C2985 1.398 . S
C2984 C2988 1.527 . S
C2985 C2984 1.398 . S
C2985 C2986 1.380 1_565 S
C2985 C2999 1.497 1_565 S
C2986 C2985 1.380 1_545 S
C2986 C2987 1.383 . S
C2986 C2989 1.603 . S
C2987 C2982 1.377 1_545 S
C2987 C2986 1.383 . S
C2987 H3050 0.929 . S
C2988 C2984 1.527 . S
C2988 H3051 0.961 . S
C2988 H3052 0.959 . S
C2988 H3053 0.959 . S
C2989 C2986 1.603 . S
C2989 H3054 0.960 . S
C2989 H3055 0.962 . S
C2989 H3056 0.961 . S
C2990 C2957 1.587 . S
C2990 C2991 1.360 . S
C2990 C3003 1.412 . S
C2991 C2990 1.360 . S
C2991 C2992 1.365 . S
C2991 H3057 0.929 . S
C2992 C2967 1.553 . S
C2992 C2991 1.365 . S
C2992 C2993 1.404 . S
C2993 C2992 1.404 . S
C2993 C2994 1.395 . S
C2993 C3004 1.451 . S
C2994 C2993 1.395 . S
C2994 C2995 1.322 . S
C2994 H3058 0.930 . S
C2995 C2994 1.322 . S
C2995 C2996 1.459 . S
C2995 H3059 0.929 . S
C2996 C2995 1.459 . S
C2996 C2997 1.445 . S
C2996 C3005 1.395 . S
C2997 C2975 1.432 . S
C2997 C2996 1.445 . S
C2997 C2998 1.370 . S
C2998 C2997 1.370 . S
C2998 C2999 1.438 . S
C2998 H3060 0.930 . S
C2999 C2985 1.497 1_545 S
C2999 C2998 1.438 . S
C2999 C3000 1.360 . S
C3000 C2999 1.360 . S
C3000 C3001 1.401 . S
C3000 C3005 1.446 . S
C3001 C3000 1.401 . S
C3001 C3002 1.347 . S
C3001 H3061 0.959 . S
C3002 C3001 1.347 . S
C3002 C3003 1.455 . S
C3002 H3062 0.930 . S
C3003 C2990 1.412 . S
C3003 C3002 1.455 . S
C3003 C3004 1.331 . S
C3004 C2993 1.451 . S
C3004 C3003 1.331 . S
C3004 C3005 1.497 . S
C3005 C2996 1.395 . S
C3005 C3000 1.446 . S
C3005 C3004 1.497 . S
C3006 C3007 1.627 . S
C3006 H3063 0.962 . S
C3006 H3064 0.959 . S
C3006 H3065 0.958 . S
C3007 C3006 1.627 . S
C3007 O3010 1.476 . S
C3007 H3036 0.981 1_545 S
O3008 C2953 1.426 . S
O3008 C2954 1.334 . S
O3009 C2981 1.412 . S
O3009 C2982 1.393 . S
O3010 C2972 1.435 . S
O3010 C3007 1.476 . S
O3011 C2963 1.468 . S
O3011 C2964 1.408 . S
H3012 C2953 0.980 1_545 S
H3013 C2952 0.959 . S
H3014 C2952 0.959 . S
H3015 C2952 0.960 . S
H3016 C2955 0.929 . S
H3017 C2959 0.929 . S
H3018 C2960 0.959 . S
H3019 C2960 0.961 . S
H3020 C2960 0.961 . S
H3021 C2961 0.960 . S
H3022 C2961 0.960 . S
H3023 C2961 0.961 . S
H3024 C2963 0.980 . S
H3025 C2962 0.961 . S
H3026 C2962 0.960 . S
H3027 C2962 0.959 . S
H3028 C2965 0.936 . S
H3029 C2969 0.931 . S
H3030 C2970 0.959 . S
H3031 C2970 0.961 . S
H3032 C2970 0.959 . S
H3033 C2971 0.960 . S
H3034 C2971 0.960 . S
H3035 C2971 0.960 . S
H3036 C3007 0.981 1_565 S
H3037 C2973 0.930 . S
H3038 C2977 0.930 . S
H3039 C2978 0.961 . S
H3040 C2978 0.960 . S
H3041 C2978 0.958 . S
H3042 C2979 0.961 . S
H3043 C2979 0.960 . S
H3044 C2979 0.960 . S
H3045 C2981 0.980 . S
H3046 C2980 0.961 . S
H3047 C2980 0.961 . S
H3048 C2980 0.959 . S
H3049 C2983 0.932 . S
H3050 C2987 0.929 . S
H3051 C2988 0.961 . S
H3052 C2988 0.959 . S
H3053 C2988 0.959 . S
H3054 C2989 0.960 . S
H3055 C2989 0.962 . S
H3056 C2989 0.961 . S
H3057 C2991 0.929 . S
H3058 C2994 0.930 . S
H3059 C2995 0.929 . S
H3060 C2998 0.930 . S
H3061 C3001 0.959 . S
H3062 C3002 0.930 . S
H3063 C3006 0.962 . S
H3064 C3006 0.959 . S
H3065 C3006 0.958 . S
C3066 C3067 1.560 . S
C3066 H3127 0.959 . S
C3066 H3128 0.959 . S
C3066 H3129 0.960 . S
C3067 C3066 1.560 . S
C3067 O3122 1.426 . S
C3067 H3126 0.980 1_455 S
C3068 C3069 1.407 1_455 S
C3068 C3073 1.418 . S
C3068 O3122 1.334 . S
C3069 C3068 1.407 1_655 S
C3069 C3070 1.360 . S
C3069 H3130 0.929 . S
C3070 C3069 1.360 . S
C3070 C3071 1.401 . S
C3070 C3074 1.527 . S
C3071 C3070 1.401 . S
C3071 C3072 1.405 1_655 S
C3071 C3104 1.587 . S
C3072 C3071 1.405 1_455 S
C3072 C3073 1.332 . S
C3072 C3075 1.496 . S
C3073 C3068 1.418 . S
C3073 C3072 1.332 . S
C3073 H3131 0.929 . S
C3074 C3070 1.527 . S
C3074 H3132 0.959 . S
C3074 H3133 0.961 . S
C3074 H3134 0.961 . S
C3075 C3072 1.496 . S
C3075 H3135 0.960 . S
C3075 H3136 0.960 . S
C3075 H3137 0.961 . S
C3076 C3077 1.517 . S
C3076 H3139 0.961 . S
C3076 H3140 0.960 . S
C3076 H3141 0.959 . S
C3077 C3076 1.517 . S
C3077 O3125 1.468 . S
C3077 H3138 0.980 . S
C3078 C3079 1.349 . S
C3078 C3083 1.367 . S
C3078 O3125 1.408 . S
C3079 C3078 1.349 . S
C3079 C3080 1.407 . S
C3079 H3142 0.922 . S
C3080 C3079 1.407 . S
C3080 C3081 1.449 . S
C3080 C3084 1.535 1_655 S
C3081 C3080 1.449 . S
C3081 C3082 1.384 . S
C3081 C3106 1.553 . S
C3082 C3081 1.384 . S
C3082 C3083 1.364 . S
C3082 C3085 1.450 . S
C3083 C3078 1.367 . S
C3083 C3082 1.364 . S
C3083 H3143 0.931 . S
C3084 C3080 1.535 1_455 S
C3084 H3144 0.959 . S
C3084 H3145 0.961 . S
C3084 H3146 0.959 . S
C3085 C3082 1.450 . S
C3085 H3147 0.960 . S
C3085 H3148 0.960 . S
C3085 H3149 0.960 . S
C3086 C3087 1.309 1_655 S
C3086 C3091 1.304 . S
C3086 O3124 1.435 . S
C3087 C3086 1.309 1_455 S
C3087 C3088 1.476 . S
C3087 H3151 0.930 . S
C3088 C3087 1.476 . S
C3088 C3089 1.400 1_455 S
C3088 C3092 1.567 . S
C3089 C3088 1.400 1_655 S
C3089 C3090 1.373 . S
C3089 C3111 1.432 . S
C3090 C3089 1.373 . S
C3090 C3091 1.339 . S
C3090 C3093 1.530 . S
C3091 C3086 1.304 . S
C3091 C3090 1.339 . S
C3091 H3152 0.930 . S
C3092 C3088 1.567 . S
C3092 H3153 0.961 . S
C3092 H3154 0.960 . S
C3092 H3155 0.958 . S
C3093 C3090 1.530 . S
C3093 H3156 0.961 . S
C3093 H3157 0.960 . S
C3093 H3158 0.960 . S
C3094 C3095 1.530 . S
C3094 H3160 0.961 . S
C3094 H3161 0.961 . S
C3094 H3162 0.959 . S
C3095 C3094 1.530 . S
C3095 O3123 1.412 . S
C3095 H3159 0.991 . S
C3096 C3097 1.288 . S
C3096 C3101 1.377 1_455 S
C3096 O3123 1.393 . S
C3097 C3096 1.288 . S
C3097 C3098 1.369 . S
C3097 H3163 0.932 . S
C3098 C3097 1.369 . S
C3098 C3099 1.398 . S
C3098 C3102 1.527 . S
C3099 C3098 1.398 . S
C3099 C3100 1.380 1_455 S
C3099 C3113 1.497 1_455 S
C3100 C3099 1.380 1_655 S
C3100 C3101 1.383 . S
C3100 C3103 1.603 . S
C3101 C3096 1.377 1_655 S
C3101 C3100 1.383 . S
C3101 H3164 0.929 . S
C3102 C3098 1.527 . S
C3102 H3165 0.961 . S
C3102 H3166 0.959 . S
C3102 H3167 0.959 . S
C3103 C3100 1.603 . S
C3103 H3168 0.960 . S
C3103 H3169 0.962 . S
C3103 H3170 0.961 . S
C3104 C3071 1.587 . S
C3104 C3105 1.360 . S
C3104 C3117 1.412 . S
C3105 C3104 1.360 . S
C3105 C3106 1.365 . S
C3105 H3171 0.929 . S
C3106 C3081 1.553 . S
C3106 C3105 1.365 . S
C3106 C3107 1.404 . S
C3107 C3106 1.404 . S
C3107 C3108 1.395 . S
C3107 C3118 1.451 . S
C3108 C3107 1.395 . S
C3108 C3109 1.322 . S
C3108 H3172 0.930 . S
C3109 C3108 1.322 . S
C3109 C3110 1.459 . S
C3109 H3173 0.929 . S
C3110 C3109 1.459 . S
C3110 C3111 1.445 . S
C3110 C3119 1.395 . S
C3111 C3089 1.432 . S
C3111 C3110 1.445 . S
C3111 C3112 1.370 . S
C3112 C3111 1.370 . S
C3112 C3113 1.438 . S
C3112 H3174 0.930 . S
C3113 C3099 1.497 1_655 S
C3113 C3112 1.438 . S
C3113 C3114 1.360 . S
C3114 C3113 1.360 . S
C3114 C3115 1.401 . S
C3114 C3119 1.446 . S
C3115 C3114 1.401 . S
C3115 C3116 1.347 . S
C3115 H3175 0.929 . S
C3116 C3115 1.347 . S
C3116 C3117 1.455 . S
C3116 H3176 0.930 . S
C3117 C3104 1.412 . S
C3117 C3116 1.455 . S
C3117 C3118 1.331 . S
C3118 C3107 1.451 . S
C3118 C3117 1.331 . S
C3118 C3119 1.497 . S
C3119 C3110 1.395 . S
C3119 C3114 1.446 . S
C3119 C3118 1.497 . S
C3120 C3121 1.582 1_655 S
C3120 H3177 0.944 1_655 S
C3120 H3178 0.959 . S
C3120 H3179 0.958 . S
C3121 C3120 1.582 1_455 S
C3121 O3124 1.458 1_455 S
C3121 H3150 0.980 . S
O3122 C3067 1.426 . S
O3122 C3068 1.334 . S
O3123 C3095 1.412 . S
O3123 C3096 1.393 . S
O3124 C3086 1.435 . S
O3124 C3121 1.458 1_655 S
O3125 C3077 1.468 . S
O3125 C3078 1.408 . S
H3126 C3067 0.980 1_655 S
H3127 C3066 0.959 . S
H3128 C3066 0.959 . S
H3129 C3066 0.960 . S
H3130 C3069 0.929 . S
H3131 C3073 0.929 . S
H3132 C3074 0.959 . S
H3133 C3074 0.961 . S
H3134 C3074 0.961 . S
H3135 C3075 0.960 . S
H3136 C3075 0.960 . S
H3137 C3075 0.961 . S
H3138 C3077 0.980 . S
H3139 C3076 0.961 . S
H3140 C3076 0.960 . S
H3141 C3076 0.959 . S
H3142 C3079 0.922 . S
H3143 C3083 0.931 . S
H3144 C3084 0.959 . S
H3145 C3084 0.961 . S
H3146 C3084 0.959 . S
H3147 C3085 0.960 . S
H3148 C3085 0.960 . S
H3149 C3085 0.960 . S
H3150 C3121 0.980 . S
H3151 C3087 0.930 . S
H3152 C3091 0.930 . S
H3153 C3092 0.961 . S
H3154 C3092 0.960 . S
H3155 C3092 0.958 . S
H3156 C3093 0.961 . S
H3157 C3093 0.960 . S
H3158 C3093 0.960 . S
H3159 C3095 0.991 . S
H3160 C3094 0.961 . S
H3161 C3094 0.961 . S
H3162 C3094 0.959 . S
H3163 C3097 0.932 . S
H3164 C3101 0.929 . S
H3165 C3102 0.961 . S
H3166 C3102 0.959 . S
H3167 C3102 0.959 . S
H3168 C3103 0.960 . S
H3169 C3103 0.962 . S
H3170 C3103 0.961 . S
H3171 C3105 0.929 . S
H3172 C3108 0.930 . S
H3173 C3109 0.929 . S
H3174 C3112 0.930 . S
H3175 C3115 0.929 . S
H3176 C3116 0.930 . S
H3177 C3120 0.944 1_455 S
H3178 C3120 0.959 . S
H3179 C3120 0.958 . S
C3180 C3181 1.560 . S
C3180 H3241 0.959 . S
C3180 H3242 0.959 . S
C3180 H3243 0.960 . S
C3181 C3180 1.560 . S
C3181 O3236 1.426 . S
C3181 H3240 0.980 . S
C3182 C3183 1.407 . S
C3182 C3187 1.418 . S
C3182 O3236 1.334 . S
C3183 C3182 1.407 . S
C3183 C3184 1.360 . S
C3183 H3244 0.929 . S
C3184 C3183 1.360 . S
C3184 C3185 1.401 . S
C3184 C3188 1.527 . S
C3185 C3184 1.401 . S
C3185 C3186 1.405 . S
C3185 C3218 1.587 . S
C3186 C3185 1.405 . S
C3186 C3187 1.332 . S
C3186 C3189 1.496 . S
C3187 C3182 1.418 . S
C3187 C3186 1.332 . S
C3187 H3245 0.929 . S
C3188 C3184 1.527 . S
C3188 H3246 0.959 . S
C3188 H3247 0.961 . S
C3188 H3248 0.961 . S
C3189 C3186 1.496 . S
C3189 H3249 0.960 . S
C3189 H3250 0.960 . S
C3189 H3251 0.961 . S
C3190 C3191 1.517 . S
C3190 H3253 0.961 . S
C3190 H3254 0.960 . S
C3190 H3255 0.959 . S
C3191 C3190 1.517 . S
C3191 O3239 1.468 . S
C3191 H3252 0.980 . S
C3192 C3193 1.349 . S
C3192 C3197 1.367 . S
C3192 O3239 1.408 . S
C3193 C3192 1.349 . S
C3193 C3194 1.407 . S
C3193 H3256 0.930 . S
C3194 C3193 1.407 . S
C3194 C3195 1.449 . S
C3194 C3198 1.535 . S
C3195 C3194 1.449 . S
C3195 C3196 1.384 . S
C3195 C3220 1.553 . S
C3196 C3195 1.384 . S
C3196 C3197 1.364 . S
C3196 C3199 1.450 . S
C3197 C3192 1.367 . S
C3197 C3196 1.364 . S
C3197 H3257 0.931 . S
C3198 C3194 1.535 . S
C3198 H3258 0.959 . S
C3198 H3259 0.961 . S
C3198 H3260 0.959 . S
C3199 C3196 1.450 . S
C3199 H3261 0.960 . S
C3199 H3262 0.960 . S
C3199 H3263 0.960 . S
C3200 C3201 1.309 . S
C3200 C3205 1.304 . S
C3200 O3238 1.435 . S
C3201 C3200 1.309 . S
C3201 C3202 1.476 . S
C3201 H3265 0.930 . S
C3202 C3201 1.476 . S
C3202 C3203 1.400 . S
C3202 C3206 1.567 . S
C3203 C3202 1.400 . S
C3203 C3204 1.373 . S
C3203 C3225 1.432 . S
C3204 C3203 1.373 . S
C3204 C3205 1.339 . S
C3204 C3207 1.530 . S
C3205 C3200 1.304 . S
C3205 C3204 1.339 . S
C3205 H3266 0.930 . S
C3206 C3202 1.567 . S
C3206 H3267 0.961 . S
C3206 H3268 0.960 . S
C3206 H3269 0.958 . S
C3207 C3204 1.530 . S
C3207 H3270 0.961 . S
C3207 H3271 0.960 . S
C3207 H3272 0.960 . S
C3208 C3209 1.530 . S
C3208 H3274 0.961 . S
C3208 H3275 0.961 . S
C3208 H3276 0.959 . S
C3209 C3208 1.530 . S
C3209 O3237 1.412 . S
C3209 H3273 0.980 . S
C3210 C3211 1.288 . S
C3210 C3215 1.377 . S
C3210 O3237 1.393 . S
C3211 C3210 1.288 . S
C3211 C3212 1.369 . S
C3211 H3277 0.932 . S
C3212 C3211 1.369 . S
C3212 C3213 1.398 . S
C3212 C3216 1.527 . S
C3213 C3212 1.398 . S
C3213 C3214 1.380 . S
C3213 C3227 1.497 . S
C3214 C3213 1.380 . S
C3214 C3215 1.383 . S
C3214 C3217 1.603 . S
C3215 C3210 1.377 . S
C3215 C3214 1.383 . S
C3215 H3278 0.929 . S
C3216 C3212 1.527 . S
C3216 H3279 0.961 . S
C3216 H3280 0.959 . S
C3216 H3281 0.959 . S
C3217 C3214 1.603 . S
C3217 H3282 0.960 . S
C3217 H3283 0.962 . S
C3217 H3284 0.961 . S
C3218 C3185 1.587 . S
C3218 C3219 1.360 . S
C3218 C3231 1.412 . S
C3219 C3218 1.360 . S
C3219 C3220 1.365 . S
C3219 H3285 0.929 . S
C3220 C3195 1.553 . S
C3220 C3219 1.365 . S
C3220 C3221 1.404 . S
C3221 C3220 1.404 . S
C3221 C3222 1.395 . S
C3221 C3232 1.451 . S
C3222 C3221 1.395 . S
C3222 C3223 1.322 . S
C3222 H3286 0.930 . S
C3223 C3222 1.322 . S
C3223 C3224 1.459 . S
C3223 H3287 0.929 . S
C3224 C3223 1.459 . S
C3224 C3225 1.445 . S
C3224 C3233 1.395 . S
C3225 C3203 1.432 . S
C3225 C3224 1.445 . S
C3225 C3226 1.370 . S
C3226 C3225 1.370 . S
C3226 C3227 1.438 . S
C3226 H3288 0.930 . S
C3227 C3213 1.497 . S
C3227 C3226 1.438 . S
C3227 C3228 1.360 . S
C3228 C3227 1.360 . S
C3228 C3229 1.401 . S
C3228 C3233 1.446 . S
C3229 C3228 1.401 . S
C3229 C3230 1.347 . S
C3229 H3289 0.929 . S
C3230 C3229 1.347 . S
C3230 C3231 1.455 . S
C3230 H3290 0.930 . S
C3231 C3218 1.412 . S
C3231 C3230 1.455 . S
C3231 C3232 1.331 . S
C3232 C3221 1.451 . S
C3232 C3231 1.331 . S
C3232 C3233 1.497 . S
C3233 C3224 1.395 . S
C3233 C3228 1.446 . S
C3233 C3232 1.497 . S
C3234 C3235 1.582 . S
C3234 H3291 0.962 . S
C3234 H3292 0.959 . S
C3234 H3293 0.958 . S
C3235 C3234 1.582 . S
C3235 O3238 1.458 . S
C3235 H3264 0.980 . S
O3236 C3181 1.426 . S
O3236 C3182 1.334 . S
O3237 C3209 1.412 . S
O3237 C3210 1.393 . S
O3238 C3200 1.435 . S
O3238 C3235 1.458 . S
O3239 C3191 1.468 . S
O3239 C3192 1.408 . S
H3240 C3181 0.980 . S
H3241 C3180 0.959 . S
H3242 C3180 0.959 . S
H3243 C3180 0.960 . S
H3244 C3183 0.929 . S
H3245 C3187 0.929 . S
H3246 C3188 0.959 . S
H3247 C3188 0.961 . S
H3248 C3188 0.961 . S
H3249 C3189 0.960 . S
H3250 C3189 0.960 . S
H3251 C3189 0.961 . S
H3252 C3191 0.980 . S
H3253 C3190 0.961 . S
H3254 C3190 0.960 . S
H3255 C3190 0.959 . S
H3256 C3193 0.930 . S
H3257 C3197 0.931 . S
H3258 C3198 0.959 . S
H3259 C3198 0.961 . S
H3260 C3198 0.959 . S
H3261 C3199 0.960 . S
H3262 C3199 0.960 . S
H3263 C3199 0.960 . S
H3264 C3235 0.980 . S
H3265 C3201 0.930 . S
H3266 C3205 0.930 . S
H3267 C3206 0.961 . S
H3268 C3206 0.960 . S
H3269 C3206 0.958 . S
H3270 C3207 0.961 . S
H3271 C3207 0.960 . S
H3272 C3207 0.960 . S
H3273 C3209 0.980 . S
H3274 C3208 0.961 . S
H3275 C3208 0.961 . S
H3276 C3208 0.959 . S
H3277 C3211 0.932 . S
H3278 C3215 0.929 . S
H3279 C3216 0.961 . S
H3280 C3216 0.959 . S
H3281 C3216 0.959 . S
H3282 C3217 0.960 . S
H3283 C3217 0.962 . S
H3284 C3217 0.961 . S
H3285 C3219 0.929 . S
H3286 C3222 0.930 . S
H3287 C3223 0.929 . S
H3288 C3226 0.930 . S
H3289 C3229 0.929 . S
H3290 C3230 0.930 . S
H3291 C3234 0.962 . S
H3292 C3234 0.959 . S
H3293 C3234 0.958 . S
C3294 C3295 1.560 . S
C3294 H3355 0.959 . S
C3294 H3356 0.959 . S
C3294 H3357 0.960 . S
C3295 C3294 1.560 . S
C3295 O3350 1.426 . S
C3295 H3354 0.980 . S
C3296 C3297 1.407 . S
C3296 C3301 1.418 . S
C3296 O3350 1.334 . S
C3297 C3296 1.407 . S
C3297 C3298 1.360 . S
C3297 H3358 0.929 . S
C3298 C3297 1.360 . S
C3298 C3299 1.401 . S
C3298 C3302 1.527 . S
C3299 C3298 1.401 . S
C3299 C3300 1.405 . S
C3299 C3332 1.587 . S
C3300 C3299 1.405 . S
C3300 C3301 1.332 . S
C3300 C3303 1.496 . S
C3301 C3296 1.418 . S
C3301 C3300 1.332 . S
C3301 H3359 0.929 . S
C3302 C3298 1.527 . S
C3302 H3360 0.959 . S
C3302 H3361 0.961 . S
C3302 H3362 0.961 . S
C3303 C3300 1.496 . S
C3303 H3363 0.960 . S
C3303 H3364 0.960 . S
C3303 H3365 0.961 . S
C3304 C3305 1.517 . S
C3304 H3367 0.961 . S
C3304 H3368 0.960 . S
C3304 H3369 0.959 . S
C3305 C3304 1.517 . S
C3305 O3353 1.468 . S
C3305 H3366 0.980 . S
C3306 C3307 1.349 . S
C3306 C3311 1.367 . S
C3306 O3353 1.408 . S
C3307 C3306 1.349 . S
C3307 C3308 1.407 . S
C3307 H3370 0.930 . S
C3308 C3307 1.407 . S
C3308 C3309 1.449 . S
C3308 C3312 1.535 . S
C3309 C3308 1.449 . S
C3309 C3310 1.384 . S
C3309 C3334 1.553 . S
C3310 C3309 1.384 . S
C3310 C3311 1.364 . S
C3310 C3313 1.450 . S
C3311 C3306 1.367 . S
C3311 C3310 1.364 . S
C3311 H3371 0.931 . S
C3312 C3308 1.535 . S
C3312 H3372 0.959 . S
C3312 H3373 0.961 . S
C3312 H3374 0.959 . S
C3313 C3310 1.450 . S
C3313 H3375 0.960 . S
C3313 H3376 0.960 . S
C3313 H3377 0.960 . S
C3314 C3315 1.309 . S
C3314 C3319 1.304 . S
C3314 O3352 1.435 . S
C3315 C3314 1.309 . S
C3315 C3316 1.476 . S
C3315 H3379 0.930 . S
C3316 C3315 1.476 . S
C3316 C3317 1.400 . S
C3316 C3320 1.567 . S
C3317 C3316 1.400 . S
C3317 C3318 1.373 . S
C3317 C3339 1.432 . S
C3318 C3317 1.373 . S
C3318 C3319 1.339 . S
C3318 C3321 1.530 . S
C3319 C3314 1.304 . S
C3319 C3318 1.339 . S
C3319 H3380 0.930 . S
C3320 C3316 1.567 . S
C3320 H3381 0.961 . S
C3320 H3382 0.960 . S
C3320 H3383 0.958 . S
C3321 C3318 1.530 . S
C3321 H3384 0.961 . S
C3321 H3385 0.960 . S
C3321 H3386 0.960 . S
C3322 C3323 1.530 . S
C3322 H3388 0.961 . S
C3322 H3389 0.961 . S
C3322 H3390 0.959 . S
C3323 C3322 1.530 . S
C3323 O3351 1.412 . S
C3323 H3387 0.980 . S
C3324 C3325 1.288 . S
C3324 C3329 1.377 . S
C3324 O3351 1.393 . S
C3325 C3324 1.288 . S
C3325 C3326 1.369 . S
C3325 H3391 0.932 . S
C3326 C3325 1.369 . S
C3326 C3327 1.398 . S
C3326 C3330 1.527 . S
C3327 C3326 1.398 . S
C3327 C3328 1.380 . S
C3327 C3341 1.497 . S
C3328 C3327 1.380 . S
C3328 C3329 1.383 . S
C3328 C3331 1.603 . S
C3329 C3324 1.377 . S
C3329 C3328 1.383 . S
C3329 H3392 0.929 . S
C3330 C3326 1.527 . S
C3330 H3393 0.961 . S
C3330 H3394 0.959 . S
C3330 H3395 0.959 . S
C3331 C3328 1.603 . S
C3331 H3396 0.960 . S
C3331 H3397 0.962 . S
C3331 H3398 0.961 . S
C3332 C3299 1.587 . S
C3332 C3333 1.360 . S
C3332 C3345 1.412 . S
C3333 C3332 1.360 . S
C3333 C3334 1.365 . S
C3333 H3399 0.929 . S
C3334 C3309 1.553 . S
C3334 C3333 1.365 . S
C3334 C3335 1.404 . S
C3335 C3334 1.404 . S
C3335 C3336 1.395 . S
C3335 C3346 1.451 . S
C3336 C3335 1.395 . S
C3336 C3337 1.322 . S
C3336 H3400 0.930 . S
C3337 C3336 1.322 . S
C3337 C3338 1.459 . S
C3337 H3401 0.929 . S
C3338 C3337 1.459 . S
C3338 C3339 1.445 . S
C3338 C3347 1.395 . S
C3339 C3317 1.432 . S
C3339 C3338 1.445 . S
C3339 C3340 1.370 . S
C3340 C3339 1.370 . S
C3340 C3341 1.438 . S
C3340 H3402 0.930 . S
C3341 C3327 1.497 . S
C3341 C3340 1.438 . S
C3341 C3342 1.360 . S
C3342 C3341 1.360 . S
C3342 C3343 1.401 . S
C3342 C3347 1.446 . S
C3343 C3342 1.401 . S
C3343 C3344 1.347 . S
C3343 H3403 0.929 . S
C3344 C3343 1.347 . S
C3344 C3345 1.455 . S
C3344 H3404 0.930 . S
C3345 C3332 1.412 . S
C3345 C3344 1.455 . S
C3345 C3346 1.331 . S
C3346 C3335 1.451 . S
C3346 C3345 1.331 . S
C3346 C3347 1.497 . S
C3347 C3338 1.395 . S
C3347 C3342 1.446 . S
C3347 C3346 1.497 . S
C3348 C3349 1.582 . S
C3348 H3405 0.962 . S
C3348 H3406 0.959 . S
C3348 H3407 0.958 . S
C3349 C3348 1.582 . S
C3349 O3352 1.458 . S
C3349 H3378 0.980 . S
O3350 C3295 1.426 . S
O3350 C3296 1.334 . S
O3351 C3323 1.412 . S
O3351 C3324 1.393 . S
O3352 C3314 1.435 . S
O3352 C3349 1.458 . S
O3353 C3305 1.468 . S
O3353 C3306 1.408 . S
H3354 C3295 0.980 . S
H3355 C3294 0.959 . S
H3356 C3294 0.959 . S
H3357 C3294 0.960 . S
H3358 C3297 0.929 . S
H3359 C3301 0.929 . S
H3360 C3302 0.959 . S
H3361 C3302 0.961 . S
H3362 C3302 0.961 . S
H3363 C3303 0.960 . S
H3364 C3303 0.960 . S
H3365 C3303 0.961 . S
H3366 C3305 0.980 . S
H3367 C3304 0.961 . S
H3368 C3304 0.960 . S
H3369 C3304 0.959 . S
H3370 C3307 0.930 . S
H3371 C3311 0.931 . S
H3372 C3312 0.959 . S
H3373 C3312 0.961 . S
H3374 C3312 0.959 . S
H3375 C3313 0.960 . S
H3376 C3313 0.960 . S
H3377 C3313 0.960 . S
H3378 C3349 0.980 . S
H3379 C3315 0.930 . S
H3380 C3319 0.930 . S
H3381 C3320 0.961 . S
H3382 C3320 0.960 . S
H3383 C3320 0.958 . S
H3384 C3321 0.961 . S
H3385 C3321 0.960 . S
H3386 C3321 0.960 . S
H3387 C3323 0.980 . S
H3388 C3322 0.961 . S
H3389 C3322 0.961 . S
H3390 C3322 0.959 . S
H3391 C3325 0.932 . S
H3392 C3329 0.929 . S
H3393 C3330 0.961 . S
H3394 C3330 0.959 . S
H3395 C3330 0.959 . S
H3396 C3331 0.960 . S
H3397 C3331 0.962 . S
H3398 C3331 0.961 . S
H3399 C3333 0.929 . S
H3400 C3336 0.930 . S
H3401 C3337 0.929 . S
H3402 C3340 0.930 . S
H3403 C3343 0.929 . S
H3404 C3344 0.930 . S
H3405 C3348 0.962 . S
H3406 C3348 0.959 . S
H3407 C3348 0.958 . S
C3408 C3409 1.560 . S
C3408 H3469 0.959 . S
C3408 H3470 0.959 . S
C3408 H3471 0.960 . S
C3409 C3408 1.560 . S
C3409 O3464 1.426 . S
C3409 H3468 0.980 . S
C3410 C3411 1.407 . S
C3410 C3415 1.418 . S
C3410 O3464 1.334 . S
C3411 C3410 1.407 . S
C3411 C3412 1.360 . S
C3411 H3472 0.929 . S
C3412 C3411 1.360 . S
C3412 C3413 1.401 . S
C3412 C3416 1.527 . S
C3413 C3412 1.401 . S
C3413 C3414 1.405 . S
C3413 C3446 1.587 . S
C3414 C3413 1.405 . S
C3414 C3415 1.332 . S
C3414 C3417 1.496 . S
C3415 C3410 1.418 . S
C3415 C3414 1.332 . S
C3415 H3473 0.929 . S
C3416 C3412 1.527 . S
C3416 H3474 0.959 . S
C3416 H3475 0.961 . S
C3416 H3476 0.961 . S
C3417 C3414 1.496 . S
C3417 H3477 0.960 . S
C3417 H3478 0.960 . S
C3417 H3479 0.961 . S
C3418 C3419 1.517 . S
C3418 H3481 0.961 . S
C3418 H3482 0.960 . S
C3418 H3483 0.959 . S
C3419 C3418 1.517 . S
C3419 O3467 1.468 . S
C3419 H3480 0.980 . S
C3420 C3421 1.349 . S
C3420 C3425 1.367 . S
C3420 O3467 1.408 . S
C3421 C3420 1.349 . S
C3421 C3422 1.407 . S
C3421 H3484 0.930 . S
C3422 C3421 1.407 . S
C3422 C3423 1.449 . S
C3422 C3426 1.535 . S
C3423 C3422 1.449 . S
C3423 C3424 1.384 . S
C3423 C3448 1.553 . S
C3424 C3423 1.384 . S
C3424 C3425 1.364 . S
C3424 C3427 1.450 . S
C3425 C3420 1.367 . S
C3425 C3424 1.364 . S
C3425 H3485 0.931 . S
C3426 C3422 1.535 . S
C3426 H3486 0.959 . S
C3426 H3487 0.961 . S
C3426 H3488 0.959 . S
C3427 C3424 1.450 . S
C3427 H3489 0.960 . S
C3427 H3490 0.960 . S
C3427 H3491 0.960 . S
C3428 C3429 1.309 . S
C3428 C3433 1.304 . S
C3428 O3466 1.435 . S
C3429 C3428 1.309 . S
C3429 C3430 1.476 . S
C3429 H3493 0.930 . S
C3430 C3429 1.476 . S
C3430 C3431 1.400 . S
C3430 C3434 1.567 . S
C3431 C3430 1.400 . S
C3431 C3432 1.373 . S
C3431 C3453 1.432 . S
C3432 C3431 1.373 . S
C3432 C3433 1.339 . S
C3432 C3435 1.530 . S
C3433 C3428 1.304 . S
C3433 C3432 1.339 . S
C3433 H3494 0.930 . S
C3434 C3430 1.567 . S
C3434 H3495 0.961 . S
C3434 H3496 0.960 . S
C3434 H3497 0.958 . S
C3435 C3432 1.530 . S
C3435 H3498 0.961 . S
C3435 H3499 0.960 . S
C3435 H3500 0.960 . S
C3436 C3437 1.530 . S
C3436 H3502 0.961 . S
C3436 H3503 0.961 . S
C3436 H3504 0.959 . S
C3437 C3436 1.530 . S
C3437 O3465 1.412 . S
C3437 H3501 0.980 . S
C3438 C3439 1.288 . S
C3438 C3443 1.377 . S
C3438 O3465 1.393 . S
C3439 C3438 1.288 . S
C3439 C3440 1.369 . S
C3439 H3505 0.932 . S
C3440 C3439 1.369 . S
C3440 C3441 1.398 . S
C3440 C3444 1.527 . S
C3441 C3440 1.398 . S
C3441 C3442 1.380 . S
C3441 C3455 1.497 . S
C3442 C3441 1.380 . S
C3442 C3443 1.383 . S
C3442 C3445 1.603 . S
C3443 C3438 1.377 . S
C3443 C3442 1.383 . S
C3443 H3506 0.929 . S
C3444 C3440 1.527 . S
C3444 H3507 0.961 . S
C3444 H3508 0.959 . S
C3444 H3509 0.959 . S
C3445 C3442 1.603 . S
C3445 H3510 0.960 . S
C3445 H3511 0.962 . S
C3445 H3512 0.961 . S
C3446 C3413 1.587 . S
C3446 C3447 1.360 . S
C3446 C3459 1.412 . S
C3447 C3446 1.360 . S
C3447 C3448 1.365 . S
C3447 H3513 0.929 . S
C3448 C3423 1.553 . S
C3448 C3447 1.365 . S
C3448 C3449 1.404 . S
C3449 C3448 1.404 . S
C3449 C3450 1.395 . S
C3449 C3460 1.451 . S
C3450 C3449 1.395 . S
C3450 C3451 1.322 . S
C3450 H3514 0.930 . S
C3451 C3450 1.322 . S
C3451 C3452 1.459 . S
C3451 H3515 0.929 . S
C3452 C3451 1.459 . S
C3452 C3453 1.445 . S
C3452 C3461 1.395 . S
C3453 C3431 1.432 . S
C3453 C3452 1.445 . S
C3453 C3454 1.370 . S
C3454 C3453 1.370 . S
C3454 C3455 1.438 . S
C3454 H3516 0.930 . S
C3455 C3441 1.497 . S
C3455 C3454 1.438 . S
C3455 C3456 1.360 . S
C3456 C3455 1.360 . S
C3456 C3457 1.401 . S
C3456 C3461 1.446 . S
C3457 C3456 1.401 . S
C3457 C3458 1.347 . S
C3457 H3517 0.929 . S
C3458 C3457 1.347 . S
C3458 C3459 1.455 . S
C3458 H3518 0.930 . S
C3459 C3446 1.412 . S
C3459 C3458 1.455 . S
C3459 C3460 1.331 . S
C3460 C3449 1.451 . S
C3460 C3459 1.331 . S
C3460 C3461 1.497 . S
C3461 C3452 1.395 . S
C3461 C3456 1.446 . S
C3461 C3460 1.497 . S
C3462 C3463 1.582 . S
C3462 H3519 0.962 . S
C3462 H3520 0.959 . S
C3462 H3521 0.958 . S
C3463 C3462 1.582 . S
C3463 O3466 1.458 . S
C3463 H3492 0.980 . S
O3464 C3409 1.426 . S
O3464 C3410 1.334 . S
O3465 C3437 1.412 . S
O3465 C3438 1.393 . S
O3466 C3428 1.435 . S
O3466 C3463 1.458 . S
O3467 C3419 1.468 . S
O3467 C3420 1.408 . S
H3468 C3409 0.980 . S
H3469 C3408 0.959 . S
H3470 C3408 0.959 . S
H3471 C3408 0.960 . S
H3472 C3411 0.929 . S
H3473 C3415 0.929 . S
H3474 C3416 0.959 . S
H3475 C3416 0.961 . S
H3476 C3416 0.961 . S
H3477 C3417 0.960 . S
H3478 C3417 0.960 . S
H3479 C3417 0.961 . S
H3480 C3419 0.980 . S
H3481 C3418 0.961 . S
H3482 C3418 0.960 . S
H3483 C3418 0.959 . S
H3484 C3421 0.930 . S
H3485 C3425 0.931 . S
H3486 C3426 0.959 . S
H3487 C3426 0.961 . S
H3488 C3426 0.959 . S
H3489 C3427 0.960 . S
H3490 C3427 0.960 . S
H3491 C3427 0.960 . S
H3492 C3463 0.980 . S
H3493 C3429 0.930 . S
H3494 C3433 0.930 . S
H3495 C3434 0.961 . S
H3496 C3434 0.960 . S
H3497 C3434 0.958 . S
H3498 C3435 0.961 . S
H3499 C3435 0.960 . S
H3500 C3435 0.960 . S
H3501 C3437 0.980 . S
H3502 C3436 0.961 . S
H3503 C3436 0.961 . S
H3504 C3436 0.959 . S
H3505 C3439 0.932 . S
H3506 C3443 0.929 . S
H3507 C3444 0.961 . S
H3508 C3444 0.959 . S
H3509 C3444 0.959 . S
H3510 C3445 0.960 . S
H3511 C3445 0.962 . S
H3512 C3445 0.961 . S
H3513 C3447 0.929 . S
H3514 C3450 0.930 . S
H3515 C3451 0.929 . S
H3516 C3454 0.930 . S
H3517 C3457 0.929 . S
H3518 C3458 0.930 . S
H3519 C3462 0.962 . S
H3520 C3462 0.959 . S
H3521 C3462 0.958 . S
C3522 C3523 1.560 . S
C3522 H3583 0.959 . S
C3522 H3584 0.959 . S
C3522 H3585 0.960 . S
C3523 C3522 1.560 . S
C3523 O3578 1.426 . S
C3523 H3582 0.980 . S
C3524 C3525 1.407 . S
C3524 C3529 1.418 . S
C3524 O3578 1.334 . S
C3525 C3524 1.407 . S
C3525 C3526 1.360 . S
C3525 H3586 0.929 . S
C3526 C3525 1.360 . S
C3526 C3527 1.401 . S
C3526 C3530 1.527 . S
C3527 C3526 1.401 . S
C3527 C3528 1.405 . S
C3527 C3560 1.587 . S
C3528 C3527 1.405 . S
C3528 C3529 1.332 . S
C3528 C3531 1.496 . S
C3529 C3524 1.418 . S
C3529 C3528 1.332 . S
C3529 H3587 0.929 . S
C3530 C3526 1.527 . S
C3530 H3588 0.959 . S
C3530 H3589 0.961 . S
C3530 H3590 0.961 . S
C3531 C3528 1.496 . S
C3531 H3591 0.960 . S
C3531 H3592 0.960 . S
C3531 H3593 0.961 . S
C3532 C3533 1.517 . S
C3532 H3595 0.961 . S
C3532 H3596 0.960 . S
C3532 H3597 0.959 . S
C3533 C3532 1.517 . S
C3533 O3581 1.468 . S
C3533 H3594 0.980 . S
C3534 C3535 1.349 . S
C3534 C3539 1.367 . S
C3534 O3581 1.408 . S
C3535 C3534 1.349 . S
C3535 C3536 1.407 . S
C3535 H3598 0.930 . S
C3536 C3535 1.407 . S
C3536 C3537 1.449 . S
C3536 C3540 1.535 . S
C3537 C3536 1.449 . S
C3537 C3538 1.384 . S
C3537 C3562 1.553 . S
C3538 C3537 1.384 . S
C3538 C3539 1.364 . S
C3538 C3541 1.450 . S
C3539 C3534 1.367 . S
C3539 C3538 1.364 . S
C3539 H3599 0.931 . S
C3540 C3536 1.535 . S
C3540 H3600 0.959 . S
C3540 H3601 0.961 . S
C3540 H3602 0.959 . S
C3541 C3538 1.450 . S
C3541 H3603 0.960 . S
C3541 H3604 0.960 . S
C3541 H3605 0.960 . S
C3542 C3543 1.309 . S
C3542 C3547 1.304 . S
C3542 O3580 1.435 . S
C3543 C3542 1.309 . S
C3543 C3544 1.476 . S
C3543 H3607 0.930 . S
C3544 C3543 1.476 . S
C3544 C3545 1.400 . S
C3544 C3548 1.567 . S
C3545 C3544 1.400 . S
C3545 C3546 1.373 . S
C3545 C3567 1.432 . S
C3546 C3545 1.373 . S
C3546 C3547 1.339 . S
C3546 C3549 1.530 . S
C3547 C3542 1.304 . S
C3547 C3546 1.339 . S
C3547 H3608 0.930 . S
C3548 C3544 1.567 . S
C3548 H3609 0.961 . S
C3548 H3610 0.960 . S
C3548 H3611 0.958 . S
C3549 C3546 1.530 . S
C3549 H3612 0.961 . S
C3549 H3613 0.960 . S
C3549 H3614 0.960 . S
C3550 C3551 1.530 . S
C3550 H3616 0.961 . S
C3550 H3617 0.961 . S
C3550 H3618 0.959 . S
C3551 C3550 1.530 . S
C3551 O3579 1.412 . S
C3551 H3615 0.980 . S
C3552 C3553 1.288 . S
C3552 C3557 1.377 . S
C3552 O3579 1.393 . S
C3553 C3552 1.288 . S
C3553 C3554 1.369 . S
C3553 H3619 0.932 . S
C3554 C3553 1.369 . S
C3554 C3555 1.398 . S
C3554 C3558 1.527 . S
C3555 C3554 1.398 . S
C3555 C3556 1.380 . S
C3555 C3569 1.497 . S
C3556 C3555 1.380 . S
C3556 C3557 1.383 . S
C3556 C3559 1.603 . S
C3557 C3552 1.377 . S
C3557 C3556 1.383 . S
C3557 H3620 0.929 . S
C3558 C3554 1.527 . S
C3558 H3621 0.961 . S
C3558 H3622 0.959 . S
C3558 H3623 0.959 . S
C3559 C3556 1.603 . S
C3559 H3624 0.960 . S
C3559 H3625 0.962 . S
C3559 H3626 0.961 . S
C3560 C3527 1.587 . S
C3560 C3561 1.360 . S
C3560 C3573 1.412 . S
C3561 C3560 1.360 . S
C3561 C3562 1.365 . S
C3561 H3627 0.929 . S
C3562 C3537 1.553 . S
C3562 C3561 1.365 . S
C3562 C3563 1.404 . S
C3563 C3562 1.404 . S
C3563 C3564 1.395 . S
C3563 C3574 1.451 . S
C3564 C3563 1.395 . S
C3564 C3565 1.322 . S
C3564 H3628 0.930 . S
C3565 C3564 1.322 . S
C3565 C3566 1.459 . S
C3565 H3629 0.929 . S
C3566 C3565 1.459 . S
C3566 C3567 1.445 . S
C3566 C3575 1.395 . S
C3567 C3545 1.432 . S
C3567 C3566 1.445 . S
C3567 C3568 1.370 . S
C3568 C3567 1.370 . S
C3568 C3569 1.438 . S
C3568 H3630 0.930 . S
C3569 C3555 1.497 . S
C3569 C3568 1.438 . S
C3569 C3570 1.360 . S
C3570 C3569 1.360 . S
C3570 C3571 1.401 . S
C3570 C3575 1.446 . S
C3571 C3570 1.401 . S
C3571 C3572 1.347 . S
C3571 H3631 0.929 . S
C3572 C3571 1.347 . S
C3572 C3573 1.455 . S
C3572 H3632 0.930 . S
C3573 C3560 1.412 . S
C3573 C3572 1.455 . S
C3573 C3574 1.331 . S
C3574 C3563 1.451 . S
C3574 C3573 1.331 . S
C3574 C3575 1.497 . S
C3575 C3566 1.395 . S
C3575 C3570 1.446 . S
C3575 C3574 1.497 . S
C3576 C3577 1.582 . S
C3576 H3633 0.962 . S
C3576 H3634 0.959 . S
C3576 H3635 0.958 . S
C3577 C3576 1.582 . S
C3577 O3580 1.458 . S
C3577 H3606 0.980 . S
O3578 C3523 1.426 . S
O3578 C3524 1.334 . S
O3579 C3551 1.412 . S
O3579 C3552 1.393 . S
O3580 C3542 1.435 . S
O3580 C3577 1.458 . S
O3581 C3533 1.468 . S
O3581 C3534 1.408 . S
H3582 C3523 0.980 . S
H3583 C3522 0.959 . S
H3584 C3522 0.959 . S
H3585 C3522 0.960 . S
H3586 C3525 0.929 . S
H3587 C3529 0.929 . S
H3588 C3530 0.959 . S
H3589 C3530 0.961 . S
H3590 C3530 0.961 . S
H3591 C3531 0.960 . S
H3592 C3531 0.960 . S
H3593 C3531 0.961 . S
H3594 C3533 0.980 . S
H3595 C3532 0.961 . S
H3596 C3532 0.960 . S
H3597 C3532 0.959 . S
H3598 C3535 0.930 . S
H3599 C3539 0.931 . S
H3600 C3540 0.959 . S
H3601 C3540 0.961 . S
H3602 C3540 0.959 . S
H3603 C3541 0.960 . S
H3604 C3541 0.960 . S
H3605 C3541 0.960 . S
H3606 C3577 0.980 . S
H3607 C3543 0.930 . S
H3608 C3547 0.930 . S
H3609 C3548 0.961 . S
H3610 C3548 0.960 . S
H3611 C3548 0.958 . S
H3612 C3549 0.961 . S
H3613 C3549 0.960 . S
H3614 C3549 0.960 . S
H3615 C3551 0.980 . S
H3616 C3550 0.961 . S
H3617 C3550 0.961 . S
H3618 C3550 0.959 . S
H3619 C3553 0.932 . S
H3620 C3557 0.929 . S
H3621 C3558 0.961 . S
H3622 C3558 0.959 . S
H3623 C3558 0.959 . S
H3624 C3559 0.960 . S
H3625 C3559 0.962 . S
H3626 C3559 0.961 . S
H3627 C3561 0.929 . S
H3628 C3564 0.930 . S
H3629 C3565 0.929 . S
H3630 C3568 0.930 . S
H3631 C3571 0.929 . S
H3632 C3572 0.930 . S
H3633 C3576 0.962 . S
H3634 C3576 0.959 . S
H3635 C3576 0.958 . S
C3636 C3637 1.363 . S
C3636 C3642 1.369 . S
C3636 N3644 1.369 . S
C3637 C3636 1.363 . S
C3637 C3643 1.363 . S
C3638 C3639 1.363 . S
C3638 C3643 1.379 . S
C3638 N3645 1.356 . S
C3639 C3638 1.363 . S
C3639 C3642 1.419 . S
N3640 C3642 1.328 1_455 S
N3640 H3652 0.984 . S
N3640 H3653 0.985 . S
N3641 C3643 1.356 . S
N3641 H3646 0.984 . S
N3641 H3647 0.985 . S
C3642 C3636 1.369 . S
C3642 C3639 1.419 . S
C3642 N3640 1.328 1_655 S
C3643 C3637 1.363 . S
C3643 C3638 1.379 . S
C3643 N3641 1.356 . S
N3644 C3636 1.369 . S
N3644 H3650 0.970 1_655 S
N3644 H3651 0.986 . S
N3645 C3638 1.356 . S
N3645 H3648 0.984 . S
N3645 H3649 0.985 . S
H3646 N3641 0.984 . S
H3647 N3641 0.985 . S
H3648 N3645 0.984 . S
H3649 N3645 0.985 . S
H3650 N3644 0.970 1_455 S
H3651 N3644 0.986 . S
H3652 N3640 0.984 . S
H3653 N3640 0.985 . S
C3654 C3655 1.363 . S
C3654 C3660 1.379 . S
C3654 N3662 1.356 . S
C3655 C3654 1.363 . S
C3655 C3661 1.363 . S
C3656 C3657 1.363 . S
C3656 C3661 1.379 . S
C3656 N3663 1.356 . S
C3657 C3656 1.363 . S
C3657 C3660 1.363 . S
N3658 C3660 1.356 . S
N3658 H3670 0.984 . S
N3658 H3671 0.985 . S
N3659 C3661 1.356 . S
N3659 H3664 0.984 . S
N3659 H3665 0.985 . S
C3660 C3654 1.379 . S
C3660 C3657 1.363 . S
C3660 N3658 1.356 . S
C3661 C3655 1.363 . S
C3661 C3656 1.379 . S
C3661 N3659 1.356 . S
N3662 C3654 1.356 . S
N3662 H3668 0.984 . S
N3662 H3669 0.984 . S
N3663 C3656 1.356 . S
N3663 H3666 0.984 . S
N3663 H3667 0.985 . S
H3664 N3659 0.984 . S
H3665 N3659 0.985 . S
H3666 N3663 0.984 . S
H3667 N3663 0.985 . S
H3668 N3662 0.984 . S
H3669 N3662 0.984 . S
H3670 N3658 0.984 . S
H3671 N3658 0.985 . S
C3672 C3673 1.363 . S
C3672 C3678 1.379 . S
C3672 N3680 1.356 . S
C3673 C3672 1.363 . S
C3673 C3679 1.363 . S
C3674 C3675 1.363 . S
C3674 C3679 1.379 . S
C3674 N3681 1.356 1_545 S
C3675 C3674 1.363 . S
C3675 C3678 1.363 . S
N3676 C3678 1.356 . S
N3676 H3688 0.984 . S
N3676 H3689 0.985 . S
N3677 C3679 1.356 . S
N3677 H3682 0.984 . S
N3677 H3683 0.985 1_545 S
C3678 C3672 1.379 . S
C3678 C3675 1.363 . S
C3678 N3676 1.356 . S
C3679 C3673 1.363 . S
C3679 C3674 1.379 . S
C3679 N3677 1.356 . S
N3680 C3672 1.356 . S
N3680 H3686 0.984 . S
N3680 H3687 0.984 . S
N3681 C3674 1.356 1_565 S
N3681 H3684 0.984 . S
N3681 H3685 0.985 . S
H3682 N3677 0.984 . S
H3683 N3677 0.985 1_565 S
H3684 N3681 0.984 . S
H3685 N3681 0.985 . S
H3686 N3680 0.984 . S
H3687 N3680 0.984 . S
H3688 N3676 0.984 . S
H3689 N3676 0.985 . S
C3690 C3691 1.363 . S
C3690 C3696 1.379 . S
C3690 N3698 1.356 . S
C3691 C3690 1.363 . S
C3691 C3697 1.363 . S
C3692 C3693 1.363 . S
C3692 C3697 1.379 . S
C3692 N3699 1.356 1_565 S
C3693 C3692 1.363 . S
C3693 C3696 1.363 . S
N3694 C3696 1.356 . S
N3694 H3706 0.984 . S
N3694 H3707 0.985 . S
N3695 C3697 1.356 . S
N3695 H3700 0.984 . S
N3695 H3701 0.985 1_565 S
C3696 C3690 1.379 . S
C3696 C3693 1.363 . S
C3696 N3694 1.356 . S
C3697 C3691 1.363 . S
C3697 C3692 1.379 . S
C3697 N3695 1.356 . S
N3698 C3690 1.356 . S
N3698 H3704 0.984 . S
N3698 H3705 0.984 . S
N3699 C3692 1.356 1_545 S
N3699 H3702 0.984 . S
N3699 H3703 0.985 . S
H3700 N3695 0.984 . S
H3701 N3695 0.985 1_545 S
H3702 N3699 0.984 . S
H3703 N3699 0.985 . S
H3704 N3698 0.984 . S
H3705 N3698 0.984 . S
H3706 N3694 0.984 . S
H3707 N3694 0.985 . S
C3708 C3709 1.363 . S
C3708 C3714 1.379 . S
C3708 N3716 1.356 . S
C3709 C3708 1.363 . S
C3709 C3715 1.363 . S
C3710 C3711 1.363 . S
C3710 C3715 1.379 . S
C3710 N3717 1.356 1_455 S
C3711 C3710 1.363 . S
C3711 C3714 1.363 . S
N3712 C3714 1.356 . S
N3712 H3724 0.984 . S
N3712 H3725 0.985 . S
N3713 C3715 1.356 . S
N3713 H3718 0.984 . S
N3713 H3719 0.985 1_455 S
C3714 C3708 1.379 . S
C3714 C3711 1.363 . S
C3714 N3712 1.356 . S
C3715 C3709 1.363 . S
C3715 C3710 1.379 . S
C3715 N3713 1.356 . S
N3716 C3708 1.356 . S
N3716 H3722 0.984 . S
N3716 H3723 0.984 . S
N3717 C3710 1.356 1_655 S
N3717 H3720 0.984 . S
N3717 H3721 0.985 . S
H3718 N3713 0.984 . S
H3719 N3713 0.985 1_655 S
H3720 N3717 0.984 . S
H3721 N3717 0.985 . S
H3722 N3716 0.984 . S
H3723 N3716 0.984 . S
H3724 N3712 0.984 . S
H3725 N3712 0.985 . S
C3726 C3727 1.363 . S
C3726 C3732 1.379 . S
C3726 N3734 1.356 . S
C3727 C3726 1.363 . S
C3727 C3733 1.363 . S
C3728 C3729 1.363 . S
C3728 C3733 1.379 . S
C3728 N3735 1.356 . S
C3729 C3728 1.363 . S
C3729 C3732 1.363 . S
N3730 C3732 1.356 . S
N3730 H3742 0.984 . S
N3730 H3743 0.985 . S
N3731 C3733 1.356 . S
N3731 H3736 0.984 . S
N3731 H3737 0.985 . S
C3732 C3726 1.379 . S
C3732 C3729 1.363 . S
C3732 N3730 1.356 . S
C3733 C3727 1.363 . S
C3733 C3728 1.379 . S
C3733 N3731 1.356 . S
N3734 C3726 1.356 . S
N3734 H3740 0.984 . S
N3734 H3741 0.984 . S
N3735 C3728 1.356 . S
N3735 H3738 0.984 . S
N3735 H3739 0.985 . S
H3736 N3731 0.984 . S
H3737 N3731 0.985 . S
H3738 N3735 0.984 . S
H3739 N3735 0.985 . S
H3740 N3734 0.984 . S
H3741 N3734 0.984 . S
H3742 N3730 0.984 . S
H3743 N3730 0.985 . S
C3744 C3745 1.363 . S
C3744 C3750 1.379 . S
C3744 N3752 1.356 . S
C3745 C3744 1.363 . S
C3745 C3751 1.363 . S
C3746 C3747 1.363 . S
C3746 C3751 1.379 . S
C3746 N3753 1.356 1_455 S
C3747 C3746 1.363 . S
C3747 C3750 1.363 . S
N3748 C3750 1.356 . S
N3748 H3760 0.984 . S
N3748 H3761 0.985 . S
N3749 C3751 1.356 . S
N3749 H3754 0.984 . S
N3749 H3755 0.985 . S
C3750 C3744 1.379 . S
C3750 C3747 1.363 . S
C3750 N3748 1.356 . S
C3751 C3745 1.363 . S
C3751 C3746 1.379 . S
C3751 N3749 1.356 . S
N3752 C3744 1.356 . S
N3752 H3758 0.984 . S
N3752 H3759 0.984 . S
N3753 C3746 1.356 1_655 S
N3753 H3756 0.984 . S
N3753 H3757 0.985 . S
H3754 N3749 0.984 . S
H3755 N3749 0.985 . S
H3756 N3753 0.984 . S
H3757 N3753 0.985 . S
H3758 N3752 0.984 . S
H3759 N3752 0.984 . S
H3760 N3748 0.984 . S
H3761 N3748 0.985 . S
C3762 C3763 1.363 . S
C3762 C3768 1.379 . S
C3762 N3770 1.356 . S
C3763 C3762 1.363 . S
C3763 C3769 1.363 . S
C3764 C3765 1.363 . S
C3764 C3769 1.379 . S
C3764 N3771 1.356 . S
C3765 C3764 1.363 . S
C3765 C3768 1.363 . S
N3766 C3768 1.356 . S
N3766 H3778 0.984 . S
N3766 H3779 0.985 . S
N3767 C3769 1.356 . S
N3767 H3772 0.984 . S
N3767 H3773 0.985 . S
C3768 C3762 1.379 . S
C3768 C3765 1.363 . S
C3768 N3766 1.356 . S
C3769 C3763 1.363 . S
C3769 C3764 1.379 . S
C3769 N3767 1.356 . S
N3770 C3762 1.356 . S
N3770 H3776 0.984 . S
N3770 H3777 0.984 . S
N3771 C3764 1.356 . S
N3771 H3774 0.984 . S
N3771 H3775 0.985 . S
H3772 N3767 0.984 . S
H3773 N3767 0.985 . S
H3774 N3771 0.984 . S
H3775 N3771 0.985 . S
H3776 N3770 0.984 . S
H3777 N3770 0.984 . S
H3778 N3766 0.984 . S
H3779 N3766 0.985 . S
C3780 C3781 1.363 . S
C3780 C3786 1.379 . S
C3780 N3788 1.356 . S
C3781 C3780 1.363 . S
C3781 C3787 1.363 . S
C3782 C3783 1.363 . S
C3782 C3787 1.379 . S
C3782 N3789 1.356 1_565 S
C3783 C3782 1.363 . S
C3783 C3786 1.363 . S
N3784 C3786 1.356 . S
N3784 H3796 0.984 . S
N3784 H3797 0.985 . S
N3785 C3787 1.356 . S
N3785 H3790 0.984 . S
N3785 H3791 0.985 . S
C3786 C3780 1.379 . S
C3786 C3783 1.363 . S
C3786 N3784 1.356 . S
C3787 C3781 1.363 . S
C3787 C3782 1.379 . S
C3787 N3785 1.356 . S
N3788 C3780 1.356 . S
N3788 H3794 0.984 . S
N3788 H3795 0.984 . S
N3789 C3782 1.356 1_545 S
N3789 H3792 0.984 . S
N3789 H3793 0.985 . S
H3790 N3785 0.984 . S
H3791 N3785 0.985 . S
H3792 N3789 0.984 . S
H3793 N3789 0.985 . S
H3794 N3788 0.984 . S
H3795 N3788 0.984 . S
H3796 N3784 0.984 . S
H3797 N3784 0.985 . S
C3798 C3799 1.363 . S
C3798 C3804 1.379 . S
C3798 N3806 1.356 . S
C3799 C3798 1.363 . S
C3799 C3805 1.363 . S
C3800 C3801 1.363 . S
C3800 C3805 1.379 . S
C3800 N3807 1.356 1_545 S
C3801 C3800 1.363 . S
C3801 C3804 1.363 . S
N3802 C3804 1.356 . S
N3802 H3814 0.984 . S
N3802 H3815 0.985 . S
N3803 C3805 1.356 . S
N3803 H3808 0.984 . S
N3803 H3809 0.985 1_545 S
C3804 C3798 1.379 . S
C3804 C3801 1.363 . S
C3804 N3802 1.356 . S
C3805 C3799 1.363 . S
C3805 C3800 1.379 . S
C3805 N3803 1.356 . S
N3806 C3798 1.356 . S
N3806 H3812 0.984 . S
N3806 H3813 0.984 . S
N3807 C3800 1.356 1_565 S
N3807 H3810 0.984 . S
N3807 H3811 0.985 . S
H3808 N3803 0.984 . S
H3809 N3803 0.985 1_565 S
H3810 N3807 0.984 . S
H3811 N3807 0.985 . S
H3812 N3806 0.984 . S
H3813 N3806 0.984 . S
H3814 N3802 0.984 . S
H3815 N3802 0.985 . S
C3816 C3817 1.363 . S
C3816 C3822 1.379 . S
C3816 N3824 1.356 . S
C3817 C3816 1.363 . S
C3817 C3823 1.363 . S
C3818 C3819 1.363 1_455 S
C3818 C3823 1.379 1_455 S
C3818 N3825 1.356 . S
C3819 C3818 1.363 1_655 S
C3819 C3822 1.363 . S
N3820 C3822 1.356 . S
N3820 H3832 0.984 . S
N3820 H3833 0.985 . S
N3821 C3823 1.356 . S
N3821 H3826 0.984 . S
N3821 H3827 0.985 1_655 S
C3822 C3816 1.379 . S
C3822 C3819 1.363 . S
C3822 N3820 1.356 . S
C3823 C3817 1.363 . S
C3823 C3818 1.379 1_655 S
C3823 N3821 1.356 . S
N3824 C3816 1.356 . S
N3824 H3830 0.984 . S
N3824 H3831 0.984 . S
N3825 C3818 1.356 . S
N3825 H3828 0.984 . S
N3825 H3829 0.985 . S
H3826 N3821 0.984 . S
H3827 N3821 0.985 1_455 S
H3828 N3825 0.984 . S
H3829 N3825 0.985 . S
H3830 N3824 0.984 . S
H3831 N3824 0.984 . S
H3832 N3820 0.984 . S
H3833 N3820 0.985 . S
C3834 C3835 1.363 . S
C3834 C3840 1.379 . S
C3834 N3842 1.356 . S
C3835 C3834 1.363 . S
C3835 C3841 1.363 . S
C3836 C3837 1.363 . S
C3836 C3841 1.379 . S
C3836 N3843 1.356 . S
C3837 C3836 1.363 . S
C3837 C3840 1.363 . S
N3838 C3840 1.356 . S
N3838 H3850 0.984 . S
N3838 H3851 0.985 . S
N3839 C3841 1.356 . S
N3839 H3844 0.984 . S
N3839 H3845 0.985 . S
C3840 C3834 1.379 . S
C3840 C3837 1.363 . S
C3840 N3838 1.356 . S
C3841 C3835 1.363 . S
C3841 C3836 1.379 . S
C3841 N3839 1.356 . S
N3842 C3834 1.356 . S
N3842 H3848 0.984 . S
N3842 H3849 0.984 . S
N3843 C3836 1.356 . S
N3843 H3846 0.984 . S
N3843 H3847 0.985 . S
H3844 N3839 0.984 . S
H3845 N3839 0.985 . S
H3846 N3843 0.984 . S
H3847 N3843 0.985 . S
H3848 N3842 0.984 . S
H3849 N3842 0.984 . S
H3850 N3838 0.984 . S
H3851 N3838 0.985 . S
C3852 C3853 1.363 . S
C3852 C3858 1.379 . S
C3852 N3860 1.356 . S
C3853 C3852 1.363 . S
C3853 C3859 1.363 . S
C3854 C3855 1.363 . S
C3854 C3859 1.379 . S
C3854 N3861 1.356 . S
C3855 C3854 1.363 . S
C3855 C3858 1.363 . S
N3856 C3858 1.356 . S
N3856 H3868 0.984 . S
N3856 H3869 0.985 . S
N3857 C3859 1.356 . S
N3857 H3862 0.984 . S
N3857 H3863 0.985 . S
C3858 C3852 1.379 . S
C3858 C3855 1.363 . S
C3858 N3856 1.356 . S
C3859 C3853 1.363 . S
C3859 C3854 1.379 . S
C3859 N3857 1.356 . S
N3860 C3852 1.356 . S
N3860 H3866 0.984 . S
N3860 H3867 0.984 . S
N3861 C3854 1.356 . S
N3861 H3864 0.984 . S
N3861 H3865 0.985 . S
H3862 N3857 0.984 . S
H3863 N3857 0.985 . S
H3864 N3861 0.984 . S
H3865 N3861 0.985 . S
H3866 N3860 0.984 . S
H3867 N3860 0.984 . S
H3868 N3856 0.984 . S
H3869 N3856 0.985 . S
C3870 C3871 1.363 . S
C3870 C3876 1.379 . S
C3870 N3878 1.356 . S
C3871 C3870 1.363 . S
C3871 C3877 1.363 . S
C3872 C3873 1.363 . S
C3872 C3877 1.379 . S
C3872 N3879 1.356 . S
C3873 C3872 1.363 . S
C3873 C3876 1.363 . S
N3874 C3876 1.356 . S
N3874 H3886 0.984 . S
N3874 H3887 0.985 . S
N3875 C3877 1.356 . S
N3875 H3880 0.984 . S
N3875 H3881 0.985 . S
C3876 C3870 1.379 . S
C3876 C3873 1.363 . S
C3876 N3874 1.356 . S
C3877 C3871 1.363 . S
C3877 C3872 1.379 . S
C3877 N3875 1.356 . S
N3878 C3870 1.356 . S
N3878 H3884 0.984 . S
N3878 H3885 0.984 . S
N3879 C3872 1.356 . S
N3879 H3882 0.984 . S
N3879 H3883 0.985 . S
H3880 N3875 0.984 . S
H3881 N3875 0.985 . S
H3882 N3879 0.984 . S
H3883 N3879 0.985 . S
H3884 N3878 0.984 . S
H3885 N3878 0.984 . S
H3886 N3874 0.984 . S
H3887 N3874 0.985 . S
C3888 C3889 1.363 . S
C3888 C3894 1.379 . S
C3888 N3896 1.356 . S
C3889 C3888 1.363 . S
C3889 C3895 1.363 . S
C3890 C3891 1.363 . S
C3890 C3895 1.379 . S
C3890 N3897 1.356 . S
C3891 C3890 1.363 . S
C3891 C3894 1.363 . S
N3892 C3894 1.356 . S
N3892 H3904 0.984 . S
N3892 H3905 0.985 . S
N3893 C3895 1.356 . S
N3893 H3898 0.984 . S
N3893 H3899 0.985 . S
C3894 C3888 1.379 . S
C3894 C3891 1.363 . S
C3894 N3892 1.356 . S
C3895 C3889 1.363 . S
C3895 C3890 1.379 . S
C3895 N3893 1.356 . S
N3896 C3888 1.356 . S
N3896 H3902 0.984 . S
N3896 H3903 0.984 . S
N3897 C3890 1.356 . S
N3897 H3900 0.984 . S
N3897 H3901 0.985 . S
H3898 N3893 0.984 . S
H3899 N3893 0.985 . S
H3900 N3897 0.984 . S
H3901 N3897 0.985 . S
H3902 N3896 0.984 . S
H3903 N3896 0.984 . S
H3904 N3892 0.984 . S
H3905 N3892 0.985 . S
C3906 C3907 1.363 . S
C3906 C3912 1.379 . S
C3906 N3914 1.356 . S
C3907 C3906 1.363 . S
C3907 C3913 1.363 . S
C3908 C3909 1.363 . S
C3908 C3913 1.379 . S
C3908 N3915 1.356 . S
C3909 C3908 1.363 . S
C3909 C3912 1.363 . S
N3910 C3912 1.356 . S
N3910 H3922 0.984 . S
N3910 H3923 0.985 . S
N3911 C3913 1.356 . S
N3911 H3916 0.984 . S
N3911 H3917 0.985 . S
C3912 C3906 1.379 . S
C3912 C3909 1.363 . S
C3912 N3910 1.356 . S
C3913 C3907 1.363 . S
C3913 C3908 1.379 . S
C3913 N3911 1.356 . S
N3914 C3906 1.356 . S
N3914 H3920 0.984 . S
N3914 H3921 0.984 . S
N3915 C3908 1.356 . S
N3915 H3918 0.984 . S
N3915 H3919 0.985 . S
H3916 N3911 0.984 . S
H3917 N3911 0.985 . S
H3918 N3915 0.984 . S
H3919 N3915 0.985 . S
H3920 N3914 0.984 . S
H3921 N3914 0.984 . S
H3922 N3910 0.984 . S
H3923 N3910 0.985 . S
C3924 C3925 1.363 . S
C3924 C3930 1.379 . S
C3924 N3932 1.356 . S
C3925 C3924 1.363 . S
C3925 C3931 1.363 . S
C3926 C3927 1.363 . S
C3926 C3931 1.379 . S
C3926 N3933 1.356 . S
C3927 C3926 1.363 . S
C3927 C3930 1.363 . S
N3928 C3930 1.356 . S
N3928 H3940 0.984 . S
N3928 H3941 0.985 . S
N3929 C3931 1.356 . S
N3929 H3934 0.984 . S
N3929 H3935 0.985 . S
C3930 C3924 1.379 . S
C3930 C3927 1.363 . S
C3930 N3928 1.356 . S
C3931 C3925 1.363 . S
C3931 C3926 1.379 . S
C3931 N3929 1.356 . S
N3932 C3924 1.356 . S
N3932 H3938 0.984 . S
N3932 H3939 0.984 . S
N3933 C3926 1.356 . S
N3933 H3936 0.984 . S
N3933 H3937 0.985 . S
H3934 N3929 0.984 . S
H3935 N3929 0.985 . S
H3936 N3933 0.984 . S
H3937 N3933 0.985 . S
H3938 N3932 0.984 . S
H3939 N3932 0.984 . S
H3940 N3928 0.984 . S
H3941 N3928 0.985 . S
C3942 C3943 1.363 . S
C3942 C3948 1.379 . S
C3942 N3950 1.356 . S
C3943 C3942 1.363 . S
C3943 C3949 1.363 . S
C3944 C3945 1.363 . S
C3944 C3949 1.379 . S
C3944 N3951 1.356 . S
C3945 C3944 1.363 . S
C3945 C3948 1.363 . S
N3946 C3948 1.356 . S
N3946 H3958 0.984 . S
N3946 H3959 0.985 . S
N3947 C3949 1.356 . S
N3947 H3952 0.984 . S
N3947 H3953 0.985 . S
C3948 C3942 1.379 . S
C3948 C3945 1.363 . S
C3948 N3946 1.356 . S
C3949 C3943 1.363 . S
C3949 C3944 1.379 . S
C3949 N3947 1.356 . S
N3950 C3942 1.356 . S
N3950 H3956 0.984 . S
N3950 H3957 0.984 . S
N3951 C3944 1.356 . S
N3951 H3954 0.984 . S
N3951 H3955 0.985 . S
H3952 N3947 0.984 . S
H3953 N3947 0.985 . S
H3954 N3951 0.984 . S
H3955 N3951 0.985 . S
H3956 N3950 0.984 . S
H3957 N3950 0.984 . S
H3958 N3946 0.984 . S
H3959 N3946 0.985 . S
C3960 C3961 1.363 . S
C3960 C3966 1.379 . S
C3960 N3968 1.356 . S
C3961 C3960 1.363 . S
C3961 C3967 1.363 . S
C3962 C3963 1.363 . S
C3962 C3967 1.379 . S
C3962 N3969 1.356 . S
C3963 C3962 1.363 . S
C3963 C3966 1.363 . S
N3964 C3966 1.356 . S
N3964 H3976 0.984 . S
N3964 H3977 0.985 . S
N3965 C3967 1.356 . S
N3965 H3970 0.984 . S
N3965 H3971 0.985 . S
C3966 C3960 1.379 . S
C3966 C3963 1.363 . S
C3966 N3964 1.356 . S
C3967 C3961 1.363 . S
C3967 C3962 1.379 . S
C3967 N3965 1.356 . S
N3968 C3960 1.356 . S
N3968 H3974 0.984 . S
N3968 H3975 0.984 . S
N3969 C3962 1.356 . S
N3969 H3972 0.984 . S
N3969 H3973 0.985 . S
H3970 N3965 0.984 . S
H3971 N3965 0.985 . S
H3972 N3969 0.984 . S
H3973 N3969 0.985 . S
H3974 N3968 0.984 . S
H3975 N3968 0.984 . S
H3976 N3964 0.984 . S
H3977 N3964 0.985 . S
C3978 C3979 1.363 . S
C3978 C3984 1.379 . S
C3978 N3986 1.356 . S
C3979 C3978 1.363 . S
C3979 C3985 1.363 . S
C3980 C3981 1.363 . S
C3980 C3985 1.379 . S
C3980 N3987 1.356 . S
C3981 C3980 1.363 . S
C3981 C3984 1.363 . S
N3982 C3984 1.356 . S
N3982 H3994 0.984 . S
N3982 H3995 0.985 . S
N3983 C3985 1.356 . S
N3983 H3988 0.984 . S
N3983 H3989 0.985 . S
C3984 C3978 1.379 . S
C3984 C3981 1.363 . S
C3984 N3982 1.356 . S
C3985 C3979 1.363 . S
C3985 C3980 1.379 . S
C3985 N3983 1.356 . S
N3986 C3978 1.356 . S
N3986 H3992 0.984 . S
N3986 H3993 0.984 . S
N3987 C3980 1.356 . S
N3987 H3990 0.984 . S
N3987 H3991 0.985 . S
H3988 N3983 0.984 . S
H3989 N3983 0.985 . S
H3990 N3987 0.984 . S
H3991 N3987 0.985 . S
H3992 N3986 0.984 . S
H3993 N3986 0.984 . S
H3994 N3982 0.984 . S
H3995 N3982 0.985 . S
C3996 C3997 1.363 . S
C3996 C4002 1.379 . S
C3996 N4004 1.356 . S
C3997 C3996 1.363 . S
C3997 C4003 1.363 . S
C3998 C3999 1.363 . S
C3998 C4003 1.379 . S
C3998 N4005 1.356 . S
C3999 C3998 1.363 . S
C3999 C4002 1.363 . S
N4000 C4002 1.356 . S
N4000 H4012 0.984 . S
N4000 H4013 0.985 . S
N4001 C4003 1.356 . S
N4001 H4006 0.984 . S
N4001 H4007 0.985 . S
C4002 C3996 1.379 . S
C4002 C3999 1.363 . S
C4002 N4000 1.356 . S
C4003 C3997 1.363 . S
C4003 C3998 1.379 . S
C4003 N4001 1.356 . S
N4004 C3996 1.356 . S
N4004 H4010 0.984 . S
N4004 H4011 0.984 . S
N4005 C3998 1.356 . S
N4005 H4008 0.984 . S
N4005 H4009 0.985 . S
H4006 N4001 0.984 . S
H4007 N4001 0.985 . S
H4008 N4005 0.984 . S
H4009 N4005 0.985 . S
H4010 N4004 0.984 . S
H4011 N4004 0.984 . S
H4012 N4000 0.984 . S
H4013 N4000 0.985 . S
C4014 C4015 1.363 . S
C4014 C4020 1.379 . S
C4014 N4022 1.356 . S
C4015 C4014 1.363 . S
C4015 C4021 1.363 . S
C4016 C4017 1.363 . S
C4016 C4021 1.379 . S
C4016 N4023 1.356 . S
C4017 C4016 1.363 . S
C4017 C4020 1.363 . S
N4018 C4020 1.356 . S
N4018 H4030 0.984 . S
N4018 H4031 0.985 . S
N4019 C4021 1.356 . S
N4019 H4024 0.984 . S
N4019 H4025 0.985 . S
C4020 C4014 1.379 . S
C4020 C4017 1.363 . S
C4020 N4018 1.356 . S
C4021 C4015 1.363 . S
C4021 C4016 1.379 . S
C4021 N4019 1.356 . S
N4022 C4014 1.356 . S
N4022 H4028 0.984 . S
N4022 H4029 0.984 . S
N4023 C4016 1.356 . S
N4023 H4026 0.984 . S
N4023 H4027 0.985 . S
H4024 N4019 0.984 . S
H4025 N4019 0.985 . S
H4026 N4023 0.984 . S
H4027 N4023 0.985 . S
H4028 N4022 0.984 . S
H4029 N4022 0.984 . S
H4030 N4018 0.984 . S
H4031 N4018 0.985 . S
C4032 C4033 1.363 . S
C4032 C4038 1.379 . S
C4032 N4040 1.356 . S
C4033 C4032 1.363 . S
C4033 C4039 1.363 . S
C4034 C4035 1.363 . S
C4034 C4039 1.379 . S
C4034 N4041 1.356 . S
C4035 C4034 1.363 . S
C4035 C4038 1.363 . S
N4036 C4038 1.356 . S
N4036 H4048 0.984 . S
N4036 H4049 0.985 . S
N4037 C4039 1.356 . S
N4037 H4042 0.984 . S
N4037 H4043 0.985 . S
C4038 C4032 1.379 . S
C4038 C4035 1.363 . S
C4038 N4036 1.356 . S
C4039 C4033 1.363 . S
C4039 C4034 1.379 . S
C4039 N4037 1.356 . S
N4040 C4032 1.356 . S
N4040 H4046 0.984 . S
N4040 H4047 0.984 . S
N4041 C4034 1.356 . S
N4041 H4044 0.984 . S
N4041 H4045 0.985 . S
H4042 N4037 0.984 . S
H4043 N4037 0.985 . S
H4044 N4041 0.984 . S
H4045 N4041 0.985 . S
H4046 N4040 0.984 . S
H4047 N4040 0.984 . S
H4048 N4036 0.984 . S
H4049 N4036 0.985 . S
C4050 C4051 1.363 . S
C4050 C4056 1.379 . S
C4050 N4058 1.356 . S
C4051 C4050 1.363 . S
C4051 C4057 1.363 . S
C4052 C4053 1.363 . S
C4052 C4057 1.379 . S
C4052 N4059 1.356 . S
C4053 C4052 1.363 . S
C4053 C4056 1.363 . S
N4054 C4056 1.356 . S
N4054 H4066 0.984 . S
N4054 H4067 0.985 . S
N4055 C4057 1.356 . S
N4055 H4060 0.984 . S
N4055 H4061 0.985 . S
C4056 C4050 1.379 . S
C4056 C4053 1.363 . S
C4056 N4054 1.356 . S
C4057 C4051 1.363 . S
C4057 C4052 1.379 . S
C4057 N4055 1.356 . S
N4058 C4050 1.356 . S
N4058 H4064 0.984 . S
N4058 H4065 0.984 . S
N4059 C4052 1.356 . S
N4059 H4062 0.984 . S
N4059 H4063 0.985 . S
H4060 N4055 0.984 . S
H4061 N4055 0.985 . S
H4062 N4059 0.984 . S
H4063 N4059 0.985 . S
H4064 N4058 0.984 . S
H4065 N4058 0.984 . S
H4066 N4054 0.984 . S
H4067 N4054 0.985 . S
C4068 C4069 1.363 . S
C4068 C4074 1.379 . S
C4068 N4076 1.356 . S
C4069 C4068 1.363 . S
C4069 C4075 1.363 . S
C4070 C4071 1.363 . S
C4070 C4075 1.379 . S
C4070 N4077 1.356 . S
C4071 C4070 1.363 . S
C4071 C4074 1.363 . S
N4072 C4074 1.356 . S
N4072 H4084 0.984 . S
N4072 H4085 0.985 . S
N4073 C4075 1.356 . S
N4073 H4078 0.984 . S
N4073 H4079 0.985 . S
C4074 C4068 1.379 . S
C4074 C4071 1.363 . S
C4074 N4072 1.356 . S
C4075 C4069 1.363 . S
C4075 C4070 1.379 . S
C4075 N4073 1.356 . S
N4076 C4068 1.356 . S
N4076 H4082 0.984 . S
N4076 H4083 0.984 . S
N4077 C4070 1.356 . S
N4077 H4080 0.984 . S
N4077 H4081 0.985 . S
H4078 N4073 0.984 . S
H4079 N4073 0.985 . S
H4080 N4077 0.984 . S
H4081 N4077 0.985 . S
H4082 N4076 0.984 . S
H4083 N4076 0.984 . S
H4084 N4072 0.984 . S
H4085 N4072 0.985 . S
C4086 C4087 1.363 . S
C4086 C4092 1.379 . S
C4086 N4094 1.356 . S
C4087 C4086 1.363 . S
C4087 C4093 1.363 . S
C4088 C4089 1.363 . S
C4088 C4093 1.379 . S
C4088 N4095 1.356 . S
C4089 C4088 1.363 . S
C4089 C4092 1.363 . S
N4090 C4092 1.356 . S
N4090 H4102 0.984 . S
N4090 H4103 0.985 . S
N4091 C4093 1.356 . S
N4091 H4096 0.984 . S
N4091 H4097 0.985 . S
C4092 C4086 1.379 . S
C4092 C4089 1.363 . S
C4092 N4090 1.356 . S
C4093 C4087 1.363 . S
C4093 C4088 1.379 . S
C4093 N4091 1.356 . S
N4094 C4086 1.356 . S
N4094 H4100 0.984 . S
N4094 H4101 0.984 . S
N4095 C4088 1.356 . S
N4095 H4098 0.984 . S
N4095 H4099 0.985 . S
H4096 N4091 0.984 . S
H4097 N4091 0.985 . S
H4098 N4095 0.984 . S
H4099 N4095 0.985 . S
H4100 N4094 0.984 . S
H4101 N4094 0.984 . S
H4102 N4090 0.984 . S
H4103 N4090 0.985 . S
C4104 C4105 1.363 . S
C4104 C4110 1.379 . S
C4104 N4112 1.356 . S
C4105 C4104 1.363 . S
C4105 C4111 1.363 . S
C4106 C4107 1.363 . S
C4106 C4111 1.379 . S
C4106 N4113 1.356 . S
C4107 C4106 1.363 . S
C4107 C4110 1.363 . S
N4108 C4110 1.356 . S
N4108 H4120 0.984 . S
N4108 H4121 0.985 . S
N4109 C4111 1.356 . S
N4109 H4114 0.984 . S
N4109 H4115 0.985 . S
C4110 C4104 1.379 . S
C4110 C4107 1.363 . S
C4110 N4108 1.356 . S
C4111 C4105 1.363 . S
C4111 C4106 1.379 . S
C4111 N4109 1.356 . S
N4112 C4104 1.356 . S
N4112 H4118 0.984 . S
N4112 H4119 0.984 . S
N4113 C4106 1.356 . S
N4113 H4116 0.984 . S
N4113 H4117 0.985 . S
H4114 N4109 0.984 . S
H4115 N4109 0.985 . S
H4116 N4113 0.984 . S
H4117 N4113 0.985 . S
H4118 N4112 0.984 . S
H4119 N4112 0.984 . S
H4120 N4108 0.984 . S
H4121 N4108 0.985 . S
C4122 C4123 1.363 . S
C4122 C4128 1.379 . S
C4122 N4130 1.356 . S
C4123 C4122 1.363 . S
C4123 C4129 1.363 . S
C4124 C4125 1.363 . S
C4124 C4129 1.379 . S
C4124 N4131 1.356 . S
C4125 C4124 1.363 . S
C4125 C4128 1.363 . S
N4126 C4128 1.356 . S
N4126 H4138 0.984 . S
N4126 H4139 0.985 . S
N4127 C4129 1.356 . S
N4127 H4132 0.984 . S
N4127 H4133 0.985 . S
C4128 C4122 1.379 . S
C4128 C4125 1.363 . S
C4128 N4126 1.356 . S
C4129 C4123 1.363 . S
C4129 C4124 1.379 . S
C4129 N4127 1.356 . S
N4130 C4122 1.356 . S
N4130 H4136 0.984 . S
N4130 H4137 0.984 . S
N4131 C4124 1.356 . S
N4131 H4134 0.984 . S
N4131 H4135 0.985 . S
H4132 N4127 0.984 . S
H4133 N4127 0.985 . S
H4134 N4131 0.984 . S
H4135 N4131 0.985 . S
H4136 N4130 0.984 . S
H4137 N4130 0.984 . S
H4138 N4126 0.984 . S
H4139 N4126 0.985 . S
C4140 C4141 1.363 . S
C4140 C4146 1.379 . S
C4140 N4148 1.356 . S
C4141 C4140 1.363 . S
C4141 C4147 1.363 . S
C4142 C4143 1.363 . S
C4142 C4147 1.379 . S
C4142 N4149 1.356 . S
C4143 C4142 1.363 . S
C4143 C4146 1.363 . S
N4144 C4146 1.356 . S
N4144 H4156 0.984 . S
N4144 H4157 0.985 . S
N4145 C4147 1.356 . S
N4145 H4150 0.984 . S
N4145 H4151 0.985 . S
C4146 C4140 1.379 . S
C4146 C4143 1.363 . S
C4146 N4144 1.356 . S
C4147 C4141 1.363 . S
C4147 C4142 1.379 . S
C4147 N4145 1.356 . S
N4148 C4140 1.356 . S
N4148 H4154 0.984 . S
N4148 H4155 0.984 . S
N4149 C4142 1.356 . S
N4149 H4152 0.984 . S
N4149 H4153 0.985 . S
H4150 N4145 0.984 . S
H4151 N4145 0.985 . S
H4152 N4149 0.984 . S
H4153 N4149 0.985 . S
H4154 N4148 0.984 . S
H4155 N4148 0.984 . S
H4156 N4144 0.984 . S
H4157 N4144 0.985 . S
C4158 C4159 1.363 . S
C4158 C4164 1.379 . S
C4158 N4166 1.356 . S
C4159 C4158 1.363 . S
C4159 C4165 1.363 . S
C4160 C4161 1.363 . S
C4160 C4165 1.379 . S
C4160 N4167 1.356 . S
C4161 C4160 1.363 . S
C4161 C4164 1.363 . S
N4162 C4164 1.356 . S
N4162 H4174 0.984 . S
N4162 H4175 0.985 . S
N4163 C4165 1.356 . S
N4163 H4168 0.984 . S
N4163 H4169 0.985 . S
C4164 C4158 1.379 . S
C4164 C4161 1.363 . S
C4164 N4162 1.356 . S
C4165 C4159 1.363 . S
C4165 C4160 1.379 . S
C4165 N4163 1.356 . S
N4166 C4158 1.356 . S
N4166 H4172 0.984 . S
N4166 H4173 0.984 . S
N4167 C4160 1.356 . S
N4167 H4170 0.984 . S
N4167 H4171 0.985 . S
H4168 N4163 0.984 . S
H4169 N4163 0.985 . S
H4170 N4167 0.984 . S
H4171 N4167 0.985 . S
H4172 N4166 0.984 . S
H4173 N4166 0.984 . S
H4174 N4162 0.984 . S
H4175 N4162 0.985 . S
C4176 C4177 1.363 . S
C4176 C4182 1.379 . S
C4176 N4184 1.356 . S
C4177 C4176 1.363 . S
C4177 C4183 1.363 . S
C4178 C4179 1.363 . S
C4178 C4183 1.379 . S
C4178 N4185 1.356 . S
C4179 C4178 1.363 . S
C4179 C4182 1.363 . S
N4180 C4182 1.356 . S
N4180 H4192 0.984 . S
N4180 H4193 0.985 . S
N4181 C4183 1.356 . S
N4181 H4186 0.984 . S
N4181 H4187 0.985 . S
C4182 C4176 1.379 . S
C4182 C4179 1.363 . S
C4182 N4180 1.356 . S
C4183 C4177 1.363 . S
C4183 C4178 1.379 . S
C4183 N4181 1.356 . S
N4184 C4176 1.356 . S
N4184 H4190 0.984 . S
N4184 H4191 0.984 . S
N4185 C4178 1.356 . S
N4185 H4188 0.984 . S
N4185 H4189 0.985 . S
H4186 N4181 0.984 . S
H4187 N4181 0.985 . S
H4188 N4185 0.984 . S
H4189 N4185 0.985 . S
H4190 N4184 0.984 . S
H4191 N4184 0.984 . S
H4192 N4180 0.984 . S
H4193 N4180 0.985 . S
C4194 C4195 1.363 . S
C4194 C4200 1.379 . S
C4194 N4202 1.356 . S
C4195 C4194 1.363 . S
C4195 C4201 1.363 . S
C4196 C4197 1.363 . S
C4196 C4201 1.379 . S
C4196 N4203 1.356 . S
C4197 C4196 1.363 . S
C4197 C4200 1.363 . S
N4198 C4200 1.356 . S
N4198 H4210 0.984 . S
N4198 H4211 0.985 . S
N4199 C4201 1.356 . S
N4199 H4204 0.984 . S
N4199 H4205 0.985 . S
C4200 C4194 1.379 . S
C4200 C4197 1.363 . S
C4200 N4198 1.356 . S
C4201 C4195 1.363 . S
C4201 C4196 1.379 . S
C4201 N4199 1.356 . S
N4202 C4194 1.356 . S
N4202 H4208 0.984 . S
N4202 H4209 0.984 . S
N4203 C4196 1.356 . S
N4203 H4206 0.984 . S
N4203 H4207 0.985 . S
H4204 N4199 0.984 . S
H4205 N4199 0.985 . S
H4206 N4203 0.984 . S
H4207 N4203 0.985 . S
H4208 N4202 0.984 . S
H4209 N4202 0.984 . S
H4210 N4198 0.984 . S
H4211 N4198 0.985 . S
C4212 C4213 1.363 . S
C4212 C4218 1.379 . S
C4212 N4220 1.356 . S
C4213 C4212 1.363 . S
C4213 C4219 1.363 . S
C4214 C4215 1.363 . S
C4214 C4219 1.379 . S
C4214 N4221 1.356 . S
C4215 C4214 1.363 . S
C4215 C4218 1.363 . S
N4216 C4218 1.356 . S
N4216 H4228 0.984 . S
N4216 H4229 0.985 . S
N4217 C4219 1.356 . S
N4217 H4222 0.984 . S
N4217 H4223 0.985 . S
C4218 C4212 1.379 . S
C4218 C4215 1.363 . S
C4218 N4216 1.356 . S
C4219 C4213 1.363 . S
C4219 C4214 1.379 . S
C4219 N4217 1.356 . S
N4220 C4212 1.356 . S
N4220 H4226 0.984 . S
N4220 H4227 0.984 . S
N4221 C4214 1.356 . S
N4221 H4224 0.984 . S
N4221 H4225 0.985 . S
H4222 N4217 0.984 . S
H4223 N4217 0.985 . S
H4224 N4221 0.984 . S
H4225 N4221 0.985 . S
H4226 N4220 0.984 . S
H4227 N4220 0.984 . S
H4228 N4216 0.984 . S
H4229 N4216 0.985 . S
C4230 C4231 1.363 . S
C4230 C4236 1.379 . S
C4230 N4238 1.356 . S
C4231 C4230 1.363 . S
C4231 C4237 1.363 . S
C4232 C4233 1.363 . S
C4232 C4237 1.379 . S
C4232 N4239 1.356 . S
C4233 C4232 1.363 . S
C4233 C4236 1.363 . S
N4234 C4236 1.356 . S
N4234 H4246 0.984 . S
N4234 H4247 0.985 . S
N4235 C4237 1.356 . S
N4235 H4240 0.984 . S
N4235 H4241 0.985 . S
C4236 C4230 1.379 . S
C4236 C4233 1.363 . S
C4236 N4234 1.356 . S
C4237 C4231 1.363 . S
C4237 C4232 1.379 . S
C4237 N4235 1.356 . S
N4238 C4230 1.356 . S
N4238 H4244 0.984 . S
N4238 H4245 0.984 . S
N4239 C4232 1.356 . S
N4239 H4242 0.984 . S
N4239 H4243 0.985 . S
H4240 N4235 0.984 . S
H4241 N4235 0.985 . S
H4242 N4239 0.984 . S
H4243 N4239 0.985 . S
H4244 N4238 0.984 . S
H4245 N4238 0.984 . S
H4246 N4234 0.984 . S
H4247 N4234 0.985 . S
C4248 C4249 1.363 . S
C4248 C4254 1.379 . S
C4248 N4256 1.356 . S
C4249 C4248 1.363 . S
C4249 C4255 1.363 . S
C4250 C4251 1.363 . S
C4250 C4255 1.379 . S
C4250 N4257 1.356 . S
C4251 C4250 1.363 . S
C4251 C4254 1.363 . S
N4252 C4254 1.356 . S
N4252 H4264 0.984 . S
N4252 H4265 0.985 . S
N4253 C4255 1.356 . S
N4253 H4258 0.984 . S
N4253 H4259 0.985 . S
C4254 C4248 1.379 . S
C4254 C4251 1.363 . S
C4254 N4252 1.356 . S
C4255 C4249 1.363 . S
C4255 C4250 1.379 . S
C4255 N4253 1.356 . S
N4256 C4248 1.356 . S
N4256 H4262 0.984 . S
N4256 H4263 0.984 . S
N4257 C4250 1.356 . S
N4257 H4260 0.984 . S
N4257 H4261 0.985 . S
H4258 N4253 0.984 . S
H4259 N4253 0.985 . S
H4260 N4257 0.984 . S
H4261 N4257 0.985 . S
H4262 N4256 0.984 . S
H4263 N4256 0.984 . S
H4264 N4252 0.984 . S
H4265 N4252 0.985 . S
C4266 C4267 1.363 . S
C4266 C4272 1.379 . S
C4266 N4274 1.356 . S
C4267 C4266 1.363 . S
C4267 C4273 1.363 . S
C4268 C4269 1.363 . S
C4268 C4273 1.379 . S
C4268 N4275 1.356 . S
C4269 C4268 1.363 . S
C4269 C4272 1.363 . S
N4270 C4272 1.356 . S
N4270 H4282 0.984 . S
N4270 H4283 0.985 . S
N4271 C4273 1.356 . S
N4271 H4276 0.984 . S
N4271 H4277 0.985 . S
C4272 C4266 1.379 . S
C4272 C4269 1.363 . S
C4272 N4270 1.356 . S
C4273 C4267 1.363 . S
C4273 C4268 1.379 . S
C4273 N4271 1.356 . S
N4274 C4266 1.356 . S
N4274 H4280 0.984 . S
N4274 H4281 0.984 . S
N4275 C4268 1.356 . S
N4275 H4278 0.984 . S
N4275 H4279 0.985 . S
H4276 N4271 0.984 . S
H4277 N4271 0.985 . S
H4278 N4275 0.984 . S
H4279 N4275 0.985 . S
H4280 N4274 0.984 . S
H4281 N4274 0.984 . S
H4282 N4270 0.984 . S
H4283 N4270 0.985 . S
C4284 C4285 1.363 . S
C4284 C4290 1.379 . S
C4284 N4292 1.356 . S
C4285 C4284 1.363 . S
C4285 C4291 1.363 . S
C4286 C4287 1.363 . S
C4286 C4291 1.379 . S
C4286 N4293 1.356 . S
C4287 C4286 1.363 . S
C4287 C4290 1.363 . S
N4288 C4290 1.356 . S
N4288 H4300 0.984 . S
N4288 H4301 0.985 . S
N4289 C4291 1.356 . S
N4289 H4294 0.984 . S
N4289 H4295 0.985 . S
C4290 C4284 1.379 . S
C4290 C4287 1.363 . S
C4290 N4288 1.356 . S
C4291 C4285 1.363 . S
C4291 C4286 1.379 . S
C4291 N4289 1.356 . S
N4292 C4284 1.356 . S
N4292 H4298 0.984 . S
N4292 H4299 0.984 . S
N4293 C4286 1.356 . S
N4293 H4296 0.984 . S
N4293 H4297 0.985 . S
H4294 N4289 0.984 . S
H4295 N4289 0.985 . S
H4296 N4293 0.984 . S
H4297 N4293 0.985 . S
H4298 N4292 0.984 . S
H4299 N4292 0.984 . S
H4300 N4288 0.984 . S
H4301 N4288 0.985 . S
C4302 C4303 1.363 . S
C4302 C4308 1.379 . S
C4302 N4310 1.356 . S
C4303 C4302 1.363 . S
C4303 C4309 1.363 . S
C4304 C4305 1.363 . S
C4304 C4309 1.379 . S
C4304 N4311 1.356 . S
C4305 C4304 1.363 . S
C4305 C4308 1.363 . S
N4306 C4308 1.356 . S
N4306 H4318 0.984 . S
N4306 H4319 0.985 . S
N4307 C4309 1.356 . S
N4307 H4312 0.984 . S
N4307 H4313 0.985 . S
C4308 C4302 1.379 . S
C4308 C4305 1.363 . S
C4308 N4306 1.356 . S
C4309 C4303 1.363 . S
C4309 C4304 1.379 . S
C4309 N4307 1.356 . S
N4310 C4302 1.356 . S
N4310 H4316 0.984 . S
N4310 H4317 0.984 . S
N4311 C4304 1.356 . S
N4311 H4314 0.984 . S
N4311 H4315 0.985 . S
H4312 N4307 0.984 . S
H4313 N4307 0.985 . S
H4314 N4311 0.984 . S
H4315 N4311 0.985 . S
H4316 N4310 0.984 . S
H4317 N4310 0.984 . S
H4318 N4306 0.984 . S
H4319 N4306 0.985 . S
C4320 C4321 1.363 . S
C4320 C4326 1.379 . S
C4320 N4328 1.356 . S
C4321 C4320 1.363 . S
C4321 C4327 1.363 . S
C4322 C4323 1.363 . S
C4322 C4327 1.379 . S
C4322 N4329 1.356 . S
C4323 C4322 1.363 . S
C4323 C4326 1.363 . S
N4324 C4326 1.356 . S
N4324 H4336 0.984 . S
N4324 H4337 0.985 . S
N4325 C4327 1.356 . S
N4325 H4330 0.984 . S
N4325 H4331 0.985 . S
C4326 C4320 1.379 . S
C4326 C4323 1.363 . S
C4326 N4324 1.356 . S
C4327 C4321 1.363 . S
C4327 C4322 1.379 . S
C4327 N4325 1.356 . S
N4328 C4320 1.356 . S
N4328 H4334 0.984 . S
N4328 H4335 0.984 . S
N4329 C4322 1.356 . S
N4329 H4332 0.984 . S
N4329 H4333 0.985 . S
H4330 N4325 0.984 . S
H4331 N4325 0.985 . S
H4332 N4329 0.984 . S
H4333 N4329 0.985 . S
H4334 N4328 0.984 . S
H4335 N4328 0.984 . S
H4336 N4324 0.984 . S
H4337 N4324 0.985 . S
C4338 C4339 1.363 . S
C4338 C4344 1.379 . S
C4338 N4346 1.356 . S
C4339 C4338 1.363 . S
C4339 C4345 1.363 . S
C4340 C4341 1.363 . S
C4340 C4345 1.379 . S
C4340 N4347 1.356 . S
C4341 C4340 1.363 . S
C4341 C4344 1.363 . S
N4342 C4344 1.356 . S
N4342 H4354 0.984 . S
N4342 H4355 0.985 . S
N4343 C4345 1.356 . S
N4343 H4348 0.984 . S
N4343 H4349 0.985 . S
C4344 C4338 1.379 . S
C4344 C4341 1.363 . S
C4344 N4342 1.356 . S
C4345 C4339 1.363 . S
C4345 C4340 1.379 . S
C4345 N4343 1.356 . S
N4346 C4338 1.356 . S
N4346 H4352 0.984 . S
N4346 H4353 0.984 . S
N4347 C4340 1.356 . S
N4347 H4350 0.984 . S
N4347 H4351 0.985 . S
H4348 N4343 0.984 . S
H4349 N4343 0.985 . S
H4350 N4347 0.984 . S
H4351 N4347 0.985 . S
H4352 N4346 0.984 . S
H4353 N4346 0.984 . S
H4354 N4342 0.984 . S
H4355 N4342 0.985 . S
C4356 C4357 1.363 . S
C4356 C4362 1.379 . S
C4356 N4364 1.356 . S
C4357 C4356 1.363 . S
C4357 C4363 1.363 . S
C4358 C4359 1.363 . S
C4358 C4363 1.379 . S
C4358 N4365 1.356 . S
C4359 C4358 1.363 . S
C4359 C4362 1.363 . S
N4360 C4362 1.356 . S
N4360 H4372 0.984 . S
N4360 H4373 0.985 . S
N4361 C4363 1.356 . S
N4361 H4366 0.984 . S
N4361 H4367 0.985 . S
C4362 C4356 1.379 . S
C4362 C4359 1.363 . S
C4362 N4360 1.356 . S
C4363 C4357 1.363 . S
C4363 C4358 1.379 . S
C4363 N4361 1.356 . S
N4364 C4356 1.356 . S
N4364 H4370 0.984 . S
N4364 H4371 0.984 . S
N4365 C4358 1.356 . S
N4365 H4368 0.984 . S
N4365 H4369 0.985 . S
H4366 N4361 0.984 . S
H4367 N4361 0.985 . S
H4368 N4365 0.984 . S
H4369 N4365 0.985 . S
H4370 N4364 0.984 . S
H4371 N4364 0.984 . S
H4372 N4360 0.984 . S
H4373 N4360 0.985 . S
C4374 C4375 1.363 . S
C4374 C4380 1.379 . S
C4374 N4382 1.356 . S
C4375 C4374 1.363 . S
C4375 C4381 1.363 . S
C4376 C4377 1.363 . S
C4376 C4381 1.379 . S
C4376 N4383 1.356 . S
C4377 C4376 1.363 . S
C4377 C4380 1.363 . S
N4378 C4380 1.356 . S
N4378 H4390 0.984 . S
N4378 H4391 0.985 . S
N4379 C4381 1.356 . S
N4379 H4384 0.984 . S
N4379 H4385 0.985 1_556 S
C4380 C4374 1.379 . S
C4380 C4377 1.363 . S
C4380 N4378 1.356 . S
C4381 C4375 1.363 . S
C4381 C4376 1.379 . S
C4381 N4379 1.356 . S
N4382 C4374 1.356 . S
N4382 H4388 0.984 . S
N4382 H4389 0.984 . S
N4383 C4376 1.356 . S
N4383 H4386 0.984 . S
N4383 H4387 0.985 . S
H4384 N4379 0.984 . S
H4385 N4379 0.985 1_554 S
H4386 N4383 0.984 . S
H4387 N4383 0.985 . S
H4388 N4382 0.984 . S
H4389 N4382 0.984 . S
H4390 N4378 0.984 . S
H4391 N4378 0.985 . S
C4392 C4393 1.363 . S
C4392 C4398 1.379 . S
C4392 N4400 1.356 . S
C4393 C4392 1.363 . S
C4393 C4399 1.363 . S
C4394 C4395 1.363 . S
C4394 C4399 1.379 . S
C4394 N4401 1.356 . S
C4395 C4394 1.363 . S
C4395 C4398 1.363 . S
N4396 C4398 1.356 . S
N4396 H4408 0.984 . S
N4396 H4409 0.985 . S
N4397 C4399 1.356 . S
N4397 H4402 0.984 . S
N4397 H4403 0.985 . S
C4398 C4392 1.379 . S
C4398 C4395 1.363 . S
C4398 N4396 1.356 . S
C4399 C4393 1.363 . S
C4399 C4394 1.379 . S
C4399 N4397 1.356 . S
N4400 C4392 1.356 . S
N4400 H4406 0.944 1_556 S
N4400 H4407 0.984 . S
N4401 C4394 1.356 . S
N4401 H4404 0.984 . S
N4401 H4405 0.985 . S
H4402 N4397 0.984 . S
H4403 N4397 0.985 . S
H4404 N4401 0.984 . S
H4405 N4401 0.985 . S
H4406 N4400 0.944 1_554 S
H4407 N4400 0.984 . S
H4408 N4396 0.984 . S
H4409 N4396 0.985 . S
C4410 C4411 1.363 . S
C4410 C4416 1.379 . S
C4410 N4418 1.356 . S
C4411 C4410 1.363 . S
C4411 C4417 1.363 . S
C4412 C4413 1.363 . S
C4412 C4417 1.379 . S
C4412 N4419 1.356 . S
C4413 C4412 1.363 . S
C4413 C4416 1.363 . S
N4414 C4416 1.356 . S
N4414 H4426 0.984 . S
N4414 H4427 0.985 . S
N4415 C4417 1.356 . S
N4415 H4420 0.984 . S
N4415 H4421 0.985 . S
C4416 C4410 1.379 . S
C4416 C4413 1.363 . S
C4416 N4414 1.356 . S
C4417 C4411 1.363 . S
C4417 C4412 1.379 . S
C4417 N4415 1.356 . S
N4418 C4410 1.356 . S
N4418 H4424 0.984 . S
N4418 H4425 0.984 . S
N4419 C4412 1.356 . S
N4419 H4422 0.984 . S
N4419 H4423 0.985 . S
H4420 N4415 0.984 . S
H4421 N4415 0.985 . S
H4422 N4419 0.984 . S
H4423 N4419 0.985 . S
H4424 N4418 0.984 . S
H4425 N4418 0.984 . S
H4426 N4414 0.984 . S
H4427 N4414 0.985 . S
C4428 C4429 1.363 . S
C4428 C4434 1.379 . S
C4428 N4436 1.356 . S
C4429 C4428 1.363 . S
C4429 C4435 1.363 . S
C4430 C4431 1.363 . S
C4430 C4435 1.379 . S
C4430 N4437 1.356 . S
C4431 C4430 1.363 . S
C4431 C4434 1.363 . S
N4432 C4434 1.356 . S
N4432 H4444 0.984 . S
N4432 H4445 0.985 . S
N4433 C4435 1.356 . S
N4433 H4438 0.984 . S
N4433 H4439 0.985 . S
C4434 C4428 1.379 . S
C4434 C4431 1.363 . S
C4434 N4432 1.356 . S
C4435 C4429 1.363 . S
C4435 C4430 1.379 . S
C4435 N4433 1.356 . S
N4436 C4428 1.356 . S
N4436 H4442 0.984 . S
N4436 H4443 0.984 . S
N4437 C4430 1.356 . S
N4437 H4440 0.984 . S
N4437 H4441 0.985 . S
H4438 N4433 0.984 . S
H4439 N4433 0.985 . S
H4440 N4437 0.984 . S
H4441 N4437 0.985 . S
H4442 N4436 0.984 . S
H4443 N4436 0.984 . S
H4444 N4432 0.984 . S
H4445 N4432 0.985 . S
C4446 C4447 1.363 . S
C4446 C4452 1.379 . S
C4446 N4454 1.356 . S
C4447 C4446 1.363 . S
C4447 C4453 1.363 . S
C4448 C4449 1.363 . S
C4448 C4453 1.379 . S
C4448 N4455 1.356 . S
C4449 C4448 1.363 . S
C4449 C4452 1.363 . S
N4450 C4452 1.356 . S
N4450 H4462 0.984 . S
N4450 H4463 0.985 . S
N4451 C4453 1.356 . S
N4451 H4456 0.984 . S
N4451 H4457 0.985 . S
C4452 C4446 1.379 . S
C4452 C4449 1.363 . S
C4452 N4450 1.356 . S
C4453 C4447 1.363 . S
C4453 C4448 1.379 . S
C4453 N4451 1.356 . S
N4454 C4446 1.356 . S
N4454 H4460 0.984 . S
N4454 H4461 0.984 . S
N4455 C4448 1.356 . S
N4455 H4458 0.984 . S
N4455 H4459 0.985 . S
H4456 N4451 0.984 . S
H4457 N4451 0.985 . S
H4458 N4455 0.984 . S
H4459 N4455 0.985 . S
H4460 N4454 0.984 . S
H4461 N4454 0.984 . S
H4462 N4450 0.984 . S
H4463 N4450 0.985 . S
C4464 C4465 1.363 . S
C4464 C4470 1.379 . S
C4464 N4472 1.356 . S
C4465 C4464 1.363 . S
C4465 C4471 1.363 . S
C4466 C4467 1.363 . S
C4466 C4471 1.379 . S
C4466 N4473 1.356 . S
C4467 C4466 1.363 . S
C4467 C4470 1.363 . S
N4468 C4470 1.356 . S
N4468 H4480 0.984 . S
N4468 H4481 0.985 . S
N4469 C4471 1.356 . S
N4469 H4474 0.984 . S
N4469 H4475 0.985 . S
C4470 C4464 1.379 . S
C4470 C4467 1.363 . S
C4470 N4468 1.356 . S
C4471 C4465 1.363 . S
C4471 C4466 1.379 . S
C4471 N4469 1.356 . S
N4472 C4464 1.356 . S
N4472 H4478 0.984 . S
N4472 H4479 0.984 . S
N4473 C4466 1.356 . S
N4473 H4476 0.984 . S
N4473 H4477 0.985 . S
H4474 N4469 0.984 . S
H4475 N4469 0.985 . S
H4476 N4473 0.984 . S
H4477 N4473 0.985 . S
H4478 N4472 0.984 . S
H4479 N4472 0.984 . S
H4480 N4468 0.984 . S
H4481 N4468 0.985 . S
C4482 C4483 1.363 . S
C4482 C4488 1.379 . S
C4482 N4490 1.356 . S
C4483 C4482 1.363 . S
C4483 C4489 1.363 . S
C4484 C4485 1.363 . S
C4484 C4489 1.379 . S
C4484 N4491 1.356 . S
C4485 C4484 1.363 . S
C4485 C4488 1.363 . S
N4486 C4488 1.356 . S
N4486 H4498 0.984 . S
N4486 H4499 0.985 . S
N4487 C4489 1.356 . S
N4487 H4492 0.984 . S
N4487 H4493 0.985 . S
C4488 C4482 1.379 . S
C4488 C4485 1.363 . S
C4488 N4486 1.356 . S
C4489 C4483 1.363 . S
C4489 C4484 1.379 . S
C4489 N4487 1.356 . S
N4490 C4482 1.356 . S
N4490 H4496 0.984 . S
N4490 H4497 0.984 . S
N4491 C4484 1.356 . S
N4491 H4494 0.984 . S
N4491 H4495 0.985 . S
H4492 N4487 0.984 . S
H4493 N4487 0.985 . S
H4494 N4491 0.984 . S
H4495 N4491 0.985 . S
H4496 N4490 0.984 . S
H4497 N4490 0.984 . S
H4498 N4486 0.984 . S
H4499 N4486 0.985 . S
C4500 C4501 1.363 . S
C4500 C4506 1.379 . S
C4500 N4508 1.356 . S
C4501 C4500 1.363 . S
C4501 C4507 1.363 . S
C4502 C4503 1.363 . S
C4502 C4507 1.379 . S
C4502 N4509 1.356 . S
C4503 C4502 1.363 . S
C4503 C4506 1.363 . S
N4504 C4506 1.356 . S
N4504 H4516 0.984 . S
N4504 H4517 0.985 . S
N4505 C4507 1.356 . S
N4505 H4510 0.984 . S
N4505 H4511 0.985 . S
C4506 C4500 1.379 . S
C4506 C4503 1.363 . S
C4506 N4504 1.356 . S
C4507 C4501 1.363 . S
C4507 C4502 1.379 . S
C4507 N4505 1.356 . S
N4508 C4500 1.356 . S
N4508 H4514 0.984 . S
N4508 H4515 0.984 . S
N4509 C4502 1.356 . S
N4509 H4512 0.984 . S
N4509 H4513 0.985 . S
H4510 N4505 0.984 . S
H4511 N4505 0.985 . S
H4512 N4509 0.984 . S
H4513 N4509 0.985 . S
H4514 N4508 0.984 . S
H4515 N4508 0.984 . S
H4516 N4504 0.984 . S
H4517 N4504 0.985 . S
C4518 C4519 1.363 . S
C4518 C4524 1.379 . S
C4518 N4526 1.356 . S
C4519 C4518 1.363 . S
C4519 C4525 1.363 . S
C4520 C4521 1.363 . S
C4520 C4525 1.379 . S
C4520 N4527 1.356 . S
C4521 C4520 1.363 . S
C4521 C4524 1.363 . S
N4522 C4524 1.356 . S
N4522 H4534 0.984 . S
N4522 H4535 0.985 . S
N4523 C4525 1.356 . S
N4523 H4528 0.984 . S
N4523 H4529 0.985 . S
C4524 C4518 1.379 . S
C4524 C4521 1.363 . S
C4524 N4522 1.356 . S
C4525 C4519 1.363 . S
C4525 C4520 1.379 . S
C4525 N4523 1.356 . S
N4526 C4518 1.356 . S
N4526 H4532 0.984 . S
N4526 H4533 0.984 . S
N4527 C4520 1.356 . S
N4527 H4530 0.984 . S
N4527 H4531 0.985 . S
H4528 N4523 0.984 . S
H4529 N4523 0.985 . S
H4530 N4527 0.984 . S
H4531 N4527 0.985 . S
H4532 N4526 0.984 . S
H4533 N4526 0.984 . S
H4534 N4522 0.984 . S
H4535 N4522 0.985 . S
C4536 C4537 1.363 . S
C4536 C4542 1.379 . S
C4536 N4544 1.356 . S
C4537 C4536 1.363 . S
C4537 C4543 1.363 . S
C4538 C4539 1.363 . S
C4538 C4543 1.379 . S
C4538 N4545 1.356 . S
C4539 C4538 1.363 . S
C4539 C4542 1.363 . S
N4540 C4542 1.356 . S
N4540 H4552 0.984 . S
N4540 H4553 0.985 . S
N4541 C4543 1.356 . S
N4541 H4546 0.984 . S
N4541 H4547 0.985 . S
C4542 C4536 1.379 . S
C4542 C4539 1.363 . S
C4542 N4540 1.356 . S
C4543 C4537 1.363 . S
C4543 C4538 1.379 . S
C4543 N4541 1.356 . S
N4544 C4536 1.356 . S
N4544 H4550 0.984 . S
N4544 H4551 0.984 . S
N4545 C4538 1.356 . S
N4545 H4548 0.984 . S
N4545 H4549 0.985 . S
H4546 N4541 0.984 . S
H4547 N4541 0.985 . S
H4548 N4545 0.984 . S
H4549 N4545 0.985 . S
H4550 N4544 0.984 . S
H4551 N4544 0.984 . S
H4552 N4540 0.984 . S
H4553 N4540 0.985 . S
C4554 C4555 1.363 . S
C4554 C4560 1.379 . S
C4554 N4562 1.356 . S
C4555 C4554 1.363 . S
C4555 C4561 1.363 . S
C4556 C4557 1.363 . S
C4556 C4561 1.379 . S
C4556 N4563 1.356 1_455 S
C4557 C4556 1.363 . S
C4557 C4560 1.363 . S
N4558 C4560 1.356 . S
N4558 H4570 0.984 . S
N4558 H4571 0.985 . S
N4559 C4561 1.356 . S
N4559 H4564 0.984 . S
N4559 H4565 0.985 1_455 S
C4560 C4554 1.379 . S
C4560 C4557 1.363 . S
C4560 N4558 1.356 . S
C4561 C4555 1.363 . S
C4561 C4556 1.379 . S
C4561 N4559 1.356 . S
N4562 C4554 1.356 . S
N4562 H4568 0.984 . S
N4562 H4569 0.984 . S
N4563 C4556 1.356 1_655 S
N4563 H4566 0.984 . S
N4563 H4567 0.985 . S
H4564 N4559 0.984 . S
H4565 N4559 0.985 1_655 S
H4566 N4563 0.984 . S
H4567 N4563 0.985 . S
H4568 N4562 0.984 . S
H4569 N4562 0.984 . S
H4570 N4558 0.984 . S
H4571 N4558 0.985 . S
C4572 C4573 1.363 . S
C4572 C4578 1.379 . S
C4572 N4580 1.356 . S
C4573 C4572 1.363 . S
C4573 C4579 1.363 . S
C4574 C4575 1.363 . S
C4574 C4579 1.379 . S
C4574 N4581 1.356 . S
C4575 C4574 1.363 . S
C4575 C4578 1.363 . S
N4576 C4578 1.356 . S
N4576 H4588 0.984 . S
N4576 H4589 0.985 . S
N4577 C4579 1.356 . S
N4577 H4582 0.984 . S
N4577 H4583 0.985 . S
C4578 C4572 1.379 . S
C4578 C4575 1.363 . S
C4578 N4576 1.356 . S
C4579 C4573 1.363 . S
C4579 C4574 1.379 . S
C4579 N4577 1.356 . S
N4580 C4572 1.356 . S
N4580 H4586 0.984 . S
N4580 H4587 0.984 . S
N4581 C4574 1.356 . S
N4581 H4584 0.984 . S
N4581 H4585 0.985 . S
H4582 N4577 0.984 . S
H4583 N4577 0.985 . S
H4584 N4581 0.984 . S
H4585 N4581 0.985 . S
H4586 N4580 0.984 . S
H4587 N4580 0.984 . S
H4588 N4576 0.984 . S
H4589 N4576 0.985 . S
C4590 C4591 1.363 . S
C4590 C4596 1.379 . S
C4590 N4598 1.356 . S
C4591 C4590 1.363 . S
C4591 C4597 1.363 1_565 S
C4592 C4593 1.363 1_545 S
C4592 C4597 1.379 . S
C4592 N4599 1.356 . S
C4593 C4592 1.363 1_565 S
C4593 C4596 1.363 . S
N4594 C4596 1.356 . S
N4594 H4606 0.984 . S
N4594 H4607 0.985 . S
N4595 C4597 1.356 . S
N4595 H4600 0.984 . S
N4595 H4601 0.985 . S
C4596 C4590 1.379 . S
C4596 C4593 1.363 . S
C4596 N4594 1.356 . S
C4597 C4591 1.363 1_545 S
C4597 C4592 1.379 . S
C4597 N4595 1.356 . S
N4598 C4590 1.356 . S
N4598 H4604 0.984 . S
N4598 H4605 0.984 . S
N4599 C4592 1.356 . S
N4599 H4602 0.984 . S
N4599 H4603 0.985 . S
H4600 N4595 0.984 . S
H4601 N4595 0.985 . S
H4602 N4599 0.984 . S
H4603 N4599 0.985 . S
H4604 N4598 0.984 . S
H4605 N4598 0.984 . S
H4606 N4594 0.984 . S
H4607 N4594 0.985 . S
C4608 C4609 1.357 1_545 S
C4608 C4614 1.382 . S
C4608 N4616 1.357 . S
C4609 C4608 1.357 1_565 S
C4609 C4615 1.363 . S
C4610 C4611 1.363 . S
C4610 C4615 1.379 . S
C4610 N4617 1.356 . S
C4611 C4610 1.363 . S
C4611 C4614 1.363 1_565 S
N4612 C4614 1.356 . S
N4612 H4624 0.984 . S
N4612 H4625 0.985 . S
N4613 C4615 1.356 . S
N4613 H4618 0.984 . S
N4613 H4619 0.985 . S
C4614 C4608 1.382 . S
C4614 C4611 1.363 1_545 S
C4614 N4612 1.356 . S
C4615 C4609 1.363 . S
C4615 C4610 1.379 . S
C4615 N4613 1.356 . S
N4616 C4608 1.357 . S
N4616 H4622 0.984 . S
N4616 H4623 0.960 1_545 S
N4617 C4610 1.356 . S
N4617 H4620 0.984 . S
N4617 H4621 0.985 . S
H4618 N4613 0.984 . S
H4619 N4613 0.985 . S
H4620 N4617 0.984 . S
H4621 N4617 0.985 . S
H4622 N4616 0.984 . S
H4623 N4616 0.960 1_565 S
H4624 N4612 0.984 . S
H4625 N4612 0.985 . S
C4626 C4627 1.363 . S
C4626 C4632 1.379 . S
C4626 N4634 1.356 . S
C4627 C4626 1.363 . S
C4627 C4633 1.363 . S
C4628 C4629 1.363 . S
C4628 C4633 1.379 . S
C4628 N4635 1.356 1_455 S
C4629 C4628 1.363 . S
C4629 C4632 1.363 . S
N4630 C4632 1.356 . S
N4630 H4642 0.984 . S
N4630 H4643 0.985 . S
N4631 C4633 1.356 . S
N4631 H4636 0.984 . S
N4631 H4637 0.985 . S
C4632 C4626 1.379 . S
C4632 C4629 1.363 . S
C4632 N4630 1.356 . S
C4633 C4627 1.363 . S
C4633 C4628 1.379 . S
C4633 N4631 1.356 . S
N4634 C4626 1.356 . S
N4634 H4640 0.984 . S
N4634 H4641 0.984 . S
N4635 C4628 1.356 1_655 S
N4635 H4638 0.984 . S
N4635 H4639 0.985 . S
H4636 N4631 0.984 . S
H4637 N4631 0.985 . S
H4638 N4635 0.984 . S
H4639 N4635 0.985 . S
H4640 N4634 0.984 . S
H4641 N4634 0.984 . S
H4642 N4630 0.984 . S
H4643 N4630 0.985 . S
C4644 C4645 1.363 . S
C4644 C4650 1.379 . S
C4644 N4652 1.356 . S
C4645 C4644 1.363 . S
C4645 C4651 1.363 . S
C4646 C4647 1.363 . S
C4646 C4651 1.379 . S
C4646 N4653 1.356 . S
C4647 C4646 1.363 . S
C4647 C4650 1.363 . S
N4648 C4650 1.356 . S
N4648 H4660 0.984 . S
N4648 H4661 0.985 . S
N4649 C4651 1.356 . S
N4649 H4654 0.984 . S
N4649 H4655 0.985 . S
C4650 C4644 1.379 . S
C4650 C4647 1.363 . S
C4650 N4648 1.356 . S
C4651 C4645 1.363 . S
C4651 C4646 1.379 . S
C4651 N4649 1.356 . S
N4652 C4644 1.356 . S
N4652 H4658 0.984 . S
N4652 H4659 0.984 . S
N4653 C4646 1.356 . S
N4653 H4656 0.984 . S
N4653 H4657 0.985 . S
H4654 N4649 0.984 . S
H4655 N4649 0.985 . S
H4656 N4653 0.984 . S
H4657 N4653 0.985 . S
H4658 N4652 0.984 . S
H4659 N4652 0.984 . S
H4660 N4648 0.984 . S
H4661 N4648 0.985 . S
C4662 C4663 1.363 . S
C4662 C4668 1.379 . S
C4662 N4670 1.356 . S
C4663 C4662 1.363 . S
C4663 C4669 1.363 . S
C4664 C4665 1.363 . S
C4664 C4669 1.379 . S
C4664 N4671 1.356 . S
C4665 C4664 1.363 . S
C4665 C4668 1.363 . S
N4666 C4668 1.356 . S
N4666 H4678 0.984 . S
N4666 H4679 0.985 . S
N4667 C4669 1.356 . S
N4667 H4672 0.984 . S
N4667 H4673 0.985 . S
C4668 C4662 1.379 . S
C4668 C4665 1.363 . S
C4668 N4666 1.356 . S
C4669 C4663 1.363 . S
C4669 C4664 1.379 . S
C4669 N4667 1.356 . S
N4670 C4662 1.356 . S
N4670 H4676 0.984 . S
N4670 H4677 0.984 . S
N4671 C4664 1.356 . S
N4671 H4674 0.984 . S
N4671 H4675 0.985 . S
H4672 N4667 0.984 . S
H4673 N4667 0.985 . S
H4674 N4671 0.984 . S
H4675 N4671 0.985 . S
H4676 N4670 0.984 . S
H4677 N4670 0.984 . S
H4678 N4666 0.984 . S
H4679 N4666 0.985 . S
C4680 C4681 1.363 . S
C4680 C4686 1.379 . S
C4680 N4688 1.356 . S
C4681 C4680 1.363 . S
C4681 C4687 1.363 . S
C4682 C4683 1.363 . S
C4682 C4687 1.379 . S
C4682 N4689 1.356 . S
C4683 C4682 1.363 . S
C4683 C4686 1.363 . S
N4684 C4686 1.356 . S
N4684 H4696 0.984 . S
N4684 H4697 0.985 . S
N4685 C4687 1.356 . S
N4685 H4690 0.984 . S
N4685 H4691 0.985 . S
C4686 C4680 1.379 . S
C4686 C4683 1.363 . S
C4686 N4684 1.356 . S
C4687 C4681 1.363 . S
C4687 C4682 1.379 . S
C4687 N4685 1.356 . S
N4688 C4680 1.356 . S
N4688 H4694 0.984 . S
N4688 H4695 0.984 . S
N4689 C4682 1.356 . S
N4689 H4692 0.984 . S
N4689 H4693 0.985 . S
H4690 N4685 0.984 . S
H4691 N4685 0.985 . S
H4692 N4689 0.984 . S
H4693 N4689 0.985 . S
H4694 N4688 0.984 . S
H4695 N4688 0.984 . S
H4696 N4684 0.984 . S
H4697 N4684 0.985 . S
C4698 C4699 1.363 . S
C4698 C4704 1.379 . S
C4698 N4706 1.356 . S
C4699 C4698 1.363 . S
C4699 C4705 1.363 . S
C4700 C4701 1.363 . S
C4700 C4705 1.379 . S
C4700 N4707 1.356 . S
C4701 C4700 1.363 . S
C4701 C4704 1.363 . S
N4702 C4704 1.356 . S
N4702 H4714 0.984 . S
N4702 H4715 0.985 . S
N4703 C4705 1.356 . S
N4703 H4708 0.984 . S
N4703 H4709 0.985 . S
C4704 C4698 1.379 . S
C4704 C4701 1.363 . S
C4704 N4702 1.356 . S
C4705 C4699 1.363 . S
C4705 C4700 1.379 . S
C4705 N4703 1.356 . S
N4706 C4698 1.356 . S
N4706 H4712 0.984 . S
N4706 H4713 0.984 . S
N4707 C4700 1.356 . S
N4707 H4710 0.984 . S
N4707 H4711 0.985 . S
H4708 N4703 0.984 . S
H4709 N4703 0.985 . S
H4710 N4707 0.984 . S
H4711 N4707 0.985 . S
H4712 N4706 0.984 . S
H4713 N4706 0.984 . S
H4714 N4702 0.984 . S
H4715 N4702 0.985 . S
C4716 C4717 1.363 . S
C4716 C4722 1.379 . S
C4716 N4724 1.356 . S
C4717 C4716 1.363 . S
C4717 C4723 1.363 1_545 S
C4718 C4719 1.363 1_565 S
C4718 C4723 1.379 . S
C4718 N4725 1.356 . S
C4719 C4718 1.363 1_545 S
C4719 C4722 1.363 . S
N4720 C4722 1.356 . S
N4720 H4732 0.984 . S
N4720 H4733 0.985 . S
N4721 C4723 1.356 . S
N4721 H4726 0.984 . S
N4721 H4727 0.985 . S
C4722 C4716 1.379 . S
C4722 C4719 1.363 . S
C4722 N4720 1.356 . S
C4723 C4717 1.363 1_565 S
C4723 C4718 1.379 . S
C4723 N4721 1.356 . S
N4724 C4716 1.356 . S
N4724 H4730 0.984 . S
N4724 H4731 0.984 . S
N4725 C4718 1.356 . S
N4725 H4728 0.984 . S
N4725 H4729 0.985 . S
H4726 N4721 0.984 . S
H4727 N4721 0.985 . S
H4728 N4725 0.984 . S
H4729 N4725 0.985 . S
H4730 N4724 0.984 . S
H4731 N4724 0.984 . S
H4732 N4720 0.984 . S
H4733 N4720 0.985 . S
C4734 C4735 1.363 . S
C4734 C4740 1.379 . S
C4734 N4742 1.356 . S
C4735 C4734 1.363 . S
C4735 C4741 1.363 1_655 S
C4736 C4737 1.363 1_455 S
C4736 C4741 1.379 . S
C4736 N4743 1.356 . S
C4737 C4736 1.363 1_655 S
C4737 C4740 1.363 . S
N4738 C4740 1.356 . S
N4738 H4750 0.984 . S
N4738 H4751 0.985 . S
N4739 C4741 1.356 . S
N4739 H4744 0.984 . S
N4739 H4745 0.985 . S
C4740 C4734 1.379 . S
C4740 C4737 1.363 . S
C4740 N4738 1.356 . S
C4741 C4735 1.363 1_455 S
C4741 C4736 1.379 . S
C4741 N4739 1.356 . S
N4742 C4734 1.356 . S
N4742 H4748 0.984 . S
N4742 H4749 0.984 . S
N4743 C4736 1.356 . S
N4743 H4746 0.984 . S
N4743 H4747 0.985 . S
H4744 N4739 0.984 . S
H4745 N4739 0.985 . S
H4746 N4743 0.984 . S
H4747 N4743 0.985 . S
H4748 N4742 0.984 . S
H4749 N4742 0.984 . S
H4750 N4738 0.984 . S
H4751 N4738 0.985 . S
C4752 C4753 1.363 . S
C4752 C4758 1.379 . S
C4752 N4760 1.356 . S
C4753 C4752 1.363 . S
C4753 C4759 1.363 . S
C4754 C4755 1.363 . S
C4754 C4759 1.379 . S
C4754 N4761 1.356 . S
C4755 C4754 1.363 . S
C4755 C4758 1.363 . S
N4756 C4758 1.356 . S
N4756 H4768 0.984 . S
N4756 H4769 0.985 . S
N4757 C4759 1.356 . S
N4757 H4762 0.984 . S
N4757 H4763 0.985 . S
C4758 C4752 1.379 . S
C4758 C4755 1.363 . S
C4758 N4756 1.356 . S
C4759 C4753 1.363 . S
C4759 C4754 1.379 . S
C4759 N4757 1.356 . S
N4760 C4752 1.356 . S
N4760 H4766 0.984 . S
N4760 H4767 0.984 . S
N4761 C4754 1.356 . S
N4761 H4764 0.984 . S
N4761 H4765 0.985 . S
H4762 N4757 0.984 . S
H4763 N4757 0.985 . S
H4764 N4761 0.984 . S
H4765 N4761 0.985 . S
H4766 N4760 0.984 . S
H4767 N4760 0.984 . S
H4768 N4756 0.984 . S
H4769 N4756 0.985 . S
C4770 C4771 1.363 . S
C4770 C4776 1.379 . S
C4770 N4778 1.356 . S
C4771 C4770 1.363 . S
C4771 C4777 1.363 . S
C4772 C4773 1.363 . S
C4772 C4777 1.379 . S
C4772 N4779 1.356 . S
C4773 C4772 1.363 . S
C4773 C4776 1.363 . S
N4774 C4776 1.356 . S
N4774 H4786 0.984 . S
N4774 H4787 0.985 . S
N4775 C4777 1.356 . S
N4775 H4780 0.984 . S
N4775 H4781 0.985 . S
C4776 C4770 1.379 . S
C4776 C4773 1.363 . S
C4776 N4774 1.356 . S
C4777 C4771 1.363 . S
C4777 C4772 1.379 . S
C4777 N4775 1.356 . S
N4778 C4770 1.356 . S
N4778 H4784 0.984 . S
N4778 H4785 0.984 . S
N4779 C4772 1.356 . S
N4779 H4782 0.984 . S
N4779 H4783 0.985 . S
H4780 N4775 0.984 . S
H4781 N4775 0.985 . S
H4782 N4779 0.984 . S
H4783 N4779 0.985 . S
H4784 N4778 0.984 . S
H4785 N4778 0.984 . S
H4786 N4774 0.984 . S
H4787 N4774 0.985 . S
C4788 C4789 1.363 . S
C4788 C4794 1.379 . S
C4788 N4796 1.356 . S
C4789 C4788 1.363 . S
C4789 C4795 1.363 . S
C4790 C4791 1.363 . S
C4790 C4795 1.379 . S
C4790 N4797 1.356 . S
C4791 C4790 1.363 . S
C4791 C4794 1.363 . S
N4792 C4794 1.356 . S
N4792 H4804 0.984 . S
N4792 H4805 0.985 . S
N4793 C4795 1.356 . S
N4793 H4798 0.984 . S
N4793 H4799 0.985 . S
C4794 C4788 1.379 . S
C4794 C4791 1.363 . S
C4794 N4792 1.356 . S
C4795 C4789 1.363 . S
C4795 C4790 1.379 . S
C4795 N4793 1.356 . S
N4796 C4788 1.356 . S
N4796 H4802 0.984 . S
N4796 H4803 0.984 . S
N4797 C4790 1.356 . S
N4797 H4800 0.984 . S
N4797 H4801 0.985 . S
H4798 N4793 0.984 . S
H4799 N4793 0.985 . S
H4800 N4797 0.984 . S
H4801 N4797 0.985 . S
H4802 N4796 0.984 . S
H4803 N4796 0.984 . S
H4804 N4792 0.984 . S
H4805 N4792 0.985 . S
C4806 C4807 1.363 . S
C4806 C4812 1.379 . S
C4806 N4814 1.356 . S
C4807 C4806 1.363 . S
C4807 C4813 1.363 . S
C4808 C4809 1.363 . S
C4808 C4813 1.379 . S
C4808 N4815 1.356 . S
C4809 C4808 1.363 . S
C4809 C4812 1.363 . S
N4810 C4812 1.356 . S
N4810 H4822 0.984 . S
N4810 H4823 0.985 . S
N4811 C4813 1.356 . S
N4811 H4816 0.984 . S
N4811 H4817 0.985 . S
C4812 C4806 1.379 . S
C4812 C4809 1.363 . S
C4812 N4810 1.356 . S
C4813 C4807 1.363 . S
C4813 C4808 1.379 . S
C4813 N4811 1.356 . S
N4814 C4806 1.356 . S
N4814 H4820 0.984 . S
N4814 H4821 0.984 . S
N4815 C4808 1.356 . S
N4815 H4818 0.984 . S
N4815 H4819 0.985 . S
H4816 N4811 0.984 . S
H4817 N4811 0.985 . S
H4818 N4815 0.984 . S
H4819 N4815 0.985 . S
H4820 N4814 0.984 . S
H4821 N4814 0.984 . S
H4822 N4810 0.984 . S
H4823 N4810 0.985 . S
C4824 C4825 1.363 . S
C4824 C4830 1.379 . S
C4824 N4832 1.356 . S
C4825 C4824 1.363 . S
C4825 C4831 1.363 . S
C4826 C4827 1.363 . S
C4826 C4831 1.379 . S
C4826 N4833 1.356 . S
C4827 C4826 1.363 . S
C4827 C4830 1.363 . S
N4828 C4830 1.356 . S
N4828 H4840 0.984 . S
N4828 H4841 0.985 . S
N4829 C4831 1.356 . S
N4829 H4834 0.984 . S
N4829 H4835 0.985 . S
C4830 C4824 1.379 . S
C4830 C4827 1.363 . S
C4830 N4828 1.356 . S
C4831 C4825 1.363 . S
C4831 C4826 1.379 . S
C4831 N4829 1.356 . S
N4832 C4824 1.356 . S
N4832 H4838 0.984 . S
N4832 H4839 0.984 . S
N4833 C4826 1.356 . S
N4833 H4836 0.984 . S
N4833 H4837 0.985 . S
H4834 N4829 0.984 . S
H4835 N4829 0.985 . S
H4836 N4833 0.984 . S
H4837 N4833 0.985 . S
H4838 N4832 0.984 . S
H4839 N4832 0.984 . S
H4840 N4828 0.984 . S
H4841 N4828 0.985 . S
C4842 C4843 1.363 . S
C4842 C4848 1.379 . S
C4842 N4850 1.356 . S
C4843 C4842 1.363 . S
C4843 C4849 1.363 . S
C4844 C4845 1.363 . S
C4844 C4849 1.379 . S
C4844 N4851 1.356 . S
C4845 C4844 1.363 . S
C4845 C4848 1.363 . S
N4846 C4848 1.356 . S
N4846 H4858 0.984 . S
N4846 H4859 0.985 . S
N4847 C4849 1.356 . S
N4847 H4852 0.984 . S
N4847 H4853 0.985 . S
C4848 C4842 1.379 . S
C4848 C4845 1.363 . S
C4848 N4846 1.356 . S
C4849 C4843 1.363 . S
C4849 C4844 1.379 . S
C4849 N4847 1.356 . S
N4850 C4842 1.356 . S
N4850 H4856 0.984 . S
N4850 H4857 0.984 . S
N4851 C4844 1.356 . S
N4851 H4854 0.984 . S
N4851 H4855 0.985 . S
H4852 N4847 0.984 . S
H4853 N4847 0.985 . S
H4854 N4851 0.984 . S
H4855 N4851 0.985 . S
H4856 N4850 0.984 . S
H4857 N4850 0.984 . S
H4858 N4846 0.984 . S
H4859 N4846 0.985 . S
C4860 C4861 1.363 . S
C4860 C4866 1.379 . S
C4860 N4868 1.356 . S
C4861 C4860 1.363 . S
C4861 C4867 1.363 . S
C4862 C4863 1.363 . S
C4862 C4867 1.379 . S
C4862 N4869 1.356 . S
C4863 C4862 1.363 . S
C4863 C4866 1.363 . S
N4864 C4866 1.356 . S
N4864 H4876 0.984 . S
N4864 H4877 0.985 . S
N4865 C4867 1.356 . S
N4865 H4870 0.984 . S
N4865 H4871 0.985 . S
C4866 C4860 1.379 . S
C4866 C4863 1.363 . S
C4866 N4864 1.356 . S
C4867 C4861 1.363 . S
C4867 C4862 1.379 . S
C4867 N4865 1.356 . S
N4868 C4860 1.356 . S
N4868 H4874 0.984 . S
N4868 H4875 0.984 . S
N4869 C4862 1.356 . S
N4869 H4872 0.984 . S
N4869 H4873 0.985 . S
H4870 N4865 0.984 . S
H4871 N4865 0.985 . S
H4872 N4869 0.984 . S
H4873 N4869 0.985 . S
H4874 N4868 0.984 . S
H4875 N4868 0.984 . S
H4876 N4864 0.984 . S
H4877 N4864 0.985 . S
C4878 C4879 1.363 . S
C4878 C4884 1.379 . S
C4878 N4886 1.356 . S
C4879 C4878 1.363 . S
C4879 C4885 1.363 1_655 S
C4880 C4881 1.363 1_455 S
C4880 C4885 1.379 . S
C4880 N4887 1.356 . S
C4881 C4880 1.363 1_655 S
C4881 C4884 1.363 . S
N4882 C4884 1.356 . S
N4882 H4894 0.984 . S
N4882 H4895 0.985 . S
N4883 C4885 1.356 . S
N4883 H4888 0.984 . S
N4883 H4889 0.985 . S
C4884 C4878 1.379 . S
C4884 C4881 1.363 . S
C4884 N4882 1.356 . S
C4885 C4879 1.363 1_455 S
C4885 C4880 1.379 . S
C4885 N4883 1.356 . S
N4886 C4878 1.356 . S
N4886 H4892 0.984 . S
N4886 H4893 0.984 . S
N4887 C4880 1.356 . S
N4887 H4890 0.984 . S
N4887 H4891 0.985 . S
H4888 N4883 0.984 . S
H4889 N4883 0.985 . S
H4890 N4887 0.984 . S
H4891 N4887 0.985 . S
H4892 N4886 0.984 . S
H4893 N4886 0.984 . S
H4894 N4882 0.984 . S
H4895 N4882 0.985 . S
C4896 C4897 1.363 . S
C4896 C4902 1.379 . S
C4896 N4904 1.356 . S
C4897 C4896 1.363 . S
C4897 C4903 1.363 . S
C4898 C4899 1.363 . S
C4898 C4903 1.379 . S
C4898 N4905 1.356 . S
C4899 C4898 1.363 . S
C4899 C4902 1.363 . S
N4900 C4902 1.356 . S
N4900 H4912 0.984 . S
N4900 H4913 0.985 . S
N4901 C4903 1.356 . S
N4901 H4906 0.984 . S
N4901 H4907 0.985 . S
C4902 C4896 1.379 . S
C4902 C4899 1.363 . S
C4902 N4900 1.356 . S
C4903 C4897 1.363 . S
C4903 C4898 1.379 . S
C4903 N4901 1.356 . S
N4904 C4896 1.356 . S
N4904 H4910 0.984 . S
N4904 H4911 0.984 . S
N4905 C4898 1.356 . S
N4905 H4908 0.984 . S
N4905 H4909 0.985 . S
H4906 N4901 0.984 . S
H4907 N4901 0.985 . S
H4908 N4905 0.984 . S
H4909 N4905 0.985 . S
H4910 N4904 0.984 . S
H4911 N4904 0.984 . S
H4912 N4900 0.984 . S
H4913 N4900 0.985 . S
C4914 C4915 1.363 . S
C4914 C4920 1.379 . S
C4914 N4922 1.356 . S
C4915 C4914 1.363 . S
C4915 C4921 1.363 . S
C4916 C4917 1.363 . S
C4916 C4921 1.379 . S
C4916 N4923 1.356 . S
C4917 C4916 1.363 . S
C4917 C4920 1.363 . S
N4918 C4920 1.356 1_565 S
N4918 H4930 0.984 . S
N4918 H4931 0.985 . S
N4919 C4921 1.356 . S
N4919 H4924 0.984 . S
N4919 H4925 0.985 . S
C4920 C4914 1.379 . S
C4920 C4917 1.363 . S
C4920 N4918 1.356 1_545 S
C4921 C4915 1.363 . S
C4921 C4916 1.379 . S
C4921 N4919 1.356 . S
N4922 C4914 1.356 . S
N4922 H4928 0.984 . S
N4922 H4929 0.984 . S
N4923 C4916 1.356 . S
N4923 H4926 0.984 . S
N4923 H4927 0.985 . S
H4924 N4919 0.984 . S
H4925 N4919 0.985 . S
H4926 N4923 0.984 . S
H4927 N4923 0.985 . S
H4928 N4922 0.984 . S
H4929 N4922 0.984 . S
H4930 N4918 0.984 . S
H4931 N4918 0.985 . S
C3637 C49 1.505 . S
C3639 C2639 1.351 . S
C3655 C137 1.718 . S
C3657 C2779 1.066 . S
C3675 C2867 1.442 . S
C3673 C205 1.570 . S
C3691 C196 1.587 . S
C3693 C3007 1.357 1_565 S
C3709 C57 1.598 . S
C3711 C3121 1.401 . S
C3727 C145 1.719 . S
C3729 C3209 1.237 . S
C3745 C313 1.589 . S
C3747 C3095 1.171 . S
C3765 C3235 1.323 . S
C3763 C401 1.624 . S
C3783 C2981 1.232 . S
C3781 C489 1.625 . S
C3799 C469 1.663 . S
C3801 C2893 1.100 . S
C3819 C2665 1.082 . S
C3817 C293 1.640 . S
C3835 C381 1.626 . S
C3837 C2753 1.414 . S
C3853 C577 1.796 . S
C3855 C3323 1.271 . S
C3871 C645 1.834 . S
C3873 C3463 1.122 . S
C3891 C3551 1.221 . S
C3889 C733 1.740 . S
C3907 C724 1.751 . S
C3909 C1639 1.115 . S
C3925 C585 1.818 . S
C3927 C1753 1.146 . S
C3943 C636 1.821 . S
C3945 C1841 1.313 . S
C3961 C841 1.542 . S
C3963 C1727 1.358 . S
C3979 C937 1.723 . S
C3981 C1867 1.474 . S
C3999 C1613 1.488 . S
C3997 C1025 1.689 . S
C4017 C3577 1.531 . S
C4015 C988 1.795 . S
C4035 C3349 1.404 . S
C4033 C821 1.656 . S
C4053 C3437 1.564 . S
C4051 C900 1.711 . S
C4069 C1105 1.657 . S
C4071 C1955 1.149 . S
C4087 C1193 1.836 . S
C4089 C2095 1.143 . S
C4105 C1281 1.790 . S
C4107 C2183 1.291 . S
C4123 C1289 1.890 . S
C4125 C2323 1.233 . S
C4143 C2437 1.074 . S
C4141 C1113 1.769 . S
C4161 C2525 1.298 . S
C4159 C1201 1.829 . S
C4179 C2411 1.496 . S
C4177 C1369 1.690 . S
C4197 C2551 1.487 . S
C4195 C1457 1.709 . S
C4213 C1553 1.617 . S
C4215 C2297 1.443 . S
C4233 C2209 1.397 . S
C4231 C1516 1.647 . S
C4249 C1349 1.724 . S
C4251 C1981 1.433 . S
C4269 C2069 1.545 . S
C4267 C1437 1.709 . S
C4287 C1595 1.111 . S
C4285 C29 2.108 . S
C4303 C117 1.842 . S
C4305 C1709 0.974 . S
C4323 C1813 1.412 . S
C4321 C225 2.076 . S
C4341 C1927 1.302 . S
C4339 C233 1.925 . S
C4359 C2051 1.116 . S
C4357 C20 2.080 . S
C4377 C2155 1.291 . S
C4375 C108 1.887 . S
C4393 C321 2.260 . S
C4395 C2165 1.972 . S
C4411 C409 2.013 . S
C4413 C1937 1.808 . S
C4429 C497 2.268 . S
C4431 C2041 2.174 . S
C4447 C460 2.096 . S
C4449 C1699 2.016 . S
C4467 C1823 2.023 . S
C4465 C284 2.264 . S
C4483 C372 2.054 . S
C4485 C1585 1.968 . S
C4503 C2279 0.979 . S
C4501 C557 1.890 . S
C4519 C665 1.886 . S
C4521 C2393 1.018 . S
C4537 C753 1.902 . S
C4539 C2497 1.346 . S
C4557 C2611 0.882 . S
C4555 C761 1.069 . S
C4573 C548 1.795 . S
C4575 C2735 0.923 . S
C4591 C673 1.190 . S
C4593 C2839 0.947 . S
C4609 C849 1.303 . S
C4611 C2849 0.853 1_565 S
C4627 C929 1.193 . S
C4629 C2621 0.839 1_455 S
C4647 C2725 1.869 . S
C4645 C1017 1.969 . S
C4663 C997 1.932 . S
C4665 C2383 1.876 . S
C4681 C812 2.048 . S
C4683 C2507 1.778 . S
C4701 C2269 1.938 . S
C4699 C909 2.078 . S
C4719 C2963 0.750 . S
C4717 C1085 1.272 . S
C4735 C1173 1.142 . S
C4737 C3077 0.759 . S
C4753 C1261 1.798 . S
C4755 C3181 1.224 . S
C4773 C3295 1.219 . S
C4771 C1252 1.754 . S
C4791 C3419 1.048 . S
C4789 C1076 1.901 . S
C4807 C1164 1.917 . S
C4809 C3523 1.338 . S
C4825 C1377 2.062 . S
C4827 C3533 1.796 . S
C4843 C1465 2.043 . S
C4845 C3305 1.754 . S
C4863 C3409 1.952 . S
C4861 C1545 2.063 . S
C4881 C3067 0.952 1_655 S
C4879 C1525 1.094 . S
C4899 C3191 1.712 . S
C4897 C1340 1.960 . S
C4915 C1428 1.229 . S
C4917 C2953 1.019 1_545 S
