# Generated by pormake.
# Topology pyr, (3,6)-cn, num edge types: 1
# Building blocks:
#     Node 0, Type 0, BuildingBlock: KAKCAD_clean_linker_0, # of connection points: 3
#     Node 1, Type 0, BuildingBlock: KAKCAD_clean_linker_0, # of connection points: 3
#     Node 2, Type 0, BuildingBlock: KAKCAD_clean_linker_0, # of connection points: 3
#     Node 3, Type 0, BuildingBlock: KAKCAD_clean_linker_0, # of connection points: 3
#     Node 4, Type 0, BuildingBlock: KAKCAD_clean_linker_0, # of connection points: 3
#     Node 5, Type 0, BuildingBlock: KAKCAD_clean_linker_0, # of connection points: 3
#     Node 6, Type 0, BuildingBlock: KAKCAD_clean_linker_0, # of connection points: 3
#     Node 7, Type 0, BuildingBlock: KAKCAD_clean_linker_0, # of connection points: 3
#     Node 8, Type 1, BuildingBlock: JUFBIX_clean_sbu_0, # of connection points: 6
#     Node 9, Type 1, BuildingBlock: JUFBIX_clean_sbu_0, # of connection points: 6
#     Node 10, Type 1, BuildingBlock: JUFBIX_clean_sbu_0, # of connection points: 6
#     Node 11, Type 1, BuildingBlock: JUFBIX_clean_sbu_0, # of connection points: 6
#     Edge 12, Type (0, 1), None
#     Edge 13, Type (0, 1), None
#     Edge 14, Type (0, 1), None
#     Edge 15, Type (0, 1), None
#     Edge 16, Type (0, 1), None
#     Edge 17, Type (0, 1), None
#     Edge 18, Type (0, 1), None
#     Edge 19, Type (0, 1), None
#     Edge 20, Type (0, 1), None
#     Edge 21, Type (0, 1), None
#     Edge 22, Type (0, 1), None
#     Edge 23, Type (0, 1), None
#     Edge 24, Type (0, 1), None
#     Edge 25, Type (0, 1), None
#     Edge 26, Type (0, 1), None
#     Edge 27, Type (0, 1), None
#     Edge 28, Type (0, 1), None
#     Edge 29, Type (0, 1), None
#     Edge 30, Type (0, 1), None
#     Edge 31, Type (0, 1), None
#     Edge 32, Type (0, 1), None
#     Edge 33, Type (0, 1), None
#     Edge 34, Type (0, 1), None
#     Edge 35, Type (0, 1), None
# Relax obj value: 0.116
# Max RMSD: 0.116
# Mean RMSD: 0.045
data_MOF--net-pry--node1-JUFBIX_clean_sbu_0--node2-KAKCAD_clean_linker_0--edge1-none
_symmetry_space_group_name_H-M    P1
_symmetry_Int_Tables_number       1
_symmetry_cell_setting            triclinic
loop_
_symmetry_equiv_pos_as_xyz
'x, y, z'
_cell_length_a     24.740537
_cell_length_b     23.845388
_cell_length_c     25.149812
_cell_angle_alpha  80.930483
_cell_angle_beta   89.670863
_cell_angle_gamma 91.125093
loop_
_atom_site_label
_atom_site_type_symbol
_atom_site_fract_x
_atom_site_fract_y
_atom_site_fract_z
_atom_type_partial_charge
C0 C 0.08715 0.06032 0.34159 0.0
C1 C 0.11722 0.04898 0.38913 0.0
C2 C 0.11298 0.07841 0.29193 0.0
C3 C 0.16965 0.08599 0.28826 0.0
C4 C 0.20001 0.07206 0.33538 0.0
C5 C 0.17413 0.05381 0.3852 0.0
C6 C 0.19536 0.11561 0.2371 0.0
C7 C 0.17137 0.16503 0.21084 0.0
C8 C 0.19413 0.19704 0.16421 0.0
C9 C 0.24113 0.17702 0.1418 0.0
C10 C 0.26635 0.12698 0.16684 0.0
C11 C 0.24348 0.09718 0.21533 0.0
C12 C 0.31676 0.10654 0.14256 0.0
C13 C 0.32127 0.10619 0.08664 0.0
C14 C 0.36108 0.08756 0.17491 0.0
C15 C 0.40837 0.06918 0.15216 0.0
C16 C 0.41271 0.06828 0.09634 0.0
C17 C 0.16825 0.25164 0.1406 0.0
C18 C 0.14494 0.2864 0.17471 0.0
C19 C 0.16429 0.26854 0.0846 0.0
C20 C 0.137 0.31817 0.06351 0.0
C21 C 0.11247 0.35169 0.09791 0.0
C22 C 0.11697 0.33521 0.15372 0.0
C23 C 0.3683 0.08692 0.06395 0.0
H24 H 1.04346 0.05633 0.34279 0.0
H25 H 0.08831 0.08814 0.25634 0.0
H26 H 0.24356 0.07783 0.33417 0.0
H27 H 0.19875 0.0449 0.4209 0.0
H28 H 0.13461 0.17926 0.22764 0.0
H29 H 0.26218 0.05891 0.23529 0.0
H30 H 0.25923 0.20141 0.1059 0.0
H31 H 0.28796 0.12005 0.06038 0.0
H32 H 0.35954 0.08765 0.21795 0.0
H33 H 0.44146 0.05506 0.17862 0.0
H34 H 0.1484 0.27609 0.21803 0.0
H35 H 0.18131 0.24291 0.05702 0.0
H36 H 0.36988 0.08676 1.02093 0.0
H37 H 0.09974 0.36066 0.18138 0.0
H38 H 0.13467 0.33 1.02021 0.0
C39 C 0.44573 0.96353 0.76427 0.0
C40 C 0.48863 0.96013 0.80061 0.0
C41 C 0.45277 0.94885 0.71355 0.0
C42 C 0.50332 0.93142 0.69694 0.0
C43 C 0.5466 0.92762 0.73303 0.0
C44 C 0.53937 0.94215 0.78456 0.0
C45 C 0.5082 0.91661 0.64205 0.0
C46 C 0.4819 0.95131 0.60042 0.0
C47 C 0.46035 0.92831 0.55694 0.0
C48 C 0.47801 0.87493 0.54821 0.0
C49 C 0.5093 0.84152 0.58693 0.0
C50 C 0.52399 0.8622 0.63431 0.0
C51 C 0.51569 0.78107 0.58289 0.0
C52 C 0.46973 0.74523 0.58494 0.0
C53 C 0.56675 0.75943 0.57494 0.0
C54 C 0.57161 0.70288 0.56745 0.0
C55 C 0.52553 0.66699 0.56876 0.0
C56 C 0.40663 0.94899 0.53696 0.0
C57 C 0.36388 0.90893 0.53731 0.0
C58 C 0.39374 0.00652 0.53549 0.0
C59 C 0.34071 0.02148 0.54521 0.0
C60 C 0.29959 0.97967 0.55329 0.0
C61 C 0.31078 0.92432 0.5452 0.0
C62 C 0.47462 0.6885 0.57838 0.0
H63 H 0.40638 0.97758 0.77497 0.0
H64 H 0.41806 0.9508 0.68726 0.0
H65 H 0.58573 0.91373 0.72138 0.0
H66 H 0.57307 0.93823 0.81203 0.0
H67 H 0.46894 0.99248 0.608 0.0
H68 H 0.5424 0.83405 0.66698 0.0
H69 H 0.46226 0.8566 0.51448 0.0
H70 H 0.42994 0.76139 0.59124 0.0
H71 H 0.60256 0.78656 0.57324 0.0
H72 H 0.61147 0.68732 0.56048 0.0
H73 H 0.37146 0.86424 0.53819 0.0
H74 H 0.42539 0.03888 0.53318 0.0
H75 H 0.43849 0.6619 0.57959 0.0
H76 H 0.27924 0.89174 0.5502 0.0
H77 H 0.33225 0.06501 0.54921 0.0
C78 C 0.90785 0.44166 0.92248 0.0
C79 C 0.91168 0.43983 0.97868 0.0
C80 C 0.85968 0.42579 0.89892 0.0
C81 C 0.81414 0.4068 0.93091 0.0
C82 C 0.81798 0.40484 0.98711 0.0
C83 C 0.86589 0.42152 1.01061 0.0
C84 C 0.76354 0.38681 0.90636 0.0
C85 C 0.74086 0.41781 0.85928 0.0
C86 C 0.69243 0.39874 0.83765 0.0
C87 C 0.66814 0.34761 0.86267 0.0
C88 C 0.69073 0.31509 0.90811 0.0
C89 C 0.73804 0.33544 0.93011 0.0
C90 C 0.66469 0.25958 0.93151 0.0
C91 C 0.64121 0.2242 0.89764 0.0
C92 C 0.66175 0.24199 0.98754 0.0
C93 C 0.63579 0.19063 1.00901 0.0
C94 C 0.61163 0.15598 0.97501 0.0
C95 C 0.66688 0.42945 0.78781 0.0
C96 C 0.69778 0.4486 0.74122 0.0
C97 C 0.61011 0.43321 0.78454 0.0
C98 C 0.5848 0.45202 0.73545 0.0
C99 C 0.61553 0.4683 0.68825 0.0
C100 C 0.67243 0.46786 0.69206 0.0
C101 C 0.6146 0.17338 0.91911 0.0
H102 H 0.94202 0.45588 0.8964 0.0
H103 H 0.85845 0.42734 0.85567 0.0
H104 H 0.78362 0.39077 1.01301 0.0
H105 H 0.86708 0.41989 0.05387 0.0
H106 H 0.76003 0.45724 0.8404 0.0
H107 H 0.7562 0.31029 0.96484 0.0
H108 H 0.63134 0.3325 0.84601 0.0
H109 H 0.64375 0.23544 0.85426 0.0
H110 H 0.67876 0.26828 1.0149 0.0
H111 H 0.63431 0.17827 0.05235 0.0
H112 H 0.74144 0.44602 0.74209 0.0
H113 H 0.58497 0.41977 0.81982 0.0
H114 H 0.59724 0.14719 0.89181 0.0
H115 H 0.69753 0.48052 0.65662 0.0
H116 H 0.54105 0.45253 0.73432 0.0
C117 C 0.94658 0.54193 0.31484 0.0
C118 C 0.9898 0.5411 0.27872 0.0
C119 C 0.95462 0.55896 0.36456 0.0
C120 C 1.00652 0.57422 0.38084 0.0
C121 C 0.05018 0.57349 0.34505 0.0
C122 C 1.04193 0.55698 0.29441 0.0
C123 C 1.01273 0.59177 0.4348 0.0
C124 C 0.98065 0.56344 0.47722 0.0
C125 C 0.96482 0.59144 0.51946 0.0
C126 C 0.99403 0.64027 0.52775 0.0
C127 C 1.03061 0.66706 0.48839 0.0
C128 C 1.03887 0.64334 0.44106 0.0
C129 C 0.04697 0.72654 0.49123 0.0
C130 C 1.02445 0.77042 0.45488 0.0
C131 C 0.07589 0.74013 0.5356 0.0
C132 C 0.08078 0.79667 0.5443 0.0
C133 C 0.05524 0.84005 0.50971 0.0
C134 C 0.90699 0.5845 0.53602 0.0
C135 C 0.88152 0.53043 0.54369 0.0
C136 C 0.87449 0.63281 0.52646 0.0
C137 C 0.81947 0.62728 0.51685 0.0
C138 C 0.79552 0.57345 0.5174 0.0
C139 C 0.82606 0.52496 0.53431 0.0
C140 C 1.02809 0.82653 0.46431 0.0
H141 H 0.90606 0.52966 0.30479 0.0
H142 H 0.9195 0.56075 0.39013 0.0
H143 H 0.09049 0.58551 0.35623 0.0
H144 H 0.07618 0.55776 0.26737 0.0
H145 H 0.95945 0.52464 0.47155 0.0
H146 H 0.06171 0.66719 0.4078 0.0
H147 H 0.98194 0.66231 0.56036 0.0
H148 H 1.00101 0.76087 0.42103 0.0
H149 H 0.09275 0.70676 0.56463 0.0
H150 H 0.10192 0.80599 0.57959 0.0
H151 H 0.90535 0.49242 0.55154 0.0
H152 H 0.89222 0.67525 0.52016 0.0
H153 H 1.00842 0.85923 0.43673 0.0
H154 H 0.80807 0.48295 0.53608 0.0
H155 H 0.79623 0.66531 0.50591 0.0
C156 C 1.01012 0.94388 0.73277 0.0
C157 C 0.98005 0.95485 0.68518 0.0
C158 C 0.9843 0.92631 0.78255 0.0
C159 C 0.92761 0.91888 0.78638 0.0
C160 C 0.89725 0.93238 0.73919 0.0
C161 C 0.92314 0.9501 0.68923 0.0
C162 C 0.9019 0.8898 0.83785 0.0
C163 C 0.92591 0.84056 0.86451 0.0
C164 C 0.90331 0.80905 0.91148 0.0
C165 C 0.85645 0.82942 0.93382 0.0
C166 C 0.8312 0.87931 0.90848 0.0
C167 C 0.85388 0.90858 0.85961 0.0
C168 C 0.78095 0.90004 0.93294 0.0
C169 C 0.77677 0.9006 0.98886 0.0
C170 C 0.73637 0.91877 0.90086 0.0
C171 C 0.68913 0.937 0.92389 0.0
C172 C 0.68508 0.938 0.97974 0.0
C173 C 0.92914 0.75454 0.93552 0.0
C174 C 0.95237 0.71938 0.90176 0.0
C175 C 0.93301 0.73803 0.9916 0.0
C176 C 0.96012 0.68839 1.01307 0.0
C177 C 0.98458 0.65449 0.979 0.0
C178 C 0.98018 0.67059 0.92312 0.0
C179 C 0.72979 0.91971 1.01182 0.0
H180 H 0.05382 0.94781 0.73153 0.0
H181 H 1.009 0.91691 0.81815 0.0
H182 H 0.8537 0.9267 0.74047 0.0
H183 H 0.89849 0.95872 0.65353 0.0
H184 H 0.96258 0.82608 0.84776 0.0
H185 H 0.83514 0.9467 0.83938 0.0
H186 H 0.83847 0.80539 0.96996 0.0
H187 H 0.81027 0.88694 1.01495 0.0
H188 H 0.73763 0.91854 0.85784 0.0
H189 H 0.65583 0.95088 0.89762 0.0
H190 H 0.94896 0.72933 0.85841 0.0
H191 H 0.91604 0.76395 1.01895 0.0
H192 H 0.72848 0.91997 0.05484 0.0
H193 H 0.99736 0.64485 0.89569 0.0
H194 H 0.96237 0.67686 0.05641 0.0
C195 C 0.56238 0.02634 0.30841 0.0
C196 C 0.59351 0.06107 0.269 0.0
C197 C 0.55134 0.04423 0.35764 0.0
C198 C 0.57022 0.09764 0.36738 0.0
C199 C 0.59703 0.13425 0.32596 0.0
C200 C 0.609 0.1159 0.27736 0.0
C201 C 0.57709 0.10846 0.42311 0.0
C202 C 0.61293 0.07344 0.45509 0.0
C203 C 0.6381 0.09148 0.49945 0.0
C204 C 0.62144 0.1421 0.51572 0.0
C205 C 0.5848 0.17733 0.48463 0.0
C206 C 0.56252 0.16033 0.43827 0.0
C207 C 0.57839 0.23607 0.49487 0.0
C208 C 0.5271 0.25735 0.50276 0.0
C209 C 0.62432 0.27151 0.49587 0.0
C210 C 0.61911 0.32747 0.5047 0.0
C211 C 0.5679 0.34867 0.51353 0.0
C212 C 0.69114 0.06695 0.51659 0.0
C213 C 0.701 0.00931 0.51483 0.0
C214 C 0.73546 0.10387 0.52103 0.0
C215 C 0.7881 0.08522 0.51719 0.0
C216 C 0.79734 0.02978 0.50805 0.0
C217 C 0.75374 0.99114 0.50945 0.0
C218 C 0.52191 0.31308 0.51262 0.0
H219 H 0.54962 0.98413 0.30234 0.0
H220 H 0.53148 0.01496 0.38943 0.0
H221 H 0.61292 0.17514 0.33286 0.0
H222 H 0.63193 0.14384 0.24688 0.0
H223 H 0.62757 0.03632 0.44001 0.0
H224 H 0.5378 0.18937 0.41169 0.0
H225 H 0.64069 0.1568 0.54977 0.0
H226 H 0.49124 0.2307 0.5019 0.0
H227 H 0.66429 0.25601 0.4892 0.0
H228 H 0.65517 0.35389 0.50519 0.0
H229 H 0.66781 0.97941 0.51284 0.0
H230 H 0.72994 0.14861 0.52201 0.0
H231 H 0.48185 0.32848 0.51899 0.0
H232 H 0.76041 0.94765 0.50403 0.0
H233 H 0.82139 0.11548 0.51669 0.0
C234 C 0.18817 0.56554 0.15531 0.0
C235 C 0.18502 0.56652 0.09915 0.0
C236 C 0.23602 0.58171 0.17922 0.0
C237 C 0.28198 0.60015 0.14766 0.0
C238 C 0.27886 0.60116 0.09151 0.0
C239 C 0.23124 0.58421 0.06766 0.0
C240 C 0.33221 0.62067 0.17253 0.0
C241 C 0.35411 0.59074 0.22058 0.0
C242 C 0.40225 0.61031 0.24241 0.0
C243 C 0.42697 0.66085 0.21661 0.0
C244 C 0.40507 0.69242 0.1703 0.0
C245 C 0.35811 0.67157 0.1481 0.0
C246 C 0.43147 0.74754 0.14628 0.0
C247 C 0.45453 0.78358 0.17977 0.0
C248 C 0.43526 0.76405 0.09016 0.0
C249 C 0.4617 0.81501 0.06822 0.0
C250 C 0.48552 0.85023 0.1019 0.0
C251 C 0.42717 0.58089 0.29315 0.0
C252 C 0.39589 0.56384 0.33992 0.0
C253 C 0.48388 0.57674 0.29698 0.0
C254 C 0.50879 0.55966 0.34661 0.0
C255 C 0.47773 0.54549 0.39388 0.0
C256 C 0.42086 0.54627 0.38966 0.0
C257 C 0.48167 0.83391 0.15787 0.0
H258 H 0.15365 0.55183 0.18109 0.0
H259 H 0.23665 0.58089 0.2224 0.0
H260 H 0.31355 0.61475 0.06592 0.0
H261 H 0.23061 0.58517 1.02447 0.0
H262 H 0.33463 0.55174 0.24007 0.0
H263 H 0.34051 0.696 0.11266 0.0
H264 H 0.46356 0.67629 0.23338 0.0
H265 H 0.45127 0.77324 0.22317 0.0
H266 H 0.41856 0.73724 0.0631 0.0
H267 H 0.46385 0.82661 1.02484 0.0
H268 H 0.35228 0.56683 0.33861 0.0
H269 H 0.50929 0.58864 0.26162 0.0
H270 H 0.49867 0.86062 0.1849 0.0
H271 H 0.39551 0.53516 0.42514 0.0
H272 H 0.55252 0.55875 0.34804 0.0
C273 C 0.06908 0.17596 0.61102 0.0
C274 C 1.04219 0.16314 0.56519 0.0
C275 C 0.07271 0.23181 0.62122 0.0
C276 C 0.05047 0.27618 0.58524 0.0
C277 C 1.02191 0.26329 0.54035 0.0
C278 C 1.01702 0.20699 0.53087 0.0
C279 C 0.06629 0.33556 0.58929 0.0
C280 C 0.10253 0.3637 0.55026 0.0
C281 C 0.13035 0.41318 0.5591 0.0
C282 C 0.11369 0.44001 0.60181 0.0
C283 C 0.08253 0.41011 0.64412 0.0
C284 C 0.05754 0.35818 0.6372 0.0
C285 C 0.08918 0.42669 0.6984 0.0
C286 C 0.14134 0.44115 0.71456 0.0
C287 C 1.04564 0.42841 0.7341 0.0
C288 C 0.05425 0.44561 0.78442 0.0
C289 C 0.10661 0.46115 0.79984 0.0
C290 C 0.18805 0.42215 0.54259 0.0
C291 C 0.22208 0.37512 0.55284 0.0
C292 C 0.2117 0.4771 0.53504 0.0
C293 C 0.26671 0.48466 0.54539 0.0
C294 C 0.29859 0.43741 0.56316 0.0
C295 C 0.27664 0.38273 0.56347 0.0
C296 C 0.14976 0.45882 0.76393 0.0
H297 H 0.08848 0.14289 0.63841 0.0
H298 H 0.09584 0.24078 0.65547 0.0
H299 H 1.00522 0.29703 0.51161 0.0
H300 H 0.9961 0.19822 0.49526 0.0
H301 H 0.11532 0.34249 0.51732 0.0
H302 H 1.03521 0.33335 0.67028 0.0
H303 H 0.13403 0.47909 0.60809 0.0
H304 H 0.17626 0.43871 0.68887 0.0
H305 H 1.00514 0.417 0.72296 0.0
H306 H 1.02003 0.44587 0.81132 0.0
H307 H 0.20571 0.3321 0.55906 0.0
H308 H 0.18663 0.51415 0.52677 0.0
H309 H 0.19046 0.47073 0.77372 0.0
H310 H 0.30102 0.34565 0.57506 0.0
H311 H 0.2832 0.52729 0.54378 0.0
Co312 Co 1.0091 0.00639 0.51782 0.0
C313 C 0.05394 0.8987 0.5218 0.0
Co314 Co 0.0883 0.99701 0.55632 0.0
C315 C 0.89723 0.02894 0.51479 0.0
C316 C 0.91911 0.98034 0.45351 0.0
N317 N 0.94005 0.00805 0.49172 0.0
N318 N 0.85036 0.01434 0.49345 0.0
C319 C 0.86365 0.984 0.45464 0.0
H320 H 0.90014 0.05199 0.54851 0.0
H321 H 0.94243 0.95696 0.42817 0.0
C322 C 1.04347 0.10469 0.5525 0.0
N323 N 0.15791 0.99525 0.58146 0.0
C324 C 0.19956 0.97444 0.55644 0.0
C325 C 0.18092 0.02565 0.61659 0.0
N326 N 0.24751 0.99206 0.57311 0.0
C327 C 0.23634 0.02392 0.61133 0.0
C328 C 0.08966 0.03268 0.44249 0.0
O329 O 1.00481 0.08414 0.52814 0.0
O330 O 0.08372 0.07395 0.56698 0.0
O331 O 0.11749 0.02098 0.48491 0.0
O332 O 1.03837 0.03006 0.44686 0.0
O333 O 0.09247 0.91933 0.54619 0.0
H334 H 0.15899 0.0505 0.64167 0.0
H335 H 0.19486 0.95042 0.52357 0.0
O336 O 1.01375 0.92942 0.50709 0.0
O337 O 0.97971 0.98238 0.58923 0.0
O338 O 0.05901 0.97349 0.62737 0.0
C339 C 1.00764 0.97083 0.6317 0.0
H340 H 0.8353 0.96574 0.42919 0.0
H341 H 0.26604 0.04531 0.63292 0.0
Co342 Co 0.52833 1.00102 0.99997 0.0
C343 C 0.51178 0.90508 0.0789 0.0
Co344 Co 0.56938 0.0047 0.07657 0.0
C345 C 0.5162 0.98871 0.88842 0.0
C346 C 0.44128 0.97881 0.93232 0.0
N347 N 0.494 0.99235 0.93689 0.0
N348 N 0.47947 0.97272 0.85403 0.0
C349 C 0.43221 0.96688 0.88152 0.0
H350 H 0.55873 0.99601 0.87906 0.0
H351 H 0.41186 0.97472 0.96476 0.0
C352 C 0.58579 0.10076 0.99764 0.0
N353 N 0.60285 0.01356 0.14021 0.0
C354 C 0.57809 0.01641 0.18766 0.0
C355 C 0.65329 0.03451 0.14516 0.0
N356 N 0.61024 0.04061 0.22095 0.0
C357 C 0.65783 0.05155 0.19474 0.0
C358 C 0.63498 0.95932 1.00347 0.0
O359 O 0.55545 0.07413 0.96897 0.0
O360 O 0.5958 0.07822 0.04564 0.0
O361 O 0.63408 0.97138 0.05113 0.0
O362 O 0.59259 0.96788 0.97519 0.0
O363 O 0.54249 0.93153 0.10737 0.0
H364 H 0.68306 0.0419 0.11302 0.0
H365 H 0.5357 0.00629 0.19571 0.0
O366 O 0.50154 0.92766 1.03096 0.0
O367 O 0.46391 0.03486 1.02529 0.0
O368 O 0.50492 0.03763 0.1013 0.0
C369 C 0.46277 0.04667 0.0729 0.0
H370 H 0.39423 0.9521 0.86703 0.0
H371 H 0.69216 0.07357 0.20906 0.0
Co372 Co 0.58655 0.51923 0.5232 0.0
C373 C 0.50424 0.53141 0.44734 0.0
Co374 Co 0.50629 0.49612 0.55936 0.0
C375 C 0.70245 0.53135 0.51878 0.0
C376 C 0.66371 0.58973 0.45801 0.0
N377 N 0.65392 0.54408 0.49609 0.0
N378 N 0.74147 0.56857 0.49782 0.0
C379 C 0.71749 0.60489 0.45902 0.0
H380 H 0.70836 0.49845 0.55299 0.0
H381 H 0.63302 0.61334 0.43414 0.0
C382 C 0.58874 0.48363 0.63509 0.0
N383 N 0.43884 0.47107 0.58646 0.0
C384 C 0.39042 0.48224 0.56291 0.0
C385 C 0.42936 0.42583 0.6251 0.0
N386 N 0.35189 0.44438 0.58384 0.0
C387 C 0.37598 0.40932 0.62353 0.0
C388 C 0.56222 0.40751 0.52368 0.0
O389 O 0.617 0.50108 0.59334 0.0
O390 O 0.53784 0.47794 0.62998 0.0
O391 O 0.51928 0.42157 0.54564 0.0
O392 O 0.59947 0.44461 0.51024 0.0
O393 O 0.47587 0.51443 0.48912 0.0
H394 H 0.46015 0.40316 0.64963 0.0
H395 H 0.38434 0.51427 0.52804 0.0
O396 O 0.55513 0.53711 0.45253 0.0
O397 O 0.57355 0.59372 0.53676 0.0
O398 O 0.49348 0.57091 0.57258 0.0
C399 C 0.53085 0.60791 0.55902 0.0
H400 H 0.73692 0.64144 0.43489 0.0
H401 H 0.35701 0.37257 0.64778 0.0
Co402 Co 0.06914 0.50289 0.9998 0.0
C403 C 0.96244 0.45923 1.00302 0.0
Co404 Co 1.0278 0.50331 0.07755 0.0
C405 C 0.08083 0.49265 0.88725 0.0
C406 C 0.15602 0.4861 0.92922 0.0
N407 N 0.1035 0.49779 0.93511 0.0
N408 N 0.11689 0.47693 0.85213 0.0
C409 C 0.16438 0.47338 0.8785 0.0
H410 H 1.03822 0.49796 0.87916 0.0
H411 H 0.18562 0.48297 0.96097 0.0
C412 C 0.13444 0.547 0.07453 0.0
N413 N 0.99341 0.50817 0.14219 0.0
C414 C 1.01591 0.512 0.19039 0.0
C415 C 0.94091 0.51996 0.14812 0.0
N416 N 0.97974 0.52686 0.22585 0.0
C417 C 0.93238 0.53135 0.19927 0.0
C418 C 0.08528 0.40539 0.076 0.0
O419 O 0.13362 0.53701 1.02622 0.0
O420 O 0.09172 0.53692 0.10292 0.0
O421 O 0.05467 0.43 0.10569 0.0
O422 O 0.09527 0.42937 1.02808 0.0
O423 O 0.96346 0.46909 0.05133 0.0
H424 H 0.91142 0.52382 0.11624 0.0
H425 H 0.05846 0.5062 0.19858 0.0
O426 O 1.00503 0.46942 0.97445 0.0
O427 O 1.04245 0.57619 0.97168 0.0
O428 O 1.00151 0.57688 0.04913 0.0
C429 C 1.01169 0.60082 1.00121 0.0
H430 H 0.20201 0.45903 0.86376 0.0
H431 H 0.89474 0.54537 0.21431 0.0
loop_
_geom_bond_atom_site_label_1
_geom_bond_atom_site_label_2
_geom_bond_distance
_geom_bond_site_symmetry_2
_ccdc_geom_bond_type
C0 C1 1.386 . S
C0 C2 1.397 . S
C0 H24 0.931 1_455 S
C1 C0 1.386 . S
C1 C5 1.397 . S
C2 C0 1.397 . S
C2 C3 1.384 . S
C2 H25 0.930 . S
C3 C2 1.384 . S
C3 C4 1.377 . S
C3 C6 1.481 . S
C4 C3 1.377 . S
C4 C5 1.389 . S
C4 H26 0.929 . S
C5 C1 1.397 . S
C5 C4 1.389 . S
C5 H27 0.931 . S
C6 C3 1.481 . S
C6 C7 1.387 . S
C6 C11 1.390 . S
C7 C6 1.387 . S
C7 C8 1.401 . S
C7 H28 0.930 . S
C8 C7 1.401 . S
C8 C9 1.376 . S
C8 C17 1.511 . S
C9 C8 1.376 . S
C9 C10 1.392 . S
C9 H30 0.931 . S
C10 C9 1.392 . S
C10 C11 1.361 . S
C10 C12 1.500 . S
C11 C6 1.390 . S
C11 C10 1.361 . S
C11 H29 0.931 . S
C12 C10 1.500 . S
C12 C13 1.371 . S
C12 C14 1.365 . S
C13 C12 1.371 . S
C13 C23 1.386 . S
C13 H31 0.931 . S
C14 C12 1.365 . S
C14 C15 1.409 . S
C14 H32 0.929 . S
C15 C14 1.409 . S
C15 C16 1.380 . S
C15 H33 0.930 . S
C16 C15 1.380 . S
C16 C23 1.357 . S
C17 C8 1.511 . S
C17 C18 1.341 . S
C17 C19 1.371 . S
C18 C17 1.341 . S
C18 C22 1.394 . S
C18 H34 0.930 . S
C19 C17 1.371 . S
C19 C20 1.392 . S
C19 H35 0.931 . S
C20 C19 1.392 . S
C20 C21 1.331 . S
C20 H38 0.932 1_554 S
C21 C20 1.331 . S
C21 C22 1.336 . S
C22 C18 1.394 . S
C22 C21 1.336 . S
C22 H37 0.929 1_455 S
C23 C13 1.386 . S
C23 C16 1.357 . S
C23 H36 0.928 1_554 S
H24 C0 0.931 1_655 S
H25 C2 0.930 . S
H26 C4 0.929 . S
H27 C5 0.931 . S
H28 C7 0.930 . S
H29 C11 0.931 . S
H30 C9 0.931 . S
H31 C13 0.931 . S
H32 C14 0.929 . S
H33 C15 0.930 . S
H34 C18 0.930 . S
H35 C19 0.931 . S
H36 C23 0.928 1_556 S
H37 C22 0.929 1_655 S
H38 C20 0.932 1_556 S
C39 C40 1.386 . S
C39 C41 1.397 . S
C39 H63 0.931 . S
C40 C39 1.386 . S
C40 C44 1.397 . S
C41 C39 1.397 . S
C41 C42 1.384 . S
C41 H64 0.930 . S
C42 C41 1.384 . S
C42 C43 1.377 . S
C42 C45 1.481 . S
C43 C42 1.377 . S
C43 C44 1.389 . S
C43 H65 0.929 . S
C44 C40 1.397 . S
C44 C43 1.389 . S
C44 H66 0.931 . S
C45 C42 1.481 . S
C45 C46 1.387 . S
C45 C50 1.390 . S
C46 C45 1.387 . S
C46 C47 1.401 . S
C46 H67 0.930 . S
C47 C46 1.401 . S
C47 C48 1.376 . S
C47 C56 1.511 . S
C48 C47 1.376 . S
C48 C49 1.392 . S
C48 H69 0.931 . S
C49 C48 1.392 . S
C49 C50 1.361 . S
C49 C51 1.500 . S
C50 C45 1.390 . S
C50 C49 1.361 . S
C50 H68 0.931 . S
C51 C49 1.500 . S
C51 C52 1.371 . S
C51 C53 1.365 . S
C52 C51 1.371 . S
C52 C62 1.386 . S
C52 H70 0.931 . S
C53 C51 1.365 . S
C53 C54 1.409 . S
C53 H71 0.929 . S
C54 C53 1.409 . S
C54 C55 1.380 . S
C54 H72 0.930 . S
C55 C54 1.380 . S
C55 C62 1.357 . S
C56 C47 1.511 . S
C56 C57 1.341 . S
C56 C58 1.371 . S
C57 C56 1.341 . S
C57 C61 1.394 . S
C57 H73 0.930 . S
C58 C56 1.371 . S
C58 C59 1.392 . S
C58 H74 0.931 . S
C59 C58 1.392 . S
C59 C60 1.331 . S
C59 H77 0.932 . S
C60 C59 1.331 . S
C60 C61 1.336 . S
C61 C57 1.394 . S
C61 C60 1.336 . S
C61 H76 0.929 . S
C62 C52 1.386 . S
C62 C55 1.357 . S
C62 H75 0.928 . S
H63 C39 0.931 . S
H64 C41 0.930 . S
H65 C43 0.929 . S
H66 C44 0.931 . S
H67 C46 0.930 . S
H68 C50 0.931 . S
H69 C48 0.931 . S
H70 C52 0.931 . S
H71 C53 0.929 . S
H72 C54 0.930 . S
H73 C57 0.930 . S
H74 C58 0.931 . S
H75 C62 0.928 . S
H76 C61 0.929 . S
H77 C59 0.932 . S
C78 C79 1.386 . S
C78 C80 1.397 . S
C78 H102 0.931 . S
C79 C78 1.386 . S
C79 C83 1.397 . S
C80 C78 1.397 . S
C80 C81 1.384 . S
C80 H103 0.930 . S
C81 C80 1.384 . S
C81 C82 1.377 . S
C81 C84 1.481 . S
C82 C81 1.377 . S
C82 C83 1.389 . S
C82 H104 0.929 . S
C83 C79 1.397 . S
C83 C82 1.389 . S
C83 H105 0.931 . S
C84 C81 1.481 . S
C84 C85 1.387 . S
C84 C89 1.390 . S
C85 C84 1.387 . S
C85 C86 1.401 . S
C85 H106 0.930 . S
C86 C85 1.401 . S
C86 C87 1.376 . S
C86 C95 1.511 . S
C87 C86 1.376 . S
C87 C88 1.392 . S
C87 H108 0.931 . S
C88 C87 1.392 . S
C88 C89 1.361 . S
C88 C90 1.500 . S
C89 C84 1.390 . S
C89 C88 1.361 . S
C89 H107 0.931 . S
C90 C88 1.500 . S
C90 C91 1.371 . S
C90 C92 1.365 . S
C91 C90 1.371 . S
C91 C101 1.386 . S
C91 H109 0.931 . S
C92 C90 1.365 . S
C92 C93 1.409 . S
C92 H110 0.929 . S
C93 C92 1.409 . S
C93 C94 1.380 . S
C93 H111 0.930 . S
C94 C93 1.380 . S
C94 C101 1.357 . S
C95 C86 1.511 . S
C95 C96 1.341 . S
C95 C97 1.371 . S
C96 C95 1.341 . S
C96 C100 1.394 . S
C96 H112 0.930 . S
C97 C95 1.371 . S
C97 C98 1.392 . S
C97 H113 0.931 . S
C98 C97 1.392 . S
C98 C99 1.331 . S
C98 H116 0.932 . S
C99 C98 1.331 . S
C99 C100 1.336 . S
C100 C96 1.394 . S
C100 C99 1.336 . S
C100 H115 0.929 . S
C101 C91 1.386 . S
C101 C94 1.357 . S
C101 H114 0.928 . S
H102 C78 0.931 . S
H103 C80 0.930 . S
H104 C82 0.929 . S
H105 C83 0.931 . S
H106 C85 0.930 . S
H107 C89 0.931 . S
H108 C87 0.931 . S
H109 C91 0.931 . S
H110 C92 0.929 . S
H111 C93 0.930 . S
H112 C96 0.930 . S
H113 C97 0.931 . S
H114 C101 0.928 . S
H115 C100 0.929 . S
H116 C98 0.932 . S
C117 C118 1.386 . S
C117 C119 1.397 . S
C117 H141 0.931 . S
C118 C117 1.386 . S
C118 C122 1.397 1_655 S
C119 C117 1.397 . S
C119 C120 1.384 . S
C119 H142 0.930 . S
C120 C119 1.384 . S
C120 C121 1.377 1_655 S
C120 C123 1.481 . S
C121 C120 1.377 1_455 S
C121 C122 1.389 . S
C121 H143 0.929 . S
C122 C118 1.397 1_455 S
C122 C121 1.389 . S
C122 H144 0.931 . S
C123 C120 1.481 . S
C123 C124 1.387 . S
C123 C128 1.390 . S
C124 C123 1.387 . S
C124 C125 1.401 . S
C124 H145 0.930 . S
C125 C124 1.401 . S
C125 C126 1.376 . S
C125 C134 1.511 . S
C126 C125 1.376 . S
C126 C127 1.392 . S
C126 H147 0.931 . S
C127 C126 1.392 . S
C127 C128 1.361 . S
C127 C129 1.500 . S
C128 C123 1.390 . S
C128 C127 1.361 . S
C128 H146 0.931 . S
C129 C127 1.500 . S
C129 C130 1.371 . S
C129 C131 1.365 1_655 S
C130 C129 1.371 . S
C130 C140 1.386 . S
C130 H148 0.931 . S
C131 C129 1.365 1_455 S
C131 C132 1.409 . S
C131 H149 0.929 . S
C132 C131 1.409 . S
C132 C133 1.380 . S
C132 H150 0.930 . S
C133 C132 1.380 . S
C133 C140 1.357 1_455 S
C134 C125 1.511 . S
C134 C135 1.341 . S
C134 C136 1.371 . S
C135 C134 1.341 . S
C135 C139 1.394 . S
C135 H151 0.930 . S
C136 C134 1.371 . S
C136 C137 1.392 . S
C136 H152 0.931 . S
C137 C136 1.392 . S
C137 C138 1.331 . S
C137 H155 0.932 . S
C138 C137 1.331 . S
C138 C139 1.336 . S
C139 C135 1.394 . S
C139 C138 1.336 . S
C139 H154 0.929 . S
C140 C130 1.386 . S
C140 C133 1.357 1_655 S
C140 H153 0.928 . S
H141 C117 0.931 . S
H142 C119 0.930 . S
H143 C121 0.929 . S
H144 C122 0.931 . S
H145 C124 0.930 . S
H146 C128 0.931 . S
H147 C126 0.931 . S
H148 C130 0.931 . S
H149 C131 0.929 . S
H150 C132 0.930 . S
H151 C135 0.930 . S
H152 C136 0.931 . S
H153 C140 0.928 . S
H154 C139 0.929 . S
H155 C137 0.932 . S
C156 C157 1.386 . S
C156 C158 1.397 . S
C156 H180 0.931 . S
C157 C156 1.386 . S
C157 C161 1.397 1_565 S
C158 C156 1.397 . S
C158 C159 1.384 . S
C158 H181 0.930 . S
C159 C158 1.384 . S
C159 C160 1.377 . S
C159 C162 1.481 . S
C160 C159 1.377 . S
C160 C161 1.389 1_565 S
C160 H182 0.929 1_565 S
C161 C157 1.397 1_545 S
C161 C160 1.389 1_545 S
C161 H183 0.931 . S
C162 C159 1.481 . S
C162 C163 1.387 . S
C162 C167 1.390 . S
C163 C162 1.387 . S
C163 C164 1.401 . S
C163 H184 0.930 . S
C164 C163 1.401 . S
C164 C165 1.376 . S
C164 C173 1.511 . S
C165 C164 1.376 . S
C165 C166 1.392 . S
C165 H186 0.931 . S
C166 C165 1.392 . S
C166 C167 1.361 . S
C166 C168 1.500 . S
C167 C162 1.390 . S
C167 C166 1.361 . S
C167 H185 0.931 . S
C168 C166 1.500 . S
C168 C169 1.371 . S
C168 C170 1.365 . S
C169 C168 1.371 . S
C169 C179 1.386 . S
C169 H187 0.931 . S
C170 C168 1.365 . S
C170 C171 1.409 1_565 S
C170 H188 0.929 1_565 S
C171 C170 1.409 1_545 S
C171 C172 1.380 1_545 S
C171 H189 0.930 . S
C172 C171 1.380 1_565 S
C172 C179 1.357 . S
C173 C164 1.511 . S
C173 C174 1.341 . S
C173 C175 1.371 . S
C174 C173 1.341 . S
C174 C178 1.394 . S
C174 H190 0.930 . S
C175 C173 1.371 . S
C175 C176 1.392 1_556 S
C175 H191 0.931 . S
C176 C175 1.392 1_554 S
C176 C177 1.331 1_554 S
C176 H194 0.932 . S
C177 C176 1.331 1_556 S
C177 C178 1.336 . S
C178 C174 1.394 . S
C178 C177 1.336 . S
C178 H193 0.929 . S
C179 C169 1.386 . S
C179 C172 1.357 . S
C179 H192 0.928 . S
H180 C156 0.931 . S
H181 C158 0.930 . S
H182 C160 0.929 1_545 S
H183 C161 0.931 . S
H184 C163 0.930 . S
H185 C167 0.931 . S
H186 C165 0.931 . S
H187 C169 0.931 . S
H188 C170 0.929 1_545 S
H189 C171 0.930 . S
H190 C174 0.930 . S
H191 C175 0.931 . S
H192 C179 0.928 . S
H193 C178 0.929 . S
H194 C176 0.932 . S
C195 C196 1.386 . S
C195 C197 1.397 . S
C195 H219 0.919 1_545 S
C196 C195 1.386 . S
C196 C200 1.397 . S
C197 C195 1.397 . S
C197 C198 1.384 . S
C197 H220 0.930 . S
C198 C197 1.384 . S
C198 C199 1.377 . S
C198 C201 1.481 . S
C199 C198 1.377 . S
C199 C200 1.389 . S
C199 H221 0.929 . S
C200 C196 1.397 . S
C200 C199 1.389 . S
C200 H222 0.931 . S
C201 C198 1.481 . S
C201 C202 1.387 . S
C201 C206 1.390 . S
C202 C201 1.387 . S
C202 C203 1.401 . S
C202 H223 0.930 . S
C203 C202 1.401 . S
C203 C204 1.376 . S
C203 C212 1.511 . S
C204 C203 1.376 . S
C204 C205 1.392 . S
C204 H225 0.931 . S
C205 C204 1.392 . S
C205 C206 1.361 . S
C205 C207 1.500 . S
C206 C201 1.390 . S
C206 C205 1.361 . S
C206 H224 0.931 . S
C207 C205 1.500 . S
C207 C208 1.371 . S
C207 C209 1.365 . S
C208 C207 1.371 . S
C208 C218 1.386 . S
C208 H226 0.931 . S
C209 C207 1.365 . S
C209 C210 1.409 . S
C209 H227 0.929 . S
C210 C209 1.409 . S
C210 C211 1.380 . S
C210 H228 0.930 . S
C211 C210 1.380 . S
C211 C218 1.357 . S
C212 C203 1.511 . S
C212 C213 1.341 . S
C212 C214 1.371 . S
C213 C212 1.341 . S
C213 C217 1.394 . S
C213 H229 0.930 . S
C214 C212 1.371 . S
C214 C215 1.392 . S
C214 H230 0.931 . S
C215 C214 1.392 . S
C215 C216 1.331 . S
C215 H233 0.932 . S
C216 C215 1.331 . S
C216 C217 1.336 . S
C217 C213 1.394 . S
C217 C216 1.336 . S
C217 H232 0.929 . S
C218 C208 1.386 . S
C218 C211 1.357 . S
C218 H231 0.928 . S
H219 C195 0.919 1_565 S
H220 C197 0.930 . S
H221 C199 0.929 . S
H222 C200 0.931 . S
H223 C202 0.930 . S
H224 C206 0.931 . S
H225 C204 0.931 . S
H226 C208 0.931 . S
H227 C209 0.929 . S
H228 C210 0.930 . S
H229 C213 0.930 . S
H230 C214 0.931 . S
H231 C218 0.928 . S
H232 C217 0.929 . S
H233 C215 0.932 . S
C234 C235 1.386 . S
C234 C236 1.397 . S
C234 H258 0.931 . S
C235 C234 1.386 . S
C235 C239 1.397 . S
C236 C234 1.397 . S
C236 C237 1.384 . S
C236 H259 0.930 . S
C237 C236 1.384 . S
C237 C238 1.377 . S
C237 C240 1.481 . S
C238 C237 1.377 . S
C238 C239 1.389 . S
C238 H260 0.929 . S
C239 C235 1.397 . S
C239 C238 1.389 . S
C239 H261 0.931 1_554 S
C240 C237 1.481 . S
C240 C241 1.387 . S
C240 C245 1.390 . S
C241 C240 1.387 . S
C241 C242 1.401 . S
C241 H262 0.930 . S
C242 C241 1.401 . S
C242 C243 1.376 . S
C242 C251 1.511 . S
C243 C242 1.376 . S
C243 C244 1.392 . S
C243 H264 0.931 . S
C244 C243 1.392 . S
C244 C245 1.361 . S
C244 C246 1.500 . S
C245 C240 1.390 . S
C245 C244 1.361 . S
C245 H263 0.931 . S
C246 C244 1.500 . S
C246 C247 1.371 . S
C246 C248 1.365 . S
C247 C246 1.371 . S
C247 C257 1.386 . S
C247 H265 0.931 . S
C248 C246 1.365 . S
C248 C249 1.409 . S
C248 H266 0.929 . S
C249 C248 1.409 . S
C249 C250 1.380 . S
C249 H267 0.930 1_554 S
C250 C249 1.380 . S
C250 C257 1.357 . S
C251 C242 1.511 . S
C251 C252 1.341 . S
C251 C253 1.371 . S
C252 C251 1.341 . S
C252 C256 1.394 . S
C252 H268 0.930 . S
C253 C251 1.371 . S
C253 C254 1.392 . S
C253 H269 0.931 . S
C254 C253 1.392 . S
C254 C255 1.331 . S
C254 H272 0.932 . S
C255 C254 1.331 . S
C255 C256 1.336 . S
C256 C252 1.394 . S
C256 C255 1.336 . S
C256 H271 0.929 . S
C257 C247 1.386 . S
C257 C250 1.357 . S
C257 H270 0.928 . S
H258 C234 0.931 . S
H259 C236 0.930 . S
H260 C238 0.929 . S
H261 C239 0.931 1_556 S
H262 C241 0.930 . S
H263 C245 0.931 . S
H264 C243 0.931 . S
H265 C247 0.931 . S
H266 C248 0.929 . S
H267 C249 0.930 1_556 S
H268 C252 0.930 . S
H269 C253 0.931 . S
H270 C257 0.928 . S
H271 C256 0.929 . S
H272 C254 0.932 . S
C273 C274 1.386 1_455 S
C273 C275 1.397 . S
C273 H297 0.931 . S
C274 C273 1.386 1_655 S
C274 C278 1.397 . S
C275 C273 1.397 . S
C275 C276 1.384 . S
C275 H298 0.930 . S
C276 C275 1.384 . S
C276 C277 1.377 1_455 S
C276 C279 1.481 . S
C277 C276 1.377 1_655 S
C277 C278 1.389 . S
C277 H299 0.929 . S
C278 C274 1.397 . S
C278 C277 1.389 . S
C278 H300 0.931 . S
C279 C276 1.481 . S
C279 C280 1.387 . S
C279 C284 1.390 . S
C280 C279 1.387 . S
C280 C281 1.401 . S
C280 H301 0.930 . S
C281 C280 1.401 . S
C281 C282 1.376 . S
C281 C290 1.511 . S
C282 C281 1.376 . S
C282 C283 1.392 . S
C282 H303 0.931 . S
C283 C282 1.392 . S
C283 C284 1.361 . S
C283 C285 1.500 . S
C284 C279 1.390 . S
C284 C283 1.361 . S
C284 H302 0.931 . S
C285 C283 1.500 . S
C285 C286 1.371 . S
C285 C287 1.365 1_455 S
C286 C285 1.371 . S
C286 C296 1.386 . S
C286 H304 0.931 . S
C287 C285 1.365 1_655 S
C287 C288 1.409 . S
C287 H305 0.929 . S
C288 C287 1.409 . S
C288 C289 1.380 1_655 S
C288 H306 0.930 . S
C289 C288 1.380 1_455 S
C289 C296 1.357 . S
C290 C281 1.511 . S
C290 C291 1.341 . S
C290 C292 1.371 . S
C291 C290 1.341 . S
C291 C295 1.394 . S
C291 H307 0.930 . S
C292 C290 1.371 . S
C292 C293 1.392 . S
C292 H308 0.931 . S
C293 C292 1.392 . S
C293 C294 1.331 . S
C293 H311 0.932 . S
C294 C293 1.331 . S
C294 C295 1.336 . S
C295 C291 1.394 . S
C295 C294 1.336 . S
C295 H310 0.929 . S
C296 C286 1.386 . S
C296 C289 1.357 . S
C296 H309 0.928 . S
H297 C273 0.931 . S
H298 C275 0.930 . S
H299 C277 0.929 . S
H300 C278 0.931 . S
H301 C280 0.930 . S
H302 C284 0.931 . S
H303 C282 0.931 . S
H304 C286 0.931 . S
H305 C287 0.929 . S
H306 C288 0.930 . S
H307 C291 0.930 . S
H308 C292 0.931 . S
H309 C296 0.928 . S
H310 C295 0.929 . S
H311 C293 0.932 . S
Co312 N317 2.057 . S
Co312 O329 2.021 . S
Co312 O332 2.062 . S
Co312 O336 2.117 1_545 S
Co312 O337 2.020 1_545 S
C313 O333 1.259 1_655 S
C313 O336 1.258 . S
Co314 N323 2.057 . S
Co314 O330 2.117 1_565 S
Co314 O331 2.020 1_565 S
Co314 O333 2.021 . S
Co314 O338 2.062 . S
C315 N317 1.316 . S
C315 N318 1.347 . S
C315 H320 0.931 . S
C316 N317 1.375 1_565 S
C316 C319 1.350 1_565 S
C316 H321 0.930 . S
N317 Co312 2.057 . S
N317 C315 1.316 . S
N317 C316 1.375 1_545 S
N318 C315 1.347 . S
N318 C319 1.373 . S
C319 C316 1.350 1_545 S
C319 N318 1.373 . S
C319 H340 0.931 1_545 S
H320 C315 0.931 . S
H321 C316 0.930 . S
C322 O329 1.259 1_455 S
C322 O330 1.258 . S
N323 Co314 2.057 . S
N323 C324 1.316 . S
N323 C325 1.375 1_565 S
C324 N323 1.316 . S
C324 N326 1.347 . S
C324 H335 0.931 . S
C325 N323 1.375 1_545 S
C325 C327 1.350 1_545 S
C325 H334 0.930 . S
N326 C324 1.347 . S
N326 C327 1.373 . S
C327 C325 1.350 1_565 S
C327 N326 1.373 . S
C327 H341 0.931 1_565 S
C328 O331 1.256 . S
C328 O332 1.255 1_455 S
O329 Co312 2.021 . S
O329 C322 1.259 1_655 S
O330 Co314 2.117 1_545 S
O330 C322 1.258 . S
O331 Co314 2.020 1_545 S
O331 C328 1.256 . S
O332 Co312 2.062 . S
O332 C328 1.255 1_655 S
O333 C313 1.259 1_455 S
O333 Co314 2.021 . S
H334 C325 0.930 . S
H335 C324 0.931 . S
O336 Co312 2.117 1_565 S
O336 C313 1.258 . S
O337 Co312 2.020 1_565 S
O337 C339 1.256 . S
O338 Co314 2.062 . S
O338 C339 1.255 1_455 S
C339 O337 1.256 . S
C339 O338 1.255 1_655 S
H340 C319 0.931 1_565 S
H341 C327 0.931 1_545 S
Co342 N347 2.057 . S
Co342 O359 2.021 1_565 S
Co342 O362 2.062 . S
Co342 O366 2.117 . S
Co342 O367 2.020 1_565 S
C343 O363 1.259 . S
C343 O366 1.258 1_554 S
Co344 N353 2.057 . S
Co344 O360 2.117 . S
Co344 O361 2.020 1_545 S
Co344 O363 2.021 1_545 S
Co344 O368 2.062 . S
C345 N347 1.316 . S
C345 N348 1.347 . S
C345 H350 0.931 1_565 S
C346 N347 1.375 . S
C346 C349 1.350 . S
C346 H351 0.930 . S
N347 Co342 2.057 . S
N347 C345 1.316 . S
N347 C346 1.375 . S
N348 C345 1.347 . S
N348 C349 1.373 . S
C349 C346 1.350 . S
C349 N348 1.373 . S
C349 H370 0.931 . S
H350 C345 0.931 1_545 S
H351 C346 0.930 . S
C352 O359 1.259 . S
C352 O360 1.258 1_556 S
N353 Co344 2.057 . S
N353 C354 1.316 . S
N353 C355 1.375 . S
C354 N353 1.316 . S
C354 N356 1.347 . S
C354 H365 0.931 1_545 S
C355 N353 1.375 . S
C355 C357 1.350 . S
C355 H364 0.930 . S
N356 C354 1.347 . S
N356 C357 1.373 . S
C357 C355 1.350 . S
C357 N356 1.373 . S
C357 H371 0.931 . S
C358 O361 1.256 1_556 S
C358 O362 1.255 . S
O359 Co342 2.021 1_545 S
O359 C352 1.259 . S
O360 Co344 2.117 . S
O360 C352 1.258 1_554 S
O361 Co344 2.020 1_565 S
O361 C358 1.256 1_554 S
O362 Co342 2.062 . S
O362 C358 1.255 . S
O363 C343 1.259 . S
O363 Co344 2.021 1_565 S
H364 C355 0.930 . S
H365 C354 0.931 1_565 S
O366 Co342 2.117 . S
O366 C343 1.258 1_556 S
O367 Co342 2.020 1_545 S
O367 C369 1.256 1_556 S
O368 Co344 2.062 . S
O368 C369 1.255 . S
C369 O367 1.256 1_554 S
C369 O368 1.255 . S
H370 C349 0.931 . S
H371 C357 0.931 . S
Co372 N377 2.057 . S
Co372 O389 2.021 . S
Co372 O392 2.062 . S
Co372 O396 2.117 . S
Co372 O397 2.020 . S
C373 O393 1.259 . S
C373 O396 1.258 . S
Co374 N383 2.057 . S
Co374 O390 2.117 . S
Co374 O391 2.020 . S
Co374 O393 2.021 . S
Co374 O398 2.062 . S
C375 N377 1.316 . S
C375 N378 1.347 . S
C375 H380 0.931 . S
C376 N377 1.375 . S
C376 C379 1.350 . S
C376 H381 0.930 . S
N377 Co372 2.057 . S
N377 C375 1.316 . S
N377 C376 1.375 . S
N378 C375 1.347 . S
N378 C379 1.373 . S
C379 C376 1.350 . S
C379 N378 1.373 . S
C379 H400 0.931 . S
H380 C375 0.931 . S
H381 C376 0.930 . S
C382 O389 1.259 . S
C382 O390 1.258 . S
N383 Co374 2.057 . S
N383 C384 1.316 . S
N383 C385 1.375 . S
C384 N383 1.316 . S
C384 N386 1.347 . S
C384 H395 0.931 . S
C385 N383 1.375 . S
C385 C387 1.350 . S
C385 H394 0.930 . S
N386 C384 1.347 . S
N386 C387 1.373 . S
C387 C385 1.350 . S
C387 N386 1.373 . S
C387 H401 0.931 . S
C388 O391 1.256 . S
C388 O392 1.255 . S
O389 Co372 2.021 . S
O389 C382 1.259 . S
O390 Co374 2.117 . S
O390 C382 1.258 . S
O391 Co374 2.020 . S
O391 C388 1.256 . S
O392 Co372 2.062 . S
O392 C388 1.255 . S
O393 C373 1.259 . S
O393 Co374 2.021 . S
H394 C385 0.930 . S
H395 C384 0.931 . S
O396 Co372 2.117 . S
O396 C373 1.258 . S
O397 Co372 2.020 . S
O397 C399 1.256 . S
O398 Co374 2.062 . S
O398 C399 1.255 . S
C399 O397 1.256 . S
C399 O398 1.255 . S
H400 C379 0.931 . S
H401 C387 0.931 . S
Co402 N407 2.057 . S
Co402 O419 2.021 . S
Co402 O422 2.062 . S
Co402 O426 2.117 1_455 S
Co402 O427 2.020 1_455 S
C403 O423 1.259 1_556 S
C403 O426 1.258 . S
Co404 N413 2.057 . S
Co404 O420 2.117 1_655 S
Co404 O421 2.020 1_655 S
Co404 O423 2.021 . S
Co404 O428 2.062 . S
C405 N407 1.316 . S
C405 N408 1.347 . S
C405 H410 0.931 . S
C406 N407 1.375 1_655 S
C406 C409 1.350 1_655 S
C406 H411 0.930 . S
N407 Co402 2.057 . S
N407 C405 1.316 . S
N407 C406 1.375 1_455 S
N408 C405 1.347 . S
N408 C409 1.373 . S
C409 C406 1.350 1_455 S
C409 N408 1.373 . S
C409 H430 0.931 1_455 S
H410 C405 0.931 . S
H411 C406 0.930 . S
C412 O419 1.259 1_554 S
C412 O420 1.258 . S
N413 Co404 2.057 . S
N413 C414 1.316 . S
N413 C415 1.375 1_655 S
C414 N413 1.316 . S
C414 N416 1.347 . S
C414 H425 0.931 . S
C415 N413 1.375 1_455 S
C415 C417 1.350 1_455 S
C415 H424 0.930 . S
N416 C414 1.347 . S
N416 C417 1.373 . S
C417 C415 1.350 1_655 S
C417 N416 1.373 . S
C417 H431 0.931 1_655 S
C418 O421 1.256 . S
C418 O422 1.255 1_554 S
O419 Co402 2.021 . S
O419 C412 1.259 1_556 S
O420 Co404 2.117 1_455 S
O420 C412 1.258 . S
O421 Co404 2.020 1_455 S
O421 C418 1.256 . S
O422 Co402 2.062 . S
O422 C418 1.255 1_556 S
O423 C403 1.259 1_554 S
O423 Co404 2.021 . S
H424 C415 0.930 . S
H425 C414 0.931 . S
O426 Co402 2.117 1_655 S
O426 C403 1.258 . S
O427 Co402 2.020 1_655 S
O427 C429 1.256 . S
O428 Co404 2.062 . S
O428 C429 1.255 1_554 S
C429 O427 1.256 . S
C429 O428 1.255 1_556 S
H430 C409 0.931 1_655 S
H431 C417 0.931 1_455 S
C1 C328 2.969 . S
C40 N348 1.571 . S
C382 C99 2.713 . S
C118 N416 1.895 . S
C369 C16 3.170 . S
N326 C60 1.671 . S
C403 C79 2.789 . S
N378 C138 1.695 . S
C21 C418 2.326 . S
C352 C94 2.260 . S
C133 C313 2.015 1_455 S
C55 C399 1.840 . S
C339 C157 2.959 . S
C196 N356 1.583 . S
C255 C373 2.677 . S
C289 N408 1.918 . S
C172 C358 3.178 . S
N318 C216 1.712 . S
C412 C235 2.779 . S
N386 C294 1.687 . S
C177 C429 2.291 . S
C343 C250 2.272 . S
C322 C274 1.992 1_455 S
C211 C388 1.820 . S
