# Generated by pormake.
# Topology apo, (3,6)-cn, num edge types: 1
# Building blocks:
#     Node 0, Type 0, BuildingBlock: MIDCAF_clean_linker_0, # of connection points: 3
#     Node 1, Type 0, BuildingBlock: MIDCAF_clean_linker_0, # of connection points: 3
#     Node 2, Type 0, BuildingBlock: MIDCAF_clean_linker_0, # of connection points: 3
#     Node 3, Type 0, BuildingBlock: MIDCAF_clean_linker_0, # of connection points: 3
#     Node 4, Type 0, BuildingBlock: MIDCAF_clean_linker_0, # of connection points: 3
#     Node 5, Type 0, BuildingBlock: MIDCAF_clean_linker_0, # of connection points: 3
#     Node 6, Type 0, BuildingBlock: MIDCAF_clean_linker_0, # of connection points: 3
#     Node 7, Type 0, BuildingBlock: MIDCAF_clean_linker_0, # of connection points: 3
#     Node 8, Type 1, BuildingBlock: KUMBOL_clean_sbu_1, # of connection points: 6
#     Node 9, Type 1, BuildingBlock: KUMBOL_clean_sbu_1, # of connection points: 6
#     Node 10, Type 1, BuildingBlock: KUMBOL_clean_sbu_1, # of connection points: 6
#     Node 11, Type 1, BuildingBlock: KUMBOL_clean_sbu_1, # of connection points: 6
#     Edge 12, Type (0, 1), BuildingBlock: EZIPEK_clean_linker_0, # of connection points: 2
#     Edge 13, Type (0, 1), BuildingBlock: EZIPEK_clean_linker_0, # of connection points: 2
#     Edge 14, Type (0, 1), BuildingBlock: EZIPEK_clean_linker_0, # of connection points: 2
#     Edge 15, Type (0, 1), BuildingBlock: EZIPEK_clean_linker_0, # of connection points: 2
#     Edge 16, Type (0, 1), BuildingBlock: EZIPEK_clean_linker_0, # of connection points: 2
#     Edge 17, Type (0, 1), BuildingBlock: EZIPEK_clean_linker_0, # of connection points: 2
#     Edge 18, Type (0, 1), BuildingBlock: EZIPEK_clean_linker_0, # of connection points: 2
#     Edge 19, Type (0, 1), BuildingBlock: EZIPEK_clean_linker_0, # of connection points: 2
#     Edge 20, Type (0, 1), BuildingBlock: EZIPEK_clean_linker_0, # of connection points: 2
#     Edge 21, Type (0, 1), BuildingBlock: EZIPEK_clean_linker_0, # of connection points: 2
#     Edge 22, Type (0, 1), BuildingBlock: EZIPEK_clean_linker_0, # of connection points: 2
#     Edge 23, Type (0, 1), BuildingBlock: EZIPEK_clean_linker_0, # of connection points: 2
#     Edge 24, Type (0, 1), BuildingBlock: EZIPEK_clean_linker_0, # of connection points: 2
#     Edge 25, Type (0, 1), BuildingBlock: EZIPEK_clean_linker_0, # of connection points: 2
#     Edge 26, Type (0, 1), BuildingBlock: EZIPEK_clean_linker_0, # of connection points: 2
#     Edge 27, Type (0, 1), BuildingBlock: EZIPEK_clean_linker_0, # of connection points: 2
#     Edge 28, Type (0, 1), BuildingBlock: EZIPEK_clean_linker_0, # of connection points: 2
#     Edge 29, Type (0, 1), BuildingBlock: EZIPEK_clean_linker_0, # of connection points: 2
#     Edge 30, Type (0, 1), BuildingBlock: EZIPEK_clean_linker_0, # of connection points: 2
#     Edge 31, Type (0, 1), BuildingBlock: EZIPEK_clean_linker_0, # of connection points: 2
#     Edge 32, Type (0, 1), BuildingBlock: EZIPEK_clean_linker_0, # of connection points: 2
#     Edge 33, Type (0, 1), BuildingBlock: EZIPEK_clean_linker_0, # of connection points: 2
#     Edge 34, Type (0, 1), BuildingBlock: EZIPEK_clean_linker_0, # of connection points: 2
#     Edge 35, Type (0, 1), BuildingBlock: EZIPEK_clean_linker_0, # of connection points: 2
# Relax obj value: 0.008
# Max RMSD: 0.110
# Mean RMSD: 0.085
data_MOF--net-apo--node1-KUMBOL_clean_sbu_1--node2-MIDCAF_clean_linker_0--edge1-EZIPEK_clean_linker_0
_symmetry_space_group_name_H-M    P1
_symmetry_Int_Tables_number       1
_symmetry_cell_setting            triclinic
loop_
_symmetry_equiv_pos_as_xyz
'x, y, z'
_cell_length_a     22.966293
_cell_length_b     40.282731
_cell_length_c     51.37401
_cell_angle_alpha  90.04685
_cell_angle_beta   89.982285
_cell_angle_gamma 90.316345
loop_
_atom_site_label
_atom_site_type_symbol
_atom_site_fract_x
_atom_site_fract_y
_atom_site_fract_z
_atom_type_partial_charge
C0 C 0.28885 0.41501 0.50864 0.0
C1 C 0.25875 0.39042 0.52261 0.0
C2 C 0.22355 0.36766 0.50907 0.0
C3 C 0.2183 0.36954 0.48195 0.0
H4 H 0.17361 0.31273 0.41509 0.0
H5 H 0.12999 0.2685 0.38849 0.0
H6 H 0.12551 0.33419 0.32241 0.0
H7 H 0.1693 0.37844 0.34855 0.0
H8 H 0.25286 0.43852 0.34738 0.0
H9 H 0.30284 0.48207 0.3229 0.0
H10 H 0.38049 0.51891 0.39364 0.0
H11 H 0.33068 0.47534 0.41859 0.0
H12 H 0.3071 0.43643 0.47142 0.0
H13 H 0.3163 0.43276 0.51876 0.0
H14 H 0.19998 0.3485 0.51953 0.0
H15 H 0.1906 0.35165 0.47213 0.0
N16 N 0.21198 0.37305 0.42544 0.0
N17 N 0.23016 0.4016 0.38652 0.0
N18 N 0.26584 0.42283 0.42588 0.0
C19 C 0.20597 0.37536 0.39915 0.0
C20 C 0.26017 0.42542 0.39961 0.0
C21 C 0.24169 0.39681 0.439 0.0
C22 C 0.17536 0.34914 0.38396 0.0
C23 C 0.1628 0.31793 0.39499 0.0
C24 C 0.13793 0.29263 0.37985 0.0
C25 C 0.12465 0.29823 0.35356 0.0
C26 C 0.13542 0.32952 0.34269 0.0
C27 C 0.16067 0.35471 0.3577 0.0
C28 C 0.28792 0.45319 0.38504 0.0
C29 C 0.28021 0.45591 0.35791 0.0
C30 C 0.3086 0.48083 0.34381 0.0
C31 C 0.34522 0.50354 0.35651 0.0
C32 C 0.35218 0.50155 0.38359 0.0
C33 C 0.32372 0.4766 0.39776 0.0
C34 C 0.24795 0.39437 0.46781 0.0
C35 C 0.28341 0.41704 0.48155 0.0
C36 C 0.19968 0.10003 1.00456 0.0
C37 C 0.22877 0.1251 0.01898 0.0
C38 C 0.24625 0.15352 1.00462 0.0
C39 C 0.24647 0.15353 0.97736 0.0
H40 H 0.34418 0.19206 0.91154 0.0
H41 H 0.39475 0.23471 0.88563 0.0
H42 H 0.29639 0.20543 0.81788 0.0
H43 H 0.24681 0.16255 0.8432 0.0
H44 H 0.19811 0.08984 0.84206 0.0
H45 H 0.15481 0.0434 0.81821 0.0
H46 H 0.11583 0.99393 0.89051 0.0
H47 H 0.15886 0.04034 0.91481 0.0
H48 H 0.17917 0.07929 0.96736 0.0
H49 H 0.17638 0.08004 0.01399 0.0
H50 H 0.25899 0.17643 0.01383 0.0
H51 H 0.26294 0.17525 0.96729 0.0
N52 N 0.2574 0.14912 0.92095 0.0
N53 N 0.23602 0.1218 0.88175 0.0
N54 N 0.20469 0.09897 0.92125 0.0
C55 C 0.26093 0.14772 0.89453 0.0
C56 C 0.20806 0.09726 0.89488 0.0
C57 C 0.22891 0.12488 0.93446 0.0
C58 C 0.29135 0.17396 0.87946 0.0
C59 C 0.33334 0.19474 0.89114 0.0
C60 C 0.36242 0.21896 0.87639 0.0
C61 C 0.34897 0.22317 0.84993 0.0
C62 C 0.30724 0.2025 0.83828 0.0
C63 C 0.27897 0.17802 0.85282 0.0
C64 C 0.18193 0.06894 0.88043 0.0
C65 C 0.18052 0.06913 0.85301 0.0
C66 C 0.15585 0.04263 0.83929 0.0
C67 C 0.13243 0.01541 0.85267 0.0
C68 C 0.13396 0.01483 0.87994 0.0
C69 C 0.15839 0.04142 0.89375 0.0
C70 C 0.22531 0.1261 0.96336 0.0
C71 C 0.1995 0.10001 0.97735 0.0
C72 C 0.76329 0.09048 0.50731 0.0
C73 C 0.76959 0.12109 0.49451 0.0
C74 C 0.77472 0.15022 0.5094 0.0
C75 C 0.77248 0.14882 0.5366 0.0
H76 H 0.66383 0.19015 0.60324 0.0
H77 H 0.62269 0.23448 0.63042 0.0
H78 H 0.72628 0.20158 0.69535 0.0
H79 H 0.76624 0.15696 0.66874 0.0
H80 H 0.73175 0.06164 0.66155 0.0
H81 H 0.77024 0.01667 0.68847 0.0
H82 H 0.9116 0.00342 0.63428 0.0
H83 H 0.87196 0.04774 0.60663 0.0
H84 H 0.75756 0.06503 0.54385 0.0
H85 H 0.75917 0.06772 0.4962 0.0
H86 H 0.77987 0.17407 0.49992 0.0
H87 H 0.77607 0.17172 0.54757 0.0
N88 N 0.7431 0.14297 0.59208 0.0
N89 N 0.75797 0.11388 0.63097 0.0
N90 N 0.78207 0.08904 0.59114 0.0
C91 C 0.74018 0.14167 0.61849 0.0
C92 C 0.77889 0.08755 0.61755 0.0
C93 C 0.76397 0.1167 0.57827 0.0
C94 C 0.71794 0.16995 0.6339 0.0
C95 C 0.67805 0.19254 0.62325 0.0
C96 C 0.65447 0.21778 0.63873 0.0
C97 C 0.67134 0.22114 0.66489 0.0
C98 C 0.7125 0.19925 0.67526 0.0
C99 C 0.73518 0.17376 0.66001 0.0
C100 C 0.79901 0.05814 0.63205 0.0
C101 C 0.77054 0.04879 0.65516 0.0
C102 C 0.79235 0.02314 0.67053 0.0
C103 C 0.84386 0.00699 0.66341 0.0
C104 C 0.87176 0.0157 0.64003 0.0
C105 C 0.84903 0.04084 0.62426 0.0
C106 C 0.76656 0.11817 0.54946 0.0
C107 C 0.76249 0.08899 0.53452 0.0
C108 C 0.63439 0.38293 0.01796 0.0
C109 C 0.64288 0.35118 1.0074 0.0
C110 C 0.66815 0.32646 0.02284 0.0
C111 C 0.68512 0.33339 0.04842 0.0
H112 H 0.80141 0.30064 0.10664 0.0
H113 H 0.85508 0.25955 0.13231 0.0
H114 H 0.81277 0.31247 0.20271 0.0
H115 H 0.76016 0.35385 0.1774 0.0
H116 H 0.75701 0.43709 0.16326 0.0
H117 H 0.72884 0.48585 0.18827 0.0
H118 H 0.58114 0.50033 0.13788 0.0
H119 H 0.60962 0.45137 0.11222 0.0
H120 H 0.64407 0.41464 0.05118 0.0
H121 H 0.61502 0.40234 1.00628 0.0
H122 H 0.67502 0.30181 0.01501 0.0
H123 H 0.70466 0.3137 0.05972 0.0
N124 N 0.72663 0.34956 0.09993 0.0
N125 N 0.73045 0.38524 0.13585 0.0
N126 N 0.68206 0.40194 0.0979 0.0
C127 C 0.74402 0.35575 0.12474 0.0
C128 C 0.69975 0.40848 0.12268 0.0
C129 C 0.69562 0.37249 0.08633 0.0
C130 C 0.77652 0.33059 0.13993 0.0
C131 C 0.80356 0.30356 0.12757 0.0
C132 C 0.83432 0.28012 0.14217 0.0
C133 C 0.83782 0.28306 0.16937 0.0
C134 C 0.81068 0.30987 0.18174 0.0
C135 C 0.78067 0.33349 0.16718 0.0
C136 C 0.68522 0.44014 0.13587 0.0
C137 C 0.71882 0.45074 0.15723 0.0
C138 C 0.70297 0.4787 0.17152 0.0
C139 C 0.65288 0.49655 0.16497 0.0
C140 C 0.62008 0.48686 0.14314 0.0
C141 C 0.63642 0.45894 0.12854 0.0
C142 C 0.67688 0.36521 0.05918 0.0
C143 C 0.65103 0.38987 0.04364 0.0
C144 C 0.71895 0.59453 0.51045 0.0
C145 C 0.7461 0.62011 0.49635 0.0
C146 C 0.77597 0.64522 0.50989 0.0
C147 C 0.77912 0.64462 0.53712 0.0
H148 H 0.78087 0.70832 0.6122 0.0
H149 H 0.8205 0.75262 0.64013 0.0
H150 H 0.90213 0.6791 0.68877 0.0
H151 H 0.86048 0.63492 0.66174 0.0
H152 H 0.7205 0.58675 0.6724 0.0
H153 H 0.67792 0.54119 0.69736 0.0
H154 H 0.66434 0.48226 0.62759 0.0
H155 H 0.70628 0.52808 0.60207 0.0
H156 H 0.70117 0.57356 0.54789 0.0
H157 H 0.69562 0.57496 0.50034 0.0
H158 H 0.7972 0.66517 0.49934 0.0
H159 H 0.80288 0.66428 0.5469 0.0
N160 N 0.78352 0.6429 0.59365 0.0
N161 N 0.76825 0.61456 0.63294 0.0
N162 N 0.73638 0.59089 0.59376 0.0
C163 C 0.78932 0.64131 0.61997 0.0
C164 C 0.74141 0.58935 0.62012 0.0
C165 C 0.75744 0.61757 0.58032 0.0
C166 C 0.8176 0.66829 0.63488 0.0
C167 C 0.80761 0.70174 0.62875 0.0
C168 C 0.82994 0.72697 0.64474 0.0
C169 C 0.86392 0.71912 0.66664 0.0
C170 C 0.87562 0.6857 0.67214 0.0
C171 C 0.85197 0.66053 0.65665 0.0
C172 C 0.71677 0.56113 0.63514 0.0
C173 C 0.7088 0.56411 0.66224 0.0
C174 C 0.68444 0.53813 0.67661 0.0
C175 C 0.66822 0.5085 0.66429 0.0
C176 C 0.67683 0.50504 0.63737 0.0
C177 C 0.70055 0.53125 0.62285 0.0
C178 C 0.75264 0.61878 0.5514 0.0
C179 C 0.72228 0.59381 0.53767 0.0
C180 C 0.8259 0.90569 0.01495 0.0
C181 C 0.79587 0.88151 1.00049 0.0
C182 C 0.76453 0.85672 0.01372 0.0
C183 C 0.76228 0.85648 0.04099 0.0
H184 H 0.74866 0.79313 0.11721 0.0
H185 H 0.6994 0.75119 0.14427 0.0
H186 H 0.619 0.829 0.18918 0.0
H187 H 0.67059 0.87079 0.16317 0.0
H188 H 0.88854 0.95367 0.10863 0.0
H189 H 0.93545 0.99754 0.13439 0.0
H190 H 0.82939 0.97141 0.20055 0.0
H191 H 0.78269 0.92731 0.17524 0.0
H192 H 0.84665 0.92488 0.0527 0.0
H193 H 0.85039 0.92501 1.0051 0.0
H194 H 0.74108 0.83782 1.0029 0.0
H195 H 0.73698 0.83725 0.05051 0.0
N196 N 0.75476 0.85846 0.09756 0.0
N197 N 0.7717 0.88616 0.13708 0.0
N198 N 0.81086 0.90745 0.09837 0.0
C199 C 0.74733 0.8605 0.1238 0.0
C200 C 0.80401 0.90958 0.12464 0.0
C201 C 0.78605 0.88212 0.08461 0.0
C202 C 0.71348 0.83513 0.13818 0.0
C203 C 0.72018 0.80118 0.13277 0.0
C204 C 0.69225 0.77727 0.14825 0.0
C205 C 0.65577 0.78694 0.16889 0.0
C206 C 0.64728 0.82093 0.17355 0.0
C207 C 0.67665 0.84476 0.15866 0.0
C208 C 0.83177 0.93686 0.13981 0.0
C209 C 0.87502 0.95725 0.12863 0.0
C210 C 0.90203 0.98227 0.14332 0.0
C211 C 0.8859 0.98761 0.16936 0.0
C212 C 0.84255 0.96755 0.18052 0.0
C213 C 0.81592 0.94237 0.16596 0.0
C214 C 0.79126 0.88112 0.05564 0.0
C215 C 0.82361 0.90554 0.04221 0.0
C216 C 0.14365 0.8896 0.50291 0.0
C217 C 0.16929 0.86333 0.51653 0.0
C218 C 0.20369 0.8404 0.503 0.0
C219 C 0.21289 0.84384 0.4762 0.0
H220 H 0.23889 0.78844 0.40044 0.0
H221 H 0.29122 0.74731 0.37411 0.0
H222 H 0.36882 0.82617 0.32893 0.0
H223 H 0.31485 0.86716 0.35433 0.0
H224 H 0.17744 0.91785 0.34416 0.0
H225 H 0.14729 0.96894 0.32229 0.0
H226 H 0.14057 0.01936 0.39626 0.0
H227 H 0.16934 0.96821 0.41845 0.0
H228 H 0.13309 0.91395 0.46624 0.0
H229 H 0.11689 0.90748 0.51307 0.0
H230 H 0.22374 0.81994 0.51326 0.0
H231 H 0.24009 0.82586 0.4664 0.0
N232 N 0.22826 0.85127 0.42023 0.0
N233 N 0.22305 0.88444 0.38277 0.0
N234 N 0.18291 0.90335 0.42198 0.0
C235 C 0.24023 0.856 0.39455 0.0
C236 C 0.19418 0.90815 0.39628 0.0
C237 C 0.19968 0.87497 0.43414 0.0
C238 C 0.27274 0.83095 0.37939 0.0
C239 C 0.26704 0.79693 0.38486 0.0
C240 C 0.29669 0.77347 0.3698 0.0
C241 C 0.33376 0.7837 0.3495 0.0
C242 C 0.34013 0.81772 0.34433 0.0
C243 C 0.30932 0.84108 0.35889 0.0
C244 C 0.17573 0.93899 0.38307 0.0
C245 C 0.16954 0.93979 0.35581 0.0
C246 C 0.15226 0.96888 0.34326 0.0
C247 C 0.1419 0.9978 0.35769 0.0
C248 C 0.14841 0.9972 0.38485 0.0
C249 C 0.16466 0.96796 0.39747 0.0
C250 C 0.18811 0.87046 0.46243 0.0
C251 C 0.15311 0.89321 0.47614 0.0
C252 C 0.37649 0.60768 0.99808 0.0
C253 C 0.35399 0.63276 0.0141 0.0
C254 C 0.3214 0.65835 1.00289 0.0
C255 C 0.3099 0.65844 0.97617 0.0
H256 H 0.26382 0.72074 0.90362 0.0
H257 H 0.20844 0.76222 0.87886 0.0
H258 H 0.11583 0.68365 0.83921 0.0
H259 H 0.17249 0.64234 0.86301 0.0
H260 H 0.27864 0.59086 0.84163 0.0
H261 H 0.31191 0.54703 0.81249 0.0
H262 H 0.43407 0.51443 0.87063 0.0
H263 H 0.40091 0.55817 0.90024 0.0
H264 H 0.38192 0.58763 0.95952 0.0
H265 H 0.40186 0.58775 1.00643 0.0
H266 H 0.3038 0.67795 0.01496 0.0
H267 H 0.28369 0.67832 0.96832 0.0
N268 N 0.27887 0.6554 0.92177 0.0
N269 N 0.28004 0.62819 0.88146 0.0
N270 N 0.33366 0.60669 0.91629 0.0
C271 C 0.26122 0.65346 0.89658 0.0
C272 C 0.31656 0.60488 0.89094 0.0
C273 C 0.31473 0.63184 0.93191 0.0
C274 C 0.22247 0.67848 0.88506 0.0
C275 C 0.23098 0.71246 0.8899 0.0
C276 C 0.19964 0.73607 0.87574 0.0
C277 C 0.15844 0.72592 0.85709 0.0
C278 C 0.1477 0.69194 0.85338 0.0
C279 C 0.17999 0.66844 0.86699 0.0
C280 C 0.33708 0.57808 0.87341 0.0
C281 C 0.31281 0.57454 0.84832 0.0
C282 C 0.3318 0.54959 0.83152 0.0
C283 C 0.37572 0.52785 0.83934 0.0
C284 C 0.40037 0.53128 0.86423 0.0
C285 C 0.38116 0.55614 0.88116 0.0
C286 C 0.33076 0.63286 0.96001 0.0
C287 C 0.36494 0.60769 0.97128 0.0
C288 C 0.80905 0.1241 0.2535 0.0
C289 C 0.79592 0.06431 0.25086 0.0
C290 C 0.82868 0.09224 0.25877 0.0
C291 C 0.74387 0.06883 0.23702 0.0
C292 C 0.75554 0.1287 0.24056 0.0
C293 C 0.72367 0.10093 0.23193 0.0
N294 N 0.84088 0.15052 0.26205 0.0
C295 C 0.81918 0.18197 0.26026 0.0
C296 C 0.73492 0.16105 0.23723 0.0
C297 C 0.76644 0.18774 0.2475 0.0
Gd298 Gd 0.08146 0.14494 0.23883 0.0
Gd299 Gd 0.93038 0.13763 0.28181 0.0
N300 N 0.87944 0.08859 0.27204 0.0
C301 C 0.816 0.03267 0.25749 0.0
C302 C 0.89771 0.05796 0.27971 0.0
C303 C 0.86661 0.02952 0.27232 0.0
H304 H 0.93658 0.05529 0.2913 0.0
H305 H 0.88185 0.0052 0.27799 0.0
H306 H 0.11202 0.22615 0.232 0.0
H307 H 0.84258 0.2028 0.26853 0.0
H308 H 0.19547 0.26417 0.23896 0.0
H309 H 0.79215 0.01058 0.25172 0.0
H310 H 0.71832 0.04766 0.23061 0.0
H311 H 0.13239 0.0684 0.24622 0.0
H312 H 0.69406 0.16561 0.22736 0.0
H313 H 0.75013 0.21277 0.24559 0.0
H314 H 0.35122 0.19231 0.2647 0.0
H315 H 0.68277 0.10402 0.22173 0.0
H316 H 0.31361 0.07508 0.2655 0.0
H317 H 0.2259 0.04104 0.2564 0.0
N318 N 0.16679 0.1172 0.25045 0.0
C319 C 0.21478 0.13634 0.25448 0.0
C320 C 0.17041 0.08336 0.25047 0.0
C321 C 0.27271 0.08717 0.26118 0.0
C322 C 0.22328 0.06785 0.25605 0.0
C323 C 0.26899 0.12185 0.26029 0.0
H324 H 0.35974 0.13169 0.26912 0.0
N325 N 0.15825 0.1832 0.24406 0.0
C326 C 0.21032 0.17037 0.25128 0.0
C327 C 0.25359 0.22519 0.2508 0.0
C328 C 0.25948 0.191 0.25482 0.0
C329 C 0.15293 0.21634 0.23892 0.0
C330 C 0.20016 0.23787 0.24263 0.0
O331 O 0.9379 0.1133 0.24211 0.0
O332 O 0.03271 0.09668 0.24164 0.0
O333 O 0.11439 0.1654 0.20243 0.0
O334 O 0.08628 0.11437 0.20385 0.0
O335 O 0.00387 0.10282 0.29236 0.0
O336 O 0.09429 0.12273 0.27929 0.0
O337 O 0.05732 0.18953 0.26347 0.0
O338 O 0.00505 0.16826 0.29842 0.0
O339 O 0.90658 0.11612 0.31883 0.0
O340 O 0.87897 0.16588 0.30983 0.0
O341 O 0.99803 0.16842 0.22349 0.0
O342 O 0.94115 0.18449 0.25851 0.0
C343 C 0.97874 0.09302 0.23414 0.0
C344 C 0.0605 0.10666 0.296 0.0
C345 C 0.1612 0.12812 0.17382 0.0
C346 C 0.20902 0.12227 0.13158 0.0
C347 C 0.26089 0.10836 0.17114 0.0
C348 C 0.21215 0.11669 0.18581 0.0
C349 C 0.25944 0.11113 0.14417 0.0
C350 C 0.15969 0.13087 0.14645 0.0
C351 C 0.11018 0.13757 0.18971 0.0
C352 C 0.31301 0.17684 0.2618 0.0
C353 C 0.31784 0.14233 0.26437 0.0
H354 H 0.29025 0.2419 0.25345 0.0
C355 C 0.04049 0.19043 0.28803 0.0
C356 C 0.95664 0.18663 0.23397 0.0
C357 C 0.82269 0.13472 0.34018 0.0
C358 C 0.77174 0.1252 0.38123 0.0
C359 C 0.72318 0.11426 0.34002 0.0
C360 C 0.77313 0.12418 0.32649 0.0
C361 C 0.72258 0.1144 0.36724 0.0
C362 C 0.82149 0.13572 0.36749 0.0
C363 C 0.87781 0.14186 0.32676 0.0
H364 H 0.29989 0.09964 0.18073 0.0
H365 H 0.21467 0.1141 0.20648 0.0
H366 H 0.29768 0.10442 0.13302 0.0
H367 H 0.12069 0.13954 0.13679 0.0
H368 H 0.68514 0.10591 0.32938 0.0
H369 H 0.77333 0.12308 0.30548 0.0
H370 H 0.68389 0.10602 0.37741 0.0
H371 H 0.85992 0.14362 0.37814 0.0
C372 C 0.7109 0.37549 0.7708 0.0
C373 C 0.7331 0.43419 0.77516 0.0
C374 C 0.69317 0.40751 0.7764 0.0
C375 C 0.79066 0.42828 0.76725 0.0
C376 C 0.76911 0.36929 0.7636 0.0
C377 C 0.80862 0.39591 0.76147 0.0
N378 N 0.6715 0.35034 0.77283 0.0
C379 C 0.6888 0.31815 0.77012 0.0
C380 C 0.78607 0.33647 0.75912 0.0
C381 C 0.74589 0.31075 0.76274 0.0
Gd382 Gd 0.4406 0.36269 0.73052 0.0
Gd383 Gd 0.5759 0.3656 0.78405 0.0
N384 N 0.6371 0.41249 0.78361 0.0
C385 C 0.7142 0.46588 0.78235 0.0
C386 C 0.61947 0.44289 0.7924 0.0
C387 C 0.65734 0.47015 0.79138 0.0
H388 H 0.57566 0.44624 0.79953 0.0
H389 H 0.64272 0.49438 0.79761 0.0
H390 H 0.48269 0.29517 0.6953 0.0
H391 H 0.65895 0.29802 0.774 0.0
H392 H 0.45808 0.23593 0.69254 0.0
H393 H 0.74351 0.48703 0.78161 0.0
H394 H 0.82183 0.4485 0.76593 0.0
H395 H 0.33037 0.39867 0.76092 0.0
H396 H 0.83035 0.33067 0.75353 0.0
H397 H 0.75902 0.2852 0.76016 0.0
H398 H 0.28794 0.22433 0.74604 0.0
H399 H 0.85338 0.39166 0.75576 0.0
H400 H 0.20683 0.32344 0.78264 0.0
H401 H 0.23727 0.3825 0.78192 0.0
N402 N 0.35155 0.3493 0.75008 0.0
C403 C 0.33435 0.31707 0.74911 0.0
C404 C 0.31686 0.37292 0.76101 0.0
C405 C 0.24729 0.33046 0.77324 0.0
C406 C 0.26431 0.36384 0.77288 0.0
C407 C 0.28223 0.30661 0.76111 0.0
H408 H 0.2269 0.26428 0.76974 0.0
N409 N 0.41811 0.30598 0.72391 0.0
C410 C 0.36904 0.29465 0.73589 0.0
C411 C 0.38565 0.23951 0.719 0.0
C412 C 0.35199 0.26103 0.73411 0.0
C413 C 0.44799 0.28566 0.70734 0.0
C414 C 0.43321 0.25205 0.70517 0.0
O415 O 0.57356 0.40645 0.75331 0.0
O416 O 0.52591 0.38461 0.71742 0.0
O417 O 0.41305 0.35659 0.69042 0.0
O418 O 0.38792 0.40049 0.7114 0.0
O419 O 0.50171 0.39983 0.79177 0.0
O420 O 0.44327 0.40984 0.75522 0.0
O421 O 0.42934 0.348 0.77272 0.0
O422 O 0.51413 0.32184 0.78192 0.0
O423 O 0.54391 0.37169 0.82346 0.0
O424 O 0.62817 0.34972 0.81707 0.0
O425 O 0.52677 0.33928 0.71903 0.0
O426 O 0.56894 0.32138 0.75717 0.0
C427 C 0.55927 0.40706 0.72846 0.0
C428 C 0.46118 0.41626 0.77928 0.0
C429 C 0.32743 0.38248 0.67629 0.0
C430 C 0.27289 0.3823 0.63546 0.0
C431 C 0.22288 0.37331 0.67656 0.0
C432 C 0.27562 0.37629 0.68995 0.0
C433 C 0.22142 0.37621 0.64945 0.0
C434 C 0.3258 0.38557 0.64902 0.0
C435 C 0.38416 0.38412 0.68962 0.0
C436 C 0.30128 0.25015 0.74691 0.0
C437 C 0.26644 0.2729 0.76036 0.0
H438 H 0.3741 0.2135 0.71717 0.0
C439 C 0.45757 0.32458 0.78497 0.0
C440 C 0.56446 0.32065 0.73167 0.0
C441 C 0.57648 0.3336 0.85482 0.0
C442 C 0.57858 0.31924 0.90089 0.0
C443 C 0.53671 0.28087 0.86942 0.0
C444 C 0.54947 0.30308 0.84928 0.0
C445 C 0.5513 0.28882 0.89512 0.0
C446 C 0.59082 0.34162 0.88063 0.0
C447 C 0.58889 0.35778 0.83415 0.0
H448 H 0.18305 0.3685 0.68721 0.0
H449 H 0.27584 0.37351 0.71085 0.0
H450 H 0.18025 0.37358 0.63935 0.0
H451 H 0.36573 0.39006 0.63828 0.0
H452 H 0.51559 0.25742 0.86507 0.0
H453 H 0.53831 0.29648 0.82948 0.0
H454 H 0.54145 0.2713 0.91051 0.0
H455 H 0.61159 0.36522 0.885 0.0
C456 C 0.80161 0.82802 0.77137 0.0
C457 C 0.79512 0.77905 0.79858 0.0
C458 C 0.8247 0.80815 0.79072 0.0
C459 C 0.74369 0.76946 0.78576 0.0
C460 C 0.74881 0.8192 0.75913 0.0
C461 C 0.72064 0.78946 0.76604 0.0
N462 N 0.82968 0.85669 0.76522 0.0
C463 C 0.80514 0.8789 0.74852 0.0
C464 C 0.7252 0.84095 0.74075 0.0
C465 C 0.75311 0.87116 0.73571 0.0
Gd466 Gd 0.06722 0.86999 0.73821 0.0
Gd467 Gd 0.91871 0.8667 0.78622 0.0
N468 N 0.87471 0.81801 0.80262 0.0
C469 C 0.81738 0.76088 0.8195 0.0
C470 C 0.8943 0.80156 0.82415 0.0
C471 C 0.86665 0.77251 0.8326 0.0
H472 H 0.93133 0.8108 0.83495 0.0
H473 H 0.88311 0.75925 0.84935 0.0
H474 H 0.03947 0.93785 0.70345 0.0
H475 H 0.82567 0.90259 0.74501 0.0
H476 H 0.07875 0.99472 0.69826 0.0
H477 H 0.7959 0.73842 0.82614 0.0
H478 H 0.72076 0.74698 0.79133 0.0
H479 H 0.17396 0.82557 0.76821 0.0
H480 H 0.68472 0.83508 0.7309 0.0
H481 H 0.73442 0.88858 0.72207 0.0
H482 H 0.25101 0.99568 0.75131 0.0
H483 H 0.6803 0.7821 0.75668 0.0
H484 H 0.30809 0.89342 0.79108 0.0
H485 H 0.2668 0.83661 0.79037 0.0
N486 N 0.1594 0.87629 0.75815 0.0
C487 C 0.18342 0.9072 0.75681 0.0
C488 C 0.19004 0.85079 0.76905 0.0
C489 C 0.26666 0.88887 0.78162 0.0
C490 C 0.24341 0.8568 0.78132 0.0
C491 C 0.23726 0.91443 0.76883 0.0
H492 H 0.30161 0.95275 0.77659 0.0
N493 N 0.10425 0.92339 0.73056 0.0
C494 C 0.15527 0.93138 0.74242 0.0
C495 C 0.15101 0.98659 0.72422 0.0
C496 C 0.17959 0.96342 0.73992 0.0
C497 C 0.07795 0.94517 0.71408 0.0
C498 C 0.10042 0.97725 0.71093 0.0
O499 O 0.91231 0.84045 0.74726 0.0
O500 O 0.00744 0.82519 0.7404 0.0
O501 O 0.07427 0.87065 0.69532 0.0
O502 O 0.12846 0.83797 0.71888 0.0
O503 O 0.98517 0.82741 0.79591 0.0
O504 O 0.07268 0.83548 0.77297 0.0
O505 O 0.05103 0.91382 0.76473 0.0
O506 O 0.00788 0.88504 0.79725 0.0
O507 O 0.91376 0.87656 0.82771 0.0
O508 O 0.85856 0.90367 0.80146 0.0
O509 O 0.98125 0.88874 0.72295 0.0
O510 O 0.9308 0.91004 0.75838 0.0
C511 C 0.95194 0.82356 0.73439 0.0
C512 C 0.04056 0.82114 0.79119 0.0
C513 C 0.14178 0.83319 0.67239 0.0
C514 C 0.16061 0.83203 0.62559 0.0
C515 C 0.20024 0.78914 0.65341 0.0
C516 C 0.17483 0.80408 0.67507 0.0
C517 C 0.19317 0.80298 0.6288 0.0
C518 C 0.13474 0.8472 0.64744 0.0
C519 C 0.11386 0.84766 0.69571 0.0
C520 C 0.23189 0.9711 0.75279 0.0
C521 C 0.26066 0.94666 0.76721 0.0
H522 H 0.16832 0.01147 0.72177 0.0
C523 C 0.0314 0.91239 0.78863 0.0
C524 C 0.94486 0.91002 0.73345 0.0
C525 C 0.82043 0.8891 0.8432 0.0
C526 C 0.78292 0.8819 0.88744 0.0
C527 C 0.72138 0.86953 0.85018 0.0
C528 C 0.76657 0.87826 0.83328 0.0
C529 C 0.72941 0.8713 0.8771 0.0
C530 C 0.82832 0.89094 0.87039 0.0
C531 C 0.86986 0.89649 0.82566 0.0
H532 H 0.22544 0.76671 0.65573 0.0
H533 H 0.1807 0.79258 0.69393 0.0
H534 H 0.21332 0.79109 0.61217 0.0
H535 H 0.10942 0.86959 0.64495 0.0
H536 H 0.68006 0.86115 0.84238 0.0
H537 H 0.75949 0.87622 0.8125 0.0
H538 H 0.69397 0.86426 0.88991 0.0
H539 H 0.86988 0.89892 0.87829 0.0
C540 C 0.70152 0.68578 0.27356 0.0
C541 C 0.70241 0.73456 0.30117 0.0
C542 C 0.67603 0.70461 0.29295 0.0
C543 C 0.75346 0.74579 0.28887 0.0
C544 C 0.75379 0.69641 0.26171 0.0
C545 C 0.77903 0.72679 0.26914 0.0
N546 N 0.6763 0.65643 0.26694 0.0
C547 C 0.70351 0.63529 0.25016 0.0
C548 C 0.77989 0.67577 0.2432 0.0
C549 C 0.75502 0.64485 0.23768 0.0
Gd550 Gd 0.4455 0.63223 0.23855 0.0
Gd551 Gd 0.58836 0.64285 0.28786 0.0
N552 N 0.62653 0.69313 0.30437 0.0
C553 C 0.67723 0.75206 0.32179 0.0
C554 C 0.6038 0.7092 0.32547 0.0
C555 C 0.62812 0.73908 0.3342 0.0
H556 H 0.5671 0.69889 0.33583 0.0
H557 H 0.60927 0.7519 0.35067 0.0
H558 H 0.48692 0.56175 0.20977 0.0
H559 H 0.68591 0.61093 0.24654 0.0
H560 H 0.46103 0.50217 0.21083 0.0
H561 H 0.69615 0.77515 0.32866 0.0
H562 H 0.774 0.76889 0.29475 0.0
H563 H 0.33217 0.6729 0.2671 0.0
H564 H 0.82004 0.68303 0.23364 0.0
H565 H 0.77583 0.62822 0.22403 0.0
H566 H 0.29236 0.49733 0.26609 0.0
H567 H 0.81893 0.73549 0.26011 0.0
H568 H 0.21522 0.59995 0.29776 0.0
H569 H 0.24393 0.6587 0.29179 0.0
N570 N 0.3565 0.62247 0.26052 0.0
C571 C 0.33899 0.59018 0.26195 0.0
C572 C 0.32154 0.64704 0.2701 0.0
C573 C 0.2545 0.60597 0.28703 0.0
C574 C 0.27071 0.63914 0.2838 0.0
C575 C 0.28819 0.58101 0.27569 0.0
H576 H 0.23391 0.53984 0.28826 0.0
N577 N 0.42004 0.57579 0.23605 0.0
C578 C 0.37138 0.56617 0.24918 0.0
C579 C 0.38805 0.50919 0.23663 0.0
C580 C 0.35472 0.53247 0.25025 0.0
C581 C 0.45077 0.55355 0.22156 0.0
C582 C 0.43579 0.51986 0.22191 0.0
O583 O 0.59296 0.66863 0.24863 0.0
O584 O 0.4972 0.68028 0.23743 0.0
O585 O 0.43924 0.62695 0.19578 0.0
O586 O 0.37479 0.65504 0.21779 0.0
O587 O 0.51633 0.67882 0.29683 0.0
O588 O 0.43518 0.67182 0.26964 0.0
O589 O 0.47063 0.59329 0.26762 0.0
O590 O 0.50259 0.6225 0.30282 0.0
O591 O 0.60357 0.63575 0.32913 0.0
O592 O 0.64812 0.60469 0.30142 0.0
O593 O 0.53424 0.61729 0.22362 0.0
O594 O 0.57918 0.59877 0.26085 0.0
C595 C 0.55371 0.68528 0.23529 0.0
C596 C 0.46298 0.68599 0.28933 0.0
C597 C 0.35914 0.65314 0.17128 0.0
C598 C 0.34442 0.65132 0.12416 0.0
C599 C 0.27698 0.68158 0.15155 0.0
C600 C 0.3089 0.6728 0.17352 0.0
C601 C 0.29454 0.67091 0.12702 0.0
C602 C 0.37693 0.64236 0.14636 0.0
C603 C 0.39215 0.64479 0.19514 0.0
C604 C 0.3055 0.52315 0.26478 0.0
C605 C 0.27227 0.54736 0.27743 0.0
H606 H 0.3767 0.48306 0.23697 0.0
C607 C 0.47124 0.59851 0.2927 0.0
C608 C 0.57374 0.59894 0.23534 0.0
C609 C 0.69744 0.619 0.34082 0.0
C610 C 0.74517 0.6238 0.38319 0.0
C611 C 0.79922 0.63535 0.34352 0.0
C612 C 0.74969 0.62846 0.32862 0.0
C613 C 0.79705 0.63312 0.37065 0.0
C614 C 0.69552 0.61659 0.36814 0.0
C615 C 0.64356 0.61357 0.32574 0.0
H616 H 0.23844 0.69671 0.15356 0.0
H617 H 0.29409 0.68155 0.19232 0.0
H618 H 0.26911 0.67794 0.11015 0.0
H619 H 0.41547 0.62722 0.14417 0.0
H620 H 0.83931 0.64269 0.334 0.0
H621 H 0.75219 0.63081 0.30766 0.0
H622 H 0.83571 0.6388 0.38191 0.0
H623 H 0.65522 0.60963 0.37776 0.0
C624 C 0.06636 0.04072 0.34768 0.0
C625 C 0.12392 0.02884 0.34445 0.0
C626 C 0.14749 0.07786 0.31803 0.0
C627 C 0.0875 0.08584 0.31721 0.0
N628 N 0.0052 0.08913 0.34565 0.0
N629 N 0.22104 0.0367 0.32732 0.0
C630 C 0.05091 0.07138 0.33626 0.0
C631 C 0.16515 0.04767 0.32994 0.0
N632 N 0.0257 0.02229 0.36074 0.0
N633 N 0.1879 0.10111 0.31125 0.0
H634 H 0.23689 0.01594 0.33709 0.0
H635 H 0.25065 0.04721 0.31431 0.0
H636 H 0.17629 0.12526 0.3067 0.0
H637 H 0.23242 0.09822 0.31429 0.0
H638 H 0.98174 0.02857 0.36122 0.0
H639 H 0.03486 0.99935 0.36915 0.0
H640 H 0.97894 0.08115 0.36099 0.0
H641 H 0.00039 0.1141 0.34072 0.0
C642 C 0.42955 0.50573 0.80015 0.0
C643 C 0.39364 0.5 0.82221 0.0
C644 C 0.40669 0.4403 0.81753 0.0
C645 C 0.43702 0.44529 0.79365 0.0
N646 N 0.47931 0.4831 0.76248 0.0
N647 N 0.33605 0.46201 0.84782 0.0
C648 C 0.44824 0.47819 0.78481 0.0
C649 C 0.37829 0.46733 0.8295 0.0
N650 N 0.44836 0.53725 0.79477 0.0
N651 N 0.40802 0.41041 0.83001 0.0
H652 H 0.31385 0.48128 0.85701 0.0
H653 H 0.31896 0.43853 0.85183 0.0
H654 H 0.43195 0.39031 0.82347 0.0
H655 H 0.3913 0.4068 0.84866 0.0
H656 H 0.47953 0.54293 0.78074 0.0
H657 H 0.43555 0.55788 0.80559 0.0
H658 H 0.48261 0.50586 0.753 0.0
H659 H 0.50112 0.46399 0.75307 0.0
C660 C 0.67533 0.45931 0.69412 0.0
C661 C 0.64037 0.48155 0.67968 0.0
C662 C 0.55205 0.45553 0.69741 0.0
C663 C 0.58707 0.43237 0.71118 0.0
N664 N 0.68063 0.40638 0.71596 0.0
N665 N 0.54592 0.49821 0.66418 0.0
C666 C 0.6484 0.43272 0.70779 0.0
C667 C 0.57881 0.47876 0.68023 0.0
N668 N 0.73436 0.46368 0.69499 0.0
N669 N 0.49331 0.45616 0.70144 0.0
H670 H 0.56365 0.51668 0.65233 0.0
H671 H 0.50151 0.49466 0.66117 0.0
H672 H 0.47207 0.43937 0.7135 0.0
H673 H 0.46608 0.47479 0.69462 0.0
H674 H 0.7612 0.45077 0.70777 0.0
H675 H 0.75614 0.48185 0.68423 0.0
H676 H 0.7245 0.40335 0.71145 0.0
H677 H 0.66194 0.3858 0.72497 0.0
C678 C 0.90259 0.04813 0.17904 0.0
C679 C 0.91399 0.01444 0.18497 0.0
C680 C 0.97246 0.03184 0.22273 0.0
C681 C 0.96261 0.06559 0.21604 0.0
N682 N 0.9369 0.10469 0.18263 0.0
N683 N 0.97017 0.97423 0.2088 0.0
C684 C 0.93304 0.07341 0.19267 0.0
C685 C 0.95218 0.00628 0.20574 0.0
N686 N 0.86128 0.05615 0.16101 0.0
N687 N -0.00094 0.02403 0.24571 0.0
H688 H 0.95639 0.95495 0.19666 0.0
H689 H 0.00262 0.96722 0.2218 0.0
H690 H 0.01549 0.04176 0.25855 0.0
H691 H 0.00088 0.99999 0.25309 0.0
H692 H 0.84708 0.08039 0.15807 0.0
H693 H 0.83737 0.0384 0.15072 0.0
H694 H 0.92044 0.11112 0.16443 0.0
H695 H 0.96271 0.12309 0.19113 0.0
C696 C 0.86413 0.94774 0.67572 0.0
C697 C 0.86995 0.9821 0.68124 0.0
C698 C 0.92672 0.9694 0.72046 0.0
C699 C 0.91761 0.93494 0.71594 0.0
N700 N 0.87021 0.89123 0.69153 0.0
N701 N 0.90149 0.02616 0.7099 0.0
C702 C 0.88457 0.92407 0.69408 0.0
C703 C 0.89945 0.99304 0.70401 0.0
N704 N 0.83924 0.93774 0.65281 0.0
N705 N 0.96442 0.97958 0.73949 0.0
H706 H 0.88644 0.04459 0.69739 0.0
H707 H 0.91502 0.03541 0.72784 0.0
H708 H 0.98654 0.96316 0.75149 0.0
H709 H 0.97837 0.00401 0.74189 0.0
H710 H 0.84035 0.91341 0.646 0.0
H711 H 0.82053 0.95417 0.63961 0.0
H712 H 0.84093 0.88211 0.67779 0.0
H713 H 0.88333 0.87316 0.70471 0.0
C714 C 0.61422 0.51529 0.20789 0.0
C715 C 0.63323 0.52367 0.18252 0.0
C716 C 0.62347 0.58283 0.19327 0.0
C717 C 0.60571 0.57406 0.21896 0.0
N718 N 0.61507 0.53221 0.25267 0.0
N719 N 0.66616 0.56525 0.15215 0.0
C720 C 0.61009 0.54043 0.22701 0.0
C721 C 0.64069 0.55748 0.17544 0.0
N722 N 0.59954 0.48325 0.2138 0.0
N723 N 0.62558 0.61553 0.18628 0.0
H724 H 0.67868 0.54728 0.13867 0.0
H725 H 0.67827 0.5892 0.14677 0.0
H726 H 0.62248 0.63467 0.19988 0.0
H727 H 0.63006 0.62371 0.16717 0.0
H728 H 0.57987 0.47664 0.23136 0.0
H729 H 0.60127 0.46402 0.2002 0.0
H730 H 0.62151 0.50792 0.25897 0.0
H731 H 0.62334 0.54955 0.26719 0.0
C732 C 0.4294 0.5182 0.32766 0.0
C733 C 0.37861 0.52834 0.34109 0.0
C734 C 0.39226 0.5853 0.32525 0.0
C735 C 0.4405 0.57463 0.3101 0.0
N736 N 0.50158 0.53018 0.29466 0.0
N737 N 0.30648 0.56988 0.35021 0.0
C738 C 0.45792 0.54082 0.31062 0.0
C739 C 0.35878 0.56152 0.33936 0.0
N740 N 0.4516 0.48723 0.33193 0.0
N741 N 0.37791 0.61814 0.32591 0.0
H742 H 0.28115 0.55319 0.36091 0.0
H743 H 0.28592 0.59249 0.34708 0.0
H744 H 0.39768 0.63579 0.31404 0.0
H745 H 0.34828 0.62824 0.339 0.0
H746 H 0.49205 0.47955 0.32514 0.0
H747 H 0.43176 0.46984 0.34414 0.0
H748 H 0.51072 0.50526 0.29126 0.0
H749 H 0.5269 0.5463 0.28361 0.0
C750 C 0.04553 0.99022 0.83054 0.0
C751 C 0.10485 0.98782 0.83797 0.0
C752 C 0.11045 0.93255 0.81834 0.0
C753 C 0.05418 0.93696 0.80762 0.0
N754 N 0.96606 0.96882 0.80425 0.0
N755 N 0.19609 0.9585 0.83705 0.0
C756 C 0.02096 0.96543 0.81404 0.0
C757 C 0.13795 0.95942 0.83142 0.0
N758 N 0.01252 0.01584 0.83977 0.0
N759 N 0.13654 0.90222 0.81704 0.0
H760 H 0.21756 0.97739 0.84718 0.0
H761 H 0.22386 0.94021 0.82998 0.0
H762 H 0.1167 0.88169 0.80837 0.0
H763 H 0.17494 0.89651 0.8268 0.0
H764 H 0.96763 0.01738 0.83742 0.0
H765 H 0.02943 0.03473 0.85148 0.0
H766 H 0.9422 0.99067 0.80513 0.0
H767 H 0.94486 0.94982 0.79429 0.0
C768 C 0.22039 0.09274 0.06205 0.0
C769 C 0.23484 0.12254 0.04862 0.0
C770 C 0.23523 0.152 0.09046 0.0
C771 C 0.20989 0.12393 0.10269 0.0
N772 N 0.17528 0.06746 0.09974 0.0
N773 N 0.30115 0.16804 0.05641 0.0
C774 C 0.2013 0.0943 0.08831 0.0
C775 C 0.25461 0.14945 0.06429 0.0
N776 N 0.23483 0.06284 0.05143 0.0
N777 N 0.24224 0.18094 0.10396 0.0
H778 H 0.3264 0.161 0.04046 0.0
H779 H 0.32047 0.18628 0.06801 0.0
H780 H 0.22922 0.18358 0.12332 0.0
H781 H 0.25619 0.20287 0.09509 0.0
H782 H 0.23047 0.04038 0.06132 0.0
H783 H 0.25915 0.06122 0.0343 0.0
H784 H 0.16326 0.0463 0.0893 0.0
H785 H 0.16111 0.06764 0.11905 0.0
C786 C 0.23647 0.41322 0.5672 0.0
C787 C 0.26361 0.3887 0.55154 0.0
C788 C 0.29409 0.3589 0.59091 0.0
C789 C 0.27116 0.38487 0.6065 0.0
N790 N 0.23029 0.43974 0.6095 0.0
N791 N 0.32737 0.34152 0.54824 0.0
C792 C 0.24515 0.41292 0.59463 0.0
C793 C 0.29509 0.36246 0.56334 0.0
N794 N 0.20062 0.4361 0.55598 0.0
N795 N 0.31295 0.33029 0.60237 0.0
H796 H 0.32931 0.3434 0.528 0.0
H797 H 0.35622 0.3242 0.55585 0.0
H798 H 0.31281 0.32666 0.62246 0.0
H799 H 0.32408 0.30909 0.59191 0.0
H800 H 0.1746 0.45226 0.56664 0.0
H801 H 0.19287 0.43706 0.53599 0.0
H802 H 0.21697 0.46229 0.60167 0.0
H803 H 0.23629 0.44052 0.62962 0.0
C804 C 0.56646 0.34069 0.9731 0.0
C805 C 0.62613 0.34375 0.97998 0.0
C806 C 0.65439 0.32784 0.93563 0.0
C807 C 0.59487 0.32766 0.92818 0.0
N808 N 0.49468 0.33957 0.9385 0.0
N809 N 0.72687 0.34629 0.96681 0.0
C810 C 0.55096 0.33569 0.94656 0.0
C811 C 0.67014 0.33905 0.96094 0.0
N812 N 0.52468 0.3414 0.99205 0.0
N813 N 0.69573 0.31621 0.91883 0.0
H814 H 0.74009 0.35477 0.98507 0.0
H815 H 0.76001 0.34679 0.95297 0.0
H816 H 0.68594 0.30762 0.90017 0.0
H817 H 0.73891 0.31232 0.92416 0.0
H818 H 0.48108 0.33566 0.98863 0.0
H819 H 0.53427 0.34498 0.0117 0.0
H820 H 0.46189 0.34891 0.95039 0.0
H821 H 0.48165 0.33619 0.91922 0.0
C822 C 0.81555 0.10642 0.45141 0.0
C823 C 0.77064 0.1226 0.46547 0.0
C824 C 0.73146 0.1442 0.42444 0.0
C825 C 0.77171 0.12454 0.41029 0.0
N826 N 0.84419 0.08126 0.41064 0.0
N827 N 0.67851 0.15126 0.46477 0.0
C828 C 0.81163 0.10403 0.42387 0.0
C829 C 0.72647 0.13995 0.45182 0.0
N830 N 0.86303 0.09431 0.46423 0.0
N831 N 0.69937 0.16777 0.41192 0.0
H832 H 0.6722 0.1478 0.48469 0.0
H833 H 0.64237 0.16108 0.45531 0.0
H834 H 0.70293 0.17233 0.392 0.0
H835 H 0.67372 0.185 0.42171 0.0
H836 H 0.89968 0.08529 0.45464 0.0
H837 H 0.86842 0.0964 0.48432 0.0
H838 H 0.86962 0.06349 0.41991 0.0
H839 H 0.84127 0.07782 0.39056 0.0
C840 C 0.82875 0.85953 0.9569 0.0
C841 C 0.79557 0.88273 0.97143 0.0
C842 C 0.76304 0.90877 0.93073 0.0
C843 C 0.79073 0.8833 0.91628 0.0
N844 N 0.8446 0.83209 0.91542 0.0
N845 N 0.72485 0.92678 0.97239 0.0
C846 C 0.82243 0.8581 0.92931 0.0
C847 C 0.76117 0.90675 0.95839 0.0
N848 N 0.86737 0.83941 0.96946 0.0
N849 N 0.7396 0.93531 0.91799 0.0
H850 H 0.7222 0.92613 0.99265 0.0
H851 H 0.69387 0.94211 0.9639 0.0
H852 H 0.74025 0.93761 0.89776 0.0
H853 H 0.72428 0.9564 0.92744 0.0
H854 H 0.89732 0.82447 0.95983 0.0
H855 H 0.87291 0.8397 0.98961 0.0
H856 H 0.86228 0.81103 0.92402 0.0
H857 H 0.84149 0.83033 0.89521 0.0
C858 C 0.70939 0.64409 0.45415 0.0
C859 C 0.74411 0.62036 0.46732 0.0
C860 C 0.77248 0.59611 0.42533 0.0
C861 C 0.74299 0.62203 0.41218 0.0
N862 N 0.69024 0.67361 0.41395 0.0
N863 N 0.81587 0.5769 0.46556 0.0
C864 C 0.71314 0.64681 0.42656 0.0
C865 C 0.77755 0.59714 0.45293 0.0
N866 N 0.67159 0.6634 0.46797 0.0
N867 N 0.79429 0.56999 0.41147 0.0
H868 H 0.82106 0.57695 0.48573 0.0
H869 H 0.84608 0.5621 0.45595 0.0
H870 H 0.79119 0.56831 0.39125 0.0
H871 H 0.8107 0.54862 0.42011 0.0
H872 H 0.64065 0.6786 0.45929 0.0
H873 H 0.6676 0.66207 0.48817 0.0
H874 H 0.67372 0.69428 0.42358 0.0
H875 H 0.69203 0.67654 0.3938 0.0
C876 C 0.32531 0.61145 0.05839 0.0
C877 C 0.36195 0.63195 0.04288 0.0
C878 C 0.39846 0.66006 0.0821 0.0
C879 C 0.36038 0.64031 0.09744 0.0
N880 N 0.29993 0.59174 0.10166 0.0
N881 N 0.44337 0.6696 0.03987 0.0
C882 C 0.32813 0.61403 0.08599 0.0
C883 C 0.402 0.65421 0.05478 0.0
N884 N 0.28546 0.59094 0.04674 0.0
N885 N 0.42897 0.68542 0.09349 0.0
H886 H 0.44672 0.66575 0.01983 0.0
H887 H 0.47721 0.68387 0.0475 0.0
H888 H 0.42908 0.68943 0.11356 0.0
H889 H 0.45204 0.70334 0.08309 0.0
H890 H 0.25281 0.57839 0.05684 0.0
H891 H 0.28253 0.58797 0.02662 0.0
H892 H 0.27986 0.57022 0.09479 0.0
H893 H 0.30135 0.59326 0.12193 0.0
C894 C 0.20132 0.87538 0.56232 0.0
C895 C 0.1611 0.85989 0.54514 0.0
C896 C 0.11047 0.8345 0.58232 0.0
C897 C 0.15539 0.84617 0.59896 0.0
N898 N 0.24381 0.87742 0.6056 0.0
N899 N 0.07756 0.82462 0.53801 0.0
C900 C 0.20048 0.86695 0.58923 0.0
C901 C 0.11522 0.83972 0.55497 0.0
N902 N 0.24012 0.89824 0.55284 0.0
N903 N 0.06337 0.81848 0.59281 0.0
H904 H 0.07851 0.82887 0.51799 0.0
H905 H 0.04728 0.80662 0.54345 0.0
H906 H 0.05915 0.81412 0.61274 0.0
H907 H 0.02642 0.81184 0.58227 0.0
H908 H 0.26671 0.91298 0.56454 0.0
H909 H 0.24286 0.90436 0.53315 0.0
H910 H 0.28188 0.88905 0.59936 0.0
H911 H 0.24294 0.87308 0.62561 0.0
C912 C 0.04182 0.26622 0.33327 0.0
C913 C 0.10254 0.27075 0.3369 0.0
C914 C 0.12166 0.2211 0.31088 0.0
C915 C 0.06147 0.21825 0.30492 0.0
N916 N 0.9645 0.24082 0.30796 0.0
N917 N 0.20107 0.25592 0.32581 0.0
C918 C 0.0215 0.24152 0.31551 0.0
C919 C 0.14269 0.24924 0.32465 0.0
N920 N 0.00357 0.28513 0.34719 0.0
N921 N 0.15839 0.19581 0.30485 0.0
H922 H 0.21852 0.27576 0.33635 0.0
H923 H 0.23177 0.24338 0.31462 0.0
H924 H 0.14388 0.17452 0.29549 0.0
H925 H 0.20136 0.19453 0.31125 0.0
H926 H 0.95893 0.28057 0.34777 0.0
H927 H 0.01698 0.30398 0.35981 0.0
H928 H 0.93477 0.25935 0.31254 0.0
H929 H 0.94768 0.22301 0.29536 0.0
C930 C 0.35907 0.28294 0.83664 0.0
C931 C 0.37731 0.24957 0.8341 0.0
C932 C 0.43899 0.26479 0.79708 0.0
C933 C 0.42491 0.29883 0.80059 0.0
N934 N 0.35709 0.3384 0.81914 0.0
N935 N 0.4419 0.20939 0.81516 0.0
C936 C 0.38108 0.3075 0.81918 0.0
C937 C 0.41926 0.24071 0.81522 0.0
N938 N 0.32142 0.2913 0.85621 0.0
N939 N 0.46641 0.25493 0.77486 0.0
H940 H 0.4286 0.19099 0.8282 0.0
H941 H 0.47764 0.2026 0.8039 0.0
H942 H 0.47687 0.27143 0.76001 0.0
H943 H 0.47178 0.23016 0.7696 0.0
H944 H 0.31326 0.31558 0.86203 0.0
H945 H 0.30087 0.27386 0.8681 0.0
H946 H 0.32053 0.34503 0.82985 0.0
H947 H 0.36888 0.35694 0.80633 0.0
C948 C 0.65595 0.28103 0.67725 0.0
C949 C 0.64507 0.24696 0.6819 0.0
C950 C 0.59716 0.26114 0.72291 0.0
C951 C 0.59826 0.29554 0.71616 0.0
N952 N 0.6265 0.33751 0.68453 0.0
N953 N 0.59288 0.20514 0.70616 0.0
C954 C 0.62679 0.30524 0.69256 0.0
C955 C 0.61193 0.2372 0.70382 0.0
N956 N 0.69592 0.29038 0.6589 0.0
N957 N 0.58431 0.25067 0.74751 0.0
H958 H 0.60156 0.18692 0.69227 0.0
H959 H 0.5632 0.19767 0.72039 0.0
H960 H 0.57699 0.26631 0.76315 0.0
H961 H 0.58842 0.22598 0.75328 0.0
H962 H 0.71058 0.31475 0.65673 0.0
H963 H 0.71875 0.2734 0.64752 0.0
H964 H 0.63942 0.34488 0.66596 0.0
H965 H 0.61062 0.3568 0.69574 0.0
C966 C 0.84648 0.22533 0.18762 0.0
C967 C 0.86937 0.25795 0.18516 0.0
C968 C 0.94578 0.24477 0.2168 0.0
C969 C 0.92654 0.21123 0.21722 0.0
N970 N 0.86332 0.1684 0.20017 0.0
N971 N 0.94717 0.297 0.19344 0.0
C972 C 0.87852 0.20114 0.20163 0.0
C973 C 0.9209 0.26719 0.19863 0.0
N974 N 0.79268 0.21787 0.17775 0.0
N975 N 0.98674 0.25551 0.23419 0.0
H976 H 0.93073 0.31387 0.17996 0.0
H977 H 0.98803 0.30363 0.20062 0.0
H978 H 0.00579 0.23995 0.24785 0.0
H979 H 0.99786 0.28041 0.23667 0.0
H980 H 0.77084 0.19567 0.18155 0.0
H981 H 0.76731 0.235 0.16771 0.0
H982 H 0.8335 0.15898 0.18675 0.0
H983 H 0.88305 0.15029 0.21147 0.0
C984 C 0.92645 0.76994 0.67396 0.0
C985 C 0.88724 0.74578 0.68396 0.0
C986 C 0.9005 0.76907 0.72764 0.0
C987 C 0.93163 0.79629 0.71699 0.0
N988 N 0.96601 0.82519 0.67876 0.0
N989 N 0.82755 0.72684 0.71986 0.0
C990 C 0.94246 0.79745 0.68978 0.0
C991 C 0.87148 0.74661 0.7107 0.0
N992 N 0.95012 0.76612 0.64974 0.0
N993 N 0.90113 0.76358 0.75383 0.0
H994 H 0.8036 0.71087 0.70793 0.0
H995 H 0.81108 0.72894 0.7387 0.0
H996 H 0.92542 0.77829 0.76658 0.0
H997 H 0.88325 0.74237 0.76236 0.0
H998 H 0.98342 0.78128 0.64264 0.0
H999 H 0.94092 0.7458 0.63781 0.0
H1000 H 0.96956 0.82861 0.65872 0.0
H1001 H 0.97636 0.84612 0.68959 0.0
C1002 C 0.58765 0.738 0.17506 0.0
C1003 C 0.62707 0.76155 0.18589 0.0
C1004 C 0.60521 0.73979 0.22937 0.0
C1005 C 0.57471 0.71271 0.2182 0.0
N1006 N 0.5414 0.68424 0.17957 0.0
N1007 N 0.68158 0.78045 0.22345 0.0
C1008 C 0.56691 0.71135 0.19078 0.0
C1009 C 0.63813 0.76127 0.21311 0.0
N1010 N 0.56826 0.74171 0.15009 0.0
N1011 N 0.60027 0.74607 0.25536 0.0
H1012 H 0.70881 0.79539 0.21214 0.0
H1013 H 0.69428 0.7788 0.24288 0.0
H1014 H 0.5734 0.73194 0.26747 0.0
H1015 H 0.61729 0.76738 0.26409 0.0
H1016 H 0.53514 0.72718 0.14208 0.0
H1017 H 0.58092 0.76148 0.13823 0.0
H1018 H 0.54036 0.68024 0.15953 0.0
H1019 H 0.52571 0.66437 0.19041 0.0
C1020 C 0.35913 0.7564 0.30671 0.0
C1021 C 0.3671 0.75888 0.33403 0.0
C1022 C 0.43264 0.71125 0.33252 0.0
C1023 C 0.43095 0.71155 0.30476 0.0
N1024 N 0.40349 0.74135 0.26579 0.0
N1025 N 0.42403 0.74398 0.37172 0.0
C1026 C 0.39722 0.73609 0.2919 0.0
C1027 C 0.40766 0.73792 0.34658 0.0
N1028 N 0.31426 0.77261 0.29489 0.0
N1029 N 0.45511 0.6849 0.3458 0.0
H1030 H 0.40831 0.76393 0.38254 0.0
H1031 H 0.45792 0.73131 0.38078 0.0
H1032 H 0.47216 0.66399 0.33684 0.0
H1033 H 0.45127 0.68235 0.36592 0.0
H1034 H 0.30339 0.76896 0.27539 0.0
H1035 H 0.28429 0.78695 0.30513 0.0
H1036 H 0.38346 0.7609 0.25606 0.0
H1037 H 0.43406 0.72892 0.25448 0.0
C1038 C 0.09029 0.7742 0.85157 0.0
C1039 C 0.12847 0.75064 0.84038 0.0
C1040 C 0.10223 0.77028 0.79686 0.0
C1041 C 0.06981 0.7965 0.80815 0.0
N1042 N 0.04584 0.82797 0.84685 0.0
N1043 N 0.18141 0.73172 0.80255 0.0
C1044 C 0.06727 0.79977 0.8357 0.0
C1045 C 0.13762 0.75027 0.81305 0.0
N1046 N 0.07454 0.77169 0.87714 0.0
N1047 N 0.09759 0.76351 0.77087 0.0
H1048 H 0.20971 0.71754 0.81381 0.0
H1049 H 0.19344 0.73321 0.78302 0.0
H1050 H 0.07007 0.77655 0.75848 0.0
H1051 H 0.11615 0.74268 0.76224 0.0
H1052 H 0.04213 0.78627 0.88547 0.0
H1053 H 0.08962 0.75293 0.88935 0.0
H1054 H 0.04855 0.83277 0.86676 0.0
H1055 H 0.03095 0.84809 0.83611 0.0
loop_
_geom_bond_atom_site_label_1
_geom_bond_atom_site_label_2
_geom_bond_distance
_geom_bond_site_symmetry_2
_ccdc_geom_bond_type
C0 C1 1.384 . S
C0 H13 0.947 . S
C0 C35 1.382 . S
C1 C0 1.384 . S
C1 C2 1.378 . S
C2 C1 1.378 . S
C2 C3 1.378 . S
C2 H14 0.952 . S
C3 C2 1.378 . S
C3 H15 0.950 . S
C3 C34 1.383 . S
H4 C23 0.947 . S
H5 C24 0.946 . S
H6 C26 0.953 . S
H7 C27 0.945 . S
H8 C29 0.952 . S
H9 C30 0.949 . S
H10 C32 0.950 . S
H11 C33 0.948 . S
H12 C35 0.951 . S
H13 C0 0.947 . S
H14 C2 0.952 . S
H15 C3 0.950 . S
N16 C19 1.382 . S
N16 C21 1.363 . S
N17 C19 1.371 . S
N17 C20 1.372 . S
N18 C20 1.361 . S
N18 C21 1.377 . S
C19 N16 1.382 . S
C19 N17 1.371 . S
C19 C22 1.480 . S
C20 N17 1.372 . S
C20 N18 1.361 . S
C20 C28 1.457 . S
C21 N16 1.363 . S
C21 N18 1.377 . S
C21 C34 1.479 . S
C22 C19 1.480 . S
C22 C23 1.383 . S
C22 C27 1.385 . S
C23 H4 0.947 . S
C23 C22 1.383 . S
C23 C24 1.388 . S
C24 H5 0.946 . S
C24 C23 1.388 . S
C24 C25 1.384 . S
C25 C24 1.384 . S
C25 C26 1.377 . S
C26 H6 0.953 . S
C26 C25 1.377 . S
C26 C27 1.369 . S
C27 H7 0.945 . S
C27 C22 1.385 . S
C27 C26 1.369 . S
C28 C20 1.457 . S
C28 C29 1.372 . S
C28 C33 1.364 . S
C29 H8 0.952 . S
C29 C28 1.372 . S
C29 C30 1.389 . S
C30 H9 0.949 . S
C30 C29 1.389 . S
C30 C31 1.387 . S
C31 C30 1.387 . S
C31 C32 1.372 . S
C32 H10 0.950 . S
C32 C31 1.372 . S
C32 C33 1.379 . S
C33 H11 0.948 . S
C33 C28 1.364 . S
C33 C32 1.379 . S
C34 C3 1.383 . S
C34 C21 1.479 . S
C34 C35 1.398 . S
C35 C0 1.382 . S
C35 H12 0.951 . S
C35 C34 1.398 . S
C36 C37 1.384 1_556 S
C36 H49 0.947 . S
C36 C71 1.382 . S
C37 C36 1.384 1_554 S
C37 C38 1.378 1_554 S
C38 C37 1.378 1_556 S
C38 C39 1.378 . S
C38 H50 0.932 1_556 S
C39 C38 1.378 . S
C39 H51 0.950 . S
C39 C70 1.383 . S
H40 C59 0.947 . S
H41 C60 0.946 . S
H42 C62 0.953 . S
H43 C63 0.945 . S
H44 C65 0.952 . S
H45 C66 0.949 . S
H46 C68 0.950 1_565 S
H47 C69 0.948 . S
H48 C71 0.951 . S
H49 C36 0.947 . S
H50 C38 0.932 1_554 S
H51 C39 0.950 . S
N52 C55 1.382 . S
N52 C57 1.363 . S
N53 C55 1.371 . S
N53 C56 1.372 . S
N54 C56 1.361 . S
N54 C57 1.377 . S
C55 N52 1.382 . S
C55 N53 1.371 . S
C55 C58 1.480 . S
C56 N53 1.372 . S
C56 N54 1.361 . S
C56 C64 1.457 . S
C57 N52 1.363 . S
C57 N54 1.377 . S
C57 C70 1.479 . S
C58 C55 1.480 . S
C58 C59 1.383 . S
C58 C63 1.385 . S
C59 H40 0.947 . S
C59 C58 1.383 . S
C59 C60 1.388 . S
C60 H41 0.946 . S
C60 C59 1.388 . S
C60 C61 1.384 . S
C61 C60 1.384 . S
C61 C62 1.377 . S
C62 H42 0.953 . S
C62 C61 1.377 . S
C62 C63 1.369 . S
C63 H43 0.945 . S
C63 C58 1.385 . S
C63 C62 1.369 . S
C64 C56 1.457 . S
C64 C65 1.372 . S
C64 C69 1.364 . S
C65 H44 0.952 . S
C65 C64 1.372 . S
C65 C66 1.389 . S
C66 H45 0.949 . S
C66 C65 1.389 . S
C66 C67 1.387 . S
C67 C66 1.387 . S
C67 C68 1.372 . S
C68 H46 0.950 1_545 S
C68 C67 1.372 . S
C68 C69 1.379 . S
C69 H47 0.948 . S
C69 C64 1.364 . S
C69 C68 1.379 . S
C70 C39 1.383 . S
C70 C57 1.479 . S
C70 C71 1.398 . S
C71 C36 1.382 . S
C71 H48 0.951 . S
C71 C70 1.398 . S
C72 C73 1.384 . S
C72 H85 0.947 . S
C72 C107 1.382 . S
C73 C72 1.384 . S
C73 C74 1.378 . S
C74 C73 1.378 . S
C74 C75 1.378 . S
C74 H86 0.952 . S
C75 C74 1.378 . S
C75 H87 0.950 . S
C75 C106 1.383 . S
H76 C95 0.947 . S
H77 C96 0.946 . S
H78 C98 0.953 . S
H79 C99 0.945 . S
H80 C101 0.952 . S
H81 C102 0.949 . S
H82 C104 0.950 1_565 S
H83 C105 0.948 . S
H84 C107 0.951 . S
H85 C72 0.947 . S
H86 C74 0.952 . S
H87 C75 0.950 . S
N88 C91 1.382 . S
N88 C93 1.363 . S
N89 C91 1.371 . S
N89 C92 1.372 . S
N90 C92 1.361 . S
N90 C93 1.377 . S
C91 N88 1.382 . S
C91 N89 1.371 . S
C91 C94 1.480 . S
C92 N89 1.372 . S
C92 N90 1.361 . S
C92 C100 1.457 . S
C93 N88 1.363 . S
C93 N90 1.377 . S
C93 C106 1.479 . S
C94 C91 1.480 . S
C94 C95 1.383 . S
C94 C99 1.385 . S
C95 H76 0.947 . S
C95 C94 1.383 . S
C95 C96 1.388 . S
C96 H77 0.946 . S
C96 C95 1.388 . S
C96 C97 1.384 . S
C97 C96 1.384 . S
C97 C98 1.377 . S
C98 H78 0.953 . S
C98 C97 1.377 . S
C98 C99 1.369 . S
C99 H79 0.945 . S
C99 C94 1.385 . S
C99 C98 1.369 . S
C100 C92 1.457 . S
C100 C101 1.372 . S
C100 C105 1.364 . S
C101 H80 0.952 . S
C101 C100 1.372 . S
C101 C102 1.389 . S
C102 H81 0.949 . S
C102 C101 1.389 . S
C102 C103 1.387 . S
C103 C102 1.387 . S
C103 C104 1.372 . S
C104 H82 0.950 1_545 S
C104 C103 1.372 . S
C104 C105 1.379 . S
C105 H83 0.948 . S
C105 C100 1.364 . S
C105 C104 1.379 . S
C106 C75 1.383 . S
C106 C93 1.479 . S
C106 C107 1.398 . S
C107 C72 1.382 . S
C107 H84 0.951 . S
C107 C106 1.398 . S
C108 C109 1.384 1_554 S
C108 H121 0.947 . S
C108 C143 1.382 . S
C109 C108 1.384 1_556 S
C109 C110 1.378 1_556 S
C110 C109 1.378 1_554 S
C110 C111 1.378 . S
C110 H122 0.952 . S
C111 C110 1.378 . S
C111 H123 0.950 . S
C111 C142 1.383 . S
H112 C131 0.947 . S
H113 C132 0.946 . S
H114 C134 0.953 . S
H115 C135 0.945 . S
H116 C137 0.952 . S
H117 C138 0.949 . S
H118 C140 0.950 . S
H119 C141 0.948 . S
H120 C143 0.951 . S
H121 C108 0.947 . S
H122 C110 0.952 . S
H123 C111 0.950 . S
N124 C127 1.382 . S
N124 C129 1.363 . S
N125 C127 1.371 . S
N125 C128 1.372 . S
N126 C128 1.361 . S
N126 C129 1.377 . S
C127 N124 1.382 . S
C127 N125 1.371 . S
C127 C130 1.480 . S
C128 N125 1.372 . S
C128 N126 1.361 . S
C128 C136 1.457 . S
C129 N124 1.363 . S
C129 N126 1.377 . S
C129 C142 1.479 . S
C130 C127 1.480 . S
C130 C131 1.383 . S
C130 C135 1.385 . S
C131 H112 0.947 . S
C131 C130 1.383 . S
C131 C132 1.388 . S
C132 H113 0.946 . S
C132 C131 1.388 . S
C132 C133 1.384 . S
C133 C132 1.384 . S
C133 C134 1.377 . S
C134 H114 0.953 . S
C134 C133 1.377 . S
C134 C135 1.369 . S
C135 H115 0.945 . S
C135 C130 1.385 . S
C135 C134 1.369 . S
C136 C128 1.457 . S
C136 C137 1.372 . S
C136 C141 1.364 . S
C137 H116 0.952 . S
C137 C136 1.372 . S
C137 C138 1.389 . S
C138 H117 0.949 . S
C138 C137 1.389 . S
C138 C139 1.387 . S
C139 C138 1.387 . S
C139 C140 1.372 . S
C140 H118 0.950 . S
C140 C139 1.372 . S
C140 C141 1.379 . S
C141 H119 0.948 . S
C141 C136 1.364 . S
C141 C140 1.379 . S
C142 C111 1.383 . S
C142 C129 1.479 . S
C142 C143 1.398 . S
C143 C108 1.382 . S
C143 H120 0.951 . S
C143 C142 1.398 . S
C144 C145 1.384 . S
C144 H157 0.947 . S
C144 C179 1.382 . S
C145 C144 1.384 . S
C145 C146 1.378 . S
C146 C145 1.378 . S
C146 C147 1.378 . S
C146 H158 0.952 . S
C147 C146 1.378 . S
C147 H159 0.950 . S
C147 C178 1.383 . S
H148 C167 0.947 . S
H149 C168 0.946 . S
H150 C170 0.953 . S
H151 C171 0.945 . S
H152 C173 0.952 . S
H153 C174 0.949 . S
H154 C176 0.950 . S
H155 C177 0.948 . S
H156 C179 0.951 . S
H157 C144 0.947 . S
H158 C146 0.952 . S
H159 C147 0.950 . S
N160 C163 1.382 . S
N160 C165 1.363 . S
N161 C163 1.371 . S
N161 C164 1.372 . S
N162 C164 1.361 . S
N162 C165 1.377 . S
C163 N160 1.382 . S
C163 N161 1.371 . S
C163 C166 1.480 . S
C164 N161 1.372 . S
C164 N162 1.361 . S
C164 C172 1.457 . S
C165 N160 1.363 . S
C165 N162 1.377 . S
C165 C178 1.479 . S
C166 C163 1.480 . S
C166 C167 1.383 . S
C166 C171 1.385 . S
C167 H148 0.947 . S
C167 C166 1.383 . S
C167 C168 1.388 . S
C168 H149 0.946 . S
C168 C167 1.388 . S
C168 C169 1.384 . S
C169 C168 1.384 . S
C169 C170 1.377 . S
C170 H150 0.953 . S
C170 C169 1.377 . S
C170 C171 1.369 . S
C171 H151 0.945 . S
C171 C166 1.385 . S
C171 C170 1.369 . S
C172 C164 1.457 . S
C172 C173 1.372 . S
C172 C177 1.364 . S
C173 H152 0.952 . S
C173 C172 1.372 . S
C173 C174 1.389 . S
C174 H153 0.949 . S
C174 C173 1.389 . S
C174 C175 1.387 . S
C175 C174 1.387 . S
C175 C176 1.372 . S
C176 H154 0.950 . S
C176 C175 1.372 . S
C176 C177 1.379 . S
C177 H155 0.948 . S
C177 C172 1.364 . S
C177 C176 1.379 . S
C178 C147 1.383 . S
C178 C165 1.479 . S
C178 C179 1.398 . S
C179 C144 1.382 . S
C179 H156 0.951 . S
C179 C178 1.398 . S
C180 C181 1.384 1_554 S
C180 H193 0.947 . S
C180 C215 1.382 . S
C181 C180 1.384 1_556 S
C181 C182 1.378 1_556 S
C182 C181 1.378 1_554 S
C182 C183 1.378 . S
C182 H194 0.952 1_554 S
C183 C182 1.378 . S
C183 H195 0.950 . S
C183 C214 1.383 . S
H184 C203 0.947 . S
H185 C204 0.946 . S
H186 C206 0.953 . S
H187 C207 0.945 . S
H188 C209 0.952 . S
H189 C210 0.949 . S
H190 C212 0.950 1_545 S
H191 C213 0.948 . S
H192 C215 0.951 . S
H193 C180 0.947 . S
H194 C182 0.952 1_556 S
H195 C183 0.950 . S
N196 C199 1.382 . S
N196 C201 1.363 . S
N197 C199 1.371 . S
N197 C200 1.372 . S
N198 C200 1.361 . S
N198 C201 1.377 . S
C199 N196 1.382 . S
C199 N197 1.371 . S
C199 C202 1.480 . S
C200 N197 1.372 . S
C200 N198 1.361 . S
C200 C208 1.457 . S
C201 N196 1.363 . S
C201 N198 1.377 . S
C201 C214 1.479 . S
C202 C199 1.480 . S
C202 C203 1.383 . S
C202 C207 1.385 . S
C203 H184 0.947 . S
C203 C202 1.383 . S
C203 C204 1.388 . S
C204 H185 0.946 . S
C204 C203 1.388 . S
C204 C205 1.384 . S
C205 C204 1.384 . S
C205 C206 1.377 . S
C206 H186 0.953 . S
C206 C205 1.377 . S
C206 C207 1.369 . S
C207 H187 0.945 . S
C207 C202 1.385 . S
C207 C206 1.369 . S
C208 C200 1.457 . S
C208 C209 1.372 . S
C208 C213 1.364 . S
C209 H188 0.952 . S
C209 C208 1.372 . S
C209 C210 1.389 . S
C210 H189 0.949 . S
C210 C209 1.389 . S
C210 C211 1.387 . S
C211 C210 1.387 . S
C211 C212 1.372 . S
C212 H190 0.950 1_565 S
C212 C211 1.372 . S
C212 C213 1.379 . S
C213 H191 0.948 . S
C213 C208 1.364 . S
C213 C212 1.379 . S
C214 C183 1.383 . S
C214 C201 1.479 . S
C214 C215 1.398 . S
C215 C180 1.382 . S
C215 H192 0.951 . S
C215 C214 1.398 . S
C216 C217 1.384 . S
C216 H229 0.947 . S
C216 C251 1.382 . S
C217 C216 1.384 . S
C217 C218 1.378 . S
C218 C217 1.378 . S
C218 C219 1.378 . S
C218 H230 0.952 . S
C219 C218 1.378 . S
C219 H231 0.950 . S
C219 C250 1.383 . S
H220 C239 0.947 . S
H221 C240 0.946 . S
H222 C242 0.953 . S
H223 C243 0.945 . S
H224 C245 0.952 . S
H225 C246 0.949 . S
H226 C248 0.950 1_545 S
H227 C249 0.948 . S
H228 C251 0.951 . S
H229 C216 0.947 . S
H230 C218 0.952 . S
H231 C219 0.950 . S
N232 C235 1.382 . S
N232 C237 1.363 . S
N233 C235 1.371 . S
N233 C236 1.372 . S
N234 C236 1.361 . S
N234 C237 1.377 . S
C235 N232 1.382 . S
C235 N233 1.371 . S
C235 C238 1.480 . S
C236 N233 1.372 . S
C236 N234 1.361 . S
C236 C244 1.457 . S
C237 N232 1.363 . S
C237 N234 1.377 . S
C237 C250 1.479 . S
C238 C235 1.480 . S
C238 C239 1.383 . S
C238 C243 1.385 . S
C239 H220 0.947 . S
C239 C238 1.383 . S
C239 C240 1.388 . S
C240 H221 0.946 . S
C240 C239 1.388 . S
C240 C241 1.384 . S
C241 C240 1.384 . S
C241 C242 1.377 . S
C242 H222 0.953 . S
C242 C241 1.377 . S
C242 C243 1.369 . S
C243 H223 0.945 . S
C243 C238 1.385 . S
C243 C242 1.369 . S
C244 C236 1.457 . S
C244 C245 1.372 . S
C244 C249 1.364 . S
C245 H224 0.952 . S
C245 C244 1.372 . S
C245 C246 1.389 . S
C246 H225 0.949 . S
C246 C245 1.389 . S
C246 C247 1.387 . S
C247 C246 1.387 . S
C247 C248 1.372 . S
C248 H226 0.950 1_565 S
C248 C247 1.372 . S
C248 C249 1.379 . S
C249 H227 0.948 . S
C249 C244 1.364 . S
C249 C248 1.379 . S
C250 C219 1.383 . S
C250 C237 1.479 . S
C250 C251 1.398 . S
C251 C216 1.382 . S
C251 H228 0.951 . S
C251 C250 1.398 . S
C252 C253 1.365 1_556 S
C252 H265 0.947 . S
C252 C287 1.382 . S
C253 C252 1.365 1_554 S
C253 C254 1.364 1_554 S
C254 C253 1.364 1_556 S
C254 C255 1.378 . S
C254 H266 0.971 . S
C255 C254 1.378 . S
C255 H267 0.950 . S
C255 C286 1.383 . S
H256 C275 0.947 . S
H257 C276 0.946 . S
H258 C278 0.953 . S
H259 C279 0.945 . S
H260 C281 0.952 . S
H261 C282 0.949 . S
H262 C284 0.950 . S
H263 C285 0.948 . S
H264 C287 0.951 . S
H265 C252 0.947 . S
H266 C254 0.971 . S
H267 C255 0.950 . S
N268 C271 1.382 . S
N268 C273 1.363 . S
N269 C271 1.371 . S
N269 C272 1.372 . S
N270 C272 1.361 . S
N270 C273 1.377 . S
C271 N268 1.382 . S
C271 N269 1.371 . S
C271 C274 1.480 . S
C272 N269 1.372 . S
C272 N270 1.361 . S
C272 C280 1.457 . S
C273 N268 1.363 . S
C273 N270 1.377 . S
C273 C286 1.479 . S
C274 C271 1.480 . S
C274 C275 1.383 . S
C274 C279 1.385 . S
C275 H256 0.947 . S
C275 C274 1.383 . S
C275 C276 1.388 . S
C276 H257 0.946 . S
C276 C275 1.388 . S
C276 C277 1.384 . S
C277 C276 1.384 . S
C277 C278 1.377 . S
C278 H258 0.953 . S
C278 C277 1.377 . S
C278 C279 1.369 . S
C279 H259 0.945 . S
C279 C274 1.385 . S
C279 C278 1.369 . S
C280 C272 1.457 . S
C280 C281 1.372 . S
C280 C285 1.364 . S
C281 H260 0.952 . S
C281 C280 1.372 . S
C281 C282 1.389 . S
C282 H261 0.949 . S
C282 C281 1.389 . S
C282 C283 1.387 . S
C283 C282 1.387 . S
C283 C284 1.372 . S
C284 H262 0.950 . S
C284 C283 1.372 . S
C284 C285 1.379 . S
C285 H263 0.948 . S
C285 C280 1.364 . S
C285 C284 1.379 . S
C286 C255 1.383 . S
C286 C273 1.479 . S
C286 C287 1.398 . S
C287 C252 1.382 . S
C287 H264 0.951 . S
C287 C286 1.398 . S
C288 C290 1.422 . S
C288 C292 1.415 . S
C288 N294 1.369 . S
C289 C290 1.421 . S
C289 C291 1.417 . S
C289 C301 1.422 . S
C290 C288 1.422 . S
C290 C289 1.421 . S
C290 N300 1.359 . S
C291 C289 1.417 . S
C291 C293 1.329 . S
C291 H310 0.930 . S
C292 C288 1.415 . S
C292 C293 1.437 . S
C292 C296 1.413 . S
C293 C291 1.329 . S
C293 C292 1.437 . S
C293 H315 0.929 . S
N294 C288 1.369 . S
N294 C295 1.338 . S
N294 Gd299 2.622 . S
C295 N294 1.338 . S
C295 C297 1.378 . S
C295 H307 0.929 . S
C296 C292 1.413 . S
C296 C297 1.348 . S
C296 H312 0.931 . S
C297 C295 1.378 . S
C297 C296 1.348 . S
C297 H313 0.930 . S
Gd298 N318 2.622 . S
Gd298 N325 2.570 . S
Gd298 O332 2.361 . S
Gd298 O333 2.468 . S
Gd298 O334 2.427 . S
Gd298 O336 2.388 . S
Gd298 O337 2.386 . S
Gd298 O341 2.299 1_455 S
Gd298 C351 2.805 . S
Gd299 N294 2.622 . S
Gd299 N300 2.570 . S
Gd299 O331 2.386 . S
Gd299 O335 2.307 1_655 S
Gd299 O338 2.353 1_655 S
Gd299 O339 2.468 . S
Gd299 O340 2.427 . S
Gd299 O342 2.388 . S
Gd299 C363 2.805 . S
N300 C290 1.359 . S
N300 Gd299 2.570 . S
N300 C302 1.343 . S
C301 C289 1.422 . S
C301 C303 1.321 . S
C301 H309 0.931 . S
C302 N300 1.343 . S
C302 C303 1.390 . S
C302 H304 0.931 . S
C303 C301 1.321 . S
C303 C302 1.390 . S
C303 H305 0.930 . S
H304 C302 0.931 . S
H305 C303 0.930 . S
H306 C329 0.931 . S
H307 C295 0.929 . S
H308 C330 0.930 . S
H309 C301 0.931 . S
H310 C291 0.930 . S
H311 C320 0.929 . S
H312 C296 0.931 . S
H313 C297 0.930 . S
H314 C352 0.930 . S
H315 C293 0.929 . S
H316 C321 0.931 . S
H317 C322 0.930 . S
N318 Gd298 2.622 . S
N318 C319 1.369 . S
N318 C320 1.338 . S
C319 N318 1.369 . S
C319 C323 1.415 . S
C319 C326 1.422 . S
C320 H311 0.929 . S
C320 N318 1.338 . S
C320 C322 1.378 . S
C321 H316 0.931 . S
C321 C322 1.348 . S
C321 C323 1.413 . S
C322 H317 0.930 . S
C322 C320 1.378 . S
C322 C321 1.348 . S
C323 C319 1.415 . S
C323 C321 1.413 . S
C323 C353 1.437 . S
H324 C353 0.929 . S
N325 Gd298 2.570 . S
N325 C326 1.359 . S
N325 C329 1.343 . S
C326 C319 1.422 . S
C326 N325 1.359 . S
C326 C328 1.421 . S
C327 C328 1.422 . S
C327 C330 1.321 . S
C327 H354 0.931 . S
C328 C326 1.421 . S
C328 C327 1.422 . S
C328 C352 1.417 . S
C329 H306 0.931 . S
C329 N325 1.343 . S
C329 C330 1.390 . S
C330 H308 0.930 . S
C330 C327 1.321 . S
C330 C329 1.390 . S
O331 Gd299 2.386 . S
O331 C343 1.265 . S
O332 Gd298 2.361 . S
O332 C343 1.232 1_455 S
O333 Gd298 2.468 . S
O333 C351 1.263 . S
O334 Gd298 2.427 . S
O334 C351 1.252 . S
O335 Gd299 2.307 1_455 S
O335 C344 1.261 . S
O336 Gd298 2.388 . S
O336 C344 1.252 . S
O337 Gd298 2.386 . S
O337 C355 1.265 . S
O338 Gd299 2.353 1_455 S
O338 C355 1.242 . S
O339 Gd299 2.468 . S
O339 C363 1.263 . S
O340 Gd299 2.427 . S
O340 C363 1.252 . S
O341 Gd298 2.299 1_655 S
O341 C356 1.271 . S
O342 Gd299 2.388 . S
O342 C356 1.252 . S
C343 O331 1.265 . S
C343 O332 1.232 1_655 S
C344 O335 1.261 . S
C344 O336 1.252 . S
C345 C348 1.394 . S
C345 C350 1.370 . S
C345 C351 1.500 . S
C346 C349 1.383 . S
C346 C350 1.395 . S
C347 C348 1.396 . S
C347 C349 1.365 . S
C347 H364 0.929 . S
C348 C345 1.394 . S
C348 C347 1.396 . S
C348 H365 0.930 . S
C349 C346 1.383 . S
C349 C347 1.365 . S
C349 H366 0.931 . S
C350 C345 1.370 . S
C350 C346 1.395 . S
C350 H367 0.930 . S
C351 Gd298 2.805 . S
C351 O333 1.263 . S
C351 O334 1.252 . S
C351 C345 1.500 . S
C352 H314 0.930 . S
C352 C328 1.417 . S
C352 C353 1.329 . S
C353 C323 1.437 . S
C353 H324 0.929 . S
C353 C352 1.329 . S
H354 C327 0.931 . S
C355 O337 1.265 . S
C355 O338 1.242 . S
C356 O341 1.271 . S
C356 O342 1.252 . S
C357 C360 1.394 . S
C357 C362 1.370 . S
C357 C363 1.500 . S
C358 C361 1.383 . S
C358 C362 1.395 . S
C359 C360 1.396 . S
C359 C361 1.365 . S
C359 H368 0.929 . S
C360 C357 1.394 . S
C360 C359 1.396 . S
C360 H369 0.930 . S
C361 C358 1.383 . S
C361 C359 1.365 . S
C361 H370 0.931 . S
C362 C357 1.370 . S
C362 C358 1.395 . S
C362 H371 0.930 . S
C363 Gd299 2.805 . S
C363 O339 1.263 . S
C363 O340 1.252 . S
C363 C357 1.500 . S
H364 C347 0.929 . S
H365 C348 0.930 . S
H366 C349 0.931 . S
H367 C350 0.930 . S
H368 C359 0.929 . S
H369 C360 0.930 . S
H370 C361 0.931 . S
H371 C362 0.930 . S
C372 C374 1.422 . S
C372 C376 1.415 . S
C372 N378 1.369 . S
C373 C374 1.421 . S
C373 C375 1.417 . S
C373 C385 1.422 . S
C374 C372 1.422 . S
C374 C373 1.421 . S
C374 N384 1.359 . S
C375 C373 1.417 . S
C375 C377 1.329 . S
C375 H394 0.930 . S
C376 C372 1.415 . S
C376 C377 1.437 . S
C376 C380 1.413 . S
C377 C375 1.329 . S
C377 C376 1.437 . S
C377 H399 0.929 . S
N378 C372 1.369 . S
N378 C379 1.338 . S
N378 Gd383 2.622 . S
C379 N378 1.338 . S
C379 C381 1.378 . S
C379 H391 0.929 . S
C380 C376 1.413 . S
C380 C381 1.348 . S
C380 H396 0.931 . S
C381 C379 1.378 . S
C381 C380 1.348 . S
C381 H397 0.930 . S
Gd382 N402 2.622 . S
Gd382 N409 2.570 . S
Gd382 O416 2.353 . S
Gd382 O417 2.468 . S
Gd382 O418 2.427 . S
Gd382 O420 2.388 . S
Gd382 O421 2.386 . S
Gd382 O425 2.307 . S
Gd382 C435 2.805 . S
Gd383 N378 2.622 . S
Gd383 N384 2.570 . S
Gd383 O415 2.386 . S
Gd383 O419 2.307 . S
Gd383 O422 2.353 . S
Gd383 O423 2.468 . S
Gd383 O424 2.427 . S
Gd383 O426 2.388 . S
Gd383 C447 2.805 . S
N384 C374 1.359 . S
N384 Gd383 2.570 . S
N384 C386 1.343 . S
C385 C373 1.422 . S
C385 C387 1.321 . S
C385 H393 0.931 . S
C386 N384 1.343 . S
C386 C387 1.390 . S
C386 H388 0.931 . S
C387 C385 1.321 . S
C387 C386 1.390 . S
C387 H389 0.930 . S
H388 C386 0.931 . S
H389 C387 0.930 . S
H390 C413 0.931 . S
H391 C379 0.929 . S
H392 C414 0.930 . S
H393 C385 0.931 . S
H394 C375 0.930 . S
H395 C404 0.929 . S
H396 C380 0.931 . S
H397 C381 0.930 . S
H398 C436 0.930 . S
H399 C377 0.929 . S
H400 C405 0.931 . S
H401 C406 0.930 . S
N402 Gd382 2.622 . S
N402 C403 1.369 . S
N402 C404 1.338 . S
C403 N402 1.369 . S
C403 C407 1.415 . S
C403 C410 1.422 . S
C404 H395 0.929 . S
C404 N402 1.338 . S
C404 C406 1.378 . S
C405 H400 0.931 . S
C405 C406 1.348 . S
C405 C407 1.413 . S
C406 H401 0.930 . S
C406 C404 1.378 . S
C406 C405 1.348 . S
C407 C403 1.415 . S
C407 C405 1.413 . S
C407 C437 1.437 . S
H408 C437 0.929 . S
N409 Gd382 2.570 . S
N409 C410 1.359 . S
N409 C413 1.343 . S
C410 C403 1.422 . S
C410 N409 1.359 . S
C410 C412 1.421 . S
C411 C412 1.422 . S
C411 C414 1.321 . S
C411 H438 0.931 . S
C412 C410 1.421 . S
C412 C411 1.422 . S
C412 C436 1.417 . S
C413 H390 0.931 . S
C413 N409 1.343 . S
C413 C414 1.390 . S
C414 H392 0.930 . S
C414 C411 1.321 . S
C414 C413 1.390 . S
O415 Gd383 2.386 . S
O415 C427 1.265 . S
O416 Gd382 2.353 . S
O416 C427 1.242 . S
O417 Gd382 2.468 . S
O417 C435 1.263 . S
O418 Gd382 2.427 . S
O418 C435 1.252 . S
O419 Gd383 2.307 . S
O419 C428 1.261 . S
O420 Gd382 2.388 . S
O420 C428 1.252 . S
O421 Gd382 2.386 . S
O421 C439 1.265 . S
O422 Gd383 2.353 . S
O422 C439 1.242 . S
O423 Gd383 2.468 . S
O423 C447 1.263 . S
O424 Gd383 2.427 . S
O424 C447 1.252 . S
O425 Gd382 2.307 . S
O425 C440 1.261 . S
O426 Gd383 2.388 . S
O426 C440 1.252 . S
C427 O415 1.265 . S
C427 O416 1.242 . S
C428 O419 1.261 . S
C428 O420 1.252 . S
C429 C432 1.394 . S
C429 C434 1.370 . S
C429 C435 1.500 . S
C430 C433 1.383 . S
C430 C434 1.395 . S
C431 C432 1.396 . S
C431 C433 1.365 . S
C431 H448 0.929 . S
C432 C429 1.394 . S
C432 C431 1.396 . S
C432 H449 0.930 . S
C433 C430 1.383 . S
C433 C431 1.365 . S
C433 H450 0.931 . S
C434 C429 1.370 . S
C434 C430 1.395 . S
C434 H451 0.930 . S
C435 Gd382 2.805 . S
C435 O417 1.263 . S
C435 O418 1.252 . S
C435 C429 1.500 . S
C436 H398 0.930 . S
C436 C412 1.417 . S
C436 C437 1.329 . S
C437 C407 1.437 . S
C437 H408 0.929 . S
C437 C436 1.329 . S
H438 C411 0.931 . S
C439 O421 1.265 . S
C439 O422 1.242 . S
C440 O425 1.261 . S
C440 O426 1.252 . S
C441 C444 1.394 . S
C441 C446 1.370 . S
C441 C447 1.500 . S
C442 C445 1.383 . S
C442 C446 1.395 . S
C443 C444 1.396 . S
C443 C445 1.365 . S
C443 H452 0.929 . S
C444 C441 1.394 . S
C444 C443 1.396 . S
C444 H453 0.930 . S
C445 C442 1.383 . S
C445 C443 1.365 . S
C445 H454 0.931 . S
C446 C441 1.370 . S
C446 C442 1.395 . S
C446 H455 0.930 . S
C447 Gd383 2.805 . S
C447 O423 1.263 . S
C447 O424 1.252 . S
C447 C441 1.500 . S
H448 C431 0.929 . S
H449 C432 0.930 . S
H450 C433 0.931 . S
H451 C434 0.930 . S
H452 C443 0.929 . S
H453 C444 0.930 . S
H454 C445 0.931 . S
H455 C446 0.930 . S
C456 C458 1.422 . S
C456 C460 1.415 . S
C456 N462 1.369 . S
C457 C458 1.421 . S
C457 C459 1.417 . S
C457 C469 1.422 . S
C458 C456 1.422 . S
C458 C457 1.421 . S
C458 N468 1.359 . S
C459 C457 1.417 . S
C459 C461 1.329 . S
C459 H478 0.930 . S
C460 C456 1.415 . S
C460 C461 1.437 . S
C460 C464 1.413 . S
C461 C459 1.329 . S
C461 C460 1.437 . S
C461 H483 0.929 . S
N462 C456 1.369 . S
N462 C463 1.338 . S
N462 Gd467 2.622 . S
C463 N462 1.338 . S
C463 C465 1.378 . S
C463 H475 0.929 . S
C464 C460 1.413 . S
C464 C465 1.348 . S
C464 H480 0.931 . S
C465 C463 1.378 . S
C465 C464 1.348 . S
C465 H481 0.930 . S
Gd466 N486 2.622 . S
Gd466 N493 2.570 . S
Gd466 O500 2.353 . S
Gd466 O501 2.468 . S
Gd466 O502 2.427 . S
Gd466 O504 2.388 . S
Gd466 O505 2.386 . S
Gd466 O509 2.307 . S
Gd466 C519 2.805 . S
Gd467 N462 2.622 . S
Gd467 N468 2.570 . S
Gd467 O499 2.386 . S
Gd467 O503 2.307 1_655 S
Gd467 O506 2.353 1_655 S
Gd467 O507 2.468 . S
Gd467 O508 2.427 . S
Gd467 O510 2.388 . S
Gd467 C531 2.805 . S
N468 C458 1.359 . S
N468 Gd467 2.570 . S
N468 C470 1.343 . S
C469 C457 1.422 . S
C469 C471 1.321 . S
C469 H477 0.931 . S
C470 N468 1.343 . S
C470 C471 1.390 . S
C470 H472 0.931 . S
C471 C469 1.321 . S
C471 C470 1.390 . S
C471 H473 0.930 . S
H472 C470 0.931 . S
H473 C471 0.930 . S
H474 C497 0.931 . S
H475 C463 0.929 . S
H476 C498 0.930 . S
H477 C469 0.931 . S
H478 C459 0.930 . S
H479 C488 0.929 . S
H480 C464 0.931 . S
H481 C465 0.930 . S
H482 C520 0.930 . S
H483 C461 0.929 . S
H484 C489 0.931 . S
H485 C490 0.930 . S
N486 Gd466 2.622 . S
N486 C487 1.369 . S
N486 C488 1.338 . S
C487 N486 1.369 . S
C487 C491 1.415 . S
C487 C494 1.422 . S
C488 H479 0.929 . S
C488 N486 1.338 . S
C488 C490 1.378 . S
C489 H484 0.931 . S
C489 C490 1.348 . S
C489 C491 1.413 . S
C490 H485 0.930 . S
C490 C488 1.378 . S
C490 C489 1.348 . S
C491 C487 1.415 . S
C491 C489 1.413 . S
C491 C521 1.437 . S
H492 C521 0.929 . S
N493 Gd466 2.570 . S
N493 C494 1.359 . S
N493 C497 1.343 . S
C494 C487 1.422 . S
C494 N493 1.359 . S
C494 C496 1.421 . S
C495 C496 1.422 . S
C495 C498 1.321 . S
C495 H522 0.931 . S
C496 C494 1.421 . S
C496 C495 1.422 . S
C496 C520 1.417 . S
C497 H474 0.931 . S
C497 N493 1.343 . S
C497 C498 1.390 . S
C498 H476 0.930 . S
C498 C495 1.321 . S
C498 C497 1.390 . S
O499 Gd467 2.386 . S
O499 C511 1.265 . S
O500 Gd466 2.353 . S
O500 C511 1.242 1_455 S
O501 Gd466 2.468 . S
O501 C519 1.263 . S
O502 Gd466 2.427 . S
O502 C519 1.252 . S
O503 Gd467 2.307 1_455 S
O503 C512 1.261 . S
O504 Gd466 2.388 . S
O504 C512 1.252 . S
O505 Gd466 2.386 . S
O505 C523 1.265 . S
O506 Gd467 2.353 1_455 S
O506 C523 1.242 . S
O507 Gd467 2.468 . S
O507 C531 1.263 . S
O508 Gd467 2.427 . S
O508 C531 1.252 . S
O509 Gd466 2.307 . S
O509 C524 1.261 1_455 S
O510 Gd467 2.388 . S
O510 C524 1.252 . S
C511 O499 1.265 . S
C511 O500 1.242 1_655 S
C512 O503 1.261 . S
C512 O504 1.252 . S
C513 C516 1.394 . S
C513 C518 1.370 . S
C513 C519 1.500 . S
C514 C517 1.383 . S
C514 C518 1.395 . S
C515 C516 1.396 . S
C515 C517 1.365 . S
C515 H532 0.929 . S
C516 C513 1.394 . S
C516 C515 1.396 . S
C516 H533 0.930 . S
C517 C514 1.383 . S
C517 C515 1.365 . S
C517 H534 0.931 . S
C518 C513 1.370 . S
C518 C514 1.395 . S
C518 H535 0.930 . S
C519 Gd466 2.805 . S
C519 O501 1.263 . S
C519 O502 1.252 . S
C519 C513 1.500 . S
C520 H482 0.930 . S
C520 C496 1.417 . S
C520 C521 1.329 . S
C521 C491 1.437 . S
C521 H492 0.929 . S
C521 C520 1.329 . S
H522 C495 0.931 . S
C523 O505 1.265 . S
C523 O506 1.242 . S
C524 O509 1.261 1_655 S
C524 O510 1.252 . S
C525 C528 1.394 . S
C525 C530 1.370 . S
C525 C531 1.500 . S
C526 C529 1.383 . S
C526 C530 1.395 . S
C527 C528 1.396 . S
C527 C529 1.365 . S
C527 H536 0.929 . S
C528 C525 1.394 . S
C528 C527 1.396 . S
C528 H537 0.930 . S
C529 C526 1.383 . S
C529 C527 1.365 . S
C529 H538 0.931 . S
C530 C525 1.370 . S
C530 C526 1.395 . S
C530 H539 0.930 . S
C531 Gd467 2.805 . S
C531 O507 1.263 . S
C531 O508 1.252 . S
C531 C525 1.500 . S
H532 C515 0.929 . S
H533 C516 0.930 . S
H534 C517 0.931 . S
H535 C518 0.930 . S
H536 C527 0.929 . S
H537 C528 0.930 . S
H538 C529 0.931 . S
H539 C530 0.930 . S
C540 C542 1.422 . S
C540 C544 1.415 . S
C540 N546 1.369 . S
C541 C542 1.421 . S
C541 C543 1.417 . S
C541 C553 1.422 . S
C542 C540 1.422 . S
C542 C541 1.421 . S
C542 N552 1.359 . S
C543 C541 1.417 . S
C543 C545 1.329 . S
C543 H562 0.930 . S
C544 C540 1.415 . S
C544 C545 1.437 . S
C544 C548 1.413 . S
C545 C543 1.329 . S
C545 C544 1.437 . S
C545 H567 0.929 . S
N546 C540 1.369 . S
N546 C547 1.338 . S
N546 Gd551 2.622 . S
C547 N546 1.338 . S
C547 C549 1.378 . S
C547 H559 0.929 . S
C548 C544 1.413 . S
C548 C549 1.348 . S
C548 H564 0.931 . S
C549 C547 1.378 . S
C549 C548 1.348 . S
C549 H565 0.930 . S
Gd550 N570 2.622 . S
Gd550 N577 2.570 . S
Gd550 O584 2.353 . S
Gd550 O585 2.468 . S
Gd550 O586 2.427 . S
Gd550 O588 2.388 . S
Gd550 O589 2.386 . S
Gd550 O593 2.307 . S
Gd550 C603 2.805 . S
Gd551 N546 2.622 . S
Gd551 N552 2.570 . S
Gd551 O583 2.386 . S
Gd551 O587 2.307 . S
Gd551 O590 2.353 . S
Gd551 O591 2.468 . S
Gd551 O592 2.427 . S
Gd551 O594 2.388 . S
Gd551 C615 2.805 . S
N552 C542 1.359 . S
N552 Gd551 2.570 . S
N552 C554 1.343 . S
C553 C541 1.422 . S
C553 C555 1.321 . S
C553 H561 0.931 . S
C554 N552 1.343 . S
C554 C555 1.390 . S
C554 H556 0.931 . S
C555 C553 1.321 . S
C555 C554 1.390 . S
C555 H557 0.930 . S
H556 C554 0.931 . S
H557 C555 0.930 . S
H558 C581 0.931 . S
H559 C547 0.929 . S
H560 C582 0.930 . S
H561 C553 0.931 . S
H562 C543 0.930 . S
H563 C572 0.929 . S
H564 C548 0.931 . S
H565 C549 0.930 . S
H566 C604 0.930 . S
H567 C545 0.929 . S
H568 C573 0.931 . S
H569 C574 0.930 . S
N570 Gd550 2.622 . S
N570 C571 1.369 . S
N570 C572 1.338 . S
C571 N570 1.369 . S
C571 C575 1.415 . S
C571 C578 1.422 . S
C572 H563 0.929 . S
C572 N570 1.338 . S
C572 C574 1.378 . S
C573 H568 0.931 . S
C573 C574 1.348 . S
C573 C575 1.413 . S
C574 H569 0.930 . S
C574 C572 1.378 . S
C574 C573 1.348 . S
C575 C571 1.415 . S
C575 C573 1.413 . S
C575 C605 1.437 . S
H576 C605 0.929 . S
N577 Gd550 2.570 . S
N577 C578 1.359 . S
N577 C581 1.343 . S
C578 C571 1.422 . S
C578 N577 1.359 . S
C578 C580 1.421 . S
C579 C580 1.422 . S
C579 C582 1.321 . S
C579 H606 0.931 . S
C580 C578 1.421 . S
C580 C579 1.422 . S
C580 C604 1.417 . S
C581 H558 0.931 . S
C581 N577 1.343 . S
C581 C582 1.390 . S
C582 H560 0.930 . S
C582 C579 1.321 . S
C582 C581 1.390 . S
O583 Gd551 2.386 . S
O583 C595 1.265 . S
O584 Gd550 2.353 . S
O584 C595 1.242 . S
O585 Gd550 2.468 . S
O585 C603 1.263 . S
O586 Gd550 2.427 . S
O586 C603 1.252 . S
O587 Gd551 2.307 . S
O587 C596 1.261 . S
O588 Gd550 2.388 . S
O588 C596 1.252 . S
O589 Gd550 2.386 . S
O589 C607 1.265 . S
O590 Gd551 2.353 . S
O590 C607 1.242 . S
O591 Gd551 2.468 . S
O591 C615 1.263 . S
O592 Gd551 2.427 . S
O592 C615 1.252 . S
O593 Gd550 2.307 . S
O593 C608 1.261 . S
O594 Gd551 2.388 . S
O594 C608 1.252 . S
C595 O583 1.265 . S
C595 O584 1.242 . S
C596 O587 1.261 . S
C596 O588 1.252 . S
C597 C600 1.394 . S
C597 C602 1.370 . S
C597 C603 1.500 . S
C598 C601 1.383 . S
C598 C602 1.395 . S
C599 C600 1.396 . S
C599 C601 1.365 . S
C599 H616 0.929 . S
C600 C597 1.394 . S
C600 C599 1.396 . S
C600 H617 0.930 . S
C601 C598 1.383 . S
C601 C599 1.365 . S
C601 H618 0.931 . S
C602 C597 1.370 . S
C602 C598 1.395 . S
C602 H619 0.930 . S
C603 Gd550 2.805 . S
C603 O585 1.263 . S
C603 O586 1.252 . S
C603 C597 1.500 . S
C604 H566 0.930 . S
C604 C580 1.417 . S
C604 C605 1.329 . S
C605 C575 1.437 . S
C605 H576 0.929 . S
C605 C604 1.329 . S
H606 C579 0.931 . S
C607 O589 1.265 . S
C607 O590 1.242 . S
C608 O593 1.261 . S
C608 O594 1.252 . S
C609 C612 1.394 . S
C609 C614 1.370 . S
C609 C615 1.500 . S
C610 C613 1.383 . S
C610 C614 1.395 . S
C611 C612 1.396 . S
C611 C613 1.365 . S
C611 H620 0.929 . S
C612 C609 1.394 . S
C612 C611 1.396 . S
C612 H621 0.930 . S
C613 C610 1.383 . S
C613 C611 1.365 . S
C613 H622 0.931 . S
C614 C609 1.370 . S
C614 C610 1.395 . S
C614 H623 0.930 . S
C615 Gd551 2.805 . S
C615 O591 1.263 . S
C615 O592 1.252 . S
C615 C609 1.500 . S
H616 C599 0.929 . S
H617 C600 0.930 . S
H618 C601 0.931 . S
H619 C602 0.930 . S
H620 C611 0.929 . S
H621 C612 0.930 . S
H622 C613 0.931 . S
H623 C614 0.930 . S
C624 C625 1.363 . S
C624 C630 1.379 . S
C624 N632 1.356 . S
C625 C624 1.363 . S
C625 C631 1.363 . S
C626 C627 1.363 . S
C626 C631 1.379 . S
C626 N633 1.356 . S
C627 C626 1.363 . S
C627 C630 1.363 . S
N628 C630 1.356 1_655 S
N628 H640 0.984 . S
N628 H641 0.985 . S
N629 C631 1.356 . S
N629 H634 0.984 . S
N629 H635 0.985 . S
C630 C624 1.379 . S
C630 C627 1.363 . S
C630 N628 1.356 1_455 S
C631 C625 1.363 . S
C631 C626 1.379 . S
C631 N629 1.356 . S
N632 C624 1.356 . S
N632 H638 0.984 . S
N632 H639 0.984 1_545 S
N633 C626 1.356 . S
N633 H636 0.984 . S
N633 H637 0.985 . S
H634 N629 0.984 . S
H635 N629 0.985 . S
H636 N633 0.984 . S
H637 N633 0.985 . S
H638 N632 0.984 . S
H639 N632 0.984 1_565 S
H640 N628 0.984 . S
H641 N628 0.985 . S
C642 C643 1.363 . S
C642 C648 1.379 . S
C642 N650 1.356 . S
C643 C642 1.363 . S
C643 C649 1.363 . S
C644 C645 1.363 . S
C644 C649 1.379 . S
C644 N651 1.356 . S
C645 C644 1.363 . S
C645 C648 1.363 . S
N646 C648 1.356 . S
N646 H658 0.984 . S
N646 H659 0.985 . S
N647 C649 1.356 . S
N647 H652 0.984 . S
N647 H653 0.985 . S
C648 C642 1.379 . S
C648 C645 1.363 . S
C648 N646 1.356 . S
C649 C643 1.363 . S
C649 C644 1.379 . S
C649 N647 1.356 . S
N650 C642 1.356 . S
N650 H656 0.984 . S
N650 H657 0.984 . S
N651 C644 1.356 . S
N651 H654 0.984 . S
N651 H655 0.985 . S
H652 N647 0.984 . S
H653 N647 0.985 . S
H654 N651 0.984 . S
H655 N651 0.985 . S
H656 N650 0.984 . S
H657 N650 0.984 . S
H658 N646 0.984 . S
H659 N646 0.985 . S
C660 C661 1.363 . S
C660 C666 1.379 . S
C660 N668 1.356 . S
C661 C660 1.363 . S
C661 C667 1.363 . S
C662 C663 1.363 . S
C662 C667 1.379 . S
C662 N669 1.356 . S
C663 C662 1.363 . S
C663 C666 1.363 . S
N664 C666 1.356 . S
N664 H676 0.984 . S
N664 H677 0.985 . S
N665 C667 1.356 . S
N665 H670 0.984 . S
N665 H671 0.985 . S
C666 C660 1.379 . S
C666 C663 1.363 . S
C666 N664 1.356 . S
C667 C661 1.363 . S
C667 C662 1.379 . S
C667 N665 1.356 . S
N668 C660 1.356 . S
N668 H674 0.984 . S
N668 H675 0.984 . S
N669 C662 1.356 . S
N669 H672 0.984 . S
N669 H673 0.985 . S
H670 N665 0.984 . S
H671 N665 0.985 . S
H672 N669 0.984 . S
H673 N669 0.985 . S
H674 N668 0.984 . S
H675 N668 0.984 . S
H676 N664 0.984 . S
H677 N664 0.985 . S
C678 C679 1.363 . S
C678 C684 1.379 . S
C678 N686 1.356 . S
C679 C678 1.363 . S
C679 C685 1.363 . S
C680 C681 1.363 . S
C680 C685 1.379 . S
C680 N687 1.356 . S
C681 C680 1.363 . S
C681 C684 1.363 . S
N682 C684 1.356 . S
N682 H694 0.984 . S
N682 H695 0.985 . S
N683 C685 1.338 1_565 S
N683 H688 0.998 . S
N683 H689 0.990 . S
C684 C678 1.379 . S
C684 C681 1.363 . S
C684 N682 1.356 . S
C685 C679 1.363 . S
C685 C680 1.379 . S
C685 N683 1.338 1_545 S
N686 C678 1.356 . S
N686 H692 0.984 . S
N686 H693 0.984 . S
N687 C680 1.356 . S
N687 H690 0.984 . S
N687 H691 0.985 . S
H688 N683 0.998 . S
H689 N683 0.990 . S
H690 N687 0.984 . S
H691 N687 0.985 . S
H692 N686 0.984 . S
H693 N686 0.984 . S
H694 N682 0.984 . S
H695 N682 0.985 . S
C696 C697 1.363 . S
C696 C702 1.379 . S
C696 N704 1.356 . S
C697 C696 1.363 . S
C697 C703 1.363 . S
C698 C699 1.363 . S
C698 C703 1.379 . S
C698 N705 1.356 . S
C699 C698 1.363 . S
C699 C702 1.363 . S
N700 C702 1.356 . S
N700 H712 0.984 . S
N700 H713 0.985 . S
N701 C703 1.356 1_545 S
N701 H706 0.984 . S
N701 H707 0.985 . S
C702 C696 1.379 . S
C702 C699 1.363 . S
C702 N700 1.356 . S
C703 C697 1.363 . S
C703 C698 1.379 . S
C703 N701 1.356 1_565 S
N704 C696 1.356 . S
N704 H710 0.984 . S
N704 H711 0.984 . S
N705 C698 1.356 . S
N705 H708 0.984 . S
N705 H709 0.985 . S
H706 N701 0.984 . S
H707 N701 0.985 . S
H708 N705 0.984 . S
H709 N705 0.985 . S
H710 N704 0.984 . S
H711 N704 0.984 . S
H712 N700 0.984 . S
H713 N700 0.985 . S
C714 C715 1.363 . S
C714 C720 1.379 . S
C714 N722 1.356 . S
C715 C714 1.363 . S
C715 C721 1.363 . S
C716 C717 1.363 . S
C716 C721 1.379 . S
C716 N723 1.356 . S
C717 C716 1.363 . S
C717 C720 1.363 . S
N718 C720 1.356 . S
N718 H730 0.984 . S
N718 H731 0.985 . S
N719 C721 1.356 . S
N719 H724 0.984 . S
N719 H725 0.985 . S
C720 C714 1.379 . S
C720 C717 1.363 . S
C720 N718 1.356 . S
C721 C715 1.363 . S
C721 C716 1.379 . S
C721 N719 1.356 . S
N722 C714 1.356 . S
N722 H728 0.984 . S
N722 H729 0.984 . S
N723 C716 1.356 . S
N723 H726 0.984 . S
N723 H727 0.985 . S
H724 N719 0.984 . S
H725 N719 0.985 . S
H726 N723 0.984 . S
H727 N723 0.985 . S
H728 N722 0.984 . S
H729 N722 0.984 . S
H730 N718 0.984 . S
H731 N718 0.985 . S
C732 C733 1.363 . S
C732 C738 1.379 . S
C732 N740 1.356 . S
C733 C732 1.363 . S
C733 C739 1.363 . S
C734 C735 1.363 . S
C734 C739 1.379 . S
C734 N741 1.356 . S
C735 C734 1.363 . S
C735 C738 1.363 . S
N736 C738 1.356 . S
N736 H748 0.984 . S
N736 H749 0.985 . S
N737 C739 1.356 . S
N737 H742 0.984 . S
N737 H743 0.985 . S
C738 C732 1.379 . S
C738 C735 1.363 . S
C738 N736 1.356 . S
C739 C733 1.363 . S
C739 C734 1.379 . S
C739 N737 1.356 . S
N740 C732 1.356 . S
N740 H746 0.984 . S
N740 H747 0.984 . S
N741 C734 1.356 . S
N741 H744 0.984 . S
N741 H745 0.985 . S
H742 N737 0.984 . S
H743 N737 0.985 . S
H744 N741 0.984 . S
H745 N741 0.985 . S
H746 N740 0.984 . S
H747 N740 0.984 . S
H748 N736 0.984 . S
H749 N736 0.985 . S
C750 C751 1.363 . S
C750 C756 1.379 . S
C750 N758 1.356 . S
C751 C750 1.363 . S
C751 C757 1.363 . S
C752 C753 1.363 . S
C752 C757 1.379 . S
C752 N759 1.356 . S
C753 C752 1.363 . S
C753 C756 1.363 . S
N754 C756 1.356 1_655 S
N754 H766 0.984 . S
N754 H767 0.985 . S
N755 C757 1.356 . S
N755 H760 0.984 . S
N755 H761 0.985 . S
C756 C750 1.379 . S
C756 C753 1.363 . S
C756 N754 1.356 1_455 S
C757 C751 1.363 . S
C757 C752 1.379 . S
C757 N755 1.356 . S
N758 C750 1.356 . S
N758 H764 0.984 . S
N758 H765 0.984 1_565 S
N759 C752 1.356 . S
N759 H762 0.984 . S
N759 H763 0.985 . S
H760 N755 0.984 . S
H761 N755 0.985 . S
H762 N759 0.984 . S
H763 N759 0.985 . S
H764 N758 0.984 . S
H765 N758 0.984 1_545 S
H766 N754 0.984 . S
H767 N754 0.985 . S
C768 C769 1.363 . S
C768 C774 1.379 . S
C768 N776 1.356 . S
C769 C768 1.363 . S
C769 C775 1.363 . S
C770 C771 1.363 . S
C770 C775 1.379 . S
C770 N777 1.356 . S
C771 C770 1.363 . S
C771 C774 1.363 . S
N772 C774 1.356 . S
N772 H784 0.984 . S
N772 H785 0.985 . S
N773 C775 1.356 . S
N773 H778 0.984 . S
N773 H779 0.985 . S
C774 C768 1.379 . S
C774 C771 1.363 . S
C774 N772 1.356 . S
C775 C769 1.363 . S
C775 C770 1.379 . S
C775 N773 1.356 . S
N776 C768 1.356 . S
N776 H782 0.984 . S
N776 H783 0.984 . S
N777 C770 1.356 . S
N777 H780 0.984 . S
N777 H781 0.985 . S
H778 N773 0.984 . S
H779 N773 0.985 . S
H780 N777 0.984 . S
H781 N777 0.985 . S
H782 N776 0.984 . S
H783 N776 0.984 . S
H784 N772 0.984 . S
H785 N772 0.985 . S
C786 C787 1.363 . S
C786 C792 1.379 . S
C786 N794 1.356 . S
C787 C786 1.363 . S
C787 C793 1.363 . S
C788 C789 1.363 . S
C788 C793 1.379 . S
C788 N795 1.356 . S
C789 C788 1.363 . S
C789 C792 1.363 . S
N790 C792 1.356 . S
N790 H802 0.984 . S
N790 H803 0.985 . S
N791 C793 1.356 . S
N791 H796 0.984 . S
N791 H797 0.985 . S
C792 C786 1.379 . S
C792 C789 1.363 . S
C792 N790 1.356 . S
C793 C787 1.363 . S
C793 C788 1.379 . S
C793 N791 1.356 . S
N794 C786 1.356 . S
N794 H800 0.984 . S
N794 H801 0.984 . S
N795 C788 1.356 . S
N795 H798 0.984 . S
N795 H799 0.985 . S
H796 N791 0.984 . S
H797 N791 0.985 . S
H798 N795 0.984 . S
H799 N795 0.985 . S
H800 N794 0.984 . S
H801 N794 0.984 . S
H802 N790 0.984 . S
H803 N790 0.985 . S
C804 C805 1.363 . S
C804 C810 1.379 . S
C804 N812 1.356 . S
C805 C804 1.363 . S
C805 C811 1.363 . S
C806 C807 1.363 . S
C806 C811 1.379 . S
C806 N813 1.356 . S
C807 C806 1.363 . S
C807 C810 1.363 . S
N808 C810 1.356 . S
N808 H820 0.984 . S
N808 H821 0.985 . S
N809 C811 1.356 . S
N809 H814 0.984 . S
N809 H815 0.985 . S
C810 C804 1.379 . S
C810 C807 1.363 . S
C810 N808 1.356 . S
C811 C805 1.363 . S
C811 C806 1.379 . S
C811 N809 1.356 . S
N812 C804 1.356 . S
N812 H818 0.984 . S
N812 H819 0.975 1_556 S
N813 C806 1.356 . S
N813 H816 0.984 . S
N813 H817 0.985 . S
H814 N809 0.984 . S
H815 N809 0.985 . S
H816 N813 0.984 . S
H817 N813 0.985 . S
H818 N812 0.984 . S
H819 N812 0.975 1_554 S
H820 N808 0.984 . S
H821 N808 0.985 . S
C822 C823 1.363 . S
C822 C828 1.379 . S
C822 N830 1.356 . S
C823 C822 1.363 . S
C823 C829 1.363 . S
C824 C825 1.363 . S
C824 C829 1.379 . S
C824 N831 1.356 . S
C825 C824 1.363 . S
C825 C828 1.363 . S
N826 C828 1.356 . S
N826 H838 0.984 . S
N826 H839 0.985 . S
N827 C829 1.356 . S
N827 H832 0.984 . S
N827 H833 0.985 . S
C828 C822 1.379 . S
C828 C825 1.363 . S
C828 N826 1.356 . S
C829 C823 1.363 . S
C829 C824 1.379 . S
C829 N827 1.356 . S
N830 C822 1.356 . S
N830 H836 0.984 . S
N830 H837 0.984 . S
N831 C824 1.356 . S
N831 H834 0.984 . S
N831 H835 0.985 . S
H832 N827 0.984 . S
H833 N827 0.985 . S
H834 N831 0.984 . S
H835 N831 0.985 . S
H836 N830 0.984 . S
H837 N830 0.984 . S
H838 N826 0.984 . S
H839 N826 0.985 . S
C840 C841 1.363 . S
C840 C846 1.379 . S
C840 N848 1.356 . S
C841 C840 1.363 . S
C841 C847 1.363 . S
C842 C843 1.363 . S
C842 C847 1.379 . S
C842 N849 1.356 . S
C843 C842 1.363 . S
C843 C846 1.363 . S
N844 C846 1.356 . S
N844 H856 0.984 . S
N844 H857 0.985 . S
N845 C847 1.356 . S
N845 H850 0.984 . S
N845 H851 0.985 . S
C846 C840 1.379 . S
C846 C843 1.363 . S
C846 N844 1.356 . S
C847 C841 1.363 . S
C847 C842 1.379 . S
C847 N845 1.356 . S
N848 C840 1.356 . S
N848 H854 0.984 . S
N848 H855 0.984 1_556 S
N849 C842 1.356 . S
N849 H852 0.984 . S
N849 H853 0.985 . S
H850 N845 0.984 . S
H851 N845 0.985 . S
H852 N849 0.984 . S
H853 N849 0.985 . S
H854 N848 0.984 . S
H855 N848 0.984 1_554 S
H856 N844 0.984 . S
H857 N844 0.985 . S
C858 C859 1.363 . S
C858 C864 1.379 . S
C858 N866 1.356 . S
C859 C858 1.363 . S
C859 C865 1.363 . S
C860 C861 1.363 . S
C860 C865 1.379 . S
C860 N867 1.356 . S
C861 C860 1.363 . S
C861 C864 1.363 . S
N862 C864 1.356 . S
N862 H874 0.984 . S
N862 H875 0.985 . S
N863 C865 1.356 . S
N863 H868 0.984 . S
N863 H869 0.985 . S
C864 C858 1.379 . S
C864 C861 1.363 . S
C864 N862 1.356 . S
C865 C859 1.363 . S
C865 C860 1.379 . S
C865 N863 1.356 . S
N866 C858 1.356 . S
N866 H872 0.984 . S
N866 H873 0.984 . S
N867 C860 1.356 . S
N867 H870 0.984 . S
N867 H871 0.985 . S
H868 N863 0.984 . S
H869 N863 0.985 . S
H870 N867 0.984 . S
H871 N867 0.985 . S
H872 N866 0.984 . S
H873 N866 0.984 . S
H874 N862 0.984 . S
H875 N862 0.985 . S
C876 C877 1.363 . S
C876 C882 1.379 . S
C876 N884 1.356 . S
C877 C876 1.363 . S
C877 C883 1.363 . S
C878 C879 1.363 . S
C878 C883 1.379 . S
C878 N885 1.356 . S
C879 C878 1.363 . S
C879 C882 1.363 . S
N880 C882 1.356 . S
N880 H892 0.984 . S
N880 H893 0.985 . S
N881 C883 1.356 . S
N881 H886 0.984 1_554 S
N881 H887 0.985 . S
C882 C876 1.379 . S
C882 C879 1.363 . S
C882 N880 1.356 . S
C883 C877 1.363 . S
C883 C878 1.379 . S
C883 N881 1.356 . S
N884 C876 1.356 . S
N884 H890 0.984 . S
N884 H891 0.984 . S
N885 C878 1.356 . S
N885 H888 0.984 . S
N885 H889 0.985 . S
H886 N881 0.984 1_556 S
H887 N881 0.985 . S
H888 N885 0.984 . S
H889 N885 0.985 . S
H890 N884 0.984 . S
H891 N884 0.984 . S
H892 N880 0.984 . S
H893 N880 0.985 . S
C894 C895 1.363 . S
C894 C900 1.379 . S
C894 N902 1.356 . S
C895 C894 1.363 . S
C895 C901 1.363 . S
C896 C897 1.363 . S
C896 C901 1.379 . S
C896 N903 1.356 . S
C897 C896 1.363 . S
C897 C900 1.363 . S
N898 C900 1.356 . S
N898 H910 0.984 . S
N898 H911 0.985 . S
N899 C901 1.356 . S
N899 H904 0.984 . S
N899 H905 0.985 . S
C900 C894 1.379 . S
C900 C897 1.363 . S
C900 N898 1.356 . S
C901 C895 1.363 . S
C901 C896 1.379 . S
C901 N899 1.356 . S
N902 C894 1.356 . S
N902 H908 0.984 . S
N902 H909 0.984 . S
N903 C896 1.356 . S
N903 H906 0.984 . S
N903 H907 0.985 . S
H904 N899 0.984 . S
H905 N899 0.985 . S
H906 N903 0.984 . S
H907 N903 0.985 . S
H908 N902 0.984 . S
H909 N902 0.984 . S
H910 N898 0.984 . S
H911 N898 0.985 . S
C912 C913 1.363 . S
C912 C918 1.379 . S
C912 N920 1.356 . S
C913 C912 1.363 . S
C913 C919 1.363 . S
C914 C915 1.363 . S
C914 C919 1.379 . S
C914 N921 1.356 . S
C915 C914 1.363 . S
C915 C918 1.363 . S
N916 C918 1.356 1_655 S
N916 H928 0.984 . S
N916 H929 0.985 . S
N917 C919 1.356 . S
N917 H922 0.984 . S
N917 H923 0.985 . S
C918 C912 1.379 . S
C918 C915 1.363 . S
C918 N916 1.356 1_455 S
C919 C913 1.363 . S
C919 C914 1.379 . S
C919 N917 1.356 . S
N920 C912 1.356 . S
N920 H926 0.984 1_455 S
N920 H927 0.984 . S
N921 C914 1.356 . S
N921 H924 0.984 . S
N921 H925 0.985 . S
H922 N917 0.984 . S
H923 N917 0.985 . S
H924 N921 0.984 . S
H925 N921 0.985 . S
H926 N920 0.984 1_655 S
H927 N920 0.984 . S
H928 N916 0.984 . S
H929 N916 0.985 . S
C930 C931 1.363 . S
C930 C936 1.379 . S
C930 N938 1.356 . S
C931 C930 1.363 . S
C931 C937 1.363 . S
C932 C933 1.363 . S
C932 C937 1.379 . S
C932 N939 1.356 . S
C933 C932 1.363 . S
C933 C936 1.363 . S
N934 C936 1.356 . S
N934 H946 0.984 . S
N934 H947 0.985 . S
N935 C937 1.356 . S
N935 H940 0.984 . S
N935 H941 0.985 . S
C936 C930 1.379 . S
C936 C933 1.363 . S
C936 N934 1.356 . S
C937 C931 1.363 . S
C937 C932 1.379 . S
C937 N935 1.356 . S
N938 C930 1.356 . S
N938 H944 0.984 . S
N938 H945 0.984 . S
N939 C932 1.356 . S
N939 H942 0.984 . S
N939 H943 0.985 . S
H940 N935 0.984 . S
H941 N935 0.985 . S
H942 N939 0.984 . S
H943 N939 0.985 . S
H944 N938 0.984 . S
H945 N938 0.984 . S
H946 N934 0.984 . S
H947 N934 0.985 . S
C948 C949 1.363 . S
C948 C954 1.379 . S
C948 N956 1.356 . S
C949 C948 1.363 . S
C949 C955 1.363 . S
C950 C951 1.363 . S
C950 C955 1.379 . S
C950 N957 1.356 . S
C951 C950 1.363 . S
C951 C954 1.363 . S
N952 C954 1.356 . S
N952 H964 0.984 . S
N952 H965 0.985 . S
N953 C955 1.356 . S
N953 H958 0.984 . S
N953 H959 0.985 . S
C954 C948 1.379 . S
C954 C951 1.363 . S
C954 N952 1.356 . S
C955 C949 1.363 . S
C955 C950 1.379 . S
C955 N953 1.356 . S
N956 C948 1.356 . S
N956 H962 0.984 . S
N956 H963 0.984 . S
N957 C950 1.356 . S
N957 H960 0.984 . S
N957 H961 0.985 . S
H958 N953 0.984 . S
H959 N953 0.985 . S
H960 N957 0.984 . S
H961 N957 0.985 . S
H962 N956 0.984 . S
H963 N956 0.984 . S
H964 N952 0.984 . S
H965 N952 0.985 . S
C966 C967 1.363 . S
C966 C972 1.379 . S
C966 N974 1.356 . S
C967 C966 1.363 . S
C967 C973 1.363 . S
C968 C969 1.363 . S
C968 C973 1.379 . S
C968 N975 1.356 . S
C969 C968 1.363 . S
C969 C972 1.363 . S
N970 C972 1.356 . S
N970 H982 0.984 . S
N970 H983 0.985 . S
N971 C973 1.356 . S
N971 H976 0.984 . S
N971 H977 0.985 . S
C972 C966 1.379 . S
C972 C969 1.363 . S
C972 N970 1.356 . S
C973 C967 1.363 . S
C973 C968 1.379 . S
C973 N971 1.356 . S
N974 C966 1.356 . S
N974 H980 0.984 . S
N974 H981 0.984 . S
N975 C968 1.356 . S
N975 H978 0.984 . S
N975 H979 0.985 . S
H976 N971 0.984 . S
H977 N971 0.985 . S
H978 N975 0.984 . S
H979 N975 0.985 . S
H980 N974 0.984 . S
H981 N974 0.984 . S
H982 N970 0.984 . S
H983 N970 0.985 . S
C984 C985 1.363 . S
C984 C990 1.379 . S
C984 N992 1.356 . S
C985 C984 1.363 . S
C985 C991 1.363 . S
C986 C987 1.363 . S
C986 C991 1.379 . S
C986 N993 1.356 . S
C987 C986 1.363 . S
C987 C990 1.363 . S
N988 C990 1.356 . S
N988 H1000 0.984 1_655 S
N988 H1001 0.985 . S
N989 C991 1.356 . S
N989 H994 0.984 . S
N989 H995 0.985 . S
C990 C984 1.379 . S
C990 C987 1.363 . S
C990 N988 1.356 . S
C991 C985 1.363 . S
C991 C986 1.379 . S
C991 N989 1.356 . S
N992 C984 1.356 . S
N992 H998 0.984 . S
N992 H999 0.984 . S
N993 C986 1.356 . S
N993 H996 0.984 . S
N993 H997 0.985 . S
H994 N989 0.984 . S
H995 N989 0.985 . S
H996 N993 0.984 . S
H997 N993 0.985 . S
H998 N992 0.984 . S
H999 N992 0.984 . S
H1000 N988 0.984 1_455 S
H1001 N988 0.985 . S
C1002 C1003 1.363 . S
C1002 C1008 1.379 . S
C1002 N1010 1.356 . S
C1003 C1002 1.363 . S
C1003 C1009 1.363 . S
C1004 C1005 1.363 . S
C1004 C1009 1.379 . S
C1004 N1011 1.356 . S
C1005 C1004 1.363 . S
C1005 C1008 1.363 . S
N1006 C1008 1.356 . S
N1006 H1018 0.984 . S
N1006 H1019 0.985 . S
N1007 C1009 1.356 . S
N1007 H1012 0.984 . S
N1007 H1013 0.985 . S
C1008 C1002 1.379 . S
C1008 C1005 1.363 . S
C1008 N1006 1.356 . S
C1009 C1003 1.363 . S
C1009 C1004 1.379 . S
C1009 N1007 1.356 . S
N1010 C1002 1.356 . S
N1010 H1016 0.984 . S
N1010 H1017 0.984 . S
N1011 C1004 1.356 . S
N1011 H1014 0.984 . S
N1011 H1015 0.985 . S
H1012 N1007 0.984 . S
H1013 N1007 0.985 . S
H1014 N1011 0.984 . S
H1015 N1011 0.985 . S
H1016 N1010 0.984 . S
H1017 N1010 0.984 . S
H1018 N1006 0.984 . S
H1019 N1006 0.985 . S
C1020 C1021 1.363 . S
C1020 C1026 1.379 . S
C1020 N1028 1.356 . S
C1021 C1020 1.363 . S
C1021 C1027 1.363 . S
C1022 C1023 1.363 . S
C1022 C1027 1.379 . S
C1022 N1029 1.356 . S
C1023 C1022 1.363 . S
C1023 C1026 1.363 . S
N1024 C1026 1.356 . S
N1024 H1036 0.984 . S
N1024 H1037 0.985 . S
N1025 C1027 1.356 . S
N1025 H1030 0.984 . S
N1025 H1031 0.985 . S
C1026 C1020 1.379 . S
C1026 C1023 1.363 . S
C1026 N1024 1.356 . S
C1027 C1021 1.363 . S
C1027 C1022 1.379 . S
C1027 N1025 1.356 . S
N1028 C1020 1.356 . S
N1028 H1034 0.984 . S
N1028 H1035 0.984 . S
N1029 C1022 1.356 . S
N1029 H1032 0.984 . S
N1029 H1033 0.985 . S
H1030 N1025 0.984 . S
H1031 N1025 0.985 . S
H1032 N1029 0.984 . S
H1033 N1029 0.985 . S
H1034 N1028 0.984 . S
H1035 N1028 0.984 . S
H1036 N1024 0.984 . S
H1037 N1024 0.985 . S
C1038 C1039 1.363 . S
C1038 C1044 1.379 . S
C1038 N1046 1.356 . S
C1039 C1038 1.363 . S
C1039 C1045 1.363 . S
C1040 C1041 1.363 . S
C1040 C1045 1.379 . S
C1040 N1047 1.356 . S
C1041 C1040 1.363 . S
C1041 C1044 1.363 . S
N1042 C1044 1.356 . S
N1042 H1054 0.984 . S
N1042 H1055 0.985 . S
N1043 C1045 1.356 . S
N1043 H1048 0.984 . S
N1043 H1049 0.985 . S
C1044 C1038 1.379 . S
C1044 C1041 1.363 . S
C1044 N1042 1.356 . S
C1045 C1039 1.363 . S
C1045 C1040 1.379 . S
C1045 N1043 1.356 . S
N1046 C1038 1.356 . S
N1046 H1052 0.984 . S
N1046 H1053 0.984 . S
N1047 C1040 1.356 . S
N1047 H1050 0.984 . S
N1047 H1051 0.985 . S
H1048 N1043 0.984 . S
H1049 N1043 0.985 . S
H1050 N1047 0.984 . S
H1051 N1047 0.985 . S
H1052 N1046 0.984 . S
H1053 N1046 0.984 . S
H1054 N1042 0.984 . S
H1055 N1042 0.985 . S
C625 C247 1.488 1_545 S
C627 C344 1.470 . S
C645 C428 1.470 . S
C643 C283 1.488 . S
C663 C427 1.478 . S
C661 C175 1.487 . S
C679 C211 1.486 1_545 S
C681 C343 1.478 . S
C699 C524 1.470 . S
C697 C103 1.472 1_565 S
C717 C608 1.470 . S
C715 C139 1.472 . S
C733 C31 1.466 . S
C735 C607 1.478 . S
C751 C67 1.466 1_565 S
C753 C523 1.478 . S
C771 C346 1.317 . S
C769 C37 1.509 . S
C789 C430 1.317 . S
C787 C1 1.509 . S
C807 C442 1.401 . S
C805 C109 1.528 . S
C825 C358 1.401 . S
C823 C73 1.527 . S
C843 C526 1.317 . S
C841 C181 1.527 . S
C859 C145 1.527 . S
C861 C610 1.317 . S
C879 C598 1.401 . S
C877 C253 1.575 . S
C895 C217 1.542 . S
C897 C514 1.401 . S
C915 C355 1.578 . S
C913 C25 1.544 . S
C933 C439 1.578 . S
C931 C61 1.544 . S
C949 C97 1.534 . S
C951 C440 1.561 . S
C969 C356 1.561 . S
C967 C133 1.534 . S
C987 C511 1.578 . S
C985 C169 1.570 . S
C1003 C205 1.570 . S
C1005 C595 1.578 . S
C1021 C241 1.556 . S
C1023 C596 1.561 . S
C1039 C277 1.556 . S
C1041 C512 1.561 . S
