# Generated by pormake.
# Topology pyr, (3,6)-cn, num edge types: 1
# Building blocks:
#     Node 0, Type 0, BuildingBlock: PAMTOO_clean_linker_0, # of connection points: 3
#     Node 1, Type 0, BuildingBlock: PAMTOO_clean_linker_0, # of connection points: 3
#     Node 2, Type 0, BuildingBlock: PAMTOO_clean_linker_0, # of connection points: 3
#     Node 3, Type 0, BuildingBlock: PAMTOO_clean_linker_0, # of connection points: 3
#     Node 4, Type 0, BuildingBlock: PAMTOO_clean_linker_0, # of connection points: 3
#     Node 5, Type 0, BuildingBlock: PAMTOO_clean_linker_0, # of connection points: 3
#     Node 6, Type 0, BuildingBlock: PAMTOO_clean_linker_0, # of connection points: 3
#     Node 7, Type 0, BuildingBlock: PAMTOO_clean_linker_0, # of connection points: 3
#     Node 8, Type 1, BuildingBlock: PAMTUU_clean_sbu_0, # of connection points: 6
#     Node 9, Type 1, BuildingBlock: PAMTUU_clean_sbu_0, # of connection points: 6
#     Node 10, Type 1, BuildingBlock: PAMTUU_clean_sbu_0, # of connection points: 6
#     Node 11, Type 1, BuildingBlock: PAMTUU_clean_sbu_0, # of connection points: 6
#     Edge 12, Type (0, 1), BuildingBlock: MIFKUJ_clean_linker_0, # of connection points: 2
#     Edge 13, Type (0, 1), BuildingBlock: MIFKUJ_clean_linker_0, # of connection points: 2
#     Edge 14, Type (0, 1), BuildingBlock: MIFKUJ_clean_linker_0, # of connection points: 2
#     Edge 15, Type (0, 1), BuildingBlock: MIFKUJ_clean_linker_0, # of connection points: 2
#     Edge 16, Type (0, 1), BuildingBlock: MIFKUJ_clean_linker_0, # of connection points: 2
#     Edge 17, Type (0, 1), BuildingBlock: MIFKUJ_clean_linker_0, # of connection points: 2
#     Edge 18, Type (0, 1), BuildingBlock: MIFKUJ_clean_linker_0, # of connection points: 2
#     Edge 19, Type (0, 1), BuildingBlock: MIFKUJ_clean_linker_0, # of connection points: 2
#     Edge 20, Type (0, 1), BuildingBlock: MIFKUJ_clean_linker_0, # of connection points: 2
#     Edge 21, Type (0, 1), BuildingBlock: MIFKUJ_clean_linker_0, # of connection points: 2
#     Edge 22, Type (0, 1), BuildingBlock: MIFKUJ_clean_linker_0, # of connection points: 2
#     Edge 23, Type (0, 1), BuildingBlock: MIFKUJ_clean_linker_0, # of connection points: 2
#     Edge 24, Type (0, 1), BuildingBlock: MIFKUJ_clean_linker_0, # of connection points: 2
#     Edge 25, Type (0, 1), BuildingBlock: MIFKUJ_clean_linker_0, # of connection points: 2
#     Edge 26, Type (0, 1), BuildingBlock: MIFKUJ_clean_linker_0, # of connection points: 2
#     Edge 27, Type (0, 1), BuildingBlock: MIFKUJ_clean_linker_0, # of connection points: 2
#     Edge 28, Type (0, 1), BuildingBlock: MIFKUJ_clean_linker_0, # of connection points: 2
#     Edge 29, Type (0, 1), BuildingBlock: MIFKUJ_clean_linker_0, # of connection points: 2
#     Edge 30, Type (0, 1), BuildingBlock: MIFKUJ_clean_linker_0, # of connection points: 2
#     Edge 31, Type (0, 1), BuildingBlock: MIFKUJ_clean_linker_0, # of connection points: 2
#     Edge 32, Type (0, 1), BuildingBlock: MIFKUJ_clean_linker_0, # of connection points: 2
#     Edge 33, Type (0, 1), BuildingBlock: MIFKUJ_clean_linker_0, # of connection points: 2
#     Edge 34, Type (0, 1), BuildingBlock: MIFKUJ_clean_linker_0, # of connection points: 2
#     Edge 35, Type (0, 1), BuildingBlock: MIFKUJ_clean_linker_0, # of connection points: 2
# Relax obj value: 0.127
# Max RMSD: 0.225
# Mean RMSD: 0.142
data_MOF--net-pyr--node1-PAMTUU_clean_sbu_0--node2-PAMTOO_clean_linker_0--edge1-MIFKUJ_clean_linker_0
_symmetry_space_group_name_H-M    P1
_symmetry_Int_Tables_number       1
_symmetry_cell_setting            triclinic
loop_
_symmetry_equiv_pos_as_xyz
'x, y, z'
_cell_length_a     48.580659
_cell_length_b     51.681445
_cell_length_c     49.016679
_cell_angle_alpha  90.395093
_cell_angle_beta   89.765328
_cell_angle_gamma 104.01955
loop_
_atom_site_label
_atom_site_type_symbol
_atom_site_fract_x
_atom_site_fract_y
_atom_site_fract_z
_atom_type_partial_charge
H0 H 0.29173 0.28128 0.2295 0.0
H1 H 0.3327 0.2166 0.23635 0.0
H2 H 0.33511 0.2577 0.16033 0.0
H3 H 0.31997 0.19804 0.15867 0.0
C4 C 0.33412 0.19432 0.17523 0.0
O5 O 0.34932 0.21845 0.18559 0.0
H6 H 0.32087 0.18261 0.19159 0.0
C7 C 0.30486 0.26911 0.2207 0.0
C8 C 0.31347 0.27268 0.19331 0.0
C9 C 0.31154 0.24891 0.23639 0.0
C10 C 0.3279 0.23274 0.22476 0.0
C11 C 0.33612 0.23583 0.19733 0.0
C12 C 0.32903 0.2558 0.18165 0.0
H13 H 0.21646 0.83525 0.72915 0.0
H14 H 0.20716 0.78421 0.65835 0.0
H15 H 0.27113 0.7817 0.71759 0.0
H16 H 0.2775 0.79286 0.65066 0.0
C17 C 0.26686 0.7712 0.64903 0.0
O18 O 0.24893 0.76287 0.67087 0.0
H19 H 0.25413 0.76855 0.62997 0.0
C20 C 0.2225 0.81951 0.71761 0.0
C21 C 0.245 0.80918 0.72684 0.0
C22 C 0.20887 0.81089 0.69283 0.0
C23 C 0.21716 0.79087 0.67773 0.0
C24 C 0.23947 0.78035 0.68678 0.0
C25 C 0.25327 0.78937 0.71132 0.0
H26 H 0.7291 0.33246 0.90735 0.0
H27 H 0.66381 0.32369 0.84614 0.0
H28 H 0.73363 0.393 0.84651 0.0
H29 H 0.67355 0.3998 0.83683 0.0
C30 C 0.66741 0.38398 0.82092 0.0
O31 O 0.68728 0.36859 0.82056 0.0
H32 H 0.64642 0.37116 0.8268 0.0
C33 C 0.72006 0.33994 0.88983 0.0
C34 C 0.73453 0.36468 0.87875 0.0
C35 C 0.69435 0.32469 0.8787 0.0
C36 C 0.68338 0.33479 0.85533 0.0
C37 C 0.6974 0.35952 0.84377 0.0
C38 C 0.72276 0.3743 0.85572 0.0
H39 H 0.87728 0.71565 0.41118 0.0
H40 H 0.874 0.65315 0.35169 0.0
H41 H 0.94419 0.72228 0.3518 0.0
H42 H 0.92165 0.6988 0.29538 0.0
C43 C 0.9164 0.67732 0.30091 0.0
O44 O 0.92276 0.6752 0.32837 0.0
H45 H 0.8932 0.66947 0.29781 0.0
C46 C 0.88632 0.7076 0.39382 0.0
C47 C 0.91237 0.72235 0.38305 0.0
C48 C 0.87185 0.6827 0.38283 0.0
C49 C 0.88442 0.67225 0.36051 0.0
C50 C 0.91037 0.68644 0.34907 0.0
C51 C 0.92406 0.71159 0.3603 0.0
H52 H 0.73638 0.82585 0.8607 0.0
H53 H 0.7095 0.77278 0.92841 0.0
H54 H 0.77717 0.76244 0.87649 0.0
H55 H 0.73309 0.71572 0.8927 0.0
C56 C 0.73987 0.71912 0.91438 0.0
O57 O 0.74786 0.74598 0.92066 0.0
H58 H 0.7216 0.70963 0.92757 0.0
C59 C 0.73761 0.80836 0.87225 0.0
C60 C 0.75823 0.79453 0.86526 0.0
C61 C 0.72005 0.80096 0.89518 0.0
C62 C 0.72272 0.77887 0.91061 0.0
C63 C 0.74345 0.76527 0.90401 0.0
C64 C 0.76118 0.77312 0.88146 0.0
H65 H 0.86059 0.2092 0.34222 0.0
H66 H 0.82649 0.27715 0.35978 0.0
H67 H 0.88648 0.2568 0.41426 0.0
H68 H 0.85099 0.28507 0.4476 0.0
C69 C 0.83659 0.28222 0.42968 0.0
O70 O 0.85296 0.28836 0.40638 0.0
H71 H 0.82446 0.26093 0.42974 0.0
C72 C 0.85992 0.22637 0.35479 0.0
C73 C 0.8762 0.23123 0.37874 0.0
C74 C 0.84195 0.24286 0.34758 0.0
C75 C 0.84037 0.26434 0.36477 0.0
C76 C 0.85647 0.26926 0.38867 0.0
C77 C 0.87482 0.25317 0.39526 0.0
H78 H 0.37138 0.70805 0.16084 0.0
H79 H 0.36579 0.64797 0.22224 0.0
H80 H 0.43239 0.71971 0.22644 0.0
H81 H 0.45138 0.67148 0.24353 0.0
C82 C 0.43079 0.6588 0.25071 0.0
O83 O 0.41041 0.67362 0.25019 0.0
H84 H 0.42464 0.6418 0.23611 0.0
C85 C 0.37933 0.70145 0.17949 0.0
C86 C 0.40368 0.71767 0.1921 0.0
C87 C 0.36518 0.67643 0.19012 0.0
C88 C 0.37643 0.667 0.21355 0.0
C89 C 0.40085 0.68242 0.22655 0.0
C90 C 0.41419 0.70771 0.21582 0.0
H91 H 0.13383 0.32256 0.75694 0.0
H92 H 0.20394 0.39227 0.75855 0.0
H93 H 0.2009 0.33345 0.69643 0.0
H94 H 0.25669 0.35717 0.72081 0.0
C95 C 0.25559 0.37843 0.72035 0.0
O96 O 0.22826 0.37995 0.71395 0.0
H97 H 0.26099 0.38681 0.74115 0.0
C98 C 0.15363 0.33393 0.74841 0.0
C99 C 0.16513 0.32435 0.72462 0.0
C100 C 0.16772 0.3583 0.76133 0.0
C101 C 0.19318 0.37329 0.74962 0.0
C102 C 0.20469 0.36444 0.72603 0.0
C103 C 0.19096 0.34004 0.71409 0.0
Tb104 Tb 0.06429 0.03317 0.52932 0.0
Tb105 Tb 0.01027 0.01703 0.57099 0.0
C106 C 0.01747 0.97851 0.52308 0.0
C107 C 0.12005 0.07021 0.48145 0.0
C108 C 0.15102 0.11558 0.45361 0.0
C109 C 0.13487 0.09359 0.4391 0.0
C110 C 0.11966 0.07113 0.45288 0.0
C111 C 0.13582 0.09232 0.49612 0.0
C112 C 0.15131 0.11479 0.48227 0.0
C113 C 0.10407 0.04584 0.49511 0.0
O114 O 0.03914 0.06162 0.52242 0.0
O115 O 0.9964 0.03497 0.53503 0.0
O116 O 0.03079 0.05848 0.5817 0.0
O117 O 0.07505 0.06251 0.56272 0.0
O118 O 0.9668 0.9997 0.57632 0.0
O119 O 0.99276 0.01844 0.60998 0.0
O120 O 0.04392 1.00301 0.59068 0.0
O121 O 0.07239 1.00102 0.55356 0.0
O122 O 0.03338 0.99941 0.51061 0.0
O123 O 0.01055 0.9801 0.54891 0.0
C124 C 0.01144 0.05567 0.52191 0.0
O125 O 0.10808 0.04351 0.52121 0.0
O126 O 0.07737 0.03795 0.48851 0.0
C127 C 0.05768 0.07126 0.57922 0.0
C128 C 0.9555 0.98081 0.62029 0.0
C129 C 0.92936 0.93851 0.65496 0.0
C130 C 0.94938 0.96071 0.6653 0.0
C131 C 0.96221 0.98166 0.64819 0.0
C132 C 0.9357 0.95846 0.60985 0.0
C133 C 0.92279 0.93752 0.62702 0.0
C134 C 0.96813 1.00374 0.60262 0.0
C135 C 0.0646 0.99483 0.5788 0.0
H136 H 0.13464 0.09342 0.417 0.0
H137 H 0.10776 0.05428 0.44116 0.0
H138 H 0.13636 0.09221 0.51821 0.0
H139 H 0.16353 0.13151 0.49393 0.0
H140 H 0.95448 0.96229 0.68684 0.0
H141 H 0.97706 0.99876 0.65694 0.0
H142 H 0.92988 0.95727 0.58849 0.0
H143 H 0.90752 0.9206 0.61847 0.0
Tb144 Tb 0.57713 0.02744 0.05887 0.0
Tb145 Tb 0.53023 1.01168 1.00958 0.0
C146 C 0.58626 0.99456 1.00846 0.0
C147 C 0.63222 0.0629 0.10883 0.0
C148 C 0.66629 0.10668 0.13698 0.0
C149 C 0.67446 0.08243 0.13497 0.0
C150 C 0.65755 0.06076 0.12103 0.0
C151 C 0.62417 0.0872 0.11016 0.0
C152 C 0.64106 0.10894 0.12426 0.0
C153 C 0.61437 0.03924 0.09556 0.0
O154 O 0.59085 0.05916 0.02851 0.0
O155 O 0.55081 0.05351 1.00178 0.0
O156 O 0.50845 0.02279 0.04483 0.0
O157 O 0.5465 0.05119 0.06511 0.0
O158 O 0.51748 0.98847 0.97472 0.0
O159 O 0.49474 0.01745 0.9881 0.0
O160 O 0.52233 0.97548 0.0345 0.0
O161 O 0.54729 0.99133 0.07365 0.0
O162 O 0.58625 0.99511 0.03509 0.0
O163 O 0.57123 1.0079 0.9949 0.0
C164 C 0.57605 0.06753 1.00937 0.0
O165 O 0.58713 0.03444 0.10023 0.0
O166 O 0.62006 0.03548 0.07002 0.0
C167 C 0.51906 0.04272 0.0614 0.0
C168 C 0.4683 0.97881 0.96457 0.0
C169 C 0.41862 0.94485 0.94292 0.0
C170 C 0.41832 0.97042 0.95274 0.0
C171 C 0.44297 0.98729 0.96332 0.0
C172 C 0.46813 0.95267 0.95627 0.0
C173 C 0.44358 0.9359 0.9456 0.0
C174 C 0.49536 0.99812 0.97101 0.0
C175 C 0.52927 0.97244 0.06009 0.0
H176 H 0.69349 0.07988 0.14492 0.0
H177 H 0.66403 0.04212 0.1202 0.0
H178 H 0.60471 0.08922 0.10066 0.0
H179 H 0.63435 0.12744 0.12534 0.0
H180 H 0.39933 0.9778 0.95128 0.0
H181 H 0.44248 1.00736 0.96943 0.0
H182 H 0.48732 0.94553 0.95671 0.0
H183 H 0.44476 0.91651 0.93788 0.0
Tb184 Tb 0.55218 0.50181 0.5199 0.0
Tb185 Tb 0.556 0.55602 0.55599 0.0
C186 C 0.52775 0.54891 0.49693 0.0
C187 C 0.57416 0.44775 0.484 0.0
C188 C 0.61787 0.4226 0.471 0.0
C189 C 0.58961 0.41073 0.46369 0.0
C190 C 0.5679 0.42324 0.47018 0.0
C191 C 0.60231 0.45983 0.49105 0.0
C192 C 0.62398 0.4474 0.48455 0.0
C193 C 0.55143 0.46057 0.49168 0.0
O194 O 0.59098 0.52969 0.50598 0.0
O195 O 0.59922 0.56098 0.54054 0.0
O196 O 0.56918 0.52809 0.58366 0.0
O197 O 0.58061 0.49813 0.55353 0.0
O198 O 0.56565 0.5978 0.55968 0.0
O199 O 0.54965 0.57275 0.59397 0.0
O200 O 0.51152 0.53409 0.5583 0.0
O201 O 0.51636 0.49205 0.54822 0.0
O202 O 0.52435 0.5229 0.49881 0.0
O203 O 0.54265 0.56518 0.51521 0.0
C204 C 0.60734 0.55051 0.51824 0.0
O205 O 0.54548 0.46014 0.51761 0.0
O206 O 0.55351 0.48412 0.48138 0.0
C207 C 0.58054 0.50789 0.57842 0.0
C208 C 0.53424 0.61206 0.59 0.0
C209 C 0.49078 0.63784 0.60264 0.0
C210 C 0.51082 0.6353 0.62247 0.0
C211 C 0.53237 0.62257 0.61616 0.0
C212 C 0.51443 0.61461 0.57006 0.0
C213 C 0.49301 0.62754 0.57627 0.0
C214 C 0.55567 0.5969 0.58446 0.0
C215 C 0.50183 0.50803 0.55892 0.0
H216 H 0.58419 0.3915 0.45351 0.0
H217 H 0.54622 0.41366 0.4647 0.0
H218 H 0.60747 0.47881 0.50174 0.0
H219 H 0.64555 0.45725 0.49012 0.0
H220 H 0.5095 0.64257 0.64308 0.0
H221 H 0.54726 0.62046 0.6319 0.0
H222 H 0.5153 0.60637 0.54978 0.0
H223 H 0.47823 0.62946 0.56038 0.0
Tb224 Tb 0.05197 0.54182 0.01846 0.0
Tb225 Tb 0.04757 0.48946 0.05527 0.0
C226 C 0.07266 0.49195 0.99622 0.0
C227 C 0.0295 0.59517 0.9838 0.0
C228 C 0.98256 0.61526 0.96998 0.0
C229 C 1.00757 0.62183 0.95426 0.0
C230 C 0.03087 0.61173 0.9611 0.0
C231 C 1.00488 0.58917 0.99993 0.0
C232 C 0.98164 0.59917 0.99312 0.0
C233 C 0.05239 0.582 0.98932 0.0
O234 O 1.00682 0.5218 1.01808 0.0
O235 O 0.01111 0.47976 0.02777 0.0
O236 O 0.02073 0.51147 0.07719 0.0
O237 O 0.03944 0.55283 0.05921 0.0
O238 O 0.03841 0.44772 0.05761 0.0
O239 O 0.05143 0.47208 0.0933 0.0
O240 O 0.08495 0.51874 0.06999 0.0
O241 O 0.0956 0.54518 0.03229 0.0
O242 O 0.05889 0.5103 0.9909 0.0
O243 O 0.07667 0.48586 0.02168 0.0
C244 C 0.99651 0.49582 1.01771 0.0
O245 O 0.06145 0.58352 1.01438 0.0
O246 O 0.04797 0.5578 0.97984 0.0
C247 C 0.02464 0.53762 0.07825 0.0
C248 C 0.06872 0.43367 0.08864 0.0
C249 C 0.11265 0.40893 0.10129 0.0
C250 C 0.09324 0.41247 0.12149 0.0
C251 C 0.07139 0.42468 0.11517 0.0
C252 C 0.08799 0.43001 0.06836 0.0
C253 C 0.10965 0.41757 0.07461 0.0
C254 C 0.04692 0.44823 0.08281 0.0
C255 C 0.10267 0.53741 0.05625 0.0
H256 H 0.00878 0.63403 0.93621 0.0
H257 H 0.04963 0.61627 0.94829 0.0
H258 H 1.0034 0.57625 1.01747 0.0
H259 H 0.96284 0.59411 1.00585 0.0
H260 H 0.09498 0.4058 0.14218 0.0
H261 H 0.05682 0.42748 0.1311 0.0
H262 H 0.08662 0.43712 0.04779 0.0
H263 H 0.12453 0.41535 0.05875 0.0
H264 H 0.25614 0.2427 0.24982 0.0
H265 H 0.23326 0.22864 0.29332 0.0
H266 H 0.31433 0.2269 0.32806 0.0
H267 H 0.33727 0.24016 0.2839 0.0
H268 H 0.27751 0.18357 0.34006 0.0
H269 H 0.27662 0.27545 0.34677 0.0
H270 H 0.26868 0.31804 0.33032 0.0
H271 H 0.17959 0.28226 0.32238 0.0
H272 H 0.18701 0.23935 0.33842 0.0
H273 H 0.20639 0.14095 0.46297 0.0
H274 H 0.23768 0.17314 0.43323 0.0
H275 H 0.1672 0.17305 0.37994 0.0
H276 H 0.13572 0.14132 0.40987 0.0
H277 H 0.20458 0.22297 0.38362 0.0
H278 H 0.2072 0.13076 0.36773 0.0
H279 H 0.21415 0.08696 0.38145 0.0
H280 H 0.29988 0.12357 0.40496 0.0
H281 H 0.29326 0.16767 0.39173 0.0
C282 C 0.26918 0.23982 0.26688 0.0
C283 C 0.2985 0.24268 0.26362 0.0
C284 C 0.25609 0.2319 0.29181 0.0
C285 C 0.27213 0.22724 0.31421 0.0
C286 C 0.30156 0.23055 0.31112 0.0
C287 C 0.31463 0.23809 0.28596 0.0
C288 C 0.25764 0.21663 0.33994 0.0
C289 C 0.26218 0.19266 0.35002 0.0
C290 C 0.23712 0.22811 0.35263 0.0
C291 C 0.23241 0.25413 0.34374 0.0
C292 C 0.25534 0.27664 0.34145 0.0
C293 C 0.25093 0.30084 0.33219 0.0
C294 C 0.22365 0.30285 0.32531 0.0
C295 C 0.2007 0.28069 0.32777 0.0
C296 C 0.20499 0.25643 0.337 0.0
C297 C 0.19742 0.1484 0.44536 0.0
C298 C 0.16873 0.13838 0.43849 0.0
C299 C 0.21533 0.16668 0.42834 0.0
C300 C 0.2048 0.17513 0.40421 0.0
C301 C 0.17574 0.16671 0.39844 0.0
C302 C 0.15785 0.14842 0.4154 0.0
C303 C 0.22437 0.18994 0.3833 0.0
C304 C 0.22061 0.21449 0.37408 0.0
C305 C 0.24559 0.17902 0.37127 0.0
C306 C 0.24963 0.15252 0.37909 0.0
C307 C 0.22745 0.12949 0.37603 0.0
C308 C 0.23134 0.10461 0.38369 0.0
C309 C 0.25741 0.1025 0.39416 0.0
C310 C 0.27968 0.12525 0.39692 0.0
C311 C 0.27587 0.15019 0.38935 0.0
H312 H 0.26039 0.08322 0.40007 0.0
H313 H 0.2203 0.32158 0.31804 0.0
H314 H 0.26372 0.78312 0.76889 0.0
H315 H 0.29089 0.80323 0.80911 0.0
H316 H 0.28982 0.88158 0.78003 0.0
H317 H 0.26346 0.8618 0.73978 0.0
H318 H 0.34199 0.8791 0.79596 0.0
H319 H 0.24648 0.85292 0.83142 0.0
H320 H 0.20101 0.82111 0.84174 0.0
H321 H 0.24438 0.77522 0.891 0.0
H322 H 0.29019 0.80658 0.88065 0.0
H323 H 0.38635 0.96309 0.90563 0.0
H324 H 0.35307 0.93683 0.87313 0.0
H325 H 0.36409 0.86428 0.90946 0.0
H326 H 0.39679 0.8905 0.94297 0.0
H327 H 0.30835 0.86021 0.8912 0.0
H328 H 0.40361 0.88733 0.85702 0.0
H329 H 0.44895 0.9195 0.84712 0.0
H330 H 0.40592 0.96338 0.79508 0.0
H331 H 0.36023 0.9317 0.80503 0.0
C332 C 0.26939 0.80462 0.77112 0.0
C333 C 0.26125 0.82088 0.75135 0.0
C334 C 0.28469 0.81605 0.79415 0.0
C335 C 0.2921 0.84388 0.79764 0.0
C336 C 0.28421 0.86007 0.77778 0.0
C337 C 0.26894 0.84871 0.7549 0.0
C338 C 0.30872 0.8565 0.82155 0.0
C339 C 0.33448 0.87512 0.81675 0.0
C340 C 0.2993 0.85072 0.84871 0.0
C341 C 0.27179 0.83192 0.855 0.0
C342 C 0.24635 0.83592 0.84425 0.0
C343 C 0.22051 0.818 0.85015 0.0
C344 C 0.21982 0.79611 0.86694 0.0
C345 C 0.24496 0.79215 0.87795 0.0
C346 C 0.27086 0.81 0.87209 0.0
C347 C 0.38103 0.94158 0.90743 0.0
C348 C 0.39451 0.9289 0.92676 0.0
C349 C 0.36217 0.92659 0.88862 0.0
C350 C 0.35664 0.89866 0.88856 0.0
C351 C 0.36829 0.88584 0.90907 0.0
C352 C 0.38713 0.90085 0.92803 0.0
C353 C 0.34116 0.88323 0.86544 0.0
C354 C 0.31583 0.86403 0.87038 0.0
C355 C 0.35094 0.88838 0.83831 0.0
C356 C 0.37846 0.90725 0.83195 0.0
C357 C 0.40379 0.90393 0.8436 0.0
C358 C 0.42955 0.92207 0.83797 0.0
C359 C 0.43031 0.9435 0.82052 0.0
C360 C 0.4053 0.94679 0.80861 0.0
C361 C 0.37946 0.92873 0.81422 0.0
H362 H 0.45028 0.95753 0.81619 0.0
H363 H 0.19979 0.78226 0.87149 0.0
H364 H 0.66138 0.36156 0.7686 0.0
H365 H 0.64901 0.38132 0.72612 0.0
H366 H 0.65089 0.45471 0.76918 0.0
H367 H 0.66316 0.43511 0.81129 0.0
H368 H 0.60396 0.44099 0.73927 0.0
H369 H 0.70333 0.44804 0.72206 0.0
H370 H 0.74625 0.43094 0.7167 0.0
H371 H 0.70655 0.3794 0.6516 0.0
H372 H 0.66323 0.39595 0.65683 0.0
H373 H 0.5917 0.52674 0.63089 0.0
H374 H 0.60866 0.5054 0.66948 0.0
H375 H 0.6128 0.4382 0.6184 0.0
H376 H 0.5967 0.46003 0.57931 0.0
H377 H 0.65561 0.44606 0.65128 0.0
H378 H 0.55703 0.4378 0.66709 0.0
H379 H 0.51279 0.45283 0.67196 0.0
H380 H 0.54862 0.50333 0.73922 0.0
H381 H 0.59324 0.48887 0.73452 0.0
C382 C 0.65985 0.38212 0.76881 0.0
C383 C 0.66406 0.39689 0.79337 0.0
C384 C 0.65264 0.39344 0.74447 0.0
C385 C 0.64908 0.41977 0.74406 0.0
C386 C 0.65346 0.43447 0.7686 0.0
C387 C 0.66079 0.42326 0.79276 0.0
C388 C 0.63967 0.43182 0.7187 0.0
C389 C 0.61555 0.44236 0.72016 0.0
C390 C 0.65392 0.43295 0.69321 0.0
C391 C 0.67994 0.42302 0.69004 0.0
C392 C 0.70367 0.4329 0.70676 0.0
C393 C 0.72808 0.42334 0.70371 0.0
C394 C 0.72909 0.40404 0.68388 0.0
C395 C 0.70572 0.39431 0.66699 0.0
C396 C 0.68124 0.40379 0.66997 0.0
C397 C 0.5963 0.50747 0.62769 0.0
C398 C 0.59256 0.4952 0.60173 0.0
C399 C 0.60588 0.49507 0.65002 0.0
C400 C 0.61152 0.46965 0.64745 0.0
C401 C 0.60857 0.45767 0.62133 0.0
C402 C 0.59927 0.47023 0.59885 0.0
C403 C 0.62012 0.45566 0.67197 0.0
C404 C 0.64398 0.44468 0.67035 0.0
C405 C 0.60541 0.45377 0.6973 0.0
C406 C 0.57857 0.46243 0.70028 0.0
C407 C 0.55554 0.45225 0.68281 0.0
C408 C 0.53039 0.46065 0.68555 0.0
C409 C 0.52792 0.47907 0.70585 0.0
C410 C 0.55058 0.48908 0.72349 0.0
C411 C 0.5758 0.48077 0.72081 0.0
H412 H 0.50843 0.48555 0.70794 0.0
H413 H 0.74801 0.39666 0.68155 0.0
H414 H 0.9523 0.69661 0.258 0.0
H415 H 0.97067 0.67188 0.22241 0.0
H416 H 0.93255 0.59803 0.2628 0.0
H417 H 0.91412 0.62299 0.29873 0.0
H418 H 0.98433 0.59612 0.2415 0.0
H419 H 0.9012 0.61856 0.20692 0.0
H420 H 0.87003 0.64808 0.19537 0.0
H421 H 0.934 0.69288 0.14184 0.0
H422 H 0.96575 0.66386 0.15338 0.0
H423 H 0.9961 0.51437 0.1245 0.0
H424 H 0.97852 0.53622 0.16315 0.0
H425 H 0.00916 0.61258 0.12473 0.0
H426 H 0.02635 0.59088 0.08599 0.0
H427 H 0.95967 0.61152 0.14588 0.0
H428 H 0.04334 0.59015 0.18102 0.0
H429 H 0.07494 0.561 0.19248 0.0
H430 H 0.01065 0.51456 0.24463 0.0
H431 H 0.9785 0.54324 0.23319 0.0
C432 C 0.94825 0.67514 0.2597 0.0
C433 C 0.9319 0.66192 0.28159 0.0
C434 C 0.95859 0.66089 0.23904 0.0
C435 C 0.95278 0.63282 0.23932 0.0
C436 C 0.93744 0.61959 0.2618 0.0
C437 C 0.92697 0.63391 0.2825 0.0
C438 C 0.96184 0.61753 0.21574 0.0
C439 C 0.97855 0.59926 0.22065 0.0
C440 C 0.95498 0.62169 0.18821 0.0
C441 C 0.93596 0.63919 0.18123 0.0
C442 C 0.90872 0.63484 0.19286 0.0
C443 C 0.89093 0.65146 0.18629 0.0
C444 C 0.90006 0.67238 0.16794 0.0
C445 C 0.92698 0.67669 0.15608 0.0
C446 C 0.94487 0.66015 0.16262 0.0
C447 C 0.99906 0.53582 0.12416 0.0
C448 C 0.01283 0.55068 0.10183 0.0
C449 C 0.98912 0.54842 0.14654 0.0
C450 C 0.99269 0.57635 0.14745 0.0
C451 C 1.00601 0.59111 0.12493 0.0
C452 C 0.01597 0.57856 0.10262 0.0
C453 C 0.98247 0.59027 0.17151 0.0
C454 C 0.96547 0.60831 0.1667 0.0
C455 C 0.98915 0.58592 0.19908 0.0
C456 C 0.00841 0.56866 0.20601 0.0
C457 C 0.03586 0.57359 0.19477 0.0
C458 C 0.05388 0.55718 0.20128 0.0
C459 C 0.04478 0.53589 0.21921 0.0
C460 C 0.01765 0.53102 0.23071 0.0
C461 C 0.99953 0.54736 0.22423 0.0
H462 H 0.05876 0.52321 0.22424 0.0
H463 H 0.88624 0.68522 0.16287 0.0
H464 H 0.38754 0.1932 0.1934 0.0
H465 H 0.41866 0.16616 0.17562 0.0
H466 H 0.35505 0.13041 0.11646 0.0
H467 H 0.32396 0.15778 0.13389 0.0
H468 H 0.37998 0.09355 0.14431 0.0
H469 H 0.40779 0.17617 0.09483 0.0
H470 H 0.42332 0.22505 0.09048 0.0
H471 H 0.49852 0.22545 0.13637 0.0
H472 H 0.48322 0.17657 0.14133 0.0
H473 H 0.4622 0.03621 0.05301 0.0
H474 H 0.43086 0.06067 0.07474 0.0
H475 H 0.50051 0.1045 0.12372 0.0
H476 H 0.53222 0.08057 0.10161 0.0
H477 H 0.47273 0.13721 0.10265 0.0
H478 H 0.44686 0.05505 0.15117 0.0
H479 H 0.43184 1.00626 0.15666 0.0
H480 H 0.35399 1.00466 0.11478 0.0
H481 H 0.36872 0.05342 0.10867 0.0
C482 C 0.38036 0.17986 0.17635 0.0
C483 C 0.35376 0.17823 0.16431 0.0
C484 C 0.39806 0.16435 0.16635 0.0
C485 C 0.38922 0.14659 0.14455 0.0
C486 C 0.36226 0.14416 0.1332 0.0
C487 C 0.34467 0.15988 0.143 0.0
C488 C 0.40834 0.13088 0.13329 0.0
C489 C 0.40014 0.10299 0.13492 0.0
C490 C 0.4349 0.14338 0.12177 0.0
C491 C 0.4442 0.17275 0.1187 0.0
C492 C 0.42751 0.1867 0.1042 0.0
C493 C 0.4363 0.2144 0.10158 0.0
C494 C 0.46185 0.22836 0.11321 0.0
C495 C 0.47871 0.21462 0.12741 0.0
C496 C 0.47 0.18692 0.13012 0.0
C497 C 0.47084 0.0509 0.06856 0.0
C498 C 0.49972 0.05646 0.07557 0.0
C499 C 0.45284 0.06479 0.08105 0.0
C500 C 0.46327 0.0842 0.10107 0.0
C501 C 0.49203 0.08959 0.10832 0.0
C502 C 0.5101 0.07586 0.09569 0.0
C503 C 0.44447 0.0997 0.11358 0.0
C504 C 0.45268 0.12763 0.11217 0.0
C505 C 0.41803 0.0872 0.1255 0.0
C506 C 0.40902 0.05788 0.12925 0.0
C507 C 0.42663 0.04427 0.14294 0.0
C508 C 0.41815 0.01663 0.1462 0.0
C509 C 0.39201 1.00236 0.13602 0.0
C510 C 0.37425 0.01573 0.12263 0.0
C511 C 0.38264 0.04338 0.11929 0.0
H512 H 0.38549 0.98096 0.13856 0.0
H513 H 0.46862 0.2498 0.11115 0.0
H514 H 0.1643 0.82475 0.71851 0.0
H515 H 0.13637 0.8549 0.7014 0.0
H516 H 0.1811 0.86062 0.62464 0.0
H517 H 0.20908 0.8307 0.64159 0.0
H518 H 0.18204 0.90998 0.64929 0.0
H519 H 0.11453 0.82749 0.62672 0.0
H520 H 0.08332 0.78334 0.63673 0.0
H521 H 0.03682 0.819 0.6946 0.0
H522 H 0.06804 0.86335 0.68521 0.0
H523 H 0.10886 0.97514 0.56124 0.0
H524 H 0.13049 0.94349 0.58419 0.0
H525 H 0.07392 0.94129 0.65266 0.0
H526 H 0.05165 0.97288 0.62956 0.0
H527 H 0.07766 0.89152 0.63759 0.0
H528 H 0.14214 0.97393 0.65888 0.0
H529 H 0.17308 0.0185 0.65018 0.0
H530 H 0.22539 0.98392 0.59737 0.0
H531 H 0.19451 0.93916 0.60543 0.0
C532 C 0.16779 0.83213 0.69784 0.0
C533 C 0.1888 0.82539 0.68135 0.0
C534 C 0.15182 0.84925 0.6881 0.0
C535 C 0.15678 0.85998 0.66181 0.0
C536 C 0.17701 0.85252 0.645 0.0
C537 C 0.19277 0.83524 0.65461 0.0
C538 C 0.14241 0.88044 0.6524 0.0
C539 C 0.15924 0.90589 0.64644 0.0
C540 C 0.1126 0.87533 0.64985 0.0
C541 C 0.09383 0.84869 0.6555 0.0
C542 C 0.09783 0.82588 0.64178 0.0
C543 C 0.0801 0.80083 0.64729 0.0
C544 C 0.05816 0.79835 0.66635 0.0
C545 C 0.05386 0.82094 0.67988 0.0
C546 C 0.07155 0.84604 0.67445 0.0
C547 C 0.10103 0.96811 0.58125 0.0
C548 C 0.07856 0.97665 0.59359 0.0
C549 C 0.11352 0.95005 0.59438 0.0
C550 C 0.10403 0.94028 0.62025 0.0
C551 C 0.0816 0.94868 0.63272 0.0
C552 C 0.06901 0.96682 0.61955 0.0
C553 C 0.11739 0.92089 0.63377 0.0
C554 C 0.10043 0.8957 0.64065 0.0
C555 C 0.14712 0.9263 0.63746 0.0
C556 C 0.16586 0.95319 0.63261 0.0
C557 C 0.16011 0.97584 0.64525 0.0
C558 C 0.17767 1.00114 0.64046 0.0
C559 C 0.20116 1.00404 0.6232 0.0
C560 C 0.20718 0.98164 0.61073 0.0
C561 C 0.18967 0.95629 0.61543 0.0
H562 H 0.21472 0.02365 0.61952 0.0
H563 H 0.04445 0.77893 0.67058 0.0
H564 H 0.75371 0.4192 0.88674 0.0
H565 H 0.79714 0.44346 0.90978 0.0
H566 H 0.82092 0.36944 0.923 0.0
H567 H 0.77803 0.3452 0.89973 0.0
H568 H 0.82784 0.39841 0.96893 0.0
H569 H 0.85405 0.41547 0.87463 0.0
H570 H 0.84889 0.43126 0.82801 0.0
H571 H 0.85372 0.51017 0.85895 0.0
H572 H 0.85854 0.49475 0.90583 0.0
H573 H 0.97099 0.44294 1.00923 0.0
H574 H 0.9266 0.42335 0.98585 0.0
H575 H 0.91331 0.50179 0.97245 0.0
H576 H 0.95838 0.5217 0.99534 0.0
H577 H 0.89926 0.47323 0.92788 0.0
H578 H 0.87478 0.45743 0.02161 0.0
H579 H 0.87941 0.44232 0.0686 0.0
H580 H 0.87008 0.36208 0.03961 0.0
H581 H 0.86578 0.37677 0.99237 0.0
C582 C 0.76834 0.40807 0.89419 0.0
C583 C 0.76195 0.38006 0.89142 0.0
C584 C 0.79325 0.42203 0.90748 0.0
C585 C 0.81258 0.40841 0.91827 0.0
C586 C 0.80642 0.38054 0.91517 0.0
C587 C 0.78166 0.36663 0.90187 0.0
C588 C 0.83887 0.42284 0.93328 0.0
C589 C 0.84358 0.41457 0.95976 0.0
C590 C 0.85918 0.4446 0.92192 0.0
C591 C 0.85633 0.45389 0.89376 0.0
C592 C 0.85377 0.43614 0.87152 0.0
C593 C 0.85096 0.44503 0.84504 0.0
C594 C 0.85089 0.47168 0.84052 0.0
C595 C 0.85372 0.48952 0.86248 0.0
C596 C 0.85651 0.48072 0.889 0.0
C597 C 0.95863 0.45615 1.00154 0.0
C598 C 0.9684 0.48401 1.0045 0.0
C599 C 0.93301 0.44482 0.98816 0.0
C600 C 0.91602 0.4609 0.97761 0.0
C601 C 0.92577 0.48878 0.9804 0.0
C602 C 0.95158 0.50019 0.99367 0.0
C603 C 0.88845 0.44851 0.96341 0.0
C604 C 0.88347 0.45717 0.93712 0.0
C605 C 0.86774 0.4272 0.97502 0.0
C606 C 0.8702 0.41826 1.00341 0.0
C607 C 0.87391 0.4366 0.02522 0.0
C608 C 0.87645 0.4281 0.05191 0.0
C609 C 0.8751 0.40127 0.05708 0.0
C610 C 0.87114 0.38286 0.03557 0.0
C611 C 0.86863 0.39125 1.00884 0.0
H612 H 0.87707 0.39473 0.07775 0.0
H613 H 0.84872 0.47852 0.82001 0.0
H614 H 0.85028 0.62805 0.38871 0.0
H615 H 0.80598 0.60465 0.41083 0.0
H616 H 0.786 0.67981 0.42836 0.0
H617 H 0.82928 0.70329 0.40528 0.0
H618 H 0.77957 0.6459 0.47414 0.0
H619 H 0.75108 0.64145 0.37949 0.0
H620 H 0.75457 0.63006 0.33086 0.0
H621 H 0.74306 0.54748 0.35139 0.0
H622 H 0.7399 0.55844 0.4002 0.0
H623 H 0.6378 0.60264 0.52192 0.0
H624 H 0.68205 0.62388 0.49874 0.0
H625 H 0.68574 0.54803 0.46349 0.0
H626 H 0.64048 0.52716 0.48531 0.0
H627 H 0.70212 0.58113 0.42694 0.0
H628 H 0.73065 0.5829 0.52012 0.0
H629 H 0.72938 0.59208 0.56949 0.0
H630 H 0.74395 0.67593 0.55367 0.0
H631 H 0.74496 0.66723 0.50417 0.0
C632 C 0.83633 0.6397 0.39679 0.0
C633 C 0.84395 0.66781 0.39522 0.0
C634 C 0.81096 0.6262 0.40967 0.0
C635 C 0.79254 0.64039 0.4215 0.0
C636 C 0.79987 0.66832 0.41972 0.0
C637 C 0.82494 0.68178 0.40657 0.0
C638 C 0.7658 0.62635 0.43599 0.0
C639 C 0.76249 0.63193 0.46375 0.0
C640 C 0.74379 0.60741 0.42284 0.0
C641 C 0.74556 0.60081 0.39351 0.0
C642 C 0.74954 0.62089 0.37365 0.0
C643 C 0.75141 0.61451 0.34606 0.0
C644 C 0.74912 0.58807 0.33805 0.0
C645 C 0.74488 0.56795 0.35762 0.0
C646 C 0.74303 0.57424 0.38525 0.0
C647 C 0.64816 0.59043 0.50942 0.0
C648 C 0.63555 0.5631 0.50571 0.0
C649 C 0.67372 0.6026 0.4962 0.0
C650 C 0.68806 0.58767 0.47958 0.0
C651 C 0.67547 0.56027 0.47606 0.0
C652 C 0.64953 0.54823 0.48872 0.0
C653 C 0.71561 0.60062 0.46536 0.0
C654 C 0.71914 0.59492 0.43757 0.0
C655 C 0.73814 0.61905 0.47867 0.0
C656 C 0.73761 0.62438 0.50842 0.0
C657 C 0.7334 0.60328 0.52716 0.0
C658 C 0.73275 0.6084 0.55517 0.0
C659 C 0.73651 0.63457 0.56471 0.0
C660 C 0.74101 0.65567 0.54625 0.0
C661 C 0.74165 0.65066 0.51822 0.0
H662 H 0.736 0.63849 0.5864 0.0
H663 H 0.75057 0.58317 0.31667 0.0
H664 H 0.31515 0.32447 0.20569 0.0
H665 H 0.287 0.3521 0.18438 0.0
H666 H 0.25922 0.29176 0.12254 0.0
H667 H 0.28734 0.26398 0.14379 0.0
H668 H 0.26508 0.34581 0.10389 0.0
H669 H 0.22117 0.28613 0.17562 0.0
H670 H 0.22034 0.26672 0.22152 0.0
H671 H 0.22515 0.34356 0.25776 0.0
H672 H 0.22662 0.36355 0.21198 0.0
H673 H 0.13031 0.36989 0.07349 0.0
H674 H 0.16955 0.34995 0.08515 0.0
H675 H 0.18811 0.40139 0.15588 0.0
H676 H 0.14855 0.42095 0.14458 0.0
H677 H 0.18853 0.35255 0.16903 0.0
H678 H 0.22974 0.41205 0.09674 0.0
H679 H 0.23221 0.43135 0.05066 0.0
H680 H 0.23258 0.3552 1.01526 0.0
H681 H 0.22974 0.33536 0.06113 0.0
C682 C 0.30369 0.31747 0.18709 0.0
C683 C 0.303 0.29197 0.1766 0.0
C684 C 0.28773 0.33327 0.17492 0.0
C685 C 0.27071 0.32368 0.15224 0.0
C686 C 0.27225 0.29944 0.14006 0.0
C687 C 0.28832 0.28361 0.15221 0.0
C688 C 0.24805 0.33664 0.14423 0.0
C689 C 0.24819 0.34719 0.11797 0.0
C690 C 0.22625 0.33851 0.16282 0.0
C691 C 0.22429 0.32638 0.19037 0.0
C692 C 0.22221 0.29892 0.19337 0.0
C693 C 0.22164 0.28781 0.21936 0.0
C694 C 0.22277 0.30391 0.24254 0.0
C695 C 0.22433 0.33113 0.23977 0.0
C696 C 0.22503 0.34236 0.21381 0.0
C697 C 0.14291 0.37701 0.09142 0.0
C698 C 0.13641 0.3969 0.10818 0.0
C699 C 0.16536 0.3657 0.09801 0.0
C700 C 0.18202 0.37444 0.12119 0.0
C701 C 0.17554 0.39434 0.13791 0.0
C702 C 0.15291 0.40543 0.1315 0.0
C703 C 0.20556 0.36222 0.12864 0.0
C704 C 0.20547 0.35151 0.15489 0.0
C705 C 0.22732 0.36022 0.10997 0.0
C706 C 0.22928 0.37217 0.08237 0.0
C707 C 0.23016 0.39938 0.07913 0.0
C708 C 0.23165 0.41042 0.05304 0.0
C709 C 0.23248 0.3945 0.03005 0.0
C710 C 0.23191 0.36751 0.03309 0.0
C711 C 0.23039 0.35636 0.05913 0.0
H712 H 0.23362 0.40308 1.00987 0.0
H713 H 0.22238 0.29528 0.26263 0.0
H714 H 0.66247 0.27832 0.85411 0.0
H715 H 0.64131 0.2352 0.87535 0.0
H716 H 0.67264 0.2671 0.9537 0.0
H717 H 0.69236 0.31043 0.93322 0.0
H718 H 0.68488 0.21678 0.94127 0.0
H719 H 0.6052 0.25739 0.942 0.0
H720 H 0.57043 0.27885 0.92098 0.0
H721 H 0.54074 0.21023 0.86955 0.0
H722 H 0.57564 0.18851 0.89001 0.0
H723 H 0.61722 0.11046 0.02819 0.0
H724 H 0.63584 0.15352 1.00616 0.0
H725 H 0.58194 0.12691 0.93666 0.0
H726 H 0.56215 0.08449 0.95939 0.0
H727 H 0.58175 0.17456 0.94289 0.0
H728 H 0.65962 0.13328 0.93944 0.0
H729 H 0.69512 0.11075 0.95717 0.0
H730 H 0.72956 0.17826 1.00871 0.0
H731 H 0.69403 0.20107 0.99153 0.0
C732 C 0.66452 0.27646 0.87594 0.0
C733 C 0.67972 0.29828 0.89162 0.0
C734 C 0.65251 0.25157 0.88808 0.0
C735 C 0.65551 0.24761 0.91622 0.0
C736 C 0.67026 0.26934 0.93194 0.0
C737 C 0.6818 0.29426 0.91998 0.0
C738 C 0.64364 0.22095 0.92939 0.0
C739 C 0.66229 0.20767 0.94186 0.0
C740 C 0.61426 0.20846 0.92956 0.0
C741 C 0.59324 0.22146 0.91732 0.0
C742 C 0.59143 0.24698 0.92603 0.0
C743 C 0.57167 0.25917 0.91426 0.0
C744 C 0.55345 0.24594 0.89388 0.0
C745 C 0.5549 0.22047 0.8853 0.0
C746 C 0.57466 0.20821 0.89699 0.0
C747 C 0.60937 0.11373 1.00817 0.0
C748 C 0.58819 0.09377 0.99562 0.0
C749 C 0.62024 0.13845 0.99537 0.0
C750 C 0.61097 0.14376 0.96919 0.0
C751 C 0.5897 0.12376 0.95674 0.0
C752 C 0.57839 0.09929 0.96979 0.0
C753 C 0.62299 0.17007 0.95495 0.0
C754 C 0.60438 0.18341 0.94227 0.0
C755 C 0.65254 0.18237 0.95407 0.0
C756 C 0.67399 0.16877 0.96439 0.0
C757 C 0.67465 0.14325 0.95469 0.0
C758 C 0.69479 0.13044 0.96462 0.0
C759 C 0.71453 0.14304 0.9841 0.0
C760 C 0.71422 0.16851 0.99364 0.0
C761 C 0.69411 0.1814 0.9838 0.0
H762 H 0.7301 0.13309 0.99177 0.0
H763 H 0.53815 0.25541 0.8848 0.0
H764 H 0.91769 0.73484 0.43778 0.0
H765 H 0.93636 0.77808 0.4595 0.0
H766 H 0.95922 0.81358 0.38079 0.0
H767 H 0.94023 0.77002 0.35871 0.0
H768 H 1.00027 0.83421 0.41822 0.0
H769 H 0.89922 0.82117 0.41515 0.0
H770 H 0.84948 0.79687 0.42266 0.0
H771 H 0.86406 0.79688 0.509 0.0
H772 H 0.91403 0.82085 0.50197 0.0
H773 H 0.02269 0.96827 0.46815 0.0
H774 H 1.00628 0.92609 0.44341 0.0
H775 H 0.97339 0.88715 0.51834 0.0
H776 H 0.989 0.92947 0.543 0.0
H777 H 0.93704 0.86888 0.48089 0.0
H778 H 0.03785 0.88017 0.48472 0.0
H779 H 0.08807 0.90343 0.47806 0.0
H780 H 0.07467 0.90589 0.39168 0.0
H781 H 0.02425 0.88293 0.39787 0.0
C782 C 0.92653 0.75178 0.4249 0.0
C783 C 0.92685 0.74871 0.39626 0.0
C784 C 0.9373 0.77668 0.43748 0.0
C785 C 0.94875 0.79958 0.42195 0.0
C786 C 0.95037 0.79644 0.39341 0.0
C787 C 0.93955 0.77139 0.38074 0.0
C788 C 0.95837 0.82661 0.4356 0.0
C789 C 0.98626 0.84193 0.43159 0.0
C790 C 0.94055 0.83677 0.45369 0.0
C791 C 0.91043 0.82261 0.458 0.0
C792 C 0.89187 0.81584 0.43572 0.0
C793 C 0.86363 0.80214 0.43989 0.0
C794 C 0.85363 0.79528 0.46628 0.0
C795 C 0.87184 0.80219 0.48856 0.0
C796 C 0.90012 0.81585 0.4845 0.0
C797 C 0.01198 0.95077 0.47945 0.0
C798 C 1.00734 0.95255 0.50775 0.0
C799 C 1.0027 0.92642 0.46521 0.0
C800 C 0.98885 0.90287 0.47883 0.0
C801 C 0.98398 0.90473 0.50707 0.0
C802 C 0.99304 0.92911 0.52127 0.0
C803 C 0.97911 0.87651 0.46379 0.0
C804 C 0.95112 0.86127 0.46751 0.0
C805 C 0.99691 0.86637 0.44559 0.0
C806 C 0.02722 0.88008 0.44179 0.0
C807 C 0.04557 0.88584 0.46433 0.0
C808 C 0.07408 0.89894 0.46063 0.0
C809 C 0.08453 0.9062 0.43447 0.0
C810 C 0.06652 0.90029 0.41193 0.0
C811 C 0.03799 0.88722 0.41552 0.0
H812 H 0.10661 0.91634 0.43165 0.0
H813 H 0.83176 0.78467 0.46946 0.0
H814 H 0.31706 0.78048 0.67664 0.0
H815 H 0.35475 0.75649 0.67225 0.0
H816 H 0.3038 0.70239 0.61423 0.0
H817 H 0.26604 0.72624 0.61884 0.0
H818 H 0.33057 0.67644 0.65021 0.0
H819 H 0.35567 0.75393 0.59222 0.0
H820 H 0.36573 0.80201 0.58216 0.0
H821 H 0.4339 0.81737 0.64011 0.0
H822 H 0.424 0.76939 0.65078 0.0
H823 H 0.43538 0.62343 0.58568 0.0
H824 H 0.39737 0.64521 0.5964 0.0
H825 H 0.45455 0.70238 0.64718 0.0
H826 H 0.49315 0.68168 0.63525 0.0
H827 H 0.42497 0.72694 0.61744 0.0
H828 H 0.40221 0.64979 0.67417 0.0
H829 H 0.39258 0.60191 0.68501 0.0
H830 H 0.32075 0.58586 0.63132 0.0
H831 H 0.33018 0.63361 0.61985 0.0
C832 C 0.31399 0.76339 0.66307 0.0
C833 C 0.28908 0.75547 0.6476 0.0
C834 C 0.33545 0.74975 0.66054 0.0
C835 C 0.33225 0.72795 0.64255 0.0
C836 C 0.30675 0.71925 0.6281 0.0
C837 C 0.2853 0.7329 0.63062 0.0
C838 C 0.35584 0.71483 0.63797 0.0
C839 C 0.35116 0.68738 0.64281 0.0
C840 C 0.38288 0.72929 0.62898 0.0
C841 C 0.3889 0.75812 0.6225 0.0
C842 C 0.37266 0.76759 0.60297 0.0
C843 C 0.37836 0.79481 0.59713 0.0
C844 C 0.40039 0.81274 0.61054 0.0
C845 C 0.41681 0.80347 0.62977 0.0
C846 C 0.41118 0.77626 0.63571 0.0
C847 C 0.44002 0.64083 0.59887 0.0
C848 C 0.46741 0.6508 0.60955 0.0
C849 C 0.4181 0.65303 0.60532 0.0
C850 C 0.42294 0.67518 0.62298 0.0
C851 C 0.45025 0.68522 0.63364 0.0
C852 C 0.47226 0.6732 0.62698 0.0
C853 C 0.39979 0.68842 0.6296 0.0
C854 C 0.40451 0.71593 0.62506 0.0
C855 C 0.37286 0.67401 0.63905 0.0
C856 C 0.36705 0.64527 0.64598 0.0
C857 C 0.38448 0.63603 0.66453 0.0
C858 C 0.37903 0.60892 0.67081 0.0
C859 C 0.35609 0.59085 0.65884 0.0
C860 C 0.33851 0.59988 0.64059 0.0
C861 C 0.34388 0.62697 0.6342 0.0
H862 H 0.35192 0.56986 0.66372 0.0
H863 H 0.40477 0.83381 0.60599 0.0
H864 H 0.74471 0.80838 0.81431 0.0
H865 H 0.77731 0.82637 0.77709 0.0
H866 H 0.84826 0.81905 0.82654 0.0
H867 H 0.81579 0.80141 0.86401 0.0
H868 H 0.85589 0.86841 0.80406 0.0
H869 H 0.82987 0.77819 0.77342 0.0
H870 H 0.79727 0.73515 0.76158 0.0
H871 H 0.76013 0.77302 0.69866 0.0
H872 H 0.79224 0.8164 0.71038 0.0
H873 H 0.95177 0.9149 0.69637 0.0
H874 H 0.92584 0.88393 0.73051 0.0
H875 H 0.847 0.88366 0.69018 0.0
H876 H 0.87274 0.91457 0.65603 0.0
H877 H 0.84761 0.83423 0.70882 0.0
H878 H 0.86897 0.9247 0.74355 0.0
H879 H 0.90058 0.9682 0.75569 0.0
H880 H 0.9456 0.92972 0.81145 0.0
H881 H 0.91447 0.88592 0.79933 0.0
C882 C 0.76725 0.81049 0.81717 0.0
C883 C 0.77773 0.80355 0.84204 0.0
C884 C 0.78581 0.82053 0.79584 0.0
C885 C 0.81515 0.82381 0.79902 0.0
C886 C 0.82566 0.81653 0.82367 0.0
C887 C 0.80709 0.80633 0.84497 0.0
C888 C 0.83488 0.8366 0.77724 0.0
C889 C 0.85453 0.86062 0.78335 0.0
C890 C 0.83263 0.82668 0.75016 0.0
C891 C 0.81334 0.80061 0.74292 0.0
C892 C 0.81461 0.7774 0.75719 0.0
C893 C 0.79624 0.75292 0.75048 0.0
C894 C 0.77661 0.75136 0.72941 0.0
C895 C 0.77535 0.77427 0.71498 0.0
C896 C 0.79366 0.7988 0.72163 0.0
C897 C 0.92893 0.90807 0.69469 0.0
C898 C 0.91424 0.91736 0.6737 0.0
C899 C 0.91418 0.89034 0.71413 0.0
C900 C 0.88448 0.88182 0.71305 0.0
C901 C 0.86993 0.88997 0.69133 0.0
C902 C 0.88467 0.90761 0.67183 0.0
C903 C 0.86832 0.86616 0.73562 0.0
C904 C 0.84929 0.84171 0.72963 0.0
C905 C 0.87103 0.8757 0.76285 0.0
C906 C 0.88962 0.90203 0.7703 0.0
C907 C 0.88575 0.9255 0.75824 0.0
C908 C 0.90356 0.95021 0.76514 0.0
C909 C 0.92515 0.95171 0.78427 0.0
C910 C 0.92891 0.92851 0.7966 0.0
C911 C 0.91119 0.90375 0.78973 0.0
H912 H 0.93891 0.97086 0.78958 0.0
H913 H 0.7624 0.7324 0.72424 0.0
H914 H 0.85607 0.22722 0.29705 0.0
H915 H 0.8244 0.212 0.25853 0.0
H916 H 0.75461 0.22898 0.30414 0.0
H917 H 0.78597 0.24339 0.3431 0.0
H918 H 0.74087 0.17999 0.28319 0.0
H919 H 0.78277 0.26685 0.24888 0.0
H920 H 0.82172 0.30522 0.23638 0.0
H921 H 0.85296 0.25659 0.17831 0.0
H922 H 0.81442 0.2178 0.19073 0.0
H923 H 0.64709 0.1383 0.17379 0.0
H924 H 0.67537 0.16989 0.20629 0.0
H925 H 0.75212 0.15569 0.17146 0.0
H926 H 0.72403 0.12469 0.13842 0.0
H927 H 0.75909 0.2079 0.18681 0.0
H928 H 0.72238 0.12058 0.22551 0.0
H929 H 0.68473 0.08118 0.23819 0.0
H930 H 0.64518 0.13031 0.28843 0.0
H931 H 0.68243 0.17009 0.27572 0.0
C932 C 0.83401 0.22785 0.29882 0.0
C933 C 0.82351 0.23641 0.32317 0.0
C934 C 0.816 0.21942 0.27668 0.0
C935 C 0.78718 0.21959 0.27837 0.0
C936 C 0.7768 0.22882 0.30237 0.0
C937 C 0.7948 0.23722 0.32454 0.0
C938 C 0.76749 0.20795 0.256 0.0
C939 C 0.74449 0.18655 0.26221 0.0
C940 C 0.77264 0.21604 0.22853 0.0
C941 C 0.79579 0.23936 0.22089 0.0
C942 C 0.79806 0.26428 0.23359 0.0
C943 C 0.82005 0.28611 0.22649 0.0
C944 C 0.83983 0.28333 0.2066 0.0
C945 C 0.83763 0.25871 0.19372 0.0
C946 C 0.81569 0.2368 0.20076 0.0
C947 C 0.67001 0.14246 0.17257 0.0
C948 C 0.68335 0.12876 0.15379 0.0
C949 C 0.68613 0.16037 0.19126 0.0
C950 C 0.7158 0.16477 0.19155 0.0
C951 C 0.72924 0.1525 0.17165 0.0
C952 C 0.71316 0.13461 0.15296 0.0
C953 C 0.7327 0.17996 0.2141 0.0
C954 C 0.75522 0.20182 0.2079 0.0
C955 C 0.72728 0.17224 0.24163 0.0
C956 C 0.70498 0.14834 0.24941 0.0
C957 C 0.70553 0.12301 0.23909 0.0
C958 C 0.68429 0.10061 0.2463 0.0
C959 C 0.66253 0.10325 0.26403 0.0
C960 C 0.66202 0.1283 0.27465 0.0
C961 C 0.68319 0.15078 0.26745 0.0
H962 H 0.6461 0.08589 0.26961 0.0
H963 H 0.85685 0.30026 0.20114 0.0
H964 H 0.41841 0.6067 0.26875 0.0
H965 H 0.43227 0.58915 0.31139 0.0
H966 H 0.46815 0.66933 0.33984 0.0
H967 H 0.4548 0.68689 0.2966 0.0
H968 H 0.50387 0.64078 0.35102 0.0
H969 H 0.40425 0.62654 0.36694 0.0
H970 H 0.35321 0.61056 0.35698 0.0
H971 H 0.36181 0.52986 0.35341 0.0
H972 H 0.413 0.54538 0.363 0.0
H973 H 0.52999 0.6017 0.48606 0.0
H974 H 0.51125 0.62065 0.44672 0.0
H975 H 0.47823 0.54169 0.4139 0.0
H976 H 0.49666 0.52254 0.45347 0.0
H977 H 0.44044 0.57056 0.40603 0.0
H978 H 0.54042 0.58534 0.38894 0.0
H979 H 0.59133 0.60151 0.39941 0.0
H980 H 0.58164 0.68175 0.4057 0.0
H981 H 0.53056 0.666 0.39563 0.0
C982 C 0.42874 0.62067 0.28428 0.0
C983 C 0.43518 0.6483 0.27921 0.0
C984 C 0.4367 0.61056 0.30886 0.0
C985 C 0.45117 0.62773 0.32943 0.0
C986 C 0.45706 0.65543 0.32459 0.0
C987 C 0.44915 0.66555 0.29991 0.0
C988 C 0.46118 0.61676 0.35521 0.0
C989 C 0.48974 0.62577 0.36323 0.0
C990 C 0.44329 0.59657 0.37119 0.0
C991 C 0.41252 0.58716 0.36544 0.0
C992 C 0.3953 0.6054 0.36383 0.0
C993 C 0.36633 0.59642 0.35828 0.0
C994 C 0.35429 0.56922 0.3545 0.0
C995 C 0.37118 0.55093 0.35632 0.0
C996 C 0.40016 0.5598 0.36183 0.0
C997 C 0.51869 0.58824 0.47057 0.0
C998 C 0.51508 0.56044 0.47318 0.0
C999 C 0.50804 0.5992 0.44783 0.0
C1000 C 0.49355 0.5828 0.42675 0.0
C1001 C 0.48932 0.55499 0.42962 0.0
C1002 C 0.49999 0.544 0.45238 0.0
C1003 C 0.48306 0.59459 0.40174 0.0
C1004 C 0.45447 0.58568 0.39386 0.0
C1005 C 0.50088 0.61492 0.38592 0.0
C1006 C 0.53161 0.62445 0.3918 0.0
C1007 C 0.54911 0.60641 0.39274 0.0
C1008 C 0.578 0.6155 0.39858 0.0
C1009 C 0.58969 0.64263 0.40329 0.0
C1010 C 0.57254 0.66073 0.40209 0.0
C1011 C 0.54362 0.65174 0.3963 0.0
H1012 H 0.61207 0.64963 0.40781 0.0
H1013 H 0.33186 0.56231 0.35021 0.0
H1014 H 0.19613 0.37681 0.80863 0.0
H1015 H 0.17917 0.3973 0.84858 0.0
H1016 H 0.09676 0.38557 0.81161 0.0
H1017 H 0.11356 0.36449 0.77168 0.0
H1018 H 0.11929 0.43886 0.83319 0.0
H1019 H 0.10387 0.34778 0.86332 0.0
H1020 H 0.11818 0.30615 0.87298 0.0
H1021 H 0.18111 0.34799 0.92934 0.0
H1022 H 0.16745 0.38998 0.91971 0.0
H1023 H 0.04958 0.48266 0.94518 0.0
H1024 H 0.06391 0.45831 0.90709 0.0
H1025 H 0.13307 0.44423 0.95504 0.0
H1026 H 0.11719 0.46698 0.99408 0.0
H1027 H 0.11776 0.40358 0.92713 0.0
H1028 H 0.13802 0.49392 0.89758 0.0
H1029 H 0.1289 0.53782 0.8877 0.0
H1030 H 0.06438 0.50142 0.83024 0.0
H1031 H 0.07288 0.45724 0.84003 0.0
C1032 C 0.17428 0.37833 0.80905 0.0
C1033 C 0.15626 0.36881 0.78677 0.0
C1034 C 0.16456 0.39008 0.83204 0.0
C1035 C 0.13657 0.39314 0.83342 0.0
C1036 C 0.11844 0.38355 0.81126 0.0
C1037 C 0.12802 0.37128 0.78844 0.0
C1038 C 0.12662 0.40686 0.85762 0.0
C1039 C 0.11853 0.43091 0.85368 0.0
C1040 C 0.12668 0.39733 0.88471 0.0
C1041 C 0.13481 0.37208 0.89059 0.0
C1042 C 0.12092 0.34816 0.87759 0.0
C1043 C 0.12889 0.32448 0.8831 0.0
C1044 C 0.15059 0.32444 0.90171 0.0
C1045 C 0.16432 0.34806 0.9149 0.0
C1046 C 0.15646 0.3718 0.90945 0.0
C1047 C 0.06792 0.47447 0.94768 0.0
C1048 C 0.08235 0.47719 0.97282 0.0
C1049 C 0.07639 0.46062 0.92557 0.0
C1050 C 0.10039 0.44983 0.92726 0.0
C1051 C 0.11462 0.45227 0.95262 0.0
C1052 C 0.10559 0.46548 0.97508 0.0
C1053 C 0.11022 0.43585 0.90291 0.0
C1054 C 0.11841 0.41172 0.90675 0.0
C1055 C 0.11104 0.44572 0.87575 0.0
C1056 C 0.10591 0.47224 0.86975 0.0
C1057 C 0.12177 0.49526 0.88297 0.0
C1058 C 0.11672 0.52019 0.87737 0.0
C1059 C 0.09602 0.5224 0.85841 0.0
C1060 C 0.08038 0.49967 0.84495 0.0
C1061 C 0.08532 0.47469 0.8505 0.0
H1062 H 0.09213 0.54172 0.85411 0.0
H1063 H 0.15672 0.30608 0.90594 0.0
H1064 H 0.71182 0.81628 0.94732 0.0
H1065 H 0.68458 0.84755 0.96248 0.0
H1066 H 0.65945 0.85668 0.87949 0.0
H1067 H 0.68645 0.8249 0.86407 0.0
H1068 H 0.67987 0.90462 0.90502 0.0
H1069 H 0.61103 0.82402 0.92371 0.0
H1070 H 0.59277 0.77866 0.94172 0.0
H1071 H 0.61354 0.80766 0.0232 0.0
H1072 H 0.63232 0.85315 1.00565 0.0
H1073 H 0.58632 0.98411 0.95355 0.0
H1074 H 0.60621 0.95052 0.93056 0.0
H1075 H 0.6381 0.93021 1.00749 0.0
H1076 H 0.6182 0.96346 0.03062 0.0
H1077 H 0.60901 0.88642 0.97998 0.0
H1078 H 0.68232 0.96573 0.96064 0.0
H1079 H 0.70122 1.01108 0.94279 0.0
H1080 H 0.67198 0.98429 0.86251 0.0
H1081 H 0.65255 0.93883 0.87998 0.0
C1082 C 0.69993 0.82436 0.93232 0.0
C1083 C 0.70118 0.81797 0.90449 0.0
C1084 C 0.68446 0.84234 0.94102 0.0
C1085 C 0.66983 0.85426 0.92212 0.0
C1086 C 0.67062 0.84767 0.89437 0.0
C1087 C 0.68607 0.82957 0.88562 0.0
C1088 C 0.65507 0.87463 0.93146 0.0
C1089 C 0.66392 0.90054 0.92101 0.0
C1090 C 0.63465 0.86933 0.95263 0.0
C1091 C 0.62327 0.84199 0.96332 0.0
C1092 C 0.6119 0.8207 0.94545 0.0
C1093 C 0.60142 0.79497 0.95558 0.0
C1094 C 0.60204 0.79027 0.98358 0.0
C1095 C 0.61308 0.81132 1.00152 0.0
C1096 C 0.62362 0.8371 0.99149 0.0
C1097 C 0.59786 0.97271 0.96552 0.0
C1098 C 0.60062 0.97639 0.99393 0.0
C1099 C 0.60921 0.95354 0.95234 0.0
C1100 C 0.62357 0.93789 0.96736 0.0
C1101 C 0.62693 0.942 0.99558 0.0
C1102 C 0.61565 0.9611 1.00874 0.0
C1103 C 0.63436 0.91653 0.95404 0.0
C1104 C 0.62468 0.8904 0.96373 0.0
C1105 C 0.65399 0.92165 0.9322 0.0
C1106 C 0.66568 0.94896 0.92168 0.0
C1107 C 0.67969 0.96957 0.93923 0.0
C1108 C 0.69055 0.99528 0.92917 0.0
C1109 C 0.68772 1.00059 0.90155 0.0
C1110 C 0.6741 0.98016 0.88391 0.0
C1111 C 0.66318 0.95442 0.89388 0.0
H1112 H 0.69615 0.0205 0.8938 0.0
H1113 H 0.59391 0.77033 0.99139 0.0
H1114 H 0.8584 0.17699 0.37948 0.0
H1115 H 0.88241 0.14548 0.39999 0.0
H1116 H 0.95364 0.21033 0.42073 0.0
H1117 H 0.92988 0.24202 0.39983 0.0
H1118 H 0.96943 0.16411 0.40194 0.0
H1119 H 0.90574 0.18923 0.46734 0.0
H1120 H 0.85946 0.19517 0.48334 0.0
H1121 H 0.82294 0.11132 0.47297 0.0
H1122 H 0.86893 0.10495 0.45648 0.0
H1123 H 0.03319 0.10705 0.50669 0.0
H1124 H 0.01038 0.13522 0.47955 0.0
H1125 H 0.93515 0.07082 0.47302 0.0
H1126 H 0.95755 0.04282 0.5013 0.0
H1127 H 0.92059 0.11506 0.4821 0.0
H1128 H 0.98464 0.08889 0.41918 0.0
H1129 H 0.03088 0.08254 0.40354 0.0
H1130 H 0.06654 0.16699 0.40843 0.0
H1131 H 0.0206 0.17383 0.42447 0.0
C1132 C 0.87947 0.18449 0.38781 0.0
C1133 C 0.89227 0.21198 0.38813 0.0
C1134 C 0.89305 0.16649 0.39969 0.0
C1135 C 0.91961 0.17566 0.41211 0.0
C1136 C 0.9331 0.20291 0.41127 0.0
C1137 C 0.91946 0.22097 0.3995 0.0
C1138 C 0.93239 0.15712 0.42766 0.0
C1139 C 0.95893 0.1535 0.41959 0.0
C1140 C 0.91829 0.14289 0.45029 0.0
C1141 C 0.89069 0.14666 0.4604 0.0
C1142 C 0.88778 0.17209 0.46826 0.0
C1143 C 0.86161 0.17554 0.47745 0.0
C1144 C 0.83825 0.15365 0.4791 0.0
C1145 C 0.84104 0.12826 0.47163 0.0
C1146 C 0.86715 0.12472 0.46237 0.0
C1147 C 0.01178 0.09887 0.49946 0.0
C1148 C 0.99718 0.07269 0.50595 0.0
C1149 C 0.99883 0.11495 0.48379 0.0
C1150 C 0.97129 0.10495 0.47365 0.0
C1151 C 0.95648 0.07891 0.48047 0.0
C1152 C 0.96927 0.06294 0.49662 0.0
C1153 C 0.95779 0.12192 0.45647 0.0
C1154 C 0.93108 0.12536 0.46428 0.0
C1155 C 0.97171 0.13583 0.43349 0.0
C1156 C 0.9992 0.13185 0.42322 0.0
C1157 C 1.00237 0.1061 0.41704 0.0
C1158 C 0.02853 0.10241 0.4081 0.0
C1159 C 0.05165 0.12434 0.40506 0.0
C1160 C 0.04861 0.15002 0.41081 0.0
C1161 C 0.0225 0.15382 0.41979 0.0
H1162 H 0.07191 0.12144 0.39821 0.0
H1163 H 0.81801 0.15635 0.48623 0.0
H1164 H 0.32019 0.69496 0.17188 0.0
H1165 H 0.27688 0.67027 0.14925 0.0
H1166 H 0.30533 0.59778 0.15534 0.0
H1167 H 0.34894 0.62249 0.1781 0.0
H1168 H 0.28274 0.60328 0.10382 0.0
H1169 H 0.25493 0.60727 0.19737 0.0
H1170 H 0.2497 0.62914 0.2413 0.0
H1171 H 0.19898 0.67577 0.20269 0.0
H1172 H 0.20426 0.65444 0.15841 0.0
H1173 H 0.12131 0.53001 0.1077 0.0
H1174 H 0.1659 0.55211 0.12959 0.0
H1175 H 0.19271 0.59702 0.05639 0.0
H1176 H 0.14785 0.57489 0.03419 0.0
H1177 H 0.18816 0.60329 0.14235 0.0
H1178 H 0.26633 0.60975 0.05223 0.0
H1179 H 0.27148 0.58531 1.00983 0.0
H1180 H 0.22119 0.51297 0.04437 0.0
H1181 H 0.21605 0.5369 0.08708 0.0
C1182 C 0.31737 0.67377 0.16836 0.0
C1183 C 0.33827 0.66081 0.17687 0.0
C1184 C 0.29242 0.6596 0.15548 0.0
C1185 C 0.28758 0.63203 0.15052 0.0
C1186 C 0.30844 0.61901 0.15882 0.0
C1187 C 0.33333 0.63315 0.17205 0.0
C1188 C 0.26064 0.61695 0.13699 0.0
C1189 C 0.26209 0.60336 0.11225 0.0
C1190 C 0.23348 0.61662 0.14794 0.0
C1191 C 0.23022 0.62944 0.17453 0.0
C1192 C 0.24286 0.62235 0.1982 0.0
C1193 C 0.23985 0.63462 0.22317 0.0
C1194 C 0.22408 0.65388 0.22477 0.0
C1195 C 0.21123 0.66087 0.20141 0.0
C1196 C 0.2142 0.64868 0.17637 0.0
C1197 C 0.13665 0.54447 0.09605 0.0
C1198 C 0.13074 0.5505 0.06899 0.0
C1199 C 0.16224 0.55725 0.10875 0.0
C1200 C 0.18299 0.57628 0.09478 0.0
C1201 C 0.17732 0.58226 0.06767 0.0
C1202 C 0.15153 0.56959 0.05496 0.0
C1203 C 0.21018 0.58998 0.10887 0.0
C1204 C 0.20879 0.60332 0.13377 0.0
C1205 C 0.23735 0.58986 0.09817 0.0
C1206 C 0.24057 0.5752 0.07273 0.0
C1207 C 0.25646 0.58861 0.0508 0.0
C1208 C 0.25936 0.57485 0.02671 0.0
C1209 C 0.24659 0.54763 0.02438 0.0
C1210 C 0.23097 0.53408 0.04616 0.0
C1211 C 0.22802 0.54774 0.0703 0.0
H1212 H 0.24884 0.53702 1.00571 0.0
H1213 H 0.22177 0.66335 0.24413 0.0
H1214 H 0.27856 0.35899 0.67543 0.0
H1215 H 0.31777 0.38223 0.64619 0.0
H1216 H 0.32125 0.45542 0.69028 0.0
H1217 H 0.28178 0.43214 0.71945 0.0
H1218 H 0.33047 0.4653 0.63607 0.0
H1219 H 0.36789 0.41721 0.70441 0.0
H1220 H 0.37106 0.37768 0.73096 0.0
H1221 H 0.38814 0.33836 0.6576 0.0
H1222 H 0.38469 0.37755 0.63055 0.0
H1223 H 0.47048 0.53277 0.59276 0.0
H1224 H 0.42732 0.51244 0.61821 0.0
H1225 H 0.42705 0.43596 0.58227 0.0
H1226 H 0.4707 0.456 0.55757 0.0
H1227 H 0.41575 0.42854 0.63288 0.0
H1228 H 0.37841 0.47627 0.56416 0.0
H1229 H 0.37539 0.51568 0.53732 0.0
H1230 H 0.3582 0.55544 0.61029 0.0
H1231 H 0.36143 0.51639 0.63767 0.0
C1232 C 0.28747 0.38011 0.67866 0.0
C1233 C 0.2773 0.39363 0.70001 0.0
C1234 C 0.31004 0.39339 0.66202 0.0
C1235 C 0.32307 0.42058 0.66626 0.0
C1236 C 0.31183 0.43446 0.6866 0.0
C1237 C 0.28925 0.42114 0.70329 0.0
C1238 C 0.34907 0.43409 0.65034 0.0
C1239 C 0.34922 0.4574 0.63562 0.0
C1240 C 0.37355 0.42374 0.64921 0.0
C1241 C 0.37576 0.4002 0.66543 0.0
C1242 C 0.37212 0.40006 0.69392 0.0
C1243 C 0.37399 0.37773 0.70906 0.0
C1244 C 0.37972 0.3555 0.69597 0.0
C1245 C 0.38366 0.35558 0.66771 0.0
C1246 C 0.38177 0.37785 0.65246 0.0
C1247 C 0.46111 0.51166 0.59004 0.0
C1248 C 0.47421 0.49612 0.57293 0.0
C1249 C 0.43622 0.5 0.60459 0.0
C1250 C 0.42337 0.47255 0.60209 0.0
C1251 C 0.43631 0.45712 0.58476 0.0
C1252 C 0.46135 0.46869 0.57047 0.0
C1253 C 0.39715 0.45962 0.61815 0.0
C1254 C 0.397 0.43644 0.63311 0.0
C1255 C 0.37268 0.47008 0.61937 0.0
C1256 C 0.37042 0.49349 0.60299 0.0
C1257 C 0.37415 0.49349 0.57452 0.0
C1258 C 0.37237 0.51575 0.55921 0.0
C1259 C 0.36668 0.53808 0.57212 0.0
C1260 C 0.36264 0.53815 0.60036 0.0
C1261 C 0.3644 0.51594 0.61577 0.0
H1262 H 0.36534 0.55531 0.56025 0.0
H1263 H 0.38117 0.33823 0.70773 0.0
H1264 H 0.79746 0.74259 0.91171 0.0
H1265 H 0.83665 0.72185 0.91866 0.0
H1266 H 0.77759 0.64625 0.9334 0.0
H1267 H 0.73778 0.66717 0.92668 0.0
H1268 H 0.81997 0.65742 0.97115 0.0
H1269 H 0.81349 0.65713 0.8737 0.0
H1270 H 0.81018 0.67685 0.82853 0.0
H1271 H 0.89099 0.73177 0.84097 0.0
H1272 H 0.8946 0.71263 0.88639 0.0
H1273 H 0.92759 0.58629 0.96911 0.0
H1274 H 0.88538 0.6017 0.95758 0.0
H1275 H 0.93774 0.68019 0.94098 0.0
H1276 H 0.98017 0.66488 0.95256 0.0
H1277 H 0.8969 0.66445 0.90261 0.0
H1278 H 0.90212 0.66781 1.00048 0.0
H1279 H 0.90568 0.64993 0.04649 0.0
H1280 H 0.8277 0.59089 0.03385 0.0
H1281 H 0.82388 0.6082 0.98758 0.0
C1282 C 0.79261 0.72156 0.91639 0.0
C1283 C 0.76441 0.70655 0.91905 0.0
C1284 C 0.81515 0.70969 0.92023 0.0
C1285 C 0.81003 0.68247 0.92626 0.0
C1286 C 0.78195 0.66731 0.92875 0.0
C1287 C 0.7593 0.67924 0.92495 0.0
C1288 C 0.83419 0.67022 0.93066 0.0
C1289 C 0.83652 0.65845 0.95596 0.0
C1290 C 0.85611 0.67227 0.91107 0.0
C1291 C 0.85422 0.68354 0.88355 0.0
C1292 C 0.83048 0.67351 0.86687 0.0
C1293 C 0.82856 0.68458 0.84121 0.0
C1294 C 0.85033 0.70559 0.83191 0.0
C1295 C 0.87413 0.7155 0.84821 0.0
C1296 C 0.87615 0.70452 0.8739 0.0
C1297 C 0.9301 0.60688 0.96316 0.0
C1298 C 0.95715 0.62448 0.96201 0.0
C1299 C 0.90599 0.61562 0.95651 0.0
C1300 C 0.90843 0.64216 0.94879 0.0
C1301 C 0.93544 0.65961 0.94692 0.0
C1302 C 0.95962 0.65086 0.9535 0.0
C1303 C 0.88275 0.65183 0.94316 0.0
C1304 C 0.88018 0.66315 0.91765 0.0
C1305 C 0.86068 0.64951 0.96261 0.0
C1306 C 0.86287 0.63912 0.99046 0.0
C1307 C 0.88585 0.65088 1.00742 0.0
C1308 C 0.8879 0.64087 0.03356 0.0
C1309 C 0.86697 0.61924 0.04306 0.0
C1310 C 0.84392 0.60761 0.02645 0.0
C1311 C 0.84179 0.61753 1.00027 0.0
H1312 H 0.86859 0.61152 0.06331 0.0
H1313 H 0.84879 0.71415 0.81205 0.0
H1314 H 0.37854 0.75271 0.16464 0.0
H1315 H 0.40095 0.79477 0.14285 0.0
H1316 H 0.48249 0.78866 0.17219 0.0
H1317 H 0.46056 0.74546 0.19284 0.0
H1318 H 0.46839 0.84203 0.17918 0.0
H1319 H 0.47184 0.77562 0.11 0.0
H1320 H 0.45079 0.73685 0.08085 0.0
H1321 H 0.39424 0.77975 0.04588 0.0
H1322 H 0.41469 0.81865 0.07514 0.0
H1323 H 0.55105 0.9501 0.10313 0.0
H1324 H 0.53137 0.90757 0.12558 0.0
H1325 H 0.45853 0.89373 0.07252 0.0
H1326 H 0.47919 0.93557 0.04887 0.0
H1327 H 0.46852 0.84946 0.07835 0.0
H1328 H 0.4603 0.91414 0.14571 0.0
H1329 H 0.47601 0.95332 0.17585 0.0
H1330 H 0.53432 0.91539 0.21552 0.0
H1331 H 0.51921 0.8761 0.18538 0.0
C1332 C 0.40134 0.75977 0.1662 0.0
C1333 C 0.41755 0.74486 0.18036 0.0
C1334 C 0.41412 0.7842 0.15384 0.0
C1335 C 0.44351 0.795 0.15561 0.0
C1336 C 0.45976 0.78086 0.17048 0.0
C1337 C 0.44705 0.75607 0.18248 0.0
C1338 C 0.45706 0.82074 0.14149 0.0
C1339 C 0.46885 0.8436 0.15712 0.0
C1340 C 0.45672 0.82322 0.11272 0.0
C1341 C 0.44462 0.79995 0.09494 0.0
C1342 C 0.45476 0.77671 0.09626 0.0
C1343 C 0.44297 0.75472 0.07969 0.0
C1344 C 0.42114 0.75581 0.06158 0.0
C1345 C 0.41113 0.77892 0.05994 0.0
C1346 C 0.42283 0.80095 0.0765 0.0
C1347 C 0.53078 0.93805 0.09625 0.0
C1348 C 0.5167 0.94652 0.07421 0.0
C1349 C 0.51932 0.91364 0.10934 0.0
C1350 C 0.49287 0.89723 0.10149 0.0
C1351 C 0.47888 0.90568 0.0793 0.0
C1352 C 0.4907 0.9298 0.06574 0.0
C1353 C 0.48007 0.87122 0.11597 0.0
C1354 C 0.46828 0.84817 0.10043 0.0
C1355 C 0.47971 0.86876 0.1449 0.0
C1356 C 0.48883 0.8923 0.1631 0.0
C1357 C 0.47661 0.91424 0.16074 0.0
C1358 C 0.48539 0.93645 0.17784 0.0
C1359 C 0.50621 0.93687 0.19753 0.0
C1360 C 0.51823 0.91505 0.20023 0.0
C1361 C 0.50955 0.89279 0.18316 0.0
H1362 H 0.51298 0.95408 0.21075 0.0
H1363 H 0.41203 0.73877 0.04877 0.0
H1364 H 0.16562 0.31152 0.66962 0.0
H1365 H 0.1475 0.26908 0.64714 0.0
H1366 H 0.111 0.23503 0.72297 0.0
H1367 H 0.13175 0.27722 0.74648 0.0
H1368 H 0.12851 0.19875 0.69976 0.0
H1369 H 0.07122 0.253 0.66438 0.0
H1370 H 0.05962 0.29214 0.64315 0.0
H1371 H 0.10399 0.2793 0.57029 0.0
H1372 H 0.11619 0.24027 0.59122 0.0
H1373 H 0.03643 0.08753 0.62676 0.0
H1374 H 0.05337 0.12944 0.6522 0.0
H1375 H 0.11935 0.15568 0.59252 0.0
H1376 H 0.10308 0.1134 0.5674 0.0
H1377 H 0.08412 0.19465 0.60839 0.0
H1378 H 0.14034 0.13863 0.64758 0.0
H1379 H 0.14667 0.09802 0.67023 0.0
H1380 H 0.09651 0.11306 0.73815 0.0
H1381 H 0.08952 0.15357 0.71569 0.0
C1382 C 0.15423 0.29508 0.68195 0.0
C1383 C 0.15083 0.29831 0.71034 0.0
C1384 C 0.14315 0.2706 0.66869 0.0
C1385 C 0.1271 0.2484 0.68289 0.0
C1386 C 0.12315 0.25156 0.71118 0.0
C1387 C 0.13482 0.27604 0.72467 0.0
C1388 C 0.11527 0.22202 0.66826 0.0
C1389 C 0.11843 0.19805 0.67998 0.0
C1390 C 0.1021 0.22037 0.64217 0.0
C1391 C 0.09484 0.24384 0.62948 0.0
C1392 C 0.07868 0.25863 0.6439 0.0
C1393 C 0.07197 0.28078 0.63191 0.0
C1394 C 0.08112 0.28824 0.60541 0.0
C1395 C 0.09694 0.27352 0.59083 0.0
C1396 C 0.10373 0.25136 0.60273 0.0
C1397 C 0.05463 0.10214 0.61903 0.0
C1398 C 0.06835 0.09686 0.59494 0.0
C1399 C 0.06434 0.12617 0.63369 0.0
C1400 C 0.08771 0.14594 0.62441 0.0
C1401 C 0.1013 0.14088 0.60021 0.0
C1402 C 0.09201 0.11656 0.58588 0.0
C1403 C 0.09779 0.17188 0.63981 0.0
C1404 C 0.09418 0.19562 0.62821 0.0
C1405 C 0.10981 0.1732 0.66625 0.0
C1406 C 0.11415 0.14896 0.67981 0.0
C1407 C 0.13043 0.13314 0.66722 0.0
C1408 C 0.13419 0.11017 0.68005 0.0
C1409 C 0.12193 0.10292 0.70558 0.0
C1410 C 0.10596 0.11868 0.71836 0.0
C1411 C 0.10211 0.14165 0.70559 0.0
H1412 H 0.12487 0.08513 0.71548 0.0
H1413 H 0.0759 0.3054 0.59616 0.0
H1414 H 0.79415 0.28508 0.39424 0.0
H1415 H 0.7581 0.31079 0.39929 0.0
H1416 H 0.79505 0.34221 0.47615 0.0
H1417 H 0.83145 0.31694 0.47087 0.0
H1418 H 0.73624 0.32051 0.47831 0.0
H1419 H 0.80433 0.38207 0.4239 0.0
H1420 H 0.83589 0.39584 0.38437 0.0
H1421 H 0.76433 0.37605 0.33043 0.0
H1422 H 0.73236 0.36179 0.36964 0.0
H1423 H 0.66132 0.41852 0.50454 0.0
H1424 H 0.69898 0.39582 0.49541 0.0
H1425 H 0.66369 0.3722 0.41585 0.0
H1426 H 0.62634 0.39571 0.4245 0.0
H1427 H 0.72104 0.38923 0.41371 0.0
H1428 H 0.65282 0.3278 0.4668 0.0
H1429 H 0.62044 0.31295 0.50552 0.0
H1430 H 0.69093 0.33063 0.56084 0.0
H1431 H 0.72371 0.34597 0.52246 0.0
C1432 C 0.79489 0.29793 0.41187 0.0
C1433 C 0.81576 0.2994 0.43194 0.0
C1434 C 0.77428 0.31249 0.4148 0.0
C1435 C 0.77408 0.32849 0.43801 0.0
C1436 C 0.79495 0.33002 0.45806 0.0
C1437 C 0.81573 0.31569 0.45499 0.0
C1438 C 0.75135 0.3427 0.44198 0.0
C1439 C 0.73313 0.33581 0.46442 0.0
C1440 C 0.74682 0.36197 0.42329 0.0
C1441 C 0.76599 0.37059 0.39969 0.0
C1442 C 0.79535 0.38042 0.40359 0.0
C1443 C 0.81331 0.38836 0.38125 0.0
C1444 C 0.80213 0.38675 0.3549 0.0
C1445 C 0.77296 0.37725 0.35085 0.0
C1446 C 0.75491 0.36926 0.37313 0.0
C1447 C 0.66173 0.40878 0.48496 0.0
C1448 C 0.64082 0.40889 0.46524 0.0
C1449 C 0.68313 0.3956 0.47987 0.0
C1450 C 0.68392 0.38205 0.45509 0.0
C1451 C 0.66338 0.38246 0.43516 0.0
C1452 C 0.64193 0.39569 0.44022 0.0
C1453 C 0.70607 0.36725 0.45024 0.0
C1454 C 0.72412 0.37393 0.4276 0.0
C1455 C 0.71032 0.34758 0.46862 0.0
C1456 C 0.69069 0.33828 0.49177 0.0
C1457 C 0.6614 0.32873 0.48724 0.0
C1458 C 0.64298 0.32018 0.50913 0.0
C1459 C 0.65362 0.32091 0.53563 0.0
C1460 C 0.68272 0.33012 0.5403 0.0
C1461 C 0.70123 0.33871 0.51848 0.0
H1462 H 0.63932 0.31428 0.55255 0.0
H1463 H 0.81607 0.39291 0.33762 0.0
loop_
_geom_bond_atom_site_label_1
_geom_bond_atom_site_label_2
_geom_bond_distance
_geom_bond_site_symmetry_2
_ccdc_geom_bond_type
H0 C7 0.929 . S
H1 C10 0.930 . S
H2 C12 0.929 . S
H3 C4 0.969 . S
C4 H3 0.969 . S
C4 O5 1.550 . S
C4 H6 0.973 . S
O5 C4 1.550 . S
O5 C11 1.412 . S
H6 C4 0.973 . S
C7 H0 0.929 . S
C7 C8 1.400 . S
C7 C9 1.364 . S
C8 C7 1.400 . S
C8 C12 1.377 . S
C9 C7 1.364 . S
C9 C10 1.374 . S
C10 H1 0.930 . S
C10 C9 1.374 . S
C10 C11 1.383 . S
C11 O5 1.412 . S
C11 C10 1.383 . S
C11 C12 1.394 . S
C12 H2 0.929 . S
C12 C8 1.377 . S
C12 C11 1.394 . S
H13 C20 0.929 . S
H14 C23 0.930 . S
H15 C25 0.929 . S
H16 C17 0.969 . S
C17 H16 0.969 . S
C17 O18 1.550 . S
C17 H19 0.973 . S
O18 C17 1.550 . S
O18 C24 1.412 . S
H19 C17 0.973 . S
C20 H13 0.929 . S
C20 C21 1.400 . S
C20 C22 1.364 . S
C21 C20 1.400 . S
C21 C25 1.377 . S
C22 C20 1.364 . S
C22 C23 1.374 . S
C23 H14 0.930 . S
C23 C22 1.374 . S
C23 C24 1.383 . S
C24 O18 1.412 . S
C24 C23 1.383 . S
C24 C25 1.394 . S
C25 H15 0.929 . S
C25 C21 1.377 . S
C25 C24 1.394 . S
H26 C33 0.929 . S
H27 C36 0.930 . S
H28 C38 0.929 . S
H29 C30 0.969 . S
C30 H29 0.969 . S
C30 O31 1.550 . S
C30 H32 0.973 . S
O31 C30 1.550 . S
O31 C37 1.412 . S
H32 C30 0.973 . S
C33 H26 0.929 . S
C33 C34 1.400 . S
C33 C35 1.364 . S
C34 C33 1.400 . S
C34 C38 1.377 . S
C35 C33 1.364 . S
C35 C36 1.374 . S
C36 H27 0.930 . S
C36 C35 1.374 . S
C36 C37 1.383 . S
C37 O31 1.412 . S
C37 C36 1.383 . S
C37 C38 1.394 . S
C38 H28 0.929 . S
C38 C34 1.377 . S
C38 C37 1.394 . S
H39 C46 0.929 . S
H40 C49 0.930 . S
H41 C51 0.929 . S
H42 C43 0.969 . S
C43 H42 0.969 . S
C43 O44 1.550 . S
C43 H45 0.973 . S
O44 C43 1.550 . S
O44 C50 1.412 . S
H45 C43 0.973 . S
C46 H39 0.929 . S
C46 C47 1.400 . S
C46 C48 1.364 . S
C47 C46 1.400 . S
C47 C51 1.377 . S
C48 C46 1.364 . S
C48 C49 1.374 . S
C49 H40 0.930 . S
C49 C48 1.374 . S
C49 C50 1.383 . S
C50 O44 1.412 . S
C50 C49 1.383 . S
C50 C51 1.394 . S
C51 H41 0.929 . S
C51 C47 1.377 . S
C51 C50 1.394 . S
H52 C59 0.929 . S
H53 C62 0.930 . S
H54 C64 0.929 . S
H55 C56 0.969 . S
C56 H55 0.969 . S
C56 O57 1.550 . S
C56 H58 0.973 . S
O57 C56 1.550 . S
O57 C63 1.412 . S
H58 C56 0.973 . S
C59 H52 0.929 . S
C59 C60 1.400 . S
C59 C61 1.364 . S
C60 C59 1.400 . S
C60 C64 1.377 . S
C61 C59 1.364 . S
C61 C62 1.374 . S
C62 H53 0.930 . S
C62 C61 1.374 . S
C62 C63 1.383 . S
C63 O57 1.412 . S
C63 C62 1.383 . S
C63 C64 1.394 . S
C64 H54 0.929 . S
C64 C60 1.377 . S
C64 C63 1.394 . S
H65 C72 0.929 . S
H66 C75 0.930 . S
H67 C77 0.929 . S
H68 C69 0.969 . S
C69 H68 0.969 . S
C69 O70 1.550 . S
C69 H71 0.973 . S
O70 C69 1.550 . S
O70 C76 1.412 . S
H71 C69 0.973 . S
C72 H65 0.929 . S
C72 C73 1.400 . S
C72 C74 1.364 . S
C73 C72 1.400 . S
C73 C77 1.377 . S
C74 C72 1.364 . S
C74 C75 1.374 . S
C75 H66 0.930 . S
C75 C74 1.374 . S
C75 C76 1.383 . S
C76 O70 1.412 . S
C76 C75 1.383 . S
C76 C77 1.394 . S
C77 H67 0.929 . S
C77 C73 1.377 . S
C77 C76 1.394 . S
H78 C85 0.929 . S
H79 C88 0.930 . S
H80 C90 0.929 . S
H81 C82 0.969 . S
C82 H81 0.969 . S
C82 O83 1.550 . S
C82 H84 0.973 . S
O83 C82 1.550 . S
O83 C89 1.412 . S
H84 C82 0.973 . S
C85 H78 0.929 . S
C85 C86 1.400 . S
C85 C87 1.364 . S
C86 C85 1.400 . S
C86 C90 1.377 . S
C87 C85 1.364 . S
C87 C88 1.374 . S
C88 H79 0.930 . S
C88 C87 1.374 . S
C88 C89 1.383 . S
C89 O83 1.412 . S
C89 C88 1.383 . S
C89 C90 1.394 . S
C90 H80 0.929 . S
C90 C86 1.377 . S
C90 C89 1.394 . S
H91 C98 0.929 . S
H92 C101 0.930 . S
H93 C103 0.929 . S
H94 C95 0.969 . S
C95 H94 0.969 . S
C95 O96 1.550 . S
C95 H97 0.973 . S
O96 C95 1.550 . S
O96 C102 1.412 . S
H97 C95 0.973 . S
C98 H91 0.929 . S
C98 C99 1.400 . S
C98 C100 1.364 . S
C99 C98 1.400 . S
C99 C103 1.377 . S
C100 C98 1.364 . S
C100 C101 1.374 . S
C101 H92 0.930 . S
C101 C100 1.374 . S
C101 C102 1.383 . S
C102 O96 1.412 . S
C102 C101 1.383 . S
C102 C103 1.394 . S
C103 H93 0.929 . S
C103 C99 1.377 . S
C103 C102 1.394 . S
Tb104 C113 2.764 . S
Tb104 O114 2.325 . S
Tb104 O117 2.303 . S
Tb104 O121 2.322 1_545 S
Tb104 O122 2.349 1_545 S
Tb104 O125 2.415 . S
Tb104 O126 2.399 . S
Tb105 O115 2.322 . S
Tb105 O116 2.349 1_655 S
Tb105 O118 2.415 1_545 S
Tb105 O119 2.399 . S
Tb105 O120 2.325 1_645 S
Tb105 O123 2.303 1_545 S
Tb105 C134 2.764 1_545 S
C106 O122 1.261 1_655 S
C106 O123 1.257 . S
C107 C110 1.358 . S
C107 C111 1.332 . S
C107 C113 1.504 . S
C108 C109 1.373 . S
C108 C112 1.308 . S
C109 C108 1.373 . S
C109 C110 1.429 . S
C109 H136 0.932 . S
C110 C107 1.358 . S
C110 C109 1.429 . S
C110 H137 0.930 . S
C111 C107 1.332 . S
C111 C112 1.394 . S
C111 H138 0.932 . S
C112 C108 1.308 . S
C112 C111 1.394 . S
C112 H139 0.929 . S
C113 Tb104 2.764 . S
C113 C107 1.504 . S
C113 O125 1.239 . S
C113 O126 1.263 . S
O114 Tb104 2.325 . S
O114 C124 1.236 1_455 S
O115 Tb105 2.322 . S
O115 C124 1.257 . S
O116 Tb105 2.349 1_455 S
O116 C127 1.261 . S
O117 Tb104 2.303 . S
O117 C127 1.257 . S
O118 Tb105 2.415 1_565 S
O118 C134 1.239 . S
O119 Tb105 2.399 . S
O119 C134 1.263 1_545 S
O120 Tb105 2.325 1_465 S
O120 C135 1.236 . S
O121 Tb104 2.322 1_565 S
O121 C135 1.257 . S
O122 Tb104 2.349 1_565 S
O122 C106 1.261 1_455 S
O123 Tb105 2.303 1_565 S
O123 C106 1.257 . S
C124 O114 1.236 1_655 S
C124 O115 1.257 . S
O125 Tb104 2.415 . S
O125 C113 1.239 . S
O126 Tb104 2.399 . S
O126 C113 1.263 . S
C127 O116 1.261 . S
C127 O117 1.257 . S
C128 C131 1.358 . S
C128 C132 1.332 . S
C128 C134 1.504 . S
C129 C130 1.373 . S
C129 C133 1.308 . S
C130 C129 1.373 . S
C130 C131 1.429 . S
C130 H140 0.932 . S
C131 C128 1.358 . S
C131 C130 1.429 . S
C131 H141 0.930 . S
C132 C128 1.332 . S
C132 C133 1.394 . S
C132 H142 0.932 . S
C133 C129 1.308 . S
C133 C132 1.394 . S
C133 H143 0.929 . S
C134 Tb105 2.764 1_565 S
C134 O118 1.239 . S
C134 O119 1.263 1_565 S
C134 C128 1.504 . S
C135 O120 1.236 . S
C135 O121 1.257 . S
H136 C109 0.932 . S
H137 C110 0.930 . S
H138 C111 0.932 . S
H139 C112 0.929 . S
H140 C130 0.932 . S
H141 C131 0.930 . S
H142 C132 0.932 . S
H143 C133 0.929 . S
Tb144 C153 2.764 . S
Tb144 O154 2.325 . S
Tb144 O157 2.303 . S
Tb144 O161 2.322 1_545 S
Tb144 O162 2.349 1_545 S
Tb144 O165 2.415 . S
Tb144 O166 2.399 . S
Tb145 O155 2.322 . S
Tb145 O156 2.349 1_556 S
Tb145 O158 2.415 1_545 S
Tb145 O159 2.399 1_545 S
Tb145 O160 2.325 1_546 S
Tb145 O163 2.303 1_545 S
Tb145 C174 2.764 1_545 S
C146 O162 1.261 1_556 S
C146 O163 1.257 . S
C147 C150 1.358 . S
C147 C151 1.332 . S
C147 C153 1.504 . S
C148 C149 1.373 . S
C148 C152 1.308 . S
C149 C148 1.373 . S
C149 C150 1.429 . S
C149 H176 0.932 . S
C150 C147 1.358 . S
C150 C149 1.429 . S
C150 H177 0.930 . S
C151 C147 1.332 . S
C151 C152 1.394 . S
C151 H178 0.932 . S
C152 C148 1.308 . S
C152 C151 1.394 . S
C152 H179 0.929 . S
C153 Tb144 2.764 . S
C153 C147 1.504 . S
C153 O165 1.239 . S
C153 O166 1.263 . S
O154 Tb144 2.325 . S
O154 C164 1.236 1_554 S
O155 Tb145 2.322 . S
O155 C164 1.257 . S
O156 Tb145 2.349 1_554 S
O156 C167 1.261 . S
O157 Tb144 2.303 . S
O157 C167 1.257 . S
O158 Tb145 2.415 1_565 S
O158 C174 1.239 . S
O159 Tb145 2.399 1_565 S
O159 C174 1.263 . S
O160 Tb145 2.325 1_564 S
O160 C175 1.236 . S
O161 Tb144 2.322 1_565 S
O161 C175 1.257 . S
O162 Tb144 2.349 1_565 S
O162 C146 1.261 1_554 S
O163 Tb145 2.303 1_565 S
O163 C146 1.257 . S
C164 O154 1.236 1_556 S
C164 O155 1.257 . S
O165 Tb144 2.415 . S
O165 C153 1.239 . S
O166 Tb144 2.399 . S
O166 C153 1.263 . S
C167 O156 1.261 . S
C167 O157 1.257 . S
C168 C171 1.358 . S
C168 C172 1.332 . S
C168 C174 1.504 . S
C169 C170 1.373 . S
C169 C173 1.308 . S
C170 C169 1.373 . S
C170 C171 1.429 . S
C170 H180 0.932 . S
C171 C168 1.358 . S
C171 C170 1.429 . S
C171 H181 0.930 . S
C172 C168 1.332 . S
C172 C173 1.394 . S
C172 H182 0.932 . S
C173 C169 1.308 . S
C173 C172 1.394 . S
C173 H183 0.929 . S
C174 Tb145 2.764 1_565 S
C174 O158 1.239 . S
C174 O159 1.263 . S
C174 C168 1.504 . S
C175 O160 1.236 . S
C175 O161 1.257 . S
H176 C149 0.932 . S
H177 C150 0.930 . S
H178 C151 0.932 . S
H179 C152 0.929 . S
H180 C170 0.932 . S
H181 C171 0.930 . S
H182 C172 0.932 . S
H183 C173 0.929 . S
Tb184 C193 2.764 . S
Tb184 O194 2.325 . S
Tb184 O197 2.303 . S
Tb184 O201 2.322 . S
Tb184 O202 2.349 . S
Tb184 O205 2.415 . S
Tb184 O206 2.399 . S
Tb185 O195 2.322 . S
Tb185 O196 2.349 . S
Tb185 O198 2.415 . S
Tb185 O199 2.399 . S
Tb185 O200 2.325 . S
Tb185 O203 2.303 . S
Tb185 C214 2.764 . S
C186 O202 1.261 . S
C186 O203 1.257 . S
C187 C190 1.358 . S
C187 C191 1.332 . S
C187 C193 1.504 . S
C188 C189 1.373 . S
C188 C192 1.308 . S
C189 C188 1.373 . S
C189 C190 1.429 . S
C189 H216 0.932 . S
C190 C187 1.358 . S
C190 C189 1.429 . S
C190 H217 0.930 . S
C191 C187 1.332 . S
C191 C192 1.394 . S
C191 H218 0.932 . S
C192 C188 1.308 . S
C192 C191 1.394 . S
C192 H219 0.929 . S
C193 Tb184 2.764 . S
C193 C187 1.504 . S
C193 O205 1.239 . S
C193 O206 1.263 . S
O194 Tb184 2.325 . S
O194 C204 1.236 . S
O195 Tb185 2.322 . S
O195 C204 1.257 . S
O196 Tb185 2.349 . S
O196 C207 1.261 . S
O197 Tb184 2.303 . S
O197 C207 1.257 . S
O198 Tb185 2.415 . S
O198 C214 1.239 . S
O199 Tb185 2.399 . S
O199 C214 1.263 . S
O200 Tb185 2.325 . S
O200 C215 1.236 . S
O201 Tb184 2.322 . S
O201 C215 1.257 . S
O202 Tb184 2.349 . S
O202 C186 1.261 . S
O203 Tb185 2.303 . S
O203 C186 1.257 . S
C204 O194 1.236 . S
C204 O195 1.257 . S
O205 Tb184 2.415 . S
O205 C193 1.239 . S
O206 Tb184 2.399 . S
O206 C193 1.263 . S
C207 O196 1.261 . S
C207 O197 1.257 . S
C208 C211 1.358 . S
C208 C212 1.332 . S
C208 C214 1.504 . S
C209 C210 1.373 . S
C209 C213 1.308 . S
C210 C209 1.373 . S
C210 C211 1.429 . S
C210 H220 0.932 . S
C211 C208 1.358 . S
C211 C210 1.429 . S
C211 H221 0.930 . S
C212 C208 1.332 . S
C212 C213 1.394 . S
C212 H222 0.932 . S
C213 C209 1.308 . S
C213 C212 1.394 . S
C213 H223 0.929 . S
C214 Tb185 2.764 . S
C214 O198 1.239 . S
C214 O199 1.263 . S
C214 C208 1.504 . S
C215 O200 1.236 . S
C215 O201 1.257 . S
H216 C189 0.932 . S
H217 C190 0.930 . S
H218 C191 0.932 . S
H219 C192 0.929 . S
H220 C210 0.932 . S
H221 C211 0.930 . S
H222 C212 0.932 . S
H223 C213 0.929 . S
Tb224 C233 2.753 1_454 S
Tb224 O234 2.325 1_455 S
Tb224 O237 2.303 . S
Tb224 O241 2.322 . S
Tb224 O242 2.349 1_554 S
Tb224 O245 2.415 1_455 S
Tb224 O246 2.399 1_554 S
Tb225 O235 2.322 1_455 S
Tb225 O236 2.349 . S
Tb225 O238 2.415 . S
Tb225 O239 2.399 . S
Tb225 O240 2.325 . S
Tb225 O243 2.303 . S
Tb225 C254 2.764 . S
C226 O242 1.261 . S
C226 O243 1.257 1_556 S
C227 C230 1.358 . S
C227 C231 1.332 1_556 S
C227 C233 1.514 . S
C228 C229 1.373 . S
C228 C232 1.308 . S
C229 C228 1.373 . S
C229 C230 1.429 . S
C229 H256 0.932 . S
C230 C227 1.358 . S
C230 C229 1.429 . S
C230 H257 0.930 . S
C231 C227 1.332 1_554 S
C231 C232 1.394 1_554 S
C231 H258 0.932 . S
C232 C228 1.308 . S
C232 C231 1.394 1_556 S
C232 H259 0.916 1_556 S
C233 Tb224 2.753 1_656 S
C233 C227 1.514 . S
C233 O245 1.211 1_556 S
C233 O246 1.280 1_655 S
O234 Tb224 2.325 1_655 S
O234 C244 1.236 . S
O235 Tb225 2.322 1_655 S
O235 C244 1.257 . S
O236 Tb225 2.349 . S
O236 C247 1.261 . S
O237 Tb224 2.303 . S
O237 C247 1.257 . S
O238 Tb225 2.415 . S
O238 C254 1.239 . S
O239 Tb225 2.399 . S
O239 C254 1.263 . S
O240 Tb225 2.325 . S
O240 C255 1.236 . S
O241 Tb224 2.322 . S
O241 C255 1.257 . S
O242 Tb224 2.349 1_556 S
O242 C226 1.261 . S
O243 Tb225 2.303 . S
O243 C226 1.257 1_554 S
C244 O234 1.236 . S
C244 O235 1.257 . S
O245 Tb224 2.415 1_655 S
O245 C233 1.211 1_554 S
O246 Tb224 2.399 1_556 S
O246 C233 1.280 1_455 S
C247 O236 1.261 . S
C247 O237 1.257 . S
C248 C251 1.358 . S
C248 C252 1.332 . S
C248 C254 1.504 . S
C249 C250 1.373 . S
C249 C253 1.308 . S
C250 C249 1.373 . S
C250 C251 1.429 . S
C250 H260 0.932 . S
C251 C248 1.358 . S
C251 C250 1.429 . S
C251 H261 0.930 . S
C252 C248 1.332 . S
C252 C253 1.394 . S
C252 H262 0.932 . S
C253 C249 1.308 . S
C253 C252 1.394 . S
C253 H263 0.929 . S
C254 Tb225 2.764 . S
C254 O238 1.239 . S
C254 O239 1.263 . S
C254 C248 1.504 . S
C255 O240 1.236 . S
C255 O241 1.257 . S
H256 C229 0.932 . S
H257 C230 0.930 . S
H258 C231 0.932 . S
H259 C232 0.916 1_554 S
H260 C250 0.932 . S
H261 C251 0.930 . S
H262 C252 0.932 . S
H263 C253 0.929 . S
H264 C282 0.951 . S
H265 C284 0.951 . S
H266 C286 0.950 . S
H267 C287 0.950 . S
H268 C289 0.950 . S
H269 C292 0.950 . S
H270 C293 0.950 . S
H271 C295 0.950 . S
H272 C296 0.950 . S
H273 C297 0.951 . S
H274 C299 0.951 . S
H275 C301 0.950 . S
H276 C302 0.950 . S
H277 C304 0.950 . S
H278 C307 0.950 . S
H279 C308 0.950 . S
H280 C310 0.950 . S
H281 C311 0.950 . S
C282 H264 0.951 . S
C282 C283 1.366 . S
C282 C284 1.388 . S
C283 C282 1.366 . S
C283 C287 1.385 . S
C284 H265 0.951 . S
C284 C282 1.388 . S
C284 C285 1.366 . S
C285 C284 1.366 . S
C285 C286 1.414 . S
C285 C288 1.499 . S
C286 H266 0.950 . S
C286 C285 1.414 . S
C286 C287 1.374 . S
C287 H267 0.950 . S
C287 C283 1.385 . S
C287 C286 1.374 . S
C288 C285 1.499 . S
C288 C289 1.373 . S
C288 C290 1.389 . S
C289 H268 0.950 . S
C289 C288 1.373 . S
C289 C305 1.377 . S
C290 C288 1.389 . S
C290 C291 1.524 . S
C290 C304 1.377 . S
C291 C290 1.524 . S
C291 C292 1.397 . S
C291 C296 1.363 . S
C292 H269 0.950 . S
C292 C291 1.397 . S
C292 C293 1.334 . S
C293 H270 0.950 . S
C293 C292 1.334 . S
C293 C294 1.287 . S
C294 C293 1.287 . S
C294 C295 1.524 . S
C294 H313 0.913 . S
C295 H271 0.950 . S
C295 C294 1.524 . S
C295 C296 1.415 . S
C296 H272 0.950 . S
C296 C291 1.363 . S
C296 C295 1.415 . S
C297 H273 0.951 . S
C297 C298 1.366 . S
C297 C299 1.388 . S
C298 C297 1.366 . S
C298 C302 1.385 . S
C299 H274 0.951 . S
C299 C297 1.388 . S
C299 C300 1.366 . S
C300 C299 1.366 . S
C300 C301 1.414 . S
C300 C303 1.499 . S
C301 H275 0.950 . S
C301 C300 1.414 . S
C301 C302 1.374 . S
C302 H276 0.950 . S
C302 C298 1.385 . S
C302 C301 1.374 . S
C303 C300 1.499 . S
C303 C304 1.373 . S
C303 C305 1.389 . S
C304 H277 0.950 . S
C304 C290 1.377 . S
C304 C303 1.373 . S
C305 C289 1.377 . S
C305 C303 1.389 . S
C305 C306 1.524 . S
C306 C305 1.524 . S
C306 C307 1.397 . S
C306 C311 1.363 . S
C307 H278 0.950 . S
C307 C306 1.397 . S
C307 C308 1.334 . S
C308 H279 0.950 . S
C308 C307 1.334 . S
C308 C309 1.287 . S
C309 C308 1.287 . S
C309 C310 1.524 . S
C309 H312 0.999 . S
C310 H280 0.950 . S
C310 C309 1.524 . S
C310 C311 1.415 . S
C311 H281 0.950 . S
C311 C306 1.363 . S
C311 C310 1.415 . S
H312 C309 0.999 . S
H313 C294 0.913 . S
H314 C332 0.951 . S
H315 C334 0.951 . S
H316 C336 0.950 . S
H317 C337 0.950 . S
H318 C339 0.950 . S
H319 C342 0.950 . S
H320 C343 0.950 . S
H321 C345 0.950 . S
H322 C346 0.950 . S
H323 C347 0.951 . S
H324 C349 0.951 . S
H325 C351 0.950 . S
H326 C352 0.950 . S
H327 C354 0.950 . S
H328 C357 0.950 . S
H329 C358 0.950 . S
H330 C360 0.950 . S
H331 C361 0.950 . S
C332 H314 0.951 . S
C332 C333 1.366 . S
C332 C334 1.388 . S
C333 C332 1.366 . S
C333 C337 1.385 . S
C334 H315 0.951 . S
C334 C332 1.388 . S
C334 C335 1.366 . S
C335 C334 1.366 . S
C335 C336 1.414 . S
C335 C338 1.499 . S
C336 H316 0.950 . S
C336 C335 1.414 . S
C336 C337 1.374 . S
C337 H317 0.950 . S
C337 C333 1.385 . S
C337 C336 1.374 . S
C338 C335 1.499 . S
C338 C339 1.373 . S
C338 C340 1.389 . S
C339 H318 0.950 . S
C339 C338 1.373 . S
C339 C355 1.377 . S
C340 C338 1.389 . S
C340 C341 1.524 . S
C340 C354 1.377 . S
C341 C340 1.524 . S
C341 C342 1.397 . S
C341 C346 1.363 . S
C342 H319 0.950 . S
C342 C341 1.397 . S
C342 C343 1.334 . S
C343 H320 0.950 . S
C343 C342 1.334 . S
C343 C344 1.287 . S
C344 C343 1.287 . S
C344 C345 1.524 . S
C344 H363 0.913 . S
C345 H321 0.950 . S
C345 C344 1.524 . S
C345 C346 1.415 . S
C346 H322 0.950 . S
C346 C341 1.363 . S
C346 C345 1.415 . S
C347 H323 0.951 . S
C347 C348 1.366 . S
C347 C349 1.388 . S
C348 C347 1.366 . S
C348 C352 1.385 . S
C349 H324 0.951 . S
C349 C347 1.388 . S
C349 C350 1.366 . S
C350 C349 1.366 . S
C350 C351 1.414 . S
C350 C353 1.499 . S
C351 H325 0.950 . S
C351 C350 1.414 . S
C351 C352 1.374 . S
C352 H326 0.950 . S
C352 C348 1.385 . S
C352 C351 1.374 . S
C353 C350 1.499 . S
C353 C354 1.373 . S
C353 C355 1.389 . S
C354 H327 0.950 . S
C354 C340 1.377 . S
C354 C353 1.373 . S
C355 C339 1.377 . S
C355 C353 1.389 . S
C355 C356 1.524 . S
C356 C355 1.524 . S
C356 C357 1.397 . S
C356 C361 1.363 . S
C357 H328 0.950 . S
C357 C356 1.397 . S
C357 C358 1.334 . S
C358 H329 0.950 . S
C358 C357 1.334 . S
C358 C359 1.287 . S
C359 C358 1.287 . S
C359 C360 1.524 . S
C359 H362 0.999 . S
C360 H330 0.950 . S
C360 C359 1.524 . S
C360 C361 1.415 . S
C361 H331 0.950 . S
C361 C356 1.363 . S
C361 C360 1.415 . S
H362 C359 0.999 . S
H363 C344 0.913 . S
H364 C382 0.951 . S
H365 C384 0.951 . S
H366 C386 0.950 . S
H367 C387 0.950 . S
H368 C389 0.950 . S
H369 C392 0.950 . S
H370 C393 0.950 . S
H371 C395 0.950 . S
H372 C396 0.950 . S
H373 C397 0.951 . S
H374 C399 0.951 . S
H375 C401 0.950 . S
H376 C402 0.950 . S
H377 C404 0.950 . S
H378 C407 0.950 . S
H379 C408 0.950 . S
H380 C410 0.950 . S
H381 C411 0.950 . S
C382 H364 0.951 . S
C382 C383 1.366 . S
C382 C384 1.388 . S
C383 C382 1.366 . S
C383 C387 1.385 . S
C384 H365 0.951 . S
C384 C382 1.388 . S
C384 C385 1.366 . S
C385 C384 1.366 . S
C385 C386 1.414 . S
C385 C388 1.499 . S
C386 H366 0.950 . S
C386 C385 1.414 . S
C386 C387 1.374 . S
C387 H367 0.950 . S
C387 C383 1.385 . S
C387 C386 1.374 . S
C388 C385 1.499 . S
C388 C389 1.373 . S
C388 C390 1.389 . S
C389 H368 0.950 . S
C389 C388 1.373 . S
C389 C405 1.377 . S
C390 C388 1.389 . S
C390 C391 1.524 . S
C390 C404 1.377 . S
C391 C390 1.524 . S
C391 C392 1.397 . S
C391 C396 1.363 . S
C392 H369 0.950 . S
C392 C391 1.397 . S
C392 C393 1.334 . S
C393 H370 0.950 . S
C393 C392 1.334 . S
C393 C394 1.287 . S
C394 C393 1.287 . S
C394 C395 1.524 . S
C394 H413 0.913 . S
C395 H371 0.950 . S
C395 C394 1.524 . S
C395 C396 1.415 . S
C396 H372 0.950 . S
C396 C391 1.363 . S
C396 C395 1.415 . S
C397 H373 0.951 . S
C397 C398 1.366 . S
C397 C399 1.388 . S
C398 C397 1.366 . S
C398 C402 1.385 . S
C399 H374 0.951 . S
C399 C397 1.388 . S
C399 C400 1.366 . S
C400 C399 1.366 . S
C400 C401 1.414 . S
C400 C403 1.499 . S
C401 H375 0.950 . S
C401 C400 1.414 . S
C401 C402 1.374 . S
C402 H376 0.950 . S
C402 C398 1.385 . S
C402 C401 1.374 . S
C403 C400 1.499 . S
C403 C404 1.373 . S
C403 C405 1.389 . S
C404 H377 0.950 . S
C404 C390 1.377 . S
C404 C403 1.373 . S
C405 C389 1.377 . S
C405 C403 1.389 . S
C405 C406 1.524 . S
C406 C405 1.524 . S
C406 C407 1.397 . S
C406 C411 1.363 . S
C407 H378 0.950 . S
C407 C406 1.397 . S
C407 C408 1.334 . S
C408 H379 0.950 . S
C408 C407 1.334 . S
C408 C409 1.287 . S
C409 C408 1.287 . S
C409 C410 1.524 . S
C409 H412 0.999 . S
C410 H380 0.950 . S
C410 C409 1.524 . S
C410 C411 1.415 . S
C411 H381 0.950 . S
C411 C406 1.363 . S
C411 C410 1.415 . S
H412 C409 0.999 . S
H413 C394 0.913 . S
H414 C432 0.951 . S
H415 C434 0.951 . S
H416 C436 0.950 . S
H417 C437 0.950 . S
H418 C439 0.950 . S
H419 C442 0.950 . S
H420 C443 0.950 . S
H421 C445 0.950 . S
H422 C446 0.950 . S
H423 C447 0.951 . S
H424 C449 0.951 . S
H425 C451 0.950 . S
H426 C452 0.950 . S
H427 C454 0.950 . S
H428 C457 0.950 . S
H429 C458 0.950 . S
H430 C460 0.950 . S
H431 C461 0.950 1_655 S
C432 H414 0.951 . S
C432 C433 1.366 . S
C432 C434 1.388 . S
C433 C432 1.366 . S
C433 C437 1.385 . S
C434 H415 0.951 . S
C434 C432 1.388 . S
C434 C435 1.366 . S
C435 C434 1.366 . S
C435 C436 1.414 . S
C435 C438 1.499 . S
C436 H416 0.950 . S
C436 C435 1.414 . S
C436 C437 1.374 . S
C437 H417 0.950 . S
C437 C433 1.385 . S
C437 C436 1.374 . S
C438 C435 1.499 . S
C438 C439 1.373 . S
C438 C440 1.389 . S
C439 H418 0.950 . S
C439 C438 1.373 . S
C439 C455 1.377 . S
C440 C438 1.389 . S
C440 C441 1.524 . S
C440 C454 1.377 . S
C441 C440 1.524 . S
C441 C442 1.397 . S
C441 C446 1.363 . S
C442 H419 0.950 . S
C442 C441 1.397 . S
C442 C443 1.334 . S
C443 H420 0.950 . S
C443 C442 1.334 . S
C443 C444 1.287 . S
C444 C443 1.287 . S
C444 C445 1.524 . S
C444 H463 0.913 . S
C445 H421 0.950 . S
C445 C444 1.524 . S
C445 C446 1.415 . S
C446 H422 0.950 . S
C446 C441 1.363 . S
C446 C445 1.415 . S
C447 H423 0.951 . S
C447 C448 1.366 . S
C447 C449 1.388 . S
C448 C447 1.366 . S
C448 C452 1.385 . S
C449 H424 0.951 . S
C449 C447 1.388 . S
C449 C450 1.366 . S
C450 C449 1.366 . S
C450 C451 1.414 . S
C450 C453 1.499 . S
C451 H425 0.950 . S
C451 C450 1.414 . S
C451 C452 1.374 . S
C452 H426 0.950 . S
C452 C448 1.385 . S
C452 C451 1.374 . S
C453 C450 1.499 . S
C453 C454 1.373 . S
C453 C455 1.389 . S
C454 H427 0.950 . S
C454 C440 1.377 . S
C454 C453 1.373 . S
C455 C439 1.377 . S
C455 C453 1.389 . S
C455 C456 1.524 1_655 S
C456 C455 1.524 1_455 S
C456 C457 1.397 . S
C456 C461 1.363 . S
C457 H428 0.950 . S
C457 C456 1.397 . S
C457 C458 1.334 . S
C458 H429 0.950 . S
C458 C457 1.334 . S
C458 C459 1.287 . S
C459 C458 1.287 . S
C459 C460 1.524 . S
C459 H462 0.999 . S
C460 H430 0.950 . S
C460 C459 1.524 . S
C460 C461 1.415 . S
C461 H431 0.950 1_455 S
C461 C456 1.363 . S
C461 C460 1.415 . S
H462 C459 0.999 . S
H463 C444 0.913 . S
H464 C482 0.951 . S
H465 C484 0.951 . S
H466 C486 0.950 . S
H467 C487 0.950 . S
H468 C489 0.950 . S
H469 C492 0.950 . S
H470 C493 0.950 . S
H471 C495 0.950 . S
H472 C496 0.950 . S
H473 C497 0.951 . S
H474 C499 0.951 . S
H475 C501 0.950 . S
H476 C502 0.950 . S
H477 C504 0.950 . S
H478 C507 0.950 . S
H479 C508 0.950 . S
H480 C510 0.950 . S
H481 C511 0.950 . S
C482 H464 0.951 . S
C482 C483 1.366 . S
C482 C484 1.388 . S
C483 C482 1.366 . S
C483 C487 1.385 . S
C484 H465 0.951 . S
C484 C482 1.388 . S
C484 C485 1.366 . S
C485 C484 1.366 . S
C485 C486 1.414 . S
C485 C488 1.499 . S
C486 H466 0.950 . S
C486 C485 1.414 . S
C486 C487 1.374 . S
C487 H467 0.950 . S
C487 C483 1.385 . S
C487 C486 1.374 . S
C488 C485 1.499 . S
C488 C489 1.373 . S
C488 C490 1.389 . S
C489 H468 0.950 . S
C489 C488 1.373 . S
C489 C505 1.377 . S
C490 C488 1.389 . S
C490 C491 1.524 . S
C490 C504 1.377 . S
C491 C490 1.524 . S
C491 C492 1.397 . S
C491 C496 1.363 . S
C492 H469 0.950 . S
C492 C491 1.397 . S
C492 C493 1.334 . S
C493 H470 0.950 . S
C493 C492 1.334 . S
C493 C494 1.287 . S
C494 C493 1.287 . S
C494 C495 1.524 . S
C494 H513 0.913 . S
C495 H471 0.950 . S
C495 C494 1.524 . S
C495 C496 1.415 . S
C496 H472 0.950 . S
C496 C491 1.363 . S
C496 C495 1.415 . S
C497 H473 0.951 . S
C497 C498 1.366 . S
C497 C499 1.388 . S
C498 C497 1.366 . S
C498 C502 1.385 . S
C499 H474 0.951 . S
C499 C497 1.388 . S
C499 C500 1.366 . S
C500 C499 1.366 . S
C500 C501 1.414 . S
C500 C503 1.499 . S
C501 H475 0.950 . S
C501 C500 1.414 . S
C501 C502 1.374 . S
C502 H476 0.950 . S
C502 C498 1.385 . S
C502 C501 1.374 . S
C503 C500 1.499 . S
C503 C504 1.373 . S
C503 C505 1.389 . S
C504 H477 0.950 . S
C504 C490 1.377 . S
C504 C503 1.373 . S
C505 C489 1.377 . S
C505 C503 1.389 . S
C505 C506 1.524 . S
C506 C505 1.524 . S
C506 C507 1.397 . S
C506 C511 1.363 . S
C507 H478 0.950 . S
C507 C506 1.397 . S
C507 C508 1.334 . S
C508 H479 0.950 . S
C508 C507 1.334 . S
C508 C509 1.287 . S
C509 C508 1.287 . S
C509 C510 1.524 . S
C509 H512 0.999 1_545 S
C510 H480 0.950 . S
C510 C509 1.524 . S
C510 C511 1.415 . S
C511 H481 0.950 . S
C511 C506 1.363 . S
C511 C510 1.415 . S
H512 C509 0.999 1_565 S
H513 C494 0.913 . S
H514 C532 0.951 . S
H515 C534 0.951 . S
H516 C536 0.950 . S
H517 C537 0.950 . S
H518 C539 0.950 . S
H519 C542 0.950 . S
H520 C543 0.950 . S
H521 C545 0.950 . S
H522 C546 0.950 . S
H523 C547 0.951 . S
H524 C549 0.951 . S
H525 C551 0.950 . S
H526 C552 0.950 . S
H527 C554 0.950 . S
H528 C557 0.950 . S
H529 C558 0.950 . S
H530 C560 0.950 . S
H531 C561 0.950 . S
C532 H514 0.951 . S
C532 C533 1.366 . S
C532 C534 1.388 . S
C533 C532 1.366 . S
C533 C537 1.385 . S
C534 H515 0.951 . S
C534 C532 1.388 . S
C534 C535 1.366 . S
C535 C534 1.366 . S
C535 C536 1.414 . S
C535 C538 1.499 . S
C536 H516 0.950 . S
C536 C535 1.414 . S
C536 C537 1.374 . S
C537 H517 0.950 . S
C537 C533 1.385 . S
C537 C536 1.374 . S
C538 C535 1.499 . S
C538 C539 1.373 . S
C538 C540 1.389 . S
C539 H518 0.950 . S
C539 C538 1.373 . S
C539 C555 1.377 . S
C540 C538 1.389 . S
C540 C541 1.524 . S
C540 C554 1.377 . S
C541 C540 1.524 . S
C541 C542 1.397 . S
C541 C546 1.363 . S
C542 H519 0.950 . S
C542 C541 1.397 . S
C542 C543 1.334 . S
C543 H520 0.950 . S
C543 C542 1.334 . S
C543 C544 1.287 . S
C544 C543 1.287 . S
C544 C545 1.524 . S
C544 H563 0.913 . S
C545 H521 0.950 . S
C545 C544 1.524 . S
C545 C546 1.415 . S
C546 H522 0.950 . S
C546 C541 1.363 . S
C546 C545 1.415 . S
C547 H523 0.951 . S
C547 C548 1.366 . S
C547 C549 1.388 . S
C548 C547 1.366 . S
C548 C552 1.385 . S
C549 H524 0.951 . S
C549 C547 1.388 . S
C549 C550 1.366 . S
C550 C549 1.366 . S
C550 C551 1.414 . S
C550 C553 1.499 . S
C551 H525 0.950 . S
C551 C550 1.414 . S
C551 C552 1.374 . S
C552 H526 0.950 . S
C552 C548 1.385 . S
C552 C551 1.374 . S
C553 C550 1.499 . S
C553 C554 1.373 . S
C553 C555 1.389 . S
C554 H527 0.950 . S
C554 C540 1.377 . S
C554 C553 1.373 . S
C555 C539 1.377 . S
C555 C553 1.389 . S
C555 C556 1.524 . S
C556 C555 1.524 . S
C556 C557 1.397 . S
C556 C561 1.363 . S
C557 H528 0.950 . S
C557 C556 1.397 . S
C557 C558 1.334 . S
C558 H529 0.950 . S
C558 C557 1.334 . S
C558 C559 1.287 . S
C559 C558 1.287 . S
C559 C560 1.524 . S
C559 H562 0.999 1_565 S
C560 H530 0.950 . S
C560 C559 1.524 . S
C560 C561 1.415 . S
C561 H531 0.950 . S
C561 C556 1.363 . S
C561 C560 1.415 . S
H562 C559 0.999 1_545 S
H563 C544 0.913 . S
H564 C582 0.951 . S
H565 C584 0.951 . S
H566 C586 0.950 . S
H567 C587 0.950 . S
H568 C589 0.950 . S
H569 C592 0.950 . S
H570 C593 0.950 . S
H571 C595 0.950 . S
H572 C596 0.950 . S
H573 C597 0.951 . S
H574 C599 0.951 . S
H575 C601 0.950 . S
H576 C602 0.950 . S
H577 C604 0.950 . S
H578 C607 0.950 . S
H579 C608 0.950 . S
H580 C610 0.950 . S
H581 C611 0.950 1_556 S
C582 H564 0.951 . S
C582 C583 1.366 . S
C582 C584 1.388 . S
C583 C582 1.366 . S
C583 C587 1.385 . S
C584 H565 0.951 . S
C584 C582 1.388 . S
C584 C585 1.366 . S
C585 C584 1.366 . S
C585 C586 1.414 . S
C585 C588 1.499 . S
C586 H566 0.950 . S
C586 C585 1.414 . S
C586 C587 1.374 . S
C587 H567 0.950 . S
C587 C583 1.385 . S
C587 C586 1.374 . S
C588 C585 1.499 . S
C588 C589 1.373 . S
C588 C590 1.389 . S
C589 H568 0.950 . S
C589 C588 1.373 . S
C589 C605 1.377 . S
C590 C588 1.389 . S
C590 C591 1.524 . S
C590 C604 1.377 . S
C591 C590 1.524 . S
C591 C592 1.397 . S
C591 C596 1.363 . S
C592 H569 0.950 . S
C592 C591 1.397 . S
C592 C593 1.334 . S
C593 H570 0.950 . S
C593 C592 1.334 . S
C593 C594 1.287 . S
C594 C593 1.287 . S
C594 C595 1.524 . S
C594 H613 0.913 . S
C595 H571 0.950 . S
C595 C594 1.524 . S
C595 C596 1.415 . S
C596 H572 0.950 . S
C596 C591 1.363 . S
C596 C595 1.415 . S
C597 H573 0.951 . S
C597 C598 1.366 . S
C597 C599 1.388 1_554 S
C598 C597 1.366 . S
C598 C602 1.385 . S
C599 H574 0.951 . S
C599 C597 1.388 1_556 S
C599 C600 1.366 . S
C600 C599 1.366 . S
C600 C601 1.414 . S
C600 C603 1.499 . S
C601 H575 0.950 . S
C601 C600 1.414 . S
C601 C602 1.374 1_556 S
C602 H576 0.950 . S
C602 C598 1.385 . S
C602 C601 1.374 1_554 S
C603 C600 1.499 . S
C603 C604 1.373 . S
C603 C605 1.389 . S
C604 H577 0.950 . S
C604 C590 1.377 . S
C604 C603 1.373 . S
C605 C589 1.377 . S
C605 C603 1.389 . S
C605 C606 1.524 1_556 S
C606 C605 1.524 1_554 S
C606 C607 1.397 . S
C606 C611 1.363 . S
C607 H578 0.950 . S
C607 C606 1.397 . S
C607 C608 1.334 . S
C608 H579 0.950 . S
C608 C607 1.334 . S
C608 C609 1.287 . S
C609 C608 1.287 . S
C609 C610 1.524 . S
C609 H612 0.999 . S
C610 H580 0.950 . S
C610 C609 1.524 . S
C610 C611 1.415 . S
C611 H581 0.950 1_554 S
C611 C606 1.363 . S
C611 C610 1.415 . S
H612 C609 0.999 . S
H613 C594 0.913 . S
H614 C632 0.951 . S
H615 C634 0.951 . S
H616 C636 0.950 . S
H617 C637 0.950 . S
H618 C639 0.950 . S
H619 C642 0.950 . S
H620 C643 0.950 . S
H621 C645 0.950 . S
H622 C646 0.950 . S
H623 C647 0.951 . S
H624 C649 0.951 . S
H625 C651 0.950 . S
H626 C652 0.950 . S
H627 C654 0.950 . S
H628 C657 0.950 . S
H629 C658 0.950 . S
H630 C660 0.950 . S
H631 C661 0.950 . S
C632 H614 0.951 . S
C632 C633 1.366 . S
C632 C634 1.388 . S
C633 C632 1.366 . S
C633 C637 1.385 . S
C634 H615 0.951 . S
C634 C632 1.388 . S
C634 C635 1.366 . S
C635 C634 1.366 . S
C635 C636 1.414 . S
C635 C638 1.499 . S
C636 H616 0.950 . S
C636 C635 1.414 . S
C636 C637 1.374 . S
C637 H617 0.950 . S
C637 C633 1.385 . S
C637 C636 1.374 . S
C638 C635 1.499 . S
C638 C639 1.373 . S
C638 C640 1.389 . S
C639 H618 0.950 . S
C639 C638 1.373 . S
C639 C655 1.377 . S
C640 C638 1.389 . S
C640 C641 1.524 . S
C640 C654 1.377 . S
C641 C640 1.524 . S
C641 C642 1.397 . S
C641 C646 1.363 . S
C642 H619 0.950 . S
C642 C641 1.397 . S
C642 C643 1.334 . S
C643 H620 0.950 . S
C643 C642 1.334 . S
C643 C644 1.287 . S
C644 C643 1.287 . S
C644 C645 1.524 . S
C644 H663 0.913 . S
C645 H621 0.950 . S
C645 C644 1.524 . S
C645 C646 1.415 . S
C646 H622 0.950 . S
C646 C641 1.363 . S
C646 C645 1.415 . S
C647 H623 0.951 . S
C647 C648 1.366 . S
C647 C649 1.388 . S
C648 C647 1.366 . S
C648 C652 1.385 . S
C649 H624 0.951 . S
C649 C647 1.388 . S
C649 C650 1.366 . S
C650 C649 1.366 . S
C650 C651 1.414 . S
C650 C653 1.499 . S
C651 H625 0.950 . S
C651 C650 1.414 . S
C651 C652 1.374 . S
C652 H626 0.950 . S
C652 C648 1.385 . S
C652 C651 1.374 . S
C653 C650 1.499 . S
C653 C654 1.373 . S
C653 C655 1.389 . S
C654 H627 0.950 . S
C654 C640 1.377 . S
C654 C653 1.373 . S
C655 C639 1.377 . S
C655 C653 1.389 . S
C655 C656 1.524 . S
C656 C655 1.524 . S
C656 C657 1.397 . S
C656 C661 1.363 . S
C657 H628 0.950 . S
C657 C656 1.397 . S
C657 C658 1.334 . S
C658 H629 0.950 . S
C658 C657 1.334 . S
C658 C659 1.287 . S
C659 C658 1.287 . S
C659 C660 1.524 . S
C659 H662 0.999 . S
C660 H630 0.950 . S
C660 C659 1.524 . S
C660 C661 1.415 . S
C661 H631 0.950 . S
C661 C656 1.363 . S
C661 C660 1.415 . S
H662 C659 0.999 . S
H663 C644 0.913 . S
H664 C682 0.951 . S
H665 C684 0.951 . S
H666 C686 0.950 . S
H667 C687 0.950 . S
H668 C689 0.950 . S
H669 C692 0.950 . S
H670 C693 0.950 . S
H671 C695 0.950 . S
H672 C696 0.950 . S
H673 C697 0.951 . S
H674 C699 0.951 . S
H675 C701 0.950 . S
H676 C702 0.950 . S
H677 C704 0.950 . S
H678 C707 0.950 . S
H679 C708 0.950 . S
H680 C710 0.950 . S
H681 C711 0.950 . S
C682 H664 0.951 . S
C682 C683 1.366 . S
C682 C684 1.388 . S
C683 C682 1.366 . S
C683 C687 1.385 . S
C684 H665 0.951 . S
C684 C682 1.388 . S
C684 C685 1.366 . S
C685 C684 1.366 . S
C685 C686 1.414 . S
C685 C688 1.499 . S
C686 H666 0.950 . S
C686 C685 1.414 . S
C686 C687 1.374 . S
C687 H667 0.950 . S
C687 C683 1.385 . S
C687 C686 1.374 . S
C688 C685 1.499 . S
C688 C689 1.373 . S
C688 C690 1.389 . S
C689 H668 0.950 . S
C689 C688 1.373 . S
C689 C705 1.377 . S
C690 C688 1.389 . S
C690 C691 1.524 . S
C690 C704 1.377 . S
C691 C690 1.524 . S
C691 C692 1.397 . S
C691 C696 1.363 . S
C692 H669 0.950 . S
C692 C691 1.397 . S
C692 C693 1.334 . S
C693 H670 0.950 . S
C693 C692 1.334 . S
C693 C694 1.287 . S
C694 C693 1.287 . S
C694 C695 1.524 . S
C694 H713 0.913 . S
C695 H671 0.950 . S
C695 C694 1.524 . S
C695 C696 1.415 . S
C696 H672 0.950 . S
C696 C691 1.363 . S
C696 C695 1.415 . S
C697 H673 0.951 . S
C697 C698 1.366 . S
C697 C699 1.388 . S
C698 C697 1.366 . S
C698 C702 1.385 . S
C699 H674 0.951 . S
C699 C697 1.388 . S
C699 C700 1.366 . S
C700 C699 1.366 . S
C700 C701 1.414 . S
C700 C703 1.499 . S
C701 H675 0.950 . S
C701 C700 1.414 . S
C701 C702 1.374 . S
C702 H676 0.950 . S
C702 C698 1.385 . S
C702 C701 1.374 . S
C703 C700 1.499 . S
C703 C704 1.373 . S
C703 C705 1.389 . S
C704 H677 0.950 . S
C704 C690 1.377 . S
C704 C703 1.373 . S
C705 C689 1.377 . S
C705 C703 1.389 . S
C705 C706 1.524 . S
C706 C705 1.524 . S
C706 C707 1.397 . S
C706 C711 1.363 . S
C707 H678 0.950 . S
C707 C706 1.397 . S
C707 C708 1.334 . S
C708 H679 0.950 . S
C708 C707 1.334 . S
C708 C709 1.287 . S
C709 C708 1.287 . S
C709 C710 1.524 . S
C709 H712 0.999 . S
C710 H680 0.950 . S
C710 C709 1.524 . S
C710 C711 1.415 . S
C711 H681 0.950 . S
C711 C706 1.363 . S
C711 C710 1.415 . S
H712 C709 0.999 . S
H713 C694 0.913 . S
H714 C732 0.951 . S
H715 C734 0.951 . S
H716 C736 0.950 . S
H717 C737 0.950 . S
H718 C739 0.950 . S
H719 C742 0.950 . S
H720 C743 0.950 . S
H721 C745 0.950 . S
H722 C746 0.950 . S
H723 C747 0.951 1_554 S
H724 C749 0.951 . S
H725 C751 0.950 . S
H726 C752 0.950 . S
H727 C754 0.950 . S
H728 C757 0.950 . S
H729 C758 0.950 . S
H730 C760 0.950 . S
H731 C761 0.950 . S
C732 H714 0.951 . S
C732 C733 1.366 . S
C732 C734 1.388 . S
C733 C732 1.366 . S
C733 C737 1.385 . S
C734 H715 0.951 . S
C734 C732 1.388 . S
C734 C735 1.366 . S
C735 C734 1.366 . S
C735 C736 1.414 . S
C735 C738 1.499 . S
C736 H716 0.950 . S
C736 C735 1.414 . S
C736 C737 1.374 . S
C737 H717 0.950 . S
C737 C733 1.385 . S
C737 C736 1.374 . S
C738 C735 1.499 . S
C738 C739 1.373 . S
C738 C740 1.389 . S
C739 H718 0.950 . S
C739 C738 1.373 . S
C739 C755 1.377 . S
C740 C738 1.389 . S
C740 C741 1.524 . S
C740 C754 1.377 . S
C741 C740 1.524 . S
C741 C742 1.397 . S
C741 C746 1.363 . S
C742 H719 0.950 . S
C742 C741 1.397 . S
C742 C743 1.334 . S
C743 H720 0.950 . S
C743 C742 1.334 . S
C743 C744 1.287 . S
C744 C743 1.287 . S
C744 C745 1.524 . S
C744 H763 0.913 . S
C745 H721 0.950 . S
C745 C744 1.524 . S
C745 C746 1.415 . S
C746 H722 0.950 . S
C746 C741 1.363 . S
C746 C745 1.415 . S
C747 H723 0.951 1_556 S
C747 C748 1.366 . S
C747 C749 1.388 . S
C748 C747 1.366 . S
C748 C752 1.385 . S
C749 H724 0.951 . S
C749 C747 1.388 . S
C749 C750 1.366 . S
C750 C749 1.366 . S
C750 C751 1.414 . S
C750 C753 1.499 . S
C751 H725 0.950 . S
C751 C750 1.414 . S
C751 C752 1.374 . S
C752 H726 0.950 . S
C752 C748 1.385 . S
C752 C751 1.374 . S
C753 C750 1.499 . S
C753 C754 1.373 . S
C753 C755 1.389 . S
C754 H727 0.950 . S
C754 C740 1.377 . S
C754 C753 1.373 . S
C755 C739 1.377 . S
C755 C753 1.389 . S
C755 C756 1.524 . S
C756 C755 1.524 . S
C756 C757 1.397 . S
C756 C761 1.363 . S
C757 H728 0.950 . S
C757 C756 1.397 . S
C757 C758 1.334 . S
C758 H729 0.950 . S
C758 C757 1.334 . S
C758 C759 1.287 . S
C759 C758 1.287 . S
C759 C760 1.524 . S
C759 H762 0.999 . S
C760 H730 0.950 . S
C760 C759 1.524 . S
C760 C761 1.415 . S
C761 H731 0.950 . S
C761 C756 1.363 . S
C761 C760 1.415 . S
H762 C759 0.999 . S
H763 C744 0.913 . S
H764 C782 0.951 . S
H765 C784 0.951 . S
H766 C786 0.950 . S
H767 C787 0.950 . S
H768 C789 0.950 . S
H769 C792 0.950 . S
H770 C793 0.950 . S
H771 C795 0.950 . S
H772 C796 0.950 . S
H773 C797 0.951 . S
H774 C799 0.951 . S
H775 C801 0.950 . S
H776 C802 0.950 . S
H777 C804 0.950 . S
H778 C807 0.950 . S
H779 C808 0.950 . S
H780 C810 0.950 . S
H781 C811 0.950 . S
C782 H764 0.951 . S
C782 C783 1.366 . S
C782 C784 1.388 . S
C783 C782 1.366 . S
C783 C787 1.385 . S
C784 H765 0.951 . S
C784 C782 1.388 . S
C784 C785 1.366 . S
C785 C784 1.366 . S
C785 C786 1.414 . S
C785 C788 1.499 . S
C786 H766 0.950 . S
C786 C785 1.414 . S
C786 C787 1.374 . S
C787 H767 0.950 . S
C787 C783 1.385 . S
C787 C786 1.374 . S
C788 C785 1.499 . S
C788 C789 1.373 . S
C788 C790 1.389 . S
C789 H768 0.950 . S
C789 C788 1.373 . S
C789 C805 1.377 . S
C790 C788 1.389 . S
C790 C791 1.524 . S
C790 C804 1.377 . S
C791 C790 1.524 . S
C791 C792 1.397 . S
C791 C796 1.363 . S
C792 H769 0.950 . S
C792 C791 1.397 . S
C792 C793 1.334 . S
C793 H770 0.950 . S
C793 C792 1.334 . S
C793 C794 1.287 . S
C794 C793 1.287 . S
C794 C795 1.524 . S
C794 H813 0.913 . S
C795 H771 0.950 . S
C795 C794 1.524 . S
C795 C796 1.415 . S
C796 H772 0.950 . S
C796 C791 1.363 . S
C796 C795 1.415 . S
C797 H773 0.951 . S
C797 C798 1.366 . S
C797 C799 1.388 . S
C798 C797 1.366 . S
C798 C802 1.385 . S
C799 H774 0.951 . S
C799 C797 1.388 . S
C799 C800 1.366 . S
C800 C799 1.366 . S
C800 C801 1.414 . S
C800 C803 1.499 . S
C801 H775 0.950 . S
C801 C800 1.414 . S
C801 C802 1.374 . S
C802 H776 0.950 . S
C802 C798 1.385 . S
C802 C801 1.374 . S
C803 C800 1.499 . S
C803 C804 1.373 . S
C803 C805 1.389 . S
C804 H777 0.950 . S
C804 C790 1.377 . S
C804 C803 1.373 . S
C805 C789 1.377 . S
C805 C803 1.389 . S
C805 C806 1.524 . S
C806 C805 1.524 . S
C806 C807 1.397 1_655 S
C806 C811 1.363 . S
C807 H778 0.950 . S
C807 C806 1.397 1_455 S
C807 C808 1.334 . S
C808 H779 0.950 . S
C808 C807 1.334 . S
C808 C809 1.287 . S
C809 C808 1.287 . S
C809 C810 1.524 1_455 S
C809 H812 0.999 . S
C810 H780 0.950 . S
C810 C809 1.524 1_655 S
C810 C811 1.415 . S
C811 H781 0.950 . S
C811 C806 1.363 . S
C811 C810 1.415 . S
H812 C809 0.999 . S
H813 C794 0.913 . S
H814 C832 0.951 . S
H815 C834 0.951 . S
H816 C836 0.950 . S
H817 C837 0.950 . S
H818 C839 0.950 . S
H819 C842 0.950 . S
H820 C843 0.950 . S
H821 C845 0.950 . S
H822 C846 0.950 . S
H823 C847 0.951 . S
H824 C849 0.951 . S
H825 C851 0.950 . S
H826 C852 0.950 . S
H827 C854 0.950 . S
H828 C857 0.950 . S
H829 C858 0.950 . S
H830 C860 0.950 . S
H831 C861 0.950 . S
C832 H814 0.951 . S
C832 C833 1.366 . S
C832 C834 1.388 . S
C833 C832 1.366 . S
C833 C837 1.385 . S
C834 H815 0.951 . S
C834 C832 1.388 . S
C834 C835 1.366 . S
C835 C834 1.366 . S
C835 C836 1.414 . S
C835 C838 1.499 . S
C836 H816 0.950 . S
C836 C835 1.414 . S
C836 C837 1.374 . S
C837 H817 0.950 . S
C837 C833 1.385 . S
C837 C836 1.374 . S
C838 C835 1.499 . S
C838 C839 1.373 . S
C838 C840 1.389 . S
C839 H818 0.950 . S
C839 C838 1.373 . S
C839 C855 1.377 . S
C840 C838 1.389 . S
C840 C841 1.524 . S
C840 C854 1.377 . S
C841 C840 1.524 . S
C841 C842 1.397 . S
C841 C846 1.363 . S
C842 H819 0.950 . S
C842 C841 1.397 . S
C842 C843 1.334 . S
C843 H820 0.950 . S
C843 C842 1.334 . S
C843 C844 1.287 . S
C844 C843 1.287 . S
C844 C845 1.524 . S
C844 H863 0.913 . S
C845 H821 0.950 . S
C845 C844 1.524 . S
C845 C846 1.415 . S
C846 H822 0.950 . S
C846 C841 1.363 . S
C846 C845 1.415 . S
C847 H823 0.951 . S
C847 C848 1.366 . S
C847 C849 1.388 . S
C848 C847 1.366 . S
C848 C852 1.385 . S
C849 H824 0.951 . S
C849 C847 1.388 . S
C849 C850 1.366 . S
C850 C849 1.366 . S
C850 C851 1.414 . S
C850 C853 1.499 . S
C851 H825 0.950 . S
C851 C850 1.414 . S
C851 C852 1.374 . S
C852 H826 0.950 . S
C852 C848 1.385 . S
C852 C851 1.374 . S
C853 C850 1.499 . S
C853 C854 1.373 . S
C853 C855 1.389 . S
C854 H827 0.950 . S
C854 C840 1.377 . S
C854 C853 1.373 . S
C855 C839 1.377 . S
C855 C853 1.389 . S
C855 C856 1.524 . S
C856 C855 1.524 . S
C856 C857 1.397 . S
C856 C861 1.363 . S
C857 H828 0.950 . S
C857 C856 1.397 . S
C857 C858 1.334 . S
C858 H829 0.950 . S
C858 C857 1.334 . S
C858 C859 1.287 . S
C859 C858 1.287 . S
C859 C860 1.524 . S
C859 H862 0.999 . S
C860 H830 0.950 . S
C860 C859 1.524 . S
C860 C861 1.415 . S
C861 H831 0.950 . S
C861 C856 1.363 . S
C861 C860 1.415 . S
H862 C859 0.999 . S
H863 C844 0.913 . S
H864 C882 0.951 . S
H865 C884 0.951 . S
H866 C886 0.950 . S
H867 C887 0.950 . S
H868 C889 0.950 . S
H869 C892 0.950 . S
H870 C893 0.950 . S
H871 C895 0.950 . S
H872 C896 0.950 . S
H873 C897 0.951 . S
H874 C899 0.951 . S
H875 C901 0.950 . S
H876 C902 0.950 . S
H877 C904 0.950 . S
H878 C907 0.950 . S
H879 C908 0.950 . S
H880 C910 0.950 . S
H881 C911 0.950 . S
C882 H864 0.951 . S
C882 C883 1.366 . S
C882 C884 1.388 . S
C883 C882 1.366 . S
C883 C887 1.385 . S
C884 H865 0.951 . S
C884 C882 1.388 . S
C884 C885 1.366 . S
C885 C884 1.366 . S
C885 C886 1.414 . S
C885 C888 1.499 . S
C886 H866 0.950 . S
C886 C885 1.414 . S
C886 C887 1.374 . S
C887 H867 0.950 . S
C887 C883 1.385 . S
C887 C886 1.374 . S
C888 C885 1.499 . S
C888 C889 1.373 . S
C888 C890 1.389 . S
C889 H868 0.950 . S
C889 C888 1.373 . S
C889 C905 1.377 . S
C890 C888 1.389 . S
C890 C891 1.524 . S
C890 C904 1.377 . S
C891 C890 1.524 . S
C891 C892 1.397 . S
C891 C896 1.363 . S
C892 H869 0.950 . S
C892 C891 1.397 . S
C892 C893 1.334 . S
C893 H870 0.950 . S
C893 C892 1.334 . S
C893 C894 1.287 . S
C894 C893 1.287 . S
C894 C895 1.524 . S
C894 H913 0.913 . S
C895 H871 0.950 . S
C895 C894 1.524 . S
C895 C896 1.415 . S
C896 H872 0.950 . S
C896 C891 1.363 . S
C896 C895 1.415 . S
C897 H873 0.951 . S
C897 C898 1.366 . S
C897 C899 1.388 . S
C898 C897 1.366 . S
C898 C902 1.385 . S
C899 H874 0.951 . S
C899 C897 1.388 . S
C899 C900 1.366 . S
C900 C899 1.366 . S
C900 C901 1.414 . S
C900 C903 1.499 . S
C901 H875 0.950 . S
C901 C900 1.414 . S
C901 C902 1.374 . S
C902 H876 0.950 . S
C902 C898 1.385 . S
C902 C901 1.374 . S
C903 C900 1.499 . S
C903 C904 1.373 . S
C903 C905 1.389 . S
C904 H877 0.950 . S
C904 C890 1.377 . S
C904 C903 1.373 . S
C905 C889 1.377 . S
C905 C903 1.389 . S
C905 C906 1.524 . S
C906 C905 1.524 . S
C906 C907 1.397 . S
C906 C911 1.363 . S
C907 H878 0.950 . S
C907 C906 1.397 . S
C907 C908 1.334 . S
C908 H879 0.950 . S
C908 C907 1.334 . S
C908 C909 1.287 . S
C909 C908 1.287 . S
C909 C910 1.524 . S
C909 H912 0.999 . S
C910 H880 0.950 . S
C910 C909 1.524 . S
C910 C911 1.415 . S
C911 H881 0.950 . S
C911 C906 1.363 . S
C911 C910 1.415 . S
H912 C909 0.999 . S
H913 C894 0.913 . S
H914 C932 0.951 . S
H915 C934 0.951 . S
H916 C936 0.950 . S
H917 C937 0.950 . S
H918 C939 0.950 . S
H919 C942 0.950 . S
H920 C943 0.950 . S
H921 C945 0.950 . S
H922 C946 0.950 . S
H923 C947 0.951 . S
H924 C949 0.951 . S
H925 C951 0.950 . S
H926 C952 0.950 . S
H927 C954 0.950 . S
H928 C957 0.950 . S
H929 C958 0.950 . S
H930 C960 0.950 . S
H931 C961 0.950 . S
C932 H914 0.951 . S
C932 C933 1.366 . S
C932 C934 1.388 . S
C933 C932 1.366 . S
C933 C937 1.385 . S
C934 H915 0.951 . S
C934 C932 1.388 . S
C934 C935 1.366 . S
C935 C934 1.366 . S
C935 C936 1.414 . S
C935 C938 1.499 . S
C936 H916 0.950 . S
C936 C935 1.414 . S
C936 C937 1.374 . S
C937 H917 0.950 . S
C937 C933 1.385 . S
C937 C936 1.374 . S
C938 C935 1.499 . S
C938 C939 1.373 . S
C938 C940 1.389 . S
C939 H918 0.950 . S
C939 C938 1.373 . S
C939 C955 1.377 . S
C940 C938 1.389 . S
C940 C941 1.524 . S
C940 C954 1.377 . S
C941 C940 1.524 . S
C941 C942 1.397 . S
C941 C946 1.363 . S
C942 H919 0.950 . S
C942 C941 1.397 . S
C942 C943 1.334 . S
C943 H920 0.950 . S
C943 C942 1.334 . S
C943 C944 1.287 . S
C944 C943 1.287 . S
C944 C945 1.524 . S
C944 H963 0.913 . S
C945 H921 0.950 . S
C945 C944 1.524 . S
C945 C946 1.415 . S
C946 H922 0.950 . S
C946 C941 1.363 . S
C946 C945 1.415 . S
C947 H923 0.951 . S
C947 C948 1.366 . S
C947 C949 1.388 . S
C948 C947 1.366 . S
C948 C952 1.385 . S
C949 H924 0.951 . S
C949 C947 1.388 . S
C949 C950 1.366 . S
C950 C949 1.366 . S
C950 C951 1.414 . S
C950 C953 1.499 . S
C951 H925 0.950 . S
C951 C950 1.414 . S
C951 C952 1.374 . S
C952 H926 0.950 . S
C952 C948 1.385 . S
C952 C951 1.374 . S
C953 C950 1.499 . S
C953 C954 1.373 . S
C953 C955 1.389 . S
C954 H927 0.950 . S
C954 C940 1.377 . S
C954 C953 1.373 . S
C955 C939 1.377 . S
C955 C953 1.389 . S
C955 C956 1.524 . S
C956 C955 1.524 . S
C956 C957 1.397 . S
C956 C961 1.363 . S
C957 H928 0.950 . S
C957 C956 1.397 . S
C957 C958 1.334 . S
C958 H929 0.950 . S
C958 C957 1.334 . S
C958 C959 1.287 . S
C959 C958 1.287 . S
C959 C960 1.524 . S
C959 H962 0.999 . S
C960 H930 0.950 . S
C960 C959 1.524 . S
C960 C961 1.415 . S
C961 H931 0.950 . S
C961 C956 1.363 . S
C961 C960 1.415 . S
H962 C959 0.999 . S
H963 C944 0.913 . S
H964 C982 0.951 . S
H965 C984 0.951 . S
H966 C986 0.950 . S
H967 C987 0.950 . S
H968 C989 0.950 . S
H969 C992 0.950 . S
H970 C993 0.950 . S
H971 C995 0.950 . S
H972 C996 0.950 . S
H973 C997 0.951 . S
H974 C999 0.951 . S
H975 C1001 0.950 . S
H976 C1002 0.950 . S
H977 C1004 0.950 . S
H978 C1007 0.950 . S
H979 C1008 0.950 . S
H980 C1010 0.950 . S
H981 C1011 0.950 . S
C982 H964 0.951 . S
C982 C983 1.366 . S
C982 C984 1.388 . S
C983 C982 1.366 . S
C983 C987 1.385 . S
C984 H965 0.951 . S
C984 C982 1.388 . S
C984 C985 1.366 . S
C985 C984 1.366 . S
C985 C986 1.414 . S
C985 C988 1.499 . S
C986 H966 0.950 . S
C986 C985 1.414 . S
C986 C987 1.374 . S
C987 H967 0.950 . S
C987 C983 1.385 . S
C987 C986 1.374 . S
C988 C985 1.499 . S
C988 C989 1.373 . S
C988 C990 1.389 . S
C989 H968 0.950 . S
C989 C988 1.373 . S
C989 C1005 1.377 . S
C990 C988 1.389 . S
C990 C991 1.524 . S
C990 C1004 1.377 . S
C991 C990 1.524 . S
C991 C992 1.397 . S
C991 C996 1.363 . S
C992 H969 0.950 . S
C992 C991 1.397 . S
C992 C993 1.334 . S
C993 H970 0.950 . S
C993 C992 1.334 . S
C993 C994 1.287 . S
C994 C993 1.287 . S
C994 C995 1.524 . S
C994 H1013 0.913 . S
C995 H971 0.950 . S
C995 C994 1.524 . S
C995 C996 1.415 . S
C996 H972 0.950 . S
C996 C991 1.363 . S
C996 C995 1.415 . S
C997 H973 0.951 . S
C997 C998 1.366 . S
C997 C999 1.388 . S
C998 C997 1.366 . S
C998 C1002 1.385 . S
C999 H974 0.951 . S
C999 C997 1.388 . S
C999 C1000 1.366 . S
C1000 C999 1.366 . S
C1000 C1001 1.414 . S
C1000 C1003 1.499 . S
C1001 H975 0.950 . S
C1001 C1000 1.414 . S
C1001 C1002 1.374 . S
C1002 H976 0.950 . S
C1002 C998 1.385 . S
C1002 C1001 1.374 . S
C1003 C1000 1.499 . S
C1003 C1004 1.373 . S
C1003 C1005 1.389 . S
C1004 H977 0.950 . S
C1004 C990 1.377 . S
C1004 C1003 1.373 . S
C1005 C989 1.377 . S
C1005 C1003 1.389 . S
C1005 C1006 1.524 . S
C1006 C1005 1.524 . S
C1006 C1007 1.397 . S
C1006 C1011 1.363 . S
C1007 H978 0.950 . S
C1007 C1006 1.397 . S
C1007 C1008 1.334 . S
C1008 H979 0.950 . S
C1008 C1007 1.334 . S
C1008 C1009 1.287 . S
C1009 C1008 1.287 . S
C1009 C1010 1.524 . S
C1009 H1012 0.999 . S
C1010 H980 0.950 . S
C1010 C1009 1.524 . S
C1010 C1011 1.415 . S
C1011 H981 0.950 . S
C1011 C1006 1.363 . S
C1011 C1010 1.415 . S
H1012 C1009 0.999 . S
H1013 C994 0.913 . S
H1014 C1032 0.951 . S
H1015 C1034 0.951 . S
H1016 C1036 0.950 . S
H1017 C1037 0.950 . S
H1018 C1039 0.950 . S
H1019 C1042 0.950 . S
H1020 C1043 0.950 . S
H1021 C1045 0.950 . S
H1022 C1046 0.950 . S
H1023 C1047 0.951 . S
H1024 C1049 0.951 . S
H1025 C1051 0.950 . S
H1026 C1052 0.950 . S
H1027 C1054 0.950 . S
H1028 C1057 0.950 . S
H1029 C1058 0.950 . S
H1030 C1060 0.950 . S
H1031 C1061 0.950 . S
C1032 H1014 0.951 . S
C1032 C1033 1.366 . S
C1032 C1034 1.388 . S
C1033 C1032 1.366 . S
C1033 C1037 1.385 . S
C1034 H1015 0.951 . S
C1034 C1032 1.388 . S
C1034 C1035 1.366 . S
C1035 C1034 1.366 . S
C1035 C1036 1.414 . S
C1035 C1038 1.499 . S
C1036 H1016 0.950 . S
C1036 C1035 1.414 . S
C1036 C1037 1.374 . S
C1037 H1017 0.950 . S
C1037 C1033 1.385 . S
C1037 C1036 1.374 . S
C1038 C1035 1.499 . S
C1038 C1039 1.373 . S
C1038 C1040 1.389 . S
C1039 H1018 0.950 . S
C1039 C1038 1.373 . S
C1039 C1055 1.377 . S
C1040 C1038 1.389 . S
C1040 C1041 1.524 . S
C1040 C1054 1.377 . S
C1041 C1040 1.524 . S
C1041 C1042 1.397 . S
C1041 C1046 1.363 . S
C1042 H1019 0.950 . S
C1042 C1041 1.397 . S
C1042 C1043 1.334 . S
C1043 H1020 0.950 . S
C1043 C1042 1.334 . S
C1043 C1044 1.287 . S
C1044 C1043 1.287 . S
C1044 C1045 1.524 . S
C1044 H1063 0.913 . S
C1045 H1021 0.950 . S
C1045 C1044 1.524 . S
C1045 C1046 1.415 . S
C1046 H1022 0.950 . S
C1046 C1041 1.363 . S
C1046 C1045 1.415 . S
C1047 H1023 0.951 . S
C1047 C1048 1.366 . S
C1047 C1049 1.388 . S
C1048 C1047 1.366 . S
C1048 C1052 1.385 . S
C1049 H1024 0.951 . S
C1049 C1047 1.388 . S
C1049 C1050 1.366 . S
C1050 C1049 1.366 . S
C1050 C1051 1.414 . S
C1050 C1053 1.499 . S
C1051 H1025 0.950 . S
C1051 C1050 1.414 . S
C1051 C1052 1.374 . S
C1052 H1026 0.950 . S
C1052 C1048 1.385 . S
C1052 C1051 1.374 . S
C1053 C1050 1.499 . S
C1053 C1054 1.373 . S
C1053 C1055 1.389 . S
C1054 H1027 0.950 . S
C1054 C1040 1.377 . S
C1054 C1053 1.373 . S
C1055 C1039 1.377 . S
C1055 C1053 1.389 . S
C1055 C1056 1.524 . S
C1056 C1055 1.524 . S
C1056 C1057 1.397 . S
C1056 C1061 1.363 . S
C1057 H1028 0.950 . S
C1057 C1056 1.397 . S
C1057 C1058 1.334 . S
C1058 H1029 0.950 . S
C1058 C1057 1.334 . S
C1058 C1059 1.287 . S
C1059 C1058 1.287 . S
C1059 C1060 1.524 . S
C1059 H1062 0.999 . S
C1060 H1030 0.950 . S
C1060 C1059 1.524 . S
C1060 C1061 1.415 . S
C1061 H1031 0.950 . S
C1061 C1056 1.363 . S
C1061 C1060 1.415 . S
H1062 C1059 0.999 . S
H1063 C1044 0.913 . S
H1064 C1082 0.951 . S
H1065 C1084 0.951 . S
H1066 C1086 0.950 . S
H1067 C1087 0.950 . S
H1068 C1089 0.950 . S
H1069 C1092 0.950 . S
H1070 C1093 0.950 . S
H1071 C1095 0.950 . S
H1072 C1096 0.950 . S
H1073 C1097 0.951 . S
H1074 C1099 0.951 . S
H1075 C1101 0.950 . S
H1076 C1102 0.950 1_554 S
H1077 C1104 0.950 . S
H1078 C1107 0.950 . S
H1079 C1108 0.950 . S
H1080 C1110 0.950 . S
H1081 C1111 0.950 . S
C1082 H1064 0.951 . S
C1082 C1083 1.366 . S
C1082 C1084 1.388 . S
C1083 C1082 1.366 . S
C1083 C1087 1.385 . S
C1084 H1065 0.951 . S
C1084 C1082 1.388 . S
C1084 C1085 1.366 . S
C1085 C1084 1.366 . S
C1085 C1086 1.414 . S
C1085 C1088 1.499 . S
C1086 H1066 0.950 . S
C1086 C1085 1.414 . S
C1086 C1087 1.374 . S
C1087 H1067 0.950 . S
C1087 C1083 1.385 . S
C1087 C1086 1.374 . S
C1088 C1085 1.499 . S
C1088 C1089 1.373 . S
C1088 C1090 1.389 . S
C1089 H1068 0.950 . S
C1089 C1088 1.373 . S
C1089 C1105 1.377 . S
C1090 C1088 1.389 . S
C1090 C1091 1.524 . S
C1090 C1104 1.377 . S
C1091 C1090 1.524 . S
C1091 C1092 1.397 . S
C1091 C1096 1.363 . S
C1092 H1069 0.950 . S
C1092 C1091 1.397 . S
C1092 C1093 1.334 . S
C1093 H1070 0.950 . S
C1093 C1092 1.334 . S
C1093 C1094 1.287 . S
C1094 C1093 1.287 . S
C1094 C1095 1.524 . S
C1094 H1113 0.913 . S
C1095 H1071 0.950 . S
C1095 C1094 1.524 . S
C1095 C1096 1.415 . S
C1096 H1072 0.950 . S
C1096 C1091 1.363 . S
C1096 C1095 1.415 . S
C1097 H1073 0.951 . S
C1097 C1098 1.366 . S
C1097 C1099 1.388 . S
C1098 C1097 1.366 . S
C1098 C1102 1.385 . S
C1099 H1074 0.951 . S
C1099 C1097 1.388 . S
C1099 C1100 1.366 . S
C1100 C1099 1.366 . S
C1100 C1101 1.414 . S
C1100 C1103 1.499 . S
C1101 H1075 0.950 . S
C1101 C1100 1.414 . S
C1101 C1102 1.374 . S
C1102 H1076 0.950 1_556 S
C1102 C1098 1.385 . S
C1102 C1101 1.374 . S
C1103 C1100 1.499 . S
C1103 C1104 1.373 . S
C1103 C1105 1.389 . S
C1104 H1077 0.950 . S
C1104 C1090 1.377 . S
C1104 C1103 1.373 . S
C1105 C1089 1.377 . S
C1105 C1103 1.389 . S
C1105 C1106 1.524 . S
C1106 C1105 1.524 . S
C1106 C1107 1.397 . S
C1106 C1111 1.363 . S
C1107 H1078 0.950 . S
C1107 C1106 1.397 . S
C1107 C1108 1.334 . S
C1108 H1079 0.950 . S
C1108 C1107 1.334 . S
C1108 C1109 1.287 . S
C1109 C1108 1.287 . S
C1109 C1110 1.524 . S
C1109 H1112 0.999 1_565 S
C1110 H1080 0.950 . S
C1110 C1109 1.524 . S
C1110 C1111 1.415 . S
C1111 H1081 0.950 . S
C1111 C1106 1.363 . S
C1111 C1110 1.415 . S
H1112 C1109 0.999 1_545 S
H1113 C1094 0.913 . S
H1114 C1132 0.951 . S
H1115 C1134 0.951 . S
H1116 C1136 0.950 . S
H1117 C1137 0.950 . S
H1118 C1139 0.950 . S
H1119 C1142 0.950 . S
H1120 C1143 0.950 . S
H1121 C1145 0.950 . S
H1122 C1146 0.950 . S
H1123 C1147 0.951 1_455 S
H1124 C1149 0.951 . S
H1125 C1151 0.950 . S
H1126 C1152 0.950 . S
H1127 C1154 0.950 . S
H1128 C1157 0.950 1_655 S
H1129 C1158 0.950 . S
H1130 C1160 0.950 . S
H1131 C1161 0.950 . S
C1132 H1114 0.951 . S
C1132 C1133 1.366 . S
C1132 C1134 1.388 . S
C1133 C1132 1.366 . S
C1133 C1137 1.385 . S
C1134 H1115 0.951 . S
C1134 C1132 1.388 . S
C1134 C1135 1.366 . S
C1135 C1134 1.366 . S
C1135 C1136 1.414 . S
C1135 C1138 1.499 . S
C1136 H1116 0.950 . S
C1136 C1135 1.414 . S
C1136 C1137 1.374 . S
C1137 H1117 0.950 . S
C1137 C1133 1.385 . S
C1137 C1136 1.374 . S
C1138 C1135 1.499 . S
C1138 C1139 1.373 . S
C1138 C1140 1.389 . S
C1139 H1118 0.950 . S
C1139 C1138 1.373 . S
C1139 C1155 1.377 . S
C1140 C1138 1.389 . S
C1140 C1141 1.524 . S
C1140 C1154 1.377 . S
C1141 C1140 1.524 . S
C1141 C1142 1.397 . S
C1141 C1146 1.363 . S
C1142 H1119 0.950 . S
C1142 C1141 1.397 . S
C1142 C1143 1.334 . S
C1143 H1120 0.950 . S
C1143 C1142 1.334 . S
C1143 C1144 1.287 . S
C1144 C1143 1.287 . S
C1144 C1145 1.524 . S
C1144 H1163 0.913 . S
C1145 H1121 0.950 . S
C1145 C1144 1.524 . S
C1145 C1146 1.415 . S
C1146 H1122 0.950 . S
C1146 C1141 1.363 . S
C1146 C1145 1.415 . S
C1147 H1123 0.951 1_655 S
C1147 C1148 1.366 . S
C1147 C1149 1.388 . S
C1148 C1147 1.366 . S
C1148 C1152 1.385 . S
C1149 H1124 0.951 . S
C1149 C1147 1.388 . S
C1149 C1150 1.366 . S
C1150 C1149 1.366 . S
C1150 C1151 1.414 . S
C1150 C1153 1.499 . S
C1151 H1125 0.950 . S
C1151 C1150 1.414 . S
C1151 C1152 1.374 . S
C1152 H1126 0.950 . S
C1152 C1148 1.385 . S
C1152 C1151 1.374 . S
C1153 C1150 1.499 . S
C1153 C1154 1.373 . S
C1153 C1155 1.389 . S
C1154 H1127 0.950 . S
C1154 C1140 1.377 . S
C1154 C1153 1.373 . S
C1155 C1139 1.377 . S
C1155 C1153 1.389 . S
C1155 C1156 1.496 1_655 S
C1156 C1155 1.496 1_455 S
C1156 C1157 1.410 . S
C1156 C1161 1.377 . S
C1157 H1128 0.950 1_455 S
C1157 C1156 1.410 . S
C1157 C1158 1.334 . S
C1158 H1129 0.950 . S
C1158 C1157 1.334 . S
C1158 C1159 1.287 . S
C1159 C1158 1.287 . S
C1159 C1160 1.524 . S
C1159 H1162 0.999 . S
C1160 H1130 0.950 . S
C1160 C1159 1.524 . S
C1160 C1161 1.415 . S
C1161 H1131 0.950 . S
C1161 C1156 1.377 . S
C1161 C1160 1.415 . S
H1162 C1159 0.999 . S
H1163 C1144 0.913 . S
H1164 C1182 0.951 . S
H1165 C1184 0.951 . S
H1166 C1186 0.950 . S
H1167 C1187 0.950 . S
H1168 C1189 0.950 . S
H1169 C1192 0.950 . S
H1170 C1193 0.950 . S
H1171 C1195 0.950 . S
H1172 C1196 0.950 . S
H1173 C1197 0.951 . S
H1174 C1199 0.951 . S
H1175 C1201 0.950 . S
H1176 C1202 0.950 . S
H1177 C1204 0.950 . S
H1178 C1207 0.950 . S
H1179 C1208 0.950 . S
H1180 C1210 0.937 1_556 S
H1181 C1211 0.950 . S
C1182 H1164 0.951 . S
C1182 C1183 1.366 . S
C1182 C1184 1.388 . S
C1183 C1182 1.366 . S
C1183 C1187 1.385 . S
C1184 H1165 0.951 . S
C1184 C1182 1.388 . S
C1184 C1185 1.366 . S
C1185 C1184 1.366 . S
C1185 C1186 1.414 . S
C1185 C1188 1.499 . S
C1186 H1166 0.950 . S
C1186 C1185 1.414 . S
C1186 C1187 1.374 . S
C1187 H1167 0.950 . S
C1187 C1183 1.385 . S
C1187 C1186 1.374 . S
C1188 C1185 1.499 . S
C1188 C1189 1.373 . S
C1188 C1190 1.389 . S
C1189 H1168 0.950 . S
C1189 C1188 1.373 . S
C1189 C1205 1.377 . S
C1190 C1188 1.389 . S
C1190 C1191 1.524 . S
C1190 C1204 1.377 . S
C1191 C1190 1.524 . S
C1191 C1192 1.397 . S
C1191 C1196 1.363 . S
C1192 H1169 0.950 . S
C1192 C1191 1.397 . S
C1192 C1193 1.334 . S
C1193 H1170 0.950 . S
C1193 C1192 1.334 . S
C1193 C1194 1.287 . S
C1194 C1193 1.287 . S
C1194 C1195 1.524 . S
C1194 H1213 0.913 . S
C1195 H1171 0.950 . S
C1195 C1194 1.524 . S
C1195 C1196 1.415 . S
C1196 H1172 0.950 . S
C1196 C1191 1.363 . S
C1196 C1195 1.415 . S
C1197 H1173 0.951 . S
C1197 C1198 1.366 . S
C1197 C1199 1.388 . S
C1198 C1197 1.366 . S
C1198 C1202 1.385 . S
C1199 H1174 0.951 . S
C1199 C1197 1.388 . S
C1199 C1200 1.366 . S
C1200 C1199 1.366 . S
C1200 C1201 1.414 . S
C1200 C1203 1.499 . S
C1201 H1175 0.950 . S
C1201 C1200 1.414 . S
C1201 C1202 1.374 . S
C1202 H1176 0.950 . S
C1202 C1198 1.385 . S
C1202 C1201 1.374 . S
C1203 C1200 1.499 . S
C1203 C1204 1.373 . S
C1203 C1205 1.389 . S
C1204 H1177 0.950 . S
C1204 C1190 1.377 . S
C1204 C1203 1.373 . S
C1205 C1189 1.377 . S
C1205 C1203 1.389 . S
C1205 C1206 1.524 . S
C1206 C1205 1.524 . S
C1206 C1207 1.397 . S
C1206 C1211 1.363 . S
C1207 H1178 0.950 . S
C1207 C1206 1.397 . S
C1207 C1208 1.334 . S
C1208 H1179 0.950 . S
C1208 C1207 1.334 . S
C1208 C1209 1.287 1_554 S
C1209 C1208 1.287 1_556 S
C1209 C1210 1.524 1_556 S
C1209 H1212 0.999 . S
C1210 H1180 0.937 1_554 S
C1210 C1209 1.524 1_554 S
C1210 C1211 1.415 . S
C1211 H1181 0.950 . S
C1211 C1206 1.363 . S
C1211 C1210 1.415 . S
H1212 C1209 0.999 . S
H1213 C1194 0.913 . S
H1214 C1232 0.951 . S
H1215 C1234 0.951 . S
H1216 C1236 0.950 . S
H1217 C1237 0.950 . S
H1218 C1239 0.950 . S
H1219 C1242 0.950 . S
H1220 C1243 0.950 . S
H1221 C1245 0.950 . S
H1222 C1246 0.950 . S
H1223 C1247 0.951 . S
H1224 C1249 0.951 . S
H1225 C1251 0.950 . S
H1226 C1252 0.950 . S
H1227 C1254 0.950 . S
H1228 C1257 0.950 . S
H1229 C1258 0.950 . S
H1230 C1260 0.950 . S
H1231 C1261 0.950 . S
C1232 H1214 0.951 . S
C1232 C1233 1.366 . S
C1232 C1234 1.388 . S
C1233 C1232 1.366 . S
C1233 C1237 1.385 . S
C1234 H1215 0.951 . S
C1234 C1232 1.388 . S
C1234 C1235 1.366 . S
C1235 C1234 1.366 . S
C1235 C1236 1.414 . S
C1235 C1238 1.499 . S
C1236 H1216 0.950 . S
C1236 C1235 1.414 . S
C1236 C1237 1.374 . S
C1237 H1217 0.950 . S
C1237 C1233 1.385 . S
C1237 C1236 1.374 . S
C1238 C1235 1.499 . S
C1238 C1239 1.373 . S
C1238 C1240 1.389 . S
C1239 H1218 0.950 . S
C1239 C1238 1.373 . S
C1239 C1255 1.377 . S
C1240 C1238 1.389 . S
C1240 C1241 1.524 . S
C1240 C1254 1.377 . S
C1241 C1240 1.524 . S
C1241 C1242 1.397 . S
C1241 C1246 1.363 . S
C1242 H1219 0.950 . S
C1242 C1241 1.397 . S
C1242 C1243 1.334 . S
C1243 H1220 0.950 . S
C1243 C1242 1.334 . S
C1243 C1244 1.287 . S
C1244 C1243 1.287 . S
C1244 C1245 1.524 . S
C1244 H1263 0.913 . S
C1245 H1221 0.950 . S
C1245 C1244 1.524 . S
C1245 C1246 1.415 . S
C1246 H1222 0.950 . S
C1246 C1241 1.363 . S
C1246 C1245 1.415 . S
C1247 H1223 0.951 . S
C1247 C1248 1.366 . S
C1247 C1249 1.388 . S
C1248 C1247 1.366 . S
C1248 C1252 1.385 . S
C1249 H1224 0.951 . S
C1249 C1247 1.388 . S
C1249 C1250 1.366 . S
C1250 C1249 1.366 . S
C1250 C1251 1.414 . S
C1250 C1253 1.499 . S
C1251 H1225 0.950 . S
C1251 C1250 1.414 . S
C1251 C1252 1.374 . S
C1252 H1226 0.950 . S
C1252 C1248 1.385 . S
C1252 C1251 1.374 . S
C1253 C1250 1.499 . S
C1253 C1254 1.373 . S
C1253 C1255 1.389 . S
C1254 H1227 0.950 . S
C1254 C1240 1.377 . S
C1254 C1253 1.373 . S
C1255 C1239 1.377 . S
C1255 C1253 1.389 . S
C1255 C1256 1.524 . S
C1256 C1255 1.524 . S
C1256 C1257 1.397 . S
C1256 C1261 1.363 . S
C1257 H1228 0.950 . S
C1257 C1256 1.397 . S
C1257 C1258 1.334 . S
C1258 H1229 0.950 . S
C1258 C1257 1.334 . S
C1258 C1259 1.287 . S
C1259 C1258 1.287 . S
C1259 C1260 1.524 . S
C1259 H1262 0.999 . S
C1260 H1230 0.950 . S
C1260 C1259 1.524 . S
C1260 C1261 1.415 . S
C1261 H1231 0.950 . S
C1261 C1256 1.363 . S
C1261 C1260 1.415 . S
H1262 C1259 0.999 . S
H1263 C1244 0.913 . S
H1264 C1282 0.951 . S
H1265 C1284 0.951 . S
H1266 C1286 0.950 . S
H1267 C1287 0.950 . S
H1268 C1289 0.950 . S
H1269 C1292 0.950 . S
H1270 C1293 0.950 . S
H1271 C1295 0.950 . S
H1272 C1296 0.950 . S
H1273 C1297 0.951 . S
H1274 C1299 0.951 . S
H1275 C1301 0.950 . S
H1276 C1302 0.950 . S
H1277 C1304 0.950 . S
H1278 C1307 0.946 1_556 S
H1279 C1308 0.950 . S
H1280 C1310 0.950 . S
H1281 C1311 0.950 . S
C1282 H1264 0.951 . S
C1282 C1283 1.366 . S
C1282 C1284 1.388 . S
C1283 C1282 1.366 . S
C1283 C1287 1.385 . S
C1284 H1265 0.951 . S
C1284 C1282 1.388 . S
C1284 C1285 1.366 . S
C1285 C1284 1.366 . S
C1285 C1286 1.414 . S
C1285 C1288 1.499 . S
C1286 H1266 0.950 . S
C1286 C1285 1.414 . S
C1286 C1287 1.374 . S
C1287 H1267 0.950 . S
C1287 C1283 1.385 . S
C1287 C1286 1.374 . S
C1288 C1285 1.499 . S
C1288 C1289 1.373 . S
C1288 C1290 1.389 . S
C1289 H1268 0.950 . S
C1289 C1288 1.373 . S
C1289 C1305 1.377 . S
C1290 C1288 1.389 . S
C1290 C1291 1.524 . S
C1290 C1304 1.377 . S
C1291 C1290 1.524 . S
C1291 C1292 1.397 . S
C1291 C1296 1.363 . S
C1292 H1269 0.950 . S
C1292 C1291 1.397 . S
C1292 C1293 1.334 . S
C1293 H1270 0.950 . S
C1293 C1292 1.334 . S
C1293 C1294 1.287 . S
C1294 C1293 1.287 . S
C1294 C1295 1.524 . S
C1294 H1313 0.913 . S
C1295 H1271 0.950 . S
C1295 C1294 1.524 . S
C1295 C1296 1.415 . S
C1296 H1272 0.950 . S
C1296 C1291 1.363 . S
C1296 C1295 1.415 . S
C1297 H1273 0.951 . S
C1297 C1298 1.366 . S
C1297 C1299 1.388 . S
C1298 C1297 1.366 . S
C1298 C1302 1.385 . S
C1299 H1274 0.951 . S
C1299 C1297 1.388 . S
C1299 C1300 1.366 . S
C1300 C1299 1.366 . S
C1300 C1301 1.414 . S
C1300 C1303 1.499 . S
C1301 H1275 0.950 . S
C1301 C1300 1.414 . S
C1301 C1302 1.374 . S
C1302 H1276 0.950 . S
C1302 C1298 1.385 . S
C1302 C1301 1.374 . S
C1303 C1300 1.499 . S
C1303 C1304 1.373 . S
C1303 C1305 1.389 . S
C1304 H1277 0.950 . S
C1304 C1290 1.377 . S
C1304 C1303 1.373 . S
C1305 C1289 1.377 . S
C1305 C1303 1.389 . S
C1305 C1306 1.524 . S
C1306 C1305 1.524 . S
C1306 C1307 1.382 1_556 S
C1306 C1311 1.363 . S
C1307 H1278 0.946 1_554 S
C1307 C1306 1.382 1_554 S
C1307 C1308 1.352 . S
C1308 H1279 0.950 . S
C1308 C1307 1.352 . S
C1308 C1309 1.287 . S
C1309 C1308 1.287 . S
C1309 C1310 1.524 . S
C1309 H1312 0.999 . S
C1310 H1280 0.950 . S
C1310 C1309 1.524 . S
C1310 C1311 1.415 1_554 S
C1311 H1281 0.950 . S
C1311 C1306 1.363 . S
C1311 C1310 1.415 1_556 S
H1312 C1309 0.999 . S
H1313 C1294 0.913 . S
H1314 C1332 0.951 . S
H1315 C1334 0.951 . S
H1316 C1336 0.950 . S
H1317 C1337 0.950 . S
H1318 C1339 0.950 . S
H1319 C1342 0.950 . S
H1320 C1343 0.950 . S
H1321 C1345 0.950 . S
H1322 C1346 0.950 . S
H1323 C1347 0.951 . S
H1324 C1349 0.951 . S
H1325 C1351 0.950 . S
H1326 C1352 0.950 . S
H1327 C1354 0.950 . S
H1328 C1357 0.950 . S
H1329 C1358 0.950 . S
H1330 C1360 0.950 . S
H1331 C1361 0.950 . S
C1332 H1314 0.951 . S
C1332 C1333 1.366 . S
C1332 C1334 1.388 . S
C1333 C1332 1.366 . S
C1333 C1337 1.385 . S
C1334 H1315 0.951 . S
C1334 C1332 1.388 . S
C1334 C1335 1.366 . S
C1335 C1334 1.366 . S
C1335 C1336 1.414 . S
C1335 C1338 1.499 . S
C1336 H1316 0.950 . S
C1336 C1335 1.414 . S
C1336 C1337 1.374 . S
C1337 H1317 0.950 . S
C1337 C1333 1.385 . S
C1337 C1336 1.374 . S
C1338 C1335 1.499 . S
C1338 C1339 1.373 . S
C1338 C1340 1.389 . S
C1339 H1318 0.950 . S
C1339 C1338 1.373 . S
C1339 C1355 1.377 . S
C1340 C1338 1.389 . S
C1340 C1341 1.524 . S
C1340 C1354 1.377 . S
C1341 C1340 1.524 . S
C1341 C1342 1.397 . S
C1341 C1346 1.363 . S
C1342 H1319 0.950 . S
C1342 C1341 1.397 . S
C1342 C1343 1.334 . S
C1343 H1320 0.950 . S
C1343 C1342 1.334 . S
C1343 C1344 1.287 . S
C1344 C1343 1.287 . S
C1344 C1345 1.524 . S
C1344 H1363 0.913 . S
C1345 H1321 0.950 . S
C1345 C1344 1.524 . S
C1345 C1346 1.415 . S
C1346 H1322 0.950 . S
C1346 C1341 1.363 . S
C1346 C1345 1.415 . S
C1347 H1323 0.951 . S
C1347 C1348 1.366 . S
C1347 C1349 1.388 . S
C1348 C1347 1.366 . S
C1348 C1352 1.385 . S
C1349 H1324 0.951 . S
C1349 C1347 1.388 . S
C1349 C1350 1.366 . S
C1350 C1349 1.366 . S
C1350 C1351 1.414 . S
C1350 C1353 1.499 . S
C1351 H1325 0.950 . S
C1351 C1350 1.414 . S
C1351 C1352 1.374 . S
C1352 H1326 0.950 . S
C1352 C1348 1.385 . S
C1352 C1351 1.374 . S
C1353 C1350 1.499 . S
C1353 C1354 1.373 . S
C1353 C1355 1.389 . S
C1354 H1327 0.950 . S
C1354 C1340 1.377 . S
C1354 C1353 1.373 . S
C1355 C1339 1.377 . S
C1355 C1353 1.389 . S
C1355 C1356 1.524 . S
C1356 C1355 1.524 . S
C1356 C1357 1.397 . S
C1356 C1361 1.363 . S
C1357 H1328 0.950 . S
C1357 C1356 1.397 . S
C1357 C1358 1.334 . S
C1358 H1329 0.950 . S
C1358 C1357 1.334 . S
C1358 C1359 1.287 . S
C1359 C1358 1.287 . S
C1359 C1360 1.524 . S
C1359 H1362 0.999 . S
C1360 H1330 0.950 . S
C1360 C1359 1.524 . S
C1360 C1361 1.415 . S
C1361 H1331 0.950 . S
C1361 C1356 1.363 . S
C1361 C1360 1.415 . S
H1362 C1359 0.999 . S
H1363 C1344 0.913 . S
H1364 C1382 0.951 . S
H1365 C1384 0.951 . S
H1366 C1386 0.950 . S
H1367 C1387 0.950 . S
H1368 C1389 0.950 . S
H1369 C1392 0.950 . S
H1370 C1393 0.950 . S
H1371 C1395 0.950 . S
H1372 C1396 0.950 . S
H1373 C1397 0.951 . S
H1374 C1399 0.951 . S
H1375 C1401 0.950 . S
H1376 C1402 0.950 . S
H1377 C1404 0.950 . S
H1378 C1407 0.950 . S
H1379 C1408 0.950 . S
H1380 C1410 0.950 . S
H1381 C1411 0.950 . S
C1382 H1364 0.951 . S
C1382 C1383 1.366 . S
C1382 C1384 1.388 . S
C1383 C1382 1.366 . S
C1383 C1387 1.385 . S
C1384 H1365 0.951 . S
C1384 C1382 1.388 . S
C1384 C1385 1.366 . S
C1385 C1384 1.366 . S
C1385 C1386 1.414 . S
C1385 C1388 1.499 . S
C1386 H1366 0.950 . S
C1386 C1385 1.414 . S
C1386 C1387 1.374 . S
C1387 H1367 0.950 . S
C1387 C1383 1.385 . S
C1387 C1386 1.374 . S
C1388 C1385 1.499 . S
C1388 C1389 1.373 . S
C1388 C1390 1.389 . S
C1389 H1368 0.950 . S
C1389 C1388 1.373 . S
C1389 C1405 1.377 . S
C1390 C1388 1.389 . S
C1390 C1391 1.524 . S
C1390 C1404 1.377 . S
C1391 C1390 1.524 . S
C1391 C1392 1.397 . S
C1391 C1396 1.363 . S
C1392 H1369 0.950 . S
C1392 C1391 1.397 . S
C1392 C1393 1.334 . S
C1393 H1370 0.950 . S
C1393 C1392 1.334 . S
C1393 C1394 1.287 . S
C1394 C1393 1.287 . S
C1394 C1395 1.524 . S
C1394 H1413 0.913 . S
C1395 H1371 0.950 . S
C1395 C1394 1.524 . S
C1395 C1396 1.415 . S
C1396 H1372 0.950 . S
C1396 C1391 1.363 . S
C1396 C1395 1.415 . S
C1397 H1373 0.951 . S
C1397 C1398 1.366 . S
C1397 C1399 1.388 . S
C1398 C1397 1.366 . S
C1398 C1402 1.385 . S
C1399 H1374 0.951 . S
C1399 C1397 1.388 . S
C1399 C1400 1.366 . S
C1400 C1399 1.366 . S
C1400 C1401 1.414 . S
C1400 C1403 1.499 . S
C1401 H1375 0.950 . S
C1401 C1400 1.414 . S
C1401 C1402 1.374 . S
C1402 H1376 0.950 . S
C1402 C1398 1.385 . S
C1402 C1401 1.374 . S
C1403 C1400 1.499 . S
C1403 C1404 1.373 . S
C1403 C1405 1.389 . S
C1404 H1377 0.950 . S
C1404 C1390 1.377 . S
C1404 C1403 1.373 . S
C1405 C1389 1.377 . S
C1405 C1403 1.389 . S
C1405 C1406 1.524 . S
C1406 C1405 1.524 . S
C1406 C1407 1.397 . S
C1406 C1411 1.363 . S
C1407 H1378 0.950 . S
C1407 C1406 1.397 . S
C1407 C1408 1.334 . S
C1408 H1379 0.950 . S
C1408 C1407 1.334 . S
C1408 C1409 1.287 . S
C1409 C1408 1.287 . S
C1409 C1410 1.524 . S
C1409 H1412 0.999 . S
C1410 H1380 0.950 . S
C1410 C1409 1.524 . S
C1410 C1411 1.415 . S
C1411 H1381 0.950 . S
C1411 C1406 1.363 . S
C1411 C1410 1.415 . S
H1412 C1409 0.999 . S
H1413 C1394 0.913 . S
H1414 C1432 0.951 . S
H1415 C1434 0.951 . S
H1416 C1436 0.950 . S
H1417 C1437 0.950 . S
H1418 C1439 0.950 . S
H1419 C1442 0.950 . S
H1420 C1443 0.950 . S
H1421 C1445 0.950 . S
H1422 C1446 0.950 . S
H1423 C1447 0.951 . S
H1424 C1449 0.951 . S
H1425 C1451 0.950 . S
H1426 C1452 0.950 . S
H1427 C1454 0.950 . S
H1428 C1457 0.950 . S
H1429 C1458 0.950 . S
H1430 C1460 0.950 . S
H1431 C1461 0.950 . S
C1432 H1414 0.951 . S
C1432 C1433 1.366 . S
C1432 C1434 1.388 . S
C1433 C1432 1.366 . S
C1433 C1437 1.385 . S
C1434 H1415 0.951 . S
C1434 C1432 1.388 . S
C1434 C1435 1.366 . S
C1435 C1434 1.366 . S
C1435 C1436 1.414 . S
C1435 C1438 1.499 . S
C1436 H1416 0.950 . S
C1436 C1435 1.414 . S
C1436 C1437 1.374 . S
C1437 H1417 0.950 . S
C1437 C1433 1.385 . S
C1437 C1436 1.374 . S
C1438 C1435 1.499 . S
C1438 C1439 1.373 . S
C1438 C1440 1.389 . S
C1439 H1418 0.950 . S
C1439 C1438 1.373 . S
C1439 C1455 1.377 . S
C1440 C1438 1.389 . S
C1440 C1441 1.524 . S
C1440 C1454 1.377 . S
C1441 C1440 1.524 . S
C1441 C1442 1.397 . S
C1441 C1446 1.363 . S
C1442 H1419 0.950 . S
C1442 C1441 1.397 . S
C1442 C1443 1.334 . S
C1443 H1420 0.950 . S
C1443 C1442 1.334 . S
C1443 C1444 1.287 . S
C1444 C1443 1.287 . S
C1444 C1445 1.524 . S
C1444 H1463 0.913 . S
C1445 H1421 0.950 . S
C1445 C1444 1.524 . S
C1445 C1446 1.415 . S
C1446 H1422 0.950 . S
C1446 C1441 1.363 . S
C1446 C1445 1.415 . S
C1447 H1423 0.951 . S
C1447 C1448 1.366 . S
C1447 C1449 1.388 . S
C1448 C1447 1.366 . S
C1448 C1452 1.385 . S
C1449 H1424 0.951 . S
C1449 C1447 1.388 . S
C1449 C1450 1.366 . S
C1450 C1449 1.366 . S
C1450 C1451 1.414 . S
C1450 C1453 1.499 . S
C1451 H1425 0.950 . S
C1451 C1450 1.414 . S
C1451 C1452 1.374 . S
C1452 H1426 0.950 . S
C1452 C1448 1.385 . S
C1452 C1451 1.374 . S
C1453 C1450 1.499 . S
C1453 C1454 1.373 . S
C1453 C1455 1.389 . S
C1454 H1427 0.950 . S
C1454 C1440 1.377 . S
C1454 C1453 1.373 . S
C1455 C1439 1.377 . S
C1455 C1453 1.389 . S
C1455 C1456 1.524 . S
C1456 C1455 1.524 . S
C1456 C1457 1.397 . S
C1456 C1461 1.363 . S
C1457 H1428 0.950 . S
C1457 C1456 1.397 . S
C1457 C1458 1.334 . S
C1458 H1429 0.950 . S
C1458 C1457 1.334 . S
C1458 C1459 1.287 . S
C1459 C1458 1.287 . S
C1459 C1460 1.524 . S
C1459 H1462 0.999 . S
C1460 H1430 0.950 . S
C1460 C1459 1.524 . S
C1460 C1461 1.415 . S
C1461 H1431 0.950 . S
C1461 C1456 1.363 . S
C1461 C1460 1.415 . S
H1462 C1459 0.999 . S
H1463 C1444 0.913 . S
C283 C9 1.288 . S
C298 C108 1.315 . S
C333 C21 1.048 . S
C348 C169 1.072 . S
C398 C207 2.131 . S
C383 C30 2.131 . S
C433 C43 2.016 . S
C448 C247 2.091 1_655 S
C498 C167 1.100 . S
C483 C4 1.033 . S
C548 C135 2.613 . S
C533 C22 2.556 . S
C598 C244 1.249 . S
C583 C34 1.267 . S
C648 C204 1.636 . S
C633 C48 1.641 . S
C683 C8 1.057 . S
C698 C249 1.063 . S
C748 C164 2.350 . S
C733 C35 2.335 . S
C783 C47 2.352 . S
C798 C106 2.302 . S
C833 C17 1.188 . S
C848 C209 1.243 . S
C898 C129 0.726 . S
C883 C60 0.726 . S
C933 C74 1.251 . S
C948 C148 1.262 . S
C983 C82 1.892 . S
C998 C186 1.879 . S
C1033 C100 2.709 . S
C1048 C226 2.652 . S
C1083 C61 1.633 . S
C1098 C146 1.635 . S
C1148 C124 1.928 . S
C1133 C73 1.872 . S
C1198 C255 1.857 . S
C1183 C87 1.871 . S
C1248 C215 1.454 . S
C1233 C95 1.440 . S
C1283 C56 0.978 . S
C1298 C228 0.977 . S
C1348 C175 2.548 . S
C1333 C86 2.548 . S
C1398 C127 2.161 . S
C1383 C99 2.192 . S
C1433 C69 1.076 . S
C1448 C188 1.190 . S
