# Generated by pormake.
# Topology apo, (3,6)-cn, num edge types: 1
# Building blocks:
#     Node 0, Type 0, BuildingBlock: ESEHIV_clean_linker_0, # of connection points: 3
#     Node 1, Type 0, BuildingBlock: ESEHIV_clean_linker_0, # of connection points: 3
#     Node 2, Type 0, BuildingBlock: ESEHIV_clean_linker_0, # of connection points: 3
#     Node 3, Type 0, BuildingBlock: ESEHIV_clean_linker_0, # of connection points: 3
#     Node 4, Type 0, BuildingBlock: ESEHIV_clean_linker_0, # of connection points: 3
#     Node 5, Type 0, BuildingBlock: ESEHIV_clean_linker_0, # of connection points: 3
#     Node 6, Type 0, BuildingBlock: ESEHIV_clean_linker_0, # of connection points: 3
#     Node 7, Type 0, BuildingBlock: ESEHIV_clean_linker_0, # of connection points: 3
#     Node 8, Type 1, BuildingBlock: KUMBOL_clean_sbu_1, # of connection points: 6
#     Node 9, Type 1, BuildingBlock: KUMBOL_clean_sbu_1, # of connection points: 6
#     Node 10, Type 1, BuildingBlock: KUMBOL_clean_sbu_1, # of connection points: 6
#     Node 11, Type 1, BuildingBlock: KUMBOL_clean_sbu_1, # of connection points: 6
#     Edge 12, Type (0, 1), BuildingBlock: EZIPEK_clean_linker_0, # of connection points: 2
#     Edge 13, Type (0, 1), BuildingBlock: EZIPEK_clean_linker_0, # of connection points: 2
#     Edge 14, Type (0, 1), BuildingBlock: EZIPEK_clean_linker_0, # of connection points: 2
#     Edge 15, Type (0, 1), BuildingBlock: EZIPEK_clean_linker_0, # of connection points: 2
#     Edge 16, Type (0, 1), BuildingBlock: EZIPEK_clean_linker_0, # of connection points: 2
#     Edge 17, Type (0, 1), BuildingBlock: EZIPEK_clean_linker_0, # of connection points: 2
#     Edge 18, Type (0, 1), BuildingBlock: EZIPEK_clean_linker_0, # of connection points: 2
#     Edge 19, Type (0, 1), BuildingBlock: EZIPEK_clean_linker_0, # of connection points: 2
#     Edge 20, Type (0, 1), BuildingBlock: EZIPEK_clean_linker_0, # of connection points: 2
#     Edge 21, Type (0, 1), BuildingBlock: EZIPEK_clean_linker_0, # of connection points: 2
#     Edge 22, Type (0, 1), BuildingBlock: EZIPEK_clean_linker_0, # of connection points: 2
#     Edge 23, Type (0, 1), BuildingBlock: EZIPEK_clean_linker_0, # of connection points: 2
#     Edge 24, Type (0, 1), BuildingBlock: EZIPEK_clean_linker_0, # of connection points: 2
#     Edge 25, Type (0, 1), BuildingBlock: EZIPEK_clean_linker_0, # of connection points: 2
#     Edge 26, Type (0, 1), BuildingBlock: EZIPEK_clean_linker_0, # of connection points: 2
#     Edge 27, Type (0, 1), BuildingBlock: EZIPEK_clean_linker_0, # of connection points: 2
#     Edge 28, Type (0, 1), BuildingBlock: EZIPEK_clean_linker_0, # of connection points: 2
#     Edge 29, Type (0, 1), BuildingBlock: EZIPEK_clean_linker_0, # of connection points: 2
#     Edge 30, Type (0, 1), BuildingBlock: EZIPEK_clean_linker_0, # of connection points: 2
#     Edge 31, Type (0, 1), BuildingBlock: EZIPEK_clean_linker_0, # of connection points: 2
#     Edge 32, Type (0, 1), BuildingBlock: EZIPEK_clean_linker_0, # of connection points: 2
#     Edge 33, Type (0, 1), BuildingBlock: EZIPEK_clean_linker_0, # of connection points: 2
#     Edge 34, Type (0, 1), BuildingBlock: EZIPEK_clean_linker_0, # of connection points: 2
#     Edge 35, Type (0, 1), BuildingBlock: EZIPEK_clean_linker_0, # of connection points: 2
# Relax obj value: 0.007
# Max RMSD: 0.142
# Mean RMSD: 0.106
data_MOF--net-apo--node1-KUMBOL_clean_sbu_1--node2-ESEHIV_clean_linker_0--edge1-EZIPEK_clean_linker_0
_symmetry_space_group_name_H-M    P1
_symmetry_Int_Tables_number       1
_symmetry_cell_setting            triclinic
loop_
_symmetry_equiv_pos_as_xyz
'x, y, z'
_cell_length_a     16.49474
_cell_length_b     28.281026
_cell_length_c     39.421328
_cell_angle_alpha  90.02384
_cell_angle_beta   90.048603
_cell_angle_gamma 90.116733
loop_
_atom_site_label
_atom_site_type_symbol
_atom_site_fract_x
_atom_site_fract_y
_atom_site_fract_z
_atom_type_partial_charge
H0 H 0.31946 0.45043 0.42487 0.0
H1 H 0.28353 0.38127 0.32861 0.0
H2 H 0.24688 0.30408 0.42087 0.0
C3 C 0.30476 0.41916 0.41019 0.0
C4 C 0.28848 0.37624 0.42732 0.0
C5 C 0.30658 0.42139 0.37441 0.0
C6 C 0.2837 0.38063 0.3561 0.0
C7 C 0.25598 0.33966 0.37268 0.0
C8 C 0.26319 0.3367 0.40816 0.0
H9 H 0.15325 0.0535 0.91671 0.0
H10 H 0.32127 0.10121 0.8412 0.0
H11 H 0.24418 0.19613 0.91938 0.0
C12 C 0.19015 0.08123 0.90576 0.0
C13 C 0.20251 0.12372 0.92411 0.0
C14 C 0.2264 0.0742 0.87359 0.0
C15 C 0.28206 0.10848 0.86254 0.0
C16 C 0.28319 0.15381 0.87707 0.0
C17 C 0.24153 0.16157 0.90751 0.0
H18 H 0.81297 0.05224 0.58382 0.0
H19 H 0.76315 0.10806 0.68286 0.0
H20 H 0.75018 0.19963 0.5969 0.0
C21 C 0.79638 0.08206 0.59956 0.0
C22 C 0.78243 0.12714 0.5849 0.0
C23 C 0.79432 0.07605 0.63504 0.0
C24 C 0.76735 0.11316 0.65565 0.0
C25 C 0.74539 0.15671 0.64153 0.0
C26 C 0.75974 0.16444 0.60687 0.0
H27 H 0.62865 0.43946 0.09189 0.0
H28 H 0.73258 0.38543 0.18389 0.0
H29 H 0.78605 0.31802 0.08851 0.0
C30 C 0.66721 0.41406 0.10464 0.0
C31 C 0.70526 0.37803 0.08584 0.0
C32 C 0.68013 0.4179 0.13981 0.0
C33 C 0.72626 0.38345 0.15654 0.0
C34 C 0.76458 0.34685 0.13856 0.0
C35 C 0.75598 0.34554 0.1029 0.0
H36 H 0.68797 0.55021 0.58389 0.0
H37 H 0.76742 0.69493 0.58746 0.0
H38 H 0.75625 0.61244 0.67899 0.0
C39 C 0.70828 0.58039 0.59861 0.0
C40 C 0.71282 0.57713 0.63414 0.0
C41 C 0.72666 0.62296 0.58186 0.0
C42 C 0.75472 0.66209 0.60058 0.0
C43 C 0.77018 0.65812 0.63567 0.0
C44 C 0.74743 0.61557 0.65194 0.0
H45 H 0.86284 0.95238 0.09214 0.0
H46 H 0.73355 0.89844 0.17803 0.0
H47 H 0.73806 0.81874 0.08475 0.0
C48 C 0.82566 0.92497 0.10348 0.0
C49 C 0.79758 0.88695 0.08353 0.0
C50 C 0.80222 0.92907 0.13748 0.0
C51 C 0.75225 0.89441 0.15182 0.0
C52 C 0.73212 0.85286 0.13384 0.0
C53 C 0.75442 0.84979 0.09936 0.0
H54 H 0.13611 0.9378 0.4182 0.0
H55 H 0.27499 0.80936 0.42409 0.0
H56 H 0.27426 0.89011 0.33198 0.0
C57 C 0.17634 0.91243 0.40638 0.0
C58 C 0.20084 0.91868 0.37237 0.0
C59 C 0.20606 0.87432 0.42563 0.0
C60 C 0.25443 0.83982 0.40981 0.0
C61 C 0.27646 0.84473 0.37559 0.0
C62 C 0.25383 0.88551 0.35792 0.0
H63 H 0.32729 0.54998 0.92472 0.0
H64 H 0.26136 0.61239 0.82935 0.0
H65 H 0.24494 0.69396 0.92061 0.0
C66 C 0.30544 0.57975 0.91005 0.0
C67 C 0.28819 0.62245 0.92672 0.0
C68 C 0.30064 0.5766 0.87447 0.0
C69 C 0.2677 0.6148 0.85654 0.0
C70 C 0.24353 0.65645 0.87275 0.0
C71 C 0.25825 0.66094 0.90783 0.0
C72 C 0.73423 0.11488 0.2718 0.0
C73 C 0.71449 0.03224 0.28608 0.0
C74 C 0.76349 0.07324 0.28574 0.0
C75 C 0.63754 0.03319 0.27082 0.0
C76 C 0.65589 0.11637 0.25743 0.0
C77 C 0.60837 0.07513 0.25648 0.0
N78 N 0.78226 0.15401 0.27249 0.0
C79 C 0.75309 0.19656 0.26169 0.0
C80 C 0.62752 0.15938 0.24457 0.0
C81 C 0.67583 0.19979 0.24723 0.0
Gd82 Gd 0.10084 0.14164 0.22045 0.0
Gd83 Gd 0.91627 0.14307 0.29154 0.0
N84 N 0.83891 0.07321 0.29973 0.0
C85 C 0.74363 0.99171 0.30229 0.0
C86 C 0.86466 0.03477 0.31789 0.0
C87 C 0.8183 0.99334 0.31886 0.0
H88 H 0.92072 0.03553 0.33202 0.0
H89 H 0.84005 0.96274 0.33259 0.0
H90 H 0.07083 0.24758 0.18498 0.0
H91 H 0.78915 0.22822 0.26411 0.0
H92 H 0.13963 0.32534 0.18211 0.0
H93 H 0.70791 0.95953 0.30308 0.0
H94 H 0.59957 0.00187 0.27048 0.0
H95 H 0.2474 0.06344 0.24529 0.0
H96 H 0.568 0.16195 0.23308 0.0
H97 H 0.65366 0.23345 0.23808 0.0
H98 H 0.39303 0.30023 0.23935 0.0
H99 H 0.54848 0.07547 0.24516 0.0
H100 H 0.4559 0.14286 0.27528 0.0
H101 H 0.38495 0.0663 0.26919 0.0
N102 N 0.23669 0.13837 0.24025 0.0
C103 C 0.27734 0.18024 0.24084 0.0
C104 C 0.27635 0.09743 0.24861 0.0
C105 C 0.39495 0.14197 0.26504 0.0
C106 C 0.35499 0.09873 0.26179 0.0
C107 C 0.35719 0.18325 0.25365 0.0
H108 H 0.45879 0.22996 0.26366 0.0
N109 N 0.16494 0.21537 0.21362 0.0
C110 C 0.24084 0.21977 0.22677 0.0
C111 C 0.24469 0.30188 0.20989 0.0
C112 C 0.28235 0.26337 0.22566 0.0
C113 C 0.12981 0.252 0.19649 0.0
C114 C 0.16856 0.29599 0.19487 0.0
O115 O 0.88809 0.10842 0.24135 0.0
O116 O 0.01194 0.07993 0.22418 0.0
O117 O 0.09025 0.14722 0.16475 0.0
O118 O 0.17501 0.098 0.18832 0.0
O119 O 0.00187 0.08229 0.29706 0.0
O120 O 0.11982 0.09358 0.26566 0.0
O121 O 0.09039 0.20477 0.25476 0.0
O122 O 0.04441 0.16873 0.30258 0.0
O123 O 0.91976 0.13346 0.34603 0.0
O124 O 0.86374 0.19599 0.32522 0.0
O125 O 0.98248 0.17564 0.20551 0.0
O126 O 0.92992 0.20537 0.25529 0.0
C127 C 0.93185 0.07994 0.22258 0.0
C128 C 0.07746 0.07276 0.28964 0.0
C129 C 0.17453 0.0981 0.12711 0.0
C130 C 0.17641 0.10057 0.06524 0.0
C131 C 0.26285 0.0454 0.09543 0.0
C132 C 0.23327 0.06209 0.12621 0.0
C133 C 0.23463 0.06442 0.06514 0.0
C134 C 0.1459 0.11743 0.09634 0.0
C135 C 0.14578 0.11518 0.1604 0.0
C136 C 0.36038 0.26695 0.23975 0.0
C137 C 0.39773 0.22697 0.25369 0.0
H138 H 0.27454 0.336 0.20859 0.0
C139 C 0.08427 0.2031 0.28774 0.0
C140 C 0.93368 0.20472 0.22174 0.0
C141 C 0.81685 0.16743 0.37884 0.0
C142 C 0.77952 0.15557 0.43843 0.0
C143 C 0.67533 0.16187 0.39474 0.0
C144 C 0.73458 0.16752 0.36989 0.0
C145 C 0.69744 0.15556 0.42859 0.0
C146 C 0.8393 0.16182 0.41326 0.0
C147 C 0.88006 0.17192 0.35265 0.0
H148 H 0.30854 0.01798 0.09506 0.0
H149 H 0.25696 0.04684 0.14938 0.0
H150 H 0.25975 0.0517 0.04144 0.0
H151 H 0.10206 0.14591 0.0965 0.0
H152 H 0.61187 0.16236 0.38775 0.0
H153 H 0.71607 0.17182 0.3437 0.0
H154 H 0.65003 0.1514 0.44737 0.0
H155 H 0.90279 0.16249 0.42039 0.0
C156 C 0.79432 0.3924 0.76767 0.0
C157 C 0.82181 0.46933 0.79268 0.0
C158 C 0.7688 0.43091 0.78683 0.0
C159 C 0.89857 0.46983 0.77734 0.0
C160 C 0.87253 0.39215 0.75322 0.0
C161 C 0.92356 0.43154 0.75742 0.0
N162 N 0.74437 0.3543 0.76454 0.0
C163 C 0.77188 0.31336 0.75043 0.0
C164 C 0.89814 0.35165 0.73588 0.0
C165 C 0.84835 0.3117 0.7352 0.0
Gd166 Gd 0.41344 0.36178 0.72258 0.0
Gd167 Gd 0.61603 0.36245 0.7892 0.0
N168 N 0.69327 0.43025 0.8006 0.0
C169 C 0.79623 0.50608 0.81392 0.0
C170 C 0.66951 0.46498 0.82258 0.0
C171 C 0.72004 0.50363 0.82918 0.0
H172 H 0.61187 0.46313 0.83534 0.0
H173 H 0.70031 0.53139 0.84617 0.0
H174 H 0.45002 0.26006 0.682 0.0
H175 H 0.73582 0.28161 0.75142 0.0
H176 H 0.37805 0.18558 0.66861 0.0
H177 H 0.83515 0.53618 0.81901 0.0
H178 H 0.93946 0.49941 0.78107 0.0
H179 H 0.26666 0.43459 0.75258 0.0
H180 H 0.95739 0.3502 0.72411 0.0
H181 H 0.86923 0.27944 0.72334 0.0
H182 H 0.11667 0.20414 0.72037 0.0
H183 H 0.98338 0.4322 0.74611 0.0
H184 H 0.05573 0.35251 0.77278 0.0
H185 H 0.12865 0.42885 0.7752 0.0
N186 N 0.2774 0.36164 0.74142 0.0
C187 C 0.23614 0.32043 0.73726 0.0
C188 C 0.23788 0.40076 0.75313 0.0
C189 C 0.11735 0.35478 0.76346 0.0
C190 C 0.15845 0.39778 0.76516 0.0
C191 C 0.15495 0.31589 0.74825 0.0
H192 H 0.05093 0.26919 0.75123 0.0
N193 N 0.35254 0.28858 0.71053 0.0
C194 C 0.27391 0.28336 0.72049 0.0
C195 C 0.2688 0.2059 0.69468 0.0
C196 C 0.23046 0.24146 0.7134 0.0
C197 C 0.3893 0.25467 0.69136 0.0
C198 C 0.34831 0.21268 0.68341 0.0
O199 O 0.62936 0.40217 0.73906 0.0
O200 O 0.49888 0.42496 0.72465 0.0
O201 O 0.40184 0.35315 0.66723 0.0
O202 O 0.34463 0.4126 0.69337 0.0
O203 O 0.52373 0.41937 0.79795 0.0
O204 O 0.40107 0.40794 0.76902 0.0
O205 O 0.40199 0.30933 0.76573 0.0
O206 O 0.51479 0.31173 0.80172 0.0
O207 O 0.61256 0.36921 0.84451 0.0
O208 O 0.69904 0.3213 0.82027 0.0
O209 O 0.53353 0.32928 0.7073 0.0
O210 O 0.58938 0.2987 0.75654 0.0
C211 C 0.57805 0.42666 0.72013 0.0
C212 C 0.44644 0.42794 0.79261 0.0
C213 C 0.32053 0.4079 0.63254 0.0
C214 C 0.3004 0.40379 0.57095 0.0
C215 C 0.22719 0.46168 0.60444 0.0
C216 C 0.26455 0.44528 0.63384 0.0
C217 C 0.24486 0.44112 0.57325 0.0
C218 C 0.33862 0.38703 0.60074 0.0
C219 C 0.35555 0.39026 0.66485 0.0
C220 C 0.15041 0.2364 0.72508 0.0
C221 C 0.11304 0.27335 0.74276 0.0
H222 H 0.23748 0.17321 0.6887 0.0
C223 C 0.44216 0.29627 0.79319 0.0
C224 C 0.57893 0.29826 0.72341 0.0
C225 C 0.70521 0.32624 0.88224 0.0
C226 C 0.71184 0.33428 0.94433 0.0
C227 C 0.81175 0.28713 0.91428 0.0
C228 C 0.77433 0.29735 0.88347 0.0
C229 C 0.78124 0.30565 0.94438 0.0
C230 C 0.67297 0.3442 0.91304 0.0
C231 C 0.67217 0.33968 0.84849 0.0
H232 H 0.18381 0.49026 0.60586 0.0
H233 H 0.24861 0.46165 0.65776 0.0
H234 H 0.21467 0.45424 0.55072 0.0
H235 H 0.38095 0.35787 0.59915 0.0
H236 H 0.8653 0.26509 0.91479 0.0
H237 H 0.80069 0.28321 0.86045 0.0
H238 H 0.81189 0.29747 0.96798 0.0
H239 H 0.6194 0.36631 0.9127 0.0
C240 C 0.72935 0.83808 0.77231 0.0
C241 C 0.71183 0.75837 0.79383 0.0
C242 C 0.76116 0.79839 0.78807 0.0
C243 C 0.6322 0.75753 0.7812 0.0
C244 C 0.64847 0.83804 0.7607 0.0
C245 C 0.60086 0.7971 0.76436 0.0
N246 N 0.77653 0.87733 0.76955 0.0
C247 C 0.74484 0.91872 0.75779 0.0
C248 C 0.61731 0.87954 0.74649 0.0
C249 C 0.66511 0.92033 0.74573 0.0
Gd250 Gd 0.10409 0.8601 0.71978 0.0
Gd251 Gd 0.91111 0.86982 0.78802 0.0
N252 N 0.83921 0.79973 0.7991 0.0
C253 C 0.74348 0.72081 0.81276 0.0
C254 C 0.86895 0.76428 0.81904 0.0
C255 C 0.822 0.72412 0.82584 0.0
H256 H 0.92879 0.76658 0.82981 0.0
H257 H 0.84651 0.6957 0.84107 0.0
H258 H 0.08414 0.95866 0.67313 0.0
H259 H 0.78087 0.95062 0.75758 0.0
H260 H 0.16181 0.03157 0.6612 0.0
H261 H 0.70751 0.68949 0.8178 0.0
H262 H 0.59399 0.72672 0.78475 0.0
H263 H 0.23971 0.78582 0.75463 0.0
H264 H 0.55595 0.88079 0.73678 0.0
H265 H 0.64063 0.953 0.7358 0.0
H266 H 0.40735 0.01333 0.72553 0.0
H267 H 0.53901 0.79613 0.75512 0.0
H268 H 0.45158 0.86453 0.78078 0.0
H269 H 0.37408 0.78962 0.78169 0.0
N270 N 0.23737 0.85816 0.7412 0.0
C271 C 0.28142 0.8985 0.73812 0.0
C272 C 0.2712 0.81887 0.75529 0.0
C273 C 0.39212 0.863 0.76915 0.0
C274 C 0.34829 0.82078 0.76999 0.0
C275 C 0.35985 0.90218 0.75221 0.0
H276 H 0.46386 0.94809 0.75933 0.0
N277 N 0.17252 0.93083 0.70692 0.0
C278 C 0.24847 0.9357 0.71998 0.0
C279 C 0.26231 0.01204 0.69317 0.0
C280 C 0.29455 0.97698 0.71424 0.0
C281 C 0.14244 0.96382 0.68502 0.0
C282 C 0.1865 0.00507 0.67807 0.0
O283 O 0.88766 0.82705 0.73973 0.0
O284 O 0.01308 0.80039 0.72177 0.0
O285 O 0.10011 0.86542 0.66449 0.0
O286 O 0.17665 0.81221 0.68884 0.0
O287 O 0.01716 0.82335 0.80218 0.0
O288 O 0.09381 0.79877 0.75625 0.0
O289 O 0.12932 0.89764 0.77044 0.0
O290 O 0.0052 0.92756 0.78357 0.0
O291 O 0.92523 0.86405 0.84257 0.0
O292 O 0.84568 0.91715 0.82169 0.0
O293 O 0.9912 0.90143 0.70386 0.0
O294 O 0.92523 0.93078 0.75151 0.0
C295 C 0.9337 0.80179 0.71912 0.0
C296 C 0.07286 0.79607 0.78855 0.0
C297 C 0.17751 0.81387 0.62674 0.0
C298 C 0.18887 0.82289 0.56504 0.0
C299 C 0.24049 0.75241 0.59271 0.0
C300 C 0.21626 0.76985 0.62418 0.0
C301 C 0.22701 0.77869 0.56337 0.0
C302 C 0.1635 0.84048 0.59687 0.0
C303 C 0.15079 0.83071 0.66056 0.0
C304 C 0.37166 0.98153 0.72915 0.0
C305 C 0.40395 0.94434 0.74834 0.0
H306 H 0.29593 0.04419 0.68798 0.0
C307 C 0.08255 0.92312 0.79049 0.0
C308 C 0.93715 0.92917 0.71847 0.0
C309 C 0.81611 0.88828 0.87703 0.0
C310 C 0.78936 0.88186 0.93782 0.0
C311 C 0.67858 0.8768 0.89726 0.0
C312 C 0.73298 0.88251 0.87049 0.0
C313 C 0.70643 0.87667 0.9307 0.0
C314 C 0.84435 0.88747 0.91083 0.0
C315 C 0.87361 0.89743 0.84919 0.0
H316 H 0.27016 0.71838 0.59106 0.0
H317 H 0.22734 0.74858 0.64655 0.0
H318 H 0.24709 0.76468 0.53921 0.0
H319 H 0.13411 0.87466 0.59828 0.0
H320 H 0.61441 0.87316 0.89212 0.0
H321 H 0.70988 0.8831 0.84476 0.0
H322 H 0.66301 0.87328 0.95117 0.0
H323 H 0.90827 0.89256 0.91618 0.0
C324 C 0.77835 0.67025 0.26439 0.0
C325 C 0.80461 0.74736 0.28942 0.0
C326 C 0.75178 0.70903 0.28315 0.0
C327 C 0.88195 0.74785 0.27457 0.0
C328 C 0.85669 0.67035 0.25002 0.0
C329 C 0.90738 0.70983 0.25449 0.0
N330 N 0.72862 0.632 0.26105 0.0
C331 C 0.7561 0.59162 0.24594 0.0
C332 C 0.88262 0.63027 0.2323 0.0
C333 C 0.83258 0.59049 0.23072 0.0
Gd334 Gd 0.40865 0.64581 0.22053 0.0
Gd335 Gd 0.60154 0.6394 0.28743 0.0
N336 N 0.67511 0.70884 0.29592 0.0
C337 C 0.77819 0.78399 0.31062 0.0
C338 C 0.64997 0.74353 0.31753 0.0
C339 C 0.70079 0.78185 0.32495 0.0
H340 H 0.59089 0.74151 0.32921 0.0
H341 H 0.68025 0.80968 0.34171 0.0
H342 H 0.4376 0.54482 0.17803 0.0
H343 H 0.72056 0.55968 0.24609 0.0
H344 H 0.36004 0.47293 0.16353 0.0
H345 H 0.81713 0.81392 0.31616 0.0
H346 H 0.9227 0.77745 0.27854 0.0
H347 H 0.27472 0.72099 0.25626 0.0
H348 H 0.9421 0.62912 0.22069 0.0
H349 H 0.8534 0.55864 0.21826 0.0
H350 H 0.09913 0.49842 0.2141 0.0
H351 H 0.96722 0.71082 0.24321 0.0
H352 H 0.05135 0.64639 0.26948 0.0
H353 H 0.13338 0.71909 0.27632 0.0
N354 N 0.27501 0.64894 0.24058 0.0
C355 C 0.22941 0.60969 0.23453 0.0
C356 C 0.24065 0.68854 0.25413 0.0
C357 C 0.1137 0.64689 0.26092 0.0
C358 C 0.15999 0.68787 0.26503 0.0
C359 C 0.14755 0.60754 0.24477 0.0
H360 H 0.03886 0.56434 0.24589 0.0
N361 N 0.34316 0.57478 0.20761 0.0
C362 C 0.26389 0.57206 0.21697 0.0
C363 C 0.25222 0.49576 0.18961 0.0
C364 C 0.21664 0.532 0.20868 0.0
C365 C 0.37696 0.54065 0.18768 0.0
C366 C 0.33252 0.5003 0.17885 0.0
O367 O 0.61831 0.68425 0.23927 0.0
O368 O 0.49297 0.70879 0.21922 0.0
O369 O 0.41146 0.63732 0.16511 0.0
O370 O 0.33179 0.6895 0.18896 0.0
O371 O 0.4889 0.67848 0.30439 0.0
O372 O 0.41996 0.7071 0.25708 0.0
O373 O 0.38737 0.60003 0.26815 0.0
O374 O 0.51183 0.5795 0.29259 0.0
O375 O 0.60425 0.65102 0.34205 0.0
O376 O 0.68731 0.60129 0.31908 0.0
O377 O 0.5261 0.60876 0.20776 0.0
O378 O 0.58038 0.57436 0.25552 0.0
C379 C 0.57269 0.71001 0.21874 0.0
C380 C 0.43545 0.70644 0.28989 0.0
C381 C 0.32428 0.68435 0.1274 0.0
C382 C 0.30879 0.6735 0.06606 0.0
C383 C 0.23191 0.73418 0.09529 0.0
C384 C 0.26743 0.72128 0.12597 0.0
C385 C 0.25206 0.71037 0.0656 0.0
C386 C 0.34585 0.66071 0.09706 0.0
C387 C 0.35603 0.66958 0.16096 0.0
C388 C 0.13585 0.52926 0.21973 0.0
C389 C 0.10156 0.56679 0.23789 0.0
H390 H 0.21803 0.46438 0.18284 0.0
C391 C 0.43213 0.57628 0.29043 0.0
C392 C 0.56002 0.57266 0.22322 0.0
C393 C 0.66169 0.59325 0.37852 0.0
C394 C 0.67577 0.58918 0.44031 0.0
C395 C 0.6594 0.51734 0.40714 0.0
C396 C 0.65532 0.54381 0.37731 0.0
C397 C 0.66882 0.5398 0.43842 0.0
C398 C 0.67219 0.61592 0.41019 0.0
C399 C 0.66349 0.62155 0.34708 0.0
H400 H 0.18793 0.76251 0.09458 0.0
H401 H 0.24944 0.74 0.14871 0.0
H402 H 0.22317 0.72071 0.04204 0.0
H403 H 0.38945 0.63211 0.09757 0.0
H404 H 0.65504 0.47919 0.40603 0.0
H405 H 0.64773 0.5256 0.35334 0.0
H406 H 0.67237 0.51851 0.46122 0.0
H407 H 0.67952 0.654 0.41134 0.0
C408 C 0.14508 0.95137 0.31719 0.0
C409 C 0.17084 0.9592 0.35124 0.0
C410 C 0.13092 0.04216 0.34536 0.0
C411 C 0.11675 0.03526 0.31012 0.0
N412 N 0.1362 0.98506 0.26116 0.0
N413 N 0.21147 0.01728 0.3932 0.0
C414 C 0.13294 0.99061 0.2955 0.0
C415 C 0.17038 0.00613 0.36417 0.0
N416 N 0.12659 0.90693 0.30597 0.0
N417 N 0.10726 0.08283 0.3611 0.0
H418 H 0.24793 0.99314 0.40606 0.0
H419 H 0.21748 0.0519 0.40197 0.0
H420 H 0.08085 0.11099 0.34829 0.0
H421 H 0.10858 0.08686 0.38739 0.0
H422 H 0.10228 0.90053 0.28196 0.0
H423 H 0.12548 0.87754 0.32193 0.0
H424 H 0.1551 0.95361 0.24984 0.0
H425 H 0.12684 0.01272 0.24418 0.0
C426 C 0.30032 0.52126 0.82367 0.0
C427 C 0.33482 0.53544 0.85521 0.0
C428 C 0.43078 0.47091 0.8487 0.0
C429 C 0.40834 0.46503 0.81416 0.0
N430 N 0.34338 0.50449 0.76689 0.0
N431 N 0.45841 0.53181 0.88925 0.0
C432 C 0.34913 0.49587 0.80078 0.0
C433 C 0.40757 0.51265 0.86563 0.0
N434 N 0.22142 0.53014 0.81569 0.0
N435 N 0.47125 0.43672 0.86593 0.0
H436 H 0.45229 0.56621 0.89832 0.0
H437 H 0.51335 0.51586 0.89567 0.0
H438 H 0.48045 0.40359 0.85547 0.0
H439 H 0.48478 0.43968 0.89172 0.0
H440 H 0.1959 0.51852 0.79289 0.0
H441 H 0.18072 0.54401 0.83333 0.0
H442 H 0.3027 0.52932 0.7572 0.0
H443 H 0.38387 0.49017 0.74938 0.0
C444 C 0.72087 0.51888 0.68308 0.0
C445 C 0.68077 0.53447 0.65325 0.0
C446 C 0.58181 0.47057 0.6633 0.0
C447 C 0.61221 0.46368 0.69662 0.0
N448 N 0.68716 0.5027 0.74071 0.0
N449 N 0.5538 0.53051 0.62151 0.0
C450 C 0.67615 0.49326 0.70735 0.0
C451 C 0.60569 0.51171 0.64483 0.0
N452 N 0.8009 0.52798 0.68867 0.0
N453 N 0.5323 0.43776 0.64886 0.0
H454 H 0.56202 0.56377 0.61074 0.0
H455 H 0.49696 0.51573 0.61661 0.0
H456 H 0.52116 0.40552 0.66067 0.0
H457 H 0.51236 0.44028 0.62379 0.0
H458 H 0.83059 0.5156 0.71032 0.0
H459 H 0.83802 0.54297 0.67011 0.0
H460 H 0.7294 0.52778 0.74888 0.0
H461 H 0.64432 0.49193 0.75848 0.0
C462 C 0.90262 0.9611 0.17932 0.0
C463 C 0.83288 0.96848 0.15912 0.0
C464 C 0.81852 0.04844 0.18321 0.0
C465 C 0.88941 0.04074 0.2035 0.0
N466 N 0.96936 0.98158 0.23165 0.0
N467 N 0.71451 0.0147 0.14641 0.0
C468 C 0.92338 0.99476 0.20452 0.0
C469 C 0.78778 0.01088 0.16246 0.0
N470 N 0.94942 0.92184 0.17457 0.0
N471 N 0.78066 0.09133 0.18316 0.0
H472 H 0.69204 0.98876 0.13006 0.0
H473 H 0.67325 0.04175 0.15093 0.0
H474 H 0.79431 0.11859 0.19982 0.0
H475 H 0.73686 0.10105 0.16549 0.0
H476 H 0.00543 0.91739 0.18642 0.0
H477 H 0.9358 0.89582 0.15667 0.0
H478 H 0.98949 0.94706 0.23536 0.0
H479 H 0.97677 0.00348 0.25271 0.0
C480 C 0.78665 0.99297 0.65965 0.0
C481 C 0.83196 0.03436 0.65193 0.0
C482 C 0.93457 0.01041 0.69278 0.0
C483 C 0.89717 0.96575 0.69675 0.0
N484 N 0.7908 0.91187 0.67999 0.0
N485 N 0.95969 0.07589 0.65507 0.0
C486 C 0.82419 0.95601 0.6788 0.0
C487 C 0.91001 0.04044 0.66612 0.0
N488 N 0.70743 0.9897 0.64993 0.0
N489 N 0.98754 0.02643 0.71657 0.0
H490 H 0.94344 0.09894 0.63556 0.0
H491 H 0.01977 0.07901 0.66306 0.0
H492 H 0.9915 0.00971 0.73998 0.0
H493 H 0.01453 0.05978 0.71559 0.0
H494 H 0.66886 0.96293 0.65834 0.0
H495 H 0.67911 0.01581 0.63547 0.0
H496 H 0.74081 0.90192 0.66545 0.0
H497 H 0.81648 0.88442 0.69399 0.0
C498 C 0.58871 0.44926 0.18562 0.0
C499 C 0.64656 0.45825 0.15981 0.0
C500 C 0.64651 0.54271 0.17482 0.0
C501 C 0.59275 0.53305 0.20223 0.0
N502 N 0.52611 0.47513 0.2378 0.0
N503 N 0.74279 0.51163 0.1341 0.0
C504 C 0.56826 0.48569 0.20896 0.0
C505 C 0.67836 0.50456 0.15534 0.0
N506 N 0.55106 0.40617 0.1871 0.0
N507 N 0.6692 0.58822 0.16783 0.0
H508 H 0.76944 0.48458 0.12007 0.0
H509 H 0.77477 0.54332 0.13254 0.0
H510 H 0.65781 0.6166 0.18397 0.0
H511 H 0.69739 0.59819 0.14531 0.0
H512 H 0.50226 0.39889 0.20302 0.0
H513 H 0.5633 0.37888 0.17005 0.0
H514 H 0.51546 0.4407 0.24606 0.0
H515 H 0.5074 0.50048 0.25515 0.0
C516 C 0.29214 0.47907 0.32525 0.0
C517 C 0.33223 0.46572 0.35563 0.0
C518 C 0.41913 0.53567 0.34772 0.0
C519 C 0.3927 0.54048 0.31358 0.0
N520 N 0.32527 0.49902 0.26829 0.0
N521 N 0.45246 0.47762 0.39006 0.0
C522 C 0.33373 0.50796 0.3018 0.0
C523 C 0.40067 0.49327 0.36567 0.0
N524 N 0.21523 0.46437 0.31832 0.0
N525 N 0.46124 0.57116 0.36315 0.0
H526 H 0.45049 0.44335 0.39946 0.0
H527 H 0.5038 0.49647 0.39722 0.0
H528 H 0.47085 0.60371 0.35144 0.0
H529 H 0.47692 0.57001 0.38879 0.0
H530 H 0.18459 0.47514 0.29645 0.0
H531 H 0.18006 0.4467 0.33626 0.0
H532 H 0.28716 0.4723 0.25928 0.0
H533 H 0.36712 0.51214 0.2511 0.0
C534 C 0.17883 0.04122 0.8163 0.0
C535 C 0.20178 0.03329 0.85081 0.0
C536 C 0.13725 0.95499 0.84683 0.0
C537 C 0.12264 0.96109 0.81162 0.0
N538 N 0.13889 0.00992 0.76244 0.0
N539 N 0.22236 0.97508 0.89474 0.0
C540 C 0.14632 0.00409 0.79646 0.0
C541 C 0.18719 0.98773 0.86476 0.0
N542 N 0.18376 0.08484 0.80208 0.0
N543 N 0.0982 0.92011 0.86389 0.0
H544 H 0.26347 0.99702 0.90735 0.0
H545 H 0.21778 0.94107 0.90478 0.0
H546 H 0.05368 0.90058 0.85184 0.0
H547 H 0.10074 0.91612 0.89016 0.0
H548 H 0.2384 0.10283 0.8014 0.0
H549 H 0.14232 0.09619 0.78379 0.0
H550 H 0.16229 0.03882 0.74925 0.0
H551 H 0.11178 0.98444 0.7475 0.0
C552 C 0.23801 0.14771 0.9845 0.0
C553 C 0.18125 0.12756 0.96123 0.0
C554 C 0.10035 0.10108 0.00996 0.0
C555 C 0.15679 0.12278 0.03215 0.0
N556 N 0.25649 0.18374 0.03959 0.0
N557 N 0.04334 0.10027 0.95323 0.0
C558 C 0.21588 0.15331 0.0188 0.0
C559 C 0.1071 0.10917 0.97435 0.0
N560 N 0.31683 0.15488 0.97551 0.0
N561 N 0.04286 0.07133 0.02274 0.0
H562 H 0.04485 0.10889 0.92751 0.0
H563 H 0.98671 0.0894 0.96201 0.0
H564 H 0.03536 0.06646 0.04881 0.0
H565 H 0.00595 0.05028 0.00744 0.0
H566 H 0.36042 0.16784 0.99231 0.0
H567 H 0.34115 0.13971 0.95378 0.0
H568 H 0.29772 0.2086 0.03032 0.0
H569 H 0.24176 0.1871 0.06524 0.0
C570 C 0.37331 0.39014 0.48004 0.0
C571 C 0.29985 0.37331 0.46524 0.0
C572 C 0.25203 0.3544 0.52265 0.0
C573 C 0.31405 0.38288 0.53668 0.0
N574 N 0.43457 0.42963 0.52827 0.0
N575 N 0.16327 0.34402 0.47459 0.0
C576 C 0.37559 0.40095 0.51528 0.0
C577 C 0.23794 0.35566 0.48705 0.0
N578 N 0.44158 0.39399 0.46073 0.0
N579 N 0.20532 0.32726 0.54353 0.0
H580 H 0.14655 0.34921 0.44939 0.0
H581 H 0.11492 0.33438 0.49014 0.0
H582 H 0.21529 0.32601 0.56968 0.0
H583 H 0.16381 0.30247 0.5344 0.0
H584 H 0.4978 0.40371 0.47065 0.0
H585 H 0.44372 0.38136 0.43589 0.0
H586 H 0.47525 0.44822 0.51303 0.0
H587 H 0.43957 0.43672 0.55418 0.0
C588 C 0.71503 0.40662 0.02457 0.0
C589 C 0.68879 0.37218 0.04854 0.0
C590 C 0.65136 0.31874 1.00179 0.0
C591 C 0.68244 0.35186 0.97805 0.0
N592 N 0.7168 0.43269 0.96577 0.0
N593 N 0.60738 0.30306 0.05951 0.0
C594 C 0.70468 0.39778 0.98914 0.0
C595 C 0.64897 0.33059 0.03694 0.0
N596 N 0.75475 0.4463 0.03541 0.0
N597 N 0.62668 0.27527 0.99067 0.0
H598 H 0.60175 0.31199 0.08508 0.0
H599 H 0.57188 0.2742 0.05249 0.0
H600 H 0.62229 0.26699 0.96492 0.0
H601 H 0.61359 0.2471 0.00676 0.0
H602 H 0.78247 0.47032 0.0191 0.0
H603 H 0.7657 0.45359 0.0609 0.0
H604 H 0.72461 0.46812 0.97221 0.0
H605 H 0.71064 0.42693 0.93978 0.0
C606 C 0.84986 0.11264 0.52653 0.0
C607 C 0.79037 0.13602 0.54697 0.0
C608 C 0.75889 0.18466 0.49736 0.0
C609 C 0.79887 0.15282 0.47559 0.0
N610 N 0.87755 0.08104 0.47055 0.0
N611 N 0.66813 0.18425 0.54444 0.0
C612 C 0.84345 0.11512 0.49038 0.0
C613 C 0.73957 0.16979 0.53051 0.0
N614 N 0.91479 0.09067 0.541 0.0
N615 N 0.73633 0.22824 0.48606 0.0
H616 H 0.64274 0.168 0.56566 0.0
H617 H 0.62921 0.20751 0.53193 0.0
H618 H 0.75178 0.24035 0.46188 0.0
H619 H 0.71084 0.25341 0.50221 0.0
H620 H 0.96097 0.0754 0.52666 0.0
H621 H 0.92814 0.09354 0.56676 0.0
H622 H 0.90398 0.05072 0.48075 0.0
H623 H 0.87342 0.08126 0.44417 0.0
C624 C 0.84543 0.84851 0.02871 0.0
C625 C 0.80944 0.88759 0.04579 0.0
C626 C 0.79729 0.92844 0.99115 0.0
C627 C 0.8149 0.88593 0.97398 0.0
N628 N 0.85717 0.8046 0.97589 0.0
N629 N 0.73692 0.96196 0.04114 0.0
C630 C 0.84027 0.8457 0.99259 0.0
C631 C 0.78266 0.92724 0.02652 0.0
N632 N 0.88606 0.8149 0.04683 0.0
N633 N 0.79288 0.96984 0.97346 0.0
H634 H 0.71661 0.96061 0.06612 0.0
H635 H 0.71071 0.9893 0.02725 0.0
H636 H 0.80366 0.97151 0.9474 0.0
H637 H 0.78771 0.00267 0.9853 0.0
H638 H 0.91892 0.78768 0.03558 0.0
H639 H 0.89368 0.81703 0.07306 0.0
H640 H 0.86708 0.77255 0.98822 0.0
H641 H 0.85724 0.80228 0.94946 0.0
C642 C 0.64712 0.64171 0.52884 0.0
C643 C 0.7197 0.62515 0.54416 0.0
C644 C 0.77229 0.60306 0.48817 0.0
C645 C 0.69457 0.61099 0.47397 0.0
N646 N 0.55876 0.64102 0.47932 0.0
N647 N 0.8527 0.5908 0.53892 0.0
C648 C 0.63253 0.63216 0.49375 0.0
C649 C 0.7832 0.60668 0.52386 0.0
N650 N 0.59223 0.6661 0.54799 0.0
N651 N 0.83574 0.59246 0.46725 0.0
H652 H 0.86454 0.59491 0.56476 0.0
H653 H 0.8968 0.57136 0.52623 0.0
H654 H 0.8293 0.59025 0.44095 0.0
H655 H 0.89567 0.59041 0.47539 0.0
H656 H 0.54159 0.68303 0.53803 0.0
H657 H 0.60052 0.67245 0.57384 0.0
H658 H 0.50794 0.65186 0.49284 0.0
H659 H 0.54745 0.6358 0.45356 0.0
C660 C 0.26415 0.60166 0.98855 0.0
C661 C 0.30695 0.62813 0.96362 0.0
C662 C 0.37308 0.67453 0.00849 0.0
C663 C 0.32697 0.64982 0.03312 0.0
N664 N 0.25185 0.58003 0.04799 0.0
N665 N 0.42054 0.67865 0.95029 0.0
C666 C 0.28072 0.60978 0.02354 0.0
C667 C 0.36755 0.66104 0.97378 0.0
N668 N 0.20388 0.57118 0.97901 0.0
N669 N 0.41974 0.71209 0.01832 0.0
H670 H 0.41937 0.66853 0.92483 0.0
H671 H 0.47022 0.69972 0.95645 0.0
H672 H 0.42883 0.72067 0.04381 0.0
H673 H 0.44666 0.7356 1.0014 0.0
H674 H 0.16529 0.55452 0.99616 0.0
H675 H 0.18778 0.56532 0.95379 0.0
H676 H 0.22458 0.54763 0.04263 0.0
H677 H 0.26299 0.58558 0.07374 0.0
C678 C 0.11844 0.85258 0.47598 0.0
C679 C 0.1918 0.87191 0.46303 0.0
C680 C 0.24801 0.87608 0.52076 0.0
C681 C 0.18037 0.85016 0.53277 0.0
N682 N 0.04352 0.82337 0.52521 0.0
N683 N 0.32375 0.90623 0.47247 0.0
C684 C 0.11261 0.84189 0.51138 0.0
C685 C 0.25524 0.88571 0.48541 0.0
N686 N 0.05624 0.84278 0.45409 0.0
N687 N 0.30485 0.89154 0.54348 0.0
H688 H 0.32918 0.91614 0.44708 0.0
H689 H 0.37639 0.9123 0.48634 0.0
H690 H 0.2999 0.88516 0.56947 0.0
H691 H 0.3531 0.91365 0.53738 0.0
H692 H 0.00168 0.82714 0.461 0.0
H693 H 0.05917 0.85031 0.42822 0.0
H694 H 0.99025 0.81684 0.51192 0.0
H695 H 0.0383 0.81645 0.55112 0.0
C696 C 0.23978 0.25519 0.35041 0.0
C697 C 0.21172 0.30259 0.35257 0.0
C698 C 0.11318 0.28613 0.3076 0.0
C699 C 0.13241 0.23734 0.30861 0.0
N700 N 0.21371 0.17452 0.33217 0.0
N701 N 0.10371 0.35762 0.34057 0.0
C702 C 0.19507 0.22148 0.33072 0.0
C703 C 0.14303 0.31638 0.33334 0.0
N704 N 0.31118 0.24292 0.36558 0.0
N705 N 0.06854 0.30437 0.28163 0.0
H706 H 0.11966 0.37895 0.36113 0.0
H707 H 0.04951 0.36733 0.32888 0.0
H708 H 0.05019 0.28424 0.26097 0.0
H709 H 0.05921 0.34057 0.27853 0.0
H710 H 0.33896 0.21023 0.36222 0.0
H711 H 0.34646 0.26686 0.37928 0.0
H712 H 0.2505 0.1599 0.3509 0.0
H713 H 0.18979 0.14979 0.31531 0.0
C714 C 0.29649 0.20212 0.82447 0.0
C715 C 0.32174 0.1935 0.85803 0.0
C716 C 0.41675 0.25948 0.85202 0.0
C717 C 0.40321 0.26028 0.81616 0.0
N718 N 0.35434 0.21205 0.76983 0.0
N719 N 0.42204 0.20884 0.90134 0.0
C720 C 0.34929 0.22617 0.8026 0.0
C721 C 0.38674 0.22066 0.8713 0.0
N722 N 0.22209 0.18823 0.81331 0.0
N723 N 0.45411 0.29604 0.86822 0.0
H724 H 0.40557 0.17858 0.91457 0.0
H725 H 0.47365 0.22586 0.91062 0.0
H726 H 0.46958 0.32713 0.85597 0.0
H727 H 0.45945 0.29777 0.89456 0.0
H728 H 0.20222 0.19547 0.78871 0.0
H729 H 0.17898 0.17345 0.82956 0.0
H730 H 0.32046 0.18352 0.76069 0.0
H731 H 0.40062 0.22375 0.75415 0.0
C732 C 0.63438 0.18104 0.68213 0.0
C733 C 0.70413 0.1934 0.66286 0.0
C734 C 0.68516 0.27614 0.67994 0.0
C735 C 0.62316 0.26222 0.70296 0.0
N736 N 0.55598 0.198 0.7322 0.0
N737 N 0.80773 0.25167 0.65124 0.0
C738 C 0.60348 0.21359 0.70619 0.0
C739 C 0.73287 0.24077 0.66383 0.0
N740 N 0.59451 0.13941 0.67631 0.0
N741 N 0.70022 0.32289 0.67395 0.0
H742 H 0.84691 0.22619 0.64146 0.0
H743 H 0.83444 0.28486 0.6541 0.0
H744 H 0.67048 0.35008 0.68659 0.0
H745 H 0.73886 0.33448 0.65475 0.0
H746 H 0.53938 0.13111 0.68782 0.0
H747 H 0.61078 0.11598 0.65708 0.0
H748 H 0.54582 0.1622 0.73693 0.0
H749 H 0.53453 0.22024 0.75116 0.0
C750 C 0.798 0.26078 0.15261 0.0
C751 C 0.81147 0.30981 0.15786 0.0
C752 C 0.88745 0.2898 0.20929 0.0
C753 C 0.88763 0.24068 0.20067 0.0
N754 N 0.85583 0.18322 0.15604 0.0
N755 N 0.89572 0.36825 0.18547 0.0
C756 C 0.8478 0.2273 0.16971 0.0
C757 C 0.86496 0.32345 0.18428 0.0
N758 N 0.73473 0.2454 0.13313 0.0
N759 N 0.90464 0.30543 0.24121 0.0
H760 H 0.88461 0.3931 0.16647 0.0
H761 H 0.93965 0.37838 0.20312 0.0
H762 H 0.91201 0.2835 0.26203 0.0
H763 H 0.89984 0.34099 0.24795 0.0
H764 H 0.71905 0.20975 0.13114 0.0
H765 H 0.69189 0.2681 0.12268 0.0
H766 H 0.8343 0.17499 0.13185 0.0
H767 H 0.88839 0.15582 0.16687 0.0
C768 C 0.87658 0.72486 0.64234 0.0
C769 C 0.8107 0.69754 0.6557 0.0
C770 C 0.84286 0.73092 0.71121 0.0
C771 C 0.89345 0.76566 0.69688 0.0
N772 N 0.94538 0.80051 0.64546 0.0
N773 N 0.71617 0.69125 0.70288 0.0
C774 C 0.9062 0.76434 0.6613 0.0
C775 C 0.7888 0.70577 0.69012 0.0
N776 N 0.91566 0.71159 0.61338 0.0
N777 N 0.85233 0.71783 0.74405 0.0
H778 H 0.67 0.67793 0.68747 0.0
H779 H 0.69976 0.69784 0.728 0.0
H780 H 0.90056 0.73071 0.75846 0.0
H781 H 0.82097 0.68903 0.75418 0.0
H782 H 0.96685 0.72932 0.60441 0.0
H783 H 0.90461 0.67953 0.6012 0.0
H784 H 0.95164 0.80221 0.61916 0.0
H785 H 0.96264 0.83094 0.65848 0.0
C786 C 0.62538 0.7863 0.1406 0.0
C787 C 0.69385 0.81221 0.15279 0.0
C788 C 0.67187 0.77711 0.20827 0.0
C789 C 0.61358 0.74514 0.1955 0.0
N790 N 0.55194 0.71226 0.14521 0.0
N791 N 0.79859 0.81477 0.19599 0.0
C792 C 0.59521 0.74752 0.16026 0.0
C793 C 0.72285 0.80156 0.18574 0.0
N794 N 0.58617 0.79965 0.11169 0.0
N795 N 0.67252 0.78913 0.24146 0.0
H796 H 0.84122 0.82905 0.17933 0.0
H797 H 0.82089 0.80626 0.21999 0.0
H798 H 0.6281 0.7767 0.25766 0.0
H799 H 0.70852 0.81667 0.25072 0.0
H800 H 0.53275 0.78344 0.10354 0.0
H801 H 0.60139 0.83006 0.09821 0.0
H802 H 0.54133 0.71095 0.11914 0.0
H803 H 0.53663 0.68166 0.15836 0.0
C804 C 0.28027 0.76361 0.34879 0.0
C805 C 0.32018 0.80675 0.35689 0.0
C806 C 0.42791 0.7869 0.31683 0.0
C807 C 0.39392 0.74133 0.31213 0.0
N808 N 0.29539 0.68289 0.3294 0.0
N809 N 0.44187 0.85396 0.35455 0.0
C810 C 0.32262 0.72849 0.33005 0.0
C811 C 0.39742 0.81656 0.34286 0.0
N812 N 0.2007 0.75705 0.35721 0.0
N813 N 0.48654 0.80285 0.29536 0.0
H814 H 0.42157 0.87587 0.37408 0.0
H815 H 0.50177 0.85998 0.34728 0.0
H816 H 0.5041 0.78334 0.27426 0.0
H817 H 0.50988 0.83711 0.29619 0.0
H818 H 0.16651 0.72859 0.34832 0.0
H819 H 0.16672 0.78214 0.37034 0.0
H820 H 0.24753 0.67094 0.34438 0.0
H821 H 0.32445 0.65632 0.31573 0.0
C822 C 0.22383 0.70328 0.81834 0.0
C823 C 0.20122 0.69399 0.85246 0.0
C824 C 0.10251 0.75729 0.84707 0.0
C825 C 0.1132 0.75919 0.81091 0.0
N826 N 0.1609 0.71043 0.76391 0.0
N827 N 0.09192 0.70227 0.89333 0.0
C828 C 0.16683 0.72512 0.79676 0.0
C829 C 0.1319 0.71764 0.86512 0.0
N830 N 0.29901 0.69244 0.80638 0.0
N831 N 0.07065 0.7936 0.86522 0.0
H832 H 0.10552 0.67054 0.90545 0.0
H833 H 0.03839 0.71816 0.90162 0.0
H834 H 0.06445 0.82697 0.85526 0.0
H835 H 0.06556 0.79264 0.8916 0.0
H836 H 0.31637 0.7005 0.78157 0.0
H837 H 0.34537 0.6806 0.82228 0.0
H838 H 0.19924 0.68445 0.75411 0.0
H839 H 0.11166 0.71872 0.74846 0.0
loop_
_geom_bond_atom_site_label_1
_geom_bond_atom_site_label_2
_geom_bond_distance
_geom_bond_site_symmetry_2
_ccdc_geom_bond_type
H0 C3 0.931 . S
H1 C6 0.928 . S
H2 C8 0.930 . S
C3 H0 0.931 . S
C3 C4 1.413 . S
C3 C5 1.360 . S
C4 C3 1.413 . S
C4 C8 1.429 . S
C5 C3 1.360 . S
C5 C6 1.372 . S
C6 H1 0.928 . S
C6 C5 1.372 . S
C6 C7 1.404 . S
C7 C6 1.404 . S
C7 C8 1.391 . S
C8 H2 0.930 . S
C8 C4 1.429 . S
C8 C7 1.391 . S
H9 C12 0.931 . S
H10 C15 0.928 . S
H11 C17 0.930 . S
C12 H9 0.931 . S
C12 C13 1.413 . S
C12 C14 1.360 . S
C13 C12 1.413 . S
C13 C17 1.429 . S
C14 C12 1.360 . S
C14 C15 1.372 . S
C15 H10 0.928 . S
C15 C14 1.372 . S
C15 C16 1.404 . S
C16 C15 1.404 . S
C16 C17 1.391 . S
C17 H11 0.930 . S
C17 C13 1.429 . S
C17 C16 1.391 . S
H18 C21 0.931 . S
H19 C24 0.928 . S
H20 C26 0.930 . S
C21 H18 0.931 . S
C21 C22 1.413 . S
C21 C23 1.360 . S
C22 C21 1.413 . S
C22 C26 1.429 . S
C23 C21 1.360 . S
C23 C24 1.372 . S
C24 H19 0.928 . S
C24 C23 1.372 . S
C24 C25 1.404 . S
C25 C24 1.404 . S
C25 C26 1.391 . S
C26 H20 0.930 . S
C26 C22 1.429 . S
C26 C25 1.391 . S
H27 C30 0.931 . S
H28 C33 0.928 . S
H29 C35 0.930 . S
C30 H27 0.931 . S
C30 C31 1.413 . S
C30 C32 1.360 . S
C31 C30 1.413 . S
C31 C35 1.429 . S
C32 C30 1.360 . S
C32 C33 1.372 . S
C33 H28 0.928 . S
C33 C32 1.372 . S
C33 C34 1.404 . S
C34 C33 1.404 . S
C34 C35 1.391 . S
C35 H29 0.930 . S
C35 C31 1.429 . S
C35 C34 1.391 . S
H36 C39 0.931 . S
H37 C42 0.928 . S
H38 C44 0.930 . S
C39 H36 0.931 . S
C39 C40 1.413 . S
C39 C41 1.360 . S
C40 C39 1.413 . S
C40 C44 1.429 . S
C41 C39 1.360 . S
C41 C42 1.372 . S
C42 H37 0.928 . S
C42 C41 1.372 . S
C42 C43 1.404 . S
C43 C42 1.404 . S
C43 C44 1.391 . S
C44 H38 0.930 . S
C44 C40 1.429 . S
C44 C43 1.391 . S
H45 C48 0.931 . S
H46 C51 0.928 . S
H47 C53 0.930 . S
C48 H45 0.931 . S
C48 C49 1.413 . S
C48 C50 1.360 . S
C49 C48 1.413 . S
C49 C53 1.429 . S
C50 C48 1.360 . S
C50 C51 1.372 . S
C51 H46 0.928 . S
C51 C50 1.372 . S
C51 C52 1.404 . S
C52 C51 1.404 . S
C52 C53 1.391 . S
C53 H47 0.930 . S
C53 C49 1.429 . S
C53 C52 1.391 . S
H54 C57 0.931 . S
H55 C60 0.928 . S
H56 C62 0.930 . S
C57 H54 0.931 . S
C57 C58 1.413 . S
C57 C59 1.360 . S
C58 C57 1.413 . S
C58 C62 1.429 . S
C59 C57 1.360 . S
C59 C60 1.372 . S
C60 H55 0.928 . S
C60 C59 1.372 . S
C60 C61 1.404 . S
C61 C60 1.404 . S
C61 C62 1.391 . S
C62 H56 0.930 . S
C62 C58 1.429 . S
C62 C61 1.391 . S
H63 C66 0.931 . S
H64 C69 0.928 . S
H65 C71 0.930 . S
C66 H63 0.931 . S
C66 C67 1.413 . S
C66 C68 1.360 . S
C67 C66 1.413 . S
C67 C71 1.429 . S
C68 C66 1.360 . S
C68 C69 1.372 . S
C69 H64 0.928 . S
C69 C68 1.372 . S
C69 C70 1.404 . S
C70 C69 1.404 . S
C70 C71 1.391 . S
C71 H65 0.930 . S
C71 C67 1.429 . S
C71 C70 1.391 . S
C72 C74 1.422 . S
C72 C76 1.415 . S
C72 N78 1.369 . S
C73 C74 1.421 . S
C73 C75 1.417 . S
C73 C85 1.422 1_545 S
C74 C72 1.422 . S
C74 C73 1.421 . S
C74 N84 1.359 . S
C75 C73 1.417 . S
C75 C77 1.329 . S
C75 H94 0.930 1_545 S
C76 C72 1.415 . S
C76 C77 1.437 . S
C76 C80 1.413 . S
C77 C75 1.329 . S
C77 C76 1.437 . S
C77 H99 0.929 . S
N78 C72 1.369 . S
N78 C79 1.338 . S
N78 Gd83 2.622 . S
C79 N78 1.338 . S
C79 C81 1.378 . S
C79 H91 0.929 . S
C80 C76 1.413 . S
C80 C81 1.348 . S
C80 H96 0.931 . S
C81 C79 1.378 . S
C81 C80 1.348 . S
C81 H97 0.930 . S
Gd82 N102 2.622 . S
Gd82 N109 2.570 . S
Gd82 O116 2.353 1_455 S
Gd82 O117 2.468 . S
Gd82 O118 2.427 . S
Gd82 O120 2.388 . S
Gd82 O121 2.386 . S
Gd82 O125 2.307 1_455 S
Gd82 C135 2.805 . S
Gd83 N78 2.622 . S
Gd83 N84 2.570 . S
Gd83 O115 2.386 . S
Gd83 O119 2.307 1_655 S
Gd83 O122 2.353 1_655 S
Gd83 O123 2.468 . S
Gd83 O124 2.427 . S
Gd83 O126 2.388 . S
Gd83 C147 2.805 . S
N84 C74 1.359 . S
N84 Gd83 2.570 . S
N84 C86 1.343 . S
C85 C73 1.422 1_565 S
C85 C87 1.321 . S
C85 H93 0.931 . S
C86 N84 1.343 . S
C86 C87 1.390 1_545 S
C86 H88 0.931 . S
C87 C85 1.321 . S
C87 C86 1.390 1_565 S
C87 H89 0.930 . S
H88 C86 0.931 . S
H89 C87 0.930 . S
H90 C113 0.931 . S
H91 C79 0.929 . S
H92 C114 0.930 . S
H93 C85 0.931 . S
H94 C75 0.930 1_565 S
H95 C104 0.929 . S
H96 C80 0.931 . S
H97 C81 0.930 . S
H98 C136 0.930 . S
H99 C77 0.929 . S
H100 C105 0.931 . S
H101 C106 0.930 . S
N102 Gd82 2.622 . S
N102 C103 1.369 . S
N102 C104 1.338 . S
C103 N102 1.369 . S
C103 C107 1.415 . S
C103 C110 1.422 . S
C104 H95 0.929 . S
C104 N102 1.338 . S
C104 C106 1.378 . S
C105 H100 0.931 . S
C105 C106 1.348 . S
C105 C107 1.413 . S
C106 H101 0.930 . S
C106 C104 1.378 . S
C106 C105 1.348 . S
C107 C103 1.415 . S
C107 C105 1.413 . S
C107 C137 1.437 . S
H108 C137 0.929 . S
N109 Gd82 2.570 . S
N109 C110 1.359 . S
N109 C113 1.343 . S
C110 C103 1.422 . S
C110 N109 1.359 . S
C110 C112 1.421 . S
C111 C112 1.422 . S
C111 C114 1.321 . S
C111 H138 0.931 . S
C112 C110 1.421 . S
C112 C111 1.422 . S
C112 C136 1.417 . S
C113 H90 0.931 . S
C113 N109 1.343 . S
C113 C114 1.390 . S
C114 H92 0.930 . S
C114 C111 1.321 . S
C114 C113 1.390 . S
O115 Gd83 2.386 . S
O115 C127 1.265 . S
O116 Gd82 2.353 1_655 S
O116 C127 1.242 . S
O117 Gd82 2.468 . S
O117 C135 1.263 . S
O118 Gd82 2.427 . S
O118 C135 1.252 . S
O119 Gd83 2.307 1_455 S
O119 C128 1.261 . S
O120 Gd82 2.388 . S
O120 C128 1.252 . S
O121 Gd82 2.386 . S
O121 C139 1.265 . S
O122 Gd83 2.353 1_455 S
O122 C139 1.242 . S
O123 Gd83 2.468 . S
O123 C147 1.263 . S
O124 Gd83 2.427 . S
O124 C147 1.252 . S
O125 Gd82 2.307 1_655 S
O125 C140 1.261 . S
O126 Gd83 2.388 . S
O126 C140 1.252 . S
C127 O115 1.265 . S
C127 O116 1.242 . S
C128 O119 1.261 . S
C128 O120 1.252 . S
C129 C132 1.394 . S
C129 C134 1.370 . S
C129 C135 1.500 . S
C130 C133 1.383 . S
C130 C134 1.395 . S
C131 C132 1.396 . S
C131 C133 1.365 . S
C131 H148 0.929 . S
C132 C129 1.394 . S
C132 C131 1.396 . S
C132 H149 0.930 . S
C133 C130 1.383 . S
C133 C131 1.365 . S
C133 H150 0.931 . S
C134 C129 1.370 . S
C134 C130 1.395 . S
C134 H151 0.930 . S
C135 Gd82 2.805 . S
C135 O117 1.263 . S
C135 O118 1.252 . S
C135 C129 1.500 . S
C136 H98 0.930 . S
C136 C112 1.417 . S
C136 C137 1.329 . S
C137 C107 1.437 . S
C137 H108 0.929 . S
C137 C136 1.329 . S
H138 C111 0.931 . S
C139 O121 1.265 . S
C139 O122 1.242 . S
C140 O125 1.261 . S
C140 O126 1.252 . S
C141 C144 1.394 . S
C141 C146 1.370 . S
C141 C147 1.500 . S
C142 C145 1.383 . S
C142 C146 1.395 . S
C143 C144 1.396 . S
C143 C145 1.365 . S
C143 H152 0.929 . S
C144 C141 1.394 . S
C144 C143 1.396 . S
C144 H153 0.930 . S
C145 C142 1.383 . S
C145 C143 1.365 . S
C145 H154 0.931 . S
C146 C141 1.370 . S
C146 C142 1.395 . S
C146 H155 0.930 . S
C147 Gd83 2.805 . S
C147 O123 1.263 . S
C147 O124 1.252 . S
C147 C141 1.500 . S
H148 C131 0.929 . S
H149 C132 0.930 . S
H150 C133 0.931 . S
H151 C134 0.930 . S
H152 C143 0.929 . S
H153 C144 0.930 . S
H154 C145 0.931 . S
H155 C146 0.930 . S
C156 C158 1.422 . S
C156 C160 1.415 . S
C156 N162 1.369 . S
C157 C158 1.421 . S
C157 C159 1.417 . S
C157 C169 1.422 . S
C158 C156 1.422 . S
C158 C157 1.421 . S
C158 N168 1.359 . S
C159 C157 1.417 . S
C159 C161 1.329 . S
C159 H178 0.930 . S
C160 C156 1.415 . S
C160 C161 1.437 . S
C160 C164 1.413 . S
C161 C159 1.329 . S
C161 C160 1.437 . S
C161 H183 0.929 . S
N162 C156 1.369 . S
N162 C163 1.338 . S
N162 Gd167 2.622 . S
C163 N162 1.338 . S
C163 C165 1.378 . S
C163 H175 0.929 . S
C164 C160 1.413 . S
C164 C165 1.348 . S
C164 H180 0.931 . S
C165 C163 1.378 . S
C165 C164 1.348 . S
C165 H181 0.930 . S
Gd166 N186 2.622 . S
Gd166 N193 2.570 . S
Gd166 O200 2.353 . S
Gd166 O201 2.468 . S
Gd166 O202 2.427 . S
Gd166 O204 2.388 . S
Gd166 O205 2.386 . S
Gd166 O209 2.307 . S
Gd166 C219 2.805 . S
Gd167 N162 2.622 . S
Gd167 N168 2.570 . S
Gd167 O199 2.386 . S
Gd167 O203 2.307 . S
Gd167 O206 2.353 . S
Gd167 O207 2.468 . S
Gd167 O208 2.427 . S
Gd167 O210 2.388 . S
Gd167 C231 2.805 . S
N168 C158 1.359 . S
N168 Gd167 2.570 . S
N168 C170 1.343 . S
C169 C157 1.422 . S
C169 C171 1.321 . S
C169 H177 0.931 . S
C170 N168 1.343 . S
C170 C171 1.390 . S
C170 H172 0.931 . S
C171 C169 1.321 . S
C171 C170 1.390 . S
C171 H173 0.930 . S
H172 C170 0.931 . S
H173 C171 0.930 . S
H174 C197 0.931 . S
H175 C163 0.929 . S
H176 C198 0.930 . S
H177 C169 0.931 . S
H178 C159 0.930 . S
H179 C188 0.929 . S
H180 C164 0.931 . S
H181 C165 0.930 . S
H182 C220 0.930 . S
H183 C161 0.929 . S
H184 C189 0.931 . S
H185 C190 0.930 . S
N186 Gd166 2.622 . S
N186 C187 1.369 . S
N186 C188 1.338 . S
C187 N186 1.369 . S
C187 C191 1.415 . S
C187 C194 1.422 . S
C188 H179 0.929 . S
C188 N186 1.338 . S
C188 C190 1.378 . S
C189 H184 0.931 . S
C189 C190 1.348 . S
C189 C191 1.413 . S
C190 H185 0.930 . S
C190 C188 1.378 . S
C190 C189 1.348 . S
C191 C187 1.415 . S
C191 C189 1.413 . S
C191 C221 1.437 . S
H192 C221 0.929 . S
N193 Gd166 2.570 . S
N193 C194 1.359 . S
N193 C197 1.343 . S
C194 C187 1.422 . S
C194 N193 1.359 . S
C194 C196 1.421 . S
C195 C196 1.422 . S
C195 C198 1.321 . S
C195 H222 0.931 . S
C196 C194 1.421 . S
C196 C195 1.422 . S
C196 C220 1.417 . S
C197 H174 0.931 . S
C197 N193 1.343 . S
C197 C198 1.390 . S
C198 H176 0.930 . S
C198 C195 1.321 . S
C198 C197 1.390 . S
O199 Gd167 2.386 . S
O199 C211 1.265 . S
O200 Gd166 2.353 . S
O200 C211 1.242 . S
O201 Gd166 2.468 . S
O201 C219 1.263 . S
O202 Gd166 2.427 . S
O202 C219 1.252 . S
O203 Gd167 2.307 . S
O203 C212 1.261 . S
O204 Gd166 2.388 . S
O204 C212 1.252 . S
O205 Gd166 2.386 . S
O205 C223 1.265 . S
O206 Gd167 2.353 . S
O206 C223 1.242 . S
O207 Gd167 2.468 . S
O207 C231 1.263 . S
O208 Gd167 2.427 . S
O208 C231 1.252 . S
O209 Gd166 2.307 . S
O209 C224 1.261 . S
O210 Gd167 2.388 . S
O210 C224 1.252 . S
C211 O199 1.265 . S
C211 O200 1.242 . S
C212 O203 1.261 . S
C212 O204 1.252 . S
C213 C216 1.394 . S
C213 C218 1.370 . S
C213 C219 1.500 . S
C214 C217 1.383 . S
C214 C218 1.395 . S
C215 C216 1.396 . S
C215 C217 1.365 . S
C215 H232 0.929 . S
C216 C213 1.394 . S
C216 C215 1.396 . S
C216 H233 0.930 . S
C217 C214 1.383 . S
C217 C215 1.365 . S
C217 H234 0.931 . S
C218 C213 1.370 . S
C218 C214 1.395 . S
C218 H235 0.930 . S
C219 Gd166 2.805 . S
C219 O201 1.263 . S
C219 O202 1.252 . S
C219 C213 1.500 . S
C220 H182 0.930 . S
C220 C196 1.417 . S
C220 C221 1.329 . S
C221 C191 1.437 . S
C221 H192 0.929 . S
C221 C220 1.329 . S
H222 C195 0.931 . S
C223 O205 1.265 . S
C223 O206 1.242 . S
C224 O209 1.261 . S
C224 O210 1.252 . S
C225 C228 1.394 . S
C225 C230 1.370 . S
C225 C231 1.500 . S
C226 C229 1.383 . S
C226 C230 1.395 . S
C227 C228 1.396 . S
C227 C229 1.365 . S
C227 H236 0.929 . S
C228 C225 1.394 . S
C228 C227 1.396 . S
C228 H237 0.930 . S
C229 C226 1.383 . S
C229 C227 1.365 . S
C229 H238 0.931 . S
C230 C225 1.370 . S
C230 C226 1.395 . S
C230 H239 0.930 . S
C231 Gd167 2.805 . S
C231 O207 1.263 . S
C231 O208 1.252 . S
C231 C225 1.500 . S
H232 C215 0.929 . S
H233 C216 0.930 . S
H234 C217 0.931 . S
H235 C218 0.930 . S
H236 C227 0.929 . S
H237 C228 0.930 . S
H238 C229 0.931 . S
H239 C230 0.930 . S
C240 C242 1.422 . S
C240 C244 1.415 . S
C240 N246 1.369 . S
C241 C242 1.421 . S
C241 C243 1.417 . S
C241 C253 1.422 . S
C242 C240 1.422 . S
C242 C241 1.421 . S
C242 N252 1.359 . S
C243 C241 1.417 . S
C243 C245 1.329 . S
C243 H262 0.930 . S
C244 C240 1.415 . S
C244 C245 1.437 . S
C244 C248 1.413 . S
C245 C243 1.329 . S
C245 C244 1.437 . S
C245 H267 0.929 . S
N246 C240 1.369 . S
N246 C247 1.338 . S
N246 Gd251 2.622 . S
C247 N246 1.338 . S
C247 C249 1.378 . S
C247 H259 0.929 . S
C248 C244 1.413 . S
C248 C249 1.348 . S
C248 H264 0.931 . S
C249 C247 1.378 . S
C249 C248 1.348 . S
C249 H265 0.930 . S
Gd250 N270 2.622 . S
Gd250 N277 2.570 . S
Gd250 O284 2.353 . S
Gd250 O285 2.468 . S
Gd250 O286 2.427 . S
Gd250 O288 2.388 . S
Gd250 O289 2.386 . S
Gd250 O293 2.307 . S
Gd250 C303 2.805 . S
Gd251 N246 2.622 . S
Gd251 N252 2.570 . S
Gd251 O283 2.386 . S
Gd251 O287 2.307 1_655 S
Gd251 O290 2.353 1_655 S
Gd251 O291 2.468 . S
Gd251 O292 2.427 . S
Gd251 O294 2.388 . S
Gd251 C315 2.805 . S
N252 C242 1.359 . S
N252 Gd251 2.570 . S
N252 C254 1.343 . S
C253 C241 1.422 . S
C253 C255 1.321 . S
C253 H261 0.931 . S
C254 N252 1.343 . S
C254 C255 1.390 . S
C254 H256 0.931 . S
C255 C253 1.321 . S
C255 C254 1.390 . S
C255 H257 0.930 . S
H256 C254 0.931 . S
H257 C255 0.930 . S
H258 C281 0.931 . S
H259 C247 0.929 . S
H260 C282 0.930 . S
H261 C253 0.931 . S
H262 C243 0.930 . S
H263 C272 0.929 . S
H264 C248 0.931 . S
H265 C249 0.930 . S
H266 C304 0.930 1_545 S
H267 C245 0.929 . S
H268 C273 0.931 . S
H269 C274 0.930 . S
N270 Gd250 2.622 . S
N270 C271 1.369 . S
N270 C272 1.338 . S
C271 N270 1.369 . S
C271 C275 1.415 . S
C271 C278 1.422 . S
C272 H263 0.929 . S
C272 N270 1.338 . S
C272 C274 1.378 . S
C273 H268 0.931 . S
C273 C274 1.348 . S
C273 C275 1.413 . S
C274 H269 0.930 . S
C274 C272 1.378 . S
C274 C273 1.348 . S
C275 C271 1.415 . S
C275 C273 1.413 . S
C275 C305 1.437 . S
H276 C305 0.929 . S
N277 Gd250 2.570 . S
N277 C278 1.359 . S
N277 C281 1.343 . S
C278 C271 1.422 . S
C278 N277 1.359 . S
C278 C280 1.421 . S
C279 C280 1.422 1_545 S
C279 C282 1.321 . S
C279 H306 0.931 . S
C280 C278 1.421 . S
C280 C279 1.422 1_565 S
C280 C304 1.417 . S
C281 H258 0.931 . S
C281 N277 1.343 . S
C281 C282 1.390 1_565 S
C282 H260 0.930 . S
C282 C279 1.321 . S
C282 C281 1.390 1_545 S
O283 Gd251 2.386 . S
O283 C295 1.265 . S
O284 Gd250 2.353 . S
O284 C295 1.242 1_455 S
O285 Gd250 2.468 . S
O285 C303 1.263 . S
O286 Gd250 2.427 . S
O286 C303 1.252 . S
O287 Gd251 2.307 1_455 S
O287 C296 1.261 . S
O288 Gd250 2.388 . S
O288 C296 1.252 . S
O289 Gd250 2.386 . S
O289 C307 1.265 . S
O290 Gd251 2.353 1_455 S
O290 C307 1.242 . S
O291 Gd251 2.468 . S
O291 C315 1.263 . S
O292 Gd251 2.427 . S
O292 C315 1.252 . S
O293 Gd250 2.307 . S
O293 C308 1.261 1_455 S
O294 Gd251 2.388 . S
O294 C308 1.252 . S
C295 O283 1.265 . S
C295 O284 1.242 1_655 S
C296 O287 1.261 . S
C296 O288 1.252 . S
C297 C300 1.394 . S
C297 C302 1.370 . S
C297 C303 1.500 . S
C298 C301 1.383 . S
C298 C302 1.395 . S
C299 C300 1.396 . S
C299 C301 1.365 . S
C299 H316 0.929 . S
C300 C297 1.394 . S
C300 C299 1.396 . S
C300 H317 0.930 . S
C301 C298 1.383 . S
C301 C299 1.365 . S
C301 H318 0.931 . S
C302 C297 1.370 . S
C302 C298 1.395 . S
C302 H319 0.930 . S
C303 Gd250 2.805 . S
C303 O285 1.263 . S
C303 O286 1.252 . S
C303 C297 1.500 . S
C304 H266 0.930 1_565 S
C304 C280 1.417 . S
C304 C305 1.329 . S
C305 C275 1.437 . S
C305 H276 0.929 . S
C305 C304 1.329 . S
H306 C279 0.931 . S
C307 O289 1.265 . S
C307 O290 1.242 . S
C308 O293 1.261 1_655 S
C308 O294 1.252 . S
C309 C312 1.394 . S
C309 C314 1.370 . S
C309 C315 1.500 . S
C310 C313 1.383 . S
C310 C314 1.395 . S
C311 C312 1.396 . S
C311 C313 1.365 . S
C311 H320 0.929 . S
C312 C309 1.394 . S
C312 C311 1.396 . S
C312 H321 0.930 . S
C313 C310 1.383 . S
C313 C311 1.365 . S
C313 H322 0.931 . S
C314 C309 1.370 . S
C314 C310 1.395 . S
C314 H323 0.930 . S
C315 Gd251 2.805 . S
C315 O291 1.263 . S
C315 O292 1.252 . S
C315 C309 1.500 . S
H316 C299 0.929 . S
H317 C300 0.930 . S
H318 C301 0.931 . S
H319 C302 0.930 . S
H320 C311 0.929 . S
H321 C312 0.930 . S
H322 C313 0.931 . S
H323 C314 0.930 . S
C324 C326 1.422 . S
C324 C328 1.415 . S
C324 N330 1.369 . S
C325 C326 1.421 . S
C325 C327 1.417 . S
C325 C337 1.422 . S
C326 C324 1.422 . S
C326 C325 1.421 . S
C326 N336 1.359 . S
C327 C325 1.417 . S
C327 C329 1.329 . S
C327 H346 0.930 . S
C328 C324 1.415 . S
C328 C329 1.437 . S
C328 C332 1.413 . S
C329 C327 1.329 . S
C329 C328 1.437 . S
C329 H351 0.929 . S
N330 C324 1.369 . S
N330 C331 1.338 . S
N330 Gd335 2.622 . S
C331 N330 1.338 . S
C331 C333 1.378 . S
C331 H343 0.929 . S
C332 C328 1.413 . S
C332 C333 1.348 . S
C332 H348 0.931 . S
C333 C331 1.378 . S
C333 C332 1.348 . S
C333 H349 0.930 . S
Gd334 N354 2.622 . S
Gd334 N361 2.570 . S
Gd334 O368 2.353 . S
Gd334 O369 2.468 . S
Gd334 O370 2.427 . S
Gd334 O372 2.388 . S
Gd334 O373 2.386 . S
Gd334 O377 2.307 . S
Gd334 C387 2.805 . S
Gd335 N330 2.622 . S
Gd335 N336 2.570 . S
Gd335 O367 2.386 . S
Gd335 O371 2.307 . S
Gd335 O374 2.353 . S
Gd335 O375 2.468 . S
Gd335 O376 2.427 . S
Gd335 O378 2.388 . S
Gd335 C399 2.805 . S
N336 C326 1.359 . S
N336 Gd335 2.570 . S
N336 C338 1.343 . S
C337 C325 1.422 . S
C337 C339 1.321 . S
C337 H345 0.931 . S
C338 N336 1.343 . S
C338 C339 1.390 . S
C338 H340 0.931 . S
C339 C337 1.321 . S
C339 C338 1.390 . S
C339 H341 0.930 . S
H340 C338 0.931 . S
H341 C339 0.930 . S
H342 C365 0.931 . S
H343 C331 0.929 . S
H344 C366 0.930 . S
H345 C337 0.931 . S
H346 C327 0.930 . S
H347 C356 0.929 . S
H348 C332 0.931 . S
H349 C333 0.930 . S
H350 C388 0.930 . S
H351 C329 0.929 . S
H352 C357 0.931 . S
H353 C358 0.930 . S
N354 Gd334 2.622 . S
N354 C355 1.369 . S
N354 C356 1.338 . S
C355 N354 1.369 . S
C355 C359 1.415 . S
C355 C362 1.422 . S
C356 H347 0.929 . S
C356 N354 1.338 . S
C356 C358 1.378 . S
C357 H352 0.931 . S
C357 C358 1.348 . S
C357 C359 1.413 . S
C358 H353 0.930 . S
C358 C356 1.378 . S
C358 C357 1.348 . S
C359 C355 1.415 . S
C359 C357 1.413 . S
C359 C389 1.437 . S
H360 C389 0.929 . S
N361 Gd334 2.570 . S
N361 C362 1.359 . S
N361 C365 1.343 . S
C362 C355 1.422 . S
C362 N361 1.359 . S
C362 C364 1.421 . S
C363 C364 1.422 . S
C363 C366 1.321 . S
C363 H390 0.931 . S
C364 C362 1.421 . S
C364 C363 1.422 . S
C364 C388 1.417 . S
C365 H342 0.931 . S
C365 N361 1.343 . S
C365 C366 1.390 . S
C366 H344 0.930 . S
C366 C363 1.321 . S
C366 C365 1.390 . S
O367 Gd335 2.386 . S
O367 C379 1.265 . S
O368 Gd334 2.353 . S
O368 C379 1.242 . S
O369 Gd334 2.468 . S
O369 C387 1.263 . S
O370 Gd334 2.427 . S
O370 C387 1.252 . S
O371 Gd335 2.307 . S
O371 C380 1.261 . S
O372 Gd334 2.388 . S
O372 C380 1.252 . S
O373 Gd334 2.386 . S
O373 C391 1.265 . S
O374 Gd335 2.353 . S
O374 C391 1.242 . S
O375 Gd335 2.468 . S
O375 C399 1.263 . S
O376 Gd335 2.427 . S
O376 C399 1.252 . S
O377 Gd334 2.307 . S
O377 C392 1.261 . S
O378 Gd335 2.388 . S
O378 C392 1.252 . S
C379 O367 1.265 . S
C379 O368 1.242 . S
C380 O371 1.261 . S
C380 O372 1.252 . S
C381 C384 1.394 . S
C381 C386 1.370 . S
C381 C387 1.500 . S
C382 C385 1.383 . S
C382 C386 1.395 . S
C383 C384 1.396 . S
C383 C385 1.365 . S
C383 H400 0.929 . S
C384 C381 1.394 . S
C384 C383 1.396 . S
C384 H401 0.930 . S
C385 C382 1.383 . S
C385 C383 1.365 . S
C385 H402 0.931 . S
C386 C381 1.370 . S
C386 C382 1.395 . S
C386 H403 0.930 . S
C387 Gd334 2.805 . S
C387 O369 1.263 . S
C387 O370 1.252 . S
C387 C381 1.500 . S
C388 H350 0.930 . S
C388 C364 1.417 . S
C388 C389 1.329 . S
C389 C359 1.437 . S
C389 H360 0.929 . S
C389 C388 1.329 . S
H390 C363 0.931 . S
C391 O373 1.265 . S
C391 O374 1.242 . S
C392 O377 1.261 . S
C392 O378 1.252 . S
C393 C396 1.394 . S
C393 C398 1.370 . S
C393 C399 1.500 . S
C394 C397 1.383 . S
C394 C398 1.395 . S
C395 C396 1.396 . S
C395 C397 1.365 . S
C395 H404 0.929 . S
C396 C393 1.394 . S
C396 C395 1.396 . S
C396 H405 0.930 . S
C397 C394 1.383 . S
C397 C395 1.365 . S
C397 H406 0.931 . S
C398 C393 1.370 . S
C398 C394 1.395 . S
C398 H407 0.930 . S
C399 Gd335 2.805 . S
C399 O375 1.263 . S
C399 O376 1.252 . S
C399 C393 1.500 . S
H400 C383 0.929 . S
H401 C384 0.930 . S
H402 C385 0.931 . S
H403 C386 0.930 . S
H404 C395 0.929 . S
H405 C396 0.930 . S
H406 C397 0.931 . S
H407 C398 0.930 . S
C408 C409 1.363 . S
C408 C414 1.379 . S
C408 N416 1.356 . S
C409 C408 1.363 . S
C409 C415 1.358 1_565 S
C410 C411 1.363 . S
C410 C415 1.383 . S
C410 N417 1.356 . S
C411 C410 1.363 . S
C411 C414 1.363 1_545 S
N412 C414 1.356 1_545 S
N412 H424 0.984 1_545 S
N412 H425 0.985 . S
N413 C415 1.355 1_565 S
N413 H418 0.984 . S
N413 H419 0.985 1_565 S
C414 C408 1.379 . S
C414 C411 1.363 1_565 S
C414 N412 1.356 1_565 S
C415 C409 1.358 1_545 S
C415 C410 1.383 . S
C415 N413 1.355 1_545 S
N416 C408 1.356 . S
N416 H422 0.984 . S
N416 H423 0.984 . S
N417 C410 1.356 . S
N417 H420 0.984 . S
N417 H421 0.985 . S
H418 N413 0.984 . S
H419 N413 0.985 1_545 S
H420 N417 0.984 . S
H421 N417 0.985 . S
H422 N416 0.984 . S
H423 N416 0.984 . S
H424 N412 0.984 1_565 S
H425 N412 0.985 . S
C426 C427 1.363 . S
C426 C432 1.379 . S
C426 N434 1.356 . S
C427 C426 1.363 . S
C427 C433 1.363 . S
C428 C429 1.363 . S
C428 C433 1.379 . S
C428 N435 1.356 . S
C429 C428 1.363 . S
C429 C432 1.363 . S
N430 C432 1.356 . S
N430 H442 0.984 . S
N430 H443 0.985 . S
N431 C433 1.356 . S
N431 H436 0.984 . S
N431 H437 0.985 . S
C432 C426 1.379 . S
C432 C429 1.363 . S
C432 N430 1.356 . S
C433 C427 1.363 . S
C433 C428 1.379 . S
C433 N431 1.356 . S
N434 C426 1.356 . S
N434 H440 0.984 . S
N434 H441 0.984 . S
N435 C428 1.356 . S
N435 H438 0.984 . S
N435 H439 0.985 . S
H436 N431 0.984 . S
H437 N431 0.985 . S
H438 N435 0.984 . S
H439 N435 0.985 . S
H440 N434 0.984 . S
H441 N434 0.984 . S
H442 N430 0.984 . S
H443 N430 0.985 . S
C444 C445 1.363 . S
C444 C450 1.379 . S
C444 N452 1.356 . S
C445 C444 1.363 . S
C445 C451 1.363 . S
C446 C447 1.363 . S
C446 C451 1.379 . S
C446 N453 1.356 . S
C447 C446 1.363 . S
C447 C450 1.363 . S
N448 C450 1.356 . S
N448 H460 0.984 . S
N448 H461 0.985 . S
N449 C451 1.356 . S
N449 H454 0.984 . S
N449 H455 0.985 . S
C450 C444 1.379 . S
C450 C447 1.363 . S
C450 N448 1.356 . S
C451 C445 1.363 . S
C451 C446 1.379 . S
C451 N449 1.356 . S
N452 C444 1.356 . S
N452 H458 0.984 . S
N452 H459 0.984 . S
N453 C446 1.356 . S
N453 H456 0.984 . S
N453 H457 0.985 . S
H454 N449 0.984 . S
H455 N449 0.985 . S
H456 N453 0.984 . S
H457 N453 0.985 . S
H458 N452 0.984 . S
H459 N452 0.984 . S
H460 N448 0.984 . S
H461 N448 0.985 . S
C462 C463 1.363 . S
C462 C468 1.379 . S
C462 N470 1.356 . S
C463 C462 1.363 . S
C463 C469 1.363 1_565 S
C464 C465 1.363 . S
C464 C469 1.379 . S
C464 N471 1.356 . S
C465 C464 1.363 . S
C465 C468 1.363 1_545 S
N466 C468 1.356 . S
N466 H478 0.984 1_655 S
N466 H479 0.985 1_665 S
N467 C469 1.356 . S
N467 H472 0.984 1_545 S
N467 H473 0.985 . S
C468 C462 1.379 . S
C468 C465 1.363 1_565 S
C468 N466 1.356 . S
C469 C463 1.363 1_545 S
C469 C464 1.379 . S
C469 N467 1.356 . S
N470 C462 1.356 . S
N470 H476 0.984 . S
N470 H477 0.984 . S
N471 C464 1.356 . S
N471 H474 0.984 . S
N471 H475 0.985 . S
H472 N467 0.984 1_565 S
H473 N467 0.985 . S
H474 N471 0.984 . S
H475 N471 0.985 . S
H476 N470 0.984 . S
H477 N470 0.984 . S
H478 N466 0.984 1_455 S
H479 N466 0.985 1_445 S
C480 C481 1.363 . S
C480 C486 1.379 1_545 S
C480 N488 1.356 . S
C481 C480 1.363 . S
C481 C487 1.363 . S
C482 C483 1.363 . S
C482 C487 1.379 1_565 S
C482 N489 1.356 1_655 S
C483 C482 1.363 . S
C483 C486 1.363 . S
N484 C486 1.356 . S
N484 H496 0.984 . S
N484 H497 0.985 . S
N485 C487 1.356 . S
N485 H490 0.984 . S
N485 H491 0.991 . S
C486 C480 1.379 1_565 S
C486 C483 1.363 . S
C486 N484 1.356 . S
C487 C481 1.363 . S
C487 C482 1.379 1_545 S
C487 N485 1.356 . S
N488 C480 1.356 . S
N488 H494 0.984 . S
N488 H495 0.984 . S
N489 C482 1.356 1_455 S
N489 H492 0.984 . S
N489 H493 0.988 . S
H490 N485 0.984 . S
H491 N485 0.991 . S
H492 N489 0.984 . S
H493 N489 0.988 . S
H494 N488 0.984 . S
H495 N488 0.984 . S
H496 N484 0.984 . S
H497 N484 0.985 . S
C498 C499 1.363 . S
C498 C504 1.379 . S
C498 N506 1.356 . S
C499 C498 1.363 . S
C499 C505 1.363 . S
C500 C501 1.363 . S
C500 C505 1.379 . S
C500 N507 1.356 . S
C501 C500 1.363 . S
C501 C504 1.363 . S
N502 C504 1.356 . S
N502 H514 0.984 . S
N502 H515 0.985 . S
N503 C505 1.356 . S
N503 H508 0.984 . S
N503 H509 0.985 . S
C504 C498 1.379 . S
C504 C501 1.363 . S
C504 N502 1.356 . S
C505 C499 1.363 . S
C505 C500 1.379 . S
C505 N503 1.356 . S
N506 C498 1.356 . S
N506 H512 0.984 . S
N506 H513 0.984 . S
N507 C500 1.356 . S
N507 H510 0.984 . S
N507 H511 0.985 . S
H508 N503 0.984 . S
H509 N503 0.985 . S
H510 N507 0.984 . S
H511 N507 0.985 . S
H512 N506 0.984 . S
H513 N506 0.984 . S
H514 N502 0.984 . S
H515 N502 0.985 . S
C516 C517 1.363 . S
C516 C522 1.379 . S
C516 N524 1.356 . S
C517 C516 1.363 . S
C517 C523 1.363 . S
C518 C519 1.363 . S
C518 C523 1.379 . S
C518 N525 1.356 . S
C519 C518 1.363 . S
C519 C522 1.363 . S
N520 C522 1.356 . S
N520 H532 0.984 . S
N520 H533 0.985 . S
N521 C523 1.356 . S
N521 H526 0.984 . S
N521 H527 0.985 . S
C522 C516 1.379 . S
C522 C519 1.363 . S
C522 N520 1.356 . S
C523 C517 1.363 . S
C523 C518 1.379 . S
C523 N521 1.356 . S
N524 C516 1.356 . S
N524 H530 0.984 . S
N524 H531 0.984 . S
N525 C518 1.356 . S
N525 H528 0.984 . S
N525 H529 0.985 . S
H526 N521 0.984 . S
H527 N521 0.985 . S
H528 N525 0.984 . S
H529 N525 0.985 . S
H530 N524 0.984 . S
H531 N524 0.984 . S
H532 N520 0.984 . S
H533 N520 0.985 . S
C534 C535 1.363 . S
C534 C540 1.387 . S
C534 N542 1.356 . S
C535 C534 1.363 . S
C535 C541 1.347 1_545 S
C536 C537 1.363 . S
C536 C541 1.394 . S
C536 N543 1.356 . S
C537 C536 1.363 . S
C537 C540 1.355 1_565 S
N538 C540 1.354 1_565 S
N538 H550 0.984 1_565 S
N538 H551 0.985 . S
N539 C541 1.352 1_545 S
N539 H544 0.984 . S
N539 H545 0.985 1_545 S
C540 C534 1.387 . S
C540 C537 1.355 1_545 S
C540 N538 1.354 1_545 S
C541 C535 1.347 1_565 S
C541 C536 1.394 . S
C541 N539 1.352 1_565 S
N542 C534 1.356 . S
N542 H548 0.984 . S
N542 H549 0.984 . S
N543 C536 1.356 . S
N543 H546 0.984 . S
N543 H547 0.985 . S
H544 N539 0.984 . S
H545 N539 0.985 1_565 S
H546 N543 0.984 . S
H547 N543 0.985 . S
H548 N542 0.984 . S
H549 N542 0.984 . S
H550 N538 0.984 1_545 S
H551 N538 0.985 . S
C552 C553 1.363 . S
C552 C558 1.379 1_556 S
C552 N560 1.356 . S
C553 C552 1.363 . S
C553 C559 1.363 . S
C554 C555 1.363 . S
C554 C559 1.379 1_554 S
C554 N561 1.356 . S
C555 C554 1.363 . S
C555 C558 1.363 . S
N556 C558 1.356 . S
N556 H568 0.984 . S
N556 H569 0.985 . S
N557 C559 1.356 . S
N557 H562 0.984 . S
N557 H563 0.985 . S
C558 C552 1.379 1_554 S
C558 C555 1.363 . S
C558 N556 1.356 . S
C559 C553 1.363 . S
C559 C554 1.379 1_556 S
C559 N557 1.356 . S
N560 C552 1.356 . S
N560 H566 0.984 . S
N560 H567 0.984 . S
N561 C554 1.356 . S
N561 H564 0.984 . S
N561 H565 0.985 . S
H562 N557 0.984 . S
H563 N557 0.985 . S
H564 N561 0.984 . S
H565 N561 0.985 . S
H566 N560 0.984 . S
H567 N560 0.984 . S
H568 N556 0.984 . S
H569 N556 0.985 . S
C570 C571 1.363 . S
C570 C576 1.379 . S
C570 N578 1.356 . S
C571 C570 1.363 . S
C571 C577 1.363 . S
C572 C573 1.363 . S
C572 C577 1.379 . S
C572 N579 1.356 . S
C573 C572 1.363 . S
C573 C576 1.363 . S
N574 C576 1.356 . S
N574 H586 0.984 . S
N574 H587 0.985 . S
N575 C577 1.356 . S
N575 H580 0.984 . S
N575 H581 0.985 . S
C576 C570 1.379 . S
C576 C573 1.363 . S
C576 N574 1.356 . S
C577 C571 1.363 . S
C577 C572 1.379 . S
C577 N575 1.356 . S
N578 C570 1.356 . S
N578 H584 0.984 . S
N578 H585 0.984 . S
N579 C572 1.356 . S
N579 H582 0.984 . S
N579 H583 0.985 . S
H580 N575 0.984 . S
H581 N575 0.985 . S
H582 N579 0.984 . S
H583 N579 0.985 . S
H584 N578 0.984 . S
H585 N578 0.984 . S
H586 N574 0.984 . S
H587 N574 0.985 . S
C588 C589 1.363 . S
C588 C594 1.379 1_554 S
C588 N596 1.356 . S
C589 C588 1.363 . S
C589 C595 1.363 . S
C590 C591 1.363 . S
C590 C595 1.379 1_556 S
C590 N597 1.356 . S
C591 C590 1.363 . S
C591 C594 1.363 . S
N592 C594 1.356 . S
N592 H604 0.984 . S
N592 H605 0.985 . S
N593 C595 1.356 . S
N593 H598 0.984 . S
N593 H599 0.985 . S
C594 C588 1.379 1_556 S
C594 C591 1.363 . S
C594 N592 1.356 . S
C595 C589 1.363 . S
C595 C590 1.379 1_554 S
C595 N593 1.356 . S
N596 C588 1.356 . S
N596 H602 0.984 . S
N596 H603 0.984 . S
N597 C590 1.356 . S
N597 H600 0.984 . S
N597 H601 0.985 . S
H598 N593 0.984 . S
H599 N593 0.985 . S
H600 N597 0.984 . S
H601 N597 0.985 . S
H602 N596 0.984 . S
H603 N596 0.984 . S
H604 N592 0.984 . S
H605 N592 0.985 . S
C606 C607 1.363 . S
C606 C612 1.379 . S
C606 N614 1.356 . S
C607 C606 1.363 . S
C607 C613 1.363 . S
C608 C609 1.363 . S
C608 C613 1.379 . S
C608 N615 1.356 . S
C609 C608 1.363 . S
C609 C612 1.363 . S
N610 C612 1.356 . S
N610 H622 0.984 . S
N610 H623 0.985 . S
N611 C613 1.356 . S
N611 H616 0.984 . S
N611 H617 0.985 . S
C612 C606 1.379 . S
C612 C609 1.363 . S
C612 N610 1.356 . S
C613 C607 1.363 . S
C613 C608 1.379 . S
C613 N611 1.356 . S
N614 C606 1.356 . S
N614 H620 0.984 . S
N614 H621 0.984 . S
N615 C608 1.356 . S
N615 H618 0.984 . S
N615 H619 0.985 . S
H616 N611 0.984 . S
H617 N611 0.985 . S
H618 N615 0.984 . S
H619 N615 0.985 . S
H620 N614 0.984 . S
H621 N614 0.984 . S
H622 N610 0.984 . S
H623 N610 0.985 . S
C624 C625 1.363 . S
C624 C630 1.393 . S
C624 N632 1.356 . S
C625 C624 1.363 . S
C625 C631 1.363 . S
C626 C627 1.363 . S
C626 C631 1.379 1_556 S
C626 N633 1.356 . S
C627 C626 1.363 . S
C627 C630 1.352 1_556 S
N628 C630 1.348 1_556 S
N628 H640 0.984 . S
N628 H641 0.985 . S
N629 C631 1.356 . S
N629 H634 0.984 . S
N629 H635 0.985 . S
C630 C624 1.393 . S
C630 C627 1.352 1_554 S
C630 N628 1.348 1_554 S
C631 C625 1.363 . S
C631 C626 1.379 1_554 S
C631 N629 1.356 . S
N632 C624 1.356 . S
N632 H638 0.984 . S
N632 H639 0.984 . S
N633 C626 1.356 . S
N633 H636 0.984 . S
N633 H637 0.985 . S
H634 N629 0.984 . S
H635 N629 0.985 . S
H636 N633 0.984 . S
H637 N633 0.985 . S
H638 N632 0.984 . S
H639 N632 0.984 . S
H640 N628 0.984 . S
H641 N628 0.985 . S
C642 C643 1.363 . S
C642 C648 1.379 . S
C642 N650 1.356 . S
C643 C642 1.363 . S
C643 C649 1.363 . S
C644 C645 1.363 . S
C644 C649 1.379 . S
C644 N651 1.356 . S
C645 C644 1.363 . S
C645 C648 1.363 . S
N646 C648 1.356 . S
N646 H658 0.984 . S
N646 H659 0.985 . S
N647 C649 1.356 . S
N647 H652 0.984 . S
N647 H653 0.985 . S
C648 C642 1.379 . S
C648 C645 1.363 . S
C648 N646 1.356 . S
C649 C643 1.363 . S
C649 C644 1.379 . S
C649 N647 1.356 . S
N650 C642 1.356 . S
N650 H656 0.984 . S
N650 H657 0.984 . S
N651 C644 1.356 . S
N651 H654 0.984 . S
N651 H655 0.985 . S
H652 N647 0.984 . S
H653 N647 0.985 . S
H654 N651 0.984 . S
H655 N651 0.985 . S
H656 N650 0.984 . S
H657 N650 0.984 . S
H658 N646 0.984 . S
H659 N646 0.985 . S
C660 C661 1.363 . S
C660 C666 1.379 1_556 S
C660 N668 1.356 . S
C661 C660 1.363 . S
C661 C667 1.363 . S
C662 C663 1.363 1_556 S
C662 C667 1.379 . S
C662 N669 1.356 1_556 S
C663 C662 1.363 1_554 S
C663 C666 1.363 . S
N664 C666 1.356 . S
N664 H676 0.984 . S
N664 H677 0.985 . S
N665 C667 1.356 . S
N665 H670 0.984 . S
N665 H671 0.985 . S
C666 C660 1.379 1_554 S
C666 C663 1.363 . S
C666 N664 1.356 . S
C667 C661 1.363 . S
C667 C662 1.379 . S
C667 N665 1.356 . S
N668 C660 1.356 . S
N668 H674 0.984 . S
N668 H675 0.984 . S
N669 C662 1.356 1_554 S
N669 H672 0.984 . S
N669 H673 0.985 . S
H670 N665 0.984 . S
H671 N665 0.985 . S
H672 N669 0.984 . S
H673 N669 0.985 . S
H674 N668 0.984 . S
H675 N668 0.984 . S
H676 N664 0.984 . S
H677 N664 0.985 . S
C678 C679 1.363 . S
C678 C684 1.379 . S
C678 N686 1.356 . S
C679 C678 1.363 . S
C679 C685 1.363 . S
C680 C681 1.363 . S
C680 C685 1.379 . S
C680 N687 1.356 . S
C681 C680 1.363 . S
C681 C684 1.363 . S
N682 C684 1.356 . S
N682 H694 0.984 1_455 S
N682 H695 0.985 . S
N683 C685 1.356 . S
N683 H688 0.984 . S
N683 H689 0.985 . S
C684 C678 1.379 . S
C684 C681 1.363 . S
C684 N682 1.356 . S
C685 C679 1.363 . S
C685 C680 1.379 . S
C685 N683 1.356 . S
N686 C678 1.356 . S
N686 H692 0.984 . S
N686 H693 0.984 . S
N687 C680 1.356 . S
N687 H690 0.984 . S
N687 H691 0.985 . S
H688 N683 0.984 . S
H689 N683 0.985 . S
H690 N687 0.984 . S
H691 N687 0.985 . S
H692 N686 0.984 . S
H693 N686 0.984 . S
H694 N682 0.984 1_655 S
H695 N682 0.985 . S
C696 C697 1.363 . S
C696 C702 1.379 . S
C696 N704 1.356 . S
C697 C696 1.363 . S
C697 C703 1.363 . S
C698 C699 1.363 . S
C698 C703 1.379 . S
C698 N705 1.356 . S
C699 C698 1.363 . S
C699 C702 1.363 . S
N700 C702 1.356 . S
N700 H712 0.984 . S
N700 H713 0.985 . S
N701 C703 1.356 . S
N701 H706 0.984 . S
N701 H707 0.985 . S
C702 C696 1.379 . S
C702 C699 1.363 . S
C702 N700 1.356 . S
C703 C697 1.363 . S
C703 C698 1.379 . S
C703 N701 1.356 . S
N704 C696 1.356 . S
N704 H710 0.984 . S
N704 H711 0.984 . S
N705 C698 1.356 . S
N705 H708 0.984 . S
N705 H709 0.985 . S
H706 N701 0.984 . S
H707 N701 0.985 . S
H708 N705 0.984 . S
H709 N705 0.985 . S
H710 N704 0.984 . S
H711 N704 0.984 . S
H712 N700 0.984 . S
H713 N700 0.985 . S
C714 C715 1.363 . S
C714 C720 1.379 . S
C714 N722 1.356 . S
C715 C714 1.363 . S
C715 C721 1.363 . S
C716 C717 1.363 . S
C716 C721 1.379 . S
C716 N723 1.356 . S
C717 C716 1.363 . S
C717 C720 1.363 . S
N718 C720 1.356 . S
N718 H730 0.984 . S
N718 H731 0.985 . S
N719 C721 1.356 . S
N719 H724 0.984 . S
N719 H725 0.985 . S
C720 C714 1.379 . S
C720 C717 1.363 . S
C720 N718 1.356 . S
C721 C715 1.363 . S
C721 C716 1.379 . S
C721 N719 1.356 . S
N722 C714 1.356 . S
N722 H728 0.984 . S
N722 H729 0.984 . S
N723 C716 1.356 . S
N723 H726 0.984 . S
N723 H727 0.985 . S
H724 N719 0.984 . S
H725 N719 0.985 . S
H726 N723 0.984 . S
H727 N723 0.985 . S
H728 N722 0.984 . S
H729 N722 0.984 . S
H730 N718 0.984 . S
H731 N718 0.985 . S
C732 C733 1.363 . S
C732 C738 1.379 . S
C732 N740 1.356 . S
C733 C732 1.363 . S
C733 C739 1.363 . S
C734 C735 1.363 . S
C734 C739 1.379 . S
C734 N741 1.356 . S
C735 C734 1.363 . S
C735 C738 1.363 . S
N736 C738 1.356 . S
N736 H748 0.984 . S
N736 H749 0.985 . S
N737 C739 1.356 . S
N737 H742 0.984 . S
N737 H743 0.985 . S
C738 C732 1.379 . S
C738 C735 1.363 . S
C738 N736 1.356 . S
C739 C733 1.363 . S
C739 C734 1.379 . S
C739 N737 1.356 . S
N740 C732 1.356 . S
N740 H746 0.984 . S
N740 H747 0.984 . S
N741 C734 1.356 . S
N741 H744 0.984 . S
N741 H745 0.985 . S
H742 N737 0.984 . S
H743 N737 0.985 . S
H744 N741 0.984 . S
H745 N741 0.985 . S
H746 N740 0.984 . S
H747 N740 0.984 . S
H748 N736 0.984 . S
H749 N736 0.985 . S
C750 C751 1.363 . S
C750 C756 1.379 . S
C750 N758 1.356 . S
C751 C750 1.363 . S
C751 C757 1.363 . S
C752 C753 1.363 . S
C752 C757 1.379 . S
C752 N759 1.356 . S
C753 C752 1.363 . S
C753 C756 1.363 . S
N754 C756 1.356 . S
N754 H766 0.984 . S
N754 H767 0.985 . S
N755 C757 1.356 . S
N755 H760 0.984 . S
N755 H761 0.985 . S
C756 C750 1.379 . S
C756 C753 1.363 . S
C756 N754 1.356 . S
C757 C751 1.363 . S
C757 C752 1.379 . S
C757 N755 1.356 . S
N758 C750 1.356 . S
N758 H764 0.984 . S
N758 H765 0.984 . S
N759 C752 1.356 . S
N759 H762 0.984 . S
N759 H763 0.985 . S
H760 N755 0.984 . S
H761 N755 0.985 . S
H762 N759 0.984 . S
H763 N759 0.985 . S
H764 N758 0.984 . S
H765 N758 0.984 . S
H766 N754 0.984 . S
H767 N754 0.985 . S
C768 C769 1.363 . S
C768 C774 1.379 . S
C768 N776 1.356 . S
C769 C768 1.363 . S
C769 C775 1.363 . S
C770 C771 1.363 . S
C770 C775 1.379 . S
C770 N777 1.356 . S
C771 C770 1.363 . S
C771 C774 1.363 . S
N772 C774 1.356 . S
N772 H784 0.984 . S
N772 H785 0.985 . S
N773 C775 1.356 . S
N773 H778 0.984 . S
N773 H779 0.985 . S
C774 C768 1.379 . S
C774 C771 1.363 . S
C774 N772 1.356 . S
C775 C769 1.363 . S
C775 C770 1.379 . S
C775 N773 1.356 . S
N776 C768 1.356 . S
N776 H782 0.984 . S
N776 H783 0.984 . S
N777 C770 1.356 . S
N777 H780 0.984 . S
N777 H781 0.985 . S
H778 N773 0.984 . S
H779 N773 0.985 . S
H780 N777 0.984 . S
H781 N777 0.985 . S
H782 N776 0.984 . S
H783 N776 0.984 . S
H784 N772 0.984 . S
H785 N772 0.985 . S
C786 C787 1.363 . S
C786 C792 1.379 . S
C786 N794 1.356 . S
C787 C786 1.363 . S
C787 C793 1.363 . S
C788 C789 1.363 . S
C788 C793 1.379 . S
C788 N795 1.356 . S
C789 C788 1.363 . S
C789 C792 1.363 . S
N790 C792 1.356 . S
N790 H802 0.984 . S
N790 H803 0.985 . S
N791 C793 1.356 . S
N791 H796 0.984 . S
N791 H797 0.985 . S
C792 C786 1.379 . S
C792 C789 1.363 . S
C792 N790 1.356 . S
C793 C787 1.363 . S
C793 C788 1.379 . S
C793 N791 1.356 . S
N794 C786 1.356 . S
N794 H800 0.984 . S
N794 H801 0.984 . S
N795 C788 1.356 . S
N795 H798 0.984 . S
N795 H799 0.985 . S
H796 N791 0.984 . S
H797 N791 0.985 . S
H798 N795 0.984 . S
H799 N795 0.985 . S
H800 N794 0.984 . S
H801 N794 0.984 . S
H802 N790 0.984 . S
H803 N790 0.985 . S
C804 C805 1.363 . S
C804 C810 1.379 . S
C804 N812 1.356 . S
C805 C804 1.363 . S
C805 C811 1.363 . S
C806 C807 1.363 . S
C806 C811 1.379 . S
C806 N813 1.356 . S
C807 C806 1.363 . S
C807 C810 1.363 . S
N808 C810 1.356 . S
N808 H820 0.984 . S
N808 H821 0.985 . S
N809 C811 1.356 . S
N809 H814 0.984 . S
N809 H815 0.985 . S
C810 C804 1.379 . S
C810 C807 1.363 . S
C810 N808 1.356 . S
C811 C805 1.363 . S
C811 C806 1.379 . S
C811 N809 1.356 . S
N812 C804 1.356 . S
N812 H818 0.984 . S
N812 H819 0.984 . S
N813 C806 1.356 . S
N813 H816 0.984 . S
N813 H817 0.985 . S
H814 N809 0.984 . S
H815 N809 0.985 . S
H816 N813 0.984 . S
H817 N813 0.985 . S
H818 N812 0.984 . S
H819 N812 0.984 . S
H820 N808 0.984 . S
H821 N808 0.985 . S
C822 C823 1.363 . S
C822 C828 1.379 . S
C822 N830 1.356 . S
C823 C822 1.363 . S
C823 C829 1.363 . S
C824 C825 1.363 . S
C824 C829 1.379 . S
C824 N831 1.356 . S
C825 C824 1.363 . S
C825 C828 1.363 . S
N826 C828 1.356 . S
N826 H838 0.984 . S
N826 H839 0.985 . S
N827 C829 1.356 . S
N827 H832 0.984 . S
N827 H833 0.985 . S
C828 C822 1.379 . S
C828 C825 1.363 . S
C828 N826 1.356 . S
C829 C823 1.363 . S
C829 C824 1.379 . S
C829 N827 1.356 . S
N830 C822 1.356 . S
N830 H836 0.984 . S
N830 H837 0.984 . S
N831 C824 1.356 . S
N831 H834 0.984 . S
N831 H835 0.985 . S
H832 N827 0.984 . S
H833 N827 0.985 . S
H834 N831 0.984 . S
H835 N831 0.985 . S
H836 N830 0.984 . S
H837 N830 0.984 . S
H838 N826 0.984 . S
H839 N826 0.985 . S
C409 C58 1.479 . S
C411 C128 1.456 . S
C429 C212 1.457 . S
C427 C68 1.479 . S
C447 C211 1.467 . S
C445 C40 1.468 . S
C463 C50 1.467 . S
C465 C127 1.468 . S
C483 C308 1.458 . S
C481 C23 1.481 . S
C501 C392 1.457 . S
C499 C32 1.480 . S
C517 C5 1.470 . S
C519 C391 1.469 . S
C535 C14 1.470 . S
C537 C307 1.468 . S
C555 C130 1.321 . S
C553 C13 1.502 . S
C573 C214 1.321 . S
C571 C4 1.502 . S
C591 C226 1.406 . S
C589 C31 1.522 . S
C609 C142 1.406 . S
C607 C22 1.522 . S
C627 C310 1.322 . S
C625 C49 1.501 . S
C643 C41 1.503 . S
C645 C394 1.322 . S
C663 C382 1.407 . S
C661 C67 1.522 . S
C679 C59 1.524 . S
C681 C298 1.407 . S
C699 C139 1.520 . S
C697 C7 1.517 . S
C717 C223 1.519 . S
C715 C16 1.515 . S
C733 C25 1.513 . S
C735 C224 1.500 . S
C753 C140 1.498 . S
C751 C34 1.512 . S
C771 C295 1.520 . S
C769 C43 1.518 . S
C787 C52 1.515 . S
C789 C379 1.521 . S
C805 C61 1.515 . S
C807 C380 1.500 . S
C823 C70 1.513 . S
C825 C296 1.501 . S
