# Generated by pormake.
# Topology rtl, (3,6)-cn, num edge types: 1
# Building blocks:
#     Node 0, Type 0, BuildingBlock: PAMTOO_clean_linker_0, # of connection points: 3
#     Node 1, Type 0, BuildingBlock: PAMTOO_clean_linker_0, # of connection points: 3
#     Node 2, Type 0, BuildingBlock: PAMTOO_clean_linker_0, # of connection points: 3
#     Node 3, Type 0, BuildingBlock: PAMTOO_clean_linker_0, # of connection points: 3
#     Node 4, Type 1, BuildingBlock: KUMJIN_clean_sbu_1, # of connection points: 6
#     Node 5, Type 1, BuildingBlock: KUMJIN_clean_sbu_1, # of connection points: 6
#     Edge 6, Type (0, 1), BuildingBlock: AJUNOK_clean_linker_0, # of connection points: 2
#     Edge 7, Type (0, 1), BuildingBlock: AJUNOK_clean_linker_0, # of connection points: 2
#     Edge 8, Type (0, 1), BuildingBlock: AJUNOK_clean_linker_0, # of connection points: 2
#     Edge 9, Type (0, 1), BuildingBlock: AJUNOK_clean_linker_0, # of connection points: 2
#     Edge 10, Type (0, 1), BuildingBlock: AJUNOK_clean_linker_0, # of connection points: 2
#     Edge 11, Type (0, 1), BuildingBlock: AJUNOK_clean_linker_0, # of connection points: 2
#     Edge 12, Type (0, 1), BuildingBlock: AJUNOK_clean_linker_0, # of connection points: 2
#     Edge 13, Type (0, 1), BuildingBlock: AJUNOK_clean_linker_0, # of connection points: 2
#     Edge 14, Type (0, 1), BuildingBlock: AJUNOK_clean_linker_0, # of connection points: 2
#     Edge 15, Type (0, 1), BuildingBlock: AJUNOK_clean_linker_0, # of connection points: 2
#     Edge 16, Type (0, 1), BuildingBlock: AJUNOK_clean_linker_0, # of connection points: 2
#     Edge 17, Type (0, 1), BuildingBlock: AJUNOK_clean_linker_0, # of connection points: 2
# Relax obj value: 0.053
# Max RMSD: 0.238
# Mean RMSD: 0.175
data_MOF--net-rtl--node1-KUMJIN_clean_sbu_1--node2-PAMTOO_clean_linker_0--edge1-AJUNOK_clean_linker_0
_symmetry_space_group_name_H-M    P1
_symmetry_Int_Tables_number       1
_symmetry_cell_setting            triclinic
loop_
_symmetry_equiv_pos_as_xyz
'x, y, z'
_cell_length_a     25.903678
_cell_length_b     26.469735
_cell_length_c     20.703028
_cell_angle_alpha  75.178184
_cell_angle_beta   98.537517
_cell_angle_gamma 91.721413
loop_
_atom_site_label
_atom_site_type_symbol
_atom_site_fract_x
_atom_site_fract_y
_atom_site_fract_z
_atom_type_partial_charge
H0 H 0.13623 0.91084 0.99948 0.0
H1 H 0.24577 0.78992 0.11631 0.0
H2 H 0.23182 0.83326 0.90053 0.0
H3 H 0.24678 0.72106 0.96413 0.0
C4 C 0.27174 0.72279 0.01212 0.0
O5 O 0.2822 0.77419 0.01231 0.0
H6 H 0.24964 0.70439 0.05425 0.0
C7 C 0.16585 0.88191 1.00275 0.0
C8 C 0.18091 0.87526 0.94287 0.0
C9 C 0.18836 0.8508 0.06626 0.0
C10 C 0.22787 0.81462 0.06849 0.0
C11 C 0.24384 0.80877 0.00907 0.0
C12 C 0.22 0.83869 0.94642 0.0
H13 H 0.61788 0.63302 0.69105 0.0
H14 H 0.72399 0.7269 0.56929 0.0
H15 H 0.72802 0.73134 0.77647 0.0
H16 H 0.74359 0.83557 0.67826 0.0
C17 C 0.7623 0.82114 0.64126 0.0
O18 O 0.77061 0.76782 0.66505 0.0
H19 H 0.73482 0.8298 0.59299 0.0
C20 C 0.64829 0.66222 0.68481 0.0
C21 C 0.66943 0.68119 0.74004 0.0
C22 C 0.66701 0.67862 0.6228 0.0
C23 C 0.70867 0.71407 0.61672 0.0
C24 C 0.73048 0.73358 0.67176 0.0
C25 C 0.71096 0.7168 0.73375 0.0
H26 H 0.91784 0.13353 0.15597 0.0
H27 H 0.80623 0.23626 0.0099 0.0
H28 H 0.8144 0.22752 0.2217 0.0
H29 H 0.71038 0.22807 0.14324 0.0
C30 C 0.71611 0.26007 0.09816 0.0
O31 O 0.76816 0.27323 0.10001 0.0
H32 H 0.70302 0.24517 0.05283 0.0
C33 C 0.88636 0.16206 0.14388 0.0
C34 C 0.86863 0.17791 0.19619 0.0
C35 C 0.86354 0.18178 0.07659 0.0
C36 C 0.82395 0.22005 0.06166 0.0
C37 C 0.80634 0.23662 0.11408 0.0
C38 C 0.82845 0.21516 0.18135 0.0
H39 H 0.41794 0.40553 0.42699 0.0
H40 H 0.31712 0.30443 0.54999 0.0
H41 H 0.31833 0.29757 0.34468 0.0
H42 H 0.21057 0.28654 0.39151 0.0
C43 C 0.22372 0.26947 0.44627 0.0
O44 O 0.27663 0.25871 0.45632 0.0
H45 H 0.21576 0.29907 0.47336 0.0
C46 C 0.38907 0.37478 0.43341 0.0
C47 C 0.37135 0.35305 0.37937 0.0
C48 C 0.36976 0.35806 0.49498 0.0
C49 C 0.33183 0.31865 0.50231 0.0
C50 C 0.31281 0.29709 0.4481 0.0
C51 C 0.33249 0.31454 0.38631 0.0
Eu52 Eu 0.05806 0.97123 0.52376 0.0
C53 C 0.94134 0.17249 0.49754 0.0
N54 N 0.9859 0.1549 0.54024 0.0
C55 C 0.02584 0.23821 0.50284 0.0
C56 C 0.93845 0.22279 0.45282 0.0
C57 C 0.02633 0.18834 0.54691 0.0
C58 C 0.98214 0.25508 0.45445 0.0
C59 C 0.84947 0.15951 0.46147 0.0
C60 C 0.89738 0.14139 0.5016 0.0
C61 C 0.84714 0.2084 0.41432 0.0
C62 C 0.89161 0.2399 0.40982 0.0
Eu63 Eu 0.98459 0.06732 0.60704 0.0
N64 N 0.90132 0.09349 0.5458 0.0
C65 C 0.80528 0.12815 0.47064 0.0
C66 C 0.8581 0.06365 0.55725 0.0
C67 C 0.80948 0.08034 0.51946 0.0
H68 H 0.05882 0.17707 0.58676 0.0
H69 H 0.77542 0.05618 0.52757 0.0
H70 H 1.00754 0.85504 0.58755 0.0
H71 H 0.26169 0.03541 0.55367 0.0
H72 H 0.86156 0.02659 0.59475 0.0
H73 H 0.7677 0.14074 0.44092 0.0
H74 H 0.17028 0.03948 0.49976 0.0
H75 H 0.05881 0.26387 0.507 0.0
H76 H 0.81093 0.22263 0.38207 0.0
H77 H 0.88891 0.2781 0.37443 0.0
H78 H 0.03492 0.7717 0.67076 0.0
H79 H 0.9816 0.29394 0.42084 0.0
H80 H 0.29379 0.9592 0.64686 0.0
N81 N 0.0817 0.89038 0.60121 0.0
C82 C 0.13216 0.88442 0.63143 0.0
C83 C 0.06255 0.8032 0.66047 0.0
C84 C 0.14941 0.83778 0.67954 0.0
C85 C 0.04708 0.85041 0.6137 0.0
C86 C 0.11382 0.79699 0.69399 0.0
N87 N 0.14849 0.96942 0.56683 0.0
C88 C 0.18268 1.00741 0.54274 0.0
C89 C 0.2189 0.92059 0.6454 0.0
C90 C 0.16627 0.92548 0.61466 0.0
C91 C 0.25309 0.96143 0.62451 0.0
C92 C 0.23506 1.00461 0.57215 0.0
H93 H 0.12559 0.76052 0.73059 0.0
H94 H 0.21523 0.79814 0.74937 0.0
H95 H 0.27616 0.87056 0.7193 0.0
O96 O 0.10223 0.95916 0.44713 0.0
O97 O 0.05525 0.95269 0.63678 0.0
O98 O 0.06285 0.03202 0.66147 0.0
O99 O 0.02577 0.92541 0.45257 0.0
O100 O 0.07962 0.05753 0.49916 0.0
O101 O 0.06996 0.08558 0.59362 0.0
O102 O 0.95082 0.04104 0.70034 0.0
O103 O 0.94932 0.04885 0.50876 0.0
O104 O 0.02023 0.0461 0.45689 0.0
O105 O 0.97235 0.12174 0.66717 0.0
O106 O 0.95897 0.98205 0.62894 0.0
O107 O 0.9734 0.94967 0.53834 0.0
C108 C 0.0736 0.98183 0.67742 0.0
C109 C 0.08694 0.88452 0.40595 0.0
C110 C 0.12326 0.84762 0.32543 0.0
C111 C 0.13426 0.80095 0.3759 0.0
C112 C 0.09799 0.83752 0.45559 0.0
C113 C 0.12126 0.79587 0.4404 0.0
C114 C 0.09918 0.88924 0.34063 0.0
C115 C 0.092 0.08899 0.53911 0.0
C116 C 0.06706 0.93057 0.42234 0.0
C117 C 0.20135 0.83344 0.71172 0.0
C118 C 0.23599 0.87477 0.69476 0.0
C119 C 0.97189 0.06011 0.45454 0.0
C120 C 0.97646 0.08586 0.78416 0.0
C121 C 0.96635 0.10445 0.89076 0.0
C122 C 1.01525 0.08107 0.91928 0.0
C123 C 0.02536 0.06296 0.81306 0.0
C124 C 0.94725 0.10716 0.82288 0.0
C125 C 0.04472 0.06072 0.88036 0.0
C126 C 0.94797 0.94967 0.58952 0.0
C127 C 0.95472 0.08625 0.71451 0.0
H128 H 0.15287 0.76844 0.3653 0.0
H129 H 0.08948 0.83324 0.5062 0.0
H130 H 0.12992 0.75976 0.47902 0.0
H131 H 0.09152 0.92576 0.30229 0.0
H132 H 0.03046 0.07847 0.9717 0.0
H133 H 0.04808 0.04638 0.78372 0.0
H134 H 0.90922 0.12452 0.80087 0.0
H135 H 0.08236 0.04269 0.90257 0.0
Eu136 Eu 0.47031 0.49109 0.99254 0.0
C137 C 0.68071 0.59085 0.09174 0.0
N138 N 0.66026 0.54478 0.1232 0.0
C139 C 0.74492 0.50434 0.14902 0.0
C140 C 0.73452 0.59509 0.08704 0.0
C141 C 0.69134 0.50189 0.15214 0.0
C142 C 0.76662 0.55111 0.11628 0.0
C143 C 0.66741 0.68111 0.02696 0.0
C144 C 0.64738 0.63344 0.06197 0.0
C145 C 0.72097 0.68537 0.02222 0.0
C146 C 0.75442 0.64256 0.05231 0.0
Eu147 Eu 0.56977 0.54453 0.12667 0.0
N148 N 0.59532 0.62788 0.0658 0.0
C149 C 0.63302 0.7232 0.99768 0.0
C150 C 0.56226 0.66972 0.04051 0.0
C151 C 0.58035 0.71762 1.00514 0.0
H152 H 0.675 0.466 0.17875 0.0
H153 H 0.55372 0.75042 0.98435 0.0
H154 H 0.3661 0.57089 0.9404 0.0
H155 H 0.48293 0.28387 0.12881 0.0
H156 H 0.5222 0.66716 0.04853 0.0
H157 H 0.64688 0.76041 0.97028 0.0
H158 H 0.51519 0.36699 0.06489 0.0
H159 H 0.76945 0.47021 0.17203 0.0
H160 H 0.73693 0.72165 0.99534 0.0
H161 H 0.7956 0.64643 0.04794 0.0
H162 H 0.27246 0.56937 0.95199 0.0
H163 H 0.80812 0.5528 0.11363 0.0
H164 H 0.39048 0.2759 0.14683 0.0
N165 N 0.3801 0.49253 0.99762 0.0
C166 C 0.35915 0.44692 0.0297 0.0
C167 C 0.29645 0.53478 0.97449 0.0
C168 C 0.30576 0.44402 0.03682 0.0
C169 C 0.34959 0.53582 0.96883 0.0
C170 C 0.27447 0.48876 0.00895 0.0
N171 N 0.44342 0.40777 0.05158 0.0
C172 C 0.47555 0.36508 0.07458 0.0
C173 C 0.37111 0.35598 0.0924 0.0
C174 C 0.39161 0.40336 0.05731 0.0
C175 C 0.4047 0.31293 0.11942 0.0
C176 C 0.45698 0.31737 0.10976 0.0
H177 H 0.23329 0.4881 0.01342 0.0
H178 H 0.24454 0.39403 0.07818 0.0
H179 H 0.30168 0.31705 0.12676 0.0
O180 O 0.48501 0.44551 0.92295 0.0
O181 O 0.44799 0.48404 0.09698 0.0
O182 O 0.52551 0.47122 0.16868 0.0
O183 O 0.42231 0.50254 0.89381 0.0
O184 O 0.55243 0.456 0.02169 0.0
O185 O 0.57989 0.4587 0.13226 0.0
O186 O 0.55509 0.59136 0.19481 0.0
O187 O 0.5938 0.54941 0.02402 0.0
O188 O 0.51672 0.56342 0.95136 0.0
O189 O 0.61656 0.53309 0.22625 0.0
O190 O 0.48666 0.57803 0.09826 0.0
O191 O 0.46345 0.57691 0.98689 0.0
C192 C 0.47517 0.46327 0.1561 0.0
C193 C 0.46207 0.48456 0.80697 0.0
C194 C 0.45313 0.47048 0.69423 0.0
C195 C 0.48808 0.51159 0.67594 0.0
C196 C 0.49661 0.52572 0.78818 0.0
C197 C 0.50951 0.53915 0.72274 0.0
C198 C 0.4405 0.45713 0.76006 0.0
C199 C 0.58248 0.43915 0.08032 0.0
C200 C 0.44839 0.46877 0.87535 0.0
C201 C 0.28542 0.39692 0.07198 0.0
C202 C 0.31798 0.35307 0.09969 0.0
C203 C 0.56755 0.56878 0.96392 0.0
C204 C 0.57543 0.55259 0.3111 0.0
C205 C 0.58068 0.56838 0.4226 0.0
C206 C 0.54576 0.5271 0.4402 0.0
C207 C 0.54042 0.5117 0.32895 0.0
C208 C 0.59558 0.5806 0.35797 0.0
C209 C 0.52583 0.49891 0.39348 0.0
C210 C 0.45713 0.59438 0.03916 0.0
C211 C 0.59069 0.56766 0.2435 0.0
H212 H 0.49847 0.52255 0.62542 0.0
H213 H 0.51363 0.54714 0.82404 0.0
H214 H 0.53622 0.57089 0.7083 0.0
H215 H 0.41449 0.42476 0.7752 0.0
H216 H 0.53423 0.51646 0.49011 0.0
H217 H 0.52436 0.48997 0.29305 0.0
H218 H 0.62222 0.61258 0.34372 0.0
H219 H 0.49897 0.46718 0.40726 0.0
C220 C 0.16343 0.19605 0.42617 0.0
C221 C 0.19326 0.22044 0.47195 0.0
C222 C 0.13181 0.15298 0.44863 0.0
C223 C 0.12859 0.13257 0.51781 0.0
H224 H 0.16365 0.21105 0.37239 0.0
H225 H 0.1087 0.13641 0.41117 0.0
S226 S 0.20323 0.17908 0.65855 0.0
N227 N 0.22054 0.21888 0.5898 0.0
N228 N 0.16144 0.13769 0.63219 0.0
C229 C 0.15988 0.15532 0.56427 0.0
C230 C 0.19214 0.1992 0.54132 0.0
C231 C 0.34302 0.66012 0.08191 0.0
C232 C 0.32204 0.69309 0.01924 0.0
C233 C 0.38792 0.62973 0.08845 0.0
C234 C 0.41348 0.63124 0.03256 0.0
H235 H 0.32385 0.65685 0.12586 0.0
H236 H 0.40157 0.60352 0.13715 0.0
S237 S 0.37765 0.716 0.85938 0.0
N238 N 0.33259 0.72887 0.90177 0.0
N239 N 0.41711 0.67205 0.91389 0.0
C240 C 0.39433 0.66602 0.97041 0.0
C241 C 0.34865 0.69692 0.96384 0.0
C242 C 0.83791 0.87598 0.67644 0.0
C243 C 0.81312 0.84967 0.62954 0.0
C244 C 0.88202 0.90698 0.66359 0.0
C245 C 0.90361 0.91286 0.60336 0.0
H246 H 0.82225 0.87373 0.72278 0.0
H247 H 0.89874 0.92717 0.70104 0.0
S248 S 0.8552 0.84837 0.46645 0.0
N249 N 0.81485 0.82865 0.5225 0.0
N250 N 0.89769 0.8868 0.49787 0.0
C251 C 0.88032 0.88484 0.55724 0.0
C252 C 0.83524 0.85327 0.57049 0.0
C253 C 0.66432 0.34099 0.03298 0.0
C254 C 0.68386 0.30733 0.09559 0.0
C255 C 0.6324 0.38386 0.02892 0.0
C256 C 0.61909 0.39514 0.08739 0.0
H257 H 0.67312 0.33359 0.98665 0.0
H258 H 0.6178 0.40816 0.97929 0.0
S259 S 0.66337 0.32039 0.26406 0.0
N260 N 0.69036 0.28939 0.21755 0.0
N261 N 0.62978 0.36951 0.21029 0.0
C262 C 0.63984 0.36257 0.15056 0.0
C263 C 0.67247 0.3189 0.15457 0.0
C264 C 0.2073 0.85158 0.18886 0.0
C265 C 0.17049 0.8546 0.13044 0.0
C266 C 0.1917 0.85029 0.25133 0.0
C267 C 0.13872 0.85296 0.25782 0.0
H268 H 0.24867 0.8496 0.18658 0.0
H269 H 0.22133 0.84681 0.29512 0.0
S270 S 0.02639 0.86145 0.122 0.0
N271 N 0.078 0.85963 0.08439 0.0
N272 N 0.04931 0.85951 0.20142 0.0
C273 C 0.10147 0.85753 0.20001 0.0
C274 C 0.11718 0.85791 0.13644 0.0
C275 C 0.59507 0.66956 0.80599 0.0
C276 C 0.64799 0.66049 0.80398 0.0
C277 C 0.56957 0.64041 0.85851 0.0
C278 C 0.59592 0.60067 0.91054 0.0
H279 H 0.57269 0.69793 0.765 0.0
H280 H 0.52863 0.64836 0.85751 0.0
S281 S 0.73449 0.56079 0.927 0.0
N282 N 0.72591 0.60946 0.85809 0.0
N283 N 0.67799 0.55355 0.95609 0.0
C284 C 0.64923 0.59203 0.90977 0.0
C285 C 0.67526 0.62223 0.85666 0.0
C286 C 0.94408 0.1622 0.28843 0.0
C287 C 0.8916 0.15295 0.26614 0.0
C288 C 0.96975 0.13214 0.35 0.0
C289 C 0.94372 0.09182 0.39085 0.0
H290 H 0.96575 0.1919 0.25712 0.0
H291 H 1.01027 0.1403 0.36553 0.0
S292 S 0.80705 0.0505 0.35297 0.0
N293 N 0.81478 0.10038 0.28842 0.0
N294 N 0.86329 0.04315 0.40396 0.0
C295 C 0.89113 0.08251 0.36934 0.0
C296 C 0.86494 0.11335 0.30692 0.0
C297 C 0.444 0.39077 0.56483 0.0
C298 C 0.38991 0.38288 0.55034 0.0
C299 C 0.46404 0.41924 0.61123 0.0
C300 C 0.43082 0.4405 0.64541 0.0
H301 H 0.4711 0.37532 0.5394 0.0
H302 H 0.50588 0.4245 0.62059 0.0
S303 S 0.28634 0.43221 0.62482 0.0
N304 N 0.3035 0.39949 0.5732 0.0
N305 N 0.34131 0.4524 0.66141 0.0
C306 C 0.37678 0.43233 0.63231 0.0
C307 C 0.3563 0.40356 0.58467 0.0
C308 C 0.67678 0.63407 0.53201 0.0
C309 C 0.64412 0.65585 0.5665 0.0
C310 C 0.65591 0.60626 0.485 0.0
C311 C 0.60173 0.59899 0.47122 0.0
H312 H 0.71881 0.63685 0.54321 0.0
H313 H 0.68246 0.58911 0.46058 0.0
S314 S 0.49918 0.65329 0.54203 0.0
N315 N 0.5546 0.67237 0.57886 0.0
N316 N 0.51568 0.61918 0.49161 0.0
C317 C 0.56859 0.62205 0.50356 0.0
C318 C 0.5897 0.65079 0.5508 0.0
C319 C 0.89973 0.1963 0.96718 0.0
C320 C 0.88221 0.16171 0.02331 0.0
C321 C 0.92539 0.17751 0.92259 0.0
C322 C 0.93449 0.1237 0.93318 0.0
H323 H 0.89576 0.23813 0.95951 0.0
H324 H 0.94004 0.20525 0.88126 0.0
S325 S 0.88992 0.01683 0.06643 0.0
N326 N 0.87047 0.07083 0.08197 0.0
N327 N 0.91989 0.03602 0.99931 0.0
C328 C 0.91481 0.08874 0.98678 0.0
C329 C 0.88828 0.10764 0.03152 0.0
C330 C 0.36774 0.40682 0.26038 0.0
C331 C 0.39522 0.37192 0.31696 0.0
C332 C 0.3937 0.4354 0.20779 0.0
C333 C 0.44799 0.42991 0.20993 0.0
H334 H 0.3266 0.4143 0.25861 0.0
H335 H 0.37137 0.46357 0.16659 0.0
S336 S 0.53629 0.33958 0.34499 0.0
N337 N 0.47854 0.33096 0.37066 0.0
N338 N 0.5272 0.38345 0.27149 0.0
C339 C 0.4752 0.39306 0.2649 0.0
C340 C 0.44883 0.36433 0.3184 0.0
C341 C 0.11879 0.87721 0.83817 0.0
C342 C 0.1536 0.90398 0.87616 0.0
C343 C 0.09273 0.90299 0.77446 0.0
C344 C 0.1013 0.95626 0.74563 0.0
H345 H 0.11139 0.83607 0.85815 0.0
H346 H 0.06538 0.88092 0.74782 0.0
S347 S 0.19073 0.0431 0.82422 0.0
N348 N 0.19587 0.98619 0.8811 0.0
N349 N 0.14863 0.03441 0.75984 0.0
C350 C 0.13654 0.98331 0.7831 0.0
C351 C 0.16233 0.9572 0.84868 0.0
loop_
_geom_bond_atom_site_label_1
_geom_bond_atom_site_label_2
_geom_bond_distance
_geom_bond_site_symmetry_2
_ccdc_geom_bond_type
H0 C7 0.929 . S
H1 C10 0.930 . S
H2 C12 0.929 . S
H3 C4 0.969 . S
C4 H3 0.969 . S
C4 O5 1.550 . S
C4 H6 0.973 . S
O5 C4 1.550 . S
O5 C11 1.412 . S
H6 C4 0.973 . S
C7 H0 0.929 . S
C7 C8 1.400 1_554 S
C7 C9 1.364 . S
C8 C7 1.400 1_556 S
C8 C12 1.377 . S
C9 C7 1.364 . S
C9 C10 1.374 . S
C10 H1 0.930 . S
C10 C9 1.374 . S
C10 C11 1.383 . S
C11 O5 1.412 . S
C11 C10 1.383 . S
C11 C12 1.394 1_554 S
C12 H2 0.929 . S
C12 C8 1.377 . S
C12 C11 1.394 1_556 S
H13 C20 0.929 . S
H14 C23 0.930 . S
H15 C25 0.929 . S
H16 C17 0.969 . S
C17 H16 0.969 . S
C17 O18 1.550 . S
C17 H19 0.973 . S
O18 C17 1.550 . S
O18 C24 1.412 . S
H19 C17 0.973 . S
C20 H13 0.929 . S
C20 C21 1.400 . S
C20 C22 1.364 . S
C21 C20 1.400 . S
C21 C25 1.377 . S
C22 C20 1.364 . S
C22 C23 1.374 . S
C23 H14 0.930 . S
C23 C22 1.374 . S
C23 C24 1.383 . S
C24 O18 1.412 . S
C24 C23 1.383 . S
C24 C25 1.394 . S
C25 H15 0.929 . S
C25 C21 1.377 . S
C25 C24 1.394 . S
H26 C33 0.929 . S
H27 C36 0.930 . S
H28 C38 0.929 . S
H29 C30 0.969 . S
C30 H29 0.969 . S
C30 O31 1.550 . S
C30 H32 0.973 . S
O31 C30 1.550 . S
O31 C37 1.412 . S
H32 C30 0.973 . S
C33 H26 0.929 . S
C33 C34 1.400 . S
C33 C35 1.364 . S
C34 C33 1.400 . S
C34 C38 1.377 . S
C35 C33 1.364 . S
C35 C36 1.374 . S
C36 H27 0.930 . S
C36 C35 1.374 . S
C36 C37 1.383 . S
C37 O31 1.412 . S
C37 C36 1.383 . S
C37 C38 1.394 . S
C38 H28 0.929 . S
C38 C34 1.377 . S
C38 C37 1.394 . S
H39 C46 0.929 . S
H40 C49 0.930 . S
H41 C51 0.929 . S
H42 C43 0.969 . S
C43 H42 0.969 . S
C43 O44 1.550 . S
C43 H45 0.973 . S
O44 C43 1.550 . S
O44 C50 1.412 . S
H45 C43 0.973 . S
C46 H39 0.929 . S
C46 C47 1.400 . S
C46 C48 1.364 . S
C47 C46 1.400 . S
C47 C51 1.377 . S
C48 C46 1.364 . S
C48 C49 1.374 . S
C49 H40 0.930 . S
C49 C48 1.374 . S
C49 C50 1.383 . S
C50 O44 1.412 . S
C50 C49 1.383 . S
C50 C51 1.394 . S
C51 H41 0.929 . S
C51 C47 1.377 . S
C51 C50 1.394 . S
Eu52 N81 2.600 . S
Eu52 N87 2.562 . S
Eu52 O96 2.462 . S
Eu52 O97 2.373 . S
Eu52 O99 2.432 . S
Eu52 O100 2.291 1_565 S
Eu52 O104 2.335 1_465 S
Eu52 O107 2.372 1_455 S
Eu52 C116 2.787 . S
C53 N54 1.365 . S
C53 C56 1.405 . S
C53 C60 1.448 . S
N54 C53 1.365 . S
N54 C57 1.319 1_655 S
N54 Eu63 2.600 . S
C55 C57 1.397 . S
C55 C58 1.367 1_455 S
C55 H75 0.931 . S
C56 C53 1.405 . S
C56 C58 1.403 . S
C56 C62 1.439 . S
C57 N54 1.319 1_455 S
C57 C55 1.397 . S
C57 H68 0.930 . S
C58 C55 1.367 1_655 S
C58 C56 1.403 . S
C58 H79 0.929 . S
C59 C60 1.430 . S
C59 C61 1.387 . S
C59 C65 1.404 . S
C60 C53 1.448 . S
C60 C59 1.430 . S
C60 N64 1.351 . S
C61 C59 1.387 . S
C61 C62 1.374 . S
C61 H76 0.931 . S
C62 C56 1.439 . S
C62 C61 1.374 . S
C62 H77 0.931 . S
Eu63 N54 2.600 . S
Eu63 N64 2.562 . S
Eu63 O98 2.335 1_655 S
Eu63 O101 2.372 1_655 S
Eu63 O102 2.462 . S
Eu63 O103 2.373 . S
Eu63 O105 2.432 . S
Eu63 O106 2.291 1_545 S
Eu63 C127 2.787 . S
N64 C60 1.351 . S
N64 Eu63 2.562 . S
N64 C66 1.325 . S
C65 C59 1.404 . S
C65 C67 1.366 . S
C65 H73 0.930 . S
C66 N64 1.325 . S
C66 C67 1.416 . S
C66 H72 0.929 . S
C67 C65 1.366 . S
C67 C66 1.416 . S
C67 H69 0.930 . S
H68 C57 0.930 . S
H69 C67 0.930 . S
H70 C85 0.930 1_655 S
H71 C92 0.930 . S
H72 C66 0.929 . S
H73 C65 0.930 . S
H74 C88 0.929 . S
H75 C55 0.931 . S
H76 C61 0.931 . S
H77 C62 0.931 . S
H78 C83 0.931 1_655 S
H79 C58 0.929 . S
H80 C91 0.930 . S
N81 Eu52 2.600 . S
N81 C82 1.365 . S
N81 C85 1.319 . S
C82 N81 1.365 . S
C82 C84 1.405 . S
C82 C90 1.448 . S
C83 H78 0.931 1_455 S
C83 C85 1.397 . S
C83 C86 1.367 . S
C84 C82 1.405 . S
C84 C86 1.403 . S
C84 C117 1.439 . S
C85 H70 0.930 1_455 S
C85 N81 1.319 . S
C85 C83 1.397 . S
C86 C83 1.367 . S
C86 C84 1.403 . S
C86 H93 0.929 . S
N87 Eu52 2.562 . S
N87 C88 1.325 . S
N87 C90 1.351 . S
C88 H74 0.929 . S
C88 N87 1.325 . S
C88 C92 1.416 . S
C89 C90 1.430 . S
C89 C91 1.404 . S
C89 C118 1.387 . S
C90 C82 1.448 . S
C90 N87 1.351 . S
C90 C89 1.430 . S
C91 H80 0.930 . S
C91 C89 1.404 . S
C91 C92 1.366 . S
C92 H71 0.930 . S
C92 C88 1.416 . S
C92 C91 1.366 . S
H93 C86 0.929 . S
H94 C117 0.931 . S
H95 C118 0.931 . S
O96 Eu52 2.462 . S
O96 C116 1.252 . S
O97 Eu52 2.373 . S
O97 C108 1.249 . S
O98 Eu63 2.335 1_455 S
O98 C108 1.264 1_545 S
O99 Eu52 2.432 . S
O99 C116 1.268 . S
O100 Eu52 2.291 1_545 S
O100 C115 1.255 . S
O101 Eu63 2.372 1_455 S
O101 C115 1.257 . S
O102 Eu63 2.462 . S
O102 C127 1.252 . S
O103 Eu63 2.373 . S
O103 C119 1.249 . S
O104 Eu52 2.335 1_645 S
O104 C119 1.264 . S
O105 Eu63 2.432 . S
O105 C127 1.268 . S
O106 Eu63 2.291 1_565 S
O106 C126 1.255 . S
O107 Eu52 2.372 1_655 S
O107 C126 1.257 . S
C108 O97 1.249 . S
C108 O98 1.264 1_565 S
C109 C112 1.382 . S
C109 C114 1.390 . S
C109 C116 1.506 . S
C110 C111 1.398 . S
C110 C114 1.392 . S
C111 C110 1.398 . S
C111 C113 1.372 . S
C111 H128 0.931 . S
C112 C109 1.382 . S
C112 C113 1.390 . S
C112 H129 0.931 . S
C113 C111 1.372 . S
C113 C112 1.390 . S
C113 H130 0.929 . S
C114 C109 1.390 . S
C114 C110 1.392 . S
C114 H131 0.930 . S
C115 O100 1.255 . S
C115 O101 1.257 . S
C116 Eu52 2.787 . S
C116 O96 1.252 . S
C116 O99 1.268 . S
C116 C109 1.506 . S
C117 C84 1.439 . S
C117 H94 0.931 . S
C117 C118 1.374 . S
C118 C89 1.387 . S
C118 H95 0.931 . S
C118 C117 1.374 . S
C119 O103 1.249 . S
C119 O104 1.264 . S
C120 C123 1.382 . S
C120 C124 1.390 . S
C120 C127 1.506 . S
C121 C122 1.398 . S
C121 C124 1.392 . S
C122 C121 1.398 . S
C122 C125 1.372 . S
C122 H132 0.931 . S
C123 C120 1.382 . S
C123 C125 1.390 . S
C123 H133 0.931 . S
C124 C120 1.390 . S
C124 C121 1.392 . S
C124 H134 0.930 . S
C125 C122 1.372 . S
C125 C123 1.390 . S
C125 H135 0.929 . S
C126 O106 1.255 . S
C126 O107 1.257 . S
C127 Eu63 2.787 . S
C127 O102 1.252 . S
C127 O105 1.268 . S
C127 C120 1.506 . S
H128 C111 0.931 . S
H129 C112 0.931 . S
H130 C113 0.929 . S
H131 C114 0.930 . S
H132 C122 0.931 . S
H133 C123 0.931 . S
H134 C124 0.930 . S
H135 C125 0.929 . S
Eu136 N165 2.600 . S
Eu136 N171 2.562 1_556 S
Eu136 O180 2.462 . S
Eu136 O181 2.373 1_556 S
Eu136 O183 2.432 . S
Eu136 O184 2.291 1_556 S
Eu136 O188 2.335 . S
Eu136 O191 2.372 1_556 S
Eu136 C200 2.787 . S
C137 N138 1.365 . S
C137 C140 1.405 . S
C137 C144 1.448 . S
N138 C137 1.365 . S
N138 C141 1.319 . S
N138 Eu147 2.600 . S
C139 C141 1.397 . S
C139 C142 1.367 . S
C139 H159 0.931 . S
C140 C137 1.405 . S
C140 C142 1.403 . S
C140 C146 1.439 . S
C141 N138 1.319 . S
C141 C139 1.397 . S
C141 H152 0.930 . S
C142 C139 1.367 . S
C142 C140 1.403 . S
C142 H163 0.929 . S
C143 C144 1.430 . S
C143 C145 1.387 . S
C143 C149 1.404 . S
C144 C137 1.448 . S
C144 C143 1.430 . S
C144 N148 1.351 . S
C145 C143 1.387 . S
C145 C146 1.374 . S
C145 H160 0.931 . S
C146 C140 1.439 . S
C146 C145 1.374 . S
C146 H161 0.931 . S
Eu147 N138 2.600 . S
Eu147 N148 2.562 . S
Eu147 O182 2.335 . S
Eu147 O185 2.372 . S
Eu147 O186 2.462 . S
Eu147 O187 2.373 . S
Eu147 O189 2.432 . S
Eu147 O190 2.291 . S
Eu147 C211 2.787 . S
N148 C144 1.351 . S
N148 Eu147 2.562 . S
N148 C150 1.325 . S
C149 C143 1.404 . S
C149 C151 1.366 . S
C149 H157 0.930 . S
C150 N148 1.325 . S
C150 C151 1.416 . S
C150 H156 0.929 . S
C151 C149 1.366 . S
C151 C150 1.416 . S
C151 H153 0.930 . S
H152 C141 0.930 . S
H153 C151 0.930 . S
H154 C169 0.930 . S
H155 C176 0.930 . S
H156 C150 0.929 . S
H157 C149 0.930 . S
H158 C172 0.929 . S
H159 C139 0.931 . S
H160 C145 0.931 . S
H161 C146 0.931 . S
H162 C167 0.931 . S
H163 C142 0.929 . S
H164 C175 0.930 . S
N165 Eu136 2.600 . S
N165 C166 1.365 1_556 S
N165 C169 1.319 . S
C166 N165 1.365 1_554 S
C166 C168 1.405 . S
C166 C174 1.448 . S
C167 H162 0.931 . S
C167 C169 1.397 . S
C167 C170 1.367 1_556 S
C168 C166 1.405 . S
C168 C170 1.403 . S
C168 C201 1.439 . S
C169 H154 0.930 . S
C169 N165 1.319 . S
C169 C167 1.397 . S
C170 C167 1.367 1_554 S
C170 C168 1.403 . S
C170 H177 0.929 . S
N171 Eu136 2.562 1_554 S
N171 C172 1.325 . S
N171 C174 1.351 . S
C172 H158 0.929 . S
C172 N171 1.325 . S
C172 C176 1.416 . S
C173 C174 1.430 . S
C173 C175 1.404 . S
C173 C202 1.387 . S
C174 C166 1.448 . S
C174 N171 1.351 . S
C174 C173 1.430 . S
C175 H164 0.930 . S
C175 C173 1.404 . S
C175 C176 1.366 . S
C176 H155 0.930 . S
C176 C172 1.416 . S
C176 C175 1.366 . S
H177 C170 0.929 . S
H178 C201 0.931 . S
H179 C202 0.931 . S
O180 Eu136 2.462 . S
O180 C200 1.252 . S
O181 Eu136 2.373 1_554 S
O181 C192 1.249 . S
O182 Eu147 2.335 . S
O182 C192 1.264 . S
O183 Eu136 2.432 . S
O183 C200 1.268 . S
O184 Eu136 2.291 1_554 S
O184 C199 1.255 . S
O185 Eu147 2.372 . S
O185 C199 1.257 . S
O186 Eu147 2.462 . S
O186 C211 1.252 . S
O187 Eu147 2.373 . S
O187 C203 1.249 1_554 S
O188 Eu136 2.335 . S
O188 C203 1.264 . S
O189 Eu147 2.432 . S
O189 C211 1.268 . S
O190 Eu147 2.291 . S
O190 C210 1.255 . S
O191 Eu136 2.372 1_554 S
O191 C210 1.257 . S
C192 O181 1.249 . S
C192 O182 1.264 . S
C193 C196 1.382 . S
C193 C198 1.390 . S
C193 C200 1.506 . S
C194 C195 1.398 . S
C194 C198 1.392 . S
C195 C194 1.398 . S
C195 C197 1.372 . S
C195 H212 0.931 . S
C196 C193 1.382 . S
C196 C197 1.390 . S
C196 H213 0.931 . S
C197 C195 1.372 . S
C197 C196 1.390 . S
C197 H214 0.929 . S
C198 C193 1.390 . S
C198 C194 1.392 . S
C198 H215 0.930 . S
C199 O184 1.255 . S
C199 O185 1.257 . S
C200 Eu136 2.787 . S
C200 O180 1.252 . S
C200 O183 1.268 . S
C200 C193 1.506 . S
C201 C168 1.439 . S
C201 H178 0.931 . S
C201 C202 1.374 . S
C202 C173 1.387 . S
C202 H179 0.931 . S
C202 C201 1.374 . S
C203 O187 1.249 1_556 S
C203 O188 1.264 . S
C204 C207 1.382 . S
C204 C208 1.390 . S
C204 C211 1.506 . S
C205 C206 1.398 . S
C205 C208 1.392 . S
C206 C205 1.398 . S
C206 C209 1.372 . S
C206 H216 0.931 . S
C207 C204 1.382 . S
C207 C209 1.390 . S
C207 H217 0.931 . S
C208 C204 1.390 . S
C208 C205 1.392 . S
C208 H218 0.930 . S
C209 C206 1.372 . S
C209 C207 1.390 . S
C209 H219 0.929 . S
C210 O190 1.255 . S
C210 O191 1.257 . S
C211 Eu147 2.787 . S
C211 O186 1.252 . S
C211 O189 1.268 . S
C211 C204 1.506 . S
H212 C195 0.931 . S
H213 C196 0.931 . S
H214 C197 0.929 . S
H215 C198 0.930 . S
H216 C206 0.931 . S
H217 C207 0.931 . S
H218 C208 0.930 . S
H219 C209 0.929 . S
C220 C221 1.369 . S
C220 C222 1.419 . S
C220 H224 0.930 . S
C221 C220 1.369 . S
C221 C230 1.429 . S
C222 C220 1.419 . S
C222 C223 1.363 . S
C222 H225 0.929 . S
C223 C222 1.363 . S
C223 C229 1.428 . S
H224 C220 0.930 . S
H225 C222 0.929 . S
S226 N227 1.613 . S
S226 N228 1.610 . S
N227 S226 1.613 . S
N227 C230 1.350 . S
N228 S226 1.610 . S
N228 C229 1.351 . S
C229 C223 1.428 . S
C229 N228 1.351 . S
C229 C230 1.434 . S
C230 C221 1.429 . S
C230 N227 1.350 . S
C230 C229 1.434 . S
C231 C232 1.369 . S
C231 C233 1.419 . S
C231 H235 0.930 . S
C232 C231 1.369 . S
C232 C241 1.437 . S
C233 C231 1.419 . S
C233 C234 1.363 . S
C233 H236 0.929 . S
C234 C233 1.363 . S
C234 C240 1.419 1_554 S
H235 C231 0.930 . S
H236 C233 0.929 . S
S237 N238 1.613 . S
S237 N239 1.610 . S
N238 S237 1.613 . S
N238 C241 1.344 1_556 S
N239 S237 1.610 . S
N239 C240 1.366 . S
C240 C234 1.419 1_556 S
C240 N239 1.366 . S
C240 C241 1.427 1_556 S
C241 C232 1.437 . S
C241 N238 1.344 1_554 S
C241 C240 1.427 1_554 S
C242 C243 1.369 . S
C242 C244 1.419 . S
C242 H246 0.930 . S
C243 C242 1.369 . S
C243 C252 1.429 . S
C244 C242 1.419 . S
C244 C245 1.363 . S
C244 H247 0.929 . S
C245 C244 1.363 . S
C245 C251 1.428 . S
H246 C242 0.930 . S
H247 C244 0.929 . S
S248 N249 1.613 . S
S248 N250 1.610 . S
N249 S248 1.613 . S
N249 C252 1.350 . S
N250 S248 1.610 . S
N250 C251 1.351 . S
C251 C245 1.428 . S
C251 N250 1.351 . S
C251 C252 1.434 . S
C252 C243 1.429 . S
C252 N249 1.350 . S
C252 C251 1.434 . S
C253 C254 1.369 . S
C253 C255 1.419 . S
C253 H257 0.930 1_554 S
C254 C253 1.369 . S
C254 C263 1.429 . S
C255 C253 1.419 . S
C255 C256 1.363 . S
C255 H258 0.929 1_554 S
C256 C255 1.363 . S
C256 C262 1.428 . S
H257 C253 0.930 1_556 S
H258 C255 0.929 1_556 S
S259 N260 1.613 . S
S259 N261 1.610 . S
N260 S259 1.613 . S
N260 C263 1.350 . S
N261 S259 1.610 . S
N261 C262 1.351 . S
C262 C256 1.428 . S
C262 N261 1.351 . S
C262 C263 1.434 . S
C263 C254 1.429 . S
C263 N260 1.350 . S
C263 C262 1.434 . S
C264 C265 1.369 . S
C264 C266 1.419 . S
C264 H268 0.930 . S
C265 C264 1.369 . S
C265 C274 1.429 . S
C266 C264 1.419 . S
C266 C267 1.363 . S
C266 H269 0.929 . S
C267 C266 1.363 . S
C267 C273 1.428 . S
H268 C264 0.930 . S
H269 C266 0.929 . S
S270 N271 1.613 . S
S270 N272 1.610 . S
N271 S270 1.613 . S
N271 C274 1.350 . S
N272 S270 1.610 . S
N272 C273 1.351 . S
C273 C267 1.428 . S
C273 N272 1.351 . S
C273 C274 1.434 . S
C274 C265 1.429 . S
C274 N271 1.350 . S
C274 C273 1.434 . S
C275 C276 1.369 . S
C275 C277 1.419 . S
C275 H279 0.930 . S
C276 C275 1.369 . S
C276 C285 1.429 . S
C277 C275 1.419 . S
C277 C278 1.363 . S
C277 H280 0.929 . S
C278 C277 1.363 . S
C278 C284 1.428 . S
H279 C275 0.930 . S
H280 C277 0.929 . S
S281 N282 1.613 . S
S281 N283 1.610 . S
N282 S281 1.613 . S
N282 C285 1.350 . S
N283 S281 1.610 . S
N283 C284 1.351 . S
C284 C278 1.428 . S
C284 N283 1.351 . S
C284 C285 1.434 . S
C285 C276 1.429 . S
C285 N282 1.350 . S
C285 C284 1.434 . S
C286 C287 1.369 . S
C286 C288 1.419 . S
C286 H290 0.930 . S
C287 C286 1.369 . S
C287 C296 1.429 . S
C288 C286 1.419 . S
C288 C289 1.363 . S
C288 H291 0.929 . S
C289 C288 1.363 . S
C289 C295 1.428 . S
H290 C286 0.930 . S
H291 C288 0.929 . S
S292 N293 1.613 1_565 S
S292 N294 1.610 . S
N293 S292 1.613 1_545 S
N293 C296 1.350 . S
N294 S292 1.610 . S
N294 C295 1.351 1_565 S
C295 C289 1.428 . S
C295 N294 1.351 1_545 S
C295 C296 1.434 . S
C296 C287 1.429 . S
C296 N293 1.350 . S
C296 C295 1.434 . S
C297 C298 1.369 . S
C297 C299 1.419 . S
C297 H301 0.930 . S
C298 C297 1.369 . S
C298 C307 1.429 . S
C299 C297 1.419 . S
C299 C300 1.363 . S
C299 H302 0.929 . S
C300 C299 1.363 . S
C300 C306 1.428 . S
H301 C297 0.930 . S
H302 C299 0.929 . S
S303 N304 1.613 . S
S303 N305 1.610 . S
N304 S303 1.613 . S
N304 C307 1.350 . S
N305 S303 1.610 . S
N305 C306 1.351 . S
C306 C300 1.428 . S
C306 N305 1.351 . S
C306 C307 1.434 . S
C307 C298 1.429 . S
C307 N304 1.350 . S
C307 C306 1.434 . S
C308 C309 1.369 . S
C308 C310 1.419 . S
C308 H312 0.930 . S
C309 C308 1.369 . S
C309 C318 1.429 . S
C310 C308 1.419 . S
C310 C311 1.363 . S
C310 H313 0.929 . S
C311 C310 1.363 . S
C311 C317 1.428 . S
H312 C308 0.930 . S
H313 C310 0.929 . S
S314 N315 1.613 . S
S314 N316 1.610 . S
N315 S314 1.613 . S
N315 C318 1.350 . S
N316 S314 1.610 . S
N316 C317 1.351 . S
C317 C311 1.428 . S
C317 N316 1.351 . S
C317 C318 1.434 . S
C318 C309 1.429 . S
C318 N315 1.350 . S
C318 C317 1.434 . S
C319 C320 1.369 . S
C319 C321 1.419 . S
C319 H323 0.930 . S
C320 C319 1.369 . S
C320 C329 1.429 . S
C321 C319 1.419 . S
C321 C322 1.363 . S
C321 H324 0.929 . S
C322 C321 1.363 . S
C322 C328 1.428 . S
H323 C319 0.930 . S
H324 C321 0.929 . S
S325 N326 1.613 1_566 S
S325 N327 1.610 . S
N326 S325 1.613 1_544 S
N326 C329 1.350 1_554 S
N327 S325 1.610 . S
N327 C328 1.351 1_565 S
C328 C322 1.428 . S
C328 N327 1.351 1_545 S
C328 C329 1.434 . S
C329 C320 1.429 . S
C329 N326 1.350 1_556 S
C329 C328 1.434 . S
C330 C331 1.369 . S
C330 C332 1.419 . S
C330 H334 0.930 . S
C331 C330 1.369 . S
C331 C340 1.429 . S
C332 C330 1.419 . S
C332 C333 1.363 . S
C332 H335 0.929 . S
C333 C332 1.363 . S
C333 C339 1.428 . S
H334 C330 0.930 . S
H335 C332 0.929 . S
S336 N337 1.613 . S
S336 N338 1.610 . S
N337 S336 1.613 . S
N337 C340 1.350 . S
N338 S336 1.610 . S
N338 C339 1.351 . S
C339 C333 1.428 . S
C339 N338 1.351 . S
C339 C340 1.434 . S
C340 C331 1.429 . S
C340 N337 1.350 . S
C340 C339 1.434 . S
C341 C342 1.369 . S
C341 C343 1.419 . S
C341 H345 0.930 . S
C342 C341 1.369 . S
C342 C351 1.429 . S
C343 C341 1.419 . S
C343 C344 1.363 . S
C343 H346 0.929 . S
C344 C343 1.363 . S
C344 C350 1.428 . S
H345 C341 0.930 . S
H346 C343 0.929 . S
S347 N348 1.613 . S
S347 N349 1.610 . S
N348 S347 1.613 . S
N348 C351 1.350 1_545 S
N349 S347 1.610 . S
N349 C350 1.351 1_545 S
C350 C344 1.428 . S
C350 N349 1.351 1_565 S
C350 C351 1.434 . S
C351 C342 1.429 . S
C351 N348 1.350 1_565 S
C351 C350 1.434 . S
C223 C115 1.637 . S
C221 C43 1.543 . S
C232 C4 1.581 . S
C234 C210 1.629 . S
C243 C17 1.572 . S
C245 C126 1.634 . S
C254 C30 1.634 . S
C256 C199 1.629 . S
C267 C110 1.383 . S
C265 C9 1.557 . S
C278 C203 1.652 . S
C276 C21 1.647 . S
C287 C34 1.617 . S
C289 C119 1.629 . S
C298 C48 1.571 . S
C300 C194 1.393 . S
C311 C205 1.402 . S
C309 C22 1.570 . S
C322 C121 1.390 . S
C320 C35 1.559 1_556 S
C333 C192 1.654 . S
C331 C47 1.644 . S
C342 C8 1.611 . S
C344 C108 1.630 . S
