# Generated by pormake.
# Topology zzz, (3,6)-cn, num edge types: 1
# Building blocks:
#     Node 0, Type 0, BuildingBlock: ESEHIV_clean_linker_0, # of connection points: 3
#     Node 1, Type 0, BuildingBlock: ESEHIV_clean_linker_0, # of connection points: 3
#     Node 2, Type 0, BuildingBlock: ESEHIV_clean_linker_0, # of connection points: 3
#     Node 3, Type 0, BuildingBlock: ESEHIV_clean_linker_0, # of connection points: 3
#     Node 4, Type 0, BuildingBlock: ESEHIV_clean_linker_0, # of connection points: 3
#     Node 5, Type 0, BuildingBlock: ESEHIV_clean_linker_0, # of connection points: 3
#     Node 6, Type 0, BuildingBlock: ESEHIV_clean_linker_0, # of connection points: 3
#     Node 7, Type 0, BuildingBlock: ESEHIV_clean_linker_0, # of connection points: 3
#     Node 8, Type 1, BuildingBlock: KUMBOL_clean_sbu_0, # of connection points: 6
#     Node 9, Type 1, BuildingBlock: KUMBOL_clean_sbu_0, # of connection points: 6
#     Node 10, Type 1, BuildingBlock: KUMBOL_clean_sbu_0, # of connection points: 6
#     Node 11, Type 1, BuildingBlock: KUMBOL_clean_sbu_0, # of connection points: 6
#     Edge 12, Type (0, 1), BuildingBlock: MIFKUJ_clean_linker_0, # of connection points: 2
#     Edge 13, Type (0, 1), BuildingBlock: MIFKUJ_clean_linker_0, # of connection points: 2
#     Edge 14, Type (0, 1), BuildingBlock: MIFKUJ_clean_linker_0, # of connection points: 2
#     Edge 15, Type (0, 1), BuildingBlock: MIFKUJ_clean_linker_0, # of connection points: 2
#     Edge 16, Type (0, 1), BuildingBlock: MIFKUJ_clean_linker_0, # of connection points: 2
#     Edge 17, Type (0, 1), BuildingBlock: MIFKUJ_clean_linker_0, # of connection points: 2
#     Edge 18, Type (0, 1), BuildingBlock: MIFKUJ_clean_linker_0, # of connection points: 2
#     Edge 19, Type (0, 1), BuildingBlock: MIFKUJ_clean_linker_0, # of connection points: 2
#     Edge 20, Type (0, 1), BuildingBlock: MIFKUJ_clean_linker_0, # of connection points: 2
#     Edge 21, Type (0, 1), BuildingBlock: MIFKUJ_clean_linker_0, # of connection points: 2
#     Edge 22, Type (0, 1), BuildingBlock: MIFKUJ_clean_linker_0, # of connection points: 2
#     Edge 23, Type (0, 1), BuildingBlock: MIFKUJ_clean_linker_0, # of connection points: 2
#     Edge 24, Type (0, 1), BuildingBlock: MIFKUJ_clean_linker_0, # of connection points: 2
#     Edge 25, Type (0, 1), BuildingBlock: MIFKUJ_clean_linker_0, # of connection points: 2
#     Edge 26, Type (0, 1), BuildingBlock: MIFKUJ_clean_linker_0, # of connection points: 2
#     Edge 27, Type (0, 1), BuildingBlock: MIFKUJ_clean_linker_0, # of connection points: 2
#     Edge 28, Type (0, 1), BuildingBlock: MIFKUJ_clean_linker_0, # of connection points: 2
#     Edge 29, Type (0, 1), BuildingBlock: MIFKUJ_clean_linker_0, # of connection points: 2
#     Edge 30, Type (0, 1), BuildingBlock: MIFKUJ_clean_linker_0, # of connection points: 2
#     Edge 31, Type (0, 1), BuildingBlock: MIFKUJ_clean_linker_0, # of connection points: 2
#     Edge 32, Type (0, 1), BuildingBlock: MIFKUJ_clean_linker_0, # of connection points: 2
#     Edge 33, Type (0, 1), BuildingBlock: MIFKUJ_clean_linker_0, # of connection points: 2
#     Edge 34, Type (0, 1), BuildingBlock: MIFKUJ_clean_linker_0, # of connection points: 2
#     Edge 35, Type (0, 1), BuildingBlock: MIFKUJ_clean_linker_0, # of connection points: 2
# Relax obj value: 0.295
# Max RMSD: 0.224
# Mean RMSD: 0.211
data_MOF--net-zzz--node1-KUMBOL_clean_sbu_0--node2-ESEHIV_clean_linker_0--edge1-MIFKUJ_clean_linker_0
_symmetry_space_group_name_H-M    P1
_symmetry_Int_Tables_number       1
_symmetry_cell_setting            triclinic
loop_
_symmetry_equiv_pos_as_xyz
'x, y, z'
_cell_length_a     57.960979
_cell_length_b     57.954426
_cell_length_c     20.300739
_cell_angle_alpha  90.499486
_cell_angle_beta   89.936982
_cell_angle_gamma 89.97435
loop_
_atom_site_label
_atom_site_type_symbol
_atom_site_fract_x
_atom_site_fract_y
_atom_site_fract_z
_atom_type_partial_charge
H0 H 0.79163 0.56825 0.17507 0.0
H1 H 0.73646 0.56765 0.03473 0.0
H2 H 0.72679 0.53698 0.22582 0.0
C3 C 0.77411 0.56368 0.16171 0.0
C4 C 0.76067 0.55151 0.20708 0.0
C5 C 0.76579 0.56926 0.09909 0.0
C6 C 0.74282 0.56398 0.08368 0.0
C7 C 0.72809 0.55313 0.12931 0.0
C8 C 0.73747 0.54605 0.19074 0.0
H9 H 0.95303 0.80517 0.14077 0.0
H10 H 0.94532 0.74403 0.02444 0.0
H11 H 0.99541 0.74589 0.18236 0.0
C12 C 0.95756 0.78726 0.13168 0.0
C13 C 0.97542 0.77725 0.16834 0.0
C14 C 0.94708 0.77559 0.0793 0.0
C15 C 0.95318 0.75265 0.06634 0.0
C16 C 0.97007 0.74115 0.10386 0.0
C17 C 0.9816 0.75386 0.1548 0.0
H18 H 0.73648 0.94933 0.21576 0.0
H19 H 0.79708 0.94648 0.09421 0.0
H20 H 0.79369 0.99438 0.25765 0.0
C21 C 0.75411 0.95456 0.20597 0.0
C22 C 0.76403 0.97173 0.24601 0.0
C23 C 0.76554 0.94579 0.15024 0.0
C24 C 0.78803 0.9533 0.13693 0.0
C25 C 0.79843 0.97078 0.1748 0.0
C26 C 0.78617 0.98042 0.22914 0.0
H27 H 0.57583 0.72983 0.22723 0.0
H28 H 0.55279 0.79824 0.27807 0.0
H29 H 0.5759 0.78265 0.08036 0.0
C30 C 0.57341 0.74773 0.21365 0.0
C31 C 0.57731 0.75442 0.14844 0.0
C32 C 0.56475 0.76319 0.26099 0.0
C33 C 0.55995 0.78619 0.24246 0.0
C34 C 0.56446 0.79336 0.17708 0.0
C35 C 0.57308 0.77734 0.13084 0.0
H36 H 0.22504 0.45025 0.08813 0.0
H37 H 0.28325 0.45093 0.21818 0.0
H38 H 0.28424 0.49224 0.04238 0.0
C39 C 0.24255 0.45574 0.09878 0.0
C40 C 0.25344 0.47142 0.05654 0.0
C41 C 0.25299 0.44861 0.15734 0.0
C42 C 0.27523 0.45634 0.17255 0.0
C43 C 0.28684 0.47182 0.13143 0.0
C44 C 0.27571 0.47982 0.07361 0.0
H45 H 0.07421 0.23855 0.05069 0.0
H46 H 0.07325 0.29695 0.18128 0.0
H47 H 0.02383 0.29221 0.02246 0.0
C48 C 0.06729 0.25535 0.0638 0.0
C49 C 0.04842 0.26388 0.02854 0.0
C50 C 0.07592 0.26682 0.11938 0.0
C51 C 0.06661 0.28818 0.13783 0.0
C52 C 0.04822 0.29791 0.10265 0.0
C53 C 0.03856 0.28535 0.04858 0.0
H54 H 0.2939 0.07948 0.02063 0.0
H55 H 0.23334 0.08237 0.14191 0.0
H56 H 0.2339 0.04041 0.96519 0.0
C57 C 0.27596 0.07517 0.02902 0.0
C58 C 0.26504 0.06039 0.98385 0.0
C59 C 0.26505 0.08263 0.08704 0.0
C60 C 0.24203 0.07639 0.09762 0.0
C61 C 0.2305 0.06113 0.05477 0.0
C62 C 0.2423 0.0526 0.99796 0.0
H63 H 0.42881 0.29649 0.08559 0.0
H64 H 0.47211 0.23857 0.03526 0.0
H65 H 0.42584 0.23546 0.20192 0.0
C66 C 0.43387 0.27871 0.09301 0.0
C67 C 0.4251 0.26702 0.1474 0.0
C68 C 0.45062 0.26887 0.0515 0.0
C69 C 0.4588 0.24635 0.06564 0.0
C70 C 0.44919 0.23385 0.11903 0.0
C71 C 0.43238 0.24443 0.15908 0.0
Gd72 Gd 0.99004 0.02503 0.55834 0.0
Gd73 Gd 0.03797 0.01072 0.66524 0.0
C74 C 0.07336 0.06354 0.80089 0.0
C75 C 0.11097 0.06753 0.74948 0.0
C76 C 0.08257 0.04094 0.70387 0.0
C77 C 0.06695 0.04739 0.75182 0.0
C78 C 0.10496 0.05052 0.70297 0.0
C79 C 0.09519 0.07402 0.79846 0.0
C80 C 0.05794 0.0682 0.8521 0.0
C81 C 0.03693 0.05659 0.85436 0.0
N82 N 0.04597 0.03694 0.75268 0.0
C83 C 0.03131 0.04075 0.80461 0.0
H84 H 0.01499 0.03209 0.80837 0.0
C85 C 0.09231 0.01503 0.61787 0.0
N86 N 0.07635 0.02423 0.6605 0.0
C87 C 0.1146 0.02412 0.61459 0.0
C88 C 0.12088 0.04219 0.65669 0.0
H89 H 0.08753 1.00115 0.58471 0.0
H90 H 0.10023 0.08673 0.83512 0.0
H91 H 1.00749 0.99639 0.42113 0.0
H92 H 0.06246 0.0802 0.89096 0.0
H93 H 0.02501 0.05976 0.89448 0.0
H94 H 0.12798 0.07528 0.74915 0.0
H95 H 0.94122 0.0487 0.62053 0.0
H96 H 0.95504 0.94849 0.36629 0.0
H97 H 0.99282 0.96692 0.34575 0.0
H98 H 0.89277 0.96756 0.51101 0.0
H99 H 0.12687 0.01727 0.57945 0.0
H100 H 0.13821 0.04914 0.65427 0.0
H101 H 0.91814 0.94807 0.4309 0.0
H102 H 0.90041 0.03792 0.63451 0.0
N103 N 0.97847 0.99533 0.48561 0.0
C104 C 0.96136 0.96166 0.39993 0.0
C105 C 0.98275 0.97185 0.38833 0.0
C106 C 0.94775 0.9697 0.45221 0.0
C107 C 0.95661 0.98731 0.49356 0.0
C108 C 0.99103 0.98878 0.43158 0.0
N109 N 0.9502 0.01775 0.56914 0.0
C110 C 0.94212 0.99868 0.53743 0.0
C111 C 0.91201 0.02657 0.60775 0.0
C112 C 0.90383 1.006 0.58031 0.0
C113 C 0.93521 0.03257 0.59993 0.0
C114 C 0.91871 0.99217 0.54264 0.0
H115 H 0.88575 1.00163 0.58538 0.0
O116 O 0.97229 0.03806 0.47197 0.0
O117 O 0.0157 0.03917 0.63013 0.0
O118 O 1.00413 0.0081 0.72329 0.0
O119 O 0.97305 0.01119 0.65036 0.0
O120 O 0.98252 0.0522 0.6364 0.0
O121 O 0.9968 0.0596 0.52276 0.0
O122 O 0.06237 0.98354 0.68843 0.0
O123 O 0.0119 0.99569 0.5944 0.0
O124 O 0.02334 0.02173 0.49917 0.0
O125 O 0.05125 0.03089 0.57639 0.0
O126 O 0.04579 0.98511 0.58464 0.0
O127 O 0.03062 0.98642 0.7435 0.0
C128 C 1.00297 0.0534 0.66159 0.0
C129 C 0.91058 0.97303 0.50677 0.0
C130 C 0.92504 0.9619 0.46125 0.0
C131 C 0.98515 0.05636 0.4689 0.0
C132 C 0.99795 0.05997 0.40689 0.0
C133 C 0.99294 0.04691 0.34997 0.0
C134 C 0.01662 0.0754 0.40599 0.0
C135 C 0.03045 0.07758 0.34967 0.0
C136 C 1.00661 0.04902 0.29372 0.0
C137 C 0.0253 0.06419 0.29346 0.0
C138 C 0.98171 1.00731 0.70966 0.0
C139 C 0.02515 0.98173 0.56351 0.0
C140 C 0.04764 0.97295 0.72598 0.0
C141 C 0.0414 0.94916 0.70524 0.0
C142 C 0.05551 0.9369 0.66067 0.0
C143 C 0.01991 0.93979 0.72287 0.0
C144 C 0.0118 0.91921 0.69352 0.0
C145 C 0.04771 0.91648 0.63156 0.0
C146 C 0.02587 0.90792 0.64666 0.0
C147 C 0.04446 0.02866 0.51425 0.0
H148 H 0.97872 0.03478 0.34914 0.0
H149 H 0.02078 0.08532 0.44991 0.0
H150 H 1.00272 0.03882 0.2502 0.0
H151 H 0.03545 0.06572 0.24888 0.0
H152 H 0.07219 0.94356 0.64612 0.0
H153 H 0.00948 0.94871 0.75927 0.0
H154 H 0.05842 0.90754 0.59584 0.0
H155 H 0.02008 0.89248 0.62132 0.0
Gd156 Gd 0.50804 0.99048 0.57996 0.0
Gd157 Gd 0.52661 0.03657 0.6935 0.0
C158 C 0.47615 0.0638 0.85174 0.0
C159 C 0.4723 0.10408 0.82193 0.0
C160 C 0.49758 0.07855 0.75897 0.0
C161 C 0.49176 0.06038 0.79894 0.0
C162 C 0.48826 0.10074 0.77069 0.0
C163 C 0.46625 0.08563 0.86239 0.0
C164 C 0.47092 0.04521 0.89237 0.0
C165 C 0.4814 0.02398 0.88062 0.0
N166 N 0.50128 0.03936 0.78622 0.0
C167 C 0.49668 0.02137 0.82774 0.0
H168 H 0.50378 1.00448 0.81996 0.0
C169 C 0.52115 0.09288 0.67387 0.0
N170 N 0.51294 0.07473 0.70981 0.0
C171 C 0.51235 0.11512 0.68327 0.0
C172 C 0.49559 0.11903 0.73139 0.0
H173 H 0.53429 0.09007 0.63678 0.0
H174 H 0.45409 0.08847 0.90223 0.0
H175 H 0.51986 0.02607 0.45042 0.0
H176 H 0.45895 0.0471 0.9331 0.0
H177 H 0.47754 0.00945 0.91193 0.0
H178 H 0.46482 0.12093 0.83128 0.0
H179 H 0.51086 0.93469 0.62827 0.0
H180 H 0.57239 0.99546 0.33415 0.0
H181 H 0.54559 0.02741 0.35629 0.0
H182 H 0.58658 0.92308 0.43694 0.0
H183 H 0.51856 0.12923 0.65351 0.0
H184 H 0.48883 0.13629 0.7388 0.0
H185 H 0.58857 0.95719 0.36626 0.0
H186 H 0.53513 0.90051 0.60912 0.0
N187 N 0.53222 0.99365 0.48598 0.0
C188 C 0.56138 0.99477 0.37681 0.0
C189 C 0.54609 0.01278 0.38892 0.0
C190 C 0.56178 0.97585 0.4188 0.0
C191 C 0.54657 0.9756 0.47324 0.0
C192 C 0.53146 0.01188 0.44342 0.0
N193 N 0.52986 0.95623 0.56284 0.0
C194 C 0.54561 0.9565 0.51341 0.0
C195 C 0.53862 0.91626 0.58273 0.0
C196 C 0.55638 0.91703 0.53652 0.0
C197 C 0.52505 0.93583 0.59384 0.0
C198 C 0.55959 0.93704 0.49966 0.0
H199 H 0.56673 0.90175 0.52744 0.0
O200 O 0.48229 0.96346 0.56967 0.0
O201 O 0.49649 0.017 0.65367 0.0
O202 O 0.53237 1.00202 0.74294 0.0
O203 O 0.52254 0.97266 0.66882 0.0
O204 O 0.48162 0.98472 0.65977 0.0
O205 O 0.48663 0.98873 0.49275 0.0
O206 O 0.55543 0.05974 0.71122 0.0
O207 O 0.53838 0.01052 0.61761 0.0
O208 O 0.49543 0.02509 0.53983 0.0
O209 O 0.50997 0.05455 0.6075 0.0
O210 O 0.54952 0.0443 0.60707 0.0
O211 O 0.55229 0.0286 0.7678 0.0
C212 C 0.48148 1.00531 0.68424 0.0
C213 C 0.57554 0.93774 0.44769 0.0
C214 C 0.57661 0.95711 0.40728 0.0
C215 C 0.47412 0.97183 0.51525 0.0
C216 C 0.44886 0.9744 0.51171 0.0
C217 C 0.43463 0.95541 0.52476 0.0
C218 C 0.4388 0.99542 0.49347 0.0
C219 C 0.4148 0.99737 0.4852 0.0
C220 C 0.41072 0.95737 0.51891 0.0
C221 C 0.40082 0.97812 0.49873 0.0
C222 C 0.53011 0.98 0.72652 0.0
C223 C 0.55155 0.02358 0.58438 0.0
C224 C 0.56596 0.04512 0.74887 0.0
C225 C 0.58946 0.03807 0.72837 0.0
C226 C 0.60088 0.04914 0.67617 0.0
C227 C 0.59995 0.01894 0.75792 0.0
C228 C 0.62125 0.01056 0.73501 0.0
C229 C 0.6221 0.0409 0.65334 0.0
C230 C 0.63226 0.02169 0.68244 0.0
C231 C 0.49909 0.04721 0.55413 0.0
H232 H 0.44204 0.93902 0.53898 0.0
H233 H 0.44973 0.0102 0.48492 0.0
H234 H 0.39984 0.94261 0.5287 0.0
H235 H 0.38231 0.97881 0.49199 0.0
H236 H 0.59327 0.06388 0.65202 0.0
H237 H 0.59158 0.01062 0.7991 0.0
H238 H 0.63061 0.04932 0.61261 0.0
H239 H 0.64868 0.01551 0.66385 0.0
Gd240 Gd 0.48557 0.51979 0.6647 0.0
Gd241 Gd 0.53737 0.5042 0.57556 0.0
C242 C 0.60937 0.52326 0.64883 0.0
C243 C 0.62132 0.55234 0.57032 0.0
C244 C 0.58353 0.53438 0.56115 0.0
C245 C 0.58793 0.52145 0.61645 0.0
C246 C 0.60039 0.54955 0.53635 0.0
C247 C 0.62579 0.53923 0.62656 0.0
C248 C 0.61397 0.50838 0.70104 0.0
C249 C 0.59762 0.4918 0.71837 0.0
N250 N 0.5718 0.50603 0.63616 0.0
C251 C 0.57666 0.49071 0.68485 0.0
H252 H 0.56421 0.47779 0.69873 0.0
C253 C 0.55926 0.54126 0.46993 0.0
N254 N 0.56305 0.53132 0.52985 0.0
C255 C 0.57552 0.55632 0.44319 0.0
C256 C 0.59599 0.56086 0.47706 0.0
H257 H 0.54354 0.53786 0.44315 0.0
H258 H 0.64226 0.54105 0.65127 0.0
H259 H 0.49255 0.55438 0.52275 0.0
H260 H 0.63025 0.5092 0.72698 0.0
H261 H 0.60093 0.47986 0.7576 0.0
H262 H 0.63438 0.56411 0.55249 0.0
H263 H 0.44782 0.47876 0.70489 0.0
H264 H 0.42906 0.58922 0.49267 0.0
H265 H 0.47045 0.58432 0.46796 0.0
H266 H 0.37509 0.53936 0.5996 0.0
H267 H 0.57235 0.56414 0.39609 0.0
H268 H 0.60853 0.57255 0.45606 0.0
H269 H 0.39302 0.57139 0.53951 0.0
H270 H 0.40593 0.47261 0.7068 0.0
N271 N 0.46523 0.54416 0.58759 0.0
C272 C 0.43881 0.57606 0.51775 0.0
C273 C 0.4622 0.57356 0.5044 0.0
C274 C 0.42806 0.56027 0.5592 0.0
C275 C 0.44192 0.54429 0.59332 0.0
C276 C 0.47493 0.55687 0.53777 0.0
N277 N 0.44599 0.51058 0.65366 0.0
C278 C 0.4319 0.52652 0.62679 0.0
C279 C 0.41297 0.48787 0.68393 0.0
C280 C 0.39827 0.50443 0.65749 0.0
C281 C 0.43684 0.49131 0.68192 0.0
C282 C 0.40768 0.524 0.62799 0.0
H283 H 0.37978 0.5018 0.65927 0.0
O284 O 0.48131 0.49901 0.75189 0.0
O285 O 0.52278 0.51015 0.67528 0.0
O286 O 0.52635 0.475 0.64392 0.0
O287 O 0.48704 0.4809 0.64534 0.0
O288 O 0.51157 0.53883 0.7282 0.0
O289 O 0.46668 0.53335 0.74942 0.0
O290 O 0.54154 0.48786 0.47971 0.0
O291 O 0.49877 0.50284 0.57529 0.0
O292 O 0.50234 0.5545 0.6408 0.0
O293 O 0.53668 0.54374 0.58619 0.0
O294 O 0.51409 0.51147 0.48786 0.0
O295 O 0.55834 0.47327 0.56447 0.0
C296 C 0.52898 0.52548 0.7168 0.0
C297 C 0.39372 0.54076 0.59833 0.0
C298 C 0.40393 0.55904 0.56435 0.0
C299 C 0.47135 0.51537 0.78554 0.0
C300 C 0.4812 0.51931 0.85145 0.0
C301 C 0.48223 0.50097 0.8961 0.0
C302 C 0.49156 0.5404 0.86806 0.0
C303 C 0.50352 0.54307 0.92767 0.0
C304 C 0.4938 0.50363 0.956 0.0
C305 C 0.5046 0.5245 0.9716 0.0
C306 C 0.50518 0.46745 0.656 0.0
C307 C 0.49461 0.5077 0.51606 0.0
C308 C 0.55449 0.47136 0.50177 0.0
C309 C 0.55027 0.44813 0.47579 0.0
C310 C 0.5693 0.4351 0.45484 0.0
C311 C 0.52788 0.43911 0.46954 0.0
C312 C 0.52453 0.41709 0.44122 0.0
C313 C 0.56612 0.41333 0.42688 0.0
C314 C 0.54394 0.40442 0.41958 0.0
C315 C 0.52211 0.55958 0.61002 0.0
H316 H 0.47449 0.48445 0.88397 0.0
H317 H 0.49109 0.55455 0.83354 0.0
H318 H 0.49464 0.48939 0.99006 0.0
H319 H 0.51362 0.52619 0.01809 0.0
H320 H 0.58664 0.44192 0.45941 0.0
H321 H 0.51326 0.44918 0.4867 0.0
H322 H 0.58087 0.40343 0.41007 0.0
H323 H 0.54202 0.38772 0.39591 0.0
Gd324 Gd 1.00686 0.48888 0.66251 0.0
Gd325 Gd 0.01471 0.54331 0.57435 0.0
C326 C 1.00009 0.61475 0.66308 0.0
C327 C 0.96576 0.62642 0.60353 0.0
C328 C 0.98386 0.58934 0.58013 0.0
C329 C 1.00014 0.59356 0.62823 0.0
C330 C 0.96682 0.60597 0.56602 0.0
C331 C 0.98242 0.63083 0.65189 0.0
C332 C 0.01826 0.61954 0.70625 0.0
C333 C 0.03613 0.60361 0.71274 0.0
N334 N 0.01696 0.57763 0.63779 0.0
C335 C 0.03533 0.58278 0.67749 0.0
H336 H 0.04934 0.57082 0.68316 0.0
C337 C 0.9723 0.56648 0.48909 0.0
N338 N 0.98565 0.56965 0.544 0.0
C339 C 0.95495 0.58231 0.47378 0.0
C340 C 0.95193 0.60196 0.51299 0.0
H341 H 0.97441 0.55119 0.45882 0.0
H342 H 0.98192 0.64703 0.67893 0.0
H343 H 0.97261 0.46145 0.55228 0.0
H344 H 0.01896 0.63572 0.73328 0.0
H345 H 0.05052 0.60733 0.74507 0.0
H346 H 0.95263 0.63927 0.59393 0.0
H347 H 0.0479 0.48201 0.77669 0.0
H348 H 1.0021 0.39579 0.50716 0.0
H349 H 0.9713 0.42472 0.49185 0.0
H350 H 0.06791 0.39219 0.64896 0.0
H351 H 0.94377 0.57923 0.4323 0.0
H352 H 0.93852 0.61423 0.50073 0.0
H353 H 0.03866 0.38419 0.56398 0.0
H354 H 0.078 0.45373 0.80601 0.0
N355 N 1.00443 0.45431 0.60039 0.0
C356 C 1.00292 0.41208 0.53362 0.0
C357 C 0.98546 0.42833 0.52506 0.0
C358 C 0.02087 0.41679 0.57767 0.0
C359 C 0.02096 0.43819 0.61153 0.0
C360 C 0.98633 0.44929 0.55957 0.0
N361 N 0.03593 0.46269 0.69385 0.0
C362 C 0.03732 0.44259 0.65943 0.0
C363 C 0.06675 0.45041 0.76449 0.0
C364 C 0.06927 0.43025 0.72704 0.0
C365 C 0.04966 0.46636 0.74781 0.0
C366 C 0.05418 0.4259 0.67459 0.0
H367 H 0.08248 0.41788 0.74016 0.0
O368 O 0.99999 0.47664 0.76089 0.0
O369 O 1.00368 0.52728 0.66806 0.0
O370 O 0.04687 0.53333 0.63436 0.0
O371 O 0.0449 0.49339 0.64094 0.0
O372 O 0.01617 0.51152 0.75092 0.0
O373 O 0.97285 0.47584 0.68705 0.0
O374 O 0.02252 0.55376 0.47459 0.0
O375 O 0.01807 0.50497 0.5693 0.0
O376 O 0.97473 0.4984 0.60162 0.0
O377 O 0.97645 0.53833 0.59277 0.0
O378 O 1.0061 0.52052 0.48559 0.0
O379 O 0.04784 0.55872 0.55217 0.0
C380 C 0.01054 0.53106 0.7262 0.0
C381 C 0.05494 0.40512 0.63852 0.0
C382 C 0.03828 0.40056 0.5902 0.0
C383 C 0.9783 0.47275 0.74879 0.0
C384 C 0.9622 0.48122 0.79915 0.0
C385 C 0.96184 0.47015 0.86028 0.0
C386 C 0.9474 0.49999 0.78772 0.0
C387 C 0.93166 0.50697 0.83661 0.0
C388 C 0.94659 0.47739 0.90934 0.0
C389 C 0.93142 0.49553 0.89747 0.0
C390 C 0.05657 0.51295 0.64603 0.0
C391 C 0.01169 0.50103 0.51083 0.0
C392 C 0.04343 0.56014 0.48933 0.0
C393 C 0.06147 0.55206 0.44441 0.0
C394 C 0.06896 0.56675 0.39427 0.0
C395 C 0.0713 0.53004 0.45087 0.0
C396 C 0.08912 0.52313 0.40827 0.0
C397 C 0.08641 0.5597 0.35123 0.0
C398 C 0.09657 0.53806 0.35838 0.0
C399 C 0.96493 0.51863 0.58845 0.0
H400 H 0.97332 0.45581 0.86993 0.0
H401 H 0.9476 0.50863 0.74056 0.0
H402 H 0.94632 0.46873 0.95637 0.0
H403 H 0.91936 0.50054 0.93579 0.0
H404 H 0.06136 0.58371 0.38861 0.0
H405 H 0.06553 0.51862 0.48958 0.0
H406 H 0.09219 0.5711 0.31262 0.0
H407 H 0.11027 0.53291 0.32497 0.0
H408 H 0.21636 0.01799 0.09239 0.0
H409 H 0.18204 0.0089 0.15865 0.0
H410 H 0.15859 0.07915 0.13942 0.0
H411 H 0.19244 0.08795 0.07246 0.0
H412 H 0.17161 0.02481 0.27513 0.0
H413 H 0.10131 0.08442 0.16717 0.0
H414 H 0.08913 0.09963 0.05966 0.0
H415 H 0.11888 0.04072 0.96192 0.0
H416 H 0.13115 0.02506 0.06901 0.0
H417 H 0.08688 0.05038 0.51746 0.0
H418 H 0.11595 0.05227 0.43004 0.0
H419 H 0.07037 0.01537 0.29868 0.0
H420 H 0.0413 0.01368 0.3854 0.0
H421 H 0.09043 0.04609 0.23 0.0
H422 H 0.11841 0.98907 0.37332 0.0
H423 H 0.13072 0.97064 0.47648 0.0
H424 H 0.18438 0.02109 0.50008 0.0
H425 H 0.17217 0.04005 0.39751 0.0
C426 C 0.20332 0.03115 0.09978 0.0
C427 C 0.20693 0.05356 0.07584 0.0
C428 C 0.18384 0.02608 0.13873 0.0
C429 C 0.16744 0.04327 0.1545 0.0
C430 C 0.17052 0.06534 0.12751 0.0
C431 C 0.18991 0.07037 0.08872 0.0
C432 C 0.14832 0.03884 0.20327 0.0
C433 C 0.1539 0.02974 0.26532 0.0
C434 C 0.12494 0.04469 0.19087 0.0
C435 C 0.11735 0.05368 0.12617 0.0
C436 C 0.10519 0.07466 0.12282 0.0
C437 C 0.09829 0.08337 0.06195 0.0
C438 C 0.10329 0.07117 1.00403 0.0
C439 C 0.11511 0.05018 1.00686 0.0
C440 C 0.1221 0.04141 0.06764 0.0
C441 C 0.08309 0.04246 0.47022 0.0
C442 C 0.06177 0.0314 0.45959 0.0
C443 C 0.09982 0.04352 0.41997 0.0
C444 C 0.09584 0.03343 0.35751 0.0
C445 C 0.07422 0.02311 0.34616 0.0
C446 C 0.05748 0.02215 0.39627 0.0
C447 C 0.11401 0.03395 0.3041 0.0
C448 C 0.10821 0.04189 0.24084 0.0
C449 C 0.13718 0.02709 0.31541 0.0
C450 C 0.14427 0.01608 0.37792 0.0
C451 C 0.13271 0.99636 0.40079 0.0
C452 C 0.13972 0.98577 0.45904 0.0
C453 C 0.15839 0.99462 0.49463 0.0
C454 C 0.16998 0.01419 0.4723 0.0
C455 C 0.16302 0.02487 0.41411 0.0
H456 H 0.16379 0.98639 0.53971 0.0
H457 H 0.09804 0.07799 0.957 0.0
H458 H 0.42361 0.19462 0.12205 0.0
H459 H 0.43193 0.15969 0.18468 0.0
H460 H 0.49972 0.18593 0.23022 0.0
H461 H 0.49146 0.22083 0.16632 0.0
H462 H 0.50049 0.13881 0.21448 0.0
H463 H 0.4535 0.19428 0.3332 0.0
H464 H 0.41954 0.21914 0.35158 0.0
H465 H 0.37528 0.15973 0.34527 0.0
H466 H 0.40892 0.1346 0.32481 0.0
H467 H 0.52389 0.08466 0.51789 0.0
H468 H 0.51493 0.11295 0.43302 0.0
H469 H 0.45062 0.07829 0.3932 0.0
H470 H 0.45972 0.04963 0.47833 0.0
H471 H 0.4463 0.12689 0.40068 0.0
H472 H 0.49003 0.07146 0.28316 0.0
H473 H 0.52208 0.04447 0.26181 0.0
H474 H 0.57013 0.10084 0.26408 0.0
H475 H 0.53828 0.12824 0.2856 0.0
C476 C 0.44061 0.19252 0.14334 0.0
C477 C 0.45697 0.21037 0.13868 0.0
C478 C 0.44526 0.17266 0.17994 0.0
C479 C 0.46626 0.17031 0.21381 0.0
C480 C 0.48333 0.18731 0.20497 0.0
C481 C 0.47871 0.20719 0.1679 0.0
C482 C 0.46965 0.15122 0.2623 0.0
C483 C 0.48876 0.13643 0.25552 0.0
C484 C 0.45396 0.1474 0.31499 0.0
C485 C 0.43372 0.16258 0.32683 0.0
C486 C 0.43651 0.18654 0.33504 0.0
C487 C 0.41731 0.20069 0.34582 0.0
C488 C 0.39526 0.19104 0.34945 0.0
C489 C 0.39236 0.16721 0.34226 0.0
C490 C 0.41148 0.15301 0.33097 0.0
C491 C 0.5077 0.08316 0.4916 0.0
C492 C 0.49248 0.06489 0.5049 0.0
C493 C 0.5027 0.09924 0.44257 0.0
C494 C 0.48219 0.09767 0.40604 0.0
C495 C 0.46661 0.07978 0.42035 0.0
C496 C 0.47185 0.06335 0.46874 0.0
C497 C 0.47727 0.11483 0.35324 0.0
C498 C 0.45793 0.12925 0.35936 0.0
C499 C 0.49252 0.11811 0.29954 0.0
C500 C 0.51181 0.10186 0.28661 0.0
C501 C 0.50745 0.07809 0.2796 0.0
C502 C 0.52557 0.06273 0.26731 0.0
C503 C 0.54814 0.07093 0.2619 0.0
C504 C 0.55263 0.09453 0.2684 0.0
C505 C 0.53454 0.11 0.28044 0.0
H506 H 0.56211 0.05897 0.25246 0.0
H507 H 0.38042 0.20202 0.35797 0.0
H508 H 0.32834 0.45018 0.11623 0.0
H509 H 0.36384 0.45771 0.17869 0.0
H510 H 0.3318 0.51736 0.26874 0.0
H511 H 0.29667 0.51011 0.20469 0.0
H512 H 0.37396 0.52717 0.25212 0.0
H513 H 0.33561 0.46246 0.34163 0.0
H514 H 0.31791 0.42386 0.34595 0.0
H515 H 0.38314 0.39268 0.29958 0.0
H516 H 0.40118 0.43113 0.2927 0.0
H517 H 0.45403 0.48503 0.54875 0.0
H518 H 0.41825 0.48286 0.48456 0.0
H519 H 0.45087 0.5213 0.32914 0.0
H520 H 0.48531 0.52564 0.39627 0.0
H521 H 0.40716 0.46313 0.38166 0.0
H522 H 0.42654 0.54245 0.23816 0.0
H523 H 0.4352 0.58414 0.24593 0.0
H524 H 0.39539 0.58908 0.42394 0.0
H525 H 0.38794 0.54714 0.41958 0.0
C526 C 0.32927 0.46539 0.14748 0.0
C527 C 0.30994 0.47994 0.15413 0.0
C528 C 0.34943 0.46947 0.18427 0.0
C529 C 0.35059 0.48788 0.22993 0.0
C530 C 0.33159 0.50303 0.23414 0.0
C531 C 0.31151 0.49905 0.19694 0.0
C532 C 0.37112 0.49108 0.27464 0.0
C533 C 0.38117 0.51305 0.28015 0.0
C534 C 0.3805 0.47297 0.31316 0.0
C535 C 0.36967 0.44977 0.31557 0.0
C536 C 0.34614 0.44741 0.33129 0.0
C537 C 0.33605 0.42554 0.33422 0.0
C538 C 0.34939 0.40584 0.32257 0.0
C539 C 0.37284 0.40797 0.30799 0.0
C540 C 0.38299 0.42981 0.3044 0.0
C541 C 0.45308 0.49402 0.50247 0.0
C542 C 0.47223 0.50642 0.47933 0.0
C543 C 0.4327 0.49241 0.4648 0.0
C544 C 0.43115 0.50255 0.40189 0.0
C545 C 0.45067 0.51434 0.37832 0.0
C546 C 0.47071 0.51644 0.41659 0.0
C547 C 0.41008 0.49927 0.35892 0.0
C548 C 0.39998 0.47721 0.35346 0.0
C549 C 0.40006 0.51741 0.32204 0.0
C550 C 0.40729 0.54168 0.32957 0.0
C551 C 0.42024 0.55238 0.27992 0.0
C552 C 0.42501 0.57599 0.28391 0.0
C553 C 0.41619 0.58918 0.3361 0.0
C554 C 0.40272 0.57874 0.38454 0.0
C555 C 0.39857 0.55499 0.382 0.0
H556 H 0.41957 0.60753 0.33861 0.0
H557 H 0.34158 0.38891 0.32515 0.0
H558 H 0.06758 0.34008 0.0835 0.0
H559 H 0.06109 0.37526 0.14897 0.0
H560 H 1.00461 0.34207 0.24887 0.0
H561 H 0.01133 0.30678 0.1835 0.0
H562 H 0.02896 0.40654 0.17338 0.0
H563 H 1.0058 0.35801 0.41438 0.0
H564 H 0.01282 0.32011 0.46503 0.0
H565 H 0.07426 0.31167 0.34886 0.0
H566 H 0.06788 0.34971 0.29858 0.0
H567 H 0.98545 0.48619 0.4086 0.0
H568 H 0.99147 0.45275 0.33612 0.0
H569 H 0.05272 0.43495 0.44493 0.0
H570 H 0.04659 0.46859 0.51782 0.0
H571 H 0.0302 0.39664 0.41576 0.0
H572 H 0.0551 0.46062 0.29553 0.0
H573 H 0.05383 0.49931 0.24646 0.0
H574 H 0.99794 0.47802 0.12127 0.0
H575 H 0.99851 0.43933 0.17094 0.0
C576 C 0.0532 0.34062 0.1176 0.0
C577 C 0.03959 0.3208 0.12697 0.0
C578 C 0.04961 0.36073 0.15562 0.0
C579 C 0.03256 0.36146 0.20503 0.0
C580 C 0.01809 0.34204 0.21189 0.0
C581 C 0.02166 0.32194 0.17366 0.0
C582 C 0.03094 0.38184 0.25172 0.0
C583 C 0.02891 0.40428 0.22634 0.0
C584 C 0.03192 0.37931 0.32124 0.0
C585 C 0.03615 0.35657 0.35201 0.0
C586 C 0.02084 0.3481 0.39982 0.0
C587 C 0.02473 0.3266 0.42851 0.0
C588 C 0.04391 0.31345 0.40996 0.0
C589 C 0.05935 0.32183 0.363 0.0
C590 C 0.0556 0.34336 0.33438 0.0
C591 C 1.00014 0.47507 0.41731 0.0
C592 C 0.0152 0.47975 0.47001 0.0
C593 C 1.00366 0.45595 0.37555 0.0
C594 C 0.02269 0.44118 0.38417 0.0
C595 C 0.03784 0.44587 0.43694 0.0
C596 C 0.03428 0.46507 0.47893 0.0
C597 C 0.02676 0.42118 0.33751 0.0
C598 C 0.02964 0.39886 0.36285 0.0
C599 C 0.02712 0.4239 0.26801 0.0
C600 C 0.02666 0.44713 0.23768 0.0
C601 C 0.04228 0.4643 0.25835 0.0
C602 C 0.04174 0.48622 0.23025 0.0
C603 C 0.02575 0.49115 0.1809 0.0
C604 C 0.0103 0.47417 0.15956 0.0
C605 C 0.01074 0.45223 0.18768 0.0
H606 H 0.02538 0.50812 0.15905 0.0
H607 H 0.04685 0.29678 0.43212 0.0
H608 H 0.84103 0.95134 0.18939 0.0
H609 H 0.87522 0.95849 0.12086 0.0
H610 H 0.84003 0.01517 0.02848 0.0
H611 H 0.806 0.00814 0.09759 0.0
H612 H 0.85651 0.98263 0.93848 0.0
H613 H 0.88674 0.02441 0.12808 0.0
H614 H 0.89866 0.02857 0.24417 0.0
H615 H 0.94724 0.97321 0.21948 0.0
H616 H 0.93539 0.9685 0.10339 0.0
H617 H 0.94016 0.02829 0.72962 0.0
H618 H 0.91221 0.02219 0.81712 0.0
H619 H 0.95797 0.97303 0.90719 0.0
H620 H 0.98626 0.97932 0.81846 0.0
H621 H 0.93768 0.99846 1.00148 0.0
H622 H 0.91012 0.95422 0.8233 0.0
H623 H 0.89997 0.94527 0.70795 0.0
H624 H 0.84765 0.99775 0.71288 0.0
H625 H 0.85773 1.00721 0.82813 0.0
C626 C 0.84104 0.966 0.15666 0.0
C627 C 0.82105 0.97962 0.15039 0.0
C628 C 0.86053 0.96996 0.11693 0.0
C629 C 0.86037 0.98741 0.06915 0.0
C630 C 0.84074 1.00165 0.06493 0.0
C631 C 0.82137 0.99786 0.10519 0.0
C632 C 0.87952 0.98946 0.01951 0.0
C633 C 0.87417 0.98648 0.9524 0.0
C634 C 0.90293 0.99313 0.03733 0.0
C635 C 0.91001 0.99596 0.10716 0.0
C636 C 0.89982 0.01298 0.14753 0.0
C637 C 0.9066 0.01547 0.21331 0.0
C638 C 0.92366 1.00113 0.23923 0.0
C639 C 0.93401 0.98429 0.19936 0.0
C640 C 0.92729 0.98173 0.13354 0.0
C641 C 0.94411 0.01574 0.76682 0.0
C642 C 0.96513 1.00366 0.76516 0.0
C643 C 0.92813 0.01241 0.81767 0.0
C644 C 0.93254 0.9967 0.86857 0.0
C645 C 0.95394 0.98514 0.86854 0.0
C646 C 0.9701 0.98866 0.81755 0.0
C647 C 0.91447 0.99238 0.9204 0.0
C648 C 0.92001 0.99469 0.98765 0.0
C649 C 0.8913 0.9873 0.90313 0.0
C650 C 0.88481 0.98153 0.83418 0.0
C651 C 0.89654 0.96393 0.79964 0.0
C652 C 0.89079 0.95876 0.73432 0.0
C653 C 0.87318 0.97095 0.70311 0.0
C654 C 0.86128 0.98832 0.73719 0.0
C655 C 0.86698 0.99357 0.80256 0.0
H656 H 0.86874 0.96692 0.65253 0.0
H657 H 0.92888 1.00308 0.29017 0.0
H658 H 0.59309 0.8307 0.17343 0.0
H659 H 0.58817 0.86527 0.10544 0.0
H660 H 0.51998 0.84225 0.05134 0.0
H661 H 0.52496 0.80781 0.11928 0.0
H662 H 0.54757 0.85087 0.94383 0.0
H663 H 0.52768 0.89156 0.14848 0.0
H664 H 0.5355 0.90465 0.26231 0.0
H665 H 0.59806 0.93724 0.19827 0.0
H666 H 0.59074 0.92403 0.08431 0.0
H667 H 0.50609 0.94059 0.74897 0.0
H668 H 0.51275 0.91165 0.83319 0.0
H669 H 0.57209 0.94974 0.90206 0.0
H670 H 0.56407 0.97987 0.82098 0.0
H671 H 0.55286 0.93384 1.0033 0.0
H672 H 0.57516 0.89718 0.8044 0.0
H673 H 0.57241 0.88381 0.68904 0.0
H674 H 0.51372 0.84212 0.73793 0.0
H675 H 0.51589 0.85551 0.85343 0.0
C676 C 0.57671 0.83359 0.1492 0.0
C677 C 0.55917 0.8169 0.1529 0.0
C678 C 0.57395 0.85326 0.10993 0.0
C679 C 0.55367 0.85648 0.0731 0.0
C680 C 0.53576 0.84026 0.07927 0.0
C681 C 0.53848 0.82071 0.11873 0.0
C682 C 0.55186 0.87529 0.02324 0.0
C683 C 0.5484 0.86903 0.95698 0.0
C684 C 0.55431 0.89898 0.03945 0.0
C685 C 0.55867 0.90681 0.10796 0.0
C686 C 0.54315 0.90142 0.15878 0.0
C687 C 0.54748 0.90887 0.2233 0.0
C688 C 0.56725 0.92178 0.23749 0.0
C689 C 0.58272 0.9273 0.1872 0.0
C690 C 0.57846 0.91988 0.12264 0.0
C691 C 0.52067 0.94273 0.78179 0.0
C692 C 0.53488 0.96229 0.77731 0.0
C693 C 0.52456 0.92606 0.83002 0.0
C694 C 0.54336 0.92796 0.87364 0.0
C695 C 0.55746 0.94769 0.86954 0.0
C696 C 0.55304 0.96484 0.82262 0.0
C697 C 0.54789 0.90948 0.92361 0.0
C698 C 0.55208 0.91572 0.98975 0.0
C699 C 0.54696 0.88565 0.90698 0.0
C700 C 0.54559 0.87749 0.83753 0.0
C701 C 0.56158 0.88527 0.79049 0.0
C702 C 0.56014 0.87766 0.72509 0.0
C703 C 0.5429 0.86213 0.70619 0.0
C704 C 0.52707 0.85415 0.75266 0.0
C705 C 0.52841 0.86172 0.81812 0.0
H706 H 0.54182 0.85627 0.65551 0.0
H707 H 0.57058 0.92747 0.28745 0.0
H708 H 0.69976 0.58351 0.06685 0.0
H709 H 0.66342 0.57592 0.01234 0.0
H710 H 0.66239 0.50733 0.09345 0.0
H711 H 0.70023 0.51444 0.14442 0.0
H712 H 0.65075 0.50231 0.9784 0.0
H713 H 0.61984 0.55469 0.13363 0.0
H714 H 0.6141 0.58941 0.20289 0.0
H715 H 0.60858 0.63109 0.0298 0.0
H716 H 0.6147 0.59664 0.95961 0.0
H717 H 0.53599 0.4952 0.81702 0.0
H718 H 0.56608 0.49657 0.90175 0.0
H719 H 0.59621 0.55587 0.80828 0.0
H720 H 0.56514 0.55536 0.72601 0.0
H721 H 0.59009 0.56088 0.94213 0.0
H722 H 0.6505 0.49744 0.83327 0.0
H723 H 0.65452 0.45904 0.78075 0.0
H724 H 0.5965 0.43439 0.89139 0.0
H725 H 0.59282 0.47234 0.94626 0.0
C726 C 0.69181 0.56679 0.07372 0.0
C727 C 0.70332 0.54946 0.10935 0.0
C728 C 0.67059 0.56256 0.04309 0.0
C729 C 0.65955 0.54106 0.04863 0.0
C730 C 0.67034 0.52409 0.08768 0.0
C731 C 0.69195 0.52823 0.11765 0.0
C732 C 0.63826 0.53584 0.00825 0.0
C733 C 0.63717 0.51499 0.97231 0.0
C734 C 0.6202 0.55211 0.99917 0.0
C735 C 0.61786 0.57309 0.04128 0.0
C736 C 0.61771 0.5713 0.11033 0.0
C737 C 0.61432 0.59092 0.14979 0.0
C738 C 0.61101 0.61245 0.12077 0.0
C739 C 0.61118 0.61442 0.05223 0.0
C740 C 0.61462 0.59486 0.01261 0.0
C741 C 0.54944 0.50812 0.8137 0.0
C742 C 0.54881 0.52459 0.76321 0.0
C743 C 0.56694 0.50869 0.86178 0.0
C744 C 0.58452 0.52547 0.85994 0.0
C745 C 0.58342 0.54227 0.81015 0.0
C746 C 0.56567 0.54199 0.76295 0.0
C747 C 0.60247 0.52748 0.91339 0.0
C748 C 0.6032 0.54799 0.9507 0.0
C749 C 0.61945 0.51042 0.92632 0.0
C750 C 0.62046 0.48812 0.89063 0.0
C751 C 0.63837 0.4839 0.84543 0.0
C752 C 0.64081 0.46213 0.81596 0.0
C753 C 0.62553 0.44438 0.83191 0.0
C754 C 0.60803 0.44827 0.87811 0.0
C755 C 0.60571 0.46995 0.90819 0.0
H756 H 0.62739 0.42755 0.80896 0.0
H757 H 0.60832 0.6276 0.15138 0.0
H758 H 0.01293 0.71948 0.09348 0.0
H759 H 0.02146 0.68211 0.04093 0.0
H760 H 0.94867 0.67087 0.00989 0.0
H761 H 0.94018 0.70668 0.06753 0.0
H762 H 0.96357 0.63235 0.02247 0.0
H763 H 0.99212 0.69335 0.8861 0.0
H764 H 0.01525 0.72751 0.85709 0.0
H765 H 0.0776 0.69005 0.89639 0.0
H766 H 0.05481 0.65574 0.92639 0.0
H767 H 0.97432 0.56182 0.72618 0.0
H768 H 0.96858 0.5954 0.79977 0.0
H769 H 0.03359 0.5813 0.89411 0.0
H770 H 0.0389 0.5473 0.82243 0.0
H771 H 0.02485 0.63076 0.852 0.0
H772 H 0.99327 0.56928 0.98314 0.0
H773 H 0.96846 0.53522 0.99957 0.0
H774 H 0.9087 0.5751 0.95076 0.0
H775 H 0.9331 0.60959 0.93393 0.0
C776 C 0.99874 0.70873 0.07717 0.0
C777 C 0.97585 0.7166 0.08383 0.0
C778 C 1.00363 0.68743 0.04559 0.0
C779 C 0.98583 0.67366 0.01818 0.0
C780 C 0.96297 0.68088 0.02913 0.0
C781 C 0.95809 0.70171 0.06195 0.0
C782 C 0.99061 0.65228 0.97653 0.0
C783 C 0.9768 0.63239 0.9847 0.0
C784 C 0.00801 0.6515 0.92696 0.0
C785 C 0.02176 0.6721 0.90932 0.0
C786 C 0.01076 0.69247 0.88901 0.0
C787 C 0.02381 0.71184 0.87233 0.0
C788 C 0.04788 0.71098 0.87512 0.0
C789 C 0.05896 0.69071 0.89442 0.0
C790 C 0.04598 0.6713 0.91127 0.0
C791 C 0.98739 0.56597 0.76248 0.0
C792 C 1.00731 0.55223 0.76752 0.0
C793 C 0.98408 0.58511 0.80472 0.0
C794 C 1.00075 0.5911 0.85235 0.0
C795 C 0.02057 0.57725 0.85757 0.0
C796 C 0.02358 0.55781 0.81657 0.0
C797 C 0.99743 0.61163 0.89708 0.0
C798 C 0.01154 0.63111 0.88951 0.0
C799 C 0.97991 0.61232 0.94559 0.0
C800 C 0.96502 0.59198 0.95722 0.0
C801 C 0.97482 0.57081 0.97584 0.0
C802 C 0.96083 0.55148 0.98535 0.0
C803 C 0.937 0.55315 0.97667 0.0
C804 C 0.92712 0.57408 0.95813 0.0
C805 C 0.94101 0.59351 0.9487 0.0
H806 H 0.92615 0.53825 0.9844 0.0
H807 H 0.05795 0.72599 0.86216 0.0
H808 H 0.11603 0.24403 0.08905 0.0
H809 H 0.1305 0.21056 0.14899 0.0
H810 H 0.08336 0.22587 0.30821 0.0
H811 H 0.06941 0.25943 0.24953 0.0
H812 H 0.11749 0.20068 0.3539 0.0
H813 H 0.06422 0.19625 0.16633 0.0
H814 H 0.05146 0.19938 0.05077 0.0
H815 H 0.10965 0.15902 0.98736 0.0
H816 H 0.12262 0.15549 0.10275 0.0
H817 H 0.0311 0.12127 0.40151 0.0
H818 H 0.06057 0.15056 0.38616 0.0
H819 H 0.10295 0.10141 0.28066 0.0
H820 H 0.07319 0.07197 0.29618 0.0
H821 H 0.0904 0.13745 0.20716 0.0
H822 H 0.12601 0.12878 0.41326 0.0
H823 H 0.1279 0.1226 0.53307 0.0
H824 H 0.09337 0.18714 0.56755 0.0
H825 H 0.09091 0.19359 0.44798 0.0
C826 C 0.10968 0.24088 0.13838 0.0
C827 C 0.09123 0.2539 0.1641 0.0
C828 C 0.11788 0.22172 0.17246 0.0
C829 C 0.10738 0.21525 0.23187 0.0
C830 C 0.09159 0.23038 0.26212 0.0
C831 C 0.0836 0.24966 0.22848 0.0
C832 C 0.10831 0.19104 0.25462 0.0
C833 C 0.11188 0.18671 0.32188 0.0
C834 C 0.10149 0.17265 0.21243 0.0
C835 C 0.09466 0.17605 0.14282 0.0
C836 C 0.07445 0.18831 0.12759 0.0
C837 C 0.0671 0.19003 0.06222 0.0
C838 C 0.07984 0.17957 0.01169 0.0
C839 C 0.0999 0.16726 0.02649 0.0
C840 C 0.10724 0.16537 0.09185 0.0
C841 C 0.047 0.11641 0.37698 0.0
C842 C 0.04977 0.09433 0.34902 0.0
C843 C 0.06398 0.13317 0.36873 0.0
C844 C 0.08405 0.12813 0.33258 0.0
C845 C 0.08762 0.10562 0.30885 0.0
C846 C 0.07057 0.0889 0.31703 0.0
C847 C 0.09799 0.14746 0.30717 0.0
C848 C 0.0973 0.15092 0.23903 0.0
C849 C 0.10647 0.16513 0.34903 0.0
C850 C 0.10835 0.1617 0.42134 0.0
C851 C 0.11876 0.14165 0.44631 0.0
C852 C 0.11992 0.13809 0.51425 0.0
C853 C 0.11078 0.15448 0.55789 0.0
C854 C 0.10051 0.17449 0.53368 0.0
C855 C 0.09929 0.17815 0.46577 0.0
H856 H 0.11165 0.15167 0.61047 0.0
H857 H 0.0741 0.18087 0.96115 0.0
H858 H 0.3017 0.11302 0.07867 0.0
H859 H 0.33364 0.11409 0.15732 0.0
H860 H 0.29191 0.07822 0.29907 0.0
H861 H 0.26093 0.07499 0.21977 0.0
H862 H 0.32778 0.11249 0.34949 0.0
H863 H 0.31021 0.0456 0.21126 0.0
H864 H 0.2984 0.01886 0.10822 0.0
H865 H 0.38881 0.04374 0.03347 0.0
H866 H 0.38729 0.06839 0.14926 0.0
H867 H 0.37314 0.01746 0.51668 0.0
H868 H 0.35501 0.05043 0.46367 0.0
H869 H 0.41547 0.05973 0.34296 0.0
H870 H 0.43341 0.02644 0.39344 0.0
H871 H 0.37885 0.04891 0.27379 0.0
H872 H 0.39561 0.11026 0.42211 0.0
H873 H 0.3998 0.13367 0.5234 0.0
H874 H 0.32918 0.12015 0.57433 0.0
H875 H 0.3244 0.0972 0.47228 0.0
C876 C 0.2991 0.10578 0.1271 0.0
C877 C 0.27921 0.09274 0.14129 0.0
C878 C 0.31733 0.10661 0.17207 0.0
C879 C 0.31529 0.09535 0.23249 0.0
C880 C 0.29386 0.08655 0.2518 0.0
C881 C 0.276 0.08488 0.20613 0.0
C882 C 0.33589 0.0889 0.2704 0.0
C883 C 0.3391 0.09868 0.33307 0.0
C884 C 0.35104 0.07132 0.24791 0.0
C885 C 0.34834 0.05889 0.18447 0.0
C886 C 0.32282 0.0444 0.17226 0.0
C887 C 0.31522 0.02694 0.1082 0.0
C888 C 0.33378 0.02138 0.04457 0.0
C889 C 0.37291 0.04312 0.06251 0.0
C890 C 0.37216 0.05869 0.13466 0.0
C891 C 0.38268 0.02659 0.47916 0.0
C892 C 0.40463 0.01897 0.45878 0.0
C893 C 0.37254 0.04589 0.45027 0.0
C894 C 0.38405 0.05775 0.40003 0.0
C895 C 0.40652 0.05111 0.38264 0.0
C896 C 0.41666 0.03188 0.41136 0.0
C897 C 0.37047 0.07195 0.35414 0.0
C898 C 0.36832 0.06344 0.28968 0.0
C899 C 0.35635 0.09044 0.3753 0.0
C900 C 0.35969 0.10199 0.43979 0.0
C901 C 0.38104 0.11213 0.4552 0.0
C902 C 0.38343 0.12556 0.51229 0.0
C903 C 0.36471 0.12852 0.55504 0.0
C904 C 0.34361 0.11795 0.54099 0.0
C905 C 0.34101 0.10486 0.48333 0.0
H906 H 0.36661 0.13889 0.5993 0.0
H907 H 0.32787 0.00942 1.00639 0.0
H908 H 0.38908 0.29751 0.13182 0.0
H909 H 0.3822 0.33077 0.20449 0.0
H910 H 0.42788 0.30102 0.34871 0.0
H911 H 0.43408 0.26798 0.2781 0.0
H912 H 0.40219 0.32952 0.40855 0.0
H913 H 0.45109 0.33443 0.2037 0.0
H914 H 0.45544 0.33314 0.08262 0.0
H915 H 0.39956 0.38126 0.06268 0.0
H916 H 0.39512 0.383 0.18368 0.0
H917 H 0.51136 0.37233 0.45644 0.0
H918 H 0.47511 0.35481 0.42482 0.0
H919 H 0.44718 0.42176 0.37847 0.0
H920 H 0.48451 0.43947 0.40521 0.0
H921 H 0.44208 0.38973 0.27917 0.0
H922 H 0.42807 0.38899 0.51736 0.0
H923 H 0.4461 0.38142 0.6252 0.0
H924 H 0.4555 0.31023 0.57162 0.0
H925 H 0.43816 0.31731 0.46353 0.0
C926 C 0.39666 0.29764 0.18057 0.0
C927 C 0.41272 0.28057 0.19853 0.0
C928 C 0.39284 0.31672 0.22185 0.0
C929 C 0.40533 0.31896 0.28076 0.0
C930 C 0.41819 0.29999 0.30319 0.0
C931 C 0.42176 0.28089 0.26254 0.0
C932 C 0.40988 0.34185 0.31153 0.0
C933 C 0.41041 0.3431 0.38051 0.0
C934 C 0.42033 0.35979 0.27487 0.0
C935 C 0.42263 0.35866 0.20235 0.0
C936 C 0.43974 0.3447 0.17332 0.0
C937 C 0.44225 0.34393 0.10482 0.0
C938 C 0.42771 0.35702 0.06497 0.0
C939 C 0.41075 0.37106 0.09361 0.0
C940 C 0.40826 0.37201 0.16214 0.0
C941 C 0.49758 0.38344 0.43965 0.0
C942 C 0.50104 0.40727 0.43237 0.0
C943 C 0.4766 0.37341 0.42286 0.0
C944 C 0.45813 0.38701 0.401 0.0
C945 C 0.46109 0.41099 0.39626 0.0
C946 C 0.48239 0.42107 0.41193 0.0
C947 C 0.43706 0.37545 0.37566 0.0
C948 C 0.43274 0.37707 0.30793 0.0
C949 C 0.42519 0.35861 0.41295 0.0
C950 C 0.43169 0.35375 0.48218 0.0
C951 C 0.43362 0.37165 0.52904 0.0
C952 C 0.44392 0.36746 0.59001 0.0
C953 C 0.45214 0.3454 0.60455 0.0
C954 C 0.44921 0.32729 0.55985 0.0
C955 C 0.43905 0.33138 0.49891 0.0
H956 H 0.46112 0.34222 0.64987 0.0
H957 H 0.42963 0.35634 0.01195 0.0
H958 H 0.24713 0.46118 0.28458 0.0
H959 H 0.21609 0.44971 0.35628 0.0
H960 H 0.1955 0.39714 0.21597 0.0
H961 H 0.22623 0.40983 0.14154 0.0
H962 H 0.16163 0.42146 0.23516 0.0
H963 H 0.20479 0.38384 0.39519 0.0
H964 H 0.23853 0.37513 0.46456 0.0
H965 H 0.2318 0.4409 0.56153 0.0
H966 H 0.19785 0.44989 0.49377 0.0
H967 H 0.07099 0.48013 0.39204 0.0
H968 H 0.09278 0.44369 0.38313 0.0
H969 H 0.15539 0.48063 0.43092 0.0
H970 H 0.13361 0.51641 0.44052 0.0
H971 H 0.15803 0.43684 0.47539 0.0
H972 H 0.13225 0.47569 0.26175 0.0
H973 H 0.10213 0.48535 0.18043 0.0
H974 H 0.07792 0.41534 0.18279 0.0
H975 H 0.10779 0.40537 0.26448 0.0
C976 C 0.23665 0.44651 0.27013 0.0
C977 C 0.23893 0.43655 0.20729 0.0
C978 C 0.21889 0.43968 0.31179 0.0
C979 C 0.20331 0.42227 0.29239 0.0
C980 C 0.20717 0.4106 0.2323 0.0
C981 C 0.22471 0.41785 0.18975 0.0
C982 C 0.18062 0.42076 0.32665 0.0
C983 C 0.16072 0.42373 0.2882 0.0
C984 C 0.17884 0.42312 0.39597 0.0
C985 C 0.19859 0.41744 0.4396 0.0
C986 C 0.21039 0.39638 0.4317 0.0
C987 C 0.22953 0.39137 0.4709 0.0
C988 C 0.23718 0.40736 0.5179 0.0
C989 C 0.22563 0.42836 0.52595 0.0
C990 C 0.20632 0.43335 0.48747 0.0
C991 C 0.08925 0.48003 0.4029 0.0
C992 C 0.1008 0.50081 0.41633 0.0
C993 C 0.10168 0.45934 0.39772 0.0
C994 C 0.12579 0.45943 0.4057 0.0
C995 C 0.13682 0.48 0.42488 0.0
C996 C 0.12446 0.50051 0.42981 0.0
C997 C 0.14054 0.44009 0.38248 0.0
C998 C 0.15872 0.43287 0.42312 0.0
C999 C 0.14074 0.43355 0.31521 0.0
C1000 C 0.12205 0.43986 0.2693 0.0
C1001 C 0.12038 0.46244 0.24514 0.0
C1002 C 0.10342 0.46794 0.1989 0.0
C1003 C 0.08826 0.45091 0.17607 0.0
C1004 C 0.08975 0.42846 0.20026 0.0
C1005 C 0.10664 0.42289 0.24662 0.0
H1006 H 0.07523 0.45516 0.14 0.0
H1007 H 0.25211 0.40354 0.54785 0.0
H1008 H 0.95141 0.77528 0.94618 0.0
H1009 H 0.93857 0.80507 0.87175 0.0
H1010 H 0.89916 0.83696 0.02844 0.0
H1011 H 0.91241 0.80702 0.1042 0.0
H1012 H 0.90275 0.8274 0.82081 0.0
H1013 H 0.90673 0.89344 0.0181 0.0
H1014 H 0.91832 0.89975 0.134 0.0
H1015 H 0.97535 0.85329 0.10759 0.0
H1016 H 0.96397 0.84657 0.99186 0.0
H1017 H 0.97185 0.94163 0.73371 0.0
H1018 H 0.93818 0.9242 0.78638 0.0
H1019 H 0.96627 0.8565 0.74867 0.0
H1020 H 1.00047 0.87341 0.7011 0.0
H1021 H 0.94449 0.89706 0.89905 0.0
H1022 H 0.92195 0.81892 0.71987 0.0
H1023 H 0.91347 0.81332 0.60235 0.0
H1024 H 0.89839 0.88548 0.5833 0.0
H1025 H 0.90567 0.89144 0.70167 0.0
C1026 C 0.93921 0.788 0.96437 0.0
C1027 C 0.93328 0.78903 0.03139 0.0
C1028 C 0.93184 0.80514 0.92158 0.0
C1029 C 0.91835 0.82365 0.94482 0.0
C1030 C 0.90997 0.82313 0.00973 0.0
C1031 C 0.91754 0.80602 0.05292 0.0
C1032 C 0.91744 0.84492 0.90456 0.0
C1033 C 0.91156 0.84285 0.83766 0.0
C1034 C 0.92757 0.86574 0.92745 0.0
C1035 C 0.93435 0.86932 0.99695 0.0
C1036 C 0.92168 0.88451 0.03731 0.0
C1037 C 0.92819 0.88811 0.10291 0.0
C1038 C 0.94747 0.87676 0.12834 0.0
C1039 C 0.96031 0.86185 0.0881 0.0
C1040 C 0.95384 0.85814 0.02256 0.0
C1041 C 0.97092 0.92301 0.73657 0.0
C1042 C 0.98932 0.90901 0.71417 0.0
C1043 C 0.95142 0.91313 0.76571 0.0
C1044 C 0.94963 0.88909 0.7708 0.0
C1045 C 0.96707 0.8751 0.74404 0.0
C1046 C 0.98674 0.88489 0.71659 0.0
C1047 C 0.93229 0.87822 0.81411 0.0
C1048 C 0.9345 0.88235 0.88191 0.0
C1049 C 0.91903 0.85926 0.79169 0.0
C1050 C 0.91438 0.85564 0.72022 0.0
C1051 C 0.91653 0.8336 0.6911 0.0
C1052 C 0.91196 0.83036 0.62409 0.0
C1053 C 0.90553 0.84905 0.58519 0.0
C1054 C 0.90344 0.87101 0.61341 0.0
C1055 C 0.90772 0.87432 0.6806 0.0
H1056 H 0.90213 0.8465 0.53322 0.0
H1057 H 0.95253 0.87959 0.17908 0.0
H1058 H 0.73299 0.91176 0.16974 0.0
H1059 H 0.70314 0.90031 0.09079 0.0
H1060 H 0.73818 0.93841 0.93894 0.0
H1061 H 0.76736 0.95025 0.01673 0.0
H1062 H 0.67751 0.9344 0.04808 0.0
H1063 H 0.72339 0.92532 0.79097 0.0
H1064 H 0.75508 0.90271 0.74174 0.0
H1065 H 0.74719 0.85116 0.89067 0.0
H1066 H 0.71516 0.87325 0.94037 0.0
H1067 H 0.66574 1.00749 0.77556 0.0
H1068 H 0.68333 0.97674 0.8399 0.0
H1069 H 0.61956 0.93845 0.83449 0.0
H1070 H 0.60176 0.96932 0.76946 0.0
H1071 H 0.68176 0.92223 0.8064 0.0
H1072 H 0.61443 0.93597 0.95565 0.0
H1073 H 0.58592 0.96156 0.00995 0.0
H1074 H 0.64043 1.00522 0.08056 0.0
H1075 H 0.66925 0.98016 0.02596 0.0
C1076 C 0.73468 0.91708 0.11896 0.0
C1077 C 0.7523 0.93241 0.10009 0.0
C1078 C 0.71772 0.91033 0.07378 0.0
C1079 C 0.71833 0.91853 0.00894 0.0
C1080 C 0.73745 0.93146 0.98826 0.0
C1081 C 0.75425 0.93833 0.03328 0.0
C1082 C 0.69709 0.91917 0.96836 0.0
C1083 C 0.67802 0.93081 0.99554 0.0
C1084 C 0.69764 0.91449 0.89983 0.0
C1085 C 0.71674 0.90096 0.8694 0.0
C1086 C 0.72819 0.90904 0.81292 0.0
C1087 C 0.74629 0.89634 0.78501 0.0
C1088 C 0.75313 0.8755 0.81303 0.0
C1089 C 0.74188 0.86732 0.86905 0.0
C1090 C 0.72376 0.87994 0.89717 0.0
C1091 C 0.65556 0.99238 0.78714 0.0
C1092 C 0.63235 0.99086 0.76822 0.0
C1093 C 0.66557 0.9749 0.82403 0.0
C1094 C 0.65261 0.95557 0.84241 0.0
C1095 C 0.62968 0.95344 0.82149 0.0
C1096 C 0.61957 0.97106 0.78468 0.0
C1097 C 0.66342 0.93857 0.88617 0.0
C1098 C 0.68061 0.92424 0.85947 0.0
C1099 C 0.66133 0.94089 0.95516 0.0
C1100 C 0.64395 0.95637 0.98597 0.0
C1101 C 0.6203 0.95124 0.98182 0.0
C1102 C 0.60411 0.9656 0.01276 0.0
C1103 C 0.61135 0.98504 0.04826 0.0
C1104 C 0.63483 0.9902 0.05284 0.0
C1105 C 0.6511 0.97595 0.02189 0.0
H1106 H 0.59878 0.99603 0.07244 0.0
H1107 H 0.76716 0.86571 0.79137 0.0
H1108 H 0.55805 0.74933 0.02628 0.0
H1109 H 0.55535 0.71315 0.96468 0.0
H1110 H 0.60394 0.68177 0.09713 0.0
H1111 H 0.60752 0.7182 0.15761 0.0
H1112 H 0.58477 0.6706 0.91375 0.0
H1113 H 0.56644 0.64197 0.17508 0.0
H1114 H 0.55709 0.65748 0.285 0.0
H1115 H 0.52328 0.71561 0.19787 0.0
H1116 H 0.53161 0.69989 0.08704 0.0
H1117 H 0.54696 0.54946 0.97701 0.0
H1118 H 0.56638 0.58647 0.99846 0.0
H1119 H 0.50639 0.62305 0.93122 0.0
H1120 H 0.48643 0.58643 0.9119 0.0
H1121 H 0.53466 0.63033 0.07489 0.0
H1122 H 0.5338 0.63018 0.83176 0.0
H1123 H 0.54263 0.61047 0.7266 0.0
H1124 H 0.61437 0.6079 0.77848 0.0
H1125 H 0.60589 0.62749 0.88425 0.0
C1126 C 0.56923 0.73521 0.04008 0.0
C1127 C 0.58243 0.73637 0.09813 0.0
C1128 C 0.5677 0.7145 1.00458 0.0
C1129 C 0.57909 0.69478 0.02734 0.0
C1130 C 0.59493 0.69684 0.07918 0.0
C1131 C 0.59673 0.7176 0.1141 0.0
C1132 C 0.56959 0.67187 0.01075 0.0
C1133 C 0.57385 0.66175 0.94883 0.0
C1134 C 0.5554 0.66034 0.05675 0.0
C1135 C 0.55018 0.67005 0.12286 0.0
C1136 C 0.55707 0.65809 0.17938 0.0
C1137 C 0.55185 0.66687 0.24188 0.0
C1138 C 0.53978 0.68763 0.24858 0.0
C1139 C 0.53274 0.69959 0.19263 0.0
C1140 C 0.5377 0.69074 0.1299 0.0
C1141 C 0.5379 0.5654 0.96702 0.0
C1142 C 0.51525 0.56512 0.94242 0.0
C1143 C 0.54918 0.58636 0.97798 0.0
C1144 C 0.53812 0.60716 0.9635 0.0
C1145 C 0.51535 0.607 0.94064 0.0
C1146 C 0.50403 0.58613 0.92978 0.0
C1147 C 0.54952 0.62922 0.97788 0.0
C1148 C 0.54567 0.63911 0.03981 0.0
C1149 C 0.56391 0.64038 0.9318 0.0
C1150 C 0.56913 0.62976 0.86671 0.0
C1151 C 0.55141 0.62515 0.82116 0.0
C1152 C 0.55637 0.61412 0.76124 0.0
C1153 C 0.57903 0.60779 0.74604 0.0
C1154 C 0.59681 0.61272 0.79043 0.0
C1155 C 0.59193 0.6238 0.85035 0.0
H1156 H 0.58283 0.59916 0.69977 0.0
H1157 H 0.53571 0.69433 0.29705 0.0
H1158 H 0.81166 0.55981 0.08294 0.0
H1159 H 0.83745 0.57319 0.99846 0.0
H1160 H 0.78238 0.61206 0.90977 0.0
H1161 H 0.75624 0.60002 0.99847 0.0
H1162 H 0.80518 0.57985 0.82399 0.0
H1163 H 0.82639 0.64502 0.93522 0.0
H1164 H 0.83404 0.67203 0.02698 0.0
H1165 H 0.89189 0.63102 0.08694 0.0
H1166 H 0.88432 0.60351 0.99674 0.0
H1167 H 0.93878 0.55086 0.79047 0.0
H1168 H 0.90978 0.58181 0.78145 0.0
H1169 H 0.8573 0.53435 0.84721 0.0
H1170 H 0.88575 0.50389 0.85467 0.0
H1171 H 0.88596 0.60046 0.87899 0.0
H1172 H 0.80884 0.54046 0.7924 0.0
H1173 H 0.80231 0.51282 0.70171 0.0
H1174 H 0.85569 0.54502 0.58825 0.0
H1175 H 0.86238 0.57316 0.67772 0.0
C1176 C 0.80499 0.57201 0.04766 0.0
C1177 C 0.78174 0.57895 0.04856 0.0
C1178 C 0.81989 0.57964 0.99888 0.0
C1179 C 0.81197 0.59401 0.94855 0.0
C1180 C 0.78889 0.60126 0.94886 0.0
C1181 C 0.77394 0.59406 0.99911 0.0
C1182 C 0.82748 0.59774 0.89176 0.0
C1183 C 0.82281 0.58491 0.83449 0.0
C1184 C 0.85011 0.60592 0.90303 0.0
C1185 C 0.85494 0.62227 0.95825 0.0
C1186 C 0.84073 0.64169 0.96802 0.0
C1187 C 0.84502 0.65711 0.01991 0.0
C1188 C 0.8635 0.6533 0.0626 0.0
C1189 C 0.87766 0.63403 0.0536 0.0
C1190 C 0.87342 0.61855 1.00184 0.0
C1191 C 0.92088 0.54707 0.80103 0.0
C1192 C 0.91441 0.52513 0.82363 0.0
C1193 C 0.90438 0.56469 0.79587 0.0
C1194 C 0.88122 0.56033 0.81208 0.0
C1195 C 0.87484 0.53808 0.83226 0.0
C1196 C 0.89119 0.52071 0.83765 0.0
C1197 C 0.86391 0.57907 0.81894 0.0
C1198 C 0.8683 0.59642 0.86588 0.0
C1199 C 0.84097 0.57538 0.79734 0.0
C1200 C 0.83599 0.55917 0.74186 0.0
C1201 C 0.81892 0.54202 0.74772 0.0
C1202 C 0.81528 0.52612 0.69662 0.0
C1203 C 0.82859 0.52715 0.63936 0.0
C1204 C 0.84542 0.54421 0.63269 0.0
C1205 C 0.84914 0.56014 0.68362 0.0
H1206 H 0.82593 0.51461 0.60046 0.0
H1207 H 0.8668 0.66526 0.10274 0.0
H1208 H 0.07072 0.24903 0.91798 0.0
H1209 H 0.06222 0.21447 0.85287 0.0
H1210 H 0.99785 0.20666 0.95699 0.0
H1211 H 1.0068 0.24114 0.02365 0.0
H1212 H 0.01908 0.1674 0.95734 0.0
H1213 H 1.00272 0.22015 0.78362 0.0
H1214 H 0.00979 0.25252 0.70823 0.0
H1215 H 0.06958 0.2179 0.63079 0.0
H1216 H 0.06305 0.18542 0.7063 0.0
H1217 H 0.97693 0.07422 0.75502 0.0
H1218 H 0.98386 0.11038 0.81379 0.0
H1219 H 0.05083 0.11559 0.72283 0.0
H1220 H 0.04328 0.0796 0.66069 0.0
H1221 H 0.02837 0.15603 0.71645 0.0
H1222 H 0.05182 0.11786 0.93715 0.0
H1223 H 0.04646 0.08713 0.01948 0.0
H1224 H 0.97296 0.09538 1.00706 0.0
H1225 H 0.97804 0.12634 0.92539 0.0
C1226 C 0.05426 0.24054 0.92505 0.0
C1227 C 0.03919 0.24831 0.97515 0.0
C1228 C 0.04942 0.22056 0.88782 0.0
C1229 C 0.02925 0.20767 0.89904 0.0
C1230 C 0.01355 0.21611 0.94678 0.0
C1231 C 0.01844 0.23616 0.98425 0.0
C1232 C 0.02561 0.18451 0.86546 0.0
C1233 C 0.02067 0.16517 0.9044 0.0
C1234 C 0.02847 0.18093 0.79653 0.0
C1235 C 0.03251 0.20045 0.75114 0.0
C1236 C 0.01749 0.21951 0.75091 0.0
C1237 C 0.02138 0.23786 0.70805 0.0
C1238 C 0.04016 0.23728 0.66486 0.0
C1239 C 0.05506 0.21832 0.66431 0.0
C1240 C 0.05125 0.19993 0.70709 0.0
C1241 C 0.9934 0.08276 0.74855 0.0
C1242 C 0.00979 0.07354 0.70434 0.0
C1243 C 0.9975 0.10345 0.78318 0.0
C1244 C 0.01825 0.11572 0.77536 0.0
C1245 C 0.03478 0.10649 0.7311 0.0
C1246 C 0.03058 0.08573 0.69588 0.0
C1247 C 0.02154 0.13906 0.80829 0.0
C1248 C 0.0266 0.1584 0.76927 0.0
C1249 C 0.01863 0.14278 0.87707 0.0
C1250 C 0.01528 0.12356 0.92328 0.0
C1251 C 0.03454 0.11277 0.95128 0.0
C1252 C 0.03157 0.09553 0.9983 0.0
C1253 C 0.00938 0.0891 0.01791 0.0
C1254 C 0.99013 0.10016 0.99123 0.0
C1255 C 0.99306 0.11755 0.94465 0.0
H1256 H 1.0071 0.07571 0.05416 0.0
H1257 H 0.04314 0.2515 0.63171 0.0
H1258 H 0.28196 0.01697 0.95675 0.0
H1259 H 0.31736 0.00874 0.89384 0.0
H1260 H 0.31857 0.07892 0.82587 0.0
H1261 H 0.28286 0.08681 0.88605 0.0
H1262 H 0.34155 0.05525 0.74123 0.0
H1263 H 0.33965 0.06944 0.95647 0.0
H1264 H 0.32939 0.07284 0.08583 0.0
H1265 H 0.37576 0.98746 0.09771 0.0
H1266 H 0.37824 0.99559 0.96738 0.0
H1267 H 0.46353 0.04971 0.68936 0.0
H1268 H 0.42798 0.06249 0.74442 0.0
H1269 H 0.4141 0.99237 0.80192 0.0
H1270 H 0.45119 0.98038 0.75593 0.0
H1271 H 0.39888 0.02207 0.89504 0.0
H1272 H 0.39595 0.02545 0.64326 0.0
H1273 H 0.41818 0.04625 0.55849 0.0
H1274 H 0.39837 0.11101 0.64423 0.0
H1275 H 0.37724 0.09088 0.73166 0.0
C1276 C 0.28906 0.03025 0.92547 0.0
C1277 C 0.27951 0.05256 0.92657 0.0
C1278 C 0.30962 0.0257 0.89049 0.0
C1279 C 0.32141 0.04346 0.85737 0.0
C1280 C 0.31022 0.06488 0.85145 0.0
C1281 C 0.28962 0.06938 0.88583 0.0
C1282 C 0.34644 0.04078 0.8378 0.0
C1283 C 0.35387 0.0476 0.77478 0.0
C1284 C 0.36342 0.03292 0.88303 0.0
C1285 C 0.35881 0.03199 0.955 0.0
C1286 C 0.34439 0.05517 0.98747 0.0
C1287 C 0.3385 0.05744 0.06946 0.0
C1288 C 0.35479 0.02182 0.13263 0.0
C1289 C 0.3681 1.00309 0.07898 0.0
C1290 C 0.36953 0.0086 0.99675 0.0
C1291 C 0.45332 0.03724 0.71603 0.0
C1292 C 0.46055 0.01413 0.71949 0.0
C1293 C 0.43263 0.04443 0.74637 0.0
C1294 C 0.41753 0.02827 0.77529 0.0
C1295 C 0.42505 1.00528 0.7796 0.0
C1296 C 0.44627 0.99837 0.75263 0.0
C1297 C 0.39333 0.03436 0.79692 0.0
C1298 C 0.38614 0.02863 0.86092 0.0
C1299 C 0.37711 0.04519 0.75472 0.0
C1300 C 0.38476 0.05665 0.69357 0.0
C1301 C 0.39561 0.04414 0.64259 0.0
C1302 C 0.40816 0.05581 0.59428 0.0
C1303 C 0.40885 0.07986 0.59416 0.0
C1304 C 0.39723 0.09239 0.64297 0.0
C1305 C 0.3851 0.08089 0.69223 0.0
H1306 H 0.41879 0.08877 0.55704 0.0
H1307 H 0.35465 0.0172 0.18479 0.0
H1308 H 0.42505 0.29375 0.96597 0.0
H1309 H 0.43736 0.32579 0.89923 0.0
H1310 H 0.50852 0.31028 0.94275 0.0
H1311 H 0.4958 0.2791 0.01641 0.0
H1312 H 0.50368 0.35489 0.94678 0.0
H1313 H 0.48178 0.30035 0.77678 0.0
H1314 H 0.45673 0.27177 0.72127 0.0
H1315 H 0.40185 0.32148 0.71356 0.0
H1316 H 0.42655 0.3503 0.76935 0.0
H1317 H 0.53809 0.43852 0.70774 0.0
H1318 H 0.53205 0.40281 0.76884 0.0
H1319 H 0.45851 0.4097 0.74262 0.0
H1320 H 0.46462 0.44427 0.67772 0.0
H1321 H 0.46761 0.36837 0.72951 0.0
H1322 H 0.4903 0.42313 0.89363 0.0
H1323 H 0.51588 0.4526 0.94259 0.0
H1324 H 0.57013 0.40251 0.95878 0.0
H1325 H 0.54501 0.37282 0.90867 0.0
C1326 C 0.4434 0.29682 0.96072 0.0
C1327 C 0.4594 0.2837 0.99673 0.0
C1328 C 0.4505 0.31519 0.9217 0.0
C1329 C 0.47401 0.32043 0.91393 0.0
C1330 C 0.49026 0.30668 0.94736 0.0
C1331 C 0.48303 0.28853 0.98854 0.0
C1332 C 0.48105 0.34071 0.87258 0.0
C1333 C 0.49627 0.35746 0.89836 0.0
C1334 C 0.47098 0.34474 0.81008 0.0
C1335 C 0.45597 0.32741 0.77737 0.0
C1336 C 0.46433 0.30512 0.76353 0.0
C1337 C 0.45021 0.2889 0.73196 0.0
C1338 C 0.42771 0.2948 0.71398 0.0
C1339 C 0.41926 0.31692 0.72762 0.0
C1340 C 0.43331 0.33321 0.75915 0.0
C1341 C 0.52063 0.43232 0.71444 0.0
C1342 C 0.50179 0.44469 0.68874 0.0
C1343 C 0.51716 0.41197 0.75035 0.0
C1344 C 0.49473 0.40367 0.76261 0.0
C1345 C 0.47601 0.41567 0.73504 0.0
C1346 C 0.4795 0.43573 0.69827 0.0
C1347 C 0.49056 0.38224 0.80234 0.0
C1348 C 0.47559 0.36541 0.77675 0.0
C1349 C 0.50099 0.37819 0.86448 0.0
C1350 C 0.51584 0.39579 0.89681 0.0
C1351 C 0.50771 0.41841 0.9074 0.0
C1352 C 0.52213 0.43517 0.93531 0.0
C1353 C 0.54463 0.42945 0.95365 0.0
C1354 C 0.55271 0.40692 0.94445 0.0
C1355 C 0.53838 0.39012 0.91631 0.0
H1356 H 0.5558 0.44246 0.97506 0.0
H1357 H 0.41683 0.28224 0.68941 0.0
H1358 H 0.23489 0.4446 0.95973 0.0
H1359 H 0.20505 0.45506 0.88072 0.0
H1360 H 0.20986 0.52615 0.94358 0.0
H1361 H 0.23968 0.51547 0.02427 0.0
H1362 H 0.16534 0.51251 0.93994 0.0
H1363 H 0.22823 0.50771 0.78349 0.0
H1364 H 0.26195 0.48885 0.73179 0.0
H1365 H 0.22018 0.43031 0.67952 0.0
H1366 H 0.18622 0.4489 0.73044 0.0
H1367 H 0.08175 0.54736 0.70697 0.0
H1368 H 0.11869 0.54379 0.76401 0.0
H1369 H 0.1226 0.47215 0.70577 0.0
H1370 H 0.08621 0.47599 0.64599 0.0
H1371 H 0.16423 0.48904 0.70435 0.0
H1372 H 0.10275 0.49046 0.86124 0.0
H1373 H 0.06778 0.50652 0.91349 0.0
H1374 H 0.10532 0.56735 0.97043 0.0
H1375 H 0.14046 0.55182 0.91738 0.0
C1376 C 0.23012 0.4626 0.95536 0.0
C1377 C 0.23998 0.47924 0.99776 0.0
C1378 C 0.21294 0.4686 0.91005 0.0
C1379 C 0.2051 0.4915 0.90521 0.0
C1380 C 0.21554 0.50837 0.94586 0.0
C1381 C 0.23286 0.50233 0.9914 0.0
C1382 C 0.18511 0.49727 0.86085 0.0
C1383 C 0.16536 0.50783 0.88808 0.0
C1384 C 0.1845 0.4905 0.79351 0.0
C1385 C 0.20473 0.47966 0.76096 0.0
C1386 C 0.22626 0.49083 0.76089 0.0
C1387 C 0.2454 0.4802 0.73161 0.0
C1388 C 0.24321 0.45841 0.7023 0.0
C1389 C 0.22185 0.44724 0.70194 0.0
C1390 C 0.20262 0.45786 0.7307 0.0
C1391 C 0.09063 0.53096 0.7051 0.0
C1392 C 0.08063 0.51186 0.67275 0.0
C1393 C 0.11176 0.52884 0.73852 0.0
C1394 C 0.12337 0.5075 0.74116 0.0
C1395 C 0.11408 0.48879 0.70542 0.0
C1396 C 0.09308 0.49097 0.67149 0.0
C1397 C 0.1445 0.50434 0.78336 0.0
C1398 C 0.16435 0.4941 0.75592 0.0
C1399 C 0.14504 0.51103 0.85083 0.0
C1400 C 0.12418 0.52008 0.88478 0.0
C1401 C 0.10353 0.5073 0.8847 0.0
C1402 C 0.08367 0.51632 0.91439 0.0
C1403 C 0.08431 0.53797 0.94511 0.0
C1404 C 0.10485 0.5506 0.9465 0.0
C1405 C 0.12475 0.54169 0.91664 0.0
H1406 H 0.0689 0.54496 0.96792 0.0
H1407 H 0.25806 0.45017 0.67984 0.0
H1408 H 0.98364 0.77362 0.30366 0.0
H1409 H 0.99555 0.8051 0.37843 0.0
H1410 H 1.00324 0.85 0.21093 0.0
H1411 H 0.99493 0.81803 0.13785 0.0
H1412 H 0.02923 0.86593 0.28152 0.0
H1413 H 0.95115 0.84497 0.33786 0.0
H1414 H 0.92042 0.8185 0.37427 0.0
H1415 H 0.95631 0.80752 0.55631 0.0
H1416 H 0.98724 0.83393 0.5209 0.0
H1417 H 0.98444 0.95525 0.55997 0.0
H1418 H 0.97786 0.91944 0.49669 0.0
H1419 H 0.04986 0.91882 0.44217 0.0
H1420 H 0.05488 0.95623 0.49253 0.0
H1421 H 0.98471 0.87984 0.48638 0.0
H1422 H 0.06726 0.88934 0.32642 0.0
H1423 H 0.08954 0.92019 0.27231 0.0
H1424 H 0.02848 0.96198 0.2608 0.0
H1425 H 1.00585 0.93101 0.31365 0.0
C1426 C 0.98887 0.78998 0.2831 0.0
C1427 C 0.98807 0.7933 0.21454 0.0
C1428 C 0.99504 0.80837 0.32609 0.0
C1429 C 0.99951 0.8308 0.30179 0.0
C1430 C 1.00001 0.83336 0.23284 0.0
C1431 C 0.99503 0.8149 0.19038 0.0
C1432 C 1.00328 0.85186 0.34597 0.0
C1433 C 0.01915 0.86881 0.32583 0.0
C1434 C 0.99037 0.85655 0.40433 0.0
C1435 C 0.97161 0.84113 0.4264 0.0
C1436 C 0.95247 0.83685 0.38559 0.0
C1437 C 0.93503 0.82188 0.40604 0.0
C1438 C 0.93648 0.81122 0.46737 0.0
C1439 C 0.95526 0.81571 0.50869 0.0
C1440 C 0.97272 0.83072 0.48856 0.0
C1441 C 0.99839 0.94809 0.53081 0.0
C1442 C 0.01966 0.95972 0.52717 0.0
C1443 C 0.99487 0.92711 0.4958 0.0
C1444 C 0.01299 0.91646 0.45967 0.0
C1445 C 0.0348 0.92709 0.46302 0.0
C1446 C 0.03783 0.94858 0.49366 0.0
C1447 C 0.00957 0.8944 0.41931 0.0
C1448 C 0.99427 0.87712 0.44106 0.0
C1449 C 0.02153 0.89012 0.35903 0.0
C1450 C 0.03501 0.90824 0.32528 0.0
C1451 C 0.05862 0.90509 0.31208 0.0
C1452 C 0.0713 0.92256 0.28167 0.0
C1453 C 0.06048 0.94311 0.26362 0.0
C1454 C 0.0369 0.94614 0.27531 0.0
C1455 C 0.02416 0.9287 0.3056 0.0
H1456 H 0.07033 0.95664 0.2403 0.0
H1457 H 0.923 0.79957 0.48298 0.0
H1458 H 0.74594 0.01529 0.25963 0.0
H1459 H 0.71239 0.02626 0.32705 0.0
H1460 H 0.7131 0.95924 0.4176 0.0
H1461 H 0.74665 0.94849 0.35095 0.0
H1462 H 0.67201 1.00654 0.31412 0.0
H1463 H 0.68126 0.96025 0.56533 0.0
H1464 H 0.71129 0.95093 0.64683 0.0
H1465 H 0.75271 1.00722 0.57805 0.0
H1466 H 0.72276 0.01719 0.49702 0.0
H1467 H 0.57864 0.98417 0.59581 0.0
H1468 H 0.61571 0.97611 0.54082 0.0
H1469 H 0.61204 0.04206 0.44499 0.0
H1470 H 0.57463 0.04924 0.49557 0.0
H1471 H 0.65517 0.99611 0.55125 0.0
H1472 H 0.63067 0.04861 0.34248 0.0
H1473 H 0.60547 0.05487 0.24649 0.0
H1474 H 0.59972 0.98164 0.21714 0.0
H1475 H 0.62414 0.97505 0.3149 0.0
C1476 C 0.73961 1.00334 0.29616 0.0
C1477 C 0.74924 0.98115 0.30055 0.0
C1478 C 0.72017 0.00948 0.33422 0.0
C1479 C 0.70996 0.99364 0.37791 0.0
C1480 C 0.72062 0.97203 0.38546 0.0
C1481 C 0.73995 0.96588 0.34734 0.0
C1482 C 0.68669 0.99847 0.40834 0.0
C1483 C 0.66854 1.00467 0.36636 0.0
C1484 C 0.6816 0.99517 0.47607 0.0
C1485 C 0.69984 0.98928 0.5244 0.0
C1486 C 0.69675 0.97069 0.56763 0.0
C1487 C 0.71376 0.96529 0.61381 0.0
C1488 C 0.73394 0.97841 0.6174 0.0
C1489 C 0.73712 0.997 0.57497 0.0
C1490 C 0.72014 1.00251 0.52881 0.0
C1491 C 0.58538 0.9965 0.56092 0.0
C1492 C 0.57312 0.01692 0.54796 0.0
C1493 C 0.60674 0.99201 0.52974 0.0
C1494 C 0.61663 0.008 0.48573 0.0
C1495 C 0.60455 0.02865 0.4747 0.0
C1496 C 0.58317 0.03296 0.50491 0.0
C1497 C 0.64044 1.00427 0.45692 0.0
C1498 C 0.6587 0.99813 0.49917 0.0
C1499 C 0.64573 1.00738 0.38915 0.0
C1500 C 0.62804 0.01136 0.33821 0.0
C1501 C 0.62319 0.03387 0.31726 0.0
C1502 C 0.60921 0.03747 0.26223 0.0
C1503 C 0.60063 0.01866 0.22641 0.0
C1504 C 0.60607 0.9962 0.2455 0.0
C1505 C 0.61964 0.99253 0.30141 0.0
H1506 H 0.59001 0.02148 0.1834 0.0
H1507 H 0.74708 0.97421 0.65317 0.0
H1508 H 0.52282 0.75484 0.3187 0.0
H1509 H 0.51555 0.72556 0.40324 0.0
H1510 H 0.58879 0.71769 0.43136 0.0
H1511 H 0.596 0.74708 0.34821 0.0
H1512 H 0.56615 0.67833 0.38371 0.0
H1513 H 0.55778 0.73372 0.55806 0.0
H1514 H 0.54144 0.768 0.61367 0.0
H1515 H 0.47422 0.73692 0.6108 0.0
H1516 H 0.49009 0.70257 0.55425 0.0
H1517 H 0.56374 0.57938 0.57907 0.0
H1518 H 0.57092 0.61805 0.53733 0.0
H1519 H 0.49914 0.63515 0.56584 0.0
H1520 H 0.49209 0.59655 0.60905 0.0
H1521 H 0.52139 0.67162 0.5906 0.0
H1522 H 0.52291 0.62202 0.40537 0.0
H1523 H 0.53209 0.59205 0.32248 0.0
H1524 H 0.60306 0.61321 0.32256 0.0
H1525 H 0.59434 0.64323 0.4059 0.0
C1526 C 0.53727 0.74786 0.34581 0.0
C1527 C 0.55998 0.7535 0.32741 0.0
C1528 C 0.53313 0.73095 0.39385 0.0
C1529 C 0.55163 0.71925 0.42363 0.0
C1530 C 0.57422 0.72643 0.40938 0.0
C1531 C 0.57833 0.74342 0.36217 0.0
C1532 C 0.54787 0.69699 0.45897 0.0
C1533 C 0.55661 0.67686 0.42944 0.0
C1534 C 0.53468 0.695 0.51734 0.0
C1535 C 0.5251 0.71565 0.55129 0.0
C1536 C 0.53947 0.73428 0.56866 0.0
C1537 C 0.5303 0.75371 0.60051 0.0
C1538 C 0.50679 0.75467 0.6156 0.0
C1539 C 0.49242 0.73617 0.59901 0.0
C1540 C 0.5015 0.7167 0.56712 0.0
C1541 C 0.54944 0.59127 0.57613 0.0
C1542 C 0.52717 0.58436 0.59519 0.0
C1543 C 0.55355 0.61352 0.5521 0.0
C1544 C 0.53545 0.62956 0.54591 0.0
C1545 C 0.51346 0.6232 0.56903 0.0
C1546 C 0.50941 0.60097 0.59373 0.0
C1547 C 0.53945 0.65266 0.51445 0.0
C1548 C 0.53088 0.67294 0.54472 0.0
C1549 C 0.55195 0.65483 0.45467 0.0
C1550 C 0.55801 0.6347 0.41246 0.0
C1551 C 0.54057 0.61997 0.3888 0.0
C1552 C 0.54564 0.60315 0.34116 0.0
C1553 C 0.56809 0.60091 0.31674 0.0
C1554 C 0.58565 0.61507 0.3412 0.0
C1555 C 0.58067 0.63194 0.38878 0.0
H1556 H 0.57193 0.58803 0.2794 0.0
H1557 H 0.49973 0.76972 0.64028 0.0
H1558 H 0.77412 0.50816 0.24466 0.0
H1559 H 0.80561 0.49937 0.3218 0.0
H1560 H 0.80826 0.57096 0.38036 0.0
H1561 H 0.77678 0.57962 0.30427 0.0
H1562 H 0.85006 0.5544 0.33193 0.0
H1563 H 0.79247 0.53091 0.48856 0.0
H1564 H 0.75948 0.50827 0.52914 0.0
H1565 H 0.79768 0.44555 0.49919 0.0
H1566 H 0.83083 0.46781 0.45755 0.0
H1567 H 0.93549 0.55574 0.58195 0.0
H1568 H 0.89863 0.5584 0.5238 0.0
H1569 H 0.90146 0.48562 0.47972 0.0
H1570 H 0.93892 0.48306 0.53514 0.0
H1571 H 0.85715 0.49974 0.51723 0.0
H1572 H 0.91331 0.51963 0.362 0.0
H1573 H 0.9455 0.53822 0.30366 0.0
H1574 H 0.91055 0.60347 0.3152 0.0
H1575 H 0.87834 0.58537 0.3751 0.0
C1576 C 0.78061 0.52175 0.27656 0.0
C1577 C 0.7726 0.54452 0.26913 0.0
C1578 C 0.79886 0.51678 0.32014 0.0
C1579 C 0.80959 0.53453 0.3568 0.0
C1580 C 0.80044 0.55694 0.35273 0.0
C1581 C 0.78216 0.56184 0.30982 0.0
C1582 C 0.83178 0.53055 0.39333 0.0
C1583 C 0.85146 0.54283 0.37347 0.0
C1584 C 0.83406 0.51444 0.44504 0.0
C1585 C 0.81402 0.50101 0.469 0.0
C1586 C 0.79373 0.51227 0.48971 0.0
C1587 C 0.77503 0.49951 0.5132 0.0
C1588 C 0.77645 0.47548 0.51649 0.0
C1589 C 0.79659 0.46417 0.49648 0.0
C1590 C 0.81535 0.47684 0.47299 0.0
C1591 C 0.92846 0.5403 0.55932 0.0
C1592 C 0.94075 0.51932 0.56181 0.0
C1593 C 0.90724 0.54183 0.52623 0.0
C1594 C 0.89729 0.52231 0.49603 0.0
C1595 C 0.90875 0.50102 0.50199 0.0
C1596 C 0.93025 0.49957 0.53405 0.0
C1597 C 0.87523 0.52437 0.4575 0.0
C1598 C 0.8557 0.51155 0.47631 0.0
C1599 C 0.87312 0.53968 0.40371 0.0
C1600 C 0.89349 0.55116 0.37389 0.0
C1601 C 0.91267 0.53803 0.35343 0.0
C1602 C 0.93085 0.54845 0.31953 0.0
C1603 C 0.92999 0.57198 0.30526 0.0
C1604 C 0.91113 0.58522 0.32591 0.0
C1605 C 0.89295 0.5749 0.3601 0.0
H1606 H 0.94403 0.57999 0.27873 0.0
H1607 H 0.76196 0.46564 0.53475 0.0
loop_
_geom_bond_atom_site_label_1
_geom_bond_atom_site_label_2
_geom_bond_distance
_geom_bond_site_symmetry_2
_ccdc_geom_bond_type
H0 C3 0.931 . S
H1 C6 0.928 . S
H2 C8 0.930 . S
C3 H0 0.931 . S
C3 C4 1.413 . S
C3 C5 1.360 . S
C4 C3 1.413 . S
C4 C8 1.429 . S
C5 C3 1.360 . S
C5 C6 1.372 . S
C6 H1 0.928 . S
C6 C5 1.372 . S
C6 C7 1.404 . S
C7 C6 1.404 . S
C7 C8 1.391 . S
C8 H2 0.930 . S
C8 C4 1.429 . S
C8 C7 1.391 . S
H9 C12 0.931 . S
H10 C15 0.928 . S
H11 C17 0.930 . S
C12 H9 0.931 . S
C12 C13 1.413 . S
C12 C14 1.360 . S
C13 C12 1.413 . S
C13 C17 1.429 . S
C14 C12 1.360 . S
C14 C15 1.372 . S
C15 H10 0.928 . S
C15 C14 1.372 . S
C15 C16 1.404 . S
C16 C15 1.404 . S
C16 C17 1.391 . S
C17 H11 0.930 . S
C17 C13 1.429 . S
C17 C16 1.391 . S
H18 C21 0.931 . S
H19 C24 0.928 . S
H20 C26 0.930 . S
C21 H18 0.931 . S
C21 C22 1.413 . S
C21 C23 1.360 . S
C22 C21 1.413 . S
C22 C26 1.429 . S
C23 C21 1.360 . S
C23 C24 1.372 . S
C24 H19 0.928 . S
C24 C23 1.372 . S
C24 C25 1.404 . S
C25 C24 1.404 . S
C25 C26 1.391 . S
C26 H20 0.930 . S
C26 C22 1.429 . S
C26 C25 1.391 . S
H27 C30 0.931 . S
H28 C33 0.928 . S
H29 C35 0.930 . S
C30 H27 0.931 . S
C30 C31 1.413 . S
C30 C32 1.360 . S
C31 C30 1.413 . S
C31 C35 1.429 . S
C32 C30 1.360 . S
C32 C33 1.372 . S
C33 H28 0.928 . S
C33 C32 1.372 . S
C33 C34 1.404 . S
C34 C33 1.404 . S
C34 C35 1.391 . S
C35 H29 0.930 . S
C35 C31 1.429 . S
C35 C34 1.391 . S
H36 C39 0.933 . S
H37 C42 0.928 . S
H38 C44 0.930 . S
C39 H36 0.933 . S
C39 C40 1.413 1_554 S
C39 C41 1.360 . S
C40 C39 1.413 1_556 S
C40 C44 1.429 . S
C41 C39 1.360 . S
C41 C42 1.372 . S
C42 H37 0.928 . S
C42 C41 1.372 . S
C42 C43 1.404 . S
C43 C42 1.404 . S
C43 C44 1.391 1_554 S
C44 H38 0.930 . S
C44 C40 1.429 . S
C44 C43 1.391 1_556 S
H45 C48 0.931 1_556 S
H46 C51 0.928 . S
H47 C53 0.930 . S
C48 H45 0.931 1_554 S
C48 C49 1.413 1_554 S
C48 C50 1.360 . S
C49 C48 1.413 1_556 S
C49 C53 1.429 . S
C50 C48 1.360 . S
C50 C51 1.372 . S
C51 H46 0.928 . S
C51 C50 1.372 . S
C51 C52 1.404 . S
C52 C51 1.404 . S
C52 C53 1.391 1_554 S
C53 H47 0.930 . S
C53 C49 1.429 . S
C53 C52 1.391 1_556 S
H54 C57 0.931 1_556 S
H55 C60 0.928 . S
H56 C62 0.930 . S
C57 H54 0.931 1_554 S
C57 C58 1.413 1_554 S
C57 C59 1.360 . S
C58 C57 1.413 1_556 S
C58 C62 1.429 . S
C59 C57 1.360 . S
C59 C60 1.372 . S
C60 H55 0.928 . S
C60 C59 1.372 . S
C60 C61 1.404 . S
C61 C60 1.404 . S
C61 C62 1.391 1_554 S
C62 H56 0.930 . S
C62 C58 1.429 . S
C62 C61 1.391 1_556 S
H63 C66 0.931 1_556 S
H64 C69 0.928 . S
H65 C71 0.930 . S
C66 H63 0.931 1_554 S
C66 C67 1.413 . S
C66 C68 1.360 1_554 S
C67 C66 1.413 . S
C67 C71 1.429 . S
C68 C66 1.360 1_556 S
C68 C69 1.372 . S
C69 H64 0.928 . S
C69 C68 1.372 . S
C69 C70 1.404 1_556 S
C70 C69 1.404 1_554 S
C70 C71 1.391 . S
C71 H65 0.930 . S
C71 C67 1.429 . S
C71 C70 1.391 . S
Gd72 N103 2.659 . S
Gd72 N109 2.601 . S
Gd72 O116 2.545 . S
Gd72 O117 2.606 1_655 S
Gd72 O119 2.429 . S
Gd72 O120 2.545 1_655 S
Gd72 O121 2.412 . S
Gd72 O123 2.362 1_545 S
Gd72 O124 2.324 1_655 S
Gd72 C131 2.828 . S
Gd73 N82 2.661 1_565 S
Gd73 N86 2.601 . S
Gd73 O117 2.362 1_565 S
Gd73 O118 2.324 1_455 S
Gd73 O122 2.545 . S
Gd73 O123 2.606 1_455 S
Gd73 O125 2.429 . S
Gd73 O126 2.545 . S
Gd73 O127 2.412 . S
Gd73 C140 2.828 . S
C74 C77 1.417 . S
C74 C79 1.431 . S
C74 C80 1.412 . S
C75 C78 1.437 . S
C75 C79 1.317 . S
C75 H94 0.929 . S
C76 C77 1.426 . S
C76 C78 1.413 . S
C76 N86 1.359 1_545 S
C77 C74 1.417 . S
C77 C76 1.426 . S
C77 N82 1.350 . S
C78 C75 1.437 . S
C78 C76 1.413 . S
C78 C88 1.378 1_545 S
C79 C74 1.431 . S
C79 C75 1.317 . S
C79 H90 0.930 . S
C80 C74 1.412 . S
C80 C81 1.355 . S
C80 H92 0.930 . S
C81 C80 1.355 . S
C81 C83 1.402 . S
C81 H93 0.930 1_455 S
N82 Gd73 2.661 1_545 S
N82 C77 1.350 . S
N82 C83 1.307 . S
C83 C81 1.402 . S
C83 N82 1.307 . S
C83 H84 0.930 1_455 S
H84 C83 0.930 1_655 S
C85 N86 1.334 . S
C85 C87 1.394 . S
C85 H89 0.930 . S
N86 Gd73 2.601 . S
N86 C76 1.359 1_565 S
N86 C85 1.334 . S
C87 C85 1.394 . S
C87 C88 1.375 . S
C87 H99 0.930 . S
C88 C78 1.378 1_565 S
C88 C87 1.375 . S
C88 H100 0.926 1_565 S
H89 C85 0.930 . S
H90 C79 0.930 . S
H91 C108 0.930 . S
H92 C80 0.930 . S
H93 C81 0.930 1_655 S
H94 C75 0.929 . S
H95 C113 0.930 . S
H96 C104 0.930 . S
H97 C105 0.956 . S
H98 C129 0.929 . S
H99 C87 0.930 . S
H100 C88 0.926 1_545 S
H101 C130 0.930 . S
H102 C111 0.930 . S
N103 Gd72 2.659 . S
N103 C107 1.351 1_545 S
N103 C108 1.308 1_645 S
C104 H96 0.930 . S
C104 C105 1.327 1_655 S
C104 C106 1.412 . S
C105 H97 0.956 . S
C105 C104 1.327 1_455 S
C105 C108 1.404 . S
C106 C104 1.412 . S
C106 C107 1.417 . S
C106 C130 1.431 . S
C107 N103 1.351 1_565 S
C107 C106 1.417 . S
C107 C110 1.426 1_565 S
C108 H91 0.930 . S
C108 N103 1.308 1_465 S
C108 C105 1.404 . S
N109 Gd72 2.601 . S
N109 C110 1.359 . S
N109 C113 1.334 . S
C110 C107 1.426 1_545 S
C110 N109 1.359 . S
C110 C114 1.413 . S
C111 H102 0.930 . S
C111 C112 1.359 . S
C111 C113 1.394 . S
C112 C111 1.359 . S
C112 C114 1.391 . S
C112 H115 0.929 . S
C113 H95 0.930 . S
C113 N109 1.334 . S
C113 C111 1.394 . S
C114 C110 1.413 . S
C114 C112 1.391 . S
C114 C129 1.437 1_545 S
H115 C112 0.929 . S
O116 Gd72 2.545 . S
O116 C131 1.258 . S
O117 Gd72 2.606 1_455 S
O117 Gd73 2.362 1_545 S
O117 C128 1.284 . S
O118 Gd73 2.324 1_655 S
O118 C138 1.254 1_565 S
O119 Gd72 2.429 . S
O119 C138 1.268 . S
O120 Gd72 2.545 1_455 S
O120 C128 1.250 . S
O121 Gd72 2.412 . S
O121 C131 1.252 . S
O122 Gd73 2.545 . S
O122 C140 1.258 . S
O123 Gd72 2.362 1_565 S
O123 Gd73 2.606 1_655 S
O123 C139 1.284 . S
O124 Gd72 2.324 1_455 S
O124 C147 1.254 . S
O125 Gd73 2.429 . S
O125 C147 1.268 1_565 S
O126 Gd73 2.545 . S
O126 C139 1.250 1_455 S
O127 Gd73 2.412 . S
O127 C140 1.252 . S
C128 O117 1.284 . S
C128 O120 1.250 . S
C129 H98 0.929 . S
C129 C114 1.437 1_565 S
C129 C130 1.317 . S
C130 H101 0.930 . S
C130 C106 1.431 . S
C130 C129 1.317 . S
C131 Gd72 2.828 . S
C131 O116 1.258 . S
C131 O121 1.252 . S
C131 C132 1.497 . S
C132 C131 1.497 . S
C132 C133 1.395 . S
C132 C134 1.380 . S
C133 C132 1.395 . S
C133 C136 1.398 . S
C133 H148 0.930 . S
C134 C132 1.380 . S
C134 C135 1.391 . S
C134 H149 0.930 1_655 S
C135 C134 1.391 . S
C135 C137 1.387 . S
C136 C133 1.398 . S
C136 C137 1.380 . S
C136 H150 0.930 . S
C137 C135 1.387 . S
C137 C136 1.380 . S
C137 H151 0.930 . S
C138 O118 1.254 1_545 S
C138 O119 1.268 . S
C139 O123 1.284 . S
C139 O126 1.250 1_655 S
C140 Gd73 2.828 . S
C140 O122 1.258 . S
C140 O127 1.252 . S
C140 C141 1.497 . S
C141 C140 1.497 . S
C141 C142 1.395 . S
C141 C143 1.380 . S
C142 C141 1.395 . S
C142 C145 1.398 . S
C142 H152 0.930 . S
C143 C141 1.380 . S
C143 C144 1.391 . S
C143 H153 0.907 1_455 S
C144 C143 1.391 . S
C144 C146 1.387 . S
C145 C142 1.398 . S
C145 C146 1.380 . S
C145 H154 0.930 . S
C146 C144 1.387 . S
C146 C145 1.380 . S
C146 H155 0.930 . S
C147 O124 1.254 . S
C147 O125 1.268 1_545 S
H148 C133 0.930 . S
H149 C134 0.930 1_455 S
H150 C136 0.930 . S
H151 C137 0.930 . S
H152 C142 0.930 . S
H153 C143 0.907 1_655 S
H154 C145 0.930 . S
H155 C146 0.930 . S
Gd156 N187 2.661 . S
Gd156 N193 2.601 . S
Gd156 O200 2.545 . S
Gd156 O201 2.606 1_565 S
Gd156 O203 2.429 . S
Gd156 O204 2.545 1_565 S
Gd156 O205 2.412 . S
Gd156 O207 2.362 . S
Gd156 O208 2.324 1_565 S
Gd156 C215 2.828 . S
Gd157 N166 2.661 . S
Gd157 N170 2.601 . S
Gd157 O201 2.362 . S
Gd157 O202 2.324 1_545 S
Gd157 O206 2.545 . S
Gd157 O207 2.606 1_545 S
Gd157 O209 2.429 . S
Gd157 O210 2.545 . S
Gd157 O211 2.412 . S
Gd157 C224 2.828 . S
C158 C161 1.417 . S
C158 C163 1.431 . S
C158 C164 1.412 . S
C159 C162 1.437 . S
C159 C163 1.317 . S
C159 H178 0.929 . S
C160 C161 1.426 . S
C160 C162 1.413 . S
C160 N170 1.359 . S
C161 C158 1.417 . S
C161 C160 1.426 . S
C161 N166 1.350 . S
C162 C159 1.437 . S
C162 C160 1.413 . S
C162 C172 1.391 . S
C163 C158 1.431 . S
C163 C159 1.317 . S
C163 H174 0.930 . S
C164 C158 1.412 . S
C164 C165 1.355 . S
C164 H176 0.930 . S
C165 C164 1.355 . S
C165 C167 1.402 . S
C165 H177 0.930 1_545 S
N166 Gd157 2.661 . S
N166 C161 1.350 . S
N166 C167 1.307 . S
C167 C165 1.402 . S
C167 N166 1.307 . S
C167 H168 0.930 1_545 S
H168 C167 0.930 1_565 S
C169 N170 1.334 . S
C169 C171 1.394 . S
C169 H173 0.930 . S
N170 Gd157 2.601 . S
N170 C160 1.359 . S
N170 C169 1.334 . S
C171 C169 1.394 . S
C171 C172 1.359 . S
C171 H183 0.930 . S
C172 C162 1.391 . S
C172 C171 1.359 . S
C172 H184 0.929 . S
H173 C169 0.930 . S
H174 C163 0.930 . S
H175 C192 0.930 . S
H176 C164 0.930 . S
H177 C165 0.930 1_565 S
H178 C159 0.929 . S
H179 C197 0.930 . S
H180 C188 0.930 . S
H181 C189 0.930 . S
H182 C213 0.929 . S
H183 C171 0.930 . S
H184 C172 0.929 . S
H185 C214 0.930 . S
H186 C195 0.930 . S
N187 Gd156 2.661 . S
N187 C191 1.350 . S
N187 C192 1.307 1_565 S
C188 H180 0.930 . S
C188 C189 1.355 1_565 S
C188 C190 1.412 . S
C189 H181 0.930 . S
C189 C188 1.355 1_545 S
C189 C192 1.402 . S
C190 C188 1.412 . S
C190 C191 1.417 . S
C190 C214 1.431 . S
C191 N187 1.350 . S
C191 C190 1.417 . S
C191 C194 1.426 . S
C192 H175 0.930 . S
C192 N187 1.307 1_545 S
C192 C189 1.402 . S
N193 Gd156 2.601 . S
N193 C194 1.359 . S
N193 C197 1.334 . S
C194 C191 1.426 . S
C194 N193 1.359 . S
C194 C198 1.413 . S
C195 H186 0.930 . S
C195 C196 1.359 . S
C195 C197 1.394 . S
C196 C195 1.359 . S
C196 C198 1.391 . S
C196 H199 0.929 . S
C197 H179 0.930 . S
C197 N193 1.334 . S
C197 C195 1.394 . S
C198 C194 1.413 . S
C198 C196 1.391 . S
C198 C213 1.437 . S
H199 C196 0.929 . S
O200 Gd156 2.545 . S
O200 C215 1.258 . S
O201 Gd156 2.606 1_545 S
O201 Gd157 2.362 . S
O201 C212 1.284 . S
O202 Gd157 2.324 1_565 S
O202 C222 1.254 . S
O203 Gd156 2.429 . S
O203 C222 1.268 . S
O204 Gd156 2.545 1_545 S
O204 C212 1.250 . S
O205 Gd156 2.412 . S
O205 C215 1.252 . S
O206 Gd157 2.545 . S
O206 C224 1.258 . S
O207 Gd156 2.362 . S
O207 Gd157 2.606 1_565 S
O207 C223 1.284 . S
O208 Gd156 2.324 1_545 S
O208 C231 1.254 . S
O209 Gd157 2.429 . S
O209 C231 1.268 . S
O210 Gd157 2.545 . S
O210 C223 1.250 1_545 S
O211 Gd157 2.412 . S
O211 C224 1.252 . S
C212 O201 1.284 . S
C212 O204 1.250 . S
C213 H182 0.929 . S
C213 C198 1.437 . S
C213 C214 1.317 . S
C214 H185 0.930 . S
C214 C190 1.431 . S
C214 C213 1.317 . S
C215 Gd156 2.828 . S
C215 O200 1.258 . S
C215 O205 1.252 . S
C215 C216 1.497 . S
C216 C215 1.497 . S
C216 C217 1.395 . S
C216 C218 1.380 . S
C217 C216 1.395 . S
C217 C220 1.398 . S
C217 H232 0.930 . S
C218 C216 1.380 . S
C218 C219 1.391 . S
C218 H233 0.930 1_565 S
C219 C218 1.391 . S
C219 C221 1.387 . S
C220 C217 1.398 . S
C220 C221 1.380 . S
C220 H234 0.930 . S
C221 C219 1.387 . S
C221 C220 1.380 . S
C221 H235 0.930 . S
C222 O202 1.254 . S
C222 O203 1.268 . S
C223 O207 1.284 . S
C223 O210 1.250 1_565 S
C224 Gd157 2.828 . S
C224 O206 1.258 . S
C224 O211 1.252 . S
C224 C225 1.497 . S
C225 C224 1.497 . S
C225 C226 1.395 . S
C225 C227 1.380 . S
C226 C225 1.395 . S
C226 C229 1.398 . S
C226 H236 0.930 . S
C227 C225 1.380 . S
C227 C228 1.391 . S
C227 H237 0.930 . S
C228 C227 1.391 . S
C228 C230 1.387 . S
C229 C226 1.398 . S
C229 C230 1.380 . S
C229 H238 0.930 . S
C230 C228 1.387 . S
C230 C229 1.380 . S
C230 H239 0.930 . S
C231 O208 1.254 . S
C231 O209 1.268 . S
H232 C217 0.930 . S
H233 C218 0.930 1_545 S
H234 C220 0.930 . S
H235 C221 0.930 . S
H236 C226 0.930 . S
H237 C227 0.930 . S
H238 C229 0.930 . S
H239 C230 0.930 . S
Gd240 N271 2.661 . S
Gd240 N277 2.601 . S
Gd240 O284 2.545 . S
Gd240 O285 2.606 . S
Gd240 O287 2.429 . S
Gd240 O288 2.545 . S
Gd240 O289 2.412 . S
Gd240 O291 2.362 . S
Gd240 O292 2.324 . S
Gd240 C299 2.828 . S
Gd241 N250 2.661 . S
Gd241 N254 2.601 . S
Gd241 O285 2.362 . S
Gd241 O286 2.324 . S
Gd241 O290 2.545 . S
Gd241 O291 2.606 . S
Gd241 O293 2.429 . S
Gd241 O294 2.545 . S
Gd241 O295 2.412 . S
Gd241 C308 2.828 . S
C242 C245 1.417 . S
C242 C247 1.431 . S
C242 C248 1.412 . S
C243 C246 1.437 . S
C243 C247 1.317 . S
C243 H262 0.929 . S
C244 C245 1.426 . S
C244 C246 1.413 . S
C244 N254 1.359 . S
C245 C242 1.417 . S
C245 C244 1.426 . S
C245 N250 1.350 . S
C246 C243 1.437 . S
C246 C244 1.413 . S
C246 C256 1.391 . S
C247 C242 1.431 . S
C247 C243 1.317 . S
C247 H258 0.930 . S
C248 C242 1.412 . S
C248 C249 1.355 . S
C248 H260 0.930 . S
C249 C248 1.355 . S
C249 C251 1.402 . S
C249 H261 0.930 . S
N250 Gd241 2.661 . S
N250 C245 1.350 . S
N250 C251 1.307 . S
C251 C249 1.402 . S
C251 N250 1.307 . S
C251 H252 0.930 . S
H252 C251 0.930 . S
C253 N254 1.334 . S
C253 C255 1.394 . S
C253 H257 0.930 . S
N254 Gd241 2.601 . S
N254 C244 1.359 . S
N254 C253 1.334 . S
C255 C253 1.394 . S
C255 C256 1.359 . S
C255 H267 0.930 . S
C256 C246 1.391 . S
C256 C255 1.359 . S
C256 H268 0.929 . S
H257 C253 0.930 . S
H258 C247 0.930 . S
H259 C276 0.930 . S
H260 C248 0.930 . S
H261 C249 0.930 . S
H262 C243 0.929 . S
H263 C281 0.930 . S
H264 C272 0.930 . S
H265 C273 0.930 . S
H266 C297 0.929 . S
H267 C255 0.930 . S
H268 C256 0.929 . S
H269 C298 0.930 . S
H270 C279 0.930 . S
N271 Gd240 2.661 . S
N271 C275 1.350 . S
N271 C276 1.307 . S
C272 H264 0.930 . S
C272 C273 1.355 . S
C272 C274 1.412 . S
C273 H265 0.930 . S
C273 C272 1.355 . S
C273 C276 1.402 . S
C274 C272 1.412 . S
C274 C275 1.417 . S
C274 C298 1.431 . S
C275 N271 1.350 . S
C275 C274 1.417 . S
C275 C278 1.426 . S
C276 H259 0.930 . S
C276 N271 1.307 . S
C276 C273 1.402 . S
N277 Gd240 2.601 . S
N277 C278 1.359 . S
N277 C281 1.334 . S
C278 C275 1.426 . S
C278 N277 1.359 . S
C278 C282 1.413 . S
C279 H270 0.930 . S
C279 C280 1.359 . S
C279 C281 1.394 . S
C280 C279 1.359 . S
C280 C282 1.391 . S
C280 H283 0.929 . S
C281 H263 0.930 . S
C281 N277 1.334 . S
C281 C279 1.394 . S
C282 C278 1.413 . S
C282 C280 1.391 . S
C282 C297 1.437 . S
H283 C280 0.929 . S
O284 Gd240 2.545 . S
O284 C299 1.258 . S
O285 Gd240 2.606 . S
O285 Gd241 2.362 . S
O285 C296 1.284 . S
O286 Gd241 2.324 . S
O286 C306 1.254 . S
O287 Gd240 2.429 . S
O287 C306 1.268 . S
O288 Gd240 2.545 . S
O288 C296 1.250 . S
O289 Gd240 2.412 . S
O289 C299 1.252 . S
O290 Gd241 2.545 . S
O290 C308 1.258 . S
O291 Gd240 2.362 . S
O291 Gd241 2.606 . S
O291 C307 1.284 . S
O292 Gd240 2.324 . S
O292 C315 1.254 . S
O293 Gd241 2.429 . S
O293 C315 1.268 . S
O294 Gd241 2.545 . S
O294 C307 1.250 . S
O295 Gd241 2.412 . S
O295 C308 1.252 . S
C296 O285 1.284 . S
C296 O288 1.250 . S
C297 H266 0.929 . S
C297 C282 1.437 . S
C297 C298 1.317 . S
C298 H269 0.930 . S
C298 C274 1.431 . S
C298 C297 1.317 . S
C299 Gd240 2.828 . S
C299 O284 1.258 . S
C299 O289 1.252 . S
C299 C300 1.497 . S
C300 C299 1.497 . S
C300 C301 1.395 . S
C300 C302 1.380 . S
C301 C300 1.395 . S
C301 C304 1.398 . S
C301 H316 0.930 . S
C302 C300 1.380 . S
C302 C303 1.391 . S
C302 H317 0.930 . S
C303 C302 1.391 . S
C303 C305 1.387 . S
C304 C301 1.398 . S
C304 C305 1.380 . S
C304 H318 0.930 . S
C305 C303 1.387 . S
C305 C304 1.380 . S
C305 H319 0.930 . S
C306 O286 1.254 . S
C306 O287 1.268 . S
C307 O291 1.284 . S
C307 O294 1.250 . S
C308 Gd241 2.828 . S
C308 O290 1.258 . S
C308 O295 1.252 . S
C308 C309 1.497 . S
C309 C308 1.497 . S
C309 C310 1.395 . S
C309 C311 1.380 . S
C310 C309 1.395 . S
C310 C313 1.398 . S
C310 H320 0.930 . S
C311 C309 1.380 . S
C311 C312 1.391 . S
C311 H321 0.930 . S
C312 C311 1.391 . S
C312 C314 1.387 . S
C313 C310 1.398 . S
C313 C314 1.380 . S
C313 H322 0.930 . S
C314 C312 1.387 . S
C314 C313 1.380 . S
C314 H323 0.930 . S
C315 O292 1.254 . S
C315 O293 1.268 . S
H316 C301 0.930 . S
H317 C302 0.930 . S
H318 C304 0.930 . S
H319 C305 0.930 . S
H320 C310 0.930 . S
H321 C311 0.930 . S
H322 C313 0.930 . S
H323 C314 0.930 . S
Gd324 N355 2.661 . S
Gd324 N361 2.601 . S
Gd324 O368 2.545 . S
Gd324 O369 2.599 1_655 S
Gd324 O371 2.429 1_655 S
Gd324 O372 2.545 . S
Gd324 O373 2.412 . S
Gd324 O375 2.362 1_655 S
Gd324 O376 2.324 . S
Gd324 C383 2.828 . S
Gd325 N334 2.661 . S
Gd325 N338 2.601 . S
Gd325 O369 2.373 . S
Gd325 O370 2.324 . S
Gd325 O374 2.545 . S
Gd325 O375 2.606 . S
Gd325 O377 2.429 1_455 S
Gd325 O378 2.545 . S
Gd325 O379 2.412 . S
Gd325 C392 2.828 . S
C326 C329 1.417 . S
C326 C331 1.431 . S
C326 C332 1.412 . S
C327 C330 1.437 . S
C327 C331 1.317 . S
C327 H346 0.929 . S
C328 C329 1.426 . S
C328 C330 1.413 . S
C328 N338 1.359 . S
C329 C326 1.417 . S
C329 C328 1.426 . S
C329 N334 1.350 . S
C330 C327 1.437 . S
C330 C328 1.413 . S
C330 C340 1.391 . S
C331 C326 1.431 . S
C331 C327 1.317 . S
C331 H342 0.930 . S
C332 C326 1.412 . S
C332 C333 1.355 . S
C332 H344 0.930 . S
C333 C332 1.355 . S
C333 C335 1.402 . S
C333 H345 0.930 . S
N334 Gd325 2.661 . S
N334 C329 1.350 . S
N334 C335 1.307 . S
C335 C333 1.402 . S
C335 N334 1.307 . S
C335 H336 0.930 . S
H336 C335 0.930 . S
C337 N338 1.334 . S
C337 C339 1.399 . S
C337 H341 0.930 1_455 S
N338 Gd325 2.601 . S
N338 C328 1.359 . S
N338 C337 1.334 . S
C339 C337 1.399 . S
C339 C340 1.379 . S
C339 H351 0.908 1_455 S
C340 C330 1.391 . S
C340 C339 1.379 . S
C340 H352 0.929 . S
H341 C337 0.930 1_655 S
H342 C331 0.930 . S
H343 C360 0.930 . S
H344 C332 0.930 . S
H345 C333 0.930 . S
H346 C327 0.929 . S
H347 C365 0.930 . S
H348 C356 0.930 . S
H349 C357 0.930 . S
H350 C381 0.929 . S
H351 C339 0.908 1_655 S
H352 C340 0.929 . S
H353 C382 0.930 . S
H354 C363 0.930 . S
N355 Gd324 2.661 . S
N355 C359 1.350 . S
N355 C360 1.307 . S
C356 H348 0.930 . S
C356 C357 1.355 . S
C356 C358 1.412 . S
C357 H349 0.930 . S
C357 C356 1.355 . S
C357 C360 1.402 . S
C358 C356 1.412 . S
C358 C359 1.417 . S
C358 C382 1.431 . S
C359 N355 1.350 . S
C359 C358 1.417 . S
C359 C362 1.426 . S
C360 H343 0.930 . S
C360 N355 1.307 . S
C360 C357 1.402 . S
N361 Gd324 2.601 . S
N361 C362 1.359 . S
N361 C365 1.334 1_655 S
C362 C359 1.426 . S
C362 N361 1.359 . S
C362 C366 1.413 . S
C363 H354 0.930 . S
C363 C364 1.359 1_455 S
C363 C365 1.394 . S
C364 C363 1.359 1_655 S
C364 C366 1.391 . S
C364 H367 0.929 . S
C365 H347 0.930 . S
C365 N361 1.334 1_455 S
C365 C363 1.394 . S
C366 C362 1.413 . S
C366 C364 1.391 . S
C366 C381 1.437 . S
H367 C364 0.929 . S
O368 Gd324 2.545 . S
O368 C383 1.258 . S
O369 Gd324 2.599 1_455 S
O369 Gd325 2.373 . S
O369 C380 1.277 1_455 S
O370 Gd325 2.324 . S
O370 C390 1.254 . S
O371 Gd324 2.429 1_455 S
O371 C390 1.268 . S
O372 Gd324 2.545 . S
O372 C380 1.250 . S
O373 Gd324 2.412 . S
O373 C383 1.252 . S
O374 Gd325 2.545 . S
O374 C392 1.258 . S
O375 Gd324 2.362 1_455 S
O375 Gd325 2.606 . S
O375 C391 1.284 . S
O376 Gd324 2.324 . S
O376 C399 1.254 . S
O377 Gd325 2.429 1_655 S
O377 C399 1.268 . S
O378 Gd325 2.545 . S
O378 C391 1.250 . S
O379 Gd325 2.412 . S
O379 C392 1.252 . S
C380 O369 1.277 1_655 S
C380 O372 1.250 . S
C381 H350 0.929 . S
C381 C366 1.437 . S
C381 C382 1.317 . S
C382 H353 0.930 . S
C382 C358 1.431 . S
C382 C381 1.317 . S
C383 Gd324 2.828 . S
C383 O368 1.258 . S
C383 O373 1.252 . S
C383 C384 1.497 . S
C384 C383 1.497 . S
C384 C385 1.395 . S
C384 C386 1.380 . S
C385 C384 1.395 . S
C385 C388 1.398 . S
C385 H400 0.930 . S
C386 C384 1.380 . S
C386 C387 1.391 . S
C386 H401 0.930 . S
C387 C386 1.391 . S
C387 C389 1.387 . S
C388 C385 1.398 . S
C388 C389 1.380 . S
C388 H402 0.930 . S
C389 C387 1.387 . S
C389 C388 1.380 . S
C389 H403 0.930 . S
C390 O370 1.254 . S
C390 O371 1.268 . S
C391 O375 1.284 . S
C391 O378 1.250 . S
C392 Gd325 2.828 . S
C392 O374 1.258 . S
C392 O379 1.252 . S
C392 C393 1.497 . S
C393 C392 1.497 . S
C393 C394 1.395 . S
C393 C395 1.380 . S
C394 C393 1.395 . S
C394 C397 1.398 . S
C394 H404 0.930 . S
C395 C393 1.380 . S
C395 C396 1.391 . S
C395 H405 0.930 . S
C396 C395 1.391 . S
C396 C398 1.387 . S
C397 C394 1.398 . S
C397 C398 1.380 . S
C397 H406 0.930 . S
C398 C396 1.387 . S
C398 C397 1.380 . S
C398 H407 0.930 . S
C399 O376 1.254 . S
C399 O377 1.268 . S
H400 C385 0.930 . S
H401 C386 0.930 . S
H402 C388 0.930 . S
H403 C389 0.930 . S
H404 C394 0.930 . S
H405 C395 0.930 . S
H406 C397 0.930 . S
H407 C398 0.930 . S
H408 C426 0.951 . S
H409 C428 0.951 . S
H410 C430 0.950 . S
H411 C431 0.950 . S
H412 C433 0.950 . S
H413 C436 0.950 . S
H414 C437 0.950 . S
H415 C439 0.950 . S
H416 C440 0.950 . S
H417 C441 0.951 . S
H418 C443 0.951 . S
H419 C445 0.950 . S
H420 C446 0.950 . S
H421 C448 0.950 . S
H422 C451 0.950 1_565 S
H423 C452 0.950 . S
H424 C454 0.950 . S
H425 C455 0.950 . S
C426 H408 0.951 . S
C426 C427 1.366 . S
C426 C428 1.388 . S
C427 C426 1.366 . S
C427 C431 1.385 . S
C428 H409 0.951 . S
C428 C426 1.388 . S
C428 C429 1.366 . S
C429 C428 1.366 . S
C429 C430 1.414 . S
C429 C432 1.499 . S
C430 H410 0.950 . S
C430 C429 1.414 . S
C430 C431 1.374 . S
C431 H411 0.950 . S
C431 C427 1.385 . S
C431 C430 1.374 . S
C432 C429 1.499 . S
C432 C433 1.373 . S
C432 C434 1.389 . S
C433 H412 0.950 . S
C433 C432 1.373 . S
C433 C449 1.377 . S
C434 C432 1.389 . S
C434 C435 1.524 . S
C434 C448 1.377 . S
C435 C434 1.524 . S
C435 C436 1.397 . S
C435 C440 1.363 . S
C436 H413 0.950 . S
C436 C435 1.397 . S
C436 C437 1.334 . S
C437 H414 0.950 . S
C437 C436 1.334 . S
C437 C438 1.287 . S
C438 C437 1.287 . S
C438 C439 1.524 . S
C438 H457 0.913 . S
C439 H415 0.950 . S
C439 C438 1.524 . S
C439 C440 1.415 . S
C440 H416 0.950 . S
C440 C435 1.363 . S
C440 C439 1.415 . S
C441 H417 0.951 . S
C441 C442 1.366 . S
C441 C443 1.388 . S
C442 C441 1.366 . S
C442 C446 1.385 . S
C443 H418 0.951 . S
C443 C441 1.388 . S
C443 C444 1.366 . S
C444 C443 1.366 . S
C444 C445 1.414 . S
C444 C447 1.499 . S
C445 H419 0.950 . S
C445 C444 1.414 . S
C445 C446 1.374 . S
C446 H420 0.950 . S
C446 C442 1.385 . S
C446 C445 1.374 . S
C447 C444 1.499 . S
C447 C448 1.373 . S
C447 C449 1.389 . S
C448 H421 0.950 . S
C448 C434 1.377 . S
C448 C447 1.373 . S
C449 C433 1.377 . S
C449 C447 1.389 . S
C449 C450 1.524 . S
C450 C449 1.524 . S
C450 C451 1.397 . S
C450 C455 1.363 . S
C451 H422 0.950 1_545 S
C451 C450 1.397 . S
C451 C452 1.334 1_545 S
C452 H423 0.950 . S
C452 C451 1.334 1_565 S
C452 C453 1.287 1_565 S
C453 C452 1.287 1_545 S
C453 C454 1.524 . S
C453 H456 0.999 1_545 S
C454 H424 0.950 . S
C454 C453 1.524 . S
C454 C455 1.415 . S
C455 H425 0.950 . S
C455 C450 1.363 . S
C455 C454 1.415 . S
H456 C453 0.999 1_565 S
H457 C438 0.913 . S
H458 C476 0.951 . S
H459 C478 0.951 . S
H460 C480 0.950 . S
H461 C481 0.950 . S
H462 C483 0.950 . S
H463 C486 0.950 . S
H464 C487 0.950 . S
H465 C489 0.950 . S
H466 C490 0.950 . S
H467 C491 0.951 . S
H468 C493 0.951 . S
H469 C495 0.950 . S
H470 C496 0.950 . S
H471 C498 0.950 . S
H472 C501 0.950 . S
H473 C502 0.950 . S
H474 C504 0.950 . S
H475 C505 0.950 . S
C476 H458 0.951 . S
C476 C477 1.366 . S
C476 C478 1.388 . S
C477 C476 1.366 . S
C477 C481 1.385 . S
C478 H459 0.951 . S
C478 C476 1.388 . S
C478 C479 1.366 . S
C479 C478 1.366 . S
C479 C480 1.414 . S
C479 C482 1.499 . S
C480 H460 0.950 . S
C480 C479 1.414 . S
C480 C481 1.374 . S
C481 H461 0.950 . S
C481 C477 1.385 . S
C481 C480 1.374 . S
C482 C479 1.499 . S
C482 C483 1.373 . S
C482 C484 1.389 . S
C483 H462 0.950 . S
C483 C482 1.373 . S
C483 C499 1.377 . S
C484 C482 1.389 . S
C484 C485 1.524 . S
C484 C498 1.377 . S
C485 C484 1.524 . S
C485 C486 1.397 . S
C485 C490 1.363 . S
C486 H463 0.950 . S
C486 C485 1.397 . S
C486 C487 1.334 . S
C487 H464 0.950 . S
C487 C486 1.334 . S
C487 C488 1.287 . S
C488 C487 1.287 . S
C488 C489 1.524 . S
C488 H507 0.913 . S
C489 H465 0.950 . S
C489 C488 1.524 . S
C489 C490 1.415 . S
C490 H466 0.950 . S
C490 C485 1.363 . S
C490 C489 1.415 . S
C491 H467 0.951 . S
C491 C492 1.366 . S
C491 C493 1.388 . S
C492 C491 1.366 . S
C492 C496 1.385 . S
C493 H468 0.951 . S
C493 C491 1.388 . S
C493 C494 1.366 . S
C494 C493 1.366 . S
C494 C495 1.414 . S
C494 C497 1.499 . S
C495 H469 0.950 . S
C495 C494 1.414 . S
C495 C496 1.374 . S
C496 H470 0.950 . S
C496 C492 1.385 . S
C496 C495 1.374 . S
C497 C494 1.499 . S
C497 C498 1.373 . S
C497 C499 1.389 . S
C498 H471 0.950 . S
C498 C484 1.377 . S
C498 C497 1.373 . S
C499 C483 1.377 . S
C499 C497 1.389 . S
C499 C500 1.524 . S
C500 C499 1.524 . S
C500 C501 1.397 . S
C500 C505 1.363 . S
C501 H472 0.950 . S
C501 C500 1.397 . S
C501 C502 1.334 . S
C502 H473 0.950 . S
C502 C501 1.334 . S
C502 C503 1.287 . S
C503 C502 1.287 . S
C503 C504 1.524 . S
C503 H506 0.999 . S
C504 H474 0.950 . S
C504 C503 1.524 . S
C504 C505 1.415 . S
C505 H475 0.950 . S
C505 C500 1.363 . S
C505 C504 1.415 . S
H506 C503 0.999 . S
H507 C488 0.913 . S
H508 C526 0.951 . S
H509 C528 0.951 . S
H510 C530 0.950 . S
H511 C531 0.950 . S
H512 C533 0.950 . S
H513 C536 0.950 . S
H514 C537 0.950 . S
H515 C539 0.950 . S
H516 C540 0.950 . S
H517 C541 0.951 . S
H518 C543 0.951 . S
H519 C545 0.950 . S
H520 C546 0.950 . S
H521 C548 0.950 . S
H522 C551 0.950 . S
H523 C552 0.950 . S
H524 C554 0.950 . S
H525 C555 0.950 . S
C526 H508 0.951 . S
C526 C527 1.366 . S
C526 C528 1.388 . S
C527 C526 1.366 . S
C527 C531 1.385 . S
C528 H509 0.951 . S
C528 C526 1.388 . S
C528 C529 1.366 . S
C529 C528 1.366 . S
C529 C530 1.414 . S
C529 C532 1.499 . S
C530 H510 0.950 . S
C530 C529 1.414 . S
C530 C531 1.374 . S
C531 H511 0.950 . S
C531 C527 1.385 . S
C531 C530 1.374 . S
C532 C529 1.499 . S
C532 C533 1.373 . S
C532 C534 1.389 . S
C533 H512 0.950 . S
C533 C532 1.373 . S
C533 C549 1.377 . S
C534 C532 1.389 . S
C534 C535 1.524 . S
C534 C548 1.377 . S
C535 C534 1.524 . S
C535 C536 1.397 . S
C535 C540 1.363 . S
C536 H513 0.950 . S
C536 C535 1.397 . S
C536 C537 1.334 . S
C537 H514 0.950 . S
C537 C536 1.334 . S
C537 C538 1.287 . S
C538 C537 1.287 . S
C538 C539 1.524 . S
C538 H557 0.913 . S
C539 H515 0.950 . S
C539 C538 1.524 . S
C539 C540 1.415 . S
C540 H516 0.950 . S
C540 C535 1.363 . S
C540 C539 1.415 . S
C541 H517 0.951 . S
C541 C542 1.366 . S
C541 C543 1.388 . S
C542 C541 1.366 . S
C542 C546 1.385 . S
C543 H518 0.951 . S
C543 C541 1.388 . S
C543 C544 1.366 . S
C544 C543 1.366 . S
C544 C545 1.414 . S
C544 C547 1.499 . S
C545 H519 0.950 . S
C545 C544 1.414 . S
C545 C546 1.374 . S
C546 H520 0.950 . S
C546 C542 1.385 . S
C546 C545 1.374 . S
C547 C544 1.499 . S
C547 C548 1.373 . S
C547 C549 1.389 . S
C548 H521 0.950 . S
C548 C534 1.377 . S
C548 C547 1.373 . S
C549 C533 1.377 . S
C549 C547 1.389 . S
C549 C550 1.524 . S
C550 C549 1.524 . S
C550 C551 1.397 . S
C550 C555 1.363 . S
C551 H522 0.950 . S
C551 C550 1.397 . S
C551 C552 1.334 . S
C552 H523 0.950 . S
C552 C551 1.334 . S
C552 C553 1.287 . S
C553 C552 1.287 . S
C553 C554 1.524 . S
C553 H556 0.999 . S
C554 H524 0.950 . S
C554 C553 1.524 . S
C554 C555 1.415 . S
C555 H525 0.950 . S
C555 C550 1.363 . S
C555 C554 1.415 . S
H556 C553 0.999 . S
H557 C538 0.913 . S
H558 C576 0.951 . S
H559 C578 0.951 . S
H560 C580 0.950 . S
H561 C581 0.950 . S
H562 C583 0.950 . S
H563 C586 0.950 . S
H564 C587 0.950 . S
H565 C589 0.950 . S
H566 C590 0.950 . S
H567 C591 0.951 1_655 S
H568 C593 0.951 . S
H569 C595 0.950 . S
H570 C596 0.950 . S
H571 C598 0.950 . S
H572 C601 0.950 . S
H573 C602 0.950 . S
H574 C604 0.950 . S
H575 C605 0.950 . S
C576 H558 0.951 . S
C576 C577 1.366 . S
C576 C578 1.388 . S
C577 C576 1.366 . S
C577 C581 1.385 . S
C578 H559 0.951 . S
C578 C576 1.388 . S
C578 C579 1.366 . S
C579 C578 1.366 . S
C579 C580 1.414 . S
C579 C582 1.499 . S
C580 H560 0.950 . S
C580 C579 1.414 . S
C580 C581 1.374 . S
C581 H561 0.950 . S
C581 C577 1.385 . S
C581 C580 1.374 . S
C582 C579 1.499 . S
C582 C583 1.373 . S
C582 C584 1.389 . S
C583 H562 0.950 . S
C583 C582 1.373 . S
C583 C599 1.377 . S
C584 C582 1.389 . S
C584 C585 1.524 . S
C584 C598 1.377 . S
C585 C584 1.524 . S
C585 C586 1.397 . S
C585 C590 1.363 . S
C586 H563 0.950 . S
C586 C585 1.397 . S
C586 C587 1.334 . S
C587 H564 0.950 . S
C587 C586 1.334 . S
C587 C588 1.287 . S
C588 C587 1.287 . S
C588 C589 1.524 . S
C588 H607 0.913 . S
C589 H565 0.950 . S
C589 C588 1.524 . S
C589 C590 1.415 . S
C590 H566 0.950 . S
C590 C585 1.363 . S
C590 C589 1.415 . S
C591 H567 0.951 1_455 S
C591 C592 1.366 . S
C591 C593 1.388 . S
C592 C591 1.366 . S
C592 C596 1.385 . S
C593 H568 0.951 . S
C593 C591 1.388 . S
C593 C594 1.366 . S
C594 C593 1.366 . S
C594 C595 1.414 . S
C594 C597 1.499 . S
C595 H569 0.950 . S
C595 C594 1.414 . S
C595 C596 1.374 . S
C596 H570 0.950 . S
C596 C592 1.385 . S
C596 C595 1.374 . S
C597 C594 1.499 . S
C597 C598 1.373 . S
C597 C599 1.389 . S
C598 H571 0.950 . S
C598 C584 1.377 . S
C598 C597 1.373 . S
C599 C583 1.377 . S
C599 C597 1.389 . S
C599 C600 1.524 . S
C600 C599 1.524 . S
C600 C601 1.397 . S
C600 C605 1.363 . S
C601 H572 0.950 . S
C601 C600 1.397 . S
C601 C602 1.334 . S
C602 H573 0.950 . S
C602 C601 1.334 . S
C602 C603 1.287 . S
C603 C602 1.287 . S
C603 C604 1.524 . S
C603 H606 0.999 . S
C604 H574 0.950 . S
C604 C603 1.524 . S
C604 C605 1.415 . S
C605 H575 0.950 . S
C605 C600 1.363 . S
C605 C604 1.415 . S
H606 C603 0.999 . S
H607 C588 0.913 . S
H608 C626 0.951 . S
H609 C628 0.951 . S
H610 C630 0.950 . S
H611 C631 0.950 . S
H612 C633 0.950 . S
H613 C636 0.950 1_545 S
H614 C637 0.950 . S
H615 C639 0.950 . S
H616 C640 0.950 . S
H617 C641 0.951 1_545 S
H618 C643 0.951 . S
H619 C645 0.950 . S
H620 C646 0.950 . S
H621 C648 0.950 . S
H622 C651 0.950 . S
H623 C652 0.950 . S
H624 C654 0.950 . S
H625 C655 0.950 . S
C626 H608 0.951 . S
C626 C627 1.366 . S
C626 C628 1.388 . S
C627 C626 1.366 . S
C627 C631 1.385 . S
C628 H609 0.951 . S
C628 C626 1.388 . S
C628 C629 1.366 . S
C629 C628 1.366 . S
C629 C630 1.414 . S
C629 C632 1.499 1_554 S
C630 H610 0.950 . S
C630 C629 1.414 . S
C630 C631 1.374 . S
C631 H611 0.950 . S
C631 C627 1.385 . S
C631 C630 1.374 . S
C632 C629 1.499 1_556 S
C632 C633 1.373 . S
C632 C634 1.389 1_556 S
C633 H612 0.950 . S
C633 C632 1.373 . S
C633 C649 1.377 . S
C634 C632 1.389 1_554 S
C634 C635 1.524 . S
C634 C648 1.377 1_554 S
C635 C634 1.524 . S
C635 C636 1.397 . S
C635 C640 1.363 . S
C636 H613 0.950 1_565 S
C636 C635 1.397 . S
C636 C637 1.334 1_565 S
C637 H614 0.950 . S
C637 C636 1.334 1_545 S
C637 C638 1.287 . S
C638 C637 1.287 . S
C638 C639 1.524 1_545 S
C638 H657 0.913 . S
C639 H615 0.950 . S
C639 C638 1.524 1_565 S
C639 C640 1.415 . S
C640 H616 0.950 . S
C640 C635 1.363 . S
C640 C639 1.415 . S
C641 H617 0.951 1_565 S
C641 C642 1.366 . S
C641 C643 1.388 . S
C642 C641 1.366 . S
C642 C646 1.385 . S
C643 H618 0.951 . S
C643 C641 1.388 . S
C643 C644 1.366 . S
C644 C643 1.366 . S
C644 C645 1.414 . S
C644 C647 1.499 . S
C645 H619 0.950 . S
C645 C644 1.414 . S
C645 C646 1.374 . S
C646 H620 0.950 . S
C646 C642 1.385 . S
C646 C645 1.374 . S
C647 C644 1.499 . S
C647 C648 1.373 . S
C647 C649 1.389 . S
C648 H621 0.950 . S
C648 C634 1.377 1_556 S
C648 C647 1.373 . S
C649 C633 1.377 . S
C649 C647 1.389 . S
C649 C650 1.524 . S
C650 C649 1.524 . S
C650 C651 1.397 . S
C650 C655 1.363 . S
C651 H622 0.950 . S
C651 C650 1.397 . S
C651 C652 1.334 . S
C652 H623 0.950 . S
C652 C651 1.334 . S
C652 C653 1.287 . S
C653 C652 1.287 . S
C653 C654 1.524 . S
C653 H656 0.999 . S
C654 H624 0.950 . S
C654 C653 1.524 . S
C654 C655 1.415 . S
C655 H625 0.950 . S
C655 C650 1.363 . S
C655 C654 1.415 . S
H656 C653 0.999 . S
H657 C638 0.913 . S
H658 C676 0.951 . S
H659 C678 0.951 . S
H660 C680 0.950 . S
H661 C681 0.950 . S
H662 C683 0.950 . S
H663 C686 0.950 . S
H664 C687 0.950 . S
H665 C689 0.950 . S
H666 C690 0.950 1_556 S
H667 C691 0.951 . S
H668 C693 0.951 . S
H669 C695 0.950 . S
H670 C696 0.950 . S
H671 C698 0.950 . S
H672 C701 0.950 . S
H673 C702 0.950 . S
H674 C704 0.950 . S
H675 C705 0.950 . S
C676 H658 0.951 . S
C676 C677 1.366 . S
C676 C678 1.388 . S
C677 C676 1.366 . S
C677 C681 1.385 . S
C678 H659 0.951 . S
C678 C676 1.388 . S
C678 C679 1.366 . S
C679 C678 1.366 . S
C679 C680 1.414 . S
C679 C682 1.499 1_554 S
C680 H660 0.950 . S
C680 C679 1.414 . S
C680 C681 1.374 . S
C681 H661 0.950 . S
C681 C677 1.385 . S
C681 C680 1.374 . S
C682 C679 1.499 1_556 S
C682 C683 1.373 . S
C682 C684 1.389 . S
C683 H662 0.950 . S
C683 C682 1.373 . S
C683 C699 1.377 . S
C684 C682 1.389 . S
C684 C685 1.524 1_556 S
C684 C698 1.377 . S
C685 C684 1.524 1_554 S
C685 C686 1.397 . S
C685 C690 1.363 . S
C686 H663 0.950 . S
C686 C685 1.397 . S
C686 C687 1.334 . S
C687 H664 0.950 . S
C687 C686 1.334 . S
C687 C688 1.287 . S
C688 C687 1.287 . S
C688 C689 1.524 . S
C688 H707 0.913 . S
C689 H665 0.950 . S
C689 C688 1.524 . S
C689 C690 1.415 . S
C690 H666 0.950 1_554 S
C690 C685 1.363 . S
C690 C689 1.415 . S
C691 H667 0.951 . S
C691 C692 1.366 . S
C691 C693 1.388 . S
C692 C691 1.366 . S
C692 C696 1.385 . S
C693 H668 0.951 . S
C693 C691 1.388 . S
C693 C694 1.366 . S
C694 C693 1.366 . S
C694 C695 1.414 . S
C694 C697 1.499 . S
C695 H669 0.950 . S
C695 C694 1.414 . S
C695 C696 1.374 . S
C696 H670 0.950 . S
C696 C692 1.385 . S
C696 C695 1.374 . S
C697 C694 1.499 . S
C697 C698 1.373 . S
C697 C699 1.389 . S
C698 H671 0.950 . S
C698 C684 1.377 . S
C698 C697 1.373 . S
C699 C683 1.377 . S
C699 C697 1.389 . S
C699 C700 1.524 . S
C700 C699 1.524 . S
C700 C701 1.397 . S
C700 C705 1.363 . S
C701 H672 0.950 . S
C701 C700 1.397 . S
C701 C702 1.334 . S
C702 H673 0.950 . S
C702 C701 1.334 . S
C702 C703 1.287 . S
C703 C702 1.287 . S
C703 C704 1.524 . S
C703 H706 0.999 . S
C704 H674 0.950 . S
C704 C703 1.524 . S
C704 C705 1.415 . S
C705 H675 0.950 . S
C705 C700 1.363 . S
C705 C704 1.415 . S
H706 C703 0.999 . S
H707 C688 0.913 . S
H708 C726 0.951 . S
H709 C728 0.951 1_556 S
H710 C730 0.950 . S
H711 C731 0.950 . S
H712 C733 0.950 1_554 S
H713 C736 0.950 1_554 S
H714 C737 0.950 1_554 S
H715 C739 0.950 . S
H716 C740 0.950 . S
H717 C741 0.951 . S
H718 C743 0.951 . S
H719 C745 0.950 . S
H720 C746 0.950 . S
H721 C748 0.950 . S
H722 C751 0.950 . S
H723 C752 0.950 . S
H724 C754 0.950 1_554 S
H725 C755 0.950 1_554 S
C726 H708 0.951 . S
C726 C727 1.366 . S
C726 C728 1.388 . S
C727 C726 1.366 . S
C727 C731 1.385 . S
C728 H709 0.951 1_554 S
C728 C726 1.388 . S
C728 C729 1.366 . S
C729 C728 1.366 . S
C729 C730 1.414 . S
C729 C732 1.499 1_554 S
C730 H710 0.950 . S
C730 C729 1.414 . S
C730 C731 1.374 . S
C731 H711 0.950 . S
C731 C727 1.385 . S
C731 C730 1.374 . S
C732 C729 1.499 1_556 S
C732 C733 1.373 . S
C732 C734 1.389 . S
C733 H712 0.950 1_556 S
C733 C732 1.373 . S
C733 C749 1.377 . S
C734 C732 1.389 . S
C734 C735 1.524 . S
C734 C748 1.377 . S
C735 C734 1.524 . S
C735 C736 1.397 . S
C735 C740 1.363 . S
C736 H713 0.950 1_556 S
C736 C735 1.397 . S
C736 C737 1.334 . S
C737 H714 0.950 1_556 S
C737 C736 1.334 . S
C737 C738 1.287 . S
C738 C737 1.287 . S
C738 C739 1.524 . S
C738 H757 0.913 . S
C739 H715 0.950 . S
C739 C738 1.524 . S
C739 C740 1.415 . S
C740 H716 0.950 . S
C740 C735 1.363 . S
C740 C739 1.415 . S
C741 H717 0.951 . S
C741 C742 1.366 . S
C741 C743 1.388 . S
C742 C741 1.366 . S
C742 C746 1.385 . S
C743 H718 0.951 . S
C743 C741 1.388 . S
C743 C744 1.366 . S
C744 C743 1.366 . S
C744 C745 1.414 . S
C744 C747 1.499 . S
C745 H719 0.950 . S
C745 C744 1.414 . S
C745 C746 1.374 . S
C746 H720 0.950 . S
C746 C742 1.385 . S
C746 C745 1.374 . S
C747 C744 1.499 . S
C747 C748 1.373 . S
C747 C749 1.389 . S
C748 H721 0.950 . S
C748 C734 1.377 . S
C748 C747 1.373 . S
C749 C733 1.377 . S
C749 C747 1.389 . S
C749 C750 1.524 . S
C750 C749 1.524 . S
C750 C751 1.397 . S
C750 C755 1.363 . S
C751 H722 0.950 . S
C751 C750 1.397 . S
C751 C752 1.334 . S
C752 H723 0.950 . S
C752 C751 1.334 . S
C752 C753 1.287 . S
C753 C752 1.287 . S
C753 C754 1.524 . S
C753 H756 0.999 . S
C754 H724 0.950 1_556 S
C754 C753 1.524 . S
C754 C755 1.415 . S
C755 H725 0.950 1_556 S
C755 C750 1.363 . S
C755 C754 1.415 . S
H756 C753 0.999 . S
H757 C738 0.913 . S
H758 C776 0.951 . S
H759 C778 0.951 . S
H760 C780 0.950 1_556 S
H761 C781 0.950 . S
H762 C783 0.950 . S
H763 C786 0.950 1_656 S
H764 C787 0.950 . S
H765 C789 0.950 . S
H766 C790 0.950 . S
H767 C791 0.951 . S
H768 C793 0.951 . S
H769 C795 0.950 . S
H770 C796 0.950 1_455 S
H771 C798 0.950 1_455 S
H772 C801 0.950 . S
H773 C802 0.950 . S
H774 C804 0.950 . S
H775 C805 0.950 . S
C776 H758 0.951 . S
C776 C777 1.366 . S
C776 C778 1.388 . S
C777 C776 1.366 . S
C777 C781 1.385 . S
C778 H759 0.951 . S
C778 C776 1.388 . S
C778 C779 1.366 . S
C779 C778 1.366 . S
C779 C780 1.414 . S
C779 C782 1.499 1_554 S
C780 H760 0.950 1_554 S
C780 C779 1.414 . S
C780 C781 1.374 . S
C781 H761 0.950 . S
C781 C777 1.385 . S
C781 C780 1.374 . S
C782 C779 1.499 1_556 S
C782 C783 1.373 . S
C782 C784 1.389 . S
C783 H762 0.950 . S
C783 C782 1.373 . S
C783 C799 1.377 . S
C784 C782 1.389 . S
C784 C785 1.486 1_656 S
C784 C798 1.377 . S
C785 C784 1.486 1_454 S
C785 C786 1.398 . S
C785 C790 1.401 . S
C786 H763 0.950 1_454 S
C786 C785 1.398 . S
C786 C787 1.334 . S
C787 H764 0.950 . S
C787 C786 1.334 . S
C787 C788 1.287 . S
C788 C787 1.287 . S
C788 C789 1.524 . S
C788 H807 0.913 . S
C789 H765 0.950 . S
C789 C788 1.524 . S
C789 C790 1.415 . S
C790 H766 0.950 . S
C790 C785 1.401 . S
C790 C789 1.415 . S
C791 H767 0.951 . S
C791 C792 1.366 . S
C791 C793 1.388 . S
C792 C791 1.366 . S
C792 C796 1.385 . S
C793 H768 0.951 . S
C793 C791 1.388 . S
C793 C794 1.366 . S
C794 C793 1.366 . S
C794 C795 1.414 . S
C794 C797 1.499 . S
C795 H769 0.950 . S
C795 C794 1.414 . S
C795 C796 1.374 . S
C796 H770 0.950 1_655 S
C796 C792 1.385 . S
C796 C795 1.374 . S
C797 C794 1.499 . S
C797 C798 1.373 . S
C797 C799 1.389 . S
C798 H771 0.950 1_655 S
C798 C784 1.377 . S
C798 C797 1.373 . S
C799 C783 1.377 . S
C799 C797 1.389 . S
C799 C800 1.524 . S
C800 C799 1.524 . S
C800 C801 1.397 . S
C800 C805 1.363 . S
C801 H772 0.950 . S
C801 C800 1.397 . S
C801 C802 1.334 . S
C802 H773 0.950 . S
C802 C801 1.334 . S
C802 C803 1.287 . S
C803 C802 1.287 . S
C803 C804 1.524 . S
C803 H806 0.999 . S
C804 H774 0.950 . S
C804 C803 1.524 . S
C804 C805 1.415 . S
C805 H775 0.950 . S
C805 C800 1.363 . S
C805 C804 1.415 . S
H806 C803 0.999 . S
H807 C788 0.913 . S
H808 C826 0.951 . S
H809 C828 0.951 . S
H810 C830 0.950 . S
H811 C831 0.950 . S
H812 C833 0.950 . S
H813 C836 0.950 . S
H814 C837 0.950 1_556 S
H815 C839 0.950 . S
H816 C840 0.950 . S
H817 C841 0.951 . S
H818 C843 0.951 . S
H819 C845 0.950 . S
H820 C846 0.950 . S
H821 C848 0.950 . S
H822 C851 0.950 . S
H823 C852 0.950 . S
H824 C854 0.950 . S
H825 C855 0.950 . S
C826 H808 0.951 . S
C826 C827 1.366 . S
C826 C828 1.388 . S
C827 C826 1.366 . S
C827 C831 1.385 . S
C828 H809 0.951 . S
C828 C826 1.388 . S
C828 C829 1.366 . S
C829 C828 1.366 . S
C829 C830 1.414 . S
C829 C832 1.499 . S
C830 H810 0.950 . S
C830 C829 1.414 . S
C830 C831 1.374 . S
C831 H811 0.950 . S
C831 C827 1.385 . S
C831 C830 1.374 . S
C832 C829 1.499 . S
C832 C833 1.373 . S
C832 C834 1.389 . S
C833 H812 0.950 . S
C833 C832 1.373 . S
C833 C849 1.377 . S
C834 C832 1.389 . S
C834 C835 1.524 . S
C834 C848 1.377 . S
C835 C834 1.524 . S
C835 C836 1.397 . S
C835 C840 1.363 . S
C836 H813 0.950 . S
C836 C835 1.397 . S
C836 C837 1.334 . S
C837 H814 0.950 1_554 S
C837 C836 1.334 . S
C837 C838 1.287 . S
C838 C837 1.287 . S
C838 C839 1.524 . S
C838 H857 0.913 1_554 S
C839 H815 0.950 . S
C839 C838 1.524 . S
C839 C840 1.415 . S
C840 H816 0.950 . S
C840 C835 1.363 . S
C840 C839 1.415 . S
C841 H817 0.951 . S
C841 C842 1.365 1_655 S
C841 C843 1.388 . S
C842 C841 1.365 1_455 S
C842 C846 1.386 . S
C843 H818 0.951 . S
C843 C841 1.388 . S
C843 C844 1.366 1_655 S
C844 C843 1.366 1_455 S
C844 C845 1.414 . S
C844 C847 1.499 . S
C845 H819 0.950 . S
C845 C844 1.414 . S
C845 C846 1.374 . S
C846 H820 0.950 . S
C846 C842 1.386 . S
C846 C845 1.374 . S
C847 C844 1.499 . S
C847 C848 1.373 . S
C847 C849 1.389 . S
C848 H821 0.950 . S
C848 C834 1.377 . S
C848 C847 1.373 . S
C849 C833 1.377 . S
C849 C847 1.389 . S
C849 C850 1.524 . S
C850 C849 1.524 . S
C850 C851 1.397 . S
C850 C855 1.363 1_455 S
C851 H822 0.950 . S
C851 C850 1.397 . S
C851 C852 1.334 . S
C852 H823 0.950 . S
C852 C851 1.334 . S
C852 C853 1.287 1_455 S
C853 C852 1.287 1_655 S
C853 C854 1.524 . S
C853 H856 0.999 . S
C854 H824 0.950 . S
C854 C853 1.524 . S
C854 C855 1.415 . S
C855 H825 0.950 . S
C855 C850 1.363 1_655 S
C855 C854 1.415 . S
H856 C853 0.999 . S
H857 C838 0.913 1_556 S
H858 C876 0.951 . S
H859 C878 0.951 . S
H860 C880 0.950 . S
H861 C881 0.950 . S
H862 C883 0.950 . S
H863 C886 0.950 . S
H864 C887 0.950 1_556 S
H865 C889 0.950 . S
H866 C890 0.950 . S
H867 C891 0.951 . S
H868 C893 0.947 1_565 S
H869 C895 0.950 . S
H870 C896 0.950 . S
H871 C898 0.950 . S
H872 C901 0.950 . S
H873 C902 0.950 . S
H874 C904 0.950 . S
H875 C905 0.950 . S
C876 H858 0.951 . S
C876 C877 1.366 . S
C876 C878 1.388 . S
C877 C876 1.366 . S
C877 C881 1.385 . S
C878 H859 0.951 . S
C878 C876 1.388 . S
C878 C879 1.366 . S
C879 C878 1.366 . S
C879 C880 1.414 . S
C879 C882 1.499 . S
C880 H860 0.950 . S
C880 C879 1.414 . S
C880 C881 1.374 . S
C881 H861 0.950 . S
C881 C877 1.385 . S
C881 C880 1.374 . S
C882 C879 1.499 . S
C882 C883 1.373 . S
C882 C884 1.389 . S
C883 H862 0.950 . S
C883 C882 1.373 . S
C883 C899 1.377 . S
C884 C882 1.389 . S
C884 C885 1.524 . S
C884 C898 1.377 . S
C885 C884 1.524 . S
C885 C886 1.397 . S
C885 C890 1.363 . S
C886 H863 0.950 . S
C886 C885 1.397 . S
C886 C887 1.334 . S
C887 H864 0.950 1_554 S
C887 C886 1.334 . S
C887 C888 1.287 1_554 S
C888 C887 1.287 1_556 S
C888 C889 1.524 . S
C888 H907 0.913 . S
C889 H865 0.950 . S
C889 C888 1.524 . S
C889 C890 1.415 1_556 S
C890 H866 0.950 . S
C890 C885 1.363 . S
C890 C889 1.415 1_554 S
C891 H867 0.951 . S
C891 C892 1.365 . S
C891 C893 1.388 1_565 S
C892 C891 1.365 . S
C892 C896 1.387 1_565 S
C893 H868 0.947 1_545 S
C893 C891 1.388 1_545 S
C893 C894 1.366 . S
C894 C893 1.366 . S
C894 C895 1.414 . S
C894 C897 1.499 . S
C895 H869 0.950 . S
C895 C894 1.414 . S
C895 C896 1.374 . S
C896 H870 0.950 . S
C896 C892 1.387 1_545 S
C896 C895 1.374 . S
C897 C894 1.499 . S
C897 C898 1.373 . S
C897 C899 1.389 . S
C898 H871 0.950 . S
C898 C884 1.377 . S
C898 C897 1.373 . S
C899 C883 1.377 . S
C899 C897 1.389 . S
C899 C900 1.524 . S
C900 C899 1.524 . S
C900 C901 1.397 . S
C900 C905 1.363 . S
C901 H872 0.950 . S
C901 C900 1.397 . S
C901 C902 1.334 . S
C902 H873 0.950 . S
C902 C901 1.334 . S
C902 C903 1.287 . S
C903 C902 1.287 . S
C903 C904 1.524 . S
C903 H906 0.999 . S
C904 H874 0.950 . S
C904 C903 1.524 . S
C904 C905 1.415 . S
C905 H875 0.950 . S
C905 C900 1.363 . S
C905 C904 1.415 . S
H906 C903 0.999 . S
H907 C888 0.913 . S
H908 C926 0.951 . S
H909 C928 0.951 . S
H910 C930 0.950 . S
H911 C931 0.950 . S
H912 C933 0.950 . S
H913 C936 0.950 . S
H914 C937 0.950 1_556 S
H915 C939 0.950 . S
H916 C940 0.950 . S
H917 C941 0.951 . S
H918 C943 0.951 . S
H919 C945 0.950 . S
H920 C946 0.950 . S
H921 C948 0.950 . S
H922 C951 0.950 . S
H923 C952 0.950 . S
H924 C954 0.950 . S
H925 C955 0.950 . S
C926 H908 0.951 . S
C926 C927 1.366 . S
C926 C928 1.388 . S
C927 C926 1.366 . S
C927 C931 1.385 . S
C928 H909 0.951 . S
C928 C926 1.388 . S
C928 C929 1.366 . S
C929 C928 1.366 . S
C929 C930 1.414 . S
C929 C932 1.499 . S
C930 H910 0.950 . S
C930 C929 1.414 . S
C930 C931 1.374 . S
C931 H911 0.950 . S
C931 C927 1.385 . S
C931 C930 1.374 . S
C932 C929 1.499 . S
C932 C933 1.373 . S
C932 C934 1.389 . S
C933 H912 0.950 . S
C933 C932 1.373 . S
C933 C949 1.377 . S
C934 C932 1.389 . S
C934 C935 1.524 . S
C934 C948 1.377 . S
C935 C934 1.524 . S
C935 C936 1.397 . S
C935 C940 1.363 . S
C936 H913 0.950 . S
C936 C935 1.397 . S
C936 C937 1.334 . S
C937 H914 0.950 1_554 S
C937 C936 1.334 . S
C937 C938 1.287 1_554 S
C938 C937 1.287 1_556 S
C938 C939 1.524 . S
C938 H957 0.913 . S
C939 H915 0.950 . S
C939 C938 1.524 . S
C939 C940 1.415 1_556 S
C940 H916 0.950 . S
C940 C935 1.363 . S
C940 C939 1.415 1_554 S
C941 H917 0.951 . S
C941 C942 1.366 . S
C941 C943 1.388 . S
C942 C941 1.366 . S
C942 C946 1.385 . S
C943 H918 0.951 . S
C943 C941 1.388 . S
C943 C944 1.366 . S
C944 C943 1.366 . S
C944 C945 1.414 . S
C944 C947 1.499 . S
C945 H919 0.950 . S
C945 C944 1.414 . S
C945 C946 1.374 . S
C946 H920 0.950 . S
C946 C942 1.385 . S
C946 C945 1.374 . S
C947 C944 1.499 . S
C947 C948 1.373 . S
C947 C949 1.389 . S
C948 H921 0.950 . S
C948 C934 1.377 . S
C948 C947 1.373 . S
C949 C933 1.377 . S
C949 C947 1.389 . S
C949 C950 1.524 . S
C950 C949 1.524 . S
C950 C951 1.397 . S
C950 C955 1.363 . S
C951 H922 0.950 . S
C951 C950 1.397 . S
C951 C952 1.334 . S
C952 H923 0.950 . S
C952 C951 1.334 . S
C952 C953 1.287 . S
C953 C952 1.287 . S
C953 C954 1.524 . S
C953 H956 0.999 . S
C954 H924 0.950 . S
C954 C953 1.524 . S
C954 C955 1.415 . S
C955 H925 0.950 . S
C955 C950 1.363 . S
C955 C954 1.415 . S
H956 C953 0.999 . S
H957 C938 0.913 . S
H958 C976 0.951 . S
H959 C978 0.951 . S
H960 C980 0.950 . S
H961 C981 0.950 . S
H962 C983 0.950 . S
H963 C986 0.950 . S
H964 C987 0.950 . S
H965 C989 0.950 . S
H966 C990 0.950 . S
H967 C991 0.951 . S
H968 C993 0.951 . S
H969 C995 0.950 . S
H970 C996 0.950 . S
H971 C998 0.950 . S
H972 C1001 0.950 . S
H973 C1002 0.950 . S
H974 C1004 0.950 . S
H975 C1005 0.950 . S
C976 H958 0.951 . S
C976 C977 1.366 . S
C976 C978 1.388 . S
C977 C976 1.366 . S
C977 C981 1.385 . S
C978 H959 0.951 . S
C978 C976 1.388 . S
C978 C979 1.366 . S
C979 C978 1.366 . S
C979 C980 1.414 . S
C979 C982 1.499 . S
C980 H960 0.950 . S
C980 C979 1.414 . S
C980 C981 1.374 . S
C981 H961 0.950 . S
C981 C977 1.385 . S
C981 C980 1.374 . S
C982 C979 1.499 . S
C982 C983 1.373 . S
C982 C984 1.389 . S
C983 H962 0.950 . S
C983 C982 1.373 . S
C983 C999 1.377 . S
C984 C982 1.389 . S
C984 C985 1.524 . S
C984 C998 1.377 . S
C985 C984 1.524 . S
C985 C986 1.397 . S
C985 C990 1.363 . S
C986 H963 0.950 . S
C986 C985 1.397 . S
C986 C987 1.334 . S
C987 H964 0.950 . S
C987 C986 1.334 . S
C987 C988 1.287 . S
C988 C987 1.287 . S
C988 C989 1.524 . S
C988 H1007 0.913 . S
C989 H965 0.950 . S
C989 C988 1.524 . S
C989 C990 1.415 . S
C990 H966 0.950 . S
C990 C985 1.363 . S
C990 C989 1.415 . S
C991 H967 0.951 . S
C991 C992 1.366 . S
C991 C993 1.388 . S
C992 C991 1.366 . S
C992 C996 1.385 . S
C993 H968 0.951 . S
C993 C991 1.388 . S
C993 C994 1.366 . S
C994 C993 1.366 . S
C994 C995 1.414 . S
C994 C997 1.499 . S
C995 H969 0.950 . S
C995 C994 1.414 . S
C995 C996 1.374 . S
C996 H970 0.950 . S
C996 C992 1.385 . S
C996 C995 1.374 . S
C997 C994 1.499 . S
C997 C998 1.373 . S
C997 C999 1.389 . S
C998 H971 0.950 . S
C998 C984 1.377 . S
C998 C997 1.373 . S
C999 C983 1.377 . S
C999 C997 1.389 . S
C999 C1000 1.524 . S
C1000 C999 1.524 . S
C1000 C1001 1.397 . S
C1000 C1005 1.363 . S
C1001 H972 0.950 . S
C1001 C1000 1.397 . S
C1001 C1002 1.334 . S
C1002 H973 0.950 . S
C1002 C1001 1.334 . S
C1002 C1003 1.287 . S
C1003 C1002 1.287 . S
C1003 C1004 1.524 . S
C1003 H1006 0.999 . S
C1004 H974 0.950 . S
C1004 C1003 1.524 . S
C1004 C1005 1.415 . S
C1005 H975 0.950 . S
C1005 C1000 1.363 . S
C1005 C1004 1.415 . S
H1006 C1003 0.999 . S
H1007 C988 0.913 . S
H1008 C1026 0.951 . S
H1009 C1028 0.951 . S
H1010 C1030 0.950 . S
H1011 C1031 0.950 . S
H1012 C1033 0.950 . S
H1013 C1036 0.950 . S
H1014 C1037 0.950 . S
H1015 C1039 0.950 . S
H1016 C1040 0.950 . S
H1017 C1041 0.951 . S
H1018 C1043 0.951 . S
H1019 C1045 0.950 . S
H1020 C1046 0.950 . S
H1021 C1048 0.950 . S
H1022 C1051 0.950 1_455 S
H1023 C1052 0.950 . S
H1024 C1054 0.950 . S
H1025 C1055 0.950 . S
C1026 H1008 0.951 . S
C1026 C1027 1.366 . S
C1026 C1028 1.388 . S
C1027 C1026 1.366 . S
C1027 C1031 1.385 . S
C1028 H1009 0.951 . S
C1028 C1026 1.388 . S
C1028 C1029 1.366 . S
C1029 C1028 1.366 . S
C1029 C1030 1.414 . S
C1029 C1032 1.499 . S
C1030 H1010 0.950 . S
C1030 C1029 1.414 . S
C1030 C1031 1.374 . S
C1031 H1011 0.950 . S
C1031 C1027 1.385 . S
C1031 C1030 1.374 . S
C1032 C1029 1.499 . S
C1032 C1033 1.373 1_554 S
C1032 C1034 1.389 . S
C1033 H1012 0.950 . S
C1033 C1032 1.373 1_556 S
C1033 C1049 1.377 . S
C1034 C1032 1.389 . S
C1034 C1035 1.524 . S
C1034 C1048 1.377 . S
C1035 C1034 1.524 . S
C1035 C1036 1.397 . S
C1035 C1040 1.363 . S
C1036 H1013 0.950 . S
C1036 C1035 1.397 . S
C1036 C1037 1.334 . S
C1037 H1014 0.950 . S
C1037 C1036 1.334 . S
C1037 C1038 1.287 . S
C1038 C1037 1.287 . S
C1038 C1039 1.524 . S
C1038 H1057 0.913 . S
C1039 H1015 0.950 . S
C1039 C1038 1.524 . S
C1039 C1040 1.415 . S
C1040 H1016 0.950 . S
C1040 C1035 1.363 . S
C1040 C1039 1.415 . S
C1041 H1017 0.951 . S
C1041 C1042 1.366 1_655 S
C1041 C1043 1.388 . S
C1042 C1041 1.366 1_455 S
C1042 C1046 1.385 . S
C1043 H1018 0.951 . S
C1043 C1041 1.388 . S
C1043 C1044 1.366 . S
C1044 C1043 1.366 . S
C1044 C1045 1.414 1_655 S
C1044 C1047 1.499 . S
C1045 H1019 0.950 . S
C1045 C1044 1.414 1_455 S
C1045 C1046 1.374 . S
C1046 H1020 0.950 . S
C1046 C1042 1.385 . S
C1046 C1045 1.374 . S
C1047 C1044 1.499 . S
C1047 C1048 1.373 1_556 S
C1047 C1049 1.389 . S
C1048 H1021 0.950 . S
C1048 C1034 1.377 . S
C1048 C1047 1.373 1_554 S
C1049 C1033 1.377 . S
C1049 C1047 1.389 . S
C1049 C1050 1.524 . S
C1050 C1049 1.524 . S
C1050 C1051 1.397 . S
C1050 C1055 1.363 . S
C1051 H1022 0.950 1_655 S
C1051 C1050 1.397 . S
C1051 C1052 1.334 1_655 S
C1052 H1023 0.950 . S
C1052 C1051 1.334 1_455 S
C1052 C1053 1.287 1_455 S
C1053 C1052 1.287 1_655 S
C1053 C1054 1.524 . S
C1053 H1056 0.999 . S
C1054 H1024 0.950 . S
C1054 C1053 1.524 . S
C1054 C1055 1.415 . S
C1055 H1025 0.950 . S
C1055 C1050 1.363 . S
C1055 C1054 1.415 . S
H1056 C1053 0.999 . S
H1057 C1038 0.913 . S
H1058 C1076 0.951 . S
H1059 C1078 0.951 . S
H1060 C1080 0.950 . S
H1061 C1081 0.950 . S
H1062 C1083 0.950 . S
H1063 C1086 0.950 . S
H1064 C1087 0.950 . S
H1065 C1089 0.950 . S
H1066 C1090 0.950 . S
H1067 C1091 0.951 . S
H1068 C1093 0.951 . S
H1069 C1095 0.950 . S
H1070 C1096 0.950 . S
H1071 C1098 0.950 . S
H1072 C1101 0.950 . S
H1073 C1102 0.950 . S
H1074 C1104 0.950 . S
H1075 C1105 0.950 . S
C1076 H1058 0.951 . S
C1076 C1077 1.366 . S
C1076 C1078 1.388 . S
C1077 C1076 1.366 . S
C1077 C1081 1.385 . S
C1078 H1059 0.951 . S
C1078 C1076 1.388 . S
C1078 C1079 1.366 . S
C1079 C1078 1.366 . S
C1079 C1080 1.414 . S
C1079 C1082 1.499 . S
C1080 H1060 0.950 . S
C1080 C1079 1.414 . S
C1080 C1081 1.374 . S
C1081 H1061 0.950 . S
C1081 C1077 1.385 . S
C1081 C1080 1.374 . S
C1082 C1079 1.499 . S
C1082 C1083 1.373 . S
C1082 C1084 1.389 1_554 S
C1083 H1062 0.950 . S
C1083 C1082 1.373 . S
C1083 C1099 1.377 . S
C1084 C1082 1.389 1_556 S
C1084 C1085 1.524 . S
C1084 C1098 1.377 . S
C1085 C1084 1.524 . S
C1085 C1086 1.397 . S
C1085 C1090 1.363 . S
C1086 H1063 0.950 . S
C1086 C1085 1.397 . S
C1086 C1087 1.334 . S
C1087 H1064 0.950 . S
C1087 C1086 1.334 . S
C1087 C1088 1.287 . S
C1088 C1087 1.287 . S
C1088 C1089 1.524 . S
C1088 H1107 0.913 . S
C1089 H1065 0.950 . S
C1089 C1088 1.524 . S
C1089 C1090 1.415 . S
C1090 H1066 0.950 . S
C1090 C1085 1.363 . S
C1090 C1089 1.415 . S
C1091 H1067 0.951 . S
C1091 C1092 1.366 . S
C1091 C1093 1.388 . S
C1092 C1091 1.366 . S
C1092 C1096 1.385 1_545 S
C1093 H1068 0.951 . S
C1093 C1091 1.388 . S
C1093 C1094 1.366 1_545 S
C1094 C1093 1.366 1_565 S
C1094 C1095 1.414 . S
C1094 C1097 1.499 . S
C1095 H1069 0.950 . S
C1095 C1094 1.414 . S
C1095 C1096 1.374 . S
C1096 H1070 0.950 . S
C1096 C1092 1.385 1_565 S
C1096 C1095 1.374 . S
C1097 C1094 1.499 . S
C1097 C1098 1.373 . S
C1097 C1099 1.389 1_556 S
C1098 H1071 0.950 . S
C1098 C1084 1.377 . S
C1098 C1097 1.373 . S
C1099 C1083 1.377 . S
C1099 C1097 1.389 1_554 S
C1099 C1100 1.524 . S
C1100 C1099 1.524 . S
C1100 C1101 1.397 . S
C1100 C1105 1.363 1_565 S
C1101 H1072 0.950 . S
C1101 C1100 1.397 . S
C1101 C1102 1.334 . S
C1102 H1073 0.950 . S
C1102 C1101 1.334 . S
C1102 C1103 1.287 . S
C1103 C1102 1.287 . S
C1103 C1104 1.524 1_565 S
C1103 H1106 0.999 1_565 S
C1104 H1074 0.950 . S
C1104 C1103 1.524 1_545 S
C1104 C1105 1.415 . S
C1105 H1075 0.950 . S
C1105 C1100 1.363 1_545 S
C1105 C1104 1.415 . S
H1106 C1103 0.999 1_545 S
H1107 C1088 0.913 . S
H1108 C1126 0.951 . S
H1109 C1128 0.951 . S
H1110 C1130 0.950 . S
H1111 C1131 0.950 . S
H1112 C1133 0.950 . S
H1113 C1136 0.950 . S
H1114 C1137 0.950 . S
H1115 C1139 0.950 . S
H1116 C1140 0.950 . S
H1117 C1141 0.951 . S
H1118 C1143 0.951 . S
H1119 C1145 0.950 . S
H1120 C1146 0.950 . S
H1121 C1148 0.950 . S
H1122 C1151 0.950 . S
H1123 C1152 0.950 . S
H1124 C1154 0.950 . S
H1125 C1155 0.950 . S
C1126 H1108 0.951 . S
C1126 C1127 1.366 . S
C1126 C1128 1.388 . S
C1127 C1126 1.366 . S
C1127 C1131 1.385 . S
C1128 H1109 0.951 . S
C1128 C1126 1.388 . S
C1128 C1129 1.366 . S
C1129 C1128 1.366 . S
C1129 C1130 1.414 . S
C1129 C1132 1.499 . S
C1130 H1110 0.950 . S
C1130 C1129 1.414 . S
C1130 C1131 1.374 . S
C1131 H1111 0.950 . S
C1131 C1127 1.385 . S
C1131 C1130 1.374 . S
C1132 C1129 1.499 . S
C1132 C1133 1.373 1_554 S
C1132 C1134 1.389 . S
C1133 H1112 0.950 . S
C1133 C1132 1.373 1_556 S
C1133 C1149 1.377 . S
C1134 C1132 1.389 . S
C1134 C1135 1.524 . S
C1134 C1148 1.377 . S
C1135 C1134 1.524 . S
C1135 C1136 1.397 . S
C1135 C1140 1.363 . S
C1136 H1113 0.950 . S
C1136 C1135 1.397 . S
C1136 C1137 1.334 . S
C1137 H1114 0.950 . S
C1137 C1136 1.334 . S
C1137 C1138 1.287 . S
C1138 C1137 1.287 . S
C1138 C1139 1.524 . S
C1138 H1157 0.913 . S
C1139 H1115 0.950 . S
C1139 C1138 1.524 . S
C1139 C1140 1.415 . S
C1140 H1116 0.950 . S
C1140 C1135 1.363 . S
C1140 C1139 1.415 . S
C1141 H1117 0.951 . S
C1141 C1142 1.366 . S
C1141 C1143 1.388 . S
C1142 C1141 1.366 . S
C1142 C1146 1.385 . S
C1143 H1118 0.951 . S
C1143 C1141 1.388 . S
C1143 C1144 1.366 . S
C1144 C1143 1.366 . S
C1144 C1145 1.414 . S
C1144 C1147 1.499 . S
C1145 H1119 0.950 . S
C1145 C1144 1.414 . S
C1145 C1146 1.374 . S
C1146 H1120 0.950 . S
C1146 C1142 1.385 . S
C1146 C1145 1.374 . S
C1147 C1144 1.499 . S
C1147 C1148 1.373 1_556 S
C1147 C1149 1.389 . S
C1148 H1121 0.950 . S
C1148 C1134 1.377 . S
C1148 C1147 1.373 1_554 S
C1149 C1133 1.377 . S
C1149 C1147 1.389 . S
C1149 C1150 1.524 . S
C1150 C1149 1.524 . S
C1150 C1151 1.397 . S
C1150 C1155 1.363 . S
C1151 H1122 0.950 . S
C1151 C1150 1.397 . S
C1151 C1152 1.334 . S
C1152 H1123 0.950 . S
C1152 C1151 1.334 . S
C1152 C1153 1.287 . S
C1153 C1152 1.287 . S
C1153 C1154 1.524 . S
C1153 H1156 0.999 . S
C1154 H1124 0.950 . S
C1154 C1153 1.524 . S
C1154 C1155 1.415 . S
C1155 H1125 0.950 . S
C1155 C1150 1.363 . S
C1155 C1154 1.415 . S
H1156 C1153 0.999 . S
H1157 C1138 0.913 . S
H1158 C1176 0.951 . S
H1159 C1178 0.951 . S
H1160 C1180 0.950 . S
H1161 C1181 0.950 . S
H1162 C1183 0.950 . S
H1163 C1186 0.950 . S
H1164 C1187 0.950 . S
H1165 C1189 0.950 . S
H1166 C1190 0.950 . S
H1167 C1191 0.951 . S
H1168 C1193 0.951 . S
H1169 C1195 0.950 . S
H1170 C1196 0.950 . S
H1171 C1198 0.950 . S
H1172 C1201 0.950 . S
H1173 C1202 0.950 . S
H1174 C1204 0.950 . S
H1175 C1205 0.950 . S
C1176 H1158 0.951 . S
C1176 C1177 1.366 . S
C1176 C1178 1.388 . S
C1177 C1176 1.366 . S
C1177 C1181 1.385 . S
C1178 H1159 0.951 . S
C1178 C1176 1.388 . S
C1178 C1179 1.366 . S
C1179 C1178 1.366 . S
C1179 C1180 1.414 . S
C1179 C1182 1.499 . S
C1180 H1160 0.950 . S
C1180 C1179 1.414 . S
C1180 C1181 1.374 . S
C1181 H1161 0.950 . S
C1181 C1177 1.385 . S
C1181 C1180 1.374 . S
C1182 C1179 1.499 . S
C1182 C1183 1.373 1_554 S
C1182 C1184 1.389 . S
C1183 H1162 0.950 . S
C1183 C1182 1.373 1_556 S
C1183 C1199 1.377 . S
C1184 C1182 1.389 . S
C1184 C1185 1.524 . S
C1184 C1198 1.377 . S
C1185 C1184 1.524 . S
C1185 C1186 1.397 . S
C1185 C1190 1.363 . S
C1186 H1163 0.950 . S
C1186 C1185 1.397 . S
C1186 C1187 1.334 . S
C1187 H1164 0.950 . S
C1187 C1186 1.334 . S
C1187 C1188 1.287 . S
C1188 C1187 1.287 . S
C1188 C1189 1.524 . S
C1188 H1207 0.913 . S
C1189 H1165 0.950 . S
C1189 C1188 1.524 . S
C1189 C1190 1.415 . S
C1190 H1166 0.950 . S
C1190 C1185 1.363 . S
C1190 C1189 1.415 . S
C1191 H1167 0.951 . S
C1191 C1192 1.366 . S
C1191 C1193 1.388 . S
C1192 C1191 1.366 . S
C1192 C1196 1.385 . S
C1193 H1168 0.951 . S
C1193 C1191 1.388 . S
C1193 C1194 1.366 . S
C1194 C1193 1.366 . S
C1194 C1195 1.414 . S
C1194 C1197 1.499 . S
C1195 H1169 0.950 . S
C1195 C1194 1.414 . S
C1195 C1196 1.374 . S
C1196 H1170 0.950 . S
C1196 C1192 1.385 . S
C1196 C1195 1.374 . S
C1197 C1194 1.499 . S
C1197 C1198 1.373 1_556 S
C1197 C1199 1.389 . S
C1198 H1171 0.950 . S
C1198 C1184 1.377 . S
C1198 C1197 1.373 1_554 S
C1199 C1183 1.377 . S
C1199 C1197 1.389 . S
C1199 C1200 1.524 . S
C1200 C1199 1.524 . S
C1200 C1201 1.397 . S
C1200 C1205 1.363 . S
C1201 H1172 0.950 . S
C1201 C1200 1.397 . S
C1201 C1202 1.334 . S
C1202 H1173 0.950 . S
C1202 C1201 1.334 . S
C1202 C1203 1.287 . S
C1203 C1202 1.287 . S
C1203 C1204 1.524 . S
C1203 H1206 0.999 . S
C1204 H1174 0.950 . S
C1204 C1203 1.524 . S
C1204 C1205 1.415 . S
C1205 H1175 0.950 . S
C1205 C1200 1.363 . S
C1205 C1204 1.415 . S
H1206 C1203 0.999 . S
H1207 C1188 0.913 . S
H1208 C1226 0.951 . S
H1209 C1228 0.951 . S
H1210 C1230 0.950 . S
H1211 C1231 0.950 . S
H1212 C1233 0.950 . S
H1213 C1236 0.950 . S
H1214 C1237 0.950 . S
H1215 C1239 0.950 . S
H1216 C1240 0.950 . S
H1217 C1241 0.956 . S
H1218 C1243 0.951 . S
H1219 C1245 0.950 . S
H1220 C1246 0.950 . S
H1221 C1248 0.950 . S
H1222 C1251 0.950 . S
H1223 C1252 0.950 . S
H1224 C1254 0.950 1_554 S
H1225 C1255 0.950 . S
C1226 H1208 0.951 . S
C1226 C1227 1.366 . S
C1226 C1228 1.388 . S
C1227 C1226 1.366 . S
C1227 C1231 1.385 . S
C1228 H1209 0.951 . S
C1228 C1226 1.388 . S
C1228 C1229 1.366 . S
C1229 C1228 1.366 . S
C1229 C1230 1.414 . S
C1229 C1232 1.499 . S
C1230 H1210 0.950 . S
C1230 C1229 1.414 . S
C1230 C1231 1.374 . S
C1231 H1211 0.950 . S
C1231 C1227 1.385 . S
C1231 C1230 1.374 . S
C1232 C1229 1.499 . S
C1232 C1233 1.373 . S
C1232 C1234 1.389 . S
C1233 H1212 0.950 . S
C1233 C1232 1.373 . S
C1233 C1249 1.377 . S
C1234 C1232 1.389 . S
C1234 C1235 1.524 . S
C1234 C1248 1.377 . S
C1235 C1234 1.524 . S
C1235 C1236 1.397 . S
C1235 C1240 1.363 . S
C1236 H1213 0.950 . S
C1236 C1235 1.397 . S
C1236 C1237 1.334 . S
C1237 H1214 0.950 . S
C1237 C1236 1.334 . S
C1237 C1238 1.287 . S
C1238 C1237 1.287 . S
C1238 C1239 1.524 . S
C1238 H1257 0.913 . S
C1239 H1215 0.950 . S
C1239 C1238 1.524 . S
C1239 C1240 1.415 . S
C1240 H1216 0.950 . S
C1240 C1235 1.363 . S
C1240 C1239 1.415 . S
C1241 H1217 0.956 . S
C1241 C1242 1.366 . S
C1241 C1243 1.388 . S
C1242 C1241 1.366 . S
C1242 C1246 1.385 . S
C1243 H1218 0.951 . S
C1243 C1241 1.388 . S
C1243 C1244 1.366 . S
C1244 C1243 1.366 . S
C1244 C1245 1.414 . S
C1244 C1247 1.499 . S
C1245 H1219 0.950 . S
C1245 C1244 1.414 . S
C1245 C1246 1.374 . S
C1246 H1220 0.950 . S
C1246 C1242 1.385 . S
C1246 C1245 1.374 . S
C1247 C1244 1.499 . S
C1247 C1248 1.373 . S
C1247 C1249 1.389 . S
C1248 H1221 0.950 . S
C1248 C1234 1.377 . S
C1248 C1247 1.373 . S
C1249 C1233 1.377 . S
C1249 C1247 1.389 . S
C1249 C1250 1.524 . S
C1250 C1249 1.524 . S
C1250 C1251 1.397 . S
C1250 C1255 1.363 . S
C1251 H1222 0.950 . S
C1251 C1250 1.397 . S
C1251 C1252 1.334 . S
C1252 H1223 0.950 . S
C1252 C1251 1.334 . S
C1252 C1253 1.287 . S
C1253 C1252 1.287 . S
C1253 C1254 1.524 . S
C1253 H1256 0.999 1_556 S
C1254 H1224 0.950 1_556 S
C1254 C1253 1.524 . S
C1254 C1255 1.415 . S
C1255 H1225 0.950 . S
C1255 C1250 1.363 . S
C1255 C1254 1.415 . S
H1256 C1253 0.999 1_554 S
H1257 C1238 0.913 . S
H1258 C1276 0.951 . S
H1259 C1278 0.951 . S
H1260 C1280 0.950 . S
H1261 C1281 0.950 . S
H1262 C1283 0.950 . S
H1263 C1286 0.950 . S
H1264 C1287 0.950 . S
H1265 C1289 0.950 1_554 S
H1266 C1290 0.950 1_565 S
H1267 C1291 0.951 . S
H1268 C1293 0.951 . S
H1269 C1295 0.950 . S
H1270 C1296 0.950 1_565 S
H1271 C1298 0.950 . S
H1272 C1301 0.950 . S
H1273 C1302 0.950 . S
H1274 C1304 0.950 . S
H1275 C1305 0.950 . S
C1276 H1258 0.951 . S
C1276 C1277 1.366 . S
C1276 C1278 1.388 . S
C1277 C1276 1.366 . S
C1277 C1281 1.385 . S
C1278 H1259 0.951 . S
C1278 C1276 1.388 . S
C1278 C1279 1.366 . S
C1279 C1278 1.366 . S
C1279 C1280 1.414 . S
C1279 C1282 1.499 . S
C1280 H1260 0.950 . S
C1280 C1279 1.414 . S
C1280 C1281 1.374 . S
C1281 H1261 0.950 . S
C1281 C1277 1.385 . S
C1281 C1280 1.374 . S
C1282 C1279 1.499 . S
C1282 C1283 1.373 . S
C1282 C1284 1.389 . S
C1283 H1262 0.950 . S
C1283 C1282 1.373 . S
C1283 C1299 1.377 . S
C1284 C1282 1.389 . S
C1284 C1285 1.524 . S
C1284 C1298 1.377 . S
C1285 C1284 1.524 . S
C1285 C1286 1.397 . S
C1285 C1290 1.363 . S
C1286 H1263 0.950 . S
C1286 C1285 1.397 . S
C1286 C1287 1.334 1_556 S
C1287 H1264 0.950 . S
C1287 C1286 1.334 1_554 S
C1287 C1288 1.287 . S
C1288 C1287 1.287 . S
C1288 C1289 1.524 1_544 S
C1288 H1307 0.913 . S
C1289 H1265 0.950 1_556 S
C1289 C1288 1.524 1_566 S
C1289 C1290 1.415 1_565 S
C1290 H1266 0.950 1_545 S
C1290 C1285 1.363 . S
C1290 C1289 1.415 1_545 S
C1291 H1267 0.951 . S
C1291 C1292 1.366 . S
C1291 C1293 1.388 . S
C1292 C1291 1.366 . S
C1292 C1296 1.385 . S
C1293 H1268 0.951 . S
C1293 C1291 1.388 . S
C1293 C1294 1.366 . S
C1294 C1293 1.366 . S
C1294 C1295 1.414 . S
C1294 C1297 1.499 . S
C1295 H1269 0.950 . S
C1295 C1294 1.414 . S
C1295 C1296 1.374 . S
C1296 H1270 0.950 1_545 S
C1296 C1292 1.385 . S
C1296 C1295 1.374 . S
C1297 C1294 1.499 . S
C1297 C1298 1.373 . S
C1297 C1299 1.389 . S
C1298 H1271 0.950 . S
C1298 C1284 1.377 . S
C1298 C1297 1.373 . S
C1299 C1283 1.377 . S
C1299 C1297 1.389 . S
C1299 C1300 1.524 . S
C1300 C1299 1.524 . S
C1300 C1301 1.397 . S
C1300 C1305 1.363 . S
C1301 H1272 0.950 . S
C1301 C1300 1.397 . S
C1301 C1302 1.334 . S
C1302 H1273 0.950 . S
C1302 C1301 1.334 . S
C1302 C1303 1.287 . S
C1303 C1302 1.287 . S
C1303 C1304 1.524 . S
C1303 H1306 0.999 . S
C1304 H1274 0.950 . S
C1304 C1303 1.524 . S
C1304 C1305 1.415 . S
C1305 H1275 0.950 . S
C1305 C1300 1.363 . S
C1305 C1304 1.415 . S
H1306 C1303 0.999 . S
H1307 C1288 0.913 . S
H1308 C1326 0.951 . S
H1309 C1328 0.951 . S
H1310 C1330 0.950 . S
H1311 C1331 0.950 . S
H1312 C1333 0.950 . S
H1313 C1336 0.950 . S
H1314 C1337 0.950 . S
H1315 C1339 0.950 . S
H1316 C1340 0.950 . S
H1317 C1341 0.951 . S
H1318 C1343 0.951 . S
H1319 C1345 0.950 . S
H1320 C1346 0.950 . S
H1321 C1348 0.950 . S
H1322 C1351 0.950 . S
H1323 C1352 0.950 . S
H1324 C1354 0.950 . S
H1325 C1355 0.950 . S
C1326 H1308 0.951 . S
C1326 C1327 1.366 . S
C1326 C1328 1.388 . S
C1327 C1326 1.366 . S
C1327 C1331 1.385 . S
C1328 H1309 0.951 . S
C1328 C1326 1.388 . S
C1328 C1329 1.366 . S
C1329 C1328 1.366 . S
C1329 C1330 1.414 . S
C1329 C1332 1.499 . S
C1330 H1310 0.950 . S
C1330 C1329 1.414 . S
C1330 C1331 1.374 . S
C1331 H1311 0.950 . S
C1331 C1327 1.385 . S
C1331 C1330 1.374 . S
C1332 C1329 1.499 . S
C1332 C1333 1.373 . S
C1332 C1334 1.389 . S
C1333 H1312 0.950 . S
C1333 C1332 1.373 . S
C1333 C1349 1.377 . S
C1334 C1332 1.389 . S
C1334 C1335 1.524 . S
C1334 C1348 1.377 . S
C1335 C1334 1.524 . S
C1335 C1336 1.397 . S
C1335 C1340 1.363 . S
C1336 H1313 0.950 . S
C1336 C1335 1.397 . S
C1336 C1337 1.334 . S
C1337 H1314 0.950 . S
C1337 C1336 1.334 . S
C1337 C1338 1.287 . S
C1338 C1337 1.287 . S
C1338 C1339 1.524 . S
C1338 H1357 0.913 . S
C1339 H1315 0.950 . S
C1339 C1338 1.524 . S
C1339 C1340 1.415 . S
C1340 H1316 0.950 . S
C1340 C1335 1.363 . S
C1340 C1339 1.415 . S
C1341 H1317 0.951 . S
C1341 C1342 1.366 . S
C1341 C1343 1.388 . S
C1342 C1341 1.366 . S
C1342 C1346 1.385 . S
C1343 H1318 0.951 . S
C1343 C1341 1.388 . S
C1343 C1344 1.366 . S
C1344 C1343 1.366 . S
C1344 C1345 1.414 . S
C1344 C1347 1.499 . S
C1345 H1319 0.950 . S
C1345 C1344 1.414 . S
C1345 C1346 1.374 . S
C1346 H1320 0.950 . S
C1346 C1342 1.385 . S
C1346 C1345 1.374 . S
C1347 C1344 1.499 . S
C1347 C1348 1.373 . S
C1347 C1349 1.389 . S
C1348 H1321 0.950 . S
C1348 C1334 1.377 . S
C1348 C1347 1.373 . S
C1349 C1333 1.377 . S
C1349 C1347 1.389 . S
C1349 C1350 1.524 . S
C1350 C1349 1.524 . S
C1350 C1351 1.397 . S
C1350 C1355 1.363 . S
C1351 H1322 0.950 . S
C1351 C1350 1.397 . S
C1351 C1352 1.334 . S
C1352 H1323 0.950 . S
C1352 C1351 1.334 . S
C1352 C1353 1.287 . S
C1353 C1352 1.287 . S
C1353 C1354 1.524 . S
C1353 H1356 0.999 . S
C1354 H1324 0.950 . S
C1354 C1353 1.524 . S
C1354 C1355 1.415 . S
C1355 H1325 0.950 . S
C1355 C1350 1.363 . S
C1355 C1354 1.415 . S
H1356 C1353 0.999 . S
H1357 C1338 0.913 . S
H1358 C1376 0.951 . S
H1359 C1378 0.951 . S
H1360 C1380 0.950 . S
H1361 C1381 0.950 . S
H1362 C1383 0.950 . S
H1363 C1386 0.950 . S
H1364 C1387 0.950 . S
H1365 C1389 0.950 . S
H1366 C1390 0.950 . S
H1367 C1391 0.951 . S
H1368 C1393 0.951 . S
H1369 C1395 0.950 . S
H1370 C1396 0.950 . S
H1371 C1398 0.950 . S
H1372 C1401 0.950 . S
H1373 C1402 0.950 . S
H1374 C1404 0.950 1_554 S
H1375 C1405 0.950 . S
C1376 H1358 0.951 . S
C1376 C1377 1.366 . S
C1376 C1378 1.388 . S
C1377 C1376 1.366 . S
C1377 C1381 1.385 . S
C1378 H1359 0.951 . S
C1378 C1376 1.388 . S
C1378 C1379 1.366 . S
C1379 C1378 1.366 . S
C1379 C1380 1.414 . S
C1379 C1382 1.499 . S
C1380 H1360 0.950 . S
C1380 C1379 1.414 . S
C1380 C1381 1.374 . S
C1381 H1361 0.950 . S
C1381 C1377 1.385 . S
C1381 C1380 1.374 . S
C1382 C1379 1.499 . S
C1382 C1383 1.373 . S
C1382 C1384 1.389 . S
C1383 H1362 0.950 . S
C1383 C1382 1.373 . S
C1383 C1399 1.377 . S
C1384 C1382 1.389 . S
C1384 C1385 1.524 . S
C1384 C1398 1.377 . S
C1385 C1384 1.524 . S
C1385 C1386 1.397 . S
C1385 C1390 1.363 . S
C1386 H1363 0.950 . S
C1386 C1385 1.397 . S
C1386 C1387 1.334 . S
C1387 H1364 0.950 . S
C1387 C1386 1.334 . S
C1387 C1388 1.287 . S
C1388 C1387 1.287 . S
C1388 C1389 1.524 . S
C1388 H1407 0.913 . S
C1389 H1365 0.950 . S
C1389 C1388 1.524 . S
C1389 C1390 1.415 . S
C1390 H1366 0.950 . S
C1390 C1385 1.363 . S
C1390 C1389 1.415 . S
C1391 H1367 0.951 . S
C1391 C1392 1.366 . S
C1391 C1393 1.388 . S
C1392 C1391 1.366 . S
C1392 C1396 1.385 . S
C1393 H1368 0.951 . S
C1393 C1391 1.388 . S
C1393 C1394 1.366 . S
C1394 C1393 1.366 . S
C1394 C1395 1.414 . S
C1394 C1397 1.499 . S
C1395 H1369 0.950 . S
C1395 C1394 1.414 . S
C1395 C1396 1.374 . S
C1396 H1370 0.950 . S
C1396 C1392 1.385 . S
C1396 C1395 1.374 . S
C1397 C1394 1.499 . S
C1397 C1398 1.373 . S
C1397 C1399 1.389 . S
C1398 H1371 0.950 . S
C1398 C1384 1.377 . S
C1398 C1397 1.373 . S
C1399 C1383 1.377 . S
C1399 C1397 1.389 . S
C1399 C1400 1.524 . S
C1400 C1399 1.524 . S
C1400 C1401 1.397 . S
C1400 C1405 1.363 . S
C1401 H1372 0.950 . S
C1401 C1400 1.397 . S
C1401 C1402 1.334 . S
C1402 H1373 0.950 . S
C1402 C1401 1.334 . S
C1402 C1403 1.287 . S
C1403 C1402 1.287 . S
C1403 C1404 1.524 . S
C1403 H1406 0.999 1_556 S
C1404 H1374 0.950 1_556 S
C1404 C1403 1.524 . S
C1404 C1405 1.415 . S
C1405 H1375 0.950 . S
C1405 C1400 1.363 . S
C1405 C1404 1.415 . S
H1406 C1403 0.999 1_554 S
H1407 C1388 0.913 . S
H1408 C1426 0.951 . S
H1409 C1428 0.951 . S
H1410 C1430 0.950 . S
H1411 C1431 0.950 . S
H1412 C1433 0.950 . S
H1413 C1436 0.950 . S
H1414 C1437 0.950 . S
H1415 C1439 0.950 . S
H1416 C1440 0.950 . S
H1417 C1441 0.951 . S
H1418 C1443 0.951 . S
H1419 C1445 0.950 . S
H1420 C1446 0.950 . S
H1421 C1448 0.950 . S
H1422 C1451 0.950 . S
H1423 C1452 0.950 . S
H1424 C1454 0.950 . S
H1425 C1455 0.950 . S
C1426 H1408 0.951 . S
C1426 C1427 1.366 . S
C1426 C1428 1.388 . S
C1427 C1426 1.366 . S
C1427 C1431 1.385 . S
C1428 H1409 0.951 . S
C1428 C1426 1.388 . S
C1428 C1429 1.366 . S
C1429 C1428 1.366 . S
C1429 C1430 1.414 . S
C1429 C1432 1.499 . S
C1430 H1410 0.950 . S
C1430 C1429 1.414 . S
C1430 C1431 1.374 . S
C1431 H1411 0.950 . S
C1431 C1427 1.385 . S
C1431 C1430 1.374 . S
C1432 C1429 1.499 . S
C1432 C1433 1.373 . S
C1432 C1434 1.389 . S
C1433 H1412 0.950 . S
C1433 C1432 1.373 . S
C1433 C1449 1.377 . S
C1434 C1432 1.389 . S
C1434 C1435 1.524 . S
C1434 C1448 1.377 . S
C1435 C1434 1.524 . S
C1435 C1436 1.397 . S
C1435 C1440 1.363 . S
C1436 H1413 0.950 . S
C1436 C1435 1.397 . S
C1436 C1437 1.334 . S
C1437 H1414 0.950 . S
C1437 C1436 1.334 . S
C1437 C1438 1.287 . S
C1438 C1437 1.287 . S
C1438 C1439 1.524 . S
C1438 H1457 0.913 . S
C1439 H1415 0.950 . S
C1439 C1438 1.524 . S
C1439 C1440 1.415 . S
C1440 H1416 0.950 . S
C1440 C1435 1.363 . S
C1440 C1439 1.415 . S
C1441 H1417 0.951 . S
C1441 C1442 1.366 . S
C1441 C1443 1.388 . S
C1442 C1441 1.366 . S
C1442 C1446 1.385 . S
C1443 H1418 0.951 . S
C1443 C1441 1.388 . S
C1443 C1444 1.366 . S
C1444 C1443 1.366 . S
C1444 C1445 1.414 . S
C1444 C1447 1.499 . S
C1445 H1419 0.950 . S
C1445 C1444 1.414 . S
C1445 C1446 1.374 . S
C1446 H1420 0.950 . S
C1446 C1442 1.385 . S
C1446 C1445 1.374 . S
C1447 C1444 1.499 . S
C1447 C1448 1.373 . S
C1447 C1449 1.389 . S
C1448 H1421 0.950 . S
C1448 C1434 1.377 . S
C1448 C1447 1.373 . S
C1449 C1433 1.377 . S
C1449 C1447 1.389 . S
C1449 C1450 1.524 . S
C1450 C1449 1.524 . S
C1450 C1451 1.397 1_655 S
C1450 C1455 1.363 . S
C1451 H1422 0.950 . S
C1451 C1450 1.397 1_455 S
C1451 C1452 1.334 . S
C1452 H1423 0.950 . S
C1452 C1451 1.334 . S
C1452 C1453 1.287 . S
C1453 C1452 1.287 . S
C1453 C1454 1.524 1_455 S
C1453 H1456 0.999 . S
C1454 H1424 0.950 . S
C1454 C1453 1.524 1_655 S
C1454 C1455 1.415 . S
C1455 H1425 0.950 . S
C1455 C1450 1.363 . S
C1455 C1454 1.415 . S
H1456 C1453 0.999 . S
H1457 C1438 0.913 . S
H1458 C1476 0.951 . S
H1459 C1478 0.951 . S
H1460 C1480 0.950 . S
H1461 C1481 0.950 . S
H1462 C1483 0.950 . S
H1463 C1486 0.950 . S
H1464 C1487 0.950 . S
H1465 C1489 0.950 . S
H1466 C1490 0.950 . S
H1467 C1491 0.951 . S
H1468 C1493 0.951 . S
H1469 C1495 0.950 . S
H1470 C1496 0.950 1_545 S
H1471 C1498 0.950 . S
H1472 C1501 0.942 1_545 S
H1473 C1502 0.950 . S
H1474 C1504 0.950 . S
H1475 C1505 0.950 . S
C1476 H1458 0.951 . S
C1476 C1477 1.366 . S
C1476 C1478 1.388 . S
C1477 C1476 1.366 . S
C1477 C1481 1.385 . S
C1478 H1459 0.951 . S
C1478 C1476 1.388 . S
C1478 C1479 1.366 . S
C1479 C1478 1.366 . S
C1479 C1480 1.414 . S
C1479 C1482 1.499 . S
C1480 H1460 0.950 . S
C1480 C1479 1.414 . S
C1480 C1481 1.374 . S
C1481 H1461 0.950 . S
C1481 C1477 1.385 . S
C1481 C1480 1.374 . S
C1482 C1479 1.499 . S
C1482 C1483 1.373 . S
C1482 C1484 1.389 . S
C1483 H1462 0.950 . S
C1483 C1482 1.373 . S
C1483 C1499 1.377 . S
C1484 C1482 1.389 . S
C1484 C1485 1.524 . S
C1484 C1498 1.377 . S
C1485 C1484 1.524 . S
C1485 C1486 1.397 . S
C1485 C1490 1.363 . S
C1486 H1463 0.950 . S
C1486 C1485 1.397 . S
C1486 C1487 1.334 . S
C1487 H1464 0.950 . S
C1487 C1486 1.334 . S
C1487 C1488 1.287 . S
C1488 C1487 1.287 . S
C1488 C1489 1.524 . S
C1488 H1507 0.913 . S
C1489 H1465 0.950 . S
C1489 C1488 1.524 . S
C1489 C1490 1.415 . S
C1490 H1466 0.950 . S
C1490 C1485 1.363 . S
C1490 C1489 1.415 . S
C1491 H1467 0.951 . S
C1491 C1492 1.366 . S
C1491 C1493 1.388 . S
C1492 C1491 1.366 . S
C1492 C1496 1.385 . S
C1493 H1468 0.951 . S
C1493 C1491 1.388 . S
C1493 C1494 1.366 . S
C1494 C1493 1.366 . S
C1494 C1495 1.414 . S
C1494 C1497 1.499 . S
C1495 H1469 0.950 . S
C1495 C1494 1.414 . S
C1495 C1496 1.374 . S
C1496 H1470 0.950 1_565 S
C1496 C1492 1.385 . S
C1496 C1495 1.374 . S
C1497 C1494 1.499 . S
C1497 C1498 1.373 . S
C1497 C1499 1.389 . S
C1498 H1471 0.950 . S
C1498 C1484 1.377 . S
C1498 C1497 1.373 . S
C1499 C1483 1.377 . S
C1499 C1497 1.389 . S
C1499 C1500 1.524 . S
C1500 C1499 1.524 . S
C1500 C1501 1.409 . S
C1500 C1505 1.363 . S
C1501 H1472 0.942 1_565 S
C1501 C1500 1.409 . S
C1501 C1502 1.329 1_565 S
C1502 H1473 0.950 . S
C1502 C1501 1.329 1_545 S
C1502 C1503 1.287 1_545 S
C1503 C1502 1.287 1_565 S
C1503 C1504 1.524 . S
C1503 H1506 0.999 1_565 S
C1504 H1474 0.950 . S
C1504 C1503 1.524 . S
C1504 C1505 1.415 . S
C1505 H1475 0.950 . S
C1505 C1500 1.363 . S
C1505 C1504 1.415 . S
H1506 C1503 0.999 1_545 S
H1507 C1488 0.913 . S
H1508 C1526 0.951 . S
H1509 C1528 0.951 . S
H1510 C1530 0.950 . S
H1511 C1531 0.950 . S
H1512 C1533 0.950 . S
H1513 C1536 0.950 . S
H1514 C1537 0.950 . S
H1515 C1539 0.950 . S
H1516 C1540 0.950 . S
H1517 C1541 0.951 . S
H1518 C1543 0.951 . S
H1519 C1545 0.950 . S
H1520 C1546 0.950 . S
H1521 C1548 0.950 . S
H1522 C1551 0.950 . S
H1523 C1552 0.950 . S
H1524 C1554 0.950 . S
H1525 C1555 0.950 . S
C1526 H1508 0.951 . S
C1526 C1527 1.366 . S
C1526 C1528 1.388 . S
C1527 C1526 1.366 . S
C1527 C1531 1.385 . S
C1528 H1509 0.951 . S
C1528 C1526 1.388 . S
C1528 C1529 1.366 . S
C1529 C1528 1.366 . S
C1529 C1530 1.414 . S
C1529 C1532 1.499 . S
C1530 H1510 0.950 . S
C1530 C1529 1.414 . S
C1530 C1531 1.374 . S
C1531 H1511 0.950 . S
C1531 C1527 1.385 . S
C1531 C1530 1.374 . S
C1532 C1529 1.499 . S
C1532 C1533 1.373 . S
C1532 C1534 1.389 . S
C1533 H1512 0.950 . S
C1533 C1532 1.373 . S
C1533 C1549 1.377 . S
C1534 C1532 1.389 . S
C1534 C1535 1.524 . S
C1534 C1548 1.377 . S
C1535 C1534 1.524 . S
C1535 C1536 1.397 . S
C1535 C1540 1.363 . S
C1536 H1513 0.950 . S
C1536 C1535 1.397 . S
C1536 C1537 1.334 . S
C1537 H1514 0.950 . S
C1537 C1536 1.334 . S
C1537 C1538 1.287 . S
C1538 C1537 1.287 . S
C1538 C1539 1.524 . S
C1538 H1557 0.913 . S
C1539 H1515 0.950 . S
C1539 C1538 1.524 . S
C1539 C1540 1.415 . S
C1540 H1516 0.950 . S
C1540 C1535 1.363 . S
C1540 C1539 1.415 . S
C1541 H1517 0.951 . S
C1541 C1542 1.366 . S
C1541 C1543 1.388 . S
C1542 C1541 1.366 . S
C1542 C1546 1.385 . S
C1543 H1518 0.951 . S
C1543 C1541 1.388 . S
C1543 C1544 1.366 . S
C1544 C1543 1.366 . S
C1544 C1545 1.414 . S
C1544 C1547 1.499 . S
C1545 H1519 0.950 . S
C1545 C1544 1.414 . S
C1545 C1546 1.374 . S
C1546 H1520 0.950 . S
C1546 C1542 1.385 . S
C1546 C1545 1.374 . S
C1547 C1544 1.499 . S
C1547 C1548 1.373 . S
C1547 C1549 1.389 . S
C1548 H1521 0.950 . S
C1548 C1534 1.377 . S
C1548 C1547 1.373 . S
C1549 C1533 1.377 . S
C1549 C1547 1.389 . S
C1549 C1550 1.524 . S
C1550 C1549 1.524 . S
C1550 C1551 1.397 . S
C1550 C1555 1.363 . S
C1551 H1522 0.950 . S
C1551 C1550 1.397 . S
C1551 C1552 1.334 . S
C1552 H1523 0.950 . S
C1552 C1551 1.334 . S
C1552 C1553 1.287 . S
C1553 C1552 1.287 . S
C1553 C1554 1.524 . S
C1553 H1556 0.999 . S
C1554 H1524 0.950 . S
C1554 C1553 1.524 . S
C1554 C1555 1.415 . S
C1555 H1525 0.950 . S
C1555 C1550 1.363 . S
C1555 C1554 1.415 . S
H1556 C1553 0.999 . S
H1557 C1538 0.913 . S
H1558 C1576 0.951 . S
H1559 C1578 0.951 . S
H1560 C1580 0.950 . S
H1561 C1581 0.950 . S
H1562 C1583 0.950 . S
H1563 C1586 0.950 . S
H1564 C1587 0.950 . S
H1565 C1589 0.950 . S
H1566 C1590 0.950 . S
H1567 C1591 0.951 . S
H1568 C1593 0.951 . S
H1569 C1595 0.950 . S
H1570 C1596 0.950 . S
H1571 C1598 0.950 . S
H1572 C1601 0.950 . S
H1573 C1602 0.950 . S
H1574 C1604 0.950 . S
H1575 C1605 0.950 . S
C1576 H1558 0.951 . S
C1576 C1577 1.366 . S
C1576 C1578 1.388 . S
C1577 C1576 1.366 . S
C1577 C1581 1.385 . S
C1578 H1559 0.951 . S
C1578 C1576 1.388 . S
C1578 C1579 1.366 . S
C1579 C1578 1.366 . S
C1579 C1580 1.414 . S
C1579 C1582 1.499 . S
C1580 H1560 0.950 . S
C1580 C1579 1.414 . S
C1580 C1581 1.374 . S
C1581 H1561 0.950 . S
C1581 C1577 1.385 . S
C1581 C1580 1.374 . S
C1582 C1579 1.499 . S
C1582 C1583 1.373 . S
C1582 C1584 1.389 . S
C1583 H1562 0.950 . S
C1583 C1582 1.373 . S
C1583 C1599 1.377 . S
C1584 C1582 1.389 . S
C1584 C1585 1.524 . S
C1584 C1598 1.377 . S
C1585 C1584 1.524 . S
C1585 C1586 1.397 . S
C1585 C1590 1.363 . S
C1586 H1563 0.950 . S
C1586 C1585 1.397 . S
C1586 C1587 1.334 . S
C1587 H1564 0.950 . S
C1587 C1586 1.334 . S
C1587 C1588 1.287 . S
C1588 C1587 1.287 . S
C1588 C1589 1.524 . S
C1588 H1607 0.913 . S
C1589 H1565 0.950 . S
C1589 C1588 1.524 . S
C1589 C1590 1.415 . S
C1590 H1566 0.950 . S
C1590 C1585 1.363 . S
C1590 C1589 1.415 . S
C1591 H1567 0.951 . S
C1591 C1592 1.366 . S
C1591 C1593 1.388 . S
C1592 C1591 1.366 . S
C1592 C1596 1.385 . S
C1593 H1568 0.951 . S
C1593 C1591 1.388 . S
C1593 C1594 1.366 . S
C1594 C1593 1.366 . S
C1594 C1595 1.414 . S
C1594 C1597 1.499 . S
C1595 H1569 0.950 . S
C1595 C1594 1.414 . S
C1595 C1596 1.374 . S
C1596 H1570 0.950 . S
C1596 C1592 1.385 . S
C1596 C1595 1.374 . S
C1597 C1594 1.499 . S
C1597 C1598 1.373 . S
C1597 C1599 1.389 . S
C1598 H1571 0.950 . S
C1598 C1584 1.377 . S
C1598 C1597 1.373 . S
C1599 C1583 1.377 . S
C1599 C1597 1.389 . S
C1599 C1600 1.524 . S
C1600 C1599 1.524 . S
C1600 C1601 1.397 . S
C1600 C1605 1.363 . S
C1601 H1572 0.950 . S
C1601 C1600 1.397 . S
C1601 C1602 1.334 . S
C1602 H1573 0.950 . S
C1602 C1601 1.334 . S
C1602 C1603 1.287 . S
C1603 C1602 1.287 . S
C1603 C1604 1.524 . S
C1603 H1606 0.999 . S
C1604 H1574 0.950 . S
C1604 C1603 1.524 . S
C1604 C1605 1.415 . S
C1605 H1575 0.950 . S
C1605 C1600 1.363 . S
C1605 C1604 1.415 . S
H1606 C1603 0.999 . S
H1607 C1588 0.913 . S
C427 C61 1.713 . S
C442 C147 1.755 . S
C492 C231 1.781 . S
C477 C70 1.753 . S
C542 C307 1.780 . S
C527 C43 1.849 . S
C592 C391 1.762 . S
C577 C52 1.831 . S
C642 C138 1.753 1_565 S
C627 C25 1.717 . S
C677 C34 1.747 . S
C692 C222 1.780 . S
C727 C7 1.855 . S
C742 C296 1.780 . S
C777 C16 1.836 . S
C792 C380 1.762 . S
C842 C135 0.450 1_455 S
C827 C50 0.404 . S
C892 C219 0.436 . S
C877 C59 0.376 . S
C942 C312 0.490 . S
C927 C67 0.334 . S
C977 C41 0.373 . S
C992 C396 0.492 . S
C1027 C14 0.387 . S
C1042 C144 0.451 . S
C1092 C228 0.443 . S
C1077 C23 0.355 . S
C1142 C303 0.490 . S
C1127 C31 0.346 . S
C1177 C5 0.353 . S
C1192 C387 0.488 . S
C1227 C49 1.891 . S
C1242 C128 1.952 . S
C1277 C58 1.856 . S
C1292 C212 1.917 . S
C1342 C306 1.873 . S
C1327 C68 1.748 . S
C1392 C390 1.899 . S
C1377 C40 1.770 . S
C1427 C13 1.893 . S
C1442 C139 1.951 . S
C1492 C223 1.917 . S
C1477 C22 1.858 . S
C1542 C315 1.873 . S
C1527 C32 1.743 . S
C1577 C4 1.773 . S
C1592 C399 1.899 . S
