# Generated by pormake.
# Topology zzz, (3,6)-cn, num edge types: 1
# Building blocks:
#     Node 0, Type 0, BuildingBlock: BETDAH_clean_linker_0, # of connection points: 3
#     Node 1, Type 0, BuildingBlock: BETDAH_clean_linker_0, # of connection points: 3
#     Node 2, Type 0, BuildingBlock: BETDAH_clean_linker_0, # of connection points: 3
#     Node 3, Type 0, BuildingBlock: BETDAH_clean_linker_0, # of connection points: 3
#     Node 4, Type 0, BuildingBlock: BETDAH_clean_linker_0, # of connection points: 3
#     Node 5, Type 0, BuildingBlock: BETDAH_clean_linker_0, # of connection points: 3
#     Node 6, Type 0, BuildingBlock: BETDAH_clean_linker_0, # of connection points: 3
#     Node 7, Type 0, BuildingBlock: BETDAH_clean_linker_0, # of connection points: 3
#     Node 8, Type 1, BuildingBlock: INOVEN_clean_sbu_0, # of connection points: 6
#     Node 9, Type 1, BuildingBlock: INOVEN_clean_sbu_0, # of connection points: 6
#     Node 10, Type 1, BuildingBlock: INOVEN_clean_sbu_0, # of connection points: 6
#     Node 11, Type 1, BuildingBlock: INOVEN_clean_sbu_0, # of connection points: 6
#     Edge 12, Type (0, 1), BuildingBlock: KIFKEQ_clean_linker_1, # of connection points: 2
#     Edge 13, Type (0, 1), BuildingBlock: KIFKEQ_clean_linker_1, # of connection points: 2
#     Edge 14, Type (0, 1), BuildingBlock: KIFKEQ_clean_linker_1, # of connection points: 2
#     Edge 15, Type (0, 1), BuildingBlock: KIFKEQ_clean_linker_1, # of connection points: 2
#     Edge 16, Type (0, 1), BuildingBlock: KIFKEQ_clean_linker_1, # of connection points: 2
#     Edge 17, Type (0, 1), BuildingBlock: KIFKEQ_clean_linker_1, # of connection points: 2
#     Edge 18, Type (0, 1), BuildingBlock: KIFKEQ_clean_linker_1, # of connection points: 2
#     Edge 19, Type (0, 1), BuildingBlock: KIFKEQ_clean_linker_1, # of connection points: 2
#     Edge 20, Type (0, 1), BuildingBlock: KIFKEQ_clean_linker_1, # of connection points: 2
#     Edge 21, Type (0, 1), BuildingBlock: KIFKEQ_clean_linker_1, # of connection points: 2
#     Edge 22, Type (0, 1), BuildingBlock: KIFKEQ_clean_linker_1, # of connection points: 2
#     Edge 23, Type (0, 1), BuildingBlock: KIFKEQ_clean_linker_1, # of connection points: 2
#     Edge 24, Type (0, 1), BuildingBlock: KIFKEQ_clean_linker_1, # of connection points: 2
#     Edge 25, Type (0, 1), BuildingBlock: KIFKEQ_clean_linker_1, # of connection points: 2
#     Edge 26, Type (0, 1), BuildingBlock: KIFKEQ_clean_linker_1, # of connection points: 2
#     Edge 27, Type (0, 1), BuildingBlock: KIFKEQ_clean_linker_1, # of connection points: 2
#     Edge 28, Type (0, 1), BuildingBlock: KIFKEQ_clean_linker_1, # of connection points: 2
#     Edge 29, Type (0, 1), BuildingBlock: KIFKEQ_clean_linker_1, # of connection points: 2
#     Edge 30, Type (0, 1), BuildingBlock: KIFKEQ_clean_linker_1, # of connection points: 2
#     Edge 31, Type (0, 1), BuildingBlock: KIFKEQ_clean_linker_1, # of connection points: 2
#     Edge 32, Type (0, 1), BuildingBlock: KIFKEQ_clean_linker_1, # of connection points: 2
#     Edge 33, Type (0, 1), BuildingBlock: KIFKEQ_clean_linker_1, # of connection points: 2
#     Edge 34, Type (0, 1), BuildingBlock: KIFKEQ_clean_linker_1, # of connection points: 2
#     Edge 35, Type (0, 1), BuildingBlock: KIFKEQ_clean_linker_1, # of connection points: 2
# Relax obj value: 0.260
# Max RMSD: 0.185
# Mean RMSD: 0.161
data_MOF--net-zzz--node1-INOVEN_clean_sbu_0--node2-BETDAH_clean_linker_0--edge1-KIFKEQ_clean_linker_1
_symmetry_space_group_name_H-M    P1
_symmetry_Int_Tables_number       1
_symmetry_cell_setting            triclinic
loop_
_symmetry_equiv_pos_as_xyz
'x, y, z'
_cell_length_a     53.404408
_cell_length_b     53.318104
_cell_length_c     13.692741
_cell_angle_alpha  90.030745
_cell_angle_beta   89.82211
_cell_angle_gamma 89.889213
loop_
_atom_site_label
_atom_site_type_symbol
_atom_site_fract_x
_atom_site_fract_y
_atom_site_fract_z
_atom_type_partial_charge
H0 H 0.80862 0.47787 0.38813 0.0
H1 H 0.7387 0.48814 0.23921 0.0
H2 H 0.76516 0.54415 0.44245 0.0
C3 C 0.79146 0.48849 0.37786 0.0
C4 C 0.78892 0.51161 0.42467 0.0
C5 C 0.77365 0.48001 0.31053 0.0
C6 C 0.75215 0.49449 0.29282 0.0
C7 C 0.74855 0.51741 0.34264 0.0
C8 C 0.76733 0.52611 0.40691 0.0
N9 N 0.72677 0.53246 0.32792 0.0
C10 C 0.70693 0.5266 0.26551 0.0
H11 H 0.0541 0.81112 0.36495 0.0
H12 H 0.03976 0.74321 0.2064 0.0
H13 H 0.98349 0.77399 0.40003 0.0
C14 C 0.04217 0.79507 0.35075 0.0
C15 C 0.01827 0.79456 0.39239 0.0
C16 C 0.04996 0.77686 0.28318 0.0
C17 C 0.03389 0.75692 0.26018 0.0
C18 C 1.01003 0.75535 0.3043 0.0
C19 C 1.00215 0.77458 0.36879 0.0
N20 N 0.99327 0.73527 0.28312 0.0
C21 C 0.99853 0.715 0.22142 0.0
H22 H 0.72209 0.05014 0.38864 0.0
H23 H 0.79527 0.04336 0.25927 0.0
H24 H 0.76762 0.98634 0.45618 0.0
C25 C 0.73996 0.04052 0.38276 0.0
C26 C 0.74276 0.01772 0.43136 0.0
C27 C 0.75859 0.04989 0.32012 0.0
C28 C 0.78103 0.03636 0.30863 0.0
C29 C 0.78469 1.01356 0.359 0.0
C30 C 0.76526 1.00417 0.41945 0.0
N31 N 0.80729 0.9994 0.34865 0.0
C32 C 0.82691 1.0051 0.28431 0.0
H33 H 0.47184 0.71955 0.32731 0.0
H34 H 0.49 0.78864 0.18415 0.0
H35 H 0.53899 0.75879 0.40611 0.0
C36 C 0.4837 0.73601 0.32168 0.0
C37 C 0.50565 0.73708 0.377 0.0
C38 C 0.47814 0.75433 0.25164 0.0
C39 C 0.49419 0.77487 0.23978 0.0
C40 C 0.51595 0.77701 0.29713 0.0
C41 C 0.52183 0.75773 0.36434 0.0
N42 N 0.53262 0.79772 0.28655 0.0
C43 C 0.52904 0.81783 0.22238 0.0
H44 H 0.21904 0.47006 0.13011 0.0
H45 H 0.29137 0.48181 0.25818 0.0
H46 H 0.26477 0.5308 0.02925 0.0
C47 C 0.23686 0.47983 0.1306 0.0
C48 C 0.23982 0.50073 0.07047 0.0
C49 C 0.25517 0.47306 0.19895 0.0
C50 C 0.27758 0.48672 0.20356 0.0
C51 C 0.28157 0.5072 0.14016 0.0
C52 C 0.26232 0.51443 0.0751 0.0
N53 N 0.30417 0.52141 0.14257 0.0
C54 C 0.32447 0.51656 0.20408 0.0
H55 H 0.97507 0.22584 0.1178 0.0
H56 H 0.98896 0.29462 0.27135 0.0
H57 H 0.04508 0.26374 0.07726 0.0
C58 C 0.98683 0.2421 0.1305 0.0
C59 C 1.0106 0.24275 0.08785 0.0
C60 C 0.97899 0.2605 0.19719 0.0
C61 C 0.99485 0.28075 0.21818 0.0
C62 C 0.01856 0.28245 0.17286 0.0
C63 C 0.02652 0.26304 0.10936 0.0
N64 N 0.0351 0.30285 0.1919 0.0
C65 C 0.02965 0.32331 0.25233 0.0
H66 H 0.30975 0.059 0.13157 0.0
H67 H 0.23642 0.0487 0.25439 0.0
H68 H 0.26315 0.99968 0.02477 0.0
C69 C 0.29173 0.04959 0.13063 0.0
C70 C 0.28864 0.02897 0.06924 0.0
C71 C 0.27314 0.05667 0.19779 0.0
C72 C 0.25042 0.04352 0.20067 0.0
C73 C 0.2463 0.02328 0.13629 0.0
C74 C 0.26574 0.01582 0.07168 0.0
N75 N 0.22332 1.00959 0.13699 0.0
C76 C 0.20319 1.01394 0.2007 0.0
H77 H 0.55859 0.30386 0.1355 0.0
H78 H 0.53934 0.23426 0.27296 0.0
H79 H 0.49196 0.26504 0.04747 0.0
C80 C 0.54667 0.28741 0.13899 0.0
C81 C 0.5251 0.28659 0.08136 0.0
C82 C 0.55173 0.26881 0.20854 0.0
C83 C 0.53558 0.24825 0.21757 0.0
C84 C 0.51423 0.24637 0.1577 0.0
C85 C 0.50882 0.26592 0.09111 0.0
N86 N 0.49751 0.22561 0.16517 0.0
C87 C 0.50107 0.20504 0.22698 0.0
Gd88 Gd 0.02749 1.00803 0.84322 0.0
Gd89 Gd 1.00209 0.02871 0.64301 0.0
C90 C 1.00898 0.96868 0.6747 0.0
C91 C 0.03764 0.9876 0.00789 0.0
C92 C 0.05329 0.9654 0.02754 0.0
C93 C 0.06907 0.96453 0.10909 0.0
C94 C 0.0535 0.94537 0.96109 0.0
C95 C 0.08361 0.92281 0.0611 0.0
C96 C 0.06825 0.92428 0.978 0.0
C97 C 0.08417 0.94343 0.12569 0.0
C98 C 0.06189 1.01151 0.69389 0.0
C99 C 0.02055 0.06805 0.81135 0.0
C100 C 0.99217 0.0491 0.47808 0.0
C101 C 0.97687 0.07153 0.45816 0.0
C102 C 0.96085 0.07244 0.37732 0.0
C103 C 0.97714 0.09173 0.52386 0.0
C104 C 0.94693 0.11441 0.42473 0.0
C105 C 0.96257 0.11296 0.507 0.0
C106 C 0.94594 0.09368 0.36077 0.0
C107 C 0.96771 0.02554 0.7926 0.0
O108 O 0.01455 0.97256 0.76801 0.0
O109 O 1.0061 0.98728 0.6111 0.0
O110 O 0.04977 1.00728 0.9753 0.0
O111 O 0.01667 0.98329 0.9608 0.0
O112 O 0.06709 1.00432 0.78182 0.0
O113 O 0.03882 0.01628 0.6925 0.0
O114 O 0.01522 0.06413 0.71789 0.0
O115 O 0.02323 0.04947 0.87521 0.0
O116 O 0.97974 0.02967 0.51117 0.0
O117 O 1.01326 0.05311 0.52481 0.0
O118 O 0.9626 0.03298 0.7049 0.0
O119 O 0.99072 0.02041 0.79379 0.0
H120 H 0.06963 0.98007 0.16005 0.0
H121 H 0.04195 0.9458 0.89636 0.0
H122 H 0.06678 0.90874 0.92743 0.0
H123 H 0.096 0.94314 0.18974 0.0
H124 H 0.95993 0.05679 0.32695 0.0
H125 H 0.98888 0.09129 0.58803 0.0
H126 H 0.96436 0.12858 0.55701 0.0
H127 H 0.93389 0.09396 0.29735 0.0
Gd128 Gd 0.52446 0.02407 0.83268 0.0
Gd129 Gd 0.50551 1.00345 0.63213 0.0
C130 C 0.5653 1.00556 0.67336 0.0
C131 C 0.54135 0.03863 0.99855 0.0
C132 C 0.56518 0.0519 0.01249 0.0
C133 C 0.5725 0.06134 0.10357 0.0
C134 C 0.58118 0.05473 0.93179 0.0
C135 C 0.61247 0.07448 0.03355 0.0
C136 C 0.60451 0.0659 0.94203 0.0
C137 C 0.59607 0.07265 0.11406 0.0
C138 C 0.52164 0.05727 0.68273 0.0
C139 C 0.46494 1.01402 0.80495 0.0
C140 C 0.48552 1.00649 0.46325 0.0
C141 C 0.4625 0.02072 0.43953 0.0
C142 C 0.43962 1.01413 0.4836 0.0
C143 C 0.46385 0.04311 0.38557 0.0
C144 C 0.42061 0.05297 0.42804 0.0
C145 C 0.44305 0.05909 0.37964 0.0
C146 C 0.419 0.03006 0.47806 0.0
C147 C 0.51456 0.96431 0.75559 0.0
O148 O 0.56011 1.00869 0.76726 0.0
O149 O 0.54748 1.00552 0.60582 0.0
O150 O 0.52436 0.05131 0.95031 0.0
O151 O 0.5437 0.01545 0.96755 0.0
O152 O 0.53964 0.05667 0.74535 0.0
O153 O 0.50587 0.04051 0.70317 0.0
O154 O 0.4691 1.01147 0.71007 0.0
O155 O 0.48354 0.0167 0.86833 0.0
O156 O 0.48252 0.98685 0.51984 0.0
O157 O 0.50495 0.02017 0.4877 0.0
O158 O 0.50732 0.96157 0.66562 0.0
O159 O 0.51722 0.98739 0.77165 0.0
H160 H 0.56034 0.05943 0.16658 0.0
H161 H 0.57596 0.04767 0.86082 0.0
H162 H 0.61669 0.06715 0.87877 0.0
H163 H 0.60192 0.07889 0.18573 0.0
H164 H 0.43774 0.99704 0.52567 0.0
H165 H 0.48129 0.04876 0.3515 0.0
H166 H 0.44473 0.07652 0.3396 0.0
H167 H 0.40173 0.02439 0.51332 0.0
Gd168 Gd 0.50112 0.51872 0.81289 0.0
Gd169 Gd 0.53149 0.50557 0.6503 0.0
C170 C 0.51826 0.56276 0.66004 0.0
C171 C 0.47916 0.54008 0.95968 0.0
C172 C 0.46691 0.5647 0.97103 0.0
C173 C 0.44251 0.56634 0.00904 0.0
C174 C 0.47886 0.58657 0.93842 0.0
C175 C 0.44217 0.61137 0.98021 0.0
C176 C 0.46655 0.60961 0.94211 0.0
C177 C 0.43028 0.58957 0.01444 0.0
C178 C 0.47341 0.50446 0.65607 0.0
C179 C 0.51429 0.46156 0.80274 0.0
C180 C 0.5534 0.48401 0.5039 0.0
C181 C 0.56486 0.45901 0.49239 0.0
C182 C 0.58944 0.45666 0.45669 0.0
C183 C 0.55201 0.43746 0.52295 0.0
C184 C 0.58818 0.4116 0.4841 0.0
C185 C 0.56361 0.41405 0.51966 0.0
C186 C 0.60096 0.43308 0.45174 0.0
C187 C 0.55911 0.52031 0.80631 0.0
O188 O 0.51142 0.55717 0.75046 0.0
O189 O 0.52396 0.54467 0.59839 0.0
O190 O 0.46782 0.52448 0.90135 0.0
O191 O 0.50346 0.54012 0.94706 0.0
O192 O 0.46965 0.49695 0.74469 0.0
O193 O 0.49223 0.51879 0.65338 0.0
O194 O 0.52097 0.46717 0.71224 0.0
O195 O 0.50876 0.47963 0.86466 0.0
O196 O 0.56498 0.49904 0.56375 0.0
O197 O 0.52906 0.48476 0.51474 0.0
O198 O 0.5627 0.52773 0.71747 0.0
O199 O 0.54047 0.5057 0.80979 0.0
H200 H 0.43292 0.54967 0.03438 0.0
H201 H 0.4978 0.58592 0.91043 0.0
H202 H 0.47646 0.62621 0.91794 0.0
H203 H 0.41161 0.59053 0.04534 0.0
H204 H 0.59972 0.47308 0.43299 0.0
H205 H 0.53293 0.43865 0.54937 0.0
H206 H 0.55304 0.39772 0.54236 0.0
H207 H 0.61981 0.43159 0.42282 0.0
Gd208 Gd 1.00458 0.5074 0.84321 0.0
Gd209 Gd 0.02345 0.52713 0.64059 0.0
C210 C 0.96368 0.52535 0.68456 0.0
C211 C 0.98967 0.4933 0.01281 0.0
C212 C 0.96671 0.47927 0.03597 0.0
C213 C 0.96569 0.46265 0.11516 0.0
C214 C 0.94602 0.48126 0.9736 0.0
C215 C 0.92284 0.4512 0.07184 0.0
C216 C 0.92432 0.46758 0.99161 0.0
C217 C 0.94391 0.4487 0.13305 0.0
C218 C 1.00688 0.47358 0.69538 0.0
C219 C 0.06412 0.51699 0.81078 0.0
C220 C 0.04295 0.52336 0.47058 0.0
C221 C 0.06584 0.50894 0.44613 0.0
C222 C 0.08883 0.51548 0.48894 0.0
C223 C 0.06427 0.48646 0.39278 0.0
C224 C 0.10755 0.47647 0.43316 0.0
C225 C 0.08499 0.47037 0.38606 0.0
C226 C 0.10935 0.49944 0.48265 0.0
C227 C 0.01505 0.56676 0.763 0.0
O228 O 0.9687 0.52218 0.77855 0.0
O229 O 0.98153 0.52534 0.61678 0.0
O230 O 1.00635 0.4807 0.96234 0.0
O231 O 0.98619 0.51619 0.98004 0.0
O232 O 0.98899 0.47447 0.75919 0.0
O233 O 0.02279 0.49035 0.71391 0.0
O234 O 0.05987 0.51879 0.71595 0.0
O235 O 0.04559 0.51512 0.87522 0.0
O236 O 0.04619 0.5432 0.52591 0.0
O237 O 0.02353 0.50986 0.49704 0.0
O238 O 0.02225 0.56914 0.67265 0.0
O239 O 1.01216 0.54377 0.78 0.0
H240 H 0.98168 0.46046 0.1629 0.0
H241 H 0.94651 0.49358 0.9109 0.0
H242 H 0.90844 0.47055 0.94399 0.0
H243 H 0.94353 0.4361 0.195 0.0
H244 H 0.09086 0.53262 0.53059 0.0
H245 H 0.04674 0.48084 0.35974 0.0
H246 H 0.08317 0.45289 0.34643 0.0
H247 H 0.12671 0.50508 0.51692 0.0
H248 H 0.20172 0.03657 0.37764 0.0
H249 H 0.15613 0.99682 0.17001 0.0
H250 H 0.16625 0.03865 0.49091 0.0
H251 H 0.12054 0.99833 0.28389 0.0
H252 H 0.05575 0.02157 0.49558 0.0
H253 H 0.08906 0.02443 0.37085 0.0
H254 H 0.14445 1.00941 0.59254 0.0
H255 H 0.11173 1.00694 0.71484 0.0
C256 C 0.184 0.02841 0.35617 0.0
C257 C 0.18163 0.01651 0.26545 0.0
C258 C 0.16366 0.02944 0.42119 0.0
C259 C 0.14042 0.01847 0.39731 0.0
C260 C 0.13796 1.00718 0.30476 0.0
C261 C 0.15838 1.00617 0.23971 0.0
C262 C 0.07508 0.01914 0.51721 0.0
C263 C 0.08106 1.01419 0.61528 0.0
C264 C 0.09419 0.02061 0.44583 0.0
C265 C 0.11963 0.01741 0.47144 0.0
C266 C 0.1253 1.01254 0.56978 0.0
C267 C 0.10639 1.01093 0.64017 0.0
H268 H 0.4662 0.1849 0.34681 0.0
H269 H 0.54225 0.17596 0.2468 0.0
H270 H 0.47085 0.14811 0.45253 0.0
H271 H 0.54698 0.13882 0.35038 0.0
H272 H 0.55578 0.09243 0.63014 0.0
H273 H 0.55063 0.12747 0.51809 0.0
H274 H 0.47523 0.10311 0.4558 0.0
H275 H 0.48036 0.06818 0.57058 0.0
C276 C 0.48389 0.17492 0.34743 0.0
C277 C 0.50392 0.18321 0.28945 0.0
C278 C 0.48653 0.15371 0.4073 0.0
C279 C 0.50931 0.14034 0.41047 0.0
C280 C 0.52927 0.14874 0.35126 0.0
C281 C 0.52659 0.16995 0.29151 0.0
C282 C 0.53814 0.09445 0.59206 0.0
C283 C 0.5185 0.07748 0.609 0.0
C284 C 0.53522 0.11451 0.52713 0.0
C285 C 0.51252 0.11825 0.47717 0.0
C286 C 0.49291 0.10103 0.49344 0.0
C287 C 0.49588 0.08086 0.55852 0.0
H288 H 0.32511 0.5089 0.39922 0.0
H289 H 0.37302 0.51701 0.14762 0.0
H290 H 0.36191 0.50507 0.50432 0.0
H291 H 0.41005 0.51258 0.25159 0.0
H292 H 0.4699 0.53155 0.48553 0.0
H293 H 0.43422 0.53368 0.37394 0.0
H294 H 0.39558 0.47806 0.54705 0.0
H295 H 0.43087 0.4765 0.65912 0.0
C296 C 0.3436 0.5096 0.36652 0.0
C297 C 0.34633 0.51313 0.26568 0.0
C298 C 0.36475 0.50727 0.42647 0.0
C299 C 0.38916 0.50841 0.38686 0.0
C300 C 0.39169 0.51188 0.28524 0.0
C301 C 0.3705 0.51422 0.22541 0.0
C302 C 0.45386 0.51962 0.49899 0.0
C303 C 0.45318 0.50397 0.58153 0.0
C304 C 0.43337 0.52077 0.43487 0.0
C305 C 0.41172 0.50624 0.4516 0.0
C306 C 0.41156 0.48997 0.53259 0.0
C307 C 0.43195 0.4889 0.59659 0.0
H308 H 0.98766 0.35159 0.27051 0.0
H309 H 0.06375 0.34474 0.37062 0.0
H310 H 0.98212 0.3893 0.37091 0.0
H311 H 0.05832 0.38205 0.47287 0.0
H312 H 0.04796 0.46245 0.58185 0.0
H313 H 0.05331 0.4269 0.47015 0.0
H314 H 0.97827 0.4021 0.53787 0.0
H315 H 0.97288 0.4378 0.64718 0.0
C316 C 1.00313 0.35815 0.31464 0.0
C317 C 0.02606 0.34531 0.31353 0.0
C318 C 0.99999 0.37969 0.3725 0.0
C319 C 0.01976 0.38888 0.43051 0.0
C320 C 0.04277 0.37587 0.42844 0.0
C321 C 0.04585 0.35435 0.37059 0.0
C322 C 0.03254 0.44954 0.57172 0.0
C323 C 1.00998 0.45298 0.6231 0.0
C324 C 0.03565 0.42901 0.50837 0.0
C325 C 0.01624 0.41145 0.49469 0.0
C326 C 0.99354 0.41529 0.54513 0.0
C327 C 0.99049 0.43572 0.60845 0.0
H328 H 0.87412 0.02058 0.32716 0.0
H329 H 0.82675 0.99728 0.08994 0.0
H330 H 0.90937 0.02561 0.21295 0.0
H331 H 0.86177 1.00165 0.97601 0.0
H332 H 0.91891 0.03771 0.77955 0.0
H333 H 0.88597 0.0335 0.90028 0.0
H334 H 0.93927 1.00344 0.10616 0.0
H335 H 0.97283 1.00834 0.98377 0.0
C336 C 0.8713 0.01658 0.25039 0.0
C337 C 0.84772 1.00882 0.21684 0.0
C338 C 0.89154 0.01923 0.18505 0.0
C339 C 0.88856 1.01418 0.08466 0.0
C340 C 0.86481 1.00619 0.05214 0.0
C341 C 0.84469 1.00358 0.11735 0.0
C342 C 0.92376 0.0302 0.85053 0.0
C343 C 0.94855 0.02313 0.87146 0.0
C344 C 0.9047 0.0276 0.91992 0.0
C345 C 0.90967 0.01774 0.01306 0.0
C346 C 0.93467 1.01115 0.03531 0.0
C347 C 0.95392 1.01379 0.96512 0.0
H348 H 0.55626 0.86043 0.22738 0.0
H349 H 0.49688 0.82354 0.07112 0.0
H350 H 0.55349 0.89633 0.11616 0.0
H351 H 0.49349 0.85951 0.96122 0.0
H352 H 0.51151 0.91448 0.71787 0.0
H353 H 0.51527 0.87956 0.83128 0.0
H354 H 0.52819 0.93167 0.06753 0.0
H355 H 0.52493 0.96673 0.95236 0.0
C356 C 0.54249 0.86015 0.16943 0.0
C357 C 0.5268 0.8393 0.15754 0.0
C358 C 0.54077 0.88077 0.106 0.0
C359 C 0.5233 0.88096 0.02905 0.0
C360 C 0.50745 0.85999 0.01833 0.0
C361 C 0.50923 0.8394 0.08173 0.0
C362 C 0.51527 0.91851 0.79398 0.0
C363 C 0.51797 0.94339 0.82607 0.0
C364 C 0.51722 0.89844 0.85942 0.0
C365 C 0.52182 0.90262 0.95927 0.0
C366 C 0.52486 0.92761 0.9912 0.0
C367 C 0.52294 0.94776 0.92533 0.0
H368 H 0.70698 0.52418 0.06845 0.0
H369 H 0.65842 0.52195 0.32005 0.0
H370 H 0.67053 0.5219 0.96078 0.0
H371 H 0.62171 0.52011 0.21299 0.0
H372 H 0.56273 0.49523 0.98209 0.0
H373 H 0.59834 0.49512 0.09506 0.0
H374 H 0.63665 0.54848 0.91061 0.0
H375 H 0.6015 0.54823 0.79815 0.0
C376 C 0.68844 0.52303 0.10049 0.0
C377 C 0.68542 0.52318 0.20214 0.0
C378 C 0.6675 0.52195 0.03901 0.0
C379 C 0.643 0.52108 0.07784 0.0
C380 C 0.64018 0.52057 0.18019 0.0
C381 C 0.66118 0.52169 0.24162 0.0
C382 C 0.57871 0.50705 0.96637 0.0
C383 C 0.57932 0.52163 0.88082 0.0
C384 C 0.59914 0.50702 0.0311 0.0
C385 C 0.62066 0.52153 0.01159 0.0
C386 C 0.62078 0.53659 0.92722 0.0
C387 C 0.60046 0.53663 0.86296 0.0
H388 H 0.97129 0.6725 0.22562 0.0
H389 H 0.03262 0.70839 0.07632 0.0
H390 H 0.97503 0.63615 0.11705 0.0
H391 H 0.03695 0.67191 0.96869 0.0
H392 H 0.01976 0.61644 0.72441 0.0
H393 H 0.01606 0.65169 0.8366 0.0
H394 H 1.00042 0.60041 0.07317 0.0
H395 H 1.00367 0.56503 0.95929 0.0
C396 C 0.98573 0.67243 0.16985 0.0
C397 C 1.00166 0.69314 0.159 0.0
C398 C 0.988 0.65156 0.10792 0.0
C399 C 1.00626 0.65095 0.03344 0.0
C400 C 0.0224 0.67175 0.02393 0.0
C401 C 0.02009 0.69262 0.08595 0.0
C402 C 0.01544 0.61266 0.80035 0.0
C403 C 1.01194 0.58792 0.83286 0.0
C404 C 1.01353 0.63293 0.86509 0.0
C405 C 1.00811 0.62907 0.96463 0.0
C406 C 1.00438 0.60422 0.99703 0.0
C407 C 1.0063 0.58389 0.9319 0.0
H408 H 0.93128 0.2515 0.13524 0.0
H409 H 0.9772 0.25441 0.39324 0.0
H410 H 0.90615 0.21838 0.20893 0.0
H411 H 0.9524 0.2214 0.46673 0.0
H412 H 0.92548 0.14873 0.55096 0.0
H413 H 0.91732 0.19287 0.51548 0.0
H414 H 0.93084 0.17866 0.20926 0.0
H415 H 0.93993 0.13531 0.24445 0.0
C416 C 0.9349 0.24628 0.21036 0.0
C417 C 0.9567 0.2547 0.25728 0.0
C418 C 0.92064 0.22715 0.25231 0.0
C419 C 0.92809 0.21646 0.34145 0.0
C420 C 0.94639 0.22889 0.39712 0.0
C421 C 0.96065 0.24801 0.35508 0.0
C422 C 0.92622 0.15495 0.47575 0.0
C423 C 0.93427 0.13858 0.40102 0.0
C424 C 0.92123 0.18019 0.4555 0.0
C425 C 0.92374 0.18938 0.35993 0.0
C426 C 0.92848 0.17225 0.28378 0.0
C427 C 0.93382 0.14719 0.30411 0.0
H428 H 0.28842 0.10536 0.18077 0.0
H429 H 0.27697 0.04612 0.38988 0.0
H430 H 0.3242 0.12028 0.27402 0.0
H431 H 0.31284 0.06031 0.48155 0.0
H432 H 0.38838 0.0659 0.57579 0.0
H433 H 0.34626 0.08312 0.55736 0.0
H434 H 0.36036 0.09387 0.24903 0.0
H435 H 0.4021 0.07693 0.26792 0.0
C436 C 0.29251 0.09659 0.25031 0.0
C437 C 0.28074 0.074 0.27632 0.0
C438 C 0.31324 0.10491 0.30313 0.0
C439 C 0.32229 0.09056 0.38168 0.0
C440 C 0.30684 0.07154 0.42004 0.0
C441 C 0.28601 0.06338 0.36759 0.0
C442 C 0.3826 0.07261 0.50466 0.0
C443 C 0.39821 0.06939 0.42258 0.0
C444 C 0.35855 0.08262 0.4943 0.0
C445 C 0.34965 0.08946 0.40155 0.0
C446 C 0.36647 0.08902 0.32196 0.0
C447 C 0.3905 0.07909 0.33242 0.0
H448 H 0.60173 0.27714 0.18099 0.0
H449 H 0.54414 0.27492 0.40187 0.0
H450 H 0.62582 0.30626 0.28073 0.0
H451 H 0.56708 0.30479 0.49898 0.0
H452 H 0.59053 0.37363 0.61809 0.0
H453 H 0.59614 0.32915 0.58155 0.0
H454 H 0.61389 0.34823 0.28202 0.0
H455 H 0.60934 0.39222 0.32029 0.0
C456 C 0.59488 0.28191 0.25323 0.0
C457 C 0.57084 0.27445 0.28293 0.0
C458 C 0.60847 0.29887 0.30992 0.0
C459 C 0.5978 0.30906 0.39536 0.0
C460 C 0.57591 0.29784 0.43305 0.0
C461 C 0.5626 0.28054 0.37723 0.0
C462 C 0.59656 0.36817 0.5455 0.0
C463 C 0.59889 0.3862 0.47123 0.0
C464 C 0.59972 0.34271 0.52437 0.0
C465 C 0.60462 0.33485 0.42803 0.0
C466 C 0.61013 0.35326 0.35722 0.0
C467 C 0.60736 0.37869 0.37882 0.0
H468 H 0.23978 0.42439 0.18136 0.0
H469 H 0.25107 0.48348 0.3913 0.0
H470 H 0.20394 0.40939 0.27494 0.0
H471 H 0.2152 0.46917 0.48335 0.0
H472 H 0.13978 0.46339 0.57973 0.0
H473 H 0.18191 0.4462 0.5597 0.0
H474 H 0.16766 0.43566 0.25168 0.0
H475 H 0.12588 0.45252 0.27221 0.0
C476 C 0.23563 0.43311 0.25107 0.0
C477 C 0.24738 0.45569 0.27725 0.0
C478 C 0.21488 0.42475 0.30409 0.0
C479 C 0.2058 0.439 0.38314 0.0
C480 C 0.22122 0.458 0.42149 0.0
C481 C 0.24205 0.46623 0.3688 0.0
C482 C 0.14553 0.4567 0.50834 0.0
C483 C 0.12987 0.45997 0.42681 0.0
C484 C 0.16958 0.44673 0.49705 0.0
C485 C 0.17845 0.43999 0.4039 0.0
C486 C 0.16158 0.44044 0.32487 0.0
C487 C 0.13753 0.45033 0.33628 0.0
H488 H 0.09755 0.7853 0.34784 0.0
H489 H 0.05248 0.78337 0.0874 0.0
H490 H 0.12326 0.8183 0.27645 0.0
H491 H 0.07788 0.81625 0.01616 0.0
H492 H 0.10567 0.88874 0.93538 0.0
H493 H 0.11352 0.84451 0.9702 0.0
H494 H 0.09885 0.85826 0.27595 0.0
H495 H 0.09004 0.90169 0.24134 0.0
C496 C 0.09423 0.79071 0.2727 0.0
C497 C 0.0725 0.78261 0.22442 0.0
C498 C 0.10884 0.80976 0.23206 0.0
C499 C 0.10181 0.82069 0.14284 0.0
C500 C 0.08357 0.80856 0.08587 0.0
C501 C 0.06896 0.78953 0.12662 0.0
C502 C 0.10462 0.8824 0.01039 0.0
C503 C 0.09629 0.89866 0.08502 0.0
C504 C 0.10944 0.85711 0.03028 0.0
C505 C 0.10648 0.84777 0.12543 0.0
C506 C 0.10153 0.86479 0.20174 0.0
C507 C 0.09636 0.8899 0.18174 0.0
H508 H 0.76543 0.05386 0.1222 0.0
H509 H 0.73566 0.09404 0.37006 0.0
H510 H 0.735 0.07415 0.01716 0.0
H511 H 0.70338 0.11183 0.26907 0.0
H512 H 0.63099 0.11634 0.12594 0.0
H513 H 0.67487 0.12552 0.16139 0.0
H514 H 0.69646 0.05754 0.00866 0.0
H515 H 0.65346 0.04971 0.96963 0.0
C516 C 0.75303 0.06778 0.15382 0.0
C517 C 0.75172 0.07111 0.25534 0.0
C518 C 0.73507 0.07902 0.09392 0.0
C519 C 0.71506 0.09265 0.13586 0.0
C520 C 0.71758 0.10057 0.2335 0.0
C521 C 0.73622 0.09024 0.2923 0.0
C522 C 0.64539 0.10379 0.09871 0.0
C523 C 0.63888 0.08216 0.04633 0.0
C524 C 0.67058 0.10897 0.11893 0.0
C525 C 0.68965 0.09214 0.08991 0.0
C526 C 0.68288 0.07142 0.03164 0.0
C527 C 0.65793 0.06662 0.0099 0.0
H528 H 0.48435 0.74831 0.05749 0.0
H529 H 0.42844 0.74535 0.28477 0.0
H530 H 0.46101 0.71824 0.9628 0.0
H531 H 0.40395 0.71599 0.18759 0.0
H532 H 0.42165 0.63027 0.14607 0.0
H533 H 0.41649 0.67415 0.18481 0.0
H534 H 0.43159 0.69355 0.88343 0.0
H535 H 0.43782 0.64918 0.84624 0.0
C536 C 0.46614 0.74247 0.0842 0.0
C537 C 0.45854 0.74841 0.17946 0.0
C538 C 0.4526 0.72505 0.02975 0.0
C539 C 0.43113 0.71357 0.06982 0.0
C540 C 0.42099 0.72359 0.15652 0.0
C541 C 0.43481 0.74067 0.21178 0.0
C542 C 0.42288 0.64382 0.08731 0.0
C543 C 0.43084 0.63647 0.994 0.0
C544 C 0.41977 0.66919 0.1092 0.0
C545 C 0.42441 0.6877 0.03783 0.0
C546 C 0.4287 0.67992 0.94096 0.0
C547 C 0.4322 0.65452 0.91947 0.0
H548 H 0.78544 0.43235 0.36636 0.0
H549 H 0.78063 0.48064 0.11481 0.0
H550 H 0.81983 0.40942 0.28977 0.0
H551 H 0.81492 0.45802 0.03836 0.0
H552 H 0.88777 0.43163 0.9458 0.0
H553 H 0.84376 0.42365 0.9833 0.0
H554 H 0.85902 0.43479 0.28982 0.0
H555 H 0.90236 0.4436 0.25267 0.0
C556 C 0.7906 0.43695 0.2919 0.0
C557 C 0.78105 0.45872 0.2476 0.0
C558 C 0.81047 0.42398 0.2484 0.0
C559 C 0.82077 0.43264 0.16012 0.0
C560 C 0.80765 0.45104 0.1071 0.0
C561 C 0.7878 0.46402 0.15074 0.0
C562 C 0.8818 0.4319 0.02145 0.0
C563 C 0.89849 0.43908 0.09594 0.0
C564 C 0.85664 0.42704 0.0428 0.0
C565 C 0.84781 0.42884 0.13922 0.0
C566 C 0.86517 0.43296 0.21468 0.0
C567 C 0.89019 0.43813 0.19329 0.0
H568 H 0.98851 0.22444 0.92421 0.0
H569 H 0.04897 0.20993 0.1241 0.0
H570 H 0.99384 0.18284 0.85301 0.0
H571 H 0.05463 0.16808 0.05237 0.0
H572 H 0.02896 0.08528 0.99827 0.0
H573 H 0.03079 0.12869 0.05471 0.0
H574 H 0.01994 0.15453 0.7591 0.0
H575 H 0.01793 0.11129 0.70276 0.0
C576 C 1.00354 0.2126 0.95059 0.0
C577 C 0.01852 0.22058 0.02889 0.0
C578 C 1.00658 0.18866 0.91003 0.0
C579 C 0.02454 0.17187 0.94729 0.0
C580 C 0.0404 0.18035 0.02255 0.0
C581 C 0.03748 0.20448 0.06263 0.0
C582 C 0.02712 0.10018 0.94505 0.0
C583 C 0.02302 0.09457 0.84586 0.0
C584 C 0.02836 0.12516 0.97743 0.0
C585 C 0.02546 0.14526 0.91165 0.0
C586 C 0.02192 0.13962 0.81223 0.0
C587 C 0.02078 0.1147 0.77983 0.0
H588 H 0.32199 0.99224 0.11552 0.0
H589 H 0.30703 0.04945 0.90162 0.0
H590 H 0.36441 0.98695 0.0494 0.0
H591 H 0.3493 0.04431 0.83492 0.0
H592 H 0.42223 0.01674 0.69487 0.0
H593 H 0.37879 0.01687 0.74926 0.0
H594 H 0.40326 1.01192 0.04882 0.0
H595 H 0.44694 1.01162 0.9941 0.0
C596 C 0.32749 1.00298 0.05186 0.0
C597 C 0.31094 0.02073 0.01188 0.0
C598 C 0.35196 1.00033 0.01507 0.0
C599 C 0.3605 0.01534 0.93711 0.0
C600 C 0.34343 0.03223 0.89422 0.0
C601 C 0.31908 0.03505 0.93176 0.0
C602 C 0.41847 0.01558 0.7724 0.0
C603 C 0.43831 1.01416 0.83987 0.0
C604 C 0.39342 0.01577 0.8037 0.0
C605 C 0.38732 1.01432 0.90357 0.0
C606 C 0.40714 1.01271 0.97121 0.0
C607 C 0.43226 1.01275 0.93986 0.0
H608 H 0.48298 0.31613 0.08331 0.0
H609 H 0.5551 0.30829 0.94435 0.0
H610 H 0.47807 0.3577 0.00888 0.0
H611 H 0.55051 0.34969 0.87109 0.0
H612 H 0.52939 0.41951 0.70247 0.0
H613 H 0.52868 0.376 0.75604 0.0
H614 H 0.49691 0.39912 0.03218 0.0
H615 H 0.49724 0.4427 0.97751 0.0
C616 C 0.49744 0.32299 0.03459 0.0
C617 C 0.51934 0.30885 0.01918 0.0
C618 C 0.49484 0.34698 0.99313 0.0
C619 C 0.51401 0.3573 0.93457 0.0
C620 C 0.53525 0.34244 0.91493 0.0
C621 C 0.53791 0.31863 0.95691 0.0
C622 C 0.52206 0.41539 0.77419 0.0
C623 C 0.51342 0.4348 0.83529 0.0
C624 C 0.52176 0.39033 0.80533 0.0
C625 C 0.51271 0.38386 0.89865 0.0
C626 C 0.50368 0.40324 0.95933 0.0
C627 C 0.50409 0.42834 0.92822 0.0
H628 H 0.20822 0.53975 0.10756 0.0
H629 H 0.22022 0.47786 0.91054 0.0
H630 H 0.16591 0.54557 0.0418 0.0
H631 H 0.17813 0.48357 0.84418 0.0
H632 H 0.10646 0.51168 0.69943 0.0
H633 H 0.14996 0.51129 0.75186 0.0
H634 H 0.12613 0.52128 0.05092 0.0
H635 H 0.08236 0.52182 0.99819 0.0
C636 C 0.20212 0.52803 0.04754 0.0
C637 C 0.21772 0.50876 0.01242 0.0
C638 C 0.17773 0.53104 0.01106 0.0
C639 C 0.16844 0.51492 0.93812 0.0
C640 C 0.18464 0.4965 0.89958 0.0
C641 C 0.20886 0.49331 0.93694 0.0
C642 C 0.11038 0.51392 0.7764 0.0
C643 C 0.09073 0.51678 0.84443 0.0
C644 C 0.13544 0.51359 0.80654 0.0
C645 C 0.14169 0.51635 0.90565 0.0
C646 C 0.12208 0.51946 0.9738 0.0
C647 C 0.09693 0.51954 0.94366 0.0
H648 H 0.97977 0.82746 0.35893 0.0
H649 H 0.04069 0.81244 0.55617 0.0
H650 H 0.97424 0.86909 0.43265 0.0
H651 H 0.03553 0.85385 0.62913 0.0
H652 H 1.0123 0.92526 0.78213 0.0
H653 H 1.01006 0.8821 0.72485 0.0
H654 H 0.9978 0.90843 0.43071 0.0
H655 H 0.99979 0.95172 0.48812 0.0
C656 C 0.99141 0.83275 0.4202 0.0
C657 C 1.01047 0.81658 0.45252 0.0
C658 C 0.98856 0.85676 0.46143 0.0
C659 C 1.0046 0.86506 0.53642 0.0
C660 C 0.02265 0.84818 0.57236 0.0
C661 C 0.0256 0.82435 0.53073 0.0
C662 C 1.00906 0.92197 0.70521 0.0
C663 C 1.00646 0.9422 0.63986 0.0
C664 C 1.0078 0.89709 0.67225 0.0
C665 C 1.0038 0.8916 0.57293 0.0
C666 C 1.00058 0.91182 0.5079 0.0
C667 C 1.00192 0.93674 0.54084 0.0
H668 H 0.71087 0.97981 0.38169 0.0
H669 H 0.7233 0.03675 0.59919 0.0
H670 H 0.66828 0.97344 0.44462 0.0
H671 H 0.68092 0.03079 0.6618 0.0
H672 H 0.60688 1.00687 0.79062 0.0
H673 H 0.65077 1.00484 0.74307 0.0
H674 H 0.62918 0.99689 0.44103 0.0
H675 H 0.58509 0.99849 0.48886 0.0
C676 C 0.70482 0.99024 0.44546 0.0
C677 C 0.72064 1.00835 0.487 0.0
C678 C 0.68023 0.98698 0.48044 0.0
C679 C 0.67088 1.00175 0.55798 0.0
C680 C 0.68735 0.01882 0.60291 0.0
C681 C 0.71179 0.02216 0.56752 0.0
C682 C 0.61137 1.00445 0.714 0.0
C683 C 0.59221 1.00289 0.6437 0.0
C684 C 0.63669 1.00341 0.68661 0.0
C685 C 0.64377 1.00074 0.58799 0.0
C686 C 0.6246 0.9986 0.51783 0.0
C687 C 0.59921 0.9997 0.54524 0.0
H688 H 0.54787 0.70768 0.3726 0.0
H689 H 0.47658 0.71572 0.51784 0.0
H690 H 0.55333 0.66632 0.44824 0.0
H691 H 0.4817 0.67452 0.59222 0.0
H692 H 0.5037 0.605 0.76063 0.0
H693 H 0.5041 0.64841 0.70591 0.0
H694 H 0.53456 0.62486 0.42809 0.0
H695 H 0.53453 0.58139 0.48384 0.0
C696 C 0.53372 0.70092 0.42292 0.0
C697 C 0.51187 0.71504 0.43973 0.0
C698 C 0.53663 0.67704 0.4651 0.0
C699 C 0.51784 0.66682 0.52574 0.0
C700 C 0.49669 0.68169 0.54677 0.0
C701 C 0.49372 0.70538 0.50413 0.0
C702 C 0.51066 0.609 0.68827 0.0
C703 C 0.51901 0.58949 0.62701 0.0
C704 C 0.51079 0.63401 0.65648 0.0
C705 C 0.51938 0.64033 0.56234 0.0
C706 C 0.52815 0.62086 0.50154 0.0
C707 C 0.52791 0.59582 0.53331 0.0
H708 H 0.81965 0.55146 0.38797 0.0
H709 H 0.80815 0.49024 0.58825 0.0
H710 H 0.86139 0.55854 0.45714 0.0
H711 H 0.84967 0.49706 0.65726 0.0
H712 H 0.92148 0.52273 0.79946 0.0
H713 H 0.87781 0.5242 0.74864 0.0
H714 H 0.9012 0.53516 0.44967 0.0
H715 H 0.94495 0.53387 0.50042 0.0
C716 C 0.8257 0.54015 0.44924 0.0
C717 C 0.8105 0.52055 0.48375 0.0
C718 C 0.84977 0.54389 0.48784 0.0
C719 C 0.8591 0.52822 0.56233 0.0
C720 C 0.84315 0.50967 0.60078 0.0
C721 C 0.81926 0.5058 0.56158 0.0
C722 C 0.91741 0.52566 0.7229 0.0
C723 C 0.93694 0.52802 0.65412 0.0
C724 C 0.89226 0.52643 0.69369 0.0
C725 C 0.88584 0.52976 0.59492 0.0
C726 C 0.90535 0.53288 0.52653 0.0
C727 C 0.93052 0.53195 0.55564 0.0
loop_
_geom_bond_atom_site_label_1
_geom_bond_atom_site_label_2
_geom_bond_distance
_geom_bond_site_symmetry_2
_ccdc_geom_bond_type
H0 C3 0.929 . S
H1 C6 0.929 . S
H2 C8 0.930 . S
C3 H0 0.929 . S
C3 C4 1.398 . S
C3 C5 1.396 . S
C4 C3 1.398 . S
C4 C8 1.407 . S
C5 C3 1.396 . S
C5 C6 1.394 . S
C6 H1 0.929 . S
C6 C5 1.394 . S
C6 C7 1.382 . S
C7 C6 1.382 . S
C7 C8 1.392 . S
C7 N9 1.420 . S
C8 H2 0.930 . S
C8 C4 1.407 . S
C8 C7 1.392 . S
N9 C7 1.420 . S
N9 C10 1.244 . S
C10 N9 1.244 . S
H11 C14 0.929 . S
H12 C17 0.929 . S
H13 C19 0.930 . S
C14 H11 0.929 . S
C14 C15 1.398 . S
C14 C16 1.397 . S
C15 C14 1.398 . S
C15 C19 1.407 1_655 S
C16 C14 1.397 . S
C16 C17 1.391 1_655 S
C17 H12 0.929 . S
C17 C16 1.391 1_455 S
C17 C18 1.382 . S
C18 C17 1.382 . S
C18 C19 1.392 . S
C18 N20 1.420 . S
C19 H13 0.930 . S
C19 C15 1.407 1_455 S
C19 C18 1.392 . S
N20 C18 1.420 . S
N20 C21 1.244 1_455 S
C21 N20 1.244 1_655 S
H22 C25 0.929 . S
H23 C28 0.929 . S
H24 C30 0.930 . S
C25 H22 0.929 . S
C25 C26 1.398 . S
C25 C27 1.396 . S
C26 C25 1.398 . S
C26 C30 1.407 1_565 S
C27 C25 1.396 . S
C27 C28 1.394 1_565 S
C28 H23 0.929 . S
C28 C27 1.394 1_545 S
C28 C29 1.382 . S
C29 C28 1.382 . S
C29 C30 1.392 . S
C29 N31 1.420 . S
C30 H24 0.930 . S
C30 C26 1.407 1_545 S
C30 C29 1.392 . S
N31 C29 1.420 . S
N31 C32 1.244 1_545 S
C32 N31 1.244 1_565 S
H33 C36 0.929 . S
H34 C39 0.929 . S
H35 C41 0.930 . S
C36 H33 0.929 . S
C36 C37 1.398 . S
C36 C38 1.396 . S
C37 C36 1.398 . S
C37 C41 1.407 . S
C38 C36 1.396 . S
C38 C39 1.394 . S
C39 H34 0.929 . S
C39 C38 1.394 . S
C39 C40 1.382 . S
C40 C39 1.382 . S
C40 C41 1.392 . S
C40 N42 1.420 . S
C41 H35 0.930 . S
C41 C37 1.407 . S
C41 C40 1.392 . S
N42 C40 1.420 . S
N42 C43 1.244 . S
C43 N42 1.244 . S
H44 C47 0.930 . S
H45 C50 0.929 . S
H46 C52 0.930 . S
C47 H44 0.930 . S
C47 C48 1.407 . S
C47 C49 1.386 1_556 S
C48 C47 1.407 . S
C48 C52 1.407 . S
C49 C47 1.386 1_554 S
C49 C50 1.394 . S
C50 H45 0.929 . S
C50 C49 1.394 . S
C50 C51 1.382 . S
C51 C50 1.382 . S
C51 C52 1.392 1_554 S
C51 N53 1.420 . S
C52 H46 0.930 . S
C52 C48 1.407 . S
C52 C51 1.392 1_556 S
N53 C51 1.420 . S
N53 C54 1.244 . S
C54 N53 1.244 . S
H55 C58 0.930 1_655 S
H56 C61 0.929 . S
H57 C63 0.930 . S
C58 H55 0.930 1_455 S
C58 C59 1.405 . S
C58 C60 1.388 1_556 S
C59 C58 1.405 . S
C59 C63 1.407 . S
C60 C58 1.388 1_554 S
C60 C61 1.394 . S
C61 H56 0.929 . S
C61 C60 1.394 . S
C61 C62 1.382 . S
C62 C61 1.382 . S
C62 C63 1.392 1_554 S
C62 N64 1.420 . S
C63 H57 0.930 . S
C63 C59 1.407 . S
C63 C62 1.392 1_556 S
N64 C62 1.420 . S
N64 C65 1.244 . S
C65 N64 1.244 . S
H66 C69 0.931 1_565 S
H67 C72 0.929 . S
H68 C74 0.930 . S
C69 H66 0.931 1_545 S
C69 C70 1.402 . S
C69 C71 1.390 1_556 S
C70 C69 1.402 . S
C70 C74 1.407 . S
C71 C69 1.390 1_554 S
C71 C72 1.394 . S
C72 H67 0.929 . S
C72 C71 1.394 . S
C72 C73 1.382 . S
C73 C72 1.382 . S
C73 C74 1.392 1_554 S
C73 N75 1.420 . S
C74 H68 0.930 . S
C74 C70 1.407 . S
C74 C73 1.392 1_556 S
N75 C73 1.420 . S
N75 C76 1.244 . S
C76 N75 1.244 . S
H77 C80 0.930 . S
H78 C83 0.929 . S
H79 C85 0.930 . S
C80 H77 0.930 . S
C80 C81 1.403 . S
C80 C82 1.390 1_556 S
C81 C80 1.403 . S
C81 C85 1.407 . S
C82 C80 1.390 1_554 S
C82 C83 1.394 . S
C83 H78 0.929 . S
C83 C82 1.394 . S
C83 C84 1.382 . S
C84 C83 1.382 . S
C84 C85 1.392 1_554 S
C84 N86 1.420 . S
C85 H79 0.930 . S
C85 C81 1.407 . S
C85 C84 1.392 1_556 S
N86 C84 1.420 . S
N86 C87 1.244 . S
C87 N86 1.244 . S
Gd88 C91 2.818 . S
Gd88 O108 2.377 . S
Gd88 O110 2.448 . S
Gd88 O111 2.506 . S
Gd88 O112 2.435 . S
Gd88 O113 2.717 1_565 S
Gd88 O115 2.395 1_565 S
Gd88 O119 2.327 1_455 S
Gd89 C100 2.818 . S
Gd89 O109 2.395 1_545 S
Gd89 O113 2.327 1_655 S
Gd89 O114 2.377 . S
Gd89 O116 2.448 . S
Gd89 O117 2.524 . S
Gd89 O118 2.435 . S
Gd89 O119 2.717 1_545 S
C90 O108 1.240 1_655 S
C90 O109 1.240 . S
C91 Gd88 2.818 . S
C91 C92 1.510 . S
C91 O110 1.249 . S
C91 O111 1.252 . S
C92 C91 1.510 . S
C92 C93 1.404 1_556 S
C92 C94 1.352 1_556 S
C93 C92 1.404 1_554 S
C93 C97 1.389 . S
C93 H120 0.930 1_554 S
C94 C92 1.352 1_554 S
C94 C96 1.374 . S
C94 H121 0.931 1_455 S
C95 C96 1.359 . S
C95 C97 1.364 . S
C96 C94 1.374 . S
C96 C95 1.359 . S
C96 H122 0.931 1_455 S
C97 C93 1.389 . S
C97 C95 1.364 . S
C97 H123 0.931 . S
C98 O112 1.277 . S
C98 O113 1.247 1_565 S
C99 O114 1.240 1_455 S
C99 O115 1.240 . S
C100 Gd89 2.818 . S
C100 C101 1.510 . S
C100 O116 1.249 . S
C100 O117 1.295 . S
C101 C100 1.510 . S
C101 C102 1.404 . S
C101 C103 1.352 . S
C102 C101 1.404 . S
C102 C106 1.389 . S
C102 H124 0.930 . S
C103 C101 1.352 . S
C103 C105 1.374 . S
C103 H125 0.931 1_655 S
C104 C105 1.359 . S
C104 C106 1.364 . S
C105 C103 1.374 . S
C105 C104 1.359 . S
C105 H126 0.931 1_655 S
C106 C102 1.389 . S
C106 C104 1.364 . S
C106 H127 0.931 . S
C107 O118 1.256 . S
C107 O119 1.257 1_545 S
O108 Gd88 2.377 . S
O108 C90 1.240 1_455 S
O109 Gd89 2.395 1_565 S
O109 C90 1.240 . S
O110 Gd88 2.448 . S
O110 C91 1.249 . S
O111 Gd88 2.506 . S
O111 C91 1.252 . S
O112 Gd88 2.435 . S
O112 C98 1.277 . S
O113 Gd88 2.717 1_545 S
O113 Gd89 2.327 1_455 S
O113 C98 1.247 1_545 S
O114 Gd89 2.377 . S
O114 C99 1.240 1_655 S
O115 Gd88 2.395 1_545 S
O115 C99 1.240 . S
O116 Gd89 2.448 . S
O116 C100 1.249 . S
O117 Gd89 2.524 . S
O117 C100 1.295 . S
O118 Gd89 2.435 . S
O118 C107 1.256 . S
O119 Gd88 2.327 1_655 S
O119 Gd89 2.717 1_565 S
O119 C107 1.257 1_565 S
H120 C93 0.930 1_556 S
H121 C94 0.931 1_655 S
H122 C96 0.931 1_655 S
H123 C97 0.931 . S
H124 C102 0.930 . S
H125 C103 0.931 1_455 S
H126 C105 0.931 1_455 S
H127 C106 0.931 . S
Gd128 C131 2.818 . S
Gd128 O148 2.377 . S
Gd128 O150 2.448 . S
Gd128 O151 2.506 . S
Gd128 O152 2.435 . S
Gd128 O153 2.717 . S
Gd128 O155 2.395 . S
Gd128 O159 2.327 1_545 S
Gd129 C140 2.818 . S
Gd129 O149 2.395 . S
Gd129 O153 2.327 1_565 S
Gd129 O154 2.377 . S
Gd129 O156 2.448 . S
Gd129 O157 2.506 . S
Gd129 O158 2.435 . S
Gd129 O159 2.717 . S
C130 O148 1.240 1_565 S
C130 O149 1.240 . S
C131 Gd128 2.818 . S
C131 C132 1.510 . S
C131 O150 1.249 . S
C131 O151 1.252 . S
C132 C131 1.510 . S
C132 C133 1.404 1_556 S
C132 C134 1.352 1_556 S
C133 C132 1.404 1_554 S
C133 C137 1.389 . S
C133 H160 0.930 1_554 S
C134 C132 1.352 1_554 S
C134 C136 1.374 . S
C134 H161 0.931 1_545 S
C135 C136 1.359 . S
C135 C137 1.364 . S
C136 C134 1.374 . S
C136 C135 1.359 . S
C136 H162 0.931 1_545 S
C137 C133 1.389 . S
C137 C135 1.364 . S
C137 H163 0.931 . S
C138 O152 1.256 . S
C138 O153 1.257 . S
C139 O154 1.240 1_545 S
C139 O155 1.240 . S
C140 Gd129 2.818 . S
C140 C141 1.510 . S
C140 O156 1.249 . S
C140 O157 1.252 . S
C141 C140 1.510 . S
C141 C142 1.404 . S
C141 C143 1.352 . S
C142 C141 1.404 . S
C142 C146 1.389 . S
C142 H164 0.930 . S
C143 C141 1.352 . S
C143 C145 1.374 . S
C143 H165 0.931 1_565 S
C144 C145 1.359 . S
C144 C146 1.364 . S
C145 C143 1.374 . S
C145 C144 1.359 . S
C145 H166 0.931 1_565 S
C146 C142 1.389 . S
C146 C144 1.364 . S
C146 H167 0.931 . S
C147 O158 1.256 . S
C147 O159 1.257 . S
O148 Gd128 2.377 . S
O148 C130 1.240 1_545 S
O149 Gd129 2.395 . S
O149 C130 1.240 . S
O150 Gd128 2.448 . S
O150 C131 1.249 . S
O151 Gd128 2.506 . S
O151 C131 1.252 . S
O152 Gd128 2.435 . S
O152 C138 1.256 . S
O153 Gd128 2.717 . S
O153 Gd129 2.327 1_545 S
O153 C138 1.257 . S
O154 Gd129 2.377 . S
O154 C139 1.240 1_565 S
O155 Gd128 2.395 . S
O155 C139 1.240 . S
O156 Gd129 2.448 . S
O156 C140 1.249 . S
O157 Gd129 2.506 . S
O157 C140 1.252 . S
O158 Gd129 2.435 . S
O158 C147 1.256 . S
O159 Gd128 2.327 1_565 S
O159 Gd129 2.717 . S
O159 C147 1.257 . S
H160 C133 0.930 1_556 S
H161 C134 0.931 1_565 S
H162 C136 0.931 1_565 S
H163 C137 0.931 . S
H164 C142 0.930 . S
H165 C143 0.931 1_545 S
H166 C145 0.931 1_545 S
H167 C146 0.931 . S
Gd168 C171 2.818 . S
Gd168 O188 2.377 . S
Gd168 O190 2.448 . S
Gd168 O191 2.506 . S
Gd168 O192 2.435 . S
Gd168 O193 2.717 . S
Gd168 O195 2.395 . S
Gd168 O199 2.327 . S
Gd169 C180 2.818 . S
Gd169 O189 2.395 . S
Gd169 O193 2.327 . S
Gd169 O194 2.377 . S
Gd169 O196 2.448 . S
Gd169 O197 2.506 . S
Gd169 O198 2.435 . S
Gd169 O199 2.717 . S
C170 O188 1.240 . S
C170 O189 1.240 . S
C171 Gd168 2.818 . S
C171 C172 1.510 . S
C171 O190 1.249 . S
C171 O191 1.252 . S
C172 C171 1.510 . S
C172 C173 1.404 1_556 S
C172 C174 1.352 1_556 S
C173 C172 1.404 1_554 S
C173 C177 1.389 . S
C173 H200 0.930 1_554 S
C174 C172 1.352 1_554 S
C174 C176 1.374 . S
C174 H201 0.931 . S
C175 C176 1.359 . S
C175 C177 1.364 . S
C176 C174 1.374 . S
C176 C175 1.359 . S
C176 H202 0.931 . S
C177 C173 1.389 . S
C177 C175 1.364 . S
C177 H203 0.931 . S
C178 O192 1.256 . S
C178 O193 1.257 . S
C179 O194 1.240 . S
C179 O195 1.240 . S
C180 Gd169 2.818 . S
C180 C181 1.510 . S
C180 O196 1.249 . S
C180 O197 1.252 . S
C181 C180 1.510 . S
C181 C182 1.404 . S
C181 C183 1.352 . S
C182 C181 1.404 . S
C182 C186 1.389 . S
C182 H204 0.930 . S
C183 C181 1.352 . S
C183 C185 1.374 . S
C183 H205 0.931 . S
C184 C185 1.359 . S
C184 C186 1.364 . S
C185 C183 1.374 . S
C185 C184 1.359 . S
C185 H206 0.931 . S
C186 C182 1.389 . S
C186 C184 1.364 . S
C186 H207 0.931 . S
C187 O198 1.256 . S
C187 O199 1.257 . S
O188 Gd168 2.377 . S
O188 C170 1.240 . S
O189 Gd169 2.395 . S
O189 C170 1.240 . S
O190 Gd168 2.448 . S
O190 C171 1.249 . S
O191 Gd168 2.506 . S
O191 C171 1.252 . S
O192 Gd168 2.435 . S
O192 C178 1.256 . S
O193 Gd168 2.717 . S
O193 Gd169 2.327 . S
O193 C178 1.257 . S
O194 Gd169 2.377 . S
O194 C179 1.240 . S
O195 Gd168 2.395 . S
O195 C179 1.240 . S
O196 Gd169 2.448 . S
O196 C180 1.249 . S
O197 Gd169 2.506 . S
O197 C180 1.252 . S
O198 Gd169 2.435 . S
O198 C187 1.256 . S
O199 Gd168 2.327 . S
O199 Gd169 2.717 . S
O199 C187 1.257 . S
H200 C173 0.930 1_556 S
H201 C174 0.931 . S
H202 C176 0.931 . S
H203 C177 0.931 . S
H204 C182 0.930 . S
H205 C183 0.931 . S
H206 C185 0.931 . S
H207 C186 0.931 . S
Gd208 C211 2.818 . S
Gd208 O228 2.377 . S
Gd208 O230 2.448 . S
Gd208 O231 2.506 . S
Gd208 O232 2.435 . S
Gd208 O233 2.717 1_655 S
Gd208 O235 2.395 1_655 S
Gd208 O239 2.327 . S
Gd209 C220 2.818 . S
Gd209 O229 2.395 1_455 S
Gd209 O233 2.327 . S
Gd209 O234 2.377 . S
Gd209 O236 2.448 . S
Gd209 O237 2.506 . S
Gd209 O238 2.435 . S
Gd209 O239 2.717 1_455 S
C210 O228 1.240 . S
C210 O229 1.240 . S
C211 Gd208 2.818 . S
C211 C212 1.510 . S
C211 O230 1.249 . S
C211 O231 1.252 . S
C212 C211 1.510 . S
C212 C213 1.404 1_556 S
C212 C214 1.352 1_556 S
C213 C212 1.404 1_554 S
C213 C217 1.389 . S
C213 H240 0.930 1_554 S
C214 C212 1.352 1_554 S
C214 C216 1.374 . S
C214 H241 0.931 . S
C215 C216 1.359 . S
C215 C217 1.364 . S
C216 C214 1.374 . S
C216 C215 1.359 . S
C216 H242 0.931 . S
C217 C213 1.389 . S
C217 C215 1.364 . S
C217 H243 0.931 . S
C218 O232 1.257 1_455 S
C218 O233 1.257 . S
C219 O234 1.240 . S
C219 O235 1.240 . S
C220 Gd209 2.818 . S
C220 C221 1.510 . S
C220 O236 1.249 . S
C220 O237 1.252 . S
C221 C220 1.510 . S
C221 C222 1.404 . S
C221 C223 1.352 . S
C222 C221 1.404 . S
C222 C226 1.389 . S
C222 H244 0.930 . S
C223 C221 1.352 . S
C223 C225 1.374 . S
C223 H245 0.931 . S
C224 C225 1.359 . S
C224 C226 1.364 . S
C225 C223 1.374 . S
C225 C224 1.359 . S
C225 H246 0.931 . S
C226 C222 1.389 . S
C226 C224 1.364 . S
C226 H247 0.931 . S
C227 O238 1.256 . S
C227 O239 1.257 1_455 S
O228 Gd208 2.377 . S
O228 C210 1.240 . S
O229 Gd209 2.395 1_655 S
O229 C210 1.240 . S
O230 Gd208 2.448 . S
O230 C211 1.249 . S
O231 Gd208 2.506 . S
O231 C211 1.252 . S
O232 Gd208 2.435 . S
O232 C218 1.257 1_655 S
O233 Gd208 2.717 1_455 S
O233 Gd209 2.327 . S
O233 C218 1.257 . S
O234 Gd209 2.377 . S
O234 C219 1.240 . S
O235 Gd208 2.395 1_455 S
O235 C219 1.240 . S
O236 Gd209 2.448 . S
O236 C220 1.249 . S
O237 Gd209 2.506 . S
O237 C220 1.252 . S
O238 Gd209 2.435 . S
O238 C227 1.256 . S
O239 Gd208 2.327 . S
O239 Gd209 2.717 1_655 S
O239 C227 1.257 1_655 S
H240 C213 0.930 1_556 S
H241 C214 0.931 . S
H242 C216 0.931 . S
H243 C217 0.931 . S
H244 C222 0.930 . S
H245 C223 0.931 . S
H246 C225 0.931 . S
H247 C226 0.931 . S
H248 C256 0.950 . S
H249 C261 0.949 1_565 S
H250 C258 0.950 . S
H251 C260 0.948 1_565 S
H252 C262 0.950 . S
H253 C264 0.950 . S
H254 C266 0.950 . S
H255 C267 0.950 . S
C256 H248 0.950 . S
C256 C257 1.386 . S
C256 C258 1.391 . S
C257 C256 1.386 . S
C257 C261 1.394 . S
C258 H250 0.950 . S
C258 C256 1.391 . S
C258 C259 1.400 . S
C259 C258 1.400 . S
C259 C260 1.400 . S
C259 C265 1.491 . S
C260 H251 0.948 1_545 S
C260 C259 1.400 . S
C260 C261 1.391 . S
C261 H249 0.949 1_545 S
C261 C257 1.394 . S
C261 C260 1.391 . S
C262 H252 0.950 . S
C262 C263 1.386 1_565 S
C262 C264 1.391 . S
C263 C262 1.386 1_545 S
C263 C267 1.393 . S
C264 H253 0.950 . S
C264 C262 1.391 . S
C264 C265 1.400 1_565 S
C265 C259 1.491 . S
C265 C264 1.400 1_545 S
C265 C266 1.398 . S
C266 H254 0.950 . S
C266 C265 1.398 . S
C266 C267 1.391 . S
C267 H255 0.950 . S
C267 C263 1.393 . S
C267 C266 1.391 . S
H268 C276 0.950 . S
H269 C281 0.950 . S
H270 C278 0.950 . S
H271 C280 0.950 . S
H272 C282 0.950 . S
H273 C284 0.950 . S
H274 C286 0.950 . S
H275 C287 0.950 . S
C276 H268 0.950 . S
C276 C277 1.386 . S
C276 C278 1.391 . S
C277 C276 1.386 . S
C277 C281 1.393 . S
C278 H270 0.950 . S
C278 C276 1.391 . S
C278 C279 1.400 . S
C279 C278 1.400 . S
C279 C280 1.398 . S
C279 C285 1.491 . S
C280 H271 0.950 . S
C280 C279 1.398 . S
C280 C281 1.391 . S
C281 H269 0.950 . S
C281 C277 1.393 . S
C281 C280 1.391 . S
C282 H272 0.950 . S
C282 C283 1.386 . S
C282 C284 1.391 . S
C283 C282 1.386 . S
C283 C287 1.393 . S
C284 H273 0.950 . S
C284 C282 1.391 . S
C284 C285 1.400 . S
C285 C279 1.491 . S
C285 C284 1.400 . S
C285 C286 1.398 . S
C286 H274 0.950 . S
C286 C285 1.398 . S
C286 C287 1.391 . S
C287 H275 0.950 . S
C287 C283 1.393 . S
C287 C286 1.391 . S
H288 C296 0.950 . S
H289 C301 0.950 . S
H290 C298 0.950 . S
H291 C300 0.950 . S
H292 C302 0.950 . S
H293 C304 0.950 . S
H294 C306 0.950 . S
H295 C307 0.950 . S
C296 H288 0.950 . S
C296 C297 1.386 . S
C296 C298 1.391 . S
C297 C296 1.386 . S
C297 C301 1.393 . S
C298 H290 0.950 . S
C298 C296 1.391 . S
C298 C299 1.400 . S
C299 C298 1.400 . S
C299 C300 1.398 . S
C299 C305 1.491 . S
C300 H291 0.950 . S
C300 C299 1.398 . S
C300 C301 1.391 . S
C301 H289 0.950 . S
C301 C297 1.393 . S
C301 C300 1.391 . S
C302 H292 0.950 . S
C302 C303 1.386 . S
C302 C304 1.391 . S
C303 C302 1.386 . S
C303 C307 1.393 . S
C304 H293 0.950 . S
C304 C302 1.391 . S
C304 C305 1.400 . S
C305 C299 1.491 . S
C305 C304 1.400 . S
C305 C306 1.398 . S
C306 H294 0.950 . S
C306 C305 1.398 . S
C306 C307 1.391 . S
C307 H295 0.950 . S
C307 C303 1.393 . S
C307 C306 1.391 . S
H308 C316 0.950 . S
H309 C321 0.950 . S
H310 C318 0.950 . S
H311 C320 0.950 . S
H312 C322 0.950 . S
H313 C324 0.950 . S
H314 C326 0.950 . S
H315 C327 0.950 . S
C316 H308 0.950 . S
C316 C317 1.386 1_655 S
C316 C318 1.391 . S
C317 C316 1.386 1_455 S
C317 C321 1.393 . S
C318 H310 0.950 . S
C318 C316 1.391 . S
C318 C319 1.400 1_655 S
C319 C318 1.400 1_455 S
C319 C320 1.398 . S
C319 C325 1.491 . S
C320 H311 0.950 . S
C320 C319 1.398 . S
C320 C321 1.391 . S
C321 H309 0.950 . S
C321 C317 1.393 . S
C321 C320 1.391 . S
C322 H312 0.950 . S
C322 C323 1.386 . S
C322 C324 1.391 . S
C323 C322 1.386 . S
C323 C327 1.393 1_455 S
C324 H313 0.950 . S
C324 C322 1.391 . S
C324 C325 1.400 . S
C325 C319 1.491 . S
C325 C324 1.400 . S
C325 C326 1.398 1_455 S
C326 H314 0.950 . S
C326 C325 1.398 1_655 S
C326 C327 1.391 . S
C327 H315 0.950 . S
C327 C323 1.393 1_655 S
C327 C326 1.391 . S
H328 C336 0.950 . S
H329 C341 0.950 . S
H330 C338 0.950 . S
H331 C340 0.950 . S
H332 C342 0.950 . S
H333 C344 0.950 . S
H334 C346 0.950 . S
H335 C347 0.950 . S
C336 H328 0.950 . S
C336 C337 1.386 1_545 S
C336 C338 1.391 . S
C337 C336 1.386 1_565 S
C337 C341 1.393 . S
C338 H330 0.950 . S
C338 C336 1.391 . S
C338 C339 1.400 1_545 S
C339 C338 1.400 1_565 S
C339 C340 1.398 . S
C339 C345 1.491 . S
C340 H331 0.950 . S
C340 C339 1.398 . S
C340 C341 1.391 . S
C341 H329 0.950 . S
C341 C337 1.393 . S
C341 C340 1.391 . S
C342 H332 0.950 . S
C342 C343 1.386 . S
C342 C344 1.391 . S
C343 C342 1.386 . S
C343 C347 1.393 1_566 S
C344 H333 0.950 . S
C344 C342 1.391 . S
C344 C345 1.400 1_556 S
C345 C339 1.491 . S
C345 C344 1.400 1_554 S
C345 C346 1.398 1_565 S
C346 H334 0.950 . S
C346 C345 1.398 1_545 S
C346 C347 1.391 . S
C347 H335 0.950 . S
C347 C343 1.393 1_544 S
C347 C346 1.391 . S
H348 C356 0.950 . S
H349 C361 0.950 . S
H350 C358 0.950 . S
H351 C360 0.950 . S
H352 C362 0.950 . S
H353 C364 0.950 . S
H354 C366 0.950 . S
H355 C367 0.950 . S
C356 H348 0.950 . S
C356 C357 1.386 . S
C356 C358 1.391 . S
C357 C356 1.386 . S
C357 C361 1.393 . S
C358 H350 0.950 . S
C358 C356 1.391 . S
C358 C359 1.400 . S
C359 C358 1.400 . S
C359 C360 1.398 . S
C359 C365 1.491 . S
C360 H351 0.950 . S
C360 C359 1.398 . S
C360 C361 1.391 . S
C361 H349 0.950 . S
C361 C357 1.393 . S
C361 C360 1.391 . S
C362 H352 0.950 . S
C362 C363 1.386 . S
C362 C364 1.391 1_556 S
C363 C362 1.386 . S
C363 C367 1.393 . S
C364 H353 0.950 . S
C364 C362 1.391 1_554 S
C364 C365 1.400 . S
C365 C359 1.491 . S
C365 C364 1.400 . S
C365 C366 1.398 . S
C366 H354 0.950 . S
C366 C365 1.398 . S
C366 C367 1.391 1_554 S
C367 H355 0.950 . S
C367 C363 1.393 . S
C367 C366 1.391 1_556 S
H368 C376 0.950 . S
H369 C381 0.950 . S
H370 C378 0.950 . S
H371 C380 0.950 . S
H372 C382 0.950 . S
H373 C384 0.950 . S
H374 C386 0.950 . S
H375 C387 0.950 . S
C376 H368 0.950 . S
C376 C377 1.386 . S
C376 C378 1.391 . S
C377 C376 1.386 . S
C377 C381 1.393 . S
C378 H370 0.950 . S
C378 C376 1.391 . S
C378 C379 1.400 . S
C379 C378 1.400 . S
C379 C380 1.398 . S
C379 C385 1.491 . S
C380 H371 0.950 . S
C380 C379 1.398 . S
C380 C381 1.391 . S
C381 H369 0.950 . S
C381 C377 1.393 . S
C381 C380 1.391 . S
C382 H372 0.950 . S
C382 C383 1.386 1_554 S
C382 C384 1.391 . S
C383 C382 1.386 1_556 S
C383 C387 1.393 . S
C384 H373 0.950 . S
C384 C382 1.391 . S
C384 C385 1.400 . S
C385 C379 1.491 . S
C385 C384 1.400 . S
C385 C386 1.398 1_554 S
C386 H374 0.950 . S
C386 C385 1.398 1_556 S
C386 C387 1.391 . S
C387 H375 0.950 . S
C387 C383 1.393 . S
C387 C386 1.391 . S
H388 C396 0.950 . S
H389 C401 0.950 . S
H390 C398 0.950 . S
H391 C400 0.950 . S
H392 C402 0.950 . S
H393 C404 0.950 . S
H394 C406 0.950 . S
H395 C407 0.950 . S
C396 H388 0.950 . S
C396 C397 1.386 . S
C396 C398 1.391 . S
C397 C396 1.386 . S
C397 C401 1.393 1_655 S
C398 H390 0.950 . S
C398 C396 1.391 . S
C398 C399 1.400 . S
C399 C398 1.400 . S
C399 C400 1.398 1_655 S
C399 C405 1.492 . S
C400 H391 0.950 . S
C400 C399 1.398 1_455 S
C400 C401 1.391 . S
C401 H389 0.950 . S
C401 C397 1.393 1_455 S
C401 C400 1.391 . S
C402 H392 0.950 . S
C402 C403 1.354 1_455 S
C402 C404 1.391 1_556 S
C403 C402 1.354 1_655 S
C403 C407 1.424 . S
C404 H393 0.950 . S
C404 C402 1.391 1_554 S
C404 C405 1.368 1_455 S
C405 C399 1.492 . S
C405 C404 1.368 1_655 S
C405 C406 1.431 . S
C406 H394 0.950 . S
C406 C405 1.431 . S
C406 C407 1.391 1_554 S
C407 H395 0.950 . S
C407 C403 1.424 . S
C407 C406 1.391 1_556 S
H408 C416 0.950 . S
H409 C421 0.950 . S
H410 C418 0.950 . S
H411 C420 0.950 . S
H412 C422 0.950 . S
H413 C424 0.950 1_455 S
H414 C426 0.950 . S
H415 C427 0.950 . S
C416 H408 0.950 . S
C416 C417 1.386 1_655 S
C416 C418 1.391 . S
C417 C416 1.386 1_455 S
C417 C421 1.393 . S
C418 H410 0.950 . S
C418 C416 1.391 . S
C418 C419 1.400 . S
C419 C418 1.400 . S
C419 C420 1.398 1_655 S
C419 C425 1.491 . S
C420 H411 0.950 . S
C420 C419 1.398 1_455 S
C420 C421 1.391 . S
C421 H409 0.950 . S
C421 C417 1.393 . S
C421 C420 1.391 . S
C422 H412 0.950 . S
C422 C423 1.386 . S
C422 C424 1.391 . S
C423 C422 1.386 . S
C423 C427 1.393 . S
C424 H413 0.950 1_655 S
C424 C422 1.391 . S
C424 C425 1.400 . S
C425 C419 1.491 . S
C425 C424 1.400 . S
C425 C426 1.398 . S
C426 H414 0.950 . S
C426 C425 1.398 . S
C426 C427 1.391 . S
C427 H415 0.950 . S
C427 C423 1.393 . S
C427 C426 1.391 . S
H428 C436 0.950 . S
H429 C441 0.950 . S
H430 C438 0.950 . S
H431 C440 0.950 . S
H432 C442 0.950 . S
H433 C444 0.950 . S
H434 C446 0.950 1_545 S
H435 C447 0.950 . S
C436 H428 0.950 . S
C436 C437 1.386 . S
C436 C438 1.391 . S
C437 C436 1.386 . S
C437 C441 1.393 1_545 S
C438 H430 0.950 . S
C438 C436 1.391 . S
C438 C439 1.400 1_545 S
C439 C438 1.400 1_565 S
C439 C440 1.398 . S
C439 C445 1.491 . S
C440 H431 0.950 . S
C440 C439 1.398 . S
C440 C441 1.391 . S
C441 H429 0.950 . S
C441 C437 1.393 1_565 S
C441 C440 1.391 . S
C442 H432 0.950 . S
C442 C443 1.386 . S
C442 C444 1.391 . S
C443 C442 1.386 . S
C443 C447 1.393 . S
C444 H433 0.950 . S
C444 C442 1.391 . S
C444 C445 1.400 . S
C445 C439 1.491 . S
C445 C444 1.400 . S
C445 C446 1.398 . S
C446 H434 0.950 1_565 S
C446 C445 1.398 . S
C446 C447 1.391 . S
C447 H435 0.950 . S
C447 C443 1.393 . S
C447 C446 1.391 . S
H448 C456 0.950 . S
H449 C461 0.950 . S
H450 C458 0.950 . S
H451 C460 0.950 . S
H452 C462 0.950 . S
H453 C464 0.950 . S
H454 C466 0.950 . S
H455 C467 0.950 . S
C456 H448 0.950 . S
C456 C457 1.386 . S
C456 C458 1.391 . S
C457 C456 1.386 . S
C457 C461 1.393 . S
C458 H450 0.950 . S
C458 C456 1.391 . S
C458 C459 1.400 . S
C459 C458 1.400 . S
C459 C460 1.398 . S
C459 C465 1.491 . S
C460 H451 0.950 . S
C460 C459 1.398 . S
C460 C461 1.391 . S
C461 H449 0.950 . S
C461 C457 1.393 . S
C461 C460 1.391 . S
C462 H452 0.950 . S
C462 C463 1.386 . S
C462 C464 1.391 . S
C463 C462 1.386 . S
C463 C467 1.393 . S
C464 H453 0.950 . S
C464 C462 1.391 . S
C464 C465 1.400 . S
C465 C459 1.491 . S
C465 C464 1.400 . S
C465 C466 1.398 . S
C466 H454 0.950 . S
C466 C465 1.398 . S
C466 C467 1.391 . S
C467 H455 0.950 . S
C467 C463 1.393 . S
C467 C466 1.391 . S
H468 C476 0.950 . S
H469 C481 0.950 . S
H470 C478 0.950 . S
H471 C480 0.950 . S
H472 C482 0.950 . S
H473 C484 0.950 . S
H474 C486 0.950 . S
H475 C487 0.950 . S
C476 H468 0.950 . S
C476 C477 1.386 . S
C476 C478 1.391 . S
C477 C476 1.386 . S
C477 C481 1.393 . S
C478 H470 0.950 . S
C478 C476 1.391 . S
C478 C479 1.400 . S
C479 C478 1.400 . S
C479 C480 1.398 . S
C479 C485 1.491 . S
C480 H471 0.950 . S
C480 C479 1.398 . S
C480 C481 1.391 . S
C481 H469 0.950 . S
C481 C477 1.393 . S
C481 C480 1.391 . S
C482 H472 0.950 . S
C482 C483 1.386 . S
C482 C484 1.391 . S
C483 C482 1.386 . S
C483 C487 1.393 . S
C484 H473 0.950 . S
C484 C482 1.391 . S
C484 C485 1.400 . S
C485 C479 1.491 . S
C485 C484 1.400 . S
C485 C486 1.398 . S
C486 H474 0.950 . S
C486 C485 1.398 . S
C486 C487 1.391 . S
C487 H475 0.950 . S
C487 C483 1.393 . S
C487 C486 1.391 . S
H488 C496 0.950 . S
H489 C501 0.950 . S
H490 C498 0.950 . S
H491 C500 0.950 . S
H492 C502 0.950 1_655 S
H493 C504 0.950 1_655 S
H494 C506 0.950 . S
H495 C507 0.950 . S
C496 H488 0.950 . S
C496 C497 1.386 1_455 S
C496 C498 1.391 . S
C497 C496 1.386 1_655 S
C497 C501 1.393 . S
C498 H490 0.950 . S
C498 C496 1.391 . S
C498 C499 1.400 . S
C499 C498 1.400 . S
C499 C500 1.398 1_455 S
C499 C505 1.491 . S
C500 H491 0.950 . S
C500 C499 1.398 1_655 S
C500 C501 1.391 . S
C501 H489 0.950 . S
C501 C497 1.393 . S
C501 C500 1.391 . S
C502 H492 0.950 1_455 S
C502 C503 1.386 . S
C502 C504 1.391 . S
C503 C502 1.386 . S
C503 C507 1.393 . S
C504 H493 0.950 1_455 S
C504 C502 1.391 . S
C504 C505 1.400 . S
C505 C499 1.491 . S
C505 C504 1.400 . S
C505 C506 1.398 . S
C506 H494 0.950 . S
C506 C505 1.398 . S
C506 C507 1.391 . S
C507 H495 0.950 . S
C507 C503 1.393 . S
C507 C506 1.391 . S
H508 C516 0.950 . S
H509 C521 0.950 . S
H510 C518 0.950 . S
H511 C520 0.950 . S
H512 C522 0.950 . S
H513 C524 0.950 . S
H514 C526 0.950 1_565 S
H515 C527 0.950 . S
C516 H508 0.950 . S
C516 C517 1.386 . S
C516 C518 1.391 . S
C517 C516 1.386 . S
C517 C521 1.393 1_565 S
C518 H510 0.950 . S
C518 C516 1.391 . S
C518 C519 1.400 1_565 S
C519 C518 1.400 1_545 S
C519 C520 1.398 . S
C519 C525 1.491 . S
C520 H511 0.950 . S
C520 C519 1.398 . S
C520 C521 1.391 . S
C521 H509 0.950 . S
C521 C517 1.393 1_545 S
C521 C520 1.391 . S
C522 H512 0.950 . S
C522 C523 1.386 . S
C522 C524 1.391 . S
C523 C522 1.386 . S
C523 C527 1.393 . S
C524 H513 0.950 . S
C524 C522 1.391 . S
C524 C525 1.400 . S
C525 C519 1.491 . S
C525 C524 1.400 . S
C525 C526 1.398 . S
C526 H514 0.950 1_545 S
C526 C525 1.398 . S
C526 C527 1.391 . S
C527 H515 0.950 . S
C527 C523 1.393 . S
C527 C526 1.391 . S
H528 C536 0.950 . S
H529 C541 0.950 . S
H530 C538 0.950 . S
H531 C540 0.950 . S
H532 C542 0.950 . S
H533 C544 0.950 . S
H534 C546 0.950 . S
H535 C547 0.950 . S
C536 H528 0.950 . S
C536 C537 1.386 . S
C536 C538 1.391 . S
C537 C536 1.386 . S
C537 C541 1.393 . S
C538 H530 0.950 . S
C538 C536 1.391 . S
C538 C539 1.400 . S
C539 C538 1.400 . S
C539 C540 1.398 . S
C539 C545 1.491 . S
C540 H531 0.950 . S
C540 C539 1.398 . S
C540 C541 1.391 . S
C541 H529 0.950 . S
C541 C537 1.393 . S
C541 C540 1.391 . S
C542 H532 0.950 . S
C542 C543 1.386 . S
C542 C544 1.391 . S
C543 C542 1.386 . S
C543 C547 1.393 . S
C544 H533 0.950 . S
C544 C542 1.391 . S
C544 C545 1.400 . S
C545 C539 1.491 . S
C545 C544 1.400 . S
C545 C546 1.398 . S
C546 H534 0.950 . S
C546 C545 1.398 . S
C546 C547 1.391 . S
C547 H535 0.950 . S
C547 C543 1.393 . S
C547 C546 1.391 . S
H548 C556 0.950 . S
H549 C561 0.950 . S
H550 C558 0.950 . S
H551 C560 0.950 . S
H552 C562 0.950 1_556 S
H553 C564 0.950 . S
H554 C566 0.950 . S
H555 C567 0.950 . S
C556 H548 0.950 . S
C556 C557 1.386 . S
C556 C558 1.391 . S
C557 C556 1.386 . S
C557 C561 1.393 . S
C558 H550 0.950 . S
C558 C556 1.391 . S
C558 C559 1.400 . S
C559 C558 1.400 . S
C559 C560 1.398 . S
C559 C565 1.491 . S
C560 H551 0.950 . S
C560 C559 1.398 . S
C560 C561 1.391 . S
C561 H549 0.950 . S
C561 C557 1.393 . S
C561 C560 1.391 . S
C562 H552 0.950 1_554 S
C562 C563 1.386 . S
C562 C564 1.391 . S
C563 C562 1.386 . S
C563 C567 1.393 . S
C564 H553 0.950 . S
C564 C562 1.391 . S
C564 C565 1.400 . S
C565 C559 1.491 . S
C565 C564 1.400 . S
C565 C566 1.398 . S
C566 H554 0.950 . S
C566 C565 1.398 . S
C566 C567 1.391 . S
C567 H555 0.950 . S
C567 C563 1.393 . S
C567 C566 1.391 . S
H568 C576 0.950 . S
H569 C581 0.950 . S
H570 C578 0.950 . S
H571 C580 0.950 . S
H572 C582 0.950 . S
H573 C584 0.950 . S
H574 C586 0.949 1_655 S
H575 C587 0.950 1_655 S
C576 H568 0.950 . S
C576 C577 1.386 1_655 S
C576 C578 1.391 . S
C577 C576 1.386 1_455 S
C577 C581 1.393 . S
C578 H570 0.950 . S
C578 C576 1.391 . S
C578 C579 1.400 1_655 S
C579 C578 1.400 1_455 S
C579 C580 1.398 . S
C579 C585 1.491 . S
C580 H571 0.950 . S
C580 C579 1.398 . S
C580 C581 1.391 . S
C581 H569 0.950 . S
C581 C577 1.393 . S
C581 C580 1.391 . S
C582 H572 0.950 . S
C582 C583 1.386 . S
C582 C584 1.391 . S
C583 C582 1.386 . S
C583 C587 1.393 . S
C584 H573 0.950 . S
C584 C582 1.391 . S
C584 C585 1.400 . S
C585 C579 1.491 . S
C585 C584 1.400 . S
C585 C586 1.399 . S
C586 H574 0.949 1_455 S
C586 C585 1.399 . S
C586 C587 1.391 . S
C587 H575 0.950 1_455 S
C587 C583 1.393 . S
C587 C586 1.391 . S
H588 C596 0.950 . S
H589 C601 0.950 . S
H590 C598 0.950 . S
H591 C600 0.950 . S
H592 C602 0.950 . S
H593 C604 0.950 . S
H594 C606 0.950 . S
H595 C607 0.950 . S
C596 H588 0.950 . S
C596 C597 1.386 1_565 S
C596 C598 1.391 . S
C597 C596 1.386 1_545 S
C597 C601 1.393 . S
C598 H590 0.950 . S
C598 C596 1.391 . S
C598 C599 1.400 1_565 S
C599 C598 1.400 1_545 S
C599 C600 1.398 . S
C599 C605 1.491 . S
C600 H591 0.950 . S
C600 C599 1.398 . S
C600 C601 1.391 . S
C601 H589 0.950 . S
C601 C597 1.393 . S
C601 C600 1.391 . S
C602 H592 0.950 . S
C602 C603 1.386 . S
C602 C604 1.391 . S
C603 C602 1.386 . S
C603 C607 1.393 1_545 S
C604 H593 0.950 . S
C604 C602 1.391 . S
C604 C605 1.400 . S
C605 C599 1.491 . S
C605 C604 1.400 . S
C605 C606 1.398 1_545 S
C606 H594 0.950 . S
C606 C605 1.398 1_565 S
C606 C607 1.391 . S
C607 H595 0.950 . S
C607 C603 1.393 1_565 S
C607 C606 1.391 . S
H608 C616 0.941 1_554 S
H609 C621 0.950 . S
H610 C618 0.950 . S
H611 C620 0.950 . S
H612 C622 0.950 . S
H613 C624 0.950 . S
H614 C626 0.950 . S
H615 C627 0.950 . S
C616 H608 0.941 1_556 S
C616 C617 1.386 . S
C616 C618 1.391 . S
C617 C616 1.386 . S
C617 C621 1.393 . S
C618 H610 0.950 . S
C618 C616 1.391 . S
C618 C619 1.400 . S
C619 C618 1.400 . S
C619 C620 1.398 . S
C619 C625 1.491 . S
C620 H611 0.950 . S
C620 C619 1.398 . S
C620 C621 1.391 . S
C621 H609 0.950 . S
C621 C617 1.393 . S
C621 C620 1.391 . S
C622 H612 0.950 . S
C622 C623 1.386 . S
C622 C624 1.391 . S
C623 C622 1.386 . S
C623 C627 1.393 . S
C624 H613 0.950 . S
C624 C622 1.391 . S
C624 C625 1.400 . S
C625 C619 1.491 . S
C625 C624 1.400 . S
C625 C626 1.398 . S
C626 H614 0.950 . S
C626 C625 1.398 . S
C626 C627 1.391 . S
C627 H615 0.950 . S
C627 C623 1.393 . S
C627 C626 1.391 . S
H628 C636 0.950 . S
H629 C641 0.950 . S
H630 C638 0.950 . S
H631 C640 0.950 . S
H632 C642 0.950 . S
H633 C644 0.950 . S
H634 C646 0.950 . S
H635 C647 0.950 . S
C636 H628 0.950 . S
C636 C637 1.386 . S
C636 C638 1.391 . S
C637 C636 1.386 . S
C637 C641 1.393 . S
C638 H630 0.950 . S
C638 C636 1.391 . S
C638 C639 1.400 . S
C639 C638 1.400 . S
C639 C640 1.398 . S
C639 C645 1.491 . S
C640 H631 0.950 . S
C640 C639 1.398 . S
C640 C641 1.391 . S
C641 H629 0.950 . S
C641 C637 1.393 . S
C641 C640 1.391 . S
C642 H632 0.950 . S
C642 C643 1.386 . S
C642 C644 1.391 . S
C643 C642 1.386 . S
C643 C647 1.393 . S
C644 H633 0.950 . S
C644 C642 1.391 . S
C644 C645 1.400 . S
C645 C639 1.491 . S
C645 C644 1.400 . S
C645 C646 1.398 . S
C646 H634 0.950 . S
C646 C645 1.398 . S
C646 C647 1.391 . S
C647 H635 0.950 . S
C647 C643 1.393 . S
C647 C646 1.391 . S
H648 C656 0.950 . S
H649 C661 0.957 . S
H650 C658 0.950 . S
H651 C660 0.950 1_455 S
H652 C662 0.951 . S
H653 C664 0.950 1_455 S
H654 C666 0.950 . S
H655 C667 0.950 . S
C656 H648 0.950 . S
C656 C657 1.386 . S
C656 C658 1.391 . S
C657 C656 1.386 . S
C657 C661 1.388 1_655 S
C658 H650 0.950 . S
C658 C656 1.391 . S
C658 C659 1.400 . S
C659 C658 1.400 . S
C659 C660 1.398 . S
C659 C665 1.491 . S
C660 H651 0.950 1_655 S
C660 C659 1.398 . S
C660 C661 1.389 1_655 S
C661 H649 0.957 . S
C661 C657 1.388 1_455 S
C661 C660 1.389 1_455 S
C662 H652 0.951 . S
C662 C663 1.386 . S
C662 C664 1.391 . S
C663 C662 1.386 . S
C663 C667 1.393 . S
C664 H653 0.950 1_655 S
C664 C662 1.391 . S
C664 C665 1.400 . S
C665 C659 1.491 . S
C665 C664 1.400 . S
C665 C666 1.398 . S
C666 H654 0.950 . S
C666 C665 1.398 . S
C666 C667 1.391 . S
C667 H655 0.950 . S
C667 C663 1.393 . S
C667 C666 1.391 . S
H668 C676 0.950 . S
H669 C681 0.949 1_545 S
H670 C678 0.950 . S
H671 C680 0.948 1_545 S
H672 C682 0.950 . S
H673 C684 0.941 1_545 S
H674 C686 0.950 . S
H675 C687 0.950 . S
C676 H668 0.950 . S
C676 C677 1.386 . S
C676 C678 1.391 . S
C677 C676 1.386 . S
C677 C681 1.393 . S
C678 H670 0.950 . S
C678 C676 1.391 . S
C678 C679 1.400 . S
C679 C678 1.400 . S
C679 C680 1.398 . S
C679 C685 1.491 . S
C680 H671 0.948 1_565 S
C680 C679 1.398 . S
C680 C681 1.391 . S
C681 H669 0.949 1_565 S
C681 C677 1.393 . S
C681 C680 1.391 . S
C682 H672 0.950 . S
C682 C683 1.386 . S
C682 C684 1.391 . S
C683 C682 1.386 . S
C683 C687 1.393 . S
C684 H673 0.941 1_565 S
C684 C682 1.391 . S
C684 C685 1.400 . S
C685 C679 1.491 . S
C685 C684 1.400 . S
C685 C686 1.398 . S
C686 H674 0.950 . S
C686 C685 1.398 . S
C686 C687 1.391 . S
C687 H675 0.950 . S
C687 C683 1.393 . S
C687 C686 1.391 . S
H688 C696 0.950 . S
H689 C701 0.950 . S
H690 C698 0.950 . S
H691 C700 0.950 . S
H692 C702 0.950 . S
H693 C704 0.950 . S
H694 C706 0.950 . S
H695 C707 0.950 . S
C696 H688 0.950 . S
C696 C697 1.386 . S
C696 C698 1.391 . S
C697 C696 1.386 . S
C697 C701 1.393 . S
C698 H690 0.950 . S
C698 C696 1.391 . S
C698 C699 1.400 . S
C699 C698 1.400 . S
C699 C700 1.398 . S
C699 C705 1.491 . S
C700 H691 0.950 . S
C700 C699 1.398 . S
C700 C701 1.391 . S
C701 H689 0.950 . S
C701 C697 1.393 . S
C701 C700 1.391 . S
C702 H692 0.950 . S
C702 C703 1.386 . S
C702 C704 1.391 . S
C703 C702 1.386 . S
C703 C707 1.393 . S
C704 H693 0.950 . S
C704 C702 1.391 . S
C704 C705 1.400 . S
C705 C699 1.491 . S
C705 C704 1.400 . S
C705 C706 1.398 . S
C706 H694 0.950 . S
C706 C705 1.398 . S
C706 C707 1.391 . S
C707 H695 0.950 . S
C707 C703 1.393 . S
C707 C706 1.391 . S
H708 C716 0.950 . S
H709 C721 0.950 . S
H710 C718 0.950 . S
H711 C720 0.950 . S
H712 C722 0.950 . S
H713 C724 0.950 . S
H714 C726 0.950 . S
H715 C727 0.950 . S
C716 H708 0.950 . S
C716 C717 1.386 . S
C716 C718 1.391 . S
C717 C716 1.386 . S
C717 C721 1.393 . S
C718 H710 0.950 . S
C718 C716 1.391 . S
C718 C719 1.400 . S
C719 C718 1.400 . S
C719 C720 1.398 . S
C719 C725 1.491 . S
C720 H711 0.950 . S
C720 C719 1.398 . S
C720 C721 1.391 . S
C721 H709 0.950 . S
C721 C717 1.393 . S
C721 C720 1.391 . S
C722 H712 0.950 . S
C722 C723 1.386 . S
C722 C724 1.391 . S
C723 C722 1.386 . S
C723 C727 1.393 . S
C724 H713 0.950 . S
C724 C722 1.391 . S
C724 C725 1.400 . S
C725 C719 1.491 . S
C725 C724 1.400 . S
C725 C726 1.398 . S
C726 H714 0.950 . S
C726 C725 1.398 . S
C726 C727 1.391 . S
C727 H715 0.950 . S
C727 C723 1.393 . S
C727 C726 1.391 . S
C257 C76 1.832 . S
C263 C98 1.949 1_545 S
C283 C138 1.956 . S
C277 C87 1.838 . S
C303 C178 1.953 . S
C297 C54 1.836 . S
C323 C218 1.956 . S
C317 C65 1.814 . S
C343 C107 1.953 1_565 S
C337 C32 1.829 . S
C357 C43 1.814 . S
C363 C147 1.960 . S
C377 C10 1.825 . S
C383 C187 1.960 . S
C397 C21 1.814 . S
C403 C227 1.953 1_655 S
C423 C104 0.547 . S
C417 C60 0.516 . S
C443 C144 0.535 . S
C437 C71 0.561 . S
C463 C184 0.537 . S
C457 C82 0.506 . S
C477 C49 0.556 . S
C483 C224 0.550 . S
C497 C16 0.569 . S
C503 C95 0.529 . S
C523 C135 0.502 . S
C517 C27 0.497 . S
C543 C175 0.534 . S
C537 C38 0.513 . S
C557 C5 0.529 . S
C563 C215 0.492 . S
C577 C59 2.002 . S
C583 C99 2.241 . S
C597 C70 2.015 . S
C603 C139 2.254 . S
C623 C179 2.258 . S
C617 C81 2.002 . S
C643 C219 2.255 . S
C637 C48 2.015 . S
C657 C15 2.010 . S
C663 C90 2.252 . S
C683 C130 2.247 . S
C677 C26 2.009 . S
C703 C170 2.248 . S
C697 C37 2.015 . S
C717 C4 2.013 . S
C723 C210 2.247 . S
