# Generated by pormake.
# Topology pts, (4,4)-cn, num edge types: 1
# Building blocks:
#     Node 0, Type 0, BuildingBlock: MIFKUJ_clean_linker_1, # of connection points: 4
#     Node 1, Type 0, BuildingBlock: MIFKUJ_clean_linker_1, # of connection points: 4
#     Node 2, Type 1, BuildingBlock: AZAVOO_clean_sbu_0, # of connection points: 4
#     Node 3, Type 1, BuildingBlock: AZAVOO_clean_sbu_0, # of connection points: 4
#     Edge 4, Type (0, 1), BuildingBlock: XUDNAN_clean_linker_2, # of connection points: 2
#     Edge 5, Type (0, 1), BuildingBlock: XUDNAN_clean_linker_2, # of connection points: 2
#     Edge 6, Type (0, 1), BuildingBlock: XUDNAN_clean_linker_2, # of connection points: 2
#     Edge 7, Type (0, 1), BuildingBlock: XUDNAN_clean_linker_2, # of connection points: 2
#     Edge 8, Type (0, 1), BuildingBlock: XUDNAN_clean_linker_2, # of connection points: 2
#     Edge 9, Type (0, 1), BuildingBlock: XUDNAN_clean_linker_2, # of connection points: 2
#     Edge 10, Type (0, 1), BuildingBlock: XUDNAN_clean_linker_2, # of connection points: 2
#     Edge 11, Type (0, 1), BuildingBlock: XUDNAN_clean_linker_2, # of connection points: 2
# Relax obj value: 0.003
# Max RMSD: 0.043
# Mean RMSD: 0.032
data_MOF--net-pts--node1-AZAVOO_clean_sbu_0--node2-MIFKUJ_clean_linker_1--edge1-XUDNAN_clean_linker_2
_symmetry_space_group_name_H-M    P1
_symmetry_Int_Tables_number       1
_symmetry_cell_setting            triclinic
loop_
_symmetry_equiv_pos_as_xyz
'x, y, z'
_cell_length_a     29.571344
_cell_length_b     30.399489
_cell_length_c     41.464083
_cell_angle_alpha  89.621864
_cell_angle_beta   96.194894
_cell_angle_gamma 90.129728
loop_
_atom_site_label
_atom_site_type_symbol
_atom_site_fract_x
_atom_site_fract_y
_atom_site_fract_z
_atom_type_partial_charge
H0 H 0.59525 0.96784 0.07071 0.0
H1 H 0.66955 0.95865 0.10197 0.0
H2 H 0.72152 0.06876 0.05076 0.0
H3 H 0.64692 0.07812 0.01971 0.0
H4 H 0.53663 0.03196 0.06804 0.0
H5 H 0.61878 0.95963 0.99077 0.0
H6 H 0.67822 0.9449 0.95569 0.0
H7 H 0.6522 0.07055 0.90817 0.0
H8 H 0.59294 0.08546 0.94379 0.0
H9 H 0.4481 0.09473 0.94307 0.0
H10 H 0.37255 0.09418 0.91227 0.0
H11 H 0.33536 0.98157 0.96776 0.0
H12 H 0.41104 0.98152 0.99787 0.0
H13 H 0.51453 0.03637 0.94778 0.0
H14 H 0.42341 0.10198 0.02469 0.0
H15 H 0.35862 0.10579 0.0566 0.0
H16 H 0.40015 0.98283 0.10361 0.0
H17 H 0.46507 0.9796 0.07198 0.0
C18 C 0.61546 0.02352 0.0427 0.0
C19 C 0.62258 0.99011 0.06624 0.0
C20 C 0.66506 0.98489 0.08411 0.0
C21 C 0.70141 0.01296 0.07881 0.0
C22 C 0.69436 0.04622 0.05507 0.0
C23 C 0.65173 0.05162 0.03733 0.0
C24 C 0.56982 0.02924 0.02431 0.0
C25 C 0.53179 0.03261 0.04173 0.0
C26 C 0.56354 0.03119 0.98999 0.0
C27 C 0.60155 0.02374 0.97002 0.0
C28 C 0.62633 0.98434 0.97318 0.0
C29 C 0.6601 0.97586 0.95298 0.0
C30 C 0.66975 0.00653 0.92911 0.0
C31 C 0.6458 0.04651 0.92654 0.0
C32 C 0.61174 0.05489 0.94667 0.0
C33 C 0.43512 0.03864 0.97319 0.0
C34 C 0.42369 0.06991 0.94859 0.0
C35 C 0.38055 0.06957 0.93102 0.0
C36 C 0.34794 0.03805 0.93781 0.0
C37 C 0.35946 0.00676 0.9624 0.0
C38 C 0.40273 0.00677 0.97966 0.0
C39 C 0.48125 0.03846 0.99151 0.0
C40 C 0.51943 0.0364 0.97409 0.0
C41 C 0.48765 0.03718 0.02586 0.0
C42 C 0.44896 0.04038 0.04581 0.0
C43 C 0.41849 0.07585 0.04187 0.0
C44 C 0.38136 0.07788 0.06004 0.0
C45 C 0.37406 0.04456 0.08265 0.0
C46 C 0.40504 0.00938 0.08679 0.0
C47 C 0.44215 0.00741 0.06865 0.0
H48 H 0.1033 0.44956 0.45008 0.0
H49 H 0.09172 0.39339 0.4081 0.0
H50 H 0.95959 0.36387 0.43849 0.0
H51 H 0.97068 0.42131 0.47952 0.0
H52 H 0.05226 0.52273 0.45325 0.0
H53 H 0.08097 0.39006 0.52131 0.0
H54 H 0.06271 0.32167 0.5485 0.0
H55 H 0.95597 0.38898 0.59207 0.0
H56 H 0.97205 0.45566 0.56303 0.0
H57 H 0.99276 0.56817 0.57795 0.0
H58 H 0.99933 0.62651 0.61829 0.0
H59 H 0.1189 0.67631 0.57902 0.0
H60 H 0.11324 0.61677 0.5391 0.0
H61 H 0.04261 0.50356 0.57103 0.0
H62 H 0.98533 0.61594 0.4994 0.0
H63 H 0.97877 0.68654 0.47123 0.0
H64 H 0.10874 0.66455 0.43516 0.0
H65 H 0.11397 0.59281 0.46253 0.0
C66 C 0.03811 0.43926 0.46819 0.0
C67 C 0.07194 0.43079 0.44777 0.0
C68 C 0.06535 0.39856 0.42388 0.0
C69 C 0.02466 0.37425 0.41984 0.0
C70 C 0.99104 0.38246 0.44062 0.0
C71 C 0.9976 0.41482 0.46444 0.0
C72 C 0.0439 0.47605 0.49153 0.0
C73 C 0.05098 0.51835 0.47913 0.0
C74 C 0.03933 0.47077 0.525 0.0
C75 C 0.02777 0.4281 0.53991 0.0
C76 C 0.05298 0.38974 0.53613 0.0
C77 C 0.04287 0.35076 0.55213 0.0
C78 C 0.00784 0.34956 0.57268 0.0
C79 C 0.98255 0.38806 0.57607 0.0
C80 C 0.99215 0.4266 0.55973 0.0
C81 C 0.05252 0.58789 0.55544 0.0
C82 C 0.02057 0.59145 0.578 0.0
C83 C 0.02434 0.62475 0.60108 0.0
C84 C 0.05989 0.65554 0.60191 0.0
C85 C 0.09115 0.65296 0.57878 0.0
C86 C 0.08775 0.61912 0.5559 0.0
C87 C 0.04997 0.55016 0.53268 0.0
C88 C 0.04414 0.50778 0.54516 0.0
C89 C 0.05237 0.55555 0.49903 0.0
C90 C 0.0504 0.59948 0.48338 0.0
C91 C 0.01259 0.62655 0.48566 0.0
C92 C 0.009 0.66703 0.46957 0.0
C93 C 0.04338 0.68154 0.45102 0.0
C94 C 0.08135 0.65426 0.44885 0.0
C95 C 0.08463 0.61343 0.46469 0.0
Mg96 Mg 0.06744 0.01415 0.28135 0.0
O97 O 1.0026 0.00295 0.24637 0.0
O98 O 0.94332 -0.00115 0.27533 0.0
Mg99 Mg 0.96959 0.00737 0.32869 0.0
C100 C 0.96 -0.0016 0.2482 0.0
C101 C 0.14906 0.02193 0.24047 0.0
O102 O 0.16883 0.00516 0.26768 0.0
O103 O 0.04738 0.08607 0.28741 0.0
O104 O 0.98861 0.07836 0.31701 0.0
O105 O 0.07651 0.94134 0.29071 0.0
O106 O 0.03764 0.98551 0.31934 0.0
C107 C 0.01574 0.10221 0.30241 0.0
C108 C 0.05188 0.94652 0.31441 0.0
O109 O 0.10669 0.03012 0.23821 0.0
Mg110 Mg 0.97898 0.98924 0.73963 0.0
O111 O 0.0426 0.00395 0.77538 0.0
O112 O 0.10212 0.00109 0.74646 0.0
Mg113 Mg 0.07793 0.98524 0.69367 0.0
C114 C 0.08536 0.00677 0.77324 0.0
C115 C 0.89703 0.98028 0.77292 0.0
O116 O 0.89662 0.95156 0.74934 0.0
O117 O 0.98112 0.05822 0.71748 0.0
O118 O 0.04063 0.05169 0.68872 0.0
O119 O 0.98834 0.91767 0.74917 0.0
O120 O 0.0178 0.95323 0.70979 0.0
C121 C 0.00785 0.07399 0.69802 0.0
C122 C 0.01326 0.91701 0.72541 0.0
O123 O 0.92978 0.00767 0.77654 0.0
H124 H 0.371 0.0225 0.14681 0.0
H125 H 0.28665 0.06986 0.06151 0.0
H126 H 0.22027 0.07133 0.09289 0.0
H127 H 0.28766 0.95037 0.17497 0.0
H128 H 0.30447 0.96119 0.21726 0.0
H129 H 0.34557 0.96562 0.18836 0.0
H130 H 0.36364 0.04568 0.20672 0.0
H131 H 0.32254 0.04152 0.23566 0.0
H132 H 0.31811 0.08515 0.20584 0.0
H133 H 0.16251 0.06589 0.13349 0.0
H134 H 0.11811 0.05376 0.17997 0.0
H135 H 0.2403 0.0085 0.23809 0.0
C136 C 0.33856 0.03298 0.13461 0.0
C137 C 0.33417 0.04618 0.10166 0.0
C138 C 0.29111 0.06023 0.08684 0.0
C139 C 0.25312 0.06094 0.10441 0.0
C140 C 0.25867 0.0475 0.1368 0.0
C141 C 0.30033 0.03378 0.15174 0.0
C142 C 0.29715 0.0203 0.18664 0.0
C143 C 0.30943 0.97147 0.19211 0.0
C144 C 0.32713 0.04994 0.21009 0.0
C145 C 0.24711 0.02831 0.18897 0.0
C146 C 0.2255 0.04412 0.16002 0.0
C147 C 0.17912 0.05361 0.1563 0.0
C148 C 0.15418 0.04661 0.18285 0.0
C149 C 0.17566 0.03019 0.21271 0.0
C150 C 0.2228 0.02112 0.21566 0.0
H151 H 0.06923 0.28773 0.59959 0.0
H152 H 0.92504 0.31909 0.58838 0.0
H153 H 0.91033 0.25543 0.62277 0.0
H154 H 0.05318 0.17044 0.59343 0.0
H155 H 0.10169 0.15818 0.62222 0.0
H156 H 0.10093 0.20768 0.5981 0.0
H157 H 0.11564 0.25377 0.65058 0.0
H158 H 0.11581 0.20443 0.67489 0.0
H159 H 0.07745 0.24867 0.68148 0.0
H160 H 0.9114 0.18866 0.65942 0.0
H161 H 0.92706 0.11892 0.68967 0.0
H162 H 0.06924 0.12858 0.67327 0.0
C163 C 0.03441 0.28109 0.60391 0.0
C164 C 0.99847 0.30912 0.59147 0.0
C165 C 0.9535 0.29904 0.59822 0.0
C166 C 0.94468 0.26274 0.61765 0.0
C167 C 0.98102 0.23635 0.62989 0.0
C168 C 0.02486 0.24464 0.62284 0.0
C169 C 0.05757 0.21002 0.63772 0.0
C170 C 0.07962 0.1851 0.61129 0.0
C171 C 0.09375 0.23046 0.66265 0.0
C172 C 0.02521 0.18085 0.65409 0.0
C173 C 0.98132 0.19694 0.64975 0.0
C174 C 0.94562 0.17564 0.66287 0.0
C175 C 0.95486 0.13622 0.68018 0.0
C176 C 0.99929 0.11828 0.68371 0.0
C177 C 0.03488 0.14138 0.67085 0.0
H178 H 0.71719 -0.00054 0.1444 0.0
H179 H 0.7865 0.01646 0.05811 0.0
H180 H 0.86075 0.01032 0.09163 0.0
H181 H 0.79366 0.06279 0.19663 0.0
H182 H 0.79004 0.02797 0.23161 0.0
H183 H 0.74276 0.03132 0.20051 0.0
H184 H 0.74432 0.94663 0.1938 0.0
H185 H 0.79171 0.94302 0.22489 0.0
H186 H 0.79624 0.92021 0.18535 0.0
H187 H 0.92749 0.00448 0.13518 0.0
H188 H 0.98105 0.00247 0.1852 0.0
H189 H 0.86715 0.98915 0.24254 0.0
C190 C 0.74796 0.00119 0.13245 0.0
C191 C 0.74609 0.00821 0.09862 0.0
C192 C 0.78717 0.01135 0.08403 0.0
C193 C 0.82945 0.0076 0.10283 0.0
C194 C 0.83003 0.00077 0.13616 0.0
C195 C 0.79032 -0.00232 0.15082 0.0
C196 C 0.80009 0.99225 0.1872 0.0
C197 C 0.78048 0.03089 0.20502 0.0
C198 C 0.78202 0.94788 0.19846 0.0
C199 C 0.85154 0.99319 0.19082 0.0
C200 C 0.86824 -0.00222 0.16112 0.0
C201 C 0.91478 0.00064 0.15856 0.0
C202 C 0.94495 -0.00059 0.18714 0.0
C203 C 0.92845 0.99558 0.21791 0.0
C204 C 0.88106 0.99188 0.2195 0.0
H205 H 0.06954 0.74443 0.59368 0.0
H206 H 0.058 0.64375 0.66689 0.0
H207 H 0.05654 0.70108 0.70866 0.0
H208 H 0.13884 0.82454 0.64734 0.0
H209 H 0.1089 0.87106 0.62826 0.0
H210 H 0.11677 0.82217 0.60513 0.0
H211 H 0.02972 0.81713 0.58934 0.0
H212 H 0.02161 0.86584 0.61236 0.0
H213 H 0.99223 0.81576 0.62087 0.0
H214 H 0.0457 0.76818 0.74058 0.0
H215 H 0.02471 0.84085 0.76044 0.0
H216 H 0.04393 0.89888 0.66701 0.0
C217 C 0.06813 0.73458 0.6187 0.0
C218 C 0.06413 0.68982 0.62722 0.0
C219 C 0.06102 0.67798 0.65998 0.0
C220 C 0.06051 0.71025 0.68386 0.0
C221 C 0.06337 0.7542 0.67461 0.0
C222 C 0.06731 0.76648 0.64285 0.0
C223 C 0.06486 0.81602 0.63875 0.0
C224 C 0.11004 0.83453 0.62931 0.0
C225 C 0.02471 0.82945 0.61388 0.0
C226 C 0.05704 0.82947 0.67283 0.0
C227 C 0.05708 0.79334 0.69324 0.0
C228 C 0.0465 0.79686 0.72506 0.0
C229 C 0.03451 0.83824 0.7361 0.0
C230 C 0.03312 0.87547 0.71535 0.0
C231 C 0.04572 0.87114 0.68362 0.0
H232 H 0.32881 0.04384 0.87186 0.0
H233 H 0.26475 0.02847 0.96055 0.0
H234 H 0.18947 0.02288 0.92833 0.0
H235 H 0.23854 0.10841 0.82692 0.0
H236 H 0.24521 0.08167 0.78905 0.0
H237 H 0.29333 0.0874 0.81931 0.0
H238 H 0.3063 0.00311 0.81867 0.0
H239 H 0.25823 -0.00288 0.78849 0.0
H240 H 0.26039 0.96652 0.82601 0.0
H241 H 0.12129 0.01649 0.88588 0.0
H242 H 0.06663 0.00695 0.83689 0.0
H243 H 0.1764 0.0255 0.77646 0.0
C244 C 0.29885 0.0401 0.88452 0.0
C245 C 0.30252 0.03685 0.91869 0.0
C246 C 0.26264 0.03087 0.93435 0.0
C247 C 0.21977 0.0279 0.91628 0.0
C248 C 0.21739 0.03086 0.88257 0.0
C249 C 0.25593 0.03675 0.86687 0.0
C250 C 0.24458 0.03658 0.83041 0.0
C251 C 0.25609 0.08118 0.81556 0.0
C252 C 0.26881 -0.00143 0.81501 0.0
C253 C 0.19371 0.02919 0.82799 0.0
C254 C 0.17851 0.0264 0.85829 0.0
C255 C 0.13282 0.01881 0.86202 0.0
C256 C 0.102 0.01349 0.83405 0.0
C257 C 0.11711 0.01539 0.80276 0.0
C258 C 0.16359 0.02379 0.79994 0.0
H259 H 0.08612 0.31444 0.4012 0.0
H260 H 0.9461 0.35747 0.38038 0.0
H261 H 0.9321 0.29806 0.34031 0.0
H262 H 0.10158 0.27985 0.31641 0.0
H263 H 0.13613 0.23348 0.33076 0.0
H264 H 0.13688 0.28293 0.35459 0.0
H265 H 0.11522 0.23767 0.40387 0.0
H266 H 0.11466 0.18826 0.38031 0.0
H267 H 0.06501 0.20356 0.39929 0.0
H268 H 0.93005 0.22828 0.30938 0.0
H269 H 0.94033 0.15259 0.29002 0.0
H270 H 0.08271 0.15718 0.32739 0.0
C271 C 0.05288 0.3122 0.38753 0.0
C272 C 0.01719 0.34059 0.394 0.0
C273 C 0.97382 0.33576 0.37619 0.0
C274 C 0.96569 0.30245 0.35307 0.0
C275 C 1.00142 0.27462 0.34767 0.0
C276 C 0.04428 0.27932 0.36421 0.0
C277 C 0.07565 0.24267 0.35605 0.0
C278 C 0.11488 0.26083 0.33839 0.0
C279 C 0.09365 0.2165 0.38669 0.0
C280 C 0.04316 0.2155 0.33347 0.0
C281 C 1.00064 0.23486 0.32863 0.0
C282 C 0.96347 0.21341 0.31211 0.0
C283 C 0.96956 0.17055 0.30116 0.0
C284 C 0.01254 0.14997 0.30645 0.0
C285 C 0.05005 0.17316 0.32189 0.0
H286 H 0.7382 0.05786 0.90785 0.0
H287 H 0.67376 0.92961 0.89653 0.0
H288 H 0.72562 0.90969 0.85635 0.0
H289 H 0.75613 0.07369 0.82404 0.0
H290 H 0.81095 0.09961 0.83262 0.0
H291 H 0.76923 0.10417 0.86103 0.0
H292 H 0.82688 0.07218 0.90658 0.0
H293 H 0.86881 0.06755 0.87832 0.0
H294 H 0.85327 0.01984 0.90073 0.0
H295 H 0.78117 0.9041 0.81647 0.0
H296 H 0.84073 0.91136 0.77993 0.0
H297 H 0.87281 0.04245 0.81693 0.0
C298 C 0.73512 0.02563 0.89685 0.0
C299 C 0.70211 0.99512 0.90546 0.0
C300 C 0.6992 0.9532 0.89069 0.0
C301 C 0.72833 0.94167 0.86771 0.0
C302 C 0.76045 0.97232 0.8598 0.0
C303 C 0.76438 0.01333 0.87397 0.0
C304 C 0.8023 0.03975 0.86099 0.0
C305 C 0.78352 0.08179 0.84364 0.0
C306 C 0.84005 0.05045 0.88829 0.0
C307 C 0.81866 0.00721 0.83714 0.0
C308 C 0.7937 0.96869 0.83691 0.0
C309 C 0.80115 0.93397 0.81652 0.0
C310 C 0.83506 0.93856 0.79574 0.0
C311 C 0.86156 0.97747 0.79553 0.0
C312 C 0.85333 0.01223 0.81669 0.0
H313 H 0.06969 0.70402 0.39101 0.0
H314 H 0.00868 0.75793 0.47296 0.0
H315 H 0.99944 0.82923 0.44472 0.0
H316 H 0.13448 0.80082 0.37618 0.0
H317 H 0.1275 0.79489 0.3327 0.0
H318 H 0.12687 0.74698 0.35842 0.0
H319 H 0.0481 0.72508 0.32943 0.0
H320 H 0.04831 0.77315 0.30379 0.0
H321 H 1.00174 0.76373 0.32768 0.0
H322 H 0.9976 0.89452 0.40876 0.0
H323 H 0.00848 0.95242 0.36882 0.0
H324 H 0.07398 0.85849 0.31051 0.0
C325 C 0.05466 0.73084 0.40317 0.0
C326 C 0.03935 0.72496 0.43414 0.0
C327 C 0.01962 0.76105 0.44896 0.0
C328 C 0.01441 0.80184 0.43318 0.0
C329 C 0.02943 0.80629 0.40267 0.0
C330 C 0.04959 0.77203 0.38789 0.0
C331 C 0.0646 0.78643 0.35557 0.0
C332 C 0.11644 0.78203 0.35575 0.0
C333 C 0.03916 0.76055 0.32746 0.0
C334 C 0.05006 0.83427 0.35472 0.0
C335 C 0.02937 0.84469 0.38201 0.0
C336 C 0.01357 0.88679 0.38721 0.0
C337 C 0.01974 0.91944 0.3642 0.0
C338 C 0.04177 0.91002 0.33632 0.0
C339 C 0.05671 0.86665 0.33142 0.0
loop_
_geom_bond_atom_site_label_1
_geom_bond_atom_site_label_2
_geom_bond_distance
_geom_bond_site_symmetry_2
_ccdc_geom_bond_type
H0 C19 0.949 . S
H1 C20 0.950 . S
H2 C22 0.950 . S
H3 C23 0.950 . S
H4 C25 0.946 1_565 S
H5 C28 0.950 . S
H6 C29 0.950 . S
H7 C31 0.951 . S
H8 C32 0.949 . S
H9 C34 0.949 . S
H10 C35 0.950 . S
H11 C37 0.950 . S
H12 C38 0.950 . S
H13 C40 0.950 . S
H14 C43 0.950 . S
H15 C44 0.950 . S
H16 C46 0.951 . S
H17 C47 0.949 . S
C18 C19 1.376 1_545 S
C18 C23 1.386 . S
C18 C24 1.483 . S
C19 H0 0.949 . S
C19 C18 1.376 1_565 S
C19 C20 1.397 . S
C20 H1 0.950 . S
C20 C19 1.397 . S
C20 C21 1.391 1_565 S
C21 C20 1.391 1_545 S
C21 C22 1.405 . S
C22 H2 0.950 . S
C22 C21 1.405 . S
C22 C23 1.367 . S
C23 H3 0.950 . S
C23 C18 1.386 . S
C23 C22 1.367 . S
C24 C18 1.483 . S
C24 C25 1.384 . S
C24 C26 1.403 1_554 S
C25 H4 0.946 1_545 S
C25 C24 1.384 . S
C25 C41 1.413 . S
C26 C24 1.403 1_556 S
C26 C27 1.489 . S
C26 C40 1.411 . S
C27 C26 1.489 . S
C27 C28 1.383 1_545 S
C27 C32 1.382 . S
C28 H5 0.950 . S
C28 C27 1.383 1_565 S
C28 C29 1.395 . S
C29 H6 0.950 . S
C29 C28 1.395 . S
C29 C30 1.288 1_565 S
C30 C29 1.288 1_545 S
C30 C31 1.392 . S
C31 H7 0.951 . S
C31 C30 1.392 . S
C31 C32 1.392 . S
C32 H8 0.949 . S
C32 C27 1.382 . S
C32 C31 1.392 . S
C33 C34 1.376 . S
C33 C38 1.386 1_545 S
C33 C39 1.483 . S
C34 H9 0.949 . S
C34 C33 1.376 . S
C34 C35 1.397 . S
C35 H10 0.950 . S
C35 C34 1.397 . S
C35 C36 1.391 . S
C36 C35 1.391 . S
C36 C37 1.405 1_545 S
C37 H11 0.950 . S
C37 C36 1.405 1_565 S
C37 C38 1.367 . S
C38 H12 0.950 . S
C38 C33 1.386 1_565 S
C38 C37 1.367 . S
C39 C33 1.483 . S
C39 C40 1.382 . S
C39 C41 1.403 1_556 S
C40 H13 0.950 . S
C40 C26 1.411 . S
C40 C39 1.382 . S
C41 C25 1.413 . S
C41 C39 1.403 1_554 S
C41 C42 1.489 . S
C42 C41 1.489 . S
C42 C43 1.383 . S
C42 C47 1.382 1_545 S
C43 H14 0.950 . S
C43 C42 1.383 . S
C43 C44 1.395 . S
C44 H15 0.950 . S
C44 C43 1.395 . S
C44 C45 1.288 . S
C45 C44 1.288 . S
C45 C46 1.392 1_545 S
C46 H16 0.951 . S
C46 C45 1.392 1_565 S
C46 C47 1.392 . S
C47 H17 0.949 . S
C47 C42 1.382 1_565 S
C47 C46 1.392 . S
H48 C67 0.949 . S
H49 C68 0.950 . S
H50 C70 0.950 . S
H51 C71 0.950 . S
H52 C73 0.950 . S
H53 C76 0.950 . S
H54 C77 0.950 . S
H55 C79 0.951 . S
H56 C80 0.949 . S
H57 C82 0.949 . S
H58 C83 0.950 . S
H59 C85 0.950 . S
H60 C86 0.950 . S
H61 C88 0.950 . S
H62 C91 0.950 1_655 S
H63 C92 0.950 1_655 S
H64 C94 0.951 . S
H65 C95 0.949 . S
C66 C67 1.376 . S
C66 C71 1.386 1_455 S
C66 C72 1.483 . S
C67 H48 0.949 . S
C67 C66 1.376 . S
C67 C68 1.397 . S
C68 H49 0.950 . S
C68 C67 1.397 . S
C68 C69 1.391 . S
C69 C68 1.391 . S
C69 C70 1.405 1_455 S
C70 H50 0.950 . S
C70 C69 1.405 1_655 S
C70 C71 1.367 . S
C71 H51 0.950 . S
C71 C66 1.386 1_655 S
C71 C70 1.367 . S
C72 C66 1.483 . S
C72 C73 1.382 . S
C72 C74 1.403 . S
C73 H52 0.950 . S
C73 C72 1.382 . S
C73 C89 1.411 . S
C74 C72 1.403 . S
C74 C75 1.489 . S
C74 C88 1.411 . S
C75 C74 1.489 . S
C75 C76 1.383 . S
C75 C80 1.382 1_455 S
C76 H53 0.950 . S
C76 C75 1.383 . S
C76 C77 1.395 . S
C77 H54 0.950 . S
C77 C76 1.395 . S
C77 C78 1.288 . S
C78 C77 1.288 . S
C78 C79 1.392 1_455 S
C79 H55 0.951 . S
C79 C78 1.392 1_655 S
C79 C80 1.392 . S
C80 H56 0.949 . S
C80 C75 1.382 1_655 S
C80 C79 1.392 . S
C81 C82 1.376 1_455 S
C81 C86 1.386 . S
C81 C87 1.483 . S
C82 H57 0.949 . S
C82 C81 1.376 1_655 S
C82 C83 1.397 . S
C83 H58 0.950 . S
C83 C82 1.397 . S
C83 C84 1.391 1_655 S
C84 C83 1.391 1_455 S
C84 C85 1.405 . S
C85 H59 0.950 . S
C85 C84 1.405 . S
C85 C86 1.367 . S
C86 H60 0.950 . S
C86 C81 1.386 . S
C86 C85 1.367 . S
C87 C81 1.483 . S
C87 C88 1.382 . S
C87 C89 1.403 . S
C88 H61 0.950 . S
C88 C74 1.411 . S
C88 C87 1.382 . S
C89 C73 1.411 . S
C89 C87 1.403 . S
C89 C90 1.489 . S
C90 C89 1.489 . S
C90 C91 1.383 . S
C90 C95 1.382 . S
C91 H62 0.950 1_455 S
C91 C90 1.383 . S
C91 C92 1.395 . S
C92 H63 0.950 1_455 S
C92 C91 1.395 . S
C92 C93 1.288 . S
C93 C92 1.288 . S
C93 C94 1.392 . S
C94 H64 0.951 . S
C94 C93 1.392 . S
C94 C95 1.392 . S
C95 H65 0.949 . S
C95 C90 1.382 . S
C95 C94 1.392 . S
Mg96 O97 2.028 . S
Mg96 O103 1.986 . S
Mg96 O105 2.114 1_545 S
Mg96 O106 2.251 1_545 S
Mg96 O109 2.010 . S
O97 Mg96 2.028 . S
O97 C100 1.250 1_455 S
O98 Mg99 2.028 . S
O98 C100 1.248 . S
Mg99 O98 2.028 . S
Mg99 O104 2.032 1_655 S
Mg99 O106 2.079 1_645 S
C100 O97 1.250 1_655 S
C100 O98 1.248 . S
C101 O102 1.264 . S
C101 O109 1.249 . S
O102 C101 1.264 . S
O103 Mg96 1.986 . S
O103 C107 1.246 . S
O104 Mg99 2.032 1_455 S
O104 C107 1.259 . S
O105 Mg96 2.114 1_565 S
O105 C108 1.252 . S
O106 Mg96 2.251 1_565 S
O106 Mg99 2.079 1_465 S
O106 C108 1.273 . S
C107 O103 1.246 . S
C107 O104 1.259 . S
C108 O105 1.252 . S
C108 O106 1.273 . S
O109 Mg96 2.010 . S
O109 C101 1.249 . S
Mg110 O111 2.028 1_655 S
Mg110 O117 1.986 . S
Mg110 O119 2.114 1_545 S
Mg110 O120 2.251 1_645 S
Mg110 O123 2.010 . S
O111 Mg110 2.028 1_455 S
O111 C114 1.250 . S
O112 Mg113 2.028 . S
O112 C114 1.248 . S
Mg113 O112 2.028 . S
Mg113 O118 2.032 . S
Mg113 O120 2.079 1_545 S
C114 O111 1.250 . S
C114 O112 1.248 . S
C115 O116 1.264 . S
C115 O123 1.249 . S
O116 C115 1.264 . S
O117 Mg110 1.986 . S
O117 C121 1.246 1_655 S
O118 Mg113 2.032 . S
O118 C121 1.259 . S
O119 Mg110 2.114 1_565 S
O119 C122 1.252 1_655 S
O120 Mg110 2.251 1_465 S
O120 Mg113 2.079 1_565 S
O120 C122 1.273 . S
C121 O117 1.246 1_455 S
C121 O118 1.259 . S
C122 O119 1.252 1_455 S
C122 O120 1.273 . S
O123 Mg110 2.010 . S
O123 C115 1.249 . S
H124 C136 0.930 . S
H125 C138 0.926 1_565 S
H126 C139 0.925 1_565 S
H127 C143 0.959 1_565 S
H128 C143 0.959 . S
H129 C143 0.961 . S
H130 C144 0.960 . S
H131 C144 0.961 . S
H132 C144 0.959 . S
H133 C147 0.929 1_565 S
H134 C148 0.930 1_565 S
H135 C150 0.930 . S
C136 H124 0.930 . S
C136 C137 1.399 . S
C136 C141 1.399 . S
C137 C136 1.399 . S
C137 C138 1.380 . S
C138 H125 0.926 1_545 S
C138 C137 1.380 . S
C138 C139 1.388 . S
C139 H126 0.925 1_545 S
C139 C138 1.388 . S
C139 C140 1.395 . S
C140 C139 1.395 . S
C140 C141 1.394 . S
C140 C146 1.465 . S
C141 C136 1.399 . S
C141 C140 1.394 . S
C141 C142 1.516 . S
C142 C141 1.516 . S
C142 C143 1.502 . S
C142 C144 1.561 . S
C142 C145 1.526 . S
C143 H127 0.959 1_545 S
C143 H128 0.959 . S
C143 H129 0.961 . S
C143 C142 1.502 . S
C144 H130 0.960 . S
C144 H131 0.961 . S
C144 H132 0.959 . S
C144 C142 1.561 . S
C145 C142 1.526 . S
C145 C146 1.396 . S
C145 C150 1.390 . S
C146 C140 1.465 . S
C146 C145 1.396 . S
C146 C147 1.399 . S
C147 H133 0.929 1_545 S
C147 C146 1.399 . S
C147 C148 1.385 . S
C148 H134 0.930 1_545 S
C148 C147 1.385 . S
C148 C149 1.389 . S
C149 C148 1.389 . S
C149 C150 1.387 . S
C150 H135 0.930 . S
C150 C145 1.390 . S
C150 C149 1.387 . S
H151 C163 0.930 . S
H152 C165 0.930 . S
H153 C166 0.930 . S
H154 C170 0.959 . S
H155 C170 0.959 . S
H156 C170 0.961 . S
H157 C171 0.961 1_455 S
H158 C171 0.961 1_455 S
H159 C171 0.957 . S
H160 C174 0.929 . S
H161 C175 0.931 . S
H162 C177 0.930 . S
C163 H151 0.930 . S
C163 C164 1.399 . S
C163 C168 1.399 . S
C164 C163 1.399 . S
C164 C165 1.376 1_455 S
C165 H152 0.930 . S
C165 C164 1.376 1_655 S
C165 C166 1.388 . S
C166 H153 0.930 . S
C166 C165 1.388 . S
C166 C167 1.390 1_655 S
C167 C166 1.390 1_455 S
C167 C168 1.394 . S
C167 C173 1.465 . S
C168 C163 1.399 . S
C168 C167 1.394 . S
C168 C169 1.516 . S
C169 C168 1.516 . S
C169 C170 1.502 . S
C169 C171 1.563 1_455 S
C169 C172 1.526 . S
C170 H154 0.959 . S
C170 H155 0.959 . S
C170 H156 0.961 . S
C170 C169 1.502 . S
C171 H157 0.961 1_655 S
C171 H158 0.961 1_655 S
C171 H159 0.957 . S
C171 C169 1.563 1_655 S
C172 C169 1.526 . S
C172 C173 1.396 . S
C172 C177 1.390 . S
C173 C167 1.465 . S
C173 C172 1.396 . S
C173 C174 1.399 1_455 S
C174 H160 0.929 . S
C174 C173 1.399 1_655 S
C174 C175 1.385 . S
C175 H161 0.931 . S
C175 C174 1.385 . S
C175 C176 1.389 1_655 S
C176 C175 1.389 1_455 S
C176 C177 1.387 . S
C177 H162 0.930 . S
C177 C172 1.390 . S
C177 C176 1.387 . S
H178 C190 0.930 . S
H179 C192 0.930 . S
H180 C193 0.930 . S
H181 C197 0.959 . S
H182 C197 0.959 . S
H183 C197 0.961 . S
H184 C198 0.960 . S
H185 C198 0.961 . S
H186 C198 0.959 . S
H187 C201 0.929 . S
H188 C202 0.931 . S
H189 C204 0.930 . S
C190 H178 0.930 . S
C190 C191 1.399 . S
C190 C195 1.399 . S
C191 C190 1.399 . S
C191 C192 1.376 1_545 S
C192 H179 0.930 . S
C192 C191 1.376 1_565 S
C192 C193 1.388 . S
C193 H180 0.930 . S
C193 C192 1.388 . S
C193 C194 1.390 . S
C194 C193 1.390 . S
C194 C195 1.394 1_565 S
C194 C200 1.465 . S
C195 C190 1.399 . S
C195 C194 1.394 1_545 S
C195 C196 1.516 . S
C196 C195 1.516 . S
C196 C197 1.502 . S
C196 C198 1.561 . S
C196 C199 1.526 . S
C197 H181 0.959 . S
C197 H182 0.959 . S
C197 H183 0.961 . S
C197 C196 1.502 . S
C198 H184 0.960 . S
C198 H185 0.961 . S
C198 H186 0.959 . S
C198 C196 1.561 . S
C199 C196 1.526 . S
C199 C200 1.396 1_545 S
C199 C204 1.390 . S
C200 C194 1.465 . S
C200 C199 1.396 1_565 S
C200 C201 1.399 . S
C201 H187 0.929 . S
C201 C200 1.399 . S
C201 C202 1.385 . S
C202 H188 0.931 . S
C202 C201 1.385 . S
C202 C203 1.389 1_565 S
C203 C202 1.389 1_545 S
C203 C204 1.387 . S
C204 H189 0.930 . S
C204 C199 1.390 . S
C204 C203 1.387 . S
H205 C217 0.930 . S
H206 C219 0.930 . S
H207 C220 0.930 . S
H208 C224 0.959 . S
H209 C224 0.959 . S
H210 C224 0.961 . S
H211 C225 0.961 1_455 S
H212 C225 0.961 1_455 S
H213 C225 0.959 . S
H214 C228 0.929 . S
H215 C229 0.931 . S
H216 C231 0.930 . S
C217 H205 0.930 . S
C217 C218 1.399 . S
C217 C222 1.399 . S
C218 C217 1.399 . S
C218 C219 1.376 1_455 S
C219 H206 0.930 . S
C219 C218 1.376 1_655 S
C219 C220 1.388 . S
C220 H207 0.930 . S
C220 C219 1.388 . S
C220 C221 1.390 1_655 S
C221 C220 1.390 1_455 S
C221 C222 1.394 . S
C221 C227 1.465 . S
C222 C217 1.399 . S
C222 C221 1.394 . S
C222 C223 1.516 . S
C223 C222 1.516 . S
C223 C224 1.502 . S
C223 C225 1.561 1_455 S
C223 C226 1.526 . S
C224 H208 0.959 . S
C224 H209 0.959 . S
C224 H210 0.961 . S
C224 C223 1.502 . S
C225 H211 0.961 1_655 S
C225 H212 0.961 1_655 S
C225 H213 0.959 . S
C225 C223 1.561 1_655 S
C226 C223 1.526 . S
C226 C227 1.396 . S
C226 C231 1.390 . S
C227 C221 1.465 . S
C227 C226 1.396 . S
C227 C228 1.399 1_455 S
C228 H214 0.929 . S
C228 C227 1.399 1_655 S
C228 C229 1.385 . S
C229 H215 0.931 . S
C229 C228 1.385 . S
C229 C230 1.389 1_655 S
C230 C229 1.389 1_455 S
C230 C231 1.387 . S
C231 H216 0.930 . S
C231 C226 1.390 . S
C231 C230 1.387 . S
H232 C244 0.930 . S
H233 C246 0.930 . S
H234 C247 0.930 . S
H235 C251 0.959 . S
H236 C251 0.959 . S
H237 C251 0.961 . S
H238 C252 0.960 . S
H239 C252 0.961 . S
H240 C252 0.959 . S
H241 C255 0.929 . S
H242 C256 0.931 . S
H243 C258 0.930 1_565 S
C244 H232 0.930 . S
C244 C245 1.399 1_565 S
C244 C249 1.398 1_565 S
C245 C244 1.399 1_545 S
C245 C246 1.376 . S
C246 H233 0.930 . S
C246 C245 1.376 . S
C246 C247 1.388 . S
C247 H234 0.930 . S
C247 C246 1.388 . S
C247 C248 1.390 . S
C248 C247 1.390 . S
C248 C249 1.400 . S
C248 C254 1.465 . S
C249 C244 1.398 1_545 S
C249 C248 1.400 . S
C249 C250 1.512 1_545 S
C250 C249 1.512 1_565 S
C250 C251 1.502 1_565 S
C250 C252 1.561 . S
C250 C253 1.526 1_565 S
C251 H235 0.959 . S
C251 H236 0.959 . S
C251 H237 0.961 . S
C251 C250 1.502 1_545 S
C252 H238 0.960 . S
C252 H239 0.961 . S
C252 H240 0.959 . S
C252 C250 1.561 . S
C253 C250 1.526 1_545 S
C253 C254 1.396 . S
C253 C258 1.390 . S
C254 C248 1.465 . S
C254 C253 1.396 . S
C254 C255 1.399 . S
C255 H241 0.929 . S
C255 C254 1.399 . S
C255 C256 1.385 . S
C256 H242 0.931 . S
C256 C255 1.385 . S
C256 C257 1.389 . S
C257 C256 1.389 . S
C257 C258 1.387 . S
C258 H243 0.930 1_545 S
C258 C253 1.390 . S
C258 C257 1.387 . S
H259 C271 0.930 . S
H260 C273 0.930 . S
H261 C274 0.930 . S
H262 C278 0.959 . S
H263 C278 0.959 . S
H264 C278 0.961 . S
H265 C279 0.960 . S
H266 C279 0.961 . S
H267 C279 0.959 . S
H268 C282 0.929 . S
H269 C283 0.931 1_655 S
H270 C285 0.930 . S
C271 H259 0.930 . S
C271 C272 1.399 . S
C271 C276 1.399 . S
C272 C271 1.399 . S
C272 C273 1.376 1_455 S
C273 H260 0.930 . S
C273 C272 1.376 1_655 S
C273 C274 1.388 . S
C274 H261 0.930 . S
C274 C273 1.388 . S
C274 C275 1.390 1_655 S
C275 C274 1.390 1_455 S
C275 C276 1.394 . S
C275 C281 1.465 . S
C276 C271 1.399 . S
C276 C275 1.394 . S
C276 C277 1.516 . S
C277 C276 1.516 . S
C277 C278 1.502 . S
C277 C279 1.561 . S
C277 C280 1.526 . S
C278 H262 0.959 . S
C278 H263 0.959 . S
C278 H264 0.961 . S
C278 C277 1.502 . S
C279 H265 0.960 . S
C279 H266 0.961 . S
C279 H267 0.959 . S
C279 C277 1.561 . S
C280 C277 1.526 . S
C280 C281 1.396 . S
C280 C285 1.390 . S
C281 C275 1.465 . S
C281 C280 1.396 . S
C281 C282 1.399 1_455 S
C282 H268 0.929 . S
C282 C281 1.399 1_655 S
C282 C283 1.385 1_655 S
C283 H269 0.931 1_455 S
C283 C282 1.385 1_455 S
C283 C284 1.389 . S
C284 C283 1.389 . S
C284 C285 1.387 . S
C285 H270 0.930 . S
C285 C280 1.390 . S
C285 C284 1.387 . S
H286 C298 0.930 . S
H287 C300 0.930 . S
H288 C301 0.930 . S
H289 C305 0.959 . S
H290 C305 0.959 . S
H291 C305 0.961 . S
H292 C306 0.960 . S
H293 C306 0.961 . S
H294 C306 0.959 . S
H295 C309 0.929 . S
H296 C310 0.931 . S
H297 C312 0.930 . S
C298 H286 0.930 . S
C298 C299 1.399 . S
C298 C303 1.399 . S
C299 C298 1.399 . S
C299 C300 1.376 1_545 S
C300 H287 0.930 . S
C300 C299 1.376 1_565 S
C300 C301 1.388 . S
C301 H288 0.930 . S
C301 C300 1.388 . S
C301 C302 1.390 . S
C302 C301 1.390 . S
C302 C303 1.394 1_565 S
C302 C308 1.465 . S
C303 C298 1.399 . S
C303 C302 1.394 1_545 S
C303 C304 1.516 . S
C304 C303 1.516 . S
C304 C305 1.502 . S
C304 C306 1.561 . S
C304 C307 1.526 . S
C305 H289 0.959 . S
C305 H290 0.959 . S
C305 H291 0.961 . S
C305 C304 1.502 . S
C306 H292 0.960 . S
C306 H293 0.961 . S
C306 H294 0.959 . S
C306 C304 1.561 . S
C307 C304 1.526 . S
C307 C308 1.396 1_545 S
C307 C312 1.390 . S
C308 C302 1.465 . S
C308 C307 1.396 1_565 S
C308 C309 1.399 . S
C309 H295 0.929 . S
C309 C308 1.399 . S
C309 C310 1.385 . S
C310 H296 0.931 . S
C310 C309 1.385 . S
C310 C311 1.389 1_565 S
C311 C310 1.389 1_545 S
C311 C312 1.387 . S
C312 H297 0.930 . S
C312 C307 1.390 . S
C312 C311 1.387 . S
H313 C325 0.930 . S
H314 C327 0.930 . S
H315 C328 0.930 . S
H316 C332 0.959 . S
H317 C332 0.959 . S
H318 C332 0.961 . S
H319 C333 0.960 . S
H320 C333 0.961 . S
H321 C333 0.959 . S
H322 C336 0.929 . S
H323 C337 0.931 . S
H324 C339 0.930 . S
C325 H313 0.930 . S
C325 C326 1.399 . S
C325 C330 1.399 . S
C326 C325 1.399 . S
C326 C327 1.376 . S
C327 H314 0.930 . S
C327 C326 1.376 . S
C327 C328 1.388 . S
C328 H315 0.930 . S
C328 C327 1.388 . S
C328 C329 1.390 . S
C329 C328 1.390 . S
C329 C330 1.394 . S
C329 C335 1.465 . S
C330 C325 1.399 . S
C330 C329 1.394 . S
C330 C331 1.516 . S
C331 C330 1.516 . S
C331 C332 1.502 . S
C331 C333 1.561 1_455 S
C331 C334 1.526 . S
C332 H316 0.959 . S
C332 H317 0.959 . S
C332 H318 0.961 . S
C332 C331 1.502 . S
C333 H319 0.960 . S
C333 H320 0.961 . S
C333 H321 0.959 . S
C333 C331 1.561 1_655 S
C334 C331 1.526 . S
C334 C335 1.396 . S
C334 C339 1.390 . S
C335 C329 1.465 . S
C335 C334 1.396 . S
C335 C336 1.399 . S
C336 H322 0.929 . S
C336 C335 1.399 . S
C336 C337 1.385 . S
C337 H323 0.931 . S
C337 C336 1.385 . S
C337 C338 1.389 . S
C338 C337 1.389 . S
C338 C339 1.387 . S
C339 H324 0.930 . S
C339 C334 1.390 . S
C339 C338 1.387 . S
C149 C101 1.344 . S
C137 C45 1.523 . S
C176 C121 1.487 . S
C164 C78 1.497 . S
C203 C100 1.455 . S
C191 C21 1.515 . S
C230 C122 1.516 . S
C218 C84 1.517 . S
C257 C114 1.504 . S
C245 C36 1.510 . S
C284 C107 1.475 . S
C272 C69 1.515 . S
C311 C115 1.267 . S
C299 C30 1.528 . S
C326 C93 1.520 . S
C338 C108 1.519 . S
