# Generated by pormake.
# Topology nom, (4,4)-cn, num edge types: 1
# Building blocks:
#     Node 0, Type 0, BuildingBlock: MUDLON_clean_linker_0, # of connection points: 4
#     Node 1, Type 0, BuildingBlock: MUDLON_clean_linker_0, # of connection points: 4
#     Node 2, Type 0, BuildingBlock: MUDLON_clean_linker_0, # of connection points: 4
#     Node 3, Type 0, BuildingBlock: MUDLON_clean_linker_0, # of connection points: 4
#     Node 4, Type 0, BuildingBlock: MUDLON_clean_linker_0, # of connection points: 4
#     Node 5, Type 0, BuildingBlock: MUDLON_clean_linker_0, # of connection points: 4
#     Node 6, Type 1, BuildingBlock: QUQFOY_clean_sbu_1, # of connection points: 4
#     Node 7, Type 1, BuildingBlock: QUQFOY_clean_sbu_1, # of connection points: 4
#     Node 8, Type 1, BuildingBlock: QUQFOY_clean_sbu_1, # of connection points: 4
#     Node 9, Type 1, BuildingBlock: QUQFOY_clean_sbu_1, # of connection points: 4
#     Node 10, Type 1, BuildingBlock: QUQFOY_clean_sbu_1, # of connection points: 4
#     Node 11, Type 1, BuildingBlock: QUQFOY_clean_sbu_1, # of connection points: 4
#     Edge 12, Type (0, 1), None
#     Edge 13, Type (0, 1), None
#     Edge 14, Type (0, 1), None
#     Edge 15, Type (0, 1), None
#     Edge 16, Type (0, 1), None
#     Edge 17, Type (0, 1), None
#     Edge 18, Type (0, 1), None
#     Edge 19, Type (0, 1), None
#     Edge 20, Type (0, 1), None
#     Edge 21, Type (0, 1), None
#     Edge 22, Type (0, 1), None
#     Edge 23, Type (0, 1), None
#     Edge 24, Type (0, 1), None
#     Edge 25, Type (0, 1), None
#     Edge 26, Type (0, 1), None
#     Edge 27, Type (0, 1), None
#     Edge 28, Type (0, 1), None
#     Edge 29, Type (0, 1), None
#     Edge 30, Type (0, 1), None
#     Edge 31, Type (0, 1), None
#     Edge 32, Type (0, 1), None
#     Edge 33, Type (0, 1), None
#     Edge 34, Type (0, 1), None
#     Edge 35, Type (0, 1), None
# Relax obj value: 0.012
# Max RMSD: 0.118
# Mean RMSD: 0.098
data_MOF--net-nom--node1-QUQFOY_clean_sbu_1--node2-MUDLON_clean_linker_0--edge1-none
_symmetry_space_group_name_H-M    P1
_symmetry_Int_Tables_number       1
_symmetry_cell_setting            triclinic
loop_
_symmetry_equiv_pos_as_xyz
'x, y, z'
_cell_length_a     37.688843
_cell_length_b     38.499652
_cell_length_c     33.264651
_cell_angle_alpha  90.549095
_cell_angle_beta   89.722865
_cell_angle_gamma 120.71638
loop_
_atom_site_label
_atom_site_type_symbol
_atom_site_fract_x
_atom_site_fract_y
_atom_site_fract_z
_atom_type_partial_charge
H0 H 0.23142 0.56521 0.28653 0.0
N1 N 0.1634 0.5591 0.31738 0.0
H2 H 0.28387 0.62001 0.24554 0.0
H3 H 0.15614 0.61983 0.28229 0.0
H4 H 0.20802 0.67429 0.24127 0.0
H5 H 0.1847 0.63113 0.35481 0.0
H6 H 0.20768 0.65015 0.42378 0.0
H7 H 0.17243 0.51469 0.37281 0.0
H8 H 0.19628 0.53389 0.44242 0.0
H9 H 0.11527 0.49218 0.27504 0.0
H10 H 0.11216 0.58581 0.34457 0.0
H11 H 0.0405 0.45966 0.26345 0.0
H12 H 0.03848 0.55353 0.33368 0.0
H13 H 0.8381 0.38749 0.23614 0.0
H14 H 0.79741 0.35857 0.1745 0.0
H15 H 0.81512 0.47577 0.14562 0.0
H16 H 0.85489 0.50372 0.20712 0.0
H17 H 0.85044 0.51736 0.29403 0.0
H18 H 0.79156 0.50265 0.33659 0.0
H19 H 0.76113 0.3784 0.34555 0.0
H20 H 0.82125 0.39406 0.30377 0.0
H21 H 0.92361 0.4618 0.2116 0.0
H22 H 0.99361 0.47876 0.22637 0.0
H23 H 0.97328 0.48942 0.35241 0.0
N24 N 0.86929 0.46501 0.26387 0.0
H25 H 0.90324 0.47245 0.33826 0.0
C26 C 0.18991 0.58822 0.28777 0.0
C27 C 0.22576 0.58846 0.27593 0.0
C28 C 0.25567 0.61981 0.25251 0.0
C29 C 0.25025 0.65168 0.24035 0.0
C30 C 0.21313 0.65017 0.25005 0.0
C31 C 0.18331 0.61887 0.27366 0.0
C32 C 0.17685 0.57128 0.35842 0.0
C33 C 0.18682 0.6095 0.37359 0.0
C34 C 0.19982 0.62033 0.41331 0.0
C35 C 0.20373 0.59351 0.43873 0.0
C36 C 0.19355 0.55524 0.42365 0.0
C37 C 0.18004 0.54424 0.38393 0.0
C38 C 0.11953 0.54114 0.31097 0.0
C39 C 0.09854 0.50557 0.28794 0.0
C40 C 0.05598 0.48707 0.2814 0.0
C41 C 0.03365 0.50374 0.29824 0.0
C42 C 0.05471 0.53944 0.32116 0.0
C43 C 0.09714 0.55808 0.32728 0.0
C44 C 0.84935 0.4478 0.22599 0.0
C45 C 0.83318 0.40676 0.21632 0.0
C46 C 0.80994 0.39033 0.18117 0.0
C47 C 0.80266 0.41473 0.15528 0.0
C48 C 0.81987 0.45595 0.16484 0.0
C49 C 0.84285 0.47216 0.19981 0.0
C50 C 0.8396 0.45675 0.29524 0.0
C51 C 0.83168 0.4873 0.30617 0.0
C52 C 0.79796 0.47871 0.3304 0.0
C53 C 0.77121 0.43913 0.34381 0.0
C54 C 0.78096 0.40909 0.33534 0.0
C55 C 0.81514 0.4179 0.31135 0.0
C56 C 0.90652 0.46442 0.2737 0.0
C57 C 0.93308 0.46594 0.24277 0.0
C58 C 0.97353 0.47591 0.25113 0.0
C59 C 0.98891 0.48564 0.29046 0.0
C60 C 0.96222 0.48229 0.3217 0.0
C61 C 0.92171 0.47204 0.31347 0.0
H62 H 0.42991 0.82654 0.46349 0.0
N63 N 0.40338 0.87429 0.43086 0.0
H64 H 0.38836 0.76758 0.50561 0.0
H65 H 0.33521 0.85754 0.46992 0.0
H66 H 0.29363 0.79915 0.51255 0.0
H67 H 0.34634 0.85379 0.37483 0.0
H68 H 0.34084 0.82033 0.31046 0.0
H69 H 0.45991 0.85699 0.40016 0.0
H70 H 0.45453 0.82274 0.33601 0.0
H71 H 0.47841 0.89942 0.46548 0.0
H72 H 0.40142 0.94011 0.41402 0.0
H73 H 0.5333 0.9699 0.4768 0.0
H74 H 0.45586 0.01043 0.425 0.0
H75 H 0.67991 0.20484 0.52956 0.0
H76 H 0.68391 0.23029 0.59816 0.0
H77 H 0.55118 0.1754 0.60001 0.0
H78 H 0.54748 0.14929 0.53216 0.0
H79 H 0.5407 0.16227 0.4657 0.0
H80 H 0.53439 0.21553 0.43399 0.0
H81 H 0.66643 0.28417 0.41576 0.0
H82 H 0.6725 0.23039 0.44789 0.0
H83 H 0.59314 0.10036 0.53288 0.0
H84 H 0.54484 0.02932 0.51938 0.0
H85 H 0.52735 0.05802 0.39879 0.0
N86 N 0.61295 0.16453 0.48371 0.0
H87 H 0.5756 0.1291 0.41181 0.0
C88 C 0.3852 0.84604 0.4632 0.0
C89 C 0.40075 0.82138 0.47499 0.0
C90 C 0.37692 0.78764 0.49912 0.0
C91 C 0.33737 0.77827 0.51179 0.0
C92 C 0.32378 0.80524 0.50296 0.0
C93 C 0.3475 0.83874 0.47878 0.0
C94 C 0.40324 0.85756 0.39209 0.0
C95 C 0.37022 0.84745 0.36617 0.0
C96 C 0.36719 0.82829 0.32951 0.0
C97 C 0.39713 0.81858 0.31822 0.0
C98 C 0.43083 0.82955 0.34397 0.0
C99 C 0.43398 0.84911 0.3806 0.0
C100 C 0.43582 0.91484 0.43924 0.0
C101 C 0.47329 0.92352 0.45684 0.0
C102 C 0.50455 0.96372 0.46324 0.0
C103 C 0.49888 0.9956 0.45154 0.0
C104 C 0.46134 0.98654 0.43379 0.0
C105 C 0.43016 0.94654 0.42781 0.0
C106 C 0.61366 0.17559 0.52554 0.0
C107 C 0.65174 0.19787 0.5451 0.0
C108 C 0.65388 0.21236 0.58423 0.0
C109 C 0.61785 0.20515 0.60438 0.0
C110 C 0.57953 0.1818 0.58518 0.0
C111 C 0.57739 0.167 0.54625 0.0
C112 C 0.6073 0.19234 0.45932 0.0
C113 C 0.5683 0.18847 0.4545 0.0
C114 C 0.5647 0.21899 0.43618 0.0
C115 C 0.59995 0.25425 0.42263 0.0
C116 C 0.63867 0.25738 0.42591 0.0
C117 C 0.64222 0.22669 0.44411 0.0
C118 C 0.58543 0.1216 0.47489 0.0
C119 C 0.5784 0.09195 0.5037 0.0
C120 C 0.55121 0.05097 0.49581 0.0
C121 C 0.53128 0.03834 0.45851 0.0
C122 C 0.54109 0.06715 0.4284 0.0
C123 C 0.5685 0.10808 0.43614 0.0
H124 H 0.42995 0.61622 0.63692 0.0
N125 N 0.40344 0.54195 0.66956 0.0
H126 H 0.38837 0.6336 0.5948 0.0
H127 H 0.33527 0.4905 0.63051 0.0
H128 H 0.29367 0.50729 0.58788 0.0
H129 H 0.34641 0.50539 0.72559 0.0
H130 H 0.3409 0.53335 0.78996 0.0
H131 H 0.45996 0.61578 0.70027 0.0
H132 H 0.45457 0.64466 0.76442 0.0
H133 H 0.47846 0.59185 0.63494 0.0
H134 H 0.40149 0.47417 0.68641 0.0
H135 H 0.53335 0.57626 0.62362 0.0
H136 H 0.45593 0.4583 0.67544 0.0
H137 H 0.67995 0.48793 0.57087 0.0
H138 H 0.68395 0.46647 0.50227 0.0
H139 H 0.55122 0.38864 0.5004 0.0
H140 H 0.54752 0.41105 0.56825 0.0
H141 H 0.54074 0.3913 0.63471 0.0
H142 H 0.5344 0.33172 0.66642 0.0
H143 H 0.66645 0.39509 0.68465 0.0
H144 H 0.67253 0.45495 0.65253 0.0
H145 H 0.59317 0.50563 0.56753 0.0
H146 H 0.54488 0.52838 0.58104 0.0
H147 H 0.52743 0.48222 0.70163 0.0
N148 N 0.61299 0.46127 0.61671 0.0
H149 H 0.57568 0.45939 0.68861 0.0
C150 C 0.38524 0.552 0.63723 0.0
C151 C 0.40078 0.5922 0.62543 0.0
C152 C 0.37695 0.60211 0.6013 0.0
C153 C 0.33739 0.57192 0.58863 0.0
C154 C 0.32382 0.53135 0.59746 0.0
C155 C 0.34755 0.52159 0.62165 0.0
C156 C 0.4033 0.55854 0.70834 0.0
C157 C 0.37028 0.53562 0.73425 0.0
C158 C 0.36725 0.55174 0.77091 0.0
C159 C 0.39718 0.5914 0.7822 0.0
C160 C 0.43088 0.61414 0.75646 0.0
C161 C 0.43402 0.59773 0.71982 0.0
C162 C 0.43588 0.53384 0.66119 0.0
C163 C 0.47335 0.56263 0.64358 0.0
C164 C 0.50461 0.55369 0.63718 0.0
C165 C 0.49894 0.51615 0.64888 0.0
C166 C 0.46141 0.48766 0.66664 0.0
C167 C 0.43022 0.49647 0.67262 0.0
C168 C 0.6137 0.45093 0.57488 0.0
C169 C 0.65178 0.46672 0.55533 0.0
C170 C 0.65392 0.45438 0.51619 0.0
C171 C 0.61788 0.42555 0.49604 0.0
C172 C 0.57956 0.41058 0.51523 0.0
C173 C 0.57743 0.42324 0.55417 0.0
C174 C 0.60733 0.42781 0.6411 0.0
C175 C 0.56833 0.39269 0.64591 0.0
C176 C 0.56472 0.35857 0.66424 0.0
C177 C 0.59997 0.35854 0.67778 0.0
C178 C 0.63869 0.39413 0.67451 0.0
C179 C 0.64225 0.42838 0.65631 0.0
C180 C 0.58548 0.4767 0.62553 0.0
C181 C 0.57844 0.4993 0.59672 0.0
C182 C 0.55126 0.5131 0.60461 0.0
C183 C 0.53134 0.50581 0.64191 0.0
C184 C 0.54116 0.48682 0.67203 0.0
C185 C 0.56856 0.47329 0.66428 0.0
H186 H 0.23142 0.679 0.81386 0.0
N187 N 0.1634 0.61707 0.78301 0.0
H188 H 0.28388 0.67668 0.85486 0.0
H189 H 0.15616 0.54909 0.81811 0.0
H190 H 0.20805 0.54654 0.85912 0.0
H191 H 0.18468 0.56634 0.74558 0.0
H192 H 0.20765 0.57028 0.67661 0.0
H193 H 0.17243 0.67051 0.72759 0.0
H194 H 0.19628 0.67516 0.65798 0.0
H195 H 0.11529 0.63588 0.82536 0.0
H196 H 0.11215 0.53912 0.75584 0.0
H197 H 0.04052 0.59364 0.83695 0.0
H198 H 0.03847 0.49773 0.76675 0.0
H199 H 0.83812 0.46344 0.86428 0.0
H200 H 0.79743 0.45169 0.92591 0.0
H201 H 0.8151 0.35218 0.95481 0.0
H202 H 0.85488 0.36399 0.89332 0.0
H203 H 0.85041 0.34588 0.80642 0.0
H204 H 0.79152 0.3017 0.76386 0.0
H205 H 0.76113 0.39555 0.75487 0.0
H206 H 0.82125 0.44 0.79665 0.0
H207 H 0.92363 0.47463 0.88883 0.0
H208 H 0.99363 0.52765 0.87405 0.0
H209 H 0.97327 0.49663 0.74802 0.0
N210 N 0.86929 0.41709 0.83656 0.0
H211 H 0.90322 0.44357 0.76217 0.0
C212 C 0.18991 0.61447 0.81262 0.0
C213 C 0.22577 0.6501 0.82447 0.0
C214 C 0.25568 0.64866 0.84789 0.0
C215 C 0.25027 0.61137 0.86004 0.0
C216 C 0.21315 0.57576 0.85034 0.0
C217 C 0.18332 0.57722 0.82673 0.0
C218 C 0.17685 0.61835 0.74197 0.0
C219 C 0.1868 0.59009 0.72681 0.0
C220 C 0.1998 0.59225 0.68709 0.0
C221 C 0.20372 0.62299 0.66166 0.0
C222 C 0.19354 0.65107 0.67674 0.0
C223 C 0.18004 0.64857 0.71646 0.0
C224 C 0.11954 0.59118 0.78943 0.0
C225 C 0.09855 0.60576 0.81246 0.0
C226 C 0.056 0.5817 0.819 0.0
C227 C 0.03365 0.54269 0.80217 0.0
C228 C 0.05471 0.52805 0.77926 0.0
C229 C 0.09714 0.55183 0.77313 0.0
C230 C 0.84936 0.41438 0.87444 0.0
C231 C 0.8332 0.43925 0.8841 0.0
C232 C 0.80996 0.43246 0.91925 0.0
C233 C 0.80266 0.40078 0.94515 0.0
C234 C 0.81986 0.37676 0.93559 0.0
C235 C 0.84285 0.38352 0.90062 0.0
C236 C 0.83959 0.39566 0.8052 0.0
C237 C 0.83166 0.35719 0.79427 0.0
C238 C 0.79793 0.33205 0.77005 0.0
C239 C 0.77119 0.34489 0.75663 0.0
C240 C 0.78095 0.38469 0.76509 0.0
C241 C 0.81513 0.41005 0.78908 0.0
C242 C 0.90653 0.4549 0.82672 0.0
C243 C 0.93309 0.47996 0.85765 0.0
C244 C 0.97355 0.51042 0.84929 0.0
C245 C 0.98892 0.51606 0.80996 0.0
C246 C 0.96222 0.49272 0.77872 0.0
C247 C 0.92171 0.46246 0.78695 0.0
H248 H 0.54569 0.21821 0.97747 0.0
N249 N 0.54588 0.15681 0.94098 0.0
H250 H 0.59975 0.27018 0.02002 0.0
H251 H 0.61134 0.15365 0.97359 0.0
H252 H 0.66564 0.20555 0.01578 0.0
H253 H 0.62039 0.18158 0.90413 0.0
H254 H 0.64066 0.20888 0.83719 0.0
H255 H 0.50028 0.16732 0.88685 0.0
H256 H 0.52077 0.19552 0.81903 0.0
H257 H 0.47844 0.10613 0.98187 0.0
H258 H 0.57663 0.11046 0.91066 0.0
H259 H 0.44943 0.03336 0.99184 0.0
H260 H 0.54789 0.03869 0.92014 0.0
H261 H 0.38724 0.84087 0.0193 0.0
H262 H 0.35975 0.80601 0.08337 0.0
H263 H 0.48116 0.82858 0.11431 0.0
H264 H 0.50772 0.8624 0.05023 0.0
H265 H 0.52101 0.85587 0.96096 0.0
H266 H 0.50683 0.79846 0.91779 0.0
H267 H 0.37869 0.76507 0.91078 0.0
H268 H 0.39376 0.82366 0.95282 0.0
H269 H 0.46103 0.92536 0.04369 0.0
H270 H 0.47377 0.99202 0.02833 0.0
H271 H 0.48592 0.97186 0.90257 0.0
N272 N 0.46663 0.87278 0.99198 0.0
H273 H 0.47311 0.90488 0.91734 0.0
C274 C 0.57442 0.18227 0.9719 0.0
C275 C 0.57126 0.21476 0.98663 0.0
C276 C 0.60225 0.24442 0.01091 0.0
C277 C 0.63729 0.24224 0.02088 0.0
C278 C 0.63908 0.20813 0.00861 0.0
C279 C 0.60794 0.17838 0.98433 0.0
C280 C 0.55854 0.17225 0.90074 0.0
C281 C 0.59816 0.18413 0.88594 0.0
C282 C 0.60977 0.19974 0.84734 0.0
C283 C 0.58233 0.20438 0.82264 0.0
C284 C 0.54263 0.19232 0.83728 0.0
C285 C 0.53087 0.17624 0.87594 0.0
C286 C 0.52945 0.11396 0.94534 0.0
C287 C 0.49351 0.09142 0.96816 0.0
C288 C 0.47703 0.04999 0.97379 0.0
C289 C 0.49615 0.03032 0.95633 0.0
C290 C 0.53195 0.05284 0.93321 0.0
C291 C 0.54859 0.09419 0.92793 0.0
C292 C 0.44957 0.85393 0.0301 0.0
C293 C 0.4077 0.83796 0.03988 0.0
C294 C 0.3921 0.81824 0.07655 0.0
C295 C 0.41819 0.81442 0.10397 0.0
C296 C 0.46011 0.83097 0.09404 0.0
C297 C 0.47548 0.85036 0.05749 0.0
C298 C 0.45836 0.84334 0.9608 0.0
C299 C 0.49017 0.83676 0.9491 0.0
C300 C 0.48196 0.80401 0.92436 0.0
C301 C 0.44148 0.77687 0.91139 0.0
C302 C 0.41012 0.78527 0.92063 0.0
C303 C 0.41857 0.81851 0.94491 0.0
C304 C 0.46446 0.9083 0.98175 0.0
C305 C 0.46456 0.934 0.01243 0.0
C306 C 0.47211 0.97259 0.00373 0.0
C307 C 0.48089 0.98714 0.9643 0.0
C308 C 0.47936 0.9614 0.93333 0.0
C309 C 0.4715 0.92265 0.94191 0.0
H310 H 0.54572 0.34035 0.12293 0.0
N311 N 0.54591 0.40193 0.15943 0.0
H312 H 0.59977 0.34244 0.08038 0.0
H313 H 0.61138 0.47056 0.12683 0.0
H314 H 0.66567 0.47296 0.08465 0.0
H315 H 0.62043 0.45167 0.19629 0.0
H316 H 0.6407 0.44464 0.26323 0.0
H317 H 0.50031 0.34582 0.21355 0.0
H318 H 0.5208 0.33811 0.28137 0.0
H319 H 0.47847 0.38517 0.11855 0.0
H320 H 0.57668 0.47904 0.18975 0.0
H321 H 0.44946 0.42893 0.10859 0.0
H322 H 0.54794 0.52207 0.18028 0.0
H323 H 0.38727 0.55923 0.08112 0.0
H324 H 0.35979 0.56659 0.01704 0.0
H325 H 0.4812 0.66544 0.98613 0.0
H326 H 0.50775 0.65818 0.05021 0.0
H327 H 0.52102 0.67801 0.13949 0.0
H328 H 0.50682 0.72122 0.18265 0.0
H329 H 0.37869 0.62643 0.18964 0.0
H330 H 0.39378 0.58293 0.14761 0.0
H331 H 0.46104 0.54853 0.05674 0.0
H332 H 0.47379 0.49461 0.0721 0.0
H333 H 0.48598 0.52694 0.19786 0.0
N334 N 0.46666 0.60671 0.10846 0.0
H335 H 0.47316 0.5811 0.18309 0.0
C336 C 0.57446 0.40502 0.12851 0.0
C337 C 0.57128 0.36936 0.11377 0.0
C338 C 0.60227 0.3707 0.08949 0.0
C339 C 0.63732 0.40792 0.07953 0.0
C340 C 0.63911 0.44381 0.0918 0.0
C341 C 0.60797 0.44243 0.11609 0.0
C342 C 0.55857 0.39915 0.19967 0.0
C343 C 0.5982 0.4269 0.21448 0.0
C344 C 0.6098 0.42288 0.25308 0.0
C345 C 0.58237 0.39081 0.27778 0.0
C346 C 0.54267 0.36318 0.26312 0.0
C347 C 0.5309 0.36749 0.22446 0.0
C348 C 0.52948 0.42835 0.15507 0.0
C349 C 0.49354 0.41496 0.13226 0.0
C350 C 0.47706 0.4399 0.12663 0.0
C351 C 0.49618 0.47869 0.1441 0.0
C352 C 0.53199 0.49198 0.16721 0.0
C353 C 0.54863 0.46726 0.17248 0.0
C354 C 0.4496 0.6085 0.07033 0.0
C355 C 0.40773 0.58259 0.06054 0.0
C356 C 0.39214 0.58672 0.02387 0.0
C357 C 0.41822 0.61663 0.99645 0.0
C358 C 0.46015 0.642 0.00639 0.0
C359 C 0.47551 0.63798 0.04295 0.0
C360 C 0.45838 0.62787 0.13964 0.0
C361 C 0.49018 0.66627 0.15134 0.0
C362 C 0.48196 0.6908 0.17607 0.0
C363 C 0.44147 0.67744 0.18905 0.0
C364 C 0.41013 0.63768 0.1798 0.0
C365 C 0.41859 0.6129 0.15552 0.0
C366 C 0.46449 0.56901 0.11869 0.0
C367 C 0.46458 0.54341 0.08801 0.0
C368 C 0.47213 0.51237 0.09671 0.0
C369 C 0.48093 0.50662 0.13613 0.0
C370 C 0.47941 0.53083 0.16711 0.0
C371 C 0.47155 0.56172 0.15853 0.0
O372 O 0.58968 0.37754 0.44239 0.0
Cd373 Cd 0.59167 0.34497 0.39373 0.0
Cd374 Cd 0.66455 0.41245 0.37981 0.0
O375 O 0.65432 0.42699 0.43683 0.0
O376 O 0.56128 0.28675 0.40808 0.0
O377 O 0.62902 0.32263 0.39892 0.0
C378 C 0.59657 0.28879 0.4085 0.0
C379 C 0.73111 0.42876 0.36184 0.0
C380 C 0.62053 0.40964 0.45618 0.0
C381 C 0.59623 0.38571 0.31775 0.0
O382 O 0.63108 0.41308 0.33109 0.0
O383 O 0.57459 0.35358 0.33764 0.0
O384 O 0.72133 0.45611 0.36623 0.0
O385 O 0.70336 0.39185 0.36969 0.0
O386 O 0.22564 0.5989 0.60635 0.0
Cd387 Cd 0.25833 0.59919 0.55621 0.0
Cd388 Cd 0.25833 0.67191 0.5442 0.0
O389 O 0.2328 0.65922 0.60101 0.0
O390 O 0.26971 0.5553 0.5676 0.0
O391 O 0.31869 0.61972 0.56493 0.0
C392 C 0.30805 0.58263 0.57172 0.0
C393 C 0.30804 0.7382 0.5287 0.0
C394 C 0.22073 0.62692 0.6206 0.0
C395 C 0.22074 0.60659 0.4798 0.0
O396 O 0.22565 0.63951 0.49405 0.0
O397 O 0.2328 0.58635 0.49939 0.0
O398 O 0.26969 0.72718 0.53282 0.0
O399 O 0.31869 0.71176 0.53549 0.0
O400 O 0.63105 0.23082 0.76933 0.0
Cd401 Cd 0.66452 0.26492 0.72062 0.0
Cd402 Cd 0.59165 0.25952 0.70668 0.0
O403 O 0.57456 0.23384 0.76277 0.0
O404 O 0.7213 0.27803 0.7342 0.0
O405 O 0.70334 0.32432 0.73074 0.0
C406 C 0.73109 0.31516 0.73859 0.0
C407 C 0.59657 0.32062 0.69191 0.0
C408 C 0.5962 0.22334 0.78267 0.0
C409 C 0.62049 0.2237 0.64424 0.0
O410 O 0.58965 0.22496 0.65802 0.0
O411 O 0.65428 0.24015 0.6636 0.0
O412 O 0.56127 0.28737 0.69233 0.0
O413 O 0.62901 0.31921 0.7015 0.0
O414 O 0.4281 0.64782 0.93305 0.0
Cd415 Cd 0.41622 0.67132 0.88324 0.0
Cd416 Cd 0.34273 0.6045 0.89273 0.0
O417 O 0.36411 0.60287 0.94964 0.0
O418 O 0.45992 0.72969 0.8851 0.0
O419 O 0.39351 0.7075 0.89397 0.0
C420 C 0.43118 0.73718 0.89441 0.0
C421 C 0.28517 0.60933 0.87771 0.0
C422 C 0.4025 0.62231 0.95781 0.0
C423 C 0.39232 0.60888 0.82016 0.0
O424 O 0.36384 0.58623 0.84451 0.0
O425 O 0.41554 0.64636 0.82786 0.0
O426 O 0.28108 0.57523 0.8882 0.0
O427 O 0.32167 0.64099 0.8788 0.0
O428 O 0.77312 0.36392 0.00479 0.0
Cd429 Cd 0.73479 0.33836 0.05329 0.0
Cd430 Cd 0.73481 0.40931 0.04712 0.0
O431 O 0.76042 0.41259 0.99096 0.0
O432 O 0.70729 0.27783 0.04679 0.0
O433 O 0.6748 0.31179 0.04156 0.0
C434 C 0.67388 0.27798 0.03852 0.0
C435 C 0.6739 0.40877 0.06188 0.0
C436 C 0.77743 0.39218 0.98203 0.0
C437 C 0.77743 0.39809 0.11839 0.0
O438 O 0.77313 0.42206 0.09562 0.0
O439 O 0.7604 0.36068 0.10945 0.0
O440 O 0.70731 0.44233 0.05363 0.0
O441 O 0.67482 0.37588 0.05884 0.0
O442 O 0.42807 0.7931 0.16738 0.0
Cd443 Cd 0.41619 0.75772 0.21719 0.0
Cd444 Cd 0.3427 0.75103 0.20768 0.0
O445 O 0.36408 0.77405 0.15077 0.0
O446 O 0.4599 0.74306 0.21533 0.0
O447 O 0.39349 0.69883 0.20646 0.0
C448 C 0.43117 0.70683 0.20602 0.0
C449 C 0.28514 0.68862 0.22269 0.0
C450 C 0.40247 0.79301 0.14262 0.0
C451 C 0.39227 0.79624 0.28026 0.0
O452 O 0.3638 0.79041 0.25591 0.0
O453 O 0.4155 0.78199 0.27256 0.0
O454 O 0.28105 0.71864 0.2122 0.0
O455 O 0.32164 0.69348 0.2216 0.0
loop_
_geom_bond_atom_site_label_1
_geom_bond_atom_site_label_2
_geom_bond_distance
_geom_bond_site_symmetry_2
_ccdc_geom_bond_type
H0 C27 0.929 . S
N1 C26 1.433 . S
N1 C32 1.435 . S
N1 C38 1.423 . S
H2 C28 0.930 . S
H3 C31 0.931 . S
H4 C30 0.929 . S
H5 C33 0.930 . S
H6 C34 0.932 . S
H7 C37 0.929 . S
H8 C36 0.931 . S
H9 C39 0.929 . S
H10 C43 0.932 . S
H11 C40 0.931 . S
H12 C42 0.929 . S
H13 C45 0.929 . S
H14 C46 0.930 . S
H15 C48 0.929 . S
H16 C49 0.931 . S
H17 C51 0.930 . S
H18 C52 0.932 . S
H19 C54 0.931 . S
H20 C55 0.929 . S
H21 C57 0.929 . S
H22 C58 0.931 . S
H23 C60 0.929 . S
N24 C44 1.433 . S
N24 C50 1.435 . S
N24 C56 1.423 . S
H25 C61 0.932 . S
C26 N1 1.433 . S
C26 C27 1.363 . S
C26 C31 1.370 . S
C27 H0 0.929 . S
C27 C26 1.363 . S
C27 C28 1.385 . S
C28 H2 0.930 . S
C28 C27 1.385 . S
C28 C29 1.357 . S
C29 C28 1.357 . S
C29 C30 1.406 . S
C30 H4 0.929 . S
C30 C29 1.406 . S
C30 C31 1.391 . S
C31 H3 0.931 . S
C31 C26 1.370 . S
C31 C30 1.391 . S
C32 N1 1.435 . S
C32 C33 1.358 . S
C32 C37 1.371 . S
C33 H5 0.930 . S
C33 C32 1.358 . S
C33 C34 1.405 . S
C34 H6 0.932 . S
C34 C33 1.405 . S
C34 C35 1.383 . S
C35 C34 1.383 . S
C35 C36 1.393 . S
C36 H8 0.931 . S
C36 C35 1.393 . S
C36 C37 1.382 . S
C37 H7 0.929 . S
C37 C32 1.371 . S
C37 C36 1.382 . S
C38 N1 1.423 . S
C38 C39 1.362 . S
C38 C43 1.388 . S
C39 H9 0.929 . S
C39 C38 1.362 . S
C39 C40 1.376 . S
C40 H11 0.931 . S
C40 C39 1.376 . S
C40 C41 1.396 . S
C41 C40 1.396 . S
C41 C42 1.348 . S
C41 C59 1.472 1_455 S
C42 H12 0.929 . S
C42 C41 1.348 . S
C42 C43 1.443 . S
C43 H10 0.932 . S
C43 C38 1.388 . S
C43 C42 1.443 . S
C44 N24 1.433 . S
C44 C45 1.363 . S
C44 C49 1.370 . S
C45 H13 0.929 . S
C45 C44 1.363 . S
C45 C46 1.385 . S
C46 H14 0.930 . S
C46 C45 1.385 . S
C46 C47 1.357 . S
C47 C46 1.357 . S
C47 C48 1.406 . S
C48 H15 0.929 . S
C48 C47 1.406 . S
C48 C49 1.391 . S
C49 H16 0.931 . S
C49 C44 1.370 . S
C49 C48 1.391 . S
C50 N24 1.435 . S
C50 C51 1.358 . S
C50 C55 1.371 . S
C51 H17 0.930 . S
C51 C50 1.358 . S
C51 C52 1.405 . S
C52 H18 0.932 . S
C52 C51 1.405 . S
C52 C53 1.383 . S
C53 C52 1.383 . S
C53 C54 1.393 . S
C54 H19 0.931 . S
C54 C53 1.393 . S
C54 C55 1.382 . S
C55 H20 0.929 . S
C55 C50 1.371 . S
C55 C54 1.382 . S
C56 N24 1.423 . S
C56 C57 1.362 . S
C56 C61 1.388 . S
C57 H21 0.929 . S
C57 C56 1.362 . S
C57 C58 1.376 . S
C58 H22 0.931 . S
C58 C57 1.376 . S
C58 C59 1.396 . S
C59 C41 1.472 1_655 S
C59 C58 1.396 . S
C59 C60 1.348 . S
C60 H23 0.929 . S
C60 C59 1.348 . S
C60 C61 1.443 . S
C61 H25 0.932 . S
C61 C56 1.388 . S
C61 C60 1.443 . S
H62 C89 0.929 . S
N63 C88 1.433 . S
N63 C94 1.435 . S
N63 C100 1.423 . S
H64 C90 0.930 . S
H65 C93 0.931 . S
H66 C92 0.929 . S
H67 C95 0.930 . S
H68 C96 0.932 . S
H69 C99 0.929 . S
H70 C98 0.931 . S
H71 C101 0.929 . S
H72 C105 0.932 . S
H73 C102 0.931 . S
H74 C104 0.929 . S
H75 C107 0.929 . S
H76 C108 0.930 . S
H77 C110 0.929 . S
H78 C111 0.931 . S
H79 C113 0.930 . S
H80 C114 0.932 . S
H81 C116 0.931 . S
H82 C117 0.929 . S
H83 C119 0.929 . S
H84 C120 0.931 . S
H85 C122 0.929 . S
N86 C106 1.433 . S
N86 C112 1.435 . S
N86 C118 1.423 . S
H87 C123 0.932 . S
C88 N63 1.433 . S
C88 C89 1.363 . S
C88 C93 1.370 . S
C89 H62 0.929 . S
C89 C88 1.363 . S
C89 C90 1.385 . S
C90 H64 0.930 . S
C90 C89 1.385 . S
C90 C91 1.357 . S
C91 C90 1.357 . S
C91 C92 1.406 . S
C92 H66 0.929 . S
C92 C91 1.406 . S
C92 C93 1.391 . S
C93 H65 0.931 . S
C93 C88 1.370 . S
C93 C92 1.391 . S
C94 N63 1.435 . S
C94 C95 1.358 . S
C94 C99 1.371 . S
C95 H67 0.930 . S
C95 C94 1.358 . S
C95 C96 1.405 . S
C96 H68 0.932 . S
C96 C95 1.405 . S
C96 C97 1.383 . S
C97 C96 1.383 . S
C97 C98 1.393 . S
C98 H70 0.931 . S
C98 C97 1.393 . S
C98 C99 1.382 . S
C99 H69 0.929 . S
C99 C94 1.371 . S
C99 C98 1.382 . S
C100 N63 1.423 . S
C100 C101 1.362 . S
C100 C105 1.388 . S
C101 H71 0.929 . S
C101 C100 1.362 . S
C101 C102 1.376 . S
C102 H73 0.931 . S
C102 C101 1.376 . S
C102 C103 1.396 . S
C103 C102 1.396 . S
C103 C104 1.348 . S
C103 C121 1.472 1_565 S
C104 H74 0.929 . S
C104 C103 1.348 . S
C104 C105 1.443 . S
C105 H72 0.932 . S
C105 C100 1.388 . S
C105 C104 1.443 . S
C106 N86 1.433 . S
C106 C107 1.363 . S
C106 C111 1.370 . S
C107 H75 0.929 . S
C107 C106 1.363 . S
C107 C108 1.385 . S
C108 H76 0.930 . S
C108 C107 1.385 . S
C108 C109 1.357 . S
C109 C108 1.357 . S
C109 C110 1.406 . S
C110 H77 0.929 . S
C110 C109 1.406 . S
C110 C111 1.391 . S
C111 H78 0.931 . S
C111 C106 1.370 . S
C111 C110 1.391 . S
C112 N86 1.435 . S
C112 C113 1.358 . S
C112 C117 1.371 . S
C113 H79 0.930 . S
C113 C112 1.358 . S
C113 C114 1.405 . S
C114 H80 0.932 . S
C114 C113 1.405 . S
C114 C115 1.383 . S
C115 C114 1.383 . S
C115 C116 1.393 . S
C116 H81 0.931 . S
C116 C115 1.393 . S
C116 C117 1.382 . S
C117 H82 0.929 . S
C117 C112 1.371 . S
C117 C116 1.382 . S
C118 N86 1.423 . S
C118 C119 1.362 . S
C118 C123 1.388 . S
C119 H83 0.929 . S
C119 C118 1.362 . S
C119 C120 1.376 . S
C120 H84 0.931 . S
C120 C119 1.376 . S
C120 C121 1.396 . S
C121 C103 1.472 1_545 S
C121 C120 1.396 . S
C121 C122 1.348 . S
C122 H85 0.929 . S
C122 C121 1.348 . S
C122 C123 1.443 . S
C123 H87 0.932 . S
C123 C118 1.388 . S
C123 C122 1.443 . S
H124 C151 0.929 . S
N125 C150 1.433 . S
N125 C156 1.435 . S
N125 C162 1.423 . S
H126 C152 0.930 . S
H127 C155 0.931 . S
H128 C154 0.929 . S
H129 C157 0.930 . S
H130 C158 0.932 . S
H131 C161 0.929 . S
H132 C160 0.931 . S
H133 C163 0.929 . S
H134 C167 0.932 . S
H135 C164 0.931 . S
H136 C166 0.929 . S
H137 C169 0.929 . S
H138 C170 0.930 . S
H139 C172 0.929 . S
H140 C173 0.931 . S
H141 C175 0.930 . S
H142 C176 0.932 . S
H143 C178 0.931 . S
H144 C179 0.929 . S
H145 C181 0.929 . S
H146 C182 0.931 . S
H147 C184 0.929 . S
N148 C168 1.433 . S
N148 C174 1.435 . S
N148 C180 1.423 . S
H149 C185 0.932 . S
C150 N125 1.433 . S
C150 C151 1.363 . S
C150 C155 1.370 . S
C151 H124 0.929 . S
C151 C150 1.363 . S
C151 C152 1.385 . S
C152 H126 0.930 . S
C152 C151 1.385 . S
C152 C153 1.357 . S
C153 C152 1.357 . S
C153 C154 1.406 . S
C154 H128 0.929 . S
C154 C153 1.406 . S
C154 C155 1.391 . S
C155 H127 0.931 . S
C155 C150 1.370 . S
C155 C154 1.391 . S
C156 N125 1.435 . S
C156 C157 1.358 . S
C156 C161 1.371 . S
C157 H129 0.930 . S
C157 C156 1.358 . S
C157 C158 1.405 . S
C158 H130 0.932 . S
C158 C157 1.405 . S
C158 C159 1.383 . S
C159 C158 1.383 . S
C159 C160 1.393 . S
C160 H132 0.931 . S
C160 C159 1.393 . S
C160 C161 1.382 . S
C161 H131 0.929 . S
C161 C156 1.371 . S
C161 C160 1.382 . S
C162 N125 1.423 . S
C162 C163 1.362 . S
C162 C167 1.388 . S
C163 H133 0.929 . S
C163 C162 1.362 . S
C163 C164 1.376 . S
C164 H135 0.931 . S
C164 C163 1.376 . S
C164 C165 1.396 . S
C165 C164 1.396 . S
C165 C166 1.348 . S
C165 C183 1.472 . S
C166 H136 0.929 . S
C166 C165 1.348 . S
C166 C167 1.443 . S
C167 H134 0.932 . S
C167 C162 1.388 . S
C167 C166 1.443 . S
C168 N148 1.433 . S
C168 C169 1.363 . S
C168 C173 1.370 . S
C169 H137 0.929 . S
C169 C168 1.363 . S
C169 C170 1.385 . S
C170 H138 0.930 . S
C170 C169 1.385 . S
C170 C171 1.357 . S
C171 C170 1.357 . S
C171 C172 1.406 . S
C172 H139 0.929 . S
C172 C171 1.406 . S
C172 C173 1.391 . S
C173 H140 0.931 . S
C173 C168 1.370 . S
C173 C172 1.391 . S
C174 N148 1.435 . S
C174 C175 1.358 . S
C174 C179 1.371 . S
C175 H141 0.930 . S
C175 C174 1.358 . S
C175 C176 1.405 . S
C176 H142 0.932 . S
C176 C175 1.405 . S
C176 C177 1.383 . S
C177 C176 1.383 . S
C177 C178 1.393 . S
C178 H143 0.931 . S
C178 C177 1.393 . S
C178 C179 1.382 . S
C179 H144 0.929 . S
C179 C174 1.371 . S
C179 C178 1.382 . S
C180 N148 1.423 . S
C180 C181 1.362 . S
C180 C185 1.388 . S
C181 H145 0.929 . S
C181 C180 1.362 . S
C181 C182 1.376 . S
C182 H146 0.931 . S
C182 C181 1.376 . S
C182 C183 1.396 . S
C183 C165 1.472 . S
C183 C182 1.396 . S
C183 C184 1.348 . S
C184 H147 0.929 . S
C184 C183 1.348 . S
C184 C185 1.443 . S
C185 H149 0.932 . S
C185 C180 1.388 . S
C185 C184 1.443 . S
H186 C213 0.929 . S
N187 C212 1.433 . S
N187 C218 1.435 . S
N187 C224 1.423 . S
H188 C214 0.930 . S
H189 C217 0.931 . S
H190 C216 0.929 . S
H191 C219 0.930 . S
H192 C220 0.932 . S
H193 C223 0.929 . S
H194 C222 0.931 . S
H195 C225 0.929 . S
H196 C229 0.932 . S
H197 C226 0.931 . S
H198 C228 0.929 . S
H199 C231 0.929 . S
H200 C232 0.930 . S
H201 C234 0.929 . S
H202 C235 0.931 . S
H203 C237 0.930 . S
H204 C238 0.932 . S
H205 C240 0.931 . S
H206 C241 0.929 . S
H207 C243 0.929 . S
H208 C244 0.931 . S
H209 C246 0.929 . S
N210 C230 1.433 . S
N210 C236 1.435 . S
N210 C242 1.423 . S
H211 C247 0.932 . S
C212 N187 1.433 . S
C212 C213 1.363 . S
C212 C217 1.370 . S
C213 H186 0.929 . S
C213 C212 1.363 . S
C213 C214 1.385 . S
C214 H188 0.930 . S
C214 C213 1.385 . S
C214 C215 1.357 . S
C215 C214 1.357 . S
C215 C216 1.406 . S
C216 H190 0.929 . S
C216 C215 1.406 . S
C216 C217 1.391 . S
C217 H189 0.931 . S
C217 C212 1.370 . S
C217 C216 1.391 . S
C218 N187 1.435 . S
C218 C219 1.358 . S
C218 C223 1.371 . S
C219 H191 0.930 . S
C219 C218 1.358 . S
C219 C220 1.405 . S
C220 H192 0.932 . S
C220 C219 1.405 . S
C220 C221 1.383 . S
C221 C220 1.383 . S
C221 C222 1.393 . S
C222 H194 0.931 . S
C222 C221 1.393 . S
C222 C223 1.382 . S
C223 H193 0.929 . S
C223 C218 1.371 . S
C223 C222 1.382 . S
C224 N187 1.423 . S
C224 C225 1.362 . S
C224 C229 1.388 . S
C225 H195 0.929 . S
C225 C224 1.362 . S
C225 C226 1.376 . S
C226 H197 0.931 . S
C226 C225 1.376 . S
C226 C227 1.396 . S
C227 C226 1.396 . S
C227 C228 1.348 . S
C227 C245 1.472 1_455 S
C228 H198 0.929 . S
C228 C227 1.348 . S
C228 C229 1.443 . S
C229 H196 0.932 . S
C229 C224 1.388 . S
C229 C228 1.443 . S
C230 N210 1.433 . S
C230 C231 1.363 . S
C230 C235 1.370 . S
C231 H199 0.929 . S
C231 C230 1.363 . S
C231 C232 1.385 . S
C232 H200 0.930 . S
C232 C231 1.385 . S
C232 C233 1.357 . S
C233 C232 1.357 . S
C233 C234 1.406 . S
C234 H201 0.929 . S
C234 C233 1.406 . S
C234 C235 1.391 . S
C235 H202 0.931 . S
C235 C230 1.370 . S
C235 C234 1.391 . S
C236 N210 1.435 . S
C236 C237 1.358 . S
C236 C241 1.371 . S
C237 H203 0.930 . S
C237 C236 1.358 . S
C237 C238 1.405 . S
C238 H204 0.932 . S
C238 C237 1.405 . S
C238 C239 1.383 . S
C239 C238 1.383 . S
C239 C240 1.393 . S
C240 H205 0.931 . S
C240 C239 1.393 . S
C240 C241 1.382 . S
C241 H206 0.929 . S
C241 C236 1.371 . S
C241 C240 1.382 . S
C242 N210 1.423 . S
C242 C243 1.362 . S
C242 C247 1.388 . S
C243 H207 0.929 . S
C243 C242 1.362 . S
C243 C244 1.376 . S
C244 H208 0.931 . S
C244 C243 1.376 . S
C244 C245 1.396 . S
C245 C227 1.472 1_655 S
C245 C244 1.396 . S
C245 C246 1.348 . S
C246 H209 0.929 . S
C246 C245 1.348 . S
C246 C247 1.443 . S
C247 H211 0.932 . S
C247 C242 1.388 . S
C247 C246 1.443 . S
H248 C275 0.929 . S
N249 C274 1.433 . S
N249 C280 1.435 . S
N249 C286 1.423 . S
H250 C276 0.930 . S
H251 C279 0.931 . S
H252 C278 0.929 . S
H253 C281 0.930 . S
H254 C282 0.932 . S
H255 C285 0.929 . S
H256 C284 0.931 . S
H257 C287 0.929 . S
H258 C291 0.932 . S
H259 C288 0.931 . S
H260 C290 0.929 . S
H261 C293 0.929 . S
H262 C294 0.930 . S
H263 C296 0.929 . S
H264 C297 0.931 . S
H265 C299 0.930 . S
H266 C300 0.932 . S
H267 C302 0.931 . S
H268 C303 0.929 . S
H269 C305 0.929 . S
H270 C306 0.931 . S
H271 C308 0.929 . S
N272 C292 1.433 . S
N272 C298 1.435 1_554 S
N272 C304 1.416 1_554 S
H273 C309 0.932 . S
C274 N249 1.433 . S
C274 C275 1.363 . S
C274 C279 1.370 . S
C275 H248 0.929 . S
C275 C274 1.363 . S
C275 C276 1.385 . S
C276 H250 0.930 . S
C276 C275 1.385 . S
C276 C277 1.357 1_556 S
C277 C276 1.357 1_554 S
C277 C278 1.406 . S
C278 H252 0.929 . S
C278 C277 1.406 . S
C278 C279 1.391 1_554 S
C279 H251 0.931 . S
C279 C274 1.370 . S
C279 C278 1.391 1_556 S
C280 N249 1.435 . S
C280 C281 1.358 . S
C280 C285 1.371 . S
C281 H253 0.930 . S
C281 C280 1.358 . S
C281 C282 1.405 . S
C282 H254 0.932 . S
C282 C281 1.405 . S
C282 C283 1.383 . S
C283 C282 1.383 . S
C283 C284 1.393 . S
C284 H256 0.931 . S
C284 C283 1.393 . S
C284 C285 1.382 . S
C285 H255 0.929 . S
C285 C280 1.371 . S
C285 C284 1.382 . S
C286 N249 1.423 . S
C286 C287 1.362 . S
C286 C291 1.388 . S
C287 H257 0.929 . S
C287 C286 1.362 . S
C287 C288 1.376 . S
C288 H259 0.931 . S
C288 C287 1.376 . S
C288 C289 1.396 . S
C289 C288 1.396 . S
C289 C290 1.348 . S
C289 C307 1.472 1_545 S
C290 H260 0.929 . S
C290 C289 1.348 . S
C290 C291 1.443 . S
C291 H258 0.932 . S
C291 C286 1.388 . S
C291 C290 1.443 . S
C292 N272 1.433 . S
C292 C293 1.363 . S
C292 C297 1.370 . S
C293 H261 0.929 . S
C293 C292 1.363 . S
C293 C294 1.385 . S
C294 H262 0.930 . S
C294 C293 1.385 . S
C294 C295 1.357 . S
C295 C294 1.357 . S
C295 C296 1.406 . S
C296 H263 0.929 . S
C296 C295 1.406 . S
C296 C297 1.391 . S
C297 H264 0.931 . S
C297 C292 1.370 . S
C297 C296 1.391 . S
C298 N272 1.435 1_556 S
C298 C299 1.358 1_556 S
C298 C303 1.371 . S
C299 H265 0.930 . S
C299 C298 1.358 1_554 S
C299 C300 1.405 1_554 S
C300 H266 0.932 . S
C300 C299 1.405 1_556 S
C300 C301 1.383 . S
C301 C300 1.383 . S
C301 C302 1.393 . S
C302 H267 0.931 . S
C302 C301 1.393 . S
C302 C303 1.382 . S
C303 H268 0.929 . S
C303 C298 1.371 . S
C303 C302 1.382 . S
C304 N272 1.416 1_556 S
C304 C305 1.355 1_556 S
C304 C309 1.403 . S
C305 H269 0.929 . S
C305 C304 1.355 1_554 S
C305 C306 1.376 . S
C306 H270 0.931 . S
C306 C305 1.376 . S
C306 C307 1.396 1_554 S
C307 C289 1.472 1_565 S
C307 C306 1.396 1_556 S
C307 C308 1.348 . S
C308 H271 0.929 . S
C308 C307 1.348 . S
C308 C309 1.443 . S
C309 H273 0.932 . S
C309 C304 1.403 . S
C309 C308 1.443 . S
H310 C337 0.929 . S
N311 C336 1.433 . S
N311 C342 1.435 . S
N311 C348 1.423 . S
H312 C338 0.930 . S
H313 C341 0.931 . S
H314 C340 0.929 . S
H315 C343 0.930 . S
H316 C344 0.932 . S
H317 C347 0.929 . S
H318 C346 0.931 . S
H319 C349 0.929 . S
H320 C353 0.932 . S
H321 C350 0.931 . S
H322 C352 0.929 . S
H323 C355 0.929 . S
H324 C356 0.930 . S
H325 C358 0.929 . S
H326 C359 0.931 . S
H327 C361 0.930 . S
H328 C362 0.932 . S
H329 C364 0.931 . S
H330 C365 0.929 . S
H331 C367 0.929 . S
H332 C368 0.931 . S
H333 C370 0.929 . S
N334 C354 1.433 . S
N334 C360 1.435 . S
N334 C366 1.423 . S
H335 C371 0.932 . S
C336 N311 1.433 . S
C336 C337 1.363 . S
C336 C341 1.370 . S
C337 H310 0.929 . S
C337 C336 1.363 . S
C337 C338 1.385 . S
C338 H312 0.930 . S
C338 C337 1.385 . S
C338 C339 1.357 . S
C339 C338 1.357 . S
C339 C340 1.406 . S
C340 H314 0.929 . S
C340 C339 1.406 . S
C340 C341 1.391 . S
C341 H313 0.931 . S
C341 C336 1.370 . S
C341 C340 1.391 . S
C342 N311 1.435 . S
C342 C343 1.358 . S
C342 C347 1.371 . S
C343 H315 0.930 . S
C343 C342 1.358 . S
C343 C344 1.405 . S
C344 H316 0.932 . S
C344 C343 1.405 . S
C344 C345 1.383 . S
C345 C344 1.383 . S
C345 C346 1.393 . S
C346 H318 0.931 . S
C346 C345 1.393 . S
C346 C347 1.382 . S
C347 H317 0.929 . S
C347 C342 1.371 . S
C347 C346 1.382 . S
C348 N311 1.423 . S
C348 C349 1.362 . S
C348 C353 1.388 . S
C349 H319 0.929 . S
C349 C348 1.362 . S
C349 C350 1.376 . S
C350 H321 0.931 . S
C350 C349 1.376 . S
C350 C351 1.396 . S
C351 C350 1.396 . S
C351 C352 1.348 . S
C351 C369 1.472 . S
C352 H322 0.929 . S
C352 C351 1.348 . S
C352 C353 1.443 . S
C353 H320 0.932 . S
C353 C348 1.388 . S
C353 C352 1.443 . S
C354 N334 1.433 . S
C354 C355 1.363 . S
C354 C359 1.370 . S
C355 H323 0.929 . S
C355 C354 1.363 . S
C355 C356 1.385 1_554 S
C356 H324 0.930 . S
C356 C355 1.385 1_556 S
C356 C357 1.357 . S
C357 C356 1.357 . S
C357 C358 1.406 . S
C358 H325 0.929 . S
C358 C357 1.406 . S
C358 C359 1.391 1_556 S
C359 H326 0.931 . S
C359 C354 1.370 . S
C359 C358 1.391 1_554 S
C360 N334 1.435 . S
C360 C361 1.358 . S
C360 C365 1.371 . S
C361 H327 0.930 . S
C361 C360 1.358 . S
C361 C362 1.405 . S
C362 H328 0.932 . S
C362 C361 1.405 . S
C362 C363 1.383 . S
C363 C362 1.383 . S
C363 C364 1.393 . S
C364 H329 0.931 . S
C364 C363 1.393 . S
C364 C365 1.382 . S
C365 H330 0.929 . S
C365 C360 1.371 . S
C365 C364 1.382 . S
C366 N334 1.423 . S
C366 C367 1.362 . S
C366 C371 1.388 . S
C367 H331 0.929 . S
C367 C366 1.362 . S
C367 C368 1.376 . S
C368 H332 0.931 . S
C368 C367 1.376 . S
C368 C369 1.396 . S
C369 C351 1.472 . S
C369 C368 1.396 . S
C369 C370 1.348 . S
C370 H333 0.929 . S
C370 C369 1.348 . S
C370 C371 1.443 . S
C371 H335 0.932 . S
C371 C366 1.388 . S
C371 C370 1.443 . S
O372 Cd373 2.223 . S
O372 C380 1.315 . S
Cd373 O372 2.223 . S
Cd373 O376 2.297 . S
Cd373 O377 2.439 . S
Cd373 O383 2.240 . S
Cd374 O375 2.240 . S
Cd374 O382 2.223 . S
Cd374 O384 2.297 . S
Cd374 O385 2.439 . S
O375 Cd374 2.240 . S
O375 C380 1.279 . S
O376 Cd373 2.297 . S
O376 C378 1.247 . S
O377 Cd373 2.439 . S
O377 C378 1.208 . S
C378 O376 1.247 . S
C378 O377 1.208 . S
C379 O384 1.247 . S
C379 O385 1.208 . S
C380 O372 1.315 . S
C380 O375 1.279 . S
C381 O382 1.315 . S
C381 O383 1.279 . S
O382 Cd374 2.223 . S
O382 C381 1.315 . S
O383 Cd373 2.240 . S
O383 C381 1.279 . S
O384 Cd374 2.297 . S
O384 C379 1.247 . S
O385 Cd374 2.439 . S
O385 C379 1.208 . S
O386 Cd387 2.223 . S
O386 C394 1.315 . S
Cd387 O386 2.223 . S
Cd387 O390 2.297 . S
Cd387 O391 2.439 . S
Cd387 O397 2.240 . S
Cd388 O389 2.240 . S
Cd388 O396 2.223 . S
Cd388 O398 2.297 . S
Cd388 O399 2.439 . S
O389 Cd388 2.240 . S
O389 C394 1.279 . S
O390 Cd387 2.297 . S
O390 C392 1.247 . S
O391 Cd387 2.439 . S
O391 C392 1.208 . S
C392 O390 1.247 . S
C392 O391 1.208 . S
C393 O398 1.247 . S
C393 O399 1.208 . S
C394 O386 1.315 . S
C394 O389 1.279 . S
C395 O396 1.315 . S
C395 O397 1.279 . S
O396 Cd388 2.223 . S
O396 C395 1.315 . S
O397 Cd387 2.240 . S
O397 C395 1.279 . S
O398 Cd388 2.297 . S
O398 C393 1.247 . S
O399 Cd388 2.439 . S
O399 C393 1.208 . S
O400 Cd401 2.223 . S
O400 C408 1.315 . S
Cd401 O400 2.223 . S
Cd401 O404 2.297 . S
Cd401 O405 2.439 . S
Cd401 O411 2.240 . S
Cd402 O403 2.240 . S
Cd402 O410 2.223 . S
Cd402 O412 2.297 . S
Cd402 O413 2.439 . S
O403 Cd402 2.240 . S
O403 C408 1.279 . S
O404 Cd401 2.297 . S
O404 C406 1.247 . S
O405 Cd401 2.439 . S
O405 C406 1.208 . S
C406 O404 1.247 . S
C406 O405 1.208 . S
C407 O412 1.247 . S
C407 O413 1.208 . S
C408 O400 1.315 . S
C408 O403 1.279 . S
C409 O410 1.315 . S
C409 O411 1.279 . S
O410 Cd402 2.223 . S
O410 C409 1.315 . S
O411 Cd401 2.240 . S
O411 C409 1.279 . S
O412 Cd402 2.297 . S
O412 C407 1.247 . S
O413 Cd402 2.439 . S
O413 C407 1.208 . S
O414 Cd415 2.223 . S
O414 C422 1.315 . S
Cd415 O414 2.223 . S
Cd415 O418 2.297 . S
Cd415 O419 2.439 . S
Cd415 O425 2.240 . S
Cd416 O417 2.240 . S
Cd416 O424 2.223 . S
Cd416 O426 2.297 . S
Cd416 O427 2.439 . S
O417 Cd416 2.240 . S
O417 C422 1.279 . S
O418 Cd415 2.297 . S
O418 C420 1.247 . S
O419 Cd415 2.439 . S
O419 C420 1.208 . S
C420 O418 1.247 . S
C420 O419 1.208 . S
C421 O426 1.247 . S
C421 O427 1.208 . S
C422 O414 1.315 . S
C422 O417 1.279 . S
C423 O424 1.315 . S
C423 O425 1.279 . S
O424 Cd416 2.223 . S
O424 C423 1.315 . S
O425 Cd415 2.240 . S
O425 C423 1.279 . S
O426 Cd416 2.297 . S
O426 C421 1.247 . S
O427 Cd416 2.439 . S
O427 C421 1.208 . S
O428 Cd429 2.223 . S
O428 C436 1.315 . S
Cd429 O428 2.223 . S
Cd429 O432 2.297 . S
Cd429 O433 2.439 . S
Cd429 O439 2.240 . S
Cd430 O431 2.240 . S
Cd430 O438 2.223 . S
Cd430 O440 2.297 . S
Cd430 O441 2.439 . S
O431 Cd430 2.240 . S
O431 C436 1.279 . S
O432 Cd429 2.297 . S
O432 C434 1.247 . S
O433 Cd429 2.439 . S
O433 C434 1.208 . S
C434 O432 1.247 . S
C434 O433 1.208 . S
C435 O440 1.247 . S
C435 O441 1.208 . S
C436 O428 1.315 . S
C436 O431 1.279 . S
C437 O438 1.315 . S
C437 O439 1.279 . S
O438 Cd430 2.223 . S
O438 C437 1.315 . S
O439 Cd429 2.240 . S
O439 C437 1.279 . S
O440 Cd430 2.297 . S
O440 C435 1.247 . S
O441 Cd430 2.439 . S
O441 C435 1.208 . S
O442 Cd443 2.223 . S
O442 C450 1.315 . S
Cd443 O442 2.223 . S
Cd443 O446 2.297 . S
Cd443 O447 2.439 . S
Cd443 O453 2.240 . S
Cd444 O445 2.240 . S
Cd444 O452 2.223 . S
Cd444 O454 2.297 . S
Cd444 O455 2.439 . S
O445 Cd444 2.240 . S
O445 C450 1.279 . S
O446 Cd443 2.297 . S
O446 C448 1.247 . S
O447 Cd443 2.439 . S
O447 C448 1.208 . S
C448 O446 1.247 . S
C448 O447 1.208 . S
C449 O454 1.247 . S
C449 O455 1.208 . S
C450 O442 1.315 . S
C450 O445 1.279 . S
C451 O452 1.315 . S
C451 O453 1.279 . S
O452 Cd444 2.223 . S
O452 C451 1.315 . S
O453 Cd443 2.240 . S
O453 C451 1.279 . S
O454 Cd444 2.297 . S
O454 C449 1.247 . S
O455 Cd444 2.439 . S
O455 C449 1.208 . S
C449 C29 1.565 . S
C115 C378 1.526 . S
C153 C392 1.360 . S
C239 C406 1.550 . S
C420 C301 1.569 . S
C339 C435 1.931 . S
C91 C393 1.360 . S
C177 C407 1.527 . S
C215 C421 1.565 . S
C434 C277 1.931 . S
C448 C363 1.569 . S
C379 C53 1.550 . S
C35 C395 1.935 . S
C109 C409 1.404 . S
C423 C159 1.840 . S
C233 C436 1.909 1_556 S
C450 C295 1.637 . S
C381 C345 1.975 . S
C451 C97 1.840 . S
C171 C380 1.404 . S
C394 C221 1.935 . S
C283 C408 1.975 . S
C357 C422 1.637 . S
C47 C437 1.909 . S
