# Generated by pormake.
# Topology ptr, (4,4)-cn, num edge types: 1
# Building blocks:
#     Node 0, Type 0, BuildingBlock: QUQFOY_clean_sbu_3, # of connection points: 4
#     Node 1, Type 0, BuildingBlock: QUQFOY_clean_sbu_3, # of connection points: 4
#     Node 2, Type 0, BuildingBlock: QUQFOY_clean_sbu_3, # of connection points: 4
#     Node 3, Type 0, BuildingBlock: QUQFOY_clean_sbu_3, # of connection points: 4
#     Node 4, Type 0, BuildingBlock: QUQFOY_clean_sbu_3, # of connection points: 4
#     Node 5, Type 0, BuildingBlock: QUQFOY_clean_sbu_3, # of connection points: 4
#     Node 6, Type 0, BuildingBlock: QUQFOY_clean_sbu_3, # of connection points: 4
#     Node 7, Type 0, BuildingBlock: QUQFOY_clean_sbu_3, # of connection points: 4
#     Node 8, Type 0, BuildingBlock: QUQFOY_clean_sbu_3, # of connection points: 4
#     Node 9, Type 0, BuildingBlock: QUQFOY_clean_sbu_3, # of connection points: 4
#     Node 10, Type 0, BuildingBlock: QUQFOY_clean_sbu_3, # of connection points: 4
#     Node 11, Type 0, BuildingBlock: QUQFOY_clean_sbu_3, # of connection points: 4
#     Node 12, Type 0, BuildingBlock: QUQFOY_clean_sbu_3, # of connection points: 4
#     Node 13, Type 0, BuildingBlock: QUQFOY_clean_sbu_3, # of connection points: 4
#     Node 14, Type 0, BuildingBlock: QUQFOY_clean_sbu_3, # of connection points: 4
#     Node 15, Type 0, BuildingBlock: QUQFOY_clean_sbu_3, # of connection points: 4
#     Node 16, Type 0, BuildingBlock: QUQFOY_clean_sbu_3, # of connection points: 4
#     Node 17, Type 0, BuildingBlock: QUQFOY_clean_sbu_3, # of connection points: 4
#     Node 18, Type 1, BuildingBlock: MIFKUJ_clean_linker_1, # of connection points: 4
#     Node 19, Type 1, BuildingBlock: MIFKUJ_clean_linker_1, # of connection points: 4
#     Node 20, Type 1, BuildingBlock: MIFKUJ_clean_linker_1, # of connection points: 4
#     Node 21, Type 1, BuildingBlock: MIFKUJ_clean_linker_1, # of connection points: 4
#     Node 22, Type 1, BuildingBlock: MIFKUJ_clean_linker_1, # of connection points: 4
#     Node 23, Type 1, BuildingBlock: MIFKUJ_clean_linker_1, # of connection points: 4
#     Node 24, Type 1, BuildingBlock: MIFKUJ_clean_linker_1, # of connection points: 4
#     Node 25, Type 1, BuildingBlock: MIFKUJ_clean_linker_1, # of connection points: 4
#     Node 26, Type 1, BuildingBlock: MIFKUJ_clean_linker_1, # of connection points: 4
#     Node 27, Type 1, BuildingBlock: MIFKUJ_clean_linker_1, # of connection points: 4
#     Node 28, Type 1, BuildingBlock: MIFKUJ_clean_linker_1, # of connection points: 4
#     Node 29, Type 1, BuildingBlock: MIFKUJ_clean_linker_1, # of connection points: 4
#     Node 30, Type 1, BuildingBlock: MIFKUJ_clean_linker_1, # of connection points: 4
#     Node 31, Type 1, BuildingBlock: MIFKUJ_clean_linker_1, # of connection points: 4
#     Node 32, Type 1, BuildingBlock: MIFKUJ_clean_linker_1, # of connection points: 4
#     Node 33, Type 1, BuildingBlock: MIFKUJ_clean_linker_1, # of connection points: 4
#     Node 34, Type 1, BuildingBlock: MIFKUJ_clean_linker_1, # of connection points: 4
#     Node 35, Type 1, BuildingBlock: MIFKUJ_clean_linker_1, # of connection points: 4
#     Edge 36, Type (0, 1), BuildingBlock: CIFDUS_clean_linker_0, # of connection points: 2
#     Edge 37, Type (0, 1), BuildingBlock: CIFDUS_clean_linker_0, # of connection points: 2
#     Edge 38, Type (0, 1), BuildingBlock: CIFDUS_clean_linker_0, # of connection points: 2
#     Edge 39, Type (0, 1), BuildingBlock: CIFDUS_clean_linker_0, # of connection points: 2
#     Edge 40, Type (0, 1), BuildingBlock: CIFDUS_clean_linker_0, # of connection points: 2
#     Edge 41, Type (0, 1), BuildingBlock: CIFDUS_clean_linker_0, # of connection points: 2
#     Edge 42, Type (0, 1), BuildingBlock: CIFDUS_clean_linker_0, # of connection points: 2
#     Edge 43, Type (0, 1), BuildingBlock: CIFDUS_clean_linker_0, # of connection points: 2
#     Edge 44, Type (0, 1), BuildingBlock: CIFDUS_clean_linker_0, # of connection points: 2
#     Edge 45, Type (0, 1), BuildingBlock: CIFDUS_clean_linker_0, # of connection points: 2
#     Edge 46, Type (0, 1), BuildingBlock: CIFDUS_clean_linker_0, # of connection points: 2
#     Edge 47, Type (0, 1), BuildingBlock: CIFDUS_clean_linker_0, # of connection points: 2
#     Edge 48, Type (0, 1), BuildingBlock: CIFDUS_clean_linker_0, # of connection points: 2
#     Edge 49, Type (0, 1), BuildingBlock: CIFDUS_clean_linker_0, # of connection points: 2
#     Edge 50, Type (0, 1), BuildingBlock: CIFDUS_clean_linker_0, # of connection points: 2
#     Edge 51, Type (0, 1), BuildingBlock: CIFDUS_clean_linker_0, # of connection points: 2
#     Edge 52, Type (0, 1), BuildingBlock: CIFDUS_clean_linker_0, # of connection points: 2
#     Edge 53, Type (0, 1), BuildingBlock: CIFDUS_clean_linker_0, # of connection points: 2
#     Edge 54, Type (0, 1), BuildingBlock: CIFDUS_clean_linker_0, # of connection points: 2
#     Edge 55, Type (0, 1), BuildingBlock: CIFDUS_clean_linker_0, # of connection points: 2
#     Edge 56, Type (0, 1), BuildingBlock: CIFDUS_clean_linker_0, # of connection points: 2
#     Edge 57, Type (0, 1), BuildingBlock: CIFDUS_clean_linker_0, # of connection points: 2
#     Edge 58, Type (0, 1), BuildingBlock: CIFDUS_clean_linker_0, # of connection points: 2
#     Edge 59, Type (0, 1), BuildingBlock: CIFDUS_clean_linker_0, # of connection points: 2
#     Edge 60, Type (0, 1), BuildingBlock: CIFDUS_clean_linker_0, # of connection points: 2
#     Edge 61, Type (0, 1), BuildingBlock: CIFDUS_clean_linker_0, # of connection points: 2
#     Edge 62, Type (0, 1), BuildingBlock: CIFDUS_clean_linker_0, # of connection points: 2
#     Edge 63, Type (0, 1), BuildingBlock: CIFDUS_clean_linker_0, # of connection points: 2
#     Edge 64, Type (0, 1), BuildingBlock: CIFDUS_clean_linker_0, # of connection points: 2
#     Edge 65, Type (0, 1), BuildingBlock: CIFDUS_clean_linker_0, # of connection points: 2
#     Edge 66, Type (0, 1), BuildingBlock: CIFDUS_clean_linker_0, # of connection points: 2
#     Edge 67, Type (0, 1), BuildingBlock: CIFDUS_clean_linker_0, # of connection points: 2
#     Edge 68, Type (0, 1), BuildingBlock: CIFDUS_clean_linker_0, # of connection points: 2
#     Edge 69, Type (0, 1), BuildingBlock: CIFDUS_clean_linker_0, # of connection points: 2
#     Edge 70, Type (0, 1), BuildingBlock: CIFDUS_clean_linker_0, # of connection points: 2
#     Edge 71, Type (0, 1), BuildingBlock: CIFDUS_clean_linker_0, # of connection points: 2
#     Edge 72, Type (0, 1), BuildingBlock: CIFDUS_clean_linker_0, # of connection points: 2
#     Edge 73, Type (0, 1), BuildingBlock: CIFDUS_clean_linker_0, # of connection points: 2
#     Edge 74, Type (0, 1), BuildingBlock: CIFDUS_clean_linker_0, # of connection points: 2
#     Edge 75, Type (0, 1), BuildingBlock: CIFDUS_clean_linker_0, # of connection points: 2
#     Edge 76, Type (0, 1), BuildingBlock: CIFDUS_clean_linker_0, # of connection points: 2
#     Edge 77, Type (0, 1), BuildingBlock: CIFDUS_clean_linker_0, # of connection points: 2
#     Edge 78, Type (0, 1), BuildingBlock: CIFDUS_clean_linker_0, # of connection points: 2
#     Edge 79, Type (0, 1), BuildingBlock: CIFDUS_clean_linker_0, # of connection points: 2
#     Edge 80, Type (0, 1), BuildingBlock: CIFDUS_clean_linker_0, # of connection points: 2
#     Edge 81, Type (0, 1), BuildingBlock: CIFDUS_clean_linker_0, # of connection points: 2
#     Edge 82, Type (0, 1), BuildingBlock: CIFDUS_clean_linker_0, # of connection points: 2
#     Edge 83, Type (0, 1), BuildingBlock: CIFDUS_clean_linker_0, # of connection points: 2
#     Edge 84, Type (0, 1), BuildingBlock: CIFDUS_clean_linker_0, # of connection points: 2
#     Edge 85, Type (0, 1), BuildingBlock: CIFDUS_clean_linker_0, # of connection points: 2
#     Edge 86, Type (0, 1), BuildingBlock: CIFDUS_clean_linker_0, # of connection points: 2
#     Edge 87, Type (0, 1), BuildingBlock: CIFDUS_clean_linker_0, # of connection points: 2
#     Edge 88, Type (0, 1), BuildingBlock: CIFDUS_clean_linker_0, # of connection points: 2
#     Edge 89, Type (0, 1), BuildingBlock: CIFDUS_clean_linker_0, # of connection points: 2
#     Edge 90, Type (0, 1), BuildingBlock: CIFDUS_clean_linker_0, # of connection points: 2
#     Edge 91, Type (0, 1), BuildingBlock: CIFDUS_clean_linker_0, # of connection points: 2
#     Edge 92, Type (0, 1), BuildingBlock: CIFDUS_clean_linker_0, # of connection points: 2
#     Edge 93, Type (0, 1), BuildingBlock: CIFDUS_clean_linker_0, # of connection points: 2
#     Edge 94, Type (0, 1), BuildingBlock: CIFDUS_clean_linker_0, # of connection points: 2
#     Edge 95, Type (0, 1), BuildingBlock: CIFDUS_clean_linker_0, # of connection points: 2
#     Edge 96, Type (0, 1), BuildingBlock: CIFDUS_clean_linker_0, # of connection points: 2
#     Edge 97, Type (0, 1), BuildingBlock: CIFDUS_clean_linker_0, # of connection points: 2
#     Edge 98, Type (0, 1), BuildingBlock: CIFDUS_clean_linker_0, # of connection points: 2
#     Edge 99, Type (0, 1), BuildingBlock: CIFDUS_clean_linker_0, # of connection points: 2
#     Edge 100, Type (0, 1), BuildingBlock: CIFDUS_clean_linker_0, # of connection points: 2
#     Edge 101, Type (0, 1), BuildingBlock: CIFDUS_clean_linker_0, # of connection points: 2
#     Edge 102, Type (0, 1), BuildingBlock: CIFDUS_clean_linker_0, # of connection points: 2
#     Edge 103, Type (0, 1), BuildingBlock: CIFDUS_clean_linker_0, # of connection points: 2
#     Edge 104, Type (0, 1), BuildingBlock: CIFDUS_clean_linker_0, # of connection points: 2
#     Edge 105, Type (0, 1), BuildingBlock: CIFDUS_clean_linker_0, # of connection points: 2
#     Edge 106, Type (0, 1), BuildingBlock: CIFDUS_clean_linker_0, # of connection points: 2
#     Edge 107, Type (0, 1), BuildingBlock: CIFDUS_clean_linker_0, # of connection points: 2
# Relax obj value: 0.033
# Max RMSD: 0.123
# Mean RMSD: 0.057
data_MOF--net-ptr--node1-QUQFOY_clean_sbu_3--node2-MIFKUJ_clean_linker_1--edge1-CIFDUS_clean_linker_0
_symmetry_space_group_name_H-M    P1
_symmetry_Int_Tables_number       1
_symmetry_cell_setting            triclinic
loop_
_symmetry_equiv_pos_as_xyz
'x, y, z'
_cell_length_a     81.357329
_cell_length_b     81.906007
_cell_length_c     56.404965
_cell_angle_alpha  90.394065
_cell_angle_beta   89.51249
_cell_angle_gamma 120.47377
loop_
_atom_site_label
_atom_site_type_symbol
_atom_site_fract_x
_atom_site_fract_y
_atom_site_fract_z
_atom_type_partial_charge
C0 C 0.95442 0.30613 0.00174 0.0
O1 O 0.94544 0.31394 0.00977 0.0
Cd2 Cd 0.96056 0.34603 0.02285 0.0
O3 O 0.97259 0.31476 0.00221 0.0
Cd4 Cd -0.00064 0.34499 0.01872 0.0
C5 C 0.99219 0.36998 0.97677 0.0
O6 O 0.98255 0.34886 0.05232 0.0
O7 O 0.00992 0.37315 0.04413 0.0
O8 O 0.01086 0.32677 0.0392 0.0
C9 C -0.00464 0.36559 0.05757 0.0
O10 O 0.97699 0.3656 0.98835 0.0
C11 C 0.02741 0.335 0.03 0.0
O12 O 0.00321 0.36403 0.98327 0.0
O13 O 0.03104 0.34791 0.01495 0.0
C14 C 0.63605 0.68045 0.02957 0.0
O15 O 0.61847 0.67031 0.02462 0.0
Cd16 Cd 0.60361 0.63901 0.00832 0.0
O17 O 0.6475 0.6745 0.02503 0.0
Cd18 Cd 0.64568 0.64563 0.00703 0.0
C19 C 0.61639 0.61738 0.05074 0.0
O20 O 0.62221 0.63852 0.97574 0.0
O21 O 0.62838 0.61648 0.98392 0.0
O22 O 0.67322 0.66381 0.98142 0.0
C23 C 0.61985 0.62233 0.97081 0.0
O24 O 0.60369 0.61947 0.04049 0.0
C25 C 0.68361 0.65812 0.99054 0.0
O26 O 0.63358 0.62601 0.04318 0.0
O27 O 0.67662 0.64688 0.00804 0.0
C28 C 0.3182 0.9512 0.02656 0.0
O29 O 0.32897 0.94468 0.02119 0.0
Cd30 Cd 0.3588 0.96239 0.00014 0.0
O31 O 0.32291 0.96806 0.02099 0.0
Cd32 Cd 0.3495 0.99547 0.00095 0.0
C33 C 0.38296 -0.00073 0.03897 0.0
O34 O 0.35485 0.97893 0.96816 0.0
O35 O 0.37651 0.00818 0.97373 0.0
O36 O 0.32685 0.00096 0.98013 0.0
C37 C 0.37013 0.99336 0.96108 0.0
O38 O 0.38202 0.98537 0.02754 0.0
C39 C 0.33355 0.01791 0.9871 0.0
O40 O 0.37136 0.00506 0.03502 0.0
O41 O 0.34743 0.02439 0.0015 0.0
C42 C 0.94628 0.63686 0.00057 0.0
O43 O 0.93793 0.62071 0.0104 0.0
Cd44 Cd 0.95473 0.60485 0.02114 0.0
O45 O 0.96436 0.64612 -0.00169 0.0
Cd46 Cd 0.99268 0.64432 0.0104 0.0
C47 C 0.98084 0.60988 0.96971 0.0
O48 O 0.98031 0.62541 0.04649 0.0
O49 O 0.00675 0.62904 0.03243 0.0
O50 O 0.00367 0.67437 0.02977 0.0
C51 C 0.99418 0.62258 0.04869 0.0
O52 O 0.96724 0.59986 0.98405 0.0
C53 C 0.0198 0.68321 0.01956 0.0
O54 O 0.99256 0.62732 0.97409 0.0
O55 O 0.02342 0.67406 0.00408 0.0
C56 C 0.3231 0.35871 0.03282 0.0
O57 O 0.33147 0.37614 0.02736 0.0
Cd58 Cd 0.36302 0.39286 0.01096 0.0
O59 O 0.33103 0.34899 0.02873 0.0
Cd60 Cd 0.36045 0.35262 0.01076 0.0
C61 C 0.38701 0.3833 0.05388 0.0
O62 O 0.36394 0.37409 0.97897 0.0
O63 O 0.38793 0.37016 0.98462 0.0
O64 O 0.341 0.32349 0.98922 0.0
C65 C 0.38025 0.37735 0.97229 0.0
O66 O 0.38358 0.39498 0.04342 0.0
C67 C 0.34902 0.31482 0.99713 0.0
O68 O 0.37975 0.3663 0.04645 0.0
O69 O 0.36238 0.32365 0.01198 0.0
C70 C 0.6783 0.03897 0.99414 0.0
O71 O 0.66854 0.04604 0.00191 0.0
Cd72 Cd 0.6388 0.02934 0.02338 0.0
O73 O 0.67272 0.02156 0.99762 0.0
Cd74 Cd 0.64541 0.99378 0.01715 0.0
C75 C 0.6119 0.9945 0.9825 0.0
O76 O 0.64067 0.00927 0.05195 0.0
O77 O 0.61871 0.98043 0.04477 0.0
O78 O 0.66693 0.98562 0.03625 0.0
C79 C 0.62494 0.99489 0.05806 0.0
O80 O 0.61477 0.00858 0.99527 0.0
C81 C 0.65991 0.96919 0.02727 0.0
O82 O 0.62227 0.98699 0.98453 0.0
O83 O 0.64633 0.96421 0.01266 0.0
C84 C 0.62626 0.65616 0.32669 0.0
O85 O 0.61761 0.66427 0.33484 0.0
Cd86 Cd 0.63195 0.69382 0.35514 0.0
O87 O 0.64419 0.66349 0.32955 0.0
Cd88 Cd 0.67075 0.69245 0.34876 0.0
C89 C 0.66391 0.72065 0.31098 0.0
O90 O 0.65276 0.69266 0.3834 0.0
O91 O 0.68011 0.71781 0.37863 0.0
O92 O 0.68198 0.67179 0.36312 0.0
C93 C 0.66523 0.7087 0.39126 0.0
O94 O 0.64925 0.71629 0.3237 0.0
C95 C 0.69934 0.68261 0.35745 0.0
O96 O 0.67429 0.71341 0.31509 0.0
O97 O 0.70344 0.69787 0.34683 0.0
C98 C 0.29852 0.0051 0.3597 0.0
O99 O 0.2811 -0.00306 0.35377 0.0
Cd100 Cd 0.26409 0.96585 0.33668 0.0
O101 O 0.30831 -0.00282 0.35588 0.0
Cd102 Cd 0.30398 0.96742 0.33818 0.0
C103 C 0.27184 0.94164 0.38087 0.0
O104 O 0.28274 0.96352 0.30531 0.0
O105 O 0.28608 0.93959 0.31313 0.0
O106 O 0.33375 0.98643 0.31709 0.0
C107 C 0.27916 0.94698 0.29979 0.0
O108 O 0.26063 0.9453 0.36951 0.0
C109 C 0.34209 0.97807 0.325 0.0
O110 O 0.28914 0.94854 0.37424 0.0
O111 O 0.33278 0.9647 0.33967 0.0
C112 C 0.99109 0.29645 0.35583 0.0
O113 O 0.00084 0.28867 0.3511 0.0
Cd114 Cd 0.03205 0.30442 0.33414 0.0
O115 O -0.00234 0.31394 0.35149 0.0
Cd116 Cd 0.02717 0.34093 0.33468 0.0
C117 C 0.05509 0.33858 0.37707 0.0
O118 O 0.03125 0.32327 0.30273 0.0
O119 O 0.0547 0.35171 0.30794 0.0
O120 O 0.00794 0.3507 0.31333 0.0
C121 C 0.04731 0.3366 0.29579 0.0
O122 O 0.05242 0.32373 0.36627 0.0
C123 C 0.01582 0.36734 0.32184 0.0
O124 O 0.04691 0.34746 0.37017 0.0
O125 O 0.02883 0.3717 0.33708 0.0
C126 C 0.61666 0.96379 0.31887 0.0
O127 O 0.60726 0.94663 0.3256 0.0
Cd128 Cd 0.6206 0.93049 0.34592 0.0
O129 O 0.63442 0.97398 0.32327 0.0
Cd130 Cd 0.66028 0.97189 0.34357 0.0
C131 C 0.65574 0.93768 0.30502 0.0
O132 O 0.64017 0.952 0.37576 0.0
O133 O 0.66916 0.9579 0.37583 0.0
O134 O 0.66956 0.00361 0.35728 0.0
C135 C 0.65286 0.94985 0.38561 0.0
O136 O 0.6401 0.92697 0.31584 0.0
C137 C 0.6873 0.0107 0.35359 0.0
O138 O 0.66597 0.95515 0.3106 0.0
O139 O 0.69255 -0.00013 0.34433 0.0
C140 C 0.98719 0.69299 0.35965 0.0
O141 O -0.00422 0.71055 0.3549 0.0
Cd142 Cd 0.02727 0.72785 0.33862 0.0
O143 O 0.99505 0.68324 0.35507 0.0
Cd144 Cd 0.02529 0.68861 0.33671 0.0
C145 C 0.05172 0.71848 0.38062 0.0
O146 O 0.02792 0.71025 0.30492 0.0
O147 O 0.05242 0.70724 0.31049 0.0
O148 O 0.00564 0.65741 0.31869 0.0
C149 C 0.04431 0.71391 0.29806 0.0
O150 O 0.04862 0.73051 0.37052 0.0
C151 C 0.01729 0.65177 0.3227 0.0
O152 O 0.04405 0.70155 0.37288 0.0
O153 O 0.03236 0.66303 0.3339 0.0
C154 C 0.34849 0.37338 0.33284 0.0
O155 O 0.34164 0.38312 0.34119 0.0
Cd156 Cd 0.31018 0.36885 0.35864 0.0
O157 O 0.33966 0.3555 0.33556 0.0
Cd158 Cd 0.31102 0.3311 0.35704 0.0
C159 C 0.28206 0.33417 0.31779 0.0
O160 O 0.30695 0.34854 0.39044 0.0
O161 O 0.2828 0.32124 0.38131 0.0
O162 O 0.33097 0.32328 0.38004 0.0
C163 C 0.29005 0.33541 0.39519 0.0
O164 O 0.28643 0.34933 0.32914 0.0
C165 C 0.32339 0.30613 0.37349 0.0
O166 O 0.29013 0.32465 0.32231 0.0
O167 O 0.31003 0.30035 0.35837 0.0
C168 C 0.28809 0.97989 0.6604 0.0
O169 O 0.2793 0.98832 0.66682 0.0
Cd170 Cd 0.29352 0.01816 0.6867 0.0
O171 O 0.30569 0.98688 0.66521 0.0
Cd172 Cd 0.33139 0.01505 0.68629 0.0
C173 C 0.32909 0.04419 0.64561 0.0
O174 O 0.312 0.0169 0.71821 0.0
O175 O 0.34036 0.04104 0.71474 0.0
O176 O 0.33833 0.9934 0.70671 0.0
C177 C 0.32477 0.03276 0.72625 0.0
O178 O 0.31366 0.04017 0.65634 0.0
C179 C 0.35595 0.00165 0.70163 0.0
O180 O 0.33867 0.03649 0.65178 0.0
O181 O 0.36244 0.01616 0.68836 0.0
C182 C 0.95887 0.34181 0.69182 0.0
O183 O 0.94168 0.33132 0.68534 0.0
Cd184 Cd 0.92865 0.3015 0.66544 0.0
O185 O 0.97136 0.33717 0.68715 0.0
Cd186 Cd 0.97287 0.31083 0.66635 0.0
C187 C 0.94134 0.27849 0.70597 0.0
O188 O 0.95096 0.30667 0.63482 0.0
O189 O 0.95983 0.286 0.63524 0.0
O190 O 0.00363 0.33283 0.64799 0.0
C191 C 0.95022 0.29228 0.62533 0.0
O192 O 0.92854 0.28051 0.69586 0.0
C193 C 0.01247 0.3252 0.65668 0.0
O194 O 0.95873 0.28813 0.69935 0.0
O195 O 0.00302 0.3112 0.6704 0.0
C196 C 0.6496 0.62383 0.69573 0.0
O197 O 0.65859 0.61518 0.6916 0.0
Cd198 Cd 0.68756 0.62837 0.66852 0.0
O199 O 0.65584 0.64051 0.68795 0.0
Cd200 Cd 0.68306 0.6647 0.66519 0.0
C201 C 0.7156 0.66667 0.70379 0.0
O202 O 0.68279 0.64297 0.63483 0.0
O203 O 0.70579 0.672 0.63291 0.0
O204 O 0.65956 0.67245 0.65147 0.0
C205 C 0.69736 0.65555 0.62388 0.0
O206 O 0.71269 0.65134 0.69412 0.0
C207 C 0.67056 0.69025 0.65299 0.0
O208 O 0.70563 0.67403 0.69826 0.0
O209 O 0.68728 0.69615 0.66071 0.0
C210 C 0.29049 0.30636 0.66017 0.0
O211 O 0.28028 0.28932 0.66699 0.0
Cd212 Cd 0.29336 0.27134 0.68272 0.0
O213 O 0.30847 0.31536 0.66332 0.0
Cd214 Cd 0.33272 0.31027 0.68322 0.0
C215 C 0.32773 0.27944 0.64021 0.0
O216 O 0.31272 0.28925 0.71532 0.0
O217 O 0.34007 0.29154 0.70996 0.0
O218 O 0.34377 0.34152 0.70036 0.0
C219 C 0.3249 0.28504 0.72218 0.0
O220 O 0.31192 0.26829 0.65043 0.0
C221 C 0.36138 0.34757 0.69703 0.0
O222 O 0.33827 0.29634 0.64769 0.0
O223 O 0.36571 0.33643 0.68666 0.0
C224 C 0.65051 0.03575 0.69144 0.0
O225 O 0.66 0.05292 0.68484 0.0
Cd226 Cd 0.68965 0.06614 0.6638 0.0
O227 O 0.65614 0.02421 0.68618 0.0
Cd228 Cd 0.68236 0.02377 0.66428 0.0
C229 C 0.71402 0.0548 0.70391 0.0
O230 O 0.68421 0.04449 0.63202 0.0
O231 O 0.70615 0.03711 0.63277 0.0
O232 O 0.65817 0.99181 0.65184 0.0
C233 C 0.69865 0.04528 0.62217 0.0
O234 O 0.71168 0.06734 0.69382 0.0
C235 C 0.66889 0.98487 0.65448 0.0
O236 O 0.70462 0.03756 0.69729 0.0
O237 O 0.68552 0.99585 0.66243 0.0
C238 C 0.01462 0.70217 0.6602 0.0
O239 O 0.00684 0.71187 0.66497 0.0
Cd240 Cd 0.97496 0.69804 0.68005 0.0
O241 O 0.00598 0.68452 0.66479 0.0
Cd242 Cd 0.97563 0.65994 0.68332 0.0
C243 C 0.95105 0.66337 0.63755 0.0
O244 O 0.97115 0.6789 0.71387 0.0
O245 O 0.94707 0.65106 0.7067 0.0
O246 O 0.99455 0.6522 0.70851 0.0
C247 C 0.95436 0.66596 0.71932 0.0
O248 O 0.95539 0.67918 0.64709 0.0
C249 C 0.98693 0.63492 0.70259 0.0
O250 O 0.95683 0.65287 0.6464 0.0
O251 O 0.97398 0.62898 0.6869 0.0
H252 H 0.12766 0.32633 0.15347 0.0
H253 H 0.10429 0.32961 0.17712 0.0
H254 H 0.08731 0.27624 0.21131 0.0
H255 H 0.11028 0.27266 0.18676 0.0
H256 H 0.14862 0.29719 0.18895 0.0
H257 H 0.14381 0.32961 0.10307 0.0
H258 H 0.11926 0.33286 0.08282 0.0
H259 H 0.07707 0.27592 0.10394 0.0
H260 H 0.10166 0.27321 0.1251 0.0
H261 H 0.1799 0.2886 0.09898 0.0
H262 H 0.21063 0.30181 0.07828 0.0
H263 H 0.23448 0.34996 0.1258 0.0
H264 H 0.20371 0.337 0.14586 0.0
H265 H 0.15827 0.30582 0.10196 0.0
H266 H 0.18668 0.28211 0.16043 0.0
H267 H 0.21088 0.28537 0.18886 0.0
H268 H 0.20812 0.33128 0.22327 0.0
H269 H 0.18363 0.32741 0.19561 0.0
C270 C 0.12051 0.29911 0.16811 0.0
C271 C 0.11849 0.31502 0.16548 0.0
C272 C 0.1053 0.31701 0.17925 0.0
C273 C 0.09409 0.30326 0.1962 0.0
C274 C 0.09563 0.28698 0.19823 0.0
C275 C 0.1088 0.28496 0.18433 0.0
C276 C 0.13634 0.29847 0.15585 0.0
C277 C 0.15054 0.29857 0.16986 0.0
C278 C 0.13891 0.30056 0.131 0.0
C279 C 0.12452 0.30122 0.1157 0.0
C280 C 0.12932 0.31772 0.10295 0.0
C281 C 0.11522 0.31952 0.09131 0.0
C282 C 0.09606 0.30472 0.09187 0.0
C283 C 0.09155 0.28779 0.10357 0.0
C284 C 0.10562 0.28612 0.1155 0.0
C285 C 0.18964 0.31168 0.12415 0.0
C286 C 0.19184 0.3019 0.10504 0.0
C287 C 0.20938 0.30942 0.09331 0.0
C288 C 0.22492 0.32694 0.1004 0.0
C289 C 0.22271 0.33653 0.11979 0.0
C290 C 0.20521 0.32901 0.13148 0.0
C291 C 0.17072 0.3048 0.13516 0.0
C292 C 0.15599 0.30346 0.12091 0.0
C293 C 0.16786 0.30204 0.15991 0.0
C294 C 0.18319 0.30436 0.17612 0.0
C295 C 0.19135 0.29285 0.17416 0.0
C296 C 0.20523 0.2948 0.19035 0.0
C297 C 0.21127 0.30839 0.20866 0.0
C298 C 0.20345 0.32026 0.20993 0.0
C299 C 0.18949 0.31816 0.19401 0.0
H300 H 0.73225 0.89171 0.18641 0.0
H301 H 0.72679 0.91151 0.21453 0.0
H302 H 0.67232 0.89351 0.18201 0.0
H303 H 0.67746 0.87334 0.15476 0.0
H304 H 0.71041 0.85371 0.18479 0.0
H305 H 0.72906 0.90343 0.1257 0.0
H306 H 0.72432 0.92694 0.1053 0.0
H307 H 0.66866 0.88251 0.08254 0.0
H308 H 0.67393 0.85912 0.1021 0.0
H309 H 0.67294 0.81489 0.09906 0.0
H310 H 0.66433 0.78591 0.07755 0.0
H311 H 0.71214 0.78474 0.1086 0.0
H312 H 0.72158 0.81473 0.12878 0.0
H313 H 0.69988 0.84823 0.09797 0.0
H314 H 0.6751 0.80096 0.15846 0.0
H315 H 0.67074 0.77637 0.18638 0.0
H316 H 0.72817 0.8124 0.21175 0.0
H317 H 0.73259 0.83686 0.18336 0.0
C318 C 0.70538 0.88118 0.16827 0.0
C319 C 0.71929 0.89231 0.18511 0.0
C320 C 0.71621 0.90369 0.20108 0.0
C321 C 0.69907 0.90395 0.20058 0.0
C322 C 0.68558 0.89345 0.183 0.0
C323 C 0.68863 0.88209 0.16717 0.0
C324 C 0.7071 0.86689 0.15375 0.0
C325 C 0.70874 0.8528 0.16567 0.0
C326 C 0.70413 0.86532 0.12896 0.0
C327 C 0.70184 0.87954 0.11546 0.0
C328 C 0.71594 0.89878 0.1161 0.0
C329 C 0.71312 0.91222 0.10453 0.0
C330 C 0.69604 0.90671 0.09231 0.0
C331 C 0.68213 0.88732 0.09135 0.0
C332 C 0.68508 0.87389 0.10265 0.0
C333 C 0.69784 0.81702 0.11579 0.0
C334 C 0.68179 0.80861 0.10103 0.0
C335 C 0.67669 0.7918 0.08896 0.0
C336 C 0.68732 0.78272 0.09159 0.0
C337 C 0.70364 0.79134 0.10603 0.0
C338 C 0.70893 0.80839 0.11786 0.0
C339 C 0.70253 0.8346 0.12913 0.0
C340 C 0.70222 0.84939 0.11696 0.0
C341 C 0.70599 0.83644 0.15388 0.0
C342 C 0.70424 0.82069 0.16866 0.0
C343 C 0.68692 0.80339 0.1696 0.0
C344 C 0.68439 0.78942 0.18572 0.0
C345 C 0.69907 0.7925 0.20137 0.0
C346 C 0.71666 0.80954 0.19979 0.0
C347 C 0.71917 0.82355 0.18367 0.0
H348 H 0.10365 0.83401 0.17738 0.0
H349 H 0.08156 0.80931 0.20468 0.0
H350 H 0.0968 0.77029 0.17391 0.0
H351 H 0.11928 0.79512 0.14741 0.0
H352 H 0.14156 0.84821 0.1779 0.0
H353 H 0.09307 0.81973 0.11669 0.0
H354 H 0.06848 0.79201 0.09559 0.0
H355 H 0.11059 0.77717 0.07485 0.0
H356 H 0.13514 0.80534 0.09513 0.0
H357 H 0.18287 0.84983 0.09417 0.0
H358 H 0.21272 0.87085 0.07381 0.0
H359 H 0.21208 0.91936 0.10347 0.0
H360 H 0.18148 0.89817 0.12261 0.0
H361 H 0.14875 0.84316 0.09122 0.0
H362 H 0.19547 0.86603 0.15261 0.0
H363 H 0.22048 0.88771 0.17965 0.0
H364 H 0.18384 0.90818 0.20486 0.0
H365 H 0.1591 0.88687 0.17719 0.0
C366 C 0.11299 0.81638 0.16019 0.0
C367 C 0.10197 0.82003 0.17628 0.0
C368 C 0.08929 0.80588 0.19177 0.0
C369 C 0.08754 0.7879 0.19154 0.0
C370 C 0.09799 0.78407 0.1747 0.0
C371 C 0.11067 0.7982 0.1593 0.0
C372 C 0.1285 0.832 0.14633 0.0
C373 C 0.14289 0.84744 0.15882 0.0
C374 C 0.13057 0.83058 0.12161 0.0
C375 C 0.11588 0.81451 0.10756 0.0
C376 C 0.09698 0.81058 0.10736 0.0
C377 C 0.08293 0.79465 0.0954 0.0
C378 C 0.08747 0.7822 0.08362 0.0
C379 C 0.10657 0.78653 0.08337 0.0
C380 C 0.12064 0.8026 0.09507 0.0
C381 C 0.17997 0.87238 0.11011 0.0
C382 C 0.18901 0.865 0.09606 0.0
C383 C 0.20625 0.87706 0.08468 0.0
C384 C 0.21497 0.89682 0.08724 0.0
C385 C 0.20572 0.90422 0.10098 0.0
C386 C 0.18832 0.89212 0.11216 0.0
C387 C 0.16205 0.85928 0.12288 0.0
C388 C 0.14721 0.84432 0.11018 0.0
C389 C 0.15982 0.86087 0.14757 0.0
C390 C 0.1755 0.875 0.16268 0.0
C391 C 0.19297 0.87546 0.16361 0.0
C392 C 0.20718 0.88772 0.17926 0.0
C393 C 0.20413 0.89962 0.19448 0.0
C394 C 0.18674 0.89937 0.19319 0.0
C395 C 0.17254 0.88712 0.1775 0.0
H396 H 0.28552 0.16653 0.83369 0.0
H397 H 0.29104 0.19184 0.80607 0.0
H398 H 0.34537 0.2288 0.83912 0.0
H399 H 0.34004 0.20339 0.8661 0.0
H400 H 0.30813 0.15046 0.83686 0.0
H401 H 0.2862 0.1815 0.89327 0.0
H402 H 0.28981 0.20961 0.91355 0.0
H403 H 0.34529 0.22246 0.93854 0.0
H404 H 0.34106 0.1939 0.91922 0.0
H405 H 0.34098 0.14596 0.92228 0.0
H406 H 0.34467 0.12334 0.94607 0.0
H407 H 0.28883 0.07879 0.92389 0.0
H408 H 0.2858 0.10149 0.89909 0.0
H409 H 0.3133 0.15615 0.92444 0.0
H410 H 0.33924 0.13067 0.87114 0.0
H411 H 0.34471 0.1096 0.84581 0.0
H412 H 0.29129 0.09168 0.81039 0.0
H413 H 0.28556 0.11232 0.83642 0.0
C414 C 0.31225 0.18314 0.85212 0.0
C415 C 0.2985 0.18017 0.83512 0.0
C416 C 0.30163 0.19466 0.81946 0.0
C417 C 0.31867 0.21229 0.82041 0.0
C418 C 0.33219 0.21533 0.83782 0.0
C419 C 0.32905 0.20088 0.85344 0.0
C420 C 0.30994 0.16734 0.8672 0.0
C421 C 0.30859 0.15135 0.85607 0.0
C422 C 0.31151 0.16899 0.89214 0.0
C423 C 0.31336 0.18568 0.9048 0.0
C424 C 0.29905 0.19035 0.9033 0.0
C425 C 0.30121 0.20649 0.91478 0.0
C426 C 0.31787 0.21837 0.92771 0.0
C427 C 0.3321 0.21349 0.92922 0.0
C428 C 0.32978 0.19722 0.91806 0.0
C429 C 0.31318 0.12534 0.90887 0.0
C430 C 0.32954 0.13131 0.92262 0.0
C431 C 0.33153 0.11835 0.93639 0.0
C432 C 0.31702 0.09917 0.93707 0.0
C433 C 0.30045 0.09334 0.92354 0.0
C434 C 0.29862 0.10629 0.90943 0.0
C435 C 0.31143 0.13921 0.89409 0.0
C436 C 0.31206 0.15483 0.90529 0.0
C437 C 0.3098 0.13747 0.86914 0.0
C438 C 0.31185 0.12289 0.85591 0.0
C439 C 0.32841 0.12177 0.85843 0.0
C440 C 0.33166 0.10992 0.84371 0.0
C441 C 0.3185 0.09907 0.82598 0.0
C442 C 0.30161 0.0997 0.82403 0.0
C443 C 0.29835 0.11155 0.83881 0.0
H444 H 0.82817 0.10666 0.82704 0.0
H445 H 0.80279 0.09126 0.79761 0.0
H446 H 0.77052 0.11244 0.83432 0.0
H447 H 0.79611 0.12823 0.86315 0.0
H448 H 0.8472 0.14504 0.83082 0.0
H449 H 0.80911 0.09268 0.88402 0.0
H450 H 0.77941 0.07118 0.90483 0.0
H451 H 0.78289 0.11876 0.94305 0.0
H452 H 0.81168 0.14016 0.92119 0.0
H453 H 0.85342 0.18362 0.91482 0.0
H454 H 0.87583 0.21228 0.93577 0.0
H455 H 0.92238 0.20492 0.91186 0.0
H456 H 0.89966 0.17663 0.88966 0.0
H457 H 0.84493 0.14698 0.91853 0.0
H458 H 0.86623 0.19574 0.86375 0.0
H459 H 0.8831 0.22128 0.83535 0.0
H460 H 0.90261 0.18798 0.79803 0.0
H461 H 0.88609 0.16251 0.82714 0.0
C462 C 0.81398 0.11846 0.84741 0.0
C463 C 0.81541 0.10758 0.82904 0.0
C464 C 0.80088 0.09875 0.81229 0.0
C465 C 0.78476 0.10081 0.81355 0.0
C466 C 0.78289 0.1108 0.83274 0.0
C467 C 0.7974 0.11963 0.84942 0.0
C468 C 0.83084 0.13102 0.86205 0.0
C469 C 0.84705 0.14503 0.85007 0.0
C470 C 0.82999 0.13162 0.88711 0.0
C471 C 0.81264 0.11813 0.90081 0.0
C472 C 0.80338 0.09849 0.89674 0.0
C473 C 0.78648 0.08617 0.90887 0.0
C474 C 0.7786 0.09321 0.92552 0.0
C475 C 0.78824 0.11282 0.93001 0.0
C476 C 0.80495 0.1251 0.91773 0.0
C477 C 0.87487 0.17796 0.90083 0.0
C478 C 0.86844 0.1881 0.91426 0.0
C479 C 0.88134 0.20447 0.92638 0.0
C480 C 0.90101 0.2109 0.92587 0.0
C481 C 0.9074 0.20056 0.91252 0.0
C482 C 0.89444 0.1843 0.89996 0.0
C483 C 0.86091 0.16116 0.88717 0.0
C484 C 0.84542 0.14639 0.89933 0.0
C485 C 0.86168 0.16054 0.86217 0.0
C486 C 0.87511 0.17727 0.84785 0.0
C487 C 0.87477 0.19418 0.8501 0.0
C488 C 0.88421 0.20869 0.83362 0.0
C489 C 0.89399 0.20654 0.81431 0.0
C490 C 0.89529 0.19009 0.81281 0.0
C491 C 0.88583 0.17552 0.82938 0.0
H492 H 0.81449 0.66698 0.82819 0.0
H493 H 0.79326 0.66275 0.79567 0.0
H494 H 0.79822 0.71665 0.81247 0.0
H495 H 0.81922 0.72048 0.84592 0.0
H496 H 0.85291 0.70094 0.82932 0.0
H497 H 0.79224 0.66776 0.8698 0.0
H498 H 0.76273 0.663 0.88784 0.0
H499 H 0.7953 0.708 0.9377 0.0
H500 H 0.82496 0.71366 0.91866 0.0
H501 H 0.89678 0.71935 0.89863 0.0
H502 H 0.9174 0.71218 0.92232 0.0
H503 H 0.8698 0.65557 0.93435 0.0
H504 H 0.84928 0.66329 0.91187 0.0
H505 H 0.83946 0.69151 0.91556 0.0
H506 H 0.89172 0.72591 0.83643 0.0
H507 H 0.9151 0.72312 0.81182 0.0
H508 H 0.89442 0.66679 0.83911 0.0
H509 H 0.87074 0.66946 0.86307 0.0
C510 C 0.81842 0.69404 0.83933 0.0
C511 C 0.81084 0.6778 0.82505 0.0
C512 C 0.79884 0.6755 0.80633 0.0
C513 C 0.79441 0.68958 0.80112 0.0
C514 C 0.80141 0.70558 0.81604 0.0
C515 C 0.81339 0.7078 0.83508 0.0
C516 C 0.83288 0.69684 0.85706 0.0
C517 C 0.85022 0.69945 0.84829 0.0
C518 C 0.82905 0.69445 0.88171 0.0
C519 C 0.81093 0.69153 0.89228 0.0
C520 C 0.79315 0.6771 0.88402 0.0
C521 C 0.77626 0.67418 0.89454 0.0
C522 C 0.77684 0.68521 0.91403 0.0
C523 C 0.79456 0.69934 0.92267 0.0
C524 C 0.81145 0.70257 0.91179 0.0
C525 C 0.87153 0.69186 0.90362 0.0
C526 C 0.89081 0.70553 0.90678 0.0
C527 C 0.90259 0.70132 0.92014 0.0
C528 C 0.89535 0.68324 0.93027 0.0
C529 C 0.87587 0.66977 0.92736 0.0
C530 C 0.86408 0.67411 0.91438 0.0
C531 C 0.85931 0.69534 0.88766 0.0
C532 C 0.84251 0.69395 0.89674 0.0
C533 C 0.86333 0.69838 0.86315 0.0
C534 C 0.87962 0.69798 0.85177 0.0
C535 C 0.89252 0.71313 0.83747 0.0
C536 C 0.90592 0.71154 0.82349 0.0
C537 C 0.90652 0.69468 0.8234 0.0
C538 C 0.89416 0.67987 0.83859 0.0
C539 C 0.88078 0.68148 0.85255 0.0
H540 H 0.81095 0.67032 0.51486 0.0
H541 H 0.78828 0.67573 0.5368 0.0
H542 H 0.7416 0.6253 0.5056 0.0
H543 H 0.76463 0.6197 0.48384 0.0
H544 H 0.81669 0.64084 0.5181 0.0
H545 H 0.80244 0.67325 0.45698 0.0
H546 H 0.77959 0.67757 0.43395 0.0
H547 H 0.75508 0.62045 0.40695 0.0
H548 H 0.77804 0.61623 0.43025 0.0
H549 H 0.84363 0.62471 0.4285 0.0
H550 H 0.87377 0.63639 0.40657 0.0
H551 H 0.89934 0.6873 0.44929 0.0
H552 H 0.8693 0.67588 0.47053 0.0
H553 H 0.82239 0.64315 0.43044 0.0
H554 H 0.8538 0.62319 0.48883 0.0
H555 H 0.88058 0.62927 0.51469 0.0
H556 H 0.87671 0.67454 0.54894 0.0
H557 H 0.85052 0.66873 0.52311 0.0
C558 C 0.78947 0.64457 0.49784 0.0
C559 C 0.79583 0.6604 0.51272 0.0
C560 C 0.78284 0.6636 0.52503 0.0
C561 C 0.76314 0.65102 0.52278 0.0
C562 C 0.75671 0.63519 0.50771 0.0
C563 C 0.76981 0.63202 0.49524 0.0
C564 C 0.80379 0.64155 0.48532 0.0
C565 C 0.81786 0.64105 0.49891 0.0
C566 C 0.80511 0.6417 0.46034 0.0
C567 C 0.7918 0.64438 0.4454 0.0
C568 C 0.7922 0.66171 0.44599 0.0
C569 C 0.77923 0.66419 0.4327 0.0
C570 C 0.76555 0.64936 0.4186 0.0
C571 C 0.76537 0.63209 0.41778 0.0
C572 C 0.7785 0.62967 0.43096 0.0
C573 C 0.85434 0.64929 0.45137 0.0
C574 C 0.85583 0.63829 0.43323 0.0
C575 C 0.87303 0.64494 0.42081 0.0
C576 C 0.88886 0.6628 0.42616 0.0
C577 C 0.88734 0.67359 0.44459 0.0
C578 C 0.87024 0.66696 0.45695 0.0
C579 C 0.83589 0.64334 0.46331 0.0
C580 C 0.82087 0.64197 0.44958 0.0
C581 C 0.83421 0.64252 0.48834 0.0
C582 C 0.85012 0.6455 0.50402 0.0
C583 C 0.85879 0.63443 0.50191 0.0
C584 C 0.87399 0.63783 0.51674 0.0
C585 C 0.88084 0.65248 0.53369 0.0
C586 C 0.87197 0.66334 0.53582 0.0
C587 C 0.85684 0.6599 0.5212 0.0
H588 H 0.37821 0.21333 0.52051 0.0
H589 H 0.37123 0.23201 0.54863 0.0
H590 H 0.31749 0.2134 0.51373 0.0
H591 H 0.32407 0.1942 0.48659 0.0
H592 H 0.35717 0.17567 0.51902 0.0
H593 H 0.37525 0.22451 0.45792 0.0
H594 H 0.3701 0.24668 0.43477 0.0
H595 H 0.31515 0.20042 0.41283 0.0
H596 H 0.32082 0.17843 0.43511 0.0
H597 H 0.31755 0.1361 0.43678 0.0
H598 H 0.30572 0.10579 0.41712 0.0
H599 H 0.35291 0.10184 0.44501 0.0
H600 H 0.3654 0.13302 0.46377 0.0
H601 H 0.34677 0.16839 0.43226 0.0
H602 H 0.32048 0.12285 0.49397 0.0
H603 H 0.31455 0.0986 0.5231 0.0
H604 H 0.37179 0.1333 0.54978 0.0
H605 H 0.3779 0.15737 0.51983 0.0
C606 C 0.3518 0.20252 0.5012 0.0
C607 C 0.36512 0.21362 0.51863 0.0
C608 C 0.36115 0.22435 0.53462 0.0
C609 C 0.34373 0.22403 0.53352 0.0
C610 C 0.33094 0.21375 0.51522 0.0
C611 C 0.33484 0.20299 0.4994 0.0
C612 C 0.35405 0.18829 0.48729 0.0
C613 C 0.35559 0.17439 0.4999 0.0
C614 C 0.35119 0.18623 0.46249 0.0
C615 C 0.34846 0.19982 0.4482 0.0
C616 C 0.36217 0.2192 0.44798 0.0
C617 C 0.35912 0.23185 0.43482 0.0
C618 C 0.34217 0.22539 0.42185 0.0
C619 C 0.32854 0.20592 0.42211 0.0
C620 C 0.33171 0.1933 0.43498 0.0
C621 C 0.34237 0.1369 0.45184 0.0
C622 C 0.32557 0.12891 0.43844 0.0
C623 C 0.31864 0.11138 0.42745 0.0
C624 C 0.32819 0.10122 0.42976 0.0
C625 C 0.34524 0.10934 0.44281 0.0
C626 C 0.35231 0.12708 0.45371 0.0
C627 C 0.3488 0.15523 0.46419 0.0
C628 C 0.34919 0.17002 0.45124 0.0
C629 C 0.35236 0.15757 0.48889 0.0
C630 C 0.34973 0.14185 0.50446 0.0
C631 C 0.33198 0.12503 0.50555 0.0
C632 C 0.32853 0.11126 0.52244 0.0
C633 C 0.34265 0.11411 0.53891 0.0
C634 C 0.36068 0.13061 0.53722 0.0
C635 C 0.36416 0.14441 0.52021 0.0
H636 H 0.76909 0.13797 0.47436 0.0
H637 H 0.74583 0.11118 0.49854 0.0
H638 H 0.79213 0.11022 0.53427 0.0
H639 H 0.81505 0.13644 0.50988 0.0
H640 H 0.82204 0.17152 0.50777 0.0
H641 H 0.78412 0.15164 0.41693 0.0
H642 H 0.76285 0.12334 0.39357 0.0
H643 H 0.78311 0.09146 0.43175 0.0
H644 H 0.80444 0.11975 0.45466 0.0
H645 H 0.86104 0.17472 0.42666 0.0
H646 H 0.89162 0.19524 0.40747 0.0
H647 H 0.88848 0.24434 0.42924 0.0
H648 H 0.85707 0.2235 0.44675 0.0
H649 H 0.82522 0.16896 0.42008 0.0
H650 H 0.86433 0.17991 0.49801 0.0
H651 H 0.88968 0.20122 0.52472 0.0
H652 H 0.87426 0.24398 0.51342 0.0
H653 H 0.84793 0.22181 0.48824 0.0
C654 C 0.79377 0.1392 0.49041 0.0
C655 C 0.77414 0.13183 0.48728 0.0
C656 C 0.76091 0.11662 0.50114 0.0
C657 C 0.76717 0.10854 0.5182 0.0
C658 C 0.78683 0.1159 0.52102 0.0
C659 C 0.79997 0.13104 0.50729 0.0
C660 C 0.80813 0.15547 0.47634 0.0
C661 C 0.82247 0.17115 0.48854 0.0
C662 C 0.80893 0.15483 0.45133 0.0
C663 C 0.79562 0.13768 0.43771 0.0
C664 C 0.7839 0.13851 0.42025 0.0
C665 C 0.77174 0.12236 0.407 0.0
C666 C 0.77135 0.10521 0.4108 0.0
C667 C 0.78324 0.10451 0.42822 0.0
C668 C 0.79527 0.1206 0.44151 0.0
C669 C 0.85699 0.19762 0.43856 0.0
C670 C 0.86681 0.1899 0.42697 0.0
C671 C 0.88443 0.20168 0.41628 0.0
C672 C 0.89275 0.22149 0.41723 0.0
C673 C 0.88252 0.22917 0.42814 0.0
C674 C 0.86469 0.2173 0.43851 0.0
C675 C 0.83918 0.18487 0.45157 0.0
C676 C 0.82419 0.16981 0.43919 0.0
C677 C 0.83819 0.18561 0.47654 0.0
C678 C 0.85452 0.19944 0.49091 0.0
C679 C 0.86655 0.19394 0.50125 0.0
C680 C 0.88117 0.20626 0.51637 0.0
C681 C 0.88423 0.22449 0.52128 0.0
C682 C 0.87225 0.23002 0.51045 0.0
C683 C 0.85734 0.21748 0.49573 0.0
H684 H 0.95169 0.50227 0.1634 0.0
H685 H 0.95151 0.5267 0.13885 0.0
H686 H 0.00698 0.56792 0.16577 0.0
H687 H 0.00713 0.54334 0.19021 0.0
H688 H 0.97933 0.4912 0.1602 0.0
H689 H 0.95793 0.52155 0.21607 0.0
H690 H 0.96139 0.54872 0.2381 0.0
H691 H 0.00877 0.55182 0.27642 0.0
H692 H 0.00663 0.52618 0.25236 0.0
H693 H 0.01199 0.48218 0.24407 0.0
H694 H 0.01553 0.45765 0.26362 0.0
H695 H 0.96043 0.41502 0.23687 0.0
H696 H 0.95752 0.43964 0.21648 0.0
H697 H 0.98349 0.49191 0.24793 0.0
H698 H 0.01293 0.47284 0.19035 0.0
H699 H 0.01867 0.45188 0.16501 0.0
H700 H 0.96376 0.43121 0.13223 0.0
H701 H 0.95796 0.45203 0.15799 0.0
C702 C 0.97937 0.52105 0.17866 0.0
C703 C 0.96373 0.51661 0.16414 0.0
C704 C 0.96359 0.53059 0.15028 0.0
C705 C 0.97922 0.5492 0.15047 0.0
C706 C 0.9948 0.55366 0.16522 0.0
C707 C 0.99486 0.53969 0.17925 0.0
C708 C 0.97982 0.50591 0.19226 0.0
C709 C 0.97987 0.4912 0.17942 0.0
C710 C 0.98143 0.50644 0.21731 0.0
C711 C 0.98236 0.52207 0.23196 0.0
C712 C 0.96936 0.52837 0.22881 0.0
C713 C 0.97112 0.54374 0.24187 0.0
C714 C 0.98551 0.55276 0.25903 0.0
C715 C -0.00212 0.54575 0.26292 0.0
C716 C -0.00353 0.5308 0.24937 0.0
C717 C 0.98457 0.46266 0.22877 0.0
C718 C 0.00066 0.46754 0.24258 0.0
C719 C 0.00258 0.45348 0.25386 0.0
C720 C 0.98826 0.4343 0.25185 0.0
C721 C 0.9719 0.42957 0.23846 0.0
C722 C 0.97014 0.44362 0.22691 0.0
C723 C 0.98306 0.47745 0.21582 0.0
C724 C 0.98272 0.49195 0.22874 0.0
C725 C 0.982 0.47726 0.19086 0.0
C726 C 0.98492 0.46383 0.17622 0.0
C727 C 0.002 0.46358 0.17797 0.0
C728 C 0.00534 0.45174 0.16332 0.0
C729 C 0.99167 0.43993 0.14662 0.0
C730 C 0.97446 0.44001 0.14512 0.0
C731 C 0.97117 0.45196 0.1597 0.0
H732 H 0.50088 0.44376 0.17698 0.0
H733 H 0.47514 0.42604 0.1486 0.0
H734 H 0.44273 0.44889 0.18103 0.0
H735 H 0.46876 0.46721 0.20836 0.0
H736 H 0.51955 0.48288 0.17691 0.0
H737 H 0.48324 0.43355 0.24134 0.0
H738 H 0.45401 0.41543 0.26495 0.0
H739 H 0.4535 0.46714 0.27944 0.0
H740 H 0.483 0.48498 0.25724 0.0
H741 H 0.52678 0.52125 0.26512 0.0
H742 H 0.5491 0.5507 0.2845 0.0
H743 H 0.59586 0.55115 0.24694 0.0
H744 H 0.57337 0.52068 0.22859 0.0
H745 H 0.5183 0.48822 0.26436 0.0
H746 H 0.53832 0.53479 0.20773 0.0
H747 H 0.55546 0.5603 0.17935 0.0
H748 H 0.57495 0.52678 0.14252 0.0
H749 H 0.55817 0.50133 0.17166 0.0
C750 C 0.48666 0.4566 0.19506 0.0
C751 C 0.48803 0.44459 0.17828 0.0
C752 C 0.47327 0.43441 0.16215 0.0
C753 C 0.45695 0.43618 0.16246 0.0
C754 C 0.45521 0.4474 0.18014 0.0
C755 C 0.46998 0.45765 0.19609 0.0
C756 C 0.50363 0.47019 0.20887 0.0
C757 C 0.51967 0.4837 0.19613 0.0
C758 C 0.50305 0.47206 0.23375 0.0
C759 C 0.48538 0.46061 0.2478 0.0
C760 C 0.47683 0.44089 0.24985 0.0
C761 C 0.46003 0.43056 0.2632 0.0
C762 C 0.45136 0.43978 0.27441 0.0
C763 C 0.45994 0.45952 0.27181 0.0
C764 C 0.47681 0.4698 0.25894 0.0
C765 C 0.5483 0.51868 0.24524 0.0
C766 C 0.54186 0.52737 0.26137 0.0
C767 C 0.55465 0.54445 0.27219 0.0
C768 C 0.57425 0.55352 0.2669 0.0
C769 C 0.58086 0.54454 0.2514 0.0
C770 C 0.56799 0.5272 0.24074 0.0
C771 C 0.53413 0.50133 0.23236 0.0
C772 C 0.51876 0.48699 0.24523 0.0
C773 C 0.53436 0.49983 0.20733 0.0
C774 C 0.54716 0.51621 0.19207 0.0
C775 C 0.54678 0.53311 0.19407 0.0
C776 C 0.55642 0.54763 0.17764 0.0
C777 C 0.56641 0.54548 0.15858 0.0
C778 C 0.5675 0.5289 0.15713 0.0
C779 C 0.55785 0.51433 0.17368 0.0
H780 H 0.55768 0.0376 0.19851 0.0
H781 H 0.58233 0.03641 0.17453 0.0
H782 H 0.53906 -0.00226 0.12594 0.0
H783 H 0.51454 -0.0014 0.15022 0.0
H784 H 0.50744 0.02549 0.16195 0.0
H785 H 0.53983 0.02766 0.25401 0.0
H786 H 0.55787 0.01518 0.27383 0.0
H787 H 0.53783 0.97006 0.22204 0.0
H788 H 0.51963 0.9824 0.20259 0.0
H789 H 0.4625 0.98571 0.24215 0.0
H790 H 0.43437 0.98159 0.26321 0.0
H791 H 0.45153 0.03989 0.24844 0.0
H792 H 0.47932 0.04361 0.22658 0.0
H793 H 0.50046 0.00881 0.24728 0.0
H794 H 0.45242 0.99591 0.19221 0.0
H795 H 0.42872 -0.00284 0.16734 0.0
H796 H 0.47225 0.0508 0.13893 0.0
H797 H 0.49594 0.04991 0.16463 0.0
C798 C 0.53424 0.0181 0.17624 0.0
C799 C 0.55353 0.02883 0.18272 0.0
C800 C 0.5676 0.02823 0.16894 0.0
C801 C 0.56263 0.01687 0.14844 0.0
C802 C 0.54333 0.00638 0.14184 0.0
C803 C 0.52931 0.00702 0.15556 0.0
C804 C 0.51909 0.018 0.1912 0.0
C805 C 0.50606 0.02217 0.18071 0.0
C806 C 0.5169 0.01296 0.21543 0.0
C807 C 0.52855 0.00604 0.22675 0.0
C808 C 0.53943 0.01514 0.2469 0.0
C809 C 0.54979 0.00807 0.25809 0.0
C810 C 0.54923 0.99165 0.24946 0.0
C811 C 0.53839 0.98264 0.22919 0.0
C812 C 0.52813 0.98976 0.21796 0.0
C813 C 0.47291 0.01492 0.23269 0.0
C814 C 0.4603 -0.00235 0.24371 0.0
C815 C 0.44424 0.99536 0.25585 0.0
C816 C 0.44059 0.01039 0.25751 0.0
C817 C 0.45368 0.0279 0.24715 0.0
C818 C 0.46964 0.03011 0.23477 0.0
C819 C 0.48895 0.01663 0.21813 0.0
C820 C 0.50215 0.01277 0.22871 0.0
C821 C 0.49075 0.02113 0.19369 0.0
C822 C 0.47597 0.02296 0.18062 0.0
C823 C 0.4568 0.00832 0.18136 0.0
C824 C 0.44323 0.00901 0.16707 0.0
C825 C 0.44866 0.02412 0.15131 0.0
C826 C 0.46772 0.03901 0.15097 0.0
C827 C 0.48124 0.03847 0.16558 0.0
H828 H 0.45933 0.99539 0.8209 0.0
H829 H 0.4342 -0.00329 0.84314 0.0
H830 H 0.41562 0.94114 0.87178 0.0
H831 H 0.44023 0.93953 0.84849 0.0
H832 H 0.47804 0.96331 0.85482 0.0
H833 H 0.48158 0.00281 0.77244 0.0
H834 H 0.46095 0.00971 0.74871 0.0
H835 H 0.41402 0.95281 0.76099 0.0
H836 H 0.43465 0.94644 0.78575 0.0
H837 H 0.5078 0.95163 0.76739 0.0
H838 H 0.5379 0.96045 0.74707 0.0
H839 H 0.56731 0.00909 0.79325 0.0
H840 H 0.53715 0.0004 0.81317 0.0
H841 H 0.49195 0.97526 0.76887 0.0
H842 H 0.51532 0.94633 0.82623 0.0
H843 H 0.53896 0.94778 0.85428 0.0
H844 H 0.5365 0.99226 0.8929 0.0
H845 H 0.51291 0.99056 0.86522 0.0
C846 C 0.45151 0.96725 0.83279 0.0
C847 C 0.44948 0.98324 0.83136 0.0
C848 C 0.43525 0.98408 0.84436 0.0
C849 C 0.42299 0.96909 0.85937 0.0
C850 C 0.42466 0.95283 0.86017 0.0
C851 C 0.43882 0.95194 0.84702 0.0
C852 C 0.46798 0.96729 0.82136 0.0
C853 C 0.48092 0.96556 0.83594 0.0
C854 C 0.47199 0.9708 0.79687 0.0
C855 C 0.45961 0.97415 0.78093 0.0
C856 C 0.46687 0.99178 0.76983 0.0
C857 C 0.45503 0.99566 0.75613 0.0
C858 C 0.43571 0.98186 0.75287 0.0
C859 C 0.42868 0.96395 0.76345 0.0
C860 C 0.44048 0.9602 0.77748 0.0
C861 C 0.52033 0.9753 0.79183 0.0
C862 C 0.5208 0.96405 0.77329 0.0
C863 C 0.53798 0.96904 0.76181 0.0
C864 C 0.55489 0.98548 0.76857 0.0
C865 C 0.55444 -0.00357 0.78758 0.0
C866 C 0.53729 0.9914 0.79908 0.0
C867 C 0.50192 0.97111 0.80233 0.0
C868 C 0.48874 0.97229 0.7876 0.0
C869 C 0.49807 0.96784 0.82686 0.0
C870 C 0.51226 0.96827 0.84369 0.0
C871 C 0.51991 0.95637 0.84077 0.0
C872 C 0.53345 0.95725 0.85676 0.0
C873 C 0.53949 0.97 0.876 0.0
C874 C 0.53186 0.98195 0.87866 0.0
C875 C 0.51838 0.98104 0.86278 0.0
H876 H 0.04061 0.54617 0.85658 0.0
H877 H 0.03801 0.56984 0.88039 0.0
H878 H 0.98422 0.55365 0.84702 0.0
H879 H 0.98654 0.52954 0.82401 0.0
H880 H 0.01528 0.50822 0.86001 0.0
H881 H 0.03719 0.55503 0.79419 0.0
H882 H 0.03237 0.5764 0.76892 0.0
H883 H 0.97695 0.52982 0.74909 0.0
H884 H 0.98227 0.50855 0.77355 0.0
H885 H 0.98077 0.45128 0.81214 0.0
H886 H 0.97449 0.42247 0.79109 0.0
H887 H 0.02759 0.45444 0.75263 0.0
H888 H 0.03397 0.48314 0.77415 0.0
H889 H 0.00999 0.49881 0.77289 0.0
H890 H 0.98685 0.4749 0.86734 0.0
H891 H 0.9807 0.4492 0.89395 0.0
H892 H 0.0245 0.44287 0.85859 0.0
H893 H 0.03133 0.4695 0.83257 0.0
C894 C 0.01386 0.53617 0.83836 0.0
C895 C 0.0284 0.54793 0.85415 0.0
C896 C 0.02696 0.56156 0.86763 0.0
C897 C 0.01087 0.5636 0.86568 0.0
C898 C -0.0033 0.55231 0.84913 0.0
C899 C -0.00188 0.53865 0.83574 0.0
C900 C 0.0142 0.52009 0.82653 0.0
C901 C 0.01446 0.50629 0.84091 0.0
C902 C 0.0124 0.51725 0.80171 0.0
C903 C 0.01008 0.53023 0.78575 0.0
C904 C 0.02409 0.54946 0.78421 0.0
C905 C 0.02123 0.56166 0.76987 0.0
C906 C 0.00421 0.55489 0.75696 0.0
C907 C 0.99036 0.53552 0.75835 0.0
C908 C 0.99334 0.52333 0.77245 0.0
C909 C 0.00792 0.46928 0.79485 0.0
C910 C 0.9912 0.452 0.79946 0.0
C911 C 0.98755 0.43561 0.78727 0.0
C912 C 0.00052 0.43621 0.77014 0.0
C913 C 0.01744 0.45348 0.76589 0.0
C914 C 0.02105 0.46989 0.77806 0.0
C915 C 0.01115 0.48696 0.80638 0.0
C916 C 0.01144 0.50099 0.79193 0.0
C917 C 0.01233 0.48945 0.83129 0.0
C918 C 0.00947 0.47412 0.84779 0.0
C919 C -0.00467 0.46818 0.86543 0.0
C920 C 0.99164 0.45326 0.88047 0.0
C921 C 0.00188 0.44371 0.87818 0.0
C922 C 0.01637 0.44992 0.86086 0.0
C923 C 0.02017 0.46503 0.84584 0.0
H924 H 0.43945 0.49876 0.85455 0.0
H925 H 0.41743 0.47334 0.88106 0.0
H926 H 0.43463 0.43595 0.84981 0.0
H927 H 0.45701 0.46153 0.82399 0.0
H928 H 0.47752 0.51392 0.85552 0.0
H929 H 0.42808 0.48058 0.79876 0.0
H930 H 0.40501 0.45247 0.77719 0.0
H931 H 0.45126 0.45043 0.74155 0.0
H932 H 0.47406 0.47704 0.76512 0.0
H933 H 0.51874 0.51279 0.77618 0.0
H934 H 0.55003 0.53128 0.75785 0.0
H935 H 0.55297 0.58289 0.78207 0.0
H936 H 0.52101 0.5642 0.79948 0.0
H937 H 0.48589 0.51036 0.76887 0.0
H938 H 0.5314 0.53109 0.83291 0.0
H939 H 0.55659 0.55383 0.85892 0.0
H940 H 0.52037 0.57576 0.88071 0.0
H941 H 0.49556 0.55349 0.85381 0.0
C942 C 0.44975 0.48199 0.83719 0.0
C943 C 0.43825 0.48499 0.85321 0.0
C944 C 0.4256 0.47044 0.86823 0.0
C945 C 0.42439 0.45269 0.86757 0.0
C946 C 0.43541 0.44954 0.85089 0.0
C947 C 0.44806 0.46408 0.83595 0.0
C948 C 0.46495 0.49798 0.82355 0.0
C949 C 0.47911 0.51335 0.83645 0.0
C950 C 0.46716 0.49697 0.79873 0.0
C951 C 0.4529 0.48085 0.78403 0.0
C952 C 0.43325 0.47388 0.7866 0.0
C953 C 0.42002 0.45793 0.77385 0.0
C954 C 0.42614 0.4489 0.75764 0.0
C955 C 0.44586 0.45652 0.75431 0.0
C956 C 0.45903 0.47208 0.76754 0.0
C957 C 0.51755 0.53711 0.78925 0.0
C958 C 0.52599 0.52811 0.7773 0.0
C959 C 0.54402 0.53869 0.76712 0.0
C960 C 0.5541 0.55854 0.76878 0.0
C961 C 0.54552 0.56761 0.78041 0.0
C962 C 0.52733 0.55697 0.79049 0.0
C963 C 0.49887 0.52533 0.80112 0.0
C964 C 0.48397 0.51101 0.78784 0.0
C965 C 0.49627 0.52677 0.8257 0.0
C966 C 0.51173 0.54082 0.84111 0.0
C967 C 0.52902 0.54101 0.84299 0.0
C968 C 0.54332 0.55388 0.85809 0.0
C969 C 0.54052 0.56664 0.87193 0.0
C970 C 0.52314 0.56636 0.87004 0.0
C971 C 0.50888 0.55354 0.85482 0.0
H972 H 0.61385 0.84521 0.52014 0.0
H973 H 0.61839 0.87178 0.49581 0.0
H974 H 0.67885 0.89162 0.4914 0.0
H975 H 0.67422 0.86605 0.51744 0.0
H976 H 0.64083 0.82269 0.5033 0.0
H977 H 0.62089 0.85566 0.56197 0.0
H978 H 0.62905 0.88534 0.58182 0.0
H979 H 0.67897 0.88745 0.61154 0.0
H980 H 0.67176 0.85897 0.58963 0.0
H981 H 0.67048 0.818 0.59323 0.0
H982 H 0.67772 0.79676 0.61456 0.0
H983 H 0.63285 0.74902 0.57672 0.0
H984 H 0.62472 0.7703 0.55666 0.0
H985 H 0.64354 0.82409 0.5911 0.0
H986 H 0.67467 0.80587 0.53474 0.0
H987 H 0.68227 0.78659 0.50871 0.0
H988 H 0.62764 0.76433 0.47452 0.0
H989 H 0.61994 0.78334 0.50105 0.0
C990 C 0.64376 0.85399 0.5209 0.0
C991 C 0.6281 0.85561 0.5143 0.0
C992 C 0.63074 0.87069 0.50009 0.0
C993 C 0.64903 0.88401 0.49147 0.0
C994 C 0.66463 0.88208 0.49809 0.0
C995 C 0.66202 0.86733 0.51281 0.0
C996 C 0.64119 0.8377 0.53488 0.0
C997 C 0.64084 0.82262 0.52255 0.0
C998 C 0.64237 0.83837 0.55988 0.0
C999 C 0.64603 0.8554 0.57361 0.0
C1000 C 0.63384 0.86279 0.57226 0.0
C1001 C 0.63833 0.87959 0.58412 0.0
C1002 C 0.65485 0.88903 0.59815 0.0
C1003 C 0.66646 0.88097 0.60039 0.0
C1004 C 0.6622 0.86449 0.58809 0.0
C1005 C 0.64713 0.79579 0.57317 0.0
C1006 C 0.66193 0.80292 0.58982 0.0
C1007 C 0.66625 0.79076 0.6018 0.0
C1008 C 0.65605 0.77119 0.59716 0.0
C1009 C 0.64091 0.76399 0.58089 0.0
C1010 C 0.63639 0.77617 0.56917 0.0
C1011 C 0.64359 0.80914 0.55954 0.0
C1012 C 0.64275 0.82364 0.57189 0.0
C1013 C 0.64278 0.80873 0.53447 0.0
C1014 C 0.64663 0.79584 0.52002 0.0
C1015 C 0.66417 0.79654 0.52197 0.0
C1016 C 0.66858 0.78566 0.50693 0.0
C1017 C 0.65557 0.77397 0.48953 0.0
C1018 C 0.63786 0.77302 0.48794 0.0
C1019 C 0.63348 0.78394 0.50297 0.0
H1020 H 0.1667 0.77145 0.50227 0.0
H1021 H 0.14096 0.75627 0.47324 0.0
H1022 H 0.11232 0.78274 0.50666 0.0
H1023 H 0.13835 0.79839 0.53489 0.0
H1024 H 0.18893 0.81033 0.5054 0.0
H1025 H 0.14489 0.75948 0.55936 0.0
H1026 H 0.11327 0.74192 0.57805 0.0
H1027 H 0.12263 0.79361 0.61135 0.0
H1028 H 0.15348 0.8111 0.59186 0.0
H1029 H 0.19285 0.84546 0.59377 0.0
H1030 H 0.21394 0.87458 0.61453 0.0
H1031 H 0.26273 0.87578 0.58168 0.0
H1032 H 0.24137 0.84552 0.562 0.0
H1033 H 0.18476 0.8123 0.5929 0.0
H1034 H 0.21026 0.86164 0.5367 0.0
H1035 H 0.23065 0.88687 0.50926 0.0
H1036 H 0.24802 0.85017 0.47635 0.0
H1037 H 0.22805 0.8251 0.50458 0.0
C1038 C 0.15434 0.78585 0.52095 0.0
C1039 C 0.15469 0.77369 0.50355 0.0
C1040 C 0.13993 0.76496 0.48706 0.0
C1041 C 0.12464 0.76838 0.48758 0.0
C1042 C 0.124 0.77999 0.5056 0.0
C1043 C 0.13876 0.78875 0.52198 0.0
C1044 C 0.17123 0.79738 0.53606 0.0
C1045 C 0.18827 0.81043 0.52462 0.0
C1046 C 0.16992 0.79808 0.56105 0.0
C1047 C 0.15158 0.78666 0.57404 0.0
C1048 C 0.1401 0.76699 0.5707 0.0
C1049 C 0.12209 0.75695 0.58153 0.0
C1050 C 0.11533 0.76641 0.59597 0.0
C1051 C 0.1272 0.78594 0.59995 0.0
C1052 C 0.14502 0.79593 0.58905 0.0
C1053 C 0.21543 0.84323 0.57611 0.0
C1054 C 0.20809 0.85164 0.59137 0.0
C1055 C 0.2202 0.86855 0.60298 0.0
C1056 C 0.24002 0.87779 0.59933 0.0
C1057 C 0.24752 0.86904 0.58483 0.0
C1058 C 0.23532 0.85183 0.57341 0.0
C1059 C 0.20189 0.82625 0.5621 0.0
C1060 C 0.18574 0.81183 0.57374 0.0
C1061 C 0.2032 0.82544 0.5371 0.0
C1062 C 0.21783 0.84155 0.52293 0.0
C1063 C 0.21895 0.8592 0.52414 0.0
C1064 C 0.23044 0.87355 0.50823 0.0
C1065 C 0.2408 0.87045 0.49048 0.0
C1066 C 0.24035 0.85306 0.48995 0.0
C1067 C 0.22888 0.83869 0.50598 0.0
H1068 H 0.13063 0.33718 0.536 0.0
H1069 H 0.10636 0.33061 0.5066 0.0
H1070 H 0.14398 0.38416 0.47277 0.0
H1071 H 0.16821 0.39111 0.50306 0.0
H1072 H 0.18519 0.37086 0.5079 0.0
H1073 H 0.13775 0.3344 0.5891 0.0
H1074 H 0.1086 0.33055 0.60687 0.0
H1075 H 0.12326 0.38612 0.58167 0.0
H1076 H 0.15207 0.38948 0.56308 0.0
H1077 H 0.23026 0.38121 0.57622 0.0
H1078 H 0.24797 0.37 0.59935 0.0
H1079 H 0.19708 0.31462 0.60409 0.0
H1080 H 0.17946 0.32629 0.58236 0.0
H1081 H 0.17447 0.35769 0.59406 0.0
H1082 H 0.22465 0.39323 0.51352 0.0
H1083 H 0.24763 0.39061 0.48789 0.0
H1084 H 0.22437 0.33255 0.51013 0.0
H1085 H 0.20097 0.33504 0.53481 0.0
C1086 C 0.1512 0.36478 0.522 0.0
C1087 C 0.13347 0.3479 0.52288 0.0
C1088 C 0.11967 0.34402 0.50584 0.0
C1089 C 0.12338 0.35678 0.48727 0.0
C1090 C 0.14072 0.37413 0.487 0.0
C1091 C 0.15458 0.37806 0.5042 0.0
C1092 C 0.16678 0.367 0.53765 0.0
C1093 C 0.18324 0.36875 0.52691 0.0
C1094 C 0.16399 0.36374 0.56236 0.0
C1095 C 0.14706 0.3622 0.5747 0.0
C1096 C 0.13478 0.34584 0.58764 0.0
C1097 C 0.11812 0.34371 0.5979 0.0
C1098 C 0.11348 0.35802 0.59576 0.0
C1099 C 0.12615 0.37465 0.58334 0.0
C1100 C 0.1427 0.37666 0.57282 0.0
C1101 C 0.20356 0.3546 0.57783 0.0
C1102 C 0.22299 0.36672 0.58248 0.0
C1103 C 0.2331 0.36021 0.59553 0.0
C1104 C 0.22396 0.34139 0.60382 0.0
C1105 C 0.20452 0.32931 0.59867 0.0
C1106 C 0.19442 0.33591 0.58608 0.0
C1107 C 0.19248 0.36099 0.5641 0.0
C1108 C 0.17692 0.36082 0.57526 0.0
C1109 C 0.19598 0.36543 0.53972 0.0
C1110 C 0.21127 0.36444 0.52639 0.0
C1111 C 0.22468 0.38002 0.51307 0.0
C1112 C 0.23787 0.37852 0.49852 0.0
C1113 C 0.23784 0.36135 0.4969 0.0
C1114 C 0.22468 0.34592 0.51075 0.0
C1115 C 0.21145 0.34741 0.52518 0.0
H1116 H 0.02009 0.40159 0.07212 0.0
H1117 H 0.96347 0.35422 0.08473 0.0
H1118 H 0.95744 0.37289 0.11368 0.0
H1119 H 0.96789 0.40301 0.1346 0.0
H1120 H 0.02446 0.45034 0.12189 0.0
H1121 H 0.03091 0.43132 0.09398 0.0
C1122 C 0.00647 0.39532 0.08129 0.0
C1123 C 0.99224 0.37657 0.07618 0.0
C1124 C 0.00306 0.40614 0.09789 0.0
C1125 C 0.97468 0.36863 0.0883 0.0
C1126 C 0.97119 0.37931 0.10483 0.0
C1127 C 0.9816 0.40915 0.12565 0.0
C1128 C -0.00435 0.42806 0.13026 0.0
C1129 C 0.9852 0.39814 0.10959 0.0
C1130 C 0.01346 0.43576 0.11881 0.0
C1131 C 0.01713 0.42492 0.10276 0.0
H1132 H 0.58335 0.60286 0.07543 0.0
H1133 H 0.6366 0.6033 0.07302 0.0
H1134 H 0.62602 0.58115 0.10641 0.0
H1135 H 0.60108 0.56105 0.13584 0.0
H1136 H 0.54817 0.56135 0.13732 0.0
H1137 H 0.55926 0.58388 0.10479 0.0
C1138 C 0.59272 0.59816 0.08214 0.0
C1139 C 0.6107 0.60466 0.07159 0.0
C1140 C 0.58659 0.58554 0.10124 0.0
C1141 C 0.62268 0.59853 0.08078 0.0
C1142 C 0.61661 0.58582 0.09984 0.0
C1143 C 0.59203 0.56608 0.12899 0.0
C1144 C 0.57388 0.55962 0.13913 0.0
C1145 C 0.59851 0.57912 0.11012 0.0
C1146 C 0.56232 0.56632 0.13015 0.0
C1147 C 0.56859 0.57912 0.11143 0.0
H1148 H 0.37877 0.00503 0.08556 0.0
H1149 H 0.42055 0.01345 0.03221 0.0
H1150 H 0.44538 0.02454 0.06235 0.0
H1151 H 0.45432 0.0282 0.10412 0.0
H1152 H 0.41217 0.01678 0.15826 0.0
H1153 H 0.38834 0.01054 0.12778 0.0
C1154 C 0.39342 0.00972 0.08063 0.0
C1155 C 0.39799 0.0086 0.05684 0.0
C1156 C 0.40745 0.01529 0.09823 0.0
C1157 C 0.41685 0.01429 0.0505 0.0
C1158 C 0.43099 0.02055 0.0677 0.0
C1159 C 0.44003 0.02479 0.10922 0.0
C1160 C 0.43498 0.02302 0.13332 0.0
C1161 C 0.42634 0.0206 0.09167 0.0
C1162 C 0.41633 0.01818 0.13975 0.0
C1163 C 0.40273 0.0146 0.12235 0.0
H1164 H 0.36082 0.96319 0.93216 0.0
H1165 H 0.40463 0.02127 0.9449 0.0
H1166 H 0.42429 0.01911 0.9136 0.0
H1167 H 0.42995 0.00024 0.88455 0.0
H1168 H 0.38628 0.94225 0.87124 0.0
H1169 H 0.36569 0.94484 0.90102 0.0
C1170 C 0.37461 0.97541 0.92796 0.0
C1171 C 0.3813 0.99231 0.94096 0.0
C1172 C 0.38591 0.97406 0.90999 0.0
C1173 C 0.39916 0.00805 0.93524 0.0
C1174 C 0.41044 0.00684 0.91736 0.0
C1175 C 0.41577 0.98827 0.88776 0.0
C1176 C 0.40968 0.97107 0.87569 0.0
C1177 C 0.40406 0.98985 0.90485 0.0
C1178 C 0.39141 0.95559 0.88048 0.0
C1179 C 0.37961 0.95708 0.89744 0.0
H1180 H 0.96811 0.3756 0.95005 0.0
H1181 H 0.02759 0.39328 0.95737 0.0
H1182 H 0.03592 0.4171 0.92637 0.0
H1183 H 0.02635 0.4346 0.89955 0.0
H1184 H 0.96653 0.41566 0.89184 0.0
H1185 H 0.95835 0.39075 0.92075 0.0
C1186 C 0.9829 0.38457 0.94477 0.0
C1187 C -0.00278 0.38283 0.95619 0.0
C1188 C 0.98755 0.39816 0.92702 0.0
C1189 C 0.01628 0.39435 0.94886 0.0
C1190 C 0.02106 0.40803 0.93122 0.0
C1191 C 0.01151 0.42483 0.9039 0.0
C1192 C -0.00287 0.42732 0.89386 0.0
C1193 C 0.00683 0.41031 0.92049 0.0
C1194 C 0.97796 0.41448 0.89975 0.0
C1195 C 0.97323 0.40011 0.91619 0.0
H1196 H 0.59899 0.6307 0.941 0.0
H1197 H 0.61015 0.58615 0.95938 0.0
H1198 H 0.58688 0.5652 0.93025 0.0
H1199 H 0.56265 0.55913 0.90052 0.0
H1200 H 0.55183 0.60374 0.88135 0.0
H1201 H 0.57549 0.62495 0.91005 0.0
C1202 C 0.59638 0.61643 0.93857 0.0
C1203 C 0.60626 0.61 0.95242 0.0
C1204 C 0.58295 0.60441 0.92176 0.0
C1205 C 0.60273 0.59147 0.949 0.0
C1206 C 0.58941 0.57946 0.93235 0.0
C1207 C 0.56565 0.57358 0.90234 0.0
C1208 C 0.55542 0.57979 0.88878 0.0
C1209 C 0.57936 0.58574 0.91873 0.0
C1210 C 0.55927 0.59847 0.89176 0.0
C1211 C 0.57289 0.61066 0.90808 0.0
H1212 H 0.01269 0.62162 0.94193 0.0
H1213 H 0.95394 0.57699 0.94952 0.0
H1214 H 0.9578 0.55955 0.91699 0.0
H1215 H 0.97826 0.55562 0.88859 0.0
H1216 H 0.0372 0.59947 0.88084 0.0
H1217 H 0.03289 0.61846 0.91129 0.0
C1218 C 0.00068 0.6082 0.93624 0.0
C1219 C 0.9831 0.60059 0.94829 0.0
C1220 C 0.00306 0.59799 0.91765 0.0
C1221 C 0.9677 0.58313 0.94074 0.0
C1222 C 0.96987 0.57311 0.92211 0.0
C1223 C 0.99009 0.56951 0.89314 0.0
C1224 C 0.00801 0.57609 0.8824 0.0
C1225 C 0.98755 0.58022 0.91074 0.0
C1226 C 0.02328 0.59397 0.88898 0.0
C1227 C 0.02081 0.60486 0.90635 0.0
H1228 H 0.36819 0.39652 0.9452 0.0
H1229 H 0.41517 0.38678 0.95438 0.0
H1230 H 0.43254 0.40866 0.92212 0.0
H1231 H 0.43494 0.43143 0.8925 0.0
H1232 H 0.38822 0.44148 0.88318 0.0
H1233 H 0.3702 0.41865 0.91451 0.0
C1234 C 0.3822 0.39913 0.94007 0.0
C1235 C 0.39041 0.3901 0.95222 0.0
C1236 C 0.39216 0.41181 0.92159 0.0
C1237 C 0.40856 0.3936 0.94537 0.0
C1238 C 0.41851 0.40611 0.92692 0.0
C1239 C 0.42068 0.4284 0.89703 0.0
C1240 C 0.41289 0.43806 0.88549 0.0
C1241 C 0.4105 0.41537 0.91505 0.0
C1242 C 0.39457 0.43429 0.89194 0.0
C1243 C 0.38426 0.42122 0.90978 0.0
H1244 H 0.61029 0.9824 0.93662 0.0
H1245 H 0.57724 0.98968 0.99144 0.0
H1246 H 0.55118 0.98088 0.96384 0.0
H1247 H 0.53875 0.97366 0.9237 0.0
H1248 H 0.57217 0.96867 0.86742 0.0
H1249 H 0.59684 0.97358 0.89594 0.0
C1250 C 0.59723 0.98172 0.94249 0.0
C1251 C 0.59567 0.98673 0.96596 0.0
C1252 C 0.58241 0.97719 0.92623 0.0
C1253 C 0.57879 0.986 0.97339 0.0
C1254 C 0.56389 0.98099 0.95763 0.0
C1255 C 0.55145 0.9737 0.9176 0.0
C1256 C 0.5537 0.97107 0.89339 0.0
C1257 C 0.56574 0.97703 0.93391 0.0
C1258 C 0.57002 0.97062 0.88596 0.0
C1259 C 0.58421 0.97355 0.90225 0.0
H1260 H 0.62999 0.02607 0.08232 0.0
H1261 H 0.59232 0.9656 0.07628 0.0
H1262 H 0.57028 0.96699 0.10461 0.0
H1263 H 0.56077 0.98547 0.12939 0.0
H1264 H 0.59769 0.04604 0.13483 0.0
H1265 H 0.62106 0.04448 0.10879 0.0
C1266 C 0.61707 0.01318 0.08743 0.0
C1267 C 0.61277 0.99577 0.07708 0.0
C1268 C 0.60427 0.0141 0.10356 0.0
C1269 C 0.59594 0.9792 0.08385 0.0
C1270 C 0.58329 0.97997 0.10004 0.0
C1271 C 0.57391 -0.00165 0.12482 0.0
C1272 C 0.57739 0.01586 0.13385 0.0
C1273 C 0.58714 -0.00263 0.10966 0.0
C1274 C 0.59468 0.03236 0.1282 0.0
C1275 C 0.60801 0.03149 0.11321 0.0
H1276 H 0.96647 0.60186 0.0811 0.0
H1277 H 0.02359 0.61715 0.05974 0.0
H1278 H 0.0244 0.59669 0.09039 0.0
H1279 H 0.0083 0.57319 0.12181 0.0
H1280 H 0.9509 0.5571 0.14253 0.0
H1281 H 0.95075 0.57912 0.11355 0.0
C1282 C 0.97915 0.60082 0.08328 0.0
C1283 C 0.99492 0.61096 0.06812 0.0
C1284 C 0.97943 0.58882 0.10074 0.0
C1285 C 0.01122 0.60942 0.07111 0.0
C1286 C 0.0117 0.59773 0.08863 0.0
C1287 C -0.00412 0.57474 0.12023 0.0
C1288 C 0.97964 0.56358 0.13426 0.0
C1289 C -0.00418 0.58721 0.10336 0.0
C1290 C 0.96351 0.56547 0.13177 0.0
C1291 C 0.96344 0.57806 0.11525 0.0
H1292 H 0.4007 0.41673 0.07696 0.0
H1293 H 0.40144 0.36441 0.07828 0.0
H1294 H 0.42275 0.37586 0.11251 0.0
H1295 H 0.44171 0.40117 0.14162 0.0
H1296 H 0.4408 0.45339 0.13912 0.0
H1297 H 0.4188 0.44137 0.10599 0.0
C1298 C 0.40548 0.40776 0.08467 0.0
C1299 C 0.39954 0.38978 0.07494 0.0
C1300 C 0.41764 0.41439 0.10426 0.0
C1301 C 0.4058 0.37834 0.08537 0.0
C1302 C 0.418 0.38488 0.10494 0.0
C1303 C 0.43668 0.40989 0.13379 0.0
C1304 C 0.4428 0.4281 0.143 0.0
C1305 C 0.42411 0.40295 0.11445 0.0
C1306 C 0.43605 0.43918 0.13275 0.0
C1307 C 0.42359 0.43239 0.11363 0.0
H1308 H 0.68864 0.74343 0.41047 0.0
H1309 H 0.63261 0.69393 0.41779 0.0
H1310 H 0.62492 0.70945 0.4495 0.0
H1311 H 0.6336 0.73761 0.47398 0.0
H1312 H 0.68946 0.78722 0.46615 0.0
H1313 H 0.69778 0.77104 0.43607 0.0
C1314 C 0.67479 0.73599 0.4191 0.0
C1315 C 0.66119 0.71761 0.41166 0.0
C1316 C 0.67041 0.74502 0.43724 0.0
C1317 C 0.64334 0.70812 0.42313 0.0
C1318 C 0.6389 0.71699 0.44123 0.0
C1319 C 0.64758 0.74487 0.46566 0.0
C1320 C 0.66086 0.7636 0.47227 0.0
C1321 C 0.65223 0.73553 0.44821 0.0
C1322 C 0.67903 0.77273 0.46159 0.0
C1323 C 0.68377 0.76354 0.44426 0.0
H1324 H 0.28845 0.92524 0.40604 0.0
H1325 H 0.23817 0.93035 0.40346 0.0
H1326 H 0.22478 0.90955 0.43744 0.0
H1327 H 0.22651 0.88901 0.46695 0.0
H1328 H 0.27606 0.8829 0.47016 0.0
H1329 H 0.29047 0.90484 0.43679 0.0
C1330 C 0.27462 0.92186 0.413 0.0
C1331 C 0.26435 0.92934 0.40208 0.0
C1332 C 0.2668 0.90965 0.43261 0.0
C1333 C 0.24639 0.92475 0.41133 0.0
C1334 C 0.23868 0.91285 0.43083 0.0
C1335 C 0.24062 0.89272 0.46066 0.0
C1336 C 0.25027 0.88448 0.47117 0.0
C1337 C 0.24868 0.90514 0.44149 0.0
C1338 C 0.26832 0.88904 0.46233 0.0
C1339 C 0.27656 0.9016 0.44329 0.0
H1340 H 0.06838 0.31918 0.40078 0.0
H1341 H 0.06998 0.37266 0.40066 0.0
H1342 H 0.09134 0.38321 0.43491 0.0
H1343 H 0.10988 0.37714 0.46473 0.0
H1344 H 0.10739 0.32322 0.46405 0.0
H1345 H 0.08598 0.31295 0.4303 0.0
C1346 C 0.07339 0.33318 0.40815 0.0
C1347 C 0.06767 0.34514 0.39806 0.0
C1348 C 0.08548 0.33906 0.42777 0.0
C1349 C 0.07417 0.36316 0.40808 0.0
C1350 C 0.0864 0.36921 0.42763 0.0
C1351 C 0.10462 0.36317 0.45712 0.0
C1352 C 0.11008 0.3509 0.46699 0.0
C1353 C 0.09222 0.35728 0.43759 0.0
C1354 C 0.10314 0.3328 0.45705 0.0
C1355 C 0.09099 0.32694 0.43765 0.0
H1356 H 0.03608 0.30453 0.27007 0.0
H1357 H 0.08219 0.3623 0.27782 0.0
H1358 H 0.10032 0.35719 0.24692 0.0
H1359 H 0.10367 0.33597 0.21918 0.0
H1360 H 0.0578 0.27816 0.21139 0.0
H1361 H 0.03897 0.28358 0.2411 0.0
C1362 C 0.05005 0.31603 0.26491 0.0
C1363 C 0.05782 0.33375 0.27627 0.0
C1364 C 0.06045 0.31296 0.24727 0.0
C1365 C 0.07592 0.34851 0.26939 0.0
C1366 C 0.0863 0.3456 0.25175 0.0
C1367 C 0.08941 0.32464 0.22367 0.0
C1368 C 0.0821 0.30671 0.21305 0.0
C1369 C 0.07876 0.32785 0.24074 0.0
C1370 C 0.06378 0.29205 0.21945 0.0
C1371 C 0.05301 0.29516 0.23636 0.0
H1372 H 0.69546 0.73682 0.28165 0.0
H1373 H 0.64173 0.73415 0.29482 0.0
H1374 H 0.64773 0.75548 0.26202 0.0
H1375 H 0.66813 0.77534 0.22997 0.0
H1376 H 0.72214 0.77908 0.21625 0.0
H1377 H 0.71619 0.75707 0.24888 0.0
C1378 C 0.68508 0.7409 0.27731 0.0
C1379 C 0.66817 0.73383 0.29082 0.0
C1380 C 0.68864 0.75341 0.25831 0.0
C1381 C 0.65491 0.73935 0.28491 0.0
C1382 C 0.65828 0.75157 0.26607 0.0
C1383 C 0.67851 0.77115 0.23388 0.0
C1384 C 0.69545 0.77868 0.22056 0.0
C1385 C 0.67506 0.75868 0.25268 0.0
C1386 C 0.70897 0.77348 0.22628 0.0
C1387 C 0.70556 0.76087 0.2449 0.0
H1388 H 0.26042 0.9582 0.27026 0.0
H1389 H 0.26905 0.91142 0.28489 0.0
H1390 H 0.2471 0.89297 0.25321 0.0
H1391 H 0.22465 0.88963 0.22232 0.0
H1392 H 0.2159 0.93625 0.20731 0.0
H1393 H 0.23857 0.95518 0.23832 0.0
C1394 C 0.25755 0.944 0.26644 0.0
C1395 C 0.26633 0.9362 0.27998 0.0
C1396 C 0.24483 0.9334 0.24822 0.0
C1397 C 0.26246 0.91777 0.2748 0.0
C1398 C 0.2499 0.90718 0.25668 0.0
C1399 C 0.22791 0.90404 0.22556 0.0
C1400 C 0.2186 0.91151 0.21248 0.0
C1401 C 0.24092 0.91481 0.24338 0.0
C1402 C 0.22272 0.93008 0.21728 0.0
C1403 C 0.23574 0.94094 0.23494 0.0
H1404 H 0.68991 0.95355 0.28078 0.0
H1405 H 0.63431 0.90291 0.2851 0.0
H1406 H 0.64286 0.88848 0.25333 0.0
H1407 H 0.66588 0.88968 0.22467 0.0
H1408 H 0.72173 0.93954 0.21956 0.0
H1409 H 0.7134 0.9547 0.2514 0.0
C1410 C 0.67968 0.93939 0.27472 0.0
C1411 C 0.66149 0.92939 0.28543 0.0
C1412 C 0.68471 0.93096 0.25633 0.0
C1413 C 0.64844 0.91099 0.27736 0.0
C1414 C 0.65328 0.90266 0.25911 0.0
C1415 C 0.67618 0.90398 0.23027 0.0
C1416 C 0.6943 0.91356 0.21957 0.0
C1417 C 0.67133 0.91248 0.2485 0.0
C1418 C 0.70766 0.93187 0.22753 0.0
C1419 C 0.70288 0.94054 0.24568 0.0
H1420 H 0.0322 0.73338 0.27134 0.0
H1421 H 0.07866 0.72266 0.27911 0.0
H1422 H 0.09568 0.74406 0.24637 0.0
H1423 H 0.09796 0.76658 0.21655 0.0
H1424 H 0.05192 0.7778 0.20848 0.0
H1425 H 0.03419 0.75554 0.2405 0.0
C1426 C 0.04601 0.73567 0.26579 0.0
C1427 C 0.05416 0.72647 0.27769 0.0
C1428 C 0.05582 0.74812 0.24699 0.0
C1429 C 0.07208 0.7296 0.27031 0.0
C1430 C 0.08183 0.74184 0.25158 0.0
C1431 C 0.0839 0.76393 0.22151 0.0
C1432 C 0.07621 0.77373 0.21006 0.0
C1433 C 0.07389 0.75124 0.23991 0.0
C1434 C 0.05818 0.77049 0.21711 0.0
C1435 C 0.04804 0.75774 0.23536 0.0
H1436 H 0.28034 0.32026 0.2729 0.0
H1437 H 0.24876 0.33297 0.32418 0.0
H1438 H 0.22336 0.32447 0.29559 0.0
H1439 H 0.21093 0.31525 0.25572 0.0
H1440 H 0.24329 0.30532 0.20249 0.0
H1441 H 0.26728 0.31041 0.23214 0.0
C1442 C 0.26776 0.3209 0.27777 0.0
C1443 C 0.26637 0.32723 0.30054 0.0
C1444 C 0.25339 0.31656 0.26089 0.0
C1445 C 0.25014 0.32824 0.30668 0.0
C1446 C 0.23562 0.32338 0.29036 0.0
C1447 C 0.2233 0.31437 0.25044 0.0
C1448 C 0.22537 0.31017 0.22676 0.0
C1449 C 0.23727 0.31791 0.26731 0.0
C1450 C 0.24124 0.30846 0.22058 0.0
C1451 C 0.25505 0.31151 0.23751 0.0
H1452 H 0.30034 0.36518 0.42559 0.0
H1453 H 0.25366 0.30952 0.40788 0.0
H1454 H 0.23374 0.3125 0.43804 0.0
H1455 H 0.22903 0.33121 0.46832 0.0
H1456 H 0.27544 0.38675 0.48677 0.0
H1457 H 0.29589 0.38359 0.45728 0.0
C1458 C 0.28585 0.35368 0.42843 0.0
C1459 C 0.27852 0.33718 0.41442 0.0
C1460 C 0.27435 0.35549 0.44583 0.0
C1461 C 0.25969 0.3224 0.41834 0.0
C1462 C 0.24825 0.32408 0.43559 0.0
C1463 C 0.24371 0.34252 0.46622 0.0
C1464 C 0.25067 0.35918 0.47982 0.0
C1465 C 0.25537 0.34059 0.44932 0.0
C1466 C 0.26963 0.37385 0.47639 0.0
C1467 C 0.28137 0.37201 0.4596 0.0
H1468 H 0.67627 0.95297 0.42121 0.0
H1469 H 0.61937 0.91739 0.39442 0.0
H1470 H 0.61289 0.89396 0.42528 0.0
H1471 H 0.62429 0.88277 0.45783 0.0
H1472 H 0.68009 0.91999 0.48738 0.0
H1473 H 0.68618 0.94349 0.45718 0.0
C1474 C 0.66242 0.94014 0.42232 0.0
C1475 C 0.64838 0.93673 0.40555 0.0
C1476 C 0.65868 0.92697 0.44036 0.0
C1477 C 0.63038 0.92025 0.40723 0.0
C1478 C 0.62671 0.90685 0.42478 0.0
C1479 C 0.63763 0.89616 0.45819 0.0
C1480 C 0.65182 0.89928 0.47476 0.0
C1481 C 0.64086 0.90995 0.44123 0.0
C1482 C 0.66908 0.91678 0.47446 0.0
C1483 C 0.67256 0.93037 0.4573 0.0
H1484 H 0.06783 0.75234 0.40344 0.0
H1485 H 0.06444 0.69801 0.40468 0.0
H1486 H 0.08631 0.70841 0.43828 0.0
H1487 H 0.10693 0.73327 0.46687 0.0
H1488 H 0.11031 0.78758 0.46471 0.0
H1489 H 0.08772 0.77671 0.43212 0.0
C1490 C 0.07182 0.74272 0.41102 0.0
C1491 C 0.06454 0.72444 0.40143 0.0
C1492 C 0.08436 0.74876 0.43028 0.0
C1493 C 0.06983 0.71217 0.41166 0.0
C1494 C 0.08235 0.71811 0.43087 0.0
C1495 C 0.10273 0.74272 0.45922 0.0
C1496 C 0.11025 0.76118 0.46834 0.0
C1497 C 0.08981 0.73643 0.44024 0.0
C1498 C 0.10452 0.77319 0.45836 0.0
C1499 C 0.09171 0.76705 0.43957 0.0
H1500 H 0.34936 0.06647 0.74682 0.0
H1501 H 0.29136 0.01983 0.75075 0.0
H1502 H 0.28448 0.03587 0.78263 0.0
H1503 H 0.29465 0.06363 0.80852 0.0
H1504 H 0.35255 0.11042 0.80389 0.0
H1505 H 0.3598 0.09369 0.77345 0.0
C1506 C 0.33526 0.05979 0.75469 0.0
C1507 C 0.3209 0.04206 0.74632 0.0
C1508 C 0.33136 0.06908 0.77297 0.0
C1509 C 0.30268 0.03352 0.75683 0.0
C1510 C 0.2987 0.04267 0.77505 0.0
C1511 C 0.30884 0.07015 0.80082 0.0
C1512 C 0.32302 0.08824 0.8085 0.0
C1513 C 0.31289 0.06055 0.7831 0.0
C1514 C 0.34143 0.09641 0.79857 0.0
C1515 C 0.34557 0.08692 0.78101 0.0
H1516 H 0.90798 0.26236 0.73022 0.0
H1517 H 0.9622 0.26479 0.72728 0.0
H1518 H 0.95248 0.24271 0.76063 0.0
H1519 H 0.92827 0.22256 0.79069 0.0
H1520 H 0.87453 0.22116 0.7932 0.0
H1521 H 0.88445 0.24309 0.76006 0.0
C1522 C 0.91771 0.25805 0.73676 0.0
C1523 C 0.93576 0.26515 0.72614 0.0
C1524 C 0.91213 0.24559 0.756 0.0
C1525 C 0.94821 0.25954 0.7351 0.0
C1526 C 0.94265 0.2469 0.75417 0.0
C1527 C 0.91879 0.22709 0.78393 0.0
C1528 C 0.90076 0.22037 0.79454 0.0
C1529 C 0.92461 0.23981 0.76476 0.0
C1530 C 0.88861 0.22639 0.78566 0.0
C1531 C 0.89421 0.23882 0.76659 0.0
H1532 H 0.7482 0.66593 0.70605 0.0
H1533 H 0.71587 0.68674 0.743 0.0
H1534 H 0.73832 0.6971 0.77619 0.0
H1535 H 0.76549 0.6973 0.79611 0.0
H1536 H 0.79811 0.67745 0.75754 0.0
H1537 H 0.7772 0.66968 0.72359 0.0
C1538 C 0.74618 0.67291 0.72128 0.0
C1539 C 0.73032 0.67535 0.7223 0.0
C1540 C 0.75909 0.67882 0.74009 0.0
C1541 C 0.72801 0.6847 0.74189 0.0
C1542 C 0.74077 0.69052 0.76089 0.0
C1543 C 0.76819 0.69159 0.78012 0.0
C1544 C 0.78303 0.68748 0.77964 0.0
C1545 C 0.75614 0.68725 0.76042 0.0
C1546 C 0.78642 0.68019 0.7587 0.0
C1547 C 0.77454 0.67583 0.73919 0.0
H1548 H 0.72256 0.68006 0.59195 0.0
H1549 H 0.69029 0.62066 0.60945 0.0
H1550 H 0.70654 0.61362 0.57778 0.0
H1551 H 0.73226 0.62493 0.54787 0.0
H1552 H 0.76401 0.68436 0.53024 0.0
H1553 H 0.74553 0.6908 0.55914 0.0
C1554 C 0.71897 0.66556 0.58869 0.0
C1555 C 0.70548 0.65094 0.60317 0.0
C1556 C 0.72834 0.66164 0.57052 0.0
C1557 C 0.70071 0.63217 0.59855 0.0
C1558 C 0.71003 0.62815 0.58051 0.0
C1559 C 0.73481 0.63921 0.54997 0.0
C1560 C 0.74968 0.65419 0.53722 0.0
C1561 C 0.72418 0.64284 0.56673 0.0
C1562 C 0.7529 0.67264 0.5402 0.0
C1563 C 0.74233 0.67634 0.55669 0.0
H1564 H 0.30939 0.0591 0.62621 0.0
H1565 H 0.36228 0.05915 0.61901 0.0
H1566 H 0.37135 0.0809 0.58527 0.0
H1567 H 0.36389 0.09981 0.55762 0.0
H1568 H 0.31061 0.09887 0.56599 0.0
H1569 H 0.30204 0.07741 0.59938 0.0
C1570 C 0.32297 0.06383 0.6174 0.0
C1571 C 0.33515 0.05749 0.62526 0.0
C1572 C 0.32797 0.07612 0.59807 0.0
C1573 C 0.35262 0.0638 0.61338 0.0
C1574 C 0.3578 0.07623 0.59408 0.0
C1575 C 0.35044 0.09491 0.56683 0.0
C1576 C 0.33782 0.10079 0.55909 0.0
C1577 C 0.34555 0.08249 0.58624 0.0
C1578 C 0.32042 0.09428 0.57118 0.0
C1579 C 0.31555 0.0821 0.59042 0.0
H1580 H 0.95255 0.26881 0.593 0.0
H1581 H 0.9179 0.29251 0.61418 0.0
H1582 H 0.89459 0.2739 0.58367 0.0
H1583 H 0.88332 0.24977 0.5525 0.0
H1584 H 0.91932 0.22813 0.52876 0.0
H1585 H 0.94264 0.24683 0.55901 0.0
C1586 C 0.93992 0.26992 0.59083 0.0
C1587 C 0.93685 0.28187 0.6059 0.0
C1588 C 0.92674 0.25944 0.57296 0.0
C1589 C 0.92058 0.28341 0.60275 0.0
C1590 C 0.90722 0.27274 0.58537 0.0
C1591 C 0.89641 0.24938 0.55347 0.0
C1592 C 0.89929 0.23725 0.53839 0.0
C1593 C 0.91007 0.26059 0.57051 0.0
C1594 C 0.91634 0.23687 0.54043 0.0
C1595 C 0.92982 0.2477 0.55765 0.0
H1596 H 0.30668 0.24626 0.6168 0.0
H1597 H 0.36233 0.29682 0.61702 0.0
H1598 H 0.37222 0.2844 0.58369 0.0
H1599 H 0.36511 0.2587 0.5549 0.0
H1600 H 0.30929 0.20834 0.55565 0.0
H1601 H 0.29943 0.22128 0.58802 0.0
C1602 C 0.321 0.25463 0.60961 0.0
C1603 C 0.33376 0.27241 0.61952 0.0
C1604 C 0.32655 0.24745 0.59051 0.0
C1605 C 0.35219 0.28308 0.60976 0.0
C1606 C 0.35787 0.27597 0.59072 0.0
C1607 C 0.35081 0.2506 0.56219 0.0
C1608 C 0.33793 0.23264 0.5527 0.0
C1609 C 0.3452 0.2581 0.58103 0.0
C1610 C 0.31939 0.22234 0.56226 0.0
C1611 C 0.31376 0.22966 0.58092 0.0
H1612 H 0.72459 0.04391 0.59334 0.0
H1613 H 0.69269 0.07244 0.60315 0.0
H1614 H 0.70996 0.0936 0.5701 0.0
H1615 H 0.73621 0.10578 0.54092 0.0
H1616 H 0.76768 0.07678 0.53103 0.0
H1617 H 0.74842 0.05396 0.5616 0.0
C1618 C 0.72133 0.05468 0.58813 0.0
C1619 C 0.70761 0.0568 0.60082 0.0
C1620 C 0.73129 0.06675 0.56919 0.0
C1621 C 0.70328 0.0706 0.59368 0.0
C1622 C 0.71318 0.08272 0.57483 0.0
C1623 C 0.73856 0.09421 0.54509 0.0
C1624 C 0.75352 0.09313 0.53398 0.0
C1625 C 0.72748 0.08117 0.56278 0.0
C1626 C 0.75648 0.07813 0.53968 0.0
C1627 C 0.74547 0.06506 0.55711 0.0
H1628 H 0.94891 0.68631 0.60544 0.0
H1629 H 0.92591 0.62727 0.62174 0.0
H1630 H 0.90291 0.61835 0.58931 0.0
H1631 H 0.88736 0.62779 0.55889 0.0
H1632 H 0.91125 0.68714 0.54327 0.0
H1633 H 0.93593 0.69548 0.57283 0.0
C1634 C 0.93897 0.67146 0.60179 0.0
C1635 C 0.9389 0.65748 0.61617 0.0
C1636 C 0.92586 0.66652 0.58334 0.0
C1637 C 0.9262 0.6383 0.61094 0.0
C1638 C 0.913 0.63322 0.59248 0.0
C1639 C 0.8982 0.6425 0.56169 0.0
C1640 C 0.89725 0.65686 0.54922 0.0
C1641 C 0.9124 0.64725 0.57891 0.0
C1642 C 0.9114 0.67586 0.553 0.0
C1643 C 0.92556 0.68065 0.56986 0.0
H1644 H 0.96574 0.69657 0.74841 0.0
H1645 H 0.91838 0.64048 0.73414 0.0
H1646 H 0.89987 0.64418 0.7657 0.0
H1647 H 0.89662 0.66362 0.79633 0.0
H1648 H 0.94365 0.71974 0.81093 0.0
H1649 H 0.96277 0.71578 0.78018 0.0
C1650 C 0.9514 0.68514 0.75226 0.0
C1651 C 0.94345 0.6683 0.73886 0.0
C1652 C 0.94075 0.68737 0.77045 0.0
C1653 C 0.92484 0.65362 0.7441 0.0
C1654 C 0.91423 0.65571 0.76217 0.0
C1655 C 0.91118 0.67488 0.7931 0.0
C1656 C 0.91873 0.69192 0.806 0.0
C1657 C 0.922 0.67254 0.77536 0.0
C1658 C 0.93747 0.70652 0.80116 0.0
C1659 C 0.94841 0.70425 0.78361 0.0
H1660 H 0.34892 0.27479 0.7408 0.0
H1661 H 0.29183 0.26522 0.74773 0.0
H1662 H 0.28487 0.24205 0.77905 0.0
H1663 H 0.29488 0.22398 0.80389 0.0
H1664 H 0.35198 0.23366 0.79639 0.0
H1665 H 0.35909 0.25743 0.76603 0.0
C1666 C 0.33496 0.26769 0.74919 0.0
C1667 C 0.32089 0.27167 0.74187 0.0
C1668 C 0.33107 0.2544 0.76712 0.0
C1669 C 0.30291 0.26241 0.75303 0.0
C1670 C 0.29891 0.24913 0.77091 0.0
C1671 C 0.30885 0.23127 0.79554 0.0
C1672 C 0.32289 0.22709 0.80244 0.0
C1673 C 0.31284 0.24491 0.77797 0.0
C1674 C 0.341 0.2368 0.79165 0.0
C1675 C 0.34506 0.25031 0.77418 0.0
H1676 H 0.72987 0.08785 0.72834 0.0
H1677 H 0.72773 0.03413 0.72528 0.0
H1678 H 0.74926 0.04343 0.75919 0.0
H1679 H 0.76875 0.067 0.78978 0.0
H1680 H 0.77021 0.12041 0.79245 0.0
H1681 H 0.74869 0.11091 0.75881 0.0
C1682 C 0.73415 0.07816 0.73498 0.0
C1683 C 0.72728 0.06036 0.72418 0.0
C1684 C 0.7463 0.08349 0.75457 0.0
C1685 C 0.73283 0.04794 0.73324 0.0
C1686 C 0.74513 0.05324 0.75264 0.0
C1687 C 0.76433 0.07653 0.78295 0.0
C1688 C 0.77096 0.09432 0.79373 0.0
C1689 C 0.75195 0.071 0.76346 0.0
C1690 C 0.76504 0.10649 0.78479 0.0
C1691 C 0.75286 0.10115 0.76541 0.0
H1692 H 0.02483 0.31245 0.06643 0.0
H1693 H 0.0625 0.34674 0.01005 0.0
H1694 H 0.08668 0.33951 0.02335 0.0
H1695 H 0.09736 0.32411 0.0517 0.0
H1696 H 0.06013 0.29174 0.1096 0.0
H1697 H 0.03542 0.29721 0.09458 0.0
C1698 C 0.03828 0.31827 0.05692 0.0
C1699 C 0.04185 0.33012 0.03727 0.0
C1700 C 0.05219 0.31431 0.06487 0.0
C1701 C 0.0594 0.33761 0.02527 0.0
C1702 C 0.07323 0.33348 0.03286 0.0
C1703 C 0.0839 0.31833 0.06115 0.0
C1704 C 0.08071 0.30741 0.08175 0.0
C1705 C 0.06984 0.32199 0.0528 0.0
C1706 C 0.06298 0.29983 0.09345 0.0
C1707 C 0.04884 0.30311 0.08501 0.0
H1708 H 0.67297 0.70864 0.03706 0.0
H1709 H 0.61453 0.69386 0.04927 0.0
H1710 H 0.62528 0.72372 0.06996 0.0
H1711 H 0.65098 0.75373 0.08505 0.0
H1712 H 0.70958 0.76986 0.07123 0.0
H1713 H 0.69901 0.73957 0.0513 0.0
C1714 C 0.66259 0.71196 0.04422 0.0
C1715 C 0.64296 0.69896 0.04156 0.0
C1716 C 0.66887 0.72933 0.05601 0.0
C1717 C 0.62972 0.70357 0.05091 0.0
C1718 C 0.63585 0.72065 0.06284 0.0
C1719 C 0.66151 0.75083 0.07738 0.0
C1720 C 0.68107 0.76421 0.0796 0.0
C1721 C 0.65535 0.73362 0.06548 0.0
C1722 C 0.69443 0.75981 0.07009 0.0
C1723 C 0.68839 0.74252 0.0585 0.0
H1724 H 0.28899 0.95789 0.03316 0.0
H1725 H 0.30649 0.91735 0.04842 0.0
H1726 H 0.27638 0.89734 0.06915 0.0
H1727 H 0.24517 0.89134 0.0828 0.0
H1728 H 0.22691 0.93099 0.06572 0.0
H1729 H 0.25748 0.9516 0.04631 0.0
C1730 C 0.28626 0.94471 0.04108 0.0
C1731 C 0.29999 0.93914 0.03924 0.0
C1732 C 0.26885 0.93317 0.05275 0.0
C1733 C 0.29615 0.92195 0.04949 0.0
C1734 C 0.27895 0.91051 0.06138 0.0
C1735 C 0.24774 0.90437 0.07459 0.0
C1736 C 0.23368 0.90954 0.07569 0.0
C1737 C 0.26518 0.91595 0.06302 0.0
C1738 C 0.23752 0.92673 0.06543 0.0
C1739 C 0.25496 0.93847 0.05416 0.0
H1740 H 0.34122 0.05266 0.00254 0.0
H1741 H 0.3103 0.01009 0.94917 0.0
H1742 H 0.30172 0.03114 0.9296 0.0
H1743 H 0.30528 0.06244 0.92572 0.0
H1744 H 0.33457 0.10458 0.98018 0.0
H1745 H 0.34172 0.08295 0.00099 0.0
C1746 C 0.33244 0.04794 0.98677 0.0
C1747 C 0.32657 0.02992 0.97721 0.0
C1748 C 0.32747 0.0601 0.9756 0.0
C1749 C 0.31504 0.02391 0.9569 0.0
C1750 C 0.31018 0.03596 0.94561 0.0
C1751 C 0.31284 0.06682 0.94241 0.0
C1752 C 0.31959 0.08529 0.95109 0.0
C1753 C 0.31662 0.05421 0.95456 0.0
C1754 C 0.32961 0.09066 0.97266 0.0
C1755 C 0.3336 0.07824 0.98472 0.0
H1756 H 0.96405 0.29136 0.96442 0.0
H1757 H 0.92006 0.27782 0.0168 0.0
H1758 H 0.90057 0.24642 -0.00068 0.0
H1759 H 0.89535 0.22352 0.96826 0.0
H1760 H 0.93745 0.23819 0.91278 0.0
H1761 H 0.95859 0.26811 0.93278 0.0
C1762 C 0.95027 0.28141 0.97208 0.0
C1763 C 0.94346 0.28683 0.99183 0.0
C1764 C 0.93883 0.26358 0.96143 0.0
C1765 C 0.92552 0.27396 0.0015 0.0
C1766 C 0.9144 0.25602 0.99154 0.0
C1767 C 0.90904 0.23329 0.96029 0.0
C1768 C 0.91461 0.22855 0.93884 0.0
C1769 C 0.92076 0.25082 0.97128 0.0
C1770 C 0.93275 0.24125 0.92937 0.0
C1771 C 0.94482 0.2585 0.94069 0.0
H1772 H 0.6962 0.6708 0.94617 0.0
H1773 H 0.71327 0.65738 0.01197 0.0
H1774 H 0.74417 0.66561 0.99443 0.0
H1775 H 0.76598 0.67576 0.95983 0.0
H1776 H 0.74766 0.6867 0.89339 0.0
H1777 H 0.71757 0.68033 0.91166 0.0
C1778 C 0.70674 0.66982 0.95673 0.0
C1779 C 0.70253 0.66362 0.98037 0.0
C1780 C 0.7242 0.67406 0.94635 0.0
C1781 C 0.7162 0.66213 0.99373 0.0
C1782 C 0.73385 0.66683 0.98372 0.0
C1783 C 0.75539 0.67685 0.9495 0.0
C1784 C 0.75893 0.68176 0.9254 0.0
C1785 C 0.73796 0.67269 0.95999 0.0
C1786 C 0.74512 0.68291 0.91197 0.0
C1787 C 0.72797 0.67929 0.92241 0.0
H1788 H 0.95685 0.66408 0.96704 0.0
H1789 H 0.91007 0.62741 0.01318 0.0
H1790 H 0.89078 0.63972 0.99685 0.0
H1791 H 0.88688 0.66007 0.96868 0.0
H1792 H 0.93264 0.69448 0.91988 0.0
H1793 H 0.95283 0.68434 0.93862 0.0
C1794 C 0.94248 0.65889 0.97364 0.0
C1795 C 0.9349 0.64484 0.99128 0.0
C1796 C 0.93132 0.66571 0.96381 0.0
C1797 C 0.9162 0.63814 -0.00049 0.0
C1798 C 0.90518 0.64519 0.99022 0.0
C1799 C 0.90119 0.66526 0.96193 0.0
C1800 C 0.9081 0.67803 0.94278 0.0
C1801 C 0.91252 0.65881 0.97217 0.0
C1802 C 0.92693 0.68491 0.9348 0.0
C1803 C 0.93847 0.67896 0.94535 0.0
H1804 H 0.32776 0.29704 0.95861 0.0
H1805 H 0.35814 0.2898 0.0161 0.0
H1806 H 0.35004 0.25866 0.00048 0.0
H1807 H 0.33516 0.23406 0.96987 0.0
H1808 H 0.30718 0.24283 0.91065 0.0
H1809 H 0.31309 0.27261 0.92799 0.0
C1810 C 0.3325 0.2886 0.96784 0.0
C1811 C 0.34351 0.29568 0.98848 0.0
C1812 C 0.32816 0.27096 0.95851 0.0
C1813 C 0.34968 0.28466 0.00014 0.0
C1814 C 0.34505 0.26687 0.99122 0.0
C1815 C 0.33049 0.24254 0.9606 0.0
C1816 C 0.32074 0.23612 0.93893 0.0
C1817 C 0.33448 0.25999 0.97027 0.0
C1818 C 0.31443 0.24717 0.92752 0.0
C1819 C 0.31797 0.26433 0.93731 0.0
H1820 H 0.70586 0.03088 0.98117 0.0
H1821 H 0.691 0.07446 0.97689 0.0
H1822 H 0.72025 0.09463 0.95482 0.0
H1823 H 0.74995 0.09999 0.93669 0.0
H1824 H 0.76594 0.05734 0.94247 0.0
H1825 H 0.73614 0.03658 0.96347 0.0
C1826 C 0.709 0.04478 0.97538 0.0
C1827 C 0.6962 0.05111 0.98074 0.0
C1828 C 0.726 0.05645 0.96282 0.0
C1829 C 0.70058 0.06921 0.97315 0.0
C1830 C 0.71731 0.08077 0.96046 0.0
C1831 C 0.7471 0.08627 0.94278 0.0
C1832 C 0.76031 0.08034 0.93803 0.0
C1833 C 0.73014 0.07457 0.95527 0.0
C1834 C 0.75601 0.06225 0.94559 0.0
C1835 C 0.73901 0.0504 0.95778 0.0
H1836 H 0.68303 0.97388 0.06414 0.0
H1837 H 0.65139 0.93514 0.0075 0.0
H1838 H 0.66076 0.91288 0.02176 0.0
H1839 H 0.67697 0.90398 0.05122 0.0
H1840 H 0.70647 0.94201 0.10948 0.0
H1841 H 0.69927 0.96512 0.09331 0.0
C1842 C 0.6783 0.96064 0.05475 0.0
C1843 C 0.66653 0.95619 0.03476 0.0
C1844 C 0.68341 0.94777 0.06332 0.0
C1845 C 0.66044 0.93891 0.02294 0.0
C1846 C 0.66578 0.92617 0.03111 0.0
C1847 C 0.68173 0.91726 0.06051 0.0
C1848 C 0.69231 0.92114 0.08159 0.0
C1849 C 0.67705 0.93035 0.05148 0.0
C1850 C 0.69863 0.93865 0.09303 0.0
C1851 C 0.69436 0.95186 0.08391 0.0
H1852 H 0.01663 0.70314 0.05583 0.0
H1853 H 0.05479 0.70725 -0.00047 0.0
H1854 H 0.07874 0.73886 0.01352 0.0
H1855 H 0.08919 0.7647 0.04282 0.0
H1856 H 0.05137 0.75897 0.10055 0.0
H1857 H 0.0268 0.7288 0.08454 0.0
C1858 C 0.03012 0.71098 0.04645 0.0
C1859 C 0.03393 0.70283 0.02668 0.0
C1860 C 0.04388 0.7289 0.05483 0.0
C1861 C 0.05151 0.71319 0.01482 0.0
C1862 C 0.06521 0.73124 0.02284 0.0
C1863 C 0.07562 0.75682 0.05199 0.0
C1864 C 0.07222 0.76424 0.07288 0.0
C1865 C 0.06164 0.73912 0.04304 0.0
C1866 C 0.05436 0.7539 0.08423 0.0
C1867 C 0.04031 0.73651 0.07521 0.0
H1868 H 0.30328 0.37562 0.04693 0.0
H1869 H 0.30038 0.32149 0.04507 0.0
H1870 H 0.26962 0.30683 0.06546 0.0
H1871 H 0.24389 0.30953 0.08473 0.0
H1872 H 0.24692 0.36368 0.08647 0.0
H1873 H 0.2774 0.3782 0.0654 0.0
C1874 C 0.29592 0.3606 0.05088 0.0
C1875 C 0.30417 0.34971 0.04449 0.0
C1876 C 0.2783 0.35227 0.06273 0.0
C1877 C 0.29439 0.33025 0.04981 0.0
C1878 C 0.27679 0.32183 0.06149 0.0
C1879 C 0.25116 0.32447 0.08029 0.0
C1880 C 0.24323 0.33553 0.08724 0.0
C1881 C 0.26866 0.33273 0.06814 0.0
C1882 C 0.25289 0.35492 0.08162 0.0
C1883 C 0.27025 0.36321 0.06946 0.0
H1884 H 0.69405 0.65022 0.37762 0.0
H1885 H 0.73805 0.70526 0.35347 0.0
H1886 H 0.7625 0.69942 0.36918 0.0
H1887 H 0.77128 0.67949 0.39205 0.0
H1888 H 0.72721 0.62459 0.41639 0.0
H1889 H 0.70293 0.62947 0.39809 0.0
C1890 C 0.70899 0.66088 0.37558 0.0
C1891 C 0.71419 0.67822 0.36453 0.0
C1892 C 0.72298 0.65747 0.38477 0.0
C1893 C 0.73364 0.69181 0.36192 0.0
C1894 C 0.74764 0.68851 0.37098 0.0
C1895 C 0.75636 0.66859 0.39328 0.0
C1896 C 0.75106 0.65175 0.40569 0.0
C1897 C 0.74246 0.67154 0.38283 0.0
C1898 C 0.73169 0.63762 0.40681 0.0
C1899 C 0.71778 0.64045 0.39647 0.0
H1900 H 0.28029 0.02015 0.38349 0.0
H1901 H 0.33647 0.03153 0.36368 0.0
H1902 H 0.35077 0.06217 0.38405 0.0
H1903 H 0.34714 0.08603 0.40676 0.0
H1904 H 0.29079 0.07337 0.42817 0.0
H1905 H 0.27677 0.04299 0.40778 0.0
C1906 C 0.29566 0.02936 0.38352 0.0
C1907 C 0.30728 0.02366 0.3719 0.0
C1908 C 0.30377 0.04675 0.39555 0.0
C1909 C 0.3272 0.03562 0.37246 0.0
C1910 C 0.33538 0.05314 0.3841 0.0
C1911 C 0.33182 0.07652 0.40722 0.0
C1912 C 0.32005 0.08215 0.41871 0.0
C1913 C 0.3238 0.05887 0.39568 0.0
C1914 C 0.30019 0.06965 0.419 0.0
C1915 C 0.29213 0.0522 0.40745 0.0
H1916 H 0.97763 0.26362 0.37975 0.0
H1917 H 0.96179 0.30375 0.35617 0.0
H1918 H 0.92984 0.28408 0.37306 0.0
H1919 H 0.90624 0.255 0.39356 0.0
H1920 H 0.92322 0.21616 0.41919 0.0
H1921 H 0.95481 0.2357 0.40204 0.0
C1922 C 0.96718 0.26806 0.37826 0.0
C1923 C 0.97198 0.28501 0.36657 0.0
C1924 C 0.94901 0.25686 0.38821 0.0
C1925 C 0.9584 0.29073 0.3651 0.0
C1926 C 0.94014 0.27948 0.3747 0.0
C1927 C 0.9169 0.25092 0.39567 0.0
C1928 C 0.91219 0.23395 0.40739 0.0
C1929 C 0.93527 0.26246 0.38621 0.0
C1930 C 0.92622 0.22885 0.40973 0.0
C1931 C 0.94438 0.2401 0.40011 0.0
H1932 H -0.00425 0.36444 0.28257 0.0
H1933 H 0.02484 0.40146 0.34166 0.0
H1934 H 0.01791 0.42507 0.32585 0.0
H1935 H 0.00444 0.43548 0.29459 0.0
H1936 H 0.97774 0.39922 0.23397 0.0
H1937 H 0.98252 0.37485 0.25137 0.0
C1938 C 0.00044 0.37761 0.29212 0.0
C1939 C 0.01076 0.3812 0.31326 0.0
C1940 C -0.00321 0.39123 0.28268 0.0
C1941 C 0.01689 0.39839 0.32531 0.0
C1942 C 0.01294 0.41188 0.31628 0.0
C1943 C -0.0002 0.42233 0.28505 0.0
C1944 C 0.99069 0.41925 0.26298 0.0
C1945 C 0.0031 0.40854 0.29482 0.0
C1946 C 0.98446 0.40192 0.25116 0.0
C1947 C 0.98734 0.388 0.261 0.0
H1948 H 0.63598 0.62928 0.31716 0.0
H1949 H 0.59157 0.64263 0.30654 0.0
H1950 H 0.57233 0.61269 0.28595 0.0
H1951 H 0.56757 0.58251 0.27192 0.0
H1952 H 0.61054 0.56753 0.28421 0.0
H1953 H 0.6311 0.59852 0.3026 0.0
C1954 C 0.62214 0.62565 0.31022 0.0
C1955 C 0.61519 0.63815 0.31352 0.0
C1956 C 0.61091 0.60817 0.29864 0.0
C1957 C 0.5972 0.63322 0.30447 0.0
C1958 C 0.58618 0.61611 0.29262 0.0
C1959 C 0.58134 0.58588 0.27885 0.0
C1960 C 0.58737 0.57259 0.27699 0.0
C1961 C 0.59279 0.60342 0.28986 0.0
C1962 C 0.60555 0.57751 0.28535 0.0
C1963 C 0.61726 0.59518 0.29601 0.0
H1964 H 0.36221 0.00218 0.28945 0.0
H1965 H 0.36529 0.9655 0.34154 0.0
H1966 H 0.39661 0.97314 0.32613 0.0
H1967 H 0.42259 0.98951 0.29704 0.0
H1968 H 0.41812 0.02448 0.24345 0.0
H1969 H 0.38807 0.01856 0.26068 0.0
C1970 C 0.36976 0.99593 0.29756 0.0
C1971 C 0.36142 0.98328 0.3166 0.0
C1972 C 0.38756 0.00015 0.2884 0.0
C1973 C 0.37139 0.97526 0.32683 0.0
C1974 C 0.38928 0.97962 0.31802 0.0
C1975 C 0.41501 0.99576 0.28901 0.0
C1976 C 0.42273 0.00746 0.26894 0.0
C1977 C 0.39741 0.99189 0.29864 0.0
C1978 C 0.4128 0.01569 0.25912 0.0
C1979 C 0.39547 0.01218 0.26883 0.0
H1980 H 0.58055 0.94521 0.30169 0.0
H1981 H 0.63068 0.00088 0.30682 0.0
H1982 H 0.61426 0.01442 0.28584 0.0
H1983 H 0.58558 0.01044 0.26607 0.0
H1984 H 0.53567 0.95471 0.26083 0.0
H1985 H 0.55217 0.94119 0.28167 0.0
C1986 C 0.58791 0.96032 0.29826 0.0
C1987 C 0.60681 0.972 0.3059 0.0
C1988 C 0.57844 0.968 0.2861 0.0
C1989 C 0.61614 0.99153 0.30114 0.0
C1990 C 0.60675 -0.00069 0.28916 0.0
C1991 C 0.57831 0.99536 0.26963 0.0
C1992 C 0.55946 0.98359 0.26193 0.0
C1993 C 0.58789 0.98768 0.2816 0.0
C1994 C 0.55027 0.96403 0.26636 0.0
C1995 C 0.55965 0.95631 0.27837 0.0
H1996 H 0.98361 0.62106 0.30977 0.0
H1997 H 0.04397 0.64181 0.31421 0.0
H1998 H 0.03944 0.61305 0.29492 0.0
H1999 H 0.01876 0.58315 0.27473 0.0
H2000 H 0.95788 0.56076 0.27348 0.0
H2001 H 0.96233 0.58933 0.29302 0.0
C2002 C -0.00427 0.61918 0.30666 0.0
C2003 C 0.0141 0.63355 0.31324 0.0
C2004 C 0.99299 0.6025 0.29584 0.0
C2005 C 0.02967 0.63091 0.30936 0.0
C2006 C 0.02711 0.61452 0.29822 0.0
C2007 C 0.00632 0.58416 0.27916 0.0
C2008 C 0.988 0.5697 0.27232 0.0
C2009 C 0.00887 0.60033 0.29114 0.0
C2010 C 0.97223 0.57175 0.27789 0.0
C2011 C 0.97472 0.58805 0.28931 0.0
H2012 H 0.37866 0.4084 0.34106 0.0
H2013 H 0.35964 0.35939 0.29606 0.0
H2014 H 0.38982 0.37541 0.274 0.0
H2015 H 0.42115 0.40383 0.26677 0.0
H2016 H 0.44116 0.4515 0.31469 0.0
H2017 H 0.41102 0.43559 0.33608 0.0
C2018 C 0.38115 0.40126 0.3264 0.0
C2019 C 0.36692 0.38286 0.32 0.0
C2020 C 0.39867 0.41035 0.31423 0.0
C2021 C 0.37041 0.3736 0.30127 0.0
C2022 C 0.38764 0.38275 0.28865 0.0
C2023 C 0.41912 0.41066 0.28212 0.0
C2024 C 0.43344 0.4291 0.28865 0.0
C2025 C 0.40186 0.40119 0.29492 0.0
C2026 C 0.43029 0.43763 0.30861 0.0
C2027 C 0.41306 0.42847 0.32107 0.0
H2028 H 0.31531 0.27105 0.3583 0.0
H2029 H 0.34496 0.31296 0.4128 0.0
H2030 H 0.35371 0.29199 0.43216 0.0
H2031 H 0.35174 0.2613 0.4348 0.0
H2032 H 0.32387 0.21987 0.37923 0.0
H2033 H 0.31546 0.24098 0.3594 0.0
C2034 C 0.32375 0.27559 0.37435 0.0
C2035 C 0.32937 0.2935 0.38413 0.0
C2036 C 0.32895 0.2635 0.38536 0.0
C2037 C 0.34044 0.29925 0.40485 0.0
C2038 C 0.34543 0.28725 0.416 0.0
C2039 C 0.34416 0.25696 0.41812 0.0
C2040 C 0.33834 0.23888 0.40875 0.0
C2041 C 0.33964 0.2693 0.40653 0.0
C2042 C 0.32821 0.23351 0.38724 0.0
C2043 C 0.32348 0.24564 0.37575 0.0
H2044 H 0.72578 0.02694 0.35708 0.0
H2045 H 0.67981 0.03804 0.36838 0.0
H2046 H 0.70202 0.06884 0.38571 0.0
H2047 H 0.73404 0.09158 0.40041 0.0
H2048 H 0.77983 0.08009 0.39018 0.0
H2049 H 0.75816 0.05048 0.36982 0.0
C2050 C 0.72067 0.03621 0.36303 0.0
C2051 C 0.70117 0.03017 0.3615 0.0
C2052 C 0.73346 0.05375 0.37344 0.0
C2053 C 0.69475 0.04231 0.36943 0.0
C2054 C 0.70743 0.05992 0.3794 0.0
C2055 C 0.73932 0.08273 0.39339 0.0
C2056 C 0.75847 0.08796 0.39693 0.0
C2057 C 0.72675 0.06563 0.3819 0.0
C2058 C 0.76507 0.07623 0.38799 0.0
C2059 C 0.75272 0.05934 0.37626 0.0
H2060 H 0.96646 0.70952 0.37067 0.0
H2061 H 0.96498 0.65615 0.37427 0.0
H2062 H 0.93405 0.64182 0.39441 0.0
H2063 H 0.90791 0.64485 0.41235 0.0
H2064 H 0.90988 0.69841 0.40845 0.0
H2065 H 0.94018 0.71226 0.38716 0.0
C2066 C 0.95939 0.69473 0.37577 0.0
C2067 C 0.96811 0.68398 0.37103 0.0
C2068 C 0.94171 0.68662 0.38741 0.0
C2069 C 0.95864 0.6648 0.37772 0.0
C2070 C 0.94095 0.65658 0.38927 0.0
C2071 C 0.91491 0.65949 0.4066 0.0
C2072 C 0.90676 0.67064 0.41216 0.0
C2073 C 0.93241 0.66741 0.39437 0.0
C2074 C 0.91603 0.68963 0.40475 0.0
C2075 C 0.93331 0.69754 0.39248 0.0
H2076 H 0.39283 0.01246 0.68989 0.0
H2077 H 0.3467 0.97618 0.73711 0.0
H2078 H 0.36706 0.96667 0.75668 0.0
H2079 H 0.39825 0.96979 0.76187 0.0
H2080 H 0.44413 0.00438 0.71336 0.0
H2081 H 0.42369 0.0136 0.69319 0.0
C2082 C 0.38723 0.00239 0.70436 0.0
C2083 C 0.36829 0.99514 0.71207 0.0
C2084 C 0.39901 -0.00321 0.71551 0.0
C2085 C 0.36121 0.982 0.73077 0.0
C2086 C 0.37287 0.97657 0.74206 0.0
C2087 C 0.40376 0.97902 0.74659 0.0
C2088 C 0.42284 0.98642 0.73937 0.0
C2089 C 0.39183 0.984 0.73473 0.0
C2090 C 0.42966 -0.00128 0.71974 0.0
C2091 C 0.41792 0.00392 0.70803 0.0
H2092 H 0.99346 0.36691 0.71123 0.0
H2093 H 0.93596 0.35604 0.70339 0.0
H2094 H 0.9438 0.38402 0.72694 0.0
H2095 H 0.96675 0.41152 0.74987 0.0
H2096 H 0.0242 0.42272 0.75824 0.0
H2097 H 0.01663 0.39477 0.73424 0.0
C2098 C 0.98266 0.37068 0.71461 0.0
C2099 C 0.96414 0.3593 0.70552 0.0
C2100 C 0.98722 0.38685 0.72829 0.0
C2101 C 0.95034 0.36446 0.71013 0.0
C2102 C 0.95478 0.38048 0.72364 0.0
C2103 C 0.97756 0.40773 0.74667 0.0
C2104 C -0.00404 0.4191 0.75595 0.0
C2105 C 0.97312 0.39171 0.7329 0.0
C2106 C 0.00994 0.41424 0.75119 0.0
C2107 C 0.00561 0.39824 0.73754 0.0
H2108 H 0.63603 0.59251 0.7233 0.0
H2109 H 0.62266 0.63422 0.69872 0.0
H2110 H 0.59225 0.61813 0.71992 0.0
H2111 H 0.56884 0.59142 0.74391 0.0
H2112 H 0.58275 0.55039 0.76966 0.0
H2113 H 0.61351 0.56697 0.74937 0.0
C2114 C 0.62647 0.59809 0.7226 0.0
C2115 C 0.63154 0.61443 0.70931 0.0
C2116 C 0.60907 0.58886 0.73494 0.0
C2117 C 0.6191 0.62163 0.70881 0.0
C2118 C 0.60168 0.61243 0.7209 0.0
C2119 C 0.57872 0.58628 0.74541 0.0
C2120 C 0.5734 0.56958 0.75806 0.0
C2121 C 0.59646 0.59596 0.73386 0.0
C2122 C 0.58632 0.563 0.75962 0.0
C2123 C 0.60396 0.57252 0.74812 0.0
H2124 H 0.69331 0.72713 0.64154 0.0
H2125 H 0.63428 0.68278 0.64573 0.0
H2126 H 0.62446 0.70419 0.62973 0.0
H2127 H 0.63279 0.73522 0.61351 0.0
H2128 H 0.69211 0.77858 0.60651 0.0
H2129 H 0.70162 0.75793 0.62503 0.0
C2130 C 0.67829 0.72221 0.63917 0.0
C2131 C 0.66454 0.70346 0.64485 0.0
C2132 C 0.67279 0.73441 0.62945 0.0
C2133 C 0.64513 0.69719 0.64144 0.0
C2134 C 0.63951 0.7094 0.63228 0.0
C2135 C 0.6478 0.74012 0.61584 0.0
C2136 C 0.66167 0.7585 0.6087 0.0
C2137 C 0.65325 0.72798 0.62596 0.0
C2138 C 0.68107 0.76467 0.61223 0.0
C2139 C 0.68656 0.75281 0.62266 0.0
H2140 H 0.29842 0.95325 0.65296 0.0
H2141 H 0.25431 0.96617 0.63763 0.0
H2142 H 0.23638 0.93637 0.61626 0.0
H2143 H 0.23272 0.90648 0.60272 0.0
H2144 H 0.27538 0.89199 0.61966 0.0
H2145 H 0.29465 0.92282 0.63903 0.0
C2146 C 0.28493 0.94956 0.64485 0.0
C2147 C 0.27769 0.9619 0.64701 0.0
C2148 C 0.27447 0.93218 0.6328 0.0
C2149 C 0.26015 0.95689 0.63645 0.0
C2150 C 0.24989 0.93986 0.62415 0.0
C2151 C 0.24613 0.90992 0.61088 0.0
C2152 C 0.25244 0.8968 0.61002 0.0
C2153 C 0.25682 0.92735 0.62243 0.0
C2154 C 0.27018 0.90182 0.61999 0.0
C2155 C 0.28114 0.9194 0.63121 0.0
H2156 H 0.03272 0.34782 0.61981 0.0
H2157 H 0.03698 0.31663 0.67843 0.0
H2158 H 0.06916 0.32518 0.66571 0.0
H2159 H 0.09545 0.34029 0.63696 0.0
H2160 H 0.08998 0.36928 0.57654 0.0
H2161 H 0.05917 0.36322 0.59129 0.0
C2162 C 0.04077 0.34306 0.62995 0.0
C2163 C 0.03247 0.3316 0.65003 0.0
C2164 C 0.05908 0.34765 0.62222 0.0
C2165 C 0.04302 0.32542 0.66286 0.0
C2166 C 0.06142 0.33029 0.65559 0.0
C2167 C 0.0875 0.34519 0.62688 0.0
C2168 C 0.09514 0.35521 0.60559 0.0
C2169 C 0.06947 0.34115 0.63508 0.0
C2170 C 0.08471 0.36179 0.59315 0.0
C2171 C 0.06695 0.35818 0.60146 0.0
H2172 H 0.25447 0.29905 0.66685 0.0
H2173 H 0.30608 0.33481 0.62749 0.0
H2174 H 0.2902 0.34913 0.60671 0.0
H2175 H 0.26115 0.35032 0.59857 0.0
H2176 H 0.21049 0.31628 0.64072 0.0
H2177 H 0.22647 0.30229 0.66129 0.0
C2178 C 0.26224 0.31 0.65373 0.0
C2179 C 0.28132 0.31574 0.64849 0.0
C2180 C 0.25316 0.31837 0.64222 0.0
C2181 C 0.29135 0.33016 0.63179 0.0
C2182 C 0.28227 0.3383 0.61987 0.0
C2183 C 0.25367 0.3401 0.61252 0.0
C2184 C 0.23446 0.33417 0.61767 0.0
C2185 C 0.26311 0.3324 0.62483 0.0
C2186 C 0.22506 0.32076 0.63577 0.0
C2187 C 0.23423 0.31282 0.64774 0.0
H2188 H 0.69178 0.97152 0.64121 0.0
H2189 H 0.63259 0.95484 0.64998 0.0
H2190 H 0.62293 0.9232 0.63454 0.0
H2191 H 0.63146 0.90077 0.61741 0.0
H2192 H 0.69086 0.91924 0.60473 0.0
H2193 H 0.70023 0.94952 0.62332 0.0
C2194 C 0.67676 0.96088 0.64 0.0
C2195 C 0.66291 0.9654 0.64685 0.0
C2196 C 0.67135 0.94304 0.63041 0.0
C2197 C 0.6435 0.95162 0.64482 0.0
C2198 C 0.63799 0.93358 0.63597 0.0
C2199 C 0.64646 0.91145 0.61845 0.0
C2200 C 0.66037 0.9075 0.60977 0.0
C2201 C 0.65181 0.92922 0.62841 0.0
C2202 C 0.67976 0.92154 0.61172 0.0
C2203 C 0.68519 0.93901 0.62217 0.0
H2204 H 0.03327 0.73669 0.63931 0.0
H2205 H 0.03879 0.68824 0.65528 0.0
H2206 H 0.0703 0.70361 0.63647 0.0
H2207 H 0.09659 0.73119 0.61611 0.0
H2208 H 0.09007 0.7789 0.59902 0.0
H2209 H 0.05873 0.76346 0.6178 0.0
C2210 C 0.04137 0.72948 0.63877 0.0
C2211 C 0.03372 0.7114 0.64884 0.0
C2212 C 0.05934 0.7383 0.62775 0.0
C2213 C 0.04434 0.70219 0.64769 0.0
C2214 C 0.06237 0.71097 0.63694 0.0
C2215 C 0.08822 0.73811 0.61628 0.0
C2216 C 0.09582 0.75629 0.60642 0.0
C2217 C 0.07004 0.72905 0.62694 0.0
C2218 C 0.08479 0.76509 0.60693 0.0
C2219 C 0.0668 0.75623 0.61755 0.0
H2220 H 0.97823 0.5992 0.68954 0.0
H2221 H 0.00818 0.64258 0.74238 0.0
H2222 H 0.01644 0.62191 0.76344 0.0
H2223 H 0.01411 0.59119 0.76793 0.0
H2224 H 0.9858 0.54815 0.71423 0.0
H2225 H 0.97778 0.56891 0.69271 0.0
C2226 C 0.98662 0.60412 0.70561 0.0
C2227 C 0.99248 0.62237 0.7144 0.0
C2228 C 0.99152 0.59219 0.71762 0.0
C2229 C 0.00347 0.6286 0.73517 0.0
C2230 C 0.00819 0.61678 0.7473 0.0
C2231 C 0.00651 0.58642 0.75129 0.0
C2232 C 0.0005 0.56803 0.74288 0.0
C2233 C 0.0022 0.59852 0.73878 0.0
C2234 C 0.99032 0.56207 0.72145 0.0
C2235 C 0.98581 0.57399 0.70901 0.0
H2236 H 0.35738 0.37775 0.70772 0.0
H2237 H 0.39834 0.35907 0.70709 0.0
H2238 H 0.42192 0.38872 0.72582 0.0
H2239 H 0.43014 0.4189 0.74437 0.0
H2240 H 0.3903 0.43906 0.74178 0.0
H2241 H 0.36686 0.40958 0.72288 0.0
C2242 C 0.37153 0.38026 0.71154 0.0
C2243 C 0.3761 0.36622 0.70619 0.0
C2244 C 0.3851 0.39744 0.72202 0.0
C2245 C 0.39451 0.36969 0.71099 0.0
C2246 C 0.40796 0.38659 0.7218 0.0
C2247 C 0.41655 0.41719 0.73923 0.0
C2248 C 0.41211 0.43133 0.74479 0.0
C2249 C 0.40333 0.40046 0.72763 0.0
C2250 C 0.3941 0.42837 0.73836 0.0
C2251 C 0.38069 0.41154 0.7273 0.0
H2252 H 0.62664 0.00018 0.70805 0.0
H2253 H 0.63503 0.05666 0.70721 0.0
H2254 H 0.60647 0.04608 0.73146 0.0
H2255 H 0.579 0.02083 0.75253 0.0
H2256 H 0.57033 0.96434 0.7534 0.0
H2257 H 0.59916 0.9749 0.72936 0.0
C2258 C 0.62223 0.01019 0.71314 0.0
C2259 C 0.63298 0.02919 0.70579 0.0
C2260 C 0.60579 0.00403 0.72709 0.0
C2261 C 0.62703 0.04195 0.71256 0.0
C2262 C 0.61071 0.03593 0.72647 0.0
C2263 C 0.58357 0.0109 0.74771 0.0
C2264 C 0.57268 0.99189 0.75482 0.0
C2265 C 0.60002 0.01703 0.73384 0.0
C2266 C 0.57849 0.97904 0.74802 0.0
C2267 C 0.59496 0.98508 0.73434 0.0
loop_
_geom_bond_atom_site_label_1
_geom_bond_atom_site_label_2
_geom_bond_distance
_geom_bond_site_symmetry_2
_ccdc_geom_bond_type
C0 O1 1.306 1_556 S
C0 O3 1.160 . S
O1 C0 1.306 1_554 S
O1 Cd2 2.228 . S
Cd2 O1 2.228 . S
Cd2 O6 2.273 . S
Cd2 O10 2.277 1_554 S
O3 C0 1.160 . S
O3 Cd4 2.203 1_656 S
Cd4 O3 2.203 1_454 S
Cd4 O6 2.411 1_455 S
Cd4 O7 2.333 . S
Cd4 O8 2.352 . S
Cd4 O12 2.277 1_554 S
Cd4 O13 2.356 . S
C5 O10 1.209 1_455 S
C5 O12 1.226 . S
O6 Cd2 2.273 . S
O6 Cd4 2.411 1_655 S
O6 C9 1.312 1_655 S
O7 Cd4 2.333 . S
O7 C9 1.234 . S
O8 Cd4 2.352 . S
O8 C11 1.258 . S
C9 O6 1.312 1_455 S
C9 O7 1.234 . S
O10 Cd2 2.277 1_556 S
O10 C5 1.209 1_655 S
C11 O8 1.258 . S
C11 O13 1.282 . S
O12 Cd4 2.277 1_556 S
O12 C5 1.226 . S
O13 Cd4 2.356 . S
O13 C11 1.282 . S
C14 O15 1.306 . S
C14 O17 1.160 . S
O15 C14 1.306 . S
O15 Cd16 2.228 . S
Cd16 O15 2.228 . S
Cd16 O20 2.273 1_554 S
Cd16 O24 2.277 . S
O17 C14 1.160 . S
O17 Cd18 2.203 . S
Cd18 O17 2.203 . S
Cd18 O20 2.411 1_554 S
Cd18 O21 2.333 1_554 S
Cd18 O22 2.352 1_554 S
Cd18 O26 2.277 . S
Cd18 O27 2.356 . S
C19 O24 1.209 . S
C19 O26 1.226 . S
O20 Cd16 2.273 1_556 S
O20 Cd18 2.411 1_556 S
O20 C23 1.320 . S
O21 Cd18 2.333 1_556 S
O21 C23 1.214 . S
O22 Cd18 2.352 1_556 S
O22 C25 1.258 . S
C23 O20 1.320 . S
C23 O21 1.214 . S
O24 Cd16 2.277 . S
O24 C19 1.209 . S
C25 O22 1.258 . S
C25 O27 1.282 1_556 S
O26 Cd18 2.277 . S
O26 C19 1.226 . S
O27 Cd18 2.356 . S
O27 C25 1.282 1_554 S
C28 O29 1.306 . S
C28 O31 1.160 . S
O29 C28 1.306 . S
O29 Cd30 2.228 . S
Cd30 O29 2.228 . S
Cd30 O34 2.273 1_554 S
Cd30 O38 2.277 . S
O31 C28 1.160 . S
O31 Cd32 2.203 1_565 S
Cd32 O31 2.203 1_545 S
Cd32 O34 2.411 1_544 S
Cd32 O35 2.333 1_554 S
Cd32 O36 2.352 1_554 S
Cd32 O40 2.277 . S
Cd32 O41 2.356 . S
C33 O38 1.209 1_545 S
C33 O40 1.226 . S
O34 Cd30 2.273 1_556 S
O34 Cd32 2.411 1_566 S
O34 C37 1.320 1_565 S
O35 Cd32 2.333 1_556 S
O35 C37 1.214 . S
O36 Cd32 2.352 1_556 S
O36 C39 1.258 . S
C37 O34 1.320 1_545 S
C37 O35 1.214 . S
O38 Cd30 2.277 . S
O38 C33 1.209 1_565 S
C39 O36 1.258 . S
C39 O41 1.282 1_556 S
O40 Cd32 2.277 . S
O40 C33 1.226 . S
O41 Cd32 2.356 . S
O41 C39 1.282 1_554 S
C42 O43 1.308 1_556 S
C42 O45 1.160 . S
O43 C42 1.308 1_554 S
O43 Cd44 2.227 . S
Cd44 O43 2.227 . S
Cd44 O48 2.273 . S
Cd44 O52 2.277 1_554 S
O45 C42 1.160 . S
O45 Cd46 2.203 1_656 S
Cd46 O45 2.203 1_454 S
Cd46 O48 2.411 1_455 S
Cd46 O49 2.333 . S
Cd46 O50 2.352 . S
Cd46 O54 2.277 1_554 S
Cd46 O55 2.356 . S
C47 O52 1.209 1_455 S
C47 O54 1.226 . S
O48 Cd44 2.273 . S
O48 Cd46 2.411 1_655 S
O48 C51 1.320 . S
O49 Cd46 2.333 . S
O49 C51 1.214 1_455 S
O50 Cd46 2.352 . S
O50 C53 1.258 . S
C51 O48 1.320 . S
C51 O49 1.214 1_655 S
O52 Cd44 2.277 1_556 S
O52 C47 1.209 1_655 S
C53 O50 1.258 . S
C53 O55 1.282 . S
O54 Cd46 2.277 1_556 S
O54 C47 1.226 . S
O55 Cd46 2.356 . S
O55 C53 1.282 . S
C56 O57 1.306 . S
C56 O59 1.160 . S
O57 C56 1.306 . S
O57 Cd58 2.228 . S
Cd58 O57 2.228 . S
Cd58 O62 2.273 1_554 S
Cd58 O66 2.277 . S
O59 C56 1.160 . S
O59 Cd60 2.203 . S
Cd60 O59 2.203 . S
Cd60 O62 2.411 1_554 S
Cd60 O63 2.333 1_554 S
Cd60 O64 2.352 1_554 S
Cd60 O68 2.277 . S
Cd60 O69 2.360 . S
C61 O66 1.209 . S
C61 O68 1.226 . S
O62 Cd58 2.273 1_556 S
O62 Cd60 2.411 1_556 S
O62 C65 1.320 . S
O63 Cd60 2.333 1_556 S
O63 C65 1.214 . S
O64 Cd60 2.352 1_556 S
O64 C67 1.258 . S
C65 O62 1.320 . S
C65 O63 1.214 . S
O66 Cd58 2.277 . S
O66 C61 1.209 . S
C67 O64 1.258 . S
C67 O69 1.274 1_556 S
O68 Cd60 2.277 . S
O68 C61 1.226 . S
O69 Cd60 2.360 . S
O69 C67 1.274 1_554 S
C70 O71 1.306 1_556 S
C70 O73 1.160 . S
O71 C70 1.306 1_554 S
O71 Cd72 2.228 . S
Cd72 O71 2.228 . S
Cd72 O76 2.273 . S
Cd72 O80 2.277 1_554 S
O73 C70 1.160 . S
O73 Cd74 2.203 1_546 S
Cd74 O73 2.203 1_564 S
Cd74 O76 2.411 1_565 S
Cd74 O77 2.333 . S
Cd74 O78 2.352 . S
Cd74 O82 2.277 1_554 S
Cd74 O83 2.356 . S
C75 O80 1.209 1_565 S
C75 O82 1.226 . S
O76 Cd72 2.273 . S
O76 Cd74 2.411 1_545 S
O76 C79 1.320 . S
O77 Cd74 2.333 . S
O77 C79 1.214 1_565 S
O78 Cd74 2.352 . S
O78 C81 1.258 . S
C79 O76 1.320 . S
C79 O77 1.214 1_545 S
O80 Cd72 2.277 1_556 S
O80 C75 1.209 1_545 S
C81 O78 1.258 . S
C81 O83 1.282 . S
O82 Cd74 2.277 1_556 S
O82 C75 1.226 . S
O83 Cd74 2.356 . S
O83 C81 1.282 . S
C84 O85 1.306 . S
C84 O87 1.160 . S
O85 C84 1.306 . S
O85 Cd86 2.228 . S
Cd86 O85 2.228 . S
Cd86 O90 2.273 . S
Cd86 O94 2.277 . S
O87 C84 1.160 . S
O87 Cd88 2.203 . S
Cd88 O87 2.203 . S
Cd88 O90 2.411 . S
Cd88 O91 2.333 . S
Cd88 O92 2.352 . S
Cd88 O96 2.277 . S
Cd88 O97 2.356 . S
C89 O94 1.209 . S
C89 O96 1.226 . S
O90 Cd86 2.273 . S
O90 Cd88 2.411 . S
O90 C93 1.320 . S
O91 Cd88 2.333 . S
O91 C93 1.214 . S
O92 Cd88 2.352 . S
O92 C95 1.258 . S
C93 O90 1.320 . S
C93 O91 1.214 . S
O94 Cd86 2.277 . S
O94 C89 1.209 . S
C95 O92 1.258 . S
C95 O97 1.282 . S
O96 Cd88 2.277 . S
O96 C89 1.226 . S
O97 Cd88 2.356 . S
O97 C95 1.282 . S
C98 O99 1.306 . S
C98 O101 1.160 . S
O99 C98 1.306 . S
O99 Cd100 2.228 1_545 S
Cd100 O99 2.228 1_565 S
Cd100 O104 2.273 . S
Cd100 O108 2.277 . S
O101 C98 1.160 . S
O101 Cd102 2.203 1_545 S
Cd102 O101 2.203 1_565 S
Cd102 O104 2.411 . S
Cd102 O105 2.333 . S
Cd102 O106 2.342 1_565 S
Cd102 O110 2.277 . S
Cd102 O111 2.356 . S
C103 O108 1.209 . S
C103 O110 1.226 . S
O104 Cd100 2.273 . S
O104 Cd102 2.411 . S
O104 C107 1.320 . S
O105 Cd102 2.333 . S
O105 C107 1.214 . S
O106 Cd102 2.342 1_545 S
O106 C109 1.220 1_545 S
C107 O104 1.320 . S
C107 O105 1.214 . S
O108 Cd100 2.277 . S
O108 C103 1.209 . S
C109 O106 1.220 1_565 S
C109 O111 1.282 . S
O110 Cd102 2.277 . S
O110 C103 1.226 . S
O111 Cd102 2.356 . S
O111 C109 1.282 . S
C112 O113 1.306 . S
C112 O115 1.160 . S
O113 C112 1.306 . S
O113 Cd114 2.228 1_655 S
Cd114 O113 2.228 1_455 S
Cd114 O118 2.273 . S
Cd114 O122 2.277 . S
O115 C112 1.160 . S
O115 Cd116 2.203 1_655 S
Cd116 O115 2.203 1_455 S
Cd116 O118 2.411 . S
Cd116 O119 2.333 . S
Cd116 O120 2.352 . S
Cd116 O124 2.277 . S
Cd116 O125 2.356 . S
C117 O122 1.209 . S
C117 O124 1.226 . S
O118 Cd114 2.273 . S
O118 Cd116 2.411 . S
O118 C121 1.320 . S
O119 Cd116 2.333 . S
O119 C121 1.214 . S
O120 Cd116 2.352 . S
O120 C123 1.258 . S
C121 O118 1.320 . S
C121 O119 1.214 . S
O122 Cd114 2.277 . S
O122 C117 1.209 . S
C123 O120 1.258 . S
C123 O125 1.282 . S
O124 Cd116 2.277 . S
O124 C117 1.226 . S
O125 Cd116 2.356 . S
O125 C123 1.282 . S
C126 O127 1.306 . S
C126 O129 1.160 . S
O127 C126 1.306 . S
O127 Cd128 2.228 . S
Cd128 O127 2.228 . S
Cd128 O132 2.273 . S
Cd128 O136 2.277 . S
O129 C126 1.160 . S
O129 Cd130 2.203 . S
Cd130 O129 2.203 . S
Cd130 O132 2.411 . S
Cd130 O133 2.333 . S
Cd130 O134 2.352 1_565 S
Cd130 O138 2.277 . S
Cd130 O139 2.356 1_565 S
C131 O136 1.209 . S
C131 O138 1.226 . S
O132 Cd128 2.273 . S
O132 Cd130 2.411 . S
O132 C135 1.320 . S
O133 Cd130 2.333 . S
O133 C135 1.214 . S
O134 Cd130 2.352 1_545 S
O134 C137 1.258 . S
C135 O132 1.320 . S
C135 O133 1.214 . S
O136 Cd128 2.277 . S
O136 C131 1.209 . S
C137 O134 1.258 . S
C137 O139 1.282 . S
O138 Cd130 2.277 . S
O138 C131 1.226 . S
O139 Cd130 2.356 1_545 S
O139 C137 1.282 . S
C140 O141 1.306 . S
C140 O143 1.160 . S
O141 C140 1.306 . S
O141 Cd142 2.228 1_655 S
Cd142 O141 2.228 1_455 S
Cd142 O146 2.273 . S
Cd142 O150 2.277 . S
O143 C140 1.160 . S
O143 Cd144 2.203 1_655 S
Cd144 O143 2.203 1_455 S
Cd144 O146 2.411 . S
Cd144 O147 2.333 . S
Cd144 O148 2.352 . S
Cd144 O152 2.277 . S
Cd144 O153 2.356 . S
C145 O150 1.209 . S
C145 O152 1.226 . S
O146 Cd142 2.273 . S
O146 Cd144 2.411 . S
O146 C149 1.320 . S
O147 Cd144 2.333 . S
O147 C149 1.214 . S
O148 Cd144 2.352 . S
O148 C151 1.258 . S
C149 O146 1.320 . S
C149 O147 1.214 . S
O150 Cd142 2.277 . S
O150 C145 1.209 . S
C151 O148 1.258 . S
C151 O153 1.282 . S
O152 Cd144 2.277 . S
O152 C145 1.226 . S
O153 Cd144 2.356 . S
O153 C151 1.282 . S
C154 O155 1.306 . S
C154 O157 1.160 . S
O155 C154 1.306 . S
O155 Cd156 2.228 . S
Cd156 O155 2.228 . S
Cd156 O160 2.273 . S
Cd156 O164 2.277 . S
O157 C154 1.160 . S
O157 Cd158 2.203 . S
Cd158 O157 2.203 . S
Cd158 O160 2.411 . S
Cd158 O161 2.333 . S
Cd158 O162 2.352 . S
Cd158 O166 2.277 . S
Cd158 O167 2.356 . S
C159 O164 1.209 . S
C159 O166 1.226 . S
O160 Cd156 2.273 . S
O160 Cd158 2.411 . S
O160 C163 1.320 . S
O161 Cd158 2.333 . S
O161 C163 1.214 . S
O162 Cd158 2.352 . S
O162 C165 1.258 . S
C163 O160 1.320 . S
C163 O161 1.214 . S
O164 Cd156 2.277 . S
O164 C159 1.209 . S
C165 O162 1.258 . S
C165 O167 1.282 . S
O166 Cd158 2.277 . S
O166 C159 1.226 . S
O167 Cd158 2.356 . S
O167 C165 1.282 . S
C168 O169 1.306 . S
C168 O171 1.160 . S
O169 C168 1.306 . S
O169 Cd170 2.228 1_565 S
Cd170 O169 2.228 1_545 S
Cd170 O174 2.273 . S
Cd170 O178 2.277 . S
O171 C168 1.160 . S
O171 Cd172 2.203 1_565 S
Cd172 O171 2.203 1_545 S
Cd172 O174 2.411 . S
Cd172 O175 2.333 . S
Cd172 O176 2.352 . S
Cd172 O180 2.277 . S
Cd172 O181 2.356 . S
C173 O178 1.209 . S
C173 O180 1.226 . S
O174 Cd170 2.273 . S
O174 Cd172 2.411 . S
O174 C177 1.320 . S
O175 Cd172 2.333 . S
O175 C177 1.214 . S
O176 Cd172 2.352 . S
O176 C179 1.258 . S
C177 O174 1.320 . S
C177 O175 1.214 . S
O178 Cd170 2.277 . S
O178 C173 1.209 . S
C179 O176 1.258 . S
C179 O181 1.282 . S
O180 Cd172 2.277 . S
O180 C173 1.226 . S
O181 Cd172 2.356 . S
O181 C179 1.282 . S
C182 O183 1.306 . S
C182 O185 1.153 . S
O183 C182 1.306 . S
O183 Cd184 2.228 . S
Cd184 O183 2.228 . S
Cd184 O188 2.273 . S
Cd184 O192 2.277 . S
O185 C182 1.153 . S
O185 Cd186 2.204 . S
Cd186 O185 2.204 . S
Cd186 O188 2.411 . S
Cd186 O189 2.333 . S
Cd186 O190 2.352 1_655 S
Cd186 O194 2.277 . S
Cd186 O195 2.356 1_655 S
C187 O192 1.209 . S
C187 O194 1.226 . S
O188 Cd184 2.273 . S
O188 Cd186 2.411 . S
O188 C191 1.320 . S
O189 Cd186 2.333 . S
O189 C191 1.214 . S
O190 Cd186 2.352 1_455 S
O190 C193 1.258 . S
C191 O188 1.320 . S
C191 O189 1.214 . S
O192 Cd184 2.277 . S
O192 C187 1.209 . S
C193 O190 1.258 . S
C193 O195 1.282 . S
O194 Cd186 2.277 . S
O194 C187 1.226 . S
O195 Cd186 2.356 1_455 S
O195 C193 1.282 . S
C196 O197 1.306 . S
C196 O199 1.160 . S
O197 C196 1.306 . S
O197 Cd198 2.228 . S
Cd198 O197 2.228 . S
Cd198 O202 2.273 . S
Cd198 O206 2.277 . S
O199 C196 1.160 . S
O199 Cd200 2.203 . S
Cd200 O199 2.203 . S
Cd200 O202 2.411 . S
Cd200 O203 2.333 . S
Cd200 O204 2.352 . S
Cd200 O208 2.277 . S
Cd200 O209 2.356 . S
C201 O206 1.209 . S
C201 O208 1.226 . S
O202 Cd198 2.273 . S
O202 Cd200 2.411 . S
O202 C205 1.320 . S
O203 Cd200 2.333 . S
O203 C205 1.214 . S
O204 Cd200 2.352 . S
O204 C207 1.258 . S
C205 O202 1.320 . S
C205 O203 1.214 . S
O206 Cd198 2.277 . S
O206 C201 1.209 . S
C207 O204 1.258 . S
C207 O209 1.282 . S
O208 Cd200 2.277 . S
O208 C201 1.226 . S
O209 Cd200 2.356 . S
O209 C207 1.282 . S
C210 O211 1.306 . S
C210 O213 1.160 . S
O211 C210 1.306 . S
O211 Cd212 2.228 . S
Cd212 O211 2.228 . S
Cd212 O216 2.273 . S
Cd212 O220 2.277 . S
O213 C210 1.160 . S
O213 Cd214 2.203 . S
Cd214 O213 2.203 . S
Cd214 O216 2.411 . S
Cd214 O217 2.333 . S
Cd214 O218 2.352 . S
Cd214 O222 2.277 . S
Cd214 O223 2.356 . S
C215 O220 1.209 . S
C215 O222 1.226 . S
O216 Cd212 2.273 . S
O216 Cd214 2.411 . S
O216 C219 1.320 . S
O217 Cd214 2.333 . S
O217 C219 1.214 . S
O218 Cd214 2.352 . S
O218 C221 1.258 . S
C219 O216 1.320 . S
C219 O217 1.214 . S
O220 Cd212 2.277 . S
O220 C215 1.209 . S
C221 O218 1.258 . S
C221 O223 1.282 . S
O222 Cd214 2.277 . S
O222 C215 1.226 . S
O223 Cd214 2.356 . S
O223 C221 1.282 . S
C224 O225 1.306 . S
C224 O227 1.160 . S
O225 C224 1.306 . S
O225 Cd226 2.228 . S
Cd226 O225 2.228 . S
Cd226 O230 2.273 . S
Cd226 O234 2.277 . S
O227 C224 1.160 . S
O227 Cd228 2.203 . S
Cd228 O227 2.203 . S
Cd228 O230 2.411 . S
Cd228 O231 2.333 . S
Cd228 O232 2.352 1_545 S
Cd228 O236 2.277 . S
Cd228 O237 2.356 1_545 S
C229 O234 1.209 . S
C229 O236 1.226 . S
O230 Cd226 2.273 . S
O230 Cd228 2.411 . S
O230 C233 1.320 . S
O231 Cd228 2.333 . S
O231 C233 1.214 . S
O232 Cd228 2.352 1_565 S
O232 C235 1.258 . S
C233 O230 1.320 . S
C233 O231 1.214 . S
O234 Cd226 2.277 . S
O234 C229 1.209 . S
C235 O232 1.258 . S
C235 O237 1.282 . S
O236 Cd228 2.277 . S
O236 C229 1.226 . S
O237 Cd228 2.356 1_565 S
O237 C235 1.282 . S
C238 O239 1.306 . S
C238 O241 1.160 . S
O239 C238 1.306 . S
O239 Cd240 2.228 1_455 S
Cd240 O239 2.228 1_655 S
Cd240 O244 2.273 . S
Cd240 O248 2.277 . S
O241 C238 1.160 . S
O241 Cd242 2.203 1_455 S
Cd242 O241 2.203 1_655 S
Cd242 O244 2.411 . S
Cd242 O245 2.333 . S
Cd242 O246 2.328 1_655 S
Cd242 O250 2.277 . S
Cd242 O251 2.356 . S
C243 O248 1.209 . S
C243 O250 1.226 . S
O244 Cd240 2.273 . S
O244 Cd242 2.411 . S
O244 C247 1.320 . S
O245 Cd242 2.333 . S
O245 C247 1.214 . S
O246 Cd242 2.328 1_455 S
O246 C249 1.258 1_455 S
C247 O244 1.320 . S
C247 O245 1.214 . S
O248 Cd240 2.277 . S
O248 C243 1.209 . S
C249 O246 1.258 1_655 S
C249 O251 1.282 . S
O250 Cd242 2.277 . S
O250 C243 1.226 . S
O251 Cd242 2.356 . S
O251 C249 1.282 . S
H252 C271 0.949 . S
H253 C272 0.950 . S
H254 C274 0.950 . S
H255 C275 0.950 . S
H256 C277 0.950 . S
H257 C280 0.950 . S
H258 C281 0.950 . S
H259 C283 0.951 . S
H260 C284 0.949 . S
H261 C286 0.949 . S
H262 C287 0.950 . S
H263 C289 0.950 . S
H264 C290 0.950 . S
H265 C292 0.950 . S
H266 C295 0.950 . S
H267 C296 0.950 . S
H268 C298 0.951 . S
H269 C299 0.949 . S
C270 C271 1.376 . S
C270 C275 1.386 . S
C270 C276 1.483 . S
C271 H252 0.949 . S
C271 C270 1.376 . S
C271 C272 1.397 . S
C272 H253 0.950 . S
C272 C271 1.397 . S
C272 C273 1.391 . S
C273 C272 1.391 . S
C273 C274 1.405 . S
C274 H254 0.950 . S
C274 C273 1.405 . S
C274 C275 1.367 . S
C275 H255 0.950 . S
C275 C270 1.386 . S
C275 C274 1.367 . S
C276 C270 1.483 . S
C276 C277 1.382 . S
C276 C278 1.403 . S
C277 H256 0.950 . S
C277 C276 1.382 . S
C277 C293 1.411 . S
C278 C276 1.403 . S
C278 C279 1.489 . S
C278 C292 1.411 . S
C279 C278 1.489 . S
C279 C280 1.383 . S
C279 C284 1.382 . S
C280 H257 0.950 . S
C280 C279 1.383 . S
C280 C281 1.395 . S
C281 H258 0.950 . S
C281 C280 1.395 . S
C281 C282 1.288 . S
C282 C281 1.288 . S
C282 C283 1.392 . S
C283 H259 0.951 . S
C283 C282 1.392 . S
C283 C284 1.392 . S
C284 H260 0.949 . S
C284 C279 1.382 . S
C284 C283 1.392 . S
C285 C286 1.376 . S
C285 C290 1.386 . S
C285 C291 1.483 . S
C286 H261 0.949 . S
C286 C285 1.376 . S
C286 C287 1.397 . S
C287 H262 0.950 . S
C287 C286 1.397 . S
C287 C288 1.391 . S
C288 C287 1.391 . S
C288 C289 1.405 . S
C289 H263 0.950 . S
C289 C288 1.405 . S
C289 C290 1.367 . S
C290 H264 0.950 . S
C290 C285 1.386 . S
C290 C289 1.367 . S
C291 C285 1.483 . S
C291 C292 1.382 . S
C291 C293 1.403 . S
C292 H265 0.950 . S
C292 C278 1.411 . S
C292 C291 1.382 . S
C293 C277 1.411 . S
C293 C291 1.403 . S
C293 C294 1.489 . S
C294 C293 1.489 . S
C294 C295 1.383 . S
C294 C299 1.382 . S
C295 H266 0.950 . S
C295 C294 1.383 . S
C295 C296 1.395 . S
C296 H267 0.950 . S
C296 C295 1.395 . S
C296 C297 1.288 . S
C297 C296 1.288 . S
C297 C298 1.392 . S
C298 H268 0.951 . S
C298 C297 1.392 . S
C298 C299 1.392 . S
C299 H269 0.949 . S
C299 C294 1.382 . S
C299 C298 1.392 . S
H300 C319 0.949 . S
H301 C320 0.950 . S
H302 C322 0.950 . S
H303 C323 0.950 . S
H304 C325 0.950 . S
H305 C328 0.950 . S
H306 C329 0.950 . S
H307 C331 0.951 . S
H308 C332 0.949 . S
H309 C334 0.949 . S
H310 C335 0.950 . S
H311 C337 0.950 . S
H312 C338 0.950 . S
H313 C340 0.950 . S
H314 C343 0.950 . S
H315 C344 0.950 . S
H316 C346 0.951 . S
H317 C347 0.949 . S
C318 C319 1.376 . S
C318 C323 1.386 . S
C318 C324 1.483 . S
C319 H300 0.949 . S
C319 C318 1.376 . S
C319 C320 1.397 . S
C320 H301 0.950 . S
C320 C319 1.397 . S
C320 C321 1.391 . S
C321 C320 1.391 . S
C321 C322 1.405 . S
C322 H302 0.950 . S
C322 C321 1.405 . S
C322 C323 1.367 . S
C323 H303 0.950 . S
C323 C318 1.386 . S
C323 C322 1.367 . S
C324 C318 1.483 . S
C324 C325 1.382 . S
C324 C326 1.403 . S
C325 H304 0.950 . S
C325 C324 1.382 . S
C325 C341 1.411 . S
C326 C324 1.403 . S
C326 C327 1.489 . S
C326 C340 1.411 . S
C327 C326 1.489 . S
C327 C328 1.383 . S
C327 C332 1.382 . S
C328 H305 0.950 . S
C328 C327 1.383 . S
C328 C329 1.395 . S
C329 H306 0.950 . S
C329 C328 1.395 . S
C329 C330 1.288 . S
C330 C329 1.288 . S
C330 C331 1.392 . S
C331 H307 0.951 . S
C331 C330 1.392 . S
C331 C332 1.392 . S
C332 H308 0.949 . S
C332 C327 1.382 . S
C332 C331 1.392 . S
C333 C334 1.376 . S
C333 C338 1.386 . S
C333 C339 1.483 . S
C334 H309 0.949 . S
C334 C333 1.376 . S
C334 C335 1.397 . S
C335 H310 0.950 . S
C335 C334 1.397 . S
C335 C336 1.391 . S
C336 C335 1.391 . S
C336 C337 1.405 . S
C337 H311 0.950 . S
C337 C336 1.405 . S
C337 C338 1.367 . S
C338 H312 0.950 . S
C338 C333 1.386 . S
C338 C337 1.367 . S
C339 C333 1.483 . S
C339 C340 1.382 . S
C339 C341 1.403 . S
C340 H313 0.950 . S
C340 C326 1.411 . S
C340 C339 1.382 . S
C341 C325 1.411 . S
C341 C339 1.403 . S
C341 C342 1.489 . S
C342 C341 1.489 . S
C342 C343 1.383 . S
C342 C347 1.382 . S
C343 H314 0.950 . S
C343 C342 1.383 . S
C343 C344 1.395 . S
C344 H315 0.950 . S
C344 C343 1.395 . S
C344 C345 1.288 . S
C345 C344 1.288 . S
C345 C346 1.392 . S
C346 H316 0.951 . S
C346 C345 1.392 . S
C346 C347 1.392 . S
C347 H317 0.949 . S
C347 C342 1.382 . S
C347 C346 1.392 . S
H348 C367 0.949 . S
H349 C368 0.950 . S
H350 C370 0.950 . S
H351 C371 0.950 . S
H352 C373 0.950 . S
H353 C376 0.950 . S
H354 C377 0.950 . S
H355 C379 0.951 . S
H356 C380 0.949 . S
H357 C382 0.949 . S
H358 C383 0.950 . S
H359 C385 0.950 . S
H360 C386 0.950 . S
H361 C388 0.950 . S
H362 C391 0.950 . S
H363 C392 0.950 . S
H364 C394 0.951 . S
H365 C395 0.949 . S
C366 C367 1.376 . S
C366 C371 1.386 . S
C366 C372 1.483 . S
C367 H348 0.949 . S
C367 C366 1.376 . S
C367 C368 1.397 . S
C368 H349 0.950 . S
C368 C367 1.397 . S
C368 C369 1.391 . S
C369 C368 1.391 . S
C369 C370 1.405 . S
C370 H350 0.950 . S
C370 C369 1.405 . S
C370 C371 1.367 . S
C371 H351 0.950 . S
C371 C366 1.386 . S
C371 C370 1.367 . S
C372 C366 1.483 . S
C372 C373 1.382 . S
C372 C374 1.403 . S
C373 H352 0.950 . S
C373 C372 1.382 . S
C373 C389 1.411 . S
C374 C372 1.403 . S
C374 C375 1.489 . S
C374 C388 1.411 . S
C375 C374 1.489 . S
C375 C376 1.383 . S
C375 C380 1.382 . S
C376 H353 0.950 . S
C376 C375 1.383 . S
C376 C377 1.395 . S
C377 H354 0.950 . S
C377 C376 1.395 . S
C377 C378 1.288 . S
C378 C377 1.288 . S
C378 C379 1.392 . S
C379 H355 0.951 . S
C379 C378 1.392 . S
C379 C380 1.392 . S
C380 H356 0.949 . S
C380 C375 1.382 . S
C380 C379 1.392 . S
C381 C382 1.376 . S
C381 C386 1.386 . S
C381 C387 1.483 . S
C382 H357 0.949 . S
C382 C381 1.376 . S
C382 C383 1.397 . S
C383 H358 0.950 . S
C383 C382 1.397 . S
C383 C384 1.391 . S
C384 C383 1.391 . S
C384 C385 1.405 . S
C385 H359 0.950 . S
C385 C384 1.405 . S
C385 C386 1.367 . S
C386 H360 0.950 . S
C386 C381 1.386 . S
C386 C385 1.367 . S
C387 C381 1.483 . S
C387 C388 1.382 . S
C387 C389 1.403 . S
C388 H361 0.950 . S
C388 C374 1.411 . S
C388 C387 1.382 . S
C389 C373 1.411 . S
C389 C387 1.403 . S
C389 C390 1.489 . S
C390 C389 1.489 . S
C390 C391 1.383 . S
C390 C395 1.382 . S
C391 H362 0.950 . S
C391 C390 1.383 . S
C391 C392 1.395 . S
C392 H363 0.950 . S
C392 C391 1.395 . S
C392 C393 1.288 . S
C393 C392 1.288 . S
C393 C394 1.392 . S
C394 H364 0.951 . S
C394 C393 1.392 . S
C394 C395 1.392 . S
C395 H365 0.949 . S
C395 C390 1.382 . S
C395 C394 1.392 . S
H396 C415 0.949 . S
H397 C416 0.950 . S
H398 C418 0.950 . S
H399 C419 0.950 . S
H400 C421 0.950 . S
H401 C424 0.950 . S
H402 C425 0.950 . S
H403 C427 0.951 . S
H404 C428 0.949 . S
H405 C430 0.949 . S
H406 C431 0.950 . S
H407 C433 0.950 . S
H408 C434 0.950 . S
H409 C436 0.950 . S
H410 C439 0.950 . S
H411 C440 0.950 . S
H412 C442 0.951 . S
H413 C443 0.949 . S
C414 C415 1.376 . S
C414 C419 1.386 . S
C414 C420 1.483 . S
C415 H396 0.949 . S
C415 C414 1.376 . S
C415 C416 1.397 . S
C416 H397 0.950 . S
C416 C415 1.397 . S
C416 C417 1.391 . S
C417 C416 1.391 . S
C417 C418 1.405 . S
C418 H398 0.950 . S
C418 C417 1.405 . S
C418 C419 1.367 . S
C419 H399 0.950 . S
C419 C414 1.386 . S
C419 C418 1.367 . S
C420 C414 1.483 . S
C420 C421 1.382 . S
C420 C422 1.403 . S
C421 H400 0.950 . S
C421 C420 1.382 . S
C421 C437 1.411 . S
C422 C420 1.403 . S
C422 C423 1.489 . S
C422 C436 1.411 . S
C423 C422 1.489 . S
C423 C424 1.383 . S
C423 C428 1.382 . S
C424 H401 0.950 . S
C424 C423 1.383 . S
C424 C425 1.395 . S
C425 H402 0.950 . S
C425 C424 1.395 . S
C425 C426 1.288 . S
C426 C425 1.288 . S
C426 C427 1.392 . S
C427 H403 0.951 . S
C427 C426 1.392 . S
C427 C428 1.392 . S
C428 H404 0.949 . S
C428 C423 1.382 . S
C428 C427 1.392 . S
C429 C430 1.376 . S
C429 C434 1.386 . S
C429 C435 1.483 . S
C430 H405 0.949 . S
C430 C429 1.376 . S
C430 C431 1.397 . S
C431 H406 0.950 . S
C431 C430 1.397 . S
C431 C432 1.391 . S
C432 C431 1.391 . S
C432 C433 1.405 . S
C433 H407 0.950 . S
C433 C432 1.405 . S
C433 C434 1.367 . S
C434 H408 0.950 . S
C434 C429 1.386 . S
C434 C433 1.367 . S
C435 C429 1.483 . S
C435 C436 1.382 . S
C435 C437 1.403 . S
C436 H409 0.950 . S
C436 C422 1.411 . S
C436 C435 1.382 . S
C437 C421 1.411 . S
C437 C435 1.403 . S
C437 C438 1.489 . S
C438 C437 1.489 . S
C438 C439 1.383 . S
C438 C443 1.382 . S
C439 H410 0.950 . S
C439 C438 1.383 . S
C439 C440 1.395 . S
C440 H411 0.950 . S
C440 C439 1.395 . S
C440 C441 1.288 . S
C441 C440 1.288 . S
C441 C442 1.392 . S
C442 H412 0.951 . S
C442 C441 1.392 . S
C442 C443 1.392 . S
C443 H413 0.949 . S
C443 C438 1.382 . S
C443 C442 1.392 . S
H444 C463 0.949 . S
H445 C464 0.950 . S
H446 C466 0.950 . S
H447 C467 0.950 . S
H448 C469 0.950 . S
H449 C472 0.950 . S
H450 C473 0.950 . S
H451 C475 0.951 . S
H452 C476 0.949 . S
H453 C478 0.949 . S
H454 C479 0.950 . S
H455 C481 0.950 . S
H456 C482 0.950 . S
H457 C484 0.950 . S
H458 C487 0.950 . S
H459 C488 0.950 . S
H460 C490 0.951 . S
H461 C491 0.949 . S
C462 C463 1.376 . S
C462 C467 1.386 . S
C462 C468 1.483 . S
C463 H444 0.949 . S
C463 C462 1.376 . S
C463 C464 1.397 . S
C464 H445 0.950 . S
C464 C463 1.397 . S
C464 C465 1.391 . S
C465 C464 1.391 . S
C465 C466 1.405 . S
C466 H446 0.950 . S
C466 C465 1.405 . S
C466 C467 1.367 . S
C467 H447 0.950 . S
C467 C462 1.386 . S
C467 C466 1.367 . S
C468 C462 1.483 . S
C468 C469 1.382 . S
C468 C470 1.403 . S
C469 H448 0.950 . S
C469 C468 1.382 . S
C469 C485 1.411 . S
C470 C468 1.403 . S
C470 C471 1.489 . S
C470 C484 1.411 . S
C471 C470 1.489 . S
C471 C472 1.383 . S
C471 C476 1.382 . S
C472 H449 0.950 . S
C472 C471 1.383 . S
C472 C473 1.395 . S
C473 H450 0.950 . S
C473 C472 1.395 . S
C473 C474 1.288 . S
C474 C473 1.288 . S
C474 C475 1.392 . S
C475 H451 0.951 . S
C475 C474 1.392 . S
C475 C476 1.392 . S
C476 H452 0.949 . S
C476 C471 1.382 . S
C476 C475 1.392 . S
C477 C478 1.376 . S
C477 C482 1.386 . S
C477 C483 1.483 . S
C478 H453 0.949 . S
C478 C477 1.376 . S
C478 C479 1.397 . S
C479 H454 0.950 . S
C479 C478 1.397 . S
C479 C480 1.391 . S
C480 C479 1.391 . S
C480 C481 1.405 . S
C481 H455 0.950 . S
C481 C480 1.405 . S
C481 C482 1.367 . S
C482 H456 0.950 . S
C482 C477 1.386 . S
C482 C481 1.367 . S
C483 C477 1.483 . S
C483 C484 1.382 . S
C483 C485 1.403 . S
C484 H457 0.950 . S
C484 C470 1.411 . S
C484 C483 1.382 . S
C485 C469 1.411 . S
C485 C483 1.403 . S
C485 C486 1.489 . S
C486 C485 1.489 . S
C486 C487 1.383 . S
C486 C491 1.382 . S
C487 H458 0.950 . S
C487 C486 1.383 . S
C487 C488 1.395 . S
C488 H459 0.950 . S
C488 C487 1.395 . S
C488 C489 1.288 . S
C489 C488 1.288 . S
C489 C490 1.392 . S
C490 H460 0.951 . S
C490 C489 1.392 . S
C490 C491 1.392 . S
C491 H461 0.949 . S
C491 C486 1.382 . S
C491 C490 1.392 . S
H492 C511 0.949 . S
H493 C512 0.950 . S
H494 C514 0.950 . S
H495 C515 0.950 . S
H496 C517 0.950 . S
H497 C520 0.950 . S
H498 C521 0.950 . S
H499 C523 0.951 . S
H500 C524 0.949 . S
H501 C526 0.949 . S
H502 C527 0.950 . S
H503 C529 0.950 . S
H504 C530 0.950 . S
H505 C532 0.950 . S
H506 C535 0.950 . S
H507 C536 0.950 . S
H508 C538 0.951 . S
H509 C539 0.949 . S
C510 C511 1.376 . S
C510 C515 1.386 . S
C510 C516 1.483 . S
C511 H492 0.949 . S
C511 C510 1.376 . S
C511 C512 1.397 . S
C512 H493 0.950 . S
C512 C511 1.397 . S
C512 C513 1.391 . S
C513 C512 1.391 . S
C513 C514 1.405 . S
C514 H494 0.950 . S
C514 C513 1.405 . S
C514 C515 1.367 . S
C515 H495 0.950 . S
C515 C510 1.386 . S
C515 C514 1.367 . S
C516 C510 1.483 . S
C516 C517 1.382 . S
C516 C518 1.403 . S
C517 H496 0.950 . S
C517 C516 1.382 . S
C517 C533 1.411 . S
C518 C516 1.403 . S
C518 C519 1.489 . S
C518 C532 1.411 . S
C519 C518 1.489 . S
C519 C520 1.383 . S
C519 C524 1.382 . S
C520 H497 0.950 . S
C520 C519 1.383 . S
C520 C521 1.395 . S
C521 H498 0.950 . S
C521 C520 1.395 . S
C521 C522 1.288 . S
C522 C521 1.288 . S
C522 C523 1.392 . S
C523 H499 0.951 . S
C523 C522 1.392 . S
C523 C524 1.392 . S
C524 H500 0.949 . S
C524 C519 1.382 . S
C524 C523 1.392 . S
C525 C526 1.376 . S
C525 C530 1.386 . S
C525 C531 1.483 . S
C526 H501 0.949 . S
C526 C525 1.376 . S
C526 C527 1.397 . S
C527 H502 0.950 . S
C527 C526 1.397 . S
C527 C528 1.391 . S
C528 C527 1.391 . S
C528 C529 1.405 . S
C529 H503 0.950 . S
C529 C528 1.405 . S
C529 C530 1.367 . S
C530 H504 0.950 . S
C530 C525 1.386 . S
C530 C529 1.367 . S
C531 C525 1.483 . S
C531 C532 1.382 . S
C531 C533 1.403 . S
C532 H505 0.950 . S
C532 C518 1.411 . S
C532 C531 1.382 . S
C533 C517 1.411 . S
C533 C531 1.403 . S
C533 C534 1.489 . S
C534 C533 1.489 . S
C534 C535 1.383 . S
C534 C539 1.382 . S
C535 H506 0.950 . S
C535 C534 1.383 . S
C535 C536 1.395 . S
C536 H507 0.950 . S
C536 C535 1.395 . S
C536 C537 1.288 . S
C537 C536 1.288 . S
C537 C538 1.392 . S
C538 H508 0.951 . S
C538 C537 1.392 . S
C538 C539 1.392 . S
C539 H509 0.949 . S
C539 C534 1.382 . S
C539 C538 1.392 . S
H540 C559 0.949 . S
H541 C560 0.950 . S
H542 C562 0.950 . S
H543 C563 0.950 . S
H544 C565 0.950 . S
H545 C568 0.950 . S
H546 C569 0.950 . S
H547 C571 0.951 . S
H548 C572 0.949 . S
H549 C574 0.949 . S
H550 C575 0.950 . S
H551 C577 0.950 . S
H552 C578 0.950 . S
H553 C580 0.950 . S
H554 C583 0.950 . S
H555 C584 0.950 . S
H556 C586 0.951 . S
H557 C587 0.949 . S
C558 C559 1.376 . S
C558 C563 1.386 . S
C558 C564 1.483 . S
C559 H540 0.949 . S
C559 C558 1.376 . S
C559 C560 1.397 . S
C560 H541 0.950 . S
C560 C559 1.397 . S
C560 C561 1.391 . S
C561 C560 1.391 . S
C561 C562 1.405 . S
C562 H542 0.950 . S
C562 C561 1.405 . S
C562 C563 1.367 . S
C563 H543 0.950 . S
C563 C558 1.386 . S
C563 C562 1.367 . S
C564 C558 1.483 . S
C564 C565 1.382 . S
C564 C566 1.403 . S
C565 H544 0.950 . S
C565 C564 1.382 . S
C565 C581 1.411 . S
C566 C564 1.403 . S
C566 C567 1.489 . S
C566 C580 1.411 . S
C567 C566 1.489 . S
C567 C568 1.383 . S
C567 C572 1.382 . S
C568 H545 0.950 . S
C568 C567 1.383 . S
C568 C569 1.395 . S
C569 H546 0.950 . S
C569 C568 1.395 . S
C569 C570 1.288 . S
C570 C569 1.288 . S
C570 C571 1.392 . S
C571 H547 0.951 . S
C571 C570 1.392 . S
C571 C572 1.392 . S
C572 H548 0.949 . S
C572 C567 1.382 . S
C572 C571 1.392 . S
C573 C574 1.376 . S
C573 C578 1.386 . S
C573 C579 1.483 . S
C574 H549 0.949 . S
C574 C573 1.376 . S
C574 C575 1.397 . S
C575 H550 0.950 . S
C575 C574 1.397 . S
C575 C576 1.391 . S
C576 C575 1.391 . S
C576 C577 1.405 . S
C577 H551 0.950 . S
C577 C576 1.405 . S
C577 C578 1.367 . S
C578 H552 0.950 . S
C578 C573 1.386 . S
C578 C577 1.367 . S
C579 C573 1.483 . S
C579 C580 1.382 . S
C579 C581 1.403 . S
C580 H553 0.950 . S
C580 C566 1.411 . S
C580 C579 1.382 . S
C581 C565 1.411 . S
C581 C579 1.403 . S
C581 C582 1.489 . S
C582 C581 1.489 . S
C582 C583 1.383 . S
C582 C587 1.382 . S
C583 H554 0.950 . S
C583 C582 1.383 . S
C583 C584 1.395 . S
C584 H555 0.950 . S
C584 C583 1.395 . S
C584 C585 1.288 . S
C585 C584 1.288 . S
C585 C586 1.392 . S
C586 H556 0.951 . S
C586 C585 1.392 . S
C586 C587 1.392 . S
C587 H557 0.949 . S
C587 C582 1.382 . S
C587 C586 1.392 . S
H588 C607 0.949 . S
H589 C608 0.950 . S
H590 C610 0.950 . S
H591 C611 0.950 . S
H592 C613 0.950 . S
H593 C616 0.950 . S
H594 C617 0.950 . S
H595 C619 0.951 . S
H596 C620 0.949 . S
H597 C622 0.949 . S
H598 C623 0.950 . S
H599 C625 0.950 . S
H600 C626 0.950 . S
H601 C628 0.950 . S
H602 C631 0.950 . S
H603 C632 0.950 . S
H604 C634 0.951 . S
H605 C635 0.949 . S
C606 C607 1.376 . S
C606 C611 1.386 . S
C606 C612 1.483 . S
C607 H588 0.949 . S
C607 C606 1.376 . S
C607 C608 1.397 . S
C608 H589 0.950 . S
C608 C607 1.397 . S
C608 C609 1.391 . S
C609 C608 1.391 . S
C609 C610 1.405 . S
C610 H590 0.950 . S
C610 C609 1.405 . S
C610 C611 1.367 . S
C611 H591 0.950 . S
C611 C606 1.386 . S
C611 C610 1.367 . S
C612 C606 1.483 . S
C612 C613 1.382 . S
C612 C614 1.403 . S
C613 H592 0.950 . S
C613 C612 1.382 . S
C613 C629 1.411 . S
C614 C612 1.403 . S
C614 C615 1.489 . S
C614 C628 1.411 . S
C615 C614 1.489 . S
C615 C616 1.383 . S
C615 C620 1.382 . S
C616 H593 0.950 . S
C616 C615 1.383 . S
C616 C617 1.395 . S
C617 H594 0.950 . S
C617 C616 1.395 . S
C617 C618 1.288 . S
C618 C617 1.288 . S
C618 C619 1.392 . S
C619 H595 0.951 . S
C619 C618 1.392 . S
C619 C620 1.392 . S
C620 H596 0.949 . S
C620 C615 1.382 . S
C620 C619 1.392 . S
C621 C622 1.376 . S
C621 C626 1.386 . S
C621 C627 1.483 . S
C622 H597 0.949 . S
C622 C621 1.376 . S
C622 C623 1.397 . S
C623 H598 0.950 . S
C623 C622 1.397 . S
C623 C624 1.391 . S
C624 C623 1.391 . S
C624 C625 1.405 . S
C625 H599 0.950 . S
C625 C624 1.405 . S
C625 C626 1.367 . S
C626 H600 0.950 . S
C626 C621 1.386 . S
C626 C625 1.367 . S
C627 C621 1.483 . S
C627 C628 1.382 . S
C627 C629 1.403 . S
C628 H601 0.950 . S
C628 C614 1.411 . S
C628 C627 1.382 . S
C629 C613 1.411 . S
C629 C627 1.403 . S
C629 C630 1.489 . S
C630 C629 1.489 . S
C630 C631 1.383 . S
C630 C635 1.382 . S
C631 H602 0.950 . S
C631 C630 1.383 . S
C631 C632 1.395 . S
C632 H603 0.950 . S
C632 C631 1.395 . S
C632 C633 1.288 . S
C633 C632 1.288 . S
C633 C634 1.392 . S
C634 H604 0.951 . S
C634 C633 1.392 . S
C634 C635 1.392 . S
C635 H605 0.949 . S
C635 C630 1.382 . S
C635 C634 1.392 . S
H636 C655 0.949 . S
H637 C656 0.950 . S
H638 C658 0.950 . S
H639 C659 0.950 . S
H640 C661 0.950 . S
H641 C664 0.950 . S
H642 C665 0.950 . S
H643 C667 0.951 . S
H644 C668 0.949 . S
H645 C670 0.949 . S
H646 C671 0.950 . S
H647 C673 0.950 . S
H648 C674 0.950 . S
H649 C676 0.950 . S
H650 C679 0.950 . S
H651 C680 0.950 . S
H652 C682 0.951 . S
H653 C683 0.949 . S
C654 C655 1.376 . S
C654 C659 1.386 . S
C654 C660 1.483 . S
C655 H636 0.949 . S
C655 C654 1.376 . S
C655 C656 1.397 . S
C656 H637 0.950 . S
C656 C655 1.397 . S
C656 C657 1.391 . S
C657 C656 1.391 . S
C657 C658 1.405 . S
C658 H638 0.950 . S
C658 C657 1.405 . S
C658 C659 1.367 . S
C659 H639 0.950 . S
C659 C654 1.386 . S
C659 C658 1.367 . S
C660 C654 1.483 . S
C660 C661 1.382 . S
C660 C662 1.403 . S
C661 H640 0.950 . S
C661 C660 1.382 . S
C661 C677 1.411 . S
C662 C660 1.403 . S
C662 C663 1.489 . S
C662 C676 1.411 . S
C663 C662 1.489 . S
C663 C664 1.383 . S
C663 C668 1.382 . S
C664 H641 0.950 . S
C664 C663 1.383 . S
C664 C665 1.395 . S
C665 H642 0.950 . S
C665 C664 1.395 . S
C665 C666 1.288 . S
C666 C665 1.288 . S
C666 C667 1.392 . S
C667 H643 0.951 . S
C667 C666 1.392 . S
C667 C668 1.392 . S
C668 H644 0.949 . S
C668 C663 1.382 . S
C668 C667 1.392 . S
C669 C670 1.376 . S
C669 C674 1.386 . S
C669 C675 1.483 . S
C670 H645 0.949 . S
C670 C669 1.376 . S
C670 C671 1.397 . S
C671 H646 0.950 . S
C671 C670 1.397 . S
C671 C672 1.391 . S
C672 C671 1.391 . S
C672 C673 1.405 . S
C673 H647 0.950 . S
C673 C672 1.405 . S
C673 C674 1.367 . S
C674 H648 0.950 . S
C674 C669 1.386 . S
C674 C673 1.367 . S
C675 C669 1.483 . S
C675 C676 1.382 . S
C675 C677 1.403 . S
C676 H649 0.950 . S
C676 C662 1.411 . S
C676 C675 1.382 . S
C677 C661 1.411 . S
C677 C675 1.403 . S
C677 C678 1.489 . S
C678 C677 1.489 . S
C678 C679 1.383 . S
C678 C683 1.382 . S
C679 H650 0.950 . S
C679 C678 1.383 . S
C679 C680 1.395 . S
C680 H651 0.950 . S
C680 C679 1.395 . S
C680 C681 1.288 . S
C681 C680 1.288 . S
C681 C682 1.392 . S
C682 H652 0.951 . S
C682 C681 1.392 . S
C682 C683 1.392 . S
C683 H653 0.949 . S
C683 C678 1.382 . S
C683 C682 1.392 . S
H684 C703 0.949 . S
H685 C704 0.950 . S
H686 C706 0.950 . S
H687 C707 0.950 . S
H688 C709 0.950 . S
H689 C712 0.950 . S
H690 C713 0.950 . S
H691 C715 0.951 . S
H692 C716 0.949 . S
H693 C718 0.949 . S
H694 C719 0.950 . S
H695 C721 0.950 . S
H696 C722 0.950 . S
H697 C724 0.950 . S
H698 C727 0.950 . S
H699 C728 0.950 . S
H700 C730 0.951 . S
H701 C731 0.949 . S
C702 C703 1.376 . S
C702 C707 1.386 1_655 S
C702 C708 1.483 . S
C703 H684 0.949 . S
C703 C702 1.376 . S
C703 C704 1.397 . S
C704 H685 0.950 . S
C704 C703 1.397 . S
C704 C705 1.391 . S
C705 C704 1.391 . S
C705 C706 1.405 1_655 S
C706 H686 0.950 . S
C706 C705 1.405 1_455 S
C706 C707 1.367 . S
C707 H687 0.950 . S
C707 C702 1.386 1_455 S
C707 C706 1.367 . S
C708 C702 1.483 . S
C708 C709 1.382 . S
C708 C710 1.403 1_655 S
C709 H688 0.950 . S
C709 C708 1.382 . S
C709 C725 1.411 . S
C710 C708 1.403 1_455 S
C710 C711 1.489 . S
C710 C724 1.411 . S
C711 C710 1.489 . S
C711 C712 1.383 1_455 S
C711 C716 1.382 . S
C712 H689 0.950 . S
C712 C711 1.383 1_655 S
C712 C713 1.395 . S
C713 H690 0.950 . S
C713 C712 1.395 . S
C713 C714 1.288 1_655 S
C714 C713 1.288 1_455 S
C714 C715 1.392 . S
C715 H691 0.951 . S
C715 C714 1.392 . S
C715 C716 1.392 . S
C716 H692 0.949 . S
C716 C711 1.382 . S
C716 C715 1.392 . S
C717 C718 1.376 . S
C717 C722 1.386 1_455 S
C717 C723 1.483 . S
C718 H693 0.949 . S
C718 C717 1.376 . S
C718 C719 1.397 . S
C719 H694 0.950 . S
C719 C718 1.397 . S
C719 C720 1.391 . S
C720 C719 1.391 . S
C720 C721 1.405 1_455 S
C721 H695 0.950 . S
C721 C720 1.405 1_655 S
C721 C722 1.367 . S
C722 H696 0.950 . S
C722 C717 1.386 1_655 S
C722 C721 1.367 . S
C723 C717 1.483 . S
C723 C724 1.382 . S
C723 C725 1.403 1_455 S
C724 H697 0.950 . S
C724 C710 1.411 . S
C724 C723 1.382 . S
C725 C709 1.411 . S
C725 C723 1.403 1_655 S
C725 C726 1.489 . S
C726 C725 1.489 . S
C726 C727 1.383 1_655 S
C726 C731 1.382 . S
C727 H698 0.950 . S
C727 C726 1.383 1_455 S
C727 C728 1.395 . S
C728 H699 0.950 . S
C728 C727 1.395 . S
C728 C729 1.288 1_455 S
C729 C728 1.288 1_655 S
C729 C730 1.392 . S
C730 H700 0.951 . S
C730 C729 1.392 . S
C730 C731 1.392 . S
C731 H701 0.949 . S
C731 C726 1.382 . S
C731 C730 1.392 . S
H732 C751 0.949 . S
H733 C752 0.950 . S
H734 C754 0.950 . S
H735 C755 0.950 . S
H736 C757 0.950 . S
H737 C760 0.950 . S
H738 C761 0.950 . S
H739 C763 0.951 . S
H740 C764 0.949 . S
H741 C766 0.949 . S
H742 C767 0.950 . S
H743 C769 0.950 . S
H744 C770 0.950 . S
H745 C772 0.950 . S
H746 C775 0.950 . S
H747 C776 0.950 . S
H748 C778 0.951 . S
H749 C779 0.949 . S
C750 C751 1.376 . S
C750 C755 1.386 . S
C750 C756 1.483 . S
C751 H732 0.949 . S
C751 C750 1.376 . S
C751 C752 1.397 . S
C752 H733 0.950 . S
C752 C751 1.397 . S
C752 C753 1.391 . S
C753 C752 1.391 . S
C753 C754 1.405 . S
C754 H734 0.950 . S
C754 C753 1.405 . S
C754 C755 1.367 . S
C755 H735 0.950 . S
C755 C750 1.386 . S
C755 C754 1.367 . S
C756 C750 1.483 . S
C756 C757 1.382 . S
C756 C758 1.403 . S
C757 H736 0.950 . S
C757 C756 1.382 . S
C757 C773 1.411 . S
C758 C756 1.403 . S
C758 C759 1.489 . S
C758 C772 1.411 . S
C759 C758 1.489 . S
C759 C760 1.383 . S
C759 C764 1.382 . S
C760 H737 0.950 . S
C760 C759 1.383 . S
C760 C761 1.395 . S
C761 H738 0.950 . S
C761 C760 1.395 . S
C761 C762 1.288 . S
C762 C761 1.288 . S
C762 C763 1.392 . S
C763 H739 0.951 . S
C763 C762 1.392 . S
C763 C764 1.392 . S
C764 H740 0.949 . S
C764 C759 1.382 . S
C764 C763 1.392 . S
C765 C766 1.376 . S
C765 C770 1.386 . S
C765 C771 1.483 . S
C766 H741 0.949 . S
C766 C765 1.376 . S
C766 C767 1.397 . S
C767 H742 0.950 . S
C767 C766 1.397 . S
C767 C768 1.391 . S
C768 C767 1.391 . S
C768 C769 1.405 . S
C769 H743 0.950 . S
C769 C768 1.405 . S
C769 C770 1.367 . S
C770 H744 0.950 . S
C770 C765 1.386 . S
C770 C769 1.367 . S
C771 C765 1.483 . S
C771 C772 1.382 . S
C771 C773 1.403 . S
C772 H745 0.950 . S
C772 C758 1.411 . S
C772 C771 1.382 . S
C773 C757 1.411 . S
C773 C771 1.403 . S
C773 C774 1.489 . S
C774 C773 1.489 . S
C774 C775 1.383 . S
C774 C779 1.382 . S
C775 H746 0.950 . S
C775 C774 1.383 . S
C775 C776 1.395 . S
C776 H747 0.950 . S
C776 C775 1.395 . S
C776 C777 1.288 . S
C777 C776 1.288 . S
C777 C778 1.392 . S
C778 H748 0.951 . S
C778 C777 1.392 . S
C778 C779 1.392 . S
C779 H749 0.949 . S
C779 C774 1.382 . S
C779 C778 1.392 . S
H780 C799 0.949 . S
H781 C800 0.950 . S
H782 C802 0.950 . S
H783 C803 0.950 . S
H784 C805 0.950 . S
H785 C808 0.950 . S
H786 C809 0.950 . S
H787 C811 0.951 . S
H788 C812 0.949 . S
H789 C814 0.949 . S
H790 C815 0.950 . S
H791 C817 0.950 . S
H792 C818 0.950 . S
H793 C820 0.950 . S
H794 C823 0.950 . S
H795 C824 0.950 . S
H796 C826 0.951 . S
H797 C827 0.949 . S
C798 C799 1.376 . S
C798 C803 1.386 1_545 S
C798 C804 1.483 . S
C799 H780 0.949 . S
C799 C798 1.376 . S
C799 C800 1.397 . S
C800 H781 0.950 . S
C800 C799 1.397 . S
C800 C801 1.391 . S
C801 C800 1.391 . S
C801 C802 1.405 1_545 S
C802 H782 0.950 . S
C802 C801 1.405 1_565 S
C802 C803 1.367 . S
C803 H783 0.950 . S
C803 C798 1.386 1_565 S
C803 C802 1.367 . S
C804 C798 1.483 . S
C804 C805 1.382 . S
C804 C806 1.403 1_545 S
C805 H784 0.950 . S
C805 C804 1.382 . S
C805 C821 1.411 . S
C806 C804 1.403 1_565 S
C806 C807 1.489 . S
C806 C820 1.411 . S
C807 C806 1.489 . S
C807 C808 1.383 1_565 S
C807 C812 1.382 . S
C808 H785 0.950 . S
C808 C807 1.383 1_545 S
C808 C809 1.395 . S
C809 H786 0.950 . S
C809 C808 1.395 . S
C809 C810 1.288 1_545 S
C810 C809 1.288 1_565 S
C810 C811 1.392 . S
C811 H787 0.951 . S
C811 C810 1.392 . S
C811 C812 1.392 . S
C812 H788 0.949 . S
C812 C807 1.382 . S
C812 C811 1.392 . S
C813 C814 1.376 . S
C813 C818 1.386 1_565 S
C813 C819 1.483 . S
C814 H789 0.949 . S
C814 C813 1.376 . S
C814 C815 1.397 . S
C815 H790 0.950 . S
C815 C814 1.397 . S
C815 C816 1.391 . S
C816 C815 1.391 . S
C816 C817 1.405 1_565 S
C817 H791 0.950 . S
C817 C816 1.405 1_545 S
C817 C818 1.367 . S
C818 H792 0.950 . S
C818 C813 1.386 1_545 S
C818 C817 1.367 . S
C819 C813 1.483 . S
C819 C820 1.382 . S
C819 C821 1.403 1_565 S
C820 H793 0.950 . S
C820 C806 1.411 . S
C820 C819 1.382 . S
C821 C805 1.411 . S
C821 C819 1.403 1_545 S
C821 C822 1.489 . S
C822 C821 1.489 . S
C822 C823 1.383 1_545 S
C822 C827 1.382 . S
C823 H794 0.950 . S
C823 C822 1.383 1_565 S
C823 C824 1.395 . S
C824 H795 0.950 . S
C824 C823 1.395 . S
C824 C825 1.288 1_565 S
C825 C824 1.288 1_545 S
C825 C826 1.392 . S
C826 H796 0.951 . S
C826 C825 1.392 . S
C826 C827 1.392 . S
C827 H797 0.949 . S
C827 C822 1.382 . S
C827 C826 1.392 . S
H828 C847 0.949 . S
H829 C848 0.950 . S
H830 C850 0.950 . S
H831 C851 0.950 . S
H832 C853 0.950 . S
H833 C856 0.950 . S
H834 C857 0.950 . S
H835 C859 0.951 . S
H836 C860 0.949 . S
H837 C862 0.949 . S
H838 C863 0.950 . S
H839 C865 0.950 . S
H840 C866 0.950 . S
H841 C868 0.950 . S
H842 C871 0.950 . S
H843 C872 0.950 . S
H844 C874 0.951 . S
H845 C875 0.949 . S
C846 C847 1.393 . S
C846 C851 1.378 1_545 S
C846 C852 1.502 . S
C847 H828 0.949 . S
C847 C846 1.393 . S
C847 C848 1.397 . S
C848 H829 0.950 . S
C848 C847 1.397 . S
C848 C849 1.391 1_545 S
C849 C848 1.391 1_565 S
C849 C850 1.405 . S
C850 H830 0.950 . S
C850 C849 1.405 . S
C850 C851 1.367 . S
C851 H831 0.950 . S
C851 C846 1.378 1_565 S
C851 C850 1.367 . S
C852 C846 1.502 . S
C852 C853 1.355 . S
C852 C854 1.399 1_545 S
C853 H832 0.950 . S
C853 C852 1.355 . S
C853 C869 1.444 . S
C854 C852 1.399 1_565 S
C854 C855 1.482 . S
C854 C868 1.435 . S
C855 C854 1.482 . S
C855 C856 1.352 1_565 S
C855 C860 1.398 . S
C856 H833 0.950 . S
C856 C855 1.352 1_545 S
C856 C857 1.395 . S
C857 H834 0.950 . S
C857 C856 1.395 . S
C857 C858 1.288 . S
C858 C857 1.288 . S
C858 C859 1.392 1_545 S
C859 H835 0.951 . S
C859 C858 1.392 1_565 S
C859 C860 1.392 . S
C860 H836 0.949 . S
C860 C855 1.398 . S
C860 C859 1.392 . S
C861 C862 1.381 . S
C861 C866 1.384 1_565 S
C861 C867 1.502 . S
C862 H837 0.949 . S
C862 C861 1.381 . S
C862 C863 1.397 . S
C863 H838 0.950 . S
C863 C862 1.397 . S
C863 C864 1.391 1_565 S
C864 C863 1.391 1_545 S
C864 C865 1.405 . S
C865 H839 0.950 . S
C865 C864 1.405 . S
C865 C866 1.367 . S
C866 H840 0.950 . S
C866 C861 1.384 1_545 S
C866 C865 1.367 . S
C867 C861 1.502 . S
C867 C868 1.361 . S
C867 C869 1.399 1_565 S
C868 H841 0.950 . S
C868 C854 1.435 . S
C868 C867 1.361 . S
C869 C853 1.444 . S
C869 C867 1.399 1_545 S
C869 C870 1.482 . S
C870 C869 1.482 . S
C870 C871 1.336 1_545 S
C870 C875 1.407 . S
C871 H842 0.950 . S
C871 C870 1.336 1_565 S
C871 C872 1.395 . S
C872 H843 0.950 . S
C872 C871 1.395 . S
C872 C873 1.288 . S
C873 C872 1.288 . S
C873 C874 1.392 1_565 S
C874 H844 0.951 . S
C874 C873 1.392 1_545 S
C874 C875 1.392 . S
C875 H845 0.949 . S
C875 C870 1.407 . S
C875 C874 1.392 . S
H876 C895 0.949 . S
H877 C896 0.950 . S
H878 C898 0.950 . S
H879 C899 0.950 . S
H880 C901 0.950 . S
H881 C904 0.950 . S
H882 C905 0.950 . S
H883 C907 0.951 . S
H884 C908 0.949 . S
H885 C910 0.949 . S
H886 C911 0.950 . S
H887 C913 0.950 . S
H888 C914 0.950 . S
H889 C916 0.950 . S
H890 C919 0.950 . S
H891 C920 0.950 . S
H892 C922 0.951 . S
H893 C923 0.949 . S
C894 C895 1.376 . S
C894 C899 1.386 1_455 S
C894 C900 1.483 . S
C895 H876 0.949 . S
C895 C894 1.376 . S
C895 C896 1.397 . S
C896 H877 0.950 . S
C896 C895 1.397 . S
C896 C897 1.391 . S
C897 C896 1.391 . S
C897 C898 1.405 1_455 S
C898 H878 0.950 . S
C898 C897 1.405 1_655 S
C898 C899 1.367 . S
C899 H879 0.950 . S
C899 C894 1.386 1_655 S
C899 C898 1.367 . S
C900 C894 1.483 . S
C900 C901 1.382 . S
C900 C902 1.403 1_455 S
C901 H880 0.950 . S
C901 C900 1.382 . S
C901 C917 1.411 . S
C902 C900 1.403 1_655 S
C902 C903 1.489 . S
C902 C916 1.411 . S
C903 C902 1.489 . S
C903 C904 1.383 1_655 S
C903 C908 1.382 . S
C904 H881 0.950 . S
C904 C903 1.383 1_455 S
C904 C905 1.395 . S
C905 H882 0.950 . S
C905 C904 1.395 . S
C905 C906 1.288 1_455 S
C906 C905 1.288 1_655 S
C906 C907 1.392 . S
C907 H883 0.951 . S
C907 C906 1.392 . S
C907 C908 1.392 . S
C908 H884 0.949 . S
C908 C903 1.382 . S
C908 C907 1.392 . S
C909 C910 1.376 . S
C909 C914 1.386 1_655 S
C909 C915 1.483 . S
C910 H885 0.949 . S
C910 C909 1.376 . S
C910 C911 1.397 . S
C911 H886 0.950 . S
C911 C910 1.397 . S
C911 C912 1.391 . S
C912 C911 1.391 . S
C912 C913 1.405 1_655 S
C913 H887 0.950 . S
C913 C912 1.405 1_455 S
C913 C914 1.367 . S
C914 H888 0.950 . S
C914 C909 1.386 1_455 S
C914 C913 1.367 . S
C915 C909 1.483 . S
C915 C916 1.382 . S
C915 C917 1.403 1_655 S
C916 H889 0.950 . S
C916 C902 1.411 . S
C916 C915 1.382 . S
C917 C901 1.411 . S
C917 C915 1.403 1_455 S
C917 C918 1.489 . S
C918 C917 1.489 . S
C918 C919 1.383 1_455 S
C918 C923 1.382 . S
C919 H890 0.950 . S
C919 C918 1.383 1_655 S
C919 C920 1.395 . S
C920 H891 0.950 . S
C920 C919 1.395 . S
C920 C921 1.288 1_655 S
C921 C920 1.288 1_455 S
C921 C922 1.392 . S
C922 H892 0.951 . S
C922 C921 1.392 . S
C922 C923 1.392 . S
C923 H893 0.949 . S
C923 C918 1.382 . S
C923 C922 1.392 . S
H924 C943 0.949 . S
H925 C944 0.950 . S
H926 C946 0.950 . S
H927 C947 0.950 . S
H928 C949 0.950 . S
H929 C952 0.950 . S
H930 C953 0.950 . S
H931 C955 0.951 . S
H932 C956 0.949 . S
H933 C958 0.949 . S
H934 C959 0.950 . S
H935 C961 0.950 . S
H936 C962 0.950 . S
H937 C964 0.950 . S
H938 C967 0.950 . S
H939 C968 0.950 . S
H940 C970 0.951 . S
H941 C971 0.949 . S
C942 C943 1.376 . S
C942 C947 1.386 . S
C942 C948 1.483 . S
C943 H924 0.949 . S
C943 C942 1.376 . S
C943 C944 1.397 . S
C944 H925 0.950 . S
C944 C943 1.397 . S
C944 C945 1.391 . S
C945 C944 1.391 . S
C945 C946 1.405 . S
C946 H926 0.950 . S
C946 C945 1.405 . S
C946 C947 1.367 . S
C947 H927 0.950 . S
C947 C942 1.386 . S
C947 C946 1.367 . S
C948 C942 1.483 . S
C948 C949 1.382 . S
C948 C950 1.403 . S
C949 H928 0.950 . S
C949 C948 1.382 . S
C949 C965 1.411 . S
C950 C948 1.403 . S
C950 C951 1.489 . S
C950 C964 1.411 . S
C951 C950 1.489 . S
C951 C952 1.383 . S
C951 C956 1.382 . S
C952 H929 0.950 . S
C952 C951 1.383 . S
C952 C953 1.395 . S
C953 H930 0.950 . S
C953 C952 1.395 . S
C953 C954 1.288 . S
C954 C953 1.288 . S
C954 C955 1.392 . S
C955 H931 0.951 . S
C955 C954 1.392 . S
C955 C956 1.392 . S
C956 H932 0.949 . S
C956 C951 1.382 . S
C956 C955 1.392 . S
C957 C958 1.376 . S
C957 C962 1.386 . S
C957 C963 1.483 . S
C958 H933 0.949 . S
C958 C957 1.376 . S
C958 C959 1.397 . S
C959 H934 0.950 . S
C959 C958 1.397 . S
C959 C960 1.391 . S
C960 C959 1.391 . S
C960 C961 1.405 . S
C961 H935 0.950 . S
C961 C960 1.405 . S
C961 C962 1.367 . S
C962 H936 0.950 . S
C962 C957 1.386 . S
C962 C961 1.367 . S
C963 C957 1.483 . S
C963 C964 1.382 . S
C963 C965 1.403 . S
C964 H937 0.950 . S
C964 C950 1.411 . S
C964 C963 1.382 . S
C965 C949 1.411 . S
C965 C963 1.403 . S
C965 C966 1.489 . S
C966 C965 1.489 . S
C966 C967 1.383 . S
C966 C971 1.382 . S
C967 H938 0.950 . S
C967 C966 1.383 . S
C967 C968 1.395 . S
C968 H939 0.950 . S
C968 C967 1.395 . S
C968 C969 1.288 . S
C969 C968 1.288 . S
C969 C970 1.392 . S
C970 H940 0.951 . S
C970 C969 1.392 . S
C970 C971 1.392 . S
C971 H941 0.949 . S
C971 C966 1.382 . S
C971 C970 1.392 . S
H972 C991 0.949 . S
H973 C992 0.950 . S
H974 C994 0.950 . S
H975 C995 0.950 . S
H976 C997 0.950 . S
H977 C1000 0.950 . S
H978 C1001 0.950 . S
H979 C1003 0.951 . S
H980 C1004 0.949 . S
H981 C1006 0.949 . S
H982 C1007 0.950 . S
H983 C1009 0.950 . S
H984 C1010 0.950 . S
H985 C1012 0.950 . S
H986 C1015 0.950 . S
H987 C1016 0.950 . S
H988 C1018 0.951 . S
H989 C1019 0.949 . S
C990 C991 1.376 . S
C990 C995 1.386 . S
C990 C996 1.483 . S
C991 H972 0.949 . S
C991 C990 1.376 . S
C991 C992 1.397 . S
C992 H973 0.950 . S
C992 C991 1.397 . S
C992 C993 1.391 . S
C993 C992 1.391 . S
C993 C994 1.405 . S
C994 H974 0.950 . S
C994 C993 1.405 . S
C994 C995 1.367 . S
C995 H975 0.950 . S
C995 C990 1.386 . S
C995 C994 1.367 . S
C996 C990 1.483 . S
C996 C997 1.382 . S
C996 C998 1.403 . S
C997 H976 0.950 . S
C997 C996 1.382 . S
C997 C1013 1.411 . S
C998 C996 1.403 . S
C998 C999 1.489 . S
C998 C1012 1.411 . S
C999 C998 1.489 . S
C999 C1000 1.383 . S
C999 C1004 1.382 . S
C1000 H977 0.950 . S
C1000 C999 1.383 . S
C1000 C1001 1.395 . S
C1001 H978 0.950 . S
C1001 C1000 1.395 . S
C1001 C1002 1.288 . S
C1002 C1001 1.288 . S
C1002 C1003 1.392 . S
C1003 H979 0.951 . S
C1003 C1002 1.392 . S
C1003 C1004 1.392 . S
C1004 H980 0.949 . S
C1004 C999 1.382 . S
C1004 C1003 1.392 . S
C1005 C1006 1.376 . S
C1005 C1010 1.386 . S
C1005 C1011 1.483 . S
C1006 H981 0.949 . S
C1006 C1005 1.376 . S
C1006 C1007 1.397 . S
C1007 H982 0.950 . S
C1007 C1006 1.397 . S
C1007 C1008 1.391 . S
C1008 C1007 1.391 . S
C1008 C1009 1.405 . S
C1009 H983 0.950 . S
C1009 C1008 1.405 . S
C1009 C1010 1.367 . S
C1010 H984 0.950 . S
C1010 C1005 1.386 . S
C1010 C1009 1.367 . S
C1011 C1005 1.483 . S
C1011 C1012 1.382 . S
C1011 C1013 1.403 . S
C1012 H985 0.950 . S
C1012 C998 1.411 . S
C1012 C1011 1.382 . S
C1013 C997 1.411 . S
C1013 C1011 1.403 . S
C1013 C1014 1.489 . S
C1014 C1013 1.489 . S
C1014 C1015 1.383 . S
C1014 C1019 1.382 . S
C1015 H986 0.950 . S
C1015 C1014 1.383 . S
C1015 C1016 1.395 . S
C1016 H987 0.950 . S
C1016 C1015 1.395 . S
C1016 C1017 1.288 . S
C1017 C1016 1.288 . S
C1017 C1018 1.392 . S
C1018 H988 0.951 . S
C1018 C1017 1.392 . S
C1018 C1019 1.392 . S
C1019 H989 0.949 . S
C1019 C1014 1.382 . S
C1019 C1018 1.392 . S
H1020 C1039 0.949 . S
H1021 C1040 0.950 . S
H1022 C1042 0.950 . S
H1023 C1043 0.950 . S
H1024 C1045 0.950 . S
H1025 C1048 0.950 . S
H1026 C1049 0.950 . S
H1027 C1051 0.951 . S
H1028 C1052 0.949 . S
H1029 C1054 0.949 . S
H1030 C1055 0.950 . S
H1031 C1057 0.950 . S
H1032 C1058 0.950 . S
H1033 C1060 0.950 . S
H1034 C1063 0.950 . S
H1035 C1064 0.950 . S
H1036 C1066 0.951 . S
H1037 C1067 0.949 . S
C1038 C1039 1.376 . S
C1038 C1043 1.386 . S
C1038 C1044 1.483 . S
C1039 H1020 0.949 . S
C1039 C1038 1.376 . S
C1039 C1040 1.397 . S
C1040 H1021 0.950 . S
C1040 C1039 1.397 . S
C1040 C1041 1.391 . S
C1041 C1040 1.391 . S
C1041 C1042 1.405 . S
C1042 H1022 0.950 . S
C1042 C1041 1.405 . S
C1042 C1043 1.367 . S
C1043 H1023 0.950 . S
C1043 C1038 1.386 . S
C1043 C1042 1.367 . S
C1044 C1038 1.483 . S
C1044 C1045 1.382 . S
C1044 C1046 1.403 . S
C1045 H1024 0.950 . S
C1045 C1044 1.382 . S
C1045 C1061 1.411 . S
C1046 C1044 1.403 . S
C1046 C1047 1.489 . S
C1046 C1060 1.411 . S
C1047 C1046 1.489 . S
C1047 C1048 1.383 . S
C1047 C1052 1.382 . S
C1048 H1025 0.950 . S
C1048 C1047 1.383 . S
C1048 C1049 1.395 . S
C1049 H1026 0.950 . S
C1049 C1048 1.395 . S
C1049 C1050 1.288 . S
C1050 C1049 1.288 . S
C1050 C1051 1.392 . S
C1051 H1027 0.951 . S
C1051 C1050 1.392 . S
C1051 C1052 1.392 . S
C1052 H1028 0.949 . S
C1052 C1047 1.382 . S
C1052 C1051 1.392 . S
C1053 C1054 1.376 . S
C1053 C1058 1.386 . S
C1053 C1059 1.483 . S
C1054 H1029 0.949 . S
C1054 C1053 1.376 . S
C1054 C1055 1.397 . S
C1055 H1030 0.950 . S
C1055 C1054 1.397 . S
C1055 C1056 1.391 . S
C1056 C1055 1.391 . S
C1056 C1057 1.405 . S
C1057 H1031 0.950 . S
C1057 C1056 1.405 . S
C1057 C1058 1.367 . S
C1058 H1032 0.950 . S
C1058 C1053 1.386 . S
C1058 C1057 1.367 . S
C1059 C1053 1.483 . S
C1059 C1060 1.382 . S
C1059 C1061 1.403 . S
C1060 H1033 0.950 . S
C1060 C1046 1.411 . S
C1060 C1059 1.382 . S
C1061 C1045 1.411 . S
C1061 C1059 1.403 . S
C1061 C1062 1.489 . S
C1062 C1061 1.489 . S
C1062 C1063 1.383 . S
C1062 C1067 1.382 . S
C1063 H1034 0.950 . S
C1063 C1062 1.383 . S
C1063 C1064 1.395 . S
C1064 H1035 0.950 . S
C1064 C1063 1.395 . S
C1064 C1065 1.288 . S
C1065 C1064 1.288 . S
C1065 C1066 1.392 . S
C1066 H1036 0.951 . S
C1066 C1065 1.392 . S
C1066 C1067 1.392 . S
C1067 H1037 0.949 . S
C1067 C1062 1.382 . S
C1067 C1066 1.392 . S
H1068 C1087 0.949 . S
H1069 C1088 0.950 . S
H1070 C1090 0.950 . S
H1071 C1091 0.950 . S
H1072 C1093 0.950 . S
H1073 C1096 0.950 . S
H1074 C1097 0.950 . S
H1075 C1099 0.951 . S
H1076 C1100 0.949 . S
H1077 C1102 0.949 . S
H1078 C1103 0.950 . S
H1079 C1105 0.950 . S
H1080 C1106 0.950 . S
H1081 C1108 0.950 . S
H1082 C1111 0.950 . S
H1083 C1112 0.950 . S
H1084 C1114 0.951 . S
H1085 C1115 0.949 . S
C1086 C1087 1.376 . S
C1086 C1091 1.386 . S
C1086 C1092 1.483 . S
C1087 H1068 0.949 . S
C1087 C1086 1.376 . S
C1087 C1088 1.397 . S
C1088 H1069 0.950 . S
C1088 C1087 1.397 . S
C1088 C1089 1.391 . S
C1089 C1088 1.391 . S
C1089 C1090 1.405 . S
C1090 H1070 0.950 . S
C1090 C1089 1.405 . S
C1090 C1091 1.367 . S
C1091 H1071 0.950 . S
C1091 C1086 1.386 . S
C1091 C1090 1.367 . S
C1092 C1086 1.483 . S
C1092 C1093 1.382 . S
C1092 C1094 1.403 . S
C1093 H1072 0.950 . S
C1093 C1092 1.382 . S
C1093 C1109 1.411 . S
C1094 C1092 1.403 . S
C1094 C1095 1.489 . S
C1094 C1108 1.411 . S
C1095 C1094 1.489 . S
C1095 C1096 1.383 . S
C1095 C1100 1.382 . S
C1096 H1073 0.950 . S
C1096 C1095 1.383 . S
C1096 C1097 1.395 . S
C1097 H1074 0.950 . S
C1097 C1096 1.395 . S
C1097 C1098 1.288 . S
C1098 C1097 1.288 . S
C1098 C1099 1.392 . S
C1099 H1075 0.951 . S
C1099 C1098 1.392 . S
C1099 C1100 1.392 . S
C1100 H1076 0.949 . S
C1100 C1095 1.382 . S
C1100 C1099 1.392 . S
C1101 C1102 1.376 . S
C1101 C1106 1.386 . S
C1101 C1107 1.483 . S
C1102 H1077 0.949 . S
C1102 C1101 1.376 . S
C1102 C1103 1.397 . S
C1103 H1078 0.950 . S
C1103 C1102 1.397 . S
C1103 C1104 1.391 . S
C1104 C1103 1.391 . S
C1104 C1105 1.405 . S
C1105 H1079 0.950 . S
C1105 C1104 1.405 . S
C1105 C1106 1.367 . S
C1106 H1080 0.950 . S
C1106 C1101 1.386 . S
C1106 C1105 1.367 . S
C1107 C1101 1.483 . S
C1107 C1108 1.382 . S
C1107 C1109 1.403 . S
C1108 H1081 0.950 . S
C1108 C1094 1.411 . S
C1108 C1107 1.382 . S
C1109 C1093 1.411 . S
C1109 C1107 1.403 . S
C1109 C1110 1.489 . S
C1110 C1109 1.489 . S
C1110 C1111 1.383 . S
C1110 C1115 1.382 . S
C1111 H1082 0.950 . S
C1111 C1110 1.383 . S
C1111 C1112 1.395 . S
C1112 H1083 0.950 . S
C1112 C1111 1.395 . S
C1112 C1113 1.288 . S
C1113 C1112 1.288 . S
C1113 C1114 1.392 . S
C1114 H1084 0.951 . S
C1114 C1113 1.392 . S
C1114 C1115 1.392 . S
C1115 H1085 0.949 . S
C1115 C1110 1.382 . S
C1115 C1114 1.392 . S
H1116 C1122 0.930 . S
H1117 C1125 0.930 . S
H1118 C1126 0.930 . S
H1119 C1127 0.930 . S
H1120 C1130 0.930 . S
H1121 C1131 0.930 . S
C1122 H1116 0.930 . S
C1122 C1123 1.355 . S
C1122 C1124 1.415 . S
C1123 C1122 1.355 . S
C1123 C1125 1.419 1_655 S
C1124 C1122 1.415 . S
C1124 C1129 1.425 1_655 S
C1124 C1131 1.409 . S
C1125 H1117 0.930 . S
C1125 C1123 1.419 1_455 S
C1125 C1126 1.362 . S
C1126 H1118 0.930 . S
C1126 C1125 1.362 . S
C1126 C1129 1.409 . S
C1127 H1119 0.930 . S
C1127 C1128 1.355 1_455 S
C1127 C1129 1.415 . S
C1128 C1127 1.355 1_655 S
C1128 C1130 1.419 . S
C1129 C1124 1.425 1_455 S
C1129 C1126 1.409 . S
C1129 C1127 1.415 . S
C1130 H1120 0.930 . S
C1130 C1128 1.419 . S
C1130 C1131 1.362 . S
C1131 H1121 0.930 . S
C1131 C1124 1.409 . S
C1131 C1130 1.362 . S
H1132 C1138 0.930 . S
H1133 C1141 0.930 . S
H1134 C1142 0.930 . S
H1135 C1143 0.930 . S
H1136 C1146 0.930 . S
H1137 C1147 0.930 . S
C1138 H1132 0.930 . S
C1138 C1139 1.355 . S
C1138 C1140 1.415 . S
C1139 C1138 1.355 . S
C1139 C1141 1.419 . S
C1140 C1138 1.415 . S
C1140 C1145 1.425 . S
C1140 C1147 1.409 . S
C1141 H1133 0.930 . S
C1141 C1139 1.419 . S
C1141 C1142 1.362 . S
C1142 H1134 0.930 . S
C1142 C1141 1.362 . S
C1142 C1145 1.409 . S
C1143 H1135 0.930 . S
C1143 C1144 1.355 . S
C1143 C1145 1.415 . S
C1144 C1143 1.355 . S
C1144 C1146 1.419 . S
C1145 C1140 1.425 . S
C1145 C1142 1.409 . S
C1145 C1143 1.415 . S
C1146 H1136 0.930 . S
C1146 C1144 1.419 . S
C1146 C1147 1.362 . S
C1147 H1137 0.930 . S
C1147 C1140 1.409 . S
C1147 C1146 1.362 . S
H1148 C1154 0.930 . S
H1149 C1157 0.932 . S
H1150 C1158 0.900 1_565 S
H1151 C1159 0.930 1_565 S
H1152 C1162 0.930 . S
H1153 C1163 0.930 . S
C1154 H1148 0.930 . S
C1154 C1155 1.355 . S
C1154 C1156 1.415 . S
C1155 C1154 1.355 . S
C1155 C1157 1.419 . S
C1156 C1154 1.415 . S
C1156 C1161 1.425 . S
C1156 C1163 1.409 . S
C1157 H1149 0.932 . S
C1157 C1155 1.419 . S
C1157 C1158 1.389 . S
C1158 H1150 0.900 1_545 S
C1158 C1157 1.389 . S
C1158 C1161 1.415 . S
C1159 H1151 0.930 1_545 S
C1159 C1160 1.355 . S
C1159 C1161 1.415 . S
C1160 C1159 1.355 . S
C1160 C1162 1.419 . S
C1161 C1156 1.425 . S
C1161 C1158 1.415 . S
C1161 C1159 1.415 . S
C1162 H1152 0.930 . S
C1162 C1160 1.419 . S
C1162 C1163 1.362 . S
C1163 H1153 0.930 . S
C1163 C1156 1.409 . S
C1163 C1162 1.362 . S
H1164 C1170 0.930 . S
H1165 C1173 0.930 . S
H1166 C1174 0.930 . S
H1167 C1175 0.930 . S
H1168 C1178 0.930 . S
H1169 C1179 0.930 . S
C1170 H1164 0.930 . S
C1170 C1171 1.355 . S
C1170 C1172 1.415 . S
C1171 C1170 1.355 . S
C1171 C1173 1.419 . S
C1172 C1170 1.415 . S
C1172 C1177 1.425 . S
C1172 C1179 1.409 . S
C1173 H1165 0.930 . S
C1173 C1171 1.419 . S
C1173 C1174 1.362 . S
C1174 H1166 0.930 . S
C1174 C1173 1.362 . S
C1174 C1177 1.409 . S
C1175 H1167 0.930 . S
C1175 C1176 1.355 . S
C1175 C1177 1.415 . S
C1176 C1175 1.355 . S
C1176 C1178 1.419 . S
C1177 C1172 1.425 . S
C1177 C1174 1.409 . S
C1177 C1175 1.415 . S
C1178 H1168 0.930 . S
C1178 C1176 1.419 . S
C1178 C1179 1.362 . S
C1179 H1169 0.930 . S
C1179 C1172 1.409 . S
C1179 C1178 1.362 . S
H1180 C1186 0.930 . S
H1181 C1189 0.930 . S
H1182 C1190 0.930 . S
H1183 C1191 0.930 . S
H1184 C1194 0.930 . S
H1185 C1195 0.930 . S
C1186 H1180 0.930 . S
C1186 C1187 1.355 1_655 S
C1186 C1188 1.406 . S
C1187 C1186 1.355 1_455 S
C1187 C1189 1.419 . S
C1188 C1186 1.406 . S
C1188 C1193 1.424 1_655 S
C1188 C1195 1.419 . S
C1189 H1181 0.930 . S
C1189 C1187 1.419 . S
C1189 C1190 1.362 . S
C1190 H1182 0.930 . S
C1190 C1189 1.362 . S
C1190 C1193 1.409 . S
C1191 H1183 0.930 . S
C1191 C1192 1.355 . S
C1191 C1193 1.415 . S
C1192 C1191 1.355 . S
C1192 C1194 1.419 1_455 S
C1193 C1188 1.424 1_455 S
C1193 C1190 1.409 . S
C1193 C1191 1.415 . S
C1194 H1184 0.930 . S
C1194 C1192 1.419 1_655 S
C1194 C1195 1.362 . S
C1195 H1185 0.930 . S
C1195 C1188 1.419 . S
C1195 C1194 1.362 . S
H1196 C1202 0.930 . S
H1197 C1205 0.930 . S
H1198 C1206 0.930 . S
H1199 C1207 0.930 . S
H1200 C1210 0.930 . S
H1201 C1211 0.930 . S
C1202 H1196 0.930 . S
C1202 C1203 1.355 . S
C1202 C1204 1.415 . S
C1203 C1202 1.355 . S
C1203 C1205 1.419 . S
C1204 C1202 1.415 . S
C1204 C1209 1.425 . S
C1204 C1211 1.409 . S
C1205 H1197 0.930 . S
C1205 C1203 1.419 . S
C1205 C1206 1.362 . S
C1206 H1198 0.930 . S
C1206 C1205 1.362 . S
C1206 C1209 1.409 . S
C1207 H1199 0.930 . S
C1207 C1208 1.355 . S
C1207 C1209 1.415 . S
C1208 C1207 1.355 . S
C1208 C1210 1.419 . S
C1209 C1204 1.425 . S
C1209 C1206 1.409 . S
C1209 C1207 1.415 . S
C1210 H1200 0.930 . S
C1210 C1208 1.419 . S
C1210 C1211 1.362 . S
C1211 H1201 0.930 . S
C1211 C1204 1.409 . S
C1211 C1210 1.362 . S
H1212 C1218 0.930 . S
H1213 C1221 0.930 . S
H1214 C1222 0.930 . S
H1215 C1223 0.930 . S
H1216 C1226 0.930 . S
H1217 C1227 0.930 . S
C1218 H1212 0.930 . S
C1218 C1219 1.355 . S
C1218 C1220 1.415 . S
C1219 C1218 1.355 . S
C1219 C1221 1.419 1_455 S
C1220 C1218 1.415 . S
C1220 C1225 1.425 1_455 S
C1220 C1227 1.409 . S
C1221 H1213 0.930 . S
C1221 C1219 1.419 1_655 S
C1221 C1222 1.362 . S
C1222 H1214 0.930 . S
C1222 C1221 1.362 . S
C1222 C1225 1.409 . S
C1223 H1215 0.930 . S
C1223 C1224 1.355 1_655 S
C1223 C1225 1.415 . S
C1224 C1223 1.355 1_455 S
C1224 C1226 1.419 . S
C1225 C1220 1.425 1_655 S
C1225 C1222 1.409 . S
C1225 C1223 1.415 . S
C1226 H1216 0.930 . S
C1226 C1224 1.419 . S
C1226 C1227 1.362 . S
C1227 H1217 0.930 . S
C1227 C1220 1.409 . S
C1227 C1226 1.362 . S
H1228 C1234 0.930 . S
H1229 C1237 0.930 . S
H1230 C1238 0.930 . S
H1231 C1239 0.930 . S
H1232 C1242 0.930 . S
H1233 C1243 0.930 . S
C1234 H1228 0.930 . S
C1234 C1235 1.355 . S
C1234 C1236 1.415 . S
C1235 C1234 1.355 . S
C1235 C1237 1.419 . S
C1236 C1234 1.415 . S
C1236 C1241 1.425 . S
C1236 C1243 1.409 . S
C1237 H1229 0.930 . S
C1237 C1235 1.419 . S
C1237 C1238 1.362 . S
C1238 H1230 0.930 . S
C1238 C1237 1.362 . S
C1238 C1241 1.409 . S
C1239 H1231 0.930 . S
C1239 C1240 1.355 . S
C1239 C1241 1.415 . S
C1240 C1239 1.355 . S
C1240 C1242 1.419 . S
C1241 C1236 1.425 . S
C1241 C1238 1.409 . S
C1241 C1239 1.415 . S
C1242 H1232 0.930 . S
C1242 C1240 1.419 . S
C1242 C1243 1.362 . S
C1243 H1233 0.930 . S
C1243 C1236 1.409 . S
C1243 C1242 1.362 . S
H1244 C1250 0.925 . S
H1245 C1253 0.930 . S
H1246 C1254 0.930 . S
H1247 C1255 0.930 . S
H1248 C1258 0.930 . S
H1249 C1259 0.930 . S
C1250 H1244 0.925 . S
C1250 C1251 1.351 1_545 S
C1250 C1252 1.422 1_545 S
C1251 C1250 1.351 1_565 S
C1251 C1253 1.419 . S
C1252 C1250 1.422 1_565 S
C1252 C1257 1.425 . S
C1252 C1259 1.409 1_565 S
C1253 H1245 0.930 . S
C1253 C1251 1.419 . S
C1253 C1254 1.362 . S
C1254 H1246 0.930 . S
C1254 C1253 1.362 . S
C1254 C1257 1.409 . S
C1255 H1247 0.930 . S
C1255 C1256 1.355 . S
C1255 C1257 1.415 . S
C1256 C1255 1.355 . S
C1256 C1258 1.419 1_565 S
C1257 C1252 1.425 . S
C1257 C1254 1.409 . S
C1257 C1255 1.415 . S
C1258 H1248 0.930 . S
C1258 C1256 1.419 1_545 S
C1258 C1259 1.362 . S
C1259 H1249 0.930 . S
C1259 C1252 1.409 1_545 S
C1259 C1258 1.362 . S
H1260 C1266 0.930 . S
H1261 C1269 0.930 . S
H1262 C1270 0.930 . S
H1263 C1271 0.930 . S
H1264 C1274 0.930 . S
H1265 C1275 0.930 . S
C1266 H1260 0.930 . S
C1266 C1267 1.355 . S
C1266 C1268 1.415 . S
C1267 C1266 1.355 . S
C1267 C1269 1.419 1_545 S
C1268 C1266 1.415 . S
C1268 C1273 1.425 1_545 S
C1268 C1275 1.409 . S
C1269 H1261 0.930 . S
C1269 C1267 1.419 1_565 S
C1269 C1270 1.362 . S
C1270 H1262 0.930 . S
C1270 C1269 1.362 . S
C1270 C1273 1.409 . S
C1271 H1263 0.930 . S
C1271 C1272 1.355 1_565 S
C1271 C1273 1.415 . S
C1272 C1271 1.355 1_545 S
C1272 C1274 1.419 . S
C1273 C1268 1.425 1_565 S
C1273 C1270 1.409 . S
C1273 C1271 1.415 . S
C1274 H1264 0.930 . S
C1274 C1272 1.419 . S
C1274 C1275 1.362 . S
C1275 H1265 0.930 . S
C1275 C1268 1.409 . S
C1275 C1274 1.362 . S
H1276 C1282 0.930 . S
H1277 C1285 0.930 . S
H1278 C1286 0.930 . S
H1279 C1287 0.930 . S
H1280 C1290 0.930 . S
H1281 C1291 0.930 . S
C1282 H1276 0.930 . S
C1282 C1283 1.355 . S
C1282 C1284 1.415 . S
C1283 C1282 1.355 . S
C1283 C1285 1.419 1_655 S
C1284 C1282 1.415 . S
C1284 C1289 1.425 1_655 S
C1284 C1291 1.409 . S
C1285 H1277 0.930 . S
C1285 C1283 1.419 1_455 S
C1285 C1286 1.362 . S
C1286 H1278 0.930 . S
C1286 C1285 1.362 . S
C1286 C1289 1.409 . S
C1287 H1279 0.930 . S
C1287 C1288 1.355 1_455 S
C1287 C1289 1.415 . S
C1288 C1287 1.355 1_655 S
C1288 C1290 1.419 . S
C1289 C1284 1.425 1_455 S
C1289 C1286 1.409 . S
C1289 C1287 1.415 . S
C1290 H1280 0.930 . S
C1290 C1288 1.419 . S
C1290 C1291 1.362 . S
C1291 H1281 0.930 . S
C1291 C1284 1.409 . S
C1291 C1290 1.362 . S
H1292 C1298 0.930 . S
H1293 C1301 0.930 . S
H1294 C1302 0.930 . S
H1295 C1303 0.930 . S
H1296 C1306 0.930 . S
H1297 C1307 0.930 . S
C1298 H1292 0.930 . S
C1298 C1299 1.355 . S
C1298 C1300 1.415 . S
C1299 C1298 1.355 . S
C1299 C1301 1.419 . S
C1300 C1298 1.415 . S
C1300 C1305 1.425 . S
C1300 C1307 1.409 . S
C1301 H1293 0.930 . S
C1301 C1299 1.419 . S
C1301 C1302 1.362 . S
C1302 H1294 0.930 . S
C1302 C1301 1.362 . S
C1302 C1305 1.409 . S
C1303 H1295 0.930 . S
C1303 C1304 1.355 . S
C1303 C1305 1.415 . S
C1304 C1303 1.355 . S
C1304 C1306 1.419 . S
C1305 C1300 1.425 . S
C1305 C1302 1.409 . S
C1305 C1303 1.415 . S
C1306 H1296 0.930 . S
C1306 C1304 1.419 . S
C1306 C1307 1.362 . S
C1307 H1297 0.930 . S
C1307 C1300 1.409 . S
C1307 C1306 1.362 . S
H1308 C1314 0.930 . S
H1309 C1317 0.930 . S
H1310 C1318 0.930 . S
H1311 C1319 0.930 . S
H1312 C1322 0.930 . S
H1313 C1323 0.930 . S
C1314 H1308 0.930 . S
C1314 C1315 1.355 . S
C1314 C1316 1.415 . S
C1315 C1314 1.355 . S
C1315 C1317 1.419 . S
C1316 C1314 1.415 . S
C1316 C1321 1.425 . S
C1316 C1323 1.409 . S
C1317 H1309 0.930 . S
C1317 C1315 1.419 . S
C1317 C1318 1.362 . S
C1318 H1310 0.930 . S
C1318 C1317 1.362 . S
C1318 C1321 1.409 . S
C1319 H1311 0.930 . S
C1319 C1320 1.355 . S
C1319 C1321 1.415 . S
C1320 C1319 1.355 . S
C1320 C1322 1.419 . S
C1321 C1316 1.425 . S
C1321 C1318 1.409 . S
C1321 C1319 1.415 . S
C1322 H1312 0.930 . S
C1322 C1320 1.419 . S
C1322 C1323 1.362 . S
C1323 H1313 0.930 . S
C1323 C1316 1.409 . S
C1323 C1322 1.362 . S
H1324 C1330 0.930 . S
H1325 C1333 0.930 . S
H1326 C1334 0.930 . S
H1327 C1335 0.930 . S
H1328 C1338 0.930 . S
H1329 C1339 0.930 . S
C1330 H1324 0.930 . S
C1330 C1331 1.355 . S
C1330 C1332 1.415 . S
C1331 C1330 1.355 . S
C1331 C1333 1.419 . S
C1332 C1330 1.415 . S
C1332 C1337 1.425 . S
C1332 C1339 1.409 . S
C1333 H1325 0.930 . S
C1333 C1331 1.419 . S
C1333 C1334 1.362 . S
C1334 H1326 0.930 . S
C1334 C1333 1.362 . S
C1334 C1337 1.409 . S
C1335 H1327 0.930 . S
C1335 C1336 1.355 . S
C1335 C1337 1.415 . S
C1336 C1335 1.355 . S
C1336 C1338 1.419 . S
C1337 C1332 1.425 . S
C1337 C1334 1.409 . S
C1337 C1335 1.415 . S
C1338 H1328 0.930 . S
C1338 C1336 1.419 . S
C1338 C1339 1.362 . S
C1339 H1329 0.930 . S
C1339 C1332 1.409 . S
C1339 C1338 1.362 . S
H1340 C1346 0.930 . S
H1341 C1349 0.930 . S
H1342 C1350 0.930 . S
H1343 C1351 0.930 . S
H1344 C1354 0.930 . S
H1345 C1355 0.930 . S
C1346 H1340 0.930 . S
C1346 C1347 1.355 . S
C1346 C1348 1.415 . S
C1347 C1346 1.355 . S
C1347 C1349 1.419 . S
C1348 C1346 1.415 . S
C1348 C1353 1.425 . S
C1348 C1355 1.409 . S
C1349 H1341 0.930 . S
C1349 C1347 1.419 . S
C1349 C1350 1.362 . S
C1350 H1342 0.930 . S
C1350 C1349 1.362 . S
C1350 C1353 1.409 . S
C1351 H1343 0.930 . S
C1351 C1352 1.355 . S
C1351 C1353 1.415 . S
C1352 C1351 1.355 . S
C1352 C1354 1.419 . S
C1353 C1348 1.425 . S
C1353 C1350 1.409 . S
C1353 C1351 1.415 . S
C1354 H1344 0.930 . S
C1354 C1352 1.419 . S
C1354 C1355 1.362 . S
C1355 H1345 0.930 . S
C1355 C1348 1.409 . S
C1355 C1354 1.362 . S
H1356 C1362 0.930 . S
H1357 C1365 0.930 . S
H1358 C1366 0.930 . S
H1359 C1367 0.930 . S
H1360 C1370 0.930 . S
H1361 C1371 0.930 . S
C1362 H1356 0.930 . S
C1362 C1363 1.355 . S
C1362 C1364 1.415 . S
C1363 C1362 1.355 . S
C1363 C1365 1.419 . S
C1364 C1362 1.415 . S
C1364 C1369 1.425 . S
C1364 C1371 1.409 . S
C1365 H1357 0.930 . S
C1365 C1363 1.419 . S
C1365 C1366 1.362 . S
C1366 H1358 0.930 . S
C1366 C1365 1.362 . S
C1366 C1369 1.409 . S
C1367 H1359 0.930 . S
C1367 C1368 1.355 . S
C1367 C1369 1.415 . S
C1368 C1367 1.355 . S
C1368 C1370 1.419 . S
C1369 C1364 1.425 . S
C1369 C1366 1.409 . S
C1369 C1367 1.415 . S
C1370 H1360 0.930 . S
C1370 C1368 1.419 . S
C1370 C1371 1.362 . S
C1371 H1361 0.930 . S
C1371 C1364 1.409 . S
C1371 C1370 1.362 . S
H1372 C1378 0.930 . S
H1373 C1381 0.930 . S
H1374 C1382 0.930 . S
H1375 C1383 0.930 . S
H1376 C1386 0.930 . S
H1377 C1387 0.930 . S
C1378 H1372 0.930 . S
C1378 C1379 1.355 . S
C1378 C1380 1.415 . S
C1379 C1378 1.355 . S
C1379 C1381 1.419 . S
C1380 C1378 1.415 . S
C1380 C1385 1.425 . S
C1380 C1387 1.409 . S
C1381 H1373 0.930 . S
C1381 C1379 1.419 . S
C1381 C1382 1.362 . S
C1382 H1374 0.930 . S
C1382 C1381 1.362 . S
C1382 C1385 1.409 . S
C1383 H1375 0.930 . S
C1383 C1384 1.355 . S
C1383 C1385 1.415 . S
C1384 C1383 1.355 . S
C1384 C1386 1.419 . S
C1385 C1380 1.425 . S
C1385 C1382 1.409 . S
C1385 C1383 1.415 . S
C1386 H1376 0.930 . S
C1386 C1384 1.419 . S
C1386 C1387 1.362 . S
C1387 H1377 0.930 . S
C1387 C1380 1.409 . S
C1387 C1386 1.362 . S
H1388 C1394 0.930 . S
H1389 C1397 0.930 . S
H1390 C1398 0.930 . S
H1391 C1399 0.930 . S
H1392 C1402 0.930 . S
H1393 C1403 0.930 . S
C1394 H1388 0.930 . S
C1394 C1395 1.355 . S
C1394 C1396 1.415 . S
C1395 C1394 1.355 . S
C1395 C1397 1.419 . S
C1396 C1394 1.415 . S
C1396 C1401 1.425 . S
C1396 C1403 1.409 . S
C1397 H1389 0.930 . S
C1397 C1395 1.419 . S
C1397 C1398 1.362 . S
C1398 H1390 0.930 . S
C1398 C1397 1.362 . S
C1398 C1401 1.409 . S
C1399 H1391 0.930 . S
C1399 C1400 1.355 . S
C1399 C1401 1.415 . S
C1400 C1399 1.355 . S
C1400 C1402 1.419 . S
C1401 C1396 1.425 . S
C1401 C1398 1.409 . S
C1401 C1399 1.415 . S
C1402 H1392 0.930 . S
C1402 C1400 1.419 . S
C1402 C1403 1.362 . S
C1403 H1393 0.930 . S
C1403 C1396 1.409 . S
C1403 C1402 1.362 . S
H1404 C1410 0.930 . S
H1405 C1413 0.930 . S
H1406 C1414 0.930 . S
H1407 C1415 0.930 . S
H1408 C1418 0.930 . S
H1409 C1419 0.930 . S
C1410 H1404 0.930 . S
C1410 C1411 1.355 . S
C1410 C1412 1.415 . S
C1411 C1410 1.355 . S
C1411 C1413 1.419 . S
C1412 C1410 1.415 . S
C1412 C1417 1.425 . S
C1412 C1419 1.409 . S
C1413 H1405 0.930 . S
C1413 C1411 1.419 . S
C1413 C1414 1.362 . S
C1414 H1406 0.930 . S
C1414 C1413 1.362 . S
C1414 C1417 1.409 . S
C1415 H1407 0.930 . S
C1415 C1416 1.355 . S
C1415 C1417 1.415 . S
C1416 C1415 1.355 . S
C1416 C1418 1.419 . S
C1417 C1412 1.425 . S
C1417 C1414 1.409 . S
C1417 C1415 1.415 . S
C1418 H1408 0.930 . S
C1418 C1416 1.419 . S
C1418 C1419 1.362 . S
C1419 H1409 0.930 . S
C1419 C1412 1.409 . S
C1419 C1418 1.362 . S
H1420 C1426 0.930 . S
H1421 C1429 0.930 . S
H1422 C1430 0.930 . S
H1423 C1431 0.930 . S
H1424 C1434 0.930 . S
H1425 C1435 0.930 . S
C1426 H1420 0.930 . S
C1426 C1427 1.355 . S
C1426 C1428 1.415 . S
C1427 C1426 1.355 . S
C1427 C1429 1.419 . S
C1428 C1426 1.415 . S
C1428 C1433 1.425 . S
C1428 C1435 1.409 . S
C1429 H1421 0.930 . S
C1429 C1427 1.419 . S
C1429 C1430 1.362 . S
C1430 H1422 0.930 . S
C1430 C1429 1.362 . S
C1430 C1433 1.409 . S
C1431 H1423 0.930 . S
C1431 C1432 1.355 . S
C1431 C1433 1.415 . S
C1432 C1431 1.355 . S
C1432 C1434 1.419 . S
C1433 C1428 1.425 . S
C1433 C1430 1.409 . S
C1433 C1431 1.415 . S
C1434 H1424 0.930 . S
C1434 C1432 1.419 . S
C1434 C1435 1.362 . S
C1435 H1425 0.930 . S
C1435 C1428 1.409 . S
C1435 C1434 1.362 . S
H1436 C1442 0.930 . S
H1437 C1445 0.930 . S
H1438 C1446 0.930 . S
H1439 C1447 0.930 . S
H1440 C1450 0.930 . S
H1441 C1451 0.930 . S
C1442 H1436 0.930 . S
C1442 C1443 1.355 . S
C1442 C1444 1.415 . S
C1443 C1442 1.355 . S
C1443 C1445 1.419 . S
C1444 C1442 1.415 . S
C1444 C1449 1.425 . S
C1444 C1451 1.409 . S
C1445 H1437 0.930 . S
C1445 C1443 1.419 . S
C1445 C1446 1.362 . S
C1446 H1438 0.930 . S
C1446 C1445 1.362 . S
C1446 C1449 1.409 . S
C1447 H1439 0.930 . S
C1447 C1448 1.355 . S
C1447 C1449 1.415 . S
C1448 C1447 1.355 . S
C1448 C1450 1.419 . S
C1449 C1444 1.425 . S
C1449 C1446 1.409 . S
C1449 C1447 1.415 . S
C1450 H1440 0.930 . S
C1450 C1448 1.419 . S
C1450 C1451 1.362 . S
C1451 H1441 0.930 . S
C1451 C1444 1.409 . S
C1451 C1450 1.362 . S
H1452 C1458 0.930 . S
H1453 C1461 0.930 . S
H1454 C1462 0.930 . S
H1455 C1463 0.930 . S
H1456 C1466 0.930 . S
H1457 C1467 0.930 . S
C1458 H1452 0.930 . S
C1458 C1459 1.355 . S
C1458 C1460 1.415 . S
C1459 C1458 1.355 . S
C1459 C1461 1.419 . S
C1460 C1458 1.415 . S
C1460 C1465 1.425 . S
C1460 C1467 1.409 . S
C1461 H1453 0.930 . S
C1461 C1459 1.419 . S
C1461 C1462 1.362 . S
C1462 H1454 0.930 . S
C1462 C1461 1.362 . S
C1462 C1465 1.409 . S
C1463 H1455 0.930 . S
C1463 C1464 1.355 . S
C1463 C1465 1.415 . S
C1464 C1463 1.355 . S
C1464 C1466 1.419 . S
C1465 C1460 1.425 . S
C1465 C1462 1.409 . S
C1465 C1463 1.415 . S
C1466 H1456 0.930 . S
C1466 C1464 1.419 . S
C1466 C1467 1.362 . S
C1467 H1457 0.930 . S
C1467 C1460 1.409 . S
C1467 C1466 1.362 . S
H1468 C1474 0.930 . S
H1469 C1477 0.930 . S
H1470 C1478 0.930 . S
H1471 C1479 0.930 . S
H1472 C1482 0.930 . S
H1473 C1483 0.930 . S
C1474 H1468 0.930 . S
C1474 C1475 1.355 . S
C1474 C1476 1.415 . S
C1475 C1474 1.355 . S
C1475 C1477 1.419 . S
C1476 C1474 1.415 . S
C1476 C1481 1.425 . S
C1476 C1483 1.409 . S
C1477 H1469 0.930 . S
C1477 C1475 1.419 . S
C1477 C1478 1.362 . S
C1478 H1470 0.930 . S
C1478 C1477 1.362 . S
C1478 C1481 1.409 . S
C1479 H1471 0.930 . S
C1479 C1480 1.355 . S
C1479 C1481 1.415 . S
C1480 C1479 1.355 . S
C1480 C1482 1.419 . S
C1481 C1476 1.425 . S
C1481 C1478 1.409 . S
C1481 C1479 1.415 . S
C1482 H1472 0.930 . S
C1482 C1480 1.419 . S
C1482 C1483 1.362 . S
C1483 H1473 0.930 . S
C1483 C1476 1.409 . S
C1483 C1482 1.362 . S
H1484 C1490 0.930 . S
H1485 C1493 0.930 . S
H1486 C1494 0.930 . S
H1487 C1495 0.930 . S
H1488 C1498 0.930 . S
H1489 C1499 0.930 . S
C1490 H1484 0.930 . S
C1490 C1491 1.355 . S
C1490 C1492 1.415 . S
C1491 C1490 1.355 . S
C1491 C1493 1.419 . S
C1492 C1490 1.415 . S
C1492 C1497 1.425 . S
C1492 C1499 1.409 . S
C1493 H1485 0.930 . S
C1493 C1491 1.419 . S
C1493 C1494 1.362 . S
C1494 H1486 0.930 . S
C1494 C1493 1.362 . S
C1494 C1497 1.409 . S
C1495 H1487 0.930 . S
C1495 C1496 1.355 . S
C1495 C1497 1.415 . S
C1496 C1495 1.355 . S
C1496 C1498 1.419 . S
C1497 C1492 1.425 . S
C1497 C1494 1.409 . S
C1497 C1495 1.415 . S
C1498 H1488 0.930 . S
C1498 C1496 1.419 . S
C1498 C1499 1.362 . S
C1499 H1489 0.930 . S
C1499 C1492 1.409 . S
C1499 C1498 1.362 . S
H1500 C1506 0.930 . S
H1501 C1509 0.930 . S
H1502 C1510 0.930 . S
H1503 C1511 0.930 . S
H1504 C1514 0.930 . S
H1505 C1515 0.930 . S
C1506 H1500 0.930 . S
C1506 C1507 1.355 . S
C1506 C1508 1.415 . S
C1507 C1506 1.355 . S
C1507 C1509 1.419 . S
C1508 C1506 1.415 . S
C1508 C1513 1.425 . S
C1508 C1515 1.409 . S
C1509 H1501 0.930 . S
C1509 C1507 1.419 . S
C1509 C1510 1.362 . S
C1510 H1502 0.930 . S
C1510 C1509 1.362 . S
C1510 C1513 1.409 . S
C1511 H1503 0.930 . S
C1511 C1512 1.355 . S
C1511 C1513 1.415 . S
C1512 C1511 1.355 . S
C1512 C1514 1.419 . S
C1513 C1508 1.425 . S
C1513 C1510 1.409 . S
C1513 C1511 1.415 . S
C1514 H1504 0.930 . S
C1514 C1512 1.419 . S
C1514 C1515 1.362 . S
C1515 H1505 0.930 . S
C1515 C1508 1.409 . S
C1515 C1514 1.362 . S
H1516 C1522 0.930 . S
H1517 C1525 0.930 . S
H1518 C1526 0.930 . S
H1519 C1527 0.930 . S
H1520 C1530 0.930 . S
H1521 C1531 0.930 . S
C1522 H1516 0.930 . S
C1522 C1523 1.355 . S
C1522 C1524 1.415 . S
C1523 C1522 1.355 . S
C1523 C1525 1.419 . S
C1524 C1522 1.415 . S
C1524 C1529 1.425 . S
C1524 C1531 1.409 . S
C1525 H1517 0.930 . S
C1525 C1523 1.419 . S
C1525 C1526 1.362 . S
C1526 H1518 0.930 . S
C1526 C1525 1.362 . S
C1526 C1529 1.409 . S
C1527 H1519 0.930 . S
C1527 C1528 1.355 . S
C1527 C1529 1.415 . S
C1528 C1527 1.355 . S
C1528 C1530 1.419 . S
C1529 C1524 1.425 . S
C1529 C1526 1.409 . S
C1529 C1527 1.415 . S
C1530 H1520 0.930 . S
C1530 C1528 1.419 . S
C1530 C1531 1.362 . S
C1531 H1521 0.930 . S
C1531 C1524 1.409 . S
C1531 C1530 1.362 . S
H1532 C1538 0.930 . S
H1533 C1541 0.930 . S
H1534 C1542 0.930 . S
H1535 C1543 0.930 . S
H1536 C1546 0.930 . S
H1537 C1547 0.930 . S
C1538 H1532 0.930 . S
C1538 C1539 1.355 . S
C1538 C1540 1.415 . S
C1539 C1538 1.355 . S
C1539 C1541 1.419 . S
C1540 C1538 1.415 . S
C1540 C1545 1.425 . S
C1540 C1547 1.409 . S
C1541 H1533 0.930 . S
C1541 C1539 1.419 . S
C1541 C1542 1.362 . S
C1542 H1534 0.930 . S
C1542 C1541 1.362 . S
C1542 C1545 1.409 . S
C1543 H1535 0.930 . S
C1543 C1544 1.355 . S
C1543 C1545 1.415 . S
C1544 C1543 1.355 . S
C1544 C1546 1.419 . S
C1545 C1540 1.425 . S
C1545 C1542 1.409 . S
C1545 C1543 1.415 . S
C1546 H1536 0.930 . S
C1546 C1544 1.419 . S
C1546 C1547 1.362 . S
C1547 H1537 0.930 . S
C1547 C1540 1.409 . S
C1547 C1546 1.362 . S
H1548 C1554 0.930 . S
H1549 C1557 0.930 . S
H1550 C1558 0.930 . S
H1551 C1559 0.930 . S
H1552 C1562 0.930 . S
H1553 C1563 0.930 . S
C1554 H1548 0.930 . S
C1554 C1555 1.355 . S
C1554 C1556 1.415 . S
C1555 C1554 1.355 . S
C1555 C1557 1.419 . S
C1556 C1554 1.415 . S
C1556 C1561 1.425 . S
C1556 C1563 1.409 . S
C1557 H1549 0.930 . S
C1557 C1555 1.419 . S
C1557 C1558 1.362 . S
C1558 H1550 0.930 . S
C1558 C1557 1.362 . S
C1558 C1561 1.409 . S
C1559 H1551 0.930 . S
C1559 C1560 1.355 . S
C1559 C1561 1.415 . S
C1560 C1559 1.355 . S
C1560 C1562 1.419 . S
C1561 C1556 1.425 . S
C1561 C1558 1.409 . S
C1561 C1559 1.415 . S
C1562 H1552 0.930 . S
C1562 C1560 1.419 . S
C1562 C1563 1.362 . S
C1563 H1553 0.930 . S
C1563 C1556 1.409 . S
C1563 C1562 1.362 . S
H1564 C1570 0.930 . S
H1565 C1573 0.930 . S
H1566 C1574 0.930 . S
H1567 C1575 0.930 . S
H1568 C1578 0.930 . S
H1569 C1579 0.930 . S
C1570 H1564 0.930 . S
C1570 C1571 1.355 . S
C1570 C1572 1.415 . S
C1571 C1570 1.355 . S
C1571 C1573 1.419 . S
C1572 C1570 1.415 . S
C1572 C1577 1.425 . S
C1572 C1579 1.409 . S
C1573 H1565 0.930 . S
C1573 C1571 1.419 . S
C1573 C1574 1.362 . S
C1574 H1566 0.930 . S
C1574 C1573 1.362 . S
C1574 C1577 1.409 . S
C1575 H1567 0.930 . S
C1575 C1576 1.355 . S
C1575 C1577 1.415 . S
C1576 C1575 1.355 . S
C1576 C1578 1.419 . S
C1577 C1572 1.425 . S
C1577 C1574 1.409 . S
C1577 C1575 1.415 . S
C1578 H1568 0.930 . S
C1578 C1576 1.419 . S
C1578 C1579 1.362 . S
C1579 H1569 0.930 . S
C1579 C1572 1.409 . S
C1579 C1578 1.362 . S
H1580 C1586 0.930 . S
H1581 C1589 0.930 . S
H1582 C1590 0.930 . S
H1583 C1591 0.930 . S
H1584 C1594 0.930 . S
H1585 C1595 0.930 . S
C1586 H1580 0.930 . S
C1586 C1587 1.355 . S
C1586 C1588 1.415 . S
C1587 C1586 1.355 . S
C1587 C1589 1.419 . S
C1588 C1586 1.415 . S
C1588 C1593 1.425 . S
C1588 C1595 1.409 . S
C1589 H1581 0.930 . S
C1589 C1587 1.419 . S
C1589 C1590 1.362 . S
C1590 H1582 0.930 . S
C1590 C1589 1.362 . S
C1590 C1593 1.409 . S
C1591 H1583 0.930 . S
C1591 C1592 1.355 . S
C1591 C1593 1.415 . S
C1592 C1591 1.355 . S
C1592 C1594 1.419 . S
C1593 C1588 1.425 . S
C1593 C1590 1.409 . S
C1593 C1591 1.415 . S
C1594 H1584 0.930 . S
C1594 C1592 1.419 . S
C1594 C1595 1.362 . S
C1595 H1585 0.930 . S
C1595 C1588 1.409 . S
C1595 C1594 1.362 . S
H1596 C1602 0.930 . S
H1597 C1605 0.930 . S
H1598 C1606 0.930 . S
H1599 C1607 0.930 . S
H1600 C1610 0.930 . S
H1601 C1611 0.930 . S
C1602 H1596 0.930 . S
C1602 C1603 1.355 . S
C1602 C1604 1.415 . S
C1603 C1602 1.355 . S
C1603 C1605 1.419 . S
C1604 C1602 1.415 . S
C1604 C1609 1.425 . S
C1604 C1611 1.409 . S
C1605 H1597 0.930 . S
C1605 C1603 1.419 . S
C1605 C1606 1.362 . S
C1606 H1598 0.930 . S
C1606 C1605 1.362 . S
C1606 C1609 1.409 . S
C1607 H1599 0.930 . S
C1607 C1608 1.355 . S
C1607 C1609 1.415 . S
C1608 C1607 1.355 . S
C1608 C1610 1.419 . S
C1609 C1604 1.425 . S
C1609 C1606 1.409 . S
C1609 C1607 1.415 . S
C1610 H1600 0.930 . S
C1610 C1608 1.419 . S
C1610 C1611 1.362 . S
C1611 H1601 0.930 . S
C1611 C1604 1.409 . S
C1611 C1610 1.362 . S
H1612 C1618 0.930 . S
H1613 C1621 0.930 . S
H1614 C1622 0.930 . S
H1615 C1623 0.930 . S
H1616 C1626 0.930 . S
H1617 C1627 0.930 . S
C1618 H1612 0.930 . S
C1618 C1619 1.355 . S
C1618 C1620 1.415 . S
C1619 C1618 1.355 . S
C1619 C1621 1.419 . S
C1620 C1618 1.415 . S
C1620 C1625 1.425 . S
C1620 C1627 1.409 . S
C1621 H1613 0.930 . S
C1621 C1619 1.419 . S
C1621 C1622 1.362 . S
C1622 H1614 0.930 . S
C1622 C1621 1.362 . S
C1622 C1625 1.409 . S
C1623 H1615 0.930 . S
C1623 C1624 1.355 . S
C1623 C1625 1.415 . S
C1624 C1623 1.355 . S
C1624 C1626 1.419 . S
C1625 C1620 1.425 . S
C1625 C1622 1.409 . S
C1625 C1623 1.415 . S
C1626 H1616 0.930 . S
C1626 C1624 1.419 . S
C1626 C1627 1.362 . S
C1627 H1617 0.930 . S
C1627 C1620 1.409 . S
C1627 C1626 1.362 . S
H1628 C1634 0.930 . S
H1629 C1637 0.930 . S
H1630 C1638 0.930 . S
H1631 C1639 0.930 . S
H1632 C1642 0.930 . S
H1633 C1643 0.930 . S
C1634 H1628 0.930 . S
C1634 C1635 1.355 . S
C1634 C1636 1.415 . S
C1635 C1634 1.355 . S
C1635 C1637 1.419 . S
C1636 C1634 1.415 . S
C1636 C1641 1.425 . S
C1636 C1643 1.409 . S
C1637 H1629 0.930 . S
C1637 C1635 1.419 . S
C1637 C1638 1.362 . S
C1638 H1630 0.930 . S
C1638 C1637 1.362 . S
C1638 C1641 1.409 . S
C1639 H1631 0.930 . S
C1639 C1640 1.355 . S
C1639 C1641 1.415 . S
C1640 C1639 1.355 . S
C1640 C1642 1.419 . S
C1641 C1636 1.425 . S
C1641 C1638 1.409 . S
C1641 C1639 1.415 . S
C1642 H1632 0.930 . S
C1642 C1640 1.419 . S
C1642 C1643 1.362 . S
C1643 H1633 0.930 . S
C1643 C1636 1.409 . S
C1643 C1642 1.362 . S
H1644 C1650 0.930 . S
H1645 C1653 0.930 . S
H1646 C1654 0.930 . S
H1647 C1655 0.930 . S
H1648 C1658 0.930 . S
H1649 C1659 0.930 . S
C1650 H1644 0.930 . S
C1650 C1651 1.355 . S
C1650 C1652 1.415 . S
C1651 C1650 1.355 . S
C1651 C1653 1.419 . S
C1652 C1650 1.415 . S
C1652 C1657 1.425 . S
C1652 C1659 1.409 . S
C1653 H1645 0.930 . S
C1653 C1651 1.419 . S
C1653 C1654 1.362 . S
C1654 H1646 0.930 . S
C1654 C1653 1.362 . S
C1654 C1657 1.409 . S
C1655 H1647 0.930 . S
C1655 C1656 1.355 . S
C1655 C1657 1.415 . S
C1656 C1655 1.355 . S
C1656 C1658 1.419 . S
C1657 C1652 1.425 . S
C1657 C1654 1.409 . S
C1657 C1655 1.415 . S
C1658 H1648 0.930 . S
C1658 C1656 1.419 . S
C1658 C1659 1.362 . S
C1659 H1649 0.930 . S
C1659 C1652 1.409 . S
C1659 C1658 1.362 . S
H1660 C1666 0.930 . S
H1661 C1669 0.930 . S
H1662 C1670 0.930 . S
H1663 C1671 0.930 . S
H1664 C1674 0.930 . S
H1665 C1675 0.930 . S
C1666 H1660 0.930 . S
C1666 C1667 1.355 . S
C1666 C1668 1.415 . S
C1667 C1666 1.355 . S
C1667 C1669 1.419 . S
C1668 C1666 1.415 . S
C1668 C1673 1.425 . S
C1668 C1675 1.409 . S
C1669 H1661 0.930 . S
C1669 C1667 1.419 . S
C1669 C1670 1.362 . S
C1670 H1662 0.930 . S
C1670 C1669 1.362 . S
C1670 C1673 1.409 . S
C1671 H1663 0.930 . S
C1671 C1672 1.355 . S
C1671 C1673 1.415 . S
C1672 C1671 1.355 . S
C1672 C1674 1.419 . S
C1673 C1668 1.425 . S
C1673 C1670 1.409 . S
C1673 C1671 1.415 . S
C1674 H1664 0.930 . S
C1674 C1672 1.419 . S
C1674 C1675 1.362 . S
C1675 H1665 0.930 . S
C1675 C1668 1.409 . S
C1675 C1674 1.362 . S
H1676 C1682 0.930 . S
H1677 C1685 0.930 . S
H1678 C1686 0.930 . S
H1679 C1687 0.930 . S
H1680 C1690 0.930 . S
H1681 C1691 0.930 . S
C1682 H1676 0.930 . S
C1682 C1683 1.355 . S
C1682 C1684 1.415 . S
C1683 C1682 1.355 . S
C1683 C1685 1.419 . S
C1684 C1682 1.415 . S
C1684 C1689 1.425 . S
C1684 C1691 1.409 . S
C1685 H1677 0.930 . S
C1685 C1683 1.419 . S
C1685 C1686 1.362 . S
C1686 H1678 0.930 . S
C1686 C1685 1.362 . S
C1686 C1689 1.409 . S
C1687 H1679 0.930 . S
C1687 C1688 1.355 . S
C1687 C1689 1.415 . S
C1688 C1687 1.355 . S
C1688 C1690 1.419 . S
C1689 C1684 1.425 . S
C1689 C1686 1.409 . S
C1689 C1687 1.415 . S
C1690 H1680 0.930 . S
C1690 C1688 1.419 . S
C1690 C1691 1.362 . S
C1691 H1681 0.930 . S
C1691 C1684 1.409 . S
C1691 C1690 1.362 . S
H1692 C1698 0.930 . S
H1693 C1701 0.930 . S
H1694 C1702 0.930 . S
H1695 C1703 0.930 . S
H1696 C1706 0.930 . S
H1697 C1707 0.930 . S
C1698 H1692 0.930 . S
C1698 C1699 1.355 . S
C1698 C1700 1.415 . S
C1699 C1698 1.355 . S
C1699 C1701 1.419 . S
C1700 C1698 1.415 . S
C1700 C1705 1.425 . S
C1700 C1707 1.409 . S
C1701 H1693 0.930 . S
C1701 C1699 1.419 . S
C1701 C1702 1.362 . S
C1702 H1694 0.930 . S
C1702 C1701 1.362 . S
C1702 C1705 1.409 . S
C1703 H1695 0.930 . S
C1703 C1704 1.355 . S
C1703 C1705 1.415 . S
C1704 C1703 1.355 . S
C1704 C1706 1.419 . S
C1705 C1700 1.425 . S
C1705 C1702 1.409 . S
C1705 C1703 1.415 . S
C1706 H1696 0.930 . S
C1706 C1704 1.419 . S
C1706 C1707 1.362 . S
C1707 H1697 0.930 . S
C1707 C1700 1.409 . S
C1707 C1706 1.362 . S
H1708 C1714 0.930 . S
H1709 C1717 0.930 . S
H1710 C1718 0.930 . S
H1711 C1719 0.930 . S
H1712 C1722 0.930 . S
H1713 C1723 0.930 . S
C1714 H1708 0.930 . S
C1714 C1715 1.355 . S
C1714 C1716 1.415 . S
C1715 C1714 1.355 . S
C1715 C1717 1.419 . S
C1716 C1714 1.415 . S
C1716 C1721 1.425 . S
C1716 C1723 1.409 . S
C1717 H1709 0.930 . S
C1717 C1715 1.419 . S
C1717 C1718 1.362 . S
C1718 H1710 0.930 . S
C1718 C1717 1.362 . S
C1718 C1721 1.409 . S
C1719 H1711 0.930 . S
C1719 C1720 1.355 . S
C1719 C1721 1.415 . S
C1720 C1719 1.355 . S
C1720 C1722 1.419 . S
C1721 C1716 1.425 . S
C1721 C1718 1.409 . S
C1721 C1719 1.415 . S
C1722 H1712 0.930 . S
C1722 C1720 1.419 . S
C1722 C1723 1.362 . S
C1723 H1713 0.930 . S
C1723 C1716 1.409 . S
C1723 C1722 1.362 . S
H1724 C1730 0.930 . S
H1725 C1733 0.930 . S
H1726 C1734 0.930 . S
H1727 C1735 0.930 . S
H1728 C1738 0.930 . S
H1729 C1739 0.930 . S
C1730 H1724 0.930 . S
C1730 C1731 1.355 . S
C1730 C1732 1.415 . S
C1731 C1730 1.355 . S
C1731 C1733 1.419 . S
C1732 C1730 1.415 . S
C1732 C1737 1.425 . S
C1732 C1739 1.409 . S
C1733 H1725 0.930 . S
C1733 C1731 1.419 . S
C1733 C1734 1.362 . S
C1734 H1726 0.930 . S
C1734 C1733 1.362 . S
C1734 C1737 1.409 . S
C1735 H1727 0.930 . S
C1735 C1736 1.355 . S
C1735 C1737 1.415 . S
C1736 C1735 1.355 . S
C1736 C1738 1.419 . S
C1737 C1732 1.425 . S
C1737 C1734 1.409 . S
C1737 C1735 1.415 . S
C1738 H1728 0.930 . S
C1738 C1736 1.419 . S
C1738 C1739 1.362 . S
C1739 H1729 0.930 . S
C1739 C1732 1.409 . S
C1739 C1738 1.362 . S
H1740 C1746 0.930 1_554 S
H1741 C1749 0.930 . S
H1742 C1750 0.930 . S
H1743 C1751 0.930 . S
H1744 C1754 0.930 . S
H1745 C1755 0.930 . S
C1746 H1740 0.930 1_556 S
C1746 C1747 1.355 . S
C1746 C1748 1.415 . S
C1747 C1746 1.355 . S
C1747 C1749 1.419 . S
C1748 C1746 1.415 . S
C1748 C1753 1.425 . S
C1748 C1755 1.409 . S
C1749 H1741 0.930 . S
C1749 C1747 1.419 . S
C1749 C1750 1.362 . S
C1750 H1742 0.930 . S
C1750 C1749 1.362 . S
C1750 C1753 1.409 . S
C1751 H1743 0.930 . S
C1751 C1752 1.355 . S
C1751 C1753 1.415 . S
C1752 C1751 1.355 . S
C1752 C1754 1.419 . S
C1753 C1748 1.425 . S
C1753 C1750 1.409 . S
C1753 C1751 1.415 . S
C1754 H1744 0.930 . S
C1754 C1752 1.419 . S
C1754 C1755 1.362 . S
C1755 H1745 0.930 . S
C1755 C1748 1.409 . S
C1755 C1754 1.362 . S
H1756 C1762 0.930 . S
H1757 C1765 0.938 . S
H1758 C1766 0.930 1_554 S
H1759 C1767 0.930 . S
H1760 C1770 0.930 . S
H1761 C1771 0.930 . S
C1762 H1756 0.930 . S
C1762 C1763 1.355 . S
C1762 C1764 1.415 . S
C1763 C1762 1.355 . S
C1763 C1765 1.413 1_556 S
C1764 C1762 1.415 . S
C1764 C1769 1.425 . S
C1764 C1771 1.409 . S
C1765 H1757 0.938 . S
C1765 C1763 1.413 1_554 S
C1765 C1766 1.360 1_554 S
C1766 H1758 0.930 1_556 S
C1766 C1765 1.360 1_556 S
C1766 C1769 1.409 . S
C1767 H1759 0.930 . S
C1767 C1768 1.355 . S
C1767 C1769 1.415 . S
C1768 C1767 1.355 . S
C1768 C1770 1.419 . S
C1769 C1764 1.425 . S
C1769 C1766 1.409 . S
C1769 C1767 1.415 . S
C1770 H1760 0.930 . S
C1770 C1768 1.419 . S
C1770 C1771 1.362 . S
C1771 H1761 0.930 . S
C1771 C1764 1.409 . S
C1771 C1770 1.362 . S
H1772 C1778 0.930 . S
H1773 C1781 0.930 1_554 S
H1774 C1782 0.930 . S
H1775 C1783 0.930 . S
H1776 C1786 0.930 . S
H1777 C1787 0.930 . S
C1778 H1772 0.930 . S
C1778 C1779 1.355 . S
C1778 C1780 1.415 . S
C1779 C1778 1.355 . S
C1779 C1781 1.419 . S
C1780 C1778 1.415 . S
C1780 C1785 1.425 . S
C1780 C1787 1.409 . S
C1781 H1773 0.930 1_556 S
C1781 C1779 1.419 . S
C1781 C1782 1.362 . S
C1782 H1774 0.930 . S
C1782 C1781 1.362 . S
C1782 C1785 1.409 . S
C1783 H1775 0.930 . S
C1783 C1784 1.355 . S
C1783 C1785 1.415 . S
C1784 C1783 1.355 . S
C1784 C1786 1.419 . S
C1785 C1780 1.425 . S
C1785 C1782 1.409 . S
C1785 C1783 1.415 . S
C1786 H1776 0.930 . S
C1786 C1784 1.419 . S
C1786 C1787 1.362 . S
C1787 H1777 0.930 . S
C1787 C1780 1.409 . S
C1787 C1786 1.362 . S
H1788 C1794 0.930 . S
H1789 C1797 0.930 1_554 S
H1790 C1798 0.930 1_554 S
H1791 C1799 0.930 . S
H1792 C1802 0.930 . S
H1793 C1803 0.930 . S
C1794 H1788 0.930 . S
C1794 C1795 1.355 . S
C1794 C1796 1.415 . S
C1795 C1794 1.355 . S
C1795 C1797 1.419 . S
C1796 C1794 1.415 . S
C1796 C1801 1.425 . S
C1796 C1803 1.409 . S
C1797 H1789 0.930 1_556 S
C1797 C1795 1.419 . S
C1797 C1798 1.362 . S
C1798 H1790 0.930 1_556 S
C1798 C1797 1.362 . S
C1798 C1801 1.409 . S
C1799 H1791 0.930 . S
C1799 C1800 1.355 . S
C1799 C1801 1.415 . S
C1800 C1799 1.355 . S
C1800 C1802 1.419 . S
C1801 C1796 1.425 . S
C1801 C1798 1.409 . S
C1801 C1799 1.415 . S
C1802 H1792 0.930 . S
C1802 C1800 1.419 . S
C1802 C1803 1.362 . S
C1803 H1793 0.930 . S
C1803 C1796 1.409 . S
C1803 C1802 1.362 . S
H1804 C1810 0.930 . S
H1805 C1813 0.930 . S
H1806 C1814 0.930 . S
H1807 C1815 0.930 . S
H1808 C1818 0.930 . S
H1809 C1819 0.930 . S
C1810 H1804 0.930 . S
C1810 C1811 1.355 . S
C1810 C1812 1.415 . S
C1811 C1810 1.355 . S
C1811 C1813 1.419 . S
C1812 C1810 1.415 . S
C1812 C1817 1.425 . S
C1812 C1819 1.409 . S
C1813 H1805 0.930 . S
C1813 C1811 1.419 . S
C1813 C1814 1.362 . S
C1814 H1806 0.930 . S
C1814 C1813 1.362 . S
C1814 C1817 1.409 . S
C1815 H1807 0.930 . S
C1815 C1816 1.355 . S
C1815 C1817 1.415 . S
C1816 C1815 1.355 . S
C1816 C1818 1.419 . S
C1817 C1812 1.425 . S
C1817 C1814 1.409 . S
C1817 C1815 1.415 . S
C1818 H1808 0.930 . S
C1818 C1816 1.419 . S
C1818 C1819 1.362 . S
C1819 H1809 0.930 . S
C1819 C1812 1.409 . S
C1819 C1818 1.362 . S
H1820 C1826 0.930 . S
H1821 C1829 0.930 . S
H1822 C1830 0.930 . S
H1823 C1831 0.930 . S
H1824 C1834 0.930 . S
H1825 C1835 0.930 . S
C1826 H1820 0.930 . S
C1826 C1827 1.355 . S
C1826 C1828 1.415 . S
C1827 C1826 1.355 . S
C1827 C1829 1.419 . S
C1828 C1826 1.415 . S
C1828 C1833 1.425 . S
C1828 C1835 1.409 . S
C1829 H1821 0.930 . S
C1829 C1827 1.419 . S
C1829 C1830 1.362 . S
C1830 H1822 0.930 . S
C1830 C1829 1.362 . S
C1830 C1833 1.409 . S
C1831 H1823 0.930 . S
C1831 C1832 1.355 . S
C1831 C1833 1.415 . S
C1832 C1831 1.355 . S
C1832 C1834 1.419 . S
C1833 C1828 1.425 . S
C1833 C1830 1.409 . S
C1833 C1831 1.415 . S
C1834 H1824 0.930 . S
C1834 C1832 1.419 . S
C1834 C1835 1.362 . S
C1835 H1825 0.930 . S
C1835 C1828 1.409 . S
C1835 C1834 1.362 . S
H1836 C1842 0.930 . S
H1837 C1845 0.930 . S
H1838 C1846 0.930 . S
H1839 C1847 0.930 . S
H1840 C1850 0.930 . S
H1841 C1851 0.930 . S
C1842 H1836 0.930 . S
C1842 C1843 1.355 . S
C1842 C1844 1.415 . S
C1843 C1842 1.355 . S
C1843 C1845 1.419 . S
C1844 C1842 1.415 . S
C1844 C1849 1.425 . S
C1844 C1851 1.409 . S
C1845 H1837 0.930 . S
C1845 C1843 1.419 . S
C1845 C1846 1.362 . S
C1846 H1838 0.930 . S
C1846 C1845 1.362 . S
C1846 C1849 1.409 . S
C1847 H1839 0.930 . S
C1847 C1848 1.355 . S
C1847 C1849 1.415 . S
C1848 C1847 1.355 . S
C1848 C1850 1.419 . S
C1849 C1844 1.425 . S
C1849 C1846 1.409 . S
C1849 C1847 1.415 . S
C1850 H1840 0.930 . S
C1850 C1848 1.419 . S
C1850 C1851 1.362 . S
C1851 H1841 0.930 . S
C1851 C1844 1.409 . S
C1851 C1850 1.362 . S
H1852 C1858 0.930 . S
H1853 C1861 0.930 . S
H1854 C1862 0.930 . S
H1855 C1863 0.930 . S
H1856 C1866 0.930 . S
H1857 C1867 0.930 . S
C1858 H1852 0.930 . S
C1858 C1859 1.355 . S
C1858 C1860 1.415 . S
C1859 C1858 1.355 . S
C1859 C1861 1.419 . S
C1860 C1858 1.415 . S
C1860 C1865 1.425 . S
C1860 C1867 1.409 . S
C1861 H1853 0.930 . S
C1861 C1859 1.419 . S
C1861 C1862 1.362 . S
C1862 H1854 0.930 . S
C1862 C1861 1.362 . S
C1862 C1865 1.409 . S
C1863 H1855 0.930 . S
C1863 C1864 1.355 . S
C1863 C1865 1.415 . S
C1864 C1863 1.355 . S
C1864 C1866 1.419 . S
C1865 C1860 1.425 . S
C1865 C1862 1.409 . S
C1865 C1863 1.415 . S
C1866 H1856 0.930 . S
C1866 C1864 1.419 . S
C1866 C1867 1.362 . S
C1867 H1857 0.930 . S
C1867 C1860 1.409 . S
C1867 C1866 1.362 . S
H1868 C1874 0.930 . S
H1869 C1877 0.930 . S
H1870 C1878 0.930 . S
H1871 C1879 0.930 . S
H1872 C1882 0.930 . S
H1873 C1883 0.930 . S
C1874 H1868 0.930 . S
C1874 C1875 1.355 . S
C1874 C1876 1.415 . S
C1875 C1874 1.355 . S
C1875 C1877 1.419 . S
C1876 C1874 1.415 . S
C1876 C1881 1.425 . S
C1876 C1883 1.409 . S
C1877 H1869 0.930 . S
C1877 C1875 1.419 . S
C1877 C1878 1.362 . S
C1878 H1870 0.930 . S
C1878 C1877 1.362 . S
C1878 C1881 1.409 . S
C1879 H1871 0.930 . S
C1879 C1880 1.355 . S
C1879 C1881 1.415 . S
C1880 C1879 1.355 . S
C1880 C1882 1.419 . S
C1881 C1876 1.425 . S
C1881 C1878 1.409 . S
C1881 C1879 1.415 . S
C1882 H1872 0.930 . S
C1882 C1880 1.419 . S
C1882 C1883 1.362 . S
C1883 H1873 0.930 . S
C1883 C1876 1.409 . S
C1883 C1882 1.362 . S
H1884 C1890 0.930 . S
H1885 C1893 0.930 . S
H1886 C1894 0.930 . S
H1887 C1895 0.930 . S
H1888 C1898 0.930 . S
H1889 C1899 0.930 . S
C1890 H1884 0.930 . S
C1890 C1891 1.355 . S
C1890 C1892 1.415 . S
C1891 C1890 1.355 . S
C1891 C1893 1.419 . S
C1892 C1890 1.415 . S
C1892 C1897 1.425 . S
C1892 C1899 1.409 . S
C1893 H1885 0.930 . S
C1893 C1891 1.419 . S
C1893 C1894 1.362 . S
C1894 H1886 0.930 . S
C1894 C1893 1.362 . S
C1894 C1897 1.409 . S
C1895 H1887 0.930 . S
C1895 C1896 1.355 . S
C1895 C1897 1.415 . S
C1896 C1895 1.355 . S
C1896 C1898 1.419 . S
C1897 C1892 1.425 . S
C1897 C1894 1.409 . S
C1897 C1895 1.415 . S
C1898 H1888 0.930 . S
C1898 C1896 1.419 . S
C1898 C1899 1.362 . S
C1899 H1889 0.930 . S
C1899 C1892 1.409 . S
C1899 C1898 1.362 . S
H1900 C1906 0.930 . S
H1901 C1909 0.930 . S
H1902 C1910 0.930 . S
H1903 C1911 0.930 . S
H1904 C1914 0.930 . S
H1905 C1915 0.930 . S
C1906 H1900 0.930 . S
C1906 C1907 1.355 . S
C1906 C1908 1.415 . S
C1907 C1906 1.355 . S
C1907 C1909 1.419 . S
C1908 C1906 1.415 . S
C1908 C1913 1.425 . S
C1908 C1915 1.409 . S
C1909 H1901 0.930 . S
C1909 C1907 1.419 . S
C1909 C1910 1.362 . S
C1910 H1902 0.930 . S
C1910 C1909 1.362 . S
C1910 C1913 1.409 . S
C1911 H1903 0.930 . S
C1911 C1912 1.355 . S
C1911 C1913 1.415 . S
C1912 C1911 1.355 . S
C1912 C1914 1.419 . S
C1913 C1908 1.425 . S
C1913 C1910 1.409 . S
C1913 C1911 1.415 . S
C1914 H1904 0.930 . S
C1914 C1912 1.419 . S
C1914 C1915 1.362 . S
C1915 H1905 0.930 . S
C1915 C1908 1.409 . S
C1915 C1914 1.362 . S
H1916 C1922 0.930 . S
H1917 C1925 0.930 . S
H1918 C1926 0.930 . S
H1919 C1927 0.930 . S
H1920 C1930 0.930 . S
H1921 C1931 0.930 . S
C1922 H1916 0.930 . S
C1922 C1923 1.355 . S
C1922 C1924 1.415 . S
C1923 C1922 1.355 . S
C1923 C1925 1.419 . S
C1924 C1922 1.415 . S
C1924 C1929 1.425 . S
C1924 C1931 1.409 . S
C1925 H1917 0.930 . S
C1925 C1923 1.419 . S
C1925 C1926 1.362 . S
C1926 H1918 0.930 . S
C1926 C1925 1.362 . S
C1926 C1929 1.409 . S
C1927 H1919 0.930 . S
C1927 C1928 1.355 . S
C1927 C1929 1.415 . S
C1928 C1927 1.355 . S
C1928 C1930 1.419 . S
C1929 C1924 1.425 . S
C1929 C1926 1.409 . S
C1929 C1927 1.415 . S
C1930 H1920 0.930 . S
C1930 C1928 1.419 . S
C1930 C1931 1.362 . S
C1931 H1921 0.930 . S
C1931 C1924 1.409 . S
C1931 C1930 1.362 . S
H1932 C1938 0.930 . S
H1933 C1941 0.930 . S
H1934 C1942 0.930 . S
H1935 C1943 0.930 . S
H1936 C1946 0.930 . S
H1937 C1947 0.930 . S
C1938 H1932 0.930 . S
C1938 C1939 1.355 . S
C1938 C1940 1.415 . S
C1939 C1938 1.355 . S
C1939 C1941 1.419 1_455 S
C1940 C1938 1.415 . S
C1940 C1945 1.425 . S
C1940 C1947 1.409 . S
C1941 H1933 0.930 . S
C1941 C1939 1.419 1_655 S
C1941 C1942 1.362 . S
C1942 H1934 0.930 . S
C1942 C1941 1.362 . S
C1942 C1945 1.409 1_655 S
C1943 H1935 0.930 . S
C1943 C1944 1.355 1_655 S
C1943 C1945 1.415 1_655 S
C1944 C1943 1.355 1_455 S
C1944 C1946 1.419 . S
C1945 C1940 1.425 . S
C1945 C1942 1.409 1_455 S
C1945 C1943 1.415 1_455 S
C1946 H1936 0.930 . S
C1946 C1944 1.419 . S
C1946 C1947 1.362 . S
C1947 H1937 0.930 . S
C1947 C1940 1.409 . S
C1947 C1946 1.362 . S
H1948 C1954 0.930 . S
H1949 C1957 0.930 . S
H1950 C1958 0.930 . S
H1951 C1959 0.930 . S
H1952 C1962 0.930 . S
H1953 C1963 0.930 . S
C1954 H1948 0.930 . S
C1954 C1955 1.355 . S
C1954 C1956 1.415 . S
C1955 C1954 1.355 . S
C1955 C1957 1.419 . S
C1956 C1954 1.415 . S
C1956 C1961 1.425 . S
C1956 C1963 1.409 . S
C1957 H1949 0.930 . S
C1957 C1955 1.419 . S
C1957 C1958 1.362 . S
C1958 H1950 0.930 . S
C1958 C1957 1.362 . S
C1958 C1961 1.409 . S
C1959 H1951 0.930 . S
C1959 C1960 1.355 . S
C1959 C1961 1.415 . S
C1960 C1959 1.355 . S
C1960 C1962 1.419 . S
C1961 C1956 1.425 . S
C1961 C1958 1.409 . S
C1961 C1959 1.415 . S
C1962 H1952 0.930 . S
C1962 C1960 1.419 . S
C1962 C1963 1.362 . S
C1963 H1953 0.930 . S
C1963 C1956 1.409 . S
C1963 C1962 1.362 . S
H1964 C1970 0.930 . S
H1965 C1973 0.930 . S
H1966 C1974 0.930 . S
H1967 C1975 0.930 . S
H1968 C1978 0.930 . S
H1969 C1979 0.930 . S
C1970 H1964 0.930 . S
C1970 C1971 1.355 1_545 S
C1970 C1972 1.415 . S
C1971 C1970 1.355 1_565 S
C1971 C1973 1.419 . S
C1972 C1970 1.415 . S
C1972 C1977 1.425 1_545 S
C1972 C1979 1.409 . S
C1973 H1965 0.930 . S
C1973 C1971 1.419 . S
C1973 C1974 1.362 . S
C1974 H1966 0.930 . S
C1974 C1973 1.362 . S
C1974 C1977 1.409 . S
C1975 H1967 0.930 . S
C1975 C1976 1.355 . S
C1975 C1977 1.415 . S
C1976 C1975 1.355 . S
C1976 C1978 1.419 1_565 S
C1977 C1972 1.425 1_565 S
C1977 C1974 1.409 . S
C1977 C1975 1.415 . S
C1978 H1968 0.930 . S
C1978 C1976 1.419 1_545 S
C1978 C1979 1.362 . S
C1979 H1969 0.930 . S
C1979 C1972 1.409 . S
C1979 C1978 1.362 . S
H1980 C1986 0.930 1_545 S
H1981 C1989 0.930 . S
H1982 C1990 0.930 . S
H1983 C1991 0.930 . S
H1984 C1994 0.930 . S
H1985 C1995 0.930 . S
C1986 H1980 0.930 1_565 S
C1986 C1987 1.355 . S
C1986 C1988 1.415 . S
C1987 C1986 1.355 . S
C1987 C1989 1.419 . S
C1988 C1986 1.415 . S
C1988 C1993 1.425 . S
C1988 C1995 1.409 1_565 S
C1989 H1981 0.930 . S
C1989 C1987 1.419 . S
C1989 C1990 1.362 . S
C1990 H1982 0.930 . S
C1990 C1989 1.362 . S
C1990 C1993 1.409 . S
C1991 H1983 0.930 . S
C1991 C1992 1.355 . S
C1991 C1993 1.415 . S
C1992 C1991 1.355 . S
C1992 C1994 1.419 1_565 S
C1993 C1988 1.425 . S
C1993 C1990 1.409 . S
C1993 C1991 1.415 . S
C1994 H1984 0.930 . S
C1994 C1992 1.419 1_545 S
C1994 C1995 1.362 . S
C1995 H1985 0.930 . S
C1995 C1988 1.409 1_545 S
C1995 C1994 1.362 . S
H1996 C2002 0.930 . S
H1997 C2005 0.930 . S
H1998 C2006 0.930 . S
H1999 C2007 0.930 . S
H2000 C2010 0.930 . S
H2001 C2011 0.930 . S
C2002 H1996 0.930 . S
C2002 C2003 1.355 1_655 S
C2002 C2004 1.415 . S
C2003 C2002 1.355 1_455 S
C2003 C2005 1.419 . S
C2004 C2002 1.415 . S
C2004 C2009 1.425 1_655 S
C2004 C2011 1.409 . S
C2005 H1997 0.930 . S
C2005 C2003 1.419 . S
C2005 C2006 1.362 . S
C2006 H1998 0.930 . S
C2006 C2005 1.362 . S
C2006 C2009 1.409 . S
C2007 H1999 0.930 . S
C2007 C2008 1.355 . S
C2007 C2009 1.415 . S
C2008 C2007 1.355 . S
C2008 C2010 1.419 1_455 S
C2009 C2004 1.425 1_455 S
C2009 C2006 1.409 . S
C2009 C2007 1.415 . S
C2010 H2000 0.930 . S
C2010 C2008 1.419 1_655 S
C2010 C2011 1.362 . S
C2011 H2001 0.930 . S
C2011 C2004 1.409 . S
C2011 C2010 1.362 . S
H2012 C2018 0.930 . S
H2013 C2021 0.930 . S
H2014 C2022 0.930 . S
H2015 C2023 0.930 . S
H2016 C2026 0.930 . S
H2017 C2027 0.930 . S
C2018 H2012 0.930 . S
C2018 C2019 1.355 . S
C2018 C2020 1.415 . S
C2019 C2018 1.355 . S
C2019 C2021 1.419 . S
C2020 C2018 1.415 . S
C2020 C2025 1.425 . S
C2020 C2027 1.409 . S
C2021 H2013 0.930 . S
C2021 C2019 1.419 . S
C2021 C2022 1.362 . S
C2022 H2014 0.930 . S
C2022 C2021 1.362 . S
C2022 C2025 1.409 . S
C2023 H2015 0.930 . S
C2023 C2024 1.355 . S
C2023 C2025 1.415 . S
C2024 C2023 1.355 . S
C2024 C2026 1.419 . S
C2025 C2020 1.425 . S
C2025 C2022 1.409 . S
C2025 C2023 1.415 . S
C2026 H2016 0.930 . S
C2026 C2024 1.419 . S
C2026 C2027 1.362 . S
C2027 H2017 0.930 . S
C2027 C2020 1.409 . S
C2027 C2026 1.362 . S
H2028 C2034 0.930 . S
H2029 C2037 0.930 . S
H2030 C2038 0.930 . S
H2031 C2039 0.930 . S
H2032 C2042 0.930 . S
H2033 C2043 0.930 . S
C2034 H2028 0.930 . S
C2034 C2035 1.355 . S
C2034 C2036 1.415 . S
C2035 C2034 1.355 . S
C2035 C2037 1.419 . S
C2036 C2034 1.415 . S
C2036 C2041 1.425 . S
C2036 C2043 1.409 . S
C2037 H2029 0.930 . S
C2037 C2035 1.419 . S
C2037 C2038 1.362 . S
C2038 H2030 0.930 . S
C2038 C2037 1.362 . S
C2038 C2041 1.409 . S
C2039 H2031 0.930 . S
C2039 C2040 1.355 . S
C2039 C2041 1.415 . S
C2040 C2039 1.355 . S
C2040 C2042 1.419 . S
C2041 C2036 1.425 . S
C2041 C2038 1.409 . S
C2041 C2039 1.415 . S
C2042 H2032 0.930 . S
C2042 C2040 1.419 . S
C2042 C2043 1.362 . S
C2043 H2033 0.930 . S
C2043 C2036 1.409 . S
C2043 C2042 1.362 . S
H2044 C2050 0.930 . S
H2045 C2053 0.930 . S
H2046 C2054 0.930 . S
H2047 C2055 0.930 . S
H2048 C2058 0.930 . S
H2049 C2059 0.930 . S
C2050 H2044 0.930 . S
C2050 C2051 1.355 . S
C2050 C2052 1.415 . S
C2051 C2050 1.355 . S
C2051 C2053 1.419 . S
C2052 C2050 1.415 . S
C2052 C2057 1.425 . S
C2052 C2059 1.409 . S
C2053 H2045 0.930 . S
C2053 C2051 1.419 . S
C2053 C2054 1.362 . S
C2054 H2046 0.930 . S
C2054 C2053 1.362 . S
C2054 C2057 1.409 . S
C2055 H2047 0.930 . S
C2055 C2056 1.355 . S
C2055 C2057 1.415 . S
C2056 C2055 1.355 . S
C2056 C2058 1.419 . S
C2057 C2052 1.425 . S
C2057 C2054 1.409 . S
C2057 C2055 1.415 . S
C2058 H2048 0.930 . S
C2058 C2056 1.419 . S
C2058 C2059 1.362 . S
C2059 H2049 0.930 . S
C2059 C2052 1.409 . S
C2059 C2058 1.362 . S
H2060 C2066 0.930 . S
H2061 C2069 0.930 . S
H2062 C2070 0.930 . S
H2063 C2071 0.930 . S
H2064 C2074 0.930 . S
H2065 C2075 0.930 . S
C2066 H2060 0.930 . S
C2066 C2067 1.355 . S
C2066 C2068 1.415 . S
C2067 C2066 1.355 . S
C2067 C2069 1.419 . S
C2068 C2066 1.415 . S
C2068 C2073 1.425 . S
C2068 C2075 1.409 . S
C2069 H2061 0.930 . S
C2069 C2067 1.419 . S
C2069 C2070 1.362 . S
C2070 H2062 0.930 . S
C2070 C2069 1.362 . S
C2070 C2073 1.409 . S
C2071 H2063 0.930 . S
C2071 C2072 1.355 . S
C2071 C2073 1.415 . S
C2072 C2071 1.355 . S
C2072 C2074 1.419 . S
C2073 C2068 1.425 . S
C2073 C2070 1.409 . S
C2073 C2071 1.415 . S
C2074 H2064 0.930 . S
C2074 C2072 1.419 . S
C2074 C2075 1.362 . S
C2075 H2065 0.930 . S
C2075 C2068 1.409 . S
C2075 C2074 1.362 . S
H2076 C2082 0.930 1_565 S
H2077 C2085 0.930 . S
H2078 C2086 0.930 . S
H2079 C2087 0.930 . S
H2080 C2090 0.930 . S
H2081 C2091 0.930 . S
C2082 H2076 0.930 1_545 S
C2082 C2083 1.355 . S
C2082 C2084 1.415 . S
C2083 C2082 1.355 . S
C2083 C2085 1.419 . S
C2084 C2082 1.415 . S
C2084 C2089 1.425 . S
C2084 C2091 1.409 1_545 S
C2085 H2077 0.930 . S
C2085 C2083 1.419 . S
C2085 C2086 1.362 . S
C2086 H2078 0.930 . S
C2086 C2085 1.362 . S
C2086 C2089 1.409 . S
C2087 H2079 0.930 . S
C2087 C2088 1.355 . S
C2087 C2089 1.415 . S
C2088 C2087 1.355 . S
C2088 C2090 1.419 1_545 S
C2089 C2084 1.425 . S
C2089 C2086 1.409 . S
C2089 C2087 1.415 . S
C2090 H2080 0.930 . S
C2090 C2088 1.419 1_565 S
C2090 C2091 1.362 . S
C2091 H2081 0.930 . S
C2091 C2084 1.409 1_565 S
C2091 C2090 1.362 . S
H2092 C2098 0.930 . S
H2093 C2101 0.930 . S
H2094 C2102 0.921 . S
H2095 C2103 0.947 1_455 S
H2096 C2106 0.930 . S
H2097 C2107 0.930 . S
C2098 H2092 0.930 . S
C2098 C2099 1.355 . S
C2098 C2100 1.415 . S
C2099 C2098 1.355 . S
C2099 C2101 1.419 . S
C2100 C2098 1.415 . S
C2100 C2105 1.425 . S
C2100 C2107 1.409 . S
C2101 H2093 0.930 . S
C2101 C2099 1.419 . S
C2101 C2102 1.362 . S
C2102 H2094 0.921 . S
C2102 C2101 1.362 . S
C2102 C2105 1.409 . S
C2103 H2095 0.947 1_655 S
C2103 C2104 1.355 . S
C2103 C2105 1.415 . S
C2104 C2103 1.355 . S
C2104 C2106 1.419 . S
C2105 C2100 1.425 . S
C2105 C2102 1.409 . S
C2105 C2103 1.415 . S
C2106 H2096 0.930 . S
C2106 C2104 1.419 . S
C2106 C2107 1.362 . S
C2107 H2097 0.930 . S
C2107 C2100 1.409 . S
C2107 C2106 1.362 . S
H2108 C2114 0.930 . S
H2109 C2117 0.930 . S
H2110 C2118 0.930 . S
H2111 C2119 0.930 . S
H2112 C2122 0.930 . S
H2113 C2123 0.930 . S
C2114 H2108 0.930 . S
C2114 C2115 1.355 . S
C2114 C2116 1.415 . S
C2115 C2114 1.355 . S
C2115 C2117 1.419 . S
C2116 C2114 1.415 . S
C2116 C2121 1.425 . S
C2116 C2123 1.409 . S
C2117 H2109 0.930 . S
C2117 C2115 1.419 . S
C2117 C2118 1.362 . S
C2118 H2110 0.930 . S
C2118 C2117 1.362 . S
C2118 C2121 1.409 . S
C2119 H2111 0.930 . S
C2119 C2120 1.355 . S
C2119 C2121 1.415 . S
C2120 C2119 1.355 . S
C2120 C2122 1.419 . S
C2121 C2116 1.425 . S
C2121 C2118 1.409 . S
C2121 C2119 1.415 . S
C2122 H2112 0.930 . S
C2122 C2120 1.419 . S
C2122 C2123 1.362 . S
C2123 H2113 0.930 . S
C2123 C2116 1.409 . S
C2123 C2122 1.362 . S
H2124 C2130 0.930 . S
H2125 C2133 0.930 . S
H2126 C2134 0.930 . S
H2127 C2135 0.930 . S
H2128 C2138 0.930 . S
H2129 C2139 0.930 . S
C2130 H2124 0.930 . S
C2130 C2131 1.355 . S
C2130 C2132 1.415 . S
C2131 C2130 1.355 . S
C2131 C2133 1.419 . S
C2132 C2130 1.415 . S
C2132 C2137 1.425 . S
C2132 C2139 1.409 . S
C2133 H2125 0.930 . S
C2133 C2131 1.419 . S
C2133 C2134 1.362 . S
C2134 H2126 0.930 . S
C2134 C2133 1.362 . S
C2134 C2137 1.409 . S
C2135 H2127 0.930 . S
C2135 C2136 1.355 . S
C2135 C2137 1.415 . S
C2136 C2135 1.355 . S
C2136 C2138 1.419 . S
C2137 C2132 1.425 . S
C2137 C2134 1.409 . S
C2137 C2135 1.415 . S
C2138 H2128 0.930 . S
C2138 C2136 1.419 . S
C2138 C2139 1.362 . S
C2139 H2129 0.930 . S
C2139 C2132 1.409 . S
C2139 C2138 1.362 . S
H2140 C2146 0.930 . S
H2141 C2149 0.930 . S
H2142 C2150 0.930 . S
H2143 C2151 0.930 . S
H2144 C2154 0.930 . S
H2145 C2155 0.930 . S
C2146 H2140 0.930 . S
C2146 C2147 1.355 . S
C2146 C2148 1.415 . S
C2147 C2146 1.355 . S
C2147 C2149 1.419 . S
C2148 C2146 1.415 . S
C2148 C2153 1.425 . S
C2148 C2155 1.409 . S
C2149 H2141 0.930 . S
C2149 C2147 1.419 . S
C2149 C2150 1.362 . S
C2150 H2142 0.930 . S
C2150 C2149 1.362 . S
C2150 C2153 1.409 . S
C2151 H2143 0.930 . S
C2151 C2152 1.355 . S
C2151 C2153 1.415 . S
C2152 C2151 1.355 . S
C2152 C2154 1.419 . S
C2153 C2148 1.425 . S
C2153 C2150 1.409 . S
C2153 C2151 1.415 . S
C2154 H2144 0.930 . S
C2154 C2152 1.419 . S
C2154 C2155 1.362 . S
C2155 H2145 0.930 . S
C2155 C2148 1.409 . S
C2155 C2154 1.362 . S
H2156 C2162 0.930 . S
H2157 C2165 0.930 . S
H2158 C2166 0.930 . S
H2159 C2167 0.930 . S
H2160 C2170 0.930 . S
H2161 C2171 0.930 . S
C2162 H2156 0.930 . S
C2162 C2163 1.355 . S
C2162 C2164 1.415 . S
C2163 C2162 1.355 . S
C2163 C2165 1.419 . S
C2164 C2162 1.415 . S
C2164 C2169 1.425 . S
C2164 C2171 1.409 . S
C2165 H2157 0.930 . S
C2165 C2163 1.419 . S
C2165 C2166 1.362 . S
C2166 H2158 0.930 . S
C2166 C2165 1.362 . S
C2166 C2169 1.409 . S
C2167 H2159 0.930 . S
C2167 C2168 1.355 . S
C2167 C2169 1.415 . S
C2168 C2167 1.355 . S
C2168 C2170 1.419 . S
C2169 C2164 1.425 . S
C2169 C2166 1.409 . S
C2169 C2167 1.415 . S
C2170 H2160 0.930 . S
C2170 C2168 1.419 . S
C2170 C2171 1.362 . S
C2171 H2161 0.930 . S
C2171 C2164 1.409 . S
C2171 C2170 1.362 . S
H2172 C2178 0.930 . S
H2173 C2181 0.930 . S
H2174 C2182 0.930 . S
H2175 C2183 0.930 . S
H2176 C2186 0.930 . S
H2177 C2187 0.930 . S
C2178 H2172 0.930 . S
C2178 C2179 1.355 . S
C2178 C2180 1.415 . S
C2179 C2178 1.355 . S
C2179 C2181 1.419 . S
C2180 C2178 1.415 . S
C2180 C2185 1.425 . S
C2180 C2187 1.409 . S
C2181 H2173 0.930 . S
C2181 C2179 1.419 . S
C2181 C2182 1.362 . S
C2182 H2174 0.930 . S
C2182 C2181 1.362 . S
C2182 C2185 1.409 . S
C2183 H2175 0.930 . S
C2183 C2184 1.355 . S
C2183 C2185 1.415 . S
C2184 C2183 1.355 . S
C2184 C2186 1.419 . S
C2185 C2180 1.425 . S
C2185 C2182 1.409 . S
C2185 C2183 1.415 . S
C2186 H2176 0.930 . S
C2186 C2184 1.419 . S
C2186 C2187 1.362 . S
C2187 H2177 0.930 . S
C2187 C2180 1.409 . S
C2187 C2186 1.362 . S
H2188 C2194 0.930 . S
H2189 C2197 0.930 . S
H2190 C2198 0.930 . S
H2191 C2199 0.930 . S
H2192 C2202 0.930 . S
H2193 C2203 0.930 . S
C2194 H2188 0.930 . S
C2194 C2195 1.355 . S
C2194 C2196 1.415 . S
C2195 C2194 1.355 . S
C2195 C2197 1.419 . S
C2196 C2194 1.415 . S
C2196 C2201 1.425 . S
C2196 C2203 1.409 . S
C2197 H2189 0.930 . S
C2197 C2195 1.419 . S
C2197 C2198 1.362 . S
C2198 H2190 0.930 . S
C2198 C2197 1.362 . S
C2198 C2201 1.409 . S
C2199 H2191 0.930 . S
C2199 C2200 1.355 . S
C2199 C2201 1.415 . S
C2200 C2199 1.355 . S
C2200 C2202 1.419 . S
C2201 C2196 1.425 . S
C2201 C2198 1.409 . S
C2201 C2199 1.415 . S
C2202 H2192 0.930 . S
C2202 C2200 1.419 . S
C2202 C2203 1.362 . S
C2203 H2193 0.930 . S
C2203 C2196 1.409 . S
C2203 C2202 1.362 . S
H2204 C2210 0.930 . S
H2205 C2213 0.930 . S
H2206 C2214 0.930 . S
H2207 C2215 0.930 . S
H2208 C2218 0.930 . S
H2209 C2219 0.930 . S
C2210 H2204 0.930 . S
C2210 C2211 1.355 . S
C2210 C2212 1.415 . S
C2211 C2210 1.355 . S
C2211 C2213 1.419 . S
C2212 C2210 1.415 . S
C2212 C2217 1.425 . S
C2212 C2219 1.409 . S
C2213 H2205 0.930 . S
C2213 C2211 1.419 . S
C2213 C2214 1.362 . S
C2214 H2206 0.930 . S
C2214 C2213 1.362 . S
C2214 C2217 1.409 . S
C2215 H2207 0.930 . S
C2215 C2216 1.355 . S
C2215 C2217 1.415 . S
C2216 C2215 1.355 . S
C2216 C2218 1.419 . S
C2217 C2212 1.425 . S
C2217 C2214 1.409 . S
C2217 C2215 1.415 . S
C2218 H2208 0.930 . S
C2218 C2216 1.419 . S
C2218 C2219 1.362 . S
C2219 H2209 0.930 . S
C2219 C2212 1.409 . S
C2219 C2218 1.362 . S
H2220 C2226 0.930 . S
H2221 C2229 0.930 . S
H2222 C2230 0.930 . S
H2223 C2231 0.930 . S
H2224 C2234 0.930 . S
H2225 C2235 0.930 . S
C2226 H2220 0.930 . S
C2226 C2227 1.355 1_455 S
C2226 C2228 1.415 . S
C2227 C2226 1.355 1_655 S
C2227 C2229 1.419 . S
C2228 C2226 1.415 . S
C2228 C2233 1.425 1_455 S
C2228 C2235 1.409 . S
C2229 H2221 0.930 . S
C2229 C2227 1.419 . S
C2229 C2230 1.362 . S
C2230 H2222 0.930 . S
C2230 C2229 1.362 . S
C2230 C2233 1.409 . S
C2231 H2223 0.930 . S
C2231 C2232 1.355 . S
C2231 C2233 1.415 . S
C2232 C2231 1.355 . S
C2232 C2234 1.419 1_655 S
C2233 C2228 1.425 1_655 S
C2233 C2230 1.409 . S
C2233 C2231 1.415 . S
C2234 H2224 0.930 . S
C2234 C2232 1.419 1_455 S
C2234 C2235 1.362 . S
C2235 H2225 0.930 . S
C2235 C2228 1.409 . S
C2235 C2234 1.362 . S
H2236 C2242 0.930 . S
H2237 C2245 0.930 . S
H2238 C2246 0.930 . S
H2239 C2247 0.930 . S
H2240 C2250 0.930 . S
H2241 C2251 0.930 . S
C2242 H2236 0.930 . S
C2242 C2243 1.355 . S
C2242 C2244 1.415 . S
C2243 C2242 1.355 . S
C2243 C2245 1.419 . S
C2244 C2242 1.415 . S
C2244 C2249 1.425 . S
C2244 C2251 1.409 . S
C2245 H2237 0.930 . S
C2245 C2243 1.419 . S
C2245 C2246 1.362 . S
C2246 H2238 0.930 . S
C2246 C2245 1.362 . S
C2246 C2249 1.409 . S
C2247 H2239 0.930 . S
C2247 C2248 1.355 . S
C2247 C2249 1.415 . S
C2248 C2247 1.355 . S
C2248 C2250 1.419 . S
C2249 C2244 1.425 . S
C2249 C2246 1.409 . S
C2249 C2247 1.415 . S
C2250 H2240 0.930 . S
C2250 C2248 1.419 . S
C2250 C2251 1.362 . S
C2251 H2241 0.930 . S
C2251 C2244 1.409 . S
C2251 C2250 1.362 . S
H2252 C2258 0.930 1_565 S
H2253 C2261 0.930 . S
H2254 C2262 0.930 . S
H2255 C2263 0.930 . S
H2256 C2266 0.930 . S
H2257 C2267 0.930 . S
C2258 H2252 0.930 1_545 S
C2258 C2259 1.355 . S
C2258 C2260 1.415 . S
C2259 C2258 1.355 . S
C2259 C2261 1.419 . S
C2260 C2258 1.415 . S
C2260 C2265 1.425 . S
C2260 C2267 1.409 1_545 S
C2261 H2253 0.930 . S
C2261 C2259 1.419 . S
C2261 C2262 1.362 . S
C2262 H2254 0.930 . S
C2262 C2261 1.362 . S
C2262 C2265 1.409 . S
C2263 H2255 0.930 . S
C2263 C2264 1.355 . S
C2263 C2265 1.415 . S
C2264 C2263 1.355 . S
C2264 C2266 1.419 1_545 S
C2265 C2260 1.425 . S
C2265 C2262 1.409 . S
C2265 C2263 1.415 . S
C2266 H2256 0.930 . S
C2266 C2264 1.419 1_565 S
C2266 C2267 1.362 . S
C2267 H2257 0.930 . S
C2267 C2260 1.409 1_565 S
C2267 C2266 1.362 . S
C1123 C9 1.466 1_655 S
C1128 C729 1.473 . S
C1139 C19 1.574 . S
C1144 C777 1.563 . S
C1160 C825 1.534 . S
C1155 C33 1.516 . S
C1171 C37 1.501 1_565 S
C1176 C849 1.509 . S
C1187 C5 1.481 . S
C1192 C921 1.494 . S
C1203 C23 1.614 . S
C1208 C969 1.621 . S
C1219 C47 1.482 . S
C1224 C897 1.499 . S
C1240 C945 1.635 . S
C1235 C65 1.627 . S
C1256 C873 1.500 . S
C1251 C75 1.484 . S
C1267 C79 1.438 . S
C1272 C801 1.446 . S
C1288 C705 1.529 . S
C1283 C51 1.498 . S
C1299 C61 1.600 . S
C1304 C753 1.578 . S
C1315 C93 1.701 . S
C1320 C1017 1.674 . S
C1331 C103 1.645 . S
C1336 C1065 1.645 . S
C1352 C1089 1.623 . S
C1347 C117 1.666 . S
C1363 C121 1.631 . S
C1368 C273 1.610 . S
C1379 C89 1.640 . S
C1384 C345 1.643 . S
C1395 C107 1.666 . S
C1400 C393 1.658 . S
C1411 C131 1.617 . S
C1416 C321 1.606 . S
C1427 C149 1.667 . S
C1432 C369 1.672 . S
C1448 C297 1.607 . S
C1443 C159 1.626 . S
C1464 C1113 1.643 . S
C1459 C163 1.667 . S
C1480 C993 1.671 . S
C1475 C135 1.690 . S
C1496 C1041 1.646 . S
C1491 C145 1.658 . S
C1507 C177 1.631 . S
C1512 C441 1.602 . S
C1523 C187 1.617 . S
C1528 C489 1.587 . S
C1539 C201 1.673 . S
C1544 C513 1.650 . S
C1555 C205 1.706 . S
C1560 C561 1.662 . S
C1576 C633 1.615 . S
C1571 C173 1.644 . S
C1592 C681 1.676 . S
C1587 C191 1.694 . S
C1608 C609 1.668 . S
C1603 C215 1.682 . S
C1624 C657 1.689 . S
C1619 C233 1.705 . S
C1635 C243 1.614 . S
C1640 C585 1.571 . S
C1656 C537 1.567 . S
C1651 C247 1.586 . S
C1667 C219 1.695 . S
C1672 C417 1.662 . S
C1688 C465 1.622 . S
C1683 C229 1.643 . S
C1704 C282 1.559 . S
C1699 C11 1.572 . S
C1715 C14 1.527 . S
C1720 C336 1.521 . S
C1736 C384 1.631 . S
C1731 C28 1.647 . S
C1752 C432 1.613 . S
C1747 C39 1.639 . S
C1768 C480 1.543 . S
C1763 C0 1.598 . S
C1784 C522 1.474 . S
C1779 C25 1.487 . S
C1795 C42 1.649 . S
C1800 C528 1.611 . S
C1811 C67 1.541 . S
C1816 C426 1.501 . S
C1827 C70 1.539 . S
C1832 C474 1.528 . S
C1843 C81 1.566 . S
C1848 C330 1.510 . S
C1864 C378 1.553 . S
C1859 C53 1.622 . S
C1875 C56 1.567 . S
C1880 C288 1.549 . S
C1896 C570 1.535 . S
C1891 C95 1.535 . S
C1907 C98 1.630 . S
C1912 C624 1.569 . S
C1923 C112 1.694 . S
C1928 C672 1.639 . S
C1944 C720 1.432 . S
C1939 C123 1.443 . S
C1955 C84 1.562 . S
C1960 C768 1.562 . S
C1971 C109 1.364 . S
C1976 C816 1.394 . S
C1987 C126 1.446 . S
C1992 C810 1.478 . S
C2003 C151 1.406 . S
C2008 C714 1.441 . S
C2024 C762 1.523 . S
C2019 C154 1.531 . S
C2035 C165 1.534 . S
C2040 C618 1.514 . S
C2051 C137 1.652 . S
C2056 C666 1.604 . S
C2072 C576 1.656 . S
C2067 C140 1.660 . S
C2088 C858 1.426 . S
C2083 C179 1.414 . S
C2099 C182 1.408 . S
C2104 C912 1.413 . S
C2115 C196 1.627 . S
C2120 C960 1.567 . S
C2136 C1008 1.548 . S
C2131 C207 1.607 . S
C2152 C1056 1.617 . S
C2147 C168 1.623 . S
C2163 C193 1.586 . S
C2168 C1098 1.593 . S
C2179 C210 1.621 . S
C2184 C1104 1.620 . S
C2195 C235 1.642 . S
C2200 C1002 1.565 . S
C2216 C1050 1.532 . S
C2211 C238 1.596 . S
C2232 C906 1.401 . S
C2227 C249 1.362 . S
C2248 C954 1.558 . S
C2243 C221 1.583 . S
C2259 C224 1.443 . S
C2264 C864 1.440 . S
