# Generated by pormake.
# Topology zzz, (3,6)-cn, num edge types: 1
# Building blocks:
#     Node 0, Type 0, BuildingBlock: BELTOD_clean_linker_0, # of connection points: 3
#     Node 1, Type 0, BuildingBlock: BELTOD_clean_linker_0, # of connection points: 3
#     Node 2, Type 0, BuildingBlock: BELTOD_clean_linker_0, # of connection points: 3
#     Node 3, Type 0, BuildingBlock: BELTOD_clean_linker_0, # of connection points: 3
#     Node 4, Type 0, BuildingBlock: BELTOD_clean_linker_0, # of connection points: 3
#     Node 5, Type 0, BuildingBlock: BELTOD_clean_linker_0, # of connection points: 3
#     Node 6, Type 0, BuildingBlock: BELTOD_clean_linker_0, # of connection points: 3
#     Node 7, Type 0, BuildingBlock: BELTOD_clean_linker_0, # of connection points: 3
#     Node 8, Type 1, BuildingBlock: PAMTOO_clean_sbu_0, # of connection points: 6
#     Node 9, Type 1, BuildingBlock: PAMTOO_clean_sbu_0, # of connection points: 6
#     Node 10, Type 1, BuildingBlock: PAMTOO_clean_sbu_0, # of connection points: 6
#     Node 11, Type 1, BuildingBlock: PAMTOO_clean_sbu_0, # of connection points: 6
#     Edge 12, Type (0, 1), BuildingBlock: TEMPAE_clean_linker_10, # of connection points: 2
#     Edge 13, Type (0, 1), BuildingBlock: TEMPAE_clean_linker_10, # of connection points: 2
#     Edge 14, Type (0, 1), BuildingBlock: TEMPAE_clean_linker_10, # of connection points: 2
#     Edge 15, Type (0, 1), BuildingBlock: TEMPAE_clean_linker_10, # of connection points: 2
#     Edge 16, Type (0, 1), BuildingBlock: TEMPAE_clean_linker_10, # of connection points: 2
#     Edge 17, Type (0, 1), BuildingBlock: TEMPAE_clean_linker_10, # of connection points: 2
#     Edge 18, Type (0, 1), BuildingBlock: TEMPAE_clean_linker_10, # of connection points: 2
#     Edge 19, Type (0, 1), BuildingBlock: TEMPAE_clean_linker_10, # of connection points: 2
#     Edge 20, Type (0, 1), BuildingBlock: TEMPAE_clean_linker_10, # of connection points: 2
#     Edge 21, Type (0, 1), BuildingBlock: TEMPAE_clean_linker_10, # of connection points: 2
#     Edge 22, Type (0, 1), BuildingBlock: TEMPAE_clean_linker_10, # of connection points: 2
#     Edge 23, Type (0, 1), BuildingBlock: TEMPAE_clean_linker_10, # of connection points: 2
#     Edge 24, Type (0, 1), BuildingBlock: TEMPAE_clean_linker_10, # of connection points: 2
#     Edge 25, Type (0, 1), BuildingBlock: TEMPAE_clean_linker_10, # of connection points: 2
#     Edge 26, Type (0, 1), BuildingBlock: TEMPAE_clean_linker_10, # of connection points: 2
#     Edge 27, Type (0, 1), BuildingBlock: TEMPAE_clean_linker_10, # of connection points: 2
#     Edge 28, Type (0, 1), BuildingBlock: TEMPAE_clean_linker_10, # of connection points: 2
#     Edge 29, Type (0, 1), BuildingBlock: TEMPAE_clean_linker_10, # of connection points: 2
#     Edge 30, Type (0, 1), BuildingBlock: TEMPAE_clean_linker_10, # of connection points: 2
#     Edge 31, Type (0, 1), BuildingBlock: TEMPAE_clean_linker_10, # of connection points: 2
#     Edge 32, Type (0, 1), BuildingBlock: TEMPAE_clean_linker_10, # of connection points: 2
#     Edge 33, Type (0, 1), BuildingBlock: TEMPAE_clean_linker_10, # of connection points: 2
#     Edge 34, Type (0, 1), BuildingBlock: TEMPAE_clean_linker_10, # of connection points: 2
#     Edge 35, Type (0, 1), BuildingBlock: TEMPAE_clean_linker_10, # of connection points: 2
# Relax obj value: 0.335
# Max RMSD: 0.267
# Mean RMSD: 0.210
data_MOF--net-zzz--node1-PAMTOO_clean_sbu_0--node2-BELTOD_clean_linker_0--edge1-TEMPAE_clean_linker_10
_symmetry_space_group_name_H-M    P1
_symmetry_Int_Tables_number       1
_symmetry_cell_setting            triclinic
loop_
_symmetry_equiv_pos_as_xyz
'x, y, z'
_cell_length_a     61.393056
_cell_length_b     52.559539
_cell_length_c     19.627111
_cell_angle_alpha  91.80738
_cell_angle_beta   81.599841
_cell_angle_gamma 84.622052
loop_
_atom_site_label
_atom_site_type_symbol
_atom_site_fract_x
_atom_site_fract_y
_atom_site_fract_z
_atom_type_partial_charge
P0 P 0.75397 0.47805 0.49969 0.0
H1 H 0.76299 0.49387 0.63651 0.0
H2 H 0.79582 0.50936 0.67223 0.0
H3 H 0.81984 0.52448 0.46074 0.0
H4 H 0.78727 0.5078 0.42503 0.0
H5 H 0.70835 0.46662 0.50543 0.0
H6 H 0.68074 0.47598 0.43038 0.0
H7 H 0.7236 0.52532 0.31536 0.0
H8 H 0.75103 0.5165 0.39282 0.0
H9 H 0.79167 0.44399 0.5243 0.0
H10 H 0.7571 0.46132 0.35243 0.0
O11 O 0.74288 0.46298 0.56794 0.0
H12 H 0.82219 0.42098 0.44545 0.0
H13 H 0.78755 0.43883 0.27391 0.0
C14 C 0.77245 0.49974 0.52798 0.0
C15 C 0.77487 0.50136 0.59794 0.0
C16 C 0.79382 0.51025 0.61843 0.0
C17 C 0.81083 0.51781 0.56935 0.0
C18 C 0.80737 0.51833 0.49994 0.0
C19 C 0.78843 0.50929 0.47948 0.0
C20 C 0.73178 0.49101 0.45546 0.0
C21 C 0.71163 0.4801 0.46552 0.0
C22 C 0.6959 0.4852 0.42174 0.0
C23 C 0.70005 0.50103 0.36581 0.0
C24 C 0.71976 0.51313 0.35804 0.0
C25 C 0.73549 0.50815 0.4025 0.0
C26 C 0.77225 0.45474 0.44435 0.0
C27 C 0.79032 0.44221 0.46996 0.0
C28 C 0.8078 0.42919 0.4249 0.0
C29 C 0.80737 0.42842 0.35349 0.0
C30 C 0.78832 0.43899 0.32871 0.0
C31 C 0.7709 0.45212 0.3738 0.0
P32 P 0.02967 0.69007 0.43853 0.0
H33 H 0.0274 0.7044 0.58464 0.0
H34 H 0.01667 0.74593 0.64503 0.0
H35 H 0.98492 0.77222 0.47448 0.0
H36 H 0.99598 0.73067 0.41349 0.0
H37 H 0.0476 0.64216 0.36849 0.0
H38 H 0.03434 0.61403 0.28694 0.0
H39 H 0.97057 0.65875 0.3209 0.0
H40 H 0.98446 0.68751 0.40175 0.0
H41 H 0.06272 0.72485 0.45485 0.0
H42 H 0.02902 0.69896 0.29129 0.0
O43 O 0.04728 0.67424 0.48325 0.0
H44 H 0.07588 0.75946 0.38416 0.0
H45 H 0.0423 0.73317 0.2207 0.0
C46 C 0.01235 0.71418 0.49456 0.0
C47 C 0.01725 0.71858 0.5613 0.0
C48 C 0.01133 0.7425 0.59562 0.0
C49 C 1.00027 0.76242 0.56398 0.0
C50 C 0.99334 0.75718 0.50028 0.0
C51 C 0.99944 0.73326 0.46567 0.0
C52 C 0.017 0.66679 0.39186 0.0
C53 C 0.03057 0.64558 0.35985 0.0
C54 C 0.02287 0.62937 0.31311 0.0
C55 C 1.00128 0.63393 0.29703 0.0
C56 C 0.98736 0.65476 0.33132 0.0
C57 C 0.9952 0.67114 0.37812 0.0
C58 C 0.04512 0.70912 0.37819 0.0
C59 C 0.0589 0.72597 0.40279 0.0
C60 C 0.06624 0.74584 0.36271 0.0
C61 C 0.06002 0.749 0.29718 0.0
C62 C 0.04755 0.73098 0.27072 0.0
C63 C 0.03997 0.71134 0.31118 0.0
P64 P 0.7636 0.03362 0.3416 0.0
H65 H 0.75002 0.02484 0.48781 0.0
H66 H 0.71659 0.00879 0.54576 0.0
H67 H 0.70301 0.97914 0.35021 0.0
H68 H 0.73646 0.99573 0.29222 0.0
H69 H 0.80617 0.0542 0.3283 0.0
H70 H 0.84121 0.04295 0.25417 0.0
H71 H 0.81569 0.97606 0.1746 0.0
H72 H 0.78039 0.98724 0.25138 0.0
H73 H 0.72244 0.06621 0.36704 0.0
H74 H 0.76746 0.03416 0.18911 0.0
O75 O 0.76739 0.05597 0.39992 0.0
H76 H 0.69528 0.07957 0.29328 0.0
H77 H 0.74066 0.04825 0.11457 0.0
C78 C 0.74579 0.0117 0.38541 0.0
C79 C 0.74038 0.01404 0.45747 0.0
C80 C 0.72109 0.00486 0.49076 0.0
C81 C 0.70673 0.99312 0.45263 0.0
C82 C 0.71338 0.98857 0.38112 0.0
C83 C 0.73276 0.99769 0.34792 0.0
C84 C 0.79063 0.02141 0.29633 0.0
C85 C 0.80815 0.03673 0.29634 0.0
C86 C 0.8282 0.03044 0.25301 0.0
C87 C 0.83126 0.0088 0.20742 0.0
C88 C 0.81398 0.9928 0.20928 0.0
C89 C 0.79379 0.99911 0.25327 0.0
C90 C 0.74697 0.0492 0.28381 0.0
C91 C 0.72679 0.06284 0.31177 0.0
C92 C 0.71126 0.07055 0.26936 0.0
C93 C 0.7157 0.06483 0.19789 0.0
C94 C 0.73657 0.05257 0.16953 0.0
C95 C 0.75203 0.04465 0.2122 0.0
P96 P 0.47769 0.75584 0.26454 0.0
H97 H 0.4553 0.727 0.3713 0.0
H98 H 0.46831 0.69348 0.44205 0.0
H99 H 0.53594 0.7069 0.36896 0.0
H100 H 0.52265 0.7408 0.29763 0.0
H101 H 0.46629 0.81093 0.2826 0.0
H102 H 0.48224 0.8467 0.22688 0.0
H103 H 0.53883 0.79599 0.13164 0.0
H104 H 0.52193 0.75983 0.18499 0.0
H105 H 0.51053 0.71655 0.19182 0.0
H106 H 0.44395 0.74769 0.17648 0.0
O107 O 0.45163 0.76711 0.295 0.0
H108 H 0.50879 0.68428 0.10188 0.0
H109 H 0.44219 0.71543 0.08519 0.0
C110 C 0.48795 0.73674 0.32985 0.0
C111 C 0.47292 0.72345 0.37215 0.0
C112 C 0.48041 0.70417 0.4127 0.0
C113 C 0.50318 0.69747 0.41124 0.0
C114 C 0.51829 0.71153 0.3709 0.0
C115 C 0.51071 0.73107 0.33057 0.0
C116 C 0.49274 0.78256 0.23752 0.0
C117 C 0.48231 0.80745 0.25073 0.0
C118 C 0.49164 0.82809 0.21906 0.0
C119 C 0.51184 0.82439 0.17393 0.0
C120 C 0.52305 0.79958 0.16483 0.0
C121 C 0.5135 0.77884 0.19598 0.0
C122 C 0.47727 0.73434 0.19163 0.0
C123 C 0.49563 0.71672 0.16845 0.0
C124 C 0.49466 0.69832 0.11651 0.0
C125 C 0.4753 0.69723 0.08653 0.0
C126 C 0.45722 0.7156 0.10793 0.0
C127 C 0.45825 0.73409 0.15994 0.0
P128 P 0.25849 0.45068 0.99309 0.0
H129 H 0.25311 0.44659 0.84685 0.0
H130 H 0.22237 0.46182 0.78825 0.0
H131 H 0.19417 0.50974 0.96858 0.0
H132 H 0.22565 0.49552 0.02482 0.0
H133 H 0.30436 0.43079 0.99511 0.0
H134 H 0.33179 0.44347 0.06392 0.0
H135 H 0.29048 0.5134 0.13062 0.0
H136 H 0.26297 0.50062 0.06056 0.0
H137 H 0.21284 0.43756 0.01258 0.0
H138 H 0.26312 0.44726 0.14106 0.0
O139 O 0.26776 0.42291 0.95032 0.0
H140 H 0.18459 0.44254 0.11384 0.0
H141 H 0.23502 0.4512 0.24289 0.0
C142 C 0.24169 0.46967 0.94068 0.0
C143 C 0.24079 0.46116 0.87279 0.0
C144 C 0.22286 0.46958 0.83969 0.0
C145 C 0.20517 0.48643 0.87418 0.0
C146 C 0.2073 0.49682 0.93978 0.0
C147 C 0.22549 0.48874 0.97223 0.0
C148 C 0.28161 0.46485 0.02173 0.0
C149 C 0.30146 0.44932 0.02228 0.0
C150 C 0.31707 0.45644 0.06261 0.0
C151 C 0.31319 0.47924 0.10385 0.0
C152 C 0.29405 0.49575 0.0993 0.0
C153 C 0.27835 0.48856 0.05876 0.0
C154 C 0.23987 0.44382 0.06868 0.0
C155 C 0.2179 0.44006 0.06276 0.0
C156 C 0.20173 0.44264 0.12104 0.0
C157 C 0.20747 0.44827 0.18628 0.0
C158 C 0.23 0.44791 0.19295 0.0
C159 C 0.24611 0.4457 0.13448 0.0
P160 P 0.07006 0.28043 0.07697 0.0
H161 H 0.08534 0.25606 0.94006 0.0
H162 H 0.07042 0.22209 0.88022 0.0
H163 H 0.00825 0.23708 0.01654 0.0
H164 H 0.02363 0.27074 0.07767 0.0
H165 H 0.09627 0.3161 0.13361 0.0
H166 H 0.08628 0.35507 0.20474 0.0
H167 H 0.01923 0.35688 0.16053 0.0
H168 H 0.02949 0.31709 0.08943 0.0
H169 H 0.08282 0.22739 0.1024 0.0
H170 H 0.0415 0.29127 0.21151 0.0
O171 O 0.09726 0.27531 0.05006 0.0
H172 H 0.06652 0.19859 0.18674 0.0
H173 H 0.02543 0.26275 0.29508 0.0
C174 C 0.05567 0.26613 0.01361 0.0
C175 C 0.06818 0.25289 0.95545 0.0
C176 C 0.05959 0.23323 0.92118 0.0
C177 C 0.03823 0.22633 0.94432 0.0
C178 C 0.02493 0.24144 0.99815 0.0
C179 C 0.03357 0.26114 0.03239 0.0
C180 C 0.06374 0.31373 0.10528 0.0
C181 C 0.07961 0.32535 0.13668 0.0
C182 C 0.07381 0.34778 0.17784 0.0
C183 C 0.05187 0.35919 0.18914 0.0
C184 C 0.03623 0.34846 0.15375 0.0
C185 C 0.04213 0.32589 0.11214 0.0
C186 C 0.06355 0.26152 0.15052 0.0
C187 C 0.07089 0.23537 0.14573 0.0
C188 C 0.06152 0.21894 0.19372 0.0
C189 C 0.04455 0.22851 0.24674 0.0
C190 C 0.03829 0.25491 0.25404 0.0
C191 C 0.04767 0.27128 0.20625 0.0
P192 P 0.24358 0.05674 0.20136 0.0
H193 H 0.26173 0.07855 0.0728 0.0
H194 H 0.29518 0.06545 0.99417 0.0
H195 H 0.29734 0.99026 0.07771 0.0
H196 H 0.26418 0.0043 0.15991 0.0
H197 H 0.20429 0.08591 0.27362 0.0
H198 H 0.17037 0.07449 0.33932 0.0
H199 H 0.18939 0.99492 0.27841 0.0
H200 H 0.22358 0.00677 0.20983 0.0
H201 H 0.28101 0.08271 0.23055 0.0
H202 H 0.24837 0.01731 0.30295 0.0
O203 O 0.24017 0.08828 0.19204 0.0
H204 H 0.31203 0.06931 0.29042 0.0
H205 H 0.27941 0.0037 0.36205 0.0
C206 C 0.26015 0.0425 0.12282 0.0
C207 C 0.26879 0.0589 0.07292 0.0
C208 C 0.28824 0.05129 0.02742 0.0
C209 C 0.29958 0.02682 0.02976 0.0
C210 C 0.2896 0.0095 0.07525 0.0
C211 C 0.27019 0.01731 0.12145 0.0
C212 C 0.21656 0.04729 0.23579 0.0
C213 C 0.20109 0.06601 0.27249 0.0
C214 C 0.18169 0.0594 0.3112 0.0
C215 C 0.17724 0.03372 0.31551 0.0
C216 C 0.19225 0.01492 0.27621 0.0
C217 C 0.2118 0.02165 0.2368 0.0
C218 C 0.26215 0.05131 0.26325 0.0
C219 C 0.28012 0.06599 0.26134 0.0
C220 C 0.29797 0.05814 0.29478 0.0
C221 C 0.29819 0.03534 0.33024 0.0
C222 C 0.27958 0.02148 0.33562 0.0
C223 C 0.26175 0.02933 0.30194 0.0
P224 P 0.43909 0.26448 0.30661 0.0
H225 H 0.41202 0.28717 0.20928 0.0
H226 H 0.42134 0.3156 0.11597 0.0
H227 H 0.49081 0.29614 0.12286 0.0
H228 H 0.48143 0.26785 0.21728 0.0
H229 H 0.41585 0.2321 0.40225 0.0
H230 H 0.42486 0.18938 0.43966 0.0
H231 H 0.48319 0.18006 0.28507 0.0
H232 H 0.47393 0.22342 0.24751 0.0
H233 H 0.43243 0.31721 0.35787 0.0
H234 H 0.48072 0.25247 0.36338 0.0
O235 O 0.41227 0.27329 0.33328 0.0
H236 H 0.45522 0.34431 0.41415 0.0
H237 H 0.50344 0.27939 0.42131 0.0
C238 C 0.44601 0.27533 0.22058 0.0
C239 C 0.42929 0.28818 0.18929 0.0
C240 C 0.43461 0.30466 0.13624 0.0
C241 C 0.45677 0.30841 0.11311 0.0
C242 C 0.47359 0.29357 0.13966 0.0
C243 C 0.46822 0.27721 0.1933 0.0
C244 C 0.444 0.23087 0.32127 0.0
C245 C 0.43024 0.22068 0.37476 0.0
C246 C 0.43542 0.19612 0.39621 0.0
C247 C 0.4547 0.18119 0.36524 0.0
C248 C 0.46823 0.19112 0.3101 0.0
C249 C 0.46287 0.2158 0.28818 0.0
C250 C 0.45454 0.28271 0.35812 0.0
C251 C 0.44766 0.30867 0.37291 0.0
C252 C 0.46075 0.32414 0.40503 0.0
C253 C 0.48107 0.31393 0.42276 0.0
C254 C 0.48791 0.28781 0.40808 0.0
C255 C 0.47478 0.27234 0.37569 0.0
Dy256 Dy 0.99029 0.00682 0.70573 0.0
Dy257 Dy 0.02404 0.98687 0.81035 0.0
C258 C 0.04219 0.00239 0.65721 0.0
O259 O 0.99977 0.96522 0.67758 0.0
O260 O 0.00776 0.95246 0.78233 0.0
O261 O 0.98193 0.00937 0.60288 0.0
O262 O 0.95927 0.02696 0.69014 0.0
O263 O 0.99059 0.99503 0.87558 0.0
O264 O 0.96916 0.98973 0.79117 0.0
O265 O 0.02803 0.02857 0.80152 0.0
O266 O 0.99399 0.04098 0.77301 0.0
O267 O 0.03599 0.98887 0.90846 0.0
O268 O 0.05268 0.96214 0.82683 0.0
C269 C 1.00279 0.94714 0.72094 0.0
O270 O 0.02355 0.01684 0.65731 0.0
O271 O 0.04406 0.9856 0.70473 0.0
C272 C 0.96496 0.05012 0.59072 0.0
C273 C 0.97046 0.09544 0.521 0.0
C274 C 0.98082 0.09051 0.57913 0.0
C275 C 0.97811 0.06807 0.61351 0.0
C276 C 0.95399 0.05515 0.53416 0.0
C277 C 0.9567 0.07775 0.49941 0.0
C278 C 0.96455 0.0255 0.62322 0.0
C279 C 0.97134 0.99153 0.85664 0.0
C280 C 0.01214 0.04655 0.79574 0.0
C281 C 0.05302 0.94942 0.94015 0.0
C282 C 0.05692 0.90809 0.02711 0.0
C283 C 0.03679 0.92369 0.03112 0.0
C284 C 0.03481 0.9441 0.98773 0.0
C285 C 0.07319 0.93424 0.93692 0.0
C286 C 0.07513 0.91372 0.97975 0.0
C287 C 0.05125 0.96983 0.89121 0.0
H288 H 0.99191 0.1034 0.59621 0.0
H289 H 0.98697 0.0643 0.65654 0.0
H290 H 0.94388 0.04135 0.51583 0.0
H291 H 0.94847 0.08114 0.45488 0.0
H292 H 0.02252 0.9201 0.06764 0.0
H293 H 0.01902 0.9555 0.99091 0.0
H294 H 0.08738 0.93797 0.90015 0.0
H295 H 0.09075 0.90188 0.97438 0.0
Dy296 Dy 0.50049 0.9767 0.69525 0.0
Dy297 Dy 0.5099 0.02168 0.80336 0.0
C298 C 0.49341 0.03586 0.66209 0.0
O299 O 0.53728 0.97288 0.69283 0.0
O300 O 0.54011 0.01459 0.72339 0.0
O301 O 0.50847 0.9568 0.59542 0.0
O302 O 0.48243 0.94509 0.67086 0.0
O303 O 0.52375 0.98475 0.84168 0.0
O304 O 0.50123 0.95868 0.79599 0.0
O305 O 0.47489 0.0137 0.83922 0.0
O306 O 0.46681 0.99545 0.73915 0.0
O307 O 0.50876 0.03723 0.90699 0.0
O308 O 0.52278 0.0579 0.82004 0.0
C309 C 0.54909 0.99242 0.69468 0.0
O310 O 0.50099 0.01269 0.63767 0.0
O311 O 0.49119 0.04191 0.72831 0.0
C312 C 0.47507 0.94778 0.55752 0.0
C313 C 0.43851 0.96226 0.49106 0.0
C314 C 0.45696 0.97638 0.48361 0.0
C315 C 0.47503 0.96929 0.51669 0.0
C316 C 0.45741 0.93253 0.56068 0.0
C317 C 0.43924 0.9397 0.52765 0.0
C318 C 0.49115 0.94402 0.60604 0.0
C319 C 0.51424 0.96342 0.8412 0.0
C320 C 0.46053 0.0057 0.8018 0.0
C321 C 0.53973 0.05954 0.91978 0.0
C322 C 0.57829 0.06614 0.97766 0.0
C323 C 0.57036 0.04196 0.97498 0.0
C324 C 0.55133 0.03864 0.94592 0.0
C325 C 0.54756 0.08372 0.92258 0.0
C326 C 0.56676 0.087 0.95105 0.0
C327 C 0.52009 0.05615 0.88678 0.0
H328 H 0.45701 0.9936 0.45464 0.0
H329 H 0.48835 0.98153 0.51333 0.0
H330 H 0.45703 0.91599 0.59229 0.0
H331 H 0.4252 0.9285 0.5344 0.0
H332 H 0.57912 0.0255 0.99425 0.0
H333 H 0.54583 0.01968 0.94335 0.0
H334 H 0.53891 0.10002 0.90221 0.0
H335 H 0.57249 0.10585 0.95278 0.0
Dy336 Dy 0.5316 0.49593 0.76215 0.0
Dy337 Dy 0.4848 0.49078 0.69281 0.0
C338 C 0.49532 0.45801 0.82271 0.0
O339 O 0.54081 0.47318 0.66226 0.0
O340 O 0.50798 0.45555 0.67127 0.0
O341 O 0.56281 0.47948 0.78888 0.0
O342 O 0.55246 0.51992 0.80935 0.0
O343 O 0.50543 0.51387 0.62019 0.0
O344 O 0.52877 0.52823 0.69163 0.0
O345 O 0.48118 0.52832 0.75199 0.0
O346 O 0.50277 0.51551 0.83282 0.0
O347 O 0.47088 0.47475 0.60879 0.0
O348 O 0.44917 0.49659 0.69213 0.0
C349 C 0.52895 0.45507 0.64626 0.0
O350 O 0.51607 0.46338 0.81429 0.0
O351 O 0.48018 0.46955 0.78995 0.0
C352 C 0.57746 0.50037 0.88004 0.0
C353 C 0.60178 0.5025 0.99219 0.0
C354 C 0.58324 0.52015 0.9894 0.0
C355 C 0.57125 0.51916 0.93386 0.0
C356 C 0.5955 0.48226 0.88405 0.0
C357 C 0.60746 0.48324 0.93941 0.0
C358 C 0.5673 0.50105 0.81583 0.0
C359 C 0.51924 0.53003 0.63592 0.0
C360 C 0.48796 0.53192 0.81175 0.0
C361 C 0.43612 0.49238 0.5826 0.0
C362 C 0.40932 0.4997 0.47709 0.0
C363 C 0.43113 0.50682 0.46845 0.0
C364 C 0.44441 0.50314 0.52058 0.0
C365 C 0.41416 0.48632 0.59249 0.0
C366 C 0.40093 0.48989 0.54054 0.0
C367 C 0.45062 0.48377 0.63319 0.0
H368 H 0.57846 0.53534 0.02883 0.0
H369 H 0.55755 0.53358 0.93217 0.0
H370 H 0.60081 0.4677 0.84316 0.0
H371 H 0.62136 0.46903 0.94039 0.0
H372 H 0.4381 0.51479 0.42088 0.0
H373 H 0.46135 0.50788 0.51148 0.0
H374 H 0.4075 0.47766 0.63943 0.0
H375 H 0.38443 0.48378 0.54911 0.0
Dy376 Dy 0.01099 0.53533 0.68766 0.0
Dy377 Dy 1.00186 0.484 0.77248 0.0
C378 C 0.01812 0.47982 0.61148 0.0
O379 O 0.97413 0.53775 0.71157 0.0
O380 O 0.97133 0.49496 0.72545 0.0
O381 O 0.00784 0.55828 0.59941 0.0
O382 O 0.0255 0.5712 0.67913 0.0
O383 O 0.98648 0.51662 0.84503 0.0
O384 O 0.00854 0.54644 0.79948 0.0
O385 O 0.03525 0.49413 0.79067 0.0
O386 O 0.04455 0.515 0.69196 0.0
O387 O 0.00528 0.46117 0.86035 0.0
O388 O 0.98867 0.44725 0.77877 0.0
C389 C 0.96254 0.51792 0.71374 0.0
O390 O 0.01006 0.50374 0.60931 0.0
O391 O 0.02112 0.46991 0.67038 0.0
C392 C 0.04271 0.57273 0.56385 0.0
C393 C 0.08165 0.553 0.47776 0.0
C394 C 0.06145 0.55565 0.45183 0.0
C395 C 0.04211 0.56556 0.49454 0.0
C396 C 0.0634 0.57329 0.58644 0.0
C397 C 0.08268 0.56335 0.54385 0.0
C398 C 0.02243 0.57313 0.61505 0.0
C399 C 0.99546 0.53811 0.85118 0.0
C400 C 0.05019 0.50354 0.74623 0.0
C401 C 0.97451 0.43839 0.89219 0.0
C402 C 0.93786 0.42787 0.98742 0.0
C403 C 0.94359 0.45306 0.98042 0.0
C404 C 0.96164 0.45828 0.93296 0.0
C405 C 0.96905 0.41321 0.89919 0.0
C406 C 0.95085 0.40796 0.94649 0.0
C407 C 0.99315 0.44401 0.84098 0.0
H408 H 0.06025 0.54802 0.40074 0.0
H409 H 0.02646 0.56527 0.47529 0.0
H410 H 0.06457 0.57917 0.63906 0.0
H411 H 0.0982 0.56215 0.56427 0.0
H412 H 0.93422 0.46879 0.01199 0.0
H413 H 0.96552 0.4779 0.92808 0.0
H414 H 0.97875 0.39766 0.86766 0.0
H415 H 0.94674 0.38841 0.9502 0.0
C416 C 0.14388 0.0089 0.34488 0.0
C417 C 0.15758 0.027 0.36389 0.0
C418 C 0.12483 0.00361 0.38974 0.0
C419 C 0.11937 0.01661 0.45541 0.0
C420 C 0.13339 0.03452 0.47521 0.0
C421 C 0.15224 0.03941 0.42954 0.0
C422 C 0.11036 0.98436 0.36656 0.0
C423 C 0.12843 0.0487 0.54474 0.0
C424 C 0.06034 0.02356 0.5531 0.0
C425 C 0.06159 0.00523 0.60335 0.0
C426 C 0.07878 0.02695 0.5035 0.0
C427 C 0.09907 0.01167 0.50383 0.0
C428 C 0.10031 0.9928 0.55349 0.0
C429 C 0.08163 0.98982 0.60248 0.0
C430 C 0.07668 0.04732 0.45169 0.0
C431 C 0.12155 0.9761 0.55595 0.0
H432 H 0.14776 0.99927 0.29431 0.0
H433 H 0.16292 0.05302 0.44554 0.0
H434 H 0.1087 0.96902 0.40397 0.0
H435 H 0.09351 0.99379 0.36509 0.0
H436 H 0.11705 0.97549 0.3147 0.0
H437 H 0.14103 0.06193 0.55254 0.0
H438 H 0.112 0.05994 0.55011 0.0
H439 H 0.12771 0.03488 0.58639 0.0
H440 H 0.04499 0.03555 0.55293 0.0
H441 H 0.08286 0.97553 0.64071 0.0
H442 H 0.08194 0.03893 0.39859 0.0
H443 H 0.08778 0.06226 0.45986 0.0
H444 H 0.05949 0.05659 0.45559 0.0
H445 H 0.12764 0.9664 0.50479 0.0
H446 H 0.1195 0.96135 0.59505 0.0
H447 H 0.1345 0.98811 0.56839 0.0
C448 C 0.44541 0.1399 0.41799 0.0
C449 C 0.46135 0.15647 0.39521 0.0
C450 C 0.45064 0.11867 0.45639 0.0
C451 C 0.47236 0.11381 0.47227 0.0
C452 C 0.48884 0.12958 0.44606 0.0
C453 C 0.48314 0.15073 0.40791 0.0
C454 C 0.43262 0.10221 0.48284 0.0
C455 C 0.51224 0.12492 0.46136 0.0
C456 C 0.47979 0.08067 0.63796 0.0
C457 C 0.48758 0.05562 0.61355 0.0
C458 C 0.47466 0.09968 0.59251 0.0
C459 C 0.47741 0.09355 0.52075 0.0
C460 C 0.48505 0.06826 0.49575 0.0
C461 C 0.49004 0.04961 0.5424 0.0
C462 C 0.4664 0.12639 0.62132 0.0
C463 C 0.48816 0.06095 0.41969 0.0
H464 H 0.42862 0.14398 0.40747 0.0
H465 H 0.49551 0.16353 0.39112 0.0
H466 H 0.43822 0.08169 0.47039 0.0
H467 H 0.4288 0.10474 0.53982 0.0
H468 H 0.41716 0.10711 0.46085 0.0
H469 H 0.52355 0.13734 0.43187 0.0
H470 H 0.51243 0.12871 0.51719 0.0
H471 H 0.51874 0.10463 0.44893 0.0
H472 H 0.47777 0.08554 0.69274 0.0
H473 H 0.49601 0.03031 0.52288 0.0
H474 H 0.44997 0.13218 0.60635 0.0
H475 H 0.47785 0.14016 0.59933 0.0
H476 H 0.4649 0.12797 0.67843 0.0
H477 H 0.47245 0.06549 0.39897 0.0
H478 H 0.49366 0.04029 0.40874 0.0
H479 H 0.50064 0.07228 0.39145 0.0
C480 C 0.33478 0.46461 0.19702 0.0
C481 C 0.32799 0.48434 0.15584 0.0
C482 C 0.34824 0.46881 0.24756 0.0
C483 C 0.35534 0.49336 0.25731 0.0
C484 C 0.34868 0.51339 0.21569 0.0
C485 C 0.33495 0.5087 0.16586 0.0
C486 C 0.35463 0.44696 0.29119 0.0
C487 C 0.3561 0.53974 0.22377 0.0
C488 C 0.37272 0.50704 0.43269 0.0
C489 C 0.39577 0.50089 0.41928 0.0
C490 C 0.35948 0.50552 0.38015 0.0
C491 C 0.36944 0.49792 0.31193 0.0
C492 C 0.39277 0.49278 0.29732 0.0
C493 C 0.4056 0.49421 0.35102 0.0
C494 C 0.33469 0.51109 0.39829 0.0
C495 C 0.40414 0.48477 0.22535 0.0
H496 H 0.32915 0.44586 0.19069 0.0
H497 H 0.32987 0.52402 0.13415 0.0
H498 H 0.37291 0.44325 0.28534 0.0
H499 H 0.34859 0.45212 0.34642 0.0
H500 H 0.34776 0.42902 0.27717 0.0
H501 H 0.34986 0.55312 0.18667 0.0
H502 H 0.35018 0.54779 0.27688 0.0
H503 H 0.37444 0.53857 0.21598 0.0
H504 H 0.3649 0.51271 0.48475 0.0
H505 H 0.42331 0.48909 0.33976 0.0
H506 H 0.32667 0.4934 0.39021 0.0
H507 H 0.32838 0.52549 0.36398 0.0
H508 H 0.32959 0.51826 0.45267 0.0
H509 H 0.39975 0.46554 0.21085 0.0
H510 H 0.42244 0.48402 0.2209 0.0
H511 H 0.39845 0.4982 0.18764 0.0
C512 C 0.02547 0.38039 0.28958 0.0
C513 C 0.04521 0.38032 0.2432 0.0
C514 C 0.0205 0.39787 0.34678 0.0
C515 C 0.03569 0.41565 0.35855 0.0
C516 C 0.05516 0.41645 0.3104 0.0
C517 C 0.05961 0.39891 0.2533 0.0
C518 C 0.99937 0.39662 0.39619 0.0
C519 C 0.07183 0.43506 0.32071 0.0
C520 C 0.01616 0.47246 0.48553 0.0
C521 C 0.02323 0.46367 0.54635 0.0
C522 C 0.02014 0.45713 0.42408 0.0
C523 C 0.03171 0.43248 0.42293 0.0
C524 C 0.03925 0.42369 0.48378 0.0
C525 C 0.03481 0.43929 0.54475 0.0
C526 C 0.01171 0.4672 0.36058 0.0
C527 C 0.05194 0.39769 0.48456 0.0
H528 H 0.01432 0.366 0.28309 0.0
H529 H 0.07473 0.39936 0.21732 0.0
H530 H 1.00338 0.39023 0.44665 0.0
H531 H 0.99011 0.41588 0.40533 0.0
H532 H 0.98846 0.38323 0.37687 0.0
H533 H 0.0847 0.43532 0.27474 0.0
H534 H 0.06354 0.45471 0.33227 0.0
H535 H 0.08009 0.42961 0.36551 0.0
H536 H 0.00716 0.49123 0.48606 0.0
H537 H 0.04046 0.43237 0.59122 0.0
H538 H 0.99992 0.45443 0.34362 0.0
H539 H 0.02562 0.46727 0.31763 0.0
H540 H 1.00324 0.48689 0.36965 0.0
H541 H 0.04157 0.38256 0.47162 0.0
H542 H 0.05716 0.39392 0.53546 0.0
H543 H 0.06689 0.39613 0.44478 0.0
C544 C 0.86096 0.0247 0.12196 0.0
C545 C 0.85196 0.0041 0.15605 0.0
C546 C 0.88062 0.02111 0.07458 0.0
C547 C 0.89171 0.99625 0.06023 0.0
C548 C 0.88268 0.97528 0.09389 0.0
C549 C 0.86289 0.97943 0.1412 0.0
C550 C 0.88945 0.04403 0.0396 0.0
C551 C 0.89396 0.94847 0.0801 0.0
C552 C 0.93071 0.98737 0.88939 0.0
C553 C 0.95136 0.99056 0.90964 0.0
C554 C 0.91136 0.98825 0.93799 0.0
C555 C 0.91252 0.99241 0.00896 0.0
C556 C 0.9334 0.9948 0.03005 0.0
C557 C 0.95253 0.99385 0.98026 0.0
C558 C 0.88951 0.9856 0.91302 0.0
C559 C 0.93543 0.99919 0.10513 0.0
H560 H 0.85246 0.04377 0.13178 0.0
H561 H 0.85619 0.9634 0.16745 0.0
H562 H 0.9065 0.04592 0.0503 0.0
H563 H 0.89037 0.04136 0.98291 0.0
H564 H 0.87901 0.06213 0.05693 0.0
H565 H 0.8849 0.93422 0.11041 0.0
H566 H 0.89539 0.94293 0.02449 0.0
H567 H 0.91101 0.94769 0.09296 0.0
H568 H 0.92951 0.98469 0.83514 0.0
H569 H 0.96834 0.99624 0.99671 0.0
H570 H 0.87871 0.00385 0.92371 0.0
H571 H 0.88082 0.97062 0.94118 0.0
H572 H 0.89157 0.98065 0.85685 0.0
H573 H 0.92678 0.01811 0.1243 0.0
H574 H 0.95295 0.99867 0.11376 0.0
H575 H 0.92735 0.98451 0.13637 0.0
C576 C 0.51527 0.87125 0.15676 0.0
C577 C 0.51954 0.84573 0.13099 0.0
C578 C 0.51777 0.89169 0.11281 0.0
C579 C 0.52529 0.88654 0.04161 0.0
C580 C 0.53184 0.86101 0.01663 0.0
C581 C 0.52866 0.84091 0.06134 0.0
C582 C 0.51049 0.91861 0.14166 0.0
C583 C 0.54048 0.85471 0.94138 0.0
C584 C 0.5005 0.9288 0.91403 0.0
C585 C 0.51733 0.94447 0.89392 0.0
C586 C 0.50279 0.91039 0.96317 0.0
C587 C 0.52267 0.90706 0.99191 0.0
C588 C 0.53978 0.92286 0.97198 0.0
C589 C 0.53678 0.94167 0.92372 0.0
C590 C 0.4839 0.89439 0.98402 0.0
C591 C 0.56138 0.91945 1.00026 0.0
H592 H 0.50888 0.8753 0.21083 0.0
H593 H 0.53199 0.8214 0.04028 0.0
H594 H 0.52261 0.93194 0.12157 0.0
H595 H 0.49445 0.92522 0.12511 0.0
H596 H 0.50831 0.91981 0.1989 0.0
H597 H 0.54859 0.83484 0.93262 0.0
H598 H 0.52654 0.85673 0.91116 0.0
H599 H 0.55252 0.86814 0.92122 0.0
H600 H 0.48531 0.93113 0.89179 0.0
H601 H 0.54985 0.95371 0.90799 0.0
H602 H 0.479 0.89589 0.04082 0.0
H603 H 0.48924 0.87397 0.96925 0.0
H604 H 0.46914 0.90032 0.95947 0.0
H605 H 0.55834 0.92038 0.05743 0.0
H606 H 0.57254 0.93416 0.98251 0.0
H607 H 0.56997 0.90026 0.9836 0.0
C608 C 0.67953 0.52645 0.2834 0.0
C609 C 0.68466 0.50313 0.3133 0.0
C610 C 0.66546 0.52812 0.23264 0.0
C611 C 0.65636 0.50595 0.21095 0.0
C612 C 0.66136 0.48245 0.24131 0.0
C613 C 0.67543 0.48132 0.29173 0.0
C614 C 0.66051 0.55356 0.20172 0.0
C615 C 0.65218 0.4583 0.21959 0.0
C616 C 0.60594 0.51028 0.11711 0.0
C617 C 0.61567 0.50453 0.04837 0.0
C618 C 0.61897 0.5115 0.17034 0.0
C619 C 0.64232 0.50689 0.15465 0.0
C620 C 0.65224 0.50166 0.08522 0.0
C621 C 0.63885 0.50058 0.03313 0.0
C622 C 0.60771 0.5171 0.24363 0.0
C623 C 0.67705 0.49671 0.06601 0.0
H624 H 0.68641 0.54344 0.29996 0.0
H625 H 0.67961 0.46308 0.31324 0.0
H626 H 0.66661 0.55216 0.14553 0.0
H627 H 0.64236 0.55877 0.2082 0.0
H628 H 0.66828 0.56916 0.22558 0.0
H629 H 0.65698 0.44176 0.24996 0.0
H630 H 0.63385 0.4613 0.22572 0.0
H631 H 0.65824 0.45342 0.16423 0.0
H632 H 0.58808 0.51323 0.1296 0.0
H633 H 0.64659 0.49668 0.98011 0.0
H634 H 0.61476 0.5333 0.26731 0.0
H635 H 0.61073 0.50022 0.27473 0.0
H636 H 0.58956 0.52186 0.24686 0.0
H637 H 0.68519 0.5129 0.08527 0.0
H638 H 0.68225 0.49401 0.00941 0.0
H639 H 0.68316 0.47931 0.09082 0.0
C640 C 0.98201 0.62972 0.19281 0.0
C641 C 0.99437 0.61821 0.24048 0.0
C642 C 0.97861 0.61611 0.13302 0.0
C643 C 0.98815 0.59051 0.1197 0.0
C644 C 0.9994 0.57829 0.16964 0.0
C645 C 1.00211 0.59216 0.22966 0.0
C646 C 0.96602 0.62968 0.08196 0.0
C647 C 0.01001 0.55111 0.15749 0.0
C648 C 0.97508 0.54851 0.97134 0.0
C649 C 0.99253 0.55227 0.91909 0.0
C650 C 0.97299 0.56133 0.03649 0.0
C651 C 0.98905 0.57775 0.05012 0.0
C652 C 0.00665 0.58158 0.99741 0.0
C653 C 0.00802 0.56906 0.93256 0.0
C654 C 0.95371 0.55723 0.09077 0.0
C655 C 0.02441 0.59849 0.00991 0.0
H656 H 0.97598 0.64981 0.20005 0.0
H657 H 0.01113 0.5828 0.26695 0.0
H658 H 0.97781 0.63433 0.03672 0.0
H659 H 0.95438 0.61718 0.06301 0.0
H660 H 0.95655 0.64776 0.10472 0.0
H661 H 0.01613 0.54351 0.20415 0.0
H662 H 0.99813 0.53836 0.14122 0.0
H663 H 0.02422 0.55037 0.11517 0.0
H664 H 0.96302 0.53562 0.96125 0.0
H665 H 0.0217 0.57191 0.89283 0.0
H666 H 0.94458 0.57592 0.10991 0.0
H667 H 0.9598 0.54811 0.13551 0.0
H668 H 0.94202 0.54497 0.07094 0.0
H669 H 0.01689 0.61824 0.02514 0.0
H670 H 0.03711 0.59925 0.96369 0.0
H671 H 0.03277 0.59133 0.05302 0.0
C672 C 0.04284 0.19068 0.32049 0.0
C673 C 0.0319 0.21083 0.28995 0.0
C674 C 0.03085 0.17317 0.35881 0.0
C675 C 0.00744 0.17581 0.3658 0.0
C676 C 0.99632 0.19623 0.33536 0.0
C677 C 0.00871 0.21357 0.29788 0.0
C678 C 0.04323 0.15171 0.39128 0.0
C679 C 0.9714 0.19942 0.34114 0.0
C680 C 0.98155 0.11466 0.40803 0.0
C681 C 0.97602 0.1177 0.47988 0.0
C682 C 0.99078 0.13406 0.3696 0.0
C683 C 0.99472 0.15685 0.4041 0.0
C684 C 0.98795 0.16065 0.47599 0.0
C685 C 0.97852 0.14106 0.513 0.0
C686 C 0.99752 0.12954 0.29271 0.0
C687 C 0.99184 0.18476 0.51443 0.0
H688 H 0.06076 0.18867 0.31446 0.0
H689 H 1.00027 0.22893 0.27317 0.0
H690 H 0.03748 0.15224 0.44764 0.0
H691 H 0.03978 0.13299 0.36972 0.0
H692 H 0.06141 0.1528 0.38253 0.0
H693 H 0.9653 0.21681 0.31615 0.0
H694 H 0.96564 0.18247 0.31665 0.0
H695 H 0.96378 0.20062 0.39612 0.0
H696 H 0.97986 0.09658 0.38221 0.0
H697 H 0.9739 0.14363 0.56843 0.0
H698 H 0.01584 0.12731 0.28034 0.0
H699 H 0.99141 0.1462 0.26504 0.0
H700 H 0.99112 0.11212 0.27286 0.0
H701 H 0.00989 0.18568 0.513 0.0
H702 H 0.98391 0.18562 0.56919 0.0
H703 H 0.98539 0.20191 0.48932 0.0
C704 C 0.31763 0.01439 0.4206 0.0
C705 C 0.31858 0.02475 0.35545 0.0
C706 C 0.33688 0.00355 0.44348 0.0
C707 C 0.35746 0.00296 0.39984 0.0
C708 C 0.35848 0.01323 0.33384 0.0
C709 C 0.33902 0.02404 0.31249 0.0
C710 C 0.33525 0.99286 0.51436 0.0
C711 C 0.38011 0.01281 0.28575 0.0
C712 C 0.4102 0.99839 0.47917 0.0
C713 C 0.41788 0.97244 0.46647 0.0
C714 C 0.39047 0.0085 0.4582 0.0
C715 C 0.37809 0.99225 0.42378 0.0
C716 C 0.38566 0.966 0.41099 0.0
C717 C 0.40549 0.95637 0.43272 0.0
C718 C 0.38288 0.03658 0.47298 0.0
C719 C 0.3729 0.94818 0.37401 0.0
H720 H 0.30183 0.01496 0.45385 0.0
H721 H 0.33973 0.03153 0.26146 0.0
H722 H 0.34196 0.97244 0.51043 0.0
H723 H 0.34539 0.00322 0.54623 0.0
H724 H 0.31794 0.99442 0.54142 0.0
H725 H 0.37796 0.0211 0.2355 0.0
H726 H 0.39177 0.02378 0.31003 0.0
H727 H 0.38791 0.99287 0.27599 0.0
H728 H 0.41949 0.01077 0.50662 0.0
H729 H 0.41144 0.93633 0.42271 0.0
H730 H 0.36625 0.03886 0.50471 0.0
H731 H 0.3814 0.04613 0.42403 0.0
H732 H 0.39442 0.04657 0.50057 0.0
H733 H 0.35585 0.94823 0.40214 0.0
H734 H 0.38089 0.92821 0.36898 0.0
H735 H 0.37146 0.95492 0.3217 0.0
C736 C 0.51805 0.32948 0.43271 0.0
C737 C 0.49513 0.33087 0.45485 0.0
C738 C 0.531 0.34712 0.45863 0.0
C739 C 0.52067 0.36673 0.50688 0.0
C740 C 0.4977 0.36754 0.53133 0.0
C741 C 0.4853 0.3495 0.50539 0.0
C742 C 0.55546 0.34531 0.4322 0.0
C743 C 0.48595 0.38801 0.58331 0.0
C744 C 0.54266 0.40967 0.63011 0.0
C745 C 0.5384 0.43314 0.60049 0.0
C746 C 0.54027 0.38669 0.59495 0.0
C747 C 0.53303 0.3876 0.52975 0.0
C748 C 0.5321 0.41097 0.49575 0.0
C749 C 0.53479 0.43361 0.53188 0.0
C750 C 0.54227 0.36204 0.63188 0.0
C751 C 0.52481 0.41275 0.42575 0.0
H752 H 0.52575 0.31519 0.39336 0.0
H753 H 0.46772 0.35027 0.52388 0.0
H754 H 0.55855 0.35915 0.3912 0.0
H755 H 0.56504 0.35014 0.47377 0.0
H756 H 0.56177 0.32587 0.40984 0.0
H757 H 0.46807 0.38569 0.59738 0.0
H758 H 0.49365 0.38754 0.63103 0.0
H759 H 0.48751 0.40719 0.56209 0.0
H760 H 0.54524 0.40944 0.68361 0.0
H761 H 0.53125 0.45189 0.50955 0.0
H762 H 0.54897 0.34572 0.59521 0.0
H763 H 0.52563 0.35807 0.65717 0.0
H764 H 0.5531 0.36324 0.67232 0.0
H765 H 0.53255 0.3963 0.39104 0.0
H766 H 0.52903 0.43077 0.40121 0.0
H767 H 0.5066 0.41229 0.43149 0.0
C768 C 0.16919 0.44988 0.25329 0.0
C769 C 0.19013 0.459 0.24328 0.0
C770 C 0.15144 0.46339 0.29694 0.0
C771 C 0.15482 0.48644 0.33137 0.0
C772 C 0.17623 0.49474 0.32533 0.0
C773 C 0.1936 0.48098 0.28119 0.0
C774 C 0.12884 0.45382 0.30307 0.0
C775 C 0.18051 0.51911 0.3618 0.0
C776 C 0.10722 0.53867 0.36931 0.0
C777 C 0.10075 0.53655 0.4401 0.0
C778 C 0.12465 0.52219 0.33313 0.0
C779 C 0.13573 0.50313 0.36875 0.0
C780 C 0.12908 0.50073 0.44009 0.0
C781 C 0.11164 0.51748 0.4749 0.0
C782 C 0.13131 0.52526 0.25689 0.0
C783 C 0.14046 0.48066 0.47981 0.0
H784 H 0.16647 0.43273 0.2249 0.0
H785 H 0.20958 0.48847 0.27313 0.0
H786 H 0.12133 0.45364 0.35799 0.0
H787 H 0.11776 0.46694 0.2772 0.0
H788 H 0.12945 0.43427 0.27918 0.0
H789 H 0.19844 0.52148 0.35736 0.0
H790 H 0.1722 0.53579 0.33922 0.0
H791 H 0.1735 0.51941 0.41723 0.0
H792 H 0.09872 0.55332 0.3424 0.0
H793 H 0.1062 0.51532 0.52928 0.0
H794 H 0.13032 0.50705 0.22786 0.0
H795 H 0.14874 0.52983 0.24667 0.0
H796 H 0.12068 0.54064 0.23667 0.0
H797 H 0.1316 0.47939 0.53298 0.0
H798 H 0.15753 0.48533 0.48317 0.0
H799 H 0.14178 0.46159 0.45277 0.0
C800 C 0.05762 0.79652 0.29509 0.0
C801 C 0.06385 0.77265 0.26027 0.0
C802 C 0.05794 0.81917 0.25934 0.0
C803 C 0.06487 0.81788 0.1872 0.0
C804 C 0.07222 0.79393 0.15235 0.0
C805 C 0.07146 0.77153 0.1893 0.0
C806 C 0.04972 0.84432 0.29819 0.0
C807 C 0.08004 0.79186 0.07561 0.0
C808 C 0.04133 0.86993 0.08156 0.0
C809 C 0.05876 0.88547 0.07025 0.0
C810 C 0.04305 0.84806 0.12019 0.0
C811 C 0.0628 0.84133 0.14747 0.0
C812 C 0.08045 0.85691 0.13653 0.0
C813 C 0.07817 0.87889 0.09842 0.0
C814 C 0.02378 0.832 0.13127 0.0
C815 C 0.1018 0.85023 0.16458 0.0
H816 H 0.05139 0.79739 0.34982 0.0
H817 H 0.07636 0.75307 0.1625 0.0
H818 H 0.06191 0.85847 0.28687 0.0
H819 H 0.03411 0.85222 0.28105 0.0
H820 H 0.04652 0.84224 0.35484 0.0
H821 H 0.08712 0.77216 0.05752 0.0
H822 H 0.06596 0.79738 0.04777 0.0
H823 H 0.09274 0.80523 0.06146 0.0
H824 H 0.02643 0.87458 0.05903 0.0
H825 H 0.0916 0.89098 0.0908 0.0
H826 H 0.01851 0.83008 0.18725 0.0
H827 H 0.02888 0.81246 0.10794 0.0
H828 H 0.00934 0.84031 0.1084 0.0
H829 H 0.09845 0.84942 0.22152 0.0
H830 H 0.114 0.86427 0.15112 0.0
H831 H 0.1093 0.83099 0.14396 0.0
C832 C 0.68224 0.09071 0.16734 0.0
C833 C 0.69773 0.06906 0.155 0.0
C834 C 0.66329 0.09285 0.13484 0.0
C835 C 0.65987 0.07295 0.08846 0.0
C836 C 0.67609 0.05183 0.07255 0.0
C837 C 0.69475 0.05007 0.10627 0.0
C838 C 0.64636 0.11569 0.15301 0.0
C839 C 0.67313 0.03032 0.02289 0.0
C840 C 0.60147 0.05894 0.07099 0.0
C841 C 0.59869 0.06937 0.00766 0.0
C842 C 0.62109 0.06065 0.09866 0.0
C843 C 0.63844 0.07288 0.06173 0.0
C844 C 0.63559 0.08389 0.99834 0.0
C845 C 0.61566 0.0821 0.97215 0.0
C846 C 0.62341 0.04891 0.16684 0.0
C847 C 0.65381 0.09685 0.95727 0.0
H848 H 0.6846 0.10568 0.20404 0.0
H849 H 0.70641 0.03309 0.09695 0.0
H850 H 0.64166 0.12422 0.10561 0.0
H851 H 0.63114 0.10947 0.18278 0.0
H852 H 0.65251 0.13068 0.18437 0.0
H853 H 0.6883 0.01675 0.01034 0.0
H854 H 0.65937 0.01955 0.04586 0.0
H855 H 0.66865 0.03804 0.97429 0.0
H856 H 0.58824 0.04938 0.09888 0.0
H857 H 0.61359 0.09 0.92286 0.0
H858 H 0.62784 0.06337 0.20348 0.0
H859 H 0.63697 0.03312 0.15938 0.0
H860 H 0.60797 0.04118 0.19052 0.0
H861 H 0.65944 0.1118 0.98987 0.0
H862 H 0.64848 0.10579 0.91109 0.0
H863 H 0.66827 0.08264 0.94015 0.0
C864 C 0.4917 0.66731 0.98649 0.0
C865 C 0.47365 0.67582 0.03695 0.0
C866 C 0.49163 0.64487 0.946 0.0
C867 C 0.47304 0.63065 0.9561 0.0
C868 C 0.45424 0.63995 0.00396 0.0
C869 C 0.45478 0.66243 0.04397 0.0
C870 C 0.51195 0.63567 0.89507 0.0
C871 C 0.43404 0.62542 0.01571 0.0
C872 C 0.47141 0.5775 0.82173 0.0
C873 C 0.48122 0.55636 0.85202 0.0
C874 C 0.46792 0.60175 0.85587 0.0
C875 C 0.4743 0.60482 0.92185 0.0
C876 C 0.48325 0.58332 0.95391 0.0
C877 C 0.48662 0.55937 0.91857 0.0
C878 C 0.45839 0.62424 0.81996 0.0
C879 C 0.49018 0.58579 0.02439 0.0
H880 H 0.50616 0.67784 0.98003 0.0
H881 H 0.44084 0.66878 0.0832 0.0
H882 H 0.52002 0.61779 0.9127 0.0
H883 H 0.5073 0.63116 0.84383 0.0
H884 H 0.5242 0.65002 0.88909 0.0
H885 H 0.41989 0.6367 0.04837 0.0
H886 H 0.42888 0.61999 0.96581 0.0
H887 H 0.43807 0.60746 0.04152 0.0
H888 H 0.46731 0.57538 0.77011 0.0
H889 H 0.49411 0.54312 0.94245 0.0
H890 H 0.45187 0.61818 0.77275 0.0
H891 H 0.47144 0.63712 0.80501 0.0
H892 H 0.44488 0.63551 0.85517 0.0
H893 H 0.504 0.59806 0.02225 0.0
H894 H 0.49567 0.56697 0.04373 0.0
H895 H 0.47628 0.59515 0.06201 0.0
C896 C 0.84758 0.43034 0.31453 0.0
C897 C 0.82779 0.4205 0.30443 0.0
C898 C 0.86608 0.42749 0.26295 0.0
C899 C 0.86479 0.4143 0.19989 0.0
C900 C 0.84541 0.40269 0.19132 0.0
C901 C 0.82702 0.4061 0.24362 0.0
C902 C 0.88637 0.44035 0.27397 0.0
C903 C 0.84359 0.38805 0.12532 0.0
C904 C 0.89906 0.43968 0.04561 0.0
C905 C 0.91837 0.42268 0.03749 0.0
C906 C 0.88122 0.4366 0.09685 0.0
C907 C 0.88254 0.41574 0.14045 0.0
C908 C 0.90148 0.39772 0.13032 0.0
C909 C 0.91927 0.40149 0.07913 0.0
C910 C 0.86132 0.4563 0.10606 0.0
C911 C 0.9033 0.37506 0.17521 0.0
H912 H 0.84818 0.4418 0.36102 0.0
H913 H 0.81178 0.39829 0.23597 0.0
H914 H 0.90151 0.4269 0.26018 0.0
H915 H 0.88799 0.45673 0.23985 0.0
H916 H 0.88556 0.44762 0.32816 0.0
H917 H 0.82903 0.37682 0.13099 0.0
H918 H 0.84192 0.40166 0.08388 0.0
H919 H 0.85876 0.37487 0.10849 0.0
H920 H 0.89802 0.45572 0.01247 0.0
H921 H 0.93416 0.38832 0.07338 0.0
H922 H 0.85964 0.46633 0.15745 0.0
H923 H 0.846 0.44685 0.10405 0.0
H924 H 0.86254 0.4708 0.06604 0.0
H925 H 0.90512 0.38174 0.22808 0.0
H926 H 0.91773 0.36113 0.15512 0.0
H927 H 0.88804 0.3651 0.17924 0.0
C928 C 0.0202 0.18558 0.96446 0.0
C929 C 0.03111 0.20179 0.91823 0.0
C930 C 0.01576 0.16105 0.94291 0.0
C931 C 0.02249 0.15226 0.87337 0.0
C932 C 0.0328 0.16881 0.82583 0.0
C933 C 0.03695 0.19332 0.84874 0.0
C934 C 1.00465 0.14415 0.99536 0.0
C935 C 0.04017 0.16028 0.75118 0.0
C936 C 0.03412 0.08006 0.83892 0.0
C937 C 0.01482 0.07368 0.81465 0.0
C938 C 0.03688 0.10552 0.85732 0.0
C939 C 0.01994 0.12525 0.85158 0.0
C940 C 1.0005 0.119 0.82656 0.0
C941 C 0.99818 0.09336 0.80837 0.0
C942 C 0.05793 0.11128 0.88338 0.0
C943 C 0.98204 0.13939 0.81962 0.0
H944 H 0.01593 0.19159 0.01847 0.0
H945 H 0.04514 0.20571 0.81232 0.0
H946 H 0.99021 0.13663 0.97653 0.0
H947 H 0.01638 0.12746 0.00291 0.0
H948 H 0.99896 0.15444 0.04609 0.0
H949 H 0.04662 0.17592 0.71979 0.0
H950 H 0.05337 0.14416 0.74757 0.0
H951 H 0.02621 0.15321 0.72854 0.0
H952 H 0.04714 0.06512 0.8438 0.0
H953 H 0.98324 0.08875 0.78943 0.0
H954 H 0.054 0.11982 0.93669 0.0
H955 H 0.0662 0.12551 0.85086 0.0
H956 H 0.06973 0.09392 0.88339 0.0
H957 H 0.97541 0.14873 0.8709 0.0
H958 H 0.96824 0.13155 0.79765 0.0
H959 H 0.98844 0.15445 0.78606 0.0
C960 C 0.33874 0.00523 0.01805 0.0
C961 C 0.32252 0.02059 0.99006 0.0
C962 C 0.36086 0.0014 0.98506 0.0
C963 C 0.36731 0.01372 0.92316 0.0
C964 C 0.35103 0.02876 0.8937 0.0
C965 C 0.32891 0.03168 0.92675 0.0
C966 C 0.37749 0.98472 0.01769 0.0
C967 C 0.35713 0.04258 0.82839 0.0
C968 C 0.42803 0.02675 0.88375 0.0
C969 C 0.43659 0.00813 0.83146 0.0
C970 C 0.40552 0.02903 0.913 0.0
C971 C 0.39121 0.01182 0.89098 0.0
C972 C 0.39981 0.99283 0.83854 0.0
C973 C 0.42227 0.99145 0.80882 0.0
C974 C 0.39704 0.04998 0.96739 0.0
C975 C 0.38539 0.97364 0.81471 0.0
H976 H 0.33442 0.99681 0.06725 0.0
H977 H 0.31666 0.0431 0.90325 0.0
H978 H 0.38699 0.97048 0.97893 0.0
H979 H 0.3895 0.99665 0.03677 0.0
H980 H 0.36951 0.97439 0.06163 0.0
H981 H 0.34253 0.0532 0.8113 0.0
H982 H 0.36924 0.05634 0.83681 0.0
H983 H 0.3652 0.0288 0.78625 0.0
H984 H 0.4389 0.03982 0.90132 0.0
H985 H 0.42875 0.97684 0.76891 0.0
H986 H 0.39079 0.0415 0.01662 0.0
H987 H 0.38296 0.06199 0.9515 0.0
H988 H 0.41002 0.06248 0.97681 0.0
H989 H 0.37855 0.96274 0.85904 0.0
H990 H 0.39459 0.95991 0.77397 0.0
H991 H 0.37115 0.98365 0.79434 0.0
C992 C 0.45157 0.35454 0.08693 0.0
C993 C 0.4621 0.32993 0.06836 0.0
C994 C 0.45694 0.37559 0.04787 0.0
C995 C 0.47302 0.37191 0.98798 0.0
C996 C 0.48356 0.34704 0.96848 0.0
C997 C 0.47816 0.32637 0.00942 0.0
C998 C 0.44562 0.40182 0.07126 0.0
C999 C 0.50049 0.34228 0.9043 0.0
C1000 C 0.47143 0.42296 0.8551 0.0
C1001 C 0.4891 0.43675 0.86714 0.0
C1002 C 0.46624 0.40161 0.89331 0.0
C1003 C 0.47871 0.39416 0.94589 0.0
C1004 C 0.49634 0.40826 0.95908 0.0
C1005 C 0.50148 0.42921 0.91902 0.0
C1006 C 0.44757 0.38684 0.87682 0.0
C1007 C 0.50973 0.40128 0.01566 0.0
H1008 H 0.43944 0.35744 0.13323 0.0
H1009 H 0.48631 0.30736 0.99506 0.0
H1010 H 0.45815 0.41501 0.07986 0.0
H1011 H 0.43656 0.40982 0.03061 0.0
H1012 H 0.43374 0.40148 0.11962 0.0
H1013 H 0.50674 0.32175 0.89527 0.0
H1014 H 0.49314 0.34884 0.85869 0.0
H1015 H 0.51472 0.35348 0.90844 0.0
H1016 H 0.46198 0.42842 0.81441 0.0
H1017 H 0.51514 0.4398 0.92862 0.0
H1018 H 0.43461 0.38719 0.92266 0.0
H1019 H 0.4538 0.36651 0.86365 0.0
H1020 H 0.43986 0.3947 0.83313 0.0
H1021 H 0.49866 0.40173 0.06582 0.0
H1022 H 0.52265 0.41444 0.02014 0.0
H1023 H 0.51788 0.3815 0.00575 0.0
C1024 C 0.17601 0.47127 0.80828 0.0
C1025 C 0.18381 0.49102 0.84529 0.0
C1026 C 0.15512 0.47422 0.78641 0.0
C1027 C 0.14126 0.49733 0.80283 0.0
C1028 C 0.14918 0.51764 0.83827 0.0
C1029 C 0.17034 0.51433 0.85858 0.0
C1030 C 0.14752 0.45216 0.74796 0.0
C1031 C 0.13499 0.54262 0.8568 0.0
C1032 C 0.09052 0.51015 0.71148 0.0
C1033 C 0.07363 0.50187 0.75945 0.0
C1034 C 0.11256 0.50902 0.72488 0.0
C1035 C 0.1179 0.49941 0.78778 0.0
C1036 C 0.10089 0.49121 0.83642 0.0
C1037 C 0.07909 0.49245 0.82163 0.0
C1038 C 0.13016 0.51774 0.67123 0.0
C1039 C 0.10569 0.48109 0.90444 0.0
H1040 H 0.18584 0.45296 0.79849 0.0
H1041 H 0.17616 0.52997 0.88585 0.0
H1042 H 0.13346 0.44454 0.78039 0.0
H1043 H 0.14153 0.45877 0.70021 0.0
H1044 H 0.1609 0.43634 0.73385 0.0
H1045 H 0.14396 0.55708 0.88078 0.0
H1046 H 0.12918 0.55056 0.81016 0.0
H1047 H 0.12009 0.53928 0.89347 0.0
H1048 H 0.08657 0.51748 0.66327 0.0
H1049 H 0.06625 0.48615 0.85941 0.0
H1050 H 0.14104 0.50084 0.647 0.0
H1051 H 0.14073 0.53033 0.69519 0.0
H1052 H 0.12298 0.52821 0.6302 0.0
H1053 H 0.11773 0.46379 0.89523 0.0
H1054 H 0.09056 0.47608 0.93749 0.0
H1055 H 0.11333 0.49559 0.933 0.0
C1056 C 0.01813 0.79901 0.60842 0.0
C1057 C 0.99893 0.7892 0.59232 0.0
C1058 C 0.01793 0.8247 0.63051 0.0
C1059 C 0.99794 0.841 0.63787 0.0
C1060 C 0.97836 0.83109 0.62299 0.0
C1061 C 0.97915 0.80536 0.59954 0.0
C1062 C 0.03929 0.83454 0.6443 0.0
C1063 C 0.95664 0.84772 0.63136 0.0
C1064 C 0.99662 0.90192 0.74961 0.0
C1065 C 1.00067 0.92019 0.69991 0.0
C1066 C 0.99491 0.87627 0.73022 0.0
C1067 C 0.99782 0.86855 0.65938 0.0
C1068 C 1.00181 0.88695 0.60899 0.0
C1069 C 1.00294 0.91257 0.62986 0.0
C1070 C 0.99026 0.85737 0.78555 0.0
C1071 C 0.00549 0.87946 0.53295 0.0
H1072 H 0.03356 0.78672 0.6016 0.0
H1073 H 0.96429 0.79783 0.58704 0.0
H1074 H 0.04336 0.85024 0.60959 0.0
H1075 H 0.03742 0.84258 0.698 0.0
H1076 H 0.0534 0.81936 0.63641 0.0
H1077 H 0.94272 0.83682 0.62116 0.0
H1078 H 0.95279 0.8565 0.68445 0.0
H1079 H 0.95787 0.86357 0.59543 0.0
H1080 H 0.99464 0.9077 0.80385 0.0
H1081 H 0.00618 0.92654 0.59112 0.0
H1082 H 1.00463 0.84273 0.7832 0.0
H1083 H 0.97579 0.8472 0.77681 0.0
H1084 H 0.98691 0.86672 0.83808 0.0
H1085 H 0.02029 0.86536 0.5206 0.0
H1086 H 0.00793 0.89613 0.50028 0.0
H1087 H 0.99117 0.87011 0.51914 0.0
C1088 C 0.66559 0.99488 0.45288 0.0
C1089 C 0.684 0.98844 0.48614 0.0
C1090 C 0.64386 0.99354 0.48635 0.0
C1091 C 0.64026 0.98556 0.55504 0.0
C1092 C 0.65875 0.97815 0.5881 0.0
C1093 C 0.68034 0.97971 0.55341 0.0
C1094 C 0.62471 0.00171 0.44904 0.0
C1095 C 0.65572 0.96937 0.66106 0.0
C1096 C 0.58543 0.01079 0.66424 0.0
C1097 C 0.57274 0.98998 0.66156 0.0
C1098 C 0.60743 0.00941 0.63082 0.0
C1099 C 0.61718 0.98665 0.59353 0.0
C1100 C 0.60464 0.96539 0.59156 0.0
C1101 C 0.58261 0.9673 0.62551 0.0
C1102 C 0.62013 0.03255 0.63451 0.0
C1103 C 0.61437 0.94076 0.5526 0.0
H1104 H 0.6681 0.00207 0.40147 0.0
H1105 H 0.69438 0.97443 0.57944 0.0
H1106 H 0.61315 0.98665 0.45071 0.0
H1107 H 0.61531 0.01926 0.47518 0.0
H1108 H 0.63023 0.0057 0.3943 0.0
H1109 H 0.67169 0.96245 0.67772 0.0
H1110 H 0.64766 0.98542 0.69677 0.0
H1111 H 0.64468 0.95377 0.66596 0.0
H1112 H 0.57812 0.0284 0.69199 0.0
H1113 H 0.57303 0.95108 0.62299 0.0
H1114 H 0.62483 0.03934 0.58193 0.0
H1115 H 0.63567 0.02739 0.6557 0.0
H1116 H 0.61042 0.04857 0.66712 0.0
H1117 H 0.61857 0.94425 0.49699 0.0
H1118 H 0.60284 0.92563 0.55833 0.0
H1119 H 0.62996 0.93361 0.57105 0.0
C1120 C 0.52714 0.65612 0.41228 0.0
C1121 C 0.51073 0.67438 0.4467 0.0
C1122 C 0.53186 0.63234 0.44051 0.0
C1123 C 0.5198 0.62667 0.50443 0.0
C1124 C 0.50411 0.64555 0.54115 0.0
C1125 C 0.49983 0.66918 0.51195 0.0
C1126 C 0.54892 0.61283 0.40025 0.0
C1127 C 0.49099 0.64034 0.60975 0.0
C1128 C 0.50834 0.5586 0.54429 0.0
C1129 C 0.52201 0.55293 0.5943 0.0
C1130 C 0.50817 0.58215 0.51252 0.0
C1131 C 0.52214 0.60042 0.53066 0.0
C1132 C 0.53693 0.59423 0.57794 0.0
C1133 C 0.53664 0.5706 0.60941 0.0
C1134 C 0.49213 0.58801 0.4623 0.0
C1135 C 0.55231 0.61303 0.59789 0.0
H1136 H 0.53551 0.65987 0.36158 0.0
H1137 H 0.48739 0.68337 0.53931 0.0
H1138 H 0.56035 0.60433 0.43414 0.0
H1139 H 0.54053 0.59704 0.37999 0.0
H1140 H 0.55878 0.62125 0.3561 0.0
H1141 H 0.48044 0.65757 0.63368 0.0
H1142 H 0.48019 0.62498 0.60258 0.0
H1143 H 0.50227 0.63352 0.64607 0.0
H1144 H 0.49699 0.54514 0.53209 0.0
H1145 H 0.54738 0.56638 0.64763 0.0
H1146 H 0.50091 0.59457 0.41355 0.0
H1147 H 0.47953 0.60377 0.48441 0.0
H1148 H 0.48348 0.57117 0.45016 0.0
H1149 H 0.56115 0.62107 0.55131 0.0
H1150 H 0.56471 0.60414 0.62816 0.0
H1151 H 0.54254 0.62923 0.62945 0.0
C1152 C 0.85249 0.51292 0.54644 0.0
C1153 C 0.83284 0.52228 0.58948 0.0
C1154 C 0.87331 0.51439 0.56734 0.0
C1155 C 0.87469 0.52526 0.63335 0.0
C1156 C 0.85503 0.53546 0.6763 0.0
C1157 C 0.8344 0.53394 0.65381 0.0
C1158 C 0.89382 0.50339 0.51962 0.0
C1159 C 0.85572 0.5472 0.74704 0.0
C1160 C 0.92568 0.50117 0.71134 0.0
C1161 C 0.9394 0.52093 0.69831 0.0
C1162 C 0.9044 0.50273 0.69233 0.0
C1163 C 0.89658 0.52447 0.65873 0.0
C1164 C 0.91013 0.54476 0.64683 0.0
C1165 C 0.93131 0.54282 0.66704 0.0
C1166 C 0.89046 0.48076 0.70682 0.0
C1167 C 0.90254 0.56819 0.61077 0.0
H1168 H 0.85163 0.50343 0.49722 0.0
H1169 H 0.81943 0.54157 0.68724 0.0
H1170 H 0.90608 0.51767 0.51276 0.0
H1171 H 0.90166 0.48652 0.54266 0.0
H1172 H 0.89013 0.49737 0.4681 0.0
H1173 H 0.83916 0.55569 0.77246 0.0
H1174 H 0.86203 0.53235 0.78019 0.0
H1175 H 0.86727 0.56228 0.74363 0.0
H1176 H 0.93166 0.48425 0.73585 0.0
H1177 H 0.94177 0.55816 0.65642 0.0
H1178 H 0.88755 0.47173 0.65751 0.0
H1179 H 0.87404 0.48787 0.73603 0.0
H1180 H 0.89839 0.46589 0.73672 0.0
H1181 H 0.90047 0.56266 0.55724 0.0
H1182 H 0.91444 0.58292 0.60884 0.0
H1183 H 0.88618 0.5768 0.63728 0.0
loop_
_geom_bond_atom_site_label_1
_geom_bond_atom_site_label_2
_geom_bond_distance
_geom_bond_site_symmetry_2
_ccdc_geom_bond_type
P0 O11 1.490 . S
P0 C14 1.812 . S
P0 C20 1.803 . S
P0 C26 1.819 . S
H1 C15 0.941 . S
H2 C16 0.939 . S
H3 C18 0.940 . S
H4 C19 0.940 . S
H5 C21 0.939 . S
H6 C22 0.942 . S
H7 C24 0.940 . S
H8 C25 0.939 . S
H9 C27 0.941 . S
H10 C31 0.939 . S
O11 P0 1.490 . S
H12 C28 0.939 . S
H13 C30 0.940 . S
C14 P0 1.812 . S
C14 C15 1.389 . S
C14 C19 1.391 . S
C15 H1 0.941 . S
C15 C14 1.389 . S
C15 C16 1.397 . S
C16 H2 0.939 . S
C16 C15 1.397 . S
C16 C17 1.378 . S
C17 C16 1.378 . S
C17 C18 1.378 . S
C18 H3 0.940 . S
C18 C17 1.378 . S
C18 C19 1.396 . S
C19 H4 0.940 . S
C19 C14 1.391 . S
C19 C18 1.396 . S
C20 P0 1.803 . S
C20 C21 1.378 . S
C20 C25 1.400 . S
C21 H5 0.939 . S
C21 C20 1.378 . S
C21 C22 1.361 . S
C22 H6 0.942 . S
C22 C21 1.361 . S
C22 C23 1.369 . S
C23 C22 1.369 . S
C23 C24 1.404 . S
C24 H7 0.940 . S
C24 C23 1.404 . S
C24 C25 1.389 . S
C25 H8 0.939 . S
C25 C20 1.400 . S
C25 C24 1.389 . S
C26 P0 1.819 . S
C26 C27 1.391 . S
C26 C31 1.391 . S
C27 H9 0.941 . S
C27 C26 1.391 . S
C27 C28 1.396 . S
C28 H12 0.939 . S
C28 C27 1.396 . S
C28 C29 1.397 . S
C29 C28 1.397 . S
C29 C30 1.385 . S
C30 H13 0.940 . S
C30 C29 1.385 . S
C30 C31 1.388 . S
C31 H10 0.939 . S
C31 C26 1.391 . S
C31 C30 1.388 . S
P32 O43 1.490 . S
P32 C46 1.812 . S
P32 C52 1.803 . S
P32 C58 1.819 . S
H33 C47 0.941 . S
H34 C48 0.939 . S
H35 C50 0.940 . S
H36 C51 0.940 . S
H37 C53 0.939 . S
H38 C54 0.942 . S
H39 C56 0.940 . S
H40 C57 0.939 . S
H41 C59 0.941 . S
H42 C63 0.938 1_655 S
O43 P32 1.490 . S
H44 C60 0.939 . S
H45 C62 0.940 . S
C46 P32 1.812 . S
C46 C47 1.389 . S
C46 C51 1.391 1_455 S
C47 H33 0.941 . S
C47 C46 1.389 . S
C47 C48 1.397 . S
C48 H34 0.939 . S
C48 C47 1.397 . S
C48 C49 1.358 1_455 S
C49 C48 1.358 1_655 S
C49 C50 1.394 . S
C50 H35 0.940 . S
C50 C49 1.394 . S
C50 C51 1.396 . S
C51 H36 0.940 . S
C51 C46 1.391 1_655 S
C51 C50 1.396 . S
C52 P32 1.803 . S
C52 C53 1.378 . S
C52 C57 1.400 1_455 S
C53 H37 0.939 . S
C53 C52 1.378 . S
C53 C54 1.361 . S
C54 H38 0.942 . S
C54 C53 1.361 . S
C54 C55 1.361 1_455 S
C55 C54 1.361 1_655 S
C55 C56 1.408 . S
C56 H39 0.940 . S
C56 C55 1.408 . S
C56 C57 1.389 . S
C57 H40 0.939 . S
C57 C52 1.400 1_655 S
C57 C56 1.389 . S
C58 P32 1.819 . S
C58 C59 1.391 . S
C58 C63 1.393 . S
C59 H41 0.941 . S
C59 C58 1.391 . S
C59 C60 1.396 . S
C60 H44 0.939 . S
C60 C59 1.396 . S
C60 C61 1.401 . S
C61 C60 1.401 . S
C61 C62 1.382 1_455 S
C62 H45 0.940 . S
C62 C61 1.382 1_655 S
C62 C63 1.388 1_655 S
C63 H42 0.938 1_455 S
C63 C58 1.393 . S
C63 C62 1.388 1_455 S
P64 O75 1.490 . S
P64 C78 1.812 . S
P64 C84 1.803 . S
P64 C90 1.819 . S
H65 C79 0.941 . S
H66 C80 0.939 . S
H67 C82 0.940 . S
H68 C83 0.950 . S
H69 C85 0.939 . S
H70 C86 0.942 . S
H71 C88 0.940 . S
H72 C89 0.962 . S
H73 C91 0.941 . S
H74 C95 0.932 1_565 S
O75 P64 1.490 . S
H76 C92 0.939 . S
H77 C94 0.940 . S
C78 P64 1.812 . S
C78 C79 1.389 . S
C78 C83 1.374 1_545 S
C79 H65 0.941 . S
C79 C78 1.389 . S
C79 C80 1.397 . S
C80 H66 0.939 . S
C80 C79 1.397 . S
C80 C81 1.378 . S
C81 C80 1.378 . S
C81 C82 1.378 1_545 S
C82 H67 0.940 . S
C82 C81 1.378 1_565 S
C82 C83 1.404 . S
C83 H68 0.950 . S
C83 C78 1.374 1_565 S
C83 C82 1.404 . S
C84 P64 1.803 . S
C84 C85 1.378 . S
C84 C89 1.369 1_545 S
C85 H69 0.939 . S
C85 C84 1.378 . S
C85 C86 1.361 . S
C86 H70 0.942 . S
C86 C85 1.361 . S
C86 C87 1.369 . S
C87 C86 1.369 . S
C87 C88 1.404 1_545 S
C88 H71 0.940 . S
C88 C87 1.404 1_565 S
C88 C89 1.398 . S
C89 H72 0.962 . S
C89 C84 1.369 1_565 S
C89 C88 1.398 . S
C90 P64 1.819 . S
C90 C91 1.391 . S
C90 C95 1.391 . S
C91 H73 0.941 . S
C91 C90 1.391 . S
C91 C92 1.396 . S
C92 H76 0.939 . S
C92 C91 1.396 . S
C92 C93 1.397 . S
C93 C92 1.397 . S
C93 C94 1.385 1_545 S
C94 H77 0.940 . S
C94 C93 1.385 1_565 S
C94 C95 1.388 1_565 S
C95 H74 0.932 1_545 S
C95 C90 1.391 . S
C95 C94 1.388 1_545 S
P96 O107 1.490 . S
P96 C110 1.812 . S
P96 C116 1.803 . S
P96 C122 1.819 . S
H97 C111 0.941 . S
H98 C112 0.939 . S
H99 C114 0.940 . S
H100 C115 0.940 . S
H101 C117 0.939 . S
H102 C118 0.942 . S
H103 C120 0.940 . S
H104 C121 0.939 . S
H105 C123 0.941 . S
H106 C127 0.939 . S
O107 P96 1.490 . S
H108 C124 0.939 . S
H109 C126 0.940 . S
C110 P96 1.812 . S
C110 C111 1.389 . S
C110 C115 1.391 . S
C111 H97 0.941 . S
C111 C110 1.389 . S
C111 C112 1.397 . S
C112 H98 0.939 . S
C112 C111 1.397 . S
C112 C113 1.378 . S
C113 C112 1.378 . S
C113 C114 1.378 . S
C114 H99 0.940 . S
C114 C113 1.378 . S
C114 C115 1.396 . S
C115 H100 0.940 . S
C115 C110 1.391 . S
C115 C114 1.396 . S
C116 P96 1.803 . S
C116 C117 1.378 . S
C116 C121 1.400 . S
C117 H101 0.939 . S
C117 C116 1.378 . S
C117 C118 1.361 . S
C118 H102 0.942 . S
C118 C117 1.361 . S
C118 C119 1.369 . S
C119 C118 1.369 . S
C119 C120 1.404 . S
C120 H103 0.940 . S
C120 C119 1.404 . S
C120 C121 1.389 . S
C121 H104 0.939 . S
C121 C116 1.400 . S
C121 C120 1.389 . S
C122 P96 1.819 . S
C122 C123 1.391 . S
C122 C127 1.391 . S
C123 H105 0.941 . S
C123 C122 1.391 . S
C123 C124 1.396 . S
C124 H108 0.939 . S
C124 C123 1.396 . S
C124 C125 1.397 1_554 S
C125 C124 1.397 1_556 S
C125 C126 1.385 . S
C126 H109 0.940 . S
C126 C125 1.385 . S
C126 C127 1.388 1_556 S
C127 H106 0.939 . S
C127 C122 1.391 . S
C127 C126 1.388 1_554 S
P128 O139 1.490 . S
P128 C142 1.812 . S
P128 C148 1.803 1_556 S
P128 C154 1.819 1_556 S
H129 C143 0.941 . S
H130 C144 0.939 . S
H131 C146 0.940 . S
H132 C147 0.940 . S
H133 C149 0.939 . S
H134 C150 0.942 . S
H135 C152 0.940 1_556 S
H136 C153 0.939 . S
H137 C155 0.941 . S
H138 C159 0.939 . S
O139 P128 1.490 . S
H140 C156 0.939 . S
H141 C158 0.940 . S
C142 P128 1.812 . S
C142 C143 1.389 . S
C142 C147 1.391 . S
C143 H129 0.941 . S
C143 C142 1.389 . S
C143 C144 1.397 . S
C144 H130 0.939 . S
C144 C143 1.397 . S
C144 C145 1.378 . S
C145 C144 1.378 . S
C145 C146 1.378 . S
C146 H131 0.940 . S
C146 C145 1.378 . S
C146 C147 1.396 . S
C147 H132 0.940 . S
C147 C142 1.391 . S
C147 C146 1.396 . S
C148 P128 1.803 1_554 S
C148 C149 1.378 . S
C148 C153 1.400 1_554 S
C149 H133 0.939 . S
C149 C148 1.378 . S
C149 C150 1.361 . S
C150 H134 0.942 . S
C150 C149 1.361 . S
C150 C151 1.369 . S
C151 C150 1.369 . S
C151 C152 1.404 . S
C152 H135 0.940 1_554 S
C152 C151 1.404 . S
C152 C153 1.389 1_554 S
C153 H136 0.939 . S
C153 C148 1.400 1_556 S
C153 C152 1.389 1_556 S
C154 P128 1.819 1_554 S
C154 C155 1.391 . S
C154 C159 1.391 . S
C155 H137 0.941 . S
C155 C154 1.391 . S
C155 C156 1.396 . S
C156 H140 0.939 . S
C156 C155 1.396 . S
C156 C157 1.397 . S
C157 C156 1.397 . S
C157 C158 1.385 . S
C158 H141 0.940 . S
C158 C157 1.385 . S
C158 C159 1.388 . S
C159 H138 0.939 . S
C159 C154 1.391 . S
C159 C158 1.388 . S
P160 O171 1.490 . S
P160 C174 1.812 . S
P160 C180 1.803 . S
P160 C186 1.819 . S
H161 C175 0.941 . S
H162 C176 0.939 . S
H163 C178 0.954 . S
H164 C179 0.940 1_655 S
H165 C181 0.939 . S
H166 C182 0.942 . S
H167 C184 0.940 . S
H168 C185 0.939 1_655 S
H169 C187 0.941 . S
H170 C191 0.939 . S
O171 P160 1.490 . S
H172 C188 0.939 . S
H173 C190 0.940 1_655 S
C174 P160 1.812 . S
C174 C175 1.389 1_554 S
C174 C179 1.391 . S
C175 H161 0.941 . S
C175 C174 1.389 1_556 S
C175 C176 1.397 . S
C176 H162 0.939 . S
C176 C175 1.397 . S
C176 C177 1.378 . S
C177 C176 1.378 . S
C177 C178 1.372 1_455 S
C178 H163 0.954 . S
C178 C177 1.372 1_655 S
C178 C179 1.389 1_656 S
C179 H164 0.940 1_455 S
C179 C174 1.391 . S
C179 C178 1.389 1_454 S
C180 P160 1.803 . S
C180 C181 1.378 . S
C180 C185 1.400 . S
C181 H165 0.939 . S
C181 C180 1.378 . S
C181 C182 1.361 . S
C182 H166 0.942 . S
C182 C181 1.361 . S
C182 C183 1.369 . S
C183 C182 1.369 . S
C183 C184 1.404 1_455 S
C184 H167 0.940 . S
C184 C183 1.404 1_655 S
C184 C185 1.389 1_655 S
C185 H168 0.939 1_455 S
C185 C180 1.400 . S
C185 C184 1.389 1_455 S
C186 P160 1.819 . S
C186 C187 1.391 . S
C186 C191 1.391 . S
C187 H169 0.941 . S
C187 C186 1.391 . S
C187 C188 1.396 . S
C188 H172 0.939 . S
C188 C187 1.396 . S
C188 C189 1.397 . S
C189 C188 1.397 . S
C189 C190 1.385 . S
C190 H173 0.940 1_455 S
C190 C189 1.385 . S
C190 C191 1.388 . S
C191 H170 0.939 . S
C191 C186 1.391 . S
C191 C190 1.388 . S
P192 O203 1.490 . S
P192 C206 1.812 . S
P192 C212 1.803 . S
P192 C218 1.819 . S
H193 C207 0.941 . S
H194 C208 0.939 . S
H195 C210 0.940 . S
H196 C211 0.944 . S
H197 C213 0.939 . S
H198 C214 0.942 . S
H199 C216 0.940 . S
H200 C217 0.951 . S
H201 C219 0.941 . S
H202 C223 0.931 1_565 S
O203 P192 1.490 . S
H204 C220 0.939 . S
H205 C222 0.940 . S
C206 P192 1.812 . S
C206 C207 1.389 . S
C206 C211 1.385 1_545 S
C207 H193 0.941 . S
C207 C206 1.389 . S
C207 C208 1.397 1_554 S
C208 H194 0.939 . S
C208 C207 1.397 1_556 S
C208 C209 1.378 . S
C209 C208 1.378 . S
C209 C210 1.378 1_546 S
C210 H195 0.940 . S
C210 C209 1.378 1_564 S
C210 C211 1.398 . S
C211 H196 0.944 . S
C211 C206 1.385 1_565 S
C211 C210 1.398 . S
C212 P192 1.803 . S
C212 C213 1.378 . S
C212 C217 1.378 1_545 S
C213 H197 0.939 . S
C213 C212 1.378 . S
C213 C214 1.361 . S
C214 H198 0.942 . S
C214 C213 1.361 . S
C214 C215 1.369 . S
C215 C214 1.369 . S
C215 C216 1.404 1_545 S
C216 H199 0.940 . S
C216 C215 1.404 1_565 S
C216 C217 1.400 . S
C217 H200 0.951 . S
C217 C212 1.378 1_565 S
C217 C216 1.400 . S
C218 P192 1.819 . S
C218 C219 1.391 . S
C218 C223 1.391 . S
C219 H201 0.941 . S
C219 C218 1.391 . S
C219 C220 1.396 . S
C220 H204 0.939 . S
C220 C219 1.396 . S
C220 C221 1.397 . S
C221 C220 1.397 . S
C221 C222 1.385 1_545 S
C222 H205 0.940 . S
C222 C221 1.385 1_565 S
C222 C223 1.388 1_565 S
C223 H202 0.931 1_545 S
C223 C218 1.391 . S
C223 C222 1.388 1_545 S
P224 O235 1.490 . S
P224 C238 1.812 . S
P224 C244 1.803 . S
P224 C250 1.819 . S
H225 C239 0.941 . S
H226 C240 0.939 . S
H227 C242 0.940 . S
H228 C243 0.940 . S
H229 C245 0.939 . S
H230 C246 0.942 . S
H231 C248 0.940 . S
H232 C249 0.939 . S
H233 C251 0.941 . S
H234 C255 0.939 . S
O235 P224 1.490 . S
H236 C252 0.939 . S
H237 C254 0.940 . S
C238 P224 1.812 . S
C238 C239 1.389 . S
C238 C243 1.391 . S
C239 H225 0.941 . S
C239 C238 1.389 . S
C239 C240 1.397 . S
C240 H226 0.939 . S
C240 C239 1.397 . S
C240 C241 1.378 . S
C241 C240 1.378 . S
C241 C242 1.378 . S
C242 H227 0.940 . S
C242 C241 1.378 . S
C242 C243 1.396 . S
C243 H228 0.940 . S
C243 C238 1.391 . S
C243 C242 1.396 . S
C244 P224 1.803 . S
C244 C245 1.378 . S
C244 C249 1.400 . S
C245 H229 0.939 . S
C245 C244 1.378 . S
C245 C246 1.361 . S
C246 H230 0.942 . S
C246 C245 1.361 . S
C246 C247 1.369 . S
C247 C246 1.369 . S
C247 C248 1.404 . S
C248 H231 0.940 . S
C248 C247 1.404 . S
C248 C249 1.389 . S
C249 H232 0.939 . S
C249 C244 1.400 . S
C249 C248 1.389 . S
C250 P224 1.819 . S
C250 C251 1.391 . S
C250 C255 1.391 . S
C251 H233 0.941 . S
C251 C250 1.391 . S
C251 C252 1.396 . S
C252 H236 0.939 . S
C252 C251 1.396 . S
C252 C253 1.397 . S
C253 C252 1.397 . S
C253 C254 1.385 . S
C254 H237 0.940 . S
C254 C253 1.385 . S
C254 C255 1.388 . S
C255 H234 0.939 . S
C255 C250 1.391 . S
C255 C254 1.388 . S
Dy256 O259 2.307 1_545 S
Dy256 O261 2.395 1_655 S
Dy256 O262 2.379 . S
Dy256 O264 2.339 . S
Dy256 O266 2.298 . S
Dy256 O270 2.275 1_655 S
Dy256 C278 2.738 . S
Dy257 O260 2.298 . S
Dy257 O263 2.275 1_455 S
Dy257 O265 2.307 1_565 S
Dy257 O267 2.376 1_455 S
Dy257 O268 2.379 . S
Dy257 O271 2.339 . S
Dy257 C287 2.738 . S
C258 O270 1.254 1_565 S
C258 O271 1.257 . S
O259 Dy256 2.307 1_565 S
O259 C269 1.266 . S
O260 Dy257 2.298 . S
O260 C269 1.236 1_455 S
O261 Dy256 2.395 1_455 S
O261 C278 1.255 1_455 S
O262 Dy256 2.379 . S
O262 C278 1.249 . S
O263 Dy257 2.275 1_655 S
O263 C279 1.254 1_565 S
O264 Dy256 2.339 . S
O264 C279 1.257 . S
O265 Dy257 2.307 1_545 S
O265 C280 1.266 . S
O266 Dy256 2.298 . S
O266 C280 1.236 1_655 S
O267 Dy257 2.376 1_655 S
O267 C287 1.215 1_655 S
O268 Dy257 2.379 . S
O268 C287 1.249 . S
C269 O259 1.266 . S
C269 O260 1.236 1_655 S
O270 Dy256 2.275 1_455 S
O270 C258 1.254 1_545 S
O271 Dy257 2.339 . S
O271 C258 1.257 . S
C272 C275 1.344 1_655 S
C272 C276 1.328 . S
C272 C278 1.516 . S
C273 C274 1.304 1_655 S
C273 C277 1.323 . S
C274 C273 1.304 1_455 S
C274 C275 1.371 . S
C274 H288 0.930 . S
C275 C272 1.344 1_455 S
C275 C274 1.371 . S
C275 H289 0.931 . S
C276 C272 1.328 . S
C276 C277 1.433 . S
C276 H290 0.931 . S
C277 C273 1.323 . S
C277 C276 1.433 . S
C277 H291 0.933 . S
C278 Dy256 2.738 . S
C278 O261 1.255 1_655 S
C278 O262 1.249 . S
C278 C272 1.516 . S
C279 O263 1.254 1_545 S
C279 O264 1.257 . S
C280 O265 1.266 . S
C280 O266 1.236 1_455 S
C281 C284 1.370 . S
C281 C285 1.328 . S
C281 C287 1.516 . S
C282 C283 1.304 . S
C282 C286 1.323 . S
C283 C282 1.304 . S
C283 C284 1.373 . S
C283 H292 0.930 1_455 S
C284 C281 1.370 . S
C284 C283 1.373 . S
C284 H293 0.903 1_455 S
C285 C281 1.328 . S
C285 C286 1.433 . S
C285 H294 0.931 . S
C286 C282 1.323 . S
C286 C285 1.433 . S
C286 H295 0.933 . S
C287 Dy257 2.738 . S
C287 O267 1.215 1_455 S
C287 O268 1.249 . S
C287 C281 1.516 . S
H288 C274 0.930 . S
H289 C275 0.931 . S
H290 C276 0.931 . S
H291 C277 0.933 . S
H292 C283 0.930 1_655 S
H293 C284 0.903 1_655 S
H294 C285 0.931 . S
H295 C286 0.933 . S
Dy296 O299 2.307 . S
Dy296 O301 2.395 1_565 S
Dy296 O302 2.379 . S
Dy296 O304 2.339 . S
Dy296 O306 2.298 . S
Dy296 O310 2.275 1_565 S
Dy296 C318 2.738 . S
Dy297 O300 2.298 . S
Dy297 O303 2.275 1_545 S
Dy297 O305 2.307 . S
Dy297 O307 2.395 1_545 S
Dy297 O308 2.379 . S
Dy297 O311 2.339 . S
Dy297 C327 2.738 . S
C298 O310 1.254 . S
C298 O311 1.257 . S
O299 Dy296 2.307 . S
O299 C309 1.266 . S
O300 Dy297 2.298 . S
O300 C309 1.236 1_545 S
O301 Dy296 2.395 1_545 S
O301 C318 1.255 1_545 S
O302 Dy296 2.379 . S
O302 C318 1.249 . S
O303 Dy297 2.275 1_565 S
O303 C319 1.254 . S
O304 Dy296 2.339 . S
O304 C319 1.257 . S
O305 Dy297 2.307 . S
O305 C320 1.266 . S
O306 Dy296 2.298 . S
O306 C320 1.236 1_565 S
O307 Dy297 2.395 1_565 S
O307 C327 1.255 1_565 S
O308 Dy297 2.379 . S
O308 C327 1.249 . S
C309 O299 1.266 . S
C309 O300 1.236 1_565 S
O310 Dy296 2.275 1_545 S
O310 C298 1.254 . S
O311 Dy297 2.339 . S
O311 C298 1.257 . S
C312 C315 1.330 1_565 S
C312 C316 1.328 . S
C312 C318 1.516 . S
C313 C314 1.304 . S
C313 C317 1.323 . S
C314 C313 1.304 . S
C314 C315 1.369 1_565 S
C314 H328 0.930 1_565 S
C315 C312 1.330 1_545 S
C315 C314 1.369 1_545 S
C315 H329 0.948 . S
C316 C312 1.328 . S
C316 C317 1.433 . S
C316 H330 0.931 . S
C317 C313 1.323 . S
C317 C316 1.433 . S
C317 H331 0.933 . S
C318 Dy296 2.738 . S
C318 O301 1.255 1_565 S
C318 O302 1.249 . S
C318 C312 1.516 . S
C319 O303 1.254 . S
C319 O304 1.257 . S
C320 O305 1.266 . S
C320 O306 1.236 1_545 S
C321 C324 1.338 1_545 S
C321 C325 1.328 . S
C321 C327 1.516 . S
C322 C323 1.304 . S
C322 C326 1.323 . S
C323 C322 1.304 . S
C323 C324 1.370 1_545 S
C323 H332 0.930 1_545 S
C324 C321 1.338 1_565 S
C324 C323 1.370 1_565 S
C324 H333 0.938 . S
C325 C321 1.328 . S
C325 C326 1.433 . S
C325 H334 0.931 . S
C326 C322 1.323 . S
C326 C325 1.433 . S
C326 H335 0.933 . S
C327 Dy297 2.738 . S
C327 O307 1.255 1_545 S
C327 O308 1.249 . S
C327 C321 1.516 . S
H328 C314 0.930 1_545 S
H329 C315 0.948 . S
H330 C316 0.931 . S
H331 C317 0.933 . S
H332 C323 0.930 1_565 S
H333 C324 0.938 . S
H334 C325 0.931 . S
H335 C326 0.933 . S
Dy336 O339 2.307 . S
Dy336 O341 2.395 . S
Dy336 O342 2.379 . S
Dy336 O344 2.339 . S
Dy336 O346 2.298 . S
Dy336 O350 2.275 . S
Dy336 C358 2.738 . S
Dy337 O340 2.298 . S
Dy337 O343 2.275 . S
Dy337 O345 2.307 . S
Dy337 O347 2.395 . S
Dy337 O348 2.379 . S
Dy337 O351 2.339 . S
Dy337 C367 2.738 . S
C338 O350 1.254 . S
C338 O351 1.257 . S
O339 Dy336 2.307 . S
O339 C349 1.266 . S
O340 Dy337 2.298 . S
O340 C349 1.236 . S
O341 Dy336 2.395 . S
O341 C358 1.255 . S
O342 Dy336 2.379 . S
O342 C358 1.249 . S
O343 Dy337 2.275 . S
O343 C359 1.254 . S
O344 Dy336 2.339 . S
O344 C359 1.257 . S
O345 Dy337 2.307 . S
O345 C360 1.266 . S
O346 Dy336 2.298 . S
O346 C360 1.236 . S
O347 Dy337 2.395 . S
O347 C367 1.255 . S
O348 Dy337 2.379 . S
O348 C367 1.249 . S
C349 O339 1.266 . S
C349 O340 1.236 . S
O350 Dy336 2.275 . S
O350 C338 1.254 . S
O351 Dy337 2.339 . S
O351 C338 1.257 . S
C352 C355 1.344 . S
C352 C356 1.328 . S
C352 C358 1.516 . S
C353 C354 1.304 . S
C353 C357 1.323 . S
C354 C353 1.304 . S
C354 C355 1.371 . S
C354 H368 0.930 1_556 S
C355 C352 1.344 . S
C355 C354 1.371 . S
C355 H369 0.931 . S
C356 C352 1.328 . S
C356 C357 1.433 . S
C356 H370 0.931 . S
C357 C353 1.323 . S
C357 C356 1.433 . S
C357 H371 0.933 . S
C358 Dy336 2.738 . S
C358 O341 1.255 . S
C358 O342 1.249 . S
C358 C352 1.516 . S
C359 O343 1.254 . S
C359 O344 1.257 . S
C360 O345 1.266 . S
C360 O346 1.236 . S
C361 C364 1.344 . S
C361 C365 1.328 . S
C361 C367 1.516 . S
C362 C363 1.304 . S
C362 C366 1.323 . S
C363 C362 1.304 . S
C363 C364 1.371 . S
C363 H372 0.930 . S
C364 C361 1.344 . S
C364 C363 1.371 . S
C364 H373 0.931 . S
C365 C361 1.328 . S
C365 C366 1.433 . S
C365 H374 0.931 . S
C366 C362 1.323 . S
C366 C365 1.433 . S
C366 H375 0.933 . S
C367 Dy337 2.738 . S
C367 O347 1.255 . S
C367 O348 1.249 . S
C367 C361 1.516 . S
H368 C354 0.930 1_554 S
H369 C355 0.931 . S
H370 C356 0.931 . S
H371 C357 0.933 . S
H372 C363 0.930 . S
H373 C364 0.931 . S
H374 C365 0.931 . S
H375 C366 0.933 . S
Dy376 O379 2.307 1_455 S
Dy376 O381 2.395 . S
Dy376 O382 2.379 . S
Dy376 O384 2.339 . S
Dy376 O386 2.298 . S
Dy376 O390 2.275 . S
Dy376 C398 2.738 . S
Dy377 O380 2.298 . S
Dy377 O383 2.275 . S
Dy377 O385 2.307 1_655 S
Dy377 O387 2.395 . S
Dy377 O388 2.379 . S
Dy377 O391 2.339 . S
Dy377 C407 2.738 . S
C378 O390 1.253 . S
C378 O391 1.258 1_455 S
O379 Dy376 2.307 1_655 S
O379 C389 1.266 . S
O380 Dy377 2.298 . S
O380 C389 1.236 . S
O381 Dy376 2.395 . S
O381 C398 1.255 . S
O382 Dy376 2.379 . S
O382 C398 1.249 . S
O383 Dy377 2.275 . S
O383 C399 1.254 1_655 S
O384 Dy376 2.339 . S
O384 C399 1.257 . S
O385 Dy377 2.307 1_455 S
O385 C400 1.266 . S
O386 Dy376 2.298 . S
O386 C400 1.236 . S
O387 Dy377 2.395 . S
O387 C407 1.255 . S
O388 Dy377 2.379 . S
O388 C407 1.249 . S
C389 O379 1.266 . S
C389 O380 1.236 . S
O390 Dy376 2.275 . S
O390 C378 1.253 . S
O391 Dy377 2.339 . S
O391 C378 1.258 1_655 S
C392 C395 1.344 . S
C392 C396 1.328 . S
C392 C398 1.516 . S
C393 C394 1.304 . S
C393 C397 1.323 . S
C394 C393 1.304 . S
C394 C395 1.371 . S
C394 H408 0.930 . S
C395 C392 1.344 . S
C395 C394 1.371 . S
C395 H409 0.931 . S
C396 C392 1.328 . S
C396 C397 1.433 . S
C396 H410 0.931 . S
C397 C393 1.323 . S
C397 C396 1.433 . S
C397 H411 0.933 . S
C398 Dy376 2.738 . S
C398 O381 1.255 . S
C398 O382 1.249 . S
C398 C392 1.516 . S
C399 O383 1.254 1_455 S
C399 O384 1.257 . S
C400 O385 1.266 . S
C400 O386 1.236 . S
C401 C404 1.344 . S
C401 C405 1.328 . S
C401 C407 1.516 . S
C402 C403 1.304 . S
C402 C406 1.323 . S
C403 C402 1.304 . S
C403 C404 1.371 1_554 S
C403 H412 0.930 . S
C404 C401 1.344 . S
C404 C403 1.371 1_556 S
C404 H413 0.931 . S
C405 C401 1.328 . S
C405 C406 1.433 1_556 S
C405 H414 0.931 . S
C406 C402 1.323 . S
C406 C405 1.433 1_554 S
C406 H415 0.933 . S
C407 Dy377 2.738 . S
C407 O387 1.255 . S
C407 O388 1.249 . S
C407 C401 1.516 . S
H408 C394 0.930 . S
H409 C395 0.931 . S
H410 C396 0.931 . S
H411 C397 0.933 . S
H412 C403 0.930 . S
H413 C404 0.931 . S
H414 C405 0.931 . S
H415 C406 0.933 . S
C416 C417 1.428 . S
C416 C418 1.394 . S
C416 H432 0.931 . S
C417 C416 1.428 . S
C417 C421 1.346 1_565 S
C418 C416 1.394 . S
C418 C419 1.369 . S
C418 C422 1.531 . S
C419 C418 1.369 . S
C419 C420 1.410 1_565 S
C419 C427 1.503 . S
C420 C419 1.410 1_545 S
C420 C421 1.392 . S
C420 C423 1.511 . S
C421 C417 1.346 1_545 S
C421 C420 1.392 . S
C421 H433 0.929 . S
C422 C418 1.531 . S
C422 H434 0.960 . S
C422 H435 0.962 . S
C422 H436 0.960 . S
C423 C420 1.511 . S
C423 H437 0.961 . S
C423 H438 0.961 . S
C423 H439 0.961 . S
C424 C425 1.377 . S
C424 C426 1.363 . S
C424 H440 0.931 . S
C425 C424 1.377 . S
C425 C429 1.402 1_545 S
C426 C424 1.363 . S
C426 C427 1.370 1_545 S
C426 C430 1.524 . S
C427 C419 1.503 . S
C427 C426 1.370 1_565 S
C427 C428 1.403 . S
C428 C427 1.403 . S
C428 C429 1.404 . S
C428 C431 1.539 . S
C429 C425 1.402 1_565 S
C429 C428 1.404 . S
C429 H441 0.930 . S
C430 C426 1.524 . S
C430 H442 0.956 . S
C430 H443 0.961 . S
C430 H444 0.961 . S
C431 C428 1.539 . S
C431 H445 0.958 . S
C431 H446 0.961 . S
C431 H447 0.960 . S
H432 C416 0.931 . S
H433 C421 0.929 . S
H434 C422 0.960 . S
H435 C422 0.962 . S
H436 C422 0.960 . S
H437 C423 0.961 . S
H438 C423 0.961 . S
H439 C423 0.961 . S
H440 C424 0.931 . S
H441 C429 0.930 . S
H442 C430 0.956 . S
H443 C430 0.961 . S
H444 C430 0.961 . S
H445 C431 0.958 . S
H446 C431 0.961 . S
H447 C431 0.960 . S
C448 C449 1.391 . S
C448 C450 1.394 . S
C448 H464 0.931 . S
C449 C448 1.391 . S
C449 C453 1.376 . S
C450 C448 1.394 . S
C450 C451 1.369 . S
C450 C454 1.531 . S
C451 C450 1.369 . S
C451 C452 1.410 . S
C451 C459 1.503 . S
C452 C451 1.410 . S
C452 C453 1.392 . S
C452 C455 1.511 . S
C453 C449 1.376 . S
C453 C452 1.392 . S
C453 H465 0.929 . S
C454 C450 1.531 . S
C454 H466 0.960 . S
C454 H467 0.962 . S
C454 H468 0.960 . S
C455 C452 1.511 . S
C455 H469 0.961 . S
C455 H470 0.961 . S
C455 H471 0.961 . S
C456 C457 1.370 . S
C456 C458 1.363 . S
C456 H472 0.931 . S
C457 C456 1.370 . S
C457 C461 1.408 . S
C458 C456 1.363 . S
C458 C459 1.370 . S
C458 C462 1.524 . S
C459 C451 1.503 . S
C459 C458 1.370 . S
C459 C460 1.403 . S
C460 C459 1.403 . S
C460 C461 1.404 . S
C460 C463 1.539 . S
C461 C457 1.408 . S
C461 C460 1.404 . S
C461 H473 0.930 . S
C462 C458 1.524 . S
C462 H474 0.956 . S
C462 H475 0.961 . S
C462 H476 0.961 . S
C463 C460 1.539 . S
C463 H477 0.958 . S
C463 H478 0.961 . S
C463 H479 0.960 . S
H464 C448 0.931 . S
H465 C453 0.929 . S
H466 C454 0.960 . S
H467 C454 0.962 . S
H468 C454 0.960 . S
H469 C455 0.961 . S
H470 C455 0.961 . S
H471 C455 0.961 . S
H472 C456 0.931 . S
H473 C461 0.930 . S
H474 C462 0.956 . S
H475 C462 0.961 . S
H476 C462 0.961 . S
H477 C463 0.958 . S
H478 C463 0.961 . S
H479 C463 0.960 . S
C480 C481 1.391 . S
C480 C482 1.394 . S
C480 H496 0.931 . S
C481 C480 1.391 . S
C481 C485 1.376 . S
C482 C480 1.394 . S
C482 C483 1.369 . S
C482 C486 1.531 . S
C483 C482 1.369 . S
C483 C484 1.410 . S
C483 C491 1.503 . S
C484 C483 1.410 . S
C484 C485 1.392 . S
C484 C487 1.511 . S
C485 C481 1.376 . S
C485 C484 1.392 . S
C485 H497 0.929 . S
C486 C482 1.531 . S
C486 H498 0.960 . S
C486 H499 0.962 . S
C486 H500 0.960 . S
C487 C484 1.511 . S
C487 H501 0.961 . S
C487 H502 0.961 . S
C487 H503 0.961 . S
C488 C489 1.370 . S
C488 C490 1.363 . S
C488 H504 0.931 . S
C489 C488 1.370 . S
C489 C493 1.408 . S
C490 C488 1.363 . S
C490 C491 1.370 . S
C490 C494 1.524 . S
C491 C483 1.503 . S
C491 C490 1.370 . S
C491 C492 1.403 . S
C492 C491 1.403 . S
C492 C493 1.404 . S
C492 C495 1.539 . S
C493 C489 1.408 . S
C493 C492 1.404 . S
C493 H505 0.930 . S
C494 C490 1.524 . S
C494 H506 0.956 . S
C494 H507 0.961 . S
C494 H508 0.961 . S
C495 C492 1.539 . S
C495 H509 0.958 . S
C495 H510 0.961 . S
C495 H511 0.960 . S
H496 C480 0.931 . S
H497 C485 0.929 . S
H498 C486 0.960 . S
H499 C486 0.962 . S
H500 C486 0.960 . S
H501 C487 0.961 . S
H502 C487 0.961 . S
H503 C487 0.961 . S
H504 C488 0.931 . S
H505 C493 0.930 . S
H506 C494 0.956 . S
H507 C494 0.961 . S
H508 C494 0.961 . S
H509 C495 0.958 . S
H510 C495 0.961 . S
H511 C495 0.960 . S
C512 C513 1.391 1_655 S
C512 C514 1.394 . S
C512 H528 0.931 . S
C513 C512 1.391 1_455 S
C513 C517 1.376 . S
C514 C512 1.394 . S
C514 C515 1.369 1_655 S
C514 C518 1.531 . S
C515 C514 1.369 1_455 S
C515 C516 1.410 . S
C515 C523 1.503 . S
C516 C515 1.410 . S
C516 C517 1.392 . S
C516 C519 1.511 . S
C517 C513 1.376 . S
C517 C516 1.392 . S
C517 H529 0.929 . S
C518 C514 1.531 . S
C518 H530 0.960 . S
C518 H531 0.962 . S
C518 H532 0.960 . S
C519 C516 1.511 . S
C519 H533 0.961 . S
C519 H534 0.961 . S
C519 H535 0.961 . S
C520 C521 1.370 1_655 S
C520 C522 1.363 . S
C520 H536 0.931 . S
C521 C520 1.370 1_455 S
C521 C525 1.408 . S
C522 C520 1.363 . S
C522 C523 1.370 1_655 S
C522 C526 1.524 . S
C523 C515 1.503 . S
C523 C522 1.370 1_455 S
C523 C524 1.403 . S
C524 C523 1.403 . S
C524 C525 1.404 . S
C524 C527 1.539 . S
C525 C521 1.408 . S
C525 C524 1.404 . S
C525 H537 0.930 . S
C526 C522 1.524 . S
C526 H538 0.956 . S
C526 H539 0.959 1_655 S
C526 H540 0.961 . S
C527 C524 1.539 . S
C527 H541 0.958 . S
C527 H542 0.961 . S
C527 H543 0.960 . S
H528 C512 0.931 . S
H529 C517 0.929 . S
H530 C518 0.960 . S
H531 C518 0.962 . S
H532 C518 0.960 . S
H533 C519 0.961 . S
H534 C519 0.961 . S
H535 C519 0.961 . S
H536 C520 0.931 . S
H537 C525 0.930 . S
H538 C526 0.956 . S
H539 C526 0.959 1_455 S
H540 C526 0.961 . S
H541 C527 0.958 . S
H542 C527 0.961 . S
H543 C527 0.960 . S
C544 C545 1.391 . S
C544 C546 1.394 . S
C544 H560 0.931 . S
C545 C544 1.391 . S
C545 C549 1.376 1_545 S
C546 C544 1.394 . S
C546 C547 1.369 . S
C546 C550 1.531 1_554 S
C547 C546 1.369 . S
C547 C548 1.404 1_545 S
C547 C555 1.503 1_554 S
C548 C547 1.404 1_565 S
C548 C549 1.397 . S
C548 C551 1.514 . S
C549 C545 1.376 1_565 S
C549 C548 1.397 . S
C549 H561 0.929 . S
C550 C546 1.531 1_556 S
C550 H562 0.960 . S
C550 H563 0.962 . S
C550 H564 0.960 . S
C551 C548 1.514 . S
C551 H565 0.961 . S
C551 H566 0.961 . S
C551 H567 0.961 1_565 S
C552 C553 1.360 1_565 S
C552 C554 1.363 . S
C552 H568 0.931 . S
C553 C552 1.360 1_545 S
C553 C557 1.419 . S
C554 C552 1.363 . S
C554 C555 1.370 1_565 S
C554 C558 1.524 . S
C555 C547 1.503 1_556 S
C555 C554 1.370 1_545 S
C555 C556 1.403 . S
C556 C555 1.403 . S
C556 C557 1.404 . S
C556 C559 1.539 1_556 S
C557 C553 1.419 . S
C557 C556 1.404 . S
C557 H569 0.930 . S
C558 C554 1.524 . S
C558 H570 0.956 . S
C558 H571 0.961 1_556 S
C558 H572 0.961 . S
C559 C556 1.539 1_554 S
C559 H573 0.963 . S
C559 H574 0.961 . S
C559 H575 0.960 . S
H560 C544 0.931 . S
H561 C549 0.929 . S
H562 C550 0.960 . S
H563 C550 0.962 . S
H564 C550 0.960 . S
H565 C551 0.961 . S
H566 C551 0.961 . S
H567 C551 0.961 1_545 S
H568 C552 0.931 . S
H569 C557 0.930 . S
H570 C558 0.956 . S
H571 C558 0.961 1_554 S
H572 C558 0.961 . S
H573 C559 0.963 . S
H574 C559 0.961 . S
H575 C559 0.960 . S
C576 C577 1.391 . S
C576 C578 1.394 . S
C576 H592 0.931 . S
C577 C576 1.391 . S
C577 C581 1.376 1_554 S
C578 C576 1.394 . S
C578 C579 1.369 1_554 S
C578 C582 1.531 . S
C579 C578 1.369 1_556 S
C579 C580 1.410 . S
C579 C587 1.503 . S
C580 C579 1.410 . S
C580 C581 1.392 . S
C580 C583 1.511 . S
C581 C577 1.376 1_556 S
C581 C580 1.392 . S
C581 H593 0.929 . S
C582 C578 1.531 . S
C582 H594 0.960 . S
C582 H595 0.962 . S
C582 H596 0.960 . S
C583 C580 1.511 . S
C583 H597 0.961 . S
C583 H598 0.961 . S
C583 H599 0.961 . S
C584 C585 1.370 . S
C584 C586 1.363 . S
C584 H600 0.931 . S
C585 C584 1.370 . S
C585 C589 1.408 . S
C586 C584 1.363 . S
C586 C587 1.370 . S
C586 C590 1.524 . S
C587 C579 1.503 . S
C587 C586 1.370 . S
C587 C588 1.403 . S
C588 C587 1.403 . S
C588 C589 1.404 . S
C588 C591 1.539 . S
C589 C585 1.408 . S
C589 C588 1.404 . S
C589 H601 0.930 . S
C590 C586 1.524 . S
C590 H602 0.956 . S
C590 H603 0.961 . S
C590 H604 0.961 . S
C591 C588 1.539 . S
C591 H605 0.958 1_556 S
C591 H606 0.961 . S
C591 H607 0.960 . S
H592 C576 0.931 . S
H593 C581 0.929 . S
H594 C582 0.960 . S
H595 C582 0.962 . S
H596 C582 0.960 . S
H597 C583 0.961 . S
H598 C583 0.961 . S
H599 C583 0.961 . S
H600 C584 0.931 . S
H601 C589 0.930 . S
H602 C590 0.956 . S
H603 C590 0.961 . S
H604 C590 0.961 . S
H605 C591 0.958 1_554 S
H606 C591 0.961 . S
H607 C591 0.960 . S
C608 C609 1.391 . S
C608 C610 1.394 . S
C608 H624 0.931 . S
C609 C608 1.391 . S
C609 C613 1.376 . S
C610 C608 1.394 . S
C610 C611 1.369 . S
C610 C614 1.531 . S
C611 C610 1.369 . S
C611 C612 1.410 . S
C611 C619 1.503 . S
C612 C611 1.410 . S
C612 C613 1.392 . S
C612 C615 1.511 . S
C613 C609 1.376 . S
C613 C612 1.392 . S
C613 H625 0.929 . S
C614 C610 1.531 . S
C614 H626 0.960 . S
C614 H627 0.962 . S
C614 H628 0.960 . S
C615 C612 1.511 . S
C615 H629 0.961 . S
C615 H630 0.961 . S
C615 H631 0.961 . S
C616 C617 1.370 . S
C616 C618 1.363 . S
C616 H632 0.931 . S
C617 C616 1.370 . S
C617 C621 1.408 . S
C618 C616 1.363 . S
C618 C619 1.370 . S
C618 C622 1.524 . S
C619 C611 1.503 . S
C619 C618 1.370 . S
C619 C620 1.403 . S
C620 C619 1.403 . S
C620 C621 1.404 . S
C620 C623 1.539 . S
C621 C617 1.408 . S
C621 C620 1.404 . S
C621 H633 0.930 . S
C622 C618 1.524 . S
C622 H634 0.956 . S
C622 H635 0.961 . S
C622 H636 0.961 . S
C623 C620 1.539 . S
C623 H637 0.958 . S
C623 H638 0.961 . S
C623 H639 0.960 . S
H624 C608 0.931 . S
H625 C613 0.929 . S
H626 C614 0.960 . S
H627 C614 0.962 . S
H628 C614 0.960 . S
H629 C615 0.961 . S
H630 C615 0.961 . S
H631 C615 0.961 . S
H632 C616 0.931 . S
H633 C621 0.930 . S
H634 C622 0.956 . S
H635 C622 0.961 . S
H636 C622 0.961 . S
H637 C623 0.958 . S
H638 C623 0.961 . S
H639 C623 0.960 . S
C640 C641 1.391 . S
C640 C642 1.394 . S
C640 H656 0.931 . S
C641 C640 1.391 . S
C641 C645 1.376 1_655 S
C642 C640 1.394 . S
C642 C643 1.380 . S
C642 C646 1.531 . S
C643 C642 1.380 . S
C643 C644 1.396 1_655 S
C643 C651 1.502 . S
C644 C643 1.396 1_455 S
C644 C645 1.392 . S
C644 C647 1.511 . S
C645 C641 1.376 1_455 S
C645 C644 1.392 . S
C645 H657 0.929 . S
C646 C642 1.531 . S
C646 H658 0.960 . S
C646 H659 0.962 . S
C646 H660 0.960 . S
C647 C644 1.511 . S
C647 H661 0.961 . S
C647 H662 0.961 . S
C647 H663 0.961 . S
C648 C649 1.392 . S
C648 C650 1.363 1_556 S
C648 H664 0.931 . S
C649 C648 1.392 . S
C649 C653 1.380 1_655 S
C650 C648 1.363 1_554 S
C650 C651 1.386 . S
C650 C654 1.524 . S
C651 C643 1.502 . S
C651 C650 1.386 . S
C651 C652 1.392 1_654 S
C652 C651 1.392 1_456 S
C652 C653 1.404 . S
C652 C655 1.539 . S
C653 C649 1.380 1_455 S
C653 C652 1.404 . S
C653 H665 0.930 . S
C654 C650 1.524 . S
C654 H666 0.956 . S
C654 H667 0.961 . S
C654 H668 0.961 . S
C655 C652 1.539 . S
C655 H669 0.958 . S
C655 H670 0.961 . S
C655 H671 0.960 1_556 S
H656 C640 0.931 . S
H657 C645 0.929 . S
H658 C646 0.960 . S
H659 C646 0.962 . S
H660 C646 0.960 . S
H661 C647 0.961 . S
H662 C647 0.961 . S
H663 C647 0.961 . S
H664 C648 0.931 . S
H665 C653 0.930 . S
H666 C654 0.956 . S
H667 C654 0.961 . S
H668 C654 0.961 . S
H669 C655 0.958 . S
H670 C655 0.961 . S
H671 C655 0.960 1_554 S
C672 C673 1.391 . S
C672 C674 1.394 . S
C672 H688 0.931 . S
C673 C672 1.391 . S
C673 C677 1.376 1_455 S
C674 C672 1.394 . S
C674 C675 1.369 1_455 S
C674 C678 1.531 . S
C675 C674 1.369 1_655 S
C675 C676 1.410 . S
C675 C683 1.503 . S
C676 C675 1.410 . S
C676 C677 1.392 . S
C676 C679 1.511 . S
C677 C673 1.376 1_655 S
C677 C676 1.392 . S
C677 H689 0.929 . S
C678 C674 1.531 . S
C678 H690 0.960 . S
C678 H691 0.962 . S
C678 H692 0.960 . S
C679 C676 1.511 . S
C679 H693 0.961 . S
C679 H694 0.961 . S
C679 H695 0.961 . S
C680 C681 1.370 . S
C680 C682 1.363 . S
C680 H696 0.931 . S
C681 C680 1.370 . S
C681 C685 1.408 . S
C682 C680 1.363 . S
C682 C683 1.370 . S
C682 C686 1.524 . S
C683 C675 1.503 . S
C683 C682 1.370 . S
C683 C684 1.403 . S
C684 C683 1.403 . S
C684 C685 1.404 . S
C684 C687 1.539 . S
C685 C681 1.408 . S
C685 C684 1.404 . S
C685 H697 0.930 . S
C686 C682 1.524 . S
C686 H698 0.956 1_655 S
C686 H699 0.961 . S
C686 H700 0.961 . S
C687 C684 1.539 . S
C687 H701 0.958 . S
C687 H702 0.961 . S
C687 H703 0.960 . S
H688 C672 0.931 . S
H689 C677 0.929 . S
H690 C678 0.960 . S
H691 C678 0.962 . S
H692 C678 0.960 . S
H693 C679 0.961 . S
H694 C679 0.961 . S
H695 C679 0.961 . S
H696 C680 0.931 . S
H697 C685 0.930 . S
H698 C686 0.956 1_455 S
H699 C686 0.961 . S
H700 C686 0.961 . S
H701 C687 0.958 . S
H702 C687 0.961 . S
H703 C687 0.960 . S
C704 C705 1.391 . S
C704 C706 1.394 . S
C704 H720 0.931 . S
C705 C704 1.391 . S
C705 C709 1.376 1_565 S
C706 C704 1.394 . S
C706 C707 1.369 . S
C706 C710 1.531 . S
C707 C706 1.369 . S
C707 C708 1.410 . S
C707 C715 1.503 . S
C708 C707 1.410 . S
C708 C709 1.392 1_565 S
C708 C711 1.511 1_565 S
C709 C705 1.376 1_545 S
C709 C708 1.392 1_545 S
C709 H721 0.929 . S
C710 C706 1.531 . S
C710 H722 0.960 . S
C710 H723 0.962 . S
C710 H724 0.960 . S
C711 C708 1.511 1_545 S
C711 H725 0.961 . S
C711 H726 0.961 . S
C711 H727 0.961 1_545 S
C712 C713 1.370 . S
C712 C714 1.363 . S
C712 H728 0.931 1_565 S
C713 C712 1.370 . S
C713 C717 1.408 . S
C714 C712 1.363 . S
C714 C715 1.370 . S
C714 C718 1.524 1_565 S
C715 C707 1.503 . S
C715 C714 1.370 . S
C715 C716 1.403 . S
C716 C715 1.403 . S
C716 C717 1.404 . S
C716 C719 1.539 . S
C717 C713 1.408 . S
C717 C716 1.404 . S
C717 H729 0.930 . S
C718 C714 1.524 1_545 S
C718 H730 0.956 . S
C718 H731 0.961 . S
C718 H732 0.961 . S
C719 C716 1.539 . S
C719 H733 0.958 . S
C719 H734 0.961 . S
C719 H735 0.960 . S
H720 C704 0.931 . S
H721 C709 0.929 . S
H722 C710 0.960 . S
H723 C710 0.962 . S
H724 C710 0.960 . S
H725 C711 0.961 . S
H726 C711 0.961 . S
H727 C711 0.961 1_565 S
H728 C712 0.931 1_545 S
H729 C717 0.930 . S
H730 C718 0.956 . S
H731 C718 0.961 . S
H732 C718 0.961 . S
H733 C719 0.958 . S
H734 C719 0.961 . S
H735 C719 0.960 . S
C736 C737 1.391 . S
C736 C738 1.394 . S
C736 H752 0.931 . S
C737 C736 1.391 . S
C737 C741 1.376 . S
C738 C736 1.394 . S
C738 C739 1.369 . S
C738 C742 1.531 . S
C739 C738 1.369 . S
C739 C740 1.410 . S
C739 C747 1.503 . S
C740 C739 1.410 . S
C740 C741 1.392 . S
C740 C743 1.511 . S
C741 C737 1.376 . S
C741 C740 1.392 . S
C741 H753 0.929 . S
C742 C738 1.531 . S
C742 H754 0.960 . S
C742 H755 0.962 . S
C742 H756 0.960 . S
C743 C740 1.511 . S
C743 H757 0.961 . S
C743 H758 0.961 . S
C743 H759 0.961 . S
C744 C745 1.370 . S
C744 C746 1.363 . S
C744 H760 0.931 . S
C745 C744 1.370 . S
C745 C749 1.408 . S
C746 C744 1.363 . S
C746 C747 1.370 . S
C746 C750 1.524 . S
C747 C739 1.503 . S
C747 C746 1.370 . S
C747 C748 1.403 . S
C748 C747 1.403 . S
C748 C749 1.404 . S
C748 C751 1.539 . S
C749 C745 1.408 . S
C749 C748 1.404 . S
C749 H761 0.930 . S
C750 C746 1.524 . S
C750 H762 0.956 . S
C750 H763 0.961 . S
C750 H764 0.961 . S
C751 C748 1.539 . S
C751 H765 0.958 . S
C751 H766 0.961 . S
C751 H767 0.960 . S
H752 C736 0.931 . S
H753 C741 0.929 . S
H754 C742 0.960 . S
H755 C742 0.962 . S
H756 C742 0.960 . S
H757 C743 0.961 . S
H758 C743 0.961 . S
H759 C743 0.961 . S
H760 C744 0.931 . S
H761 C749 0.930 . S
H762 C750 0.956 . S
H763 C750 0.961 . S
H764 C750 0.961 . S
H765 C751 0.958 . S
H766 C751 0.961 . S
H767 C751 0.960 . S
C768 C769 1.391 . S
C768 C770 1.394 . S
C768 H784 0.931 . S
C769 C768 1.391 . S
C769 C773 1.376 . S
C770 C768 1.394 . S
C770 C771 1.369 . S
C770 C774 1.531 . S
C771 C770 1.369 . S
C771 C772 1.410 . S
C771 C779 1.503 . S
C772 C771 1.410 . S
C772 C773 1.392 . S
C772 C775 1.511 . S
C773 C769 1.376 . S
C773 C772 1.392 . S
C773 H785 0.929 . S
C774 C770 1.531 . S
C774 H786 0.960 . S
C774 H787 0.962 . S
C774 H788 0.960 . S
C775 C772 1.511 . S
C775 H789 0.961 . S
C775 H790 0.961 . S
C775 H791 0.961 . S
C776 C777 1.370 . S
C776 C778 1.363 . S
C776 H792 0.931 . S
C777 C776 1.370 . S
C777 C781 1.408 . S
C778 C776 1.363 . S
C778 C779 1.370 . S
C778 C782 1.524 . S
C779 C771 1.503 . S
C779 C778 1.370 . S
C779 C780 1.403 . S
C780 C779 1.403 . S
C780 C781 1.404 . S
C780 C783 1.539 . S
C781 C777 1.408 . S
C781 C780 1.404 . S
C781 H793 0.930 . S
C782 C778 1.524 . S
C782 H794 0.956 . S
C782 H795 0.961 . S
C782 H796 0.961 . S
C783 C780 1.539 . S
C783 H797 0.958 . S
C783 H798 0.961 . S
C783 H799 0.960 . S
H784 C768 0.931 . S
H785 C773 0.929 . S
H786 C774 0.960 . S
H787 C774 0.962 . S
H788 C774 0.960 . S
H789 C775 0.961 . S
H790 C775 0.961 . S
H791 C775 0.961 . S
H792 C776 0.931 . S
H793 C781 0.930 . S
H794 C782 0.956 . S
H795 C782 0.961 . S
H796 C782 0.961 . S
H797 C783 0.958 . S
H798 C783 0.961 . S
H799 C783 0.960 . S
C800 C801 1.391 . S
C800 C802 1.394 . S
C800 H816 0.931 . S
C801 C800 1.391 . S
C801 C805 1.376 1_655 S
C802 C800 1.394 . S
C802 C803 1.369 1_655 S
C802 C806 1.531 . S
C803 C802 1.369 1_455 S
C803 C804 1.410 . S
C803 C811 1.503 . S
C804 C803 1.410 . S
C804 C805 1.392 . S
C804 C807 1.511 . S
C805 C801 1.376 1_455 S
C805 C804 1.392 . S
C805 H817 0.929 . S
C806 C802 1.531 . S
C806 H818 0.960 . S
C806 H819 0.962 . S
C806 H820 0.960 . S
C807 C804 1.511 . S
C807 H821 0.961 . S
C807 H822 0.961 . S
C807 H823 0.961 . S
C808 C809 1.370 . S
C808 C810 1.363 1_556 S
C808 H824 0.931 . S
C809 C808 1.370 . S
C809 C813 1.408 1_556 S
C810 C808 1.363 1_554 S
C810 C811 1.370 . S
C810 C814 1.524 1_455 S
C811 C803 1.503 . S
C811 C810 1.370 . S
C811 C812 1.403 . S
C812 C811 1.403 . S
C812 C813 1.404 . S
C812 C815 1.539 . S
C813 C809 1.408 1_554 S
C813 C812 1.404 . S
C813 H825 0.930 . S
C814 C810 1.524 1_655 S
C814 H826 0.956 . S
C814 H827 0.961 . S
C814 H828 0.961 1_554 S
C815 C812 1.539 . S
C815 H829 0.958 . S
C815 H830 0.961 . S
C815 H831 0.960 . S
H816 C800 0.931 . S
H817 C805 0.929 . S
H818 C806 0.960 . S
H819 C806 0.962 . S
H820 C806 0.960 . S
H821 C807 0.961 . S
H822 C807 0.961 . S
H823 C807 0.961 . S
H824 C808 0.931 . S
H825 C813 0.930 . S
H826 C814 0.956 . S
H827 C814 0.961 . S
H828 C814 0.961 1_556 S
H829 C815 0.958 . S
H830 C815 0.961 . S
H831 C815 0.960 . S
C832 C833 1.406 . S
C832 C834 1.394 . S
C832 H848 0.931 . S
C833 C832 1.406 . S
C833 C837 1.365 1_545 S
C834 C832 1.394 . S
C834 C835 1.369 . S
C834 C838 1.531 . S
C835 C834 1.369 . S
C835 C836 1.410 1_545 S
C835 C843 1.503 . S
C836 C835 1.410 1_565 S
C836 C837 1.392 . S
C836 C839 1.511 1_554 S
C837 C833 1.365 1_565 S
C837 C836 1.392 . S
C837 H849 0.929 . S
C838 C834 1.531 . S
C838 H850 0.960 . S
C838 H851 0.962 . S
C838 H852 0.960 . S
C839 C836 1.511 1_556 S
C839 H853 0.961 . S
C839 H854 0.961 . S
C839 H855 0.961 . S
C840 C841 1.370 1_554 S
C840 C842 1.363 . S
C840 H856 0.931 . S
C841 C840 1.370 1_556 S
C841 C845 1.408 . S
C842 C840 1.363 . S
C842 C843 1.370 . S
C842 C846 1.524 1_545 S
C843 C835 1.503 . S
C843 C842 1.370 . S
C843 C844 1.403 1_554 S
C844 C843 1.403 1_556 S
C844 C845 1.404 . S
C844 C847 1.539 . S
C845 C841 1.408 . S
C845 C844 1.404 . S
C845 H857 0.930 . S
C846 C842 1.524 1_565 S
C846 H858 0.956 1_565 S
C846 H859 0.961 . S
C846 H860 0.961 . S
C847 C844 1.539 . S
C847 H861 0.958 . S
C847 H862 0.961 . S
C847 H863 0.960 . S
H848 C832 0.931 . S
H849 C837 0.929 . S
H850 C838 0.960 . S
H851 C838 0.962 . S
H852 C838 0.960 . S
H853 C839 0.961 . S
H854 C839 0.961 . S
H855 C839 0.961 . S
H856 C840 0.931 . S
H857 C845 0.930 . S
H858 C846 0.956 1_545 S
H859 C846 0.961 . S
H860 C846 0.961 . S
H861 C847 0.958 . S
H862 C847 0.961 . S
H863 C847 0.960 . S
C864 C865 1.391 . S
C864 C866 1.394 . S
C864 H880 0.931 1_556 S
C865 C864 1.391 . S
C865 C869 1.376 . S
C866 C864 1.394 . S
C866 C867 1.369 . S
C866 C870 1.531 1_556 S
C867 C866 1.369 . S
C867 C868 1.410 . S
C867 C875 1.503 . S
C868 C867 1.410 . S
C868 C869 1.392 . S
C868 C871 1.511 . S
C869 C865 1.376 . S
C869 C868 1.392 . S
C869 H881 0.929 . S
C870 C866 1.531 1_554 S
C870 H882 0.960 . S
C870 H883 0.962 1_554 S
C870 H884 0.960 . S
C871 C868 1.511 . S
C871 H885 0.961 . S
C871 H886 0.961 . S
C871 H887 0.961 . S
C872 C873 1.370 . S
C872 C874 1.363 . S
C872 H888 0.931 . S
C873 C872 1.370 . S
C873 C877 1.408 . S
C874 C872 1.363 . S
C874 C875 1.370 . S
C874 C878 1.524 . S
C875 C867 1.503 . S
C875 C874 1.370 . S
C875 C876 1.403 . S
C876 C875 1.403 . S
C876 C877 1.404 . S
C876 C879 1.539 1_556 S
C877 C873 1.408 . S
C877 C876 1.404 . S
C877 H889 0.930 . S
C878 C874 1.524 . S
C878 H890 0.956 . S
C878 H891 0.961 . S
C878 H892 0.961 . S
C879 C876 1.539 1_554 S
C879 H893 0.958 . S
C879 H894 0.961 . S
C879 H895 0.960 . S
H880 C864 0.931 1_554 S
H881 C869 0.929 . S
H882 C870 0.960 . S
H883 C870 0.962 1_556 S
H884 C870 0.960 . S
H885 C871 0.961 . S
H886 C871 0.961 . S
H887 C871 0.961 . S
H888 C872 0.931 . S
H889 C877 0.930 . S
H890 C878 0.956 . S
H891 C878 0.961 . S
H892 C878 0.961 . S
H893 C879 0.958 . S
H894 C879 0.961 . S
H895 C879 0.960 . S
C896 C897 1.391 . S
C896 C898 1.394 . S
C896 H912 0.931 . S
C897 C896 1.391 . S
C897 C901 1.376 . S
C898 C896 1.394 . S
C898 C899 1.369 . S
C898 C902 1.531 . S
C899 C898 1.369 . S
C899 C900 1.410 . S
C899 C907 1.503 . S
C900 C899 1.410 . S
C900 C901 1.392 . S
C900 C903 1.511 . S
C901 C897 1.376 . S
C901 C900 1.392 . S
C901 H913 0.929 . S
C902 C898 1.531 . S
C902 H914 0.960 . S
C902 H915 0.962 . S
C902 H916 0.960 . S
C903 C900 1.511 . S
C903 H917 0.961 . S
C903 H918 0.961 . S
C903 H919 0.961 . S
C904 C905 1.370 . S
C904 C906 1.363 . S
C904 H920 0.931 . S
C905 C904 1.370 . S
C905 C909 1.408 . S
C906 C904 1.363 . S
C906 C907 1.370 . S
C906 C910 1.524 . S
C907 C899 1.503 . S
C907 C906 1.370 . S
C907 C908 1.403 . S
C908 C907 1.403 . S
C908 C909 1.404 . S
C908 C911 1.539 . S
C909 C905 1.408 . S
C909 C908 1.404 . S
C909 H921 0.930 . S
C910 C906 1.524 . S
C910 H922 0.956 . S
C910 H923 0.961 . S
C910 H924 0.961 . S
C911 C908 1.539 . S
C911 H925 0.958 . S
C911 H926 0.961 . S
C911 H927 0.960 . S
H912 C896 0.931 . S
H913 C901 0.929 . S
H914 C902 0.960 . S
H915 C902 0.962 . S
H916 C902 0.960 . S
H917 C903 0.961 . S
H918 C903 0.961 . S
H919 C903 0.961 . S
H920 C904 0.931 . S
H921 C909 0.930 . S
H922 C910 0.956 . S
H923 C910 0.961 . S
H924 C910 0.961 . S
H925 C911 0.958 . S
H926 C911 0.961 . S
H927 C911 0.960 . S
C928 C929 1.391 . S
C928 C930 1.394 . S
C928 H944 0.931 . S
C929 C928 1.391 . S
C929 C933 1.374 . S
C930 C928 1.394 . S
C930 C931 1.369 . S
C930 C934 1.531 . S
C931 C930 1.369 . S
C931 C932 1.410 1_455 S
C931 C939 1.503 . S
C932 C931 1.410 1_655 S
C932 C933 1.393 1_655 S
C932 C935 1.511 . S
C933 C929 1.374 . S
C933 C932 1.393 1_455 S
C933 H945 0.930 1_455 S
C934 C930 1.531 . S
C934 H946 0.960 . S
C934 H947 0.962 . S
C934 H948 0.960 1_556 S
C935 C932 1.511 . S
C935 H949 0.961 . S
C935 H950 0.980 . S
C935 H951 0.961 . S
C936 C937 1.370 . S
C936 C938 1.363 . S
C936 H952 0.931 . S
C937 C936 1.370 . S
C937 C941 1.408 1_455 S
C938 C936 1.363 . S
C938 C939 1.370 . S
C938 C942 1.524 . S
C939 C931 1.503 . S
C939 C938 1.370 . S
C939 C940 1.403 1_455 S
C940 C939 1.403 1_655 S
C940 C941 1.404 . S
C940 C943 1.539 . S
C941 C937 1.408 1_655 S
C941 C940 1.404 . S
C941 H953 0.930 . S
C942 C938 1.524 . S
C942 H954 0.956 . S
C942 H955 0.961 . S
C942 H956 0.961 . S
C943 C940 1.539 . S
C943 H957 0.958 . S
C943 H958 0.961 . S
C943 H959 0.960 . S
H944 C928 0.931 . S
H945 C933 0.930 1_655 S
H946 C934 0.960 . S
H947 C934 0.962 . S
H948 C934 0.960 1_554 S
H949 C935 0.961 . S
H950 C935 0.980 . S
H951 C935 0.961 . S
H952 C936 0.931 . S
H953 C941 0.930 . S
H954 C942 0.956 . S
H955 C942 0.961 . S
H956 C942 0.961 . S
H957 C943 0.958 . S
H958 C943 0.961 . S
H959 C943 0.960 . S
C960 C961 1.395 . S
C960 C962 1.394 . S
C960 H976 0.931 1_556 S
C961 C960 1.395 . S
C961 C965 1.371 1_565 S
C962 C960 1.394 . S
C962 C963 1.369 . S
C962 C966 1.531 1_556 S
C963 C962 1.369 . S
C963 C964 1.410 1_565 S
C963 C971 1.503 1_565 S
C964 C963 1.410 1_545 S
C964 C965 1.392 . S
C964 C967 1.511 . S
C965 C961 1.371 1_545 S
C965 C964 1.392 . S
C965 H977 0.929 . S
C966 C962 1.531 1_554 S
C966 H978 0.960 1_554 S
C966 H979 0.962 1_565 S
C966 H980 0.960 . S
C967 C964 1.511 . S
C967 H981 0.961 . S
C967 H982 0.961 . S
C967 H983 0.961 1_545 S
C968 C969 1.370 . S
C968 C970 1.363 . S
C968 H984 0.931 . S
C969 C968 1.370 . S
C969 C973 1.408 1_545 S
C970 C968 1.363 . S
C970 C971 1.370 . S
C970 C974 1.524 . S
C971 C963 1.503 1_545 S
C971 C970 1.370 . S
C971 C972 1.403 1_545 S
C972 C971 1.403 1_565 S
C972 C973 1.404 . S
C972 C975 1.539 . S
C973 C969 1.408 1_565 S
C973 C972 1.404 . S
C973 H985 0.930 . S
C974 C970 1.524 . S
C974 H986 0.956 . S
C974 H987 0.961 . S
C974 H988 0.961 . S
C975 C972 1.539 . S
C975 H989 0.958 . S
C975 H990 0.961 . S
C975 H991 0.960 . S
H976 C960 0.931 1_554 S
H977 C965 0.929 . S
H978 C966 0.960 1_556 S
H979 C966 0.962 1_545 S
H980 C966 0.960 . S
H981 C967 0.961 . S
H982 C967 0.961 . S
H983 C967 0.961 1_565 S
H984 C968 0.931 . S
H985 C973 0.930 . S
H986 C974 0.956 . S
H987 C974 0.961 . S
H988 C974 0.961 . S
H989 C975 0.958 . S
H990 C975 0.961 . S
H991 C975 0.960 . S
C992 C993 1.391 . S
C992 C994 1.394 . S
C992 H1008 0.931 . S
C993 C992 1.391 . S
C993 C997 1.376 . S
C994 C992 1.394 . S
C994 C995 1.369 . S
C994 C998 1.531 . S
C995 C994 1.369 . S
C995 C996 1.411 . S
C995 C1003 1.503 1_554 S
C996 C995 1.411 . S
C996 C997 1.395 . S
C996 C999 1.507 1_554 S
C997 C993 1.376 . S
C997 C996 1.395 . S
C997 H1009 0.929 . S
C998 C994 1.531 . S
C998 H1010 0.960 . S
C998 H1011 0.962 . S
C998 H1012 0.960 . S
C999 C996 1.507 1_556 S
C999 H1013 0.961 . S
C999 H1014 0.961 . S
C999 H1015 0.961 . S
C1000 C1001 1.370 . S
C1000 C1002 1.363 . S
C1000 H1016 0.931 . S
C1001 C1000 1.370 . S
C1001 C1005 1.408 . S
C1002 C1000 1.363 . S
C1002 C1003 1.370 . S
C1002 C1006 1.524 . S
C1003 C995 1.503 1_556 S
C1003 C1002 1.370 . S
C1003 C1004 1.403 . S
C1004 C1003 1.403 . S
C1004 C1005 1.404 . S
C1004 C1007 1.539 1_556 S
C1005 C1001 1.408 . S
C1005 C1004 1.404 . S
C1005 H1017 0.930 . S
C1006 C1002 1.524 . S
C1006 H1018 0.956 . S
C1006 H1019 0.961 . S
C1006 H1020 0.961 . S
C1007 C1004 1.539 1_554 S
C1007 H1021 0.958 . S
C1007 H1022 0.961 . S
C1007 H1023 0.960 . S
H1008 C992 0.931 . S
H1009 C997 0.929 . S
H1010 C998 0.960 . S
H1011 C998 0.962 . S
H1012 C998 0.960 . S
H1013 C999 0.961 . S
H1014 C999 0.961 . S
H1015 C999 0.961 . S
H1016 C1000 0.931 . S
H1017 C1005 0.930 . S
H1018 C1006 0.956 . S
H1019 C1006 0.961 . S
H1020 C1006 0.961 . S
H1021 C1007 0.958 . S
H1022 C1007 0.961 . S
H1023 C1007 0.960 . S
C1024 C1025 1.391 . S
C1024 C1026 1.394 . S
C1024 H1040 0.931 . S
C1025 C1024 1.391 . S
C1025 C1029 1.376 . S
C1026 C1024 1.394 . S
C1026 C1027 1.369 . S
C1026 C1030 1.531 . S
C1027 C1026 1.369 . S
C1027 C1028 1.410 . S
C1027 C1035 1.503 . S
C1028 C1027 1.410 . S
C1028 C1029 1.392 . S
C1028 C1031 1.511 . S
C1029 C1025 1.376 . S
C1029 C1028 1.392 . S
C1029 H1041 0.929 . S
C1030 C1026 1.531 . S
C1030 H1042 0.960 . S
C1030 H1043 0.962 . S
C1030 H1044 0.960 . S
C1031 C1028 1.511 . S
C1031 H1045 0.961 . S
C1031 H1046 0.961 . S
C1031 H1047 0.961 . S
C1032 C1033 1.370 . S
C1032 C1034 1.363 . S
C1032 H1048 0.931 . S
C1033 C1032 1.370 . S
C1033 C1037 1.408 . S
C1034 C1032 1.363 . S
C1034 C1035 1.370 . S
C1034 C1038 1.524 . S
C1035 C1027 1.503 . S
C1035 C1034 1.370 . S
C1035 C1036 1.403 . S
C1036 C1035 1.403 . S
C1036 C1037 1.404 . S
C1036 C1039 1.539 . S
C1037 C1033 1.408 . S
C1037 C1036 1.404 . S
C1037 H1049 0.930 . S
C1038 C1034 1.524 . S
C1038 H1050 0.956 . S
C1038 H1051 0.961 . S
C1038 H1052 0.961 . S
C1039 C1036 1.539 . S
C1039 H1053 0.958 . S
C1039 H1054 0.961 . S
C1039 H1055 0.960 . S
H1040 C1024 0.931 . S
H1041 C1029 0.929 . S
H1042 C1030 0.960 . S
H1043 C1030 0.962 . S
H1044 C1030 0.960 . S
H1045 C1031 0.961 . S
H1046 C1031 0.961 . S
H1047 C1031 0.961 . S
H1048 C1032 0.931 . S
H1049 C1037 0.930 . S
H1050 C1038 0.956 . S
H1051 C1038 0.961 . S
H1052 C1038 0.961 . S
H1053 C1039 0.958 . S
H1054 C1039 0.961 . S
H1055 C1039 0.960 . S
C1056 C1057 1.391 1_455 S
C1056 C1058 1.394 . S
C1056 H1072 0.931 . S
C1057 C1056 1.391 1_655 S
C1057 C1061 1.376 . S
C1058 C1056 1.394 . S
C1058 C1059 1.369 1_455 S
C1058 C1062 1.531 . S
C1059 C1058 1.369 1_655 S
C1059 C1060 1.410 . S
C1059 C1067 1.503 . S
C1060 C1059 1.410 . S
C1060 C1061 1.392 . S
C1060 C1063 1.511 . S
C1061 C1057 1.376 . S
C1061 C1060 1.392 . S
C1061 H1073 0.929 . S
C1062 C1058 1.531 . S
C1062 H1074 0.960 . S
C1062 H1075 0.962 . S
C1062 H1076 0.960 . S
C1063 C1060 1.511 . S
C1063 H1077 0.961 . S
C1063 H1078 0.961 . S
C1063 H1079 0.961 . S
C1064 C1065 1.370 1_455 S
C1064 C1066 1.363 . S
C1064 H1080 0.931 . S
C1065 C1064 1.370 1_655 S
C1065 C1069 1.408 . S
C1066 C1064 1.363 . S
C1066 C1067 1.370 1_455 S
C1066 C1070 1.524 . S
C1067 C1059 1.503 . S
C1067 C1066 1.370 1_655 S
C1067 C1068 1.403 . S
C1068 C1067 1.403 . S
C1068 C1069 1.404 . S
C1068 C1071 1.539 . S
C1069 C1065 1.408 . S
C1069 C1068 1.404 . S
C1069 H1081 0.930 . S
C1070 C1066 1.524 . S
C1070 H1082 0.956 . S
C1070 H1083 0.961 . S
C1070 H1084 0.961 . S
C1071 C1068 1.539 . S
C1071 H1085 0.958 . S
C1071 H1086 0.961 . S
C1071 H1087 0.960 . S
H1072 C1056 0.931 . S
H1073 C1061 0.929 . S
H1074 C1062 0.960 . S
H1075 C1062 0.962 . S
H1076 C1062 0.960 . S
H1077 C1063 0.961 . S
H1078 C1063 0.961 . S
H1079 C1063 0.961 . S
H1080 C1064 0.931 . S
H1081 C1069 0.930 . S
H1082 C1070 0.956 . S
H1083 C1070 0.961 . S
H1084 C1070 0.961 . S
H1085 C1071 0.958 . S
H1086 C1071 0.961 . S
H1087 C1071 0.960 . S
C1088 C1089 1.391 1_545 S
C1088 C1090 1.394 . S
C1088 H1104 0.931 . S
C1089 C1088 1.391 1_565 S
C1089 C1093 1.376 . S
C1090 C1088 1.394 . S
C1090 C1091 1.369 1_545 S
C1090 C1094 1.531 . S
C1091 C1090 1.369 1_565 S
C1091 C1092 1.410 . S
C1091 C1099 1.503 . S
C1092 C1091 1.410 . S
C1092 C1093 1.392 . S
C1092 C1095 1.511 . S
C1093 C1089 1.376 . S
C1093 C1092 1.392 . S
C1093 H1105 0.929 . S
C1094 C1090 1.531 . S
C1094 H1106 0.960 . S
C1094 H1107 0.962 . S
C1094 H1108 0.960 . S
C1095 C1092 1.511 . S
C1095 H1109 0.961 . S
C1095 H1110 0.961 . S
C1095 H1111 0.961 . S
C1096 C1097 1.370 1_545 S
C1096 C1098 1.363 . S
C1096 H1112 0.931 . S
C1097 C1096 1.370 1_565 S
C1097 C1101 1.408 . S
C1098 C1096 1.363 . S
C1098 C1099 1.370 1_545 S
C1098 C1102 1.524 . S
C1099 C1091 1.503 . S
C1099 C1098 1.370 1_565 S
C1099 C1100 1.403 . S
C1100 C1099 1.403 . S
C1100 C1101 1.404 . S
C1100 C1103 1.539 . S
C1101 C1097 1.408 . S
C1101 C1100 1.404 . S
C1101 H1113 0.930 . S
C1102 C1098 1.524 . S
C1102 H1114 0.956 . S
C1102 H1115 0.961 . S
C1102 H1116 0.961 . S
C1103 C1100 1.539 . S
C1103 H1117 0.958 . S
C1103 H1118 0.961 . S
C1103 H1119 0.960 . S
H1104 C1088 0.931 . S
H1105 C1093 0.929 . S
H1106 C1094 0.960 . S
H1107 C1094 0.962 . S
H1108 C1094 0.960 . S
H1109 C1095 0.961 . S
H1110 C1095 0.961 . S
H1111 C1095 0.961 . S
H1112 C1096 0.931 . S
H1113 C1101 0.930 . S
H1114 C1102 0.956 . S
H1115 C1102 0.961 . S
H1116 C1102 0.961 . S
H1117 C1103 0.958 . S
H1118 C1103 0.961 . S
H1119 C1103 0.960 . S
C1120 C1121 1.391 . S
C1120 C1122 1.394 . S
C1120 H1136 0.931 . S
C1121 C1120 1.391 . S
C1121 C1125 1.376 . S
C1122 C1120 1.394 . S
C1122 C1123 1.369 . S
C1122 C1126 1.531 . S
C1123 C1122 1.369 . S
C1123 C1124 1.410 . S
C1123 C1131 1.503 . S
C1124 C1123 1.410 . S
C1124 C1125 1.392 . S
C1124 C1127 1.511 . S
C1125 C1121 1.376 . S
C1125 C1124 1.392 . S
C1125 H1137 0.929 . S
C1126 C1122 1.531 . S
C1126 H1138 0.960 . S
C1126 H1139 0.962 . S
C1126 H1140 0.960 . S
C1127 C1124 1.511 . S
C1127 H1141 0.961 . S
C1127 H1142 0.961 . S
C1127 H1143 0.961 . S
C1128 C1129 1.370 . S
C1128 C1130 1.363 . S
C1128 H1144 0.931 . S
C1129 C1128 1.370 . S
C1129 C1133 1.408 . S
C1130 C1128 1.363 . S
C1130 C1131 1.370 . S
C1130 C1134 1.524 . S
C1131 C1123 1.503 . S
C1131 C1130 1.370 . S
C1131 C1132 1.403 . S
C1132 C1131 1.403 . S
C1132 C1133 1.404 . S
C1132 C1135 1.539 . S
C1133 C1129 1.408 . S
C1133 C1132 1.404 . S
C1133 H1145 0.930 . S
C1134 C1130 1.524 . S
C1134 H1146 0.956 . S
C1134 H1147 0.961 . S
C1134 H1148 0.961 . S
C1135 C1132 1.539 . S
C1135 H1149 0.958 . S
C1135 H1150 0.961 . S
C1135 H1151 0.960 . S
H1136 C1120 0.931 . S
H1137 C1125 0.929 . S
H1138 C1126 0.960 . S
H1139 C1126 0.962 . S
H1140 C1126 0.960 . S
H1141 C1127 0.961 . S
H1142 C1127 0.961 . S
H1143 C1127 0.961 . S
H1144 C1128 0.931 . S
H1145 C1133 0.930 . S
H1146 C1134 0.956 . S
H1147 C1134 0.961 . S
H1148 C1134 0.961 . S
H1149 C1135 0.958 . S
H1150 C1135 0.961 . S
H1151 C1135 0.960 . S
C1152 C1153 1.391 . S
C1152 C1154 1.394 . S
C1152 H1168 0.931 . S
C1153 C1152 1.391 . S
C1153 C1157 1.376 . S
C1154 C1152 1.394 . S
C1154 C1155 1.369 . S
C1154 C1158 1.531 . S
C1155 C1154 1.369 . S
C1155 C1156 1.410 . S
C1155 C1163 1.503 . S
C1156 C1155 1.410 . S
C1156 C1157 1.392 . S
C1156 C1159 1.511 . S
C1157 C1153 1.376 . S
C1157 C1156 1.392 . S
C1157 H1169 0.929 . S
C1158 C1154 1.531 . S
C1158 H1170 0.960 . S
C1158 H1171 0.962 . S
C1158 H1172 0.960 . S
C1159 C1156 1.511 . S
C1159 H1173 0.961 . S
C1159 H1174 0.961 . S
C1159 H1175 0.961 . S
C1160 C1161 1.370 . S
C1160 C1162 1.363 . S
C1160 H1176 0.931 . S
C1161 C1160 1.370 . S
C1161 C1165 1.408 . S
C1162 C1160 1.363 . S
C1162 C1163 1.370 . S
C1162 C1166 1.524 . S
C1163 C1155 1.503 . S
C1163 C1162 1.370 . S
C1163 C1164 1.403 . S
C1164 C1163 1.403 . S
C1164 C1165 1.404 . S
C1164 C1167 1.539 . S
C1165 C1161 1.408 . S
C1165 C1164 1.404 . S
C1165 H1177 0.930 . S
C1166 C1162 1.524 . S
C1166 H1178 0.956 . S
C1166 H1179 0.961 . S
C1166 H1180 0.961 . S
C1167 C1164 1.539 . S
C1167 H1181 0.958 . S
C1167 H1182 0.961 . S
C1167 H1183 0.960 . S
H1168 C1152 0.931 . S
H1169 C1157 0.929 . S
H1170 C1158 0.960 . S
H1171 C1158 0.962 . S
H1172 C1158 0.960 . S
H1173 C1159 0.961 . S
H1174 C1159 0.961 . S
H1175 C1159 0.961 . S
H1176 C1160 0.931 . S
H1177 C1165 0.930 . S
H1178 C1166 0.956 . S
H1179 C1166 0.961 . S
H1180 C1166 0.961 . S
H1181 C1167 0.958 . S
H1182 C1167 0.961 . S
H1183 C1167 0.960 . S
C417 C215 1.933 1_565 S
C425 C258 2.046 1_545 S
C457 C298 2.063 . S
C449 C247 2.046 . S
C489 C362 2.268 . S
C481 C151 2.244 . S
C521 C378 1.960 . S
C513 C183 1.735 . S
C553 C279 2.045 . S
C545 C87 1.947 . S
C577 C119 1.984 . S
C585 C319 2.074 . S
C609 C23 2.140 . S
C617 C353 2.285 1_554 S
C641 C55 1.727 . S
C649 C399 1.954 1_655 S
C681 C273 0.419 . S
C673 C189 0.316 . S
C713 C313 0.615 . S
C705 C221 0.591 1_565 S
C745 C349 0.531 . S
C737 C253 0.347 . S
C769 C157 0.632 . S
C777 C393 0.661 . S
C801 C61 0.407 1_655 S
C809 C282 0.442 . S
C841 C322 0.590 . S
C833 C93 0.609 . S
C873 C360 0.557 . S
C865 C125 0.496 . S
C897 C29 0.584 . S
C905 C402 0.713 . S
C929 C177 2.294 . S
C937 C280 2.548 . S
C961 C209 2.198 1_565 S
C969 C320 2.404 . S
C1001 C338 1.820 . S
C993 C241 1.796 . S
C1033 C400 2.929 . S
C1025 C145 2.625 . S
C1057 C49 2.283 . S
C1065 C269 2.564 . S
C1097 C309 2.414 . S
C1089 C81 2.182 1_565 S
C1129 C359 1.799 . S
C1121 C113 1.773 . S
C1153 C17 2.580 . S
C1161 C389 2.935 . S
