# Generated by pormake.
# Topology pyr, (3,6)-cn, num edge types: 1
# Building blocks:
#     Node 0, Type 0, BuildingBlock: PAMTOO_clean_linker_0, # of connection points: 3
#     Node 1, Type 0, BuildingBlock: PAMTOO_clean_linker_0, # of connection points: 3
#     Node 2, Type 0, BuildingBlock: PAMTOO_clean_linker_0, # of connection points: 3
#     Node 3, Type 0, BuildingBlock: PAMTOO_clean_linker_0, # of connection points: 3
#     Node 4, Type 0, BuildingBlock: PAMTOO_clean_linker_0, # of connection points: 3
#     Node 5, Type 0, BuildingBlock: PAMTOO_clean_linker_0, # of connection points: 3
#     Node 6, Type 0, BuildingBlock: PAMTOO_clean_linker_0, # of connection points: 3
#     Node 7, Type 0, BuildingBlock: PAMTOO_clean_linker_0, # of connection points: 3
#     Node 8, Type 1, BuildingBlock: GEDQOX_clean_sbu_0, # of connection points: 6
#     Node 9, Type 1, BuildingBlock: GEDQOX_clean_sbu_0, # of connection points: 6
#     Node 10, Type 1, BuildingBlock: GEDQOX_clean_sbu_0, # of connection points: 6
#     Node 11, Type 1, BuildingBlock: GEDQOX_clean_sbu_0, # of connection points: 6
#     Edge 12, Type (0, 1), BuildingBlock: EZIPEK_clean_linker_0, # of connection points: 2
#     Edge 13, Type (0, 1), BuildingBlock: EZIPEK_clean_linker_0, # of connection points: 2
#     Edge 14, Type (0, 1), BuildingBlock: EZIPEK_clean_linker_0, # of connection points: 2
#     Edge 15, Type (0, 1), BuildingBlock: EZIPEK_clean_linker_0, # of connection points: 2
#     Edge 16, Type (0, 1), BuildingBlock: EZIPEK_clean_linker_0, # of connection points: 2
#     Edge 17, Type (0, 1), BuildingBlock: EZIPEK_clean_linker_0, # of connection points: 2
#     Edge 18, Type (0, 1), BuildingBlock: EZIPEK_clean_linker_0, # of connection points: 2
#     Edge 19, Type (0, 1), BuildingBlock: EZIPEK_clean_linker_0, # of connection points: 2
#     Edge 20, Type (0, 1), BuildingBlock: EZIPEK_clean_linker_0, # of connection points: 2
#     Edge 21, Type (0, 1), BuildingBlock: EZIPEK_clean_linker_0, # of connection points: 2
#     Edge 22, Type (0, 1), BuildingBlock: EZIPEK_clean_linker_0, # of connection points: 2
#     Edge 23, Type (0, 1), BuildingBlock: EZIPEK_clean_linker_0, # of connection points: 2
#     Edge 24, Type (0, 1), BuildingBlock: EZIPEK_clean_linker_0, # of connection points: 2
#     Edge 25, Type (0, 1), BuildingBlock: EZIPEK_clean_linker_0, # of connection points: 2
#     Edge 26, Type (0, 1), BuildingBlock: EZIPEK_clean_linker_0, # of connection points: 2
#     Edge 27, Type (0, 1), BuildingBlock: EZIPEK_clean_linker_0, # of connection points: 2
#     Edge 28, Type (0, 1), BuildingBlock: EZIPEK_clean_linker_0, # of connection points: 2
#     Edge 29, Type (0, 1), BuildingBlock: EZIPEK_clean_linker_0, # of connection points: 2
#     Edge 30, Type (0, 1), BuildingBlock: EZIPEK_clean_linker_0, # of connection points: 2
#     Edge 31, Type (0, 1), BuildingBlock: EZIPEK_clean_linker_0, # of connection points: 2
#     Edge 32, Type (0, 1), BuildingBlock: EZIPEK_clean_linker_0, # of connection points: 2
#     Edge 33, Type (0, 1), BuildingBlock: EZIPEK_clean_linker_0, # of connection points: 2
#     Edge 34, Type (0, 1), BuildingBlock: EZIPEK_clean_linker_0, # of connection points: 2
#     Edge 35, Type (0, 1), BuildingBlock: EZIPEK_clean_linker_0, # of connection points: 2
# Relax obj value: 0.235
# Max RMSD: 0.237
# Mean RMSD: 0.156
data_MOF--net-pyr--node1-GEDQOX_clean_sbu_0--node2-PAMTOO_clean_linker_0--edge1-EZIPEK_clean_linker_0
_symmetry_space_group_name_H-M    P1
_symmetry_Int_Tables_number       1
_symmetry_cell_setting            triclinic
loop_
_symmetry_equiv_pos_as_xyz
'x, y, z'
_cell_length_a     28.004704
_cell_length_b     28.836782
_cell_length_c     25.278139
_cell_angle_alpha  86.590263
_cell_angle_beta   90.74713
_cell_angle_gamma 86.704922
loop_
_atom_site_label
_atom_site_type_symbol
_atom_site_fract_x
_atom_site_fract_y
_atom_site_fract_z
_atom_type_partial_charge
H0 H 0.15949 0.26159 0.26035 0.0
H1 H 0.27277 0.15333 0.26684 0.0
H2 H 0.2748 0.26725 0.14878 0.0
H3 H 0.30683 0.16801 0.11233 0.0
C4 C 0.32793 0.1563 0.14865 0.0
O5 O 0.32212 0.18964 0.18656 0.0
H6 H 0.31062 0.12429 0.16303 0.0
C7 C 0.19233 0.24654 0.24473 0.0
C8 C 0.21414 0.2701 0.20131 0.0
C9 C 0.21299 0.20443 0.26912 0.0
C10 C 0.25615 0.18515 0.24827 0.0
C11 C 0.27849 0.20705 0.20412 0.0
C12 C 0.25725 0.24963 0.1815 0.0
H13 H 0.39823 0.88675 0.84277 0.0
H14 H 0.41702 0.76671 0.75278 0.0
H15 H 0.52382 0.79307 0.86495 0.0
H16 H 0.56286 0.76314 0.75783 0.0
C17 C 0.52745 0.75179 0.74508 0.0
O18 O 0.50199 0.74216 0.7905 0.0
H19 H 0.50887 0.78088 0.72035 0.0
C20 C 0.41756 0.85378 0.83782 0.0
C21 C 0.45945 0.8402 0.86825 0.0
C22 C 0.40215 0.82708 0.79697 0.0
C23 C 0.42807 0.78632 0.78564 0.0
C24 C 0.47217 0.77509 0.8104 0.0
C25 C 0.48794 0.80181 0.8508 0.0
H26 H 0.86712 0.37914 0.90993 0.0
H27 H 0.81511 0.39309 0.74823 0.0
H28 H 0.93296 0.47059 0.79491 0.0
H29 H 0.88019 0.50006 0.6567 0.0
C30 C 0.85985 0.48969 0.69248 0.0
O31 O 0.88054 0.44854 0.71511 0.0
H32 H 0.86559 0.51718 0.72001 0.0
C33 C 0.86852 0.39527 0.87018 0.0
C34 C 0.90324 0.42741 0.85776 0.0
C35 C 0.83598 0.38352 0.83093 0.0
C36 C 0.83909 0.40305 0.77903 0.0
C37 C 0.87434 0.43392 0.76617 0.0
C38 C 0.9056 0.44677 0.80553 0.0
H39 H 0.87293 0.90852 0.43513 0.0
H40 H 0.82741 0.85163 0.29051 0.0
H41 H 0.91048 0.97235 0.28403 0.0
H42 H 0.93964 0.903 0.20983 0.0
C43 C 0.90454 0.88907 0.20087 0.0
O44 O 0.86841 0.91187 0.22779 0.0
H45 H 0.89985 0.89881 0.15789 0.0
C46 C 0.87062 0.91036 0.3922 0.0
C47 C 0.89372 0.945 0.36269 0.0
C48 C 0.84708 0.87639 0.36621 0.0
C49 C 0.84517 0.87809 0.31077 0.0
C50 C 0.86796 0.91256 0.28117 0.0
C51 C 0.89193 0.9463 0.30707 0.0
H52 H 0.86394 0.99707 0.83087 0.0
H53 H 0.87376 0.88583 0.95367 0.0
H54 H 0.98179 0.89355 0.83462 0.0
H55 H 0.94293 0.79508 0.86939 0.0
C56 C 0.94585 0.79995 0.91252 0.0
O57 O 0.95511 0.84613 0.92058 0.0
H58 H 0.90962 0.79306 0.92747 0.0
C59 C 0.88207 0.96579 0.84898 0.0
C60 C 0.92547 0.9483 0.82678 0.0
C61 C 0.86236 0.94359 0.89494 0.0
C62 C 0.88743 0.90295 0.91817 0.0
C63 C 0.93004 0.88413 0.89612 0.0
C64 C 0.94855 0.90721 0.85073 0.0
H65 H 0.75811 0.22731 0.2675 0.0
H66 H 0.60475 0.23375 0.24685 0.0
H67 H 0.66754 0.27845 0.38947 0.0
H68 H 0.5274 0.31154 0.34563 0.0
C69 C 0.56614 0.31376 0.3378 0.0
O70 O 0.58717 0.26926 0.33816 0.0
H71 H 0.56641 0.33116 0.29748 0.0
C72 C 0.7227 0.23744 0.28116 0.0
C73 C 0.71733 0.25554 0.33109 0.0
C74 C 0.68213 0.22832 0.25108 0.0
C75 C 0.63633 0.24075 0.26959 0.0
C76 C 0.63115 0.25987 0.31889 0.0
C77 C 0.6716 0.2663 0.34995 0.0
H78 H 0.32056 0.72229 0.17386 0.0
H79 H 0.29338 0.60713 0.28391 0.0
H80 H 0.41666 0.68553 0.30631 0.0
H81 H 0.40393 0.56812 0.30381 0.0
C82 C 0.38774 0.57206 0.34338 0.0
O83 O 0.36746 0.61685 0.34466 0.0
H84 H 0.35939 0.54682 0.3483 0.0
C85 C 0.3304 0.70031 0.20903 0.0
C86 C 0.37206 0.70816 0.23807 0.0
C87 C 0.30212 0.66327 0.22485 0.0
C88 C 0.31494 0.63559 0.27097 0.0
C89 C 0.35584 0.64381 0.30032 0.0
C90 C 0.38467 0.67969 0.28365 0.0
H91 H 0.23749 0.23257 0.76769 0.0
H92 H 0.36395 0.20804 0.86601 0.0
H93 H 0.31995 0.10185 0.76668 0.0
H94 H 0.42914 0.09476 0.77966 0.0
C95 C 0.42935 0.12207 0.80855 0.0
O96 O 0.38588 0.12473 0.83423 0.0
H97 H 0.45751 0.10744 0.83705 0.0
C98 C 0.26815 0.21016 0.78139 0.0
C99 C 0.27468 0.16538 0.76295 0.0
C100 C 0.3001 0.2256 0.81872 0.0
C101 C 0.33946 0.19644 0.83673 0.0
C102 C 0.34731 0.1523 0.81702 0.0
C103 C 0.3145 0.13648 0.78079 0.0
Nd104 Nd 0.1001 1.03638 0.54963 0.0
Nd105 Nd 1.04377 0.12198 0.55475 0.0
C106 C 0.15239 0.95947 0.53448 0.0
C107 C 0.19085 0.93737 0.56881 0.0
C108 C 0.19644 0.88877 0.57633 0.0
C109 C 0.22994 0.86835 0.61355 0.0
C110 C 0.25768 0.89654 0.64356 0.0
C111 C 0.25232 0.945 0.63571 0.0
C112 C 0.21911 0.96527 0.5987 0.0
C113 C 0.13569 0.09154 0.62504 0.0
C114 C 1.02317 1.03645 0.64266 0.0
C115 C 0.99271 0.19922 0.5729 0.0
C116 C 0.959 0.22765 0.53789 0.0
C117 C 0.96381 0.2267 0.4827 0.0
C118 C 0.92545 0.24155 0.44903 0.0
C119 C 0.8819 0.25727 0.4702 0.0
C120 C 0.87844 0.26235 0.52493 0.0
C121 C 0.91691 0.24743 0.55872 0.0
C122 C 1.00827 0.06532 0.48079 0.0
C123 C 0.11801 0.121 0.45828 0.0
O124 O 0.10983 0.95924 0.55473 0.0
O125 O 0.16115 0.99984 0.51169 0.0
O126 O 0.13391 0.04698 0.63082 0.0
O127 O 0.12071 0.10592 0.57954 0.0
O128 O 1.04346 1.00934 0.6081 0.0
O129 O 1.02618 0.0821 0.63552 0.0
O130 O 1.03775 0.19874 0.56 0.0
O131 O 0.97882 0.15769 0.5857 0.0
O132 O 1.00917 0.11002 0.47351 0.0
O133 O 1.02355 0.05217 0.52637 0.0
O134 O 0.09547 0.14884 0.49059 0.0
O135 O 0.11849 0.07537 0.46862 0.0
H136 H 0.17443 0.86679 0.55417 0.0
H137 H 0.23406 0.8308 0.61921 0.0
H138 H 0.27369 0.96709 0.6585 0.0
H139 H 0.215 1.00286 0.59415 0.0
H140 H 0.99578 0.21103 0.46584 0.0
H141 H 0.92841 0.23706 0.40691 0.0
H142 H 0.84479 0.27407 0.54174 0.0
H143 H 0.91243 0.24787 0.6012 0.0
Nd144 Nd 0.60187 1.02313 0.07163 0.0
Nd145 Nd 0.59483 0.07885 0.9843 0.0
C146 C 0.60545 0.95114 0.14224 0.0
C147 C 0.5701 0.91703 0.15671 0.0
C148 C 0.5814 0.88066 0.19487 0.0
C149 C 0.54808 0.84743 0.20718 0.0
C150 C 0.50313 0.8504 0.18152 0.0
C151 C 0.49176 0.88692 0.14352 0.0
C152 C 0.52513 0.91993 0.13103 0.0
C153 C 0.52144 0.08512 0.08085 0.0
C154 C 0.54297 0.9876 0.97272 0.0
C155 C 0.58966 0.15058 0.91298 0.0
C156 C 0.62516 0.18338 0.89545 0.0
C157 C 0.61142 0.22431 0.865 0.0
C158 C 0.64513 0.2572 0.8527 0.0
C159 C 0.69266 0.24943 0.87118 0.0
C160 C 0.70632 0.20815 0.90098 0.0
C161 C 0.67281 0.17535 0.9129 0.0
C162 C 0.67689 1.01811 0.97716 0.0
C163 C 0.65738 0.11199 0.08288 0.0
O164 O 0.62197 0.94908 0.09442 0.0
O165 O 0.59475 0.99379 0.15429 0.0
O166 O 0.55499 0.07603 0.11622 0.0
O167 O 0.53219 0.06361 1.03945 0.0
O168 O 0.57298 0.97493 1.01168 0.0
O169 O 0.53747 1.03168 0.95694 0.0
O170 O 0.57697 0.1534 0.96206 0.0
O171 O 0.5981 0.1076 0.9009 0.0
O172 O 0.64458 1.02719 0.94048 0.0
O173 O 0.66463 0.03968 1.01778 0.0
O174 O 0.62562 0.12615 0.0458 0.0
O175 O 0.66139 0.06745 0.09656 0.0
H176 H 0.61602 0.87779 0.2148 0.0
H177 H 0.55732 0.81936 0.23656 0.0
H178 H 0.45729 0.88958 0.12329 0.0
H179 H 0.51599 0.94755 0.10105 0.0
H180 H 0.57464 0.23115 0.85161 0.0
H181 H 0.63411 0.28892 0.82955 0.0
H182 H 0.7428 0.20163 0.91554 0.0
H183 H 0.68367 0.14416 0.93688 0.0
Nd184 Nd 0.5678 0.48295 0.59762 0.0
Nd185 Nd 0.63609 0.53992 0.53328 0.0
C186 C 0.50112 0.44176 0.65306 0.0
C187 C 0.49412 0.39433 0.67536 0.0
C188 C 0.4492 0.37588 0.67019 0.0
C189 C 0.44172 0.33094 0.6908 0.0
C190 C 0.47887 0.30397 0.71756 0.0
C191 C 0.52416 0.32199 0.72193 0.0
C192 C 0.5318 0.36688 0.70086 0.0
C193 C 0.66235 0.47013 0.62808 0.0
C194 C 0.57805 0.59189 0.62138 0.0
C195 C 0.70854 0.57702 0.48382 0.0
C196 C 0.72783 0.62308 0.47331 0.0
C197 C 0.73244 0.64005 0.42055 0.0
C198 C 0.75092 0.68332 0.40907 0.0
C199 C 0.76537 0.71011 0.4502 0.0
C200 C 0.76075 0.6935 0.50305 0.0
C201 C 0.74188 0.65025 0.51462 0.0
C202 C 0.54218 0.55482 0.49998 0.0
C203 C 0.6156 0.43525 0.49905 0.0
O204 O 0.53503 0.46408 0.67453 0.0
O205 O 0.4994 0.44768 0.6014 0.0
O206 O 0.63437 0.43592 0.62642 0.0
O207 O 0.64005 0.50816 0.61564 0.0
O208 O 0.54787 0.5586 0.6174 0.0
O209 O 0.62006 0.58948 0.59851 0.0
O210 O 0.6678 0.57049 0.46044 0.0
O211 O 0.71181 0.55838 0.53233 0.0
O212 O 0.57232 0.58736 0.50063 0.0
O213 O 0.56271 0.51609 0.51471 0.0
O214 O 0.64869 0.46571 0.50348 0.0
O215 O 0.57699 0.43723 0.52814 0.0
H216 H 0.41989 0.39626 0.65014 0.0
H217 H 0.40679 0.31725 0.68616 0.0
H218 H 0.55336 0.30144 0.74197 0.0
H219 H 0.56703 0.38011 0.70465 0.0
H220 H 0.72192 0.61968 0.38813 0.0
H221 H 0.75457 0.6957 0.36808 0.0
H222 H 0.77201 0.71387 0.53513 0.0
H223 H 0.73857 0.63807 0.5557 0.0
Nd224 Nd 1.05847 0.5472 0.09897 0.0
Nd225 Nd 0.1285 0.53893 1.01903 0.0
C226 C 0.99125 0.5546 0.17099 0.0
C227 C 0.97166 0.59826 0.19233 0.0
C228 C 0.92223 0.6066 0.19905 0.0
C229 C 0.90344 0.65144 0.20905 0.0
C230 C 0.93379 0.68866 0.21025 0.0
C231 C 0.98322 0.67952 0.20616 0.0
C232 C 1.00189 0.63487 0.19805 0.0
C233 C 0.13782 0.59779 0.11681 0.0
C234 C 1.05347 0.63288 1.01079 0.0
C235 C 0.19762 0.53597 0.94924 0.0
C236 C 0.22382 0.49472 0.92978 0.0
C237 C 0.24239 0.45883 0.96578 0.0
C238 C 0.2594 0.41632 0.94772 0.0
C239 C 0.25777 0.40884 0.8935 0.0
C240 C 0.24126 0.44513 0.8572 0.0
C241 C 0.22442 0.48788 0.87526 0.0
C242 C 1.05029 0.48877 0.99754 0.0
C243 C 0.13085 0.4516 0.10594 0.0
O244 O 0.98168 0.55057 0.12089 0.0
O245 O 1.03596 0.54254 0.18304 0.0
O246 O 0.09422 0.6137 0.12072 0.0
O247 O 0.13887 0.55664 0.10304 0.0
O248 O 1.02744 0.60864 0.04409 0.0
O249 O 0.09729 0.61615 1.00005 0.0
O250 O 0.20493 0.54399 0.99893 0.0
O251 O 0.15245 0.5409 0.93553 0.0
O252 O 0.09417 0.47263 0.99672 0.0
O253 O 1.04817 0.52954 1.01353 0.0
O254 O 0.15753 0.47543 0.07275 0.0
O255 O 0.08744 0.46923 0.11719 0.0
H256 H 0.89812 0.57898 0.19462 0.0
H257 H 0.8652 0.65757 0.21325 0.0
H258 H 1.00748 0.70738 0.2078 0.0
H259 H 1.04001 0.62971 0.19396 0.0
H260 H 0.24186 0.46271 1.00812 0.0
H261 H 0.27187 0.38853 0.97617 0.0
H262 H 0.23969 0.4397 0.81519 0.0
H263 H 0.2098 0.51481 0.84692 0.0
C264 C 0.20012 0.19599 0.36952 0.0
C265 C 0.18986 0.1816 0.31781 0.0
C266 C 0.13066 0.12919 0.35757 0.0
C267 C 0.1432 0.14135 0.40967 0.0
N268 N 0.19676 0.18035 0.46509 0.0
N269 N 0.14982 0.12951 0.26368 0.0
C270 C 0.17971 0.1733 0.41546 0.0
C271 C 0.15651 0.14661 0.31233 0.0
N272 N 0.22898 0.23213 0.37481 0.0
N273 N 0.09226 0.10281 0.35085 0.0
H274 H 0.16668 0.14232 0.22974 0.0
H275 H 0.13052 0.10046 0.25755 0.0
H276 H 0.07216 0.09005 0.38234 0.0
H277 H 0.07765 0.09682 0.31398 0.0
H278 H 0.23334 0.24836 0.41012 0.0
H279 H 0.24614 0.24818 0.34287 0.0
H280 H 0.22679 0.19885 0.4722 0.0
H281 H 0.1836 0.1641 0.49939 0.0
C282 C 0.52552 0.86934 0.9256 0.0
C283 C 0.47687 0.87116 0.91038 0.0
C284 C 0.46793 0.94874 0.94656 0.0
C285 C 0.51861 0.95057 0.94656 0.0
N286 N 0.59514 0.91341 0.92588 0.0
N287 N 0.40007 0.90007 0.93933 0.0
C288 C 0.54719 0.91115 0.93285 0.0
C289 C 0.44698 0.90765 0.93008 0.0
N290 N 0.54859 0.82832 0.94301 0.0
N291 N 0.44011 0.9858 0.96209 0.0
H292 H 0.38633 0.86772 0.93396 0.0
H293 H 0.37648 0.92321 0.95734 0.0
H294 H 0.45433 1.01514 0.97686 0.0
H295 H 0.40303 0.98865 0.95784 0.0
H296 H 0.58353 0.82648 0.95825 0.0
H297 H 0.53001 0.79816 0.94952 0.0
H298 H 0.61633 0.88515 0.91366 0.0
H299 H 0.61185 0.94476 0.92613 0.0
C300 C 0.76949 0.50992 0.69867 0.0
C301 C 0.80792 0.48372 0.67595 0.0
C302 C 0.74929 0.44375 0.62378 0.0
C303 C 0.71177 0.46753 0.64996 0.0
N304 N 0.68613 0.5121 0.72293 0.0
N305 N 0.83396 0.42274 0.61881 0.0
C306 C 0.72202 0.49687 0.69094 0.0
C307 C 0.79762 0.44958 0.63923 0.0
N308 N 0.77715 0.54935 0.72432 0.0
N309 N 0.73889 0.41741 0.58238 0.0
H310 H 0.87004 0.42857 0.62389 0.0
H311 H 0.82848 0.39311 0.59845 0.0
H312 H 0.70409 0.41018 0.57202 0.0
H313 H 0.76442 0.40452 0.55661 0.0
H314 H 0.74935 0.57129 0.73714 0.0
H315 H 0.80984 0.5645 0.72632 0.0
H316 H 0.6923 0.52978 0.75692 0.0
H317 H 0.651 0.50234 0.71889 0.0
C318 C 0.93282 0.81201 0.25169 0.0
C319 C 0.90429 0.8362 0.21057 0.0
C320 C 0.88669 0.76187 0.17444 0.0
C321 C 0.91553 0.73784 0.21508 0.0
N322 N 0.95164 0.73863 0.30178 0.0
N323 N 0.83927 0.8323 0.14745 0.0
C324 C 0.93368 0.76262 0.25694 0.0
C325 C 0.87613 0.81048 0.17693 0.0
N326 N 0.96029 0.83562 0.28477 0.0
N327 N 0.8719 0.73938 0.13161 0.0
H328 H 0.82931 0.86753 0.14957 0.0
H329 H 0.81521 0.81433 0.12579 0.0
H330 H 0.88013 0.70426 0.12671 0.0
H331 H 0.85521 0.75671 0.0984 0.0
H332 H 0.98625 0.8193 0.31049 0.0
H333 H 0.95938 0.87167 0.28497 0.0
H334 H 0.96245 0.75456 0.33545 0.0
H335 H 0.95123 0.70248 0.3071 0.0
C336 C 0.40684 0.10523 0.16325 0.0
C337 C 0.38133 0.14311 0.13469 0.0
C338 C 0.44878 0.14482 0.07081 0.0
C339 C 0.47122 0.1035 0.09618 0.0
N340 N 0.46531 0.03981 0.16148 0.0
N341 N 0.38061 0.20176 0.06273 0.0
C342 C 0.44853 0.08273 0.14118 0.0
C343 C 0.40328 0.16374 0.08893 0.0
N344 N 0.39198 0.09135 0.21265 0.0
N345 N 0.47193 0.16698 1.03032 0.0
H346 H 0.35169 0.22035 0.07855 0.0
H347 H 0.38996 0.21492 1.02532 0.0
H348 H 0.50374 0.1532 1.01534 0.0
H349 H 0.46125 0.19961 1.01305 0.0
H350 H 0.41145 0.06717 0.23789 0.0
H351 H 0.36307 0.10795 0.23087 0.0
H352 H 0.44762 1.0204 0.19038 0.0
H353 H 0.49401 1.02122 0.14532 0.0
C354 C 0.37808 0.86513 0.70891 0.0
C355 C 0.36431 0.8459 0.75902 0.0
C356 C 0.27985 0.86059 0.73404 0.0
C357 C 0.29384 0.87597 0.68245 0.0
N358 N 0.35529 0.88536 0.6174 0.0
N359 N 0.30319 0.81977 0.81801 0.0
C360 C 0.34273 0.87598 0.66888 0.0
C361 C 0.31543 0.84206 0.77133 0.0
N362 N 0.42481 0.87435 0.70018 0.0
N363 N 0.23282 0.86507 0.74777 0.0
H364 H 0.32846 0.80685 0.84668 0.0
H365 H 0.26843 0.81131 0.82687 0.0
H366 H 0.2057 0.87767 0.72113 0.0
H367 H 0.221 0.85934 0.78635 0.0
H368 H 0.4361 0.89291 0.66649 0.0
H369 H 0.45192 0.86729 0.7287 0.0
H370 H 0.39018 0.88097 0.60405 0.0
H371 H 0.33024 0.8935 0.58687 0.0
C372 C 0.92742 0.46106 0.94423 0.0
C373 C 0.9401 0.43847 0.89755 0.0
C374 C 1.024 0.45261 0.91379 0.0
C375 C 1.01236 0.47066 0.96356 0.0
N376 N 0.95364 0.48015 1.03158 0.0
N377 N 1.00223 0.39946 0.84852 0.0
C378 C 0.96417 0.47137 0.98047 0.0
C379 C 0.98901 0.42974 0.88598 0.0
N380 N 0.88078 0.47437 0.95316 0.0
N381 N 0.06685 0.46018 0.8905 0.0
H382 H 0.97757 0.3808 0.82846 0.0
H383 H 1.03786 0.3891 0.84203 0.0
H384 H 0.09162 0.48178 0.90531 0.0
H385 H 0.07476 0.45046 0.85237 0.0
H386 H 0.87045 0.49497 0.98402 0.0
H387 H 0.85292 0.46849 0.9271 0.0
H388 H 0.9196 0.47733 0.04719 0.0
H389 H 0.98014 0.48482 0.05975 0.0
C390 C 0.85764 0.79687 0.41128 0.0
C391 C 0.82712 0.83659 0.3964 0.0
C392 C 0.75764 0.79616 0.42891 0.0
C393 C 0.7873 0.75475 0.43707 0.0
N394 N 0.86471 0.71391 0.43401 0.0
N395 N 0.74853 0.87524 0.38976 0.0
C396 C 0.83722 0.75473 0.42833 0.0
C397 C 0.77721 0.83674 0.40534 0.0
N398 N 0.90617 0.79954 0.40933 0.0
N399 N 0.71091 0.79654 0.44401 0.0
H400 H 0.76207 0.90627 0.37484 0.0
H401 H 0.71134 0.87603 0.38921 0.0
H402 H 0.69544 0.7671 0.4606 0.0
H403 H 0.68836 0.8265 0.4439 0.0
H404 H 0.93037 0.77372 0.42572 0.0
H405 H 0.92254 0.82917 0.39493 0.0
H406 H 0.89991 0.71026 0.42145 0.0
H407 H 0.85146 0.68262 0.44848 0.0
C408 C 0.17699 0.32132 0.12287 0.0
C409 C 0.19202 0.3166 0.17706 0.0
C410 C 0.1613 0.39855 0.18614 0.0
C411 C 0.15058 0.40452 0.13074 0.0
N412 N 0.1574 0.37225 0.04491 0.0
N413 N 0.20651 0.35483 0.25748 0.0
C414 C 0.16137 0.36614 0.09877 0.0
C415 C 0.18603 0.35634 0.20799 0.0
N416 N 0.17533 0.28245 0.09462 0.0
N417 N 0.14849 0.43354 0.21821 0.0
H418 H 0.22624 0.32568 0.27409 0.0
H419 H 0.20813 0.38378 0.28001 0.0
H420 H 0.13341 0.4658 0.2038 0.0
H421 H 0.14981 0.42951 0.25943 0.0
H422 H 0.15984 0.28264 0.05691 0.0
H423 H 0.18494 0.24908 0.11085 0.0
H424 H 0.17054 0.34765 1.0194 0.0
H425 H 0.14461 0.40328 1.02542 0.0
C426 C 0.75987 0.36053 0.87452 0.0
C427 C 0.79982 0.34886 0.84294 0.0
C428 C 0.76601 0.27487 0.82455 0.0
C429 C 0.72852 0.28455 0.86013 0.0
N430 N 0.69419 0.33256 0.92655 0.0
N431 N 0.84586 0.29142 0.79628 0.0
C432 C 0.72663 0.3263 0.88729 0.0
C433 C 0.80431 0.30497 0.82031 0.0
N434 N 0.75275 0.40474 0.89075 0.0
N435 N 0.76432 0.23762 0.79368 0.0
H436 H 0.87512 0.31218 0.79326 0.0
H437 H 0.85306 0.25797 0.78386 0.0
H438 H 0.73658 0.21495 0.79541 0.0
H439 H 0.78797 0.23165 0.76303 0.0
H440 H 0.72157 0.41662 0.90889 0.0
H441 H 0.77622 0.43085 0.88209 0.0
H442 H 0.69463 0.35991 0.95164 0.0
H443 H 0.66927 0.30827 0.93718 0.0
C444 C 0.97206 0.96359 0.40303 0.0
C445 C 0.92355 0.97713 0.39044 0.0
C446 C 0.92959 0.04707 0.43999 0.0
C447 C 0.97927 1.03586 0.44834 0.0
N448 N 1.04936 0.98626 0.43264 0.0
N449 N 0.85764 1.03467 0.38964 0.0
C450 C 1.00094 0.99486 0.42842 0.0
C451 C 0.90283 1.01988 0.40654 0.0
N452 N 0.99018 0.92019 0.39218 0.0
N453 N 0.90708 0.0815 0.46692 0.0
H454 H 0.83651 1.01505 0.36625 0.0
H455 H 0.84266 0.06791 0.39521 0.0
H456 H 0.92471 0.10162 0.49304 0.0
H457 H 0.87004 0.08655 0.46788 0.0
H458 H 0.97058 0.8967 0.37247 0.0
H459 H 1.02331 0.90601 0.40616 0.0
H460 H 0.06806 0.96015 0.41336 0.0
H461 H 0.07155 1.00747 0.45233 0.0
C462 C 0.56453 0.71643 0.66452 0.0
C463 C 0.5353 0.71069 0.71 0.0
C464 C 0.53915 0.62687 0.69987 0.0
C465 C 0.5639 0.63295 0.65163 0.0
N466 N 0.58694 0.68664 0.58047 0.0
N467 N 0.47672 0.66131 0.75114 0.0
C468 C 0.57294 0.67862 0.63164 0.0
C469 C 0.51713 0.66626 0.72229 0.0
N470 N 0.58446 0.75786 0.65233 0.0
N471 N 0.53745 0.58393 0.72541 0.0
H472 H 0.45332 0.68927 0.75896 0.0
H473 H 0.46195 0.62918 0.75832 0.0
H474 H 0.55614 0.55441 0.71273 0.0
H475 H 0.52232 0.57916 0.7627 0.0
H476 H 0.61063 0.76157 0.62367 0.0
H477 H 0.57747 0.78779 0.67273 0.0
H478 H 0.5894 0.71996 0.56275 0.0
H479 H 0.59053 0.66066 0.55369 0.0
C480 C 0.93117 0.96931 0.72674 0.0
C481 C 0.94839 0.97347 0.77947 0.0
C482 C 1.01596 1.01651 0.74246 0.0
C483 C 0.99699 1.01527 0.69001 0.0
N484 N 0.93214 0.99608 0.63341 0.0
N485 N 1.00283 1.00848 0.83751 0.0
C486 C 0.95334 0.99315 0.6826 0.0
C487 C 0.9895 0.99934 0.78717 0.0
N488 N 0.89448 0.94119 0.71855 0.0
N489 N 0.06066 1.03191 0.74955 0.0
H490 H 0.98466 0.99653 0.87095 0.0
H491 H 1.02904 1.03128 0.84593 0.0
H492 H 0.08144 0.04328 0.71803 0.0
H493 H 0.07897 1.02929 0.78582 0.0
H494 H 0.88362 0.93207 0.68122 0.0
H495 H 0.87698 0.92409 0.74953 0.0
H496 H 0.89795 0.98538 0.62599 0.0
H497 H 0.94722 1.01277 0.60046 0.0
C498 C 0.67248 0.2226 0.15242 0.0
C499 C 0.68715 0.20156 0.20282 0.0
C500 C 0.70731 0.12857 0.16175 0.0
C501 C 0.68111 0.14571 0.11594 0.0
N502 N 0.66183 0.21332 0.05782 0.0
N503 N 0.71595 0.13259 0.25613 0.0
C504 C 0.67047 0.19432 0.10805 0.0
C505 C 0.70485 0.15426 0.20759 0.0
N506 N 0.65968 0.26915 0.14763 0.0
N507 N 0.73609 0.08882 0.16063 0.0
H508 H 0.71261 0.14899 0.2916 0.0
H509 H 0.72411 0.09688 0.26153 0.0
H510 H 0.74222 0.07224 0.12553 0.0
H511 H 0.75881 0.07657 0.19201 0.0
H512 H 0.64417 0.28621 0.11373 0.0
H513 H 0.66388 0.29101 0.1786 0.0
H514 H 0.65507 0.24864 0.04812 0.0
H515 H 0.66693 0.1938 1.02473 0.0
C516 C 0.41748 0.57819 0.43889 0.0
C517 C 0.4253 0.56221 0.38734 0.0
C518 C 0.5084 0.53885 0.41147 0.0
C519 C 0.50185 0.55803 0.46145 0.0
N520 N 0.45225 0.59961 0.52199 0.0
N521 N 0.47069 0.50761 0.33603 0.0
C522 C 0.45685 0.57852 0.47514 0.0
C523 C 0.46856 0.53664 0.37689 0.0
N524 N 0.37195 0.58983 0.45426 0.0
N525 N 0.55322 0.52507 0.39561 0.0
H526 H 0.44087 0.50127 0.313 0.0
H527 H 0.50006 0.48488 0.32973 0.0
H528 H 0.58385 0.52769 0.41883 0.0
H529 H 0.56066 0.51577 0.35725 0.0
H530 H 0.36306 0.59808 0.49255 0.0
H531 H 0.34201 0.58604 0.43027 0.0
H532 H 0.42204 0.61974 0.53198 0.0
H533 H 0.48024 0.59988 0.54956 0.0
C534 C 0.32117 0.30863 0.82612 0.0
C535 C 0.29108 0.27206 0.8401 0.0
C536 C 0.23757 0.32604 0.88567 0.0
C537 C 0.26965 0.36172 0.87533 0.0
N538 N 0.34624 0.38523 0.84464 0.0
N539 N 0.22686 0.24324 0.89307 0.0
C540 C 0.31283 0.35249 0.84823 0.0
C541 C 0.25107 0.27996 0.87286 0.0
N542 N 0.35642 0.30213 0.79003 0.0
N543 N 0.19347 0.33648 0.90597 0.0
H544 H 0.23639 0.20881 0.88543 0.0
H545 H 0.20048 0.24643 0.92151 0.0
H546 H 0.18188 0.36998 0.91537 0.0
H547 H 0.16676 0.31282 0.90906 0.0
H548 H 0.37631 0.32899 0.77461 0.0
H549 H 0.36316 0.2708 0.77215 0.0
H550 H 0.38062 0.37865 0.83058 0.0
H551 H 0.34106 0.41788 0.86003 0.0
C552 C 0.77515 0.93505 0.92374 0.0
C553 C 0.81569 0.96274 0.91924 0.0
C554 C 0.76673 1.02695 0.95807 0.0
C555 C 0.72712 0.99825 0.96453 0.0
N556 N 0.70102 0.92036 0.96909 0.0
N557 N 0.8523 1.03205 0.94413 0.0
C558 C 0.73364 0.95096 0.95185 0.0
C559 C 0.812 1.00792 0.93979 0.0
N560 N 0.77511 0.89418 0.89908 0.0
N561 N 0.76106 0.07283 0.96839 0.0
H562 H 0.88587 1.01912 0.93263 0.0
H563 H 0.8534 0.06279 0.96363 0.0
H564 H 0.73026 0.08706 0.98526 0.0
H565 H 0.78585 0.09718 0.95785 0.0
H566 H 0.7449 0.87492 0.89636 0.0
H567 H 0.80365 0.88192 0.87669 0.0
H568 H 0.70562 0.88456 0.96562 0.0
H569 H 0.67228 0.93037 0.99257 0.0
C570 C 0.78717 0.29645 0.36515 0.0
C571 C 0.75908 0.25699 0.36718 0.0
C572 C 0.81089 0.21862 0.43725 0.0
C573 C 0.83812 0.25872 0.43664 0.0
N574 N 0.84984 0.33781 0.40623 0.0
N575 N 0.73904 0.1834 0.40915 0.0
C576 C 0.82558 0.29831 0.4023 0.0
C577 C 0.76937 0.21897 0.40456 0.0
N578 N 0.77736 0.33167 0.32723 0.0
N579 N 0.82587 0.17946 0.4676 0.0
H580 H 0.70977 0.1807 0.38385 0.0
H581 H 0.74069 0.15793 0.44016 0.0
H582 H 0.85585 0.17753 0.49269 0.0
H583 H 0.8105 0.14763 0.46567 0.0
H584 H 0.79905 0.35935 0.3199 0.0
H585 H 0.74846 0.33198 0.30071 0.0
H586 H 0.84004 0.36945 0.38598 0.0
H587 H 0.87832 0.33985 0.43287 0.0
C588 C 0.26221 0.63915 0.14099 0.0
C589 C 0.25873 0.6526 0.19407 0.0
C590 C 0.17676 0.62759 0.19737 0.0
C591 C 0.1787 0.6183 0.14293 0.0
N592 N 0.21878 0.62836 0.05967 0.0
N593 N 0.20773 0.67235 0.26664 0.0
C594 C 0.22008 0.62811 0.11365 0.0
C595 C 0.21428 0.65106 0.22021 0.0
N596 N 0.30569 0.63441 0.11742 0.0
N597 N 0.14091 0.6115 0.22828 0.0
H598 H 0.23406 0.6912 0.28363 0.0
H599 H 0.17462 0.67552 0.28485 0.0
H600 H 0.1149 0.59073 0.21422 0.0
H601 H 0.14042 0.61404 0.26923 0.0
H602 H 0.31018 0.62026 0.0807 0.0
H603 H 0.33781 0.64024 0.13649 0.0
H604 H 0.24681 0.63919 1.03612 0.0
H605 H 0.18764 0.62277 1.03851 0.0
C606 C 0.45967 0.20328 0.81871 0.0
C607 C 0.44328 0.16944 0.78484 0.0
C608 C 0.45838 0.22157 0.70732 0.0
C609 C 0.46975 0.25689 0.74109 0.0
N610 N 0.47268 0.28461 0.82918 0.0
N611 N 0.4144 0.15323 0.69714 0.0
C612 C 0.46846 0.24858 0.79692 0.0
C613 C 0.43899 0.18043 0.7292 0.0
N614 N 0.46631 0.19263 0.87185 0.0
N615 N 0.46685 0.22696 0.65424 0.0
H616 H 0.3961 0.12465 0.71087 0.0
H617 H 0.40691 0.16248 0.6573 0.0
H618 H 0.48158 0.25648 0.63683 0.0
H619 H 0.46396 0.20024 0.62858 0.0
H620 H 0.4845 0.21348 0.89666 0.0
H621 H 0.45591 0.16204 0.89119 0.0
H622 H 0.46616 0.28199 0.86968 0.0
H623 H 0.47838 0.31847 0.8149 0.0
C624 C 1.01504 0.73634 0.91007 0.0
C625 C 0.98266 0.76343 0.94046 0.0
C626 C 1.00874 0.7124 1.01938 0.0
C627 C 1.03276 0.67987 0.98673 0.0
N628 N 1.05302 0.66009 0.89787 0.0
N629 N 0.95056 0.77776 1.02625 0.0
C630 C 1.03483 0.69192 0.93129 0.0
C631 C 0.98039 0.7517 0.99587 0.0
N632 N 1.02808 0.75353 0.86123 0.0
N633 N 1.01465 0.707 0.07315 0.0
H634 H 0.93208 0.80841 1.01176 0.0
H635 H 0.94264 0.76813 0.06532 0.0
H636 H 1.03657 0.68038 0.09168 0.0
H637 H 1.00233 0.73158 0.09907 0.0
H638 H 1.05449 0.73721 0.83902 0.0
H639 H 1.01718 0.78699 0.8462 0.0
H640 H 1.05067 0.66522 0.85674 0.0
H641 H 0.06604 0.62671 0.91073 0.0
C642 C 0.43831 0.73781 0.18167 0.0
C643 C 0.40333 0.74591 0.22072 0.0
C644 C 0.43434 0.82217 0.23485 0.0
C645 C 0.46795 0.8149 0.19419 0.0
N646 N 0.49749 0.76996 0.12285 0.0
N647 N 0.36234 0.79789 0.27847 0.0
C648 C 0.46854 0.77393 0.16571 0.0
C649 C 0.39966 0.7888 0.24555 0.0
N650 N 0.44372 0.69497 0.16127 0.0
N651 N 0.43642 0.86045 0.26408 0.0
H652 H 0.3366 0.77401 0.28752 0.0
H653 H 0.35457 0.83021 0.29357 0.0
H654 H 0.46036 0.88633 0.25631 0.0
H655 H 0.41672 0.86524 0.29815 0.0
H656 H 0.47202 0.68497 0.13737 0.0
H657 H 0.42162 0.66797 0.17114 0.0
H658 H 0.49578 0.74349 0.09676 0.0
H659 H 0.52104 0.79515 0.11088 0.0
C660 C 0.19193 0.14055 0.74437 0.0
C661 C 0.23862 0.14856 0.7261 0.0
C662 C 0.21736 0.12112 0.6394 0.0
C663 C 0.16981 0.11615 0.65681 0.0
N664 N 0.10892 0.13327 0.72023 0.0
N665 N 0.29236 0.15708 0.65286 0.0
C666 C 0.15619 0.1296 0.70763 0.0
C667 C 0.25039 0.14198 0.67253 0.0
N668 N 0.18213 0.14158 0.79714 0.0
N669 N 0.2315 0.10464 0.59214 0.0
H670 H 0.31672 0.17361 0.67575 0.0
H671 H 0.30082 0.15735 0.61285 0.0
H672 H 0.20829 0.09 0.56611 0.0
H673 H 0.26705 0.10245 0.58045 0.0
H674 H 0.15006 0.13132 0.81322 0.0
H675 H 0.20767 0.14834 0.82563 0.0
H676 H 0.09649 0.14692 0.75507 0.0
H677 H 0.08186 0.12733 0.69319 0.0
C678 C 0.58094 0.32874 0.43502 0.0
C679 C 0.58882 0.34091 0.38059 0.0
C680 C 0.62906 0.41005 0.40507 0.0
C681 C 0.61869 0.39916 0.45927 0.0
N682 N 0.60397 0.33914 0.52616 0.0
N683 N 0.63976 0.38061 0.31818 0.0
C684 C 0.60095 0.35537 0.47425 0.0
C685 C 0.61909 0.37753 0.36686 0.0
N686 N 0.55354 0.29249 0.44949 0.0
N687 N 0.64604 0.45196 0.38891 0.0
H688 H 0.63593 0.35622 0.28988 0.0
H689 H 0.66581 0.40393 0.30846 0.0
H690 H 0.65684 0.4764 0.41438 0.0
H691 H 0.64703 0.46366 0.34915 0.0
H692 H 0.54183 0.28608 0.48804 0.0
H693 H 0.5401 0.27019 0.42275 0.0
H694 H 0.59544 0.30572 0.53919 0.0
H695 H 0.62026 0.35746 0.55519 0.0
loop_
_geom_bond_atom_site_label_1
_geom_bond_atom_site_label_2
_geom_bond_distance
_geom_bond_site_symmetry_2
_ccdc_geom_bond_type
H0 C7 0.929 . S
H1 C10 0.930 . S
H2 C12 0.929 . S
H3 C4 0.969 . S
C4 H3 0.969 . S
C4 O5 1.550 . S
C4 H6 0.973 . S
O5 C4 1.550 . S
O5 C11 1.412 . S
H6 C4 0.973 . S
C7 H0 0.929 . S
C7 C8 1.400 . S
C7 C9 1.364 . S
C8 C7 1.400 . S
C8 C12 1.377 . S
C9 C7 1.364 . S
C9 C10 1.374 . S
C10 H1 0.930 . S
C10 C9 1.374 . S
C10 C11 1.383 . S
C11 O5 1.412 . S
C11 C10 1.383 . S
C11 C12 1.394 . S
C12 H2 0.929 . S
C12 C8 1.377 . S
C12 C11 1.394 . S
H13 C20 0.929 . S
H14 C23 0.930 . S
H15 C25 0.929 . S
H16 C17 0.969 . S
C17 H16 0.969 . S
C17 O18 1.550 . S
C17 H19 0.973 . S
O18 C17 1.550 . S
O18 C24 1.412 . S
H19 C17 0.973 . S
C20 H13 0.929 . S
C20 C21 1.400 . S
C20 C22 1.364 . S
C21 C20 1.400 . S
C21 C25 1.377 . S
C22 C20 1.364 . S
C22 C23 1.374 . S
C23 H14 0.930 . S
C23 C22 1.374 . S
C23 C24 1.383 . S
C24 O18 1.412 . S
C24 C23 1.383 . S
C24 C25 1.394 . S
C25 H15 0.929 . S
C25 C21 1.377 . S
C25 C24 1.394 . S
H26 C33 0.929 . S
H27 C36 0.930 . S
H28 C38 0.929 . S
H29 C30 0.969 . S
C30 H29 0.969 . S
C30 O31 1.550 . S
C30 H32 0.973 . S
O31 C30 1.550 . S
O31 C37 1.412 . S
H32 C30 0.973 . S
C33 H26 0.929 . S
C33 C34 1.400 . S
C33 C35 1.364 . S
C34 C33 1.400 . S
C34 C38 1.377 . S
C35 C33 1.364 . S
C35 C36 1.374 . S
C36 H27 0.930 . S
C36 C35 1.374 . S
C36 C37 1.383 . S
C37 O31 1.412 . S
C37 C36 1.383 . S
C37 C38 1.394 . S
C38 H28 0.929 . S
C38 C34 1.377 . S
C38 C37 1.394 . S
H39 C46 0.929 . S
H40 C49 0.930 . S
H41 C51 0.929 . S
H42 C43 0.969 . S
C43 H42 0.969 . S
C43 O44 1.550 . S
C43 H45 0.973 . S
O44 C43 1.550 . S
O44 C50 1.412 . S
H45 C43 0.973 . S
C46 H39 0.929 . S
C46 C47 1.400 . S
C46 C48 1.364 . S
C47 C46 1.400 . S
C47 C51 1.377 . S
C48 C46 1.364 . S
C48 C49 1.374 . S
C49 H40 0.930 . S
C49 C48 1.374 . S
C49 C50 1.383 . S
C50 O44 1.412 . S
C50 C49 1.383 . S
C50 C51 1.394 . S
C51 H41 0.929 . S
C51 C47 1.377 . S
C51 C50 1.394 . S
H52 C59 0.929 . S
H53 C62 0.930 . S
H54 C64 0.929 . S
H55 C56 0.969 . S
C56 H55 0.969 . S
C56 O57 1.550 . S
C56 H58 0.973 . S
O57 C56 1.550 . S
O57 C63 1.412 . S
H58 C56 0.973 . S
C59 H52 0.929 . S
C59 C60 1.400 . S
C59 C61 1.364 . S
C60 C59 1.400 . S
C60 C64 1.377 . S
C61 C59 1.364 . S
C61 C62 1.374 . S
C62 H53 0.930 . S
C62 C61 1.374 . S
C62 C63 1.383 . S
C63 O57 1.412 . S
C63 C62 1.383 . S
C63 C64 1.394 . S
C64 H54 0.929 . S
C64 C60 1.377 . S
C64 C63 1.394 . S
H65 C72 0.929 . S
H66 C75 0.930 . S
H67 C77 0.929 . S
H68 C69 0.969 . S
C69 H68 0.969 . S
C69 O70 1.550 . S
C69 H71 0.973 . S
O70 C69 1.550 . S
O70 C76 1.412 . S
H71 C69 0.973 . S
C72 H65 0.929 . S
C72 C73 1.400 . S
C72 C74 1.364 . S
C73 C72 1.400 . S
C73 C77 1.377 . S
C74 C72 1.364 . S
C74 C75 1.374 . S
C75 H66 0.930 . S
C75 C74 1.374 . S
C75 C76 1.383 . S
C76 O70 1.412 . S
C76 C75 1.383 . S
C76 C77 1.394 . S
C77 H67 0.929 . S
C77 C73 1.377 . S
C77 C76 1.394 . S
H78 C85 0.929 . S
H79 C88 0.930 . S
H80 C90 0.929 . S
H81 C82 0.969 . S
C82 H81 0.969 . S
C82 O83 1.550 . S
C82 H84 0.973 . S
O83 C82 1.550 . S
O83 C89 1.412 . S
H84 C82 0.973 . S
C85 H78 0.929 . S
C85 C86 1.400 . S
C85 C87 1.364 . S
C86 C85 1.400 . S
C86 C90 1.377 . S
C87 C85 1.364 . S
C87 C88 1.374 . S
C88 H79 0.930 . S
C88 C87 1.374 . S
C88 C89 1.383 . S
C89 O83 1.412 . S
C89 C88 1.383 . S
C89 C90 1.394 . S
C90 H80 0.929 . S
C90 C86 1.377 . S
C90 C89 1.394 . S
H91 C98 0.929 . S
H92 C101 0.930 . S
H93 C103 0.929 . S
H94 C95 0.969 . S
C95 H94 0.969 . S
C95 O96 1.550 . S
C95 H97 0.973 . S
O96 C95 1.550 . S
O96 C102 1.412 . S
H97 C95 0.973 . S
C98 H91 0.929 . S
C98 C99 1.400 . S
C98 C100 1.364 . S
C99 C98 1.400 . S
C99 C103 1.377 . S
C100 C98 1.364 . S
C100 C101 1.374 . S
C101 H92 0.930 . S
C101 C100 1.374 . S
C101 C102 1.383 . S
C102 O96 1.412 . S
C102 C101 1.383 . S
C102 C103 1.394 . S
C103 H93 0.929 . S
C103 C99 1.377 . S
C103 C102 1.394 . S
Nd104 C106 2.836 . S
Nd104 O124 2.500 . S
Nd104 O125 2.492 . S
Nd104 O126 2.487 1_565 S
Nd104 O127 2.682 1_565 S
Nd104 O128 2.410 . S
Nd104 O133 2.414 1_455 S
Nd104 O135 2.424 1_565 S
Nd105 C115 2.836 . S
Nd105 O127 2.414 1_655 S
Nd105 O129 2.424 1_545 S
Nd105 O130 2.500 . S
Nd105 O131 2.492 . S
Nd105 O132 2.487 1_545 S
Nd105 O133 2.682 1_545 S
Nd105 O134 2.410 . S
C106 Nd104 2.836 . S
C106 C107 1.498 . S
C106 O124 1.258 . S
C106 O125 1.239 . S
C107 C106 1.498 . S
C107 C108 1.366 . S
C107 C112 1.407 . S
C108 C107 1.366 . S
C108 C109 1.392 . S
C108 H136 0.930 . S
C109 C108 1.392 . S
C109 C110 1.398 . S
C109 H137 0.929 . S
C110 C109 1.398 . S
C110 C111 1.352 . S
C111 C110 1.352 . S
C111 C112 1.384 . S
C111 H138 0.930 . S
C112 C107 1.407 . S
C112 C111 1.384 . S
C112 H139 0.929 . S
C113 O126 1.241 . S
C113 O127 1.273 . S
C114 O128 1.251 1_655 S
C114 O129 1.268 . S
C115 Nd105 2.836 . S
C115 C116 1.498 . S
C115 O130 1.258 . S
C115 O131 1.239 . S
C116 C115 1.498 . S
C116 C117 1.366 . S
C116 C121 1.407 . S
C117 C116 1.366 . S
C117 C118 1.392 . S
C117 H140 0.930 . S
C118 C117 1.392 . S
C118 C119 1.398 . S
C118 H141 0.929 . S
C119 C118 1.398 . S
C119 C120 1.352 . S
C120 C119 1.352 . S
C120 C121 1.384 . S
C120 H142 0.930 . S
C121 C116 1.407 . S
C121 C120 1.384 . S
C121 H143 0.929 . S
C122 O132 1.241 . S
C122 O133 1.273 . S
C123 O134 1.251 1_455 S
C123 O135 1.268 . S
O124 Nd104 2.500 . S
O124 C106 1.258 . S
O125 Nd104 2.492 . S
O125 C106 1.239 . S
O126 Nd104 2.487 1_545 S
O126 C113 1.241 . S
O127 Nd104 2.682 1_545 S
O127 Nd105 2.414 1_455 S
O127 C113 1.273 . S
O128 Nd104 2.410 . S
O128 C114 1.251 1_455 S
O129 Nd105 2.424 1_565 S
O129 C114 1.268 . S
O130 Nd105 2.500 . S
O130 C115 1.258 . S
O131 Nd105 2.492 . S
O131 C115 1.239 . S
O132 Nd105 2.487 1_565 S
O132 C122 1.241 . S
O133 Nd104 2.414 1_655 S
O133 Nd105 2.682 1_565 S
O133 C122 1.273 . S
O134 Nd105 2.410 . S
O134 C123 1.251 1_655 S
O135 Nd104 2.424 1_545 S
O135 C123 1.268 . S
H136 C108 0.930 . S
H137 C109 0.929 . S
H138 C111 0.930 . S
H139 C112 0.929 . S
H140 C117 0.930 . S
H141 C118 0.929 . S
H142 C120 0.930 . S
H143 C121 0.929 . S
Nd144 C146 2.836 . S
Nd144 O164 2.500 . S
Nd144 O165 2.492 . S
Nd144 O166 2.487 1_565 S
Nd144 O167 2.682 1_565 S
Nd144 O168 2.410 1_554 S
Nd144 O173 2.414 1_554 S
Nd144 O175 2.424 1_565 S
Nd145 C155 2.836 . S
Nd145 O167 2.414 1_556 S
Nd145 O169 2.424 1_545 S
Nd145 O170 2.500 . S
Nd145 O171 2.492 . S
Nd145 O172 2.487 . S
Nd145 O173 2.682 1_545 S
Nd145 O174 2.410 1_556 S
C146 Nd144 2.836 . S
C146 C147 1.498 . S
C146 O164 1.258 . S
C146 O165 1.239 . S
C147 C146 1.498 . S
C147 C148 1.366 . S
C147 C152 1.407 . S
C148 C147 1.366 . S
C148 C149 1.392 . S
C148 H176 0.930 . S
C149 C148 1.392 . S
C149 C150 1.398 . S
C149 H177 0.929 . S
C150 C149 1.398 . S
C150 C151 1.352 . S
C151 C150 1.352 . S
C151 C152 1.384 . S
C151 H178 0.930 . S
C152 C147 1.407 . S
C152 C151 1.384 . S
C152 H179 0.929 . S
C153 O166 1.241 . S
C153 O167 1.273 . S
C154 O168 1.251 . S
C154 O169 1.268 . S
C155 Nd145 2.836 . S
C155 C156 1.498 . S
C155 O170 1.258 . S
C155 O171 1.239 . S
C156 C155 1.498 . S
C156 C157 1.366 . S
C156 C161 1.407 . S
C157 C156 1.366 . S
C157 C158 1.392 . S
C157 H180 0.930 . S
C158 C157 1.392 . S
C158 C159 1.398 . S
C158 H181 0.929 . S
C159 C158 1.398 . S
C159 C160 1.352 . S
C160 C159 1.352 . S
C160 C161 1.384 . S
C160 H182 0.930 . S
C161 C156 1.407 . S
C161 C160 1.384 . S
C161 H183 0.929 . S
C162 O172 1.241 1_565 S
C162 O173 1.273 . S
C163 O174 1.251 . S
C163 O175 1.268 . S
O164 Nd144 2.500 . S
O164 C146 1.258 . S
O165 Nd144 2.492 . S
O165 C146 1.239 . S
O166 Nd144 2.487 1_545 S
O166 C153 1.241 . S
O167 Nd144 2.682 1_545 S
O167 Nd145 2.414 1_554 S
O167 C153 1.273 . S
O168 Nd144 2.410 1_556 S
O168 C154 1.251 . S
O169 Nd145 2.424 1_565 S
O169 C154 1.268 . S
O170 Nd145 2.500 . S
O170 C155 1.258 . S
O171 Nd145 2.492 . S
O171 C155 1.239 . S
O172 Nd145 2.487 . S
O172 C162 1.241 1_545 S
O173 Nd144 2.414 1_556 S
O173 Nd145 2.682 1_565 S
O173 C162 1.273 . S
O174 Nd145 2.410 1_554 S
O174 C163 1.251 . S
O175 Nd144 2.424 1_545 S
O175 C163 1.268 . S
H176 C148 0.930 . S
H177 C149 0.929 . S
H178 C151 0.930 . S
H179 C152 0.929 . S
H180 C157 0.930 . S
H181 C158 0.929 . S
H182 C160 0.930 . S
H183 C161 0.929 . S
Nd184 C186 2.836 . S
Nd184 O204 2.500 . S
Nd184 O205 2.492 . S
Nd184 O206 2.487 . S
Nd184 O207 2.682 . S
Nd184 O208 2.410 . S
Nd184 O213 2.414 . S
Nd184 O215 2.424 . S
Nd185 C195 2.836 . S
Nd185 O207 2.414 . S
Nd185 O209 2.424 . S
Nd185 O210 2.500 . S
Nd185 O211 2.492 . S
Nd185 O212 2.487 . S
Nd185 O213 2.682 . S
Nd185 O214 2.410 . S
C186 Nd184 2.836 . S
C186 C187 1.498 . S
C186 O204 1.258 . S
C186 O205 1.239 . S
C187 C186 1.498 . S
C187 C188 1.366 . S
C187 C192 1.407 . S
C188 C187 1.366 . S
C188 C189 1.392 . S
C188 H216 0.930 . S
C189 C188 1.392 . S
C189 C190 1.398 . S
C189 H217 0.929 . S
C190 C189 1.398 . S
C190 C191 1.352 . S
C191 C190 1.352 . S
C191 C192 1.384 . S
C191 H218 0.930 . S
C192 C187 1.407 . S
C192 C191 1.384 . S
C192 H219 0.929 . S
C193 O206 1.241 . S
C193 O207 1.273 . S
C194 O208 1.251 . S
C194 O209 1.268 . S
C195 Nd185 2.836 . S
C195 C196 1.498 . S
C195 O210 1.258 . S
C195 O211 1.239 . S
C196 C195 1.498 . S
C196 C197 1.366 . S
C196 C201 1.407 . S
C197 C196 1.366 . S
C197 C198 1.392 . S
C197 H220 0.930 . S
C198 C197 1.392 . S
C198 C199 1.398 . S
C198 H221 0.929 . S
C199 C198 1.398 . S
C199 C200 1.352 . S
C200 C199 1.352 . S
C200 C201 1.384 . S
C200 H222 0.930 . S
C201 C196 1.407 . S
C201 C200 1.384 . S
C201 H223 0.929 . S
C202 O212 1.241 . S
C202 O213 1.273 . S
C203 O214 1.251 . S
C203 O215 1.268 . S
O204 Nd184 2.500 . S
O204 C186 1.258 . S
O205 Nd184 2.492 . S
O205 C186 1.239 . S
O206 Nd184 2.487 . S
O206 C193 1.241 . S
O207 Nd184 2.682 . S
O207 Nd185 2.414 . S
O207 C193 1.273 . S
O208 Nd184 2.410 . S
O208 C194 1.251 . S
O209 Nd185 2.424 . S
O209 C194 1.268 . S
O210 Nd185 2.500 . S
O210 C195 1.258 . S
O211 Nd185 2.492 . S
O211 C195 1.239 . S
O212 Nd185 2.487 . S
O212 C202 1.241 . S
O213 Nd184 2.414 . S
O213 Nd185 2.682 . S
O213 C202 1.273 . S
O214 Nd185 2.410 . S
O214 C203 1.251 . S
O215 Nd184 2.424 . S
O215 C203 1.268 . S
H216 C188 0.930 . S
H217 C189 0.929 . S
H218 C191 0.930 . S
H219 C192 0.929 . S
H220 C197 0.930 . S
H221 C198 0.929 . S
H222 C200 0.930 . S
H223 C201 0.929 . S
Nd224 C226 2.836 1_455 S
Nd224 O244 2.500 1_455 S
Nd224 O245 2.492 . S
Nd224 O246 2.487 . S
Nd224 O247 2.682 . S
Nd224 O248 2.410 . S
Nd224 O253 2.414 1_454 S
Nd224 O255 2.424 . S
Nd225 C235 2.836 . S
Nd225 O247 2.414 1_556 S
Nd225 O249 2.424 . S
Nd225 O250 2.500 . S
Nd225 O251 2.492 . S
Nd225 O252 2.487 1_455 S
Nd225 O253 2.682 1_455 S
Nd225 O254 2.410 . S
C226 Nd224 2.836 1_655 S
C226 C227 1.498 . S
C226 O244 1.258 . S
C226 O245 1.239 1_655 S
C227 C226 1.498 . S
C227 C228 1.366 . S
C227 C232 1.407 . S
C228 C227 1.366 . S
C228 C229 1.392 . S
C228 H256 0.930 . S
C229 C228 1.392 . S
C229 C230 1.398 . S
C229 H257 0.929 . S
C230 C229 1.398 . S
C230 C231 1.352 . S
C231 C230 1.352 . S
C231 C232 1.384 . S
C231 H258 0.930 . S
C232 C227 1.407 . S
C232 C231 1.384 . S
C232 H259 0.929 1_655 S
C233 O246 1.241 . S
C233 O247 1.273 . S
C234 O248 1.251 1_556 S
C234 O249 1.268 . S
C235 Nd225 2.836 . S
C235 C236 1.498 . S
C235 O250 1.258 . S
C235 O251 1.239 . S
C236 C235 1.498 . S
C236 C237 1.366 . S
C236 C241 1.407 . S
C237 C236 1.366 . S
C237 C238 1.392 . S
C237 H260 0.930 . S
C238 C237 1.392 . S
C238 C239 1.398 . S
C238 H261 0.929 . S
C239 C238 1.398 . S
C239 C240 1.352 . S
C240 C239 1.352 . S
C240 C241 1.384 . S
C240 H262 0.930 . S
C241 C236 1.407 . S
C241 C240 1.384 . S
C241 H263 0.929 . S
C242 O252 1.241 . S
C242 O253 1.273 . S
C243 O254 1.251 1_554 S
C243 O255 1.268 . S
O244 Nd224 2.500 1_655 S
O244 C226 1.258 . S
O245 Nd224 2.492 . S
O245 C226 1.239 1_455 S
O246 Nd224 2.487 . S
O246 C233 1.241 . S
O247 Nd224 2.682 . S
O247 Nd225 2.414 1_554 S
O247 C233 1.273 . S
O248 Nd224 2.410 . S
O248 C234 1.251 1_554 S
O249 Nd225 2.424 . S
O249 C234 1.268 . S
O250 Nd225 2.500 . S
O250 C235 1.258 . S
O251 Nd225 2.492 . S
O251 C235 1.239 . S
O252 Nd225 2.487 1_655 S
O252 C242 1.241 . S
O253 Nd224 2.414 1_656 S
O253 Nd225 2.682 1_655 S
O253 C242 1.273 . S
O254 Nd225 2.410 . S
O254 C243 1.251 1_556 S
O255 Nd224 2.424 . S
O255 C243 1.268 . S
H256 C228 0.930 . S
H257 C229 0.929 . S
H258 C231 0.930 . S
H259 C232 0.929 1_455 S
H260 C237 0.930 . S
H261 C238 0.929 . S
H262 C240 0.930 . S
H263 C241 0.929 . S
C264 C265 1.363 . S
C264 C270 1.379 . S
C264 N272 1.356 . S
C265 C264 1.363 . S
C265 C271 1.363 . S
C266 C267 1.363 . S
C266 C271 1.379 . S
C266 N273 1.356 . S
C267 C266 1.363 . S
C267 C270 1.363 . S
N268 C270 1.356 . S
N268 H280 0.984 . S
N268 H281 0.985 . S
N269 C271 1.356 . S
N269 H274 0.984 . S
N269 H275 0.985 . S
C270 C264 1.379 . S
C270 C267 1.363 . S
C270 N268 1.356 . S
C271 C265 1.363 . S
C271 C266 1.379 . S
C271 N269 1.356 . S
N272 C264 1.356 . S
N272 H278 0.984 . S
N272 H279 0.984 . S
N273 C266 1.356 . S
N273 H276 0.984 . S
N273 H277 0.985 . S
H274 N269 0.984 . S
H275 N269 0.985 . S
H276 N273 0.984 . S
H277 N273 0.985 . S
H278 N272 0.984 . S
H279 N272 0.984 . S
H280 N268 0.984 . S
H281 N268 0.985 . S
C282 C283 1.363 . S
C282 C288 1.379 . S
C282 N290 1.356 . S
C283 C282 1.363 . S
C283 C289 1.363 . S
C284 C285 1.363 . S
C284 C289 1.379 . S
C284 N291 1.356 . S
C285 C284 1.363 . S
C285 C288 1.363 . S
N286 C288 1.356 . S
N286 H298 0.984 . S
N286 H299 0.985 . S
N287 C289 1.356 . S
N287 H292 0.984 . S
N287 H293 0.985 . S
C288 C282 1.379 . S
C288 C285 1.363 . S
C288 N286 1.356 . S
C289 C283 1.363 . S
C289 C284 1.379 . S
C289 N287 1.356 . S
N290 C282 1.356 . S
N290 H296 0.984 . S
N290 H297 0.984 . S
N291 C284 1.356 . S
N291 H294 0.984 . S
N291 H295 0.985 . S
H292 N287 0.984 . S
H293 N287 0.985 . S
H294 N291 0.984 . S
H295 N291 0.985 . S
H296 N290 0.984 . S
H297 N290 0.984 . S
H298 N286 0.984 . S
H299 N286 0.985 . S
C300 C301 1.363 . S
C300 C306 1.379 . S
C300 N308 1.356 . S
C301 C300 1.363 . S
C301 C307 1.363 . S
C302 C303 1.363 . S
C302 C307 1.379 . S
C302 N309 1.356 . S
C303 C302 1.363 . S
C303 C306 1.363 . S
N304 C306 1.356 . S
N304 H316 0.984 . S
N304 H317 0.985 . S
N305 C307 1.356 . S
N305 H310 0.984 . S
N305 H311 0.985 . S
C306 C300 1.379 . S
C306 C303 1.363 . S
C306 N304 1.356 . S
C307 C301 1.363 . S
C307 C302 1.379 . S
C307 N305 1.356 . S
N308 C300 1.356 . S
N308 H314 0.984 . S
N308 H315 0.984 . S
N309 C302 1.356 . S
N309 H312 0.984 . S
N309 H313 0.985 . S
H310 N305 0.984 . S
H311 N305 0.985 . S
H312 N309 0.984 . S
H313 N309 0.985 . S
H314 N308 0.984 . S
H315 N308 0.984 . S
H316 N304 0.984 . S
H317 N304 0.985 . S
C318 C319 1.363 . S
C318 C324 1.379 . S
C318 N326 1.356 . S
C319 C318 1.363 . S
C319 C325 1.363 . S
C320 C321 1.363 . S
C320 C325 1.379 . S
C320 N327 1.356 . S
C321 C320 1.363 . S
C321 C324 1.363 . S
N322 C324 1.356 . S
N322 H334 0.984 . S
N322 H335 0.985 . S
N323 C325 1.356 . S
N323 H328 0.984 . S
N323 H329 0.985 . S
C324 C318 1.379 . S
C324 C321 1.363 . S
C324 N322 1.356 . S
C325 C319 1.363 . S
C325 C320 1.379 . S
C325 N323 1.356 . S
N326 C318 1.356 . S
N326 H332 0.984 1_655 S
N326 H333 0.984 . S
N327 C320 1.356 . S
N327 H330 0.984 . S
N327 H331 0.985 . S
H328 N323 0.984 . S
H329 N323 0.985 . S
H330 N327 0.984 . S
H331 N327 0.985 . S
H332 N326 0.984 1_455 S
H333 N326 0.984 . S
H334 N322 0.984 . S
H335 N322 0.985 . S
C336 C337 1.363 . S
C336 C342 1.379 . S
C336 N344 1.356 . S
C337 C336 1.363 . S
C337 C343 1.363 . S
C338 C339 1.363 . S
C338 C343 1.379 . S
C338 N345 1.356 1_554 S
C339 C338 1.363 . S
C339 C342 1.363 . S
N340 C342 1.356 . S
N340 H352 0.984 . S
N340 H353 0.985 . S
N341 C343 1.356 . S
N341 H346 0.984 . S
N341 H347 0.985 1_554 S
C342 C336 1.379 . S
C342 C339 1.363 . S
C342 N340 1.356 . S
C343 C337 1.363 . S
C343 C338 1.379 . S
C343 N341 1.356 . S
N344 C336 1.356 . S
N344 H350 0.984 . S
N344 H351 0.984 . S
N345 C338 1.356 1_556 S
N345 H348 0.984 . S
N345 H349 0.985 . S
H346 N341 0.984 . S
H347 N341 0.985 1_556 S
H348 N345 0.984 . S
H349 N345 0.985 . S
H350 N344 0.984 . S
H351 N344 0.984 . S
H352 N340 0.984 . S
H353 N340 0.985 . S
C354 C355 1.363 . S
C354 C360 1.379 . S
C354 N362 1.356 . S
C355 C354 1.363 . S
C355 C361 1.363 . S
C356 C357 1.363 . S
C356 C361 1.379 . S
C356 N363 1.356 . S
C357 C356 1.363 . S
C357 C360 1.363 . S
N358 C360 1.356 . S
N358 H370 0.984 . S
N358 H371 0.985 . S
N359 C361 1.356 . S
N359 H364 0.984 . S
N359 H365 0.985 . S
C360 C354 1.379 . S
C360 C357 1.363 . S
C360 N358 1.356 . S
C361 C355 1.363 . S
C361 C356 1.379 . S
C361 N359 1.356 . S
N362 C354 1.356 . S
N362 H368 0.984 . S
N362 H369 0.984 . S
N363 C356 1.356 . S
N363 H366 0.984 . S
N363 H367 0.985 . S
H364 N359 0.984 . S
H365 N359 0.985 . S
H366 N363 0.984 . S
H367 N363 0.985 . S
H368 N362 0.984 . S
H369 N362 0.984 . S
H370 N358 0.984 . S
H371 N358 0.985 . S
C372 C373 1.363 . S
C372 C378 1.379 . S
C372 N380 1.356 . S
C373 C372 1.363 . S
C373 C379 1.363 . S
C374 C375 1.363 . S
C374 C379 1.379 . S
C374 N381 1.356 . S
C375 C374 1.363 . S
C375 C378 1.363 . S
N376 C378 1.356 1_554 S
N376 H388 0.984 . S
N376 H389 0.985 . S
N377 C379 1.356 . S
N377 H382 0.984 . S
N377 H383 0.985 . S
C378 C372 1.379 . S
C378 C375 1.363 . S
C378 N376 1.356 1_556 S
C379 C373 1.363 . S
C379 C374 1.379 . S
C379 N377 1.356 . S
N380 C372 1.356 . S
N380 H386 0.984 . S
N380 H387 0.984 . S
N381 C374 1.356 . S
N381 H384 0.984 . S
N381 H385 0.985 . S
H382 N377 0.984 . S
H383 N377 0.985 . S
H384 N381 0.984 . S
H385 N381 0.985 . S
H386 N380 0.984 . S
H387 N380 0.984 . S
H388 N376 0.984 . S
H389 N376 0.985 . S
C390 C391 1.363 . S
C390 C396 1.379 . S
C390 N398 1.356 . S
C391 C390 1.363 . S
C391 C397 1.363 . S
C392 C393 1.363 . S
C392 C397 1.379 . S
C392 N399 1.356 . S
C393 C392 1.363 . S
C393 C396 1.363 . S
N394 C396 1.356 . S
N394 H406 0.984 . S
N394 H407 0.985 . S
N395 C397 1.356 . S
N395 H400 0.984 . S
N395 H401 0.985 . S
C396 C390 1.379 . S
C396 C393 1.363 . S
C396 N394 1.356 . S
C397 C391 1.363 . S
C397 C392 1.379 . S
C397 N395 1.356 . S
N398 C390 1.356 . S
N398 H404 0.984 . S
N398 H405 0.984 . S
N399 C392 1.356 . S
N399 H402 0.984 . S
N399 H403 0.985 . S
H400 N395 0.984 . S
H401 N395 0.985 . S
H402 N399 0.984 . S
H403 N399 0.985 . S
H404 N398 0.984 . S
H405 N398 0.984 . S
H406 N394 0.984 . S
H407 N394 0.985 . S
C408 C409 1.363 . S
C408 C414 1.379 . S
C408 N416 1.356 . S
C409 C408 1.363 . S
C409 C415 1.363 . S
C410 C411 1.363 . S
C410 C415 1.379 . S
C410 N417 1.356 . S
C411 C410 1.363 . S
C411 C414 1.363 . S
N412 C414 1.356 . S
N412 H424 0.984 1_554 S
N412 H425 0.985 . S
N413 C415 1.356 . S
N413 H418 0.984 . S
N413 H419 0.985 . S
C414 C408 1.379 . S
C414 C411 1.363 . S
C414 N412 1.356 . S
C415 C409 1.363 . S
C415 C410 1.379 . S
C415 N413 1.356 . S
N416 C408 1.356 . S
N416 H422 0.984 . S
N416 H423 0.984 . S
N417 C410 1.356 . S
N417 H420 0.984 . S
N417 H421 0.985 . S
H418 N413 0.984 . S
H419 N413 0.985 . S
H420 N417 0.984 . S
H421 N417 0.985 . S
H422 N416 0.984 . S
H423 N416 0.984 . S
H424 N412 0.984 1_556 S
H425 N412 0.985 . S
C426 C427 1.363 . S
C426 C432 1.379 . S
C426 N434 1.356 . S
C427 C426 1.363 . S
C427 C433 1.363 . S
C428 C429 1.363 . S
C428 C433 1.379 . S
C428 N435 1.356 . S
C429 C428 1.363 . S
C429 C432 1.363 . S
N430 C432 1.356 . S
N430 H442 0.984 . S
N430 H443 0.985 . S
N431 C433 1.356 . S
N431 H436 0.984 . S
N431 H437 0.985 . S
C432 C426 1.379 . S
C432 C429 1.363 . S
C432 N430 1.356 . S
C433 C427 1.363 . S
C433 C428 1.379 . S
C433 N431 1.356 . S
N434 C426 1.356 . S
N434 H440 0.984 . S
N434 H441 0.984 . S
N435 C428 1.356 . S
N435 H438 0.984 . S
N435 H439 0.985 . S
H436 N431 0.984 . S
H437 N431 0.985 . S
H438 N435 0.984 . S
H439 N435 0.985 . S
H440 N434 0.984 . S
H441 N434 0.984 . S
H442 N430 0.984 . S
H443 N430 0.985 . S
C444 C445 1.363 . S
C444 C450 1.379 . S
C444 N452 1.356 . S
C445 C444 1.363 . S
C445 C451 1.363 . S
C446 C447 1.363 . S
C446 C451 1.379 . S
C446 N453 1.356 . S
C447 C446 1.363 . S
C447 C450 1.363 . S
N448 C450 1.356 . S
N448 H460 0.984 . S
N448 H461 0.985 . S
N449 C451 1.356 . S
N449 H454 0.984 . S
N449 H455 0.985 . S
C450 C444 1.379 . S
C450 C447 1.363 . S
C450 N448 1.356 . S
C451 C445 1.363 . S
C451 C446 1.379 . S
C451 N449 1.356 . S
N452 C444 1.356 . S
N452 H458 0.984 . S
N452 H459 0.984 . S
N453 C446 1.356 . S
N453 H456 0.984 1_655 S
N453 H457 0.989 . S
H454 N449 0.984 . S
H455 N449 0.985 . S
H456 N453 0.984 1_455 S
H457 N453 0.989 . S
H458 N452 0.984 . S
H459 N452 0.984 . S
H460 N448 0.984 . S
H461 N448 0.985 . S
C462 C463 1.363 . S
C462 C468 1.379 . S
C462 N470 1.356 . S
C463 C462 1.363 . S
C463 C469 1.363 . S
C464 C465 1.363 . S
C464 C469 1.379 . S
C464 N471 1.356 . S
C465 C464 1.363 . S
C465 C468 1.363 . S
N466 C468 1.356 . S
N466 H478 0.984 . S
N466 H479 0.985 . S
N467 C469 1.356 . S
N467 H472 0.984 . S
N467 H473 0.985 . S
C468 C462 1.379 . S
C468 C465 1.363 . S
C468 N466 1.356 . S
C469 C463 1.363 . S
C469 C464 1.379 . S
C469 N467 1.356 . S
N470 C462 1.356 . S
N470 H476 0.984 . S
N470 H477 0.984 . S
N471 C464 1.356 . S
N471 H474 0.984 . S
N471 H475 0.985 . S
H472 N467 0.984 . S
H473 N467 0.985 . S
H474 N471 0.984 . S
H475 N471 0.985 . S
H476 N470 0.984 . S
H477 N470 0.984 . S
H478 N466 0.984 . S
H479 N466 0.985 . S
C480 C481 1.363 . S
C480 C486 1.379 . S
C480 N488 1.356 . S
C481 C480 1.363 . S
C481 C487 1.363 . S
C482 C483 1.363 . S
C482 C487 1.379 . S
C482 N489 1.356 1_655 S
C483 C482 1.363 . S
C483 C486 1.363 . S
N484 C486 1.356 . S
N484 H496 0.984 . S
N484 H497 0.985 . S
N485 C487 1.356 . S
N485 H490 0.984 . S
N485 H491 0.985 . S
C486 C480 1.379 . S
C486 C483 1.363 . S
C486 N484 1.356 . S
C487 C481 1.363 . S
C487 C482 1.379 . S
C487 N485 1.356 . S
N488 C480 1.356 . S
N488 H494 0.984 . S
N488 H495 0.984 . S
N489 C482 1.356 1_455 S
N489 H492 0.984 . S
N489 H493 0.985 . S
H490 N485 0.984 . S
H491 N485 0.985 . S
H492 N489 0.984 . S
H493 N489 0.985 . S
H494 N488 0.984 . S
H495 N488 0.984 . S
H496 N484 0.984 . S
H497 N484 0.985 . S
C498 C499 1.363 . S
C498 C504 1.379 . S
C498 N506 1.356 . S
C499 C498 1.363 . S
C499 C505 1.363 . S
C500 C501 1.363 . S
C500 C505 1.379 . S
C500 N507 1.356 . S
C501 C500 1.363 . S
C501 C504 1.363 . S
N502 C504 1.356 . S
N502 H514 0.984 . S
N502 H515 0.985 . S
N503 C505 1.356 . S
N503 H508 0.984 . S
N503 H509 0.985 . S
C504 C498 1.379 . S
C504 C501 1.363 . S
C504 N502 1.356 . S
C505 C499 1.363 . S
C505 C500 1.379 . S
C505 N503 1.356 . S
N506 C498 1.356 . S
N506 H512 0.984 . S
N506 H513 0.984 . S
N507 C500 1.356 . S
N507 H510 0.984 . S
N507 H511 0.985 . S
H508 N503 0.984 . S
H509 N503 0.985 . S
H510 N507 0.984 . S
H511 N507 0.985 . S
H512 N506 0.984 . S
H513 N506 0.984 . S
H514 N502 0.984 . S
H515 N502 0.985 . S
C516 C517 1.363 . S
C516 C522 1.379 . S
C516 N524 1.356 . S
C517 C516 1.363 . S
C517 C523 1.363 . S
C518 C519 1.363 . S
C518 C523 1.379 . S
C518 N525 1.356 . S
C519 C518 1.363 . S
C519 C522 1.363 . S
N520 C522 1.356 . S
N520 H532 0.984 . S
N520 H533 0.985 . S
N521 C523 1.356 . S
N521 H526 0.984 . S
N521 H527 0.985 . S
C522 C516 1.379 . S
C522 C519 1.363 . S
C522 N520 1.356 . S
C523 C517 1.363 . S
C523 C518 1.379 . S
C523 N521 1.356 . S
N524 C516 1.356 . S
N524 H530 0.984 . S
N524 H531 0.984 . S
N525 C518 1.356 . S
N525 H528 0.984 . S
N525 H529 0.985 . S
H526 N521 0.984 . S
H527 N521 0.985 . S
H528 N525 0.984 . S
H529 N525 0.985 . S
H530 N524 0.984 . S
H531 N524 0.984 . S
H532 N520 0.984 . S
H533 N520 0.985 . S
C534 C535 1.363 . S
C534 C540 1.379 . S
C534 N542 1.356 . S
C535 C534 1.363 . S
C535 C541 1.363 . S
C536 C537 1.363 . S
C536 C541 1.379 . S
C536 N543 1.356 . S
C537 C536 1.363 . S
C537 C540 1.363 . S
N538 C540 1.356 . S
N538 H550 0.984 . S
N538 H551 0.985 . S
N539 C541 1.356 . S
N539 H544 0.984 . S
N539 H545 0.985 . S
C540 C534 1.379 . S
C540 C537 1.363 . S
C540 N538 1.356 . S
C541 C535 1.363 . S
C541 C536 1.379 . S
C541 N539 1.356 . S
N542 C534 1.356 . S
N542 H548 0.984 . S
N542 H549 0.984 . S
N543 C536 1.356 . S
N543 H546 0.984 . S
N543 H547 0.985 . S
H544 N539 0.984 . S
H545 N539 0.985 . S
H546 N543 0.984 . S
H547 N543 0.985 . S
H548 N542 0.984 . S
H549 N542 0.984 . S
H550 N538 0.984 . S
H551 N538 0.985 . S
C552 C553 1.363 . S
C552 C558 1.379 . S
C552 N560 1.356 . S
C553 C552 1.363 . S
C553 C559 1.363 . S
C554 C555 1.363 . S
C554 C559 1.379 . S
C554 N561 1.356 . S
C555 C554 1.363 . S
C555 C558 1.363 . S
N556 C558 1.356 . S
N556 H568 0.984 . S
N556 H569 0.985 . S
N557 C559 1.356 . S
N557 H562 0.984 . S
N557 H563 0.985 . S
C558 C552 1.379 . S
C558 C555 1.363 . S
C558 N556 1.356 . S
C559 C553 1.363 . S
C559 C554 1.379 . S
C559 N557 1.356 . S
N560 C552 1.356 . S
N560 H566 0.984 . S
N560 H567 0.984 . S
N561 C554 1.356 . S
N561 H564 0.987 . S
N561 H565 0.985 1_565 S
H562 N557 0.984 . S
H563 N557 0.985 . S
H564 N561 0.987 . S
H565 N561 0.985 1_545 S
H566 N560 0.984 . S
H567 N560 0.984 . S
H568 N556 0.984 . S
H569 N556 0.985 . S
C570 C571 1.363 . S
C570 C576 1.379 . S
C570 N578 1.356 . S
C571 C570 1.363 . S
C571 C577 1.363 . S
C572 C573 1.363 . S
C572 C577 1.379 . S
C572 N579 1.356 . S
C573 C572 1.363 . S
C573 C576 1.363 . S
N574 C576 1.356 . S
N574 H586 0.984 . S
N574 H587 0.985 . S
N575 C577 1.356 . S
N575 H580 0.984 . S
N575 H581 0.985 . S
C576 C570 1.379 . S
C576 C573 1.363 . S
C576 N574 1.356 . S
C577 C571 1.363 . S
C577 C572 1.379 . S
C577 N575 1.356 . S
N578 C570 1.356 . S
N578 H584 0.984 . S
N578 H585 0.984 . S
N579 C572 1.356 . S
N579 H582 0.984 . S
N579 H583 0.985 . S
H580 N575 0.984 . S
H581 N575 0.985 . S
H582 N579 0.984 . S
H583 N579 0.985 . S
H584 N578 0.984 . S
H585 N578 0.984 . S
H586 N574 0.984 . S
H587 N574 0.985 . S
C588 C589 1.363 . S
C588 C594 1.379 . S
C588 N596 1.356 . S
C589 C588 1.363 . S
C589 C595 1.363 . S
C590 C591 1.363 . S
C590 C595 1.379 . S
C590 N597 1.356 . S
C591 C590 1.363 . S
C591 C594 1.363 . S
N592 C594 1.356 . S
N592 H604 0.984 1_554 S
N592 H605 0.985 . S
N593 C595 1.356 . S
N593 H598 0.984 . S
N593 H599 0.985 . S
C594 C588 1.379 . S
C594 C591 1.363 . S
C594 N592 1.356 . S
C595 C589 1.363 . S
C595 C590 1.379 . S
C595 N593 1.356 . S
N596 C588 1.356 . S
N596 H602 0.984 . S
N596 H603 0.984 . S
N597 C590 1.356 . S
N597 H600 0.984 . S
N597 H601 0.985 . S
H598 N593 0.984 . S
H599 N593 0.985 . S
H600 N597 0.984 . S
H601 N597 0.985 . S
H602 N596 0.984 . S
H603 N596 0.984 . S
H604 N592 0.984 1_556 S
H605 N592 0.985 . S
C606 C607 1.363 . S
C606 C612 1.379 . S
C606 N614 1.356 . S
C607 C606 1.363 . S
C607 C613 1.363 . S
C608 C609 1.363 . S
C608 C613 1.379 . S
C608 N615 1.356 . S
C609 C608 1.363 . S
C609 C612 1.363 . S
N610 C612 1.356 . S
N610 H622 0.984 . S
N610 H623 0.985 . S
N611 C613 1.356 . S
N611 H616 0.984 . S
N611 H617 0.985 . S
C612 C606 1.379 . S
C612 C609 1.363 . S
C612 N610 1.356 . S
C613 C607 1.363 . S
C613 C608 1.379 . S
C613 N611 1.356 . S
N614 C606 1.356 . S
N614 H620 0.984 . S
N614 H621 0.984 . S
N615 C608 1.356 . S
N615 H618 0.984 . S
N615 H619 0.985 . S
H616 N611 0.984 . S
H617 N611 0.985 . S
H618 N615 0.984 . S
H619 N615 0.985 . S
H620 N614 0.984 . S
H621 N614 0.984 . S
H622 N610 0.984 . S
H623 N610 0.985 . S
C624 C625 1.363 . S
C624 C630 1.379 . S
C624 N632 1.356 . S
C625 C624 1.363 . S
C625 C631 1.363 . S
C626 C627 1.363 1_554 S
C626 C631 1.379 1_554 S
C626 N633 1.356 1_655 S
C627 C626 1.363 1_556 S
C627 C630 1.363 . S
N628 C630 1.356 . S
N628 H640 0.984 . S
N628 H641 0.985 . S
N629 C631 1.356 1_554 S
N629 H634 0.984 1_554 S
N629 H635 0.985 1_655 S
C630 C624 1.379 . S
C630 C627 1.363 . S
C630 N628 1.356 . S
C631 C625 1.363 . S
C631 C626 1.379 1_556 S
C631 N629 1.356 1_556 S
N632 C624 1.356 . S
N632 H638 0.984 . S
N632 H639 0.984 . S
N633 C626 1.356 1_455 S
N633 H636 0.984 . S
N633 H637 0.985 . S
H634 N629 0.984 1_556 S
H635 N629 0.985 1_455 S
H636 N633 0.984 . S
H637 N633 0.985 . S
H638 N632 0.984 . S
H639 N632 0.984 . S
H640 N628 0.984 . S
H641 N628 0.985 . S
C642 C643 1.363 . S
C642 C648 1.379 . S
C642 N650 1.356 . S
C643 C642 1.363 . S
C643 C649 1.363 . S
C644 C645 1.363 . S
C644 C649 1.379 . S
C644 N651 1.356 . S
C645 C644 1.363 . S
C645 C648 1.363 . S
N646 C648 1.356 . S
N646 H658 0.984 . S
N646 H659 0.985 . S
N647 C649 1.356 . S
N647 H652 0.984 . S
N647 H653 0.985 . S
C648 C642 1.379 . S
C648 C645 1.363 . S
C648 N646 1.356 . S
C649 C643 1.363 . S
C649 C644 1.379 . S
C649 N647 1.356 . S
N650 C642 1.356 . S
N650 H656 0.984 . S
N650 H657 0.984 . S
N651 C644 1.356 . S
N651 H654 0.984 . S
N651 H655 0.985 . S
H652 N647 0.984 . S
H653 N647 0.985 . S
H654 N651 0.984 . S
H655 N651 0.985 . S
H656 N650 0.984 . S
H657 N650 0.984 . S
H658 N646 0.984 . S
H659 N646 0.985 . S
C660 C661 1.363 . S
C660 C666 1.379 . S
C660 N668 1.356 . S
C661 C660 1.363 . S
C661 C667 1.363 . S
C662 C663 1.363 . S
C662 C667 1.379 . S
C662 N669 1.356 . S
C663 C662 1.363 . S
C663 C666 1.363 . S
N664 C666 1.356 . S
N664 H676 0.984 . S
N664 H677 0.985 . S
N665 C667 1.356 . S
N665 H670 0.984 . S
N665 H671 0.985 . S
C666 C660 1.379 . S
C666 C663 1.363 . S
C666 N664 1.356 . S
C667 C661 1.363 . S
C667 C662 1.379 . S
C667 N665 1.356 . S
N668 C660 1.356 . S
N668 H674 0.984 . S
N668 H675 0.984 . S
N669 C662 1.356 . S
N669 H672 0.984 . S
N669 H673 0.985 . S
H670 N665 0.984 . S
H671 N665 0.985 . S
H672 N669 0.984 . S
H673 N669 0.985 . S
H674 N668 0.984 . S
H675 N668 0.984 . S
H676 N664 0.984 . S
H677 N664 0.985 . S
C678 C679 1.363 . S
C678 C684 1.379 . S
C678 N686 1.356 . S
C679 C678 1.363 . S
C679 C685 1.363 . S
C680 C681 1.363 . S
C680 C685 1.379 . S
C680 N687 1.356 . S
C681 C680 1.363 . S
C681 C684 1.363 . S
N682 C684 1.356 . S
N682 H694 0.984 . S
N682 H695 0.985 . S
N683 C685 1.356 . S
N683 H688 0.984 . S
N683 H689 0.985 . S
C684 C678 1.379 . S
C684 C681 1.363 . S
C684 N682 1.356 . S
C685 C679 1.363 . S
C685 C680 1.379 . S
C685 N683 1.356 . S
N686 C678 1.356 . S
N686 H692 0.984 . S
N686 H693 0.984 . S
N687 C680 1.356 . S
N687 H690 0.984 . S
N687 H691 0.985 . S
H688 N683 0.984 . S
H689 N683 0.985 . S
H690 N687 0.984 . S
H691 N687 0.985 . S
H692 N686 0.984 . S
H693 N686 0.984 . S
H694 N682 0.984 . S
H695 N682 0.985 . S
C265 C9 3.235 . S
C267 C123 3.203 . S
C283 C21 1.992 . S
C285 C154 2.101 . S
C303 C193 1.063 . S
C301 C30 1.073 . S
C319 C43 0.764 . S
C321 C230 0.785 . S
C339 C153 2.655 . S
C337 C4 2.757 . S
C357 C110 1.605 . S
C355 C22 1.638 . S
C375 C242 1.158 . S
C373 C34 1.218 . S
C393 C199 1.143 . S
C391 C48 1.163 . S
C409 C8 2.380 . S
C411 C243 2.368 . S
C429 C159 1.487 . S
C427 C35 1.518 . S
C445 C47 0.449 . S
C447 C122 0.541 . S
C463 C17 1.877 . S
C465 C194 2.096 . S
C483 C114 2.799 . S
C481 C60 2.822 . S
C499 C74 2.267 . S
C501 C163 2.409 . S
C517 C82 1.111 . S
C519 C202 1.091 . S
C535 C100 0.896 . S
C537 C239 0.886 . S
C553 C61 3.154 . S
C555 C162 3.065 . S
C573 C119 1.292 . S
C571 C73 1.286 . S
C591 C233 1.586 . S
C589 C87 1.616 . S
C609 C190 1.076 . S
C607 C95 1.029 . S
C625 C56 2.426 . S
C627 C234 2.466 1_655 S
C645 C150 1.468 . S
C643 C86 1.465 . S
C663 C113 0.634 . S
C661 C99 0.461 . S
C679 C69 2.043 . S
C681 C203 2.142 . S
