# Generated by pormake.
# Topology sqc, (4,8)-cn, num edge types: 1
# Building blocks:
#     Node 0, Type 0, BuildingBlock: NAHDIM_clean_linker_0, # of connection points: 4
#     Node 1, Type 0, BuildingBlock: NAHDIM_clean_linker_0, # of connection points: 4
#     Node 2, Type 0, BuildingBlock: NAHDIM_clean_linker_0, # of connection points: 4
#     Node 3, Type 0, BuildingBlock: NAHDIM_clean_linker_0, # of connection points: 4
#     Node 4, Type 0, BuildingBlock: NAHDIM_clean_linker_0, # of connection points: 4
#     Node 5, Type 0, BuildingBlock: NAHDIM_clean_linker_0, # of connection points: 4
#     Node 6, Type 0, BuildingBlock: NAHDIM_clean_linker_0, # of connection points: 4
#     Node 7, Type 0, BuildingBlock: NAHDIM_clean_linker_0, # of connection points: 4
#     Node 8, Type 1, BuildingBlock: TAGTUT_clean_sbu_3, # of connection points: 8
#     Node 9, Type 1, BuildingBlock: TAGTUT_clean_sbu_3, # of connection points: 8
#     Node 10, Type 1, BuildingBlock: TAGTUT_clean_sbu_3, # of connection points: 8
#     Node 11, Type 1, BuildingBlock: TAGTUT_clean_sbu_3, # of connection points: 8
#     Edge 12, Type (0, 1), BuildingBlock: OJICUG_clean_linker_0, # of connection points: 2
#     Edge 13, Type (0, 1), BuildingBlock: OJICUG_clean_linker_0, # of connection points: 2
#     Edge 14, Type (0, 1), BuildingBlock: OJICUG_clean_linker_0, # of connection points: 2
#     Edge 15, Type (0, 1), BuildingBlock: OJICUG_clean_linker_0, # of connection points: 2
#     Edge 16, Type (0, 1), BuildingBlock: OJICUG_clean_linker_0, # of connection points: 2
#     Edge 17, Type (0, 1), BuildingBlock: OJICUG_clean_linker_0, # of connection points: 2
#     Edge 18, Type (0, 1), BuildingBlock: OJICUG_clean_linker_0, # of connection points: 2
#     Edge 19, Type (0, 1), BuildingBlock: OJICUG_clean_linker_0, # of connection points: 2
#     Edge 20, Type (0, 1), BuildingBlock: OJICUG_clean_linker_0, # of connection points: 2
#     Edge 21, Type (0, 1), BuildingBlock: OJICUG_clean_linker_0, # of connection points: 2
#     Edge 22, Type (0, 1), BuildingBlock: OJICUG_clean_linker_0, # of connection points: 2
#     Edge 23, Type (0, 1), BuildingBlock: OJICUG_clean_linker_0, # of connection points: 2
#     Edge 24, Type (0, 1), BuildingBlock: OJICUG_clean_linker_0, # of connection points: 2
#     Edge 25, Type (0, 1), BuildingBlock: OJICUG_clean_linker_0, # of connection points: 2
#     Edge 26, Type (0, 1), BuildingBlock: OJICUG_clean_linker_0, # of connection points: 2
#     Edge 27, Type (0, 1), BuildingBlock: OJICUG_clean_linker_0, # of connection points: 2
#     Edge 28, Type (0, 1), BuildingBlock: OJICUG_clean_linker_0, # of connection points: 2
#     Edge 29, Type (0, 1), BuildingBlock: OJICUG_clean_linker_0, # of connection points: 2
#     Edge 30, Type (0, 1), BuildingBlock: OJICUG_clean_linker_0, # of connection points: 2
#     Edge 31, Type (0, 1), BuildingBlock: OJICUG_clean_linker_0, # of connection points: 2
#     Edge 32, Type (0, 1), BuildingBlock: OJICUG_clean_linker_0, # of connection points: 2
#     Edge 33, Type (0, 1), BuildingBlock: OJICUG_clean_linker_0, # of connection points: 2
#     Edge 34, Type (0, 1), BuildingBlock: OJICUG_clean_linker_0, # of connection points: 2
#     Edge 35, Type (0, 1), BuildingBlock: OJICUG_clean_linker_0, # of connection points: 2
#     Edge 36, Type (0, 1), BuildingBlock: OJICUG_clean_linker_0, # of connection points: 2
#     Edge 37, Type (0, 1), BuildingBlock: OJICUG_clean_linker_0, # of connection points: 2
#     Edge 38, Type (0, 1), BuildingBlock: OJICUG_clean_linker_0, # of connection points: 2
#     Edge 39, Type (0, 1), BuildingBlock: OJICUG_clean_linker_0, # of connection points: 2
#     Edge 40, Type (0, 1), BuildingBlock: OJICUG_clean_linker_0, # of connection points: 2
#     Edge 41, Type (0, 1), BuildingBlock: OJICUG_clean_linker_0, # of connection points: 2
#     Edge 42, Type (0, 1), BuildingBlock: OJICUG_clean_linker_0, # of connection points: 2
#     Edge 43, Type (0, 1), BuildingBlock: OJICUG_clean_linker_0, # of connection points: 2
# Relax obj value: 0.119
# Max RMSD: 0.247
# Mean RMSD: 0.120
data_MOF--net-sqc--node1-TAGTUT_clean_sbu_3--node2-NAHDIM_clean_linker_0--edge1-OJICUG_clean_linker_0
_symmetry_space_group_name_H-M    P1
_symmetry_Int_Tables_number       1
_symmetry_cell_setting            triclinic
loop_
_symmetry_equiv_pos_as_xyz
'x, y, z'
_cell_length_a     25.216212
_cell_length_b     25.207817
_cell_length_c     84.567808
_cell_angle_alpha  90.395903
_cell_angle_beta   89.471513
_cell_angle_gamma 90.033607
loop_
_atom_site_label
_atom_site_type_symbol
_atom_site_fract_x
_atom_site_fract_y
_atom_site_fract_z
_atom_type_partial_charge
C0 C 0.64969 0.00109 0.46086 0.0
C1 C 0.69064 0.98039 0.44883 0.0
C2 C 0.78087 0.95465 0.45787 0.0
C3 C 0.80838 0.9142 0.4655 0.0
C4 C 0.86266 0.91879 0.46878 0.0
C5 C 0.89017 0.96539 0.46439 0.0
C6 C 0.86365 0.00494 0.45571 0.0
C7 C 0.80927 0.99937 0.45255 0.0
C8 C 0.88981 0.87534 0.47784 0.0
C9 C 0.89212 0.05475 0.45062 0.0
C10 C 0.28644 0.85287 0.46582 0.0
C11 C 0.2616 0.85079 0.4493 0.0
C12 C 0.18601 0.91273 0.45117 0.0
C13 C 0.16676 0.96186 0.44624 0.0
C14 C 0.11755 0.98125 0.45162 0.0
C15 C 0.08711 0.95078 0.46235 0.0
C16 C 0.10539 0.90019 0.46698 0.0
C17 C 0.15449 0.88158 0.46132 0.0
C18 C 0.09894 0.03507 0.44634 0.0
C19 C 0.07376 0.86647 0.47836 0.0
C20 C 0.19873 0.10784 0.55401 0.0
C21 C 0.16508 0.14842 0.54912 0.0
C22 C 0.11782 0.13722 0.54109 0.0
C23 C 0.10308 0.08374 0.53826 0.0
C24 C 0.13691 0.04234 0.54327 0.0
C25 C 0.18522 0.05492 0.55051 0.0
C26 C 0.08332 0.18267 0.53587 0.0
C27 C 0.12217 0.98458 0.54126 0.0
C28 C 0.6962 0.99364 0.56715 0.0
C29 C 0.73478 0.03277 0.57488 0.0
C30 C 0.80644 0.06584 0.55771 0.0
C31 C 0.82636 0.11273 0.55123 0.0
C32 C 0.87684 0.1144 0.54413 0.0
C33 C 0.90775 0.06769 0.54337 0.0
C34 C 0.88856 0.02047 0.55037 0.0
C35 C 0.83786 0.01985 0.55732 0.0
C36 C 0.89609 0.16528 0.53675 0.0
C37 C 0.92047 0.96983 0.54974 0.0
C38 C 0.94256 0.97747 0.47153 0.0
C39 C 0.98922 0.96268 0.46355 0.0
C40 C 0.03904 0.97357 0.47007 0.0
C41 C 0.04257 0.00137 0.48463 0.0
C42 C 0.09186 0.0158 0.49107 0.0
C43 C 0.0949 0.0409 0.50576 0.0
C44 C 0.049 0.05023 0.51493 0.0
C45 C 0.05174 0.07121 0.53051 0.0
C46 C 0.00505 0.07786 0.53942 0.0
C47 C 0.95559 0.06546 0.53305 0.0
C48 C 0.95207 0.04681 0.51732 0.0
C49 C 0.90266 0.03609 0.51042 0.0
C50 C 0.89945 0.01481 0.49529 0.0
C51 C 0.94555 0.0023 0.48655 0.0
C52 C 0.99568 0.01424 0.49311 0.0
C53 C 0.99893 0.03758 0.50841 0.0
C54 C 0.24833 0.06119 0.58434 0.0
C55 C 0.27683 0.08766 0.57025 0.0
O56 O 0.72731 0.94889 0.45652 0.0
O57 O 0.75614 0.06625 0.56358 0.0
O58 O 0.24277 0.12146 0.56235 0.0
O59 O 0.23527 0.89774 0.44611 0.0
H60 H 0.70877 0.01618 0.44355 0.0
H61 H 0.66894 0.03005 0.46894 0.0
H62 H 0.63353 0.96835 0.4682 0.0
H63 H 0.61673 0.02151 0.45476 0.0
H64 H 0.78659 0.87951 0.46939 0.0
H65 H 0.78977 0.03118 0.44645 0.0
H66 H 0.92791 0.86463 0.47196 0.0
H67 H 0.86481 0.83919 0.47883 0.0
H68 H 0.89902 0.88981 0.48994 0.0
H69 H 0.86844 0.07845 0.44221 0.0
H70 H 0.93078 0.04457 0.44498 0.0
H71 H 0.90042 0.07967 0.46119 0.0
H72 H 0.23325 0.81697 0.44904 0.0
H73 H 0.31178 0.81745 0.46769 0.0
H74 H 0.25509 0.85308 0.47511 0.0
H75 H 0.31067 0.88926 0.46741 0.0
H76 H 0.191 0.98552 0.43832 0.0
H77 H 0.16813 0.84323 0.46519 0.0
H78 H 0.09835 0.06276 0.45661 0.0
H79 H 0.0578 0.03227 0.44183 0.0
H80 H 0.12493 0.05195 0.43696 0.0
H81 H 0.09205 0.82693 0.48021 0.0
H82 H 0.03293 0.8607 0.47387 0.0
H83 H 0.07053 0.88711 0.48997 0.0
H84 H 0.29162 0.05665 0.56188 0.0
H85 H 0.17575 0.18913 0.55179 0.0
H86 H 0.21155 0.02293 0.55366 0.0
H87 H 0.06945 0.17604 0.52359 0.0
H88 H 0.10447 0.22127 0.53644 0.0
H89 H 0.04781 0.18518 0.5437 0.0
H90 H 0.14366 0.95907 0.54973 0.0
H91 H 0.1331 0.9712 0.52914 0.0
H92 H 0.07892 0.97825 0.54296 0.0
H93 H 0.76607 0.0086 0.58059 0.0
H94 H 0.67443 0.97074 0.57632 0.0
H95 H 0.71872 0.96524 0.55957 0.0
H96 H 0.66739 0.01447 0.55953 0.0
H97 H 0.80172 0.14795 0.55153 0.0
H98 H 0.82239 0.98284 0.56183 0.0
H99 H 0.89898 0.16002 0.52373 0.0
H100 H 0.9364 0.17501 0.5411 0.0
H101 H 0.86921 0.19916 0.5394 0.0
H102 H 0.90382 0.93895 0.55768 0.0
H103 H 0.96221 0.97771 0.55312 0.0
H104 H 0.92082 0.954 0.53746 0.0
H105 H 0.98674 0.94156 0.45237 0.0
H106 H 0.12871 0.008 0.48482 0.0
H107 H 0.13386 0.05155 0.51001 0.0
H108 H 0.00731 0.09172 0.55157 0.0
H109 H 0.86571 0.04377 0.51663 0.0
H110 H 0.86019 0.00726 0.49074 0.0
H111 H 0.27661 0.0363 0.59103 0.0
H112 H 0.21565 0.03498 0.58045 0.0
H113 H 0.23131 0.09169 0.59246 0.0
C114 C 0.1738 0.0304 0.78569 0.0
C115 C 0.17699 0.00379 0.80189 0.0
C116 C 0.23759 0.9267 0.80132 0.0
C117 C 0.28642 0.90878 0.80683 0.0
C118 C 0.30256 0.85594 0.80462 0.0
C119 C 0.26884 0.81989 0.79668 0.0
C120 C 0.21882 0.83736 0.7913 0.0
C121 C 0.20389 0.89071 0.7935 0.0
C122 C 0.35629 0.83894 0.81044 0.0
C123 C 0.18186 0.79999 0.78278 0.0
C124 C 0.34614 0.40819 0.83925 0.0
C125 C 0.29898 0.44334 0.83499 0.0
C126 C 0.30265 0.54006 0.83174 0.0
C127 C 0.2629 0.54505 0.82034 0.0
C128 C 0.25923 0.59117 0.81117 0.0
C129 C 0.29666 0.63254 0.81328 0.0
C130 C 0.33417 0.62905 0.82557 0.0
C131 C 0.33616 0.58299 0.83478 0.0
C132 C 0.21728 0.59438 0.79862 0.0
C133 C 0.37408 0.67263 0.82839 0.0
C134 C 0.4644 0.47155 0.73465 0.0
C135 C 0.4142 0.48632 0.72906 0.0
C136 C 0.39527 0.53813 0.73129 0.0
C137 C 0.42771 0.57617 0.73887 0.0
C138 C 0.47968 0.56245 0.74345 0.0
C139 C 0.49714 0.51005 0.74139 0.0
C140 C 0.34012 0.55196 0.72588 0.0
C141 C 0.51618 0.60277 0.75089 0.0
C142 C 0.32867 0.84868 0.65984 0.0
C143 C 0.35143 0.88109 0.6736 0.0
C144 C 0.38875 0.82242 0.69371 0.0
C145 C 0.3412 0.79841 0.69863 0.0
C146 C 0.34011 0.76457 0.71171 0.0
C147 C 0.3872 0.75609 0.72035 0.0
C148 C 0.43498 0.78086 0.71553 0.0
C149 C 0.43519 0.81309 0.7021 0.0
C150 C 0.28882 0.73703 0.71605 0.0
C151 C 0.48595 0.77286 0.72443 0.0
C152 C 0.28823 0.76559 0.79269 0.0
C153 C 0.28235 0.7252 0.80391 0.0
C154 C 0.30265 0.67426 0.80102 0.0
C155 C 0.32966 0.6632 0.78662 0.0
C156 C 0.35216 0.613 0.78355 0.0
C157 C 0.37747 0.60195 0.76925 0.0
C158 C 0.38158 0.64069 0.75744 0.0
C159 C 0.40614 0.62941 0.74271 0.0
C160 C 0.40822 0.66819 0.73106 0.0
C161 C 0.3871 0.71868 0.73377 0.0
C162 C 0.36402 0.73141 0.74862 0.0
C163 C 0.34448 0.7825 0.75198 0.0
C164 C 0.3201 0.79396 0.76644 0.0
C165 C 0.31399 0.75465 0.77807 0.0
C166 C 0.33457 0.70325 0.77504 0.0
C167 C 0.36026 0.69185 0.76039 0.0
C168 C 0.47449 0.32911 0.73971 0.0
C169 C 0.45359 0.37589 0.73016 0.0
O170 O 0.22567 0.97897 0.80352 0.0
O171 O 0.39207 0.85345 0.68072 0.0
O172 O 0.48251 0.42083 0.73398 0.0
O173 O 0.31012 0.4947 0.84001 0.0
H174 H 0.14405 0.97452 0.80249 0.0
H175 H 0.17262 0.99954 0.77627 0.0
H176 H 0.20902 0.05583 0.78347 0.0
H177 H 0.13715 0.05466 0.7849 0.0
H178 H 0.31228 0.93672 0.81277 0.0
H179 H 0.16654 0.90392 0.78875 0.0
H180 H 0.35163 0.80548 0.81881 0.0
H181 H 0.37774 0.87168 0.81649 0.0
H182 H 0.38087 0.82458 0.80033 0.0
H183 H 0.14205 0.81767 0.78099 0.0
H184 H 0.17727 0.76263 0.78955 0.0
H185 H 0.19912 0.78955 0.77105 0.0
H186 H 0.29504 0.4417 0.82189 0.0
H187 H 0.34051 0.36714 0.83471 0.0
H188 H 0.35121 0.40696 0.85229 0.0
H189 H 0.383 0.42433 0.83383 0.0
H190 H 0.23525 0.5128 0.81843 0.0
H191 H 0.36582 0.5792 0.8439 0.0
H192 H 0.19986 0.63482 0.7983 0.0
H193 H 0.18502 0.56506 0.8006 0.0
H194 H 0.23564 0.58618 0.78687 0.0
H195 H 0.40037 0.66405 0.83852 0.0
H196 H 0.35306 0.71057 0.83075 0.0
H197 H 0.399 0.67811 0.81762 0.0
H198 H 0.41134 0.38065 0.73382 0.0
H199 H 0.38923 0.45765 0.72315 0.0
H200 H 0.53609 0.49854 0.74541 0.0
H201 H 0.31593 0.56594 0.73613 0.0
H202 H 0.31966 0.51771 0.72028 0.0
H203 H 0.34218 0.58487 0.71724 0.0
H204 H 0.55701 0.58711 0.75238 0.0
H205 H 0.5002 0.61464 0.76267 0.0
H206 H 0.51812 0.63896 0.74349 0.0
H207 H 0.31906 0.8895 0.68231 0.0
H208 H 0.29686 0.87146 0.65393 0.0
H209 H 0.31132 0.81103 0.66422 0.0
H210 H 0.36009 0.83878 0.65101 0.0
H211 H 0.30514 0.80473 0.69208 0.0
H212 H 0.47172 0.83161 0.69813 0.0
H213 H 0.27271 0.75436 0.72719 0.0
H214 H 0.29579 0.69412 0.71808 0.0
H215 H 0.25835 0.74127 0.70674 0.0
H216 H 0.51725 0.80135 0.72073 0.0
H217 H 0.50084 0.73202 0.72221 0.0
H218 H 0.47891 0.77729 0.73736 0.0
H219 H 0.26242 0.73369 0.81506 0.0
H220 H 0.35049 0.5814 0.79213 0.0
H221 H 0.39351 0.56247 0.76755 0.0
H222 H 0.42565 0.6586 0.71961 0.0
H223 H 0.34772 0.81418 0.74345 0.0
H224 H 0.30569 0.83397 0.7683 0.0
H225 H 0.45236 0.29233 0.73668 0.0
H226 H 0.469 0.33726 0.75254 0.0
H227 H 0.51743 0.32258 0.73735 0.0
C228 C 0.79704 0.00131 0.12247 0.0
C229 C 0.79917 0.96417 0.1081 0.0
C230 C 0.76431 0.98575 0.0823 0.0
C231 C 0.75935 0.93545 0.07531 0.0
C232 C 0.7256 0.92748 0.06237 0.0
C233 C 0.69517 0.97053 0.05669 0.0
C234 C 0.69925 0.02098 0.06414 0.0
C235 C 0.7351 0.02818 0.07652 0.0
C236 C 0.72291 0.87328 0.05473 0.0
C237 C 0.6655 0.06747 0.05923 0.0
C238 C 0.39339 0.71506 0.06141 0.0
C239 C 0.40063 0.77463 0.06407 0.0
C240 C 0.43899 0.83399 0.04512 0.0
C241 C 0.44403 0.88329 0.05261 0.0
C242 C 0.48604 0.91739 0.04869 0.0
C243 C 0.52431 0.90087 0.03731 0.0
C244 C 0.51871 0.85104 0.02962 0.0
C245 C 0.47543 0.8185 0.03348 0.0
C246 C 0.48993 0.97054 0.05691 0.0
C247 C 0.5594 0.83126 0.01777 0.0
C248 C 0.47882 0.08463 0.94373 0.0
C249 C 0.49429 0.12311 0.9549 0.0
C250 C 0.53201 0.11161 0.96641 0.0
C251 C 0.55683 0.06127 0.96639 0.0
C252 C 0.54209 0.02258 0.95502 0.0
C253 C 0.50234 0.03447 0.94405 0.0
C254 C 0.54609 0.15421 0.97831 0.0
C255 C 0.56897 0.96915 0.95424 0.0
C256 C 0.97631 0.19272 0.98261 0.0
C257 C 0.93415 0.158 0.97479 0.0
C258 C 0.83784 0.15395 0.97847 0.0
C259 C 0.79464 0.18002 0.98539 0.0
C260 C 0.7458 0.15433 0.98737 0.0
C261 C 0.74012 0.10129 0.98207 0.0
C262 C 0.78297 0.07538 0.97438 0.0
C263 C 0.83152 0.10196 0.97265 0.0
C264 C 0.7007 0.18351 0.99542 0.0
C265 C 0.77777 0.01913 0.96837 0.0
C266 C 0.65863 0.96334 0.04312 0.0
C267 C 0.61147 0.93538 0.04562 0.0
C268 C 0.57185 0.93401 0.03415 0.0
C269 C 0.57827 0.96327 0.02005 0.0
C270 C 0.53705 0.96775 0.00904 0.0
C271 C 0.54388 0.99682 0.99523 0.0
C272 C 0.59262 0.02142 0.99171 0.0
C273 C 0.6003 0.05087 0.97767 0.0
C274 C 0.6492 0.07518 0.97469 0.0
C275 C 0.69052 0.07189 0.98549 0.0
C276 C 0.68365 0.04296 -0.0004 0.0
C277 C 0.72445 0.0394 0.01078 0.0
C278 C 0.71669 0.01255 0.02491 0.0
C279 C 0.66789 0.98817 0.0284 0.0
C280 C 0.62701 0.98935 0.01701 0.0
C281 C 0.63457 0.01753 0.0027 0.0
C282 C 0.37524 0.14408 0.9184 0.0
C283 C 0.42288 0.14448 0.9287 0.0
O284 O 0.79738 0.99462 0.09456 0.0
O285 O 0.88482 0.18014 0.97779 0.0
O286 O 0.44175 0.09454 0.93252 0.0
O287 O 0.40042 0.7999 0.04959 0.0
H288 H 0.76366 0.93781 0.1088 0.0
H289 H 0.76042 0.02574 0.12211 0.0
H290 H 0.83194 0.02827 0.12251 0.0
H291 H 0.79641 0.9782 0.13361 0.0
H292 H 0.78267 0.90281 0.07978 0.0
H293 H 0.7393 0.06678 0.0821 0.0
H294 H 0.68389 0.85493 0.05742 0.0
H295 H 0.75447 0.84641 0.05905 0.0
H296 H 0.72657 0.87665 0.04168 0.0
H297 H 0.66341 0.09848 0.06861 0.0
H298 H 0.62451 0.05458 0.05641 0.0
H299 H 0.683 0.08579 0.04849 0.0
H300 H 0.43984 0.78014 0.0699 0.0
H301 H 0.39572 0.69353 0.07281 0.0
H302 H 0.42523 0.69977 0.05344 0.0
H303 H 0.35429 0.70691 0.05597 0.0
H304 H 0.41524 0.89473 0.06159 0.0
H305 H 0.47099 0.77993 0.02789 0.0
H306 H 0.5 0.0021 0.04828 0.0
H307 H 0.52208 0.96918 0.06577 0.0
H308 H 0.45241 0.98137 0.06312 0.0
H309 H 0.55089 0.79025 0.01364 0.0
H310 H 0.5995 0.83221 0.02308 0.0
H311 H 0.56014 0.85753 0.00731 0.0
H312 H 0.45529 0.17203 0.925 0.0
H313 H 0.47718 0.16241 0.9548 0.0
H314 H 0.49042 0.00504 0.93539 0.0
H315 H 0.55348 0.13712 0.99016 0.0
H316 H 0.51432 0.18456 0.97947 0.0
H317 H 0.58278 0.17451 0.97428 0.0
H318 H 0.55763 0.94618 0.94353 0.0
H319 H 0.55792 0.94572 0.96482 0.0
H320 H 0.61274 0.97414 0.95425 0.0
H321 H 0.93663 0.11817 0.98038 0.0
H322 H 0.01641 0.17551 0.98065 0.0
H323 H 0.96869 0.19509 0.99556 0.0
H324 H 0.97549 0.23357 0.97774 0.0
H325 H 0.79979 0.22019 0.9897 0.0
H326 H 0.86431 0.08178 0.96688 0.0
H327 H 0.68624 0.1607 0.00579 0.0
H328 H 0.66723 0.18724 0.98709 0.0
H329 H 0.71238 0.22386 -0.00055 0.0
H330 H 0.8137 0.00564 0.96179 0.0
H331 H 0.74295 0.01581 0.96048 0.0
H332 H 0.77086 0.99212 0.9785 0.0
H333 H 0.60502 0.91524 0.05677 0.0
H334 H 0.49881 0.94936 0.01111 0.0
H335 H 0.51056 0.99951 0.98729 0.0
H336 H 0.6547 0.09823 0.964 0.0
H337 H 0.76274 0.05778 0.00882 0.0
H338 H 0.74939 0.01126 0.03311 0.0
H339 H 0.38892 0.16252 0.90698 0.0
H340 H 0.31593 0.1782 0.93287 0.0
H341 H 0.37204 0.10275 0.91332 0.0
C342 C 0.24162 0.97527 0.22206 0.0
C343 C 0.2251 0.00053 0.20642 0.0
C344 C 0.27463 0.08534 0.20537 0.0
C345 C 0.32248 0.10771 0.20032 0.0
C346 C 0.33721 0.15915 0.20491 0.0
C347 C 0.30252 0.18955 0.21459 0.0
C348 C 0.25236 0.16864 0.2189 0.0
C349 C 0.23926 0.11635 0.21452 0.0
C350 C 0.39072 0.18032 0.19988 0.0
C351 C 0.21346 0.2006 0.22871 0.0
C352 C 0.35534 0.57971 0.17213 0.0
C353 C 0.30526 0.5453 0.17311 0.0
C354 C 0.30794 0.48189 0.19505 0.0
C355 C 0.27994 0.46707 0.20862 0.0
C356 C 0.28957 0.41846 0.21601 0.0
C357 C 0.32939 0.38427 0.20986 0.0
C358 C 0.35837 0.39914 0.19619 0.0
C359 C 0.34736 0.44785 0.18889 0.0
C360 C 0.25727 0.40387 0.23047 0.0
C361 C 0.40158 0.36401 0.1895 0.0
C362 C 0.5407 0.47141 0.29115 0.0
C363 C 0.48521 0.47227 0.29275 0.0
C364 C 0.45469 0.42796 0.28855 0.0
C365 C 0.48019 0.38223 0.28235 0.0
C366 C 0.53621 0.38067 0.28121 0.0
C367 C 0.56579 0.4252 0.28583 0.0
C368 C 0.39517 0.43038 0.2905 0.0
C369 C 0.56474 0.33239 0.27481 0.0
C370 C 0.25779 0.03258 0.32413 0.0
C371 C 0.31507 0.04693 0.31987 0.0
C372 C 0.34932 0.13574 0.31549 0.0
C373 C 0.32885 0.18702 0.31535 0.0
C374 C 0.34975 0.2253 0.30513 0.0
C375 C 0.39367 0.21221 0.29528 0.0
C376 C 0.41762 0.16164 0.29646 0.0
C377 C 0.3945 0.12341 0.30638 0.0
C378 C 0.3238 0.27922 0.30456 0.0
C379 C 0.46631 0.14745 0.28685 0.0
C380 C 0.3217 0.24022 0.2216 0.0
C381 C 0.3187 0.2868 0.21273 0.0
C382 C 0.34147 0.3341 0.21822 0.0
C383 C 0.37083 0.33417 0.23239 0.0
C384 C 0.39964 0.37904 0.23731 0.0
C385 C 0.42689 0.37917 0.25157 0.0
C386 C 0.42405 0.33546 0.26181 0.0
C387 C 0.44833 0.33635 0.27683 0.0
C388 C 0.44067 0.29405 0.28722 0.0
C389 C 0.41051 0.24993 0.28282 0.0
C390 C 0.3901 0.24622 0.26733 0.0
C391 C 0.36323 0.20058 0.26207 0.0
C392 C 0.34289 0.19763 0.24687 0.0
C393 C 0.34496 0.24165 0.23676 0.0
C394 C 0.3707 0.28844 0.24199 0.0
C395 C 0.39548 0.28983 0.25699 0.0
C396 C 0.60104 0.6014 0.28844 0.0
C397 C 0.55455 0.56673 0.2938 0.0
O398 O 0.2651 0.03399 0.20117 0.0
O399 O 0.32413 0.09898 0.32442 0.0
O400 O 0.57112 0.51444 0.29444 0.0
O401 O 0.29629 0.52965 0.18856 0.0
H402 H 0.18774 0.02276 0.20865 0.0
H403 H 0.2469 0.0067 0.23118 0.0
H404 H 0.27982 0.95375 0.22063 0.0
H405 H 0.21053 0.94771 0.22639 0.0
H406 H 0.34921 0.08386 0.19311 0.0
H407 H 0.20172 0.10038 0.21849 0.0
H408 H 0.38562 0.21804 0.19336 0.0
H409 H 0.41285 0.15192 0.19219 0.0
H410 H 0.41491 0.18912 0.21049 0.0
H411 H 0.17247 0.18501 0.22759 0.0
H412 H 0.21379 0.24291 0.22514 0.0
H413 H 0.22487 0.19869 0.24133 0.0
H414 H 0.31214 0.51024 0.16527 0.0
H415 H 0.35953 0.59728 0.16017 0.0
H416 H 0.39088 0.55497 0.17436 0.0
H417 H 0.35444 0.61186 0.18117 0.0
H418 H 0.24989 0.4937 0.21334 0.0
H419 H 0.37038 0.45944 0.17863 0.0
H420 H 0.24167 0.36284 0.22928 0.0
H421 H 0.22342 0.43136 0.23249 0.0
H422 H 0.28297 0.40512 0.24105 0.0
H423 H 0.42236 0.38234 0.17926 0.0
H424 H 0.38423 0.32563 0.18562 0.0
H425 H 0.43106 0.35527 0.1988 0.0
H426 H 0.52325 0.57093 0.28466 0.0
H427 H 0.46553 0.50742 0.29729 0.0
H428 H 0.60867 0.42476 0.28482 0.0
H429 H 0.37642 0.43136 0.27869 0.0
H430 H 0.38215 0.46602 0.29729 0.0
H431 H 0.38047 0.39446 0.29665 0.0
H432 H 0.60824 0.33873 0.27379 0.0
H433 H 0.54912 0.32176 0.26297 0.0
H434 H 0.55727 0.29819 0.28273 0.0
H435 H 0.31931 0.04264 0.30678 0.0
H436 H 0.2484 0.99159 0.32013 0.0
H437 H 0.23019 0.06025 0.3182 0.0
H438 H 0.25119 0.03554 0.33712 0.0
H439 H 0.29463 0.19616 0.32273 0.0
H440 H 0.41142 0.08399 0.30695 0.0
H441 H 0.3134 0.28929 0.29221 0.0
H442 H 0.35211 0.30964 0.30887 0.0
H443 H 0.28728 0.28138 0.31199 0.0
H444 H 0.48556 0.11077 0.2912 0.0
H445 H 0.49549 0.18046 0.28716 0.0
H446 H 0.45507 0.14096 0.27433 0.0
H447 H 0.29799 0.28634 0.20154 0.0
H448 H 0.4019 0.4143 0.2301 0.0
H449 H 0.44889 0.41457 0.25466 0.0
H450 H 0.45665 0.29641 0.29907 0.0
H451 H 0.35827 0.16619 0.26951 0.0
H452 H 0.32391 0.16091 0.2434 0.0
H453 H 0.634 0.59964 0.29705 0.0
H454 H 0.58808 0.64332 0.28727 0.0
H455 H 0.61601 0.58744 0.27674 0.0
C456 C 0.71557 0.48885 0.29309 0.0
C457 C 0.70868 0.46565 0.30969 0.0
C458 C 0.76154 0.38302 0.31022 0.0
C459 C 0.8111 0.36289 0.31422 0.0
C460 C 0.82569 0.3108 0.31031 0.0
C461 C 0.78914 0.27749 0.30241 0.0
C462 C 0.7374 0.29624 0.29932 0.0
C463 C 0.72434 0.34919 0.30296 0.0
C464 C 0.88113 0.29223 0.31395 0.0
C465 C 0.69693 0.26143 0.2913 0.0
C466 C 0.88201 0.86187 0.33823 0.0
C467 C 0.83841 0.89853 0.33216 0.0
C468 C 0.8461 0.99458 0.32735 0.0
C469 C 0.80942 0.99798 0.31501 0.0
C470 C 0.80532 0.04449 0.30601 0.0
C471 C 0.8389 0.08823 0.30934 0.0
C472 C 0.87485 0.08523 0.32205 0.0
C473 C 0.87744 0.03862 0.331 0.0
C474 C 0.76538 0.04674 0.29286 0.0
C475 C 0.91096 0.13097 0.32612 0.0
C476 C 0.04261 0.01148 0.2257 0.0
C477 C 0.9875 0.00731 0.22366 0.0
C478 C 0.95392 0.05002 0.22731 0.0
C479 C 0.97576 0.09734 0.23353 0.0
C480 C 0.03137 0.10227 0.23514 0.0
C481 C 0.0642 0.05943 0.23092 0.0
C482 C 0.89497 0.04407 0.22488 0.0
C483 C 0.05597 0.15227 0.2417 0.0
C484 C 0.75239 0.44151 0.19639 0.0
C485 C 0.81248 0.43545 0.19784 0.0
C486 C 0.84725 0.34652 0.20176 0.0
C487 C 0.8261 0.29554 0.20063 0.0
C488 C 0.84333 0.25503 0.21062 0.0
C489 C 0.88407 0.26563 0.22162 0.0
C490 C 0.90844 0.31627 0.22195 0.0
C491 C 0.88922 0.35653 0.21213 0.0
C492 C 0.81688 0.20136 0.20973 0.0
C493 C 0.95365 0.32822 0.23298 0.0
C494 C 0.80842 0.22707 0.29522 0.0
C495 C 0.81143 0.18156 0.30457 0.0
C496 C 0.83792 0.13603 0.29909 0.0
C497 C 0.86394 0.13679 0.28417 0.0
C498 C 0.89593 0.0943 0.27898 0.0
C499 C 0.92182 0.09583 0.26438 0.0
C500 C 0.91529 0.13911 0.25414 0.0
C501 C 0.94027 0.14057 0.23909 0.0
C502 C 0.93091 0.18303 0.22894 0.0
C503 C 0.89779 0.22493 0.23352 0.0
C504 C 0.87493 0.22562 0.24886 0.0
C505 C 0.84393 0.26857 0.2542 0.0
C506 C 0.82298 0.26958 0.26944 0.0
C507 C 0.82943 0.22627 0.27966 0.0
C508 C 0.85849 0.18157 0.27429 0.0
C509 C 0.88298 0.18211 0.25909 0.0
C510 C 0.11042 0.88457 0.22877 0.0
C511 C 0.06192 0.91695 0.22406 0.0
O512 O 0.75248 0.43525 0.31337 0.0
O513 O 0.82665 0.38512 0.1926 0.0
O514 O 0.07586 0.96997 0.223 0.0
O515 O 0.85203 0.95021 0.33621 0.0
H516 H 0.67196 0.4413 0.30962 0.0
H517 H 0.71527 0.45626 0.28419 0.0
H518 H 0.75396 0.51017 0.29197 0.0
H519 H 0.68247 0.51618 0.2904 0.0
H520 H 0.83927 0.38902 0.31996 0.0
H521 H 0.68559 0.36355 0.29974 0.0
H522 H 0.87919 0.25588 0.32125 0.0
H523 H 0.90446 0.32274 0.3204 0.0
H524 H 0.90242 0.28195 0.3028 0.0
H525 H 0.65594 0.27604 0.29346 0.0
H526 H 0.69974 0.21989 0.2955 0.0
H527 H 0.7046 0.26133 0.27836 0.0
H528 H 0.83751 0.89366 0.31907 0.0
H529 H 0.87501 0.82022 0.33442 0.0
H530 H 0.88373 0.86354 0.35135 0.0
H531 H 0.92106 0.87448 0.33336 0.0
H532 H 0.78365 0.96472 0.31245 0.0
H533 H 0.90497 0.0359 0.34073 0.0
H534 H 0.74203 0.08402 0.29371 0.0
H535 H 0.73766 0.01247 0.29309 0.0
H536 H 0.78651 0.04671 0.28128 0.0
H537 H 0.94148 0.11976 0.33488 0.0
H538 H 0.88688 0.16385 0.3312 0.0
H539 H 0.93119 0.14601 0.31533 0.0
H540 H 0.03197 0.91191 0.23372 0.0
H541 H 0.97036 0.97083 0.21927 0.0
H542 H 0.10682 0.06247 0.23225 0.0
H543 H 0.8746 0.04188 0.23655 0.0
H544 H 0.88509 0.00774 0.218 0.0
H545 H 0.87909 0.07913 0.21862 0.0
H546 H 0.09924 0.14789 0.24363 0.0
H547 H 0.03672 0.16324 0.25312 0.0
H548 H 0.04937 0.1854 0.23336 0.0
H549 H 0.82244 0.44089 0.21057 0.0
H550 H 0.73208 0.41044 0.20347 0.0
H551 H 0.7394 0.48092 0.20094 0.0
H552 H 0.74016 0.43724 0.18385 0.0
H553 H 0.79442 0.28819 0.19232 0.0
H554 H 0.90684 0.39573 0.21253 0.0
H555 H 0.80086 0.19033 0.22153 0.0
H556 H 0.84658 0.1709 0.20622 0.0
H557 H 0.78401 0.20042 0.20107 0.0
H558 H 0.97384 0.36608 0.22999 0.0
H559 H 0.9832 0.29556 0.23258 0.0
H560 H 0.93827 0.33123 0.24529 0.0
H561 H 0.79415 0.18203 0.31637 0.0
H562 H 0.90203 0.05972 0.28626 0.0
H563 H 0.94653 0.0623 0.26115 0.0
H564 H 0.94877 0.18294 0.21722 0.0
H565 H 0.83638 0.30254 0.24681 0.0
H566 H 0.80089 0.30454 0.27297 0.0
H567 H 0.09915 0.84241 0.23058 0.0
H568 H 0.12686 0.90032 0.24 0.0
H569 H 0.14167 0.8864 0.21945 0.0
C570 C 0.66418 0.51503 0.73677 0.0
C571 C 0.65779 0.53461 0.71978 0.0
C572 C 0.71784 0.61206 0.71757 0.0
C573 C 0.76717 0.62832 0.71173 0.0
C574 C 0.78672 0.67946 0.71475 0.0
C575 C 0.75566 0.71566 0.72372 0.0
C576 C 0.70449 0.70043 0.72905 0.0
C577 C 0.68627 0.64857 0.72609 0.0
C578 C 0.84137 0.69417 0.70882 0.0
C579 C 0.66987 0.73833 0.73839 0.0
C580 C 0.86429 0.13404 0.68819 0.0
C581 C 0.81952 0.0956 0.69246 0.0
C582 C 0.82249 0.99847 0.69534 0.0
C583 C 0.77963 0.99385 0.70597 0.0
C584 C 0.77054 0.94625 0.71413 0.0
C585 C 0.80529 0.90274 0.7117 0.0
C586 C 0.84617 0.90627 0.70019 0.0
C587 C 0.8539 0.95405 0.69206 0.0
C588 C 0.72558 0.94339 0.72597 0.0
C589 C 0.88351 0.86054 0.6971 0.0
C590 C 0.99546 0.01549 0.79335 0.0
C591 C 0.94057 0.01433 0.79638 0.0
C592 C 0.91087 0.96839 0.79332 0.0
C593 C 0.93655 0.92302 0.78698 0.0
C594 C 0.99205 0.92363 0.78436 0.0
C595 C 0.02084 0.96985 0.78773 0.0
C596 C 0.85193 0.96857 0.79656 0.0
C597 C 0.02081 0.87585 0.77771 0.0
C598 C 0.79946 0.64579 0.85903 0.0
C599 C 0.82514 0.61153 0.84598 0.0
C600 C 0.8661 0.67169 0.82648 0.0
C601 C 0.81977 0.69722 0.82149 0.0
C602 C 0.82185 0.7353 0.80945 0.0
C603 C 0.87076 0.74559 0.80163 0.0
C604 C 0.91697 0.718 0.80621 0.0
C605 C 0.91412 0.68236 0.81882 0.0
C606 C 0.77187 0.76518 0.80546 0.0
C607 C 0.9698 0.72669 0.79809 0.0
C608 C 0.77942 0.76667 0.72909 0.0
C609 C 0.77951 0.81018 0.71883 0.0
C610 C 0.80475 0.85774 0.723 0.0
C611 C 0.83057 0.86217 0.73774 0.0
C612 C 0.85818 0.90859 0.74203 0.0
C613 C 0.8831 0.91288 0.75656 0.0
C614 C 0.88087 0.87123 0.76749 0.0
C615 C 0.90518 0.87567 0.78243 0.0
C616 C 0.90067 0.83437 0.79325 0.0
C617 C 0.87437 0.78729 0.78934 0.0
C618 C 0.852 0.78108 0.77415 0.0
C619 C 0.82824 0.73319 0.76941 0.0
C620 C 0.80483 0.72821 0.75464 0.0
C621 C 0.80405 0.77103 0.74403 0.0
C622 C 0.82934 0.81906 0.74838 0.0
C623 C 0.85396 0.82383 0.76337 0.0
C624 C 0.05006 0.14861 0.79051 0.0
C625 C 0.00667 0.11131 0.79655 0.0
O626 O 0.7033 0.56082 0.71484 0.0
O627 O 0.86708 0.63818 0.83895 0.0
O628 O 0.02523 0.05971 0.7956 0.0
O629 O 0.83529 0.04478 0.68808 0.0
H630 H 0.6231 0.56179 0.71947 0.0
H631 H 0.66587 0.54937 0.74504 0.0
H632 H 0.70128 0.49178 0.73801 0.0
H633 H 0.62997 0.48979 0.74024 0.0
H634 H 0.79108 0.60008 0.70508 0.0
H635 H 0.64792 0.63696 0.73073 0.0
H636 H 0.83862 0.72905 0.70094 0.0
H637 H 0.86081 0.6612 0.7022 0.0
H638 H 0.86686 0.70554 0.71894 0.0
H639 H 0.62844 0.72371 0.73954 0.0
H640 H 0.66944 0.77786 0.73267 0.0
H641 H 0.68638 0.74357 0.75042 0.0
H642 H 0.81368 0.09807 0.70551 0.0
H643 H 0.87163 0.1339 0.67521 0.0
H644 H 0.90134 0.12198 0.6942 0.0
H645 H 0.85426 0.17502 0.69211 0.0
H646 H 0.75375 0.02742 0.70814 0.0
H647 H 0.88614 0.95768 0.68357 0.0
H648 H 0.70419 0.90506 0.72479 0.0
H649 H 0.69691 0.97642 0.72454 0.0
H650 H 0.74188 0.94555 0.73811 0.0
H651 H 0.91248 0.86913 0.68748 0.0
H652 H 0.86046 0.82466 0.69382 0.0
H653 H 0.90564 0.85136 0.70804 0.0
H654 H 0.97205 0.1162 0.78859 0.0
H655 H 0.92068 0.04909 0.8011 0.0
H656 H 0.06322 0.97107 0.78556 0.0
H657 H 0.83031 0.96497 0.78523 0.0
H658 H 0.83866 0.00539 0.80271 0.0
H659 H 0.84087 0.93389 0.80392 0.0
H660 H 0.06379 0.8835 0.77583 0.0
H661 H 0.00305 0.86389 0.76626 0.0
H662 H 0.01623 0.84201 0.78593 0.0
H663 H 0.79476 0.60142 0.83697 0.0
H664 H 0.76725 0.62325 0.86503 0.0
H665 H 0.78187 0.68223 0.85404 0.0
H666 H 0.82916 0.65802 0.86797 0.0
H667 H 0.78219 0.68895 0.8272 0.0
H668 H 0.94962 0.66233 0.82276 0.0
H669 H 0.75464 0.74831 0.7945 0.0
H670 H 0.78038 0.8078 0.80337 0.0
H671 H 0.74148 0.76214 0.81501 0.0
H672 H 0.99759 0.69333 0.80019 0.0
H673 H 0.98812 0.76346 0.80284 0.0
H674 H 0.96491 0.73147 0.78514 0.0
H675 H 0.76057 0.80668 0.70741 0.0
H676 H 0.86114 0.94226 0.7342 0.0
H677 H 0.90372 0.94956 0.75915 0.0
H678 H 0.91826 0.83881 0.80485 0.0
H679 H 0.82746 0.69898 0.77707 0.0
H680 H 0.78705 0.69035 0.75172 0.0
H681 H 0.08635 0.14513 0.7978 0.0
H682 H 0.03604 0.19039 0.79088 0.0
H683 H 0.06049 0.13828 0.77808 0.0
C684 C 0.66027 0.74832 0.08594 0.0
C685 C 0.6903 0.69544 0.08467 0.0
C686 C 0.64878 0.64924 0.06296 0.0
C687 C 0.63271 0.60112 0.06969 0.0
C688 C 0.58969 0.5726 0.0635 0.0
C689 C 0.56214 0.59292 0.05035 0.0
C690 C 0.57861 0.64139 0.04349 0.0
C691 C 0.62232 0.6686 0.04977 0.0
C692 C 0.57372 0.52078 0.07098 0.0
C693 C 0.54973 0.66461 0.02962 0.0
C694 C 0.15615 0.58196 0.07924 0.0
C695 C 0.17057 0.54295 0.06666 0.0
C696 C 0.26711 0.5292 0.06458 0.0
C697 C 0.27755 0.56977 0.05365 0.0
C698 C 0.32912 0.57751 0.04759 0.0
C699 C 0.37099 0.54456 0.05275 0.0
C700 C 0.36096 0.50626 0.06457 0.0
C701 C 0.3091 0.49899 0.07024 0.0
C702 C 0.33753 0.61745 0.0346 0.0
C703 C 0.40446 0.47065 0.07051 0.0
C704 C 0.29236 0.38886 0.97095 0.0
C705 C 0.32275 0.43088 0.96481 0.0
C706 C 0.37598 0.43735 0.9691 0.0
C707 C 0.39936 0.40085 0.97957 0.0
C708 C 0.37096 0.35497 0.98411 0.0
C709 C 0.31761 0.34965 0.97975 0.0
C710 C 0.40602 0.48551 0.96342 0.0
C711 C 0.39542 0.31419 0.99476 0.0
C712 C 0.81048 0.33743 0.98579 0.0
C713 C 0.78077 0.33318 0.97006 0.0
C714 C 0.69925 0.38672 0.97311 0.0
C715 C 0.67365 0.43242 0.96787 0.0
C716 C 0.62209 0.44515 0.973 0.0
C717 C 0.59572 0.4115 0.98383 0.0
C718 C 0.62096 0.36467 0.98901 0.0
C719 C 0.67248 0.35273 0.98362 0.0
C720 C 0.59606 0.49493 0.96702 0.0
C721 C 0.59368 0.32759 0.00043 0.0
C722 C 0.51707 0.56288 0.04347 0.0
C723 C 0.46654 0.5692 0.05028 0.0
C724 C 0.42246 0.54296 0.04402 0.0
C725 C 0.42839 0.51151 0.03021 0.0
C726 C 0.38445 0.48707 0.0231 0.0
C727 C 0.3903 0.45704 0.00941 0.0
C728 C 0.44066 0.44806 0.00262 0.0
C729 C 0.44675 0.41755 0.98862 0.0
C730 C 0.49754 0.40625 0.98274 0.0
C731 C 0.54269 0.42632 0.99027 0.0
C732 C 0.53701 0.46006 0.00366 0.0
C733 C 0.58114 0.48374 0.01095 0.0
C734 C 0.57477 0.51788 0.02387 0.0
C735 C 0.52415 0.52844 0.0303 0.0
C736 C 0.47944 0.50364 0.02346 0.0
C737 C 0.48576 0.47048 0.00992 0.0
C738 C 0.16421 0.43258 0.97886 0.0
C739 C 0.2034 0.42453 0.96509 0.0
O740 O 0.68937 0.67781 0.06912 0.0
O741 O 0.74966 0.37777 0.96785 0.0
O742 O 0.23899 0.38476 0.96897 0.0
O743 O 0.2174 0.51596 0.06947 0.0
H744 H 0.66866 0.6673 0.09252 0.0
H745 H 0.61807 0.7422 0.08273 0.0
H746 H 0.67745 0.77797 0.07769 0.0
H747 H 0.66127 0.76396 0.09825 0.0
H748 H 0.65413 0.58569 0.07971 0.0
H749 H 0.6352 0.70582 0.04467 0.0
H750 H 0.53347 0.52483 0.07627 0.0
H751 H 0.60155 0.50846 0.08038 0.0
H752 H 0.57194 0.489 0.06184 0.0
H753 H 0.56607 0.70376 0.02612 0.0
H754 H 0.507 0.66933 0.0326 0.0
H755 H 0.5527 0.63715 0.01933 0.0
H756 H 0.16521 0.55485 0.05412 0.0
H757 H 0.15558 0.62134 0.07304 0.0
H758 H 0.19358 0.59078 0.08596 0.0
H759 H 0.0882 0.54895 0.09 0.0
H760 H 0.24551 0.59398 0.04929 0.0
H761 H 0.3007 0.46826 0.07881 0.0
H762 H 0.33358 0.59712 0.02299 0.0
H763 H 0.37776 0.63521 0.03508 0.0
H764 H 0.30745 0.6496 0.03522 0.0
H765 H 0.39049 0.44401 0.08009 0.0
H766 H 0.43767 0.49512 0.07504 0.0
H767 H 0.42019 0.44591 0.06061 0.0
H768 H 0.22308 0.46359 0.96363 0.0
H769 H 0.30527 0.45967 0.95703 0.0
H770 H 0.29452 0.31627 0.98398 0.0
H771 H 0.41047 0.51404 0.97339 0.0
H772 H 0.38539 0.50586 0.95363 0.0
H773 H 0.44641 0.474 0.95934 0.0
H774 H 0.37225 0.27668 0.99489 0.0
H775 H 0.39689 0.33024 0.00701 0.0
H776 H 0.43675 0.30544 0.99091 0.0
H777 H 0.75568 0.29687 0.97049 0.0
H778 H 0.8417 0.30646 0.98646 0.0
H779 H 0.7825 0.33172 0.99584 0.0
H780 H 0.82913 0.37707 0.98719 0.0
H781 H 0.69445 0.45835 0.95974 0.0
H782 H 0.69157 0.31729 0.98788 0.0
H783 H 0.58954 0.52302 0.97702 0.0
H784 H 0.55664 0.48525 0.96202 0.0
H785 H 0.62039 0.51498 0.95782 0.0
H786 H 0.61851 0.29263 0.00331 0.0
H787 H 0.55583 0.31338 0.99529 0.0
H788 H 0.58383 0.34922 0.01156 0.0
H789 H 0.46163 0.59405 0.06072 0.0
H790 H 0.3447 0.49143 0.02783 0.0
H791 H 0.3546 0.44043 0.00439 0.0
H792 H 0.50194 0.38213 0.97214 0.0
H793 H 0.62107 0.47676 0.00662 0.0
H794 H 0.61011 0.53543 0.02886 0.0
H795 H 0.13217 0.46044 0.9755 0.0
H796 H 0.18541 0.4498 0.98916 0.0
H797 H 0.14664 0.39424 0.98265 0.0
C798 C 0.84421 0.69896 0.47588 0.0
C799 C 0.86982 0.66163 0.46368 0.0
C800 C 0.92212 0.59062 0.47552 0.0
C801 C 0.92783 0.53557 0.47504 0.0
C802 C 0.97535 0.5114 0.47955 0.0
C803 C 0.01746 0.54328 0.48516 0.0
C804 C 0.01102 0.59893 0.48638 0.0
C805 C 0.96343 0.6221 0.48149 0.0
C806 C 0.98103 0.452 0.47794 0.0
C807 C 0.0548 0.63401 0.49257 0.0
C808 C 0.26061 0.58055 0.40273 0.0
C809 C 0.28901 0.58555 0.41857 0.0
C810 C 0.26147 0.52642 0.4398 0.0
C811 C 0.26048 0.56272 0.45245 0.0
C812 C 0.22934 0.55297 0.46595 0.0
C813 C 0.1989 0.50588 0.46679 0.0
C814 C 0.20252 0.46774 0.45448 0.0
C815 C 0.23436 0.47834 0.44118 0.0
C816 C 0.2275 0.5938 0.47907 0.0
C817 C 0.17105 0.41687 0.4551 0.0
C818 C 0.35153 0.32214 0.54532 0.0
C819 C 0.34538 0.3764 0.54885 0.0
C820 C 0.29647 0.40166 0.54669 0.0
C821 C 0.2531 0.37214 0.54084 0.0
C822 C 0.25883 0.31729 0.53765 0.0
C823 C 0.30802 0.29294 0.54004 0.0
C824 C 0.29124 0.46002 0.55048 0.0
C825 C 0.21316 0.28465 0.53152 0.0
C826 C 0.97253 0.47742 0.62004 0.0
C827 C 0.94023 0.45648 0.60604 0.0
C828 C 0.00198 0.41904 0.58617 0.0
C829 C 0.02778 0.46649 0.58209 0.0
C830 C 0.06509 0.46766 0.56968 0.0
C831 C 0.07508 0.42093 0.56073 0.0
C832 C 0.04878 0.37319 0.56475 0.0
C833 C 0.01324 0.37281 0.5776 0.0
C834 C 0.09407 0.51883 0.56627 0.0
C835 C 0.05827 0.32242 0.55558 0.0
C836 C 0.06934 0.5189 0.48879 0.0
C837 C 0.10889 0.5213 0.47717 0.0
C838 C 0.15898 0.49949 0.47962 0.0
C839 C 0.17004 0.47379 0.49401 0.0
C840 C 0.21968 0.45052 0.49676 0.0
C841 C 0.23012 0.42545 0.51101 0.0
C842 C 0.19154 0.42346 0.52313 0.0
C843 C 0.20197 0.3988 0.53773 0.0
C844 C 0.16339 0.39873 0.54968 0.0
C845 C 0.11369 0.42174 0.54737 0.0
C846 C 0.10186 0.4453 0.53267 0.0
C847 C 0.05173 0.46739 0.52974 0.0
C848 C 0.04101 0.49175 0.51541 0.0
C849 C 0.07975 0.49421 0.50338 0.0
C850 C 0.1303 0.47148 0.50598 0.0
C851 C 0.14124 0.44673 0.5206 0.0
C852 C 0.49044 0.28098 0.54337 0.0
C853 C 0.44763 0.31935 0.54931 0.0
O854 O 0.87628 0.6117 0.47013 0.0
O855 O 0.96706 0.41553 0.59845 0.0
O856 O 0.39849 0.29644 0.54681 0.0
O857 O 0.28774 0.53684 0.4261 0.0
H858 H 0.9089 0.67848 0.46006 0.0
H859 H 0.87005 0.70294 0.48639 0.0
H860 H 0.80506 0.6834 0.47982 0.0
H861 H 0.83869 0.739 0.47074 0.0
H862 H 0.89541 0.51167 0.47059 0.0
H863 H 0.95874 0.66469 0.48237 0.0
H864 H 0.01636 0.4423 0.47053 0.0
H865 H 0.94557 0.43326 0.47255 0.0
H866 H 0.98724 0.43435 0.48976 0.0
H867 H 0.04106 0.67524 0.49487 0.0
H868 H 0.08762 0.6353 0.48375 0.0
H869 H 0.07099 0.61754 0.50368 0.0
H870 H 0.26711 0.61624 0.42556 0.0
H871 H 0.26112 0.61915 0.39646 0.0
H872 H 0.27988 0.54994 0.3951 0.0
H873 H 0.21864 0.56884 0.40477 0.0
H874 H 0.28351 0.59892 0.4517 0.0
H875 H 0.23634 0.45013 0.43146 0.0
H876 H 0.18743 0.61196 0.47962 0.0
H877 H 0.25723 0.62582 0.47733 0.0
H878 H 0.23468 0.57455 0.49063 0.0
H879 H 0.18066 0.38987 0.44504 0.0
H880 H 0.12802 0.42615 0.45486 0.0
H881 H 0.17895 0.39592 0.46634 0.0
H882 H 0.45152 0.35611 0.54216 0.0
H883 H 0.37844 0.39927 0.55327 0.0
H884 H 0.31304 0.251 0.53754 0.0
H885 H 0.2821 0.48208 0.53952 0.0
H886 H 0.32794 0.47681 0.55569 0.0
H887 H 0.25777 0.46651 0.5589 0.0
H888 H 0.22429 0.24255 0.5294 0.0
H889 H 0.19865 0.30171 0.52029 0.0
H890 H 0.17985 0.2861 0.54019 0.0
H891 H 0.9332 0.48954 0.59765 0.0
H892 H 0.95034 0.50949 0.62629 0.0
H893 H 0.01093 0.49398 0.61592 0.0
H894 H 0.98099 0.44517 0.62855 0.0
H895 H 0.01983 0.50255 0.58869 0.0
H896 H 0.99341 0.33632 0.58092 0.0
H897 H 0.07769 0.537 0.55545 0.0
H898 H 0.13694 0.5113 0.56413 0.0
H899 H 0.08986 0.54794 0.57613 0.0
H900 H 0.02826 0.29155 0.55842 0.0
H901 H 0.09802 0.30659 0.55851 0.0
H902 H 0.05764 0.32993 0.54265 0.0
H903 H 0.10064 0.54077 0.46605 0.0
H904 H 0.25091 0.45127 0.48789 0.0
H905 H 0.26898 0.40802 0.51244 0.0
H906 H 0.17219 0.38045 0.56093 0.0
H907 H 0.02023 0.46631 0.53851 0.0
H908 H 0.00193 0.50862 0.51388 0.0
H909 H 0.53047 0.29869 0.54486 0.0
H910 H 0.48462 0.2724 0.5306 0.0
H911 H 0.48845 0.24299 0.54996 0.0
C912 C 0.11058 0.6454 0.15173 0.0
C913 C 0.91116 0.60285 0.16083 0.0
C914 C 0.88834 0.69496 0.11825 0.0
Mg915 Mg 0.16917 0.74083 0.13482 0.0
Mg916 Mg 0.11908 0.85265 0.12055 0.0
O917 O 0.10907 0.78138 0.12548 0.0
Mg918 Mg 0.04882 0.74381 0.13613 0.0
O919 O 0.99327 0.69822 0.14617 0.0
Mg920 Mg 0.99929 0.63415 0.13205 0.0
Mg921 Mg 0.92571 0.72146 0.15195 0.0
C922 C 0.99364 0.84469 0.11616 0.0
O923 O 0.03672 0.80205 0.15705 0.0
O924 O 0.22582 0.78175 0.11733 0.0
O925 O 0.95223 0.79001 0.16551 0.0
O926 O 0.1827 0.81011 0.15337 0.0
O927 O 0.1855 0.8468 0.10404 0.0
O928 O 0.14724 0.88267 0.14247 0.0
O929 O 0.05788 0.68207 0.11638 0.0
O930 O 0.1472 0.67768 0.11638 0.0
C931 C 0.10187 0.66216 0.11132 0.0
C932 C 0.22561 0.81679 0.10645 0.0
O933 O 0.99129 0.79832 0.12247 0.0
O934 O 0.94362 0.59038 0.14962 0.0
O935 O 0.03711 0.87093 0.11457 0.0
O936 O 0.92461 0.65928 0.1174 0.0
O937 O 0.89969 0.65113 0.16424 0.0
O938 O 0.88416 0.72657 0.13006 0.0
O939 O 0.10848 0.69591 0.14993 0.0
O940 O 0.07338 0.61493 0.14671 0.0
C941 C 0.17159 0.85999 0.15374 0.0
C942 C 0.99752 0.81328 0.16634 0.0
C943 C 0.63129 0.82786 0.4014 0.0
C944 C 0.72839 0.65748 0.40989 0.0
C945 C 0.67456 0.61391 0.36196 0.0
Mg946 Mg 0.53055 0.8614 0.38102 0.0
Mg947 Mg 0.44485 0.77643 0.36543 0.0
O948 O 0.5156 0.79495 0.36868 0.0
Mg949 Mg 0.56616 0.74638 0.37929 0.0
O950 O 0.62174 0.70425 0.39007 0.0
Mg951 Mg 0.68672 0.73483 0.37978 0.0
Mg952 Mg 0.62114 0.63205 0.39455 0.0
C953 C 0.50305 0.67431 0.35196 0.0
O954 O 0.50306 0.70443 0.39527 0.0
O955 O 0.47588 0.90538 0.36332 0.0
O956 O 0.53863 0.62497 0.40152 0.0
O957 O 0.45696 0.84857 0.39749 0.0
O958 O 0.42304 0.84445 0.3519 0.0
O959 O 0.4063 0.78305 0.388 0.0
O960 O 0.63085 0.78248 0.36365 0.0
O961 O 0.60445 0.86755 0.36485 0.0
C962 C 0.63769 0.83174 0.36032 0.0
C963 C 0.4396 0.89221 0.35346 0.0
O964 O 0.54483 0.68418 0.36012 0.0
O965 O 0.73628 0.69152 0.39887 0.0
O966 O 0.46035 0.70188 0.35323 0.0
O967 O 0.69289 0.66152 0.36226 0.0
O968 O 0.68519 0.63098 0.41105 0.0
O969 O 0.64541 0.59585 0.37308 0.0
O970 O 0.58493 0.81212 0.39721 0.0
O971 O 0.6737 0.80429 0.39668 0.0
C972 C 0.41639 0.81803 0.39855 0.0
C973 C 0.49979 0.65786 0.40143 0.0
C974 C 0.62966 0.16271 0.6596 0.0
C975 C 0.44206 0.07973 0.65179 0.0
C976 C 0.4367 0.17238 0.61038 0.0
Mg977 Mg 0.68016 0.27235 0.6485 0.0
Mg978 Mg 0.61613 0.37559 0.63353 0.0
O979 O 0.62327 0.30206 0.63493 0.0
Mg980 Mg 0.56531 0.25034 0.63998 0.0
O981 O 0.51326 0.19286 0.64497 0.0
Mg982 Mg 0.54436 0.13473 0.63173 0.0
Mg983 Mg 0.43966 0.20067 0.6457 0.0
C984 C 0.51721 0.33729 0.61354 0.0
O985 O 0.52262 0.29979 0.65939 0.0
O986 O 0.73876 0.33038 0.63662 0.0
O987 O 0.43845 0.2695 0.66143 0.0
O988 O 0.66285 0.33777 0.66805 0.0
O989 O 0.69465 0.39674 0.62511 0.0
O990 O 0.60983 0.39969 0.65761 0.0
O991 O 0.60407 0.19608 0.62182 0.0
O992 O 0.68906 0.21074 0.62843 0.0
C993 C 0.65384 0.18626 0.62021 0.0
C994 C 0.738 0.37292 0.6284 0.0
O995 O 0.51627 0.29197 0.62051 0.0
O996 O 0.48547 0.07757 0.64378 0.0
O997 O 0.54965 0.3745 0.61735 0.0
O998 O 0.48063 0.14735 0.61211 0.0
O999 O 0.4182 0.12361 0.65472 0.0
O1000 O 0.41617 0.20027 0.62154 0.0
O1001 O 0.61909 0.21236 0.65819 0.0
O1002 O 0.60498 0.12719 0.65156 0.0
C1003 C 0.63541 0.38073 0.66925 0.0
C1004 C 0.47611 0.30054 0.66582 0.0
C1005 C 0.13052 0.33403 0.90657 0.0
C1006 C 0.23764 0.16909 0.90191 0.0
C1007 C 0.15166 0.13926 0.8577 0.0
Mg1008 Mg 0.01934 0.37355 0.89323 0.0
Mg1009 Mg 0.92417 0.29841 0.87765 0.0
O1010 O 0.99666 0.31249 0.87977 0.0
Mg1011 Mg 0.05432 0.26122 0.88522 0.0
O1012 O 0.11725 0.21718 0.8906 0.0
Mg1013 Mg 0.17346 0.25474 0.87822 0.0
Mg1014 Mg 0.12194 0.14396 0.89316 0.0
C1015 C 0.97607 0.20142 0.85856 0.0
O1016 O 0.00785 0.21284 0.9042 0.0
O1017 O 0.95776 0.4247 0.88044 0.0
O1018 O 0.05084 0.13507 0.90749 0.0
O1019 O 0.95462 0.35272 0.91213 0.0
O1020 O 0.89792 0.37351 0.86815 0.0
O1021 O 0.8962 0.29562 0.90165 0.0
O1022 O 0.10694 0.30554 0.86743 0.0
O1023 O 0.08207 0.38824 0.87403 0.0
C1024 C 0.1117 0.35612 0.8661 0.0
C1025 C 0.91702 0.41921 0.87161 0.0
O1026 O 0.02077 0.20686 0.86563 0.0
O1027 O 0.23611 0.20803 0.89227 0.0
O1028 O 0.93497 0.22971 0.86198 0.0
O1029 O 0.16984 0.18703 0.8585 0.0
O1030 O 0.19762 0.13929 0.90461 0.0
O1031 O 0.12953 0.11679 0.86954 0.0
O1032 O 0.08277 0.31869 0.90406 0.0
O1033 O 0.16984 0.31601 0.8984 0.0
C1034 C 0.91293 0.32362 0.91326 0.0
C1035 C 0.01309 0.16743 0.91097 0.0
C1036 C 0.29522 0.80198 0.42499 0.0
C1037 C 0.30325 0.84142 0.43653 0.0
H1038 H 0.32404 0.76403 0.40396 0.0
C1039 C 0.34885 0.87348 0.43543 0.0
H1040 H 0.26002 0.77734 0.4253 0.0
C1041 C 0.38632 0.86505 0.42337 0.0
C1042 C 0.37837 0.8253 0.41189 0.0
H1043 H 0.35551 0.90533 0.44382 0.0
H1044 H 0.42103 0.89033 0.42292 0.0
C1045 C 0.33209 0.79426 0.41277 0.0
C1046 C 0.3485 0.98128 0.6712 0.0
C1047 C 0.37381 0.93293 0.6677 0.0
H1048 H 0.35034 0.06583 0.66904 0.0
C1049 C 0.42119 0.93325 0.65884 0.0
H1050 H 0.31181 0.98205 0.67796 0.0
C1051 C 0.44333 0.98091 0.65379 0.0
C1052 C 0.41847 0.02947 0.65742 0.0
H1053 H 0.44141 0.89649 0.65595 0.0
H1054 H 0.48 0.97953 0.64704 0.0
C1055 C 0.37066 0.02916 0.66612 0.0
C1056 C 0.37339 0.22819 0.92961 0.0
C1057 C 0.38656 0.16466 0.93985 0.0
H1058 H 0.31703 0.2582 0.9071 0.0
C1059 C 0.33697 0.10998 0.94113 0.0
H1060 H 0.4004 0.26148 0.93027 0.0
C1061 C 0.28833 0.11008 0.92569 0.0
C1062 C 0.28329 0.16558 0.91239 0.0
H1063 H 0.34287 0.07566 0.94852 0.0
H1064 H 0.26087 0.07728 0.9247 0.0
C1065 C 0.32374 0.22427 0.91458 0.0
C1066 C 0.22258 0.90622 0.19389 0.0
C1067 C 0.21273 0.96136 0.1932 0.0
H1068 H 0.21692 0.83067 0.18205 0.0
C1069 C 0.19091 0.98203 0.17936 0.0
H1070 H 0.23983 0.88837 0.20422 0.0
C1071 C 0.17827 0.94902 0.16669 0.0
C1072 C 0.18702 0.89392 0.16739 0.0
H1073 H 0.18325 0.02418 0.17839 0.0
H1074 H 0.16119 0.96706 0.15633 0.0
C1075 C 0.20958 0.87285 0.18112 0.0
C1076 C 0.37388 0.09452 0.5773 0.0
C1077 C 0.32367 0.11859 0.57663 0.0
H1078 H 0.45021 0.0938 0.58814 0.0
C1079 C 0.31546 0.16678 0.58474 0.0
H1080 H 0.38122 0.0572 0.57124 0.0
C1081 C 0.35474 0.18752 0.59455 0.0
C1082 C 0.40316 0.1606 0.59645 0.0
H1083 H 0.27713 0.18612 0.58452 0.0
H1084 H 0.34553 0.22254 0.60154 0.0
C1085 C 0.41345 0.11558 0.587 0.0
C1086 C 0.18506 0.09542 0.8155 0.0
C1087 C 0.16903 0.04172 0.81575 0.0
H1088 H 0.19122 0.16891 0.82842 0.0
C1089 C 0.14866 0.02102 0.82989 0.0
H1090 H 0.20247 0.11264 0.805 0.0
C1091 C 0.14287 0.05298 0.84328 0.0
C1092 C 0.15765 0.10689 0.84304 0.0
H1093 H 0.13726 0.97964 0.83062 0.0
H1094 H 0.12683 0.03498 0.85388 0.0
C1095 C 0.17892 0.12779 0.82898 0.0
C1096 C 0.36419 0.79347 0.09127 0.0
C1097 C 0.35724 0.79577 0.07485 0.0
H1098 H 0.32792 0.7995 0.11415 0.0
C1099 C 0.30773 0.81161 0.06893 0.0
H1100 H 0.40169 0.78087 0.09614 0.0
C1101 C 0.26551 0.82309 0.07929 0.0
C1102 C 0.2719 0.8176 0.09567 0.0
H1103 H 0.30101 0.81291 0.05631 0.0
H1104 H 0.22707 0.8326 0.07445 0.0
C1105 C 0.32199 0.80413 0.10156 0.0
C1106 C 0.37783 0.02288 0.34218 0.0
C1107 C 0.35295 0.0094 0.32787 0.0
H1108 H 0.4261 0.99651 0.3613 0.0
C1109 C 0.3599 0.95815 0.32159 0.0
H1110 H 0.37269 0.06181 0.34745 0.0
C1111 C 0.38956 0.92055 0.32968 0.0
C1112 C 0.4135 0.93368 0.34412 0.0
H1113 H 0.34084 0.94671 0.31066 0.0
H1114 H 0.39293 0.88087 0.32477 0.0
C1115 C 0.40847 0.98553 0.35011 0.0
C1116 C 0.73969 0.08165 0.60077 0.0
C1117 C 0.70934 0.06699 0.5876 0.0
H1118 H 0.74582 0.13035 0.62143 0.0
C1119 C 0.65938 0.09083 0.58553 0.0
H1120 H 0.77881 0.06501 0.60247 0.0
C1121 C 0.64025 0.12814 0.59648 0.0
C1122 C 0.67145 0.1436 0.60938 0.0
H1123 H 0.63557 0.08197 0.57528 0.0
H1124 H 0.60204 0.14644 0.59449 0.0
C1125 C 0.721 0.11946 0.61154 0.0
C1126 C 0.75768 0.91527 0.35008 0.0
C1127 C 0.7849 0.88266 0.33914 0.0
H1128 H 0.68965 0.92484 0.36513 0.0
C1129 C 0.76258 0.83324 0.33507 0.0
H1130 H 0.7735 0.95338 0.35365 0.0
C1131 C 0.71501 0.81625 0.34204 0.0
C1132 C 0.68792 0.84907 0.35286 0.0
H1133 H 0.78244 0.80736 0.32663 0.0
H1134 H 0.69915 0.77773 0.33884 0.0
C1135 C 0.70947 0.8989 0.3567 0.0
C1136 C 0.85012 0.88688 0.11876 0.0
C1137 C 0.84885 0.93051 0.10856 0.0
H1138 H 0.89693 0.82671 0.12939 0.0
C1139 C 0.89541 0.94458 0.10028 0.0
H1140 H 0.8152 0.87593 0.12555 0.0
C1141 C 0.9421 0.91533 0.10217 0.0
C1142 C 0.94328 0.87192 0.11252 0.0
H1143 H 0.89612 0.97875 0.0926 0.0
H1144 H 0.97756 0.92745 0.09584 0.0
C1145 C 0.89682 0.85827 0.12081 0.0
C1146 C 0.94965 0.16113 0.81638 0.0
C1147 C 0.99171 0.1259 0.81341 0.0
H1148 H 0.91053 0.21159 0.83323 0.0
C1149 C 0.02314 0.10941 0.82607 0.0
H1150 H 0.92494 0.17457 0.8068 0.0
C1151 C 0.01489 0.13037 0.84122 0.0
C1152 C 0.97533 0.1686 0.84398 0.0
H1153 H 0.05557 0.08217 0.82405 0.0
H1154 H 0.04112 0.11867 0.85062 0.0
C1155 C 0.94124 0.182 0.83155 0.0
C1156 C 0.62189 0.91532 0.43756 0.0
C1157 C 0.66696 0.94793 0.43549 0.0
H1158 H 0.57379 0.85283 0.4279 0.0
C1159 C 0.69564 0.9444 0.42122 0.0
H1160 H 0.59925 0.91586 0.44847 0.0
C1161 C 0.6814 0.9077 0.40962 0.0
C1162 C 0.6379 0.87384 0.41198 0.0
H1163 H 0.73093 0.96822 0.41939 0.0
H1164 H 0.70596 0.90409 0.39908 0.0
C1165 C 0.60701 0.87918 0.42575 0.0
C1166 C 0.06621 0.90813 0.19417 0.0
C1167 C 0.04038 0.89662 0.20853 0.0
H1168 H 0.0717 0.89177 0.1693 0.0
C1169 C 0.99635 0.8626 0.20846 0.0
H1170 H 0.0999 0.93462 0.19397 0.0
C1171 C 0.97982 0.83874 0.19442 0.0
C1172 C 0.00773 0.84759 0.1802 0.0
H1173 H 0.97576 0.8531 0.21938 0.0
H1174 H 0.94719 0.81081 0.19491 0.0
C1175 C 0.05011 0.88372 0.18013 0.0
C1176 C 0.92795 0.19398 0.94695 0.0
C1177 C 0.94499 0.15401 0.95719 0.0
H1178 H 0.93392 0.2272 0.92389 0.0
C1179 C 0.97759 0.11334 0.9512 0.0
H1180 H 0.90315 0.22603 0.95129 0.0
C1181 C 0.99573 0.11462 0.93553 0.0
C1182 C 0.9819 0.15693 0.92559 0.0
H1183 H 0.99138 0.08214 0.95888 0.0
H1184 H 0.02353 0.08444 0.93162 0.0
C1185 C 0.94566 0.19485 0.93127 0.0
C1186 C 0.74034 0.15646 0.68958 0.0
C1187 C 0.7689 0.11174 0.6842 0.0
H1188 H 0.67408 0.20842 0.68587 0.0
C1189 C 0.75136 0.08472 0.67063 0.0
H1190 H 0.75345 0.1784 0.69988 0.0
C1191 C 0.70573 0.10112 0.6629 0.0
C1192 C 0.67723 0.14579 0.66825 0.0
H1193 H 0.77286 0.05093 0.66589 0.0
H1194 H 0.69341 0.07937 0.65246 0.0
C1195 C 0.69519 0.17371 0.68157 0.0
C1196 C 0.86215 0.36207 0.95416 0.0
C1197 C 0.81833 0.32795 0.95602 0.0
H1198 H 0.92712 0.38655 0.93946 0.0
C1199 C 0.80659 0.29192 0.9438 0.0
H1200 H 0.87147 0.39148 0.96308 0.0
C1201 C 0.83779 0.28994 0.93008 0.0
C1202 C 0.88179 0.32379 0.92825 0.0
H1203 H 0.77258 0.26582 0.94473 0.0
H1204 H 0.82711 0.26201 0.92085 0.0
C1205 C 0.89392 0.35949 0.94053 0.0
C1206 C 0.85986 0.46768 0.17292 0.0
C1207 C 0.84052 0.47785 0.1883 0.0
H1208 H 0.89802 0.49906 0.15229 0.0
C1209 C 0.84416 0.5296 0.19447 0.0
H1210 H 0.85666 0.42856 0.16765 0.0
C1211 C 0.86677 0.57028 0.18553 0.0
C1212 C 0.88677 0.55993 0.17025 0.0
H1213 H 0.82887 0.53865 0.2062 0.0
H1214 H 0.86894 0.60975 0.19063 0.0
C1215 C 0.88337 0.50815 0.16408 0.0
C1216 C 0.84705 0.68718 0.43566 0.0
C1217 C 0.83544 0.65711 0.44918 0.0
H1218 H 0.82314 0.71004 0.4125 0.0
C1219 C 0.79008 0.62469 0.44928 0.0
H1220 H 0.88151 0.71285 0.43534 0.0
C1221 C 0.75676 0.62276 0.43619 0.0
C1222 C 0.76765 0.65374 0.42278 0.0
H1223 H 0.77987 0.60154 0.45961 0.0
H1224 H 0.72152 0.59826 0.43684 0.0
C1225 C 0.81365 0.68538 0.42258 0.0
C1226 C 0.68633 0.44886 0.70612 0.0
C1227 C 0.64797 0.48882 0.70846 0.0
H1228 H 0.7118 0.38221 0.69209 0.0
C1229 C 0.60252 0.4885 0.699 0.0
H1230 H 0.72201 0.44837 0.71314 0.0
C1231 C 0.59713 0.45126 0.68683 0.0
C1232 C 0.63669 0.41295 0.68396 0.0
H1233 H 0.57217 0.51853 0.70054 0.0
H1234 H 0.56268 0.45363 0.6793 0.0
C1235 C 0.68047 0.41093 0.69408 0.0
C1236 C 0.77371 0.6491 0.0933 0.0
C1237 C 0.7472 0.69727 0.09057 0.0
H1238 H 0.84013 0.61051 0.10398 0.0
C1239 C 0.77318 0.74502 0.09454 0.0
H1240 H 0.7552 0.61175 0.09014 0.0
C1241 C 0.82128 0.74411 0.10258 0.0
C1242 C 0.8454 0.69587 0.10647 0.0
H1243 H 0.75563 0.7833 0.09226 0.0
H1244 H 0.83852 0.78123 0.10634 0.0
C1245 C 0.82247 0.64837 0.10111 0.0
C1246 C 0.6799 0.4888 0.33716 0.0
C1247 C 0.70106 0.50657 0.32275 0.0
H1248 H 0.65531 0.50803 0.3606 0.0
C1249 C 0.71681 0.5602 0.32155 0.0
H1250 H 0.66867 0.44759 0.33859 0.0
C1251 C 0.70904 0.59544 0.33429 0.0
C1252 C 0.68621 0.57755 0.34851 0.0
H1253 H 0.73458 0.57541 0.31082 0.0
H1254 H 0.72028 0.63665 0.33294 0.0
C1255 C 0.67244 0.52363 0.3498 0.0
C1256 C 0.88519 0.38784 0.62037 0.0
C1257 C 0.88738 0.4354 0.61183 0.0
H1258 H 0.83675 0.33091 0.6322 0.0
C1259 C 0.84002 0.4628 0.60887 0.0
H1260 H 0.92111 0.36605 0.62289 0.0
C1261 C 0.79134 0.4426 0.61417 0.0
C1262 C 0.78917 0.39477 0.62263 0.0
H1263 H 0.84064 0.49971 0.60239 0.0
H1264 H 0.7555 0.46452 0.61166 0.0
C1265 C 0.83675 0.36777 0.62569 0.0
C1266 C 0.82463 0.51138 0.84952 0.0
C1267 C 0.84699 0.56115 0.853 0.0
H1268 H 0.82926 0.42715 0.85261 0.0
C1269 C 0.89146 0.56374 0.86285 0.0
H1270 H 0.79027 0.50832 0.84198 0.0
C1271 C 0.91368 0.51771 0.8689 0.0
C1272 C 0.89206 0.46771 0.86527 0.0
H1273 H 0.90954 0.60157 0.86571 0.0
H1274 H 0.94822 0.5215 0.87634 0.0
C1275 C 0.84702 0.46501 0.85559 0.0
C1276 C 0.14919 0.50403 0.09349 0.0
C1277 C 0.12647 0.51606 0.07292 0.0
H1278 H 0.15899 0.55903 0.11813 0.0
C1279 C 0.07427 0.5655 0.06809 0.0
H1280 H 0.17595 0.472 0.09632 0.0
C1281 C 0.06744 0.61857 0.08231 0.0
C1282 C 0.10153 0.61594 0.10092 0.0
H1283 H 0.05862 0.56918 0.05628 0.0
H1284 H 0.04413 0.65311 0.07942 0.0
C1285 C 0.14 0.55924 0.10672 0.0
C1286 C 0.22707 0.37353 0.83749 0.0
C1287 C 0.24849 0.42225 0.84263 0.0
H1288 H 0.16747 0.31368 0.84104 0.0
C1289 C 0.22376 0.44905 0.85532 0.0
H1290 H 0.24534 0.35198 0.82775 0.0
C1291 C 0.17879 0.42782 0.86261 0.0
C1292 C 0.15801 0.3787 0.85768 0.0
H1293 H 0.23917 0.48628 0.85978 0.0
H1294 H 0.16109 0.44944 0.87244 0.0
C1295 C 0.18265 0.3516 0.84507 0.0
C1296 C 0.49077 0.37238 0.57111 0.0
C1297 C 0.45598 0.33152 0.56668 0.0
H1298 H 0.53646 0.40743 0.58959 0.0
C1299 C 0.43439 0.29872 0.57847 0.0
H1300 H 0.50802 0.39813 0.56224 0.0
C1301 C 0.44991 0.30465 0.59419 0.0
C1302 C 0.48841 0.34225 0.59841 0.0
H1303 H 0.40742 0.26694 0.57541 0.0
H1304 H 0.43407 0.27791 0.60292 0.0
C1305 C 0.5067 0.37787 0.58682 0.0
C1306 C 0.56201 0.57403 0.32361 0.0
C1307 C 0.53419 0.58556 0.30975 0.0
H1308 H 0.57245 0.59181 0.3482 0.0
C1309 C 0.49053 0.61994 0.31063 0.0
H1310 H 0.59542 0.54728 0.32322 0.0
C1311 C 0.47714 0.64505 0.32487 0.0
C1312 C 0.50784 0.63698 0.33846 0.0
H1313 H 0.4684 0.62947 0.3001 0.0
H1314 H 0.44523 0.6738 0.32489 0.0
C1315 C 0.54893 0.59949 0.33785 0.0
C1316 C 0.20678 0.41756 0.93552 0.0
C1317 C 0.17762 0.40976 0.94954 0.0
H1318 H 0.21432 0.40032 0.91079 0.0
C1319 C 0.12903 0.38217 0.94876 0.0
H1320 H 0.24445 0.43817 0.93573 0.0
C1321 C 0.11122 0.36152 0.93438 0.0
C1322 C 0.14238 0.36646 0.92064 0.0
H1323 H 0.10549 0.37446 0.95924 0.0
H1324 H 0.07495 0.33844 0.93428 0.0
C1325 C 0.18953 0.39595 0.92124 0.0
C1326 C 0.50864 0.36103 0.70544 0.0
C1327 C 0.45839 0.36448 0.71263 0.0
H1328 H 0.55329 0.33674 0.68521 0.0
C1329 C 0.41324 0.35323 0.70358 0.0
H1330 H 0.54412 0.36929 0.71216 0.0
C1331 C 0.41849 0.33635 0.68784 0.0
C1332 C 0.46905 0.33002 0.68091 0.0
H1333 H 0.37401 0.35566 0.70886 0.0
H1334 H 0.38313 0.32577 0.68136 0.0
C1335 C 0.51386 0.34347 0.68985 0.0
C1336 C 0.35962 0.65681 0.41788 0.0
C1337 C 0.34569 0.6032 0.41595 0.0
H1338 H 0.41997 0.71616 0.41505 0.0
C1339 C 0.38395 0.56735 0.41018 0.0
H1340 H 0.33084 0.68502 0.42241 0.0
C1341 C 0.43467 0.58502 0.40608 0.0
C1342 C 0.44791 0.63906 0.40739 0.0
H1343 H 0.37412 0.5259 0.40843 0.0
H1344 H 0.46283 0.55663 0.40126 0.0
C1345 C 0.41026 0.67463 0.4136 0.0
C1346 C 0.24598 0.6274 0.17025 0.0
C1347 C 0.25582 0.57315 0.16729 0.0
H1348 H 0.19285 0.69301 0.1674 0.0
C1349 C 0.21629 0.54283 0.1599 0.0
H1350 H 0.27442 0.65181 0.17644 0.0
C1351 C 0.16903 0.56621 0.15509 0.0
C1352 C 0.15994 0.62069 0.15754 0.0
H1353 H 0.22192 0.50071 0.15788 0.0
H1354 H 0.13985 0.54149 0.14928 0.0
C1355 C 0.1989 0.65106 0.16519 0.0
loop_
_geom_bond_atom_site_label_1
_geom_bond_atom_site_label_2
_geom_bond_distance
_geom_bond_site_symmetry_2
_ccdc_geom_bond_type
C0 C1 1.560 . S
C0 H61 0.959 . S
C0 H62 0.959 . S
C0 H63 0.960 . S
C1 C0 1.560 . S
C1 O56 1.426 . S
C1 H60 0.980 . S
C2 C3 1.407 . S
C2 C7 1.418 . S
C2 O56 1.334 . S
C3 C2 1.407 . S
C3 C4 1.360 . S
C3 H64 0.929 . S
C4 C3 1.360 . S
C4 C5 1.401 . S
C4 C8 1.527 . S
C5 C4 1.401 . S
C5 C6 1.405 . S
C5 C38 1.587 . S
C6 C5 1.405 . S
C6 C7 1.332 . S
C6 C9 1.496 1_565 S
C7 C2 1.418 . S
C7 C6 1.332 . S
C7 H65 0.938 . S
C8 C4 1.527 . S
C8 H66 0.959 . S
C8 H67 0.961 . S
C8 H68 0.961 . S
C9 C6 1.496 1_545 S
C9 H69 0.960 . S
C9 H70 0.967 . S
C9 H71 0.961 . S
C10 C11 1.517 . S
C10 H73 0.961 . S
C10 H74 0.960 . S
C10 H75 0.959 . S
C11 C10 1.517 . S
C11 O59 1.468 . S
C11 H72 0.980 . S
C12 C13 1.349 . S
C12 C17 1.367 . S
C12 O59 1.408 . S
C13 C12 1.349 . S
C13 C14 1.407 . S
C13 H76 0.930 . S
C14 C13 1.407 . S
C14 C15 1.449 . S
C14 C18 1.535 . S
C15 C14 1.449 . S
C15 C16 1.384 . S
C15 C40 1.553 . S
C16 C15 1.384 . S
C16 C17 1.364 . S
C16 C19 1.450 . S
C17 C12 1.367 . S
C17 C16 1.364 . S
C17 H77 0.931 . S
C18 C14 1.535 . S
C18 H78 0.959 . S
C18 H79 0.961 . S
C18 H80 0.959 . S
C19 C16 1.450 . S
C19 H81 0.960 . S
C19 H82 0.960 . S
C19 H83 0.960 . S
C20 C21 1.309 . S
C20 C25 1.304 . S
C20 O58 1.435 . S
C21 C20 1.309 . S
C21 C22 1.476 . S
C21 H85 0.930 . S
C22 C21 1.476 . S
C22 C23 1.400 . S
C22 C26 1.567 . S
C23 C22 1.400 . S
C23 C24 1.373 . S
C23 C45 1.432 . S
C24 C23 1.373 . S
C24 C25 1.339 . S
C24 C27 1.530 1_545 S
C25 C20 1.304 . S
C25 C24 1.339 . S
C25 H86 0.930 1_545 S
C26 C22 1.567 . S
C26 H87 0.961 . S
C26 H88 0.960 . S
C26 H89 0.958 . S
C27 C24 1.530 1_565 S
C27 H90 0.961 . S
C27 H91 0.960 . S
C27 H92 0.960 . S
C28 C29 1.530 . S
C28 H94 0.961 . S
C28 H95 0.961 . S
C28 H96 0.959 . S
C29 C28 1.530 . S
C29 O57 1.412 . S
C29 H93 0.980 . S
C30 C31 1.288 . S
C30 C35 1.377 . S
C30 O57 1.393 . S
C31 C30 1.288 . S
C31 C32 1.369 . S
C31 H97 0.932 . S
C32 C31 1.369 . S
C32 C33 1.398 . S
C32 C36 1.527 . S
C33 C32 1.398 . S
C33 C34 1.380 . S
C33 C47 1.497 . S
C34 C33 1.380 . S
C34 C35 1.383 . S
C34 C37 1.603 1_545 S
C35 C30 1.377 . S
C35 C34 1.383 . S
C35 H98 0.929 . S
C36 C32 1.527 . S
C36 H99 0.961 . S
C36 H100 0.959 . S
C36 H101 0.959 . S
C37 C34 1.603 1_565 S
C37 H102 0.960 . S
C37 H103 0.962 . S
C37 H104 0.961 . S
C38 C5 1.587 . S
C38 C39 1.360 1_655 S
C38 C51 1.412 . S
C39 C38 1.360 1_455 S
C39 C40 1.365 . S
C39 H105 0.929 . S
C40 C15 1.553 . S
C40 C39 1.365 . S
C40 C41 1.404 . S
C41 C40 1.404 . S
C41 C42 1.395 . S
C41 C52 1.451 . S
C42 C41 1.395 . S
C42 C43 1.322 . S
C42 H106 0.930 . S
C43 C42 1.322 . S
C43 C44 1.459 . S
C43 H107 0.929 . S
C44 C43 1.459 . S
C44 C45 1.445 1_565 S
C44 C53 1.395 . S
C45 C23 1.432 . S
C45 C44 1.445 1_545 S
C45 C46 1.370 . S
C46 C45 1.370 . S
C46 C47 1.438 1_455 S
C46 H108 0.930 . S
C47 C33 1.497 . S
C47 C46 1.438 1_655 S
C47 C48 1.360 . S
C48 C47 1.360 . S
C48 C49 1.401 . S
C48 C53 1.446 1_645 S
C49 C48 1.401 . S
C49 C50 1.347 1_545 S
C49 H109 0.929 . S
C50 C49 1.347 1_565 S
C50 C51 1.455 . S
C50 H110 0.930 . S
C51 C38 1.412 . S
C51 C50 1.455 . S
C51 C52 1.331 1_655 S
C52 C41 1.451 . S
C52 C51 1.331 1_455 S
C52 C53 1.497 . S
C53 C44 1.395 . S
C53 C48 1.446 1_465 S
C53 C52 1.497 . S
C54 C55 1.582 . S
C54 H111 0.962 . S
C54 H112 0.959 . S
C54 H113 0.958 . S
C55 C54 1.582 . S
C55 O58 1.458 . S
C55 H84 0.980 . S
O56 C1 1.426 . S
O56 C2 1.334 . S
O57 C29 1.412 . S
O57 C30 1.393 . S
O58 C20 1.435 . S
O58 C55 1.458 . S
O59 C11 1.468 . S
O59 C12 1.408 . S
H60 C1 0.980 . S
H61 C0 0.959 . S
H62 C0 0.959 . S
H63 C0 0.960 . S
H64 C3 0.929 . S
H65 C7 0.938 . S
H66 C8 0.959 . S
H67 C8 0.961 . S
H68 C8 0.961 . S
H69 C9 0.960 . S
H70 C9 0.967 . S
H71 C9 0.961 . S
H72 C11 0.980 . S
H73 C10 0.961 . S
H74 C10 0.960 . S
H75 C10 0.959 . S
H76 C13 0.930 . S
H77 C17 0.931 . S
H78 C18 0.959 . S
H79 C18 0.961 . S
H80 C18 0.959 . S
H81 C19 0.960 . S
H82 C19 0.960 . S
H83 C19 0.960 . S
H84 C55 0.980 . S
H85 C21 0.930 . S
H86 C25 0.930 1_565 S
H87 C26 0.961 . S
H88 C26 0.960 . S
H89 C26 0.958 . S
H90 C27 0.961 . S
H91 C27 0.960 . S
H92 C27 0.960 . S
H93 C29 0.980 . S
H94 C28 0.961 . S
H95 C28 0.961 . S
H96 C28 0.959 . S
H97 C31 0.932 . S
H98 C35 0.929 . S
H99 C36 0.961 . S
H100 C36 0.959 . S
H101 C36 0.959 . S
H102 C37 0.960 . S
H103 C37 0.962 . S
H104 C37 0.961 . S
H105 C39 0.929 . S
H106 C42 0.930 . S
H107 C43 0.929 . S
H108 C46 0.930 . S
H109 C49 0.929 . S
H110 C50 0.930 . S
H111 C54 0.962 . S
H112 C54 0.959 . S
H113 C54 0.958 . S
C114 C115 1.560 . S
C114 H175 0.959 . S
C114 H176 0.959 . S
C114 H177 0.960 . S
C115 C114 1.560 . S
C115 O170 1.426 . S
C115 H174 0.980 . S
C116 C117 1.407 . S
C116 C121 1.418 . S
C116 O170 1.334 . S
C117 C116 1.407 . S
C117 C118 1.360 . S
C117 H178 0.929 . S
C118 C117 1.360 . S
C118 C119 1.401 . S
C118 C122 1.527 . S
C119 C118 1.401 . S
C119 C120 1.405 . S
C119 C152 1.587 . S
C120 C119 1.405 . S
C120 C121 1.332 . S
C120 C123 1.496 . S
C121 C116 1.418 . S
C121 C120 1.332 . S
C121 H179 0.929 . S
C122 C118 1.527 . S
C122 H180 0.959 . S
C122 H181 0.961 . S
C122 H182 0.961 . S
C123 C120 1.496 . S
C123 H183 0.960 . S
C123 H184 0.960 . S
C123 H185 0.961 . S
C124 C125 1.517 . S
C124 H187 0.961 . S
C124 H188 0.960 . S
C124 H189 0.959 . S
C125 C124 1.517 . S
C125 O173 1.468 . S
C125 H186 0.980 . S
C126 C127 1.349 . S
C126 C131 1.367 . S
C126 O173 1.408 . S
C127 C126 1.349 . S
C127 C128 1.407 . S
C127 H190 0.930 . S
C128 C127 1.407 . S
C128 C129 1.449 . S
C128 C132 1.535 . S
C129 C128 1.449 . S
C129 C130 1.384 . S
C129 C154 1.553 . S
C130 C129 1.384 . S
C130 C131 1.364 . S
C130 C133 1.450 . S
C131 C126 1.367 . S
C131 C130 1.364 . S
C131 H191 0.931 . S
C132 C128 1.535 . S
C132 H192 0.959 . S
C132 H193 0.961 . S
C132 H194 0.959 . S
C133 C130 1.450 . S
C133 H195 0.960 . S
C133 H196 0.960 . S
C133 H197 0.960 . S
C134 C135 1.309 . S
C134 C139 1.304 . S
C134 O172 1.435 . S
C135 C134 1.309 . S
C135 C136 1.476 . S
C135 H199 0.930 . S
C136 C135 1.476 . S
C136 C137 1.400 . S
C136 C140 1.567 . S
C137 C136 1.400 . S
C137 C138 1.373 . S
C137 C159 1.432 . S
C138 C137 1.373 . S
C138 C139 1.339 . S
C138 C141 1.530 . S
C139 C134 1.304 . S
C139 C138 1.339 . S
C139 H200 0.930 . S
C140 C136 1.567 . S
C140 H201 0.961 . S
C140 H202 0.960 . S
C140 H203 0.958 . S
C141 C138 1.530 . S
C141 H204 0.961 . S
C141 H205 0.960 . S
C141 H206 0.960 . S
C142 C143 1.530 . S
C142 H208 0.961 1_565 S
C142 H209 0.961 . S
C142 H210 0.959 . S
C143 C142 1.530 . S
C143 O171 1.412 . S
C143 H207 0.980 . S
C144 C145 1.288 . S
C144 C149 1.377 . S
C144 O171 1.393 . S
C145 C144 1.288 . S
C145 C146 1.369 . S
C145 H211 0.932 . S
C146 C145 1.369 . S
C146 C147 1.398 . S
C146 C150 1.527 . S
C147 C146 1.398 . S
C147 C148 1.380 . S
C147 C161 1.497 . S
C148 C147 1.380 . S
C148 C149 1.383 . S
C148 C151 1.603 . S
C149 C144 1.377 . S
C149 C148 1.383 . S
C149 H212 0.929 . S
C150 C146 1.527 . S
C150 H213 0.961 . S
C150 H214 0.959 . S
C150 H215 0.959 . S
C151 C148 1.603 . S
C151 H216 0.960 . S
C151 H217 0.962 . S
C151 H218 0.961 . S
C152 C119 1.587 . S
C152 C153 1.360 . S
C152 C165 1.412 . S
C153 C152 1.360 . S
C153 C154 1.365 . S
C153 H219 0.929 . S
C154 C129 1.553 . S
C154 C153 1.365 . S
C154 C155 1.404 . S
C155 C154 1.404 . S
C155 C156 1.395 . S
C155 C166 1.451 . S
C156 C155 1.395 . S
C156 C157 1.322 . S
C156 H220 0.930 . S
C157 C156 1.322 . S
C157 C158 1.459 . S
C157 H221 0.929 . S
C158 C157 1.459 . S
C158 C159 1.445 . S
C158 C167 1.395 . S
C159 C137 1.432 . S
C159 C158 1.445 . S
C159 C160 1.370 . S
C160 C159 1.370 . S
C160 C161 1.438 . S
C160 H222 0.930 . S
C161 C147 1.497 . S
C161 C160 1.438 . S
C161 C162 1.360 . S
C162 C161 1.360 . S
C162 C163 1.401 . S
C162 C167 1.446 . S
C163 C162 1.401 . S
C163 C164 1.347 . S
C163 H223 0.929 . S
C164 C163 1.347 . S
C164 C165 1.455 . S
C164 H224 0.930 . S
C165 C152 1.412 . S
C165 C164 1.455 . S
C165 C166 1.331 . S
C166 C155 1.451 . S
C166 C165 1.331 . S
C166 C167 1.497 . S
C167 C158 1.395 . S
C167 C162 1.446 . S
C167 C166 1.497 . S
C168 C169 1.582 . S
C168 H225 0.962 . S
C168 H226 0.959 . S
C168 H227 0.958 . S
C169 C168 1.582 . S
C169 O172 1.458 . S
C169 H198 0.980 . S
O170 C115 1.426 . S
O170 C116 1.334 . S
O171 C143 1.412 . S
O171 C144 1.393 . S
O172 C134 1.435 . S
O172 C169 1.458 . S
O173 C125 1.468 . S
O173 C126 1.408 . S
H174 C115 0.980 . S
H175 C114 0.959 . S
H176 C114 0.959 . S
H177 C114 0.960 . S
H178 C117 0.929 . S
H179 C121 0.929 . S
H180 C122 0.959 . S
H181 C122 0.961 . S
H182 C122 0.961 . S
H183 C123 0.960 . S
H184 C123 0.960 . S
H185 C123 0.961 . S
H186 C125 0.980 . S
H187 C124 0.961 . S
H188 C124 0.960 . S
H189 C124 0.959 . S
H190 C127 0.930 . S
H191 C131 0.931 . S
H192 C132 0.959 . S
H193 C132 0.961 . S
H194 C132 0.959 . S
H195 C133 0.960 . S
H196 C133 0.960 . S
H197 C133 0.960 . S
H198 C169 0.980 . S
H199 C135 0.930 . S
H200 C139 0.930 . S
H201 C140 0.961 . S
H202 C140 0.960 . S
H203 C140 0.958 . S
H204 C141 0.961 . S
H205 C141 0.960 . S
H206 C141 0.960 . S
H207 C143 0.980 . S
H208 C142 0.961 1_545 S
H209 C142 0.961 . S
H210 C142 0.959 . S
H211 C145 0.932 . S
H212 C149 0.929 . S
H213 C150 0.961 . S
H214 C150 0.959 . S
H215 C150 0.959 . S
H216 C151 0.960 . S
H217 C151 0.962 . S
H218 C151 0.961 . S
H219 C153 0.929 . S
H220 C156 0.930 . S
H221 C157 0.929 . S
H222 C160 0.930 . S
H223 C163 0.929 . S
H224 C164 0.930 . S
H225 C168 0.962 . S
H226 C168 0.959 . S
H227 C168 0.958 . S
C228 C229 1.560 . S
C228 H289 0.959 . S
C228 H290 0.959 . S
C228 H291 0.960 . S
C229 C228 1.560 . S
C229 O284 1.426 . S
C229 H288 0.980 . S
C230 C231 1.407 . S
C230 C235 1.418 . S
C230 O284 1.334 . S
C231 C230 1.407 . S
C231 C232 1.360 . S
C231 H292 0.929 . S
C232 C231 1.360 . S
C232 C233 1.401 . S
C232 C236 1.527 . S
C233 C232 1.401 . S
C233 C234 1.405 . S
C233 C266 1.587 . S
C234 C233 1.405 . S
C234 C235 1.332 . S
C234 C237 1.496 1_565 S
C235 C230 1.418 . S
C235 C234 1.332 . S
C235 H293 0.929 . S
C236 C232 1.527 . S
C236 H294 0.959 . S
C236 H295 0.961 . S
C236 H296 0.961 . S
C237 C234 1.496 1_545 S
C237 H297 0.960 . S
C237 H298 0.958 1_545 S
C237 H299 0.961 . S
C238 C239 1.517 . S
C238 H301 0.961 . S
C238 H302 0.960 . S
C238 H303 0.959 . S
C239 C238 1.517 . S
C239 O287 1.468 . S
C239 H300 0.980 . S
C240 C241 1.349 . S
C240 C245 1.367 . S
C240 O287 1.408 . S
C241 C240 1.349 . S
C241 C242 1.407 . S
C241 H304 0.930 . S
C242 C241 1.407 . S
C242 C243 1.449 . S
C242 C246 1.535 . S
C243 C242 1.449 . S
C243 C244 1.384 . S
C243 C268 1.553 . S
C244 C243 1.384 . S
C244 C245 1.364 . S
C244 C247 1.450 . S
C245 C240 1.367 . S
C245 C244 1.364 . S
C245 H305 0.931 . S
C246 C242 1.535 . S
C246 H306 0.959 . S
C246 H307 0.961 . S
C246 H308 0.959 . S
C247 C244 1.450 . S
C247 H309 0.960 . S
C247 H310 0.960 . S
C247 H311 0.960 . S
C248 C249 1.309 . S
C248 C253 1.304 . S
C248 O286 1.435 . S
C249 C248 1.309 . S
C249 C250 1.476 . S
C249 H313 0.930 . S
C250 C249 1.476 . S
C250 C251 1.400 . S
C250 C254 1.567 . S
C251 C250 1.400 . S
C251 C252 1.373 . S
C251 C273 1.432 . S
C252 C251 1.373 . S
C252 C253 1.339 . S
C252 C255 1.530 1_545 S
C253 C248 1.304 . S
C253 C252 1.339 . S
C253 H314 0.930 1_545 S
C254 C250 1.567 . S
C254 H315 0.918 1_556 S
C254 H316 0.989 . S
C254 H317 0.958 . S
C255 C252 1.530 1_565 S
C255 H318 0.961 . S
C255 H319 0.960 . S
C255 H320 0.960 . S
C256 C257 1.530 . S
C256 H322 0.961 . S
C256 H323 0.961 . S
C256 H324 0.959 . S
C257 C256 1.530 . S
C257 O285 1.412 . S
C257 H321 0.980 . S
C258 C259 1.288 . S
C258 C263 1.377 . S
C258 O285 1.393 . S
C259 C258 1.288 . S
C259 C260 1.369 . S
C259 H325 0.932 . S
C260 C259 1.369 . S
C260 C261 1.398 . S
C260 C264 1.527 . S
C261 C260 1.398 . S
C261 C262 1.380 . S
C261 C275 1.497 . S
C262 C261 1.380 . S
C262 C263 1.383 . S
C262 C265 1.603 1_545 S
C263 C258 1.377 . S
C263 C262 1.383 . S
C263 H326 0.929 . S
C264 C260 1.527 . S
C264 H327 0.961 1_556 S
C264 H328 0.959 . S
C264 H329 0.977 . S
C265 C262 1.603 1_565 S
C265 H330 0.960 . S
C265 H331 0.962 . S
C265 H332 0.961 . S
C266 C233 1.587 . S
C266 C267 1.360 . S
C266 C279 1.412 . S
C267 C266 1.360 . S
C267 C268 1.365 . S
C267 H333 0.929 . S
C268 C243 1.553 . S
C268 C267 1.365 . S
C268 C269 1.404 . S
C269 C268 1.404 . S
C269 C270 1.395 . S
C269 C280 1.451 . S
C270 C269 1.395 . S
C270 C271 1.322 . S
C270 H334 0.930 . S
C271 C270 1.322 . S
C271 C272 1.459 1_554 S
C271 H335 0.929 1_554 S
C272 C271 1.459 1_556 S
C272 C273 1.445 1_565 S
C272 C281 1.395 1_556 S
C273 C251 1.432 . S
C273 C272 1.445 1_545 S
C273 C274 1.370 . S
C274 C273 1.370 . S
C274 C275 1.438 . S
C274 H336 0.930 . S
C275 C261 1.497 . S
C275 C274 1.438 . S
C275 C276 1.360 . S
C276 C275 1.360 . S
C276 C277 1.401 1_556 S
C276 C281 1.446 1_546 S
C277 C276 1.401 1_554 S
C277 C278 1.347 1_545 S
C277 H337 0.929 . S
C278 C277 1.347 1_565 S
C278 C279 1.455 . S
C278 H338 0.930 . S
C279 C266 1.412 . S
C279 C278 1.455 . S
C279 C280 1.331 . S
C280 C269 1.451 . S
C280 C279 1.331 . S
C280 C281 1.497 . S
C281 C272 1.395 1_554 S
C281 C276 1.446 1_564 S
C281 C280 1.497 . S
C282 C283 1.582 . S
C282 H339 0.962 . S
C282 H340 0.959 . S
C282 H341 0.958 . S
C283 C282 1.582 . S
C283 O286 1.458 . S
C283 H312 0.980 . S
O284 C229 1.426 . S
O284 C230 1.334 . S
O285 C257 1.412 . S
O285 C258 1.393 . S
O286 C248 1.435 . S
O286 C283 1.458 . S
O287 C239 1.468 . S
O287 C240 1.408 . S
H288 C229 0.980 . S
H289 C228 0.959 . S
H290 C228 0.959 . S
H291 C228 0.960 . S
H292 C231 0.929 . S
H293 C235 0.929 . S
H294 C236 0.959 . S
H295 C236 0.961 . S
H296 C236 0.961 . S
H297 C237 0.960 . S
H298 C237 0.958 1_565 S
H299 C237 0.961 . S
H300 C239 0.980 . S
H301 C238 0.961 . S
H302 C238 0.960 . S
H303 C238 0.959 . S
H304 C241 0.930 . S
H305 C245 0.931 . S
H306 C246 0.959 . S
H307 C246 0.961 . S
H308 C246 0.959 . S
H309 C247 0.960 . S
H310 C247 0.960 . S
H311 C247 0.960 . S
H312 C283 0.980 . S
H313 C249 0.930 . S
H314 C253 0.930 1_565 S
H315 C254 0.918 1_554 S
H316 C254 0.989 . S
H317 C254 0.958 . S
H318 C255 0.961 . S
H319 C255 0.960 . S
H320 C255 0.960 . S
H321 C257 0.980 . S
H322 C256 0.961 . S
H323 C256 0.961 . S
H324 C256 0.959 . S
H325 C259 0.932 . S
H326 C263 0.929 . S
H327 C264 0.961 1_554 S
H328 C264 0.959 . S
H329 C264 0.977 . S
H330 C265 0.960 . S
H331 C265 0.962 . S
H332 C265 0.961 . S
H333 C267 0.929 . S
H334 C270 0.930 . S
H335 C271 0.929 1_556 S
H336 C274 0.930 . S
H337 C277 0.929 . S
H338 C278 0.930 . S
H339 C282 0.962 . S
H340 C282 0.959 . S
H341 C282 0.958 . S
C342 C343 1.560 . S
C342 H403 0.959 . S
C342 H404 0.959 . S
C342 H405 0.960 . S
C343 C342 1.560 . S
C343 O398 1.426 . S
C343 H402 0.980 . S
C344 C345 1.407 . S
C344 C349 1.418 . S
C344 O398 1.334 . S
C345 C344 1.407 . S
C345 C346 1.360 . S
C345 H406 0.929 . S
C346 C345 1.360 . S
C346 C347 1.401 . S
C346 C350 1.527 . S
C347 C346 1.401 . S
C347 C348 1.405 . S
C347 C380 1.587 . S
C348 C347 1.405 . S
C348 C349 1.332 . S
C348 C351 1.496 . S
C349 C344 1.418 . S
C349 C348 1.332 . S
C349 H407 0.929 . S
C350 C346 1.527 . S
C350 H408 0.959 . S
C350 H409 0.961 . S
C350 H410 0.961 . S
C351 C348 1.496 . S
C351 H411 0.960 . S
C351 H412 0.960 . S
C351 H413 0.961 . S
C352 C353 1.517 . S
C352 H415 0.961 . S
C352 H416 0.960 . S
C352 H417 0.959 . S
C353 C352 1.517 . S
C353 O401 1.468 . S
C353 H414 0.980 . S
C354 C355 1.349 . S
C354 C359 1.367 . S
C354 O401 1.408 . S
C355 C354 1.349 . S
C355 C356 1.407 . S
C355 H418 0.930 . S
C356 C355 1.407 . S
C356 C357 1.449 . S
C356 C360 1.535 . S
C357 C356 1.449 . S
C357 C358 1.384 . S
C357 C382 1.553 . S
C358 C357 1.384 . S
C358 C359 1.364 . S
C358 C361 1.450 . S
C359 C354 1.367 . S
C359 C358 1.364 . S
C359 H419 0.931 . S
C360 C356 1.535 . S
C360 H420 0.959 . S
C360 H421 0.961 . S
C360 H422 0.959 . S
C361 C358 1.450 . S
C361 H423 0.960 . S
C361 H424 0.960 . S
C361 H425 0.960 . S
C362 C363 1.309 . S
C362 C367 1.304 . S
C362 O400 1.435 . S
C363 C362 1.309 . S
C363 C364 1.476 . S
C363 H427 0.930 . S
C364 C363 1.476 . S
C364 C365 1.400 . S
C364 C368 1.567 . S
C365 C364 1.400 . S
C365 C366 1.373 . S
C365 C387 1.432 . S
C366 C365 1.373 . S
C366 C367 1.339 . S
C366 C369 1.530 . S
C367 C362 1.304 . S
C367 C366 1.339 . S
C367 H428 0.930 . S
C368 C364 1.567 . S
C368 H429 0.961 . S
C368 H430 0.960 . S
C368 H431 0.958 . S
C369 C366 1.530 . S
C369 H432 0.961 . S
C369 H433 0.960 . S
C369 H434 0.960 . S
C370 C371 1.530 . S
C370 H436 0.961 1_545 S
C370 H437 0.961 . S
C370 H438 0.959 . S
C371 C370 1.530 . S
C371 O399 1.412 . S
C371 H435 0.980 . S
C372 C373 1.288 . S
C372 C377 1.377 . S
C372 O399 1.393 . S
C373 C372 1.288 . S
C373 C374 1.369 . S
C373 H439 0.932 . S
C374 C373 1.369 . S
C374 C375 1.398 . S
C374 C378 1.527 . S
C375 C374 1.398 . S
C375 C376 1.380 . S
C375 C389 1.497 . S
C376 C375 1.380 . S
C376 C377 1.383 . S
C376 C379 1.603 . S
C377 C372 1.377 . S
C377 C376 1.383 . S
C377 H440 0.929 . S
C378 C374 1.527 . S
C378 H441 0.961 . S
C378 H442 0.959 . S
C378 H443 0.959 . S
C379 C376 1.603 . S
C379 H444 0.960 . S
C379 H445 0.962 . S
C379 H446 0.961 . S
C380 C347 1.587 . S
C380 C381 1.360 . S
C380 C393 1.412 . S
C381 C380 1.360 . S
C381 C382 1.365 . S
C381 H447 0.929 . S
C382 C357 1.553 . S
C382 C381 1.365 . S
C382 C383 1.404 . S
C383 C382 1.404 . S
C383 C384 1.395 . S
C383 C394 1.451 . S
C384 C383 1.395 . S
C384 C385 1.322 . S
C384 H448 0.930 . S
C385 C384 1.322 . S
C385 C386 1.459 . S
C385 H449 0.929 . S
C386 C385 1.459 . S
C386 C387 1.445 . S
C386 C395 1.395 . S
C387 C365 1.432 . S
C387 C386 1.445 . S
C387 C388 1.370 . S
C388 C387 1.370 . S
C388 C389 1.438 . S
C388 H450 0.930 . S
C389 C375 1.497 . S
C389 C388 1.438 . S
C389 C390 1.360 . S
C390 C389 1.360 . S
C390 C391 1.401 . S
C390 C395 1.446 . S
C391 C390 1.401 . S
C391 C392 1.347 . S
C391 H451 0.929 . S
C392 C391 1.347 . S
C392 C393 1.455 . S
C392 H452 0.930 . S
C393 C380 1.412 . S
C393 C392 1.455 . S
C393 C394 1.331 . S
C394 C383 1.451 . S
C394 C393 1.331 . S
C394 C395 1.497 . S
C395 C386 1.395 . S
C395 C390 1.446 . S
C395 C394 1.497 . S
C396 C397 1.582 . S
C396 H453 0.962 . S
C396 H454 0.959 . S
C396 H455 0.958 . S
C397 C396 1.582 . S
C397 O400 1.458 . S
C397 H426 0.980 . S
O398 C343 1.426 . S
O398 C344 1.334 . S
O399 C371 1.412 . S
O399 C372 1.393 . S
O400 C362 1.435 . S
O400 C397 1.458 . S
O401 C353 1.468 . S
O401 C354 1.408 . S
H402 C343 0.980 . S
H403 C342 0.959 . S
H404 C342 0.959 . S
H405 C342 0.960 . S
H406 C345 0.929 . S
H407 C349 0.929 . S
H408 C350 0.959 . S
H409 C350 0.961 . S
H410 C350 0.961 . S
H411 C351 0.960 . S
H412 C351 0.960 . S
H413 C351 0.961 . S
H414 C353 0.980 . S
H415 C352 0.961 . S
H416 C352 0.960 . S
H417 C352 0.959 . S
H418 C355 0.930 . S
H419 C359 0.931 . S
H420 C360 0.959 . S
H421 C360 0.961 . S
H422 C360 0.959 . S
H423 C361 0.960 . S
H424 C361 0.960 . S
H425 C361 0.960 . S
H426 C397 0.980 . S
H427 C363 0.930 . S
H428 C367 0.930 . S
H429 C368 0.961 . S
H430 C368 0.960 . S
H431 C368 0.958 . S
H432 C369 0.961 . S
H433 C369 0.960 . S
H434 C369 0.960 . S
H435 C371 0.980 . S
H436 C370 0.961 1_565 S
H437 C370 0.961 . S
H438 C370 0.959 . S
H439 C373 0.932 . S
H440 C377 0.929 . S
H441 C378 0.961 . S
H442 C378 0.959 . S
H443 C378 0.959 . S
H444 C379 0.960 . S
H445 C379 0.962 . S
H446 C379 0.961 . S
H447 C381 0.929 . S
H448 C384 0.930 . S
H449 C385 0.929 . S
H450 C388 0.930 . S
H451 C391 0.929 . S
H452 C392 0.930 . S
H453 C396 0.962 . S
H454 C396 0.959 . S
H455 C396 0.958 . S
C456 C457 1.560 . S
C456 H517 0.959 . S
C456 H518 0.959 . S
C456 H519 0.960 . S
C457 C456 1.560 . S
C457 O512 1.426 . S
C457 H516 0.980 . S
C458 C459 1.407 . S
C458 C463 1.418 . S
C458 O512 1.334 . S
C459 C458 1.407 . S
C459 C460 1.360 . S
C459 H520 0.929 . S
C460 C459 1.360 . S
C460 C461 1.401 . S
C460 C464 1.527 . S
C461 C460 1.401 . S
C461 C462 1.405 . S
C461 C494 1.587 . S
C462 C461 1.405 . S
C462 C463 1.332 . S
C462 C465 1.496 . S
C463 C458 1.418 . S
C463 C462 1.332 . S
C463 H521 0.929 . S
C464 C460 1.527 . S
C464 H522 0.959 . S
C464 H523 0.961 . S
C464 H524 0.961 . S
C465 C462 1.496 . S
C465 H525 0.960 . S
C465 H526 0.960 . S
C465 H527 0.961 . S
C466 C467 1.517 . S
C466 H529 0.961 . S
C466 H530 0.960 . S
C466 H531 0.959 . S
C467 C466 1.517 . S
C467 O515 1.468 . S
C467 H528 0.980 . S
C468 C469 1.349 1_565 S
C468 C473 1.367 1_565 S
C468 O515 1.408 . S
C469 C468 1.349 1_545 S
C469 C470 1.407 . S
C469 H532 0.930 1_545 S
C470 C469 1.407 . S
C470 C471 1.449 . S
C470 C474 1.535 . S
C471 C470 1.449 . S
C471 C472 1.384 . S
C471 C496 1.553 . S
C472 C471 1.384 . S
C472 C473 1.364 . S
C472 C475 1.450 . S
C473 C468 1.367 1_545 S
C473 C472 1.364 . S
C473 H533 0.931 . S
C474 C470 1.535 . S
C474 H534 0.959 . S
C474 H535 0.961 . S
C474 H536 0.959 . S
C475 C472 1.450 . S
C475 H537 0.960 . S
C475 H538 0.960 . S
C475 H539 0.960 . S
C476 C477 1.309 . S
C476 C481 1.304 1_565 S
C476 O514 1.435 . S
C477 C476 1.309 . S
C477 C478 1.476 1_565 S
C477 H541 0.930 . S
C478 C477 1.476 1_545 S
C478 C479 1.400 . S
C478 C482 1.567 . S
C479 C478 1.400 . S
C479 C480 1.373 . S
C479 C501 1.432 . S
C480 C479 1.373 . S
C480 C481 1.339 . S
C480 C483 1.530 1_655 S
C481 C476 1.304 1_545 S
C481 C480 1.339 . S
C481 H542 0.930 1_655 S
C482 C478 1.567 . S
C482 H543 0.961 . S
C482 H544 0.960 . S
C482 H545 0.958 . S
C483 C480 1.530 1_455 S
C483 H546 0.961 . S
C483 H547 0.960 1_455 S
C483 H548 0.960 . S
C484 C485 1.530 . S
C484 H550 0.961 . S
C484 H551 0.961 . S
C484 H552 0.959 . S
C485 C484 1.530 . S
C485 O513 1.412 . S
C485 H549 0.980 . S
C486 C487 1.288 . S
C486 C491 1.377 . S
C486 O513 1.393 . S
C487 C486 1.288 . S
C487 C488 1.369 . S
C487 H553 0.932 . S
C488 C487 1.369 . S
C488 C489 1.398 . S
C488 C492 1.527 . S
C489 C488 1.398 . S
C489 C490 1.380 . S
C489 C503 1.497 . S
C490 C489 1.380 . S
C490 C491 1.383 . S
C490 C493 1.603 . S
C491 C486 1.377 . S
C491 C490 1.383 . S
C491 H554 0.929 . S
C492 C488 1.527 . S
C492 H555 0.961 . S
C492 H556 0.959 . S
C492 H557 0.959 . S
C493 C490 1.603 . S
C493 H558 0.960 1_655 S
C493 H559 0.962 . S
C493 H560 0.961 . S
C494 C461 1.587 . S
C494 C495 1.360 . S
C494 C507 1.412 . S
C495 C494 1.360 . S
C495 C496 1.365 . S
C495 H561 0.929 . S
C496 C471 1.553 . S
C496 C495 1.365 . S
C496 C497 1.404 . S
C497 C496 1.404 . S
C497 C498 1.395 . S
C497 C508 1.451 . S
C498 C497 1.395 . S
C498 C499 1.322 . S
C498 H562 0.930 . S
C499 C498 1.322 . S
C499 C500 1.459 . S
C499 H563 0.929 . S
C500 C499 1.459 . S
C500 C501 1.445 . S
C500 C509 1.395 . S
C501 C479 1.432 . S
C501 C500 1.445 . S
C501 C502 1.370 . S
C502 C501 1.370 . S
C502 C503 1.438 . S
C502 H564 0.930 . S
C503 C489 1.497 . S
C503 C502 1.438 . S
C503 C504 1.360 . S
C504 C503 1.360 . S
C504 C505 1.401 . S
C504 C509 1.446 . S
C505 C504 1.401 . S
C505 C506 1.347 . S
C505 H565 0.929 . S
C506 C505 1.347 . S
C506 C507 1.455 . S
C506 H566 0.930 . S
C507 C494 1.412 . S
C507 C506 1.455 . S
C507 C508 1.331 . S
C508 C497 1.451 . S
C508 C507 1.331 . S
C508 C509 1.497 . S
C509 C500 1.395 . S
C509 C504 1.446 . S
C509 C508 1.497 . S
C510 C511 1.582 . S
C510 H567 0.962 . S
C510 H568 0.959 . S
C510 H569 0.958 1_655 S
C511 C510 1.582 . S
C511 O514 1.458 . S
C511 H540 0.980 . S
O512 C457 1.426 . S
O512 C458 1.334 . S
O513 C485 1.412 . S
O513 C486 1.393 . S
O514 C476 1.435 . S
O514 C511 1.458 . S
O515 C467 1.468 . S
O515 C468 1.408 . S
H516 C457 0.980 . S
H517 C456 0.959 . S
H518 C456 0.959 . S
H519 C456 0.960 . S
H520 C459 0.929 . S
H521 C463 0.929 . S
H522 C464 0.959 . S
H523 C464 0.961 . S
H524 C464 0.961 . S
H525 C465 0.960 . S
H526 C465 0.960 . S
H527 C465 0.961 . S
H528 C467 0.980 . S
H529 C466 0.961 . S
H530 C466 0.960 . S
H531 C466 0.959 . S
H532 C469 0.930 1_565 S
H533 C473 0.931 . S
H534 C474 0.959 . S
H535 C474 0.961 . S
H536 C474 0.959 . S
H537 C475 0.960 . S
H538 C475 0.960 . S
H539 C475 0.960 . S
H540 C511 0.980 . S
H541 C477 0.930 . S
H542 C481 0.930 1_455 S
H543 C482 0.961 . S
H544 C482 0.960 . S
H545 C482 0.958 . S
H546 C483 0.961 . S
H547 C483 0.960 1_655 S
H548 C483 0.960 . S
H549 C485 0.980 . S
H550 C484 0.961 . S
H551 C484 0.961 . S
H552 C484 0.959 . S
H553 C487 0.932 . S
H554 C491 0.929 . S
H555 C492 0.961 . S
H556 C492 0.959 . S
H557 C492 0.959 . S
H558 C493 0.960 1_455 S
H559 C493 0.962 . S
H560 C493 0.961 . S
H561 C495 0.929 . S
H562 C498 0.930 . S
H563 C499 0.929 . S
H564 C502 0.930 . S
H565 C505 0.929 . S
H566 C506 0.930 . S
H567 C510 0.962 . S
H568 C510 0.959 . S
H569 C510 0.958 1_455 S
C570 C571 1.560 . S
C570 H631 0.959 . S
C570 H632 0.959 . S
C570 H633 0.960 . S
C571 C570 1.560 . S
C571 O626 1.426 . S
C571 H630 0.980 . S
C572 C573 1.407 . S
C572 C577 1.418 . S
C572 O626 1.334 . S
C573 C572 1.407 . S
C573 C574 1.360 . S
C573 H634 0.929 . S
C574 C573 1.360 . S
C574 C575 1.401 . S
C574 C578 1.527 . S
C575 C574 1.401 . S
C575 C576 1.405 . S
C575 C608 1.587 . S
C576 C575 1.405 . S
C576 C577 1.332 . S
C576 C579 1.496 . S
C577 C572 1.418 . S
C577 C576 1.332 . S
C577 H635 0.929 . S
C578 C574 1.527 . S
C578 H636 0.959 . S
C578 H637 0.961 . S
C578 H638 0.961 . S
C579 C576 1.496 . S
C579 H639 0.960 . S
C579 H640 0.960 . S
C579 H641 0.961 . S
C580 C581 1.517 . S
C580 H643 0.961 . S
C580 H644 0.960 . S
C580 H645 0.959 . S
C581 C580 1.517 . S
C581 O629 1.468 . S
C581 H642 0.980 . S
C582 C583 1.349 1_545 S
C582 C587 1.367 1_545 S
C582 O629 1.408 . S
C583 C582 1.349 1_565 S
C583 C584 1.407 . S
C583 H646 0.930 1_565 S
C584 C583 1.407 . S
C584 C585 1.449 . S
C584 C588 1.535 . S
C585 C584 1.449 . S
C585 C586 1.384 . S
C585 C610 1.553 . S
C586 C585 1.384 . S
C586 C587 1.364 . S
C586 C589 1.450 . S
C587 C582 1.367 1_565 S
C587 C586 1.364 . S
C587 H647 0.922 1_565 S
C588 C584 1.535 . S
C588 H648 0.959 . S
C588 H649 0.961 . S
C588 H650 0.959 . S
C589 C586 1.450 . S
C589 H651 0.960 . S
C589 H652 0.960 . S
C589 H653 0.960 . S
C590 C591 1.309 . S
C590 C595 1.304 1_545 S
C590 O628 1.435 . S
C591 C590 1.309 . S
C591 C592 1.476 1_545 S
C591 H655 0.930 . S
C592 C591 1.476 1_565 S
C592 C593 1.400 . S
C592 C596 1.567 . S
C593 C592 1.400 . S
C593 C594 1.373 . S
C593 C615 1.432 . S
C594 C593 1.373 . S
C594 C595 1.339 . S
C594 C597 1.530 1_655 S
C595 C590 1.304 1_565 S
C595 C594 1.339 . S
C595 H656 0.930 1_655 S
C596 C592 1.567 . S
C596 H657 0.961 . S
C596 H658 0.960 . S
C596 H659 0.958 . S
C597 C594 1.530 1_455 S
C597 H660 0.961 . S
C597 H661 0.960 1_455 S
C597 H662 0.960 . S
C598 C599 1.530 . S
C598 H664 0.961 . S
C598 H665 0.961 . S
C598 H666 0.959 . S
C599 C598 1.530 . S
C599 O627 1.412 . S
C599 H663 0.980 . S
C600 C601 1.288 . S
C600 C605 1.377 . S
C600 O627 1.393 . S
C601 C600 1.288 . S
C601 C602 1.369 . S
C601 H667 0.932 . S
C602 C601 1.369 . S
C602 C603 1.398 . S
C602 C606 1.527 . S
C603 C602 1.398 . S
C603 C604 1.380 . S
C603 C617 1.497 . S
C604 C603 1.380 . S
C604 C605 1.383 . S
C604 C607 1.603 . S
C605 C600 1.377 . S
C605 C604 1.383 . S
C605 H668 0.929 . S
C606 C602 1.527 . S
C606 H669 0.961 . S
C606 H670 0.959 . S
C606 H671 0.959 . S
C607 C604 1.603 . S
C607 H672 0.960 1_655 S
C607 H673 0.962 . S
C607 H674 0.961 . S
C608 C575 1.587 . S
C608 C609 1.360 . S
C608 C621 1.412 . S
C609 C608 1.360 . S
C609 C610 1.365 . S
C609 H675 0.929 . S
C610 C585 1.553 . S
C610 C609 1.365 . S
C610 C611 1.404 . S
C611 C610 1.404 . S
C611 C612 1.395 . S
C611 C622 1.451 . S
C612 C611 1.395 . S
C612 C613 1.322 . S
C612 H676 0.930 . S
C613 C612 1.322 . S
C613 C614 1.459 . S
C613 H677 0.929 . S
C614 C613 1.459 . S
C614 C615 1.445 . S
C614 C623 1.395 . S
C615 C593 1.432 . S
C615 C614 1.445 . S
C615 C616 1.370 . S
C616 C615 1.370 . S
C616 C617 1.438 . S
C616 H678 0.930 . S
C617 C603 1.497 . S
C617 C616 1.438 . S
C617 C618 1.360 . S
C618 C617 1.360 . S
C618 C619 1.401 . S
C618 C623 1.446 . S
C619 C618 1.401 . S
C619 C620 1.347 . S
C619 H679 0.929 . S
C620 C619 1.347 . S
C620 C621 1.455 . S
C620 H680 0.930 . S
C621 C608 1.412 . S
C621 C620 1.455 . S
C621 C622 1.331 . S
C622 C611 1.451 . S
C622 C621 1.331 . S
C622 C623 1.497 . S
C623 C614 1.395 . S
C623 C618 1.446 . S
C623 C622 1.497 . S
C624 C625 1.582 . S
C624 H681 0.962 . S
C624 H682 0.959 . S
C624 H683 0.958 1_655 S
C625 C624 1.582 . S
C625 O628 1.458 . S
C625 H654 0.980 . S
O626 C571 1.426 . S
O626 C572 1.334 . S
O627 C599 1.412 . S
O627 C600 1.393 . S
O628 C590 1.435 . S
O628 C625 1.458 . S
O629 C581 1.468 . S
O629 C582 1.408 . S
H630 C571 0.980 . S
H631 C570 0.959 . S
H632 C570 0.959 . S
H633 C570 0.960 . S
H634 C573 0.929 . S
H635 C577 0.929 . S
H636 C578 0.959 . S
H637 C578 0.961 . S
H638 C578 0.961 . S
H639 C579 0.960 . S
H640 C579 0.960 . S
H641 C579 0.961 . S
H642 C581 0.980 . S
H643 C580 0.961 . S
H644 C580 0.960 . S
H645 C580 0.959 . S
H646 C583 0.930 1_545 S
H647 C587 0.922 1_545 S
H648 C588 0.959 . S
H649 C588 0.961 . S
H650 C588 0.959 . S
H651 C589 0.960 . S
H652 C589 0.960 . S
H653 C589 0.960 . S
H654 C625 0.980 . S
H655 C591 0.930 . S
H656 C595 0.930 1_455 S
H657 C596 0.961 . S
H658 C596 0.960 . S
H659 C596 0.958 . S
H660 C597 0.961 . S
H661 C597 0.960 1_655 S
H662 C597 0.960 . S
H663 C599 0.980 . S
H664 C598 0.961 . S
H665 C598 0.961 . S
H666 C598 0.959 . S
H667 C601 0.932 . S
H668 C605 0.929 . S
H669 C606 0.961 . S
H670 C606 0.959 . S
H671 C606 0.959 . S
H672 C607 0.960 1_455 S
H673 C607 0.962 . S
H674 C607 0.961 . S
H675 C609 0.929 . S
H676 C612 0.930 . S
H677 C613 0.929 . S
H678 C616 0.930 . S
H679 C619 0.929 . S
H680 C620 0.930 . S
H681 C624 0.962 . S
H682 C624 0.959 . S
H683 C624 0.958 1_455 S
C684 C685 1.560 . S
C684 H745 0.959 . S
C684 H746 0.959 . S
C684 H747 0.960 . S
C685 C684 1.560 . S
C685 O740 1.426 . S
C685 H744 0.980 . S
C686 C687 1.407 . S
C686 C691 1.418 . S
C686 O740 1.334 . S
C687 C686 1.407 . S
C687 C688 1.360 . S
C687 H748 0.929 . S
C688 C687 1.360 . S
C688 C689 1.401 . S
C688 C692 1.527 . S
C689 C688 1.401 . S
C689 C690 1.405 . S
C689 C722 1.587 . S
C690 C689 1.405 . S
C690 C691 1.332 . S
C690 C693 1.496 . S
C691 C686 1.418 . S
C691 C690 1.332 . S
C691 H749 0.929 . S
C692 C688 1.527 . S
C692 H750 0.959 . S
C692 H751 0.961 . S
C692 H752 0.961 . S
C693 C690 1.496 . S
C693 H753 0.960 . S
C693 H754 0.960 . S
C693 H755 0.961 . S
C694 C695 1.517 . S
C694 H757 0.961 . S
C694 H758 0.960 . S
C694 H759 0.959 . S
C695 C694 1.517 . S
C695 O743 1.468 . S
C695 H756 0.980 . S
C696 C697 1.349 . S
C696 C701 1.367 . S
C696 O743 1.408 . S
C697 C696 1.349 . S
C697 C698 1.407 . S
C697 H760 0.930 . S
C698 C697 1.407 . S
C698 C699 1.449 . S
C698 C702 1.535 . S
C699 C698 1.449 . S
C699 C700 1.384 . S
C699 C724 1.553 . S
C700 C699 1.384 . S
C700 C701 1.364 . S
C700 C703 1.450 . S
C701 C696 1.367 . S
C701 C700 1.364 . S
C701 H761 0.931 . S
C702 C698 1.535 . S
C702 H762 0.959 . S
C702 H763 0.961 . S
C702 H764 0.959 . S
C703 C700 1.450 . S
C703 H765 0.960 . S
C703 H766 0.960 . S
C703 H767 0.960 . S
C704 C705 1.309 . S
C704 C709 1.304 . S
C704 O742 1.435 . S
C705 C704 1.309 . S
C705 C706 1.476 . S
C705 H769 0.930 . S
C706 C705 1.476 . S
C706 C707 1.400 . S
C706 C710 1.567 . S
C707 C706 1.400 . S
C707 C708 1.373 . S
C707 C729 1.432 . S
C708 C707 1.373 . S
C708 C709 1.339 . S
C708 C711 1.530 . S
C709 C704 1.304 . S
C709 C708 1.339 . S
C709 H770 0.930 . S
C710 C706 1.567 . S
C710 H771 0.961 . S
C710 H772 0.960 . S
C710 H773 0.958 . S
C711 C708 1.530 . S
C711 H774 0.968 . S
C711 H775 0.960 1_556 S
C711 H776 0.960 . S
C712 C713 1.530 . S
C712 H778 0.961 . S
C712 H779 0.961 . S
C712 H780 0.959 . S
C713 C712 1.530 . S
C713 O741 1.412 . S
C713 H777 0.980 . S
C714 C715 1.288 . S
C714 C719 1.377 . S
C714 O741 1.393 . S
C715 C714 1.288 . S
C715 C716 1.369 . S
C715 H781 0.932 . S
C716 C715 1.369 . S
C716 C717 1.398 . S
C716 C720 1.527 . S
C717 C716 1.398 . S
C717 C718 1.380 . S
C717 C731 1.497 . S
C718 C717 1.380 . S
C718 C719 1.383 . S
C718 C721 1.603 . S
C719 C714 1.377 . S
C719 C718 1.383 . S
C719 H782 0.929 . S
C720 C716 1.527 . S
C720 H783 0.961 . S
C720 H784 0.959 . S
C720 H785 0.959 . S
C721 C718 1.603 . S
C721 H786 0.960 . S
C721 H787 0.962 . S
C721 H788 0.961 1_556 S
C722 C689 1.587 . S
C722 C723 1.360 . S
C722 C735 1.412 . S
C723 C722 1.360 . S
C723 C724 1.365 . S
C723 H789 0.929 . S
C724 C699 1.553 . S
C724 C723 1.365 . S
C724 C725 1.404 . S
C725 C724 1.404 . S
C725 C726 1.395 . S
C725 C736 1.451 . S
C726 C725 1.395 . S
C726 C727 1.322 . S
C726 H790 0.930 . S
C727 C726 1.322 . S
C727 C728 1.459 . S
C727 H791 0.929 . S
C728 C727 1.459 . S
C728 C729 1.445 1_554 S
C728 C737 1.395 . S
C729 C707 1.432 . S
C729 C728 1.445 1_556 S
C729 C730 1.370 . S
C730 C729 1.370 . S
C730 C731 1.438 . S
C730 H792 0.930 . S
C731 C717 1.497 . S
C731 C730 1.438 . S
C731 C732 1.360 1_556 S
C732 C731 1.360 1_554 S
C732 C733 1.401 . S
C732 C737 1.446 . S
C733 C732 1.401 . S
C733 C734 1.347 . S
C733 H793 0.929 . S
C734 C733 1.347 . S
C734 C735 1.455 . S
C734 H794 0.930 . S
C735 C722 1.412 . S
C735 C734 1.455 . S
C735 C736 1.331 . S
C736 C725 1.451 . S
C736 C735 1.331 . S
C736 C737 1.497 . S
C737 C728 1.395 . S
C737 C732 1.446 . S
C737 C736 1.497 . S
C738 C739 1.582 . S
C738 H795 0.962 . S
C738 H796 0.959 . S
C738 H797 0.958 . S
C739 C738 1.582 . S
C739 O742 1.458 . S
C739 H768 0.980 . S
O740 C685 1.426 . S
O740 C686 1.334 . S
O741 C713 1.412 . S
O741 C714 1.393 . S
O742 C704 1.435 . S
O742 C739 1.458 . S
O743 C695 1.468 . S
O743 C696 1.408 . S
H744 C685 0.980 . S
H745 C684 0.959 . S
H746 C684 0.959 . S
H747 C684 0.960 . S
H748 C687 0.929 . S
H749 C691 0.929 . S
H750 C692 0.959 . S
H751 C692 0.961 . S
H752 C692 0.961 . S
H753 C693 0.960 . S
H754 C693 0.960 . S
H755 C693 0.961 . S
H756 C695 0.980 . S
H757 C694 0.961 . S
H758 C694 0.960 . S
H759 C694 0.959 . S
H760 C697 0.930 . S
H761 C701 0.931 . S
H762 C702 0.959 . S
H763 C702 0.961 . S
H764 C702 0.959 . S
H765 C703 0.960 . S
H766 C703 0.960 . S
H767 C703 0.960 . S
H768 C739 0.980 . S
H769 C705 0.930 . S
H770 C709 0.930 . S
H771 C710 0.961 . S
H772 C710 0.960 . S
H773 C710 0.958 . S
H774 C711 0.968 . S
H775 C711 0.960 1_554 S
H776 C711 0.960 . S
H777 C713 0.980 . S
H778 C712 0.961 . S
H779 C712 0.961 . S
H780 C712 0.959 . S
H781 C715 0.932 . S
H782 C719 0.929 . S
H783 C720 0.961 . S
H784 C720 0.959 . S
H785 C720 0.959 . S
H786 C721 0.960 . S
H787 C721 0.962 . S
H788 C721 0.961 1_554 S
H789 C723 0.929 . S
H790 C726 0.930 . S
H791 C727 0.929 . S
H792 C730 0.930 . S
H793 C733 0.929 . S
H794 C734 0.930 . S
H795 C738 0.962 . S
H796 C738 0.959 . S
H797 C738 0.958 . S
C798 C799 1.560 . S
C798 H859 0.959 . S
C798 H860 0.959 . S
C798 H861 0.960 . S
C799 C798 1.560 . S
C799 O854 1.426 . S
C799 H858 0.980 . S
C800 C801 1.407 . S
C800 C805 1.418 1_655 S
C800 O854 1.334 . S
C801 C800 1.407 . S
C801 C802 1.360 1_655 S
C801 H862 0.929 . S
C802 C801 1.360 1_455 S
C802 C803 1.401 . S
C802 C806 1.527 . S
C803 C802 1.401 . S
C803 C804 1.405 . S
C803 C836 1.587 . S
C804 C803 1.405 . S
C804 C805 1.332 . S
C804 C807 1.496 . S
C805 C800 1.418 1_455 S
C805 C804 1.332 . S
C805 H863 0.929 1_455 S
C806 C802 1.527 . S
C806 H864 0.959 . S
C806 H865 0.961 . S
C806 H866 0.961 . S
C807 C804 1.496 . S
C807 H867 0.960 . S
C807 H868 0.960 . S
C807 H869 0.961 . S
C808 C809 1.517 . S
C808 H871 0.961 . S
C808 H872 0.960 . S
C808 H873 0.959 . S
C809 C808 1.517 . S
C809 O857 1.468 . S
C809 H870 0.980 . S
C810 C811 1.349 . S
C810 C815 1.367 . S
C810 O857 1.408 . S
C811 C810 1.349 . S
C811 C812 1.407 . S
C811 H874 0.930 . S
C812 C811 1.407 . S
C812 C813 1.449 . S
C812 C816 1.535 . S
C813 C812 1.449 . S
C813 C814 1.384 . S
C813 C838 1.553 . S
C814 C813 1.384 . S
C814 C815 1.364 . S
C814 C817 1.450 . S
C815 C810 1.367 . S
C815 C814 1.364 . S
C815 H875 0.931 . S
C816 C812 1.535 . S
C816 H876 0.959 . S
C816 H877 0.961 . S
C816 H878 0.959 . S
C817 C814 1.450 . S
C817 H879 0.960 . S
C817 H880 0.960 . S
C817 H881 0.960 . S
C818 C819 1.309 . S
C818 C823 1.304 . S
C818 O856 1.435 . S
C819 C818 1.309 . S
C819 C820 1.476 . S
C819 H883 0.930 . S
C820 C819 1.476 . S
C820 C821 1.400 . S
C820 C824 1.567 . S
C821 C820 1.400 . S
C821 C822 1.373 . S
C821 C843 1.432 . S
C822 C821 1.373 . S
C822 C823 1.339 . S
C822 C825 1.530 . S
C823 C818 1.304 . S
C823 C822 1.339 . S
C823 H884 0.930 . S
C824 C820 1.567 . S
C824 H885 0.961 . S
C824 H886 0.960 . S
C824 H887 0.958 . S
C825 C822 1.530 . S
C825 H888 0.961 . S
C825 H889 0.960 . S
C825 H890 0.960 . S
C826 C827 1.530 . S
C826 H892 0.961 . S
C826 H893 0.961 . S
C826 H894 0.959 . S
C827 C826 1.530 . S
C827 O855 1.412 . S
C827 H891 0.980 . S
C828 C829 1.288 1_655 S
C828 C833 1.377 . S
C828 O855 1.393 . S
C829 C828 1.288 1_455 S
C829 C830 1.369 . S
C829 H895 0.932 . S
C830 C829 1.369 . S
C830 C831 1.398 . S
C830 C834 1.527 . S
C831 C830 1.398 . S
C831 C832 1.380 . S
C831 C845 1.497 . S
C832 C831 1.380 . S
C832 C833 1.383 1_455 S
C832 C835 1.603 . S
C833 C828 1.377 . S
C833 C832 1.383 1_655 S
C833 H896 0.929 . S
C834 C830 1.527 . S
C834 H897 0.961 . S
C834 H898 0.959 . S
C834 H899 0.959 . S
C835 C832 1.603 . S
C835 H900 0.960 . S
C835 H901 0.962 . S
C835 H902 0.961 . S
C836 C803 1.587 . S
C836 C837 1.360 . S
C836 C849 1.412 . S
C837 C836 1.360 . S
C837 C838 1.365 . S
C837 H903 0.929 . S
C838 C813 1.553 . S
C838 C837 1.365 . S
C838 C839 1.404 . S
C839 C838 1.404 . S
C839 C840 1.395 . S
C839 C850 1.451 . S
C840 C839 1.395 . S
C840 C841 1.322 . S
C840 H904 0.930 . S
C841 C840 1.322 . S
C841 C842 1.459 . S
C841 H905 0.929 . S
C842 C841 1.459 . S
C842 C843 1.445 . S
C842 C851 1.395 . S
C843 C821 1.432 . S
C843 C842 1.445 . S
C843 C844 1.370 . S
C844 C843 1.370 . S
C844 C845 1.438 . S
C844 H906 0.930 . S
C845 C831 1.497 . S
C845 C844 1.438 . S
C845 C846 1.360 . S
C846 C845 1.360 . S
C846 C847 1.401 . S
C846 C851 1.446 . S
C847 C846 1.401 . S
C847 C848 1.347 . S
C847 H907 0.929 . S
C848 C847 1.347 . S
C848 C849 1.455 . S
C848 H908 0.930 . S
C849 C836 1.412 . S
C849 C848 1.455 . S
C849 C850 1.331 . S
C850 C839 1.451 . S
C850 C849 1.331 . S
C850 C851 1.497 . S
C851 C842 1.395 . S
C851 C846 1.446 . S
C851 C850 1.497 . S
C852 C853 1.582 . S
C852 H909 0.962 . S
C852 H910 0.959 . S
C852 H911 0.958 . S
C853 C852 1.582 . S
C853 O856 1.458 . S
C853 H882 0.980 . S
O854 C799 1.426 . S
O854 C800 1.334 . S
O855 C827 1.412 . S
O855 C828 1.393 . S
O856 C818 1.435 . S
O856 C853 1.458 . S
O857 C809 1.468 . S
O857 C810 1.408 . S
H858 C799 0.980 . S
H859 C798 0.959 . S
H860 C798 0.959 . S
H861 C798 0.960 . S
H862 C801 0.929 . S
H863 C805 0.929 1_655 S
H864 C806 0.959 . S
H865 C806 0.961 . S
H866 C806 0.961 . S
H867 C807 0.960 . S
H868 C807 0.960 . S
H869 C807 0.961 . S
H870 C809 0.980 . S
H871 C808 0.961 . S
H872 C808 0.960 . S
H873 C808 0.959 . S
H874 C811 0.930 . S
H875 C815 0.931 . S
H876 C816 0.959 . S
H877 C816 0.961 . S
H878 C816 0.959 . S
H879 C817 0.960 . S
H880 C817 0.960 . S
H881 C817 0.960 . S
H882 C853 0.980 . S
H883 C819 0.930 . S
H884 C823 0.930 . S
H885 C824 0.961 . S
H886 C824 0.960 . S
H887 C824 0.958 . S
H888 C825 0.961 . S
H889 C825 0.960 . S
H890 C825 0.960 . S
H891 C827 0.980 . S
H892 C826 0.961 . S
H893 C826 0.961 . S
H894 C826 0.959 . S
H895 C829 0.932 . S
H896 C833 0.929 . S
H897 C834 0.961 . S
H898 C834 0.959 . S
H899 C834 0.959 . S
H900 C835 0.960 . S
H901 C835 0.962 . S
H902 C835 0.961 . S
H903 C837 0.929 . S
H904 C840 0.930 . S
H905 C841 0.929 . S
H906 C844 0.930 . S
H907 C847 0.929 . S
H908 C848 0.930 . S
H909 C852 0.962 . S
H910 C852 0.959 . S
H911 C852 0.958 . S
C912 O939 1.312 . S
C912 O940 1.208 . S
C913 O934 1.330 1_655 S
C913 O937 1.244 . S
C914 O936 1.264 . S
C914 O938 1.273 . S
Mg915 O917 1.936 . S
Mg915 O924 2.081 . S
Mg915 O926 2.023 . S
Mg915 O930 2.031 . S
Mg915 O939 2.291 . S
Mg916 O917 1.963 . S
Mg916 O927 1.942 . S
Mg916 O928 1.955 . S
Mg916 O935 1.986 . S
O917 Mg915 1.936 . S
O917 Mg916 1.963 . S
O917 Mg918 1.915 . S
Mg918 O917 1.915 . S
Mg918 O919 1.915 . S
Mg918 O923 2.013 . S
Mg918 O929 2.114 . S
Mg918 O933 2.013 . S
Mg918 O939 2.114 . S
O919 Mg918 1.915 . S
O919 Mg920 1.936 . S
O919 Mg921 1.963 1_455 S
Mg920 O919 1.936 . S
Mg920 O929 2.291 . S
Mg920 O934 2.082 . S
Mg920 O936 2.023 1_455 S
Mg920 O940 2.031 . S
Mg921 O919 1.963 1_655 S
Mg921 O925 1.986 . S
Mg921 O937 1.942 . S
Mg921 O938 1.955 . S
C922 O933 1.191 . S
C922 O935 1.307 . S
O923 Mg918 2.013 . S
O923 C942 1.191 . S
O924 Mg915 2.081 . S
O924 C932 1.331 . S
O925 Mg921 1.986 . S
O925 C942 1.307 1_655 S
O926 Mg915 2.023 . S
O926 C941 1.264 . S
O927 Mg916 1.942 . S
O927 C932 1.244 . S
O928 Mg916 1.955 . S
O928 C941 1.273 . S
O929 Mg918 2.114 . S
O929 Mg920 2.291 . S
O929 C931 1.312 . S
O930 Mg915 2.031 . S
O930 C931 1.208 . S
C931 O929 1.312 . S
C931 O930 1.208 . S
C932 O924 1.331 . S
C932 O927 1.244 . S
O933 Mg918 2.013 . S
O933 C922 1.191 . S
O934 C913 1.330 1_455 S
O934 Mg920 2.082 . S
O935 Mg916 1.986 . S
O935 C922 1.307 . S
O936 C914 1.264 . S
O936 Mg920 2.023 1_655 S
O937 C913 1.244 . S
O937 Mg921 1.942 . S
O938 C914 1.273 . S
O938 Mg921 1.955 . S
O939 C912 1.312 . S
O939 Mg915 2.291 . S
O939 Mg918 2.114 . S
O940 C912 1.208 . S
O940 Mg920 2.031 . S
C941 O926 1.264 . S
C941 O928 1.273 . S
C942 O923 1.191 . S
C942 O925 1.307 1_455 S
C943 O970 1.312 . S
C943 O971 1.208 . S
C944 O965 1.331 . S
C944 O968 1.244 . S
C945 O967 1.264 . S
C945 O969 1.273 . S
Mg946 O948 1.936 . S
Mg946 O955 2.081 . S
Mg946 O957 2.023 . S
Mg946 O961 2.031 . S
Mg946 O970 2.291 . S
Mg947 O948 1.963 . S
Mg947 O958 1.942 . S
Mg947 O959 1.955 . S
Mg947 O966 1.986 . S
O948 Mg946 1.936 . S
O948 Mg947 1.963 . S
O948 Mg949 1.915 . S
Mg949 O948 1.915 . S
Mg949 O950 1.915 . S
Mg949 O954 2.013 . S
Mg949 O960 2.114 . S
Mg949 O964 2.013 . S
Mg949 O970 2.114 . S
O950 Mg949 1.915 . S
O950 Mg951 1.936 . S
O950 Mg952 1.963 . S
Mg951 O950 1.936 . S
Mg951 O960 2.291 . S
Mg951 O965 2.081 . S
Mg951 O967 2.023 . S
Mg951 O971 2.031 . S
Mg952 O950 1.963 . S
Mg952 O956 1.986 . S
Mg952 O968 1.942 . S
Mg952 O969 1.955 . S
C953 O964 1.191 . S
C953 O966 1.307 . S
O954 Mg949 2.013 . S
O954 C973 1.191 . S
O955 Mg946 2.081 . S
O955 C963 1.331 . S
O956 Mg952 1.986 . S
O956 C973 1.307 . S
O957 Mg946 2.023 . S
O957 C972 1.264 . S
O958 Mg947 1.942 . S
O958 C963 1.244 . S
O959 Mg947 1.955 . S
O959 C972 1.273 . S
O960 Mg949 2.114 . S
O960 Mg951 2.291 . S
O960 C962 1.312 . S
O961 Mg946 2.031 . S
O961 C962 1.208 . S
C962 O960 1.312 . S
C962 O961 1.208 . S
C963 O955 1.331 . S
C963 O958 1.244 . S
O964 Mg949 2.013 . S
O964 C953 1.191 . S
O965 C944 1.331 . S
O965 Mg951 2.081 . S
O966 Mg947 1.986 . S
O966 C953 1.307 . S
O967 C945 1.264 . S
O967 Mg951 2.023 . S
O968 C944 1.244 . S
O968 Mg952 1.942 . S
O969 C945 1.273 . S
O969 Mg952 1.955 . S
O970 C943 1.312 . S
O970 Mg946 2.291 . S
O970 Mg949 2.114 . S
O971 C943 1.208 . S
O971 Mg951 2.031 . S
C972 O957 1.264 . S
C972 O959 1.273 . S
C973 O954 1.191 . S
C973 O956 1.307 . S
C974 O1001 1.312 . S
C974 O1002 1.208 . S
C975 O996 1.331 . S
C975 O999 1.244 . S
C976 O998 1.264 . S
C976 O1000 1.273 . S
Mg977 O979 1.936 . S
Mg977 O986 2.081 . S
Mg977 O988 2.023 . S
Mg977 O992 2.031 . S
Mg977 O1001 2.291 . S
Mg978 O979 1.963 . S
Mg978 O989 1.942 . S
Mg978 O990 1.955 . S
Mg978 O997 1.986 . S
O979 Mg977 1.936 . S
O979 Mg978 1.963 . S
O979 Mg980 1.915 . S
Mg980 O979 1.915 . S
Mg980 O981 1.915 . S
Mg980 O985 2.013 . S
Mg980 O991 2.114 . S
Mg980 O995 2.013 . S
Mg980 O1001 2.114 . S
O981 Mg980 1.915 . S
O981 Mg982 1.936 . S
O981 Mg983 1.963 . S
Mg982 O981 1.936 . S
Mg982 O991 2.291 . S
Mg982 O996 2.081 . S
Mg982 O998 2.023 . S
Mg982 O1002 2.031 . S
Mg983 O981 1.963 . S
Mg983 O987 1.986 . S
Mg983 O999 1.942 . S
Mg983 O1000 1.955 . S
C984 O995 1.191 . S
C984 O997 1.307 . S
O985 Mg980 2.013 . S
O985 C1004 1.191 . S
O986 Mg977 2.081 . S
O986 C994 1.331 . S
O987 Mg983 1.986 . S
O987 C1004 1.307 . S
O988 Mg977 2.023 . S
O988 C1003 1.264 . S
O989 Mg978 1.942 . S
O989 C994 1.244 . S
O990 Mg978 1.955 . S
O990 C1003 1.273 . S
O991 Mg980 2.114 . S
O991 Mg982 2.291 . S
O991 C993 1.312 . S
O992 Mg977 2.031 . S
O992 C993 1.208 . S
C993 O991 1.312 . S
C993 O992 1.208 . S
C994 O986 1.331 . S
C994 O989 1.244 . S
O995 Mg980 2.013 . S
O995 C984 1.191 . S
O996 C975 1.331 . S
O996 Mg982 2.081 . S
O997 Mg978 1.986 . S
O997 C984 1.307 . S
O998 C976 1.264 . S
O998 Mg982 2.023 . S
O999 C975 1.244 . S
O999 Mg983 1.942 . S
O1000 C976 1.273 . S
O1000 Mg983 1.955 . S
O1001 C974 1.312 . S
O1001 Mg977 2.291 . S
O1001 Mg980 2.114 . S
O1002 C974 1.208 . S
O1002 Mg982 2.031 . S
C1003 O988 1.264 . S
C1003 O990 1.273 . S
C1004 O985 1.191 . S
C1004 O987 1.307 . S
C1005 O1032 1.312 . S
C1005 O1033 1.208 . S
C1006 O1027 1.331 . S
C1006 O1030 1.244 . S
C1007 O1029 1.264 . S
C1007 O1031 1.273 . S
Mg1008 O1010 1.936 . S
Mg1008 O1017 2.081 1_455 S
Mg1008 O1019 2.023 1_455 S
Mg1008 O1023 2.031 . S
Mg1008 O1032 2.291 . S
Mg1009 O1010 1.963 1_655 S
Mg1009 O1020 1.942 . S
Mg1009 O1021 1.955 . S
Mg1009 O1028 1.986 . S
O1010 Mg1008 1.936 . S
O1010 Mg1009 1.963 1_455 S
O1010 Mg1011 1.915 . S
Mg1011 O1010 1.915 . S
Mg1011 O1012 1.915 . S
Mg1011 O1016 2.013 . S
Mg1011 O1022 2.114 . S
Mg1011 O1026 2.013 . S
Mg1011 O1032 2.114 . S
O1012 Mg1011 1.915 . S
O1012 Mg1013 1.936 . S
O1012 Mg1014 1.963 . S
Mg1013 O1012 1.936 . S
Mg1013 O1022 2.291 . S
Mg1013 O1027 2.081 . S
Mg1013 O1029 2.023 . S
Mg1013 O1033 2.031 . S
Mg1014 O1012 1.963 . S
Mg1014 O1018 1.986 . S
Mg1014 O1030 1.942 . S
Mg1014 O1031 1.955 . S
C1015 O1026 1.191 1_655 S
C1015 O1028 1.307 . S
O1016 Mg1011 2.013 . S
O1016 C1035 1.191 . S
O1017 Mg1008 2.081 1_655 S
O1017 C1025 1.331 . S
O1018 Mg1014 1.986 . S
O1018 C1035 1.307 . S
O1019 Mg1008 2.023 1_655 S
O1019 C1034 1.264 . S
O1020 Mg1009 1.942 . S
O1020 C1025 1.244 . S
O1021 Mg1009 1.955 . S
O1021 C1034 1.273 . S
O1022 Mg1011 2.114 . S
O1022 Mg1013 2.291 . S
O1022 C1024 1.312 . S
O1023 Mg1008 2.031 . S
O1023 C1024 1.208 . S
C1024 O1022 1.312 . S
C1024 O1023 1.208 . S
C1025 O1017 1.331 . S
C1025 O1020 1.244 . S
O1026 Mg1011 2.013 . S
O1026 C1015 1.191 1_455 S
O1027 C1006 1.331 . S
O1027 Mg1013 2.081 . S
O1028 Mg1009 1.986 . S
O1028 C1015 1.307 . S
O1029 C1007 1.264 . S
O1029 Mg1013 2.023 . S
O1030 C1006 1.244 . S
O1030 Mg1014 1.942 . S
O1031 C1007 1.273 . S
O1031 Mg1014 1.955 . S
O1032 C1005 1.312 . S
O1032 Mg1008 2.291 . S
O1032 Mg1011 2.114 . S
O1033 C1005 1.208 . S
O1033 Mg1013 2.031 . S
C1034 O1019 1.264 . S
C1034 O1021 1.273 . S
C1035 O1016 1.191 . S
C1035 O1018 1.307 . S
C1036 C1037 1.387 . S
C1036 H1040 0.950 . S
C1036 C1045 1.390 . S
C1037 C1036 1.387 . S
C1037 C1039 1.387 . S
H1038 C1045 0.950 . S
C1039 C1037 1.387 . S
C1039 C1041 1.390 . S
C1039 H1043 0.950 . S
H1040 C1036 0.950 . S
C1041 C1039 1.390 . S
C1041 C1042 1.387 . S
C1041 H1044 0.950 . S
C1042 C1041 1.387 . S
C1042 C1045 1.387 . S
H1043 C1039 0.950 . S
H1044 C1041 0.950 . S
C1045 C1036 1.390 . S
C1045 H1038 0.950 . S
C1045 C1042 1.387 . S
C1046 C1047 1.387 1_545 S
C1046 H1050 0.950 . S
C1046 C1055 1.390 . S
C1047 C1046 1.387 1_565 S
C1047 C1049 1.387 . S
H1048 C1055 0.950 . S
C1049 C1047 1.387 . S
C1049 C1051 1.390 1_565 S
C1049 H1053 0.950 . S
H1050 C1046 0.950 . S
C1051 C1049 1.390 1_545 S
C1051 C1052 1.387 . S
C1051 H1054 0.950 . S
C1052 C1051 1.387 . S
C1052 C1055 1.387 . S
H1053 C1049 0.950 . S
H1054 C1051 0.950 . S
C1055 C1046 1.390 . S
C1055 H1048 0.950 . S
C1055 C1052 1.387 . S
C1056 C1057 1.387 . S
C1056 H1060 0.950 . S
C1056 C1065 1.390 . S
C1057 C1056 1.387 . S
C1057 C1059 1.387 . S
H1058 C1065 0.950 . S
C1059 C1057 1.387 . S
C1059 C1061 1.390 . S
C1059 H1063 0.950 . S
H1060 C1056 0.950 . S
C1061 C1059 1.390 . S
C1061 C1062 1.387 . S
C1061 H1064 0.950 . S
C1062 C1061 1.387 . S
C1062 C1065 1.387 . S
H1063 C1059 0.950 . S
H1064 C1061 0.950 . S
C1065 C1056 1.390 . S
C1065 H1058 0.950 . S
C1065 C1062 1.387 . S
C1066 C1067 1.387 1_565 S
C1066 H1070 0.950 . S
C1066 C1075 1.390 . S
C1067 C1066 1.387 1_545 S
C1067 C1069 1.387 1_545 S
H1068 C1075 0.950 . S
C1069 C1067 1.387 1_565 S
C1069 C1071 1.390 . S
C1069 H1073 0.950 1_565 S
H1070 C1066 0.950 . S
C1071 C1069 1.390 . S
C1071 C1072 1.387 . S
C1071 H1074 0.950 . S
C1072 C1071 1.387 . S
C1072 C1075 1.387 . S
H1073 C1069 0.950 1_545 S
H1074 C1071 0.950 . S
C1075 C1066 1.390 . S
C1075 H1068 0.950 . S
C1075 C1072 1.387 . S
C1076 C1077 1.387 . S
C1076 H1080 0.950 . S
C1076 C1085 1.390 . S
C1077 C1076 1.387 . S
C1077 C1079 1.387 . S
H1078 C1085 0.950 . S
C1079 C1077 1.387 . S
C1079 C1081 1.390 . S
C1079 H1083 0.950 . S
H1080 C1076 0.950 . S
C1081 C1079 1.390 . S
C1081 C1082 1.387 . S
C1081 H1084 0.950 . S
C1082 C1081 1.387 . S
C1082 C1085 1.387 . S
H1083 C1079 0.950 . S
H1084 C1081 0.950 . S
C1085 C1076 1.390 . S
C1085 H1078 0.950 . S
C1085 C1082 1.387 . S
C1086 C1087 1.387 1_545 S
C1086 H1090 0.950 1_545 S
C1086 C1095 1.390 . S
C1087 C1086 1.387 1_565 S
C1087 C1089 1.387 1_565 S
H1088 C1095 0.950 . S
C1089 C1087 1.387 1_545 S
C1089 C1091 1.390 . S
C1089 H1093 0.950 . S
H1090 C1086 0.950 1_565 S
C1091 C1089 1.390 . S
C1091 C1092 1.387 . S
C1091 H1094 0.950 . S
C1092 C1091 1.387 . S
C1092 C1095 1.387 . S
H1093 C1089 0.950 . S
H1094 C1091 0.950 . S
C1095 C1086 1.390 . S
C1095 H1088 0.950 . S
C1095 C1092 1.387 . S
C1096 C1097 1.387 . S
C1096 H1100 0.950 . S
C1096 C1105 1.390 . S
C1097 C1096 1.387 . S
C1097 C1099 1.387 . S
H1098 C1105 0.950 . S
C1099 C1097 1.387 . S
C1099 C1101 1.390 . S
C1099 H1103 0.950 . S
H1100 C1096 0.950 . S
C1101 C1099 1.390 . S
C1101 C1102 1.387 . S
C1101 H1104 0.950 . S
C1102 C1101 1.387 . S
C1102 C1105 1.387 . S
H1103 C1099 0.950 . S
H1104 C1101 0.950 . S
C1105 C1096 1.390 . S
C1105 H1098 0.950 . S
C1105 C1102 1.387 . S
C1106 C1107 1.387 . S
C1106 H1110 0.950 . S
C1106 C1115 1.390 1_545 S
C1107 C1106 1.387 . S
C1107 C1109 1.387 . S
H1108 C1115 0.950 . S
C1109 C1107 1.387 . S
C1109 C1111 1.390 1_545 S
C1109 H1113 0.950 . S
H1110 C1106 0.950 . S
C1111 C1109 1.390 1_565 S
C1111 C1112 1.387 . S
C1111 H1114 0.950 . S
C1112 C1111 1.387 . S
C1112 C1115 1.387 . S
H1113 C1109 0.950 . S
H1114 C1111 0.950 . S
C1115 C1106 1.390 1_565 S
C1115 H1108 0.950 . S
C1115 C1112 1.387 . S
C1116 C1117 1.387 . S
C1116 H1120 0.950 . S
C1116 C1125 1.390 . S
C1117 C1116 1.387 . S
C1117 C1119 1.387 . S
H1118 C1125 0.950 . S
C1119 C1117 1.387 . S
C1119 C1121 1.390 . S
C1119 H1123 0.950 . S
H1120 C1116 0.950 . S
C1121 C1119 1.390 . S
C1121 C1122 1.387 . S
C1121 H1124 0.950 . S
C1122 C1121 1.387 . S
C1122 C1125 1.387 . S
H1123 C1119 0.950 . S
H1124 C1121 0.950 . S
C1125 C1116 1.390 . S
C1125 H1118 0.950 . S
C1125 C1122 1.387 . S
C1126 C1127 1.387 . S
C1126 H1130 0.950 . S
C1126 C1135 1.390 . S
C1127 C1126 1.387 . S
C1127 C1129 1.387 . S
H1128 C1135 0.950 . S
C1129 C1127 1.387 . S
C1129 C1131 1.390 . S
C1129 H1133 0.950 . S
H1130 C1126 0.950 . S
C1131 C1129 1.390 . S
C1131 C1132 1.387 . S
C1131 H1134 0.950 . S
C1132 C1131 1.387 . S
C1132 C1135 1.387 . S
H1133 C1129 0.950 . S
H1134 C1131 0.950 . S
C1135 C1126 1.390 . S
C1135 H1128 0.950 . S
C1135 C1132 1.387 . S
C1136 C1137 1.387 . S
C1136 H1140 0.950 . S
C1136 C1145 1.390 . S
C1137 C1136 1.387 . S
C1137 C1139 1.387 . S
H1138 C1145 0.950 . S
C1139 C1137 1.387 . S
C1139 C1141 1.390 1_655 S
C1139 H1143 0.950 . S
H1140 C1136 0.950 . S
C1141 C1139 1.390 1_455 S
C1141 C1142 1.387 1_455 S
C1141 H1144 0.950 . S
C1142 C1141 1.387 1_655 S
C1142 C1145 1.387 . S
H1143 C1139 0.950 . S
H1144 C1141 0.950 . S
C1145 C1136 1.390 . S
C1145 H1138 0.950 . S
C1145 C1142 1.387 . S
C1146 C1147 1.387 . S
C1146 H1150 0.950 . S
C1146 C1155 1.390 . S
C1147 C1146 1.387 . S
C1147 C1149 1.387 . S
H1148 C1155 0.950 . S
C1149 C1147 1.387 . S
C1149 C1151 1.390 . S
C1149 H1153 0.950 . S
H1150 C1146 0.950 . S
C1151 C1149 1.390 . S
C1151 C1152 1.387 . S
C1151 H1154 0.950 . S
C1152 C1151 1.387 . S
C1152 C1155 1.387 . S
H1153 C1149 0.950 . S
H1154 C1151 0.950 . S
C1155 C1146 1.390 . S
C1155 H1148 0.950 . S
C1155 C1152 1.387 . S
C1156 C1157 1.387 . S
C1156 H1160 0.950 . S
C1156 C1165 1.390 . S
C1157 C1156 1.387 . S
C1157 C1159 1.387 . S
H1158 C1165 0.950 . S
C1159 C1157 1.387 . S
C1159 C1161 1.390 . S
C1159 H1163 0.950 . S
H1160 C1156 0.950 . S
C1161 C1159 1.390 . S
C1161 C1162 1.387 . S
C1161 H1164 0.950 . S
C1162 C1161 1.387 . S
C1162 C1165 1.387 . S
H1163 C1159 0.950 . S
H1164 C1161 0.950 . S
C1165 C1156 1.390 . S
C1165 H1158 0.950 . S
C1165 C1162 1.387 . S
C1166 C1167 1.387 . S
C1166 H1170 0.950 . S
C1166 C1175 1.390 . S
C1167 C1166 1.387 . S
C1167 C1169 1.387 . S
H1168 C1175 0.950 . S
C1169 C1167 1.387 . S
C1169 C1171 1.390 . S
C1169 H1173 0.950 . S
H1170 C1166 0.950 . S
C1171 C1169 1.390 . S
C1171 C1172 1.387 . S
C1171 H1174 0.950 1_655 S
C1172 C1171 1.387 . S
C1172 C1175 1.387 . S
H1173 C1169 0.950 . S
H1174 C1171 0.950 1_455 S
C1175 C1166 1.390 . S
C1175 H1168 0.950 . S
C1175 C1172 1.387 . S
C1176 C1177 1.387 . S
C1176 H1180 0.950 . S
C1176 C1185 1.390 . S
C1177 C1176 1.387 . S
C1177 C1179 1.387 . S
H1178 C1185 0.950 . S
C1179 C1177 1.387 . S
C1179 C1181 1.390 . S
C1179 H1183 0.950 . S
H1180 C1176 0.950 . S
C1181 C1179 1.390 . S
C1181 C1182 1.387 . S
C1181 H1184 0.950 1_655 S
C1182 C1181 1.387 . S
C1182 C1185 1.387 . S
H1183 C1179 0.950 . S
H1184 C1181 0.950 1_455 S
C1185 C1176 1.390 . S
C1185 H1178 0.950 . S
C1185 C1182 1.387 . S
C1186 C1187 1.387 . S
C1186 H1190 0.950 . S
C1186 C1195 1.390 . S
C1187 C1186 1.387 . S
C1187 C1189 1.387 . S
H1188 C1195 0.950 . S
C1189 C1187 1.387 . S
C1189 C1191 1.390 . S
C1189 H1193 0.950 . S
H1190 C1186 0.950 . S
C1191 C1189 1.390 . S
C1191 C1192 1.387 . S
C1191 H1194 0.950 . S
C1192 C1191 1.387 . S
C1192 C1195 1.387 . S
H1193 C1189 0.950 . S
H1194 C1191 0.950 . S
C1195 C1186 1.390 . S
C1195 H1188 0.950 . S
C1195 C1192 1.387 . S
C1196 C1197 1.387 . S
C1196 H1200 0.950 . S
C1196 C1205 1.390 . S
C1197 C1196 1.387 . S
C1197 C1199 1.387 . S
H1198 C1205 0.950 . S
C1199 C1197 1.387 . S
C1199 C1201 1.390 . S
C1199 H1203 0.950 . S
H1200 C1196 0.950 . S
C1201 C1199 1.390 . S
C1201 C1202 1.387 . S
C1201 H1204 0.950 . S
C1202 C1201 1.387 . S
C1202 C1205 1.387 . S
H1203 C1199 0.950 . S
H1204 C1201 0.950 . S
C1205 C1196 1.390 . S
C1205 H1198 0.950 . S
C1205 C1202 1.387 . S
C1206 C1207 1.387 1_455 S
C1206 H1210 0.950 . S
C1206 C1215 1.390 1_455 S
C1207 C1206 1.387 1_655 S
C1207 C1209 1.387 . S
H1208 C1215 0.946 1_455 S
C1209 C1207 1.387 . S
C1209 C1211 1.390 . S
C1209 H1213 0.950 . S
H1210 C1206 0.950 . S
C1211 C1209 1.390 . S
C1211 C1212 1.387 . S
C1211 H1214 0.950 . S
C1212 C1211 1.387 . S
C1212 C1215 1.391 . S
H1213 C1209 0.950 . S
H1214 C1211 0.950 . S
C1215 C1206 1.390 1_655 S
C1215 H1208 0.946 1_655 S
C1215 C1212 1.391 . S
C1216 C1217 1.387 . S
C1216 H1220 0.950 . S
C1216 C1225 1.390 . S
C1217 C1216 1.387 . S
C1217 C1219 1.387 . S
H1218 C1225 0.950 . S
C1219 C1217 1.387 . S
C1219 C1221 1.390 . S
C1219 H1223 0.950 . S
H1220 C1216 0.950 . S
C1221 C1219 1.390 . S
C1221 C1222 1.387 . S
C1221 H1224 0.950 . S
C1222 C1221 1.387 . S
C1222 C1225 1.387 . S
H1223 C1219 0.950 . S
H1224 C1221 0.950 . S
C1225 C1216 1.390 . S
C1225 H1218 0.950 . S
C1225 C1222 1.387 . S
C1226 C1227 1.387 . S
C1226 H1230 0.950 . S
C1226 C1235 1.390 . S
C1227 C1226 1.387 . S
C1227 C1229 1.387 . S
H1228 C1235 0.950 . S
C1229 C1227 1.387 . S
C1229 C1231 1.390 . S
C1229 H1233 0.950 . S
H1230 C1226 0.950 . S
C1231 C1229 1.390 . S
C1231 C1232 1.387 . S
C1231 H1234 0.950 . S
C1232 C1231 1.387 . S
C1232 C1235 1.387 . S
H1233 C1229 0.950 . S
H1234 C1231 0.950 . S
C1235 C1226 1.390 . S
C1235 H1228 0.950 . S
C1235 C1232 1.387 . S
C1236 C1237 1.387 . S
C1236 H1240 0.950 . S
C1236 C1245 1.390 . S
C1237 C1236 1.387 . S
C1237 C1239 1.387 . S
H1238 C1245 0.950 . S
C1239 C1237 1.387 . S
C1239 C1241 1.390 . S
C1239 H1243 0.950 . S
H1240 C1236 0.950 . S
C1241 C1239 1.390 . S
C1241 C1242 1.387 . S
C1241 H1244 0.950 . S
C1242 C1241 1.387 . S
C1242 C1245 1.387 . S
H1243 C1239 0.950 . S
H1244 C1241 0.950 . S
C1245 C1236 1.390 . S
C1245 H1238 0.950 . S
C1245 C1242 1.387 . S
C1246 C1247 1.387 . S
C1246 H1250 0.950 . S
C1246 C1255 1.390 . S
C1247 C1246 1.387 . S
C1247 C1249 1.387 . S
H1248 C1255 0.950 . S
C1249 C1247 1.387 . S
C1249 C1251 1.390 . S
C1249 H1253 0.950 . S
H1250 C1246 0.950 . S
C1251 C1249 1.390 . S
C1251 C1252 1.387 . S
C1251 H1254 0.950 . S
C1252 C1251 1.387 . S
C1252 C1255 1.387 . S
H1253 C1249 0.950 . S
H1254 C1251 0.950 . S
C1255 C1246 1.390 . S
C1255 H1248 0.950 . S
C1255 C1252 1.387 . S
C1256 C1257 1.387 . S
C1256 H1260 0.950 . S
C1256 C1265 1.390 . S
C1257 C1256 1.387 . S
C1257 C1259 1.387 . S
H1258 C1265 0.950 . S
C1259 C1257 1.387 . S
C1259 C1261 1.390 . S
C1259 H1263 0.950 . S
H1260 C1256 0.950 . S
C1261 C1259 1.390 . S
C1261 C1262 1.387 . S
C1261 H1264 0.950 . S
C1262 C1261 1.387 . S
C1262 C1265 1.387 . S
H1263 C1259 0.950 . S
H1264 C1261 0.950 . S
C1265 C1256 1.390 . S
C1265 H1258 0.950 . S
C1265 C1262 1.387 . S
C1266 C1267 1.387 . S
C1266 H1270 0.950 . S
C1266 C1275 1.390 . S
C1267 C1266 1.387 . S
C1267 C1269 1.387 . S
H1268 C1275 0.950 . S
C1269 C1267 1.387 . S
C1269 C1271 1.390 . S
C1269 H1273 0.950 1_655 S
H1270 C1266 0.950 . S
C1271 C1269 1.390 . S
C1271 C1272 1.387 . S
C1271 H1274 0.950 1_655 S
C1272 C1271 1.387 . S
C1272 C1275 1.387 . S
H1273 C1269 0.950 1_455 S
H1274 C1271 0.950 1_455 S
C1275 C1266 1.390 . S
C1275 H1268 0.950 . S
C1275 C1272 1.387 . S
C1276 C1277 1.387 . S
C1276 H1280 0.950 . S
C1276 C1285 1.390 . S
C1277 C1276 1.387 . S
C1277 C1279 1.387 . S
H1278 C1285 0.950 . S
C1279 C1277 1.387 . S
C1279 C1281 1.390 . S
C1279 H1283 0.950 . S
H1280 C1276 0.950 . S
C1281 C1279 1.390 . S
C1281 C1282 1.387 . S
C1281 H1284 0.950 . S
C1282 C1281 1.387 . S
C1282 C1285 1.387 . S
H1283 C1279 0.950 . S
H1284 C1281 0.950 . S
C1285 C1276 1.390 . S
C1285 H1278 0.950 . S
C1285 C1282 1.387 . S
C1286 C1287 1.387 . S
C1286 H1290 0.950 . S
C1286 C1295 1.390 . S
C1287 C1286 1.387 . S
C1287 C1289 1.387 . S
H1288 C1295 0.950 . S
C1289 C1287 1.387 . S
C1289 C1291 1.390 . S
C1289 H1293 0.950 . S
H1290 C1286 0.950 . S
C1291 C1289 1.390 . S
C1291 C1292 1.387 . S
C1291 H1294 0.950 . S
C1292 C1291 1.387 . S
C1292 C1295 1.387 . S
H1293 C1289 0.950 . S
H1294 C1291 0.950 . S
C1295 C1286 1.390 . S
C1295 H1288 0.950 . S
C1295 C1292 1.387 . S
C1296 C1297 1.387 . S
C1296 H1300 0.950 . S
C1296 C1305 1.390 . S
C1297 C1296 1.387 . S
C1297 C1299 1.387 . S
H1298 C1305 0.950 . S
C1299 C1297 1.387 . S
C1299 C1301 1.390 . S
C1299 H1303 0.950 . S
H1300 C1296 0.950 . S
C1301 C1299 1.390 . S
C1301 C1302 1.387 . S
C1301 H1304 0.950 . S
C1302 C1301 1.387 . S
C1302 C1305 1.387 . S
H1303 C1299 0.950 . S
H1304 C1301 0.950 . S
C1305 C1296 1.390 . S
C1305 H1298 0.950 . S
C1305 C1302 1.387 . S
C1306 C1307 1.387 . S
C1306 H1310 0.950 . S
C1306 C1315 1.390 . S
C1307 C1306 1.387 . S
C1307 C1309 1.387 . S
H1308 C1315 0.950 . S
C1309 C1307 1.387 . S
C1309 C1311 1.390 . S
C1309 H1313 0.950 . S
H1310 C1306 0.950 . S
C1311 C1309 1.390 . S
C1311 C1312 1.387 . S
C1311 H1314 0.950 . S
C1312 C1311 1.387 . S
C1312 C1315 1.387 . S
H1313 C1309 0.950 . S
H1314 C1311 0.950 . S
C1315 C1306 1.390 . S
C1315 H1308 0.950 . S
C1315 C1312 1.387 . S
C1316 C1317 1.387 . S
C1316 H1320 0.950 . S
C1316 C1325 1.390 . S
C1317 C1316 1.387 . S
C1317 C1319 1.387 . S
H1318 C1325 0.950 . S
C1319 C1317 1.387 . S
C1319 C1321 1.390 . S
C1319 H1323 0.950 . S
H1320 C1316 0.950 . S
C1321 C1319 1.390 . S
C1321 C1322 1.387 . S
C1321 H1324 0.950 . S
C1322 C1321 1.387 . S
C1322 C1325 1.387 . S
H1323 C1319 0.950 . S
H1324 C1321 0.950 . S
C1325 C1316 1.390 . S
C1325 H1318 0.950 . S
C1325 C1322 1.387 . S
C1326 C1327 1.387 . S
C1326 H1330 0.950 . S
C1326 C1335 1.390 . S
C1327 C1326 1.387 . S
C1327 C1329 1.387 . S
H1328 C1335 0.950 . S
C1329 C1327 1.387 . S
C1329 C1331 1.390 . S
C1329 H1333 0.950 . S
H1330 C1326 0.950 . S
C1331 C1329 1.390 . S
C1331 C1332 1.387 . S
C1331 H1334 0.950 . S
C1332 C1331 1.387 . S
C1332 C1335 1.387 . S
H1333 C1329 0.950 . S
H1334 C1331 0.950 . S
C1335 C1326 1.390 . S
C1335 H1328 0.950 . S
C1335 C1332 1.387 . S
C1336 C1337 1.387 . S
C1336 H1340 0.950 . S
C1336 C1345 1.390 . S
C1337 C1336 1.387 . S
C1337 C1339 1.387 . S
H1338 C1345 0.950 . S
C1339 C1337 1.387 . S
C1339 C1341 1.390 . S
C1339 H1343 0.950 . S
H1340 C1336 0.950 . S
C1341 C1339 1.390 . S
C1341 C1342 1.387 . S
C1341 H1344 0.950 . S
C1342 C1341 1.387 . S
C1342 C1345 1.387 . S
H1343 C1339 0.950 . S
H1344 C1341 0.950 . S
C1345 C1336 1.390 . S
C1345 H1338 0.950 . S
C1345 C1342 1.387 . S
C1346 C1347 1.387 . S
C1346 H1350 0.950 . S
C1346 C1355 1.390 . S
C1347 C1346 1.387 . S
C1347 C1349 1.387 . S
H1348 C1355 0.950 . S
C1349 C1347 1.387 . S
C1349 C1351 1.390 . S
C1349 H1353 0.950 . S
H1350 C1346 0.950 . S
C1351 C1349 1.390 . S
C1351 C1352 1.387 . S
C1351 H1354 0.950 . S
C1352 C1351 1.387 . S
C1352 C1355 1.387 . S
H1353 C1349 0.950 . S
H1354 C1351 0.950 . S
C1355 C1346 1.390 . S
C1355 H1348 0.950 . S
C1355 C1352 1.387 . S
C1042 C972 1.870 . S
C1037 C11 1.394 . S
C1047 C143 1.301 . S
C1052 C975 1.787 . S
C1057 C283 1.198 . S
C1062 C1006 1.830 . S
C1072 C941 1.738 . S
C1067 C343 1.627 . S
C1082 C976 1.922 . S
C1077 C55 1.309 . S
C1092 C1007 1.719 . S
C1087 C115 1.618 . S
C1102 C932 1.777 . S
C1097 C239 1.318 . S
C1112 C963 1.804 . S
C1107 C371 1.319 . S
C1117 C29 1.038 . S
C1122 C993 1.155 . S
C1127 C467 0.713 . S
C1132 C962 1.305 . S
C1137 C229 0.831 . S
C1142 C922 1.086 1_655 S
C1152 C1015 1.327 . S
C1147 C625 1.067 . S
C1162 C943 1.115 . S
C1157 C1 0.901 . S
C1167 C511 1.056 . S
C1172 C942 1.313 1_655 S
C1177 C257 0.979 . S
C1182 C1035 1.131 1_655 S
C1192 C974 1.322 . S
C1187 C581 0.718 . S
C1197 C713 1.387 . S
C1202 C1034 1.856 . S
C1207 C485 1.297 . S
C1212 C913 1.781 . S
C1217 C799 1.544 . S
C1222 C944 1.672 . S
C1227 C571 1.624 . S
C1232 C1003 1.720 . S
C1242 C914 1.754 . S
C1237 C685 1.625 . S
C1247 C457 1.617 . S
C1252 C945 1.715 . S
C1257 C827 1.282 . S
C1262 C994 1.777 . S
C1272 C1025 1.792 . S
C1267 C599 1.304 . S
C1277 C695 0.738 . S
C1282 C931 1.342 . S
C1287 C125 0.722 . S
C1292 C1024 1.334 . S
C1297 C853 1.068 . S
C1302 C984 1.324 . S
C1312 C953 1.357 . S
C1307 C397 1.096 . S
C1322 C1005 1.346 . S
C1317 C739 1.112 . S
C1332 C1004 1.340 . S
C1327 C169 1.081 . S
C1342 C973 1.310 . S
C1337 C809 0.679 . S
C1352 C912 1.351 . S
C1347 C353 0.728 . S
