# Generated by pormake.
# Topology ctn, (3,4)-cn, num edge types: 1
# Building blocks:
#     Node 0, Type 0, BuildingBlock: VETTIZ_charged_linker_0, # of connection points: 3
#     Node 1, Type 0, BuildingBlock: VETTIZ_charged_linker_0, # of connection points: 3
#     Node 2, Type 0, BuildingBlock: VETTIZ_charged_linker_0, # of connection points: 3
#     Node 3, Type 0, BuildingBlock: VETTIZ_charged_linker_0, # of connection points: 3
#     Node 4, Type 0, BuildingBlock: VETTIZ_charged_linker_0, # of connection points: 3
#     Node 5, Type 0, BuildingBlock: VETTIZ_charged_linker_0, # of connection points: 3
#     Node 6, Type 0, BuildingBlock: VETTIZ_charged_linker_0, # of connection points: 3
#     Node 7, Type 0, BuildingBlock: VETTIZ_charged_linker_0, # of connection points: 3
#     Node 8, Type 0, BuildingBlock: VETTIZ_charged_linker_0, # of connection points: 3
#     Node 9, Type 0, BuildingBlock: VETTIZ_charged_linker_0, # of connection points: 3
#     Node 10, Type 0, BuildingBlock: VETTIZ_charged_linker_0, # of connection points: 3
#     Node 11, Type 0, BuildingBlock: VETTIZ_charged_linker_0, # of connection points: 3
#     Node 12, Type 0, BuildingBlock: VETTIZ_charged_linker_0, # of connection points: 3
#     Node 13, Type 0, BuildingBlock: VETTIZ_charged_linker_0, # of connection points: 3
#     Node 14, Type 0, BuildingBlock: VETTIZ_charged_linker_0, # of connection points: 3
#     Node 15, Type 0, BuildingBlock: VETTIZ_charged_linker_0, # of connection points: 3
#     Node 16, Type 1, BuildingBlock: NAHDIM_clean_sbu_0, # of connection points: 4
#     Node 17, Type 1, BuildingBlock: NAHDIM_clean_sbu_0, # of connection points: 4
#     Node 18, Type 1, BuildingBlock: NAHDIM_clean_sbu_0, # of connection points: 4
#     Node 19, Type 1, BuildingBlock: NAHDIM_clean_sbu_0, # of connection points: 4
#     Node 20, Type 1, BuildingBlock: NAHDIM_clean_sbu_0, # of connection points: 4
#     Node 21, Type 1, BuildingBlock: NAHDIM_clean_sbu_0, # of connection points: 4
#     Node 22, Type 1, BuildingBlock: NAHDIM_clean_sbu_0, # of connection points: 4
#     Node 23, Type 1, BuildingBlock: NAHDIM_clean_sbu_0, # of connection points: 4
#     Node 24, Type 1, BuildingBlock: NAHDIM_clean_sbu_0, # of connection points: 4
#     Node 25, Type 1, BuildingBlock: NAHDIM_clean_sbu_0, # of connection points: 4
#     Node 26, Type 1, BuildingBlock: NAHDIM_clean_sbu_0, # of connection points: 4
#     Node 27, Type 1, BuildingBlock: NAHDIM_clean_sbu_0, # of connection points: 4
#     Edge 28, Type (0, 1), BuildingBlock: TEMPAE_clean_linker_10, # of connection points: 2
#     Edge 29, Type (0, 1), BuildingBlock: TEMPAE_clean_linker_10, # of connection points: 2
#     Edge 30, Type (0, 1), BuildingBlock: TEMPAE_clean_linker_10, # of connection points: 2
#     Edge 31, Type (0, 1), BuildingBlock: TEMPAE_clean_linker_10, # of connection points: 2
#     Edge 32, Type (0, 1), BuildingBlock: TEMPAE_clean_linker_10, # of connection points: 2
#     Edge 33, Type (0, 1), BuildingBlock: TEMPAE_clean_linker_10, # of connection points: 2
#     Edge 34, Type (0, 1), BuildingBlock: TEMPAE_clean_linker_10, # of connection points: 2
#     Edge 35, Type (0, 1), BuildingBlock: TEMPAE_clean_linker_10, # of connection points: 2
#     Edge 36, Type (0, 1), BuildingBlock: TEMPAE_clean_linker_10, # of connection points: 2
#     Edge 37, Type (0, 1), BuildingBlock: TEMPAE_clean_linker_10, # of connection points: 2
#     Edge 38, Type (0, 1), BuildingBlock: TEMPAE_clean_linker_10, # of connection points: 2
#     Edge 39, Type (0, 1), BuildingBlock: TEMPAE_clean_linker_10, # of connection points: 2
#     Edge 40, Type (0, 1), BuildingBlock: TEMPAE_clean_linker_10, # of connection points: 2
#     Edge 41, Type (0, 1), BuildingBlock: TEMPAE_clean_linker_10, # of connection points: 2
#     Edge 42, Type (0, 1), BuildingBlock: TEMPAE_clean_linker_10, # of connection points: 2
#     Edge 43, Type (0, 1), BuildingBlock: TEMPAE_clean_linker_10, # of connection points: 2
#     Edge 44, Type (0, 1), BuildingBlock: TEMPAE_clean_linker_10, # of connection points: 2
#     Edge 45, Type (0, 1), BuildingBlock: TEMPAE_clean_linker_10, # of connection points: 2
#     Edge 46, Type (0, 1), BuildingBlock: TEMPAE_clean_linker_10, # of connection points: 2
#     Edge 47, Type (0, 1), BuildingBlock: TEMPAE_clean_linker_10, # of connection points: 2
#     Edge 48, Type (0, 1), BuildingBlock: TEMPAE_clean_linker_10, # of connection points: 2
#     Edge 49, Type (0, 1), BuildingBlock: TEMPAE_clean_linker_10, # of connection points: 2
#     Edge 50, Type (0, 1), BuildingBlock: TEMPAE_clean_linker_10, # of connection points: 2
#     Edge 51, Type (0, 1), BuildingBlock: TEMPAE_clean_linker_10, # of connection points: 2
#     Edge 52, Type (0, 1), BuildingBlock: TEMPAE_clean_linker_10, # of connection points: 2
#     Edge 53, Type (0, 1), BuildingBlock: TEMPAE_clean_linker_10, # of connection points: 2
#     Edge 54, Type (0, 1), BuildingBlock: TEMPAE_clean_linker_10, # of connection points: 2
#     Edge 55, Type (0, 1), BuildingBlock: TEMPAE_clean_linker_10, # of connection points: 2
#     Edge 56, Type (0, 1), BuildingBlock: TEMPAE_clean_linker_10, # of connection points: 2
#     Edge 57, Type (0, 1), BuildingBlock: TEMPAE_clean_linker_10, # of connection points: 2
#     Edge 58, Type (0, 1), BuildingBlock: TEMPAE_clean_linker_10, # of connection points: 2
#     Edge 59, Type (0, 1), BuildingBlock: TEMPAE_clean_linker_10, # of connection points: 2
#     Edge 60, Type (0, 1), BuildingBlock: TEMPAE_clean_linker_10, # of connection points: 2
#     Edge 61, Type (0, 1), BuildingBlock: TEMPAE_clean_linker_10, # of connection points: 2
#     Edge 62, Type (0, 1), BuildingBlock: TEMPAE_clean_linker_10, # of connection points: 2
#     Edge 63, Type (0, 1), BuildingBlock: TEMPAE_clean_linker_10, # of connection points: 2
#     Edge 64, Type (0, 1), BuildingBlock: TEMPAE_clean_linker_10, # of connection points: 2
#     Edge 65, Type (0, 1), BuildingBlock: TEMPAE_clean_linker_10, # of connection points: 2
#     Edge 66, Type (0, 1), BuildingBlock: TEMPAE_clean_linker_10, # of connection points: 2
#     Edge 67, Type (0, 1), BuildingBlock: TEMPAE_clean_linker_10, # of connection points: 2
#     Edge 68, Type (0, 1), BuildingBlock: TEMPAE_clean_linker_10, # of connection points: 2
#     Edge 69, Type (0, 1), BuildingBlock: TEMPAE_clean_linker_10, # of connection points: 2
#     Edge 70, Type (0, 1), BuildingBlock: TEMPAE_clean_linker_10, # of connection points: 2
#     Edge 71, Type (0, 1), BuildingBlock: TEMPAE_clean_linker_10, # of connection points: 2
#     Edge 72, Type (0, 1), BuildingBlock: TEMPAE_clean_linker_10, # of connection points: 2
#     Edge 73, Type (0, 1), BuildingBlock: TEMPAE_clean_linker_10, # of connection points: 2
#     Edge 74, Type (0, 1), BuildingBlock: TEMPAE_clean_linker_10, # of connection points: 2
#     Edge 75, Type (0, 1), BuildingBlock: TEMPAE_clean_linker_10, # of connection points: 2
# Relax obj value: 0.002
# Max RMSD: 0.034
# Mean RMSD: 0.017
data_MOF--net-ctn--node1-NAHDIM_clean_sbu_0--node2-VETTIZ_charged_linker_0--edge1-TEMPAE_clean_linker_10
_symmetry_space_group_name_H-M    P1
_symmetry_Int_Tables_number       1
_symmetry_cell_setting            triclinic
loop_
_symmetry_equiv_pos_as_xyz
'x, y, z'
_cell_length_a     67.762111
_cell_length_b     68.099397
_cell_length_c     67.446297
_cell_angle_alpha  91.157408
_cell_angle_beta   90.024809
_cell_angle_gamma 92.106587
loop_
_atom_site_label
_atom_site_type_symbol
_atom_site_fract_x
_atom_site_fract_y
_atom_site_fract_z
_atom_type_partial_charge
C0 C 0.03284 0.09894 0.99415 0.0
C1 C 0.01691 0.11141 0.99663 0.0
C2 C 0.00355 0.10809 0.01233 0.0
C3 C 0.02184 0.08009 0.02252 0.0
C4 C 0.03505 0.08348 0.00725 0.0
C5 C 0.05128 0.06899 0.00685 0.0
H6 H 0.09199 0.98874 0.0452 0.0
C7 C 0.02823 0.06277 0.03332 0.0
C8 C 0.04551 0.05624 0.02428 0.0
H9 H 0.11308 0.02357 0.99613 0.0
H10 H 0.08591 0.0452 0.00042 0.0
H11 H 0.08187 0.02481 0.07328 0.0
H12 H 0.04561 0.98891 0.03343 0.0
H13 H 0.0321 0.99242 0.05537 0.0
H14 H 0.0551 0.97999 0.05628 0.0
H15 H 0.07366 0.00029 0.07923 0.0
H16 H 0.05889 0.0212 0.0849 0.0
C17 C 0.0712 0.08044 0.01044 0.0
C18 C 0.04998 0.05735 0.98689 0.0
C19 C 0.98766 0.03751 0.09139 0.0
C20 C 0.9899 0.02188 0.1044 0.0
C21 C 0.00615 0.00971 0.10197 0.0
C22 C 0.01993 0.01304 0.0868 0.0
C23 C 0.0175 0.02875 0.07393 0.0
C24 C 0.00159 0.04069 0.07637 0.0
C25 C 0.00154 0.05687 0.06154 0.0
C26 C 0.02002 0.05265 0.04975 0.0
C27 C 0.02926 0.03614 0.05702 0.0
C28 C 0.00341 0.07684 0.07299 0.0
C29 C 0.9826 0.05404 0.04876 0.0
C30 C 0.09064 0.00094 0.03528 0.0
C31 C 0.10463 0.00443 0.02026 0.0
C32 C 0.10256 0.02068 0.0079 0.0
C33 C 0.08672 0.03316 0.01036 0.0
C34 C 0.07279 0.02941 0.02538 0.0
C35 C 0.07495 0.01359 0.0376 0.0
C36 C 0.05896 0.01208 0.053 0.0
C37 C 0.04676 0.02953 0.04792 0.0
C38 C 0.05487 0.03957 0.03168 0.0
C39 C 0.06871 0.01457 0.07375 0.0
C40 C 0.04731 0.9923 0.04956 0.0
H41 H 0.99519 0.0907 0.03682 0.0
H42 H 0.04349 0.10128 0.98238 0.0
H43 H 0.0343 0.0541 0.98266 0.0
H44 H 0.05671 0.04287 0.98748 0.0
H45 H 0.057 0.06589 0.97475 0.0
H46 H 0.06927 0.09342 0.02045 0.0
H47 H 0.07756 0.08587 0.99631 0.0
H48 H 0.08221 0.07165 0.01802 0.0
H49 H 0.9755 0.0473 0.09306 0.0
H50 H 0.0081 0.99749 0.11173 0.0
H51 H 0.03194 0.00325 0.08571 0.0
H52 H 0.01249 0.07561 0.08664 0.0
H53 H 0.9887 0.08197 0.07759 0.0
H54 H 0.01112 0.08844 0.06441 0.0
H55 H 0.97916 0.03816 0.04571 0.0
H56 H 0.98403 0.06063 0.034 0.0
H57 H 0.96966 0.0602 0.05648 0.0
H58 H 0.99106 0.1174 0.01442 0.0
C59 C 0.00592 0.09251 0.02525 0.0
C60 C 0.24472 0.65652 0.23057 0.0
C61 C 0.2275 0.65257 0.2193 0.0
C62 C 0.22288 0.6653 0.20388 0.0
C63 C 0.25243 0.68533 0.211 0.0
C64 C 0.25692 0.67288 0.22615 0.0
C65 C 0.27585 0.67907 0.23655 0.0
H66 H 0.35373 0.74368 0.24622 0.0
C67 C 0.26828 0.70077 0.2101 0.0
C68 C 0.28208 0.69716 0.22499 0.0
H69 H 0.33986 0.69263 0.28144 0.0
H70 H 0.31101 0.68511 0.26137 0.0
H71 H 0.30896 0.75825 0.24264 0.0
H72 H 0.34471 0.72268 0.20451 0.0
H73 H 0.33028 0.73672 0.18895 0.0
H74 H 0.34783 0.74895 0.20564 0.0
H75 H 0.33032 0.76774 0.22972 0.0
H76 H 0.30636 0.76628 0.21816 0.0
C77 C 0.2709 0.68422 0.25844 0.0
C78 C 0.2906 0.66237 0.23384 0.0
C79 C 0.26457 0.75435 0.15911 0.0
C80 C 0.27751 0.77 0.15398 0.0
C81 C 0.29551 0.77285 0.16426 0.0
C82 C 0.30042 0.76044 0.1797 0.0
C83 C 0.28726 0.7449 0.18479 0.0
C84 C 0.26981 0.74192 0.17436 0.0
C85 C 0.25812 0.72409 0.18107 0.0
C86 C 0.27125 0.71707 0.19752 0.0
C87 C 0.28818 0.72942 0.19977 0.0
C88 C 0.23802 0.73089 0.18911 0.0
C89 C 0.25654 0.70911 0.16345 0.0
C90 C 0.34459 0.73077 0.24948 0.0
C91 C 0.34904 0.7188 0.26552 0.0
C92 C 0.3366 0.70226 0.26938 0.0
C93 C 0.31989 0.69787 0.25764 0.0
C94 C 0.31548 0.71014 0.24186 0.0
C95 C 0.32782 0.72619 0.23792 0.0
C96 C 0.32084 0.73757 0.22054 0.0
C97 C 0.3021 0.72588 0.2149 0.0
C98 C 0.29906 0.70983 0.22744 0.0
C99 C 0.31646 0.75864 0.22797 0.0
C100 C 0.3367 0.73664 0.20401 0.0
H101 H 0.23087 0.69076 0.18779 0.0
H102 H 0.2488 0.6469 0.24237 0.0
H103 H 0.28901 0.65529 0.21888 0.0
H104 H 0.30619 0.66766 0.23466 0.0
H105 H 0.28801 0.65077 0.24499 0.0
H106 H 0.25623 0.69099 0.25962 0.0
H107 H 0.27041 0.67087 0.26765 0.0
H108 H 0.28135 0.69526 0.26517 0.0
H109 H 0.25081 0.75163 0.15115 0.0
H110 H 0.30568 0.78485 0.16048 0.0
H111 H 0.31426 0.76343 0.18709 0.0
H112 H 0.23994 0.74498 0.19765 0.0
H113 H 0.22755 0.73329 0.17679 0.0
H114 H 0.23106 0.7205 0.19957 0.0
H115 H 0.26971 0.71037 0.15365 0.0
H116 H 0.25616 0.69368 0.16825 0.0
H117 H 0.24332 0.71157 0.15421 0.0
H118 H 0.20959 0.66271 0.19515 0.0
C119 C 0.23523 0.68164 0.19969 0.0
C120 C 0.98423 0.41467 0.99211 0.0
C121 C 0.97348 0.41243 0.97431 0.0
C122 C 0.95902 0.42612 0.97003 0.0
C123 C 0.96612 0.44366 0.001 0.0
C124 C 0.98038 0.43034 0.00511 0.0
C125 C 0.99065 0.43486 0.02453 0.0
H126 H 0.00139 0.49322 0.10652 0.0
C127 C 0.96578 0.45814 0.01761 0.0
C128 C 0.98019 0.4531 0.0314 0.0
H129 H 0.03376 0.44164 0.09076 0.0
H130 H 0.01474 0.43736 0.06061 0.0
H131 H 0.95914 0.47514 0.09392 0.0
H132 H 0.00177 0.51166 0.06323 0.0
H133 H 0.97839 0.52047 0.05777 0.0
H134 H 0.98692 0.52086 0.08313 0.0
H135 H 0.96315 0.50077 0.0999 0.0
H136 H 0.94583 0.4924 0.08096 0.0
C137 C 0.98655 0.41736 0.03846 0.0
C138 C 0.01281 0.43931 0.02021 0.0
C139 C 0.91623 0.51242 0.01758 0.0
C140 C 0.91231 0.52782 0.03108 0.0
C141 C 0.92402 0.53022 0.04831 0.0
C142 C 0.93918 0.51739 0.05216 0.0
C143 C 0.94274 0.50195 0.03867 0.0
C144 C 0.93145 0.49973 0.02166 0.0
C145 C 0.93744 0.48252 0.00898 0.0
C146 C 0.95405 0.47467 0.02132 0.0
C147 C 0.95704 0.4861 0.03868 0.0
C148 C 0.91959 0.4677 0.00737 0.0
C149 C 0.94495 0.49042 0.98884 0.0
C150 C 0.0045 0.4811 0.09647 0.0
C151 C 0.01914 0.46778 0.10098 0.0
C152 C 0.02246 0.452 0.0877 0.0
C153 C 0.01147 0.44961 0.07014 0.0
C154 C 0.99694 0.46311 0.06581 0.0
C155 C 0.99363 0.47849 0.07893 0.0
C156 C 0.97744 0.49125 0.07207 0.0
C157 C 0.97169 0.48111 0.05257 0.0
C158 C 0.98316 0.46466 0.04897 0.0
C159 C 0.96048 0.49005 0.08748 0.0
C160 C 0.98641 0.51223 0.06897 0.0
H161 H 0.9441 0.45158 0.97913 0.0
H162 H 0.99526 0.40431 0.99602 0.0
H163 H 0.01473 0.44722 0.00603 0.0
H164 H 0.02002 0.44911 0.0315 0.0
H165 H 0.02105 0.42554 0.01894 0.0
H166 H 0.97137 0.41092 0.03611 0.0
H167 H 0.99709 0.40551 0.03568 0.0
H168 H 0.98709 0.42168 0.05432 0.0
H169 H 0.90741 0.51006 0.00429 0.0
H170 H 0.92153 0.54213 0.05879 0.0
H171 H 0.9475 0.52001 0.06555 0.0
H172 H 0.91162 0.46676 0.02176 0.0
H173 H 0.9089 0.47225 0.99599 0.0
H174 H 0.92389 0.45255 0.0039 0.0
H175 H 0.95234 0.5052 0.99074 0.0
H176 H 0.95629 0.48122 0.98199 0.0
H177 H 0.93257 0.4918 0.97822 0.0
H178 H 0.9507 0.42492 0.95631 0.0
C179 C 0.95528 0.44168 0.98326 0.0
C180 C 0.6559 0.79506 0.253 0.0
C181 C 0.6448 0.77715 0.253 0.0
C182 C 0.6502 0.76193 0.23979 0.0
C183 C 0.67649 0.78277 0.22643 0.0
C184 C 0.67171 0.79744 0.23981 0.0
C185 C 0.68541 0.81526 0.23842 0.0
H186 H 0.76254 0.86166 0.19322 0.0
C187 C 0.69329 0.79013 0.2144 0.0
C188 C 0.69873 0.80908 0.22149 0.0
H189 H 0.73034 0.88105 0.24498 0.0
H190 H 0.7092 0.85183 0.24285 0.0
H191 H 0.72528 0.84533 0.16852 0.0
H192 H 0.76572 0.81702 0.2069 0.0
H193 H 0.76183 0.80166 0.18589 0.0
H194 H 0.7726 0.826 0.18294 0.0
H195 H 0.7497 0.83949 0.16067 0.0
H196 H 0.7291 0.82206 0.1579 0.0
C197 C 0.67303 0.83302 0.23293 0.0
C198 C 0.69682 0.81786 0.25831 0.0
C199 C 0.71756 0.74897 0.15632 0.0
C200 C 0.73179 0.75254 0.14151 0.0
C201 C 0.74299 0.77042 0.14214 0.0
C202 C 0.73998 0.78452 0.15714 0.0
C203 C 0.72555 0.78082 0.17167 0.0
C204 C 0.71461 0.7633 0.17109 0.0
C205 C 0.69951 0.76215 0.18739 0.0
C206 C 0.70318 0.78191 0.19783 0.0
C207 C 0.7185 0.79272 0.18861 0.0
C208 C 0.67879 0.76038 0.17766 0.0
C209 C 0.70444 0.74481 0.20087 0.0
C210 C 0.75105 0.85957 0.20422 0.0
C211 C 0.74819 0.87373 0.21931 0.0
C212 C 0.73276 0.87053 0.23305 0.0
C213 C 0.7206 0.85344 0.23192 0.0
C214 C 0.72392 0.83929 0.21696 0.0
C215 C 0.73892 0.8425 0.20342 0.0
C216 C 0.74054 0.82572 0.18876 0.0
C217 C 0.7243 0.81172 0.196 0.0
C218 C 0.71451 0.81981 0.21241 0.0
C219 C 0.73609 0.83342 0.1678 0.0
C220 C 0.76126 0.81711 0.19102 0.0
H221 H 0.66914 0.75255 0.21678 0.0
H222 H 0.65226 0.80714 0.26285 0.0
H223 H 0.6982 0.80359 0.26584 0.0
H224 H 0.71224 0.82335 0.25625 0.0
H225 H 0.6892 0.82791 0.26871 0.0
H226 H 0.66201 0.82872 0.22124 0.0
H227 H 0.66484 0.8386 0.24602 0.0
H228 H 0.68199 0.84528 0.22673 0.0
H229 H 0.70884 0.73533 0.15644 0.0
H230 H 0.75381 0.77374 0.13077 0.0
H231 H 0.74889 0.79786 0.15669 0.0
H232 H 0.67804 0.77007 0.16461 0.0
H233 H 0.67533 0.74507 0.17242 0.0
H234 H 0.66685 0.7651 0.18757 0.0
H235 H 0.72062 0.74258 0.20128 0.0
H236 H 0.70033 0.74746 0.21654 0.0
H237 H 0.69714 0.73085 0.19545 0.0
H238 H 0.64237 0.74778 0.23976 0.0
C239 C 0.66589 0.76466 0.2265 0.0
C240 C 0.03381 0.92134 0.50478 0.0
C241 C 0.01848 0.90708 0.50197 0.0
C242 C 0.00553 0.90866 0.48577 0.0
C243 C 0.02304 0.93847 0.4757 0.0
C244 C 0.03585 0.9368 0.49148 0.0
C245 C 0.05153 0.95301 0.49212 0.0
H246 H 0.09209 0.03548 0.45222 0.0
C247 C 0.02917 0.95624 0.46475 0.0
C248 C 0.04591 0.96478 0.47423 0.0
H249 H 0.11188 0.00439 0.50342 0.0
H250 H 0.08476 0.98073 0.49949 0.0
H251 H 0.04605 0.03243 0.46278 0.0
H252 H 0.08228 0.99687 0.42511 0.0
H253 H 0.05988 -5e-05 0.41261 0.0
H254 H 0.07555 0.02119 0.41871 0.0
H255 H 0.05486 0.04061 0.43915 0.0
H256 H 0.03213 0.02619 0.44146 0.0
C257 C 0.04921 0.96487 0.51178 0.0
C258 C 0.07189 0.94363 0.48945 0.0
C259 C 0.98955 0.97611 0.40497 0.0
C260 C 0.99144 0.99187 0.39188 0.0
C261 C 0.00723 0.00575 0.39452 0.0
C262 C 0.02085 0.004 0.40999 0.0
C263 C 0.0187 0.98818 0.42298 0.0
C264 C 0.00325 0.97456 0.42032 0.0
C265 C 0.00329 0.95869 0.43549 0.0
C266 C 0.02122 0.9651 0.44779 0.0
C267 C 0.0302 0.98236 0.4404 0.0
C268 C 0.9839 0.95971 0.4476 0.0
C269 C 0.00618 0.93877 0.42452 0.0
C270 C 0.09065 0.02348 0.46249 0.0
C271 C 0.10415 0.0218 0.47815 0.0
C272 C 0.10156 0.00615 0.49138 0.0
C273 C 0.08585 0.99234 0.48899 0.0
C274 C 0.07255 0.99416 0.47321 0.0
C275 C 0.07503 0.00957 0.46032 0.0
C276 C 0.0594 0.0092 0.44446 0.0
C277 C 0.04724 0.99093 0.44986 0.0
C278 C 0.05502 0.98219 0.4667 0.0
C279 C 0.04748 0.0281 0.44686 0.0
C280 C 0.06966 0.00682 0.42407 0.0
H281 H 0.99731 0.9247 0.46069 0.0
H282 H 0.04415 0.92037 0.51694 0.0
H283 H 0.07074 0.93049 0.47937 0.0
H284 H 0.08296 0.95353 0.48239 0.0
H285 H 0.07779 0.93882 0.50386 0.0
H286 H 0.03335 0.9661 0.51568 0.0
H287 H 0.05656 0.95761 0.52425 0.0
H288 H 0.055 0.98019 0.51091 0.0
H289 H 0.97776 0.96503 0.40318 0.0
H290 H 0.00892 0.01813 0.38476 0.0
H291 H 0.03249 0.01506 0.41125 0.0
H292 H 0.97983 0.97523 0.45018 0.0
H293 H 0.97144 0.95201 0.43961 0.0
H294 H 0.98512 0.95358 0.46255 0.0
H295 H 0.01561 0.94072 0.41115 0.0
H296 H 0.01399 0.92818 0.4336 0.0
H297 H 0.99182 0.93198 0.41955 0.0
H298 H 0.99351 0.89794 0.48341 0.0
C299 C 0.00771 0.92428 0.47266 0.0
C300 C 0.25036 0.66726 0.7946 0.0
C301 C 0.24859 0.65368 0.77866 0.0
C302 C 0.23261 0.65494 0.7654 0.0
C303 C 0.2207 0.68298 0.78395 0.0
C304 C 0.23637 0.68171 0.79691 0.0
C305 C 0.23631 0.6973 0.81298 0.0
H306 H 0.19272 0.77459 0.85682 0.0
C307 C 0.20887 0.69968 0.79061 0.0
C308 C 0.21796 0.70812 0.80759 0.0
H309 H 0.24717 0.74796 0.87304 0.0
H310 H 0.24348 0.72476 0.84572 0.0
H311 H 0.16761 0.73334 0.84484 0.0
H312 H 0.20205 0.77534 0.81118 0.0
H313 H 0.18211 0.76732 0.79613 0.0
H314 H 0.17743 0.78014 0.81925 0.0
H315 H 0.16031 0.75808 0.84104 0.0
H316 H 0.15437 0.73869 0.82323 0.0
C317 C 0.23406 0.68697 0.83316 0.0
C318 C 0.25538 0.71044 0.81096 0.0
C319 C 0.14794 0.71696 0.75183 0.0
C320 C 0.13439 0.73204 0.75385 0.0
C321 C 0.13638 0.74534 0.77011 0.0
C322 C 0.15168 0.74378 0.78393 0.0
C323 C 0.16526 0.72883 0.78147 0.0
C324 C 0.16322 0.71572 0.76563 0.0
C325 C 0.17924 0.70103 0.76507 0.0
C326 C 0.19135 0.70758 0.78309 0.0
C327 C 0.18305 0.7238 0.79272 0.0
C328 C 0.16952 0.68029 0.7676 0.0
C329 C 0.19098 0.70368 0.74552 0.0
C330 C 0.20369 0.76361 0.85449 0.0
C331 C 0.22021 0.76294 0.86704 0.0
C332 C 0.2344 0.74873 0.86344 0.0
C333 C 0.23219 0.73526 0.84761 0.0
C334 C 0.21568 0.73609 0.8351 0.0
C335 C 0.20183 0.75018 0.83851 0.0
C336 C 0.1858 0.74937 0.82302 0.0
C337 C 0.19216 0.73226 0.81 0.0
C338 C 0.20958 0.7245 0.81728 0.0
C339 C 0.16588 0.74475 0.83345 0.0
C340 C 0.18667 0.76905 0.81182 0.0
H341 H 0.20688 0.66969 0.75736 0.0
H342 H 0.26228 0.66656 0.80524 0.0
H343 H 0.26052 0.71091 0.7953 0.0
H344 H 0.25313 0.72599 0.81511 0.0
H345 H 0.2676 0.70486 0.81999 0.0
H346 H 0.22356 0.67405 0.83189 0.0
H347 H 0.24844 0.68162 0.83832 0.0
H348 H 0.22785 0.69643 0.84489 0.0
H349 H 0.14673 0.7063 0.73971 0.0
H350 H 0.12633 0.75725 0.77194 0.0
H351 H 0.15245 0.75441 0.79589 0.0
H352 H 0.15694 0.68078 0.77819 0.0
H353 H 0.16369 0.67425 0.75325 0.0
H354 H 0.17963 0.66973 0.77395 0.0
H355 H 0.19191 0.71939 0.74128 0.0
H356 H 0.2065 0.69943 0.74674 0.0
H357 H 0.18379 0.69519 0.73309 0.0
H358 H 0.23101 0.6448 0.75287 0.0
C359 C 0.21867 0.66948 0.76797 0.0
C360 C 0.91316 0.50412 0.48191 0.0
C361 C 0.90832 0.48744 0.46999 0.0
C362 C 0.92116 0.48226 0.45445 0.0
C363 C 0.94282 0.51041 0.46253 0.0
C364 C 0.93036 0.51534 0.47792 0.0
C365 C 0.93744 0.53368 0.48896 0.0
H366 H 0.00395 0.60997 0.49813 0.0
C367 C 0.9591 0.52543 0.46201 0.0
C368 C 0.95602 0.53912 0.47745 0.0
H369 H 0.95324 0.59705 0.53516 0.0
H370 H 0.9454 0.5678 0.51544 0.0
H371 H 0.98285 0.60013 0.45717 0.0
H372 H 0.0183 0.56551 0.49499 0.0
H373 H 0.02574 0.56075 0.47048 0.0
H374 H 0.02841 0.58539 0.48066 0.0
H375 H 0.00921 0.60342 0.45837 0.0
H376 H 0.99738 0.5858 0.44143 0.0
C377 C 0.92151 0.54926 0.48698 0.0
C378 C 0.9421 0.52816 0.51061 0.0
C379 C 0.01238 0.52108 0.40918 0.0
C380 C 0.02859 0.53353 0.40433 0.0
C381 C 0.03233 0.55087 0.41567 0.0
C382 C 0.02018 0.55571 0.43168 0.0
C383 C 0.004 0.54316 0.43636 0.0
C384 C 0.00023 0.52624 0.42511 0.0
C385 C 0.98192 0.51511 0.43181 0.0
C386 C 0.97554 0.52797 0.44914 0.0
C387 C 0.98859 0.54429 0.45176 0.0
C388 C 0.96673 0.51464 0.4146 0.0
C389 C 0.98797 0.49459 0.43862 0.0
C390 C 0.99106 0.60092 0.50189 0.0
C391 C 0.97915 0.60585 0.51816 0.0
C392 C 0.96273 0.59348 0.52278 0.0
C393 C 0.95815 0.57655 0.51125 0.0
C394 C 0.97015 0.57189 0.49494 0.0
C395 C 0.98635 0.58395 0.49059 0.0
C396 C 0.99762 0.57659 0.47293 0.0
C397 C 0.98552 0.55812 0.46738 0.0
C398 C 0.9694 0.55548 0.48024 0.0
C399 C 0.99694 0.59225 0.45658 0.0
C400 C 0.01869 0.57189 0.47993 0.0
H401 H 0.94743 0.48898 0.43856 0.0
H402 H 0.90378 0.50835 0.49416 0.0
H403 H 0.94772 0.51304 0.51127 0.0
H404 H 0.95392 0.53767 0.5174 0.0
H405 H 0.92869 0.52865 0.52005 0.0
H406 H 0.91498 0.54869 0.47182 0.0
H407 H 0.90931 0.54668 0.49772 0.0
H408 H 0.92744 0.56448 0.48899 0.0
H409 H 0.00901 0.50781 0.40052 0.0
H410 H 0.04482 0.56059 0.41224 0.0
H411 H 0.02386 0.56907 0.43976 0.0
H412 H 0.96819 0.5282 0.4057 0.0
H413 H 0.96889 0.5019 0.40439 0.0
H414 H 0.95127 0.51429 0.41981 0.0
H415 H 0.00228 0.49566 0.44674 0.0
H416 H 0.97738 0.48782 0.44912 0.0
H417 H 0.98977 0.48441 0.42572 0.0
H418 H 0.9177 0.46961 0.44492 0.0
C419 C 0.93836 0.49362 0.45068 0.0
C420 C 0.79113 0.73832 0.83808 0.0
C421 C 0.77685 0.73953 0.85312 0.0
C422 C 0.76423 0.75555 0.85347 0.0
C423 C 0.78026 0.76873 0.82423 0.0
C424 C 0.7926 0.75302 0.82392 0.0
C425 C 0.80721 0.75401 0.8072 0.0
H426 H 0.845 0.80171 0.72811 0.0
C427 C 0.78577 0.78142 0.80745 0.0
C428 C 0.80156 0.77288 0.79745 0.0
H429 H 0.86358 0.74746 0.7533 0.0
H430 H 0.83813 0.7493 0.77804 0.0
H431 H 0.83805 0.82447 0.76975 0.0
H432 H 0.7985 0.79119 0.73077 0.0
H433 H 0.78562 0.81141 0.73978 0.0
H434 H 0.80757 0.81551 0.72506 0.0
H435 H 0.8307 0.83315 0.746 0.0
H436 H 0.81616 0.83739 0.76793 0.0
C437 C 0.82826 0.75568 0.81628 0.0
C438 C 0.80332 0.7358 0.79339 0.0
C439 C 0.74811 0.84314 0.79521 0.0
C440 C 0.74947 0.85753 0.78054 0.0
C441 C 0.76409 0.85603 0.76576 0.0
C442 C 0.77706 0.84047 0.76555 0.0
C443 C 0.77542 0.82617 0.78024 0.0
C444 C 0.7611 0.82764 0.79472 0.0
C445 C 0.76134 0.81096 0.80897 0.0
C446 C 0.77812 0.7992 0.80062 0.0
C447 C 0.78636 0.80821 0.78384 0.0
C448 C 0.7662 0.8196 0.82991 0.0
C449 C 0.74122 0.79943 0.80742 0.0
C450 C 0.84347 0.79017 0.73889 0.0
C451 C 0.85641 0.77448 0.73884 0.0
C452 C 0.85401 0.75986 0.75322 0.0
C453 C 0.83914 0.7609 0.76753 0.0
C454 C 0.82646 0.77675 0.76754 0.0
C455 C 0.82867 0.79102 0.75336 0.0
C456 C 0.81378 0.80676 0.75573 0.0
C457 C 0.80241 0.79963 0.77377 0.0
C458 C 0.80993 0.78206 0.78057 0.0
C459 C 0.82511 0.82658 0.75995 0.0
C460 C 0.80069 0.80642 0.73687 0.0
H461 H 0.75589 0.78198 0.84026 0.0
H462 H 0.80091 0.72611 0.83722 0.0
H463 H 0.78725 0.73186 0.79252 0.0
H464 H 0.80781 0.73836 0.77789 0.0
H465 H 0.81092 0.72281 0.79893 0.0
H466 H 0.8283 0.76408 0.83061 0.0
H467 H 0.83398 0.74094 0.81922 0.0
H468 H 0.83894 0.76388 0.80691 0.0
H469 H 0.73721 0.84395 0.80691 0.0
H470 H 0.7653 0.86673 0.75412 0.0
H471 H 0.78779 0.84012 0.75387 0.0
H472 H 0.77692 0.83232 0.82903 0.0
H473 H 0.75271 0.82483 0.83739 0.0
H474 H 0.7734 0.80908 0.83956 0.0
H475 H 0.73571 0.79897 0.79186 0.0
H476 H 0.74213 0.78387 0.81147 0.0
H477 H 0.72987 0.80644 0.81678 0.0
H478 H 0.75327 0.75698 0.86504 0.0
C479 C 0.76585 0.77013 0.83912 0.0
C480 C 0.28766 0.23052 0.33189 0.0
C481 C 0.27403 0.23276 0.34743 0.0
C482 C 0.26271 0.24974 0.34821 0.0
C483 C 0.27871 0.26179 0.31849 0.0
C484 C 0.28981 0.24518 0.31774 0.0
C485 C 0.30405 0.24532 0.30064 0.0
H486 H 0.34508 0.29308 0.22307 0.0
C487 C 0.28473 0.27428 0.30174 0.0
C488 C 0.29963 0.26475 0.29126 0.0
H489 H 0.35832 0.23561 0.2447 0.0
H490 H 0.33328 0.23847 0.26976 0.0
H491 H 0.33907 0.31462 0.26571 0.0
H492 H 0.29863 0.28566 0.22444 0.0
H493 H 0.28617 0.30545 0.23495 0.0
H494 H 0.30828 0.31017 0.22061 0.0
H495 H 0.33336 0.32428 0.24189 0.0
H496 H 0.3184 0.32932 0.26332 0.0
C497 C 0.32527 0.24533 0.30921 0.0
C498 C 0.29859 0.22757 0.28669 0.0
C499 C 0.25068 0.33832 0.29072 0.0
C500 C 0.25263 0.35275 0.27615 0.0
C501 C 0.26725 0.35082 0.26142 0.0
C502 C 0.27952 0.33468 0.26107 0.0
C503 C 0.27714 0.32024 0.27555 0.0
C504 C 0.26295 0.32224 0.29007 0.0
C505 C 0.26234 0.30537 0.30411 0.0
C506 C 0.27829 0.29273 0.2954 0.0
C507 C 0.28697 0.30156 0.27875 0.0
C508 C 0.26789 0.31349 0.3251 0.0
C509 C 0.24162 0.29501 0.30264 0.0
C510 C 0.3425 0.28102 0.23307 0.0
C511 C 0.35394 0.26419 0.23198 0.0
C512 C 0.35007 0.24893 0.24544 0.0
C513 C 0.33542 0.25056 0.25995 0.0
C514 C 0.32437 0.26759 0.26103 0.0
C515 C 0.3278 0.28235 0.24757 0.0
C516 C 0.31412 0.29906 0.25054 0.0
C517 C 0.30223 0.29208 0.26829 0.0
C518 C 0.3084 0.27371 0.27443 0.0
C519 C 0.32677 0.31792 0.25551 0.0
C520 C 0.30115 0.30037 0.23169 0.0
H521 H 0.25596 0.2768 0.33534 0.0
H522 H 0.29647 0.2176 0.33071 0.0
H523 H 0.28237 0.2243 0.28668 0.0
H524 H 0.30226 0.23035 0.27101 0.0
H525 H 0.30592 0.21412 0.29143 0.0
H526 H 0.32647 0.25461 0.32296 0.0
H527 H 0.32941 0.23023 0.31305 0.0
H528 H 0.33651 0.25166 0.29913 0.0
H529 H 0.23981 0.33947 0.30241 0.0
H530 H 0.26894 0.36158 0.24989 0.0
H531 H 0.29026 0.334 0.24942 0.0
H532 H 0.27869 0.32616 0.32426 0.0
H533 H 0.25469 0.31864 0.33314 0.0
H534 H 0.27533 0.30267 0.33422 0.0
H535 H 0.23618 0.29467 0.28707 0.0
H536 H 0.24154 0.27947 0.30696 0.0
H537 H 0.23071 0.30285 0.31186 0.0
H538 H 0.25234 0.25204 0.36018 0.0
C539 C 0.26495 0.26421 0.33384 0.0
C540 C 0.48449 0.90897 0.49627 0.0
C541 C 0.47504 0.90643 0.47775 0.0
C542 C 0.46151 0.92046 0.47185 0.0
C543 C 0.46681 0.93881 0.50267 0.0
C544 C 0.48024 0.92523 0.50836 0.0
C545 C 0.48926 0.93025 0.52829 0.0
H546 H 0.49613 0.9916 0.60843 0.0
C547 C 0.4657 0.95388 0.51866 0.0
C548 C 0.47891 0.94901 0.53367 0.0
H549 H 0.52832 0.93892 0.59685 0.0
H550 H 0.51102 0.93372 0.5658 0.0
H551 H 0.45452 0.97387 0.59416 0.0
H552 H 0.49938 0.00826 0.56411 0.0
H553 H 0.47643 0.01753 0.55765 0.0
H554 H 0.48412 0.01829 0.58326 0.0
H555 H 0.45819 -0.00022 0.59876 0.0
H556 H 0.44216 0.99023 0.57918 0.0
C557 C 0.48368 0.91341 0.54259 0.0
C558 C 0.51178 0.93395 0.5254 0.0
C559 C 0.41746 0.00892 0.51307 0.0
C560 C 0.4127 0.02467 0.5258 0.0
C561 C 0.4231 0.02743 0.54381 0.0
C562 C 0.4378 0.0146 0.54917 0.0
C563 C 0.44218 0.99877 0.53642 0.0
C564 C 0.43215 0.9962 0.51867 0.0
C565 C 0.4387 0.97852 0.50705 0.0
C566 C 0.45414 0.97077 0.52089 0.0
C567 C 0.45612 0.9827 0.53804 0.0
C568 C 0.4207 0.96399 0.50455 0.0
C569 C 0.44788 0.98566 0.48729 0.0
C570 C 0.49956 0.97903 0.59912 0.0
C571 C 0.51365 0.96568 0.60507 0.0
C572 C 0.51741 0.94932 0.59268 0.0
C573 C 0.50743 0.9464 0.57459 0.0
C574 C 0.4935 0.95996 0.56879 0.0
C575 C 0.48972 0.9759 0.58103 0.0
C576 C 0.47428 0.98866 0.5726 0.0
C577 C 0.46962 0.97791 0.55314 0.0
C578 C 0.48091 0.96113 0.55098 0.0
C579 C 0.45634 0.98834 0.58687 0.0
C580 C 0.48386 0.00935 0.5693 0.0
H581 H 0.44691 0.94669 0.47882 0.0
H582 H 0.49483 0.89844 0.50139 0.0
H583 H 0.51495 0.94099 0.51095 0.0
H584 H 0.51841 0.94423 0.53661 0.0
H585 H 0.5197 0.91996 0.52557 0.0
H586 H 0.46842 0.9075 0.5396 0.0
H587 H 0.49384 0.90106 0.54082 0.0
H588 H 0.48357 0.91825 0.55831 0.0
H589 H 0.40993 0.00653 0.49901 0.0
H590 H 0.41958 0.03929 0.55399 0.0
H591 H 0.44505 0.01742 0.56313 0.0
H592 H 0.41165 0.96364 0.51831 0.0
H593 H 0.41101 0.96838 0.49224 0.0
H594 H 0.42488 0.94865 0.50193 0.0
H595 H 0.4553 0.00042 0.48924 0.0
H596 H 0.4596 0.97613 0.48174 0.0
H597 H 0.4364 0.98679 0.47565 0.0
H598 H 0.45428 0.91911 0.45753 0.0
C599 C 0.45733 0.93657 0.48419 0.0
C600 C 0.15381 0.29565 0.75321 0.0
C601 C 0.14034 0.27961 0.75044 0.0
C602 C 0.14309 0.26646 0.73433 0.0
C603 C 0.17215 0.28542 0.72411 0.0
C604 C 0.16948 0.29829 0.7399 0.0
C605 C 0.18493 0.31473 0.74056 0.0
H606 H 0.26509 0.35979 0.69917 0.0
C607 C 0.18965 0.29249 0.71291 0.0
C608 C 0.19716 0.30972 0.72243 0.0
H609 H 0.23493 0.37644 0.75303 0.0
H610 H 0.21191 0.34868 0.74875 0.0
H611 H 0.2262 0.34827 0.67331 0.0
H612 H 0.26519 0.31457 0.70834 0.0
H613 H 0.25917 0.30016 0.6872 0.0
H614 H 0.27205 0.3236 0.68442 0.0
H615 H 0.25073 0.34282 0.66544 0.0
H616 H 0.22994 0.32624 0.66009 0.0
C617 C 0.17442 0.33438 0.7383 0.0
C618 C 0.19688 0.31322 0.76004 0.0
C619 C 0.2124 0.25413 0.65218 0.0
C620 C 0.22792 0.2573 0.63861 0.0
C621 C 0.24026 0.27434 0.64086 0.0
C622 C 0.2374 0.28781 0.65645 0.0
C623 C 0.22199 0.28432 0.66999 0.0
C624 C 0.2097 0.2678 0.66764 0.0
C625 C 0.19385 0.26674 0.68325 0.0
C626 C 0.19892 0.28516 0.69555 0.0
C627 C 0.21543 0.29535 0.68772 0.0
C628 C 0.17354 0.26783 0.67281 0.0
C629 C 0.19651 0.24783 0.6952 0.0
C630 C 0.25337 0.35756 0.7099 0.0
C631 C 0.25167 0.37034 0.72636 0.0
C632 C 0.23652 0.36672 0.74026 0.0
C633 C 0.22316 0.35064 0.73771 0.0
C634 C 0.22507 0.33796 0.72116 0.0
C635 C 0.24006 0.34148 0.70767 0.0
C636 C 0.24037 0.3261 0.6914 0.0
C637 C 0.22296 0.31282 0.69723 0.0
C638 C 0.21397 0.31989 0.71458 0.0
C639 C 0.23677 0.33625 0.67143 0.0
C640 C 0.26022 0.31556 0.69268 0.0
H641 H 0.16013 0.25878 0.70922 0.0
H642 H 0.15229 0.3059 0.76556 0.0
H643 H 0.19802 0.29763 0.76442 0.0
H644 H 0.21235 0.31872 0.75861 0.0
H645 H 0.18975 0.32122 0.77247 0.0
H646 H 0.16227 0.33275 0.72722 0.0
H647 H 0.16786 0.33923 0.75259 0.0
H648 H 0.18424 0.34632 0.73275 0.0
H649 H 0.2027 0.24117 0.65098 0.0
H650 H 0.25207 0.27737 0.63042 0.0
H651 H 0.24732 0.30044 0.65732 0.0
H652 H 0.17468 0.27686 0.65926 0.0
H653 H 0.1677 0.25298 0.66822 0.0
H654 H 0.16243 0.27513 0.6821 0.0
H655 H 0.21244 0.24536 0.69775 0.0
H656 H 0.18992 0.24857 0.71014 0.0
H657 H 0.19013 0.23472 0.68711 0.0
H658 H 0.1328 0.25414 0.73168 0.0
C659 C 0.1589 0.26927 0.7212 0.0
C660 C 0.7455 0.15308 0.72764 0.0
C661 C 0.72915 0.14892 0.71523 0.0
C662 C 0.72556 0.16139 0.69931 0.0
C663 C 0.75421 0.18192 0.70848 0.0
C664 C 0.75787 0.16952 0.72392 0.0
C665 C 0.7762 0.17576 0.73532 0.0
H666 H 0.85296 0.24098 0.74938 0.0
C667 C 0.76982 0.19764 0.70867 0.0
C668 C 0.78285 0.19403 0.72425 0.0
H669 H 0.83883 0.18859 0.7825 0.0
H670 H 0.81055 0.18144 0.76148 0.0
H671 H 0.80834 0.25499 0.74527 0.0
H672 H 0.84539 0.22126 0.70671 0.0
H673 H 0.83169 0.2363 0.69146 0.0
H674 H 0.84856 0.24744 0.7095 0.0
H675 H 0.82939 0.26552 0.73265 0.0
H676 H 0.80543 0.26352 0.72105 0.0
C677 C 0.7701 0.18066 0.75695 0.0
C678 C 0.79121 0.15921 0.73326 0.0
C679 C 0.76716 0.25279 0.65929 0.0
C680 C 0.77974 0.26916 0.65555 0.0
C681 C 0.79702 0.27225 0.66698 0.0
C682 C 0.80158 0.25935 0.68211 0.0
C683 C 0.78879 0.24311 0.68578 0.0
C684 C 0.77202 0.23995 0.67431 0.0
C685 C 0.76056 0.22153 0.67979 0.0
C686 C 0.77301 0.21436 0.6967 0.0
C687 C 0.78944 0.22711 0.70022 0.0
C688 C 0.73983 0.22743 0.6869 0.0
C689 C 0.76039 0.20713 0.66167 0.0
C690 C 0.84391 0.22784 0.75198 0.0
C691 C 0.84815 0.21536 0.76767 0.0
C692 C 0.83576 0.19858 0.77069 0.0
C693 C 0.81939 0.1944 0.7584 0.0
C694 C 0.81529 0.20712 0.74289 0.0
C695 C 0.82753 0.22346 0.73984 0.0
C696 C 0.82096 0.23531 0.72263 0.0
C697 C 0.8027 0.22344 0.7159 0.0
C698 C 0.79943 0.20698 0.72784 0.0
C699 C 0.81584 0.256 0.73063 0.0
C700 C 0.83746 0.23529 0.70672 0.0
H701 H 0.73436 0.18687 0.68363 0.0
H702 H 0.74877 0.14358 0.73981 0.0
H703 H 0.78995 0.15172 0.71847 0.0
H704 H 0.80672 0.16475 0.73412 0.0
H705 H 0.78864 0.14789 0.74469 0.0
H706 H 0.75577 0.18814 0.7573 0.0
H707 H 0.76831 0.16709 0.76574 0.0
H708 H 0.78062 0.19096 0.76463 0.0
H709 H 0.75397 0.24987 0.65047 0.0
H710 H 0.80688 0.28481 0.66433 0.0
H711 H 0.81488 0.26256 0.69037 0.0
H712 H 0.74091 0.241 0.69637 0.0
H713 H 0.73013 0.23041 0.67411 0.0
H714 H 0.73239 0.21626 0.69619 0.0
H715 H 0.77378 0.20945 0.65234 0.0
H716 H 0.76076 0.19157 0.66599 0.0
H717 H 0.74731 0.20912 0.65209 0.0
H718 H 0.71297 0.15849 0.68964 0.0
C719 C 0.73795 0.17788 0.69591 0.0
C720 C 0.52766 0.59112 0.48825 0.0
C721 C 0.51081 0.60248 0.49008 0.0
C722 C 0.49747 0.59874 0.5057 0.0
C723 C 0.51817 0.57328 0.51777 0.0
C724 C 0.53107 0.57672 0.50225 0.0
C725 C 0.54867 0.56389 0.50298 0.0
H726 H 0.59943 0.49527 0.55082 0.0
C727 C 0.52646 0.55803 0.53025 0.0
C728 C 0.54437 0.5525 0.5217 0.0
H729 H 0.61466 0.52358 0.4958 0.0
H730 H 0.58486 0.54192 0.49758 0.0
H731 H 0.58616 0.53311 0.57343 0.0
H732 H 0.55273 0.48824 0.54088 0.0
H733 H 0.53997 0.4932 0.56303 0.0
H734 H 0.56454 0.48407 0.56418 0.0
H735 H 0.58004 0.50966 0.58389 0.0
H736 H 0.56366 0.52993 0.58601 0.0
C737 C 0.5675 0.57738 0.5051 0.0
C738 C 0.54824 0.55035 0.48423 0.0
C739 C 0.49034 0.53663 0.59264 0.0
C740 C 0.49534 0.52419 0.60806 0.0
C741 C 0.51327 0.51442 0.60719 0.0
C742 C 0.52605 0.5169 0.59105 0.0
C743 C 0.52095 0.52948 0.57574 0.0
C744 C 0.50343 0.53922 0.57678 0.0
C745 C 0.50105 0.55292 0.5598 0.0
C746 C 0.51983 0.54946 0.54818 0.0
C747 C 0.53132 0.53562 0.5575 0.0
C748 C 0.50045 0.57422 0.56836 0.0
C749 C 0.48239 0.54602 0.54795 0.0
C750 C 0.59644 0.50555 0.53924 0.0
C751 C 0.60945 0.50803 0.52319 0.0
C752 C 0.60479 0.52129 0.50824 0.0
C753 C 0.58752 0.53199 0.50935 0.0
C754 C 0.57473 0.52941 0.52557 0.0
C755 C 0.57926 0.5163 0.54011 0.0
C756 C 0.56393 0.51531 0.55619 0.0
C757 C 0.54938 0.52994 0.54887 0.0
C758 C 0.55581 0.53823 0.53099 0.0
C759 C 0.57384 0.5222 0.576 0.0
C760 C 0.5548 0.49411 0.55629 0.0
H761 H 0.49036 0.58212 0.53109 0.0
H762 H 0.53827 0.59377 0.47651 0.0
H763 H 0.53279 0.5462 0.47983 0.0
H764 H 0.55529 0.53622 0.4866 0.0
H765 H 0.5554 0.55779 0.47147 0.0
H766 H 0.56476 0.5902 0.51508 0.0
H767 H 0.57225 0.58314 0.4905 0.0
H768 H 0.57998 0.57002 0.51191 0.0
H769 H 0.47678 0.54458 0.5932 0.0
H770 H 0.51731 0.50478 0.619 0.0
H771 H 0.53946 0.50901 0.5912 0.0
H772 H 0.50905 0.57589 0.5824 0.0
H773 H 0.48508 0.57835 0.57165 0.0
H774 H 0.50738 0.5852 0.55845 0.0
H775 H 0.48141 0.5297 0.5466 0.0
H776 H 0.48245 0.55124 0.53256 0.0
H777 H 0.46877 0.55086 0.55547 0.0
H778 H 0.48426 0.60712 0.50725 0.0
C779 C 0.50103 0.58418 0.5195 0.0
C780 C 0.53119 0.41534 0.00422 0.0
C781 C 0.51444 0.40268 0.00231 0.0
C782 C 0.49955 0.40714 0.9887 0.0
C783 C 0.51843 0.43627 0.97887 0.0
C784 C 0.53282 0.43202 0.99249 0.0
C785 C 0.5495 0.44718 0.993 0.0
H786 H 0.59154 0.53102 0.95777 0.0
C787 C 0.5248 0.45454 0.96888 0.0
C788 C 0.54292 0.46107 0.97719 0.0
H789 H 0.61236 0.49477 0.00479 0.0
H790 H 0.58423 0.47252 0.00028 0.0
H791 H 0.54512 0.52884 0.9709 0.0
H792 H 0.57871 0.49574 0.92854 0.0
H793 H 0.55543 0.49894 0.91792 0.0
H794 H 0.57123 0.5202 0.92375 0.0
H795 H 0.55483 0.53915 0.94847 0.0
H796 H 0.53119 0.52616 0.94893 0.0
C797 C 0.55004 0.45711 0.01392 0.0
C798 C 0.56871 0.4369 0.98703 0.0
C799 C 0.48355 0.48009 0.91283 0.0
C800 C 0.48625 0.4959 0.89992 0.0
C801 C 0.50292 0.50872 0.90237 0.0
C802 C 0.51675 0.50576 0.91738 0.0
C803 C 0.51398 0.48971 0.93001 0.0
C804 C 0.49757 0.47723 0.92762 0.0
C805 C 0.4973 0.46062 0.94197 0.0
C806 C 0.5163 0.46514 0.95333 0.0
C807 C 0.52597 0.48223 0.94633 0.0
C808 C 0.47885 0.46239 0.95538 0.0
C809 C 0.49805 0.44106 0.92988 0.0
C810 C 0.58992 0.51836 0.96718 0.0
C811 C 0.60422 0.51462 0.98163 0.0
C812 C 0.60171 0.49784 0.99339 0.0
C813 C 0.58528 0.48498 0.99083 0.0
C814 C 0.57113 0.48889 0.97634 0.0
C815 C 0.57357 0.50533 0.9648 0.0
C816 C 0.55706 0.50698 0.95005 0.0
C817 C 0.54418 0.489 0.95491 0.0
C818 C 0.55256 0.47846 0.97028 0.0
C819 C 0.54647 0.52632 0.95461 0.0
C820 C 0.56593 0.50555 0.92891 0.0
H821 H 0.48971 0.42637 0.96676 0.0
H822 H 0.5427 0.41247 0.01482 0.0
H823 H 0.56573 0.4257 0.97506 0.0
H824 H 0.58008 0.44706 0.98087 0.0
H825 H 0.57506 0.42928 -0.00017 0.0
H826 H 0.53501 0.45744 0.02051 0.0
H827 H 0.5595 0.44907 0.02422 0.0
H828 H 0.55516 0.4727 0.01367 0.0
H829 H 0.47105 0.46981 0.91112 0.0
H830 H 0.50522 0.52107 0.89266 0.0
H831 H 0.52914 0.51599 0.91848 0.0
H832 H 0.47543 0.47806 0.95817 0.0
H833 H 0.46564 0.45502 0.94836 0.0
H834 H 0.48098 0.45636 0.97028 0.0
H835 H 0.50784 0.44277 0.91673 0.0
H836 H 0.50431 0.42903 0.93829 0.0
H837 H 0.48314 0.43626 0.92442 0.0
H838 H 0.48654 0.39752 0.98697 0.0
C839 C 0.50147 0.42384 0.97695 0.0
C840 C 0.74846 0.16576 0.3009 0.0
C841 C 0.74713 0.15363 0.2838 0.0
C842 C 0.73239 0.15706 0.26963 0.0
C843 C 0.72107 0.18453 0.28944 0.0
C844 C 0.73544 0.18108 0.30335 0.0
C845 C 0.73542 0.19566 0.32037 0.0
H846 H 0.69999 0.27829 0.36198 0.0
C847 C 0.71027 0.20187 0.29631 0.0
C848 C 0.71866 0.20847 0.31439 0.0
H849 H 0.74629 0.2424 0.38378 0.0
H850 H 0.74106 0.21953 0.35635 0.0
H851 H 0.67027 0.24247 0.35133 0.0
H852 H 0.71165 0.27542 0.31545 0.0
H853 H 0.68931 0.27248 0.3022 0.0
H854 H 0.68968 0.28554 0.32568 0.0
H855 H 0.6649 0.2663 0.34233 0.0
H856 H 0.65932 0.24415 0.32789 0.0
C857 C 0.73063 0.18436 0.33961 0.0
C858 C 0.75562 0.20712 0.32057 0.0
C859 C 0.65366 0.22642 0.25527 0.0
C860 C 0.6408 0.24201 0.25796 0.0
C861 C 0.64317 0.25447 0.27482 0.0
C862 C 0.65802 0.25143 0.28877 0.0
C863 C 0.67068 0.23574 0.28591 0.0
C864 C 0.66836 0.22353 0.2694 0.0
C865 C 0.68303 0.20748 0.26892 0.0
C866 C 0.69437 0.21194 0.28799 0.0
C867 C 0.68714 0.22858 0.2978 0.0
C868 C 0.67146 0.18746 0.26956 0.0
C869 C 0.69623 0.21021 0.25034 0.0
C870 C 0.70904 0.26554 0.36073 0.0
C871 C 0.72367 0.26218 0.37492 0.0
C872 C 0.73488 0.24522 0.37306 0.0
C873 C 0.7319 0.23204 0.35705 0.0
C874 C 0.71754 0.23582 0.34272 0.0
C875 C 0.70617 0.25215 0.34487 0.0
C876 C 0.69117 0.25341 0.32853 0.0
C877 C 0.69582 0.23543 0.31594 0.0
C878 C 0.71135 0.2253 0.32426 0.0
C879 C 0.67028 0.25164 0.33786 0.0
C880 C 0.69547 0.27274 0.31735 0.0
H881 H 0.70857 0.17433 0.26099 0.0
H882 H 0.75939 0.16339 0.31224 0.0
H883 H 0.76092 0.20974 0.3052 0.0
H884 H 0.75498 0.22191 0.32746 0.0
H885 H 0.76703 0.19878 0.32828 0.0
H886 H 0.72035 0.17153 0.33655 0.0
H887 H 0.74422 0.17872 0.34633 0.0
H888 H 0.72291 0.19334 0.35079 0.0
H889 H 0.65242 0.21671 0.24238 0.0
H890 H 0.6333 0.26641 0.27742 0.0
H891 H 0.659 0.26138 0.30129 0.0
H892 H 0.6585 0.18837 0.27962 0.0
H893 H 0.66588 0.18291 0.25461 0.0
H894 H 0.68025 0.17559 0.27552 0.0
H895 H 0.69867 0.22607 0.24705 0.0
H896 H 0.7112 0.20467 0.25229 0.0
H897 H 0.68929 0.20295 0.23704 0.0
H898 H 0.73116 0.14808 0.25622 0.0
C899 C 0.71936 0.17241 0.27237 0.0
C900 C 0.41189 0.00161 0.99045 0.0
C901 C 0.40629 0.98557 0.978 0.0
C902 C 0.41814 0.98112 0.96145 0.0
C903 C 0.44056 0.00863 0.96987 0.0
C904 C 0.42896 0.01285 0.98614 0.0
C905 C 0.43693 0.03029 0.99801 0.0
H906 H 0.50523 0.10439 0.00986 0.0
C907 C 0.45727 0.02322 0.96968 0.0
C908 C 0.45523 0.03589 0.98618 0.0
H909 H 0.4551 0.09001 0.04725 0.0
H910 H 0.44631 0.06225 0.02601 0.0
H911 H 0.48309 0.09604 0.96818 0.0
H912 H 0.51895 0.0602 0.00446 0.0
H913 H 0.52498 0.05474 0.97971 0.0
H914 H 0.52946 0.07938 0.98949 0.0
H915 H 0.50924 0.10034 0.97106 0.0
H916 H 0.4992 0.08352 0.95237 0.0
C917 C 0.42139 0.04643 0.99755 0.0
C918 C 0.44213 0.02331 0.01907 0.0
C919 C 0.5081 0.02128 0.91433 0.0
C920 C 0.5252 0.03285 0.91032 0.0
C921 C 0.53066 0.04848 0.92346 0.0
C922 C 0.51924 0.0526 0.94023 0.0
C923 C 0.50214 0.04098 0.94399 0.0
C924 C 0.49688 0.02556 0.9312 0.0
C925 C 0.47838 0.01462 0.93773 0.0
C926 C 0.47338 0.0261 0.95647 0.0
C927 C 0.48731 0.04157 0.96 0.0
C928 C 0.46251 0.01652 0.92141 0.0
C929 C 0.48365 0.99319 0.94216 0.0
C930 C 0.49247 0.09515 0.01357 0.0
C931 C 0.48077 0.09952 0.03021 0.0
C932 C 0.46417 0.0872 0.03436 0.0
C933 C 0.45914 0.07099 0.02204 0.0
C934 C 0.47081 0.06697 0.00535 0.0
C935 C 0.48725 0.07886 0.00142 0.0
C936 C 0.498 0.07219 0.98312 0.0
C937 C 0.48522 0.05441 0.97666 0.0
C938 C 0.4693 0.05151 0.9897 0.0
C939 C 0.49757 0.08884 0.96782 0.0
C940 C 0.51901 0.06642 0.98932 0.0
H941 H 0.44358 0.98851 0.94445 0.0
H942 H 0.40329 0.00522 0.00347 0.0
H943 H 0.44707 0.0079 0.01861 0.0
H944 H 0.45461 0.03189 0.02588 0.0
H945 H 0.42915 0.02383 0.02909 0.0
H946 H 0.41402 0.04663 0.98281 0.0
H947 H 0.40974 0.04381 0.00888 0.0
H948 H 0.42788 0.06142 -0.00026 0.0
H949 H 0.50364 0.00902 0.90465 0.0
H950 H 0.54365 0.05773 0.92058 0.0
H951 H 0.52414 0.06476 0.94957 0.0
H952 H 0.4633 0.03147 0.91504 0.0
H953 H 0.46467 0.00574 0.90909 0.0
H954 H 0.44729 0.01466 0.92705 0.0
H955 H 0.49881 0.99263 0.94842 0.0
H956 H 0.47397 0.98638 0.95346 0.0
H957 H 0.48312 0.98387 0.92845 0.0
H958 H 0.41406 0.96891 0.95156 0.0
C959 C 0.43522 0.99258 0.9573 0.0
C960 C 0.21671 0.91237 0.00139 0.0
O961 O 0.22287 0.90774 0.98348 0.0
O962 O 0.23896 0.8677 0.98862 0.0
Zn963 Zn 0.24638 0.88579 0.01158 0.0
O964 O 0.27122 0.9009 0.0042 0.0
C965 C 0.24083 0.85459 0.03977 0.0
O966 O 0.22684 0.84856 0.02734 0.0
O967 O 0.22473 0.90467 0.01624 0.0
C968 C 0.28427 0.90625 0.01693 0.0
O969 O 0.28145 0.90191 0.03563 0.0
C970 C 0.24778 0.85178 0.98557 0.0
O971 O 0.26182 0.84696 0.9978 0.0
O972 O 0.25087 0.87025 0.03621 0.0
C973 C 0.15991 0.46521 0.27111 0.0
O974 O 0.15802 0.47737 0.28629 0.0
O975 O 0.11532 0.49444 0.27609 0.0
Zn976 Zn 0.13269 0.49089 0.2521 0.0
O977 O 0.14955 0.51533 0.24809 0.0
C978 C 0.0974 0.48811 0.22755 0.0
O979 O 0.08856 0.4937 0.24394 0.0
O980 O 0.15034 0.46804 0.25527 0.0
C981 C 0.14161 0.53172 0.24568 0.0
O982 O 0.12226 0.53244 0.246 0.0
C983 C 0.1207 0.50519 0.29088 0.0
O984 O 0.13829 0.51398 0.29086 0.0
O985 O 0.11595 0.48596 0.22769 0.0
C986 C 0.79887 0.61672 0.00819 0.0
O987 O 0.80135 0.63594 0.00944 0.0
O988 O 0.76443 0.64466 0.97826 0.0
Zn989 Zn 0.75895 0.62684 0.00103 0.0
O990 O 0.73434 0.61043 0.99524 0.0
C991 C 0.74876 0.6607 0.02403 0.0
O992 O 0.74443 0.66704 0.00634 0.0
O993 O 0.78173 0.6093 0.00468 0.0
C994 C 0.72363 0.60378 0.00922 0.0
O995 O 0.72885 0.60779 0.02766 0.0
C996 C 0.76484 0.63866 0.96033 0.0
O997 O 0.76216 0.6198 0.95627 0.0
O998 O 0.75521 0.64352 0.02565 0.0
C999 C 0.84221 0.04374 0.26805 0.0
O1000 O 0.84265 0.03011 0.28154 0.0
O1001 O 0.88731 0.01698 0.27451 0.0
Zn1002 Zn 0.87005 0.01876 0.25041 0.0
O1003 O 0.85178 0.99495 0.24799 0.0
C1004 C 0.89343 0.0058 0.21724 0.0
O1005 O 0.8878 0.98833 0.22349 0.0
O1006 O 0.8533 0.04233 0.25294 0.0
C1007 C 0.84096 0.99266 0.23267 0.0
O1008 O 0.84231 0.00577 0.21865 0.0
C1009 C 0.89467 0.00074 0.27889 0.0
O1010 O 0.89046 0.9851 0.26774 0.0
O1011 O 0.88744 0.02099 0.22633 0.0
C1012 C 0.29948 0.11132 0.49475 0.0
O1013 O 0.29789 0.11938 0.47732 0.0
O1014 O 0.26476 0.14487 0.47767 0.0
Zn1015 Zn 0.26152 0.12881 0.50226 0.0
O1016 O 0.23824 0.10998 0.4988 0.0
C1017 C 0.25229 0.16477 0.52315 0.0
O1018 O 0.25149 0.17152 0.50508 0.0
O1019 O 0.28591 0.11357 0.50752 0.0
C1020 C 0.22127 0.11653 0.49542 0.0
O1021 O 0.21935 0.1356 0.49426 0.0
C1022 C 0.26084 0.13828 0.4603 0.0
O1023 O 0.25494 0.1198 0.45779 0.0
O1024 O 0.25638 0.14691 0.52562 0.0
C1025 C 0.34608 0.54555 0.76866 0.0
O1026 O 0.34739 0.53341 0.78346 0.0
O1027 O 0.38838 0.51704 0.77639 0.0
Zn1028 Zn 0.37213 0.51835 0.75144 0.0
O1029 O 0.3528 0.49516 0.74881 0.0
C1030 C 0.40548 0.51011 0.72619 0.0
O1031 O 0.4096 0.49778 0.7402 0.0
O1032 O 0.35595 0.54236 0.75299 0.0
C1033 C 0.35612 0.479 0.7399 0.0
O1034 O 0.37344 0.47645 0.73174 0.0
C1035 C 0.39238 0.50091 0.78437 0.0
O1036 O 0.38556 0.48431 0.77629 0.0
O1037 O 0.39021 0.52032 0.72778 0.0
C1038 C 0.73028 0.42578 0.51689 0.0
O1039 O 0.74777 0.43362 0.51283 0.0
O1040 O 0.74451 0.37045 0.49283 0.0
Zn1041 Zn 0.75087 0.38892 0.51579 0.0
O1042 O 0.77647 0.40389 0.51047 0.0
C1043 C 0.74681 0.35574 0.54162 0.0
O1044 O 0.73646 0.3482 0.52666 0.0
O1045 O 0.72837 0.40731 0.5191 0.0
C1046 C 0.78102 0.4096 0.49318 0.0
O1047 O 0.76862 0.40585 0.47849 0.0
C1048 C 0.75753 0.35953 0.48543 0.0
O1049 O 0.77555 0.36065 0.49267 0.0
O1050 O 0.75407 0.37317 0.54052 0.0
C1051 C 0.6543 0.96786 0.77425 0.0
O1052 O 0.65226 0.9804 0.7891 0.0
O1053 O 0.61124 0.99682 0.78029 0.0
Zn1054 Zn 0.62719 0.99304 0.75522 0.0
O1055 O 0.64459 0.01693 0.74979 0.0
C1056 C 0.59091 0.98934 0.73182 0.0
O1057 O 0.58232 0.9952 0.74824 0.0
O1058 O 0.64476 0.97023 0.75831 0.0
C1059 C 0.63851 0.03123 0.73994 0.0
O1060 O 0.62023 0.03064 0.73338 0.0
C1061 C 0.60683 0.01376 0.7868 0.0
O1062 O 0.61278 0.02935 0.77701 0.0
O1063 O 0.60949 0.9874 0.73164 0.0
C1064 C 0.99236 0.22132 0.90265 0.0
O1065 O 0.97411 0.2255 0.89827 0.0
O1066 O 0.97647 0.24509 0.8603 0.0
Zn1067 Zn 0.00071 0.25311 0.87645 0.0
O1068 O 0.99626 0.27761 0.89281 0.0
C1069 C 0.02215 0.259 0.83974 0.0
O1070 O 0.00439 0.25746 0.83193 0.0
O1071 O 0.00651 0.23129 0.89498 0.0
C1072 C 0.99878 0.29471 0.88579 0.0
O1073 O 0.00426 0.29653 0.86721 0.0
C1074 C 0.96235 0.25642 0.85713 0.0
O1075 O 0.96317 0.27433 0.86475 0.0
O1076 O 0.02411 0.25765 0.85841 0.0
C1077 C 0.4911 0.71524 0.39819 0.0
O1078 O 0.4733 0.71957 0.39237 0.0
O1079 O 0.47822 0.74331 0.3578 0.0
Zn1080 Zn 0.50208 0.74906 0.37518 0.0
O1081 O 0.49835 0.77309 0.39277 0.0
C1082 C 0.52529 0.76111 0.34133 0.0
O1083 O 0.50847 0.76811 0.33554 0.0
O1084 O 0.50581 0.72588 0.39268 0.0
C1085 C 0.50286 0.79052 0.38753 0.0
O1086 O 0.51037 0.79342 0.36985 0.0
C1087 C 0.46545 0.75585 0.35383 0.0
O1088 O 0.46757 0.77378 0.36125 0.0
O1089 O 0.52613 0.75248 0.35783 0.0
C1090 C 0.99582 0.7952 0.59602 0.0
O1091 O 0.97766 0.78884 0.59965 0.0
O1092 O 0.97995 0.76933 0.63817 0.0
Zn1093 Zn 0.0042 0.76406 0.62199 0.0
O1094 O -0.00067 0.7396 0.60524 0.0
C1095 C 0.02726 0.74551 0.65136 0.0
O1096 O 0.01331 0.73174 0.64913 0.0
O1097 O 0.01008 0.78679 0.60414 0.0
C1098 C 0.01303 0.72879 0.59909 0.0
O1099 O 0.03145 0.73372 0.60354 0.0
C1100 C 0.96721 0.75569 0.64169 0.0
O1101 O 0.96989 0.73795 0.63442 0.0
O1102 O 0.02673 0.76081 0.64091 0.0
C1103 C 0.50383 0.28449 0.08981 0.0
O1104 O 0.49374 0.26851 0.08414 0.0
O1105 O 0.48292 0.26463 0.13956 0.0
Zn1106 Zn 0.50852 0.26204 0.12468 0.0
O1107 O 0.50785 0.23712 0.1082 0.0
C1108 C 0.52847 0.2602 0.1625 0.0
O1109 O 0.51032 0.25979 0.16933 0.0
O1110 O 0.51189 0.28516 0.10684 0.0
C1111 C 0.50788 0.22038 0.11617 0.0
O1112 O 0.50862 0.2194 0.13559 0.0
C1113 C 0.46747 0.25395 0.13614 0.0
O1114 O 0.46762 0.24053 0.12189 0.0
O1115 O 0.53131 0.26139 0.14392 0.0
C1116 C 0.20814 0.7789 0.89818 0.0
C1117 C 0.2229 0.77705 0.88382 0.0
C1118 C 0.21118 0.79123 0.91492 0.0
C1119 C 0.22925 0.80221 0.91703 0.0
C1120 C 0.24394 0.80082 0.9022 0.0
C1121 C 0.24066 0.7881 0.88585 0.0
C1122 C 0.19532 0.7921 0.93059 0.0
C1123 C 0.26324 0.81259 0.90373 0.0
C1124 C 0.23221 0.84642 0.95223 0.0
C1125 C 0.2424 0.83894 0.96835 0.0
C1126 C 0.22766 0.83458 0.93546 0.0
C1127 C 0.23312 0.81472 0.93501 0.0
C1128 C 0.24297 0.80696 0.95146 0.0
C1129 C 0.24767 0.81923 0.96787 0.0
C1130 C 0.21745 0.84345 0.91805 0.0
C1131 C 0.24873 0.78575 0.95165 0.0
H1132 H 0.19447 0.77021 0.89661 0.0
H1133 H 0.25198 0.78674 0.8746 0.0
H1134 H 0.20112 0.78682 0.94484 0.0
H1135 H 0.191 0.80749 0.93315 0.0
H1136 H 0.18193 0.78301 0.92647 0.0
H1137 H 0.27264 0.81063 0.8904 0.0
H1138 H 0.26038 0.82844 0.90573 0.0
H1139 H 0.27158 0.80805 0.91692 0.0
H1140 H 0.22817 0.86168 0.95251 0.0
H1141 H 0.2554 0.81335 0.98038 0.0
H1142 H 0.20362 0.83491 0.91445 0.0
H1143 H 0.22708 0.84274 0.90477 0.0
H1144 H 0.21381 0.85902 0.92094 0.0
H1145 H 0.2356 0.77591 0.94866 0.0
H1146 H 0.25531 0.78173 0.96603 0.0
H1147 H 0.25958 0.78297 0.9397 0.0
C1148 C 0.04635 0.54278 0.37327 0.0
C1149 C 0.04155 0.52862 0.38744 0.0
C1150 C 0.0589 0.5385 0.35737 0.0
C1151 C 0.06706 0.51969 0.35579 0.0
C1152 C 0.06222 0.5053 0.37003 0.0
C1153 C 0.04937 0.5099 0.38563 0.0
C1154 C 0.06347 0.55412 0.3423 0.0
C1155 C 0.07086 0.48519 0.36897 0.0
C1156 C 0.08687 0.5034 0.30568 0.0
C1157 C 0.10708 0.50824 0.3077 0.0
C1158 C 0.07367 0.50694 0.32126 0.0
C1159 C 0.08092 0.51523 0.33937 0.0
C1160 C 0.10136 0.51977 0.34163 0.0
C1161 C 0.11418 0.51635 0.32571 0.0
C1162 C 0.05192 0.50217 0.31822 0.0
C1163 C 0.10967 0.52838 0.36083 0.0
H1164 H 0.04011 0.55719 0.37457 0.0
H1165 H 0.04577 0.499 0.39669 0.0
H1166 H 0.07955 0.55785 0.34227 0.0
H1167 H 0.05949 0.5485 0.32721 0.0
H1168 H 0.05541 0.56778 0.34532 0.0
H1169 H 0.06548 0.47563 0.38114 0.0
H1170 H 0.06705 0.47783 0.35458 0.0
H1171 H 0.0872 0.48661 0.3698 0.0
H1172 H 0.08127 0.49721 0.29176 0.0
H1173 H 0.12981 0.52 0.32739 0.0
H1174 H 0.04348 0.51575 0.31994 0.0
H1175 H 0.04646 0.49183 0.32965 0.0
H1176 H 0.04871 0.49553 0.30333 0.0
H1177 H 0.10333 0.54291 0.36392 0.0
H1178 H 0.12602 0.53027 0.36047 0.0
H1179 H 0.10548 0.51874 0.37333 0.0
C1180 C 0.79239 0.7168 0.8768 0.0
C1181 C 0.77528 0.72423 0.86846 0.0
C1182 C 0.79118 0.70238 0.89133 0.0
C1183 C 0.77241 0.69531 0.89778 0.0
C1184 C 0.75509 0.70267 0.88939 0.0
C1185 C 0.75673 0.71703 0.8748 0.0
C1186 C 0.80998 0.69488 0.89997 0.0
C1187 C 0.73482 0.6955 0.89594 0.0
C1188 C 0.76823 0.6467 0.92438 0.0
C1189 C 0.76737 0.65301 0.94427 0.0
C1190 C 0.77002 0.6603 0.90906 0.0
C1191 C 0.7709 0.68067 0.91378 0.0
C1192 C 0.77019 0.68712 0.93382 0.0
C1193 C 0.76848 0.67323 0.94882 0.0
C1194 C 0.77086 0.65291 0.88783 0.0
C1195 C 0.77103 0.70873 0.93942 0.0
H1196 H 0.80677 0.7225 0.87217 0.0
H1197 H 0.74347 0.7225 0.86821 0.0
H1198 H 0.81068 0.69842 0.91608 0.0
H1199 H 0.81015 0.67865 0.89825 0.0
H1200 H 0.82339 0.70136 0.8928 0.0
H1201 H 0.72282 0.7025 0.88772 0.0
H1202 H 0.7332 0.67933 0.89372 0.0
H1203 H 0.73292 0.69866 0.91202 0.0
H1204 H 0.76742 0.63111 0.92075 0.0
H1205 H 0.7678 0.67826 0.96414 0.0
H1206 H 0.78463 0.65855 0.88069 0.0
H1207 H 0.7583 0.6585 0.87932 0.0
H1208 H 0.77032 0.6366 0.88667 0.0
H1209 H 0.78482 0.71582 0.93368 0.0
H1210 H 0.77046 0.71131 0.95573 0.0
H1211 H 0.75849 0.71611 0.93254 0.0
C1212 C 0.98348 0.99868 0.35645 0.0
C1213 C 0.97702 0.99377 0.37553 0.0
C1214 C 0.97002 9e-05 0.34078 0.0
C1215 C 0.94962 0.99653 0.34429 0.0
C1216 C 0.94298 0.99174 0.36355 0.0
C1217 C 0.95676 0.99042 0.37894 0.0
C1218 C 0.97765 0.00518 0.32041 0.0
C1219 C 0.92133 0.98792 0.36787 0.0
C1220 C 0.91313 0.01635 0.30764 0.0
C1221 C 0.90835 -0.00042 0.29593 0.0
C1222 C 0.92647 0.01555 0.3235 0.0
C1223 C 0.93523 0.99756 0.32773 0.0
C1224 C 0.93036 0.98055 0.31608 0.0
C1225 C 0.91697 0.98177 0.30032 0.0
C1226 C 0.9313 0.03398 0.33564 0.0
C1227 C 0.9394 0.9611 0.32017 0.0
H1228 H 0.99914 0.00105 0.35369 0.0
H1229 H 0.95166 0.98689 0.39372 0.0
H1230 H 0.97379 0.99303 0.30974 0.0
H1231 H 0.97052 0.01851 0.3151 0.0
H1232 H 0.99392 0.00787 0.32024 0.0
H1233 H 0.91857 0.98456 0.3837 0.0
H1234 H 0.91284 0.00093 0.36399 0.0
H1235 H 0.9155 0.97538 0.35859 0.0
H1236 H 0.90653 0.03018 0.30436 0.0
H1237 H 0.91337 0.96874 0.29135 0.0
H1238 H 0.94734 0.03774 0.33472 0.0
H1239 H 0.9278 0.0315 0.35148 0.0
H1240 H 0.92301 0.04674 0.33058 0.0
H1241 H 0.95571 0.96255 0.31884 0.0
H1242 H 0.93392 0.94921 0.30983 0.0
H1243 H 0.93604 0.95666 0.33558 0.0
C1244 C 0.21526 0.23421 0.61165 0.0
C1245 C 0.23127 0.24298 0.62214 0.0
C1246 C 0.21829 0.22093 0.59586 0.0
C1247 C 0.23779 0.21644 0.59033 0.0
C1248 C 0.254 0.22512 0.60094 0.0
C1249 C 0.25054 0.2382 0.61677 0.0
C1250 C 0.20063 0.21189 0.58492 0.0
C1251 C 0.27501 0.22073 0.59544 0.0
C1252 C 0.24658 0.1703 0.5595 0.0
C1253 C 0.24848 0.17789 0.54038 0.0
C1254 C 0.24291 0.18265 0.5759 0.0
C1255 C 0.24128 0.20308 0.57311 0.0
C1256 C 0.2432 0.21082 0.55386 0.0
C1257 C 0.2467 0.19812 0.53772 0.0
C1258 C 0.24078 0.17387 0.5962 0.0
C1259 C 0.24172 0.23255 0.55034 0.0
H1260 H 0.20034 0.238 0.61554 0.0
H1261 H 0.26298 0.24463 0.62503 0.0
H1262 H 0.20098 0.21644 0.56922 0.0
H1263 H 0.20116 0.19563 0.58492 0.0
H1264 H 0.18643 0.21628 0.59159 0.0
H1265 H 0.28596 0.22856 0.60531 0.0
H1266 H 0.27726 0.20471 0.5962 0.0
H1267 H 0.27798 0.22511 0.57993 0.0
H1268 H 0.24786 0.15467 0.56166 0.0
H1269 H 0.2482 0.20411 0.52301 0.0
H1270 H 0.22621 0.17735 0.6026 0.0
H1271 H 0.25224 0.18042 0.60632 0.0
H1272 H 0.24213 0.15766 0.59581 0.0
H1273 H 0.22717 0.23761 0.55547 0.0
H1274 H 0.24352 0.23621 0.53445 0.0
H1275 H 0.25321 0.24092 0.55906 0.0
C1276 C 0.4624 0.51537 0.6225 0.0
C1277 C 0.4821 0.52177 0.62527 0.0
C1278 C 0.44968 0.513 0.63876 0.0
C1279 C 0.45677 0.51764 0.65811 0.0
C1280 C 0.47664 0.52432 0.66091 0.0
C1281 C 0.48915 0.52608 0.64444 0.0
C1282 C 0.42873 0.50543 0.63524 0.0
C1283 C 0.4846 0.52982 0.68127 0.0
C1284 C 0.41899 0.52928 0.69777 0.0
C1285 C 0.41841 0.51197 0.70868 0.0
C1286 C 0.43154 0.53139 0.68136 0.0
C1287 C 0.44339 0.51561 0.67545 0.0
C1288 C 0.44259 0.49797 0.68621 0.0
C1289 C 0.43029 0.49645 0.70287 0.0
C1290 C 0.43233 0.55059 0.67051 0.0
C1291 C 0.45467 0.48067 0.68007 0.0
H1292 H 0.45707 0.51195 0.60763 0.0
H1293 H 0.50437 0.5312 0.64647 0.0
H1294 H 0.42575 0.49198 0.64394 0.0
H1295 H 0.41822 0.51653 0.64041 0.0
H1296 H 0.42573 0.50192 0.61934 0.0
H1297 H 0.50029 0.53514 0.68084 0.0
H1298 H 0.47567 0.54151 0.68808 0.0
H1299 H 0.48341 0.51695 0.69107 0.0
H1300 H 0.40992 0.54136 0.70233 0.0
H1301 H 0.42974 0.48299 0.71119 0.0
H1302 H 0.42805 0.54804 0.65477 0.0
H1303 H 0.44766 0.55693 0.67064 0.0
H1304 H 0.42242 0.56153 0.6772 0.0
H1305 H 0.45128 0.47628 0.66447 0.0
H1306 H 0.45184 0.46776 0.68961 0.0
H1307 H 0.47064 0.48484 0.68081 0.0
C1308 C 0.78914 0.28809 0.62543 0.0
C1309 C 0.77492 0.28282 0.63961 0.0
C1310 C 0.78453 0.3004 0.60978 0.0
C1311 C 0.76532 0.30781 0.60851 0.0
C1312 C 0.75103 0.30284 0.62305 0.0
C1313 C 0.75596 0.29026 0.63836 0.0
C1314 C 0.80007 0.30514 0.59439 0.0
C1315 C 0.73049 0.31069 0.62236 0.0
C1316 C 0.75887 0.35235 0.57644 0.0
C1317 C 0.75088 0.34366 0.55904 0.0
C1318 C 0.76335 0.34089 0.59281 0.0
C1319 C 0.76001 0.32026 0.59161 0.0
C1320 C 0.75187 0.31143 0.57413 0.0
C1321 C 0.74727 0.32325 0.55811 0.0
C1322 C 0.77175 0.35084 0.61133 0.0
C1323 C 0.74831 0.28944 0.57222 0.0
H1324 H 0.80375 0.28218 0.62631 0.0
H1325 H 0.74502 0.28632 0.64946 0.0
H1326 H 0.7949 0.29972 0.57959 0.0
H1327 H 0.80256 0.32128 0.59348 0.0
H1328 H 0.81437 0.29843 0.5977 0.0
H1329 H 0.7214 0.30612 0.63528 0.0
H1330 H 0.73131 0.32699 0.62199 0.0
H1331 H 0.72288 0.30538 0.6086 0.0
H1332 H 0.76162 0.36812 0.57729 0.0
H1333 H 0.74119 0.31642 0.54468 0.0
H1334 H 0.78671 0.3455 0.6143 0.0
H1335 H 0.7624 0.34705 0.6243 0.0
H1336 H 0.77279 0.36709 0.61013 0.0
H1337 H 0.76243 0.28194 0.57411 0.0
H1338 H 0.74183 0.28489 0.55763 0.0
H1339 H 0.73819 0.28424 0.58409 0.0
C1340 C 0.52745 0.95327 0.63674 0.0
C1341 C 0.52453 0.96894 0.62402 0.0
C1342 C 0.53785 0.95616 0.65462 0.0
C1343 C 0.54555 0.97517 0.65985 0.0
C1344 C 0.54258 0.99107 0.64711 0.0
C1345 C 0.53208 0.98776 0.62935 0.0
C1346 C 0.54065 0.93889 0.66789 0.0
C1347 C 0.55067 0.01153 0.65212 0.0
C1348 C 0.55864 0.98721 0.71361 0.0
C1349 C 0.57919 0.98537 0.71353 0.0
C1350 C 0.54746 0.98377 0.69628 0.0
C1351 C 0.55708 0.9784 0.67845 0.0
C1352 C 0.57779 0.9764 0.6783 0.0
C1353 C 0.58859 0.97989 0.69584 0.0
C1354 C 0.52538 0.986 0.69699 0.0
C1355 C 0.58857 0.97074 0.65956 0.0
H1356 H 0.52142 0.93875 0.63279 0.0
H1357 H 0.53008 -0.00013 0.61945 0.0
H1358 H 0.55664 0.9365 0.66985 0.0
H1359 H 0.53445 0.94199 0.6828 0.0
H1360 H 0.53347 0.92512 0.66182 0.0
H1361 H 0.54675 0.02235 0.6408 0.0
H1362 H 0.54492 0.0165 0.66671 0.0
H1363 H 0.56699 0.01145 0.65337 0.0
H1364 H 0.55126 0.99141 0.72722 0.0
H1365 H 0.60446 0.97843 0.69562 0.0
H1366 H 0.51768 0.97212 0.69198 0.0
H1367 H 0.52108 0.99763 0.68671 0.0
H1368 H 0.52011 0.98989 0.71212 0.0
H1369 H 0.58254 0.95642 0.65366 0.0
H1370 H 0.60469 0.96958 0.66199 0.0
H1371 H 0.58625 0.9818 0.64801 0.0
C1372 C 0.86336 0.21792 0.80156 0.0
C1373 C 0.86521 0.22004 0.78099 0.0
C1374 C 0.87912 0.22307 0.81437 0.0
C1375 C 0.89712 0.23059 0.80642 0.0
C1376 C 0.89919 0.23249 0.78566 0.0
C1377 C 0.88323 0.22714 0.7732 0.0
C1378 C 0.87639 0.2208 0.83644 0.0
C1379 C 0.91818 0.24043 0.77663 0.0
C1380 C 0.93084 0.26273 0.83944 0.0
C1381 C 0.94543 0.24965 0.84455 0.0
C1382 C 0.91498 0.25667 0.82714 0.0
C1383 C 0.91362 0.23703 0.81984 0.0
C1384 C 0.92816 0.22368 0.82511 0.0
C1385 C 0.94393 0.23016 0.83737 0.0
C1386 C 0.89978 0.27135 0.82176 0.0
C1387 C 0.92713 0.2026 0.8177 0.0
H1388 H 0.84942 0.21267 0.80771 0.0
H1389 H 0.88487 0.22852 0.75729 0.0
H1390 H 0.88812 0.21167 0.84249 0.0
H1391 H 0.87777 0.23541 0.84399 0.0
H1392 H 0.86178 0.21391 0.84017 0.0
H1393 H 0.91752 0.2406 0.76018 0.0
H1394 H 0.92142 0.25563 0.78224 0.0
H1395 H 0.93067 0.23141 0.7811 0.0
H1396 H 0.9319 0.27781 0.8449 0.0
H1397 H 0.95511 0.21994 0.8413 0.0
H1398 H 0.88486 0.26592 0.82632 0.0
H1399 H 0.89945 0.2731 0.80544 0.0
H1400 H 0.90284 0.28601 0.82887 0.0
H1401 H 0.91289 0.1954 0.82212 0.0
H1402 H 0.93938 0.19396 0.82352 0.0
H1403 H 0.92771 0.2021 0.80126 0.0
C1404 C 0.46403 0.87948 0.45387 0.0
C1405 C 0.47929 0.88928 0.46463 0.0
C1406 C 0.46783 0.86337 0.44134 0.0
C1407 C 0.48733 0.85674 0.43967 0.0
C1408 C 0.50278 0.86644 0.45059 0.0
C1409 C 0.49859 0.88265 0.46285 0.0
C1410 C 0.45099 0.85345 0.42985 0.0
C1411 C 0.52374 0.85974 0.44925 0.0
C1412 C 0.49385 0.80444 0.42082 0.0
C1413 C 0.49914 0.80743 0.40098 0.0
C1414 C 0.49015 0.82037 0.43365 0.0
C1415 C 0.49157 0.83973 0.42638 0.0
C1416 C 0.49689 0.84285 0.40637 0.0
C1417 C 0.50071 0.82667 0.39394 0.0
C1418 C 0.48471 0.81649 0.45496 0.0
C1419 C 0.49837 0.86328 0.39805 0.0
H1420 H 0.44903 0.88427 0.4554 0.0
H1421 H 0.51053 0.8903 0.47086 0.0
H1422 H 0.45418 0.8538 0.41372 0.0
H1423 H 0.44937 0.83778 0.43395 0.0
H1424 H 0.43672 0.86055 0.43262 0.0
H1425 H 0.53397 0.86858 0.45907 0.0
H1426 H 0.5243 0.84408 0.45338 0.0
H1427 H 0.52911 0.86083 0.43377 0.0
H1428 H 0.49268 0.78962 0.42639 0.0
H1429 H 0.50471 0.82911 0.3786 0.0
H1430 H 0.46989 0.82214 0.45822 0.0
H1431 H 0.49535 0.82444 0.46504 0.0
H1432 H 0.48458 0.8006 0.45837 0.0
H1433 H 0.48396 0.87039 0.39956 0.0
H1434 H 0.50269 0.86319 0.38216 0.0
H1435 H 0.50939 0.87247 0.40657 0.0
C1436 C 0.11261 0.29281 0.77072 0.0
C1437 C 0.12334 0.2767 0.76411 0.0
C1438 C 0.09632 0.29025 0.78336 0.0
C1439 C 0.09056 0.27112 0.78945 0.0
C1440 C 0.10137 0.25482 0.78294 0.0
C1441 C 0.11766 0.25781 0.77039 0.0
C1442 C 0.08515 0.308 0.79002 0.0
C1443 C 0.09566 0.23419 0.78913 0.0
C1444 C 0.05848 0.2655 0.8353 0.0
C1445 C 0.03966 0.26221 0.82693 0.0
C1446 C 0.07518 0.26851 0.82328 0.0
C1447 C 0.07301 0.26812 0.80241 0.0
C1448 C 0.05407 0.26481 0.79386 0.0
C1449 C 0.03762 0.26194 0.80623 0.0
C1450 C 0.09515 0.27211 0.83292 0.0
C1451 C 0.05119 0.26421 0.77165 0.0
H1452 H 0.11673 0.30742 0.76571 0.0
H1453 H 0.12606 0.24534 0.76558 0.0
H1454 H 0.06965 0.30654 0.78474 0.0
H1455 H 0.08472 0.30894 0.80646 0.0
H1456 H 0.09187 0.32193 0.78439 0.0
H1457 H 0.10567 0.22312 0.78285 0.0
H1458 H 0.09591 0.23331 0.80554 0.0
H1459 H 0.08036 0.23031 0.78421 0.0
H1460 H 0.06019 0.26578 0.85129 0.0
H1461 H 0.02314 0.25938 0.79963 0.0
H1462 H 0.10167 0.28647 0.82827 0.0
H1463 H 0.10535 0.26063 0.82796 0.0
H1464 H 0.09431 0.27209 0.84937 0.0
H1465 H 0.05649 0.27833 0.76526 0.0
H1466 H 0.03549 0.26146 0.76736 0.0
H1467 H 0.06008 0.25247 0.76488 0.0
C1468 C 0.51005 0.61575 0.45571 0.0
C1469 C 0.50747 0.61862 0.47617 0.0
C1470 C 0.50725 0.63106 0.44249 0.0
C1471 C 0.5019 0.6497 0.44997 0.0
C1472 C 0.49925 0.65266 0.47061 0.0
C1473 C 0.50202 0.63707 0.48346 0.0
C1474 C 0.51005 0.62732 0.42055 0.0
C1475 C 0.4937 0.67238 0.47916 0.0
C1476 C 0.51266 0.69474 0.41895 0.0
C1477 C 0.49395 0.69826 0.41113 0.0
C1478 C 0.51548 0.6789 0.43149 0.0
C1479 C 0.49923 0.6662 0.43624 0.0
C1480 C 0.48037 0.66953 0.42823 0.0
C1481 C 0.47794 0.68555 0.41582 0.0
C1482 C 0.5358 0.67587 0.43985 0.0
C1483 C 0.46272 0.65623 0.43289 0.0
H1484 H 0.5141 0.60145 0.45002 0.0
H1485 H 0.50028 0.63942 0.4993 0.0
H1486 H 0.49632 0.6305 0.41244 0.0
H1487 H 0.52193 0.63732 0.41484 0.0
H1488 H 0.51394 0.61191 0.41712 0.0
H1489 H 0.49206 0.6722 0.49554 0.0
H1490 H 0.50515 0.68374 0.47535 0.0
H1491 H 0.47958 0.67685 0.47258 0.0
H1492 H 0.52511 0.70449 0.41542 0.0
H1493 H 0.46345 0.68811 0.40979 0.0
H1494 H 0.54071 0.66099 0.43569 0.0
H1495 H 0.53534 0.67681 0.45628 0.0
H1496 H 0.54693 0.68691 0.4345 0.0
H1497 H 0.4658 0.64081 0.42868 0.0
H1498 H 0.44917 0.66051 0.42503 0.0
H1499 H 0.45981 0.65663 0.44908 0.0
C1500 C 0.89136 0.768 0.7298 0.0
C1501 C 0.87244 0.77327 0.72397 0.0
C1502 C 0.90652 0.76595 0.71587 0.0
C1503 C 0.90267 0.7693 0.69562 0.0
C1504 C 0.88372 0.775 0.68966 0.0
C1505 C 0.8688 0.77693 0.70393 0.0
C1506 C 0.92658 0.75995 0.7228 0.0
C1507 C 0.8791 0.77867 0.66818 0.0
C1508 C 0.94747 0.7783 0.66286 0.0
C1509 C 0.95003 0.75952 0.65454 0.0
C1510 C 0.93179 0.78184 0.67588 0.0
C1511 C 0.9184 0.76623 0.68067 0.0
C1512 C 0.92061 0.74737 0.67194 0.0
C1513 C 0.93641 0.74424 0.65897 0.0
C1514 C 0.92985 0.80216 0.68489 0.0
C1515 C 0.90659 0.73036 0.67669 0.0
H1516 H 0.89433 0.76548 0.74532 0.0
H1517 H 0.85415 0.78085 0.69934 0.0
H1518 H 0.93026 0.74572 0.71568 0.0
H1519 H 0.93808 0.77099 0.71831 0.0
H1520 H 0.92727 0.75838 0.73915 0.0
H1521 H 0.86388 0.78383 0.66611 0.0
H1522 H 0.88972 0.78982 0.66219 0.0
H1523 H 0.88072 0.76495 0.65928 0.0
H1524 H 0.95789 0.79021 0.65945 0.0
H1525 H 0.93823 0.7297 0.65255 0.0
H1526 H 0.93193 0.80166 0.70119 0.0
H1527 H 0.91481 0.80746 0.68222 0.0
H1528 H 0.94082 0.81295 0.67879 0.0
H1529 H 0.90765 0.72699 0.69267 0.0
H1530 H 0.90977 0.71687 0.66789 0.0
H1531 H 0.89114 0.73431 0.67376 0.0
C1532 C 0.01244 0.87137 0.50871 0.0
C1533 C 0.01589 0.89064 0.51591 0.0
C1534 C 0.00964 0.85572 0.52173 0.0
C1535 C 0.01015 0.85948 0.54245 0.0
C1536 C 0.01374 0.8789 0.54982 0.0
C1537 C 0.01665 0.89425 0.53644 0.0
C1538 C 0.00604 0.83518 0.51333 0.0
C1539 C 0.01423 0.8835 0.57181 0.0
C1540 C 0.98379 0.82238 0.57536 0.0
C1541 C -0.00043 0.81179 0.58252 0.0
C1542 C 0.98706 0.83805 0.56243 0.0
C1543 C 0.00655 0.84314 0.55641 0.0
C1544 C 0.02255 0.83252 0.56358 0.0
C1545 C 0.01887 0.81701 0.57662 0.0
C1546 C 0.96964 0.84913 0.55519 0.0
C1547 C 0.04353 0.83747 0.55737 0.0
H1548 H 0.0121 0.86852 0.49284 0.0
H1549 H 0.01911 0.90917 0.54205 0.0
H1550 H 0.01727 0.82529 0.51909 0.0
H1551 H 0.99138 0.82928 0.51816 0.0
H1552 H 0.00655 0.83468 0.49687 0.0
H1553 H 0.01751 0.89933 0.57512 0.0
H1554 H -0.00022 0.87928 0.57853 0.0
H1555 H 0.02558 0.87477 0.5791 0.0
H1556 H 0.96884 0.81849 0.5799 0.0
H1557 H 0.03114 0.80886 0.58205 0.0
H1558 H 0.96867 0.84793 0.53879 0.0
H1559 H 0.97165 0.86497 0.55915 0.0
H1560 H 0.95544 0.84354 0.56155 0.0
H1561 H 0.04487 0.83601 0.54102 0.0
H1562 H 0.05432 0.82781 0.56432 0.0
H1563 H 0.04753 0.85296 0.56149 0.0
C1564 C 0.12247 0.73083 0.71862 0.0
C1565 C 0.11854 0.73407 0.73884 0.0
C1566 C 0.10768 0.7325 0.70427 0.0
C1567 C 0.08855 0.7378 0.71021 0.0
C1568 C 0.08449 0.74126 0.73055 0.0
C1569 C 0.0995 0.73926 0.74463 0.0
C1570 C 0.11255 0.7286 0.68273 0.0
C1571 C 0.06427 0.74706 0.73742 0.0
C1572 C 0.05566 0.7596 0.6714 0.0
C1573 C 0.04309 0.74348 0.66622 0.0
C1574 C 0.07042 0.758 0.68582 0.0
C1575 C 0.0728 0.73978 0.69511 0.0
C1576 C 0.06027 0.72341 0.68984 0.0
C1577 C 0.04549 0.72549 0.67553 0.0
C1578 C 0.08339 0.77583 0.6912 0.0
C1579 C 0.06253 0.70369 0.69926 0.0
H1580 H 0.13721 0.72718 0.71395 0.0
H1581 H 0.09626 0.74154 0.76022 0.0
H1582 H 0.10253 0.71676 0.67655 0.0
H1583 H 0.11021 0.74196 0.67401 0.0
H1584 H 0.12805 0.72421 0.68061 0.0
H1585 H 0.06362 0.74955 0.75374 0.0
H1586 H 0.06007 0.76071 0.73003 0.0
H1587 H 0.05311 0.73541 0.73318 0.0
H1588 H 0.05383 0.77358 0.66435 0.0
H1589 H 0.03588 0.71295 0.67156 0.0
H1590 H 0.09908 0.77274 0.68821 0.0
H1591 H 0.08211 0.77928 0.70728 0.0
H1592 H 0.07946 0.78898 0.68277 0.0
H1593 H 0.07763 0.69847 0.69655 0.0
H1594 H 0.05167 0.6924 0.69344 0.0
H1595 H 0.06063 0.7051 0.71556 0.0
C1596 C 0.98341 0.62339 0.55099 0.0
C1597 C 0.98389 0.62387 0.53022 0.0
C1598 C 0.98822 0.64027 0.56253 0.0
C1599 C 0.99353 0.65805 0.55304 0.0
C1600 C 0.99392 0.65865 0.53208 0.0
C1601 C 0.98912 0.64154 0.52093 0.0
C1602 C 0.98773 0.63906 0.58485 0.0
C1603 C -0.00064 0.67739 0.52144 0.0
C1604 C 0.9885 0.70611 0.58173 0.0
C1605 C 0.00812 0.71068 0.58731 0.0
C1606 C 0.98355 0.68901 0.57062 0.0
C1607 C 0.99856 0.6761 0.56502 0.0
C1608 C 0.01837 0.68055 0.57067 0.0
C1609 C 0.02293 0.69782 0.58172 0.0
C1610 C 0.96226 0.68479 0.5648 0.0
C1611 C 0.03475 0.66708 0.56502 0.0
H1612 H 0.97958 0.6097 0.55823 0.0
H1613 H 0.98926 0.64203 0.50487 0.0
H1614 H 0.00251 0.64316 0.59107 0.0
H1615 H 0.97721 0.64967 0.59105 0.0
H1616 H 0.98331 0.62412 0.58992 0.0
H1617 H 0.99897 0.67537 0.50505 0.0
H1618 H 0.98902 0.689 0.52571 0.0
H1619 H 0.0144 0.68276 0.52588 0.0
H1620 H 0.97695 0.71595 0.58599 0.0
H1621 H 0.0381 0.7012 0.58602 0.0
H1622 H 0.95706 0.67041 0.57068 0.0
H1623 H 0.96095 0.68377 0.54841 0.0
H1624 H 0.95235 0.69629 0.57039 0.0
H1625 H 0.03152 0.65218 0.57083 0.0
H1626 H 0.04935 0.67252 0.5708 0.0
H1627 H 0.03569 0.6656 0.54864 0.0
C1628 C 0.78188 0.89008 0.21761 0.0
C1629 C 0.76154 0.89151 0.22101 0.0
C1630 C 0.79473 0.90664 0.21923 0.0
C1631 C 0.78711 0.92506 0.22462 0.0
C1632 C 0.76663 0.92664 0.22812 0.0
C1633 C 0.75407 0.90986 0.22618 0.0
C1634 C 0.81648 0.9044 0.21529 0.0
C1635 C 0.75801 0.94605 0.23399 0.0
C1636 C 0.82314 0.9634 0.24688 0.0
C1637 C 0.82707 0.97548 0.23064 0.0
C1638 C 0.80996 0.94708 0.24519 0.0
C1639 C 0.80065 0.94263 0.22676 0.0
C1640 C 0.80456 0.95475 0.21032 0.0
C1641 C 0.81765 0.97111 0.21248 0.0
C1642 C 0.806 0.93459 0.26311 0.0
C1643 C 0.79507 0.95033 0.19038 0.0
H1644 H 0.78784 0.87591 0.21395 0.0
H1645 H 0.73836 0.91116 0.22856 0.0
H1646 H 0.82148 0.91451 0.20346 0.0
H1647 H 0.82512 0.90848 0.22883 0.0
H1648 H 0.81995 0.88915 0.2107 0.0
H1649 H 0.74179 0.94477 0.23633 0.0
H1650 H 0.76506 0.95185 0.24787 0.0
H1651 H 0.76111 0.957 0.22234 0.0
H1652 H 0.83029 0.96675 0.26099 0.0
H1653 H 0.82066 0.98034 0.19986 0.0
H1654 H 0.81046 0.91932 0.25999 0.0
H1655 H 0.78996 0.93392 0.26643 0.0
H1656 H 0.81407 0.94032 0.27648 0.0
H1657 H 0.79917 0.93555 0.18493 0.0
H1658 H 0.79956 0.96129 0.17911 0.0
H1659 H 0.77875 0.95008 0.19181 0.0
C1660 C 0.78121 0.14071 0.28572 0.0
C1661 C 0.7612 0.13762 0.28075 0.0
C1662 C 0.79461 0.12563 0.28347 0.0
C1663 C 0.7879 0.10704 0.27589 0.0
C1664 C 0.76781 0.10389 0.27055 0.0
C1665 C 0.75468 0.1192 0.2731 0.0
C1666 C 0.81592 0.12954 0.28936 0.0
C1667 C 0.76014 0.08426 0.26234 0.0
C1668 C 0.826 0.07306 0.25448 0.0
C1669 C 0.82854 0.06011 0.27012 0.0
C1670 C 0.81273 0.08835 0.25611 0.0
C1671 C 0.80187 0.09082 0.27385 0.0
C1672 C 0.80446 0.07788 0.28973 0.0
C1673 C 0.81772 0.06264 0.28765 0.0
C1674 C 0.81025 0.1018 0.23882 0.0
C1675 C 0.79325 0.08017 0.30894 0.0
H1676 H 0.78644 0.15501 0.29129 0.0
H1677 H 0.73921 0.11663 0.26944 0.0
H1678 H 0.82008 0.11926 0.30108 0.0
H1679 H 0.8257 0.12689 0.27647 0.0
H1680 H 0.81877 0.14483 0.29497 0.0
H1681 H 0.74425 0.08439 0.25832 0.0
H1682 H 0.76869 0.08009 0.24897 0.0
H1683 H 0.76217 0.07271 0.27345 0.0
H1684 H 0.83425 0.07115 0.24086 0.0
H1685 H 0.81963 0.05272 0.29981 0.0
H1686 H 0.81401 0.11721 0.24345 0.0
H1687 H 0.79461 0.10124 0.2339 0.0
H1688 H 0.8197 0.09781 0.22601 0.0
H1689 H 0.79653 0.09496 0.31561 0.0
H1690 H 0.79701 0.06893 0.31989 0.0
H1691 H 0.77713 0.079 0.30604 0.0
C1692 C 0.38841 0.95296 0.9815 0.0
C1693 C 0.38821 0.97353 0.98245 0.0
C1694 C 0.37163 0.94145 0.9866 0.0
C1695 C 0.35426 0.95078 0.99274 0.0
C1696 C 0.35387 0.97154 0.99339 0.0
C1697 C 0.37085 0.98267 0.98825 0.0
C1698 C 0.37259 0.91933 0.98577 0.0
C1699 C 0.33558 0.98202 -0.00027 0.0
C1700 C 0.30507 0.9223 0.99076 0.0
C1701 C 0.30235 0.91733 0.01069 0.0
C1702 C 0.322 0.93301 0.98467 0.0
C1703 C 0.33656 0.93886 0.99884 0.0
C1704 C 0.33401 0.93375 0.01894 0.0
C1705 C 0.31692 0.92305 0.02463 0.0
C1706 C 0.3242 0.93823 0.9631 0.0
C1707 C 0.34926 0.93973 0.03446 0.0
H1708 H 0.40185 0.94584 0.97722 0.0
H1709 H 0.37054 0.99857 0.98873 0.0
H1710 H 0.37016 0.91336 0.00079 0.0
H1711 H 0.36069 0.91295 0.97605 0.0
H1712 H 0.38702 0.91437 0.98012 0.0
H1713 H 0.33759 0.99826 0.99904 0.0
H1714 H 0.32293 0.97727 0.99011 0.0
H1715 H 0.33161 0.97809 0.01514 0.0
H1716 H 0.29389 0.91792 0.97988 0.0
H1717 H 0.31497 0.91923 0.04005 0.0
H1718 H 0.33816 0.93252 0.9571 0.0
H1719 H 0.32506 0.95444 0.96166 0.0
H1720 H 0.31173 0.9322 0.95387 0.0
H1721 H 0.36384 0.93408 0.03021 0.0
H1722 H 0.34528 0.93419 0.04937 0.0
H1723 H 0.35093 0.95599 0.03543 0.0
C1724 C 0.21898 0.36638 0.28006 0.0
C1725 C 0.23916 0.36947 0.27603 0.0
C1726 C 0.20599 0.38192 0.27975 0.0
C1727 C 0.21332 0.40101 0.27514 0.0
C1728 C 0.23366 0.40428 0.27112 0.0
C1729 C 0.24635 0.38847 0.27166 0.0
C1730 C 0.18439 0.37788 0.28415 0.0
C1731 C 0.24199 0.42445 0.26611 0.0
C1732 C 0.177 0.43694 0.25536 0.0
C1733 C 0.17342 0.44867 0.27223 0.0
C1734 C 0.19002 0.42143 0.2561 0.0
C1735 C 0.1996 0.41749 0.27415 0.0
C1736 C 0.19599 0.42919 0.29126 0.0
C1737 C 0.18297 0.44468 0.29008 0.0
C1738 C 0.19357 0.40931 0.23752 0.0
C1739 C 0.20585 0.42531 0.31081 0.0
H1740 H 0.21325 0.35169 0.28315 0.0
H1741 H 0.26197 0.39103 0.2688 0.0
H1742 H 0.17962 0.38749 0.29659 0.0
H1743 H 0.17535 0.38134 0.27104 0.0
H1744 H 0.18117 0.36232 0.28808 0.0
H1745 H 0.25818 0.42455 0.26349 0.0
H1746 H 0.23467 0.42976 0.25262 0.0
H1747 H 0.23895 0.43503 0.27835 0.0
H1748 H 0.16972 0.43995 0.24149 0.0
H1749 H 0.18026 0.45365 0.30319 0.0
H1750 H 0.18941 0.39366 0.24009 0.0
H1751 H 0.20951 0.41004 0.23372 0.0
H1752 H 0.18504 0.41436 0.22464 0.0
H1753 H 0.20204 0.41012 0.31551 0.0
H1754 H 0.20143 0.43574 0.32274 0.0
H1755 H 0.22214 0.42649 0.30912 0.0
C1756 C 0.13204 0.04227 0.46408 0.0
C1757 C 0.12102 0.03618 0.4806 0.0
C1758 C 0.14823 0.05558 0.46622 0.0
C1759 C 0.15351 0.06298 0.48533 0.0
C1760 C 0.14236 0.05702 0.50204 0.0
C1761 C 0.12624 0.04368 0.49948 0.0
C1762 C 0.15982 0.06155 0.44805 0.0
C1763 C 0.1475 0.06468 0.52264 0.0
C1764 C 0.2061 0.08248 0.49374 0.0
C1765 C 0.20393 0.10285 0.4928 0.0
C1766 C 0.1898 0.06934 0.49131 0.0
C1767 C 0.17089 0.07675 0.48787 0.0
C1768 C 0.16859 0.09728 0.48688 0.0
C1769 C 0.18515 0.11009 0.48935 0.0
C1770 C 0.19282 0.04753 0.49244 0.0
C1771 C 0.14864 0.10571 0.48323 0.0
H1772 H 0.12821 0.03633 0.44949 0.0
H1773 H 0.11761 0.03923 0.51226 0.0
H1774 H 0.16008 0.07776 0.44666 0.0
H1775 H 0.17535 0.05718 0.44953 0.0
H1776 H 0.15355 0.05475 0.43421 0.0
H1777 H 0.13719 0.05876 0.53405 0.0
H1778 H 0.16272 0.06066 0.52654 0.0
H1779 H 0.14717 0.08096 0.52315 0.0
H1780 H 0.22056 0.07675 0.49638 0.0
H1781 H 0.18334 0.12581 0.48859 0.0
H1782 H 0.18793 0.04008 0.47841 0.0
H1783 H 0.18368 0.04119 0.50455 0.0
H1784 H 0.2085 0.04415 0.49515 0.0
H1785 H 0.14252 0.09996 0.46891 0.0
H1786 H 0.14935 0.12202 0.48289 0.0
H1787 H 0.13816 0.10105 0.49502 0.0
C1788 C 0.70846 0.12816 0.73788 0.0
C1789 C 0.71587 0.13162 0.71883 0.0
C1790 C 0.69568 0.11195 0.74147 0.0
C1791 C 0.69047 0.09876 0.72567 0.0
C1792 C 0.69805 0.10211 0.70642 0.0
C1793 C 0.71057 0.11861 0.70321 0.0
C1794 C 0.68767 0.109 0.76213 0.0
C1795 C 0.69306 0.08821 0.68928 0.0
C1796 C 0.67222 0.04732 0.73889 0.0
C1797 C 0.65178 0.04848 0.73623 0.0
C1798 C 0.68501 0.06353 0.73533 0.0
C1799 C 0.67711 0.08141 0.72928 0.0
C1800 C 0.65647 0.08272 0.72671 0.0
C1801 C 0.64405 0.06618 0.73006 0.0
C1802 C 0.70697 0.0615 0.73795 0.0
C1803 C 0.6475 0.10164 0.72054 0.0
H1804 H 0.71242 0.13834 0.74992 0.0
H1805 H 0.71647 0.12119 0.68851 0.0
H1806 H 0.67129 0.10869 0.76181 0.0
H1807 H 0.69215 0.09463 0.76775 0.0
H1808 H 0.69294 0.12076 0.7727 0.0
H1809 H 0.70037 0.09281 0.67529 0.0
H1810 H 0.69764 0.07319 0.69277 0.0
H1811 H 0.67686 0.08737 0.68683 0.0
H1812 H 0.67829 0.03364 0.74355 0.0
H1813 H 0.62825 0.06719 0.72809 0.0
H1814 H 0.71267 0.07216 0.74942 0.0
H1815 H 0.71475 0.06497 0.72391 0.0
H1816 H 0.71076 0.04647 0.7424 0.0
H1817 H 0.65156 0.11358 0.73138 0.0
H1818 H 0.63114 0.1003 0.71947 0.0
H1819 H 0.65347 0.10611 0.70594 0.0
C1820 C 0.39877 0.05822 0.52407 0.0
C1821 C 0.39659 0.03787 0.5206 0.0
C1822 C 0.38342 0.07075 0.51976 0.0
C1823 C 0.36549 0.06273 0.51177 0.0
C1824 C 0.36328 0.04224 0.50804 0.0
C1825 C 0.37884 0.03006 0.51253 0.0
C1826 C 0.38633 0.09254 0.52389 0.0
C1827 C 0.34436 0.03315 0.49954 0.0
C1828 C 0.31863 0.09108 0.51804 0.0
C1829 C 0.31666 0.09935 0.49929 0.0
C1830 C 0.33458 0.07932 0.52237 0.0
C1831 C 0.34889 0.07571 0.50758 0.0
C1832 C 0.34712 0.08416 0.4887 0.0
C1833 C 0.33104 0.09591 0.48478 0.0
C1834 C 0.33602 0.07059 0.54271 0.0
C1835 C 0.36209 0.08061 0.47256 0.0
H1836 H 0.41255 0.06437 0.53006 0.0
H1837 H 0.37695 0.01432 0.51008 0.0
H1838 H 0.38419 0.10077 0.51007 0.0
H1839 H 0.37513 0.09749 0.5347 0.0
H1840 H 0.40125 0.09646 0.52991 0.0
H1841 H 0.3452 0.01702 0.49706 0.0
H1842 H 0.33191 0.03597 0.50975 0.0
H1843 H 0.34091 0.03999 0.48522 0.0
H1844 H 0.30762 0.0937 0.52935 0.0
H1845 H 0.32965 0.10224 0.47026 0.0
H1846 H 0.35036 0.07511 0.54968 0.0
H1847 H 0.3355 0.05432 0.54142 0.0
H1848 H 0.32391 0.07517 0.55268 0.0
H1849 H 0.37709 0.08529 0.4778 0.0
H1850 H 0.35882 0.08861 0.45882 0.0
H1851 H 0.36238 0.06467 0.46888 0.0
C1852 C 0.6393 0.49447 0.53909 0.0
C1853 C 0.62775 0.49673 0.52207 0.0
C1854 C 0.65627 0.4833 0.53846 0.0
C1855 C 0.66183 0.47417 0.52038 0.0
C1856 C 0.65039 0.47659 0.50309 0.0
C1857 C 0.63348 0.48786 0.50414 0.0
C1858 C 0.66815 0.48112 0.55719 0.0
C1859 C 0.65586 0.46705 0.48355 0.0
C1860 C 0.71474 0.45844 0.51457 0.0
C1861 C 0.71284 0.43824 0.51817 0.0
C1862 C 0.69826 0.47032 0.51523 0.0
C1863 C 0.67945 0.46181 0.51965 0.0
C1864 C 0.67744 0.44146 0.52342 0.0
C1865 C 0.69416 0.42991 0.52262 0.0
C1866 C 0.70095 0.49197 0.51112 0.0
C1867 C 0.65761 0.43187 0.52823 0.0
H1868 H 0.6351 0.50154 0.55292 0.0
H1869 H 0.62449 0.48937 0.49101 0.0
H1870 H 0.66854 0.46538 0.56106 0.0
H1871 H 0.68363 0.48641 0.55481 0.0
H1872 H 0.66199 0.48942 0.56997 0.0
H1873 H 0.6457 0.47079 0.47137 0.0
H1874 H 0.67113 0.47171 0.47937 0.0
H1875 H 0.65554 0.45084 0.48499 0.0
H1876 H 0.72911 0.46499 0.51108 0.0
H1877 H 0.69255 0.41432 0.52543 0.0
H1878 H 0.69585 0.50078 0.52402 0.0
H1879 H 0.69179 0.49578 0.49821 0.0
H1880 H 0.71658 0.49633 0.508 0.0
H1881 H 0.65136 0.43896 0.54166 0.0
H1882 H 0.65857 0.41588 0.53085 0.0
H1883 H 0.64712 0.43393 0.51588 0.0
C1884 C 0.72975 0.27016 0.41082 0.0
C1885 C 0.72768 0.27654 0.39133 0.0
C1886 C 0.73419 0.28359 0.42637 0.0
C1887 C 0.73684 0.30382 0.42225 0.0
C1888 C 0.73464 0.31035 0.4026 0.0
C1889 C 0.72997 0.29662 0.38738 0.0
C1890 C 0.73615 0.27612 0.44719 0.0
C1891 C 0.73755 0.33178 0.39761 0.0
C1892 C 0.7324 0.34135 0.46422 0.0
C1893 C 0.75227 0.34539 0.46917 0.0
C1894 C 0.72715 0.32775 0.44906 0.0
C1895 C 0.74215 0.31814 0.43846 0.0
C1896 C 0.76223 0.32225 0.44329 0.0
C1897 C 0.76705 0.33575 0.45868 0.0
C1898 C 0.70557 0.32358 0.44445 0.0
C1899 C 0.77862 0.31242 0.43216 0.0
H1900 H 0.72779 0.25465 0.4139 0.0
H1901 H 0.72859 0.30154 0.37227 0.0
H1902 H 0.75129 0.2795 0.45285 0.0
H1903 H 0.72578 0.28369 0.45723 0.0
H1904 H 0.7331 0.26002 0.44797 0.0
H1905 H 0.73513 0.33446 0.38162 0.0
H1906 H 0.72722 0.34075 0.40639 0.0
H1907 H 0.75276 0.337 0.40164 0.0
H1908 H 0.72088 0.34866 0.47235 0.0
H1909 H 0.78243 0.33886 0.46239 0.0
H1910 H 0.70187 0.30769 0.44618 0.0
H1911 H 0.70246 0.32718 0.42882 0.0
H1912 H 0.69572 0.33213 0.45424 0.0
H1913 H 0.77708 0.29625 0.43367 0.0
H1914 H 0.79349 0.31741 0.43759 0.0
H1915 H 0.7776 0.31556 0.41612 0.0
C1916 C 0.55785 0.02907 0.89358 0.0
C1917 C 0.53718 0.02887 0.89238 0.0
C1918 C 0.56939 0.02593 0.87662 0.0
C1919 C 0.56003 0.02261 0.85802 0.0
C1920 C 0.53916 0.02215 0.85676 0.0
C1921 C 0.52798 0.02524 0.87398 0.0
C1922 C 0.59161 0.02639 0.87857 0.0
C1923 C 0.52866 0.01877 0.83717 0.0
C1924 C 0.58945 0.03461 0.81168 0.0
C1925 C 0.59493 0.01593 0.80507 0.0
C1926 C 0.57809 0.03697 0.82888 0.0
C1927 C 0.57209 0.02025 0.83978 0.0
C1928 C 0.5776 0.00134 0.83325 0.0
C1929 C 0.58894 -0.0006 0.81595 0.0
C1930 C 0.57247 0.05738 0.83537 0.0
C1931 C 0.57151 0.98318 0.84453 0.0
H1932 H 0.56501 0.0316 0.90782 0.0
H1933 H 0.51202 0.02528 0.87296 0.0
H1934 H 0.59751 0.01247 0.87263 0.0
H1935 H 0.59816 0.0385 0.86966 0.0
H1936 H 0.59656 0.02852 0.89419 0.0
H1937 H 0.51234 0.01823 0.83882 0.0
H1938 H 0.53289 0.03073 0.8269 0.0
H1939 H 0.53319 0.00477 0.83016 0.0
H1940 H 0.59399 0.04747 0.80338 0.0
H1941 H 0.59312 0.98491 0.81096 0.0
H1942 H 0.57824 0.06077 0.8505 0.0
H1943 H 0.55615 0.05817 0.83605 0.0
H1944 H 0.57827 0.06885 0.82521 0.0
H1945 H 0.57714 0.98446 0.85997 0.0
H1946 H 0.5771 0.96956 0.83755 0.0
H1947 H 0.55517 0.98177 0.84538 0.0
C1948 C 0.28866 0.20898 0.37068 0.0
C1949 C 0.27193 0.21774 0.36304 0.0
C1950 C 0.28698 0.19525 0.38587 0.0
C1951 C 0.26814 0.19032 0.39375 0.0
C1952 C 0.25116 0.19889 0.38595 0.0
C1953 C 0.25325 0.21243 0.37062 0.0
C1954 C 0.30542 0.18635 0.39378 0.0
C1955 C 0.23082 0.19404 0.39404 0.0
C1956 C 0.26136 0.14391 0.42372 0.0
C1957 C 0.26279 0.15146 0.44319 0.0
C1958 C 0.26317 0.15638 0.40744 0.0
C1959 C 0.26628 0.17685 0.41075 0.0
C1960 C 0.26765 0.18455 0.43037 0.0
C1961 C 0.26598 0.17175 0.44634 0.0
C1962 C 0.26182 0.14765 0.3867 0.0
C1963 C 0.2708 0.20632 0.43449 0.0
H1964 H 0.30318 0.21318 0.36511 0.0
H1965 H 0.24022 0.21888 0.36458 0.0
H1966 H 0.30766 0.19092 0.40953 0.0
H1967 H 0.30381 0.17008 0.39328 0.0
H1968 H 0.31881 0.19087 0.38527 0.0
H1969 H 0.21907 0.20158 0.38598 0.0
H1970 H 0.22764 0.17795 0.39304 0.0
H1971 H 0.23017 0.19842 0.40995 0.0
H1972 H 0.25896 0.12824 0.42118 0.0
H1973 H 0.267 0.17772 0.46134 0.0
H1974 H 0.27557 0.15132 0.37842 0.0
H1975 H 0.24946 0.15409 0.37857 0.0
H1976 H 0.25948 0.13142 0.38665 0.0
H1977 H 0.28481 0.21168 0.42764 0.0
H1978 H 0.27135 0.20995 0.45062 0.0
H1979 H 0.2587 0.21446 0.42773 0.0
C1980 C 0.45171 0.49686 0.88693 0.0
C1981 C 0.4721 0.49845 0.88349 0.0
C1982 C 0.43818 0.49805 0.87129 0.0
C1983 C 0.44525 0.50073 0.85175 0.0
C1984 C 0.46582 0.5027 0.84825 0.0
C1985 C 0.47901 0.50161 0.86419 0.0
C1986 C 0.41634 0.49613 0.87563 0.0
C1987 C 0.47392 0.50541 0.82759 0.0
C1988 C 0.41256 0.48312 0.80879 0.0
C1989 C 0.40535 0.50083 0.80202 0.0
C1990 C 0.42547 0.48289 0.82503 0.0
C1991 C 0.43118 0.50077 0.83485 0.0
C1992 C 0.4237 0.51867 0.82832 0.0
C1993 C 0.41094 0.5185 0.81192 0.0
C1994 C 0.43324 0.46352 0.83151 0.0
C1995 C 0.42932 0.538 0.83855 0.0
H1996 H 0.44634 0.49462 0.90189 0.0
H1997 H 0.49478 0.50262 0.86146 0.0
H1998 H 0.4087 0.50895 0.86983 0.0
H1999 H 0.40989 0.48282 0.86797 0.0
H2000 H 0.41325 0.49505 0.89175 0.0
H2001 H 0.49027 0.50734 0.82747 0.0
H2002 H 0.46964 0.49244 0.81811 0.0
H2003 H 0.4675 0.51843 0.82078 0.0
H2004 H 0.40835 0.46942 0.8012 0.0
H2005 H 0.40536 0.53224 0.80683 0.0
H2006 H 0.4294 0.461 0.84727 0.0
H2007 H 0.44959 0.46389 0.83041 0.0
H2008 H 0.42722 0.4509 0.82241 0.0
H2009 H 0.42559 0.53734 0.85454 0.0
H2010 H 0.42174 0.55054 0.83202 0.0
H2011 H 0.44551 0.54087 0.83749 0.0
C2012 C 0.71815 0.72795 0.11644 0.0
C2013 C 0.73455 0.73797 0.12511 0.0
C2014 C 0.72043 0.71465 0.10053 0.0
C2015 C 0.73954 0.71147 0.09295 0.0
C2016 C 0.75618 0.72135 0.10175 0.0
C2017 C 0.75349 0.7344 0.11779 0.0
C2018 C 0.70235 0.70429 0.09159 0.0
C2019 C 0.77678 0.71839 0.09398 0.0
C2020 C 0.74759 0.66599 0.06085 0.0
C2021 C 0.74643 0.67358 0.04172 0.0
C2022 C 0.74532 0.67814 0.0777 0.0
C2023 C 0.74203 0.69836 0.07532 0.0
C2024 C 0.74098 0.70612 0.05606 0.0
C2025 C 0.74308 0.69361 0.03949 0.0
C2026 C 0.74631 0.66932 0.09802 0.0
C2027 C 0.73769 0.72767 0.05295 0.0
H2028 H 0.70344 0.73083 0.12177 0.0
H2029 H 0.76626 0.74183 0.12461 0.0
H2030 H 0.70049 0.70886 0.07603 0.0
H2031 H 0.70416 0.68816 0.09129 0.0
H2032 H 0.68867 0.70754 0.09993 0.0
H2033 H 0.78819 0.72689 0.10274 0.0
H2034 H 0.78019 0.70259 0.09426 0.0
H2035 H 0.77776 0.72299 0.07831 0.0
H2036 H 0.75011 0.6505 0.06267 0.0
H2037 H 0.74226 0.69961 0.02476 0.0
H2038 H 0.7323 0.67166 0.1061 0.0
H2039 H 0.75834 0.67676 0.10682 0.0
H2040 H 0.74891 0.65331 0.09732 0.0
H2041 H 0.72343 0.73176 0.05963 0.0
H2042 H 0.73756 0.73142 0.037 0.0
H2043 H 0.74949 0.73674 0.0605 0.0
C2044 C 0.95517 0.01928 0.11693 0.0
C2045 C 0.97549 0.0185 0.12061 0.0
C2046 C 0.94139 0.01672 0.13226 0.0
C2047 C 0.94812 0.01341 0.15173 0.0
C2048 C 0.96861 0.0124 0.1555 0.0
C2049 C 0.98206 0.01491 0.13987 0.0
C2050 C 0.91964 0.01772 0.12765 0.0
C2051 C 0.97634 0.00902 0.17611 0.0
C2052 C 0.91474 0.02633 0.19486 0.0
C2053 C 0.90703 0.00777 0.20017 0.0
C2054 C 0.92808 0.02837 0.17907 0.0
C2055 C 0.93375 0.01146 0.16827 0.0
C2056 C 0.92587 0.99271 0.1734 0.0
C2057 C 0.91263 0.99109 0.18933 0.0
C2058 C 0.93625 0.0486 0.17407 0.0
C2059 C 0.9315 0.97437 0.16213 0.0
H2060 H 0.95004 0.02181 0.102 0.0
H2061 H 0.99777 0.01452 0.14281 0.0
H2062 H 0.91174 0.004 0.13226 0.0
H2063 H 0.91324 0.03004 0.13618 0.0
H2064 H 0.91682 0.01985 0.11162 0.0
H2065 H 0.99268 0.00819 0.17646 0.0
H2066 H 0.97196 0.02113 0.18625 0.0
H2067 H 0.96974 0.99517 0.18197 0.0
H2068 H 0.91052 0.0393 0.20317 0.0
H2069 H 0.9067 0.9767 0.19331 0.0
H2070 H 0.93273 0.05192 0.15846 0.0
H2071 H 0.95258 0.04911 0.17549 0.0
H2072 H 0.93025 0.06027 0.18384 0.0
H2073 H 0.92798 0.97574 0.14616 0.0
H2074 H 0.92373 0.96094 0.16774 0.0
H2075 H 0.94765 0.9725 0.1633 0.0
C2076 C 0.28538 0.78639 0.12202 0.0
C2077 C 0.2723 0.78316 0.13778 0.0
C2078 C 0.28026 0.79823 0.10616 0.0
C2079 C 0.2618 0.80733 0.10634 0.0
C2080 C 0.24871 0.80441 0.12246 0.0
C2081 C 0.25404 0.79217 0.13791 0.0
C2082 C 0.29444 0.80069 0.08905 0.0
C2083 C 0.22907 0.81418 0.12337 0.0
C2084 C 0.25638 0.85114 0.07307 0.0
C2085 C 0.24565 0.8427 0.05708 0.0
C2086 C 0.26146 0.83988 0.08938 0.0
C2087 C 0.25602 0.81961 0.08947 0.0
C2088 C 0.24521 0.811 0.07335 0.0
C2089 C 0.23997 0.8227 0.05743 0.0
C2090 C 0.27265 0.84965 0.10649 0.0
C2091 C 0.23946 0.78936 0.07276 0.0
H2092 H 0.29943 0.77926 0.12189 0.0
H2093 H 0.24401 0.78975 0.15022 0.0
H2094 H 0.28725 0.79531 0.07509 0.0
H2095 H 0.29847 0.81648 0.08717 0.0
H2096 H 0.30819 0.79259 0.09118 0.0
H2097 H 0.22097 0.81102 0.13733 0.0
H2098 H 0.23133 0.83033 0.12216 0.0
H2099 H 0.21971 0.80905 0.11066 0.0
H2100 H 0.26072 0.86663 0.0729 0.0
H2101 H 0.23182 0.81607 0.04503 0.0
H2102 H 0.28719 0.8429 0.10818 0.0
H2103 H 0.2644 0.84734 0.12051 0.0
H2104 H 0.27514 0.86569 0.10444 0.0
H2105 H 0.25289 0.78056 0.07363 0.0
H2106 H 0.23122 0.78491 0.05905 0.0
H2107 H 0.23015 0.78562 0.08576 0.0
C2108 C 0.03838 0.48909 0.12531 0.0
C2109 C 0.03089 0.47039 0.11947 0.0
C2110 C 0.04929 0.49187 0.14288 0.0
C2111 C 0.05275 0.47556 0.15492 0.0
C2112 C 0.04528 0.45662 0.14908 0.0
C2113 C 0.03447 0.45426 0.13139 0.0
C2114 C 0.05712 0.51226 0.14855 0.0
C2115 C 0.0486 0.4389 0.1616 0.0
C2116 C 0.09556 0.47988 0.19124 0.0
C2117 C 0.08594 0.48457 0.20904 0.0
C2118 C 0.08492 0.47679 0.17354 0.0
C2119 C 0.06416 0.47835 0.17365 0.0
C2120 C 0.05432 0.48291 0.19158 0.0
C2121 C 0.06534 0.486 0.20906 0.0
C2122 C 0.09592 0.47201 0.15468 0.0
C2123 C 0.03218 0.48463 0.19226 0.0
H2124 H 0.03586 0.50155 0.11601 0.0
H2125 H 0.02851 0.43982 0.12704 0.0
H2126 H 0.05113 0.51675 0.1632 0.0
H2127 H 0.07344 0.51233 0.14999 0.0
H2128 H 0.0532 0.52336 0.13751 0.0
H2129 H 0.04192 0.42518 0.1549 0.0
H2130 H 0.06466 0.43697 0.16361 0.0
H2131 H 0.04216 0.44117 0.17655 0.0
H2132 H 0.11148 0.47876 0.19108 0.0
H2133 H 0.05777 0.48957 0.22275 0.0
H2134 H 0.09343 0.48343 0.14353 0.0
H2135 H 0.09022 0.45779 0.14824 0.0
H2136 H 0.11207 0.4711 0.15715 0.0
H2137 H 0.02767 0.49651 0.18238 0.0
H2138 H 0.02674 0.48787 0.20748 0.0
H2139 H 0.0248 0.47077 0.18674 0.0
C2140 C 0.3844 0.73018 0.27012 0.0
C2141 C 0.36637 0.72375 0.27841 0.0
C2142 C 0.40073 0.73533 0.28218 0.0
C2143 C 0.39899 0.73399 0.30303 0.0
C2144 C 0.3809 0.72738 0.31149 0.0
C2145 C 0.36479 0.72236 0.29908 0.0
C2146 C 0.41982 0.74228 0.27262 0.0
C2147 C 0.37849 0.72576 0.33366 0.0
C2148 C 0.44576 0.73089 0.33364 0.0
C2149 C 0.44845 0.75028 0.34083 0.0
C2150 C 0.42973 0.72538 0.32131 0.0
C2151 C 0.41609 0.73962 0.31601 0.0
C2152 C 0.41872 0.75922 0.32319 0.0
C2153 C 0.43486 0.76432 0.33554 0.0
C2154 C 0.42738 0.70432 0.31399 0.0
C2155 C 0.40448 0.77481 0.31781 0.0
H2156 H 0.38579 0.73103 0.25415 0.0
H2157 H 0.35083 0.71768 0.30561 0.0
H2158 H 0.42403 0.75732 0.27811 0.0
H2159 H 0.43189 0.73257 0.27677 0.0
H2160 H 0.41875 0.74245 0.25619 0.0
H2161 H 0.36354 0.72004 0.33786 0.0
H2162 H 0.38961 0.71587 0.33963 0.0
H2163 H 0.38113 0.7404 0.3409 0.0
H2164 H 0.45617 0.71993 0.33767 0.0
H2165 H 0.43683 0.77934 0.341 0.0
H2166 H 0.4274 0.70374 0.29754 0.0
H2167 H 0.41296 0.69789 0.31892 0.0
H2168 H 0.43931 0.69505 0.31944 0.0
H2169 H 0.40389 0.77626 0.30147 0.0
H2170 H 0.40865 0.7894 0.32456 0.0
H2171 H 0.38937 0.77047 0.32281 0.0
C2172 C 0.96148 0.38546 0.9509 0.0
C2173 C 0.97724 0.39579 0.96038 0.0
C2174 C 0.9648 0.36937 0.93817 0.0
C2175 C 0.98434 0.36335 0.93496 0.0
C2176 C 0.00033 0.37382 0.9443 0.0
C2177 C 0.99659 0.38995 0.95682 0.0
C2178 C 0.94738 0.3586 0.92841 0.0
C2179 C 0.02137 0.36782 0.94126 0.0
C2180 C 0.9915 0.31042 0.91868 0.0
C2181 C 0.99514 0.3123 0.89832 0.0
C2182 C 0.98802 0.32693 0.93077 0.0
C2183 C 0.98802 0.34577 0.92227 0.0
C2184 C 0.9916 0.34777 0.90172 0.0
C2185 C 0.9952 0.33102 0.89 0.0
C2186 C 0.98442 0.32423 0.95266 0.0
C2187 C 0.99156 0.36761 0.89213 0.0
H2188 H 0.94647 0.3897 0.95375 0.0
H2189 H 0.00888 0.39805 0.96382 0.0
H2190 H 0.94943 0.358 0.91209 0.0
H2191 H 0.94635 0.34322 0.93353 0.0
H2192 H 0.93321 0.36566 0.93176 0.0
H2193 H 0.03215 0.37769 0.94938 0.0
H2194 H 0.02303 0.35259 0.94639 0.0
H2195 H 0.0251 0.36791 0.92525 0.0
H2196 H 0.99149 0.29602 0.92525 0.0
H2197 H 0.99792 0.33259 0.87427 0.0
H2198 H 0.96973 0.32973 0.95679 0.0
H2199 H 0.99563 0.33296 0.96141 0.0
H2200 H 0.985 0.3086 0.95697 0.0
H2201 H 0.97708 0.37437 0.89451 0.0
H2202 H 0.99446 0.36666 0.87593 0.0
H2203 H 0.00297 0.37762 0.8991 0.0
C2204 C 0.61068 0.76342 0.26018 0.0
C2205 C 0.62755 0.77441 0.26651 0.0
C2206 C 0.59426 0.76083 0.27263 0.0
C2207 C 0.59446 0.76986 0.2917 0.0
C2208 C 0.61133 0.78105 0.29819 0.0
C2209 C 0.62776 0.78299 0.28563 0.0
C2210 C 0.57664 0.74852 0.2653 0.0
C2211 C 0.61196 0.79116 0.31834 0.0
C2212 C 0.54455 0.77861 0.31513 0.0
C2213 C 0.5431 0.76348 0.32888 0.0
C2214 C 0.56138 0.78109 0.3032 0.0
C2215 C 0.57687 0.7678 0.30475 0.0
C2216 C 0.57541 0.75241 0.31853 0.0
C2217 C 0.55863 0.75058 0.33062 0.0
C2218 C 0.5626 0.79795 0.28899 0.0
C2219 C 0.59144 0.7377 0.32027 0.0
H2220 H 0.61013 0.75704 0.24534 0.0
H2221 H 0.6408 0.79119 0.29087 0.0
H2222 H 0.573 0.73672 0.27596 0.0
H2223 H 0.56355 0.75777 0.26431 0.0
H2224 H 0.57924 0.74166 0.25049 0.0
H2225 H 0.62605 0.79965 0.321 0.0
H2226 H 0.59958 0.80132 0.31974 0.0
H2227 H 0.61005 0.78014 0.33013 0.0
H2228 H 0.53264 0.78871 0.31387 0.0
H2229 H 0.55747 0.73879 0.34117 0.0
H2230 H 0.56359 0.7922 0.27353 0.0
H2231 H 0.57618 0.80715 0.29195 0.0
H2232 H 0.54962 0.8074 0.29014 0.0
H2233 H 0.59351 0.73006 0.30578 0.0
H2234 H 0.58798 0.72652 0.33165 0.0
H2235 H 0.60568 0.74536 0.32419 0.0
C2236 C 0.0095 0.14643 0.99013 0.0
C2237 C 0.01406 0.12772 0.98282 0.0
C2238 C 0.00638 0.1619 0.9772 0.0
C2239 C 0.00772 0.15851 0.95647 0.0
C2240 C 0.01243 0.13967 0.94901 0.0
C2241 C 0.01561 0.12451 0.96229 0.0
C2242 C 0.00157 0.18183 0.98571 0.0
C2243 C 0.01382 0.13547 0.92699 0.0
C2244 C 0.98086 0.19275 0.92289 0.0
C2245 C 0.99635 0.20522 0.91635 0.0
C2246 C 0.98438 0.17742 0.93586 0.0
C2247 C 0.00384 0.17459 0.94258 0.0
C2248 C 0.01954 0.18714 0.93609 0.0
C2249 C 0.01563 0.20226 0.92299 0.0
C2250 C 0.96727 0.16424 0.94236 0.0
C2251 C 0.04047 0.18463 0.94306 0.0
H2252 H 0.00853 0.14901 0.006 0.0
H2253 H 0.01893 0.11 0.95659 0.0
H2254 H 0.01249 0.19311 0.9805 0.0
H2255 H 0.98684 0.18604 0.98041 0.0
H2256 H 0.00152 0.18215 0.00218 0.0
H2257 H 0.01792 0.12011 0.92362 0.0
H2258 H -0.00056 0.13806 0.91981 0.0
H2259 H 0.02497 0.14562 0.92024 0.0
H2260 H 0.96594 0.19489 0.91778 0.0
H2261 H 0.02767 0.21187 0.91805 0.0
H2262 H 0.96577 0.16506 0.95873 0.0
H2263 H 0.97008 0.14873 0.93826 0.0
H2264 H 0.95307 0.16826 0.93559 0.0
H2265 H 0.04117 0.18595 0.95947 0.0
H2266 H 0.051 0.19568 0.93669 0.0
H2267 H 0.04534 0.16973 0.93888 0.0
C2268 C 0.38791 0.25427 0.2222 0.0
C2269 C 0.37002 0.26262 0.21708 0.0
C2270 C 0.40328 0.25278 0.20842 0.0
C2271 C 0.40086 0.26009 0.18911 0.0
C2272 C 0.38291 0.26859 0.18382 0.0
C2273 C 0.36765 0.26964 0.19783 0.0
C2274 C 0.42219 0.24351 0.21457 0.0
C2275 C 0.37987 0.27669 0.16341 0.0
C2276 C 0.44818 0.27258 0.16133 0.0
C2277 C 0.44984 0.25602 0.14882 0.0
C2278 C 0.43199 0.27435 0.17411 0.0
C2279 C 0.41729 0.25906 0.1746 0.0
C2280 C 0.41873 0.24244 0.1618 0.0
C2281 C 0.43494 0.24119 0.14894 0.0
C2282 C 0.43081 0.29243 0.18734 0.0
C2283 C 0.40345 0.22574 0.16208 0.0
H2284 H 0.39004 0.24914 0.23712 0.0
H2285 H 0.35379 0.27585 0.19363 0.0
H2286 H 0.42547 0.23112 0.2043 0.0
H2287 H 0.4347 0.25441 0.21367 0.0
H2288 H 0.42144 0.23791 0.22992 0.0
H2289 H 0.36508 0.28297 0.16169 0.0
H2290 H 0.3913 0.28834 0.16043 0.0
H2291 H 0.38155 0.26493 0.15199 0.0
H2292 H 0.45958 0.28416 0.1612 0.0
H2293 H 0.43618 0.22832 0.13936 0.0
H2294 H 0.43169 0.28823 0.20311 0.0
H2295 H 0.41642 0.29938 0.18525 0.0
H2296 H 0.44285 0.30348 0.18435 0.0
H2297 H 0.40327 0.21895 0.1769 0.0
H2298 H 0.40636 0.21418 0.15071 0.0
H2299 H 0.38853 0.23134 0.15948 0.0
C2300 C 0.52845 0.37243 0.01615 0.0
C2301 C 0.51255 0.3849 0.01453 0.0
C2302 C 0.52708 0.35576 0.028 0.0
C2303 C 0.50946 0.35161 0.03863 0.0
C2304 C 0.49332 0.36411 0.03697 0.0
C2305 C 0.49502 0.38057 0.02483 0.0
C2306 C 0.5445 0.34262 0.0292 0.0
C2307 C 0.47438 0.36027 0.04826 0.0
C2308 C 0.4993 0.29984 0.05684 0.0
C2309 C 0.50545 0.3016 0.07667 0.0
C2310 C 0.50061 0.31599 0.04424 0.0
C2311 C 0.50804 0.33436 0.05175 0.0
C2312 C 0.51421 0.33625 0.07177 0.0
C2313 C 0.51294 0.31982 0.08397 0.0
C2314 C 0.4941 0.31338 0.0229 0.0
C2315 C 0.52205 0.35567 0.08033 0.0
H2316 H 0.54193 0.37566 0.00801 0.0
H2317 H 0.4828 0.39032 0.02372 0.0
H2318 H 0.54988 0.34225 0.04472 0.0
H2319 H 0.53994 0.32735 0.02475 0.0
H2320 H 0.55692 0.34762 0.01958 0.0
H2321 H 0.46315 0.37131 0.0452 0.0
H2322 H 0.46804 0.34545 0.04432 0.0
H2323 H 0.47745 0.3605 0.06443 0.0
H2324 H 0.49356 0.2858 0.05108 0.0
H2325 H 0.51764 0.32131 0.09931 0.0
H2326 H 0.50652 0.31733 0.01287 0.0
H2327 H 0.482 0.3234 0.01974 0.0
H2328 H 0.48885 0.29806 0.01933 0.0
H2329 H 0.53535 0.36073 0.07202 0.0
H2330 H 0.52599 0.35474 0.09626 0.0
H2331 H 0.51084 0.36701 0.07872 0.0
C2332 C 0.61377 0.22901 0.23538 0.0
C2333 C 0.62477 0.24511 0.24342 0.0
C2334 C 0.59841 0.23169 0.22187 0.0
C2335 C 0.59385 0.25095 0.21636 0.0
C2336 C 0.60494 0.26727 0.22434 0.0
C2337 C 0.6203 0.26415 0.23774 0.0
C2338 C 0.58691 0.21392 0.21366 0.0
C2339 C 0.60048 0.28803 0.21881 0.0
C2340 C 0.56458 0.25673 0.16892 0.0
C2341 C 0.54534 0.25853 0.17625 0.0
C2342 C 0.58056 0.25442 0.18182 0.0
C2343 C 0.57721 0.25401 0.20252 0.0
C2344 C 0.55789 0.25611 0.21003 0.0
C2345 C 0.54218 0.25831 0.1968 0.0
C2346 C 0.60096 0.25214 0.17328 0.0
C2347 C 0.55377 0.25585 0.23203 0.0
H2348 H 0.61694 0.21427 0.23991 0.0
H2349 H 0.62892 0.27664 0.24367 0.0
H2350 H 0.57116 0.21467 0.21802 0.0
H2351 H 0.58744 0.21374 0.19722 0.0
H2352 H 0.59268 0.19991 0.21901 0.0
H2353 H 0.61059 0.2991 0.22622 0.0
H2354 H 0.60173 0.28969 0.20253 0.0
H2355 H 0.58508 0.29123 0.22298 0.0
H2356 H 0.56715 0.25686 0.15306 0.0
H2357 H 0.52738 0.25975 0.2026 0.0
H2358 H 0.60662 0.23768 0.17734 0.0
H2359 H 0.6113 0.26361 0.17965 0.0
H2360 H 0.60115 0.25322 0.15687 0.0
H2361 H 0.55787 0.24154 0.23812 0.0
H2362 H 0.53799 0.25818 0.23549 0.0
H2363 H 0.56293 0.26745 0.23979 0.0
C2364 C 0.50527 0.12188 0.0483 0.0
C2365 C 0.48563 0.117 0.04307 0.0
C2366 C 0.50998 0.13845 0.06033 0.0
C2367 C 0.49467 0.15035 0.06734 0.0
C2368 C 0.47483 0.14547 0.06218 0.0
C2369 C 0.47055 0.12889 0.05006 0.0
C2370 C 0.53132 0.14324 0.06552 0.0
C2371 C 0.4581 0.15783 0.06935 0.0
C2372 C 0.50291 0.18388 0.11247 0.0
C2373 C 0.50571 0.20228 0.10371 0.0
C2374 C 0.49968 0.16677 0.10079 0.0
C2375 C 0.49935 0.16811 0.07988 0.0
C2376 C 0.50266 0.18656 0.07094 0.0
C2377 C 0.50576 0.20343 0.08296 0.0
C2378 C 0.49613 0.14735 0.11084 0.0
C2379 C 0.50253 0.18854 0.04868 0.0
H2380 H 0.51696 0.11262 0.04314 0.0
H2381 H 0.45538 0.1254 0.04582 0.0
H2382 H 0.53566 0.15811 0.06026 0.0
H2383 H 0.53327 0.14346 0.08186 0.0
H2384 H 0.54146 0.13248 0.05888 0.0
H2385 H 0.44344 0.15179 0.06433 0.0
H2386 H 0.45813 0.15881 0.08579 0.0
H2387 H 0.46013 0.17302 0.06385 0.0
H2388 H 0.50285 0.18287 0.12849 0.0
H2389 H 0.508 0.21758 0.07607 0.0
H2390 H 0.50663 0.13646 0.10516 0.0
H2391 H 0.48101 0.14145 0.10735 0.0
H2392 H 0.49773 0.14867 0.12721 0.0
H2393 H 0.51322 0.17852 0.04178 0.0
H2394 H 0.50629 0.20379 0.04405 0.0
H2395 H 0.4877 0.18418 0.04274 0.0
C2396 C 0.27062 0.39942 0.71325 0.0
C2397 C 0.26597 0.38713 0.72913 0.0
C2398 C 0.28484 0.41481 0.71532 0.0
C2399 C 0.29479 0.4178 0.73366 0.0
C2400 C 0.28997 0.40558 0.74983 0.0
C2401 C 0.2755 0.39044 0.7474 0.0
C2402 C 0.28937 0.42771 0.69783 0.0
C2403 C 0.30042 0.40822 0.76953 0.0
C2404 C 0.34501 0.44428 0.73209 0.0
C2405 C 0.3405 0.46326 0.73865 0.0
C2406 C 0.33031 0.42927 0.73068 0.0
C2407 C 0.31059 0.43342 0.73572 0.0
C2408 C 0.30594 0.45253 0.74238 0.0
C2409 C 0.32098 0.4672 0.74388 0.0
C2410 C 0.33585 0.40899 0.72371 0.0
C2411 C 0.28504 0.45754 0.74767 0.0
H2412 H 0.26309 0.39698 0.69918 0.0
H2413 H 0.27205 0.38081 0.75962 0.0
H2414 H 0.28748 0.44336 0.70204 0.0
H2415 H 0.30499 0.42622 0.69329 0.0
H2416 H 0.27974 0.42393 0.68487 0.0
H2417 H 0.2946 0.39778 0.78075 0.0
H2418 H 0.31644 0.40597 0.76756 0.0
H2419 H 0.29884 0.42342 0.77536 0.0
H2420 H 0.36008 0.44111 0.72813 0.0
H2421 H 0.31736 0.48186 0.7489 0.0
H2422 H 0.32782 0.40489 0.70982 0.0
H2423 H 0.33142 0.39801 0.73495 0.0
H2424 H 0.35195 0.40804 0.72093 0.0
H2425 H 0.27527 0.45494 0.7346 0.0
H2426 H 0.28391 0.47308 0.75276 0.0
H2427 H 0.27938 0.44784 0.75958 0.0
C2428 C 0.25717 0.61887 0.77087 0.0
C2429 C 0.26329 0.63819 0.77608 0.0
C2430 C 0.27084 0.60396 0.76913 0.0
C2431 C 0.29109 0.60847 0.7728 0.0
C2432 C 0.29741 0.62797 0.77782 0.0
C2433 C 0.28344 0.64261 0.77932 0.0
C2434 C 0.26358 0.58332 0.76367 0.0
C2435 C 0.31888 0.63332 0.78185 0.0
C2436 C 0.32298 0.56657 0.78772 0.0
C2437 C 0.33257 0.56211 0.76986 0.0
C2438 C 0.30959 0.58177 0.78893 0.0
C2439 C 0.30562 0.59267 0.77183 0.0
C2440 C 0.31536 0.58836 0.75379 0.0
C2441 C 0.32879 0.57317 0.75304 0.0
C2442 C 0.2996 0.58608 0.80847 0.0
C2443 C 0.3114 0.59962 0.73523 0.0
H2444 H 0.24161 0.6153 0.76858 0.0
H2445 H 0.28831 0.65757 0.78303 0.0
H2446 H 0.27155 0.57791 0.75039 0.0
H2447 H 0.26672 0.5733 0.77595 0.0
H2448 H 0.24747 0.58242 0.76054 0.0
H2449 H 0.32139 0.64923 0.78532 0.0
H2450 H 0.3242 0.62481 0.79453 0.0
H2451 H 0.32798 0.62938 0.7688 0.0
H2452 H 0.32587 0.55813 0.8008 0.0
H2453 H 0.3361 0.56977 0.73917 0.0
H2454 H 0.28337 0.58393 0.80683 0.0
H2455 H 0.3026 0.60165 0.81303 0.0
H2456 H 0.30463 0.57651 0.82048 0.0
H2457 H 0.29555 0.59786 0.73118 0.0
H2458 H 0.32039 0.59461 0.72245 0.0
H2459 H 0.31463 0.61554 0.73792 0.0
C2460 C 0.88962 0.45512 0.47257 0.0
C2461 C 0.88978 0.47572 0.4735 0.0
C2462 C 0.87213 0.44392 0.4757 0.0
C2463 C 0.85441 0.45357 0.47987 0.0
C2464 C 0.85448 0.47435 0.48086 0.0
C2465 C 0.87216 0.48517 0.47765 0.0
C2466 C 0.87262 0.42178 0.47457 0.0
C2467 C 0.83586 0.48516 0.48524 0.0
C2468 C 0.80528 0.4263 0.47054 0.0
C2469 C 0.79992 0.42061 0.48973 0.0
C2470 C 0.82307 0.43689 0.46709 0.0
C2471 C 0.83576 0.44194 0.48323 0.0
C2472 C 0.83049 0.43616 0.50261 0.0
C2473 C 0.81264 0.42554 0.50563 0.0
C2474 C 0.82823 0.44278 0.4462 0.0
C2475 C 0.84363 0.44131 0.52018 0.0
H2476 H 0.90323 0.44773 0.46961 0.0
H2477 H 0.87212 0.50109 0.47809 0.0
H2478 H 0.86778 0.41551 0.48889 0.0
H2479 H 0.86217 0.41595 0.46303 0.0
H2480 H 0.88759 0.41655 0.47105 0.0
H2481 H 0.83845 0.50137 0.48565 0.0
H2482 H 0.82453 0.48133 0.47379 0.0
H2483 H 0.82968 0.48058 0.49974 0.0
H2484 H 0.79557 0.42251 0.45817 0.0
H2485 H 0.80862 0.4212 0.5205 0.0
H2486 H 0.84267 0.43682 0.44188 0.0
H2487 H 0.82974 0.45902 0.44542 0.0
H2488 H 0.81691 0.43744 0.43525 0.0
H2489 H 0.85849 0.43537 0.51778 0.0
H2490 H 0.83753 0.43546 0.53426 0.0
H2491 H 0.84559 0.45752 0.52179 0.0
C2492 C 0.74218 0.893 0.77594 0.0
C2493 C 0.73552 0.87386 0.78047 0.0
C2494 C 0.72906 0.90845 0.77537 0.0
C2495 C 0.70882 0.90469 0.77955 0.0
C2496 C 0.70204 0.88548 0.78439 0.0
C2497 C 0.71545 0.87029 0.78472 0.0
C2498 C 0.73683 0.92875 0.77011 0.0
C2499 C 0.68056 0.88093 0.78897 0.0
C2500 C 0.67757 0.94797 0.79372 0.0
C2501 C 0.66798 0.95149 0.77577 0.0
C2502 C 0.69082 0.9327 0.79522 0.0
C2503 C 0.69464 0.92076 0.77833 0.0
C2504 C 0.68498 0.92421 0.76019 0.0
C2505 C 0.67173 0.93949 0.75915 0.0
C2506 C 0.70076 0.92936 0.81485 0.0
C2507 C 0.68876 0.91184 0.74184 0.0
H2508 H 0.75771 0.89594 0.77294 0.0
H2509 H 0.71012 0.8555 0.78795 0.0
H2510 H 0.72936 0.93367 0.75654 0.0
H2511 H 0.73349 0.9394 0.78221 0.0
H2512 H 0.75303 0.92927 0.7675 0.0
H2513 H 0.67781 0.86539 0.79322 0.0
H2514 H 0.67558 0.89064 0.80125 0.0
H2515 H 0.67136 0.88387 0.77582 0.0
H2516 H 0.67472 0.95715 0.80665 0.0
H2517 H 0.66443 0.94212 0.7452 0.0
H2518 H 0.71702 0.931 0.81318 0.0
H2519 H 0.69739 0.91414 0.81973 0.0
H2520 H 0.696 0.93978 0.82663 0.0
H2521 H 0.70467 0.91293 0.73793 0.0
H2522 H 0.68002 0.9164 0.72889 0.0
H2523 H 0.68505 0.89615 0.74472 0.0
C2524 C 0.6195 0.54857 0.98527 0.0
C2525 C 0.62166 0.52817 0.98463 0.0
C2526 C 0.63579 0.56148 0.98885 0.0
C2527 C 0.65466 0.55376 0.99182 0.0
C2528 C 0.65697 0.5332 0.99089 0.0
C2529 C 0.64044 0.52065 0.98732 0.0
C2530 C 0.63277 0.58333 0.98978 0.0
C2531 C 0.67689 0.52443 0.99385 0.0
C2532 C 0.70057 0.58657 0.98503 0.0
C2533 C 0.7057 0.59142 0.00474 0.0
C2534 C 0.68385 0.57451 0.98059 0.0
C2535 C 0.67198 0.56715 0.99622 0.0
C2536 C 0.67693 0.57218 0.01612 0.0
C2537 C 0.69374 0.58424 0.02014 0.0
C2538 C 0.67903 0.56944 0.95919 0.0
C2539 C 0.66458 0.56463 0.03318 0.0
H2540 H 0.60497 0.55443 0.9834 0.0
H2541 H 0.64222 0.5049 0.98655 0.0
H2542 H 0.63684 0.58929 0.00472 0.0
H2543 H 0.64255 0.59091 0.97894 0.0
H2544 H 0.61725 0.58698 0.98662 0.0
H2545 H 0.67623 0.50815 0.99231 0.0
H2546 H 0.6876 0.53043 0.98288 0.0
H2547 H 0.68268 0.52854 0.00881 0.0
H2548 H 0.7097 0.59206 0.97303 0.0
H2549 H 0.69756 0.58796 0.0354 0.0
H2550 H 0.66385 0.57385 0.95564 0.0
H2551 H 0.67945 0.55331 0.95668 0.0
H2552 H 0.68949 0.57674 0.94875 0.0
H2553 H 0.64905 0.56891 0.0314 0.0
H2554 H 0.67013 0.57034 0.04777 0.0
H2555 H 0.66453 0.54834 0.03322 0.0
C2556 C 0.20694 0.62322 0.20782 0.0
C2557 C 0.21451 0.63512 0.22346 0.0
C2558 C 0.19485 0.60654 0.21151 0.0
C2559 C 0.1902 0.60166 0.23131 0.0
C2560 C 0.19769 0.61368 0.24716 0.0
C2561 C 0.20978 0.63027 0.24304 0.0
C2562 C 0.18722 0.59401 0.19422 0.0
C2563 C 0.19297 0.60898 0.26846 0.0
C2564 C 0.14532 0.56787 0.23991 0.0
C2565 C 0.15402 0.5497 0.24237 0.0
C2566 C 0.15693 0.58495 0.23646 0.0
C2567 C 0.17772 0.58381 0.23542 0.0
C2568 C 0.1866 0.56556 0.23803 0.0
C2569 C 0.17465 0.54873 0.24149 0.0
C2570 C 0.14695 0.60419 0.23379 0.0
C2571 C 0.20874 0.56378 0.23701 0.0
H2572 H 0.21077 0.62676 0.19267 0.0
H2573 H 0.21539 0.63956 0.25516 0.0
H2574 H 0.19259 0.57888 0.19537 0.0
H2575 H 0.17085 0.59291 0.19456 0.0
H2576 H 0.19196 0.6 0.17971 0.0
H2577 H 0.19979 0.61994 0.27906 0.0
H2578 H 0.17674 0.6085 0.27074 0.0
H2579 H 0.1983 0.59425 0.27199 0.0
H2580 H 0.1294 0.56876 0.2406 0.0
H2581 H 0.18151 0.53476 0.24339 0.0
H2582 H 0.15037 0.61 0.21888 0.0
H2583 H 0.15268 0.61525 0.24485 0.0
H2584 H 0.13065 0.60265 0.23539 0.0
H2585 H 0.2142 0.56836 0.22224 0.0
H2586 H 0.21334 0.54855 0.23959 0.0
H2587 H 0.21602 0.57374 0.24822 0.0
C2588 C 0.89258 0.54826 0.00836 0.0
C2589 C 0.89591 0.54117 0.02741 0.0
C2590 C 0.87701 0.56074 0.00472 0.0
C2591 C 0.86452 0.56628 0.02052 0.0
C2592 C 0.86784 0.55925 0.03979 0.0
C2593 C 0.88346 0.54675 0.043 0.0
C2594 C 0.87392 0.56797 0.98397 0.0
C2595 C 0.85479 0.56481 0.05701 0.0
C2596 C 0.8345 0.61198 0.01591 0.0
C2597 C 0.81576 0.60387 0.01101 0.0
C2598 C 0.85056 0.59993 0.0189 0.0
C2599 C 0.8478 0.57928 0.01689 0.0
C2600 C 0.82898 0.571 0.01178 0.0
C2601 C 0.81318 0.58339 0.00892 0.0
C2602 C 0.87042 0.60927 0.02439 0.0
C2603 C 0.82549 0.54904 0.00946 0.0
H2604 H 0.90229 0.5442 0.99631 0.0
H2605 H 0.88576 0.54108 0.05769 0.0
H2606 H 0.85894 0.56333 0.97864 0.0
H2607 H 0.87485 0.58427 0.98398 0.0
H2608 H 0.88497 0.56232 0.97333 0.0
H2609 H 0.85958 0.55836 0.07115 0.0
H2610 H 0.85487 0.58103 0.05893 0.0
H2611 H 0.83932 0.55975 0.05395 0.0
H2612 H 0.83663 0.62779 0.01754 0.0
H2613 H 0.79876 0.57699 0.00509 0.0
H2614 H 0.88172 0.60483 0.01345 0.0
H2615 H 0.87512 0.60404 0.03907 0.0
H2616 H 0.87019 0.62558 0.02503 0.0
H2617 H 0.83562 0.54309 0.9981 0.0
H2618 H 0.81006 0.54497 0.00506 0.0
H2619 H 0.82876 0.54181 0.02362 0.0
C2620 C 0.14052 0.99879 0.01468 0.0
C2621 C 0.12126 0.99111 0.01744 0.0
C2622 C 0.15639 0.98631 0.01214 0.0
C2623 C 0.15286 0.9657 0.01224 0.0
C2624 C 0.13342 0.95787 0.01494 0.0
C2625 C 0.11786 0.97068 0.01758 0.0
C2626 C 0.17694 0.99518 0.00946 0.0
C2627 C 0.12906 0.93596 0.01496 0.0
C2628 C 0.19034 0.93301 0.98774 0.0
C2629 C 0.20056 0.92621 0.00418 0.0
C2630 C 0.17481 0.94592 0.99015 0.0
C2631 C 0.16947 0.95227 0.00945 0.0
C2632 C 0.17983 0.94561 0.02611 0.0
C2633 C 0.19522 0.9326 0.02328 0.0
C2634 C 0.16402 0.95263 0.97204 0.0
C2635 C 0.17462 0.95218 0.04691 0.0
H2636 H 0.14321 0.01458 0.01479 0.0
H2637 H 0.10295 0.96471 0.01948 0.0
H2638 H 0.1868 0.99016 0.02133 0.0
H2639 H 0.18314 0.99014 0.9951 0.0
H2640 H 0.1772 0.01151 0.00983 0.0
H2641 H 0.11312 0.93226 0.0172 0.0
H2642 H 0.13376 0.92925 0.00068 0.0
H2643 H 0.13759 0.92916 0.02689 0.0
H2644 H 0.19434 0.92812 0.97294 0.0
H2645 H 0.20308 0.92747 0.03606 0.0
H2646 H 0.16498 0.9689 0.97134 0.0
H2647 H 0.14813 0.9482 0.97303 0.0
H2648 H 0.17006 0.9464 0.95806 0.0
H2649 H 0.17575 0.96845 0.04821 0.0
H2650 H 0.18438 0.94595 0.05825 0.0
H2651 H 0.15911 0.94762 0.05026 0.0
loop_
_geom_bond_atom_site_label_1
_geom_bond_atom_site_label_2
_geom_bond_distance
_geom_bond_site_symmetry_2
_ccdc_geom_bond_type
C0 C1 1.391 . S
C0 C4 1.391 1_556 S
C0 H42 0.948 . S
C1 C0 1.391 . S
C1 C2 1.391 1_556 S
C2 C1 1.391 1_554 S
C2 H58 0.947 1_455 S
C2 C59 1.392 . S
C3 C4 1.391 . S
C3 C7 1.397 . S
C3 C59 1.419 . S
C4 C0 1.391 1_554 S
C4 C3 1.391 . S
C4 C5 1.399 . S
C5 C4 1.399 . S
C5 C8 1.396 . S
C5 C17 1.453 . S
C5 C18 1.684 1_554 S
H6 C30 0.948 . S
C7 C3 1.397 . S
C7 C8 1.394 . S
C7 C26 1.723 . S
C8 C5 1.396 . S
C8 C7 1.394 . S
C8 C38 1.723 . S
H9 C32 0.947 . S
H10 C33 0.948 . S
H11 C39 0.982 . S
H12 C40 0.979 . S
H13 C40 0.980 . S
H14 C40 0.983 . S
H15 C39 0.972 1_565 S
H16 C39 0.977 . S
C17 C5 1.453 . S
C17 H46 0.982 . S
C17 H47 0.979 1_554 S
C17 H48 0.977 . S
C18 C5 1.684 1_556 S
C18 H43 0.979 . S
C18 H44 0.980 . S
C18 H45 0.983 . S
C19 C20 1.391 . S
C19 C24 1.391 . S
C19 H49 0.948 . S
C20 C19 1.391 . S
C20 C21 1.391 1_655 S
C21 C20 1.391 1_455 S
C21 C22 1.392 . S
C21 H50 0.947 . S
C22 C21 1.392 . S
C22 C23 1.419 . S
C22 H51 0.948 . S
C23 C22 1.419 . S
C23 C24 1.391 1_455 S
C23 C27 1.397 . S
C24 C19 1.391 . S
C24 C23 1.391 1_655 S
C24 C25 1.399 1_655 S
C25 C24 1.399 1_455 S
C25 C26 1.404 . S
C25 C28 1.453 . S
C25 C29 1.676 1_455 S
C26 C7 1.723 . S
C26 C25 1.404 . S
C26 C27 1.394 . S
C27 C23 1.397 . S
C27 C26 1.394 . S
C27 C37 1.723 . S
C28 C25 1.453 . S
C28 H52 0.982 . S
C28 H53 0.979 1_455 S
C28 H54 0.977 . S
C29 C25 1.676 1_655 S
C29 H55 0.979 . S
C29 H56 0.980 . S
C29 H57 0.983 . S
C30 H6 0.948 . S
C30 C31 1.391 . S
C30 C35 1.391 1_565 S
C31 C30 1.391 . S
C31 C32 1.391 1_565 S
C32 H9 0.947 . S
C32 C31 1.391 1_545 S
C32 C33 1.392 . S
C33 H10 0.948 . S
C33 C32 1.392 . S
C33 C34 1.419 . S
C34 C33 1.419 . S
C34 C35 1.391 . S
C34 C38 1.397 . S
C35 C30 1.391 1_545 S
C35 C34 1.391 . S
C35 C36 1.399 . S
C36 C35 1.399 . S
C36 C37 1.396 . S
C36 C39 1.453 . S
C36 C40 1.684 1_545 S
C37 C27 1.723 . S
C37 C36 1.396 . S
C37 C38 1.394 . S
C38 C8 1.723 . S
C38 C34 1.397 . S
C38 C37 1.394 . S
C39 H11 0.982 . S
C39 H15 0.972 1_545 S
C39 H16 0.977 . S
C39 C36 1.453 . S
C40 H12 0.979 . S
C40 H13 0.980 . S
C40 H14 0.983 . S
C40 C36 1.684 1_565 S
H41 C59 0.938 1_655 S
H42 C0 0.948 . S
H43 C18 0.979 . S
H44 C18 0.980 . S
H45 C18 0.983 . S
H46 C17 0.982 . S
H47 C17 0.979 1_556 S
H48 C17 0.977 . S
H49 C19 0.948 . S
H50 C21 0.947 . S
H51 C22 0.948 . S
H52 C28 0.982 . S
H53 C28 0.979 1_655 S
H54 C28 0.977 . S
H55 C29 0.979 . S
H56 C29 0.980 . S
H57 C29 0.983 . S
H58 C2 0.947 1_655 S
C59 C2 1.392 . S
C59 C3 1.419 . S
C59 H41 0.938 1_455 S
C60 C61 1.391 . S
C60 C64 1.391 . S
C60 H102 0.948 . S
C61 C60 1.391 . S
C61 C62 1.391 . S
C62 C61 1.391 . S
C62 H118 0.947 . S
C62 C119 1.392 . S
C63 C64 1.391 . S
C63 C67 1.397 . S
C63 C119 1.419 . S
C64 C60 1.391 . S
C64 C63 1.391 . S
C64 C65 1.399 . S
C65 C64 1.399 . S
C65 C68 1.396 . S
C65 C77 1.453 . S
C65 C78 1.684 . S
H66 C90 0.948 . S
C67 C63 1.397 . S
C67 C68 1.394 . S
C67 C86 1.723 . S
C68 C65 1.396 . S
C68 C67 1.394 . S
C68 C98 1.723 . S
H69 C92 0.947 . S
H70 C93 0.948 . S
H71 C99 0.982 . S
H72 C100 0.979 . S
H73 C100 0.980 . S
H74 C100 0.983 . S
H75 C99 0.979 . S
H76 C99 0.977 . S
C77 C65 1.453 . S
C77 H106 0.982 . S
C77 H107 0.979 . S
C77 H108 0.977 . S
C78 C65 1.684 . S
C78 H103 0.979 . S
C78 H104 0.980 . S
C78 H105 0.983 . S
C79 C80 1.391 . S
C79 C84 1.391 . S
C79 H109 0.948 . S
C80 C79 1.391 . S
C80 C81 1.391 . S
C81 C80 1.391 . S
C81 C82 1.392 . S
C81 H110 0.947 . S
C82 C81 1.392 . S
C82 C83 1.419 . S
C82 H111 0.948 . S
C83 C82 1.419 . S
C83 C84 1.391 . S
C83 C87 1.397 . S
C84 C79 1.391 . S
C84 C83 1.391 . S
C84 C85 1.399 . S
C85 C84 1.399 . S
C85 C86 1.396 . S
C85 C88 1.453 . S
C85 C89 1.684 . S
C86 C67 1.723 . S
C86 C85 1.396 . S
C86 C87 1.394 . S
C87 C83 1.397 . S
C87 C86 1.394 . S
C87 C97 1.723 . S
C88 C85 1.453 . S
C88 H112 0.982 . S
C88 H113 0.979 . S
C88 H114 0.977 . S
C89 C85 1.684 . S
C89 H115 0.979 . S
C89 H116 0.980 . S
C89 H117 0.983 . S
C90 H66 0.948 . S
C90 C91 1.391 . S
C90 C95 1.391 . S
C91 C90 1.391 . S
C91 C92 1.391 . S
C92 H69 0.947 . S
C92 C91 1.391 . S
C92 C93 1.392 . S
C93 H70 0.948 . S
C93 C92 1.392 . S
C93 C94 1.419 . S
C94 C93 1.419 . S
C94 C95 1.391 . S
C94 C98 1.397 . S
C95 C90 1.391 . S
C95 C94 1.391 . S
C95 C96 1.399 . S
C96 C95 1.399 . S
C96 C97 1.396 . S
C96 C99 1.453 . S
C96 C100 1.684 . S
C97 C87 1.723 . S
C97 C96 1.396 . S
C97 C98 1.394 . S
C98 C68 1.723 . S
C98 C94 1.397 . S
C98 C97 1.394 . S
C99 H71 0.982 . S
C99 H75 0.979 . S
C99 H76 0.977 . S
C99 C96 1.453 . S
C100 H72 0.979 . S
C100 H73 0.980 . S
C100 H74 0.983 . S
C100 C96 1.684 . S
H101 C119 0.948 . S
H102 C60 0.948 . S
H103 C78 0.979 . S
H104 C78 0.980 . S
H105 C78 0.983 . S
H106 C77 0.982 . S
H107 C77 0.979 . S
H108 C77 0.977 . S
H109 C79 0.948 . S
H110 C81 0.947 . S
H111 C82 0.948 . S
H112 C88 0.982 . S
H113 C88 0.979 . S
H114 C88 0.977 . S
H115 C89 0.979 . S
H116 C89 0.980 . S
H117 C89 0.983 . S
H118 C62 0.947 . S
C119 C62 1.392 . S
C119 C63 1.419 . S
C119 H101 0.948 . S
C120 C121 1.391 . S
C120 C124 1.391 1_556 S
C120 H162 0.947 . S
C121 C120 1.391 . S
C121 C122 1.391 . S
C122 C121 1.391 . S
C122 H178 0.947 . S
C122 C179 1.392 . S
C123 C124 1.391 . S
C123 C127 1.397 . S
C123 C179 1.419 1_554 S
C124 C120 1.391 1_554 S
C124 C123 1.391 . S
C124 C125 1.399 . S
C125 C124 1.399 . S
C125 C128 1.396 . S
C125 C137 1.453 . S
C125 C138 1.684 1_655 S
H126 C150 0.948 . S
C127 C123 1.397 . S
C127 C128 1.394 . S
C127 C146 1.723 . S
C128 C125 1.396 . S
C128 C127 1.394 . S
C128 C158 1.723 . S
H129 C152 0.947 . S
H130 C153 0.948 . S
H131 C159 0.982 . S
H132 C160 0.979 . S
H133 C160 0.980 . S
H134 C160 0.983 . S
H135 C159 0.979 . S
H136 C159 0.977 . S
C137 C125 1.453 . S
C137 H166 0.982 . S
C137 H167 0.979 1_655 S
C137 H168 0.960 1_655 S
C138 C125 1.684 1_455 S
C138 H163 0.979 . S
C138 H164 0.980 . S
C138 H165 0.983 . S
C139 C140 1.391 . S
C139 C144 1.391 . S
C139 H169 0.994 . S
C140 C139 1.391 . S
C140 C141 1.391 . S
C141 C140 1.391 . S
C141 C142 1.392 . S
C141 H170 0.947 . S
C142 C141 1.392 . S
C142 C143 1.419 . S
C142 H171 0.948 . S
C143 C142 1.419 . S
C143 C144 1.391 . S
C143 C147 1.397 . S
C144 C139 1.391 . S
C144 C143 1.391 . S
C144 C145 1.399 . S
C145 C144 1.399 . S
C145 C146 1.396 . S
C145 C148 1.453 . S
C145 C149 1.684 1_554 S
C146 C127 1.723 . S
C146 C145 1.396 . S
C146 C147 1.394 . S
C147 C143 1.397 . S
C147 C146 1.394 . S
C147 C157 1.723 . S
C148 C145 1.453 . S
C148 H172 0.982 . S
C148 H173 0.979 1_554 S
C148 H174 0.977 1_554 S
C149 C145 1.684 1_556 S
C149 H175 0.979 . S
C149 H176 0.980 . S
C149 H177 0.983 . S
C150 H126 0.948 . S
C150 C151 1.391 . S
C150 C155 1.391 1_455 S
C151 C150 1.391 . S
C151 C152 1.391 . S
C152 H129 0.947 . S
C152 C151 1.391 . S
C152 C153 1.392 . S
C153 H130 0.948 . S
C153 C152 1.392 . S
C153 C154 1.419 1_455 S
C154 C153 1.419 1_655 S
C154 C155 1.391 . S
C154 C158 1.397 . S
C155 C150 1.391 1_655 S
C155 C154 1.391 . S
C155 C156 1.399 . S
C156 C155 1.399 . S
C156 C157 1.396 . S
C156 C159 1.453 . S
C156 C160 1.684 . S
C157 C147 1.723 . S
C157 C156 1.396 . S
C157 C158 1.394 . S
C158 C128 1.723 . S
C158 C154 1.397 . S
C158 C157 1.394 . S
C159 H131 0.982 . S
C159 H135 0.979 . S
C159 H136 0.977 . S
C159 C156 1.453 . S
C160 H132 0.979 . S
C160 H133 0.980 . S
C160 H134 0.983 . S
C160 C156 1.684 . S
H161 C179 0.948 . S
H162 C120 0.947 . S
H163 C138 0.979 . S
H164 C138 0.980 . S
H165 C138 0.983 . S
H166 C137 0.982 . S
H167 C137 0.979 1_455 S
H168 C137 0.960 1_455 S
H169 C139 0.994 . S
H170 C141 0.947 . S
H171 C142 0.948 . S
H172 C148 0.982 . S
H173 C148 0.979 1_556 S
H174 C148 0.977 1_556 S
H175 C149 0.979 . S
H176 C149 0.980 . S
H177 C149 0.983 . S
H178 C122 0.947 . S
C179 C122 1.392 . S
C179 C123 1.419 1_556 S
C179 H161 0.948 . S
C180 C181 1.391 . S
C180 C184 1.391 . S
C180 H222 0.948 . S
C181 C180 1.391 . S
C181 C182 1.391 . S
C182 C181 1.391 . S
C182 H238 0.947 . S
C182 C239 1.392 . S
C183 C184 1.391 . S
C183 C187 1.397 . S
C183 C239 1.419 . S
C184 C180 1.391 . S
C184 C183 1.391 . S
C184 C185 1.399 . S
C185 C184 1.399 . S
C185 C188 1.396 . S
C185 C197 1.453 . S
C185 C198 1.684 . S
H186 C210 0.948 . S
C187 C183 1.397 . S
C187 C188 1.394 . S
C187 C206 1.723 . S
C188 C185 1.396 . S
C188 C187 1.394 . S
C188 C218 1.723 . S
H189 C212 0.947 . S
H190 C213 0.948 . S
H191 C219 0.982 . S
H192 C220 0.979 . S
H193 C220 0.980 . S
H194 C220 0.983 . S
H195 C219 0.979 . S
H196 C219 0.977 . S
C197 C185 1.453 . S
C197 H226 0.982 . S
C197 H227 0.979 . S
C197 H228 0.977 . S
C198 C185 1.684 . S
C198 H223 0.979 . S
C198 H224 0.980 . S
C198 H225 0.983 . S
C199 C200 1.391 . S
C199 C204 1.391 . S
C199 H229 0.948 . S
C200 C199 1.391 . S
C200 C201 1.391 . S
C201 C200 1.391 . S
C201 C202 1.392 . S
C201 H230 0.947 . S
C202 C201 1.392 . S
C202 C203 1.419 . S
C202 H231 0.948 . S
C203 C202 1.419 . S
C203 C204 1.391 . S
C203 C207 1.397 . S
C204 C199 1.391 . S
C204 C203 1.391 . S
C204 C205 1.399 . S
C205 C204 1.399 . S
C205 C206 1.396 . S
C205 C208 1.453 . S
C205 C209 1.684 . S
C206 C187 1.723 . S
C206 C205 1.396 . S
C206 C207 1.394 . S
C207 C203 1.397 . S
C207 C206 1.394 . S
C207 C217 1.723 . S
C208 C205 1.453 . S
C208 H232 0.982 . S
C208 H233 0.979 . S
C208 H234 0.977 . S
C209 C205 1.684 . S
C209 H235 0.979 . S
C209 H236 0.980 . S
C209 H237 0.983 . S
C210 H186 0.948 . S
C210 C211 1.391 . S
C210 C215 1.391 . S
C211 C210 1.391 . S
C211 C212 1.391 . S
C212 H189 0.947 . S
C212 C211 1.391 . S
C212 C213 1.392 . S
C213 H190 0.948 . S
C213 C212 1.392 . S
C213 C214 1.419 . S
C214 C213 1.419 . S
C214 C215 1.391 . S
C214 C218 1.397 . S
C215 C210 1.391 . S
C215 C214 1.391 . S
C215 C216 1.399 . S
C216 C215 1.399 . S
C216 C217 1.396 . S
C216 C219 1.453 . S
C216 C220 1.684 . S
C217 C207 1.723 . S
C217 C216 1.396 . S
C217 C218 1.394 . S
C218 C188 1.723 . S
C218 C214 1.397 . S
C218 C217 1.394 . S
C219 H191 0.982 . S
C219 H195 0.979 . S
C219 H196 0.977 . S
C219 C216 1.453 . S
C220 H192 0.979 . S
C220 H193 0.980 . S
C220 H194 0.983 . S
C220 C216 1.684 . S
H221 C239 0.948 . S
H222 C180 0.948 . S
H223 C198 0.979 . S
H224 C198 0.980 . S
H225 C198 0.983 . S
H226 C197 0.982 . S
H227 C197 0.979 . S
H228 C197 0.977 . S
H229 C199 0.948 . S
H230 C201 0.947 . S
H231 C202 0.948 . S
H232 C208 0.982 . S
H233 C208 0.979 . S
H234 C208 0.977 . S
H235 C209 0.979 . S
H236 C209 0.980 . S
H237 C209 0.983 . S
H238 C182 0.947 . S
C239 C182 1.392 . S
C239 C183 1.419 . S
C239 H221 0.948 . S
C240 C241 1.391 . S
C240 C244 1.391 . S
C240 H282 0.948 . S
C241 C240 1.391 . S
C241 C242 1.391 . S
C242 C241 1.391 . S
C242 H298 0.915 1_455 S
C242 C299 1.392 . S
C243 C244 1.391 . S
C243 C247 1.397 . S
C243 C299 1.419 . S
C244 C240 1.391 . S
C244 C243 1.391 . S
C244 C245 1.399 . S
C245 C244 1.399 . S
C245 C248 1.396 . S
C245 C257 1.453 . S
C245 C258 1.684 . S
H246 C270 0.948 . S
C247 C243 1.397 . S
C247 C248 1.394 . S
C247 C266 1.723 . S
C248 C245 1.396 . S
C248 C247 1.394 . S
C248 C278 1.723 . S
H249 C272 0.947 . S
H250 C273 0.948 . S
H251 C279 0.982 . S
H252 C280 0.997 . S
H253 C280 0.980 . S
H254 C280 0.983 . S
H255 C279 0.979 . S
H256 C279 0.977 . S
C257 C245 1.453 . S
C257 H286 0.982 . S
C257 H287 0.979 . S
C257 H288 0.977 . S
C258 C245 1.684 . S
C258 H283 0.979 . S
C258 H284 0.980 . S
C258 H285 0.983 . S
C259 C260 1.391 . S
C259 C264 1.391 1_655 S
C259 H289 0.948 . S
C260 C259 1.391 . S
C260 C261 1.374 1_665 S
C261 C260 1.374 1_445 S
C261 C262 1.388 1_545 S
C261 H290 0.969 . S
C262 C261 1.388 1_565 S
C262 C263 1.419 . S
C262 H291 0.948 1_565 S
C263 C262 1.419 . S
C263 C264 1.391 . S
C263 C267 1.397 . S
C264 C259 1.391 1_455 S
C264 C263 1.391 . S
C264 C265 1.399 . S
C265 C264 1.399 . S
C265 C266 1.396 . S
C265 C268 1.453 1_455 S
C265 C269 1.684 1_455 S
C266 C247 1.723 . S
C266 C265 1.396 . S
C266 C267 1.394 . S
C267 C263 1.397 . S
C267 C266 1.394 . S
C267 C277 1.723 . S
C268 C265 1.453 1_655 S
C268 H292 0.982 . S
C268 H293 0.979 . S
C268 H294 0.977 . S
C269 C265 1.684 1_655 S
C269 H295 0.979 1_655 S
C269 H296 0.983 . S
C269 H297 0.983 . S
C270 H246 0.948 . S
C270 C271 1.391 . S
C270 C275 1.391 . S
C271 C270 1.391 . S
C271 C272 1.391 . S
C272 H249 0.947 . S
C272 C271 1.391 . S
C272 C273 1.392 1_545 S
C273 H250 0.948 . S
C273 C272 1.392 1_565 S
C273 C274 1.419 . S
C274 C273 1.419 . S
C274 C275 1.391 1_565 S
C274 C278 1.397 . S
C275 C270 1.391 . S
C275 C274 1.391 1_545 S
C275 C276 1.399 . S
C276 C275 1.399 . S
C276 C277 1.396 1_545 S
C276 C279 1.453 . S
C276 C280 1.684 . S
C277 C267 1.723 . S
C277 C276 1.396 1_565 S
C277 C278 1.394 . S
C278 C248 1.723 . S
C278 C274 1.397 . S
C278 C277 1.394 . S
C279 H251 0.982 . S
C279 H255 0.979 . S
C279 H256 0.977 . S
C279 C276 1.453 . S
C280 H252 0.997 . S
C280 H253 0.980 . S
C280 H254 0.983 . S
C280 C276 1.684 . S
H281 C299 0.948 . S
H282 C240 0.948 . S
H283 C258 0.979 . S
H284 C258 0.980 . S
H285 C258 0.983 . S
H286 C257 0.982 . S
H287 C257 0.979 . S
H288 C257 0.977 . S
H289 C259 0.948 . S
H290 C261 0.969 . S
H291 C262 0.948 1_545 S
H292 C268 0.982 . S
H293 C268 0.979 . S
H294 C268 0.977 . S
H295 C269 0.979 1_455 S
H296 C269 0.983 . S
H297 C269 0.983 . S
H298 C242 0.915 1_655 S
C299 C242 1.392 . S
C299 C243 1.419 . S
C299 H281 0.948 . S
C300 C301 1.391 . S
C300 C304 1.391 . S
C300 H342 0.948 . S
C301 C300 1.391 . S
C301 C302 1.391 . S
C302 C301 1.391 . S
C302 H358 0.947 . S
C302 C359 1.392 . S
C303 C304 1.391 . S
C303 C307 1.397 . S
C303 C359 1.419 . S
C304 C300 1.391 . S
C304 C303 1.391 . S
C304 C305 1.399 . S
C305 C304 1.399 . S
C305 C308 1.396 . S
C305 C317 1.453 . S
C305 C318 1.684 . S
H306 C330 0.948 . S
C307 C303 1.397 . S
C307 C308 1.394 . S
C307 C326 1.723 . S
C308 C305 1.396 . S
C308 C307 1.394 . S
C308 C338 1.723 . S
H309 C332 0.947 . S
H310 C333 0.948 . S
H311 C339 0.982 . S
H312 C340 0.979 . S
H313 C340 0.980 . S
H314 C340 0.983 . S
H315 C339 0.979 . S
H316 C339 0.977 . S
C317 C305 1.453 . S
C317 H346 0.982 . S
C317 H347 0.979 . S
C317 H348 0.977 . S
C318 C305 1.684 . S
C318 H343 0.979 . S
C318 H344 0.980 . S
C318 H345 0.983 . S
C319 C320 1.391 . S
C319 C324 1.391 . S
C319 H349 0.948 . S
C320 C319 1.391 . S
C320 C321 1.391 . S
C321 C320 1.391 . S
C321 C322 1.392 . S
C321 H350 0.947 . S
C322 C321 1.392 . S
C322 C323 1.419 . S
C322 H351 0.948 . S
C323 C322 1.419 . S
C323 C324 1.391 . S
C323 C327 1.397 . S
C324 C319 1.391 . S
C324 C323 1.391 . S
C324 C325 1.399 . S
C325 C324 1.399 . S
C325 C326 1.396 . S
C325 C328 1.453 . S
C325 C329 1.684 . S
C326 C307 1.723 . S
C326 C325 1.396 . S
C326 C327 1.394 . S
C327 C323 1.397 . S
C327 C326 1.394 . S
C327 C337 1.723 . S
C328 C325 1.453 . S
C328 H352 0.982 . S
C328 H353 0.979 . S
C328 H354 0.977 . S
C329 C325 1.684 . S
C329 H355 0.979 . S
C329 H356 0.980 . S
C329 H357 0.983 . S
C330 H306 0.948 . S
C330 C331 1.391 . S
C330 C335 1.391 . S
C331 C330 1.391 . S
C331 C332 1.391 . S
C332 H309 0.947 . S
C332 C331 1.391 . S
C332 C333 1.392 . S
C333 H310 0.948 . S
C333 C332 1.392 . S
C333 C334 1.419 . S
C334 C333 1.419 . S
C334 C335 1.391 . S
C334 C338 1.397 . S
C335 C330 1.391 . S
C335 C334 1.391 . S
C335 C336 1.399 . S
C336 C335 1.399 . S
C336 C337 1.396 . S
C336 C339 1.453 . S
C336 C340 1.684 . S
C337 C327 1.723 . S
C337 C336 1.396 . S
C337 C338 1.394 . S
C338 C308 1.723 . S
C338 C334 1.397 . S
C338 C337 1.394 . S
C339 H311 0.982 . S
C339 H315 0.979 . S
C339 H316 0.977 . S
C339 C336 1.453 . S
C340 H312 0.979 . S
C340 H313 0.980 . S
C340 H314 0.983 . S
C340 C336 1.684 . S
H341 C359 0.948 . S
H342 C300 0.948 . S
H343 C318 0.979 . S
H344 C318 0.980 . S
H345 C318 0.983 . S
H346 C317 0.982 . S
H347 C317 0.979 . S
H348 C317 0.977 . S
H349 C319 0.948 . S
H350 C321 0.947 . S
H351 C322 0.948 . S
H352 C328 0.982 . S
H353 C328 0.979 . S
H354 C328 0.977 . S
H355 C329 0.979 . S
H356 C329 0.980 . S
H357 C329 0.983 . S
H358 C302 0.947 . S
C359 C302 1.392 . S
C359 C303 1.419 . S
C359 H341 0.948 . S
C360 C361 1.391 . S
C360 C364 1.391 . S
C360 H402 0.948 . S
C361 C360 1.391 . S
C361 C362 1.391 . S
C362 C361 1.391 . S
C362 H418 0.947 . S
C362 C419 1.392 . S
C363 C364 1.391 . S
C363 C367 1.397 . S
C363 C419 1.419 . S
C364 C360 1.391 . S
C364 C363 1.391 . S
C364 C365 1.399 . S
C365 C364 1.399 . S
C365 C368 1.396 . S
C365 C377 1.453 . S
C365 C378 1.684 . S
H366 C390 0.963 . S
C367 C363 1.397 . S
C367 C368 1.394 . S
C367 C386 1.723 . S
C368 C365 1.396 . S
C368 C367 1.394 . S
C368 C398 1.723 . S
H369 C392 0.947 . S
H370 C393 0.948 . S
H371 C399 0.982 . S
H372 C400 0.979 . S
H373 C400 0.980 . S
H374 C400 0.983 . S
H375 C399 0.979 1_455 S
H376 C399 0.977 1_455 S
C377 C365 1.453 . S
C377 H406 0.982 . S
C377 H407 0.979 . S
C377 H408 0.977 . S
C378 C365 1.684 . S
C378 H403 0.979 . S
C378 H404 0.980 . S
C378 H405 0.983 . S
C379 C380 1.391 . S
C379 C384 1.391 1_455 S
C379 H409 0.948 1_455 S
C380 C379 1.391 . S
C380 C381 1.391 . S
C381 C380 1.391 . S
C381 C382 1.392 . S
C381 H410 0.947 . S
C382 C381 1.392 . S
C382 C383 1.419 1_455 S
C382 H411 0.948 . S
C383 C382 1.419 1_655 S
C383 C384 1.391 . S
C383 C387 1.397 . S
C384 C379 1.391 1_655 S
C384 C383 1.391 . S
C384 C385 1.399 . S
C385 C384 1.399 . S
C385 C386 1.396 . S
C385 C388 1.453 . S
C385 C389 1.684 . S
C386 C367 1.723 . S
C386 C385 1.396 . S
C386 C387 1.394 . S
C387 C383 1.397 . S
C387 C386 1.394 . S
C387 C397 1.723 . S
C388 C385 1.453 . S
C388 H412 0.982 . S
C388 H413 0.979 . S
C388 H414 0.977 . S
C389 C385 1.684 . S
C389 H415 0.979 . S
C389 H416 0.980 . S
C389 H417 0.983 . S
C390 H366 0.963 . S
C390 C391 1.391 . S
C390 C395 1.391 . S
C391 C390 1.391 . S
C391 C392 1.391 . S
C392 H369 0.947 . S
C392 C391 1.391 . S
C392 C393 1.392 . S
C393 H370 0.948 . S
C393 C392 1.392 . S
C393 C394 1.419 . S
C394 C393 1.419 . S
C394 C395 1.391 . S
C394 C398 1.397 . S
C395 C390 1.391 . S
C395 C394 1.391 . S
C395 C396 1.399 . S
C396 C395 1.399 . S
C396 C397 1.396 . S
C396 C399 1.453 . S
C396 C400 1.684 1_655 S
C397 C387 1.723 . S
C397 C396 1.396 . S
C397 C398 1.394 . S
C398 C368 1.723 . S
C398 C394 1.397 . S
C398 C397 1.394 . S
C399 H371 0.982 . S
C399 H375 0.979 1_655 S
C399 H376 0.977 1_655 S
C399 C396 1.453 . S
C400 H372 0.979 . S
C400 H373 0.980 . S
C400 H374 0.983 . S
C400 C396 1.684 1_455 S
H401 C419 0.948 . S
H402 C360 0.948 . S
H403 C378 0.979 . S
H404 C378 0.980 . S
H405 C378 0.983 . S
H406 C377 0.982 . S
H407 C377 0.979 . S
H408 C377 0.977 . S
H409 C379 0.948 1_655 S
H410 C381 0.947 . S
H411 C382 0.948 . S
H412 C388 0.982 . S
H413 C388 0.979 . S
H414 C388 0.977 . S
H415 C389 0.979 . S
H416 C389 0.980 . S
H417 C389 0.983 . S
H418 C362 0.947 . S
C419 C362 1.392 . S
C419 C363 1.419 . S
C419 H401 0.948 . S
C420 C421 1.391 . S
C420 C424 1.391 . S
C420 H462 0.948 . S
C421 C420 1.391 . S
C421 C422 1.391 . S
C422 C421 1.391 . S
C422 H478 0.947 . S
C422 C479 1.392 . S
C423 C424 1.391 . S
C423 C427 1.397 . S
C423 C479 1.419 . S
C424 C420 1.391 . S
C424 C423 1.391 . S
C424 C425 1.399 . S
C425 C424 1.399 . S
C425 C428 1.396 . S
C425 C437 1.453 . S
C425 C438 1.684 . S
H426 C450 0.948 . S
C427 C423 1.397 . S
C427 C428 1.394 . S
C427 C446 1.723 . S
C428 C425 1.396 . S
C428 C427 1.394 . S
C428 C458 1.723 . S
H429 C452 0.947 . S
H430 C453 0.948 . S
H431 C459 0.982 . S
H432 C460 0.979 . S
H433 C460 0.980 . S
H434 C460 0.983 . S
H435 C459 0.979 . S
H436 C459 0.977 . S
C437 C425 1.453 . S
C437 H466 0.982 . S
C437 H467 0.979 . S
C437 H468 0.977 . S
C438 C425 1.684 . S
C438 H463 0.979 . S
C438 H464 0.980 . S
C438 H465 0.983 . S
C439 C440 1.391 . S
C439 C444 1.391 . S
C439 H469 0.948 . S
C440 C439 1.391 . S
C440 C441 1.391 . S
C441 C440 1.391 . S
C441 C442 1.392 . S
C441 H470 0.947 . S
C442 C441 1.392 . S
C442 C443 1.419 . S
C442 H471 0.948 . S
C443 C442 1.419 . S
C443 C444 1.391 . S
C443 C447 1.397 . S
C444 C439 1.391 . S
C444 C443 1.391 . S
C444 C445 1.399 . S
C445 C444 1.399 . S
C445 C446 1.396 . S
C445 C448 1.453 . S
C445 C449 1.684 . S
C446 C427 1.723 . S
C446 C445 1.396 . S
C446 C447 1.394 . S
C447 C443 1.397 . S
C447 C446 1.394 . S
C447 C457 1.723 . S
C448 C445 1.453 . S
C448 H472 0.982 . S
C448 H473 0.979 . S
C448 H474 0.977 . S
C449 C445 1.684 . S
C449 H475 0.979 . S
C449 H476 0.980 . S
C449 H477 0.983 . S
C450 H426 0.948 . S
C450 C451 1.391 . S
C450 C455 1.391 . S
C451 C450 1.391 . S
C451 C452 1.391 . S
C452 H429 0.947 . S
C452 C451 1.391 . S
C452 C453 1.392 . S
C453 H430 0.948 . S
C453 C452 1.392 . S
C453 C454 1.419 . S
C454 C453 1.419 . S
C454 C455 1.391 . S
C454 C458 1.397 . S
C455 C450 1.391 . S
C455 C454 1.391 . S
C455 C456 1.399 . S
C456 C455 1.399 . S
C456 C457 1.396 . S
C456 C459 1.453 . S
C456 C460 1.684 . S
C457 C447 1.723 . S
C457 C456 1.396 . S
C457 C458 1.394 . S
C458 C428 1.723 . S
C458 C454 1.397 . S
C458 C457 1.394 . S
C459 H431 0.982 . S
C459 H435 0.979 . S
C459 H436 0.977 . S
C459 C456 1.453 . S
C460 H432 0.979 . S
C460 H433 0.980 . S
C460 H434 0.983 . S
C460 C456 1.684 . S
H461 C479 0.948 . S
H462 C420 0.948 . S
H463 C438 0.979 . S
H464 C438 0.980 . S
H465 C438 0.983 . S
H466 C437 0.982 . S
H467 C437 0.979 . S
H468 C437 0.977 . S
H469 C439 0.948 . S
H470 C441 0.947 . S
H471 C442 0.948 . S
H472 C448 0.982 . S
H473 C448 0.979 . S
H474 C448 0.977 . S
H475 C449 0.979 . S
H476 C449 0.980 . S
H477 C449 0.983 . S
H478 C422 0.947 . S
C479 C422 1.392 . S
C479 C423 1.419 . S
C479 H461 0.948 . S
C480 C481 1.391 . S
C480 C484 1.391 . S
C480 H522 0.948 . S
C481 C480 1.391 . S
C481 C482 1.391 . S
C482 C481 1.391 . S
C482 H538 0.947 . S
C482 C539 1.392 . S
C483 C484 1.391 . S
C483 C487 1.397 . S
C483 C539 1.419 . S
C484 C480 1.391 . S
C484 C483 1.391 . S
C484 C485 1.399 . S
C485 C484 1.399 . S
C485 C488 1.396 . S
C485 C497 1.453 . S
C485 C498 1.684 . S
H486 C510 0.948 . S
C487 C483 1.397 . S
C487 C488 1.394 . S
C487 C506 1.723 . S
C488 C485 1.396 . S
C488 C487 1.394 . S
C488 C518 1.723 . S
H489 C512 0.947 . S
H490 C513 0.948 . S
H491 C519 0.982 . S
H492 C520 0.979 . S
H493 C520 0.980 . S
H494 C520 0.983 . S
H495 C519 0.979 . S
H496 C519 0.977 . S
C497 C485 1.453 . S
C497 H526 0.982 . S
C497 H527 0.979 . S
C497 H528 0.977 . S
C498 C485 1.684 . S
C498 H523 0.979 . S
C498 H524 0.980 . S
C498 H525 0.983 . S
C499 C500 1.391 . S
C499 C504 1.391 . S
C499 H529 0.948 . S
C500 C499 1.391 . S
C500 C501 1.391 . S
C501 C500 1.391 . S
C501 C502 1.392 . S
C501 H530 0.947 . S
C502 C501 1.392 . S
C502 C503 1.419 . S
C502 H531 0.948 . S
C503 C502 1.419 . S
C503 C504 1.391 . S
C503 C507 1.397 . S
C504 C499 1.391 . S
C504 C503 1.391 . S
C504 C505 1.399 . S
C505 C504 1.399 . S
C505 C506 1.396 . S
C505 C508 1.453 . S
C505 C509 1.684 . S
C506 C487 1.723 . S
C506 C505 1.396 . S
C506 C507 1.394 . S
C507 C503 1.397 . S
C507 C506 1.394 . S
C507 C517 1.723 . S
C508 C505 1.453 . S
C508 H532 0.982 . S
C508 H533 0.979 . S
C508 H534 0.977 . S
C509 C505 1.684 . S
C509 H535 0.979 . S
C509 H536 0.980 . S
C509 H537 0.983 . S
C510 H486 0.948 . S
C510 C511 1.391 . S
C510 C515 1.391 . S
C511 C510 1.391 . S
C511 C512 1.391 . S
C512 H489 0.947 . S
C512 C511 1.391 . S
C512 C513 1.392 . S
C513 H490 0.948 . S
C513 C512 1.392 . S
C513 C514 1.419 . S
C514 C513 1.419 . S
C514 C515 1.391 . S
C514 C518 1.397 . S
C515 C510 1.391 . S
C515 C514 1.391 . S
C515 C516 1.399 . S
C516 C515 1.399 . S
C516 C517 1.396 . S
C516 C519 1.453 . S
C516 C520 1.684 . S
C517 C507 1.723 . S
C517 C516 1.396 . S
C517 C518 1.394 . S
C518 C488 1.723 . S
C518 C514 1.397 . S
C518 C517 1.394 . S
C519 H491 0.982 . S
C519 H495 0.979 . S
C519 H496 0.977 . S
C519 C516 1.453 . S
C520 H492 0.979 . S
C520 H493 0.980 . S
C520 H494 0.983 . S
C520 C516 1.684 . S
H521 C539 0.948 . S
H522 C480 0.948 . S
H523 C498 0.979 . S
H524 C498 0.980 . S
H525 C498 0.983 . S
H526 C497 0.982 . S
H527 C497 0.979 . S
H528 C497 0.977 . S
H529 C499 0.948 . S
H530 C501 0.947 . S
H531 C502 0.948 . S
H532 C508 0.982 . S
H533 C508 0.979 . S
H534 C508 0.977 . S
H535 C509 0.979 . S
H536 C509 0.980 . S
H537 C509 0.983 . S
H538 C482 0.947 . S
C539 C482 1.392 . S
C539 C483 1.419 . S
C539 H521 0.948 . S
C540 C541 1.391 . S
C540 C544 1.391 . S
C540 H582 0.948 . S
C541 C540 1.391 . S
C541 C542 1.391 . S
C542 C541 1.391 . S
C542 H598 0.947 . S
C542 C599 1.392 . S
C543 C544 1.391 . S
C543 C547 1.397 . S
C543 C599 1.419 . S
C544 C540 1.391 . S
C544 C543 1.391 . S
C544 C545 1.399 . S
C545 C544 1.399 . S
C545 C548 1.396 . S
C545 C557 1.453 . S
C545 C558 1.684 . S
H546 C570 0.948 1_545 S
C547 C543 1.397 . S
C547 C548 1.394 . S
C547 C566 1.723 . S
C548 C545 1.396 . S
C548 C547 1.394 . S
C548 C578 1.723 . S
H549 C572 0.947 . S
H550 C573 0.948 . S
H551 C579 0.982 . S
H552 C580 0.979 . S
H553 C580 0.980 . S
H554 C580 0.983 . S
H555 C579 0.979 1_545 S
H556 C579 0.977 1_545 S
C557 C545 1.453 . S
C557 H586 0.982 . S
C557 H587 0.979 . S
C557 H588 0.977 . S
C558 C545 1.684 . S
C558 H583 0.979 . S
C558 H584 0.980 . S
C558 H585 0.983 . S
C559 C560 1.391 . S
C559 C564 1.391 1_545 S
C559 H589 0.948 . S
C560 C559 1.391 . S
C560 C561 1.391 . S
C561 C560 1.391 . S
C561 C562 1.392 . S
C561 H590 0.947 . S
C562 C561 1.392 . S
C562 C563 1.419 1_545 S
C562 H591 0.948 . S
C563 C562 1.419 1_565 S
C563 C564 1.391 . S
C563 C567 1.397 . S
C564 C559 1.391 1_565 S
C564 C563 1.391 . S
C564 C565 1.399 . S
C565 C564 1.399 . S
C565 C566 1.396 . S
C565 C568 1.453 . S
C565 C569 1.684 . S
C566 C547 1.723 . S
C566 C565 1.396 . S
C566 C567 1.394 . S
C567 C563 1.397 . S
C567 C566 1.394 . S
C567 C577 1.723 . S
C568 C565 1.453 . S
C568 H592 0.982 . S
C568 H593 0.979 . S
C568 H594 0.977 . S
C569 C565 1.684 . S
C569 H595 0.979 . S
C569 H596 0.980 . S
C569 H597 0.983 . S
C570 H546 0.948 1_565 S
C570 C571 1.391 . S
C570 C575 1.391 . S
C571 C570 1.391 . S
C571 C572 1.391 . S
C572 H549 0.947 . S
C572 C571 1.391 . S
C572 C573 1.392 . S
C573 H550 0.948 . S
C573 C572 1.392 . S
C573 C574 1.419 . S
C574 C573 1.419 . S
C574 C575 1.391 . S
C574 C578 1.397 . S
C575 C570 1.391 . S
C575 C574 1.391 . S
C575 C576 1.399 . S
C576 C575 1.399 . S
C576 C577 1.396 . S
C576 C579 1.453 . S
C576 C580 1.684 1_565 S
C577 C567 1.723 . S
C577 C576 1.396 . S
C577 C578 1.394 . S
C578 C548 1.723 . S
C578 C574 1.397 . S
C578 C577 1.394 . S
C579 H551 0.982 . S
C579 H555 0.979 1_565 S
C579 H556 0.977 1_565 S
C579 C576 1.453 . S
C580 H552 0.979 . S
C580 H553 0.980 . S
C580 H554 0.983 . S
C580 C576 1.684 1_545 S
H581 C599 0.948 . S
H582 C540 0.948 . S
H583 C558 0.979 . S
H584 C558 0.980 . S
H585 C558 0.983 . S
H586 C557 0.982 . S
H587 C557 0.979 . S
H588 C557 0.977 . S
H589 C559 0.948 . S
H590 C561 0.947 . S
H591 C562 0.948 . S
H592 C568 0.982 . S
H593 C568 0.979 . S
H594 C568 0.977 . S
H595 C569 0.979 . S
H596 C569 0.980 . S
H597 C569 0.983 . S
H598 C542 0.947 . S
C599 C542 1.392 . S
C599 C543 1.419 . S
C599 H581 0.948 . S
C600 C601 1.391 . S
C600 C604 1.391 . S
C600 H642 0.948 . S
C601 C600 1.391 . S
C601 C602 1.391 . S
C602 C601 1.391 . S
C602 H658 0.947 . S
C602 C659 1.392 . S
C603 C604 1.391 . S
C603 C607 1.397 . S
C603 C659 1.419 . S
C604 C600 1.391 . S
C604 C603 1.391 . S
C604 C605 1.399 . S
C605 C604 1.399 . S
C605 C608 1.396 . S
C605 C617 1.453 . S
C605 C618 1.684 . S
H606 C630 0.948 . S
C607 C603 1.397 . S
C607 C608 1.394 . S
C607 C626 1.723 . S
C608 C605 1.396 . S
C608 C607 1.394 . S
C608 C638 1.723 . S
H609 C632 0.947 . S
H610 C633 0.948 . S
H611 C639 0.982 . S
H612 C640 0.979 . S
H613 C640 0.980 . S
H614 C640 0.983 . S
H615 C639 0.979 . S
H616 C639 0.977 . S
C617 C605 1.453 . S
C617 H646 0.982 . S
C617 H647 0.979 . S
C617 H648 0.977 . S
C618 C605 1.684 . S
C618 H643 0.979 . S
C618 H644 0.980 . S
C618 H645 0.983 . S
C619 C620 1.391 . S
C619 C624 1.391 . S
C619 H649 0.948 . S
C620 C619 1.391 . S
C620 C621 1.391 . S
C621 C620 1.391 . S
C621 C622 1.392 . S
C621 H650 0.947 . S
C622 C621 1.392 . S
C622 C623 1.419 . S
C622 H651 0.948 . S
C623 C622 1.419 . S
C623 C624 1.391 . S
C623 C627 1.397 . S
C624 C619 1.391 . S
C624 C623 1.391 . S
C624 C625 1.399 . S
C625 C624 1.399 . S
C625 C626 1.396 . S
C625 C628 1.453 . S
C625 C629 1.684 . S
C626 C607 1.723 . S
C626 C625 1.396 . S
C626 C627 1.394 . S
C627 C623 1.397 . S
C627 C626 1.394 . S
C627 C637 1.723 . S
C628 C625 1.453 . S
C628 H652 0.982 . S
C628 H653 0.979 . S
C628 H654 0.977 . S
C629 C625 1.684 . S
C629 H655 0.979 . S
C629 H656 0.980 . S
C629 H657 0.983 . S
C630 H606 0.948 . S
C630 C631 1.391 . S
C630 C635 1.391 . S
C631 C630 1.391 . S
C631 C632 1.391 . S
C632 H609 0.947 . S
C632 C631 1.391 . S
C632 C633 1.392 . S
C633 H610 0.948 . S
C633 C632 1.392 . S
C633 C634 1.419 . S
C634 C633 1.419 . S
C634 C635 1.391 . S
C634 C638 1.397 . S
C635 C630 1.391 . S
C635 C634 1.391 . S
C635 C636 1.399 . S
C636 C635 1.399 . S
C636 C637 1.396 . S
C636 C639 1.453 . S
C636 C640 1.684 . S
C637 C627 1.723 . S
C637 C636 1.396 . S
C637 C638 1.394 . S
C638 C608 1.723 . S
C638 C634 1.397 . S
C638 C637 1.394 . S
C639 H611 0.982 . S
C639 H615 0.979 . S
C639 H616 0.977 . S
C639 C636 1.453 . S
C640 H612 0.979 . S
C640 H613 0.980 . S
C640 H614 0.983 . S
C640 C636 1.684 . S
H641 C659 0.948 . S
H642 C600 0.948 . S
H643 C618 0.979 . S
H644 C618 0.980 . S
H645 C618 0.983 . S
H646 C617 0.982 . S
H647 C617 0.979 . S
H648 C617 0.977 . S
H649 C619 0.948 . S
H650 C621 0.947 . S
H651 C622 0.948 . S
H652 C628 0.982 . S
H653 C628 0.979 . S
H654 C628 0.977 . S
H655 C629 0.979 . S
H656 C629 0.980 . S
H657 C629 0.983 . S
H658 C602 0.947 . S
C659 C602 1.392 . S
C659 C603 1.419 . S
C659 H641 0.948 . S
C660 C661 1.391 . S
C660 C664 1.391 . S
C660 H702 0.948 . S
C661 C660 1.391 . S
C661 C662 1.391 . S
C662 C661 1.391 . S
C662 H718 0.947 . S
C662 C719 1.392 . S
C663 C664 1.391 . S
C663 C667 1.397 . S
C663 C719 1.419 . S
C664 C660 1.391 . S
C664 C663 1.391 . S
C664 C665 1.399 . S
C665 C664 1.399 . S
C665 C668 1.396 . S
C665 C677 1.453 . S
C665 C678 1.684 . S
H666 C690 0.948 . S
C667 C663 1.397 . S
C667 C668 1.394 . S
C667 C686 1.723 . S
C668 C665 1.396 . S
C668 C667 1.394 . S
C668 C698 1.723 . S
H669 C692 0.947 . S
H670 C693 0.948 . S
H671 C699 0.982 . S
H672 C700 0.979 . S
H673 C700 0.980 . S
H674 C700 0.983 . S
H675 C699 0.979 . S
H676 C699 0.977 . S
C677 C665 1.453 . S
C677 H706 0.982 . S
C677 H707 0.979 . S
C677 H708 0.977 . S
C678 C665 1.684 . S
C678 H703 0.979 . S
C678 H704 0.980 . S
C678 H705 0.983 . S
C679 C680 1.391 . S
C679 C684 1.391 . S
C679 H709 0.948 . S
C680 C679 1.391 . S
C680 C681 1.391 . S
C681 C680 1.391 . S
C681 C682 1.392 . S
C681 H710 0.947 . S
C682 C681 1.392 . S
C682 C683 1.419 . S
C682 H711 0.948 . S
C683 C682 1.419 . S
C683 C684 1.391 . S
C683 C687 1.397 . S
C684 C679 1.391 . S
C684 C683 1.391 . S
C684 C685 1.399 . S
C685 C684 1.399 . S
C685 C686 1.396 . S
C685 C688 1.453 . S
C685 C689 1.684 . S
C686 C667 1.723 . S
C686 C685 1.396 . S
C686 C687 1.394 . S
C687 C683 1.397 . S
C687 C686 1.394 . S
C687 C697 1.723 . S
C688 C685 1.453 . S
C688 H712 0.982 . S
C688 H713 0.979 . S
C688 H714 0.977 . S
C689 C685 1.684 . S
C689 H715 0.979 . S
C689 H716 0.980 . S
C689 H717 0.983 . S
C690 H666 0.948 . S
C690 C691 1.391 . S
C690 C695 1.391 . S
C691 C690 1.391 . S
C691 C692 1.391 . S
C692 H669 0.947 . S
C692 C691 1.391 . S
C692 C693 1.392 . S
C693 H670 0.948 . S
C693 C692 1.392 . S
C693 C694 1.419 . S
C694 C693 1.419 . S
C694 C695 1.391 . S
C694 C698 1.397 . S
C695 C690 1.391 . S
C695 C694 1.391 . S
C695 C696 1.399 . S
C696 C695 1.399 . S
C696 C697 1.396 . S
C696 C699 1.453 . S
C696 C700 1.684 . S
C697 C687 1.723 . S
C697 C696 1.396 . S
C697 C698 1.394 . S
C698 C668 1.723 . S
C698 C694 1.397 . S
C698 C697 1.394 . S
C699 H671 0.982 . S
C699 H675 0.979 . S
C699 H676 0.977 . S
C699 C696 1.453 . S
C700 H672 0.979 . S
C700 H673 0.980 . S
C700 H674 0.983 . S
C700 C696 1.684 . S
H701 C719 0.948 . S
H702 C660 0.948 . S
H703 C678 0.979 . S
H704 C678 0.980 . S
H705 C678 0.983 . S
H706 C677 0.982 . S
H707 C677 0.979 . S
H708 C677 0.977 . S
H709 C679 0.948 . S
H710 C681 0.947 . S
H711 C682 0.948 . S
H712 C688 0.982 . S
H713 C688 0.979 . S
H714 C688 0.977 . S
H715 C689 0.979 . S
H716 C689 0.980 . S
H717 C689 0.983 . S
H718 C662 0.947 . S
C719 C662 1.392 . S
C719 C663 1.419 . S
C719 H701 0.948 . S
C720 C721 1.391 . S
C720 C724 1.391 . S
C720 H762 0.948 . S
C721 C720 1.391 . S
C721 C722 1.391 . S
C722 C721 1.391 . S
C722 H778 0.947 . S
C722 C779 1.392 . S
C723 C724 1.391 . S
C723 C727 1.397 . S
C723 C779 1.419 . S
C724 C720 1.391 . S
C724 C723 1.391 . S
C724 C725 1.399 . S
C725 C724 1.399 . S
C725 C728 1.396 . S
C725 C737 1.453 . S
C725 C738 1.684 . S
H726 C750 0.948 . S
C727 C723 1.397 . S
C727 C728 1.394 . S
C727 C746 1.723 . S
C728 C725 1.396 . S
C728 C727 1.394 . S
C728 C758 1.723 . S
H729 C752 0.947 . S
H730 C753 0.948 . S
H731 C759 0.982 . S
H732 C760 0.979 . S
H733 C760 0.980 . S
H734 C760 0.983 . S
H735 C759 0.979 . S
H736 C759 0.977 . S
C737 C725 1.453 . S
C737 H766 0.982 . S
C737 H767 0.979 . S
C737 H768 0.977 . S
C738 C725 1.684 . S
C738 H763 0.979 . S
C738 H764 0.980 . S
C738 H765 0.983 . S
C739 C740 1.391 . S
C739 C744 1.391 . S
C739 H769 0.948 . S
C740 C739 1.391 . S
C740 C741 1.391 . S
C741 C740 1.391 . S
C741 C742 1.392 . S
C741 H770 0.947 . S
C742 C741 1.392 . S
C742 C743 1.419 . S
C742 H771 0.948 . S
C743 C742 1.419 . S
C743 C744 1.391 . S
C743 C747 1.397 . S
C744 C739 1.391 . S
C744 C743 1.391 . S
C744 C745 1.399 . S
C745 C744 1.399 . S
C745 C746 1.396 . S
C745 C748 1.453 . S
C745 C749 1.684 . S
C746 C727 1.723 . S
C746 C745 1.396 . S
C746 C747 1.394 . S
C747 C743 1.397 . S
C747 C746 1.394 . S
C747 C757 1.723 . S
C748 C745 1.453 . S
C748 H772 0.982 . S
C748 H773 0.979 . S
C748 H774 0.977 . S
C749 C745 1.684 . S
C749 H775 0.979 . S
C749 H776 0.980 . S
C749 H777 0.983 . S
C750 H726 0.948 . S
C750 C751 1.391 . S
C750 C755 1.391 . S
C751 C750 1.391 . S
C751 C752 1.391 . S
C752 H729 0.947 . S
C752 C751 1.391 . S
C752 C753 1.392 . S
C753 H730 0.948 . S
C753 C752 1.392 . S
C753 C754 1.419 . S
C754 C753 1.419 . S
C754 C755 1.391 . S
C754 C758 1.397 . S
C755 C750 1.391 . S
C755 C754 1.391 . S
C755 C756 1.399 . S
C756 C755 1.399 . S
C756 C757 1.396 . S
C756 C759 1.453 . S
C756 C760 1.684 . S
C757 C747 1.723 . S
C757 C756 1.396 . S
C757 C758 1.394 . S
C758 C728 1.723 . S
C758 C754 1.397 . S
C758 C757 1.394 . S
C759 H731 0.982 . S
C759 H735 0.979 . S
C759 H736 0.977 . S
C759 C756 1.453 . S
C760 H732 0.979 . S
C760 H733 0.980 . S
C760 H734 0.983 . S
C760 C756 1.684 . S
H761 C779 0.948 . S
H762 C720 0.948 . S
H763 C738 0.979 . S
H764 C738 0.980 . S
H765 C738 0.983 . S
H766 C737 0.982 . S
H767 C737 0.979 . S
H768 C737 0.977 . S
H769 C739 0.948 . S
H770 C741 0.947 . S
H771 C742 0.948 . S
H772 C748 0.982 . S
H773 C748 0.979 . S
H774 C748 0.977 . S
H775 C749 0.979 . S
H776 C749 0.980 . S
H777 C749 0.983 . S
H778 C722 0.947 . S
C779 C722 1.392 . S
C779 C723 1.419 . S
C779 H761 0.948 . S
C780 C781 1.391 . S
C780 C784 1.391 1_554 S
C780 H822 0.948 . S
C781 C780 1.391 . S
C781 C782 1.391 1_554 S
C782 C781 1.391 1_556 S
C782 H838 0.947 . S
C782 C839 1.392 . S
C783 C784 1.391 . S
C783 C787 1.397 . S
C783 C839 1.419 . S
C784 C780 1.391 1_556 S
C784 C783 1.391 . S
C784 C785 1.399 . S
C785 C784 1.399 . S
C785 C788 1.396 . S
C785 C797 1.453 1_556 S
C785 C798 1.684 . S
H786 C810 0.948 . S
C787 C783 1.397 . S
C787 C788 1.394 . S
C787 C806 1.723 . S
C788 C785 1.396 . S
C788 C787 1.394 . S
C788 C818 1.723 . S
H789 C812 0.947 . S
H790 C813 0.948 . S
H791 C819 0.982 . S
H792 C820 0.979 . S
H793 C820 0.980 . S
H794 C820 0.983 . S
H795 C819 0.979 . S
H796 C819 0.977 . S
C797 C785 1.453 1_554 S
C797 H826 0.982 . S
C797 H827 0.979 . S
C797 H828 0.977 . S
C798 C785 1.684 . S
C798 H823 0.979 . S
C798 H824 0.980 . S
C798 H825 0.983 1_556 S
C799 C800 1.391 . S
C799 C804 1.391 . S
C799 H829 0.948 . S
C800 C799 1.391 . S
C800 C801 1.391 . S
C801 C800 1.391 . S
C801 C802 1.392 . S
C801 H830 0.947 . S
C802 C801 1.392 . S
C802 C803 1.419 . S
C802 H831 0.948 . S
C803 C802 1.419 . S
C803 C804 1.391 . S
C803 C807 1.397 . S
C804 C799 1.391 . S
C804 C803 1.391 . S
C804 C805 1.399 . S
C805 C804 1.399 . S
C805 C806 1.396 . S
C805 C808 1.453 . S
C805 C809 1.684 . S
C806 C787 1.723 . S
C806 C805 1.396 . S
C806 C807 1.394 . S
C807 C803 1.397 . S
C807 C806 1.394 . S
C807 C817 1.723 . S
C808 C805 1.453 . S
C808 H832 0.982 . S
C808 H833 0.979 . S
C808 H834 0.977 . S
C809 C805 1.684 . S
C809 H835 0.979 . S
C809 H836 0.980 . S
C809 H837 0.983 . S
C810 H786 0.948 . S
C810 C811 1.391 . S
C810 C815 1.391 . S
C811 C810 1.391 . S
C811 C812 1.391 . S
C812 H789 0.947 . S
C812 C811 1.391 . S
C812 C813 1.392 . S
C813 H790 0.948 . S
C813 C812 1.392 . S
C813 C814 1.419 . S
C814 C813 1.419 . S
C814 C815 1.391 . S
C814 C818 1.397 . S
C815 C810 1.391 . S
C815 C814 1.391 . S
C815 C816 1.399 . S
C816 C815 1.399 . S
C816 C817 1.396 . S
C816 C819 1.453 . S
C816 C820 1.684 . S
C817 C807 1.723 . S
C817 C816 1.396 . S
C817 C818 1.394 . S
C818 C788 1.723 . S
C818 C814 1.397 . S
C818 C817 1.394 . S
C819 H791 0.982 . S
C819 H795 0.979 . S
C819 H796 0.977 . S
C819 C816 1.453 . S
C820 H792 0.979 . S
C820 H793 0.980 . S
C820 H794 0.983 . S
C820 C816 1.684 . S
H821 C839 0.948 . S
H822 C780 0.948 . S
H823 C798 0.979 . S
H824 C798 0.980 . S
H825 C798 0.983 1_554 S
H826 C797 0.982 . S
H827 C797 0.979 . S
H828 C797 0.977 . S
H829 C799 0.948 . S
H830 C801 0.947 . S
H831 C802 0.948 . S
H832 C808 0.982 . S
H833 C808 0.979 . S
H834 C808 0.977 . S
H835 C809 0.979 . S
H836 C809 0.980 . S
H837 C809 0.983 . S
H838 C782 0.947 . S
C839 C782 1.392 . S
C839 C783 1.419 . S
C839 H821 0.948 . S
C840 C841 1.391 . S
C840 C844 1.391 . S
C840 H882 0.948 . S
C841 C840 1.391 . S
C841 C842 1.391 . S
C842 C841 1.391 . S
C842 H898 0.947 . S
C842 C899 1.392 . S
C843 C844 1.391 . S
C843 C847 1.397 . S
C843 C899 1.419 . S
C844 C840 1.391 . S
C844 C843 1.391 . S
C844 C845 1.399 . S
C845 C844 1.399 . S
C845 C848 1.396 . S
C845 C857 1.453 . S
C845 C858 1.684 . S
H846 C870 0.948 . S
C847 C843 1.397 . S
C847 C848 1.394 . S
C847 C866 1.723 . S
C848 C845 1.396 . S
C848 C847 1.394 . S
C848 C878 1.723 . S
H849 C872 0.947 . S
H850 C873 0.948 . S
H851 C879 0.982 . S
H852 C880 0.979 . S
H853 C880 0.980 . S
H854 C880 0.983 . S
H855 C879 0.979 . S
H856 C879 0.977 . S
C857 C845 1.453 . S
C857 H886 0.982 . S
C857 H887 0.979 . S
C857 H888 0.977 . S
C858 C845 1.684 . S
C858 H883 0.979 . S
C858 H884 0.980 . S
C858 H885 0.983 . S
C859 C860 1.391 . S
C859 C864 1.391 . S
C859 H889 0.948 . S
C860 C859 1.391 . S
C860 C861 1.391 . S
C861 C860 1.391 . S
C861 C862 1.392 . S
C861 H890 0.947 . S
C862 C861 1.392 . S
C862 C863 1.419 . S
C862 H891 0.948 . S
C863 C862 1.419 . S
C863 C864 1.391 . S
C863 C867 1.397 . S
C864 C859 1.391 . S
C864 C863 1.391 . S
C864 C865 1.399 . S
C865 C864 1.399 . S
C865 C866 1.396 . S
C865 C868 1.453 . S
C865 C869 1.684 . S
C866 C847 1.723 . S
C866 C865 1.396 . S
C866 C867 1.394 . S
C867 C863 1.397 . S
C867 C866 1.394 . S
C867 C877 1.723 . S
C868 C865 1.453 . S
C868 H892 0.982 . S
C868 H893 0.979 . S
C868 H894 0.977 . S
C869 C865 1.684 . S
C869 H895 0.979 . S
C869 H896 0.980 . S
C869 H897 0.983 . S
C870 H846 0.948 . S
C870 C871 1.391 . S
C870 C875 1.391 . S
C871 C870 1.391 . S
C871 C872 1.391 . S
C872 H849 0.947 . S
C872 C871 1.391 . S
C872 C873 1.392 . S
C873 H850 0.948 . S
C873 C872 1.392 . S
C873 C874 1.419 . S
C874 C873 1.419 . S
C874 C875 1.391 . S
C874 C878 1.397 . S
C875 C870 1.391 . S
C875 C874 1.391 . S
C875 C876 1.399 . S
C876 C875 1.399 . S
C876 C877 1.396 . S
C876 C879 1.453 . S
C876 C880 1.684 . S
C877 C867 1.723 . S
C877 C876 1.396 . S
C877 C878 1.394 . S
C878 C848 1.723 . S
C878 C874 1.397 . S
C878 C877 1.394 . S
C879 H851 0.982 . S
C879 H855 0.979 . S
C879 H856 0.977 . S
C879 C876 1.453 . S
C880 H852 0.979 . S
C880 H853 0.980 . S
C880 H854 0.983 . S
C880 C876 1.684 . S
H881 C899 0.948 . S
H882 C840 0.948 . S
H883 C858 0.979 . S
H884 C858 0.980 . S
H885 C858 0.983 . S
H886 C857 0.982 . S
H887 C857 0.979 . S
H888 C857 0.977 . S
H889 C859 0.948 . S
H890 C861 0.947 . S
H891 C862 0.948 . S
H892 C868 0.982 . S
H893 C868 0.979 . S
H894 C868 0.977 . S
H895 C869 0.979 . S
H896 C869 0.980 . S
H897 C869 0.983 . S
H898 C842 0.947 . S
C899 C842 1.392 . S
C899 C843 1.419 . S
C899 H881 0.948 . S
C900 C901 1.391 1_545 S
C900 C904 1.391 . S
C900 H942 0.948 1_556 S
C901 C900 1.391 1_565 S
C901 C902 1.391 . S
C902 C901 1.391 . S
C902 H958 0.947 . S
C902 C959 1.392 . S
C903 C904 1.391 . S
C903 C907 1.397 . S
C903 C959 1.419 1_545 S
C904 C900 1.391 . S
C904 C903 1.391 . S
C904 C905 1.399 . S
C905 C904 1.399 . S
C905 C908 1.396 . S
C905 C917 1.453 . S
C905 C918 1.684 1_556 S
H906 C930 0.961 . S
C907 C903 1.397 . S
C907 C908 1.394 . S
C907 C926 1.723 . S
C908 C905 1.396 . S
C908 C907 1.394 . S
C908 C938 1.723 . S
H909 C932 0.947 . S
H910 C933 0.948 . S
H911 C939 0.982 . S
H912 C940 0.979 . S
H913 C940 0.980 . S
H914 C940 0.983 . S
H915 C939 0.979 . S
H916 C939 0.977 . S
C917 C905 1.453 . S
C917 H946 0.982 . S
C917 H947 0.979 1_556 S
C917 H948 0.977 1_556 S
C918 C905 1.684 1_554 S
C918 H943 0.979 . S
C918 H944 0.980 . S
C918 H945 0.983 . S
C919 C920 1.391 . S
C919 C924 1.391 . S
C919 H949 0.948 . S
C920 C919 1.391 . S
C920 C921 1.391 . S
C921 C920 1.391 . S
C921 C922 1.392 . S
C921 H950 0.947 . S
C922 C921 1.392 . S
C922 C923 1.419 . S
C922 H951 0.948 . S
C923 C922 1.419 . S
C923 C924 1.391 . S
C923 C927 1.397 . S
C924 C919 1.391 . S
C924 C923 1.391 . S
C924 C925 1.399 . S
C925 C924 1.399 . S
C925 C926 1.396 . S
C925 C928 1.453 . S
C925 C929 1.684 1_545 S
C926 C907 1.723 . S
C926 C925 1.396 . S
C926 C927 1.394 . S
C927 C923 1.397 . S
C927 C926 1.394 . S
C927 C937 1.723 . S
C928 C925 1.453 . S
C928 H952 0.982 . S
C928 H953 0.979 . S
C928 H954 0.977 . S
C929 C925 1.684 1_565 S
C929 H955 0.979 . S
C929 H956 0.980 . S
C929 H957 0.983 . S
C930 H906 0.961 . S
C930 C931 1.391 . S
C930 C935 1.391 1_554 S
C931 C930 1.391 . S
C931 C932 1.391 . S
C932 H909 0.947 . S
C932 C931 1.391 . S
C932 C933 1.392 . S
C933 H910 0.948 . S
C933 C932 1.392 . S
C933 C934 1.419 1_554 S
C934 C933 1.419 1_556 S
C934 C935 1.391 . S
C934 C938 1.397 . S
C935 C930 1.391 1_556 S
C935 C934 1.391 . S
C935 C936 1.399 . S
C936 C935 1.399 . S
C936 C937 1.396 . S
C936 C939 1.453 . S
C936 C940 1.684 . S
C937 C927 1.723 . S
C937 C936 1.396 . S
C937 C938 1.394 . S
C938 C908 1.723 . S
C938 C934 1.397 . S
C938 C937 1.394 . S
C939 H911 0.982 . S
C939 H915 0.979 . S
C939 H916 0.977 . S
C939 C936 1.453 . S
C940 H912 0.979 . S
C940 H913 0.980 . S
C940 H914 0.983 . S
C940 C936 1.684 . S
H941 C959 0.948 . S
H942 C900 0.948 1_554 S
H943 C918 0.979 . S
H944 C918 0.980 . S
H945 C918 0.983 . S
H946 C917 0.982 . S
H947 C917 0.979 1_554 S
H948 C917 0.977 1_554 S
H949 C919 0.948 . S
H950 C921 0.947 . S
H951 C922 0.948 . S
H952 C928 0.982 . S
H953 C928 0.979 . S
H954 C928 0.977 . S
H955 C929 0.979 . S
H956 C929 0.980 . S
H957 C929 0.983 . S
H958 C902 0.947 . S
C959 C902 1.392 . S
C959 C903 1.419 1_565 S
C959 H941 0.948 . S
C960 O961 1.160 1_554 S
C960 O967 1.185 . S
O961 C960 1.160 1_556 S
O962 Zn963 1.899 1_556 S
O962 C970 1.284 . S
Zn963 O962 1.899 1_554 S
Zn963 O964 2.032 . S
Zn963 O967 2.086 . S
Zn963 O972 1.977 . S
O964 Zn963 2.032 . S
O964 C968 1.278 . S
C965 O966 1.203 . S
C965 O972 1.267 . S
O966 C965 1.203 . S
O967 C960 1.185 . S
O967 Zn963 2.086 . S
C968 O964 1.278 . S
C968 O969 1.211 . S
O969 C968 1.211 . S
C970 O962 1.284 . S
C970 O971 1.273 . S
O971 C970 1.273 . S
O972 Zn963 1.977 . S
O972 C965 1.267 . S
C973 O974 1.160 . S
C973 O980 1.185 . S
O974 C973 1.160 . S
O975 Zn976 1.899 . S
O975 C983 1.284 . S
Zn976 O975 1.899 . S
Zn976 O977 2.032 . S
Zn976 O980 2.086 . S
Zn976 O985 1.977 . S
O977 Zn976 2.032 . S
O977 C981 1.278 . S
C978 O979 1.203 . S
C978 O985 1.267 . S
O979 C978 1.203 . S
O980 C973 1.185 . S
O980 Zn976 2.086 . S
C981 O977 1.278 . S
C981 O982 1.211 . S
O982 C981 1.211 . S
C983 O975 1.284 . S
C983 O984 1.273 . S
O984 C983 1.273 . S
O985 Zn976 1.977 . S
O985 C978 1.267 . S
C986 O987 1.160 1_554 S
C986 O993 1.185 . S
O987 C986 1.160 1_556 S
O988 Zn989 1.899 1_556 S
O988 C996 1.284 . S
Zn989 O988 1.899 1_554 S
Zn989 O990 2.032 1_554 S
Zn989 O993 2.086 . S
Zn989 O998 1.977 . S
O990 Zn989 2.032 1_556 S
O990 C994 1.278 . S
C991 O992 1.203 . S
C991 O998 1.267 . S
O992 C991 1.203 . S
O993 C986 1.185 . S
O993 Zn989 2.086 . S
C994 O990 1.278 . S
C994 O995 1.211 1_556 S
O995 C994 1.211 1_554 S
C996 O988 1.284 . S
C996 O997 1.273 . S
O997 C996 1.273 . S
O998 Zn989 1.977 . S
O998 C991 1.267 . S
C999 O1000 1.160 . S
C999 O1006 1.185 . S
O1000 C999 1.160 . S
O1001 Zn1002 1.899 . S
O1001 C1009 1.284 . S
Zn1002 O1001 1.899 . S
Zn1002 O1003 2.001 1_545 S
Zn1002 O1006 2.086 . S
Zn1002 O1011 1.977 . S
O1003 Zn1002 2.001 1_565 S
O1003 C1007 1.319 . S
C1004 O1005 1.203 . S
C1004 O1011 1.267 . S
O1005 C1004 1.203 . S
O1006 C999 1.185 . S
O1006 Zn1002 2.086 . S
C1007 O1003 1.319 . S
C1007 O1008 1.211 . S
O1008 C1007 1.211 . S
C1009 O1001 1.284 . S
C1009 O1010 1.273 1_545 S
O1010 C1009 1.273 1_565 S
O1011 Zn1002 1.977 . S
O1011 C1004 1.267 . S
C1012 O1013 1.160 . S
C1012 O1019 1.185 . S
O1013 C1012 1.160 . S
O1014 Zn1015 1.899 . S
O1014 C1022 1.284 . S
Zn1015 O1014 1.899 . S
Zn1015 O1016 2.032 . S
Zn1015 O1019 2.086 . S
Zn1015 O1024 1.977 . S
O1016 Zn1015 2.032 . S
O1016 C1020 1.278 . S
C1017 O1018 1.203 . S
C1017 O1024 1.267 . S
O1018 C1017 1.203 . S
O1019 C1012 1.185 . S
O1019 Zn1015 2.086 . S
C1020 O1016 1.278 . S
C1020 O1021 1.211 . S
O1021 C1020 1.211 . S
C1022 O1014 1.284 . S
C1022 O1023 1.273 . S
O1023 C1022 1.273 . S
O1024 Zn1015 1.977 . S
O1024 C1017 1.267 . S
C1025 O1026 1.160 . S
C1025 O1032 1.185 . S
O1026 C1025 1.160 . S
O1027 Zn1028 1.899 . S
O1027 C1035 1.284 . S
Zn1028 O1027 1.899 . S
Zn1028 O1029 2.032 . S
Zn1028 O1032 2.086 . S
Zn1028 O1037 1.977 . S
O1029 Zn1028 2.032 . S
O1029 C1033 1.278 . S
C1030 O1031 1.203 . S
C1030 O1037 1.267 . S
O1031 C1030 1.203 . S
O1032 C1025 1.185 . S
O1032 Zn1028 2.086 . S
C1033 O1029 1.278 . S
C1033 O1034 1.211 . S
O1034 C1033 1.211 . S
C1035 O1027 1.284 . S
C1035 O1036 1.273 . S
O1036 C1035 1.273 . S
O1037 Zn1028 1.977 . S
O1037 C1030 1.267 . S
C1038 O1039 1.160 . S
C1038 O1045 1.185 . S
O1039 C1038 1.160 . S
O1040 Zn1041 1.899 . S
O1040 C1048 1.284 . S
Zn1041 O1040 1.899 . S
Zn1041 O1042 2.032 . S
Zn1041 O1045 2.086 . S
Zn1041 O1050 1.977 . S
O1042 Zn1041 2.032 . S
O1042 C1046 1.278 . S
C1043 O1044 1.203 . S
C1043 O1050 1.267 . S
O1044 C1043 1.203 . S
O1045 C1038 1.185 . S
O1045 Zn1041 2.086 . S
C1046 O1042 1.278 . S
C1046 O1047 1.211 . S
O1047 C1046 1.211 . S
C1048 O1040 1.284 . S
C1048 O1049 1.273 . S
O1049 C1048 1.273 . S
O1050 Zn1041 1.977 . S
O1050 C1043 1.267 . S
C1051 O1052 1.160 . S
C1051 O1058 1.185 . S
O1052 C1051 1.160 . S
O1053 Zn1054 1.899 . S
O1053 C1061 1.284 1_565 S
Zn1054 O1053 1.899 . S
Zn1054 O1055 2.032 1_565 S
Zn1054 O1058 2.086 . S
Zn1054 O1063 1.977 . S
O1055 Zn1054 2.032 1_545 S
O1055 C1059 1.278 . S
C1056 O1057 1.203 1_565 S
C1056 O1063 1.267 . S
O1057 C1056 1.203 1_545 S
O1058 C1051 1.185 . S
O1058 Zn1054 2.086 . S
C1059 O1055 1.278 . S
C1059 O1060 1.211 . S
O1060 C1059 1.211 . S
C1061 O1053 1.284 1_545 S
C1061 O1062 1.273 . S
O1062 C1061 1.273 . S
O1063 Zn1054 1.977 . S
O1063 C1056 1.267 . S
C1064 O1065 1.160 1_455 S
C1064 O1071 1.185 . S
O1065 C1064 1.160 1_655 S
O1066 Zn1067 1.899 1_655 S
O1066 C1074 1.284 . S
Zn1067 O1066 1.899 1_455 S
Zn1067 O1068 2.032 1_455 S
Zn1067 O1071 2.086 . S
Zn1067 O1076 1.977 . S
O1068 Zn1067 2.032 1_655 S
O1068 C1072 1.276 1_655 S
C1069 O1070 1.203 . S
C1069 O1076 1.267 . S
O1070 C1069 1.203 . S
O1071 C1064 1.185 . S
O1071 Zn1067 2.086 . S
C1072 O1068 1.276 1_455 S
C1072 O1073 1.219 . S
O1073 C1072 1.219 . S
C1074 O1066 1.284 . S
C1074 O1075 1.273 . S
O1075 C1074 1.273 . S
O1076 Zn1067 1.977 . S
O1076 C1069 1.267 . S
C1077 O1078 1.160 . S
C1077 O1084 1.185 . S
O1078 C1077 1.160 . S
O1079 Zn1080 1.899 . S
O1079 C1087 1.284 . S
Zn1080 O1079 1.899 . S
Zn1080 O1081 2.032 . S
Zn1080 O1084 2.086 . S
Zn1080 O1089 1.977 . S
O1081 Zn1080 2.032 . S
O1081 C1085 1.278 . S
C1082 O1083 1.203 . S
C1082 O1089 1.267 . S
O1083 C1082 1.203 . S
O1084 C1077 1.185 . S
O1084 Zn1080 2.086 . S
C1085 O1081 1.278 . S
C1085 O1086 1.211 . S
O1086 C1085 1.211 . S
C1087 O1079 1.284 . S
C1087 O1088 1.273 . S
O1088 C1087 1.273 . S
O1089 Zn1080 1.977 . S
O1089 C1082 1.267 . S
C1090 O1091 1.160 1_455 S
C1090 O1097 1.185 . S
O1091 C1090 1.160 1_655 S
O1092 Zn1093 1.899 1_655 S
O1092 C1100 1.284 . S
Zn1093 O1092 1.899 1_455 S
Zn1093 O1094 2.032 1_455 S
Zn1093 O1097 2.086 . S
Zn1093 O1102 1.977 . S
O1094 Zn1093 2.032 1_655 S
O1094 C1098 1.279 . S
C1095 O1096 1.203 . S
C1095 O1102 1.267 . S
O1096 C1095 1.203 . S
O1097 C1090 1.185 . S
O1097 Zn1093 2.086 . S
C1098 O1094 1.279 . S
C1098 O1099 1.208 1_655 S
O1099 C1098 1.208 1_455 S
C1100 O1092 1.284 . S
C1100 O1101 1.273 . S
O1101 C1100 1.273 . S
O1102 Zn1093 1.977 . S
O1102 C1095 1.267 . S
C1103 O1104 1.160 . S
C1103 O1110 1.185 . S
O1104 C1103 1.160 . S
O1105 Zn1106 1.899 . S
O1105 C1113 1.284 . S
Zn1106 O1105 1.899 . S
Zn1106 O1107 2.032 . S
Zn1106 O1110 2.086 . S
Zn1106 O1115 1.977 . S
O1107 Zn1106 2.032 . S
O1107 C1111 1.278 . S
C1108 O1109 1.203 . S
C1108 O1115 1.267 . S
O1109 C1108 1.203 . S
O1110 C1103 1.185 . S
O1110 Zn1106 2.086 . S
C1111 O1107 1.278 . S
C1111 O1112 1.211 . S
O1112 C1111 1.211 . S
C1113 O1105 1.284 . S
C1113 O1114 1.273 . S
O1114 C1113 1.273 . S
O1115 Zn1106 1.977 . S
O1115 C1108 1.267 . S
C1116 C1117 1.391 . S
C1116 C1118 1.394 . S
C1116 H1132 0.931 . S
C1117 C1116 1.391 . S
C1117 C1121 1.376 . S
C1118 C1116 1.394 . S
C1118 C1119 1.369 . S
C1118 C1122 1.531 . S
C1119 C1118 1.369 . S
C1119 C1120 1.410 . S
C1119 C1127 1.503 . S
C1120 C1119 1.410 . S
C1120 C1121 1.392 . S
C1120 C1123 1.511 . S
C1121 C1117 1.376 . S
C1121 C1120 1.392 . S
C1121 H1133 0.929 . S
C1122 C1118 1.531 . S
C1122 H1134 0.960 . S
C1122 H1135 0.962 . S
C1122 H1136 0.960 . S
C1123 C1120 1.511 . S
C1123 H1137 0.961 . S
C1123 H1138 0.961 . S
C1123 H1139 0.961 . S
C1124 C1125 1.370 . S
C1124 C1126 1.363 . S
C1124 H1140 0.931 . S
C1125 C1124 1.370 . S
C1125 C1129 1.408 . S
C1126 C1124 1.363 . S
C1126 C1127 1.370 . S
C1126 C1130 1.524 . S
C1127 C1119 1.503 . S
C1127 C1126 1.370 . S
C1127 C1128 1.403 . S
C1128 C1127 1.403 . S
C1128 C1129 1.404 . S
C1128 C1131 1.539 . S
C1129 C1125 1.408 . S
C1129 C1128 1.404 . S
C1129 H1141 0.930 . S
C1130 C1126 1.524 . S
C1130 H1142 0.956 . S
C1130 H1143 0.961 . S
C1130 H1144 0.961 . S
C1131 C1128 1.539 . S
C1131 H1145 0.958 . S
C1131 H1146 0.961 . S
C1131 H1147 0.960 . S
H1132 C1116 0.931 . S
H1133 C1121 0.929 . S
H1134 C1122 0.960 . S
H1135 C1122 0.962 . S
H1136 C1122 0.960 . S
H1137 C1123 0.961 . S
H1138 C1123 0.961 . S
H1139 C1123 0.961 . S
H1140 C1124 0.931 . S
H1141 C1129 0.930 . S
H1142 C1130 0.956 . S
H1143 C1130 0.961 . S
H1144 C1130 0.961 . S
H1145 C1131 0.958 . S
H1146 C1131 0.961 . S
H1147 C1131 0.960 . S
C1148 C1149 1.391 . S
C1148 C1150 1.394 . S
C1148 H1164 0.931 . S
C1149 C1148 1.391 . S
C1149 C1153 1.376 . S
C1150 C1148 1.394 . S
C1150 C1151 1.369 . S
C1150 C1154 1.531 . S
C1151 C1150 1.369 . S
C1151 C1152 1.410 . S
C1151 C1159 1.503 . S
C1152 C1151 1.410 . S
C1152 C1153 1.392 . S
C1152 C1155 1.511 . S
C1153 C1149 1.376 . S
C1153 C1152 1.392 . S
C1153 H1165 0.929 . S
C1154 C1150 1.531 . S
C1154 H1166 0.960 . S
C1154 H1167 0.962 . S
C1154 H1168 0.960 . S
C1155 C1152 1.511 . S
C1155 H1169 0.961 . S
C1155 H1170 0.961 . S
C1155 H1171 0.961 . S
C1156 C1157 1.370 . S
C1156 C1158 1.363 . S
C1156 H1172 0.931 . S
C1157 C1156 1.370 . S
C1157 C1161 1.408 . S
C1158 C1156 1.363 . S
C1158 C1159 1.370 . S
C1158 C1162 1.524 . S
C1159 C1151 1.503 . S
C1159 C1158 1.370 . S
C1159 C1160 1.403 . S
C1160 C1159 1.403 . S
C1160 C1161 1.404 . S
C1160 C1163 1.539 . S
C1161 C1157 1.408 . S
C1161 C1160 1.404 . S
C1161 H1173 0.930 . S
C1162 C1158 1.524 . S
C1162 H1174 0.956 . S
C1162 H1175 0.961 . S
C1162 H1176 0.961 . S
C1163 C1160 1.539 . S
C1163 H1177 0.958 . S
C1163 H1178 0.961 . S
C1163 H1179 0.960 . S
H1164 C1148 0.931 . S
H1165 C1153 0.929 . S
H1166 C1154 0.960 . S
H1167 C1154 0.962 . S
H1168 C1154 0.960 . S
H1169 C1155 0.961 . S
H1170 C1155 0.961 . S
H1171 C1155 0.961 . S
H1172 C1156 0.931 . S
H1173 C1161 0.930 . S
H1174 C1162 0.956 . S
H1175 C1162 0.961 . S
H1176 C1162 0.961 . S
H1177 C1163 0.958 . S
H1178 C1163 0.961 . S
H1179 C1163 0.960 . S
C1180 C1181 1.391 . S
C1180 C1182 1.394 . S
C1180 H1196 0.931 . S
C1181 C1180 1.391 . S
C1181 C1185 1.376 . S
C1182 C1180 1.394 . S
C1182 C1183 1.369 . S
C1182 C1186 1.531 . S
C1183 C1182 1.369 . S
C1183 C1184 1.410 . S
C1183 C1191 1.503 . S
C1184 C1183 1.410 . S
C1184 C1185 1.392 . S
C1184 C1187 1.511 . S
C1185 C1181 1.376 . S
C1185 C1184 1.392 . S
C1185 H1197 0.929 . S
C1186 C1182 1.531 . S
C1186 H1198 0.960 . S
C1186 H1199 0.962 . S
C1186 H1200 0.960 . S
C1187 C1184 1.511 . S
C1187 H1201 0.961 . S
C1187 H1202 0.961 . S
C1187 H1203 0.961 . S
C1188 C1189 1.370 . S
C1188 C1190 1.363 . S
C1188 H1204 0.931 . S
C1189 C1188 1.370 . S
C1189 C1193 1.408 . S
C1190 C1188 1.363 . S
C1190 C1191 1.370 . S
C1190 C1194 1.524 . S
C1191 C1183 1.503 . S
C1191 C1190 1.370 . S
C1191 C1192 1.403 . S
C1192 C1191 1.403 . S
C1192 C1193 1.404 . S
C1192 C1195 1.539 . S
C1193 C1189 1.408 . S
C1193 C1192 1.404 . S
C1193 H1205 0.930 . S
C1194 C1190 1.524 . S
C1194 H1206 0.956 . S
C1194 H1207 0.961 . S
C1194 H1208 0.961 . S
C1195 C1192 1.539 . S
C1195 H1209 0.958 . S
C1195 H1210 0.961 . S
C1195 H1211 0.960 . S
H1196 C1180 0.931 . S
H1197 C1185 0.929 . S
H1198 C1186 0.960 . S
H1199 C1186 0.962 . S
H1200 C1186 0.960 . S
H1201 C1187 0.961 . S
H1202 C1187 0.961 . S
H1203 C1187 0.961 . S
H1204 C1188 0.931 . S
H1205 C1193 0.930 . S
H1206 C1194 0.956 . S
H1207 C1194 0.961 . S
H1208 C1194 0.961 . S
H1209 C1195 0.958 . S
H1210 C1195 0.961 . S
H1211 C1195 0.960 . S
C1212 C1213 1.391 . S
C1212 C1214 1.394 . S
C1212 H1228 0.931 . S
C1213 C1212 1.391 . S
C1213 C1217 1.376 . S
C1214 C1212 1.394 . S
C1214 C1215 1.369 . S
C1214 C1218 1.531 . S
C1215 C1214 1.369 . S
C1215 C1216 1.410 . S
C1215 C1223 1.503 . S
C1216 C1215 1.410 . S
C1216 C1217 1.392 . S
C1216 C1219 1.511 . S
C1217 C1213 1.376 . S
C1217 C1216 1.392 . S
C1217 H1229 0.929 . S
C1218 C1214 1.531 . S
C1218 H1230 0.960 . S
C1218 H1231 0.962 1_565 S
C1218 H1232 0.960 . S
C1219 C1216 1.511 . S
C1219 H1233 0.961 . S
C1219 H1234 0.961 . S
C1219 H1235 0.961 . S
C1220 C1221 1.370 . S
C1220 C1222 1.363 . S
C1220 H1236 0.931 . S
C1221 C1220 1.370 . S
C1221 C1225 1.408 1_545 S
C1222 C1220 1.363 . S
C1222 C1223 1.370 1_545 S
C1222 C1226 1.524 . S
C1223 C1215 1.503 . S
C1223 C1222 1.370 1_565 S
C1223 C1224 1.403 . S
C1224 C1223 1.403 . S
C1224 C1225 1.404 . S
C1224 C1227 1.539 . S
C1225 C1221 1.408 1_565 S
C1225 C1224 1.404 . S
C1225 H1237 0.930 . S
C1226 C1222 1.524 . S
C1226 H1238 0.956 . S
C1226 H1239 0.961 . S
C1226 H1240 0.961 . S
C1227 C1224 1.539 . S
C1227 H1241 0.958 . S
C1227 H1242 0.961 . S
C1227 H1243 0.960 . S
H1228 C1212 0.931 . S
H1229 C1217 0.929 . S
H1230 C1218 0.960 . S
H1231 C1218 0.962 1_545 S
H1232 C1218 0.960 . S
H1233 C1219 0.961 . S
H1234 C1219 0.961 . S
H1235 C1219 0.961 . S
H1236 C1220 0.931 . S
H1237 C1225 0.930 . S
H1238 C1226 0.956 . S
H1239 C1226 0.961 . S
H1240 C1226 0.961 . S
H1241 C1227 0.958 . S
H1242 C1227 0.961 . S
H1243 C1227 0.960 . S
C1244 C1245 1.391 . S
C1244 C1246 1.394 . S
C1244 H1260 0.931 . S
C1245 C1244 1.391 . S
C1245 C1249 1.376 . S
C1246 C1244 1.394 . S
C1246 C1247 1.369 . S
C1246 C1250 1.531 . S
C1247 C1246 1.369 . S
C1247 C1248 1.410 . S
C1247 C1255 1.503 . S
C1248 C1247 1.410 . S
C1248 C1249 1.392 . S
C1248 C1251 1.511 . S
C1249 C1245 1.376 . S
C1249 C1248 1.392 . S
C1249 H1261 0.929 . S
C1250 C1246 1.531 . S
C1250 H1262 0.960 . S
C1250 H1263 0.962 . S
C1250 H1264 0.960 . S
C1251 C1248 1.511 . S
C1251 H1265 0.961 . S
C1251 H1266 0.961 . S
C1251 H1267 0.961 . S
C1252 C1253 1.370 . S
C1252 C1254 1.363 . S
C1252 H1268 0.931 . S
C1253 C1252 1.370 . S
C1253 C1257 1.408 . S
C1254 C1252 1.363 . S
C1254 C1255 1.370 . S
C1254 C1258 1.524 . S
C1255 C1247 1.503 . S
C1255 C1254 1.370 . S
C1255 C1256 1.403 . S
C1256 C1255 1.403 . S
C1256 C1257 1.404 . S
C1256 C1259 1.539 . S
C1257 C1253 1.408 . S
C1257 C1256 1.404 . S
C1257 H1269 0.930 . S
C1258 C1254 1.524 . S
C1258 H1270 0.956 . S
C1258 H1271 0.961 . S
C1258 H1272 0.961 . S
C1259 C1256 1.539 . S
C1259 H1273 0.958 . S
C1259 H1274 0.961 . S
C1259 H1275 0.960 . S
H1260 C1244 0.931 . S
H1261 C1249 0.929 . S
H1262 C1250 0.960 . S
H1263 C1250 0.962 . S
H1264 C1250 0.960 . S
H1265 C1251 0.961 . S
H1266 C1251 0.961 . S
H1267 C1251 0.961 . S
H1268 C1252 0.931 . S
H1269 C1257 0.930 . S
H1270 C1258 0.956 . S
H1271 C1258 0.961 . S
H1272 C1258 0.961 . S
H1273 C1259 0.958 . S
H1274 C1259 0.961 . S
H1275 C1259 0.960 . S
C1276 C1277 1.391 . S
C1276 C1278 1.394 . S
C1276 H1292 0.931 . S
C1277 C1276 1.391 . S
C1277 C1281 1.376 . S
C1278 C1276 1.394 . S
C1278 C1279 1.369 . S
C1278 C1282 1.531 . S
C1279 C1278 1.369 . S
C1279 C1280 1.410 . S
C1279 C1287 1.503 . S
C1280 C1279 1.410 . S
C1280 C1281 1.392 . S
C1280 C1283 1.511 . S
C1281 C1277 1.376 . S
C1281 C1280 1.392 . S
C1281 H1293 0.929 . S
C1282 C1278 1.531 . S
C1282 H1294 0.960 . S
C1282 H1295 0.962 . S
C1282 H1296 0.960 . S
C1283 C1280 1.511 . S
C1283 H1297 0.961 . S
C1283 H1298 0.961 . S
C1283 H1299 0.961 . S
C1284 C1285 1.370 . S
C1284 C1286 1.363 . S
C1284 H1300 0.931 . S
C1285 C1284 1.370 . S
C1285 C1289 1.408 . S
C1286 C1284 1.363 . S
C1286 C1287 1.370 . S
C1286 C1290 1.524 . S
C1287 C1279 1.503 . S
C1287 C1286 1.370 . S
C1287 C1288 1.403 . S
C1288 C1287 1.403 . S
C1288 C1289 1.404 . S
C1288 C1291 1.539 . S
C1289 C1285 1.408 . S
C1289 C1288 1.404 . S
C1289 H1301 0.930 . S
C1290 C1286 1.524 . S
C1290 H1302 0.956 . S
C1290 H1303 0.961 . S
C1290 H1304 0.961 . S
C1291 C1288 1.539 . S
C1291 H1305 0.958 . S
C1291 H1306 0.961 . S
C1291 H1307 0.960 . S
H1292 C1276 0.931 . S
H1293 C1281 0.929 . S
H1294 C1282 0.960 . S
H1295 C1282 0.962 . S
H1296 C1282 0.960 . S
H1297 C1283 0.961 . S
H1298 C1283 0.961 . S
H1299 C1283 0.961 . S
H1300 C1284 0.931 . S
H1301 C1289 0.930 . S
H1302 C1290 0.956 . S
H1303 C1290 0.961 . S
H1304 C1290 0.961 . S
H1305 C1291 0.958 . S
H1306 C1291 0.961 . S
H1307 C1291 0.960 . S
C1308 C1309 1.391 . S
C1308 C1310 1.394 . S
C1308 H1324 0.931 . S
C1309 C1308 1.391 . S
C1309 C1313 1.376 . S
C1310 C1308 1.394 . S
C1310 C1311 1.369 . S
C1310 C1314 1.531 . S
C1311 C1310 1.369 . S
C1311 C1312 1.410 . S
C1311 C1319 1.503 . S
C1312 C1311 1.410 . S
C1312 C1313 1.392 . S
C1312 C1315 1.511 . S
C1313 C1309 1.376 . S
C1313 C1312 1.392 . S
C1313 H1325 0.929 . S
C1314 C1310 1.531 . S
C1314 H1326 0.960 . S
C1314 H1327 0.962 . S
C1314 H1328 0.960 . S
C1315 C1312 1.511 . S
C1315 H1329 0.961 . S
C1315 H1330 0.961 . S
C1315 H1331 0.961 . S
C1316 C1317 1.370 . S
C1316 C1318 1.363 . S
C1316 H1332 0.931 . S
C1317 C1316 1.370 . S
C1317 C1321 1.408 . S
C1318 C1316 1.363 . S
C1318 C1319 1.370 . S
C1318 C1322 1.524 . S
C1319 C1311 1.503 . S
C1319 C1318 1.370 . S
C1319 C1320 1.403 . S
C1320 C1319 1.403 . S
C1320 C1321 1.404 . S
C1320 C1323 1.539 . S
C1321 C1317 1.408 . S
C1321 C1320 1.404 . S
C1321 H1333 0.930 . S
C1322 C1318 1.524 . S
C1322 H1334 0.956 . S
C1322 H1335 0.961 . S
C1322 H1336 0.961 . S
C1323 C1320 1.539 . S
C1323 H1337 0.958 . S
C1323 H1338 0.961 . S
C1323 H1339 0.960 . S
H1324 C1308 0.931 . S
H1325 C1313 0.929 . S
H1326 C1314 0.960 . S
H1327 C1314 0.962 . S
H1328 C1314 0.960 . S
H1329 C1315 0.961 . S
H1330 C1315 0.961 . S
H1331 C1315 0.961 . S
H1332 C1316 0.931 . S
H1333 C1321 0.930 . S
H1334 C1322 0.956 . S
H1335 C1322 0.961 . S
H1336 C1322 0.961 . S
H1337 C1323 0.958 . S
H1338 C1323 0.961 . S
H1339 C1323 0.960 . S
C1340 C1341 1.391 . S
C1340 C1342 1.394 . S
C1340 H1356 0.931 . S
C1341 C1340 1.391 . S
C1341 C1345 1.376 . S
C1342 C1340 1.394 . S
C1342 C1343 1.369 . S
C1342 C1346 1.531 . S
C1343 C1342 1.369 . S
C1343 C1344 1.410 . S
C1343 C1351 1.503 . S
C1344 C1343 1.410 . S
C1344 C1345 1.392 . S
C1344 C1347 1.511 1_565 S
C1345 C1341 1.376 . S
C1345 C1344 1.392 . S
C1345 H1357 0.929 1_565 S
C1346 C1342 1.531 . S
C1346 H1358 0.960 . S
C1346 H1359 0.962 . S
C1346 H1360 0.960 . S
C1347 C1344 1.511 1_545 S
C1347 H1361 0.961 . S
C1347 H1362 0.961 . S
C1347 H1363 0.961 . S
C1348 C1349 1.370 1_545 S
C1348 C1350 1.363 . S
C1348 H1364 0.931 . S
C1349 C1348 1.370 1_565 S
C1349 C1353 1.408 . S
C1350 C1348 1.363 . S
C1350 C1351 1.370 1_545 S
C1350 C1354 1.524 . S
C1351 C1343 1.503 . S
C1351 C1350 1.370 1_565 S
C1351 C1352 1.403 . S
C1352 C1351 1.403 . S
C1352 C1353 1.404 . S
C1352 C1355 1.539 . S
C1353 C1349 1.408 . S
C1353 C1352 1.404 . S
C1353 H1365 0.930 . S
C1354 C1350 1.524 . S
C1354 H1366 0.956 . S
C1354 H1367 0.961 . S
C1354 H1368 0.961 . S
C1355 C1352 1.539 . S
C1355 H1369 0.958 . S
C1355 H1370 0.961 . S
C1355 H1371 0.960 . S
H1356 C1340 0.931 . S
H1357 C1345 0.929 1_545 S
H1358 C1346 0.960 . S
H1359 C1346 0.962 . S
H1360 C1346 0.960 . S
H1361 C1347 0.961 . S
H1362 C1347 0.961 . S
H1363 C1347 0.961 . S
H1364 C1348 0.931 . S
H1365 C1353 0.930 . S
H1366 C1354 0.956 . S
H1367 C1354 0.961 . S
H1368 C1354 0.961 . S
H1369 C1355 0.958 . S
H1370 C1355 0.961 . S
H1371 C1355 0.960 . S
C1372 C1373 1.391 . S
C1372 C1374 1.394 . S
C1372 H1388 0.931 . S
C1373 C1372 1.391 . S
C1373 C1377 1.376 . S
C1374 C1372 1.394 . S
C1374 C1375 1.369 . S
C1374 C1378 1.531 . S
C1375 C1374 1.369 . S
C1375 C1376 1.410 . S
C1375 C1383 1.503 . S
C1376 C1375 1.410 . S
C1376 C1377 1.392 . S
C1376 C1379 1.511 . S
C1377 C1373 1.376 . S
C1377 C1376 1.392 . S
C1377 H1389 0.929 . S
C1378 C1374 1.531 . S
C1378 H1390 0.960 . S
C1378 H1391 0.962 . S
C1378 H1392 0.960 . S
C1379 C1376 1.511 . S
C1379 H1393 0.961 . S
C1379 H1394 0.961 . S
C1379 H1395 0.961 . S
C1380 C1381 1.370 . S
C1380 C1382 1.363 . S
C1380 H1396 0.931 . S
C1381 C1380 1.370 . S
C1381 C1385 1.408 . S
C1382 C1380 1.363 . S
C1382 C1383 1.370 . S
C1382 C1386 1.524 . S
C1383 C1375 1.503 . S
C1383 C1382 1.370 . S
C1383 C1384 1.403 . S
C1384 C1383 1.403 . S
C1384 C1385 1.404 . S
C1384 C1387 1.539 . S
C1385 C1381 1.408 . S
C1385 C1384 1.404 . S
C1385 H1397 0.930 . S
C1386 C1382 1.524 . S
C1386 H1398 0.956 . S
C1386 H1399 0.961 . S
C1386 H1400 0.961 . S
C1387 C1384 1.539 . S
C1387 H1401 0.958 . S
C1387 H1402 0.961 . S
C1387 H1403 0.960 . S
H1388 C1372 0.931 . S
H1389 C1377 0.929 . S
H1390 C1378 0.960 . S
H1391 C1378 0.962 . S
H1392 C1378 0.960 . S
H1393 C1379 0.961 . S
H1394 C1379 0.961 . S
H1395 C1379 0.961 . S
H1396 C1380 0.931 . S
H1397 C1385 0.930 . S
H1398 C1386 0.956 . S
H1399 C1386 0.961 . S
H1400 C1386 0.961 . S
H1401 C1387 0.958 . S
H1402 C1387 0.961 . S
H1403 C1387 0.960 . S
C1404 C1405 1.391 . S
C1404 C1406 1.394 . S
C1404 H1420 0.931 . S
C1405 C1404 1.391 . S
C1405 C1409 1.376 . S
C1406 C1404 1.394 . S
C1406 C1407 1.369 . S
C1406 C1410 1.531 . S
C1407 C1406 1.369 . S
C1407 C1408 1.410 . S
C1407 C1415 1.503 . S
C1408 C1407 1.410 . S
C1408 C1409 1.392 . S
C1408 C1411 1.511 . S
C1409 C1405 1.376 . S
C1409 C1408 1.392 . S
C1409 H1421 0.929 . S
C1410 C1406 1.531 . S
C1410 H1422 0.960 . S
C1410 H1423 0.962 . S
C1410 H1424 0.960 . S
C1411 C1408 1.511 . S
C1411 H1425 0.961 . S
C1411 H1426 0.961 . S
C1411 H1427 0.961 . S
C1412 C1413 1.370 . S
C1412 C1414 1.363 . S
C1412 H1428 0.931 . S
C1413 C1412 1.370 . S
C1413 C1417 1.408 . S
C1414 C1412 1.363 . S
C1414 C1415 1.370 . S
C1414 C1418 1.524 . S
C1415 C1407 1.503 . S
C1415 C1414 1.370 . S
C1415 C1416 1.403 . S
C1416 C1415 1.403 . S
C1416 C1417 1.404 . S
C1416 C1419 1.539 . S
C1417 C1413 1.408 . S
C1417 C1416 1.404 . S
C1417 H1429 0.930 . S
C1418 C1414 1.524 . S
C1418 H1430 0.956 . S
C1418 H1431 0.961 . S
C1418 H1432 0.961 . S
C1419 C1416 1.539 . S
C1419 H1433 0.958 . S
C1419 H1434 0.961 . S
C1419 H1435 0.960 . S
H1420 C1404 0.931 . S
H1421 C1409 0.929 . S
H1422 C1410 0.960 . S
H1423 C1410 0.962 . S
H1424 C1410 0.960 . S
H1425 C1411 0.961 . S
H1426 C1411 0.961 . S
H1427 C1411 0.961 . S
H1428 C1412 0.931 . S
H1429 C1417 0.930 . S
H1430 C1418 0.956 . S
H1431 C1418 0.961 . S
H1432 C1418 0.961 . S
H1433 C1419 0.958 . S
H1434 C1419 0.961 . S
H1435 C1419 0.960 . S
C1436 C1437 1.391 . S
C1436 C1438 1.394 . S
C1436 H1452 0.931 . S
C1437 C1436 1.391 . S
C1437 C1441 1.376 . S
C1438 C1436 1.394 . S
C1438 C1439 1.369 . S
C1438 C1442 1.531 . S
C1439 C1438 1.369 . S
C1439 C1440 1.410 . S
C1439 C1447 1.503 . S
C1440 C1439 1.410 . S
C1440 C1441 1.392 . S
C1440 C1443 1.511 . S
C1441 C1437 1.376 . S
C1441 C1440 1.392 . S
C1441 H1453 0.929 . S
C1442 C1438 1.531 . S
C1442 H1454 0.960 . S
C1442 H1455 0.962 . S
C1442 H1456 0.960 . S
C1443 C1440 1.511 . S
C1443 H1457 0.961 . S
C1443 H1458 0.961 . S
C1443 H1459 0.961 . S
C1444 C1445 1.370 . S
C1444 C1446 1.363 . S
C1444 H1460 0.931 . S
C1445 C1444 1.370 . S
C1445 C1449 1.408 . S
C1446 C1444 1.363 . S
C1446 C1447 1.370 . S
C1446 C1450 1.524 . S
C1447 C1439 1.503 . S
C1447 C1446 1.370 . S
C1447 C1448 1.403 . S
C1448 C1447 1.403 . S
C1448 C1449 1.404 . S
C1448 C1451 1.539 . S
C1449 C1445 1.408 . S
C1449 C1448 1.404 . S
C1449 H1461 0.930 . S
C1450 C1446 1.524 . S
C1450 H1462 0.956 . S
C1450 H1463 0.961 . S
C1450 H1464 0.961 . S
C1451 C1448 1.539 . S
C1451 H1465 0.958 . S
C1451 H1466 0.961 . S
C1451 H1467 0.960 . S
H1452 C1436 0.931 . S
H1453 C1441 0.929 . S
H1454 C1442 0.960 . S
H1455 C1442 0.962 . S
H1456 C1442 0.960 . S
H1457 C1443 0.961 . S
H1458 C1443 0.961 . S
H1459 C1443 0.961 . S
H1460 C1444 0.931 . S
H1461 C1449 0.930 . S
H1462 C1450 0.956 . S
H1463 C1450 0.961 . S
H1464 C1450 0.961 . S
H1465 C1451 0.958 . S
H1466 C1451 0.961 . S
H1467 C1451 0.960 . S
C1468 C1469 1.391 . S
C1468 C1470 1.394 . S
C1468 H1484 0.931 . S
C1469 C1468 1.391 . S
C1469 C1473 1.376 . S
C1470 C1468 1.394 . S
C1470 C1471 1.369 . S
C1470 C1474 1.531 . S
C1471 C1470 1.369 . S
C1471 C1472 1.410 . S
C1471 C1479 1.503 . S
C1472 C1471 1.410 . S
C1472 C1473 1.392 . S
C1472 C1475 1.511 . S
C1473 C1469 1.376 . S
C1473 C1472 1.392 . S
C1473 H1485 0.929 . S
C1474 C1470 1.531 . S
C1474 H1486 0.960 . S
C1474 H1487 0.962 . S
C1474 H1488 0.960 . S
C1475 C1472 1.511 . S
C1475 H1489 0.961 . S
C1475 H1490 0.961 . S
C1475 H1491 0.961 . S
C1476 C1477 1.370 . S
C1476 C1478 1.363 . S
C1476 H1492 0.931 . S
C1477 C1476 1.370 . S
C1477 C1481 1.408 . S
C1478 C1476 1.363 . S
C1478 C1479 1.370 . S
C1478 C1482 1.524 . S
C1479 C1471 1.503 . S
C1479 C1478 1.370 . S
C1479 C1480 1.403 . S
C1480 C1479 1.403 . S
C1480 C1481 1.404 . S
C1480 C1483 1.539 . S
C1481 C1477 1.408 . S
C1481 C1480 1.404 . S
C1481 H1493 0.930 . S
C1482 C1478 1.524 . S
C1482 H1494 0.956 . S
C1482 H1495 0.961 . S
C1482 H1496 0.961 . S
C1483 C1480 1.539 . S
C1483 H1497 0.958 . S
C1483 H1498 0.961 . S
C1483 H1499 0.960 . S
H1484 C1468 0.931 . S
H1485 C1473 0.929 . S
H1486 C1474 0.960 . S
H1487 C1474 0.962 . S
H1488 C1474 0.960 . S
H1489 C1475 0.961 . S
H1490 C1475 0.961 . S
H1491 C1475 0.961 . S
H1492 C1476 0.931 . S
H1493 C1481 0.930 . S
H1494 C1482 0.956 . S
H1495 C1482 0.961 . S
H1496 C1482 0.961 . S
H1497 C1483 0.958 . S
H1498 C1483 0.961 . S
H1499 C1483 0.960 . S
C1500 C1501 1.391 . S
C1500 C1502 1.394 . S
C1500 H1516 0.931 . S
C1501 C1500 1.391 . S
C1501 C1505 1.376 . S
C1502 C1500 1.394 . S
C1502 C1503 1.369 . S
C1502 C1506 1.531 . S
C1503 C1502 1.369 . S
C1503 C1504 1.410 . S
C1503 C1511 1.503 . S
C1504 C1503 1.410 . S
C1504 C1505 1.392 . S
C1504 C1507 1.511 . S
C1505 C1501 1.376 . S
C1505 C1504 1.392 . S
C1505 H1517 0.929 . S
C1506 C1502 1.531 . S
C1506 H1518 0.960 . S
C1506 H1519 0.962 . S
C1506 H1520 0.960 . S
C1507 C1504 1.511 . S
C1507 H1521 0.961 . S
C1507 H1522 0.961 . S
C1507 H1523 0.961 . S
C1508 C1509 1.370 . S
C1508 C1510 1.363 . S
C1508 H1524 0.931 . S
C1509 C1508 1.370 . S
C1509 C1513 1.408 . S
C1510 C1508 1.363 . S
C1510 C1511 1.370 . S
C1510 C1514 1.524 . S
C1511 C1503 1.503 . S
C1511 C1510 1.370 . S
C1511 C1512 1.403 . S
C1512 C1511 1.403 . S
C1512 C1513 1.404 . S
C1512 C1515 1.539 . S
C1513 C1509 1.408 . S
C1513 C1512 1.404 . S
C1513 H1525 0.930 . S
C1514 C1510 1.524 . S
C1514 H1526 0.956 . S
C1514 H1527 0.961 . S
C1514 H1528 0.961 . S
C1515 C1512 1.539 . S
C1515 H1529 0.958 . S
C1515 H1530 0.961 . S
C1515 H1531 0.960 . S
H1516 C1500 0.931 . S
H1517 C1505 0.929 . S
H1518 C1506 0.960 . S
H1519 C1506 0.962 . S
H1520 C1506 0.960 . S
H1521 C1507 0.961 . S
H1522 C1507 0.961 . S
H1523 C1507 0.961 . S
H1524 C1508 0.931 . S
H1525 C1513 0.930 . S
H1526 C1514 0.956 . S
H1527 C1514 0.961 . S
H1528 C1514 0.961 . S
H1529 C1515 0.958 . S
H1530 C1515 0.961 . S
H1531 C1515 0.960 . S
C1532 C1533 1.391 . S
C1532 C1534 1.394 . S
C1532 H1548 0.931 . S
C1533 C1532 1.391 . S
C1533 C1537 1.376 . S
C1534 C1532 1.394 . S
C1534 C1535 1.369 . S
C1534 C1538 1.531 . S
C1535 C1534 1.369 . S
C1535 C1536 1.410 . S
C1535 C1543 1.503 . S
C1536 C1535 1.410 . S
C1536 C1537 1.392 . S
C1536 C1539 1.511 . S
C1537 C1533 1.376 . S
C1537 C1536 1.392 . S
C1537 H1549 0.929 . S
C1538 C1534 1.531 . S
C1538 H1550 0.960 . S
C1538 H1551 0.962 . S
C1538 H1552 0.960 . S
C1539 C1536 1.511 . S
C1539 H1553 0.996 . S
C1539 H1554 0.961 . S
C1539 H1555 0.961 . S
C1540 C1541 1.370 1_655 S
C1540 C1542 1.358 1_655 S
C1540 H1556 0.931 . S
C1541 C1540 1.370 1_455 S
C1541 C1545 1.408 . S
C1542 C1540 1.358 1_455 S
C1542 C1543 1.409 . S
C1542 C1546 1.492 1_455 S
C1543 C1535 1.503 . S
C1543 C1542 1.409 . S
C1543 C1544 1.403 . S
C1544 C1543 1.403 . S
C1544 C1545 1.404 . S
C1544 C1547 1.539 . S
C1545 C1541 1.408 . S
C1545 C1544 1.404 . S
C1545 H1557 0.930 . S
C1546 C1542 1.492 1_655 S
C1546 H1558 0.956 . S
C1546 H1559 0.961 . S
C1546 H1560 0.961 . S
C1547 C1544 1.539 . S
C1547 H1561 0.958 . S
C1547 H1562 0.961 . S
C1547 H1563 0.960 . S
H1548 C1532 0.931 . S
H1549 C1537 0.929 . S
H1550 C1538 0.960 . S
H1551 C1538 0.962 . S
H1552 C1538 0.960 . S
H1553 C1539 0.996 . S
H1554 C1539 0.961 . S
H1555 C1539 0.961 . S
H1556 C1540 0.931 . S
H1557 C1545 0.930 . S
H1558 C1546 0.956 . S
H1559 C1546 0.961 . S
H1560 C1546 0.961 . S
H1561 C1547 0.958 . S
H1562 C1547 0.961 . S
H1563 C1547 0.960 . S
C1564 C1565 1.391 . S
C1564 C1566 1.394 . S
C1564 H1580 0.931 . S
C1565 C1564 1.391 . S
C1565 C1569 1.376 . S
C1566 C1564 1.394 . S
C1566 C1567 1.369 . S
C1566 C1570 1.531 . S
C1567 C1566 1.369 . S
C1567 C1568 1.410 . S
C1567 C1575 1.503 . S
C1568 C1567 1.410 . S
C1568 C1569 1.392 . S
C1568 C1571 1.511 . S
C1569 C1565 1.376 . S
C1569 C1568 1.392 . S
C1569 H1581 0.929 . S
C1570 C1566 1.531 . S
C1570 H1582 0.960 . S
C1570 H1583 0.962 . S
C1570 H1584 0.960 . S
C1571 C1568 1.511 . S
C1571 H1585 0.961 . S
C1571 H1586 0.961 . S
C1571 H1587 0.961 . S
C1572 C1573 1.370 . S
C1572 C1574 1.363 . S
C1572 H1588 0.931 . S
C1573 C1572 1.370 . S
C1573 C1577 1.408 . S
C1574 C1572 1.363 . S
C1574 C1575 1.370 . S
C1574 C1578 1.524 . S
C1575 C1567 1.503 . S
C1575 C1574 1.370 . S
C1575 C1576 1.403 . S
C1576 C1575 1.403 . S
C1576 C1577 1.404 . S
C1576 C1579 1.539 . S
C1577 C1573 1.408 . S
C1577 C1576 1.404 . S
C1577 H1589 0.930 . S
C1578 C1574 1.524 . S
C1578 H1590 0.956 . S
C1578 H1591 0.961 . S
C1578 H1592 0.961 . S
C1579 C1576 1.539 . S
C1579 H1593 0.958 . S
C1579 H1594 0.961 . S
C1579 H1595 0.960 . S
H1580 C1564 0.931 . S
H1581 C1569 0.929 . S
H1582 C1570 0.960 . S
H1583 C1570 0.962 . S
H1584 C1570 0.960 . S
H1585 C1571 0.961 . S
H1586 C1571 0.961 . S
H1587 C1571 0.961 . S
H1588 C1572 0.931 . S
H1589 C1577 0.930 . S
H1590 C1578 0.956 . S
H1591 C1578 0.961 . S
H1592 C1578 0.961 . S
H1593 C1579 0.958 . S
H1594 C1579 0.961 . S
H1595 C1579 0.960 . S
C1596 C1597 1.391 . S
C1596 C1598 1.394 . S
C1596 H1612 0.931 . S
C1597 C1596 1.391 . S
C1597 C1601 1.376 . S
C1598 C1596 1.394 . S
C1598 C1599 1.369 . S
C1598 C1602 1.531 . S
C1599 C1598 1.369 . S
C1599 C1600 1.410 1_655 S
C1599 C1607 1.503 . S
C1600 C1599 1.410 1_455 S
C1600 C1601 1.392 1_455 S
C1600 C1603 1.511 . S
C1601 C1597 1.376 . S
C1601 C1600 1.392 1_655 S
C1601 H1613 0.929 1_655 S
C1602 C1598 1.531 . S
C1602 H1614 0.960 . S
C1602 H1615 0.962 . S
C1602 H1616 0.960 . S
C1603 C1600 1.511 . S
C1603 H1617 0.961 . S
C1603 H1618 0.961 . S
C1603 H1619 0.961 . S
C1604 C1605 1.370 . S
C1604 C1606 1.363 . S
C1604 H1620 0.931 . S
C1605 C1604 1.370 . S
C1605 C1609 1.408 1_655 S
C1606 C1604 1.363 . S
C1606 C1607 1.370 . S
C1606 C1610 1.524 . S
C1607 C1599 1.503 . S
C1607 C1606 1.370 . S
C1607 C1608 1.403 1_655 S
C1608 C1607 1.403 1_455 S
C1608 C1609 1.404 . S
C1608 C1611 1.539 . S
C1609 C1605 1.408 1_455 S
C1609 C1608 1.404 . S
C1609 H1621 0.930 . S
C1610 C1606 1.524 . S
C1610 H1622 0.956 . S
C1610 H1623 0.961 . S
C1610 H1624 0.961 . S
C1611 C1608 1.539 . S
C1611 H1625 0.958 . S
C1611 H1626 0.961 . S
C1611 H1627 0.960 . S
H1612 C1596 0.931 . S
H1613 C1601 0.929 1_455 S
H1614 C1602 0.960 . S
H1615 C1602 0.962 . S
H1616 C1602 0.960 . S
H1617 C1603 0.961 . S
H1618 C1603 0.961 . S
H1619 C1603 0.961 . S
H1620 C1604 0.931 . S
H1621 C1609 0.930 . S
H1622 C1610 0.956 . S
H1623 C1610 0.961 . S
H1624 C1610 0.961 . S
H1625 C1611 0.958 . S
H1626 C1611 0.961 . S
H1627 C1611 0.960 . S
C1628 C1629 1.391 . S
C1628 C1630 1.394 . S
C1628 H1644 0.931 . S
C1629 C1628 1.391 . S
C1629 C1633 1.376 . S
C1630 C1628 1.394 . S
C1630 C1631 1.369 . S
C1630 C1634 1.531 . S
C1631 C1630 1.369 . S
C1631 C1632 1.410 . S
C1631 C1639 1.503 . S
C1632 C1631 1.410 . S
C1632 C1633 1.392 . S
C1632 C1635 1.511 . S
C1633 C1629 1.376 . S
C1633 C1632 1.392 . S
C1633 H1645 0.929 . S
C1634 C1630 1.531 . S
C1634 H1646 0.960 . S
C1634 H1647 0.962 . S
C1634 H1648 0.960 . S
C1635 C1632 1.511 . S
C1635 H1649 0.961 . S
C1635 H1650 0.961 . S
C1635 H1651 0.961 . S
C1636 C1637 1.370 . S
C1636 C1638 1.363 . S
C1636 H1652 0.931 . S
C1637 C1636 1.370 . S
C1637 C1641 1.408 . S
C1638 C1636 1.363 . S
C1638 C1639 1.370 . S
C1638 C1642 1.524 . S
C1639 C1631 1.503 . S
C1639 C1638 1.370 . S
C1639 C1640 1.403 . S
C1640 C1639 1.403 . S
C1640 C1641 1.404 . S
C1640 C1643 1.539 . S
C1641 C1637 1.408 . S
C1641 C1640 1.404 . S
C1641 H1653 0.930 . S
C1642 C1638 1.524 . S
C1642 H1654 0.956 . S
C1642 H1655 0.961 . S
C1642 H1656 0.961 . S
C1643 C1640 1.539 . S
C1643 H1657 0.958 . S
C1643 H1658 0.961 . S
C1643 H1659 0.960 . S
H1644 C1628 0.931 . S
H1645 C1633 0.929 . S
H1646 C1634 0.960 . S
H1647 C1634 0.962 . S
H1648 C1634 0.960 . S
H1649 C1635 0.961 . S
H1650 C1635 0.961 . S
H1651 C1635 0.961 . S
H1652 C1636 0.931 . S
H1653 C1641 0.930 . S
H1654 C1642 0.956 . S
H1655 C1642 0.961 . S
H1656 C1642 0.961 . S
H1657 C1643 0.958 . S
H1658 C1643 0.961 . S
H1659 C1643 0.960 . S
C1660 C1661 1.391 . S
C1660 C1662 1.394 . S
C1660 H1676 0.931 . S
C1661 C1660 1.391 . S
C1661 C1665 1.376 . S
C1662 C1660 1.394 . S
C1662 C1663 1.369 . S
C1662 C1666 1.531 . S
C1663 C1662 1.369 . S
C1663 C1664 1.410 . S
C1663 C1671 1.503 . S
C1664 C1663 1.410 . S
C1664 C1665 1.392 . S
C1664 C1667 1.511 . S
C1665 C1661 1.376 . S
C1665 C1664 1.392 . S
C1665 H1677 0.929 . S
C1666 C1662 1.531 . S
C1666 H1678 0.960 . S
C1666 H1679 0.962 . S
C1666 H1680 0.960 . S
C1667 C1664 1.511 . S
C1667 H1681 0.961 . S
C1667 H1682 0.961 . S
C1667 H1683 0.961 . S
C1668 C1669 1.370 . S
C1668 C1670 1.363 . S
C1668 H1684 0.931 . S
C1669 C1668 1.370 . S
C1669 C1673 1.408 . S
C1670 C1668 1.363 . S
C1670 C1671 1.370 . S
C1670 C1674 1.524 . S
C1671 C1663 1.503 . S
C1671 C1670 1.370 . S
C1671 C1672 1.403 . S
C1672 C1671 1.403 . S
C1672 C1673 1.404 . S
C1672 C1675 1.539 . S
C1673 C1669 1.408 . S
C1673 C1672 1.404 . S
C1673 H1685 0.930 . S
C1674 C1670 1.524 . S
C1674 H1686 0.956 . S
C1674 H1687 0.961 . S
C1674 H1688 0.961 . S
C1675 C1672 1.539 . S
C1675 H1689 0.958 . S
C1675 H1690 0.961 . S
C1675 H1691 0.960 . S
H1676 C1660 0.931 . S
H1677 C1665 0.929 . S
H1678 C1666 0.960 . S
H1679 C1666 0.962 . S
H1680 C1666 0.960 . S
H1681 C1667 0.961 . S
H1682 C1667 0.961 . S
H1683 C1667 0.961 . S
H1684 C1668 0.931 . S
H1685 C1673 0.930 . S
H1686 C1674 0.956 . S
H1687 C1674 0.961 . S
H1688 C1674 0.961 . S
H1689 C1675 0.958 . S
H1690 C1675 0.961 . S
H1691 C1675 0.960 . S
C1692 C1693 1.391 . S
C1692 C1694 1.394 . S
C1692 H1708 0.931 . S
C1693 C1692 1.391 . S
C1693 C1697 1.376 . S
C1694 C1692 1.394 . S
C1694 C1695 1.369 . S
C1694 C1698 1.531 . S
C1695 C1694 1.369 . S
C1695 C1696 1.410 . S
C1695 C1703 1.503 . S
C1696 C1695 1.410 . S
C1696 C1697 1.392 . S
C1696 C1699 1.511 1_556 S
C1697 C1693 1.376 . S
C1697 C1696 1.392 . S
C1697 H1709 0.929 . S
C1698 C1694 1.531 . S
C1698 H1710 0.960 . S
C1698 H1711 0.962 . S
C1698 H1712 0.960 . S
C1699 C1696 1.511 1_554 S
C1699 H1713 0.961 1_554 S
C1699 H1714 0.963 1_554 S
C1699 H1715 0.961 . S
C1700 C1701 1.370 1_556 S
C1700 C1702 1.363 . S
C1700 H1716 0.931 . S
C1701 C1700 1.370 1_554 S
C1701 C1705 1.408 . S
C1702 C1700 1.363 . S
C1702 C1703 1.370 . S
C1702 C1706 1.524 . S
C1703 C1695 1.503 . S
C1703 C1702 1.370 . S
C1703 C1704 1.403 1_556 S
C1704 C1703 1.403 1_554 S
C1704 C1705 1.404 . S
C1704 C1707 1.539 . S
C1705 C1701 1.408 . S
C1705 C1704 1.404 . S
C1705 H1717 0.930 . S
C1706 C1702 1.524 . S
C1706 H1718 0.956 . S
C1706 H1719 0.961 . S
C1706 H1720 0.961 . S
C1707 C1704 1.539 . S
C1707 H1721 0.958 . S
C1707 H1722 0.961 . S
C1707 H1723 0.960 . S
H1708 C1692 0.931 . S
H1709 C1697 0.929 . S
H1710 C1698 0.960 . S
H1711 C1698 0.962 . S
H1712 C1698 0.960 . S
H1713 C1699 0.961 1_556 S
H1714 C1699 0.963 1_556 S
H1715 C1699 0.961 . S
H1716 C1700 0.931 . S
H1717 C1705 0.930 . S
H1718 C1706 0.956 . S
H1719 C1706 0.961 . S
H1720 C1706 0.961 . S
H1721 C1707 0.958 . S
H1722 C1707 0.961 . S
H1723 C1707 0.960 . S
C1724 C1725 1.391 . S
C1724 C1726 1.394 . S
C1724 H1740 0.931 . S
C1725 C1724 1.391 . S
C1725 C1729 1.376 . S
C1726 C1724 1.394 . S
C1726 C1727 1.369 . S
C1726 C1730 1.531 . S
C1727 C1726 1.369 . S
C1727 C1728 1.410 . S
C1727 C1735 1.503 . S
C1728 C1727 1.410 . S
C1728 C1729 1.392 . S
C1728 C1731 1.511 . S
C1729 C1725 1.376 . S
C1729 C1728 1.392 . S
C1729 H1741 0.929 . S
C1730 C1726 1.531 . S
C1730 H1742 0.960 . S
C1730 H1743 0.962 . S
C1730 H1744 0.960 . S
C1731 C1728 1.511 . S
C1731 H1745 0.961 . S
C1731 H1746 0.961 . S
C1731 H1747 0.961 . S
C1732 C1733 1.370 . S
C1732 C1734 1.363 . S
C1732 H1748 0.931 . S
C1733 C1732 1.370 . S
C1733 C1737 1.408 . S
C1734 C1732 1.363 . S
C1734 C1735 1.370 . S
C1734 C1738 1.524 . S
C1735 C1727 1.503 . S
C1735 C1734 1.370 . S
C1735 C1736 1.403 . S
C1736 C1735 1.403 . S
C1736 C1737 1.404 . S
C1736 C1739 1.539 . S
C1737 C1733 1.408 . S
C1737 C1736 1.404 . S
C1737 H1749 0.930 . S
C1738 C1734 1.524 . S
C1738 H1750 0.956 . S
C1738 H1751 0.961 . S
C1738 H1752 0.961 . S
C1739 C1736 1.539 . S
C1739 H1753 0.958 . S
C1739 H1754 0.961 . S
C1739 H1755 0.960 . S
H1740 C1724 0.931 . S
H1741 C1729 0.929 . S
H1742 C1730 0.960 . S
H1743 C1730 0.962 . S
H1744 C1730 0.960 . S
H1745 C1731 0.961 . S
H1746 C1731 0.961 . S
H1747 C1731 0.961 . S
H1748 C1732 0.931 . S
H1749 C1737 0.930 . S
H1750 C1738 0.956 . S
H1751 C1738 0.961 . S
H1752 C1738 0.961 . S
H1753 C1739 0.958 . S
H1754 C1739 0.961 . S
H1755 C1739 0.960 . S
C1756 C1757 1.391 . S
C1756 C1758 1.394 . S
C1756 H1772 0.931 . S
C1757 C1756 1.391 . S
C1757 C1761 1.376 . S
C1758 C1756 1.394 . S
C1758 C1759 1.369 . S
C1758 C1762 1.531 . S
C1759 C1758 1.369 . S
C1759 C1760 1.410 . S
C1759 C1767 1.503 . S
C1760 C1759 1.410 . S
C1760 C1761 1.392 . S
C1760 C1763 1.511 . S
C1761 C1757 1.376 . S
C1761 C1760 1.392 . S
C1761 H1773 0.929 . S
C1762 C1758 1.531 . S
C1762 H1774 0.960 . S
C1762 H1775 0.962 . S
C1762 H1776 0.960 . S
C1763 C1760 1.511 . S
C1763 H1777 0.961 . S
C1763 H1778 0.961 . S
C1763 H1779 0.961 . S
C1764 C1765 1.370 . S
C1764 C1766 1.363 . S
C1764 H1780 0.931 . S
C1765 C1764 1.370 . S
C1765 C1769 1.408 . S
C1766 C1764 1.363 . S
C1766 C1767 1.370 . S
C1766 C1770 1.524 . S
C1767 C1759 1.503 . S
C1767 C1766 1.370 . S
C1767 C1768 1.403 . S
C1768 C1767 1.403 . S
C1768 C1769 1.404 . S
C1768 C1771 1.539 . S
C1769 C1765 1.408 . S
C1769 C1768 1.404 . S
C1769 H1781 0.930 . S
C1770 C1766 1.524 . S
C1770 H1782 0.956 . S
C1770 H1783 0.961 . S
C1770 H1784 0.961 . S
C1771 C1768 1.539 . S
C1771 H1785 0.958 . S
C1771 H1786 0.961 . S
C1771 H1787 0.960 . S
H1772 C1756 0.931 . S
H1773 C1761 0.929 . S
H1774 C1762 0.960 . S
H1775 C1762 0.962 . S
H1776 C1762 0.960 . S
H1777 C1763 0.961 . S
H1778 C1763 0.961 . S
H1779 C1763 0.961 . S
H1780 C1764 0.931 . S
H1781 C1769 0.930 . S
H1782 C1770 0.956 . S
H1783 C1770 0.961 . S
H1784 C1770 0.961 . S
H1785 C1771 0.958 . S
H1786 C1771 0.961 . S
H1787 C1771 0.960 . S
C1788 C1789 1.391 . S
C1788 C1790 1.394 . S
C1788 H1804 0.931 . S
C1789 C1788 1.391 . S
C1789 C1793 1.376 . S
C1790 C1788 1.394 . S
C1790 C1791 1.369 . S
C1790 C1794 1.531 . S
C1791 C1790 1.369 . S
C1791 C1792 1.410 . S
C1791 C1799 1.503 . S
C1792 C1791 1.410 . S
C1792 C1793 1.392 . S
C1792 C1795 1.511 . S
C1793 C1789 1.376 . S
C1793 C1792 1.392 . S
C1793 H1805 0.929 . S
C1794 C1790 1.531 . S
C1794 H1806 0.960 . S
C1794 H1807 0.962 . S
C1794 H1808 0.960 . S
C1795 C1792 1.511 . S
C1795 H1809 0.961 . S
C1795 H1810 0.961 . S
C1795 H1811 0.961 . S
C1796 C1797 1.370 . S
C1796 C1798 1.363 . S
C1796 H1812 0.931 . S
C1797 C1796 1.370 . S
C1797 C1801 1.408 . S
C1798 C1796 1.363 . S
C1798 C1799 1.370 . S
C1798 C1802 1.524 . S
C1799 C1791 1.503 . S
C1799 C1798 1.370 . S
C1799 C1800 1.403 . S
C1800 C1799 1.403 . S
C1800 C1801 1.404 . S
C1800 C1803 1.539 . S
C1801 C1797 1.408 . S
C1801 C1800 1.404 . S
C1801 H1813 0.930 . S
C1802 C1798 1.524 . S
C1802 H1814 0.956 . S
C1802 H1815 0.961 . S
C1802 H1816 0.961 . S
C1803 C1800 1.539 . S
C1803 H1817 0.958 . S
C1803 H1818 0.961 . S
C1803 H1819 0.960 . S
H1804 C1788 0.931 . S
H1805 C1793 0.929 . S
H1806 C1794 0.960 . S
H1807 C1794 0.962 . S
H1808 C1794 0.960 . S
H1809 C1795 0.961 . S
H1810 C1795 0.961 . S
H1811 C1795 0.961 . S
H1812 C1796 0.931 . S
H1813 C1801 0.930 . S
H1814 C1802 0.956 . S
H1815 C1802 0.961 . S
H1816 C1802 0.961 . S
H1817 C1803 0.958 . S
H1818 C1803 0.961 . S
H1819 C1803 0.960 . S
C1820 C1821 1.391 . S
C1820 C1822 1.394 . S
C1820 H1836 0.931 . S
C1821 C1820 1.391 . S
C1821 C1825 1.376 . S
C1822 C1820 1.394 . S
C1822 C1823 1.369 . S
C1822 C1826 1.531 . S
C1823 C1822 1.369 . S
C1823 C1824 1.410 . S
C1823 C1831 1.503 . S
C1824 C1823 1.410 . S
C1824 C1825 1.392 . S
C1824 C1827 1.511 . S
C1825 C1821 1.376 . S
C1825 C1824 1.392 . S
C1825 H1837 0.929 . S
C1826 C1822 1.531 . S
C1826 H1838 0.960 . S
C1826 H1839 0.962 . S
C1826 H1840 0.960 . S
C1827 C1824 1.511 . S
C1827 H1841 0.961 . S
C1827 H1842 0.961 . S
C1827 H1843 0.961 . S
C1828 C1829 1.370 . S
C1828 C1830 1.363 . S
C1828 H1844 0.931 . S
C1829 C1828 1.370 . S
C1829 C1833 1.408 . S
C1830 C1828 1.363 . S
C1830 C1831 1.370 . S
C1830 C1834 1.524 . S
C1831 C1823 1.503 . S
C1831 C1830 1.370 . S
C1831 C1832 1.403 . S
C1832 C1831 1.403 . S
C1832 C1833 1.404 . S
C1832 C1835 1.539 . S
C1833 C1829 1.408 . S
C1833 C1832 1.404 . S
C1833 H1845 0.930 . S
C1834 C1830 1.524 . S
C1834 H1846 0.956 . S
C1834 H1847 0.961 . S
C1834 H1848 0.961 . S
C1835 C1832 1.539 . S
C1835 H1849 0.958 . S
C1835 H1850 0.961 . S
C1835 H1851 0.960 . S
H1836 C1820 0.931 . S
H1837 C1825 0.929 . S
H1838 C1826 0.960 . S
H1839 C1826 0.962 . S
H1840 C1826 0.960 . S
H1841 C1827 0.961 . S
H1842 C1827 0.961 . S
H1843 C1827 0.961 . S
H1844 C1828 0.931 . S
H1845 C1833 0.930 . S
H1846 C1834 0.956 . S
H1847 C1834 0.961 . S
H1848 C1834 0.961 . S
H1849 C1835 0.958 . S
H1850 C1835 0.961 . S
H1851 C1835 0.960 . S
C1852 C1853 1.391 . S
C1852 C1854 1.394 . S
C1852 H1868 0.931 . S
C1853 C1852 1.391 . S
C1853 C1857 1.376 . S
C1854 C1852 1.394 . S
C1854 C1855 1.369 . S
C1854 C1858 1.531 . S
C1855 C1854 1.369 . S
C1855 C1856 1.410 . S
C1855 C1863 1.503 . S
C1856 C1855 1.410 . S
C1856 C1857 1.392 . S
C1856 C1859 1.511 . S
C1857 C1853 1.376 . S
C1857 C1856 1.392 . S
C1857 H1869 0.929 . S
C1858 C1854 1.531 . S
C1858 H1870 0.960 . S
C1858 H1871 0.962 . S
C1858 H1872 0.960 . S
C1859 C1856 1.511 . S
C1859 H1873 0.961 . S
C1859 H1874 0.961 . S
C1859 H1875 0.961 . S
C1860 C1861 1.370 . S
C1860 C1862 1.363 . S
C1860 H1876 0.931 . S
C1861 C1860 1.370 . S
C1861 C1865 1.408 . S
C1862 C1860 1.363 . S
C1862 C1863 1.370 . S
C1862 C1866 1.524 . S
C1863 C1855 1.503 . S
C1863 C1862 1.370 . S
C1863 C1864 1.403 . S
C1864 C1863 1.403 . S
C1864 C1865 1.404 . S
C1864 C1867 1.539 . S
C1865 C1861 1.408 . S
C1865 C1864 1.404 . S
C1865 H1877 0.930 . S
C1866 C1862 1.524 . S
C1866 H1878 0.956 . S
C1866 H1879 0.961 . S
C1866 H1880 0.961 . S
C1867 C1864 1.539 . S
C1867 H1881 0.958 . S
C1867 H1882 0.961 . S
C1867 H1883 0.960 . S
H1868 C1852 0.931 . S
H1869 C1857 0.929 . S
H1870 C1858 0.960 . S
H1871 C1858 0.962 . S
H1872 C1858 0.960 . S
H1873 C1859 0.961 . S
H1874 C1859 0.961 . S
H1875 C1859 0.961 . S
H1876 C1860 0.931 . S
H1877 C1865 0.930 . S
H1878 C1866 0.956 . S
H1879 C1866 0.961 . S
H1880 C1866 0.961 . S
H1881 C1867 0.958 . S
H1882 C1867 0.961 . S
H1883 C1867 0.960 . S
C1884 C1885 1.391 . S
C1884 C1886 1.394 . S
C1884 H1900 0.931 . S
C1885 C1884 1.391 . S
C1885 C1889 1.376 . S
C1886 C1884 1.394 . S
C1886 C1887 1.369 . S
C1886 C1890 1.531 . S
C1887 C1886 1.369 . S
C1887 C1888 1.410 . S
C1887 C1895 1.503 . S
C1888 C1887 1.410 . S
C1888 C1889 1.392 . S
C1888 C1891 1.511 . S
C1889 C1885 1.376 . S
C1889 C1888 1.392 . S
C1889 H1901 0.929 . S
C1890 C1886 1.531 . S
C1890 H1902 0.960 . S
C1890 H1903 0.962 . S
C1890 H1904 0.960 . S
C1891 C1888 1.511 . S
C1891 H1905 0.961 . S
C1891 H1906 0.961 . S
C1891 H1907 0.961 . S
C1892 C1893 1.370 . S
C1892 C1894 1.363 . S
C1892 H1908 0.931 . S
C1893 C1892 1.370 . S
C1893 C1897 1.408 . S
C1894 C1892 1.363 . S
C1894 C1895 1.370 . S
C1894 C1898 1.524 . S
C1895 C1887 1.503 . S
C1895 C1894 1.370 . S
C1895 C1896 1.403 . S
C1896 C1895 1.403 . S
C1896 C1897 1.404 . S
C1896 C1899 1.539 . S
C1897 C1893 1.408 . S
C1897 C1896 1.404 . S
C1897 H1909 0.930 . S
C1898 C1894 1.524 . S
C1898 H1910 0.956 . S
C1898 H1911 0.961 . S
C1898 H1912 0.961 . S
C1899 C1896 1.539 . S
C1899 H1913 0.958 . S
C1899 H1914 0.961 . S
C1899 H1915 0.960 . S
H1900 C1884 0.931 . S
H1901 C1889 0.929 . S
H1902 C1890 0.960 . S
H1903 C1890 0.962 . S
H1904 C1890 0.960 . S
H1905 C1891 0.961 . S
H1906 C1891 0.961 . S
H1907 C1891 0.961 . S
H1908 C1892 0.931 . S
H1909 C1897 0.930 . S
H1910 C1898 0.956 . S
H1911 C1898 0.961 . S
H1912 C1898 0.961 . S
H1913 C1899 0.958 . S
H1914 C1899 0.961 . S
H1915 C1899 0.960 . S
C1916 C1917 1.391 . S
C1916 C1918 1.394 . S
C1916 H1932 0.931 . S
C1917 C1916 1.391 . S
C1917 C1921 1.376 . S
C1918 C1916 1.394 . S
C1918 C1919 1.369 . S
C1918 C1922 1.531 1_545 S
C1919 C1918 1.369 . S
C1919 C1920 1.410 . S
C1919 C1927 1.503 . S
C1920 C1919 1.410 . S
C1920 C1921 1.392 . S
C1920 C1923 1.511 . S
C1921 C1917 1.376 . S
C1921 C1920 1.392 . S
C1921 H1933 0.929 . S
C1922 C1918 1.531 1_565 S
C1922 H1934 0.960 . S
C1922 H1935 0.962 1_565 S
C1922 H1936 0.960 . S
C1923 C1920 1.511 . S
C1923 H1937 0.961 . S
C1923 H1938 0.961 . S
C1923 H1939 0.961 . S
C1924 C1925 1.370 . S
C1924 C1926 1.363 . S
C1924 H1940 0.931 . S
C1925 C1924 1.370 . S
C1925 C1929 1.408 1_545 S
C1926 C1924 1.363 . S
C1926 C1927 1.370 . S
C1926 C1930 1.524 . S
C1927 C1919 1.503 . S
C1927 C1926 1.370 . S
C1927 C1928 1.403 1_545 S
C1928 C1927 1.403 1_565 S
C1928 C1929 1.404 . S
C1928 C1931 1.539 . S
C1929 C1925 1.408 1_565 S
C1929 C1928 1.404 . S
C1929 H1941 0.930 . S
C1930 C1926 1.524 . S
C1930 H1942 0.956 . S
C1930 H1943 0.961 . S
C1930 H1944 0.961 . S
C1931 C1928 1.539 . S
C1931 H1945 0.958 . S
C1931 H1946 0.961 . S
C1931 H1947 0.960 . S
H1932 C1916 0.931 . S
H1933 C1921 0.929 . S
H1934 C1922 0.960 . S
H1935 C1922 0.962 1_545 S
H1936 C1922 0.960 . S
H1937 C1923 0.961 . S
H1938 C1923 0.961 . S
H1939 C1923 0.961 . S
H1940 C1924 0.931 . S
H1941 C1929 0.930 . S
H1942 C1930 0.956 . S
H1943 C1930 0.961 . S
H1944 C1930 0.961 . S
H1945 C1931 0.958 . S
H1946 C1931 0.961 . S
H1947 C1931 0.960 . S
C1948 C1949 1.391 . S
C1948 C1950 1.394 . S
C1948 H1964 0.931 . S
C1949 C1948 1.391 . S
C1949 C1953 1.376 . S
C1950 C1948 1.394 . S
C1950 C1951 1.369 . S
C1950 C1954 1.531 . S
C1951 C1950 1.369 . S
C1951 C1952 1.410 . S
C1951 C1959 1.503 . S
C1952 C1951 1.410 . S
C1952 C1953 1.392 . S
C1952 C1955 1.511 . S
C1953 C1949 1.376 . S
C1953 C1952 1.392 . S
C1953 H1965 0.929 . S
C1954 C1950 1.531 . S
C1954 H1966 0.960 . S
C1954 H1967 0.962 . S
C1954 H1968 0.960 . S
C1955 C1952 1.511 . S
C1955 H1969 0.961 . S
C1955 H1970 0.961 . S
C1955 H1971 0.961 . S
C1956 C1957 1.370 . S
C1956 C1958 1.363 . S
C1956 H1972 0.931 . S
C1957 C1956 1.370 . S
C1957 C1961 1.408 . S
C1958 C1956 1.363 . S
C1958 C1959 1.370 . S
C1958 C1962 1.524 . S
C1959 C1951 1.503 . S
C1959 C1958 1.370 . S
C1959 C1960 1.403 . S
C1960 C1959 1.403 . S
C1960 C1961 1.404 . S
C1960 C1963 1.539 . S
C1961 C1957 1.408 . S
C1961 C1960 1.404 . S
C1961 H1973 0.930 . S
C1962 C1958 1.524 . S
C1962 H1974 0.956 . S
C1962 H1975 0.961 . S
C1962 H1976 0.961 . S
C1963 C1960 1.539 . S
C1963 H1977 0.958 . S
C1963 H1978 0.961 . S
C1963 H1979 0.960 . S
H1964 C1948 0.931 . S
H1965 C1953 0.929 . S
H1966 C1954 0.960 . S
H1967 C1954 0.962 . S
H1968 C1954 0.960 . S
H1969 C1955 0.961 . S
H1970 C1955 0.961 . S
H1971 C1955 0.961 . S
H1972 C1956 0.931 . S
H1973 C1961 0.930 . S
H1974 C1962 0.956 . S
H1975 C1962 0.961 . S
H1976 C1962 0.961 . S
H1977 C1963 0.958 . S
H1978 C1963 0.961 . S
H1979 C1963 0.960 . S
C1980 C1981 1.391 . S
C1980 C1982 1.394 . S
C1980 H1996 0.931 . S
C1981 C1980 1.391 . S
C1981 C1985 1.376 . S
C1982 C1980 1.394 . S
C1982 C1983 1.369 . S
C1982 C1986 1.531 . S
C1983 C1982 1.369 . S
C1983 C1984 1.410 . S
C1983 C1991 1.503 . S
C1984 C1983 1.410 . S
C1984 C1985 1.392 . S
C1984 C1987 1.511 . S
C1985 C1981 1.376 . S
C1985 C1984 1.392 . S
C1985 H1997 0.929 . S
C1986 C1982 1.531 . S
C1986 H1998 0.960 . S
C1986 H1999 0.962 . S
C1986 H2000 0.960 . S
C1987 C1984 1.511 . S
C1987 H2001 0.961 . S
C1987 H2002 0.961 . S
C1987 H2003 0.961 . S
C1988 C1989 1.370 . S
C1988 C1990 1.363 . S
C1988 H2004 0.931 . S
C1989 C1988 1.370 . S
C1989 C1993 1.408 . S
C1990 C1988 1.363 . S
C1990 C1991 1.370 . S
C1990 C1994 1.524 . S
C1991 C1983 1.503 . S
C1991 C1990 1.370 . S
C1991 C1992 1.403 . S
C1992 C1991 1.403 . S
C1992 C1993 1.404 . S
C1992 C1995 1.539 . S
C1993 C1989 1.408 . S
C1993 C1992 1.404 . S
C1993 H2005 0.930 . S
C1994 C1990 1.524 . S
C1994 H2006 0.956 . S
C1994 H2007 0.961 . S
C1994 H2008 0.961 . S
C1995 C1992 1.539 . S
C1995 H2009 0.958 . S
C1995 H2010 0.961 . S
C1995 H2011 0.960 . S
H1996 C1980 0.931 . S
H1997 C1985 0.929 . S
H1998 C1986 0.960 . S
H1999 C1986 0.962 . S
H2000 C1986 0.960 . S
H2001 C1987 0.961 . S
H2002 C1987 0.961 . S
H2003 C1987 0.961 . S
H2004 C1988 0.931 . S
H2005 C1993 0.930 . S
H2006 C1994 0.956 . S
H2007 C1994 0.961 . S
H2008 C1994 0.961 . S
H2009 C1995 0.958 . S
H2010 C1995 0.961 . S
H2011 C1995 0.960 . S
C2012 C2013 1.391 . S
C2012 C2014 1.394 . S
C2012 H2028 0.931 . S
C2013 C2012 1.391 . S
C2013 C2017 1.376 . S
C2014 C2012 1.394 . S
C2014 C2015 1.369 . S
C2014 C2018 1.531 . S
C2015 C2014 1.369 . S
C2015 C2016 1.410 . S
C2015 C2023 1.503 . S
C2016 C2015 1.410 . S
C2016 C2017 1.392 . S
C2016 C2019 1.511 . S
C2017 C2013 1.376 . S
C2017 C2016 1.392 . S
C2017 H2029 0.929 . S
C2018 C2014 1.531 . S
C2018 H2030 0.960 . S
C2018 H2031 0.962 . S
C2018 H2032 0.960 . S
C2019 C2016 1.511 . S
C2019 H2033 0.961 . S
C2019 H2034 0.961 . S
C2019 H2035 0.961 . S
C2020 C2021 1.370 . S
C2020 C2022 1.363 . S
C2020 H2036 0.931 . S
C2021 C2020 1.370 . S
C2021 C2025 1.408 . S
C2022 C2020 1.363 . S
C2022 C2023 1.370 . S
C2022 C2026 1.524 . S
C2023 C2015 1.503 . S
C2023 C2022 1.370 . S
C2023 C2024 1.403 . S
C2024 C2023 1.403 . S
C2024 C2025 1.404 . S
C2024 C2027 1.539 . S
C2025 C2021 1.408 . S
C2025 C2024 1.404 . S
C2025 H2037 0.930 . S
C2026 C2022 1.524 . S
C2026 H2038 0.956 . S
C2026 H2039 0.961 . S
C2026 H2040 0.961 . S
C2027 C2024 1.539 . S
C2027 H2041 0.958 . S
C2027 H2042 0.961 . S
C2027 H2043 0.960 . S
H2028 C2012 0.931 . S
H2029 C2017 0.929 . S
H2030 C2018 0.960 . S
H2031 C2018 0.962 . S
H2032 C2018 0.960 . S
H2033 C2019 0.961 . S
H2034 C2019 0.961 . S
H2035 C2019 0.961 . S
H2036 C2020 0.931 . S
H2037 C2025 0.930 . S
H2038 C2026 0.956 . S
H2039 C2026 0.961 . S
H2040 C2026 0.961 . S
H2041 C2027 0.958 . S
H2042 C2027 0.961 . S
H2043 C2027 0.960 . S
C2044 C2045 1.391 . S
C2044 C2046 1.394 . S
C2044 H2060 0.931 . S
C2045 C2044 1.391 . S
C2045 C2049 1.376 . S
C2046 C2044 1.394 . S
C2046 C2047 1.369 . S
C2046 C2050 1.531 . S
C2047 C2046 1.369 . S
C2047 C2048 1.410 . S
C2047 C2055 1.503 . S
C2048 C2047 1.410 . S
C2048 C2049 1.392 . S
C2048 C2051 1.511 . S
C2049 C2045 1.376 . S
C2049 C2048 1.392 . S
C2049 H2061 0.929 . S
C2050 C2046 1.531 . S
C2050 H2062 0.960 . S
C2050 H2063 0.962 . S
C2050 H2064 0.960 . S
C2051 C2048 1.511 . S
C2051 H2065 0.961 . S
C2051 H2066 0.961 . S
C2051 H2067 0.961 . S
C2052 C2053 1.370 . S
C2052 C2054 1.363 . S
C2052 H2068 0.931 . S
C2053 C2052 1.370 . S
C2053 C2057 1.408 . S
C2054 C2052 1.363 . S
C2054 C2055 1.370 . S
C2054 C2058 1.524 . S
C2055 C2047 1.503 . S
C2055 C2054 1.370 . S
C2055 C2056 1.403 . S
C2056 C2055 1.403 . S
C2056 C2057 1.404 . S
C2056 C2059 1.539 1_545 S
C2057 C2053 1.408 . S
C2057 C2056 1.404 . S
C2057 H2069 0.930 1_545 S
C2058 C2054 1.524 . S
C2058 H2070 0.956 . S
C2058 H2071 0.961 . S
C2058 H2072 0.961 . S
C2059 C2056 1.539 1_565 S
C2059 H2073 0.958 . S
C2059 H2074 0.961 . S
C2059 H2075 0.960 . S
H2060 C2044 0.931 . S
H2061 C2049 0.929 . S
H2062 C2050 0.960 . S
H2063 C2050 0.962 . S
H2064 C2050 0.960 . S
H2065 C2051 0.961 . S
H2066 C2051 0.961 . S
H2067 C2051 0.961 . S
H2068 C2052 0.931 . S
H2069 C2057 0.930 1_565 S
H2070 C2058 0.956 . S
H2071 C2058 0.961 . S
H2072 C2058 0.961 . S
H2073 C2059 0.958 . S
H2074 C2059 0.961 . S
H2075 C2059 0.960 . S
C2076 C2077 1.391 . S
C2076 C2078 1.394 . S
C2076 H2092 0.931 . S
C2077 C2076 1.391 . S
C2077 C2081 1.376 . S
C2078 C2076 1.394 . S
C2078 C2079 1.369 . S
C2078 C2082 1.531 . S
C2079 C2078 1.369 . S
C2079 C2080 1.410 . S
C2079 C2087 1.503 . S
C2080 C2079 1.410 . S
C2080 C2081 1.392 . S
C2080 C2083 1.511 . S
C2081 C2077 1.376 . S
C2081 C2080 1.392 . S
C2081 H2093 0.929 . S
C2082 C2078 1.531 . S
C2082 H2094 0.960 . S
C2082 H2095 0.962 . S
C2082 H2096 0.960 . S
C2083 C2080 1.511 . S
C2083 H2097 0.961 . S
C2083 H2098 0.961 . S
C2083 H2099 0.961 . S
C2084 C2085 1.370 . S
C2084 C2086 1.363 . S
C2084 H2100 0.931 . S
C2085 C2084 1.370 . S
C2085 C2089 1.408 . S
C2086 C2084 1.363 . S
C2086 C2087 1.370 . S
C2086 C2090 1.524 . S
C2087 C2079 1.503 . S
C2087 C2086 1.370 . S
C2087 C2088 1.403 . S
C2088 C2087 1.403 . S
C2088 C2089 1.404 . S
C2088 C2091 1.539 . S
C2089 C2085 1.408 . S
C2089 C2088 1.404 . S
C2089 H2101 0.930 . S
C2090 C2086 1.524 . S
C2090 H2102 0.956 . S
C2090 H2103 0.961 . S
C2090 H2104 0.961 . S
C2091 C2088 1.539 . S
C2091 H2105 0.958 . S
C2091 H2106 0.961 . S
C2091 H2107 0.960 . S
H2092 C2076 0.931 . S
H2093 C2081 0.929 . S
H2094 C2082 0.960 . S
H2095 C2082 0.962 . S
H2096 C2082 0.960 . S
H2097 C2083 0.961 . S
H2098 C2083 0.961 . S
H2099 C2083 0.961 . S
H2100 C2084 0.931 . S
H2101 C2089 0.930 . S
H2102 C2090 0.956 . S
H2103 C2090 0.961 . S
H2104 C2090 0.961 . S
H2105 C2091 0.958 . S
H2106 C2091 0.961 . S
H2107 C2091 0.960 . S
C2108 C2109 1.391 . S
C2108 C2110 1.394 . S
C2108 H2124 0.931 . S
C2109 C2108 1.391 . S
C2109 C2113 1.376 . S
C2110 C2108 1.394 . S
C2110 C2111 1.369 . S
C2110 C2114 1.531 . S
C2111 C2110 1.369 . S
C2111 C2112 1.410 . S
C2111 C2119 1.503 . S
C2112 C2111 1.410 . S
C2112 C2113 1.392 . S
C2112 C2115 1.511 . S
C2113 C2109 1.376 . S
C2113 C2112 1.392 . S
C2113 H2125 0.929 . S
C2114 C2110 1.531 . S
C2114 H2126 0.960 . S
C2114 H2127 0.962 . S
C2114 H2128 0.960 . S
C2115 C2112 1.511 . S
C2115 H2129 0.961 . S
C2115 H2130 0.961 . S
C2115 H2131 0.961 . S
C2116 C2117 1.370 . S
C2116 C2118 1.363 . S
C2116 H2132 0.931 . S
C2117 C2116 1.370 . S
C2117 C2121 1.408 . S
C2118 C2116 1.363 . S
C2118 C2119 1.370 . S
C2118 C2122 1.524 . S
C2119 C2111 1.503 . S
C2119 C2118 1.370 . S
C2119 C2120 1.403 . S
C2120 C2119 1.403 . S
C2120 C2121 1.404 . S
C2120 C2123 1.539 . S
C2121 C2117 1.408 . S
C2121 C2120 1.404 . S
C2121 H2133 0.930 . S
C2122 C2118 1.524 . S
C2122 H2134 0.956 . S
C2122 H2135 0.961 . S
C2122 H2136 0.961 . S
C2123 C2120 1.539 . S
C2123 H2137 0.958 . S
C2123 H2138 0.961 . S
C2123 H2139 0.960 . S
H2124 C2108 0.931 . S
H2125 C2113 0.929 . S
H2126 C2114 0.960 . S
H2127 C2114 0.962 . S
H2128 C2114 0.960 . S
H2129 C2115 0.961 . S
H2130 C2115 0.961 . S
H2131 C2115 0.961 . S
H2132 C2116 0.931 . S
H2133 C2121 0.930 . S
H2134 C2122 0.956 . S
H2135 C2122 0.961 . S
H2136 C2122 0.961 . S
H2137 C2123 0.958 . S
H2138 C2123 0.961 . S
H2139 C2123 0.960 . S
C2140 C2141 1.391 . S
C2140 C2142 1.394 . S
C2140 H2156 0.931 . S
C2141 C2140 1.391 . S
C2141 C2145 1.376 . S
C2142 C2140 1.394 . S
C2142 C2143 1.369 . S
C2142 C2146 1.531 . S
C2143 C2142 1.369 . S
C2143 C2144 1.410 . S
C2143 C2151 1.503 . S
C2144 C2143 1.410 . S
C2144 C2145 1.392 . S
C2144 C2147 1.511 . S
C2145 C2141 1.376 . S
C2145 C2144 1.392 . S
C2145 H2157 0.929 . S
C2146 C2142 1.531 . S
C2146 H2158 0.960 . S
C2146 H2159 0.962 . S
C2146 H2160 0.960 . S
C2147 C2144 1.511 . S
C2147 H2161 0.961 . S
C2147 H2162 0.961 . S
C2147 H2163 0.961 . S
C2148 C2149 1.370 . S
C2148 C2150 1.363 . S
C2148 H2164 0.931 . S
C2149 C2148 1.370 . S
C2149 C2153 1.408 . S
C2150 C2148 1.363 . S
C2150 C2151 1.370 . S
C2150 C2154 1.524 . S
C2151 C2143 1.503 . S
C2151 C2150 1.370 . S
C2151 C2152 1.403 . S
C2152 C2151 1.403 . S
C2152 C2153 1.404 . S
C2152 C2155 1.539 . S
C2153 C2149 1.408 . S
C2153 C2152 1.404 . S
C2153 H2165 0.930 . S
C2154 C2150 1.524 . S
C2154 H2166 0.956 . S
C2154 H2167 0.961 . S
C2154 H2168 0.961 . S
C2155 C2152 1.539 . S
C2155 H2169 0.958 . S
C2155 H2170 0.961 . S
C2155 H2171 0.960 . S
H2156 C2140 0.931 . S
H2157 C2145 0.929 . S
H2158 C2146 0.960 . S
H2159 C2146 0.962 . S
H2160 C2146 0.960 . S
H2161 C2147 0.961 . S
H2162 C2147 0.961 . S
H2163 C2147 0.961 . S
H2164 C2148 0.931 . S
H2165 C2153 0.930 . S
H2166 C2154 0.956 . S
H2167 C2154 0.961 . S
H2168 C2154 0.961 . S
H2169 C2155 0.958 . S
H2170 C2155 0.961 . S
H2171 C2155 0.960 . S
C2172 C2173 1.391 . S
C2172 C2174 1.394 . S
C2172 H2188 0.931 . S
C2173 C2172 1.391 . S
C2173 C2177 1.408 . S
C2174 C2172 1.394 . S
C2174 C2175 1.369 . S
C2174 C2178 1.531 . S
C2175 C2174 1.369 . S
C2175 C2176 1.410 1_655 S
C2175 C2183 1.503 . S
C2176 C2175 1.410 1_455 S
C2176 C2177 1.386 1_455 S
C2176 C2179 1.511 . S
C2177 C2173 1.408 . S
C2177 C2176 1.386 1_655 S
C2177 H2189 0.903 1_655 S
C2178 C2174 1.531 . S
C2178 H2190 0.960 . S
C2178 H2191 0.962 . S
C2178 H2192 0.960 . S
C2179 C2176 1.511 . S
C2179 H2193 0.961 . S
C2179 H2194 0.961 . S
C2179 H2195 0.961 . S
C2180 C2181 1.370 . S
C2180 C2182 1.363 . S
C2180 H2196 0.931 . S
C2181 C2180 1.370 . S
C2181 C2185 1.408 . S
C2182 C2180 1.363 . S
C2182 C2183 1.370 . S
C2182 C2186 1.524 . S
C2183 C2175 1.503 . S
C2183 C2182 1.370 . S
C2183 C2184 1.403 . S
C2184 C2183 1.403 . S
C2184 C2185 1.404 . S
C2184 C2187 1.536 1_655 S
C2185 C2181 1.408 . S
C2185 C2184 1.404 . S
C2185 H2197 0.930 1_655 S
C2186 C2182 1.524 . S
C2186 H2198 0.956 . S
C2186 H2199 0.961 . S
C2186 H2200 0.961 . S
C2187 C2184 1.536 1_455 S
C2187 H2201 0.945 1_455 S
C2187 H2202 0.973 . S
C2187 H2203 0.964 . S
H2188 C2172 0.931 . S
H2189 C2177 0.903 1_455 S
H2190 C2178 0.960 . S
H2191 C2178 0.962 . S
H2192 C2178 0.960 . S
H2193 C2179 0.961 . S
H2194 C2179 0.961 . S
H2195 C2179 0.961 . S
H2196 C2180 0.931 . S
H2197 C2185 0.930 1_455 S
H2198 C2186 0.956 . S
H2199 C2186 0.961 . S
H2200 C2186 0.961 . S
H2201 C2187 0.945 1_655 S
H2202 C2187 0.973 . S
H2203 C2187 0.964 . S
C2204 C2205 1.391 . S
C2204 C2206 1.394 . S
C2204 H2220 0.931 . S
C2205 C2204 1.391 . S
C2205 C2209 1.376 . S
C2206 C2204 1.394 . S
C2206 C2207 1.369 . S
C2206 C2210 1.531 . S
C2207 C2206 1.369 . S
C2207 C2208 1.410 . S
C2207 C2215 1.503 . S
C2208 C2207 1.410 . S
C2208 C2209 1.392 . S
C2208 C2211 1.511 . S
C2209 C2205 1.376 . S
C2209 C2208 1.392 . S
C2209 H2221 0.929 . S
C2210 C2206 1.531 . S
C2210 H2222 0.960 . S
C2210 H2223 0.962 . S
C2210 H2224 0.960 . S
C2211 C2208 1.511 . S
C2211 H2225 0.961 . S
C2211 H2226 0.961 . S
C2211 H2227 0.961 . S
C2212 C2213 1.370 . S
C2212 C2214 1.363 . S
C2212 H2228 0.931 . S
C2213 C2212 1.370 . S
C2213 C2217 1.408 . S
C2214 C2212 1.363 . S
C2214 C2215 1.370 . S
C2214 C2218 1.524 . S
C2215 C2207 1.503 . S
C2215 C2214 1.370 . S
C2215 C2216 1.403 . S
C2216 C2215 1.403 . S
C2216 C2217 1.404 . S
C2216 C2219 1.539 . S
C2217 C2213 1.408 . S
C2217 C2216 1.404 . S
C2217 H2229 0.930 . S
C2218 C2214 1.524 . S
C2218 H2230 0.956 . S
C2218 H2231 0.961 . S
C2218 H2232 0.961 . S
C2219 C2216 1.539 . S
C2219 H2233 0.958 . S
C2219 H2234 0.961 . S
C2219 H2235 0.960 . S
H2220 C2204 0.931 . S
H2221 C2209 0.929 . S
H2222 C2210 0.960 . S
H2223 C2210 0.962 . S
H2224 C2210 0.960 . S
H2225 C2211 0.961 . S
H2226 C2211 0.961 . S
H2227 C2211 0.961 . S
H2228 C2212 0.931 . S
H2229 C2217 0.930 . S
H2230 C2218 0.956 . S
H2231 C2218 0.961 . S
H2232 C2218 0.961 . S
H2233 C2219 0.958 . S
H2234 C2219 0.961 . S
H2235 C2219 0.960 . S
C2236 C2237 1.391 . S
C2236 C2238 1.394 . S
C2236 H2252 0.931 . S
C2237 C2236 1.391 . S
C2237 C2241 1.376 . S
C2238 C2236 1.394 . S
C2238 C2239 1.369 . S
C2238 C2242 1.531 1_455 S
C2239 C2238 1.369 . S
C2239 C2240 1.410 . S
C2239 C2247 1.503 . S
C2240 C2239 1.410 . S
C2240 C2241 1.392 . S
C2240 C2243 1.511 . S
C2241 C2237 1.376 . S
C2241 C2240 1.392 . S
C2241 H2253 0.929 . S
C2242 C2238 1.531 1_655 S
C2242 H2254 0.960 . S
C2242 H2255 0.962 . S
C2242 H2256 0.960 . S
C2243 C2240 1.511 . S
C2243 H2257 0.961 . S
C2243 H2258 0.961 . S
C2243 H2259 0.961 . S
C2244 C2245 1.370 . S
C2244 C2246 1.363 . S
C2244 H2260 0.931 1_455 S
C2245 C2244 1.370 . S
C2245 C2249 1.408 . S
C2246 C2244 1.363 . S
C2246 C2247 1.370 . S
C2246 C2250 1.524 1_455 S
C2247 C2239 1.503 . S
C2247 C2246 1.370 . S
C2247 C2248 1.403 . S
C2248 C2247 1.403 . S
C2248 C2249 1.404 . S
C2248 C2251 1.539 . S
C2249 C2245 1.408 . S
C2249 C2248 1.404 . S
C2249 H2261 0.930 . S
C2250 C2246 1.524 1_655 S
C2250 H2262 0.956 . S
C2250 H2263 0.961 1_655 S
C2250 H2264 0.961 . S
C2251 C2248 1.539 . S
C2251 H2265 0.958 . S
C2251 H2266 0.961 . S
C2251 H2267 0.960 . S
H2252 C2236 0.931 . S
H2253 C2241 0.929 . S
H2254 C2242 0.960 . S
H2255 C2242 0.962 . S
H2256 C2242 0.960 . S
H2257 C2243 0.961 . S
H2258 C2243 0.961 . S
H2259 C2243 0.961 . S
H2260 C2244 0.931 1_655 S
H2261 C2249 0.930 . S
H2262 C2250 0.956 . S
H2263 C2250 0.961 1_455 S
H2264 C2250 0.961 . S
H2265 C2251 0.958 . S
H2266 C2251 0.961 . S
H2267 C2251 0.960 . S
C2268 C2269 1.391 . S
C2268 C2270 1.394 . S
C2268 H2284 0.931 . S
C2269 C2268 1.391 . S
C2269 C2273 1.376 . S
C2270 C2268 1.394 . S
C2270 C2271 1.369 . S
C2270 C2274 1.531 . S
C2271 C2270 1.369 . S
C2271 C2272 1.410 . S
C2271 C2279 1.503 . S
C2272 C2271 1.410 . S
C2272 C2273 1.392 . S
C2272 C2275 1.511 . S
C2273 C2269 1.376 . S
C2273 C2272 1.392 . S
C2273 H2285 0.929 . S
C2274 C2270 1.531 . S
C2274 H2286 0.960 . S
C2274 H2287 0.962 . S
C2274 H2288 0.960 . S
C2275 C2272 1.511 . S
C2275 H2289 0.961 . S
C2275 H2290 0.961 . S
C2275 H2291 0.961 . S
C2276 C2277 1.370 . S
C2276 C2278 1.363 . S
C2276 H2292 0.931 . S
C2277 C2276 1.370 . S
C2277 C2281 1.408 . S
C2278 C2276 1.363 . S
C2278 C2279 1.370 . S
C2278 C2282 1.524 . S
C2279 C2271 1.503 . S
C2279 C2278 1.370 . S
C2279 C2280 1.403 . S
C2280 C2279 1.403 . S
C2280 C2281 1.404 . S
C2280 C2283 1.539 . S
C2281 C2277 1.408 . S
C2281 C2280 1.404 . S
C2281 H2293 0.930 . S
C2282 C2278 1.524 . S
C2282 H2294 0.956 . S
C2282 H2295 0.961 . S
C2282 H2296 0.961 . S
C2283 C2280 1.539 . S
C2283 H2297 0.958 . S
C2283 H2298 0.961 . S
C2283 H2299 0.960 . S
H2284 C2268 0.931 . S
H2285 C2273 0.929 . S
H2286 C2274 0.960 . S
H2287 C2274 0.962 . S
H2288 C2274 0.960 . S
H2289 C2275 0.961 . S
H2290 C2275 0.961 . S
H2291 C2275 0.961 . S
H2292 C2276 0.931 . S
H2293 C2281 0.930 . S
H2294 C2282 0.956 . S
H2295 C2282 0.961 . S
H2296 C2282 0.961 . S
H2297 C2283 0.958 . S
H2298 C2283 0.961 . S
H2299 C2283 0.960 . S
C2300 C2301 1.391 . S
C2300 C2302 1.394 . S
C2300 H2316 0.931 . S
C2301 C2300 1.391 . S
C2301 C2305 1.376 . S
C2302 C2300 1.394 . S
C2302 C2303 1.369 . S
C2302 C2306 1.531 . S
C2303 C2302 1.369 . S
C2303 C2304 1.410 . S
C2303 C2311 1.503 . S
C2304 C2303 1.410 . S
C2304 C2305 1.392 . S
C2304 C2307 1.511 . S
C2305 C2301 1.376 . S
C2305 C2304 1.392 . S
C2305 H2317 0.929 . S
C2306 C2302 1.531 . S
C2306 H2318 0.960 . S
C2306 H2319 0.962 . S
C2306 H2320 0.960 . S
C2307 C2304 1.511 . S
C2307 H2321 0.961 . S
C2307 H2322 0.961 . S
C2307 H2323 0.961 . S
C2308 C2309 1.370 . S
C2308 C2310 1.363 . S
C2308 H2324 0.931 . S
C2309 C2308 1.370 . S
C2309 C2313 1.408 . S
C2310 C2308 1.363 . S
C2310 C2311 1.370 . S
C2310 C2314 1.524 . S
C2311 C2303 1.503 . S
C2311 C2310 1.370 . S
C2311 C2312 1.403 . S
C2312 C2311 1.403 . S
C2312 C2313 1.404 . S
C2312 C2315 1.539 . S
C2313 C2309 1.408 . S
C2313 C2312 1.404 . S
C2313 H2325 0.930 . S
C2314 C2310 1.524 . S
C2314 H2326 0.956 . S
C2314 H2327 0.961 . S
C2314 H2328 0.961 . S
C2315 C2312 1.539 . S
C2315 H2329 0.958 . S
C2315 H2330 0.961 . S
C2315 H2331 0.960 . S
H2316 C2300 0.931 . S
H2317 C2305 0.929 . S
H2318 C2306 0.960 . S
H2319 C2306 0.962 . S
H2320 C2306 0.960 . S
H2321 C2307 0.961 . S
H2322 C2307 0.961 . S
H2323 C2307 0.961 . S
H2324 C2308 0.931 . S
H2325 C2313 0.930 . S
H2326 C2314 0.956 . S
H2327 C2314 0.961 . S
H2328 C2314 0.961 . S
H2329 C2315 0.958 . S
H2330 C2315 0.961 . S
H2331 C2315 0.960 . S
C2332 C2333 1.391 . S
C2332 C2334 1.394 . S
C2332 H2348 0.931 . S
C2333 C2332 1.391 . S
C2333 C2337 1.376 . S
C2334 C2332 1.394 . S
C2334 C2335 1.369 . S
C2334 C2338 1.531 . S
C2335 C2334 1.369 . S
C2335 C2336 1.410 . S
C2335 C2343 1.503 . S
C2336 C2335 1.410 . S
C2336 C2337 1.392 . S
C2336 C2339 1.511 . S
C2337 C2333 1.376 . S
C2337 C2336 1.392 . S
C2337 H2349 0.929 . S
C2338 C2334 1.531 . S
C2338 H2350 0.960 . S
C2338 H2351 0.962 . S
C2338 H2352 0.960 . S
C2339 C2336 1.511 . S
C2339 H2353 0.961 . S
C2339 H2354 0.961 . S
C2339 H2355 0.961 . S
C2340 C2341 1.370 . S
C2340 C2342 1.363 . S
C2340 H2356 0.931 . S
C2341 C2340 1.370 . S
C2341 C2345 1.408 . S
C2342 C2340 1.363 . S
C2342 C2343 1.370 . S
C2342 C2346 1.524 . S
C2343 C2335 1.503 . S
C2343 C2342 1.370 . S
C2343 C2344 1.403 . S
C2344 C2343 1.403 . S
C2344 C2345 1.404 . S
C2344 C2347 1.539 . S
C2345 C2341 1.408 . S
C2345 C2344 1.404 . S
C2345 H2357 0.930 . S
C2346 C2342 1.524 . S
C2346 H2358 0.956 . S
C2346 H2359 0.961 . S
C2346 H2360 0.961 . S
C2347 C2344 1.539 . S
C2347 H2361 0.958 . S
C2347 H2362 0.961 . S
C2347 H2363 0.960 . S
H2348 C2332 0.931 . S
H2349 C2337 0.929 . S
H2350 C2338 0.960 . S
H2351 C2338 0.962 . S
H2352 C2338 0.960 . S
H2353 C2339 0.961 . S
H2354 C2339 0.961 . S
H2355 C2339 0.961 . S
H2356 C2340 0.931 . S
H2357 C2345 0.930 . S
H2358 C2346 0.956 . S
H2359 C2346 0.961 . S
H2360 C2346 0.961 . S
H2361 C2347 0.958 . S
H2362 C2347 0.961 . S
H2363 C2347 0.960 . S
C2364 C2365 1.391 . S
C2364 C2366 1.394 . S
C2364 H2380 0.931 . S
C2365 C2364 1.391 . S
C2365 C2369 1.376 . S
C2366 C2364 1.394 . S
C2366 C2367 1.369 . S
C2366 C2370 1.531 . S
C2367 C2366 1.369 . S
C2367 C2368 1.410 . S
C2367 C2375 1.503 . S
C2368 C2367 1.410 . S
C2368 C2369 1.392 . S
C2368 C2371 1.511 . S
C2369 C2365 1.376 . S
C2369 C2368 1.392 . S
C2369 H2381 0.929 . S
C2370 C2366 1.531 . S
C2370 H2382 0.960 . S
C2370 H2383 0.962 . S
C2370 H2384 0.960 . S
C2371 C2368 1.511 . S
C2371 H2385 0.961 . S
C2371 H2386 0.961 . S
C2371 H2387 0.961 . S
C2372 C2373 1.370 . S
C2372 C2374 1.363 . S
C2372 H2388 0.931 . S
C2373 C2372 1.370 . S
C2373 C2377 1.408 . S
C2374 C2372 1.363 . S
C2374 C2375 1.370 . S
C2374 C2378 1.524 . S
C2375 C2367 1.503 . S
C2375 C2374 1.370 . S
C2375 C2376 1.403 . S
C2376 C2375 1.403 . S
C2376 C2377 1.404 . S
C2376 C2379 1.539 . S
C2377 C2373 1.408 . S
C2377 C2376 1.404 . S
C2377 H2389 0.930 . S
C2378 C2374 1.524 . S
C2378 H2390 0.956 . S
C2378 H2391 0.961 . S
C2378 H2392 0.961 . S
C2379 C2376 1.539 . S
C2379 H2393 0.958 . S
C2379 H2394 0.961 . S
C2379 H2395 0.960 . S
H2380 C2364 0.931 . S
H2381 C2369 0.929 . S
H2382 C2370 0.960 . S
H2383 C2370 0.962 . S
H2384 C2370 0.960 . S
H2385 C2371 0.961 . S
H2386 C2371 0.961 . S
H2387 C2371 0.961 . S
H2388 C2372 0.931 . S
H2389 C2377 0.930 . S
H2390 C2378 0.956 . S
H2391 C2378 0.961 . S
H2392 C2378 0.961 . S
H2393 C2379 0.958 . S
H2394 C2379 0.961 . S
H2395 C2379 0.960 . S
C2396 C2397 1.391 . S
C2396 C2398 1.394 . S
C2396 H2412 0.931 . S
C2397 C2396 1.391 . S
C2397 C2401 1.376 . S
C2398 C2396 1.394 . S
C2398 C2399 1.369 . S
C2398 C2402 1.531 . S
C2399 C2398 1.369 . S
C2399 C2400 1.410 . S
C2399 C2407 1.503 . S
C2400 C2399 1.410 . S
C2400 C2401 1.392 . S
C2400 C2403 1.511 . S
C2401 C2397 1.376 . S
C2401 C2400 1.392 . S
C2401 H2413 0.929 . S
C2402 C2398 1.531 . S
C2402 H2414 0.960 . S
C2402 H2415 0.962 . S
C2402 H2416 0.960 . S
C2403 C2400 1.511 . S
C2403 H2417 0.961 . S
C2403 H2418 0.961 . S
C2403 H2419 0.961 . S
C2404 C2405 1.370 . S
C2404 C2406 1.363 . S
C2404 H2420 0.931 . S
C2405 C2404 1.370 . S
C2405 C2409 1.408 . S
C2406 C2404 1.363 . S
C2406 C2407 1.370 . S
C2406 C2410 1.524 . S
C2407 C2399 1.503 . S
C2407 C2406 1.370 . S
C2407 C2408 1.403 . S
C2408 C2407 1.403 . S
C2408 C2409 1.404 . S
C2408 C2411 1.539 . S
C2409 C2405 1.408 . S
C2409 C2408 1.404 . S
C2409 H2421 0.930 . S
C2410 C2406 1.524 . S
C2410 H2422 0.956 . S
C2410 H2423 0.961 . S
C2410 H2424 0.961 . S
C2411 C2408 1.539 . S
C2411 H2425 0.958 . S
C2411 H2426 0.961 . S
C2411 H2427 0.960 . S
H2412 C2396 0.931 . S
H2413 C2401 0.929 . S
H2414 C2402 0.960 . S
H2415 C2402 0.962 . S
H2416 C2402 0.960 . S
H2417 C2403 0.961 . S
H2418 C2403 0.961 . S
H2419 C2403 0.961 . S
H2420 C2404 0.931 . S
H2421 C2409 0.930 . S
H2422 C2410 0.956 . S
H2423 C2410 0.961 . S
H2424 C2410 0.961 . S
H2425 C2411 0.958 . S
H2426 C2411 0.961 . S
H2427 C2411 0.960 . S
C2428 C2429 1.391 . S
C2428 C2430 1.394 . S
C2428 H2444 0.931 . S
C2429 C2428 1.391 . S
C2429 C2433 1.376 . S
C2430 C2428 1.394 . S
C2430 C2431 1.369 . S
C2430 C2434 1.531 . S
C2431 C2430 1.369 . S
C2431 C2432 1.410 . S
C2431 C2439 1.503 . S
C2432 C2431 1.410 . S
C2432 C2433 1.392 . S
C2432 C2435 1.511 . S
C2433 C2429 1.376 . S
C2433 C2432 1.392 . S
C2433 H2445 0.929 . S
C2434 C2430 1.531 . S
C2434 H2446 0.960 . S
C2434 H2447 0.962 . S
C2434 H2448 0.960 . S
C2435 C2432 1.511 . S
C2435 H2449 0.961 . S
C2435 H2450 0.961 . S
C2435 H2451 0.961 . S
C2436 C2437 1.370 . S
C2436 C2438 1.363 . S
C2436 H2452 0.931 . S
C2437 C2436 1.370 . S
C2437 C2441 1.408 . S
C2438 C2436 1.363 . S
C2438 C2439 1.370 . S
C2438 C2442 1.524 . S
C2439 C2431 1.503 . S
C2439 C2438 1.370 . S
C2439 C2440 1.403 . S
C2440 C2439 1.403 . S
C2440 C2441 1.404 . S
C2440 C2443 1.539 . S
C2441 C2437 1.408 . S
C2441 C2440 1.404 . S
C2441 H2453 0.930 . S
C2442 C2438 1.524 . S
C2442 H2454 0.956 . S
C2442 H2455 0.961 . S
C2442 H2456 0.961 . S
C2443 C2440 1.539 . S
C2443 H2457 0.958 . S
C2443 H2458 0.961 . S
C2443 H2459 0.960 . S
H2444 C2428 0.931 . S
H2445 C2433 0.929 . S
H2446 C2434 0.960 . S
H2447 C2434 0.962 . S
H2448 C2434 0.960 . S
H2449 C2435 0.961 . S
H2450 C2435 0.961 . S
H2451 C2435 0.961 . S
H2452 C2436 0.931 . S
H2453 C2441 0.930 . S
H2454 C2442 0.956 . S
H2455 C2442 0.961 . S
H2456 C2442 0.961 . S
H2457 C2443 0.958 . S
H2458 C2443 0.961 . S
H2459 C2443 0.960 . S
C2460 C2461 1.391 . S
C2460 C2462 1.394 . S
C2460 H2476 0.931 . S
C2461 C2460 1.391 . S
C2461 C2465 1.376 . S
C2462 C2460 1.394 . S
C2462 C2463 1.369 . S
C2462 C2466 1.531 . S
C2463 C2462 1.369 . S
C2463 C2464 1.410 . S
C2463 C2471 1.503 . S
C2464 C2463 1.410 . S
C2464 C2465 1.392 . S
C2464 C2467 1.511 . S
C2465 C2461 1.376 . S
C2465 C2464 1.392 . S
C2465 H2477 0.929 . S
C2466 C2462 1.531 . S
C2466 H2478 0.960 . S
C2466 H2479 0.962 . S
C2466 H2480 0.960 . S
C2467 C2464 1.511 . S
C2467 H2481 0.961 . S
C2467 H2482 0.961 . S
C2467 H2483 0.961 . S
C2468 C2469 1.370 . S
C2468 C2470 1.363 . S
C2468 H2484 0.931 . S
C2469 C2468 1.370 . S
C2469 C2473 1.408 . S
C2470 C2468 1.363 . S
C2470 C2471 1.370 . S
C2470 C2474 1.524 . S
C2471 C2463 1.503 . S
C2471 C2470 1.370 . S
C2471 C2472 1.403 . S
C2472 C2471 1.403 . S
C2472 C2473 1.404 . S
C2472 C2475 1.539 . S
C2473 C2469 1.408 . S
C2473 C2472 1.404 . S
C2473 H2485 0.930 . S
C2474 C2470 1.524 . S
C2474 H2486 0.956 . S
C2474 H2487 0.961 . S
C2474 H2488 0.961 . S
C2475 C2472 1.539 . S
C2475 H2489 0.958 . S
C2475 H2490 0.961 . S
C2475 H2491 0.960 . S
H2476 C2460 0.931 . S
H2477 C2465 0.929 . S
H2478 C2466 0.960 . S
H2479 C2466 0.962 . S
H2480 C2466 0.960 . S
H2481 C2467 0.961 . S
H2482 C2467 0.961 . S
H2483 C2467 0.961 . S
H2484 C2468 0.931 . S
H2485 C2473 0.930 . S
H2486 C2474 0.956 . S
H2487 C2474 0.961 . S
H2488 C2474 0.961 . S
H2489 C2475 0.958 . S
H2490 C2475 0.961 . S
H2491 C2475 0.960 . S
C2492 C2493 1.391 . S
C2492 C2494 1.394 . S
C2492 H2508 0.931 . S
C2493 C2492 1.391 . S
C2493 C2497 1.376 . S
C2494 C2492 1.394 . S
C2494 C2495 1.369 . S
C2494 C2498 1.531 . S
C2495 C2494 1.369 . S
C2495 C2496 1.410 . S
C2495 C2503 1.503 . S
C2496 C2495 1.410 . S
C2496 C2497 1.392 . S
C2496 C2499 1.511 . S
C2497 C2493 1.376 . S
C2497 C2496 1.392 . S
C2497 H2509 0.929 . S
C2498 C2494 1.531 . S
C2498 H2510 0.960 . S
C2498 H2511 0.962 . S
C2498 H2512 0.960 . S
C2499 C2496 1.511 . S
C2499 H2513 0.961 . S
C2499 H2514 0.961 . S
C2499 H2515 0.961 . S
C2500 C2501 1.370 . S
C2500 C2502 1.363 . S
C2500 H2516 0.931 . S
C2501 C2500 1.370 . S
C2501 C2505 1.408 . S
C2502 C2500 1.363 . S
C2502 C2503 1.370 . S
C2502 C2506 1.524 . S
C2503 C2495 1.503 . S
C2503 C2502 1.370 . S
C2503 C2504 1.403 . S
C2504 C2503 1.403 . S
C2504 C2505 1.404 . S
C2504 C2507 1.539 . S
C2505 C2501 1.408 . S
C2505 C2504 1.404 . S
C2505 H2517 0.930 . S
C2506 C2502 1.524 . S
C2506 H2518 0.956 . S
C2506 H2519 0.961 . S
C2506 H2520 0.961 . S
C2507 C2504 1.539 . S
C2507 H2521 0.958 . S
C2507 H2522 0.961 . S
C2507 H2523 0.960 . S
H2508 C2492 0.931 . S
H2509 C2497 0.929 . S
H2510 C2498 0.960 . S
H2511 C2498 0.962 . S
H2512 C2498 0.960 . S
H2513 C2499 0.961 . S
H2514 C2499 0.961 . S
H2515 C2499 0.961 . S
H2516 C2500 0.931 . S
H2517 C2505 0.930 . S
H2518 C2506 0.956 . S
H2519 C2506 0.961 . S
H2520 C2506 0.961 . S
H2521 C2507 0.958 . S
H2522 C2507 0.961 . S
H2523 C2507 0.960 . S
C2524 C2525 1.391 . S
C2524 C2526 1.394 . S
C2524 H2540 0.931 . S
C2525 C2524 1.391 . S
C2525 C2529 1.376 . S
C2526 C2524 1.394 . S
C2526 C2527 1.369 . S
C2526 C2530 1.531 . S
C2527 C2526 1.369 . S
C2527 C2528 1.410 . S
C2527 C2535 1.503 . S
C2528 C2527 1.410 . S
C2528 C2529 1.392 . S
C2528 C2531 1.511 . S
C2529 C2525 1.376 . S
C2529 C2528 1.392 . S
C2529 H2541 0.929 . S
C2530 C2526 1.531 . S
C2530 H2542 0.960 . S
C2530 H2543 0.962 . S
C2530 H2544 0.960 . S
C2531 C2528 1.511 . S
C2531 H2545 0.961 . S
C2531 H2546 0.961 . S
C2531 H2547 0.961 . S
C2532 C2533 1.370 . S
C2532 C2534 1.363 . S
C2532 H2548 0.931 . S
C2533 C2532 1.370 . S
C2533 C2537 1.408 1_556 S
C2534 C2532 1.363 . S
C2534 C2535 1.370 . S
C2534 C2538 1.524 . S
C2535 C2527 1.503 . S
C2535 C2534 1.370 . S
C2535 C2536 1.403 1_556 S
C2536 C2535 1.403 1_554 S
C2536 C2537 1.404 . S
C2536 C2539 1.539 . S
C2537 C2533 1.408 1_554 S
C2537 C2536 1.404 . S
C2537 H2549 0.930 . S
C2538 C2534 1.524 . S
C2538 H2550 0.956 . S
C2538 H2551 0.961 . S
C2538 H2552 0.961 . S
C2539 C2536 1.539 . S
C2539 H2553 0.958 . S
C2539 H2554 0.961 . S
C2539 H2555 0.960 . S
H2540 C2524 0.931 . S
H2541 C2529 0.929 . S
H2542 C2530 0.960 . S
H2543 C2530 0.962 . S
H2544 C2530 0.960 . S
H2545 C2531 0.961 . S
H2546 C2531 0.961 . S
H2547 C2531 0.961 . S
H2548 C2532 0.931 . S
H2549 C2537 0.930 . S
H2550 C2538 0.956 . S
H2551 C2538 0.961 . S
H2552 C2538 0.961 . S
H2553 C2539 0.958 . S
H2554 C2539 0.961 . S
H2555 C2539 0.960 . S
C2556 C2557 1.391 . S
C2556 C2558 1.394 . S
C2556 H2572 0.931 . S
C2557 C2556 1.391 . S
C2557 C2561 1.376 . S
C2558 C2556 1.394 . S
C2558 C2559 1.369 . S
C2558 C2562 1.531 . S
C2559 C2558 1.369 . S
C2559 C2560 1.410 . S
C2559 C2567 1.503 . S
C2560 C2559 1.410 . S
C2560 C2561 1.392 . S
C2560 C2563 1.511 . S
C2561 C2557 1.376 . S
C2561 C2560 1.392 . S
C2561 H2573 0.929 . S
C2562 C2558 1.531 . S
C2562 H2574 0.960 . S
C2562 H2575 0.962 . S
C2562 H2576 0.960 . S
C2563 C2560 1.511 . S
C2563 H2577 0.961 . S
C2563 H2578 0.961 . S
C2563 H2579 0.961 . S
C2564 C2565 1.370 . S
C2564 C2566 1.363 . S
C2564 H2580 0.931 . S
C2565 C2564 1.370 . S
C2565 C2569 1.408 . S
C2566 C2564 1.363 . S
C2566 C2567 1.370 . S
C2566 C2570 1.524 . S
C2567 C2559 1.503 . S
C2567 C2566 1.370 . S
C2567 C2568 1.403 . S
C2568 C2567 1.403 . S
C2568 C2569 1.404 . S
C2568 C2571 1.539 . S
C2569 C2565 1.408 . S
C2569 C2568 1.404 . S
C2569 H2581 0.930 . S
C2570 C2566 1.524 . S
C2570 H2582 0.956 . S
C2570 H2583 0.961 . S
C2570 H2584 0.961 . S
C2571 C2568 1.539 . S
C2571 H2585 0.958 . S
C2571 H2586 0.961 . S
C2571 H2587 0.960 . S
H2572 C2556 0.931 . S
H2573 C2561 0.929 . S
H2574 C2562 0.960 . S
H2575 C2562 0.962 . S
H2576 C2562 0.960 . S
H2577 C2563 0.961 . S
H2578 C2563 0.961 . S
H2579 C2563 0.961 . S
H2580 C2564 0.931 . S
H2581 C2569 0.930 . S
H2582 C2570 0.956 . S
H2583 C2570 0.961 . S
H2584 C2570 0.961 . S
H2585 C2571 0.958 . S
H2586 C2571 0.961 . S
H2587 C2571 0.960 . S
C2588 C2589 1.391 . S
C2588 C2590 1.394 . S
C2588 H2604 0.931 1_554 S
C2589 C2588 1.391 . S
C2589 C2593 1.376 . S
C2590 C2588 1.394 . S
C2590 C2591 1.369 . S
C2590 C2594 1.531 1_554 S
C2591 C2590 1.369 . S
C2591 C2592 1.410 . S
C2591 C2599 1.503 . S
C2592 C2591 1.410 . S
C2592 C2593 1.392 . S
C2592 C2595 1.511 . S
C2593 C2589 1.376 . S
C2593 C2592 1.392 . S
C2593 H2605 0.929 . S
C2594 C2590 1.531 1_556 S
C2594 H2606 0.960 . S
C2594 H2607 0.962 . S
C2594 H2608 0.960 . S
C2595 C2592 1.511 . S
C2595 H2609 0.961 . S
C2595 H2610 0.961 . S
C2595 H2611 0.961 . S
C2596 C2597 1.370 . S
C2596 C2598 1.363 . S
C2596 H2612 0.931 1_554 S
C2597 C2596 1.370 . S
C2597 C2601 1.408 . S
C2598 C2596 1.363 . S
C2598 C2599 1.370 . S
C2598 C2602 1.512 1_554 S
C2599 C2591 1.503 . S
C2599 C2598 1.370 . S
C2599 C2600 1.403 . S
C2600 C2599 1.403 . S
C2600 C2601 1.404 . S
C2600 C2603 1.539 . S
C2601 C2597 1.408 . S
C2601 C2600 1.404 . S
C2601 H2613 0.930 . S
C2602 C2598 1.512 1_556 S
C2602 H2614 0.990 . S
C2602 H2615 0.925 1_556 S
C2602 H2616 0.976 . S
C2603 C2600 1.539 . S
C2603 H2617 0.958 . S
C2603 H2618 0.961 . S
C2603 H2619 0.960 . S
H2604 C2588 0.931 1_556 S
H2605 C2593 0.929 . S
H2606 C2594 0.960 . S
H2607 C2594 0.962 . S
H2608 C2594 0.960 . S
H2609 C2595 0.961 . S
H2610 C2595 0.961 . S
H2611 C2595 0.961 . S
H2612 C2596 0.931 1_556 S
H2613 C2601 0.930 . S
H2614 C2602 0.990 . S
H2615 C2602 0.925 1_554 S
H2616 C2602 0.976 . S
H2617 C2603 0.958 . S
H2618 C2603 0.961 . S
H2619 C2603 0.960 . S
C2620 C2621 1.391 . S
C2620 C2622 1.394 . S
C2620 H2636 0.931 1_565 S
C2621 C2620 1.391 . S
C2621 C2625 1.376 . S
C2622 C2620 1.394 . S
C2622 C2623 1.369 . S
C2622 C2626 1.531 . S
C2623 C2622 1.369 . S
C2623 C2624 1.410 . S
C2623 C2631 1.503 . S
C2624 C2623 1.410 . S
C2624 C2625 1.392 . S
C2624 C2627 1.511 . S
C2625 C2621 1.376 . S
C2625 C2624 1.392 . S
C2625 H2637 0.929 . S
C2626 C2622 1.531 . S
C2626 H2638 0.960 . S
C2626 H2639 0.962 . S
C2626 H2640 0.960 . S
C2627 C2624 1.511 . S
C2627 H2641 0.961 . S
C2627 H2642 0.961 . S
C2627 H2643 0.961 . S
C2628 C2629 1.370 . S
C2628 C2630 1.363 . S
C2628 H2644 0.931 1_554 S
C2629 C2628 1.370 . S
C2629 C2633 1.408 . S
C2630 C2628 1.363 . S
C2630 C2631 1.370 . S
C2630 C2634 1.524 1_554 S
C2631 C2623 1.503 . S
C2631 C2630 1.370 . S
C2631 C2632 1.403 . S
C2632 C2631 1.403 . S
C2632 C2633 1.404 . S
C2632 C2635 1.539 . S
C2633 C2629 1.408 . S
C2633 C2632 1.404 . S
C2633 H2645 0.930 . S
C2634 C2630 1.524 1_556 S
C2634 H2646 0.956 . S
C2634 H2647 0.961 . S
C2634 H2648 0.961 . S
C2635 C2632 1.539 . S
C2635 H2649 0.958 . S
C2635 H2650 0.961 . S
C2635 H2651 0.960 . S
H2636 C2620 0.931 1_545 S
H2637 C2625 0.929 . S
H2638 C2626 0.960 . S
H2639 C2626 0.962 . S
H2640 C2626 0.960 . S
H2641 C2627 0.961 . S
H2642 C2627 0.961 . S
H2643 C2627 0.961 . S
H2644 C2628 0.931 1_556 S
H2645 C2633 0.930 . S
H2646 C2634 0.956 . S
H2647 C2634 0.961 . S
H2648 C2634 0.961 . S
H2649 C2635 0.958 . S
H2650 C2635 0.961 . S
H2651 C2635 0.960 . S
C1125 C970 1.416 . S
C1117 C331 1.382 . S
C1157 C983 1.597 . S
C1149 C380 1.570 . S
C1181 C421 1.434 . S
C1189 C996 1.449 . S
C1221 C1009 1.517 . S
C1213 C260 1.510 . S
C1253 C1017 1.459 . S
C1245 C620 1.452 . S
C1285 C1030 1.407 . S
C1277 C740 1.387 . S
C1309 C680 1.512 . S
C1317 C1043 1.495 . S
C1349 C1056 1.505 . S
C1341 C571 1.472 . S
C1373 C691 1.394 . S
C1381 C1074 1.436 . S
C1413 C1085 1.503 . S
C1405 C541 1.510 . S
C1437 C601 1.425 . S
C1445 C1069 1.424 . S
C1477 C1077 1.450 . S
C1469 C721 1.445 . S
C1501 C451 1.454 . S
C1509 C1100 1.482 . S
C1533 C241 1.505 . S
C1541 C1090 1.491 . S
C1565 C320 1.499 . S
C1573 C1095 1.472 . S
C1597 C391 1.541 . S
C1605 C1098 1.533 . S
C1629 C211 1.441 . S
C1637 C1007 1.416 . S
C1661 C841 1.416 . S
C1669 C999 1.402 . S
C1701 C968 1.542 . S
C1693 C901 1.558 . S
C1733 C973 1.492 . S
C1725 C500 1.502 . S
C1757 C271 1.531 . S
C1765 C1020 1.509 . S
C1797 C1059 1.501 . S
C1789 C661 1.506 . S
C1829 C1012 1.474 . S
C1821 C560 1.480 . S
C1861 C1038 1.444 . S
C1853 C751 1.467 . S
C1893 C1048 1.413 . S
C1885 C871 1.373 . S
C1917 C920 1.604 . S
C1925 C1061 1.608 . S
C1949 C481 1.422 . S
C1957 C1022 1.443 . S
C1989 C1035 1.528 . S
C1981 C800 1.502 . S
C2013 C200 1.450 . S
C2021 C991 1.456 . S
C2053 C1004 1.409 . S
C2045 C20 1.389 . S
C2085 C965 1.493 . S
C2077 C80 1.510 . S
C2117 C978 1.496 . S
C2109 C151 1.501 . S
C2141 C91 1.433 . S
C2149 C1087 1.422 . S
C2173 C121 1.510 . S
C2181 C1072 1.497 1_655 S
C2205 C181 1.406 . S
C2213 C1082 1.440 . S
C2237 C1 1.468 . S
C2245 C1064 1.469 . S
C2277 C1113 1.482 . S
C2269 C511 1.457 . S
C2309 C1103 1.486 . S
C2301 C781 1.511 . S
C2341 C1108 1.472 . S
C2333 C860 1.488 . S
C2365 C931 1.560 . S
C2373 C1111 1.550 . S
C2397 C631 1.425 . S
C2405 C1033 1.428 . S
C2437 C1025 1.413 . S
C2429 C301 1.373 . S
C2469 C1046 1.548 . S
C2461 C361 1.568 . S
C2501 C1051 1.497 . S
C2493 C440 1.475 . S
C2525 C811 1.500 . S
C2533 C994 1.511 . S
C2565 C981 1.507 . S
C2557 C61 1.501 . S
C2589 C140 1.499 . S
C2597 C986 1.492 . S
C2629 C960 1.451 . S
C2621 C31 1.475 . S
