# Generated by pormake.
# Topology hwx, (6,3)-cn, num edge types: 1
# Building blocks:
#     Node 0, Type 0, BuildingBlock: OJICUG_clean_sbu_0, # of connection points: 6
#     Node 1, Type 0, BuildingBlock: OJICUG_clean_sbu_0, # of connection points: 6
#     Node 2, Type 0, BuildingBlock: OJICUG_clean_sbu_0, # of connection points: 6
#     Node 3, Type 0, BuildingBlock: OJICUG_clean_sbu_0, # of connection points: 6
#     Node 4, Type 1, BuildingBlock: QEWDON_clean_linker_0, # of connection points: 3
#     Node 5, Type 1, BuildingBlock: QEWDON_clean_linker_0, # of connection points: 3
#     Node 6, Type 1, BuildingBlock: QEWDON_clean_linker_0, # of connection points: 3
#     Node 7, Type 1, BuildingBlock: QEWDON_clean_linker_0, # of connection points: 3
#     Node 8, Type 1, BuildingBlock: QEWDON_clean_linker_0, # of connection points: 3
#     Node 9, Type 1, BuildingBlock: QEWDON_clean_linker_0, # of connection points: 3
#     Node 10, Type 1, BuildingBlock: QEWDON_clean_linker_0, # of connection points: 3
#     Node 11, Type 1, BuildingBlock: QEWDON_clean_linker_0, # of connection points: 3
#     Edge 12, Type (0, 1), BuildingBlock: UVAHIK_clean_linker_0, # of connection points: 2
#     Edge 13, Type (0, 1), BuildingBlock: UVAHIK_clean_linker_0, # of connection points: 2
#     Edge 14, Type (0, 1), BuildingBlock: UVAHIK_clean_linker_0, # of connection points: 2
#     Edge 15, Type (0, 1), BuildingBlock: UVAHIK_clean_linker_0, # of connection points: 2
#     Edge 16, Type (0, 1), BuildingBlock: UVAHIK_clean_linker_0, # of connection points: 2
#     Edge 17, Type (0, 1), BuildingBlock: UVAHIK_clean_linker_0, # of connection points: 2
#     Edge 18, Type (0, 1), BuildingBlock: UVAHIK_clean_linker_0, # of connection points: 2
#     Edge 19, Type (0, 1), BuildingBlock: UVAHIK_clean_linker_0, # of connection points: 2
#     Edge 20, Type (0, 1), BuildingBlock: UVAHIK_clean_linker_0, # of connection points: 2
#     Edge 21, Type (0, 1), BuildingBlock: UVAHIK_clean_linker_0, # of connection points: 2
#     Edge 22, Type (0, 1), BuildingBlock: UVAHIK_clean_linker_0, # of connection points: 2
#     Edge 23, Type (0, 1), BuildingBlock: UVAHIK_clean_linker_0, # of connection points: 2
#     Edge 24, Type (0, 1), BuildingBlock: UVAHIK_clean_linker_0, # of connection points: 2
#     Edge 25, Type (0, 1), BuildingBlock: UVAHIK_clean_linker_0, # of connection points: 2
#     Edge 26, Type (0, 1), BuildingBlock: UVAHIK_clean_linker_0, # of connection points: 2
#     Edge 27, Type (0, 1), BuildingBlock: UVAHIK_clean_linker_0, # of connection points: 2
#     Edge 28, Type (0, 1), BuildingBlock: UVAHIK_clean_linker_0, # of connection points: 2
#     Edge 29, Type (0, 1), BuildingBlock: UVAHIK_clean_linker_0, # of connection points: 2
#     Edge 30, Type (0, 1), BuildingBlock: UVAHIK_clean_linker_0, # of connection points: 2
#     Edge 31, Type (0, 1), BuildingBlock: UVAHIK_clean_linker_0, # of connection points: 2
#     Edge 32, Type (0, 1), BuildingBlock: UVAHIK_clean_linker_0, # of connection points: 2
#     Edge 33, Type (0, 1), BuildingBlock: UVAHIK_clean_linker_0, # of connection points: 2
#     Edge 34, Type (0, 1), BuildingBlock: UVAHIK_clean_linker_0, # of connection points: 2
#     Edge 35, Type (0, 1), BuildingBlock: UVAHIK_clean_linker_0, # of connection points: 2
# Relax obj value: 0.002
# Max RMSD: 0.105
# Mean RMSD: 0.078
data_MOF--net-hwx--node1-OJICUG_clean_sbu_0--node2-QEWDON_clean_linker_0--edge1-UVAHIK_clean_linker_0
_symmetry_space_group_name_H-M    P1
_symmetry_Int_Tables_number       1
_symmetry_cell_setting            triclinic
loop_
_symmetry_equiv_pos_as_xyz
'x, y, z'
_cell_length_a     71.314915
_cell_length_b     71.32533
_cell_length_c     25.351832
_cell_angle_alpha  92.196305
_cell_angle_beta   92.201765
_cell_angle_gamma 89.999886
loop_
_atom_site_label
_atom_site_type_symbol
_atom_site_fract_x
_atom_site_fract_y
_atom_site_fract_z
_atom_type_partial_charge
Sc0 Sc 0.22258 0.22549 0.07582 0.0
Sc1 Sc 0.19173 0.19661 0.9968 0.0
Sc2 Sc 0.22221 0.22759 0.93699 0.0
O3 O 0.21219 0.21658 0.00322 0.0
C4 C 0.22071 0.26391 0.01383 0.0
C5 C 0.17883 0.22209 0.09553 0.0
C6 C 0.17812 0.22439 0.90784 0.0
C7 C 0.21787 0.18125 0.09008 0.0
C8 C 0.25969 0.22363 0.00965 0.0
C9 C 0.21797 0.18429 0.90224 0.0
O10 O 0.2221 0.25475 0.05593 0.0
O11 O 0.17592 0.2097 0.05873 0.0
O12 O 0.19444 0.23086 0.90085 0.0
O13 O 0.22444 0.19731 0.10454 0.0
O14 O 0.25105 0.226 0.96557 0.0
O15 O 0.20509 0.18119 0.93407 0.0
O16 O 0.25132 0.22246 0.05285 0.0
O17 O 0.20627 0.17882 0.05114 0.0
O18 O 0.22584 0.2002 0.8994 0.0
O19 O 0.19486 0.22949 0.10587 0.0
O20 O 0.21999 0.25597 0.96802 0.0
O21 O 0.175 0.21218 0.94162 0.0
Sc22 Sc 0.27275 0.72835 0.43941 0.0
Sc23 Sc 0.30344 0.69924 0.51117 0.0
Sc24 Sc 0.27522 0.73188 0.57914 0.0
O25 O 0.28378 0.71985 0.50991 0.0
C26 C 0.27704 0.76729 0.50656 0.0
C27 C 0.3161 0.72374 0.41568 0.0
C28 C 0.31937 0.72719 0.60328 0.0
C29 C 0.27586 0.684 0.41745 0.0
C30 C 0.23667 0.72807 0.50978 0.0
C31 C 0.27797 0.68856 0.60652 0.0
O32 O 0.27459 0.75777 0.46336 0.0
O33 O 0.31924 0.71191 0.45121 0.0
O34 O 0.30362 0.73479 0.61267 0.0
O35 O 0.26944 0.70006 0.40628 0.0
O36 O 0.24587 0.73064 0.55355 0.0
O37 O 0.28981 0.68463 0.57156 0.0
O38 O 0.2445 0.72649 0.46559 0.0
O39 O 0.28793 0.68159 0.45463 0.0
O40 O 0.27135 0.70499 0.61402 0.0
O41 O 0.30004 0.73096 0.40657 0.0
O42 O 0.27808 0.75985 0.55135 0.0
O43 O 0.32119 0.71431 0.56797 0.0
Sc44 Sc 0.77673 0.78022 0.95223 0.0
Sc45 Sc 0.80717 0.81171 0.02329 0.0
Sc46 Sc 0.77653 0.78321 0.09154 0.0
O47 O 0.78678 0.79169 0.02239 0.0
C48 C 0.73925 0.78367 0.01771 0.0
C49 C 0.78052 0.82336 0.92569 0.0
C50 C 0.78052 0.82764 0.1127 0.0
C51 C 0.82067 0.7835 0.93217 0.0
C52 C 0.77938 0.74445 0.0242 0.0
C53 C 0.82045 0.78739 0.12091 0.0
O54 O 0.74789 0.78195 0.97483 0.0
O55 O 0.79329 0.82676 0.96113 0.0
O56 O 0.77352 0.81178 0.12252 0.0
O57 O 0.80436 0.77689 0.92112 0.0
O58 O 0.77807 0.75381 0.0677 0.0
O59 O 0.8234 0.79902 0.08544 0.0
O60 O 0.77943 0.75206 0.97963 0.0
O61 O 0.82385 0.79599 0.96845 0.0
O62 O 0.80432 0.78047 0.12785 0.0
O63 O 0.77298 0.80728 0.91801 0.0
O64 O 0.74771 0.78459 0.06283 0.0
O65 O 0.79277 0.82959 0.07826 0.0
Sc66 Sc 0.7194 0.28518 0.58029 0.0
Sc67 Sc 0.68872 0.31534 0.51193 0.0
Sc68 Sc 0.7177 0.28411 0.4413 0.0
O69 O 0.70862 0.29487 0.51116 0.0
C70 C 0.75589 0.28634 0.51019 0.0
C71 C 0.71667 0.329 0.6075 0.0
C72 C 0.71396 0.328 0.41917 0.0
C73 C 0.67569 0.28985 0.6038 0.0
C74 C 0.71579 0.24737 0.51008 0.0
C75 C 0.67389 0.28823 0.41567 0.0
O76 O 0.74783 0.28482 0.55376 0.0
O77 O 0.70293 0.33143 0.57504 0.0
O78 O 0.71935 0.31139 0.40764 0.0
O79 O 0.69219 0.28401 0.61485 0.0
O80 O 0.71739 0.25555 0.46675 0.0
O81 O 0.672 0.30182 0.44895 0.0
O82 O 0.71529 0.25623 0.55452 0.0
O83 O 0.67206 0.30078 0.56634 0.0
O84 O 0.6894 0.27973 0.40969 0.0
O85 O 0.72476 0.31324 0.61255 0.0
O86 O 0.74686 0.28726 0.4661 0.0
O87 O 0.7034 0.33186 0.45736 0.0
H88 H 0.25273 0.5088 0.06607 0.0
C89 C 0.24866 0.51699 0.03234 0.0
C90 C 0.24191 0.53534 0.04031 0.0
C91 C 0.25125 0.50967 0.98087 0.0
H92 H 0.23359 0.56078 0.00331 0.0
C93 C 0.23765 0.54625 0.9966 0.0
C94 C 0.24051 0.53932 0.94499 0.0
C95 C 0.24697 0.52084 0.93751 0.0
C96 C 0.26059 0.49133 0.97213 0.0
H97 H 0.24927 0.51527 0.8979 0.0
C98 C 0.25356 0.47481 0.99287 0.0
C99 C 0.26256 0.45746 0.98323 0.0
C100 C 0.27679 0.49042 0.94232 0.0
H101 H 0.28253 0.50297 0.92633 0.0
C102 C 0.28583 0.47336 0.93318 0.0
H103 H 0.24106 0.47546 0.01589 0.0
C104 C 0.27878 0.45699 0.95327 0.0
H105 H 0.28584 0.44387 0.94434 0.0
H106 H 0.29828 0.4728 0.91005 0.0
H107 H 0.98773 0.71432 0.44827 0.0
C108 C 0.98057 0.71785 0.48426 0.0
C109 C 0.9629 0.72648 0.48143 0.0
C110 C 0.98821 0.71237 0.5333 0.0
H111 H 0.93951 0.73664 0.52524 0.0
C112 C 0.95324 0.7301 0.52771 0.0
C113 C 0.96074 0.72485 0.5768 0.0
C114 C 0.97832 0.71606 0.57954 0.0
C115 C 0.00483 0.70008 0.53521 0.0
H116 H 0.98389 0.71129 0.6171 0.0
C117 C 0.02287 0.70694 0.52608 0.0
C118 C 0.03834 0.69467 0.52652 0.0
C119 C 0.00241 0.68103 0.54526 0.0
H120 H 0.9886 0.67555 0.55234 0.0
C121 C 0.0177 0.66887 0.54538 0.0
H122 H 0.02482 0.72165 0.51851 0.0
C123 C 0.03557 0.6756 0.53585 0.0
H124 H 0.0473 0.66595 0.53657 0.0
H125 H 0.01571 0.65418 0.55289 0.0
H126 H 0.78747 0.49805 0.95163 0.0
C127 C 0.78275 0.49028 0.98459 0.0
C128 C 0.77185 0.47405 0.97508 0.0
C129 C 0.78829 0.49596 0.03663 0.0
H130 H 0.75843 0.45083 0.01002 0.0
C131 C 0.76649 0.46362 0.01764 0.0
C132 C 0.77236 0.46879 0.06954 0.0
C133 C 0.78308 0.48515 0.07902 0.0
C134 C 0.80132 0.5119 0.04615 0.0
H135 H 0.78801 0.48906 0.11893 0.0
C136 C 0.79554 0.53038 0.03692 0.0
C137 C 0.80835 0.54534 0.0446 0.0
C138 C 0.81989 0.50849 0.06349 0.0
H139 H 0.82455 0.49433 0.07075 0.0
C140 C 0.83265 0.52327 0.07066 0.0
H141 H 0.78118 0.53309 0.02376 0.0
C142 C 0.82697 0.5416 0.06106 0.0
H143 H 0.83704 0.55291 0.06739 0.0
H144 H 0.84698 0.52053 0.08373 0.0
H145 H 0.00425 0.25408 0.57315 0.0
C146 C 0.01144 0.25662 0.53718 0.0
C147 C 0.03005 0.26317 0.53997 0.0
C148 C 0.00245 0.25216 0.48804 0.0
H149 H 0.05398 0.26974 0.49483 0.0
C150 C 0.0393 0.26572 0.49286 0.0
C151 C 0.03055 0.26125 0.44343 0.0
C152 C 0.01203 0.25446 0.44136 0.0
C153 C 0.98427 0.24228 0.48599 0.0
H154 H 0.00525 0.25038 0.40365 0.0
C155 C 0.96737 0.25198 0.4937 0.0
C156 C 0.95031 0.24203 0.49388 0.0
C157 C 0.98402 0.22272 0.47781 0.0
H158 H 0.99695 0.21507 0.47185 0.0
C159 C 0.96715 0.21285 0.47808 0.0
H160 H 0.96751 0.2671 0.5 0.0
C161 C 0.95039 0.22241 0.48632 0.0
H162 H 0.93742 0.21449 0.48604 0.0
H163 H 0.96707 0.19775 0.47198 0.0
H164 H 0.74396 0.00312 0.44699 0.0
C165 C 0.74268 0.99386 0.4796 0.0
C166 C 0.73729 0.97504 0.46959 0.0
C167 C 0.74786 1.00037 0.53121 0.0
H168 H 0.73298 0.94841 0.50481 0.0
C169 C 0.73652 0.96308 0.51216 0.0
C170 C 0.74194 0.96926 0.56361 0.0
C171 C 0.74734 0.98802 0.5731 0.0
C172 C 0.75671 0.01903 0.54007 0.0
H173 H 0.75219 0.99275 0.61244 0.0
C174 C 0.7471 0.03558 0.52726 0.0
C175 C 0.75619 0.05307 0.5341 0.0
C176 C 0.77534 0.02015 0.56006 0.0
H177 H 0.78302 0.00756 0.56987 0.0
C178 C 0.78438 0.03746 0.56646 0.0
H179 H 0.73269 0.03486 0.51206 0.0
C180 C 0.77491 0.05384 0.55335 0.0
H181 H 0.78212 0.06719 0.55901 0.0
H182 H 0.79878 0.03819 0.58156 0.0
H183 H 0.50651 0.21575 0.06826 0.0
C184 C 0.51419 0.2198 0.03438 0.0
C185 C 0.53091 0.23003 0.04199 0.0
C186 C 0.50799 0.21384 0.9831 0.0
H187 H 0.55434 0.24219 0.00479 0.0
C188 C 0.54126 0.23451 -0.00155 0.0
C189 C 0.53536 0.22856 0.94717 0.0
C190 C 0.51859 0.21833 0.93957 0.0
C191 C 0.49174 0.20106 0.97563 0.0
H192 H 0.51416 0.21325 0.90019 0.0
C193 C 0.4736 0.20692 0.98861 0.0
C194 C 0.4584 0.1943 0.98279 0.0
C195 C 0.49457 0.18258 0.95652 0.0
H196 H 0.50846 0.17782 0.94645 0.0
C197 C 0.47958 0.17001 0.95126 0.0
H198 H 0.47133 0.22121 0.0031 0.0
C199 C 0.46161 0.17578 0.96448 0.0
H200 H 0.45011 0.16586 0.95939 0.0
H201 H 0.48189 0.15575 0.9368 0.0
H202 H 0.28904 0.01817 0.57384 0.0
C203 C 0.28304 0.02311 0.53695 0.0
C204 C 0.27058 0.0383 0.53748 0.0
C205 C 0.28812 0.01456 0.48879 0.0
H206 H 0.25438 0.05725 0.49029 0.0
C207 C 0.2633 0.04493 0.48961 0.0
C208 C 0.26871 0.03693 0.44106 0.0
C209 C 0.28108 0.02157 0.44093 0.0
C210 C 0.30209 0.99937 0.48876 0.0
H211 H 0.28555 0.01534 0.40382 0.0
C212 C 0.29646 0.98051 0.48943 0.0
C213 C 0.30998 0.96617 0.49282 0.0
C214 C 0.32125 0.00387 0.4905 0.0
H215 H 0.32576 0.01837 0.49016 0.0
C216 C 0.33469 0.9897 0.49326 0.0
H217 H 0.28164 0.97706 0.48871 0.0
C218 C 0.32913 0.97096 0.49472 0.0
H219 H 0.3398 0.96018 0.49695 0.0
H220 H 0.34946 0.99325 0.49465 0.0
H221 H 0.49568 0.75504 0.94619 0.0
C222 C 0.48666 0.75738 0.97925 0.0
C223 C 0.46854 0.76477 0.97075 0.0
C224 C 0.49264 0.75171 0.02968 0.0
H225 H 0.44293 0.77285 0.00766 0.0
C226 C 0.45691 0.76727 0.01397 0.0
C227 C 0.46237 0.7611 0.06417 0.0
C228 C 0.48042 0.75358 0.07178 0.0
C229 C 0.51065 0.74162 0.03734 0.0
H230 H 0.48473 0.7483 0.10988 0.0
C231 C 0.52773 0.74939 0.02241 0.0
C232 C 0.54474 0.73966 0.03089 0.0
C233 C 0.5107 0.72397 0.06012 0.0
H234 H 0.49772 0.71762 0.07142 0.0
C235 C 0.52743 0.71425 0.06818 0.0
H236 H 0.52776 0.76298 0.00471 0.0
C237 C 0.54434 0.72202 0.0539 0.0
H238 H 0.55718 0.71433 0.06182 0.0
H239 H 0.52732 0.70069 0.08592 0.0
C240 C 0.16376 0.24468 0.15953 0.0
C241 C 0.1627 0.22827 0.12703 0.0
C242 C 0.14836 0.2506 0.18834 0.0
C243 C 0.09679 0.24344 0.19779 0.0
H244 H 0.1059 0.26338 0.34086 0.0
C245 C 0.04155 0.24594 0.35934 0.0
C246 C 0.04188 0.26142 0.39544 0.0
C247 C 0.05481 0.24437 0.32019 0.0
C248 C 0.10311 0.25812 0.30066 0.0
H249 H 0.14458 0.20514 0.09973 0.0
H250 H 0.11804 0.21511 0.15101 0.0
H251 H 0.13235 0.25551 0.2865 0.0
H252 H 0.05534 0.28812 0.41587 0.0
H253 H 0.07858 0.28528 0.34779 0.0
H254 H 0.06747 0.24541 0.21313 0.0
C255 C 0.13057 0.22373 0.15326 0.0
C256 C 0.1183 0.25362 0.26941 0.0
C257 C 0.14589 0.21791 0.12413 0.0
C258 C 0.05493 0.27588 0.3892 0.0
C259 C 0.06825 0.27425 0.35033 0.0
C260 C 0.08159 0.24779 0.22929 0.0
C261 C 0.13157 0.24016 0.18571 0.0
C262 C 0.11535 0.24602 0.21775 0.0
C263 C 0.06871 0.2582 0.31654 0.0
C264 C 0.08461 0.25502 0.28121 0.0
H265 H 0.17643 0.2531 0.16229 0.0
H266 H 0.14957 0.26347 0.21231 0.0
H267 H 0.09397 0.23796 0.15785 0.0
H268 H 0.03184 0.23446 0.36338 0.0
H269 H 0.05489 0.23179 0.2949 0.0
C270 C 0.28019 0.65548 0.63581 0.0
C271 C 0.27139 0.67311 0.63878 0.0
C272 C 0.27383 0.64067 0.66478 0.0
C273 C 0.24653 0.63024 0.78089 0.0
H274 H 0.24829 0.57948 0.72052 0.0
C275 C 0.22548 0.56643 0.89857 0.0
C276 C 0.23924 0.5523 0.90034 0.0
C277 C 0.22624 0.58048 0.86171 0.0
C278 C 0.2477 0.59358 0.73784 0.0
H279 H 0.24888 0.68893 0.67463 0.0
H280 H 0.23762 0.66294 0.72485 0.0
H281 H 0.25571 0.60584 0.66641 0.0
H282 H 0.26414 0.54151 0.86293 0.0
H283 H 0.26514 0.56566 0.79811 0.0
H284 H 0.23872 0.61788 0.85252 0.0
C285 C 0.24963 0.66068 0.70053 0.0
C286 C 0.25204 0.60869 0.70699 0.0
C287 C 0.25607 0.67557 0.67166 0.0
C288 C 0.25311 0.55194 0.86231 0.0
C289 C 0.25375 0.56586 0.82519 0.0
C290 C 0.24207 0.61512 0.81163 0.0
C291 C 0.25841 0.64303 0.69729 0.0
C292 C 0.25194 0.62717 0.7285 0.0
C293 C 0.24063 0.58056 0.82542 0.0
C294 C 0.243 0.59662 0.79076 0.0
H295 H 0.2921 0.65306 0.61119 0.0
H296 H 0.28121 0.62742 0.6622 0.0
H297 H 0.2465 0.64424 0.79893 0.0
H298 H 0.21443 0.56696 0.92671 0.0
H299 H 0.21579 0.5915 0.86229 0.0
C300 C 0.83542 0.76533 0.18494 0.0
C301 C 0.83673 0.78118 0.15396 0.0
C302 C 0.85112 0.75892 0.21368 0.0
C303 C 0.89661 0.77403 0.2734 0.0
H304 H 0.90688 0.72065 0.27396 0.0
C305 C 0.95816 0.74492 0.39989 0.0
C306 C 0.95306 0.72992 0.43051 0.0
C307 C 0.94633 0.75038 0.35778 0.0
C308 C 0.90419 0.73559 0.27433 0.0
H309 H 0.85559 0.80289 0.12977 0.0
H310 H 0.88286 0.79178 0.18034 0.0
H311 H 0.88082 0.73221 0.21916 0.0
H312 H 0.93238 0.70829 0.4404 0.0
H313 H 0.9118 0.71766 0.36734 0.0
H314 H 0.91954 0.7774 0.32991 0.0
C315 C 0.86968 0.78431 0.18225 0.0
C316 C 0.88924 0.7422 0.24304 0.0
C317 C 0.85405 0.79063 0.15315 0.0
C318 C 0.93662 0.71981 0.41683 0.0
C319 C 0.92488 0.72517 0.37487 0.0
C320 C 0.91151 0.76741 0.30498 0.0
C321 C 0.86843 0.7683 0.21246 0.0
C322 C 0.88507 0.76145 0.24298 0.0
C323 C 0.9293 0.74086 0.34573 0.0
C324 C 0.91525 0.74807 0.30663 0.0
H325 H 0.82234 0.75768 0.18639 0.0
H326 H 0.84967 0.74668 0.23721 0.0
H327 H 0.89368 0.78893 0.27441 0.0
H328 H 0.97073 0.75299 0.41025 0.0
H329 H 0.95023 0.7624 0.33573 0.0
C330 C 0.74244 0.34634 0.6588 0.0
C331 C 0.7237 0.34545 0.63974 0.0
C332 C 0.7492 0.36228 0.68733 0.0
C333 C 0.737 0.41238 0.72093 0.0
H334 H 0.77331 0.40587 0.83646 0.0
C335 C 0.74931 0.46293 0.90314 0.0
C336 C 0.76793 0.46608 0.92125 0.0
C337 C 0.74537 0.45086 0.85938 0.0
C338 C 0.76339 0.40795 0.80376 0.0
H339 H 0.69724 0.36039 0.63652 0.0
H340 H 0.70865 0.38768 0.68835 0.0
H341 H 0.76336 0.37882 0.78113 0.0
H342 H 0.79705 0.45989 0.90707 0.0
H343 H 0.79014 0.43849 0.83078 0.0
H344 H 0.73631 0.44143 0.74633 0.0
C345 C 0.71844 0.37648 0.6797 0.0
C346 C 0.75768 0.39243 0.77184 0.0
C347 C 0.7118 0.36071 0.65036 0.0
C348 C 0.7826 0.45789 0.89314 0.0
C349 C 0.77865 0.44554 0.84997 0.0
C350 C 0.74247 0.42784 0.75356 0.0
C351 C 0.73727 0.37757 0.69838 0.0
C352 C 0.74423 0.39436 0.73031 0.0
C353 C 0.75998 0.44145 0.83385 0.0
C354 C 0.7556 0.42572 0.79552 0.0
H355 H 0.75202 0.33489 0.65068 0.0
H356 H 0.76385 0.36266 0.70013 0.0
H357 H 0.72696 0.41458 0.68864 0.0
H358 H 0.7378 0.46889 0.92485 0.0
H359 H 0.73085 0.44783 0.84801 0.0
C360 C 0.6413 0.29367 0.3789 0.0
C361 C 0.65717 0.28201 0.38308 0.0
C362 C 0.62544 0.28787 0.34858 0.0
C363 C 0.60061 0.24623 0.2927 0.0
H364 H 0.57996 0.28012 0.18965 0.0
C365 C 0.55201 0.22161 0.11714 0.0
C366 C 0.53926 0.23432 0.09505 0.0
C367 C 0.56379 0.22717 0.16018 0.0
C368 C 0.58519 0.27059 0.21901 0.0
H369 H 0.66864 0.25496 0.35917 0.0
H370 H 0.64079 0.24478 0.30646 0.0
H371 H 0.60599 0.29037 0.24852 0.0
H372 H 0.528 0.26241 0.10128 0.0
H373 H 0.54798 0.27204 0.17827 0.0
H374 H 0.57981 0.22644 0.26342 0.0
C375 C 0.64072 0.25842 0.32677 0.0
C376 C 0.60023 0.27646 0.25252 0.0
C377 C 0.65671 0.26432 0.35657 0.0
C378 C 0.5376 0.25234 0.11837 0.0
C379 C 0.54925 0.25788 0.16185 0.0
C380 C 0.58539 0.24042 0.2596 0.0
C381 C 0.62497 0.27018 0.32229 0.0
C382 C 0.60829 0.26424 0.28908 0.0
C383 C 0.563 0.24559 0.18202 0.0
C384 C 0.57768 0.25241 0.22164 0.0
H385 H 0.64116 0.30739 0.39876 0.0
H386 H 0.61346 0.29717 0.34601 0.0
H387 H 0.6064 0.23662 0.3211 0.0
H388 H 0.55372 0.20776 0.09886 0.0
H389 H 0.57431 0.21737 0.17393 0.0
C390 C 0.24269 0.16796 0.84999 0.0
C391 C 0.22433 0.16843 0.86812 0.0
C392 C 0.24892 0.1525 0.81991 0.0
C393 C 0.2364 0.10275 0.78087 0.0
H394 H 0.27096 0.11068 0.66946 0.0
C395 C 0.24791 0.05222 0.60056 0.0
C396 C 0.26655 0.04883 0.58705 0.0
C397 C 0.24394 0.06492 0.64193 0.0
C398 C 0.26149 0.10824 0.70092 0.0
H399 H 0.19796 0.15333 0.86795 0.0
H400 H 0.20842 0.12689 0.81341 0.0
H401 H 0.2614 0.1372 0.72542 0.0
H402 H 0.29566 0.05551 0.60666 0.0
H403 H 0.28867 0.07813 0.67857 0.0
H404 H 0.23581 0.07386 0.75379 0.0
C405 C 0.21834 0.13802 0.82396 0.0
C406 C 0.25603 0.12343 0.7332 0.0
C407 C 0.21224 0.15329 0.85487 0.0
C408 C 0.2812 0.05776 0.61686 0.0
C409 C 0.27721 0.07076 0.65757 0.0
C410 C 0.2416 0.08763 0.74786 0.0
C411 C 0.23682 0.13731 0.80637 0.0
C412 C 0.24329 0.12094 0.77341 0.0
C413 C 0.25853 0.07473 0.66966 0.0
C414 C 0.25412 0.09028 0.70746 0.0
H415 H 0.2524 0.17932 0.86014 0.0
H416 H 0.26334 0.15238 0.808 0.0
H417 H 0.22692 0.10013 0.81212 0.0
H418 H 0.23642 0.04555 0.57776 0.0
H419 H 0.22942 0.06785 0.65029 0.0
C420 C 0.32883 0.73683 0.33409 0.0
C421 C 0.33199 0.72965 0.38442 0.0
C422 C 0.34388 0.74232 0.30457 0.0
C423 C 0.39556 0.73663 0.2954 0.0
H424 H 0.38902 0.77643 0.19635 0.0
C425 C 0.45379 0.76318 0.1602 0.0
C426 C 0.44839 0.76048 0.1064 0.0
C427 C 0.44061 0.76152 0.19935 0.0
C428 C 0.39105 0.76541 0.22426 0.0
H429 H 0.35337 0.72311 0.44403 0.0
H430 H 0.37958 0.73334 0.39353 0.0
H431 H 0.364 0.76975 0.25588 0.0
H432 H 0.42476 0.75341 0.05234 0.0
H433 H 0.40188 0.75165 0.1202 0.0
H434 H 0.42277 0.73256 0.26356 0.0
C435 C 0.36555 0.73417 0.3759 0.0
C436 C 0.37667 0.76141 0.25796 0.0
C437 C 0.3505 0.72836 0.405 0.0
C438 C 0.42945 0.7563 0.09294 0.0
C439 C 0.41629 0.7551 0.13184 0.0
C440 C 0.41008 0.7409 0.26233 0.0
C441 C 0.36247 0.74112 0.32511 0.0
C442 C 0.37851 0.74662 0.29301 0.0
C443 C 0.42176 0.75755 0.18528 0.0
C444 C 0.40773 0.75501 0.22569 0.0
H445 H 0.31472 0.73788 0.31705 0.0
H446 H 0.34091 0.74718 0.2652 0.0
H447 H 0.39746 0.72499 0.32125 0.0
H448 H 0.46818 0.76654 0.17212 0.0
H449 H 0.44509 0.76343 0.24052 0.0
C450 C 0.7839 0.8561 0.8947 0.0
C451 C 0.77414 0.83894 0.89235 0.0
C452 C 0.77808 0.87077 0.86305 0.0
C453 C 0.75107 0.87959 0.73983 0.0
H454 H 0.75672 0.93165 0.78796 0.0
C455 C 0.75357 0.9384 0.59401 0.0
C456 C 0.74424 0.95534 0.60531 0.0
C457 C 0.75539 0.92478 0.6317 0.0
C458 C 0.75482 0.9172 0.77413 0.0
H459 H 0.75023 0.82397 0.85576 0.0
H460 H 0.73993 0.84966 0.80105 0.0
H461 H 0.76245 0.90676 0.85005 0.0
H462 H 0.72999 0.97158 0.66553 0.0
H463 H 0.73309 0.94752 0.73208 0.0
H464 H 0.74331 0.88997 0.66415 0.0
C465 C 0.75231 0.85164 0.82672 0.0
C466 C 0.75832 0.90292 0.80952 0.0
C467 C 0.7582 0.83691 0.85818 0.0
C468 C 0.7372 0.95861 0.65583 0.0
C469 C 0.73899 0.94486 0.69379 0.0
C470 C 0.74751 0.89384 0.70462 0.0
C471 C 0.76227 0.8687 0.82845 0.0
C472 C 0.75684 0.88394 0.79249 0.0
C473 C 0.74792 0.9277 0.6818 0.0
C474 C 0.74977 0.91279 0.72099 0.0
H475 H 0.79625 0.85818 0.92048 0.0
H476 H 0.78628 0.88357 0.86478 0.0
H477 H 0.74992 0.86516 0.72517 0.0
H478 H 0.75959 0.93569 0.55587 0.0
H479 H 0.76284 0.91197 0.62165 0.0
C480 C 0.83389 0.7627 0.8606 0.0
C481 C 0.83673 0.77616 0.90212 0.0
C482 C 0.84904 0.75571 0.83259 0.0
C483 C 0.89749 0.76719 0.79959 0.0
H484 H 0.89851 0.71488 0.75204 0.0
C485 C 0.95617 0.73735 0.66934 0.0
C486 C 0.94925 0.7274 0.62387 0.0
C487 C 0.94427 0.74167 0.71081 0.0
C488 C 0.89843 0.72952 0.76509 0.0
H489 H 0.85788 0.79265 0.947 0.0
H490 H 0.88426 0.78035 0.89833 0.0
H491 H 0.87389 0.72596 0.80966 0.0
H492 H 0.925 0.71319 0.58706 0.0
H493 H 0.90432 0.72064 0.65905 0.0
H494 H 0.92181 0.7708 0.75404 0.0
C495 C 0.87027 0.77538 0.88707 0.0
C496 C 0.88428 0.73588 0.7979 0.0
C497 C 0.85512 0.78238 0.91507 0.0
C498 C 0.93061 0.72101 0.62162 0.0
C499 C 0.91882 0.72515 0.66304 0.0
C500 C 0.91167 0.7608 0.76684 0.0
C501 C 0.86741 0.76198 0.84546 0.0
C502 C 0.8834 0.75488 0.81457 0.0
C503 C 0.92538 0.73586 0.70761 0.0
C504 C 0.91203 0.74199 0.74829 0.0
H505 H 0.81994 0.75758 0.84944 0.0
H506 H 0.8463 0.74563 0.80019 0.0
H507 H 0.89713 0.78194 0.81132 0.0
H508 H 0.9705 0.74243 0.67183 0.0
H509 H 0.94973 0.74983 0.7449 0.0
C510 C 0.73105 0.33959 0.34218 0.0
C511 C 0.72031 0.34348 0.38665 0.0
C512 C 0.73689 0.35406 0.31106 0.0
C513 C 0.74533 0.40501 0.31076 0.0
H514 H 0.74092 0.39658 0.15881 0.0
C515 C 0.75962 0.46223 0.1582 0.0
C516 C 0.7685 0.45594 0.11231 0.0
C517 C 0.75414 0.44934 0.19513 0.0
C518 C 0.74246 0.3991 0.20117 0.0
H519 H 0.70757 0.36581 0.43365 0.0
H520 H 0.71775 0.39106 0.37893 0.0
H521 H 0.73037 0.37251 0.2162 0.0
H522 H 0.77992 0.43167 0.07082 0.0
H523 H 0.77074 0.40935 0.13524 0.0
H524 H 0.75756 0.43165 0.29534 0.0
C525 C 0.72169 0.37677 0.36847 0.0
C526 C 0.73638 0.3853 0.23405 0.0
C527 C 0.71577 0.36227 0.39959 0.0
C528 C 0.77274 0.43681 0.10538 0.0
C529 C 0.7674 0.42403 0.14216 0.0
C530 C 0.75148 0.41887 0.27771 0.0
C531 C 0.73218 0.37279 0.32362 0.0
C532 C 0.73796 0.38797 0.28919 0.0
C533 C 0.75758 0.43003 0.18672 0.0
C534 C 0.75035 0.41593 0.22252 0.0
H535 H 0.73492 0.32534 0.33109 0.0
H536 H 0.7452 0.35056 0.2772 0.0
H537 H 0.7468 0.40743 0.35316 0.0
H538 H 0.75622 0.47693 0.16433 0.0
H539 H 0.74659 0.45439 0.22909 0.0
C540 C 0.16362 0.2474 0.84562 0.0
C541 C 0.16196 0.23136 0.87566 0.0
C542 C 0.14824 0.25395 0.81573 0.0
C543 C 0.09619 0.24949 0.79812 0.0
H544 H 0.10504 0.26658 0.65793 0.0
C545 C 0.04027 0.25026 0.6271 0.0
C546 C 0.04104 0.2647 0.591 0.0
C547 C 0.05352 0.24943 0.66907 0.0
C548 C 0.10234 0.26217 0.69735 0.0
H549 H 0.14277 0.2096 0.89757 0.0
H550 H 0.11626 0.22065 0.84449 0.0
H551 H 0.13156 0.25853 0.7158 0.0
H552 H 0.05519 0.29052 0.57354 0.0
H553 H 0.07839 0.28897 0.64665 0.0
H554 H 0.06685 0.25241 0.77836 0.0
C555 C 0.12926 0.2285 0.84498 0.0
C556 C 0.11757 0.25755 0.73062 0.0
C557 C 0.14456 0.22206 0.87515 0.0
C558 C 0.05443 0.27905 0.6002 0.0
C559 C 0.06773 0.27815 0.64194 0.0
C560 C 0.08093 0.25396 0.7646 0.0
C561 C 0.13088 0.24452 0.81483 0.0
C562 C 0.1147 0.25088 0.78116 0.0
C563 C 0.06783 0.26297 0.67564 0.0
C564 C 0.08385 0.26012 0.71361 0.0
H565 H 0.17676 0.25501 0.84548 0.0
H566 H 0.14995 0.26648 0.79358 0.0
H567 H 0.09345 0.24476 0.83717 0.0
H568 H 0.03029 0.23887 0.62087 0.0
H569 H 0.05329 0.23749 0.6942 0.0
C570 C 0.2701 0.64942 0.40731 0.0
C571 C 0.26922 0.66727 0.38572 0.0
C572 C 0.26459 0.63346 0.37698 0.0
C573 C 0.23966 0.61811 0.2501 0.0
H574 H 0.26853 0.57269 0.26966 0.0
C575 C 0.25918 0.54711 0.12207 0.0
C576 C 0.24209 0.5446 0.09347 0.0
C577 C 0.26054 0.55984 0.16536 0.0
C578 C 0.26036 0.58526 0.26337 0.0
H579 H 0.26177 0.68241 0.3155 0.0
H580 H 0.25296 0.65456 0.26173 0.0
H581 H 0.27497 0.60008 0.32716 0.0
H582 H 0.21272 0.55217 0.0896 0.0
H583 H 0.21472 0.57359 0.1671 0.0
H584 H 0.22604 0.60381 0.18388 0.0
C585 C 0.25731 0.65284 0.30263 0.0
C586 C 0.26387 0.60096 0.29702 0.0
C587 C 0.26249 0.66885 0.33333 0.0
C588 C 0.22605 0.5539 0.11122 0.0
C589 C 0.2273 0.56636 0.15513 0.0
C590 C 0.23638 0.60253 0.21591 0.0
C591 C 0.2584 0.63488 0.32392 0.0
C592 C 0.25375 0.61772 0.29039 0.0
C593 C 0.24474 0.57014 0.1814 0.0
C594 C 0.24687 0.58594 0.22154 0.0
H595 H 0.275 0.64778 0.44785 0.0
H596 H 0.26523 0.62 0.39529 0.0
H597 H 0.23128 0.63057 0.24431 0.0
H598 H 0.2718 0.54031 0.10854 0.0
H599 H 0.27426 0.56243 0.18389 0.0
C600 C 0.35346 0.72361 0.62794 0.0
C601 C 0.33651 0.73343 0.63417 0.0
C602 C 0.3697 0.7291 0.65676 0.0
C603 C 0.39279 0.76824 0.73228 0.0
H604 H 0.41992 0.72844 0.80176 0.0
C605 C 0.44664 0.78054 0.90627 0.0
C606 C 0.46004 0.76652 0.91657 0.0
C607 C 0.43412 0.77868 0.86259 0.0
C608 C 0.41288 0.73974 0.78168 0.0
H609 H 0.3236 0.7571 0.67502 0.0
H610 H 0.35218 0.76668 0.72576 0.0
H611 H 0.39245 0.72087 0.74585 0.0
H612 H 0.47241 0.74091 0.88479 0.0
H613 H 0.45141 0.73829 0.80714 0.0
H614 H 0.41326 0.78714 0.76849 0.0
C615 C 0.35275 0.75473 0.69818 0.0
C616 C 0.39698 0.73537 0.74988 0.0
C617 C 0.33636 0.74915 0.66946 0.0
C618 C 0.46225 0.75195 0.87842 0.0
C619 C 0.44992 0.75025 0.83428 0.0
C620 C 0.40888 0.77262 0.76386 0.0
C621 C 0.36953 0.74462 0.69248 0.0
C622 C 0.38666 0.74955 0.72517 0.0
C623 C 0.43496 0.76293 0.82767 0.0
C624 C 0.41905 0.75842 0.78936 0.0
H625 H 0.35422 0.7115 0.60099 0.0
H626 H 0.38246 0.72116 0.65106 0.0
H627 H 0.3852 0.77943 0.71322 0.0
H628 H 0.44486 0.7922 0.93427 0.0
H629 H 0.42292 0.78884 0.85878 0.0
C630 C 0.78322 0.86202 0.13601 0.0
C631 C 0.77405 0.84478 0.14172 0.0
C632 C 0.77724 0.87827 0.16271 0.0
C633 C 0.73725 0.89992 0.22969 0.0
H634 H 0.77581 0.92977 0.30495 0.0
C635 C 0.72285 0.9521 0.40241 0.0
C636 C 0.73586 0.96656 0.41507 0.0
C637 C 0.72524 0.93996 0.35864 0.0
C638 C 0.76483 0.92196 0.28316 0.0
H639 H 0.75112 0.83129 0.17953 0.0
H640 H 0.74073 0.8598 0.22649 0.0
H641 H 0.78468 0.90267 0.25092 0.0
H642 H 0.76016 0.98107 0.38771 0.0
H643 H 0.76373 0.96055 0.30987 0.0
H644 H 0.71735 0.91916 0.26245 0.0
C645 C 0.7525 0.86064 0.20095 0.0
C646 C 0.76996 0.90629 0.25242 0.0
C647 C 0.75857 0.84428 0.17443 0.0
C648 C 0.7499 0.97005 0.37931 0.0
C649 C 0.75215 0.95805 0.3351 0.0
C650 C 0.7321 0.91575 0.26017 0.0
C651 C 0.76188 0.87777 0.19563 0.0
C652 C 0.75624 0.89494 0.22594 0.0
C653 C 0.74055 0.94219 0.32606 0.0
C654 C 0.74583 0.92682 0.28796 0.0
H655 H 0.79514 0.863 0.11103 0.0
H656 H 0.78464 0.89129 0.15744 0.0
H657 H 0.72639 0.89155 0.20911 0.0
H658 H 0.71166 0.94926 0.42872 0.0
H659 H 0.71594 0.92799 0.35302 0.0
C660 C 0.66338 0.27119 0.677 0.0
C661 C 0.65996 0.28311 0.6348 0.0
C662 C 0.64854 0.26427 0.70497 0.0
C663 C 0.59905 0.27313 0.73556 0.0
H664 H 0.60137 0.22193 0.78162 0.0
C665 C 0.54076 0.24077 0.85728 0.0
C666 C 0.54764 0.23204 0.90278 0.0
C667 C 0.55304 0.24568 0.81819 0.0
C668 C 0.60053 0.23626 0.76906 0.0
H669 H 0.6381 0.29714 0.58918 0.0
H670 H 0.61224 0.28494 0.63787 0.0
H671 H 0.62573 0.23353 0.72634 0.0
H672 H 0.57241 0.22068 0.94202 0.0
H673 H 0.59376 0.22913 0.87415 0.0
H674 H 0.57396 0.27589 0.77908 0.0
C675 C 0.62644 0.28111 0.64959 0.0
C676 C 0.61452 0.24294 0.73758 0.0
C677 C 0.6413 0.28805 0.62159 0.0
C678 C 0.56679 0.22756 0.90749 0.0
C679 C 0.57898 0.23226 0.8684 0.0
C680 C 0.58501 0.26642 0.76698 0.0
C681 C 0.62988 0.26905 0.69144 0.0
C682 C 0.61417 0.26157 0.72137 0.0
C683 C 0.57233 0.24165 0.82372 0.0
C684 C 0.58582 0.24803 0.78497 0.0
H685 H 0.67754 0.26711 0.68847 0.0
H686 H 0.65172 0.25529 0.73764 0.0
H687 H 0.59843 0.28759 0.72411 0.0
H688 H 0.52604 0.24438 0.85286 0.0
H689 H 0.54751 0.25279 0.78396 0.0
C690 C 0.21845 0.14644 0.10137 0.0
C691 C 0.22393 0.16458 0.11963 0.0
C692 C 0.22392 0.13071 0.12928 0.0
C693 C 0.2581 0.11468 0.23199 0.0
H694 H 0.22133 0.0755 0.24859 0.0
C695 C 0.24452 0.053 0.38454 0.0
C696 C 0.26291 0.0462 0.39158 0.0
C697 C 0.23993 0.06496 0.34368 0.0
C698 C 0.23177 0.08631 0.24433 0.0
H699 H 0.23963 0.18029 0.18164 0.0
H700 H 0.24886 0.15289 0.23081 0.0
H701 H 0.21326 0.10208 0.19466 0.0
H702 H 0.2906 0.04562 0.35914 0.0
H703 H 0.28246 0.06613 0.28682 0.0
H704 H 0.2763 0.09937 0.28361 0.0
C705 C 0.24058 0.15081 0.19434 0.0
C706 C 0.22721 0.10147 0.21297 0.0
C707 C 0.23517 0.16656 0.16631 0.0
C708 C 0.27628 0.05055 0.35462 0.0
C709 C 0.27168 0.06252 0.31363 0.0
C710 C 0.26264 0.09955 0.26345 0.0
C711 C 0.23497 0.13269 0.17628 0.0
C712 C 0.24023 0.11599 0.20703 0.0
C713 C 0.25362 0.07036 0.30874 0.0
C714 C 0.24943 0.0853 0.27065 0.0
H715 H 0.20993 0.14433 0.06534 0.0
H716 H 0.21958 0.11696 0.11379 0.0
H717 H 0.26856 0.12546 0.22764 0.0
H718 H 0.23387 0.04974 0.41213 0.0
H719 H 0.22591 0.07078 0.34139 0.0
C720 C 0.22085 0.29437 0.06755 0.0
C721 C 0.2207 0.28475 0.01801 0.0
C722 C 0.22202 0.31398 0.07124 0.0
C723 C 0.21741 0.35671 0.99131 0.0
H724 H 0.25208 0.37838 0.09831 0.0
C725 C 0.23559 0.43556 0.99611 0.0
C726 C 0.25486 0.43963 0.00197 0.0
C727 C 0.22882 0.41773 0.00689 0.0
C728 C 0.24234 0.37257 0.06816 0.0
H729 H 0.2212 0.28841 0.93343 0.0
H730 H 0.22361 0.32234 0.93994 0.0
H731 H 0.24496 0.345 0.09791 0.0
H732 H 0.28192 0.42859 0.02728 0.0
H733 H 0.27031 0.39752 0.04479 0.0
H734 H 0.21563 0.38404 0.95971 0.0
C735 C 0.22249 0.31482 0.976 0.0
C736 C 0.23807 0.35344 0.06832 0.0
C737 C 0.22126 0.29527 0.97229 0.0
C738 C 0.26703 0.42582 0.0216 0.0
C739 C 0.26031 0.40804 0.03226 0.0
C740 C 0.22176 0.37582 0.99099 0.0
C741 C 0.2231 0.32444 0.02552 0.0
C742 C 0.22589 0.34517 0.02912 0.0
C743 C 0.24119 0.40359 0.02384 0.0
C744 C 0.23463 0.38391 0.02867 0.0
H745 H 0.22031 0.28676 0.10362 0.0
H746 H 0.22218 0.32093 0.10999 0.0
H747 H 0.2077 0.3509 0.96109 0.0
H748 H 0.22584 0.44587 0.98089 0.0
H749 H 0.21397 0.41488 0.00073 0.0
C750 C 0.20594 0.73304 0.55379 0.0
C751 C 0.21594 0.72643 0.51008 0.0
C752 C 0.18638 0.7312 0.55387 0.0
C753 C 0.14821 0.70185 0.49837 0.0
H754 H 0.11553 0.74352 0.53394 0.0
C755 C 0.06837 0.69287 0.47932 0.0
C756 C 0.05757 0.70149 0.51841 0.0
C757 C 0.08729 0.6975 0.47567 0.0
C758 C 0.12444 0.73166 0.52457 0.0
H759 H 0.2132 0.71269 0.43226 0.0
H760 H 0.17921 0.70919 0.43302 0.0
H761 H 0.1495 0.74831 0.53481 0.0
H762 H 0.05776 0.72199 0.58353 0.0
H763 H 0.09103 0.7297 0.57861 0.0
H764 H 0.12354 0.68495 0.48988 0.0
C765 C 0.18649 0.7159 0.46699 0.0
C766 C 0.14389 0.73445 0.52493 0.0
C767 C 0.20596 0.71799 0.46652 0.0
C768 C 0.06582 0.71529 0.55275 0.0
C769 C 0.08488 0.71971 0.54975 0.0
C770 C 0.12886 0.69898 0.49875 0.0
C771 C 0.17652 0.72244 0.51067 0.0
C772 C 0.15593 0.71959 0.51146 0.0
C773 C 0.09598 0.71056 0.51183 0.0
C774 C 0.11665 0.71386 0.51143 0.0
H775 H 0.2132 0.73967 0.58789 0.0
H776 H 0.17902 0.73627 0.58817 0.0
H777 H 0.15721 0.69007 0.48862 0.0
H778 H 0.06224 0.68228 0.45213 0.0
H779 H 0.09517 0.69055 0.44493 0.0
C780 C 0.78938 0.71358 0.98406 0.0
C781 C 0.78093 0.72375 0.02531 0.0
C782 C 0.79093 0.69405 0.98501 0.0
C783 C 0.78812 0.65417 0.0758 0.0
H784 H 0.78694 0.62461 0.94406 0.0
C785 C 0.78769 0.57279 0.06551 0.0
C786 C 0.80243 0.56496 0.03687 0.0
C787 C 0.78345 0.5919 0.06252 0.0
C788 C 0.78727 0.63272 0.9811 0.0
H789 H 0.76716 0.72136 0.09949 0.0
H790 H 0.7691 0.68729 0.10017 0.0
H791 H 0.78234 0.65847 0.94256 0.0
H792 H 0.82382 0.57061 0.98123 0.0
H793 H 0.81602 0.60392 0.97468 0.0
H794 H 0.79258 0.62816 0.11409 0.0
C795 C 0.77514 0.69436 0.06782 0.0
C796 C 0.7848 0.65217 0.98036 0.0
C797 C 0.77391 0.71394 0.06734 0.0
C798 C 0.81239 0.57636 0.00367 0.0
C799 C 0.8079 0.59535 -0.00018 0.0
C800 C 0.79022 0.63468 0.07652 0.0
C801 C 0.78375 0.68412 0.02675 0.0
C802 C 0.78546 0.66323 0.02767 0.0
C803 C 0.79363 0.60337 0.02995 0.0
C804 C 0.79005 0.62382 0.02916 0.0
H805 H 0.7951 0.72074 0.95135 0.0
H806 H 0.79806 0.68683 0.95325 0.0
H807 H 0.78907 0.66212 0.11303 0.0
H808 H 0.77991 0.56429 0.09165 0.0
H809 H 0.77234 0.59776 0.08597 0.0
C810 C 0.78706 0.27948 0.55432 0.0
C811 C 0.77671 0.28624 0.51075 0.0
C812 C 0.8066 0.27821 0.55378 0.0
C813 C 0.84565 0.27613 0.46077 0.0
H814 H 0.87611 0.28038 0.59075 0.0
C815 C 0.92625 0.26571 0.46642 0.0
C816 C 0.93225 0.25185 0.50111 0.0
C817 C 0.90811 0.27313 0.46901 0.0
C818 C 0.86776 0.27923 0.55414 0.0
H819 H 0.77891 0.29766 0.43317 0.0
H820 H 0.81305 0.29605 0.43289 0.0
H821 H 0.84273 0.28784 0.59195 0.0
H822 H 0.92452 0.23551 0.56716 0.0
H823 H 0.89301 0.2488 0.57262 0.0
H824 H 0.87084 0.2676 0.42315 0.0
C825 C 0.80604 0.29119 0.46695 0.0
C826 C 0.8486 0.28336 0.55479 0.0
C827 C 0.78644 0.29221 0.4672 0.0
C828 C 0.92018 0.24618 0.53999 0.0
C829 C 0.90221 0.25384 0.54322 0.0
C830 C 0.86487 0.27228 0.46003 0.0
C831 C 0.81639 0.28391 0.50994 0.0
C832 C 0.83717 0.28144 0.50833 0.0
C833 C 0.89584 0.26707 0.50702 0.0
C834 C 0.87603 0.2734 0.50689 0.0
H835 H 0.78004 0.27462 0.58839 0.0
H836 H 0.81395 0.27219 0.58723 0.0
H837 H 0.83735 0.27419 0.42431 0.0
H838 H 0.93529 0.27019 0.4359 0.0
H839 H 0.90355 0.28337 0.44078 0.0
C840 C 0.72253 0.2162 0.46601 0.0
C841 C 0.71527 0.22657 0.50881 0.0
C842 C 0.72323 0.19662 0.4661 0.0
C843 C 0.72224 0.15728 0.55815 0.0
H844 H 0.72064 0.12725 0.42721 0.0
C845 C 0.7312 0.07666 0.55308 0.0
C846 C 0.74633 0.07076 0.52278 0.0
C847 C 0.72392 0.09478 0.54844 0.0
C848 C 0.72101 0.13548 0.46406 0.0
H849 H 0.7023 0.22446 0.58429 0.0
H850 H 0.70281 0.19029 0.5836 0.0
H851 H 0.71389 0.16077 0.42546 0.0
H852 H 0.76515 0.07853 0.46233 0.0
H853 H 0.75203 0.11001 0.45292 0.0
H854 H 0.72923 0.13181 0.59653 0.0
C855 C 0.70858 0.19726 0.55066 0.0
C856 C 0.7173 0.15472 0.46314 0.0
C857 C 0.70817 0.21688 0.55097 0.0
C858 C 0.75341 0.08281 0.48585 0.0
C859 C 0.74589 0.10075 0.48044 0.0
C860 C 0.72561 0.13798 0.5591 0.0
C861 C 0.7164 0.18684 0.5086 0.0
C862 C 0.71832 0.166 0.51005 0.0
C863 C 0.73142 0.10709 0.51268 0.0
C864 C 0.72543 0.12698 0.51197 0.0
H865 H 0.72825 0.22322 0.43306 0.0
H866 H 0.72971 0.18924 0.43345 0.0
H867 H 0.72349 0.16542 0.59503 0.0
H868 H 0.72567 0.06762 0.58215 0.0
H869 H 0.71273 0.09934 0.57364 0.0
C870 C 0.29027 0.21285 0.05051 0.0
C871 C 0.28044 0.22229 0.01047 0.0
C872 C 0.30983 0.21123 0.05027 0.0
C873 C 0.34996 0.21572 0.96098 0.0
H874 H 0.3796 0.21366 0.09212 0.0
C875 C 0.43106 0.21573 0.96808 0.0
C876 C 0.43904 0.20038 0.99375 0.0
C877 C 0.41205 0.22001 0.97322 0.0
C878 C 0.37146 0.21423 0.05525 0.0
H879 H 0.28347 0.23798 0.93973 0.0
H880 H 0.31748 0.23593 0.94048 0.0
H881 H 0.3457 0.21823 0.09467 0.0
H882 H 0.43378 0.17803 0.04675 0.0
H883 H 0.40063 0.18584 0.05692 0.0
H884 H 0.37589 0.21213 0.92183 0.0
C885 C 0.31016 0.22911 0.97109 0.0
C886 C 0.352 0.2167 0.05657 0.0
C887 C 0.29061 0.2304 0.97079 0.0
C888 C 0.42792 0.18992 0.02652 0.0
C889 C 0.40902 0.19442 0.03247 0.0
C890 C 0.36942 0.2136 0.95974 0.0
C891 C 0.32008 0.21932 0.01048 0.0
C892 C 0.34093 0.21731 0.00941 0.0
C893 C 0.4008 0.20925 0.00495 0.0
C894 C 0.38033 0.21268 0.00681 0.0
H895 H 0.28281 0.20633 0.08145 0.0
H896 H 0.31683 0.2033 0.08077 0.0
H897 H 0.342 0.21567 0.92376 0.0
H898 H 0.43932 0.22391 0.94232 0.0
H899 H 0.40605 0.23156 0.9518 0.0
C900 C 0.28702 0.79836 0.54798 0.0
C901 C 0.2789 0.78797 0.50474 0.0
C902 C 0.28898 0.81782 0.54629 0.0
C903 C 0.28906 0.85678 0.45257 0.0
H904 H 0.2851 0.88749 0.58125 0.0
C905 C 0.29128 0.93824 0.45792 0.0
C906 C 0.30429 0.94624 0.49526 0.0
C907 C 0.28676 0.91915 0.45879 0.0
C908 C 0.28627 0.87907 0.54504 0.0
H909 H 0.26622 0.78996 0.42603 0.0
H910 H 0.26907 0.82395 0.42369 0.0
H911 H 0.27962 0.85379 0.58291 0.0
H912 H 0.3223 0.9408 0.56372 0.0
H913 H 0.31418 0.90755 0.56582 0.0
H914 H 0.29542 0.88229 0.41477 0.0
C915 C 0.2744 0.81704 0.45846 0.0
C916 C 0.28325 0.85972 0.54597 0.0
C917 C 0.27267 0.79753 0.45988 0.0
C918 C 0.31232 0.93494 0.53427 0.0
C919 C 0.30759 0.91597 0.53567 0.0
C920 C 0.29182 0.87619 0.45154 0.0
C921 C 0.28264 0.82747 0.5016 0.0
C922 C 0.28487 0.84825 0.49991 0.0
C923 C 0.29492 0.90783 0.49763 0.0
C924 C 0.2907 0.88747 0.49791 0.0
H925 H 0.29215 0.79144 0.58297 0.0
H926 H 0.29578 0.82524 0.57984 0.0
H927 H 0.29073 0.84845 0.41646 0.0
H928 H 0.28495 0.94665 0.42731 0.0
H929 H 0.27688 0.91323 0.42917 0.0
C930 C 0.70848 0.78521 0.96628 0.0
C931 C 0.71841 0.78374 0.01498 0.0
C932 C 0.6889 0.78392 0.96321 0.0
C933 C 0.64649 0.78458 0.0452 0.0
H934 H 0.62494 0.75432 0.92785 0.0
C935 C 0.56735 0.76678 0.03103 0.0
C936 C 0.56307 0.7479 0.01779 0.0
C937 C 0.58542 0.7738 0.02444 0.0
C938 C 0.63072 0.76278 0.96095 0.0
H939 H 0.71538 0.78023 0.09888 0.0
H940 H 0.68138 0.77753 0.09335 0.0
H941 H 0.65826 0.76166 0.93067 0.0
H942 H 0.57407 0.72193 0.98424 0.0
H943 H 0.60553 0.73394 0.97398 0.0
H944 H 0.61913 0.7848 0.07692 0.0
C945 C 0.68866 0.78005 0.05757 0.0
C946 C 0.64982 0.76721 0.96225 0.0
C947 C 0.70822 0.78148 0.06072 0.0
C948 C 0.57699 0.73647 0.99555 0.0
C949 C 0.595 0.74344 0.98907 0.0
C950 C 0.62739 0.78005 0.04406 0.0
C951 C 0.67874 0.781 0.00868 0.0
C952 C 0.65805 0.77787 0.00489 0.0
C953 C 0.59958 0.7621 0.00437 0.0
C954 C 0.61934 0.76877 0.00243 0.0
H955 H 0.71584 0.78715 0.9303 0.0
H956 H 0.68173 0.78507 0.92504 0.0
H957 H 0.65226 0.79308 0.07822 0.0
H958 H 0.55697 0.77593 0.04847 0.0
H959 H 0.58839 0.78831 0.03595 0.0
loop_
_geom_bond_atom_site_label_1
_geom_bond_atom_site_label_2
_geom_bond_distance
_geom_bond_site_symmetry_2
_ccdc_geom_bond_type
Sc0 O3 2.025 . S
Sc0 O10 2.105 . S
Sc0 O13 2.105 . S
Sc0 O16 2.105 . S
Sc0 O19 2.105 . S
Sc1 O3 2.025 . S
Sc1 O11 2.105 . S
Sc1 O15 2.105 1_554 S
Sc1 O17 2.105 . S
Sc1 O21 2.105 1_554 S
Sc2 O3 2.025 1_556 S
Sc2 O12 2.105 . S
Sc2 O14 2.105 . S
Sc2 O18 2.105 . S
Sc2 O20 2.105 . S
O3 Sc0 2.025 . S
O3 Sc1 2.025 . S
O3 Sc2 2.025 1_554 S
C4 O10 1.268 . S
C4 O20 1.268 1_554 S
C5 O11 1.268 . S
C5 O19 1.268 . S
C6 O12 1.268 . S
C6 O21 1.268 . S
C7 O13 1.268 . S
C7 O17 1.268 . S
C8 O14 1.268 1_554 S
C8 O16 1.268 . S
C9 O15 1.268 . S
C9 O18 1.268 . S
O10 Sc0 2.105 . S
O10 C4 1.268 . S
O11 Sc1 2.105 . S
O11 C5 1.268 . S
O12 Sc2 2.105 . S
O12 C6 1.268 . S
O13 Sc0 2.105 . S
O13 C7 1.268 . S
O14 Sc2 2.105 . S
O14 C8 1.268 1_556 S
O15 Sc1 2.105 1_556 S
O15 C9 1.268 . S
O16 Sc0 2.105 . S
O16 C8 1.268 . S
O17 Sc1 2.105 . S
O17 C7 1.268 . S
O18 Sc2 2.105 . S
O18 C9 1.268 . S
O19 Sc0 2.105 . S
O19 C5 1.268 . S
O20 Sc2 2.105 . S
O20 C4 1.268 1_556 S
O21 Sc1 2.105 1_556 S
O21 C6 1.268 . S
Sc22 O25 2.025 . S
Sc22 O32 2.105 . S
Sc22 O35 2.105 . S
Sc22 O38 2.105 . S
Sc22 O41 2.105 . S
Sc23 O25 2.025 . S
Sc23 O33 2.105 . S
Sc23 O37 2.105 . S
Sc23 O39 2.105 . S
Sc23 O43 2.105 . S
Sc24 O25 2.025 . S
Sc24 O34 2.105 . S
Sc24 O36 2.105 . S
Sc24 O40 2.105 . S
Sc24 O42 2.105 . S
O25 Sc22 2.025 . S
O25 Sc23 2.025 . S
O25 Sc24 2.025 . S
C26 O32 1.268 . S
C26 O42 1.268 . S
C27 O33 1.268 . S
C27 O41 1.268 . S
C28 O34 1.268 . S
C28 O43 1.268 . S
C29 O35 1.268 . S
C29 O39 1.268 . S
C30 O36 1.268 . S
C30 O38 1.268 . S
C31 O37 1.268 . S
C31 O40 1.268 . S
O32 Sc22 2.105 . S
O32 C26 1.268 . S
O33 Sc23 2.105 . S
O33 C27 1.268 . S
O34 Sc24 2.105 . S
O34 C28 1.268 . S
O35 Sc22 2.105 . S
O35 C29 1.268 . S
O36 Sc24 2.105 . S
O36 C30 1.268 . S
O37 Sc23 2.105 . S
O37 C31 1.268 . S
O38 Sc22 2.105 . S
O38 C30 1.268 . S
O39 Sc23 2.105 . S
O39 C29 1.268 . S
O40 Sc24 2.105 . S
O40 C31 1.268 . S
O41 Sc22 2.105 . S
O41 C27 1.268 . S
O42 Sc24 2.105 . S
O42 C26 1.268 . S
O43 Sc23 2.105 . S
O43 C28 1.268 . S
Sc44 O47 2.025 1_556 S
Sc44 O54 2.105 . S
Sc44 O57 2.105 . S
Sc44 O60 2.105 . S
Sc44 O63 2.105 . S
Sc45 O47 2.025 . S
Sc45 O55 2.105 1_554 S
Sc45 O59 2.105 . S
Sc45 O61 2.105 1_554 S
Sc45 O65 2.105 . S
Sc46 O47 2.025 . S
Sc46 O56 2.105 . S
Sc46 O58 2.105 . S
Sc46 O62 2.105 . S
Sc46 O64 2.105 . S
O47 Sc44 2.025 1_554 S
O47 Sc45 2.025 . S
O47 Sc46 2.025 . S
C48 O54 1.268 1_554 S
C48 O64 1.268 . S
C49 O55 1.268 . S
C49 O63 1.268 . S
C50 O56 1.268 . S
C50 O65 1.268 . S
C51 O57 1.268 . S
C51 O61 1.268 . S
C52 O58 1.268 . S
C52 O60 1.268 1_554 S
C53 O59 1.268 . S
C53 O62 1.268 . S
O54 Sc44 2.105 . S
O54 C48 1.268 1_556 S
O55 Sc45 2.105 1_556 S
O55 C49 1.268 . S
O56 Sc46 2.105 . S
O56 C50 1.268 . S
O57 Sc44 2.105 . S
O57 C51 1.268 . S
O58 Sc46 2.105 . S
O58 C52 1.268 . S
O59 Sc45 2.105 . S
O59 C53 1.268 . S
O60 Sc44 2.105 . S
O60 C52 1.268 1_556 S
O61 Sc45 2.105 1_556 S
O61 C51 1.268 . S
O62 Sc46 2.105 . S
O62 C53 1.268 . S
O63 Sc44 2.105 . S
O63 C49 1.268 . S
O64 Sc46 2.105 . S
O64 C48 1.268 . S
O65 Sc45 2.105 . S
O65 C50 1.268 . S
Sc66 O69 2.025 . S
Sc66 O76 2.105 . S
Sc66 O79 2.105 . S
Sc66 O82 2.105 . S
Sc66 O85 2.105 . S
Sc67 O69 2.025 . S
Sc67 O77 2.105 . S
Sc67 O81 2.105 . S
Sc67 O83 2.105 . S
Sc67 O87 2.105 . S
Sc68 O69 2.025 . S
Sc68 O78 2.105 . S
Sc68 O80 2.105 . S
Sc68 O84 2.105 . S
Sc68 O86 2.105 . S
O69 Sc66 2.025 . S
O69 Sc67 2.025 . S
O69 Sc68 2.025 . S
C70 O76 1.268 . S
C70 O86 1.268 . S
C71 O77 1.268 . S
C71 O85 1.268 . S
C72 O78 1.268 . S
C72 O87 1.268 . S
C73 O79 1.268 . S
C73 O83 1.268 . S
C74 O80 1.268 . S
C74 O82 1.268 . S
C75 O81 1.268 . S
C75 O84 1.268 . S
O76 Sc66 2.105 . S
O76 C70 1.268 . S
O77 Sc67 2.105 . S
O77 C71 1.268 . S
O78 Sc68 2.105 . S
O78 C72 1.268 . S
O79 Sc66 2.105 . S
O79 C73 1.268 . S
O80 Sc68 2.105 . S
O80 C74 1.268 . S
O81 Sc67 2.105 . S
O81 C75 1.268 . S
O82 Sc66 2.105 . S
O82 C74 1.268 . S
O83 Sc67 2.105 . S
O83 C73 1.268 . S
O84 Sc68 2.105 . S
O84 C75 1.268 . S
O85 Sc66 2.105 . S
O85 C71 1.268 . S
O86 Sc68 2.105 . S
O86 C70 1.268 . S
O87 Sc67 2.105 . S
O87 C72 1.268 . S
H88 C89 0.949 . S
C89 H88 0.949 . S
C89 C90 1.395 . S
C89 C91 1.391 1_554 S
C90 C89 1.395 . S
C90 C93 1.400 . S
C91 C89 1.391 1_556 S
C91 C95 1.387 . S
C91 C96 1.491 . S
H92 C93 0.952 . S
C93 C90 1.400 . S
C93 H92 0.952 . S
C93 C94 1.367 1_554 S
C94 C93 1.367 1_556 S
C94 C95 1.409 . S
C95 C91 1.387 . S
C95 C94 1.409 . S
C95 H97 0.951 . S
C96 C91 1.491 . S
C96 C98 1.382 1_556 S
C96 C100 1.404 . S
H97 C95 0.951 . S
C98 C96 1.382 1_554 S
C98 C99 1.390 1_554 S
C98 H103 0.949 . S
C99 C98 1.390 1_556 S
C99 C104 1.399 . S
C100 C96 1.404 . S
C100 H101 0.950 . S
C100 C102 1.375 . S
H101 C100 0.950 . S
C102 C100 1.375 . S
C102 C104 1.382 . S
C102 H106 0.950 . S
H103 C98 0.949 . S
C104 C99 1.399 . S
C104 C102 1.382 . S
C104 H105 0.952 . S
H105 C104 0.952 . S
H106 C102 0.950 . S
H107 C108 0.949 . S
C108 H107 0.949 . S
C108 C109 1.395 . S
C108 C110 1.391 . S
C109 C108 1.395 . S
C109 C112 1.390 . S
C110 C108 1.391 . S
C110 C114 1.387 . S
C110 C115 1.491 1_655 S
H111 C112 0.950 . S
C112 C109 1.390 . S
C112 H111 0.950 . S
C112 C113 1.378 . S
C113 C112 1.378 . S
C113 C114 1.409 . S
C114 C110 1.387 . S
C114 C113 1.409 . S
C114 H116 0.951 . S
C115 C110 1.491 1_455 S
C115 C117 1.382 . S
C115 C119 1.404 . S
H116 C114 0.951 . S
C117 C115 1.382 . S
C117 C118 1.390 . S
C117 H122 0.949 . S
C118 C117 1.390 . S
C118 C123 1.399 . S
C119 C115 1.404 . S
C119 H120 0.950 . S
C119 C121 1.375 . S
H120 C119 0.950 . S
C121 C119 1.375 . S
C121 C123 1.382 . S
C121 H125 0.950 . S
H122 C117 0.949 . S
C123 C118 1.399 . S
C123 C121 1.382 . S
C123 H124 0.952 . S
H124 C123 0.952 . S
H125 C121 0.950 . S
H126 C127 0.949 . S
C127 H126 0.949 . S
C127 C128 1.395 . S
C127 C129 1.391 1_556 S
C128 C127 1.395 . S
C128 C131 1.390 1_556 S
C129 C127 1.391 1_554 S
C129 C133 1.387 . S
C129 C134 1.491 . S
H130 C131 0.950 . S
C131 C128 1.390 1_554 S
C131 H130 0.950 . S
C131 C132 1.378 . S
C132 C131 1.378 . S
C132 C133 1.409 . S
C133 C129 1.387 . S
C133 C132 1.409 . S
C133 H135 0.951 . S
C134 C129 1.491 . S
C134 C136 1.382 . S
C134 C138 1.404 . S
H135 C133 0.951 . S
C136 C134 1.382 . S
C136 C137 1.390 . S
C136 H141 0.949 1_554 S
C137 C136 1.390 . S
C137 C142 1.399 . S
C138 C134 1.404 . S
C138 H139 0.950 . S
C138 C140 1.375 . S
H139 C138 0.950 . S
C140 C138 1.375 . S
C140 C142 1.382 . S
C140 H144 0.950 . S
H141 C136 0.949 1_556 S
C142 C137 1.399 . S
C142 C140 1.382 . S
C142 H143 0.952 . S
H143 C142 0.952 . S
H144 C140 0.950 . S
H145 C146 0.949 . S
C146 H145 0.949 . S
C146 C147 1.395 . S
C146 C148 1.391 . S
C147 C146 1.395 . S
C147 C150 1.390 . S
C148 C146 1.391 . S
C148 C152 1.387 . S
C148 C153 1.491 1_455 S
H149 C150 0.950 . S
C150 C147 1.390 . S
C150 H149 0.950 . S
C150 C151 1.378 . S
C151 C150 1.378 . S
C151 C152 1.409 . S
C152 C148 1.387 . S
C152 C151 1.409 . S
C152 H154 0.951 . S
C153 C148 1.491 1_655 S
C153 C155 1.382 . S
C153 C157 1.404 . S
H154 C152 0.951 . S
C155 C153 1.382 . S
C155 C156 1.390 . S
C155 H160 0.949 . S
C156 C155 1.390 . S
C156 C161 1.399 . S
C157 C153 1.404 . S
C157 H158 0.950 . S
C157 C159 1.375 . S
H158 C157 0.950 . S
C159 C157 1.375 . S
C159 C161 1.382 . S
C159 H163 0.950 . S
H160 C155 0.949 . S
C161 C156 1.399 . S
C161 C159 1.382 . S
C161 H162 0.952 . S
H162 C161 0.952 . S
H163 C159 0.950 . S
H164 C165 0.949 . S
C165 H164 0.949 . S
C165 C166 1.395 . S
C165 C167 1.391 . S
C166 C165 1.395 . S
C166 C169 1.390 . S
C167 C165 1.391 . S
C167 C171 1.387 . S
C167 C172 1.491 1_565 S
H168 C169 0.950 . S
C169 C166 1.390 . S
C169 H168 0.950 . S
C169 C170 1.378 . S
C170 C169 1.378 . S
C170 C171 1.409 . S
C171 C167 1.387 . S
C171 C170 1.409 . S
C171 H173 0.951 . S
C172 C167 1.491 1_545 S
C172 C174 1.382 . S
C172 C176 1.404 . S
H173 C171 0.951 . S
C174 C172 1.382 . S
C174 C175 1.390 . S
C174 H179 0.949 . S
C175 C174 1.390 . S
C175 C180 1.399 . S
C176 C172 1.404 . S
C176 H177 0.950 . S
C176 C178 1.375 . S
H177 C176 0.950 . S
C178 C176 1.375 . S
C178 C180 1.382 . S
C178 H182 0.950 . S
H179 C174 0.949 . S
C180 C175 1.399 . S
C180 C178 1.382 . S
C180 H181 0.952 . S
H181 C180 0.952 . S
H182 C178 0.950 . S
H183 C184 0.949 . S
C184 H183 0.949 . S
C184 C185 1.395 . S
C184 C186 1.391 1_554 S
C185 C184 1.395 . S
C185 C188 1.404 . S
C186 C184 1.391 1_556 S
C186 C190 1.387 . S
C186 C191 1.491 . S
H187 C188 0.952 . S
C188 C185 1.404 . S
C188 H187 0.952 . S
C188 C189 1.362 1_554 S
C189 C188 1.362 1_556 S
C189 C190 1.409 . S
C190 C186 1.387 . S
C190 C189 1.409 . S
C190 H192 0.951 . S
C191 C186 1.491 . S
C191 C193 1.382 1_556 S
C191 C195 1.404 . S
H192 C190 0.951 . S
C193 C191 1.382 1_554 S
C193 C194 1.390 1_554 S
C193 H198 0.949 . S
C194 C193 1.390 1_556 S
C194 C199 1.399 . S
C195 C191 1.404 . S
C195 H196 0.950 . S
C195 C197 1.375 . S
H196 C195 0.950 . S
C197 C195 1.375 . S
C197 C199 1.382 . S
C197 H201 0.950 . S
H198 C193 0.949 . S
C199 C194 1.399 . S
C199 C197 1.382 . S
C199 H200 0.952 . S
H200 C199 0.952 . S
H201 C197 0.950 . S
H202 C203 0.949 . S
C203 H202 0.949 . S
C203 C204 1.395 . S
C203 C205 1.391 . S
C204 C203 1.395 . S
C204 C207 1.390 . S
C205 C203 1.391 . S
C205 C209 1.387 . S
C205 C210 1.491 1_545 S
H206 C207 0.950 . S
C207 C204 1.390 . S
C207 H206 0.950 . S
C207 C208 1.378 . S
C208 C207 1.378 . S
C208 C209 1.409 . S
C209 C205 1.387 . S
C209 C208 1.409 . S
C209 H211 0.951 . S
C210 C205 1.491 1_565 S
C210 C212 1.382 . S
C210 C214 1.404 . S
H211 C209 0.951 . S
C212 C210 1.382 . S
C212 C213 1.390 . S
C212 H217 0.949 . S
C213 C212 1.390 . S
C213 C218 1.399 . S
C214 C210 1.404 . S
C214 H215 0.950 . S
C214 C216 1.375 . S
H215 C214 0.950 . S
C216 C214 1.375 . S
C216 C218 1.382 . S
C216 H220 0.950 . S
H217 C212 0.949 . S
C218 C213 1.399 . S
C218 C216 1.382 . S
C218 H219 0.952 . S
H219 C218 0.952 . S
H220 C216 0.950 . S
H221 C222 0.949 . S
C222 H221 0.949 . S
C222 C223 1.395 . S
C222 C224 1.391 1_556 S
C223 C222 1.395 . S
C223 C226 1.390 1_556 S
C224 C222 1.391 1_554 S
C224 C228 1.387 . S
C224 C229 1.491 . S
H225 C226 0.950 . S
C226 C223 1.390 1_554 S
C226 H225 0.950 . S
C226 C227 1.378 . S
C227 C226 1.378 . S
C227 C228 1.409 . S
C228 C224 1.387 . S
C228 C227 1.409 . S
C228 H230 0.951 . S
C229 C224 1.491 . S
C229 C231 1.382 . S
C229 C233 1.404 . S
H230 C228 0.951 . S
C231 C229 1.382 . S
C231 C232 1.390 . S
C231 H236 0.949 1_554 S
C232 C231 1.390 . S
C232 C237 1.399 . S
C233 C229 1.404 . S
C233 H234 0.950 . S
C233 C235 1.375 . S
H234 C233 0.950 . S
C235 C233 1.375 . S
C235 C237 1.382 . S
C235 H239 0.950 . S
H236 C231 0.949 1_556 S
C237 C232 1.399 . S
C237 C235 1.382 . S
C237 H238 0.952 . S
H238 C237 0.952 . S
H239 C235 0.950 . S
C240 C241 1.349 . S
C240 C242 1.327 . S
C240 H265 0.950 . S
C241 C240 1.349 . S
C241 C257 1.349 . S
C242 C240 1.327 . S
C242 C261 1.429 . S
C242 H266 0.950 . S
C243 C260 1.574 . S
C243 C262 1.368 . S
C243 H267 0.949 . S
H244 C248 0.949 . S
C245 C246 1.349 . S
C245 C247 1.327 . S
C245 H268 0.950 . S
C246 C245 1.349 . S
C246 C258 1.349 . S
C247 C245 1.327 . S
C247 C263 1.429 . S
C247 H269 0.950 . S
C248 H244 0.949 . S
C248 C256 1.574 . S
C248 C264 1.368 . S
H249 C257 0.950 . S
H250 C255 0.950 . S
H251 C256 0.949 . S
H252 C258 0.950 . S
H253 C259 0.950 . S
H254 C260 0.949 . S
C255 H250 0.950 . S
C255 C257 1.327 . S
C255 C261 1.429 . S
C256 C248 1.574 . S
C256 H251 0.949 . S
C256 C262 1.368 . S
C257 C241 1.349 . S
C257 H249 0.950 . S
C257 C255 1.327 . S
C258 C246 1.349 . S
C258 H252 0.950 . S
C258 C259 1.327 . S
C259 H253 0.950 . S
C259 C258 1.327 . S
C259 C263 1.429 . S
C260 C243 1.574 . S
C260 H254 0.949 . S
C260 C264 1.368 . S
C261 C242 1.429 . S
C261 C255 1.429 . S
C261 C262 1.523 . S
C262 C243 1.368 . S
C262 C256 1.368 . S
C262 C261 1.523 . S
C263 C247 1.429 . S
C263 C259 1.429 . S
C263 C264 1.523 . S
C264 C248 1.368 . S
C264 C260 1.368 . S
C264 C263 1.523 . S
H265 C240 0.950 . S
H266 C242 0.950 . S
H267 C243 0.949 . S
H268 C245 0.950 . S
H269 C247 0.950 . S
C270 C271 1.349 . S
C270 C272 1.327 . S
C270 H295 0.950 . S
C271 C270 1.349 . S
C271 C287 1.349 . S
C272 C270 1.327 . S
C272 C291 1.429 . S
C272 H296 0.950 . S
C273 C290 1.574 . S
C273 C292 1.368 . S
C273 H297 0.949 . S
H274 C278 0.949 . S
C275 C276 1.349 . S
C275 C277 1.327 . S
C275 H298 0.950 . S
C276 C275 1.349 . S
C276 C288 1.349 . S
C277 C275 1.327 . S
C277 C293 1.429 . S
C277 H299 0.950 . S
C278 H274 0.949 . S
C278 C286 1.574 . S
C278 C294 1.368 . S
H279 C287 0.950 . S
H280 C285 0.950 . S
H281 C286 0.949 . S
H282 C288 0.950 . S
H283 C289 0.950 . S
H284 C290 0.949 . S
C285 H280 0.950 . S
C285 C287 1.327 . S
C285 C291 1.429 . S
C286 C278 1.574 . S
C286 H281 0.949 . S
C286 C292 1.368 . S
C287 C271 1.349 . S
C287 H279 0.950 . S
C287 C285 1.327 . S
C288 C276 1.349 . S
C288 H282 0.950 . S
C288 C289 1.327 . S
C289 H283 0.950 . S
C289 C288 1.327 . S
C289 C293 1.429 . S
C290 C273 1.574 . S
C290 H284 0.949 . S
C290 C294 1.368 . S
C291 C272 1.429 . S
C291 C285 1.429 . S
C291 C292 1.523 . S
C292 C273 1.368 . S
C292 C286 1.368 . S
C292 C291 1.523 . S
C293 C277 1.429 . S
C293 C289 1.429 . S
C293 C294 1.523 . S
C294 C278 1.368 . S
C294 C290 1.368 . S
C294 C293 1.523 . S
H295 C270 0.950 . S
H296 C272 0.950 . S
H297 C273 0.949 . S
H298 C275 0.950 . S
H299 C277 0.950 . S
C300 C301 1.349 . S
C300 C302 1.327 . S
C300 H325 0.950 . S
C301 C300 1.349 . S
C301 C317 1.349 . S
C302 C300 1.327 . S
C302 C321 1.429 . S
C302 H326 0.950 . S
C303 C320 1.574 . S
C303 C322 1.368 . S
C303 H327 0.949 . S
H304 C308 0.949 . S
C305 C306 1.349 . S
C305 C307 1.327 . S
C305 H328 0.950 . S
C306 C305 1.349 . S
C306 C318 1.349 . S
C307 C305 1.327 . S
C307 C323 1.429 . S
C307 H329 0.950 . S
C308 H304 0.949 . S
C308 C316 1.574 . S
C308 C324 1.368 . S
H309 C317 0.950 . S
H310 C315 0.950 . S
H311 C316 0.949 . S
H312 C318 0.950 . S
H313 C319 0.950 . S
H314 C320 0.949 . S
C315 H310 0.950 . S
C315 C317 1.327 . S
C315 C321 1.429 . S
C316 C308 1.574 . S
C316 H311 0.949 . S
C316 C322 1.368 . S
C317 C301 1.349 . S
C317 H309 0.950 . S
C317 C315 1.327 . S
C318 C306 1.349 . S
C318 H312 0.950 . S
C318 C319 1.327 . S
C319 H313 0.950 . S
C319 C318 1.327 . S
C319 C323 1.429 . S
C320 C303 1.574 . S
C320 H314 0.949 . S
C320 C324 1.368 . S
C321 C302 1.429 . S
C321 C315 1.429 . S
C321 C322 1.523 . S
C322 C303 1.368 . S
C322 C316 1.368 . S
C322 C321 1.523 . S
C323 C307 1.429 . S
C323 C319 1.429 . S
C323 C324 1.523 . S
C324 C308 1.368 . S
C324 C320 1.368 . S
C324 C323 1.523 . S
H325 C300 0.950 . S
H326 C302 0.950 . S
H327 C303 0.949 . S
H328 C305 0.950 . S
H329 C307 0.950 . S
C330 C331 1.349 . S
C330 C332 1.327 . S
C330 H355 0.950 . S
C331 C330 1.349 . S
C331 C347 1.349 . S
C332 C330 1.327 . S
C332 C351 1.429 . S
C332 H356 0.950 . S
C333 C350 1.574 . S
C333 C352 1.368 . S
C333 H357 0.949 . S
H334 C338 0.949 . S
C335 C336 1.349 . S
C335 C337 1.327 . S
C335 H358 0.950 . S
C336 C335 1.349 . S
C336 C348 1.349 . S
C337 C335 1.327 . S
C337 C353 1.429 . S
C337 H359 0.950 . S
C338 H334 0.949 . S
C338 C346 1.574 . S
C338 C354 1.368 . S
H339 C347 0.950 . S
H340 C345 0.950 . S
H341 C346 0.949 . S
H342 C348 0.950 . S
H343 C349 0.950 . S
H344 C350 0.949 . S
C345 H340 0.950 . S
C345 C347 1.327 . S
C345 C351 1.429 . S
C346 C338 1.574 . S
C346 H341 0.949 . S
C346 C352 1.368 . S
C347 C331 1.349 . S
C347 H339 0.950 . S
C347 C345 1.327 . S
C348 C336 1.349 . S
C348 H342 0.950 . S
C348 C349 1.327 . S
C349 H343 0.950 . S
C349 C348 1.327 . S
C349 C353 1.429 . S
C350 C333 1.574 . S
C350 H344 0.949 . S
C350 C354 1.368 . S
C351 C332 1.429 . S
C351 C345 1.429 . S
C351 C352 1.523 . S
C352 C333 1.368 . S
C352 C346 1.368 . S
C352 C351 1.523 . S
C353 C337 1.429 . S
C353 C349 1.429 . S
C353 C354 1.523 . S
C354 C338 1.368 . S
C354 C350 1.368 . S
C354 C353 1.523 . S
H355 C330 0.950 . S
H356 C332 0.950 . S
H357 C333 0.949 . S
H358 C335 0.950 . S
H359 C337 0.950 . S
C360 C361 1.349 . S
C360 C362 1.327 . S
C360 H385 0.950 . S
C361 C360 1.349 . S
C361 C377 1.349 . S
C362 C360 1.327 . S
C362 C381 1.429 . S
C362 H386 0.950 . S
C363 C380 1.574 . S
C363 C382 1.368 . S
C363 H387 0.949 . S
H364 C368 0.949 . S
C365 C366 1.349 . S
C365 C367 1.327 . S
C365 H388 0.950 . S
C366 C365 1.349 . S
C366 C378 1.349 . S
C367 C365 1.327 . S
C367 C383 1.429 . S
C367 H389 0.950 . S
C368 H364 0.949 . S
C368 C376 1.574 . S
C368 C384 1.368 . S
H369 C377 0.950 . S
H370 C375 0.950 . S
H371 C376 0.949 . S
H372 C378 0.950 . S
H373 C379 0.950 . S
H374 C380 0.949 . S
C375 H370 0.950 . S
C375 C377 1.327 . S
C375 C381 1.429 . S
C376 C368 1.574 . S
C376 H371 0.949 . S
C376 C382 1.368 . S
C377 C361 1.349 . S
C377 H369 0.950 . S
C377 C375 1.327 . S
C378 C366 1.349 . S
C378 H372 0.950 . S
C378 C379 1.327 . S
C379 H373 0.950 . S
C379 C378 1.327 . S
C379 C383 1.429 . S
C380 C363 1.574 . S
C380 H374 0.949 . S
C380 C384 1.368 . S
C381 C362 1.429 . S
C381 C375 1.429 . S
C381 C382 1.523 . S
C382 C363 1.368 . S
C382 C376 1.368 . S
C382 C381 1.523 . S
C383 C367 1.429 . S
C383 C379 1.429 . S
C383 C384 1.523 . S
C384 C368 1.368 . S
C384 C380 1.368 . S
C384 C383 1.523 . S
H385 C360 0.950 . S
H386 C362 0.950 . S
H387 C363 0.949 . S
H388 C365 0.950 . S
H389 C367 0.950 . S
C390 C391 1.349 . S
C390 C392 1.327 . S
C390 H415 0.950 . S
C391 C390 1.349 . S
C391 C407 1.349 . S
C392 C390 1.327 . S
C392 C411 1.429 . S
C392 H416 0.950 . S
C393 C410 1.574 . S
C393 C412 1.368 . S
C393 H417 0.949 . S
H394 C398 0.949 . S
C395 C396 1.349 . S
C395 C397 1.327 . S
C395 H418 0.950 . S
C396 C395 1.349 . S
C396 C408 1.349 . S
C397 C395 1.327 . S
C397 C413 1.429 . S
C397 H419 0.950 . S
C398 H394 0.949 . S
C398 C406 1.574 . S
C398 C414 1.368 . S
H399 C407 0.950 . S
H400 C405 0.950 . S
H401 C406 0.949 . S
H402 C408 0.950 . S
H403 C409 0.950 . S
H404 C410 0.949 . S
C405 H400 0.950 . S
C405 C407 1.327 . S
C405 C411 1.429 . S
C406 C398 1.574 . S
C406 H401 0.949 . S
C406 C412 1.368 . S
C407 C391 1.349 . S
C407 H399 0.950 . S
C407 C405 1.327 . S
C408 C396 1.349 . S
C408 H402 0.950 . S
C408 C409 1.327 . S
C409 H403 0.950 . S
C409 C408 1.327 . S
C409 C413 1.429 . S
C410 C393 1.574 . S
C410 H404 0.949 . S
C410 C414 1.368 . S
C411 C392 1.429 . S
C411 C405 1.429 . S
C411 C412 1.523 . S
C412 C393 1.368 . S
C412 C406 1.368 . S
C412 C411 1.523 . S
C413 C397 1.429 . S
C413 C409 1.429 . S
C413 C414 1.523 . S
C414 C398 1.368 . S
C414 C410 1.368 . S
C414 C413 1.523 . S
H415 C390 0.950 . S
H416 C392 0.950 . S
H417 C393 0.949 . S
H418 C395 0.950 . S
H419 C397 0.950 . S
C420 C421 1.349 . S
C420 C422 1.327 . S
C420 H445 0.950 . S
C421 C420 1.349 . S
C421 C437 1.349 . S
C422 C420 1.327 . S
C422 C441 1.429 . S
C422 H446 0.950 . S
C423 C440 1.574 . S
C423 C442 1.368 . S
C423 H447 0.949 . S
H424 C428 0.949 . S
C425 C426 1.349 . S
C425 C427 1.327 . S
C425 H448 0.950 . S
C426 C425 1.349 . S
C426 C438 1.349 . S
C427 C425 1.327 . S
C427 C443 1.429 . S
C427 H449 0.950 . S
C428 H424 0.949 . S
C428 C436 1.574 . S
C428 C444 1.368 . S
H429 C437 0.950 . S
H430 C435 0.950 . S
H431 C436 0.949 . S
H432 C438 0.950 . S
H433 C439 0.950 . S
H434 C440 0.949 . S
C435 H430 0.950 . S
C435 C437 1.327 . S
C435 C441 1.429 . S
C436 C428 1.574 . S
C436 H431 0.949 . S
C436 C442 1.368 . S
C437 C421 1.349 . S
C437 H429 0.950 . S
C437 C435 1.327 . S
C438 C426 1.349 . S
C438 H432 0.950 . S
C438 C439 1.327 . S
C439 H433 0.950 . S
C439 C438 1.327 . S
C439 C443 1.429 . S
C440 C423 1.574 . S
C440 H434 0.949 . S
C440 C444 1.368 . S
C441 C422 1.429 . S
C441 C435 1.429 . S
C441 C442 1.523 . S
C442 C423 1.368 . S
C442 C436 1.368 . S
C442 C441 1.523 . S
C443 C427 1.429 . S
C443 C439 1.429 . S
C443 C444 1.523 . S
C444 C428 1.368 . S
C444 C440 1.368 . S
C444 C443 1.523 . S
H445 C420 0.950 . S
H446 C422 0.950 . S
H447 C423 0.949 . S
H448 C425 0.950 . S
H449 C427 0.950 . S
C450 C451 1.349 . S
C450 C452 1.327 . S
C450 H475 0.950 . S
C451 C450 1.349 . S
C451 C467 1.349 . S
C452 C450 1.327 . S
C452 C471 1.429 . S
C452 H476 0.950 . S
C453 C470 1.574 . S
C453 C472 1.368 . S
C453 H477 0.949 . S
H454 C458 0.949 . S
C455 C456 1.349 . S
C455 C457 1.327 . S
C455 H478 0.950 . S
C456 C455 1.349 . S
C456 C468 1.349 . S
C457 C455 1.327 . S
C457 C473 1.429 . S
C457 H479 0.950 . S
C458 H454 0.949 . S
C458 C466 1.574 . S
C458 C474 1.368 . S
H459 C467 0.950 . S
H460 C465 0.950 . S
H461 C466 0.949 . S
H462 C468 0.950 . S
H463 C469 0.950 . S
H464 C470 0.949 . S
C465 H460 0.950 . S
C465 C467 1.327 . S
C465 C471 1.429 . S
C466 C458 1.574 . S
C466 H461 0.949 . S
C466 C472 1.368 . S
C467 C451 1.349 . S
C467 H459 0.950 . S
C467 C465 1.327 . S
C468 C456 1.349 . S
C468 H462 0.950 . S
C468 C469 1.327 . S
C469 H463 0.950 . S
C469 C468 1.327 . S
C469 C473 1.429 . S
C470 C453 1.574 . S
C470 H464 0.949 . S
C470 C474 1.368 . S
C471 C452 1.429 . S
C471 C465 1.429 . S
C471 C472 1.523 . S
C472 C453 1.368 . S
C472 C466 1.368 . S
C472 C471 1.523 . S
C473 C457 1.429 . S
C473 C469 1.429 . S
C473 C474 1.523 . S
C474 C458 1.368 . S
C474 C470 1.368 . S
C474 C473 1.523 . S
H475 C450 0.950 . S
H476 C452 0.950 . S
H477 C453 0.949 . S
H478 C455 0.950 . S
H479 C457 0.950 . S
C480 C481 1.349 . S
C480 C482 1.327 . S
C480 H505 0.950 . S
C481 C480 1.349 . S
C481 C497 1.349 . S
C482 C480 1.327 . S
C482 C501 1.429 . S
C482 H506 0.950 . S
C483 C500 1.574 . S
C483 C502 1.368 . S
C483 H507 0.949 . S
H484 C488 0.949 . S
C485 C486 1.349 . S
C485 C487 1.327 . S
C485 H508 0.950 . S
C486 C485 1.349 . S
C486 C498 1.349 . S
C487 C485 1.327 . S
C487 C503 1.429 . S
C487 H509 0.950 . S
C488 H484 0.949 . S
C488 C496 1.574 . S
C488 C504 1.368 . S
H489 C497 0.950 . S
H490 C495 0.950 . S
H491 C496 0.949 . S
H492 C498 0.950 . S
H493 C499 0.950 . S
H494 C500 0.949 . S
C495 H490 0.950 . S
C495 C497 1.327 . S
C495 C501 1.429 . S
C496 C488 1.574 . S
C496 H491 0.949 . S
C496 C502 1.368 . S
C497 C481 1.349 . S
C497 H489 0.950 . S
C497 C495 1.327 . S
C498 C486 1.349 . S
C498 H492 0.950 . S
C498 C499 1.327 . S
C499 H493 0.950 . S
C499 C498 1.327 . S
C499 C503 1.429 . S
C500 C483 1.574 . S
C500 H494 0.949 . S
C500 C504 1.368 . S
C501 C482 1.429 . S
C501 C495 1.429 . S
C501 C502 1.523 . S
C502 C483 1.368 . S
C502 C496 1.368 . S
C502 C501 1.523 . S
C503 C487 1.429 . S
C503 C499 1.429 . S
C503 C504 1.523 . S
C504 C488 1.368 . S
C504 C500 1.368 . S
C504 C503 1.523 . S
H505 C480 0.950 . S
H506 C482 0.950 . S
H507 C483 0.949 . S
H508 C485 0.950 . S
H509 C487 0.950 . S
C510 C511 1.349 . S
C510 C512 1.327 . S
C510 H535 0.950 . S
C511 C510 1.349 . S
C511 C527 1.349 . S
C512 C510 1.327 . S
C512 C531 1.429 . S
C512 H536 0.950 . S
C513 C530 1.574 . S
C513 C532 1.368 . S
C513 H537 0.949 . S
H514 C518 0.949 . S
C515 C516 1.349 . S
C515 C517 1.327 . S
C515 H538 0.950 . S
C516 C515 1.349 . S
C516 C528 1.349 . S
C517 C515 1.327 . S
C517 C533 1.429 . S
C517 H539 0.950 . S
C518 H514 0.949 . S
C518 C526 1.574 . S
C518 C534 1.368 . S
H519 C527 0.950 . S
H520 C525 0.950 . S
H521 C526 0.949 . S
H522 C528 0.950 . S
H523 C529 0.950 . S
H524 C530 0.949 . S
C525 H520 0.950 . S
C525 C527 1.327 . S
C525 C531 1.429 . S
C526 C518 1.574 . S
C526 H521 0.949 . S
C526 C532 1.368 . S
C527 C511 1.349 . S
C527 H519 0.950 . S
C527 C525 1.327 . S
C528 C516 1.349 . S
C528 H522 0.950 . S
C528 C529 1.327 . S
C529 H523 0.950 . S
C529 C528 1.327 . S
C529 C533 1.429 . S
C530 C513 1.574 . S
C530 H524 0.949 . S
C530 C534 1.368 . S
C531 C512 1.429 . S
C531 C525 1.429 . S
C531 C532 1.523 . S
C532 C513 1.368 . S
C532 C526 1.368 . S
C532 C531 1.523 . S
C533 C517 1.429 . S
C533 C529 1.429 . S
C533 C534 1.523 . S
C534 C518 1.368 . S
C534 C530 1.368 . S
C534 C533 1.523 . S
H535 C510 0.950 . S
H536 C512 0.950 . S
H537 C513 0.949 . S
H538 C515 0.950 . S
H539 C517 0.950 . S
C540 C541 1.349 . S
C540 C542 1.327 . S
C540 H565 0.950 . S
C541 C540 1.349 . S
C541 C557 1.349 . S
C542 C540 1.327 . S
C542 C561 1.429 . S
C542 H566 0.950 . S
C543 C560 1.574 . S
C543 C562 1.368 . S
C543 H567 0.949 . S
H544 C548 0.949 . S
C545 C546 1.349 . S
C545 C547 1.327 . S
C545 H568 0.950 . S
C546 C545 1.349 . S
C546 C558 1.349 . S
C547 C545 1.327 . S
C547 C563 1.429 . S
C547 H569 0.950 . S
C548 H544 0.949 . S
C548 C556 1.574 . S
C548 C564 1.368 . S
H549 C557 0.950 . S
H550 C555 0.950 . S
H551 C556 0.949 . S
H552 C558 0.950 . S
H553 C559 0.950 . S
H554 C560 0.949 . S
C555 H550 0.950 . S
C555 C557 1.327 . S
C555 C561 1.429 . S
C556 C548 1.574 . S
C556 H551 0.949 . S
C556 C562 1.368 . S
C557 C541 1.349 . S
C557 H549 0.950 . S
C557 C555 1.327 . S
C558 C546 1.349 . S
C558 H552 0.950 . S
C558 C559 1.327 . S
C559 H553 0.950 . S
C559 C558 1.327 . S
C559 C563 1.429 . S
C560 C543 1.574 . S
C560 H554 0.949 . S
C560 C564 1.368 . S
C561 C542 1.429 . S
C561 C555 1.429 . S
C561 C562 1.523 . S
C562 C543 1.368 . S
C562 C556 1.368 . S
C562 C561 1.523 . S
C563 C547 1.429 . S
C563 C559 1.429 . S
C563 C564 1.523 . S
C564 C548 1.368 . S
C564 C560 1.368 . S
C564 C563 1.523 . S
H565 C540 0.950 . S
H566 C542 0.950 . S
H567 C543 0.949 . S
H568 C545 0.950 . S
H569 C547 0.950 . S
C570 C571 1.349 . S
C570 C572 1.327 . S
C570 H595 0.950 . S
C571 C570 1.349 . S
C571 C587 1.349 . S
C572 C570 1.327 . S
C572 C591 1.429 . S
C572 H596 0.950 . S
C573 C590 1.574 . S
C573 C592 1.368 . S
C573 H597 0.949 . S
H574 C578 0.949 . S
C575 C576 1.349 . S
C575 C577 1.327 . S
C575 H598 0.950 . S
C576 C575 1.349 . S
C576 C588 1.349 . S
C577 C575 1.327 . S
C577 C593 1.429 . S
C577 H599 0.950 . S
C578 H574 0.949 . S
C578 C586 1.574 . S
C578 C594 1.368 . S
H579 C587 0.950 . S
H580 C585 0.950 . S
H581 C586 0.949 . S
H582 C588 0.950 . S
H583 C589 0.950 . S
H584 C590 0.949 . S
C585 H580 0.950 . S
C585 C587 1.327 . S
C585 C591 1.429 . S
C586 C578 1.574 . S
C586 H581 0.949 . S
C586 C592 1.368 . S
C587 C571 1.349 . S
C587 H579 0.950 . S
C587 C585 1.327 . S
C588 C576 1.349 . S
C588 H582 0.950 . S
C588 C589 1.327 . S
C589 H583 0.950 . S
C589 C588 1.327 . S
C589 C593 1.429 . S
C590 C573 1.574 . S
C590 H584 0.949 . S
C590 C594 1.368 . S
C591 C572 1.429 . S
C591 C585 1.429 . S
C591 C592 1.523 . S
C592 C573 1.368 . S
C592 C586 1.368 . S
C592 C591 1.523 . S
C593 C577 1.429 . S
C593 C589 1.429 . S
C593 C594 1.523 . S
C594 C578 1.368 . S
C594 C590 1.368 . S
C594 C593 1.523 . S
H595 C570 0.950 . S
H596 C572 0.950 . S
H597 C573 0.949 . S
H598 C575 0.950 . S
H599 C577 0.950 . S
C600 C601 1.349 . S
C600 C602 1.327 . S
C600 H625 0.950 . S
C601 C600 1.349 . S
C601 C617 1.349 . S
C602 C600 1.327 . S
C602 C621 1.429 . S
C602 H626 0.950 . S
C603 C620 1.574 . S
C603 C622 1.368 . S
C603 H627 0.949 . S
H604 C608 0.949 . S
C605 C606 1.349 . S
C605 C607 1.327 . S
C605 H628 0.950 . S
C606 C605 1.349 . S
C606 C618 1.349 . S
C607 C605 1.327 . S
C607 C623 1.429 . S
C607 H629 0.950 . S
C608 H604 0.949 . S
C608 C616 1.574 . S
C608 C624 1.368 . S
H609 C617 0.950 . S
H610 C615 0.950 . S
H611 C616 0.949 . S
H612 C618 0.950 . S
H613 C619 0.950 . S
H614 C620 0.949 . S
C615 H610 0.950 . S
C615 C617 1.327 . S
C615 C621 1.429 . S
C616 C608 1.574 . S
C616 H611 0.949 . S
C616 C622 1.368 . S
C617 C601 1.349 . S
C617 H609 0.950 . S
C617 C615 1.327 . S
C618 C606 1.349 . S
C618 H612 0.950 . S
C618 C619 1.327 . S
C619 H613 0.950 . S
C619 C618 1.327 . S
C619 C623 1.429 . S
C620 C603 1.574 . S
C620 H614 0.949 . S
C620 C624 1.368 . S
C621 C602 1.429 . S
C621 C615 1.429 . S
C621 C622 1.523 . S
C622 C603 1.368 . S
C622 C616 1.368 . S
C622 C621 1.523 . S
C623 C607 1.429 . S
C623 C619 1.429 . S
C623 C624 1.523 . S
C624 C608 1.368 . S
C624 C620 1.368 . S
C624 C623 1.523 . S
H625 C600 0.950 . S
H626 C602 0.950 . S
H627 C603 0.949 . S
H628 C605 0.950 . S
H629 C607 0.950 . S
C630 C631 1.349 . S
C630 C632 1.327 . S
C630 H655 0.950 . S
C631 C630 1.349 . S
C631 C647 1.349 . S
C632 C630 1.327 . S
C632 C651 1.429 . S
C632 H656 0.950 . S
C633 C650 1.574 . S
C633 C652 1.368 . S
C633 H657 0.949 . S
H634 C638 0.949 . S
C635 C636 1.349 . S
C635 C637 1.327 . S
C635 H658 0.950 . S
C636 C635 1.349 . S
C636 C648 1.349 . S
C637 C635 1.327 . S
C637 C653 1.429 . S
C637 H659 0.950 . S
C638 H634 0.949 . S
C638 C646 1.574 . S
C638 C654 1.368 . S
H639 C647 0.950 . S
H640 C645 0.950 . S
H641 C646 0.949 . S
H642 C648 0.950 . S
H643 C649 0.950 . S
H644 C650 0.949 . S
C645 H640 0.950 . S
C645 C647 1.327 . S
C645 C651 1.429 . S
C646 C638 1.574 . S
C646 H641 0.949 . S
C646 C652 1.368 . S
C647 C631 1.349 . S
C647 H639 0.950 . S
C647 C645 1.327 . S
C648 C636 1.349 . S
C648 H642 0.950 . S
C648 C649 1.327 . S
C649 H643 0.950 . S
C649 C648 1.327 . S
C649 C653 1.429 . S
C650 C633 1.574 . S
C650 H644 0.949 . S
C650 C654 1.368 . S
C651 C632 1.429 . S
C651 C645 1.429 . S
C651 C652 1.523 . S
C652 C633 1.368 . S
C652 C646 1.368 . S
C652 C651 1.523 . S
C653 C637 1.429 . S
C653 C649 1.429 . S
C653 C654 1.523 . S
C654 C638 1.368 . S
C654 C650 1.368 . S
C654 C653 1.523 . S
H655 C630 0.950 . S
H656 C632 0.950 . S
H657 C633 0.949 . S
H658 C635 0.950 . S
H659 C637 0.950 . S
C660 C661 1.349 . S
C660 C662 1.327 . S
C660 H685 0.950 . S
C661 C660 1.349 . S
C661 C677 1.349 . S
C662 C660 1.327 . S
C662 C681 1.429 . S
C662 H686 0.950 . S
C663 C680 1.574 . S
C663 C682 1.368 . S
C663 H687 0.949 . S
H664 C668 0.949 . S
C665 C666 1.349 . S
C665 C667 1.327 . S
C665 H688 0.950 . S
C666 C665 1.349 . S
C666 C678 1.349 . S
C667 C665 1.327 . S
C667 C683 1.429 . S
C667 H689 0.950 . S
C668 H664 0.949 . S
C668 C676 1.574 . S
C668 C684 1.368 . S
H669 C677 0.950 . S
H670 C675 0.950 . S
H671 C676 0.949 . S
H672 C678 0.950 . S
H673 C679 0.950 . S
H674 C680 0.949 . S
C675 H670 0.950 . S
C675 C677 1.327 . S
C675 C681 1.429 . S
C676 C668 1.574 . S
C676 H671 0.949 . S
C676 C682 1.368 . S
C677 C661 1.349 . S
C677 H669 0.950 . S
C677 C675 1.327 . S
C678 C666 1.349 . S
C678 H672 0.950 . S
C678 C679 1.327 . S
C679 H673 0.950 . S
C679 C678 1.327 . S
C679 C683 1.429 . S
C680 C663 1.574 . S
C680 H674 0.949 . S
C680 C684 1.368 . S
C681 C662 1.429 . S
C681 C675 1.429 . S
C681 C682 1.523 . S
C682 C663 1.368 . S
C682 C676 1.368 . S
C682 C681 1.523 . S
C683 C667 1.429 . S
C683 C679 1.429 . S
C683 C684 1.523 . S
C684 C668 1.368 . S
C684 C680 1.368 . S
C684 C683 1.523 . S
H685 C660 0.950 . S
H686 C662 0.950 . S
H687 C663 0.949 . S
H688 C665 0.950 . S
H689 C667 0.950 . S
C690 C691 1.349 . S
C690 C692 1.327 . S
C690 H715 0.950 . S
C691 C690 1.349 . S
C691 C707 1.349 . S
C692 C690 1.327 . S
C692 C711 1.429 . S
C692 H716 0.950 . S
C693 C710 1.574 . S
C693 C712 1.368 . S
C693 H717 0.949 . S
H694 C698 0.949 . S
C695 C696 1.349 . S
C695 C697 1.327 . S
C695 H718 0.950 . S
C696 C695 1.349 . S
C696 C708 1.349 . S
C697 C695 1.327 . S
C697 C713 1.429 . S
C697 H719 0.950 . S
C698 H694 0.949 . S
C698 C706 1.574 . S
C698 C714 1.368 . S
H699 C707 0.950 . S
H700 C705 0.950 . S
H701 C706 0.949 . S
H702 C708 0.950 . S
H703 C709 0.950 . S
H704 C710 0.949 . S
C705 H700 0.950 . S
C705 C707 1.327 . S
C705 C711 1.429 . S
C706 C698 1.574 . S
C706 H701 0.949 . S
C706 C712 1.368 . S
C707 C691 1.349 . S
C707 H699 0.950 . S
C707 C705 1.327 . S
C708 C696 1.349 . S
C708 H702 0.950 . S
C708 C709 1.327 . S
C709 H703 0.950 . S
C709 C708 1.327 . S
C709 C713 1.429 . S
C710 C693 1.574 . S
C710 H704 0.949 . S
C710 C714 1.368 . S
C711 C692 1.429 . S
C711 C705 1.429 . S
C711 C712 1.523 . S
C712 C693 1.368 . S
C712 C706 1.368 . S
C712 C711 1.523 . S
C713 C697 1.429 . S
C713 C709 1.429 . S
C713 C714 1.523 . S
C714 C698 1.368 . S
C714 C710 1.368 . S
C714 C713 1.523 . S
H715 C690 0.950 . S
H716 C692 0.950 . S
H717 C693 0.949 . S
H718 C695 0.950 . S
H719 C697 0.950 . S
C720 C721 1.349 . S
C720 C722 1.327 . S
C720 H745 0.950 . S
C721 C720 1.349 . S
C721 C737 1.349 1_554 S
C722 C720 1.327 . S
C722 C741 1.429 . S
C722 H746 0.950 . S
C723 C740 1.574 . S
C723 C742 1.368 1_556 S
C723 H747 0.949 . S
H724 C728 0.949 . S
C725 C726 1.349 1_556 S
C725 C727 1.327 . S
C725 H748 0.950 . S
C726 C725 1.349 1_554 S
C726 C738 1.349 . S
C727 C725 1.327 . S
C727 C743 1.429 1_556 S
C727 H749 0.950 . S
C728 H724 0.949 . S
C728 C736 1.574 . S
C728 C744 1.368 . S
H729 C737 0.950 . S
H730 C735 0.950 . S
H731 C736 0.949 . S
H732 C738 0.950 . S
H733 C739 0.950 . S
H734 C740 0.949 . S
C735 H730 0.950 . S
C735 C737 1.327 . S
C735 C741 1.429 1_556 S
C736 C728 1.574 . S
C736 H731 0.949 . S
C736 C742 1.368 . S
C737 C721 1.349 1_556 S
C737 H729 0.950 . S
C737 C735 1.327 . S
C738 C726 1.349 . S
C738 H732 0.950 . S
C738 C739 1.327 . S
C739 H733 0.950 . S
C739 C738 1.327 . S
C739 C743 1.429 . S
C740 C723 1.574 . S
C740 H734 0.949 . S
C740 C744 1.368 1_556 S
C741 C722 1.429 . S
C741 C735 1.429 1_554 S
C741 C742 1.523 . S
C742 C723 1.368 1_554 S
C742 C736 1.368 . S
C742 C741 1.523 . S
C743 C727 1.429 1_554 S
C743 C739 1.429 . S
C743 C744 1.523 . S
C744 C728 1.368 . S
C744 C740 1.368 1_554 S
C744 C743 1.523 . S
H745 C720 0.950 . S
H746 C722 0.950 . S
H747 C723 0.949 . S
H748 C725 0.950 . S
H749 C727 0.950 . S
C750 C751 1.349 . S
C750 C752 1.327 . S
C750 H775 0.950 . S
C751 C750 1.349 . S
C751 C767 1.349 . S
C752 C750 1.327 . S
C752 C771 1.429 . S
C752 H776 0.950 . S
C753 C770 1.574 . S
C753 C772 1.368 . S
C753 H777 0.949 . S
H754 C758 0.949 . S
C755 C756 1.349 . S
C755 C757 1.327 . S
C755 H778 0.950 . S
C756 C755 1.349 . S
C756 C768 1.349 . S
C757 C755 1.327 . S
C757 C773 1.429 . S
C757 H779 0.950 . S
C758 H754 0.949 . S
C758 C766 1.574 . S
C758 C774 1.368 . S
H759 C767 0.950 . S
H760 C765 0.950 . S
H761 C766 0.949 . S
H762 C768 0.950 . S
H763 C769 0.950 . S
H764 C770 0.949 . S
C765 H760 0.950 . S
C765 C767 1.327 . S
C765 C771 1.429 . S
C766 C758 1.574 . S
C766 H761 0.949 . S
C766 C772 1.368 . S
C767 C751 1.349 . S
C767 H759 0.950 . S
C767 C765 1.327 . S
C768 C756 1.349 . S
C768 H762 0.950 . S
C768 C769 1.327 . S
C769 H763 0.950 . S
C769 C768 1.327 . S
C769 C773 1.429 . S
C770 C753 1.574 . S
C770 H764 0.949 . S
C770 C774 1.368 . S
C771 C752 1.429 . S
C771 C765 1.429 . S
C771 C772 1.523 . S
C772 C753 1.368 . S
C772 C766 1.368 . S
C772 C771 1.523 . S
C773 C757 1.429 . S
C773 C769 1.429 . S
C773 C774 1.523 . S
C774 C758 1.368 . S
C774 C770 1.368 . S
C774 C773 1.523 . S
H775 C750 0.950 . S
H776 C752 0.950 . S
H777 C753 0.949 . S
H778 C755 0.950 . S
H779 C757 0.950 . S
C780 C781 1.349 1_556 S
C780 C782 1.327 . S
C780 H805 0.950 . S
C781 C780 1.349 1_554 S
C781 C797 1.349 . S
C782 C780 1.327 . S
C782 C801 1.429 1_556 S
C782 H806 0.950 . S
C783 C800 1.574 . S
C783 C802 1.368 . S
C783 H807 0.949 . S
H784 C788 0.949 . S
C785 C786 1.349 . S
C785 C787 1.327 . S
C785 H808 0.950 . S
C786 C785 1.349 . S
C786 C798 1.349 1_554 S
C787 C785 1.327 . S
C787 C803 1.429 . S
C787 H809 0.950 . S
C788 H784 0.949 . S
C788 C796 1.574 . S
C788 C804 1.368 1_556 S
H789 C797 0.950 . S
H790 C795 0.950 . S
H791 C796 0.949 . S
H792 C798 0.950 . S
H793 C799 0.950 . S
H794 C800 0.949 . S
C795 H790 0.950 . S
C795 C797 1.327 . S
C795 C801 1.429 . S
C796 C788 1.574 . S
C796 H791 0.949 . S
C796 C802 1.368 1_556 S
C797 C781 1.349 . S
C797 H789 0.950 . S
C797 C795 1.327 . S
C798 C786 1.349 1_556 S
C798 H792 0.950 . S
C798 C799 1.327 . S
C799 H793 0.950 . S
C799 C798 1.327 . S
C799 C803 1.429 1_556 S
C800 C783 1.574 . S
C800 H794 0.949 . S
C800 C804 1.368 . S
C801 C782 1.429 1_554 S
C801 C795 1.429 . S
C801 C802 1.523 . S
C802 C783 1.368 . S
C802 C796 1.368 1_554 S
C802 C801 1.523 . S
C803 C787 1.429 . S
C803 C799 1.429 1_554 S
C803 C804 1.523 . S
C804 C788 1.368 1_554 S
C804 C800 1.368 . S
C804 C803 1.523 . S
H805 C780 0.950 . S
H806 C782 0.950 . S
H807 C783 0.949 . S
H808 C785 0.950 . S
H809 C787 0.950 . S
C810 C811 1.349 . S
C810 C812 1.327 . S
C810 H835 0.950 . S
C811 C810 1.349 . S
C811 C827 1.349 . S
C812 C810 1.327 . S
C812 C831 1.429 . S
C812 H836 0.950 . S
C813 C830 1.574 . S
C813 C832 1.368 . S
C813 H837 0.949 . S
H814 C818 0.949 . S
C815 C816 1.349 . S
C815 C817 1.327 . S
C815 H838 0.950 . S
C816 C815 1.349 . S
C816 C828 1.349 . S
C817 C815 1.327 . S
C817 C833 1.429 . S
C817 H839 0.950 . S
C818 H814 0.949 . S
C818 C826 1.574 . S
C818 C834 1.368 . S
H819 C827 0.950 . S
H820 C825 0.950 . S
H821 C826 0.949 . S
H822 C828 0.950 . S
H823 C829 0.950 . S
H824 C830 0.949 . S
C825 H820 0.950 . S
C825 C827 1.327 . S
C825 C831 1.429 . S
C826 C818 1.574 . S
C826 H821 0.949 . S
C826 C832 1.368 . S
C827 C811 1.349 . S
C827 H819 0.950 . S
C827 C825 1.327 . S
C828 C816 1.349 . S
C828 H822 0.950 . S
C828 C829 1.327 . S
C829 H823 0.950 . S
C829 C828 1.327 . S
C829 C833 1.429 . S
C830 C813 1.574 . S
C830 H824 0.949 . S
C830 C834 1.368 . S
C831 C812 1.429 . S
C831 C825 1.429 . S
C831 C832 1.523 . S
C832 C813 1.368 . S
C832 C826 1.368 . S
C832 C831 1.523 . S
C833 C817 1.429 . S
C833 C829 1.429 . S
C833 C834 1.523 . S
C834 C818 1.368 . S
C834 C830 1.368 . S
C834 C833 1.523 . S
H835 C810 0.950 . S
H836 C812 0.950 . S
H837 C813 0.949 . S
H838 C815 0.950 . S
H839 C817 0.950 . S
C840 C841 1.349 . S
C840 C842 1.327 . S
C840 H865 0.950 . S
C841 C840 1.349 . S
C841 C857 1.349 . S
C842 C840 1.327 . S
C842 C861 1.429 . S
C842 H866 0.950 . S
C843 C860 1.574 . S
C843 C862 1.368 . S
C843 H867 0.949 . S
H844 C848 0.949 . S
C845 C846 1.349 . S
C845 C847 1.327 . S
C845 H868 0.950 . S
C846 C845 1.349 . S
C846 C858 1.349 . S
C847 C845 1.327 . S
C847 C863 1.429 . S
C847 H869 0.950 . S
C848 H844 0.949 . S
C848 C856 1.574 . S
C848 C864 1.368 . S
H849 C857 0.950 . S
H850 C855 0.950 . S
H851 C856 0.949 . S
H852 C858 0.950 . S
H853 C859 0.950 . S
H854 C860 0.949 . S
C855 H850 0.950 . S
C855 C857 1.327 . S
C855 C861 1.429 . S
C856 C848 1.574 . S
C856 H851 0.949 . S
C856 C862 1.368 . S
C857 C841 1.349 . S
C857 H849 0.950 . S
C857 C855 1.327 . S
C858 C846 1.349 . S
C858 H852 0.950 . S
C858 C859 1.327 . S
C859 H853 0.950 . S
C859 C858 1.327 . S
C859 C863 1.429 . S
C860 C843 1.574 . S
C860 H854 0.949 . S
C860 C864 1.368 . S
C861 C842 1.429 . S
C861 C855 1.429 . S
C861 C862 1.523 . S
C862 C843 1.368 . S
C862 C856 1.368 . S
C862 C861 1.523 . S
C863 C847 1.429 . S
C863 C859 1.429 . S
C863 C864 1.523 . S
C864 C848 1.368 . S
C864 C860 1.368 . S
C864 C863 1.523 . S
H865 C840 0.950 . S
H866 C842 0.950 . S
H867 C843 0.949 . S
H868 C845 0.950 . S
H869 C847 0.950 . S
C870 C871 1.349 . S
C870 C872 1.327 . S
C870 H895 0.950 . S
C871 C870 1.349 . S
C871 C887 1.349 1_554 S
C872 C870 1.327 . S
C872 C891 1.429 . S
C872 H896 0.950 . S
C873 C890 1.574 . S
C873 C892 1.368 1_556 S
C873 H897 0.949 . S
H874 C878 0.949 . S
C875 C876 1.349 1_556 S
C875 C877 1.327 . S
C875 H898 0.950 . S
C876 C875 1.349 1_554 S
C876 C888 1.349 . S
C877 C875 1.327 . S
C877 C893 1.429 1_556 S
C877 H899 0.950 . S
C878 H874 0.949 . S
C878 C886 1.574 . S
C878 C894 1.368 . S
H879 C887 0.950 . S
H880 C885 0.950 . S
H881 C886 0.949 . S
H882 C888 0.950 . S
H883 C889 0.950 . S
H884 C890 0.949 . S
C885 H880 0.950 . S
C885 C887 1.327 . S
C885 C891 1.429 1_556 S
C886 C878 1.574 . S
C886 H881 0.949 . S
C886 C892 1.368 . S
C887 C871 1.349 1_556 S
C887 H879 0.950 . S
C887 C885 1.327 . S
C888 C876 1.349 . S
C888 H882 0.950 . S
C888 C889 1.327 . S
C889 H883 0.950 . S
C889 C888 1.327 . S
C889 C893 1.429 . S
C890 C873 1.574 . S
C890 H884 0.949 . S
C890 C894 1.368 1_556 S
C891 C872 1.429 . S
C891 C885 1.429 1_554 S
C891 C892 1.523 . S
C892 C873 1.368 1_554 S
C892 C886 1.368 . S
C892 C891 1.523 . S
C893 C877 1.429 1_554 S
C893 C889 1.429 . S
C893 C894 1.523 . S
C894 C878 1.368 . S
C894 C890 1.368 1_554 S
C894 C893 1.523 . S
H895 C870 0.950 . S
H896 C872 0.950 . S
H897 C873 0.949 . S
H898 C875 0.950 . S
H899 C877 0.950 . S
C900 C901 1.349 . S
C900 C902 1.327 . S
C900 H925 0.950 . S
C901 C900 1.349 . S
C901 C917 1.349 . S
C902 C900 1.327 . S
C902 C921 1.429 . S
C902 H926 0.950 . S
C903 C920 1.574 . S
C903 C922 1.368 . S
C903 H927 0.949 . S
H904 C908 0.949 . S
C905 C906 1.349 . S
C905 C907 1.327 . S
C905 H928 0.950 . S
C906 C905 1.349 . S
C906 C918 1.349 . S
C907 C905 1.327 . S
C907 C923 1.429 . S
C907 H929 0.950 . S
C908 H904 0.949 . S
C908 C916 1.574 . S
C908 C924 1.368 . S
H909 C917 0.950 . S
H910 C915 0.950 . S
H911 C916 0.949 . S
H912 C918 0.950 . S
H913 C919 0.950 . S
H914 C920 0.949 . S
C915 H910 0.950 . S
C915 C917 1.327 . S
C915 C921 1.429 . S
C916 C908 1.574 . S
C916 H911 0.949 . S
C916 C922 1.368 . S
C917 C901 1.349 . S
C917 H909 0.950 . S
C917 C915 1.327 . S
C918 C906 1.349 . S
C918 H912 0.950 . S
C918 C919 1.327 . S
C919 H913 0.950 . S
C919 C918 1.327 . S
C919 C923 1.429 . S
C920 C903 1.574 . S
C920 H914 0.949 . S
C920 C924 1.368 . S
C921 C902 1.429 . S
C921 C915 1.429 . S
C921 C922 1.523 . S
C922 C903 1.368 . S
C922 C916 1.368 . S
C922 C921 1.523 . S
C923 C907 1.429 . S
C923 C919 1.429 . S
C923 C924 1.523 . S
C924 C908 1.368 . S
C924 C920 1.368 . S
C924 C923 1.523 . S
H925 C900 0.950 . S
H926 C902 0.950 . S
H927 C903 0.949 . S
H928 C905 0.950 . S
H929 C907 0.950 . S
C930 C931 1.349 1_556 S
C930 C932 1.327 . S
C930 H955 0.950 . S
C931 C930 1.349 1_554 S
C931 C947 1.349 . S
C932 C930 1.327 . S
C932 C951 1.429 1_556 S
C932 H956 0.950 . S
C933 C950 1.574 . S
C933 C952 1.368 . S
C933 H957 0.949 . S
H934 C938 0.949 . S
C935 C936 1.349 . S
C935 C937 1.327 . S
C935 H958 0.950 . S
C936 C935 1.349 . S
C936 C948 1.349 1_554 S
C937 C935 1.327 . S
C937 C953 1.429 . S
C937 H959 0.950 . S
C938 H934 0.949 . S
C938 C946 1.574 . S
C938 C954 1.368 1_556 S
H939 C947 0.950 . S
H940 C945 0.950 . S
H941 C946 0.949 . S
H942 C948 0.950 . S
H943 C949 0.950 . S
H944 C950 0.949 . S
C945 H940 0.950 . S
C945 C947 1.327 . S
C945 C951 1.429 . S
C946 C938 1.574 . S
C946 H941 0.949 . S
C946 C952 1.368 1_556 S
C947 C931 1.349 . S
C947 H939 0.950 . S
C947 C945 1.327 . S
C948 C936 1.349 1_556 S
C948 H942 0.950 . S
C948 C949 1.327 . S
C949 H943 0.950 . S
C949 C948 1.327 . S
C949 C953 1.429 1_556 S
C950 C933 1.574 . S
C950 H944 0.949 . S
C950 C954 1.368 . S
C951 C932 1.429 1_554 S
C951 C945 1.429 . S
C951 C952 1.523 . S
C952 C933 1.368 . S
C952 C946 1.368 1_554 S
C952 C951 1.523 . S
C953 C937 1.429 . S
C953 C949 1.429 1_554 S
C953 C954 1.523 . S
C954 C938 1.368 1_554 S
C954 C950 1.368 . S
C954 C953 1.523 . S
H955 C930 0.950 . S
H956 C932 0.950 . S
H957 C933 0.949 . S
H958 C935 0.950 . S
H959 C937 0.950 . S
C241 C5 1.478 . S
C246 C151 1.488 . S
C271 C31 1.502 . S
C276 C94 1.508 . S
C306 C109 1.503 . S
C301 C53 1.536 . S
C331 C71 1.513 . S
C336 C128 1.484 . S
C366 C185 1.484 . S
C361 C75 1.513 . S
C396 C204 1.503 . S
C391 C9 1.537 . S
C426 C227 1.507 . S
C421 C27 1.501 . S
C456 C170 1.488 . S
C451 C49 1.478 . S
C481 C51 1.478 . S
C486 C113 1.490 . S
C511 C72 1.502 . S
C516 C132 1.510 . S
C541 C6 1.537 . S
C546 C147 1.502 . S
C576 C90 1.483 . S
C571 C29 1.513 . S
C601 C28 1.513 . S
C606 C223 1.483 . S
C636 C166 1.502 . S
C631 C50 1.537 . S
C666 C189 1.510 . S
C661 C73 1.502 . S
C691 C7 1.478 . S
C696 C208 1.490 . S
C726 C99 1.384 1_554 S
C721 C4 1.512 . S
C756 C118 1.429 . S
C751 C30 1.512 . S
C781 C52 1.512 . S
C786 C137 1.428 . S
C811 C70 1.512 . S
C816 C156 1.386 . S
C846 C175 1.386 . S
C841 C74 1.512 . S
C871 C8 1.512 . S
C876 C194 1.428 1_554 S
C901 C26 1.512 . S
C906 C213 1.429 . S
C931 C48 1.513 . S
C936 C232 1.384 . S
