# Generated by pormake.
# Topology anh, (6,3)-cn, num edge types: 1
# Building blocks:
#     Node 0, Type 0, BuildingBlock: PAMTOO_clean_sbu_0, # of connection points: 6
#     Node 1, Type 0, BuildingBlock: PAMTOO_clean_sbu_0, # of connection points: 6
#     Node 2, Type 0, BuildingBlock: PAMTOO_clean_sbu_0, # of connection points: 6
#     Node 3, Type 1, BuildingBlock: MIDCAF_clean_linker_0, # of connection points: 3
#     Node 4, Type 1, BuildingBlock: MIDCAF_clean_linker_0, # of connection points: 3
#     Node 5, Type 1, BuildingBlock: MIDCAF_clean_linker_0, # of connection points: 3
#     Node 6, Type 1, BuildingBlock: MIDCAF_clean_linker_0, # of connection points: 3
#     Node 7, Type 1, BuildingBlock: MIDCAF_clean_linker_0, # of connection points: 3
#     Node 8, Type 1, BuildingBlock: MIDCAF_clean_linker_0, # of connection points: 3
#     Edge 9, Type (0, 1), BuildingBlock: XUDNAN_clean_linker_2, # of connection points: 2
#     Edge 10, Type (0, 1), BuildingBlock: XUDNAN_clean_linker_2, # of connection points: 2
#     Edge 11, Type (0, 1), BuildingBlock: XUDNAN_clean_linker_2, # of connection points: 2
#     Edge 12, Type (0, 1), BuildingBlock: XUDNAN_clean_linker_2, # of connection points: 2
#     Edge 13, Type (0, 1), BuildingBlock: XUDNAN_clean_linker_2, # of connection points: 2
#     Edge 14, Type (0, 1), BuildingBlock: XUDNAN_clean_linker_2, # of connection points: 2
#     Edge 15, Type (0, 1), BuildingBlock: XUDNAN_clean_linker_2, # of connection points: 2
#     Edge 16, Type (0, 1), BuildingBlock: XUDNAN_clean_linker_2, # of connection points: 2
#     Edge 17, Type (0, 1), BuildingBlock: XUDNAN_clean_linker_2, # of connection points: 2
#     Edge 18, Type (0, 1), BuildingBlock: XUDNAN_clean_linker_2, # of connection points: 2
#     Edge 19, Type (0, 1), BuildingBlock: XUDNAN_clean_linker_2, # of connection points: 2
#     Edge 20, Type (0, 1), BuildingBlock: XUDNAN_clean_linker_2, # of connection points: 2
#     Edge 21, Type (0, 1), BuildingBlock: XUDNAN_clean_linker_2, # of connection points: 2
#     Edge 22, Type (0, 1), BuildingBlock: XUDNAN_clean_linker_2, # of connection points: 2
#     Edge 23, Type (0, 1), BuildingBlock: XUDNAN_clean_linker_2, # of connection points: 2
#     Edge 24, Type (0, 1), BuildingBlock: XUDNAN_clean_linker_2, # of connection points: 2
#     Edge 25, Type (0, 1), BuildingBlock: XUDNAN_clean_linker_2, # of connection points: 2
#     Edge 26, Type (0, 1), BuildingBlock: XUDNAN_clean_linker_2, # of connection points: 2
# Relax obj value: 0.180
# Max RMSD: 0.195
# Mean RMSD: 0.156
data_MOF--net-anh--node1-PAMTOO_clean_sbu_0--node2-MIDCAF_clean_linker_0--edge1-XUDNAN_clean_linker_2
_symmetry_space_group_name_H-M    P1
_symmetry_Int_Tables_number       1
_symmetry_cell_setting            triclinic
loop_
_symmetry_equiv_pos_as_xyz
'x, y, z'
_cell_length_a     35.964718
_cell_length_b     35.087394
_cell_length_c     66.624123
_cell_angle_alpha  90.34345
_cell_angle_beta   94.64653
_cell_angle_gamma 105.1183
loop_
_atom_site_label
_atom_site_type_symbol
_atom_site_fract_x
_atom_site_fract_y
_atom_site_fract_z
_atom_type_partial_charge
Dy0 Dy 0.08431 0.60166 0.14704 0.0
Dy1 Dy 1.05971 0.50483 0.15061 0.0
C2 C 0.06864 0.54676 0.10921 0.0
O3 O 1.02345 0.58728 0.15571 0.0
O4 O 1.00313 0.52193 0.14574 0.0
O5 O 0.10958 0.65177 0.12942 0.0
O6 O 0.08504 0.66037 0.15725 0.0
O7 O 1.06063 0.52995 0.18173 0.0
O8 O 0.10394 0.58985 0.17818 0.0
O9 O 0.12501 0.51913 0.15439 0.0
O10 O 0.14025 0.5848 0.14569 0.0
O11 O 1.05533 0.45016 0.16627 0.0
O12 O 1.03182 0.44925 0.13518 0.0
C13 C 0.99552 0.55501 0.15138 0.0
O14 O 1.05583 0.57384 0.11775 0.0
O15 O 0.08074 0.52114 0.12037 0.0
C16 C 0.13869 0.71006 0.1486 0.0
C17 C 0.2022 0.774 0.16118 0.0
C18 C 0.20368 0.73492 0.16482 0.0
C19 C 0.17208 0.70317 0.15862 0.0
C20 C 0.13739 0.74881 0.14458 0.0
C21 C 0.16885 0.78052 0.1508 0.0
C22 C 0.10475 0.67729 0.14263 0.0
C23 C 0.08516 0.56226 0.18954 0.0
C24 C 0.1505 0.55227 0.15045 0.0
C25 C 0.99805 0.39976 0.15569 0.0
C26 C 0.9273 0.34526 0.16245 0.0
C27 C 0.94676 0.37331 0.17751 0.0
C28 C 0.98173 0.40048 0.17413 0.0
C29 C 0.9789 0.37136 0.14081 0.0
C30 C 0.94384 0.34453 0.1441 0.0
C31 C 1.03422 0.42875 0.15128 0.0
H32 H 0.22877 0.72893 0.17295 0.0
H33 H 0.17346 0.67333 0.16188 0.0
H34 H 0.11187 0.75458 0.13679 0.0
H35 H 0.16701 0.8102 0.14752 0.0
H36 H 0.93454 0.37475 0.19174 0.0
H37 H 0.99569 0.4222 0.18585 0.0
H38 H 0.99095 0.37016 0.1265 0.0
H39 H 0.92978 0.32298 0.13231 0.0
Dy40 Dy 0.57608 0.02395 0.52407 0.0
Dy41 Dy 0.67172 0.04887 0.52657 0.0
C42 C 0.62792 0.03199 0.56573 0.0
O43 O 0.59141 0.08969 0.52132 0.0
O44 O 0.65557 0.10462 0.53349 0.0
O45 O 0.52387 0.00593 0.53931 0.0
O46 O 0.52023 0.01297 0.50708 0.0
O47 O 0.65027 0.06895 0.4975 0.0
O48 O 0.59407 0.0203 0.49274 0.0
O49 O 0.65311 0.98484 0.51709 0.0
O50 O 0.59259 0.96736 0.52854 0.0
O51 O 0.72399 0.04553 0.51382 0.0
O52 O 0.72729 0.08012 0.54129 0.0
C53 C 0.62402 0.1154 0.52773 0.0
O54 O 0.5987 0.04178 0.55597 0.0
O55 O 0.65576 0.02439 0.55622 0.0
C56 C 0.47158 0.96326 0.52037 0.0
C57 C 0.41411 0.89086 0.51756 0.0
C58 C 0.45332 0.89168 0.51683 0.0
C59 C 0.48184 0.9276 0.51825 0.0
C60 C 0.43263 0.96267 0.52096 0.0
C61 C 0.40411 0.92683 0.51955 0.0
C62 C 0.50124 1.00108 0.52272 0.0
C63 C 0.62155 0.04786 0.48557 0.0
C64 C 0.62267 0.95786 0.52215 0.0
C65 C 0.77143 0.10594 0.5175 0.0
C66 C 0.82016 0.16953 0.49892 0.0
C67 C 0.78076 0.15636 0.49224 0.0
C68 C 0.75657 0.12502 0.50152 0.0
C69 C 0.81051 0.11955 0.52457 0.0
C70 C 0.83474 0.15132 0.5154 0.0
C71 C 0.74603 0.07187 0.52659 0.0
H72 H 0.46201 0.86453 0.51545 0.0
H73 H 0.51189 0.92754 0.51788 0.0
H74 H 0.42425 0.98997 0.5226 0.0
H75 H 0.37418 0.92734 0.51981 0.0
H76 H 0.76868 0.17023 0.47976 0.0
H77 H 0.72633 0.11532 0.49603 0.0
H78 H 0.82235 0.10532 0.53699 0.0
H79 H 0.86505 0.16089 0.52078 0.0
Dy80 Dy 0.58391 0.49945 0.83782 0.0
Dy81 Dy 0.4925 0.49444 0.84044 0.0
C82 C 0.52656 0.48733 0.79957 0.0
O83 O 0.5795 0.56071 0.83124 0.0
O84 O 0.52149 0.55875 0.84395 0.0
O85 O 0.63398 0.51582 0.82095 0.0
O86 O 0.63764 0.48894 0.85012 0.0
O87 O 0.51714 0.48757 0.87172 0.0
O88 O 0.57874 0.52399 0.86801 0.0
O89 O 0.4939 0.43114 0.83755 0.0
O90 O 0.55808 0.43843 0.84775 0.0
O91 O 0.4456 0.50288 0.8566 0.0
O92 O 0.43465 0.4814 0.82558 0.0
C93 C 0.55407 0.5784 0.83716 0.0
O94 O 0.55086 0.47109 0.80956 0.0
O95 O 0.50841 0.50869 0.80908 0.0
C96 C 0.67579 0.47348 0.82536 0.0
C97 C 0.72629 0.43293 0.81035 0.0
C98 C 0.70367 0.45045 0.79707 0.0
C99 C 0.67868 0.47061 0.80449 0.0
C100 C 0.69618 0.45343 0.83846 0.0
C101 C 0.72103 0.4332 0.83104 0.0
C102 C 0.65465 0.49995 0.83373 0.0
C103 C 0.55089 0.50901 0.8795 0.0
C104 C 0.52281 0.41613 0.84342 0.0
C105 C 0.40472 0.53074 0.83507 0.0
C106 C 0.37868 0.59767 0.82405 0.0
C107 C 0.39512 0.59476 0.84366 0.0
C108 C 0.4079 0.56172 0.84911 0.0
C109 C 0.38776 0.53331 0.81551 0.0
C110 C 0.37489 0.56646 0.81006 0.0
C111 C 0.42185 0.49763 0.84033 0.0
H112 H 0.7071 0.45063 0.78106 0.0
H113 H 0.66314 0.48551 0.79394 0.0
H114 H 0.69456 0.45514 0.8546 0.0
H115 H 0.73847 0.42061 0.84174 0.0
H116 H 0.3975 0.61772 0.855 0.0
H117 H 0.42063 0.56076 0.86434 0.0
H118 H 0.38496 0.50997 0.80433 0.0
H119 H 0.36225 0.56779 0.79485 0.0
C120 C 0.44922 0.96995 0.23576 0.0
C121 C 0.44381 0.96133 0.21499 0.0
C122 C 0.47541 0.97326 0.20328 0.0
C123 C 0.51164 0.99456 0.2122 0.0
H124 H 0.62432 0.07063 0.20085 0.0
H125 H 0.6735 0.11506 0.1826 0.0
H126 H 0.72212 0.17944 0.23824 0.0
H127 H 0.6744 0.13442 0.25642 0.0
H128 H 0.65945 0.08472 0.29695 0.0
H129 H 0.66751 0.09005 0.33352 0.0
H130 H 0.54842 0.02435 0.33621 0.0
H131 H 0.54054 0.01798 0.2996 0.0
H132 H 0.48808 0.99686 0.26075 0.0
H133 H 0.42541 0.96073 0.24515 0.0
H134 H 0.47184 0.96693 0.1872 0.0
H135 H 0.53542 0.00397 0.20282 0.0
N136 N 0.58234 0.04925 0.23199 0.0
N137 N 0.62109 0.07214 0.26196 0.0
N138 N 0.56061 0.02737 0.26328 0.0
C139 C 0.61574 0.07217 0.24153 0.0
C140 C 0.59379 0.04971 0.27294 0.0
C141 C 0.55457 0.02678 0.24287 0.0
C142 C 0.64543 0.09874 0.23012 0.0
C143 C 0.64564 0.09419 0.20916 0.0
C144 C 0.67376 0.11985 0.19868 0.0
C145 C 0.70205 0.15091 0.2089 0.0
C146 C 0.70152 0.15543 0.22985 0.0
C147 C 0.67383 0.12961 0.24031 0.0
C148 C 0.59927 0.05118 0.29526 0.0
C149 C 0.63498 0.07121 0.30529 0.0
C150 C 0.63956 0.07446 0.3263 0.0
C151 C 0.60848 0.05801 0.33781 0.0
C152 C 0.57304 0.03708 0.32782 0.0
C153 C 0.5685 0.03363 0.30679 0.0
C154 C 0.51691 1.00353 0.23303 0.0
C155 C 0.4853 0.99054 0.24469 0.0
C156 C 0.55929 0.38079 0.54784 0.0
C157 C 0.58904 0.38371 0.53505 0.0
C158 C 0.60847 0.42146 0.52873 0.0
C159 C 0.5997 0.45555 0.53596 0.0
H160 H 0.59429 0.58076 0.52701 0.0
H161 H 0.60636 0.64772 0.51424 0.0
H162 H 0.57076 0.68776 0.56919 0.0
H163 H 0.55801 0.62139 0.58173 0.0
H164 H 0.52213 0.55827 0.61584 0.0
H165 H 0.50672 0.54565 0.65073 0.0
H166 H 0.55239 0.44325 0.64985 0.0
H167 H 0.56595 0.45476 0.61516 0.0
H168 H 0.52873 0.41112 0.5656 0.0
H169 H 0.54394 0.35246 0.55324 0.0
H170 H 0.63126 0.42473 0.5187 0.0
H171 H 0.61629 0.48427 0.53162 0.0
N172 N 0.57314 0.52391 0.55274 0.0
N173 N 0.55888 0.5495 0.58314 0.0
N174 N 0.55732 0.48278 0.58011 0.0
C175 C 0.56873 0.55515 0.56384 0.0
C176 C 0.55341 0.51343 0.59139 0.0
C177 C 0.56691 0.48741 0.56087 0.0
C178 C 0.57524 0.59543 0.55545 0.0
C179 C 0.5888 0.60379 0.53631 0.0
C180 C 0.5959 0.64226 0.52902 0.0
C181 C 0.58946 0.67322 0.54065 0.0
C182 C 0.57546 0.66466 0.55964 0.0
C183 C 0.56845 0.62642 0.56692 0.0
C184 C 0.54482 0.50726 0.61266 0.0
C185 C 0.52869 0.53303 0.62316 0.0
C186 C 0.52001 0.52586 0.64317 0.0
C187 C 0.52775 0.49306 0.65308 0.0
C188 C 0.54479 0.46804 0.6426 0.0
C189 C 0.55287 0.47483 0.62266 0.0
C190 C 0.57164 0.45243 0.54978 0.0
C191 C 0.55078 0.41462 0.55509 0.0
C192 C 0.98138 0.51032 0.85635 0.0
C193 C 0.98066 0.51074 0.83523 0.0
C194 C 1.00581 0.5422 0.8262 0.0
C195 C 1.03027 0.57316 0.83803 0.0
H196 H 0.10089 0.68959 0.83573 0.0
H197 H 0.15559 0.71989 0.81673 0.0
H198 H 0.23116 0.73743 0.87169 0.0
H199 H 0.17656 0.70804 0.89069 0.0
H200 H 0.14633 0.65666 0.93044 0.0
H201 H 0.1515 0.64159 0.9663 0.0
H202 H 1.02892 0.58621 0.96269 0.0
H203 H 1.02377 0.60043 0.92688 0.0
H204 H 1.00493 0.5401 0.88437 0.0
H205 H 0.96177 0.48701 0.8638 0.0
H206 H 1.00594 0.54332 0.80996 0.0
H207 H 1.04893 0.59718 0.83055 0.0
N208 N 0.07973 0.63678 0.86312 0.0
N209 N 0.10691 0.66354 0.89499 0.0
N210 N 1.05667 0.60512 0.89213 0.0
C211 C 0.10528 0.66566 0.87456 0.0
C212 C 0.0821 0.63361 0.90384 0.0
C213 C 1.05549 0.60631 0.87175 0.0
C214 C 0.13475 0.69511 0.86458 0.0
C215 C 0.12897 0.70126 0.84386 0.0
C216 C 0.16024 0.71881 0.83297 0.0
C217 C 0.19783 0.73 0.8426 0.0
C218 C 0.20261 0.72909 0.86375 0.0
C219 C 0.17125 0.71185 0.87468 0.0
C220 C 0.08467 0.62957 0.9259 0.0
C221 C 0.12043 0.64186 0.93741 0.0
C222 C 0.12345 0.63304 0.95783 0.0
C223 C 0.09061 0.61267 0.96713 0.0
C224 C 1.0546 0.60211 0.95586 0.0
C225 C 1.05172 0.61013 0.93539 0.0
C226 C 1.03006 0.57331 0.85915 0.0
C227 C 1.00577 0.54118 0.86816 0.0
C228 C 0.2229 0.64649 0.45146 0.0
C229 C 0.22238 0.64634 0.47252 0.0
C230 C 0.19491 0.61616 0.48117 0.0
C231 C 0.16811 0.58734 0.46897 0.0
H232 H 0.08733 0.46441 0.46397 0.0
H233 H 1.04015 0.40477 0.47359 0.0
H234 H 0.96285 0.41632 0.4222 0.0
H235 H 1.01014 0.47452 0.41232 0.0
H236 H 1.05165 0.50802 0.37239 0.0
H237 H 1.05053 0.51933 0.33631 0.0
H238 H 0.1666 0.59561 0.34476 0.0
H239 H 0.16732 0.58538 0.38078 0.0
H240 H 0.19752 0.6196 0.42317 0.0
H241 H 0.24306 0.66961 0.44419 0.0
H242 H 0.19395 0.61496 0.49736 0.0
H243 H 0.14696 0.56491 0.47607 0.0
N244 N 0.11087 0.53041 0.44212 0.0
N245 N 0.08239 0.51162 0.40931 0.0
N246 N 0.13762 0.5644 0.41425 0.0
C247 C 0.08271 0.50624 0.4295 0.0
C248 C 0.10986 0.54044 0.40156 0.0
C249 C 0.13838 0.55987 0.43451 0.0
C250 C 1.0527 0.4737 0.43721 0.0
C251 C 1.06002 0.45435 0.45492 0.0
C252 C 1.03297 0.42027 0.46044 0.0
C253 C 0.99805 0.40526 0.44841 0.0
C254 C 0.98993 0.42627 0.43145 0.0
C255 C 1.01699 0.45982 0.42584 0.0
C256 C 0.10947 0.54604 0.37953 0.0
C257 C 0.07697 0.52716 0.36655 0.0
C258 C 0.07639 0.53346 0.34583 0.0
C259 C 0.10837 0.55859 0.33764 0.0
C260 C 0.14113 0.57675 0.3506 0.0
C261 C 0.14161 0.57072 0.37128 0.0
C262 C 0.1682 0.58818 0.44786 0.0
C263 C 0.19635 0.61782 0.43934 0.0
C264 C 0.56315 0.14485 0.81384 0.0
C265 C 0.5371 0.14282 0.82865 0.0
C266 C 0.51894 0.10558 0.83595 0.0
C267 C 0.52579 0.07106 0.82808 0.0
H268 H 0.5822 0.95448 0.83651 0.0
H269 H 0.58836 0.89012 0.84851 0.0
H270 H 0.5159 0.83243 0.79646 0.0
H271 H 0.51071 0.89654 0.78421 0.0
H272 H 0.54144 0.95098 0.74101 0.0
H273 H 0.55967 0.95701 0.70626 0.0
H274 H 0.62464 0.07766 0.71931 0.0
H275 H 0.60576 0.07224 0.75383 0.0
H276 H 0.58893 0.11328 0.79397 0.0
H277 H 0.57732 0.17292 0.80771 0.0
H278 H 0.49892 0.10311 0.84747 0.0
H279 H 0.51049 0.04271 0.83349 0.0
N280 N 0.54772 1.00157 0.81078 0.0
N281 N 0.556 0.97205 0.78021 0.0
N282 N 0.56127 0.03981 0.78211 0.0
C283 C 0.54902 0.96887 0.79995 0.0
C284 C 0.56241 0.00745 0.77125 0.0
C285 C 0.55349 0.0372 0.80174 0.0
C286 C 0.54597 0.93037 0.80946 0.0
C287 C 0.56679 0.92791 0.82796 0.0
C288 C 0.57054 0.89122 0.83473 0.0
C289 C 0.55267 0.85642 0.82336 0.0
C290 C 0.52973 0.85876 0.80557 0.0
C291 C 0.52682 0.8954 0.79856 0.0
C292 C 0.57219 0.01114 0.75011 0.0
C293 C 0.55942 0.97884 0.73642 0.0
C294 C 0.56965 0.98228 0.71657 0.0
C295 C 0.59355 0.01774 0.71028 0.0
C296 C 0.60625 0.05002 0.72391 0.0
C297 C 0.59531 0.04691 0.74359 0.0
C298 C 0.55041 0.07319 0.81254 0.0
C299 C 0.56959 0.11053 0.80585 0.0
C300 C 0.68858 0.54665 0.15675 0.0
C301 C 0.71183 0.52705 0.14663 0.0
C302 C 0.69335 0.49982 0.13105 0.0
C303 C 0.65407 0.49425 0.12497 0.0
H304 H 0.51639 0.55456 0.15684 0.0
H305 H 0.45509 0.5633 0.16742 0.0
H306 H 0.39341 0.49244 0.11599 0.0
H307 H 0.45384 0.48348 0.10573 0.0
H308 H 0.49865 0.51793 0.0635 0.0
H309 H 0.50135 0.52318 0.02697 0.0
H310 H 0.61947 0.5152 0.03314 0.0
H311 H 0.61718 0.51021 0.06927 0.0
H312 H 0.63265 0.55838 0.15782 0.0
H313 H 0.7012 0.56725 0.16914 0.0
H314 H 0.70957 0.48426 0.1226 0.0
H315 H 0.64175 0.47431 0.11225 0.0
N316 N 0.56123 0.51856 0.13289 0.0
N317 N 0.52632 0.51555 0.10102 0.0
N318 N 0.59087 0.51412 0.10305 0.0
C319 C 0.5272 0.51757 0.12149 0.0
C320 C 0.55802 0.51409 0.09171 0.0
C321 C 0.59323 0.51617 0.12344 0.0
C322 C 0.49036 0.51856 0.13034 0.0
C323 C 0.48965 0.54021 0.14808 0.0
C324 C 0.45442 0.5455 0.154 0.0
C325 C 0.41892 0.52885 0.1425 0.0
C326 C 0.41971 0.50552 0.1254 0.0
C327 C 0.45471 0.50063 0.11941 0.0
C328 C 0.55782 0.5141 0.06942 0.0
C329 C 0.5251 0.51702 0.05704 0.0
C330 C 0.52656 0.51991 0.03613 0.0
C331 C 0.5608 0.52017 0.02728 0.0
C332 C 0.59293 0.5159 0.03958 0.0
C333 C 0.59148 0.51286 0.06034 0.0
C334 C 0.6315 0.51575 0.13407 0.0
C335 C 0.64893 0.54112 0.15053 0.0
H336 H 0.18714 0.49255 0.14407 0.0
H337 H 0.21025 0.61728 0.15962 0.0
H338 H 0.28025 0.62357 0.16115 0.0
H339 H 0.26937 0.47352 0.17483 0.0
H340 H 0.27938 0.44076 0.15628 0.0
H341 H 0.23075 0.445 0.15761 0.0
H342 H 0.22762 0.46303 0.12001 0.0
H343 H 0.2762 0.45881 0.11857 0.0
H344 H 0.26412 0.50391 0.11149 0.0
H345 H 0.34832 0.61721 0.1606 0.0
H346 H 0.40907 0.59964 0.15567 0.0
H347 H 0.34378 0.47944 0.13934 0.0
C348 C 0.20697 0.52104 0.14803 0.0
C349 C 0.19286 0.5544 0.15185 0.0
C350 C 0.22001 0.59127 0.15659 0.0
C351 C 0.26001 0.59515 0.15758 0.0
C352 C 0.27299 0.56198 0.1536 0.0
C353 C 0.24736 0.52565 0.14875 0.0
C354 C 0.26929 0.49532 0.14407 0.0
C355 C 0.26174 0.46165 0.1591 0.0
C356 C 0.25867 0.47933 0.12224 0.0
C357 C 0.31105 0.52033 0.14698 0.0
C358 C 0.31243 0.55858 0.1527 0.0
C359 C 0.34755 0.58726 0.15618 0.0
C360 C 0.38211 0.57686 0.1535 0.0
C361 C 0.38176 0.53807 0.14719 0.0
C362 C 0.34542 0.50944 0.14407 0.0
H363 H 0.87322 0.23645 0.51483 0.0
H364 H 0.82509 0.17351 0.45847 0.0
H365 H 0.86662 0.22616 0.43976 0.0
H366 H 0.87843 0.33335 0.49645 0.0
H367 H 0.92325 0.35665 0.51093 0.0
H368 H 0.891 0.31325 0.52011 0.0
H369 H 0.94624 0.27819 0.52263 0.0
H370 H 0.97869 0.32151 0.51346 0.0
H371 H 0.97148 0.27435 0.50071 0.0
H372 H 0.91252 0.28474 0.42716 0.0
H373 H 0.95901 0.3477 0.42098 0.0
H374 H 0.97634 0.37513 0.48529 0.0
C375 C 0.8718 0.23369 0.49857 0.0
C376 C 0.84601 0.20099 0.48804 0.0
C377 C 0.84446 0.19852 0.46676 0.0
C378 C 0.86804 0.22813 0.45603 0.0
C379 C 0.89291 0.26012 0.4668 0.0
C380 C 0.89494 0.26328 0.48757 0.0
C381 C 0.92331 0.30158 0.4953 0.0
C382 C 0.90276 0.32775 0.50635 0.0
C383 C 0.95692 0.2934 0.50883 0.0
C384 C 0.9368 0.31936 0.47561 0.0
C385 C 0.91898 0.29474 0.45942 0.0
C386 C 0.9265 0.30445 0.43969 0.0
C387 C 0.95276 0.34049 0.43634 0.0
C388 C 0.971 0.36675 0.45261 0.0
C389 C 0.96305 0.35572 0.47254 0.0
H390 H 0.50179 0.62294 0.83565 0.0
H391 H 0.62464 0.63221 0.83661 0.0
H392 H 0.63795 0.705 0.83571 0.0
H393 H 0.50059 0.69869 0.80069 0.0
H394 H 0.46477 0.71629 0.8126 0.0
H395 H 0.4657 0.66539 0.81468 0.0
H396 H 0.47134 0.673 0.85391 0.0
H397 H 0.47012 0.72391 0.85165 0.0
H398 H 0.50964 0.71169 0.86622 0.0
H399 H 0.6376 0.77705 0.83488 0.0
H400 H 0.6233 0.84189 0.83024 0.0
H401 H 0.50054 0.78493 0.82779 0.0
C402 C 0.53155 0.64027 0.83583 0.0
C403 C 0.56224 0.62194 0.83634 0.0
C404 C 0.60069 0.64564 0.83621 0.0
C405 C 0.60853 0.687 0.83582 0.0
C406 C 0.57758 0.70414 0.83537 0.0
C407 C 0.53983 0.68146 0.83513 0.0
C408 C 0.51162 0.70689 0.83351 0.0
C409 C 0.48404 0.69618 0.81423 0.0
C410 C 0.48934 0.70367 0.85244 0.0
C411 C 0.53928 0.74743 0.83245 0.0
C412 C 0.57726 0.74532 0.83402 0.0
C413 C 0.60798 0.77902 0.83362 0.0
C414 C 0.59962 0.81571 0.83112 0.0
C415 C 0.56088 0.8183 0.82873 0.0
C416 C 0.53041 0.78371 0.8296 0.0
H417 H 0.92669 0.49517 0.14428 0.0
H418 H 0.97069 0.61932 0.16167 0.0
H419 H 0.90425 0.62441 0.16385 0.0
H420 H 0.84305 0.50508 0.11343 0.0
H421 H 0.81158 0.45946 0.12093 0.0
H422 H 0.86281 0.46476 0.12126 0.0
H423 H 0.86503 0.44646 0.15881 0.0
H424 H 0.81379 0.44116 0.15862 0.0
H425 H 0.84684 0.47426 0.17674 0.0
H426 H 0.8327 0.61738 0.16313 0.0
H427 H 0.76165 0.59888 0.15897 0.0
H428 H 0.7621 0.47857 0.1433 0.0
C429 C 0.9224 0.52341 0.14861 0.0
C430 C 0.95448 0.55685 0.15279 0.0
C431 C 0.94711 0.59315 0.15838 0.0
C432 C 0.90925 0.59641 0.1597 0.0
C433 C 0.87846 0.56311 0.15548 0.0
C434 C 0.88449 0.52724 0.15007 0.0
C435 C 0.84596 0.49628 0.14602 0.0
C436 C 0.84054 0.48047 0.12411 0.0
C437 C 0.84273 0.46254 0.16094 0.0
C438 C 0.81749 0.52053 0.14977 0.0
C439 C 0.83697 0.55896 0.15529 0.0
C440 C 0.81715 0.58722 0.15901 0.0
C441 C 0.77647 0.57621 0.15679 0.0
C442 C 0.75536 0.53706 0.15091 0.0
C443 C 0.77669 0.50887 0.14763 0.0
H444 H 0.40872 0.8269 0.49246 0.0
H445 H 0.35017 0.86895 0.53897 0.0
H446 H 0.29729 0.80764 0.53478 0.0
H447 H 0.32674 0.78455 0.46048 0.0
H448 H 0.34277 0.74264 0.45265 0.0
H449 H 0.37768 0.78802 0.46066 0.0
H450 H 0.40967 0.75071 0.48752 0.0
H451 H 0.37486 0.70508 0.47954 0.0
H452 H 0.38059 0.72148 0.50557 0.0
H453 H 0.24821 0.74434 0.52347 0.0
H454 H 0.20643 0.68487 0.50547 0.0
H455 H 0.29846 0.6828 0.46746 0.0
C456 C 0.38525 0.82286 0.50211 0.0
C457 C 0.38362 0.85281 0.51603 0.0
C458 C 0.35186 0.84666 0.52803 0.0
C459 C 0.32184 0.81177 0.52589 0.0
C460 C 0.32411 0.78312 0.51182 0.0
C461 C 0.35511 0.78821 0.5002 0.0
C462 C 0.3495 0.754 0.48532 0.0
C463 C 0.34914 0.76816 0.46349 0.0
C464 C 0.3805 0.73148 0.48976 0.0
C465 C 0.31 0.72945 0.48996 0.0
C466 C 0.296 0.74648 0.50544 0.0
C467 C 0.25912 0.73037 0.51155 0.0
C468 C 0.23565 0.6964 0.5013 0.0
C469 C 0.24909 0.67899 0.48505 0.0
C470 C 0.28715 0.69543 0.47972 0.0
H471 H 0.57777 0.37485 0.84561 0.0
H472 H 0.45361 0.35895 0.84236 0.0
H473 H 0.44387 0.28642 0.84177 0.0
H474 H 0.57566 0.29864 0.8112 0.0
H475 H 0.6155 0.28385 0.82404 0.0
H476 H 0.6126 0.33405 0.82649 0.0
H477 H 0.61608 0.32881 0.86533 0.0
H478 H 0.619 0.27849 0.86303 0.0
H479 H 0.58169 0.2898 0.87663 0.0
H480 H 0.44796 0.21535 0.83947 0.0
H481 H 0.46513 0.15268 0.83344 0.0
H482 H 0.58656 0.21596 0.83772 0.0
C483 C 0.54848 0.35623 0.84516 0.0
C484 C 0.51642 0.37266 0.84423 0.0
C485 C 0.47861 0.34708 0.84318 0.0
C486 C 0.47282 0.30585 0.84292 0.0
C487 C 0.50513 0.29069 0.84366 0.0
C488 C 0.54221 0.3152 0.84469 0.0
C489 C 0.57199 0.29181 0.84376 0.0
C490 C 0.59528 0.30274 0.82527 0.0
C491 C 0.59876 0.29757 0.86336 0.0
C492 C 0.54589 0.25025 0.84165 0.0
C493 C 0.50745 0.25009 0.84193 0.0
C494 C 0.47799 0.21514 0.83944 0.0
C495 C 0.48803 0.17962 0.83615 0.0
C496 C 0.52718 0.17936 0.83516 0.0
C497 C 0.55637 0.21517 0.83836 0.0
H498 H 0.56796 0.89393 0.5346 0.0
H499 H 0.67746 0.92569 0.50762 0.0
H500 H 0.67866 0.85565 0.50727 0.0
H501 H 0.59074 0.82298 0.56722 0.0
H502 H 0.54292 0.78978 0.56465 0.0
H503 H 0.54918 0.84188 0.56136 0.0
H504 H 0.51226 0.82772 0.52601 0.0
H505 H 0.50579 0.77549 0.52911 0.0
H506 H 0.52836 0.79911 0.50761 0.0
H507 H 0.66961 0.78235 0.51153 0.0
H508 H 0.65186 0.71228 0.52085 0.0
H509 H 0.54807 0.7284 0.54476 0.0
C510 C 0.59203 0.88622 0.52839 0.0
C511 C 0.6226 0.9155 0.52109 0.0
C512 C 0.65366 0.90394 0.51329 0.0
C513 C 0.65457 0.86416 0.51298 0.0
C514 C 0.62417 0.83616 0.52047 0.0
C515 C 0.59345 0.84669 0.52801 0.0
C516 C 0.5653 0.8112 0.53602 0.0
C517 C 0.56186 0.81681 0.55865 0.0
C518 C 0.52558 0.80289 0.52396 0.0
C519 C 0.58534 0.77917 0.53215 0.0
C520 C 0.61905 0.79407 0.523 0.0
C521 C 0.64306 0.7703 0.51852 0.0
C522 C 0.63261 0.73042 0.52377 0.0
C523 C 0.59853 0.71463 0.53352 0.0
C524 C 0.57446 0.73948 0.53747 0.0
H525 H 0.77824 0.476 0.78683 0.0
H526 H 0.7536 0.36874 0.82062 0.0
H527 H 0.82145 0.36665 0.82027 0.0
H528 H 0.86746 0.45638 0.76033 0.0
H529 H 0.89084 0.50843 0.76329 0.0
H530 H 0.83914 0.49183 0.7577 0.0
H531 H 0.82995 0.53139 0.78896 0.0
H532 H 0.88097 0.5475 0.79479 0.0
H533 H 0.8507 0.52176 0.81338 0.0
H534 H 0.89146 0.38839 0.82728 0.0
H535 H 0.95465 0.43085 0.8406 0.0
H536 H 0.93568 0.52557 0.80317 0.0
C537 C 0.78659 0.45062 0.7929 0.0
C538 C 0.76082 0.42254 0.8037 0.0
C539 C 0.77297 0.39052 0.81222 0.0
C540 C 0.81149 0.38903 0.81196 0.0
C541 C 0.83736 0.41956 0.80296 0.0
C542 C 0.82514 0.44938 0.79309 0.0
C543 C 0.8591 0.4834 0.78884 0.0
C544 C 0.86445 0.48508 0.76619 0.0
C545 C 0.85491 0.52326 0.79702 0.0
C546 C 0.89165 0.47064 0.80032 0.0
C547 C 0.87897 0.43281 0.8074 0.0
C548 C 0.90203 0.41743 0.82126 0.0
C549 C 0.93779 0.44189 0.82891 0.0
C550 C 0.94989 0.48153 0.82292 0.0
C551 C 0.92755 0.49508 0.80759 0.0
H552 H 0.28065 0.78284 0.16055 0.0
H553 H 0.19671 0.84169 0.17971 0.0
H554 H 0.24966 0.89784 0.19331 0.0
H555 H 0.34821 0.81111 0.20349 0.0
H556 H 0.39042 0.81825 0.18964 0.0
H557 H 0.34596 0.78356 0.18029 0.0
H558 H 0.34784 0.81969 0.14644 0.0
H559 H 0.39228 0.85461 0.15573 0.0
H560 H 0.35124 0.87187 0.14647 0.0
H561 H 0.31081 0.94551 0.20664 0.0
H562 H 0.37718 0.98223 0.21894 0.0
H563 H 0.4224 0.89369 0.19105 0.0
C564 C 0.27346 0.8076 0.16757 0.0
C565 C 0.23448 0.80799 0.16892 0.0
C566 C 0.22628 0.84101 0.17816 0.0
C567 C 0.25616 0.873 0.18601 0.0
C568 C 0.29417 0.87169 0.18443 0.0
C569 C 0.303 0.83996 0.17542 0.0
C570 C 0.3464 0.84564 0.17626 0.0
C571 C 0.35844 0.81269 0.18813 0.0
C572 C 0.36025 0.8481 0.15495 0.0
C573 C 0.36049 0.88515 0.18751 0.0
C574 C 0.32978 0.89964 0.19198 0.0
C575 C 0.33513 0.93469 0.20307 0.0
C576 C 0.37284 0.95527 0.21003 0.0
C577 C 0.40474 0.94084 0.20583 0.0
C578 C 0.3985 0.90563 0.19417 0.0
H579 H 0.56399 0.15121 0.52374 0.0
H580 H 0.68922 0.17691 0.53161 0.0
H581 H 0.69379 0.24817 0.53127 0.0
H582 H 0.55889 0.2327 0.4907 0.0
H583 H 0.51822 0.24238 0.50194 0.0
H584 H 0.52454 0.1931 0.50164 0.0
H585 H 0.52288 0.19097 0.54044 0.0
H586 H 0.5163 0.24009 0.54083 0.0
H587 H 0.55593 0.22933 0.55602 0.0
H588 H 0.68505 0.31681 0.53127 0.0
H589 H 0.66334 0.3776 0.53413 0.0
H590 H 0.54387 0.30797 0.526 0.0
C591 C 0.59238 0.1718 0.52526 0.0
C592 C 0.62623 0.15829 0.52771 0.0
C593 C 0.6628 0.18635 0.52983 0.0
C594 C 0.66576 0.22699 0.52952 0.0
C595 C 0.6319 0.23931 0.52709 0.0
C596 C 0.59589 0.2126 0.52511 0.0
C597 C 0.56402 0.23375 0.52374 0.0
C598 C 0.54 0.22495 0.50329 0.0
C599 C 0.53828 0.22289 0.54131 0.0
C600 C 0.58775 0.27644 0.52558 0.0
C601 C 0.62685 0.27899 0.52724 0.0
C602 C 0.65449 0.31522 0.5298 0.0
C603 C 0.64185 0.34969 0.53123 0.0
C604 C 0.60187 0.34779 0.53022 0.0
C605 C 0.57463 0.31056 0.52691 0.0
H606 H 0.31017 0.59647 0.80299 0.0
H607 H 0.41067 0.67555 0.83479 0.0
H608 H 0.37825 0.72914 0.83307 0.0
H609 H 0.27539 0.67808 0.77249 0.0
H610 H 0.22596 0.65207 0.77555 0.0
H611 H 0.26148 0.62487 0.77262 0.0
H612 H 0.24404 0.58909 0.80585 0.0
H613 H 0.20872 0.61582 0.80876 0.0
H614 H 0.24649 0.61808 0.82861 0.0
H615 H 0.33 0.76591 0.83743 0.0
H616 H 0.27094 0.78072 0.84793 0.0
H617 H 0.20123 0.67965 0.81246 0.0
C618 C 0.32608 0.62568 0.80858 0.0
C619 C 0.36303 0.63192 0.81893 0.0
C620 C 0.38241 0.67013 0.82677 0.0
C621 C 0.36427 0.70091 0.82568 0.0
C622 C 0.32677 0.69321 0.81648 0.0
C623 C 0.30808 0.65658 0.80772 0.0
C624 C 0.26565 0.65324 0.80235 0.0
C625 C 0.2566 0.65201 0.77939 0.0
C626 C 0.23978 0.61699 0.812 0.0
C627 C 0.26254 0.69176 0.81154 0.0
C628 C 0.29835 0.71521 0.81885 0.0
C629 C 0.30195 0.74859 0.83115 0.0
C630 C 0.26825 0.75678 0.83712 0.0
C631 C 0.23152 0.7315 0.83089 0.0
C632 C 0.22882 0.70027 0.81691 0.0
H633 H 0.90798 0.30084 0.19571 0.0
H634 H 0.86182 0.32578 0.1365 0.0
H635 H 0.79951 0.27804 0.14156 0.0
H636 H 0.8616 0.19664 0.19373 0.0
H637 H 0.85264 0.19469 0.21998 0.0
H638 H 0.8934 0.2311 0.21175 0.0
H639 H 0.86917 0.2868 0.22767 0.0
H640 H 0.82836 0.25055 0.23598 0.0
H641 H 0.82076 0.29034 0.22057 0.0
H642 H 0.74169 0.22837 0.15344 0.0
H643 H 0.69313 0.18036 0.17107 0.0
H644 H 0.7783 0.18571 0.22185 0.0
C645 C 0.88465 0.29644 0.18387 0.0
C646 C 0.88971 0.31701 0.16571 0.0
C647 C 0.85866 0.31006 0.15046 0.0
C648 C 0.82314 0.28312 0.15323 0.0
C649 C 0.81918 0.26316 0.17127 0.0
C650 C 0.84912 0.26941 0.18631 0.0
C651 C 0.83752 0.24385 0.20418 0.0
C652 C 0.86279 0.21485 0.2076 0.0
C653 C 0.83904 0.26942 0.22322 0.0
C654 C 0.7963 0.22246 0.1969 0.0
C655 C 0.78622 0.23404 0.17791 0.0
C656 C 0.74937 0.21885 0.16827 0.0
C657 C 0.72203 0.1913 0.17836 0.0
C658 C 0.73167 0.17897 0.19789 0.0
C659 C 0.76958 0.19472 0.20709 0.0
H660 H 1.03482 0.58536 0.08052 0.0
H661 H 0.11687 0.51427 0.08917 0.0
H662 H 0.13215 0.52419 0.05376 0.0
H663 H 0.99912 0.54962 0.02924 0.0
H664 H 0.99369 0.59703 0.02129 0.0
H665 H 0.98874 0.58337 0.04715 0.0
H666 H 1.0417 0.6469 0.05874 0.0
H667 H 1.04716 0.66053 0.03292 0.0
H668 H 0.08851 0.6562 0.04904 0.0
H669 H 0.14178 0.54591 0.01815 0.0
H670 H 0.1394 0.57132 0.9836 0.0
H671 H 1.04895 0.62546 -0.00213 0.0
C672 C 1.05572 0.57155 0.07491 0.0
C673 C 0.07472 0.5491 0.08757 0.0
C674 C 0.1018 0.53139 0.07967 0.0
C675 C 0.11083 0.53705 0.05963 0.0
C676 C 0.09215 0.56004 0.04767 0.0
C677 C 0.06468 0.57644 0.0549 0.0
C678 C 1.04848 0.59955 0.03889 0.0
C679 C 1.00493 0.58129 0.03385 0.0
C680 C 1.05699 0.64339 0.04529 0.0
C681 C 0.07142 0.59394 0.02156 0.0
C682 C 0.09674 0.5714 0.02698 0.0
C683 C 0.12184 0.56329 0.01367 0.0
C684 C 0.12051 0.57805 0.99418 0.0
C685 C 0.09398 0.60021 0.98819 0.0
C686 C 0.0693 0.60835 0.0021 0.0
H687 H 0.58461 0.99918 0.4532 0.0
H688 H 0.6567 0.11705 0.46917 0.0
H689 H 0.65884 0.13275 0.4333 0.0
H690 H 0.63408 0.98482 0.41073 0.0
H691 H 0.59135 0.95809 0.39555 0.0
H692 H 0.59276 0.95651 0.42261 0.0
H693 H 0.53088 0.98139 0.42183 0.0
H694 H 0.52922 0.98294 0.39474 0.0
H695 H 0.5298 0.02656 0.40932 0.0
H696 H 0.6552 0.1357 0.39618 0.0
H697 H 0.64676 0.12528 0.35936 0.0
H698 H 0.57945 0.00466 0.36667 0.0
C699 C 0.60034 0.02841 0.4491 0.0
C700 C 0.62039 0.05692 0.46395 0.0
C701 C 0.64122 0.09468 0.45804 0.0
C702 C 0.64252 0.10398 0.4377 0.0
C703 C 0.62301 0.07517 0.4234 0.0
C704 C 0.60235 0.03813 0.42874 0.0
C705 C 0.58567 0.01213 0.41018 0.0
C706 C 0.60195 0.97574 0.40975 0.0
C707 C 0.54125 1.00005 0.40895 0.0
C708 C 0.60045 0.04035 0.39369 0.0
C709 C 0.62168 0.07659 0.40172 0.0
C710 C 0.63871 0.10743 0.38966 0.0
C711 C 0.63403 0.10108 0.36875 0.0
C712 C 0.61275 0.06405 0.36007 0.0
C713 C 0.59561 0.0334 0.3728 0.0
H714 H 0.53032 0.54264 0.77065 0.0
H715 H 0.50796 0.41674 0.7796 0.0
H716 H 0.49858 0.40445 0.74269 0.0
H717 H 0.46537 0.53928 0.72445 0.0
H718 H 0.49923 0.57861 0.71306 0.0
H719 H 0.4987 0.57735 0.74008 0.0
H720 H 0.57152 0.57954 0.74356 0.0
H721 H 0.57229 0.5809 0.7166 0.0
H722 H 0.58797 0.54292 0.73029 0.0
H723 H 0.49362 0.40592 0.70529 0.0
H724 H 0.50097 0.42066 0.66959 0.0
H725 H 0.53392 0.54631 0.68474 0.0
C726 C 0.52259 0.51253 0.76472 0.0
C727 C 0.51905 0.48045 0.77772 0.0
C728 C 0.51032 0.44148 0.76969 0.0
C729 C 0.50478 0.43428 0.74883 0.0
C730 C 0.50881 0.46651 0.7363 0.0
C731 C 0.51805 0.50491 0.74388 0.0
C732 C 0.52509 0.53429 0.72711 0.0
C733 C 0.49531 0.55883 0.72612 0.0
C734 C 0.56669 0.56097 0.72954 0.0
C735 C 0.51883 0.50639 0.70896 0.0
C736 C 0.50864 0.46747 0.71462 0.0
C737 C 0.50183 0.43628 0.70067 0.0
C738 C 0.50646 0.44502 0.68042 0.0
C739 C 0.51872 0.48468 0.67429 0.0
C740 C 0.52421 0.51571 0.6888 0.0
H741 H 0.56829 0.01835 0.59014 0.0
H742 H 0.69314 0.04279 0.59128 0.0
H743 H 0.69783 0.04185 0.62845 0.0
H744 H 0.56456 0.07591 0.63423 0.0
H745 H 0.52322 0.04084 0.64288 0.0
H746 H 0.52966 0.0441 0.61636 0.0
H747 H 0.52609 0.96943 0.61447 0.0
H748 H 0.51964 0.96592 0.64099 0.0
H749 H 0.55853 0.95017 0.63106 0.0
H750 H 0.68925 0.04121 0.66536 0.0
H751 H 0.66741 0.03574 0.69979 0.0
H752 H 0.54809 0.00724 0.6747 0.0
C753 C 0.59659 0.02363 0.59825 0.0
C754 C 0.63039 0.03088 0.5879 0.0
C755 C 0.66689 0.0371 0.59895 0.0
C756 C 0.66986 0.03674 0.62004 0.0
C757 C 0.63601 0.02954 0.62981 0.0
C758 C 0.60003 0.02263 0.6193 0.0
C759 C 0.56813 0.01445 0.63345 0.0
C760 C 0.54504 0.0457 0.63162 0.0
C761 C 0.54154 0.97249 0.62977 0.0
C762 C 0.59184 0.01828 0.65356 0.0
C763 C 0.63096 0.02734 0.65111 0.0
C764 C 0.65871 0.03377 0.66749 0.0
C765 C 0.64612 0.03073 0.68692 0.0
C766 C 0.60621 0.02084 0.68972 0.0
C767 C 0.57876 0.01438 0.67285 0.0
H768 H 0.50386 0.47694 0.90916 0.0
H769 H 0.61376 0.55958 0.89962 0.0
H770 H 0.62622 0.57344 0.93614 0.0
H771 H 0.47977 0.53219 0.95038 0.0
H772 H 0.45892 0.48866 0.96401 0.0
H773 H 0.45753 0.48609 0.93693 0.0
H774 H 0.49153 0.4294 0.93913 0.0
H775 H 0.49291 0.43172 0.9662 0.0
H776 H 0.53697 0.43673 0.95415 0.0
H777 H 0.62804 0.57734 0.97338 0.0
H778 H 0.61979 0.56973 0.00963 0.0
H779 H 0.50919 0.48418 -0.00438 0.0
C780 C 0.53043 0.49812 0.91474 0.0
C781 C 0.55781 0.51718 0.90149 0.0
C782 C 0.59235 0.54451 0.90943 0.0
C783 C 0.59968 0.55272 0.93017 0.0
C784 C 0.57221 0.5334 0.9428 0.0
C785 C 0.53832 0.50662 0.93546 0.0
C786 C 0.5143 0.48903 0.95248 0.0
C787 C 0.47532 0.49964 0.95085 0.0
C788 C 0.50861 0.44406 0.95302 0.0
C789 C 0.54024 0.50989 0.9705 0.0
C790 C 0.57337 0.53549 0.9645 0.0
C791 C 0.60223 0.55743 0.9783 0.0
C792 C 0.59737 0.55274 -0.00116 0.0
C793 C 0.56397 0.52622 0.00541 0.0
C794 C 0.53482 0.50493 0.99101 0.0
H795 H 1.06272 0.50852 0.21921 0.0
H796 H 0.12199 0.63109 0.20987 0.0
H797 H 0.13297 0.64323 0.24651 0.0
H798 H 1.01581 0.52617 0.26306 0.0
H799 H 1.02217 0.48273 0.27568 0.0
H800 H 1.01799 0.48337 0.24856 0.0
H801 H 0.08326 0.46525 0.24786 0.0
H802 H 0.08761 0.46447 0.27497 0.0
H803 H 0.1257 0.49561 0.26193 0.0
H804 H 0.13737 0.64286 0.2838 0.0
H805 H 0.13693 0.62925 0.31999 0.0
H806 H 0.07736 0.50639 0.30571 0.0
C807 C 0.07787 0.53792 0.22489 0.0
C808 C 0.09144 0.56883 0.21163 0.0
C809 C 0.1114 0.60684 0.21967 0.0
C810 C 0.11771 0.61414 0.24049 0.0
C811 C 0.10408 0.58312 0.25312 0.0
C812 C 0.08474 0.54572 0.24571 0.0
C813 C 0.07399 0.5175 0.26272 0.0
C814 C 1.02987 0.50151 0.26248 0.0
C815 C 0.09384 0.48372 0.26181 0.0
C816 C 0.09035 0.54498 0.28078 0.0
C817 C 0.10738 0.58271 0.27484 0.0
C818 C 0.12437 0.61337 0.28868 0.0
C819 C 0.12423 0.60525 0.30921 0.0
C820 C 0.10747 0.56667 0.31575 0.0
C821 C 0.09014 0.53625 0.30125 0.0
loop_
_geom_bond_atom_site_label_1
_geom_bond_atom_site_label_2
_geom_bond_distance
_geom_bond_site_symmetry_2
_ccdc_geom_bond_type
Dy0 O3 2.307 1_455 S
Dy0 O5 2.395 . S
Dy0 O6 2.379 . S
Dy0 O8 2.339 . S
Dy0 O10 2.298 . S
Dy0 O14 2.275 . S
Dy0 C22 2.738 . S
Dy1 O4 2.298 . S
Dy1 O7 2.275 1_655 S
Dy1 O9 2.307 1_655 S
Dy1 O11 2.395 . S
Dy1 O12 2.379 . S
Dy1 O15 2.339 . S
Dy1 C31 2.738 . S
C2 O14 1.254 . S
C2 O15 1.257 1_455 S
O3 Dy0 2.307 1_655 S
O3 C13 1.266 . S
O4 Dy1 2.298 . S
O4 C13 1.236 . S
O5 Dy0 2.395 . S
O5 C22 1.255 . S
O6 Dy0 2.379 . S
O6 C22 1.249 . S
O7 Dy1 2.275 1_455 S
O7 C23 1.254 . S
O8 Dy0 2.339 . S
O8 C23 1.257 . S
O9 Dy1 2.307 1_455 S
O9 C24 1.266 . S
O10 Dy0 2.298 . S
O10 C24 1.236 . S
O11 Dy1 2.395 . S
O11 C31 1.255 . S
O12 Dy1 2.379 . S
O12 C31 1.249 . S
C13 O3 1.266 . S
C13 O4 1.236 . S
O14 Dy0 2.275 . S
O14 C2 1.254 . S
O15 Dy1 2.339 . S
O15 C2 1.257 1_655 S
C16 C19 1.344 . S
C16 C20 1.328 . S
C16 C22 1.516 . S
C17 C18 1.304 . S
C17 C21 1.323 . S
C18 C17 1.304 . S
C18 C19 1.371 . S
C18 H32 0.930 . S
C19 C16 1.344 . S
C19 C18 1.371 . S
C19 H33 0.931 . S
C20 C16 1.328 . S
C20 C21 1.433 . S
C20 H34 0.931 . S
C21 C17 1.323 . S
C21 C20 1.433 . S
C21 H35 0.933 . S
C22 Dy0 2.738 . S
C22 O5 1.255 . S
C22 O6 1.249 . S
C22 C16 1.516 . S
C23 O7 1.254 . S
C23 O8 1.257 . S
C24 O9 1.266 . S
C24 O10 1.236 . S
C25 C28 1.344 . S
C25 C29 1.328 . S
C25 C31 1.516 . S
C26 C27 1.304 . S
C26 C30 1.323 . S
C27 C26 1.304 . S
C27 C28 1.371 . S
C27 H36 0.930 . S
C28 C25 1.344 . S
C28 C27 1.371 . S
C28 H37 0.931 . S
C29 C25 1.328 . S
C29 C30 1.433 . S
C29 H38 0.931 . S
C30 C26 1.323 . S
C30 C29 1.433 . S
C30 H39 0.933 . S
C31 Dy1 2.738 . S
C31 O11 1.255 . S
C31 O12 1.249 . S
C31 C25 1.516 . S
H32 C18 0.930 . S
H33 C19 0.931 . S
H34 C20 0.931 . S
H35 C21 0.933 . S
H36 C27 0.930 . S
H37 C28 0.931 . S
H38 C29 0.931 . S
H39 C30 0.933 . S
Dy40 O43 2.307 . S
Dy40 O45 2.395 1_545 S
Dy40 O46 2.379 1_545 S
Dy40 O48 2.339 . S
Dy40 O50 2.298 1_545 S
Dy40 O54 2.275 . S
Dy40 C62 2.738 1_545 S
Dy41 O44 2.298 . S
Dy41 O47 2.275 . S
Dy41 O49 2.307 1_545 S
Dy41 O51 2.395 . S
Dy41 O52 2.379 . S
Dy41 O55 2.339 . S
Dy41 C71 2.738 . S
C42 O54 1.254 . S
C42 O55 1.257 . S
O43 Dy40 2.307 . S
O43 C53 1.266 . S
O44 Dy41 2.298 . S
O44 C53 1.236 . S
O45 Dy40 2.395 1_565 S
O45 C62 1.255 . S
O46 Dy40 2.379 1_565 S
O46 C62 1.249 . S
O47 Dy41 2.275 . S
O47 C63 1.254 . S
O48 Dy40 2.339 . S
O48 C63 1.257 . S
O49 Dy41 2.307 1_565 S
O49 C64 1.266 . S
O50 Dy40 2.298 1_565 S
O50 C64 1.236 . S
O51 Dy41 2.395 . S
O51 C71 1.255 . S
O52 Dy41 2.379 . S
O52 C71 1.249 . S
C53 O43 1.266 . S
C53 O44 1.236 . S
O54 Dy40 2.275 . S
O54 C42 1.254 . S
O55 Dy41 2.339 . S
O55 C42 1.257 . S
C56 C59 1.344 . S
C56 C60 1.328 . S
C56 C62 1.516 . S
C57 C58 1.304 . S
C57 C61 1.323 . S
C58 C57 1.304 . S
C58 C59 1.371 . S
C58 H72 0.930 . S
C59 C56 1.344 . S
C59 C58 1.371 . S
C59 H73 0.931 . S
C60 C56 1.328 . S
C60 C61 1.433 . S
C60 H74 0.931 . S
C61 C57 1.323 . S
C61 C60 1.433 . S
C61 H75 0.933 . S
C62 Dy40 2.738 1_565 S
C62 O45 1.255 . S
C62 O46 1.249 . S
C62 C56 1.516 . S
C63 O47 1.254 . S
C63 O48 1.257 . S
C64 O49 1.266 . S
C64 O50 1.236 . S
C65 C68 1.344 . S
C65 C69 1.328 . S
C65 C71 1.516 . S
C66 C67 1.304 . S
C66 C70 1.323 . S
C67 C66 1.304 . S
C67 C68 1.371 . S
C67 H76 0.930 . S
C68 C65 1.344 . S
C68 C67 1.371 . S
C68 H77 0.931 . S
C69 C65 1.328 . S
C69 C70 1.433 . S
C69 H78 0.931 . S
C70 C66 1.323 . S
C70 C69 1.433 . S
C70 H79 0.933 . S
C71 Dy41 2.738 . S
C71 O51 1.255 . S
C71 O52 1.249 . S
C71 C65 1.516 . S
H72 C58 0.930 . S
H73 C59 0.931 . S
H74 C60 0.931 . S
H75 C61 0.933 . S
H76 C67 0.930 . S
H77 C68 0.931 . S
H78 C69 0.931 . S
H79 C70 0.933 . S
Dy80 O83 2.307 . S
Dy80 O85 2.395 . S
Dy80 O86 2.379 . S
Dy80 O88 2.339 . S
Dy80 O90 2.298 . S
Dy80 O94 2.275 . S
Dy80 C102 2.738 . S
Dy81 O84 2.298 . S
Dy81 O87 2.275 . S
Dy81 O89 2.307 . S
Dy81 O91 2.395 . S
Dy81 O92 2.379 . S
Dy81 O95 2.339 . S
Dy81 C111 2.738 . S
C82 O94 1.254 . S
C82 O95 1.257 . S
O83 Dy80 2.307 . S
O83 C93 1.266 . S
O84 Dy81 2.298 . S
O84 C93 1.236 . S
O85 Dy80 2.395 . S
O85 C102 1.255 . S
O86 Dy80 2.379 . S
O86 C102 1.249 . S
O87 Dy81 2.275 . S
O87 C103 1.254 . S
O88 Dy80 2.339 . S
O88 C103 1.257 . S
O89 Dy81 2.307 . S
O89 C104 1.266 . S
O90 Dy80 2.298 . S
O90 C104 1.236 . S
O91 Dy81 2.395 . S
O91 C111 1.255 . S
O92 Dy81 2.379 . S
O92 C111 1.249 . S
C93 O83 1.266 . S
C93 O84 1.236 . S
O94 Dy80 2.275 . S
O94 C82 1.254 . S
O95 Dy81 2.339 . S
O95 C82 1.257 . S
C96 C99 1.344 . S
C96 C100 1.328 . S
C96 C102 1.516 . S
C97 C98 1.304 . S
C97 C101 1.323 . S
C98 C97 1.304 . S
C98 C99 1.371 . S
C98 H112 0.930 . S
C99 C96 1.344 . S
C99 C98 1.371 . S
C99 H113 0.931 . S
C100 C96 1.328 . S
C100 C101 1.433 . S
C100 H114 0.931 . S
C101 C97 1.323 . S
C101 C100 1.433 . S
C101 H115 0.933 . S
C102 Dy80 2.738 . S
C102 O85 1.255 . S
C102 O86 1.249 . S
C102 C96 1.516 . S
C103 O87 1.254 . S
C103 O88 1.257 . S
C104 O89 1.266 . S
C104 O90 1.236 . S
C105 C108 1.344 . S
C105 C109 1.328 . S
C105 C111 1.516 . S
C106 C107 1.304 . S
C106 C110 1.323 . S
C107 C106 1.304 . S
C107 C108 1.371 . S
C107 H116 0.930 . S
C108 C105 1.344 . S
C108 C107 1.371 . S
C108 H117 0.931 . S
C109 C105 1.328 . S
C109 C110 1.433 . S
C109 H118 0.931 . S
C110 C106 1.323 . S
C110 C109 1.433 . S
C110 H119 0.933 . S
C111 Dy81 2.738 . S
C111 O91 1.255 . S
C111 O92 1.249 . S
C111 C105 1.516 . S
H112 C98 0.930 . S
H113 C99 0.931 . S
H114 C100 0.931 . S
H115 C101 0.933 . S
H116 C107 0.930 . S
H117 C108 0.931 . S
H118 C109 0.931 . S
H119 C110 0.933 . S
C120 C121 1.384 . S
C120 H133 0.947 . S
C120 C155 1.382 . S
C121 C120 1.384 . S
C121 C122 1.378 . S
C122 C121 1.378 . S
C122 C123 1.378 . S
C122 H134 0.952 . S
C123 C122 1.378 . S
C123 H135 0.950 1_565 S
C123 C154 1.383 . S
H124 C143 0.947 . S
H125 C144 0.946 . S
H126 C146 0.953 . S
H127 C147 0.945 . S
H128 C149 0.952 . S
H129 C150 0.949 . S
H130 C152 0.950 . S
H131 C153 0.938 1_565 S
H132 C155 0.951 . S
H133 C120 0.947 . S
H134 C122 0.952 . S
H135 C123 0.950 1_545 S
N136 C139 1.382 . S
N136 C141 1.363 . S
N137 C139 1.371 . S
N137 C140 1.372 . S
N138 C140 1.361 . S
N138 C141 1.377 . S
C139 N136 1.382 . S
C139 N137 1.371 . S
C139 C142 1.480 . S
C140 N137 1.372 . S
C140 N138 1.361 . S
C140 C148 1.457 . S
C141 N136 1.363 . S
C141 N138 1.377 . S
C141 C154 1.479 1_545 S
C142 C139 1.480 . S
C142 C143 1.383 . S
C142 C147 1.385 . S
C143 H124 0.947 . S
C143 C142 1.383 . S
C143 C144 1.388 . S
C144 H125 0.946 . S
C144 C143 1.388 . S
C144 C145 1.384 . S
C145 C144 1.384 . S
C145 C146 1.377 . S
C146 H126 0.953 . S
C146 C145 1.377 . S
C146 C147 1.369 . S
C147 H127 0.945 . S
C147 C142 1.385 . S
C147 C146 1.369 . S
C148 C140 1.457 . S
C148 C149 1.372 . S
C148 C153 1.364 . S
C149 H128 0.952 . S
C149 C148 1.372 . S
C149 C150 1.389 . S
C150 H129 0.949 . S
C150 C149 1.389 . S
C150 C151 1.387 . S
C151 C150 1.387 . S
C151 C152 1.372 . S
C152 H130 0.950 . S
C152 C151 1.372 . S
C152 C153 1.379 . S
C153 H131 0.938 1_545 S
C153 C148 1.364 . S
C153 C152 1.379 . S
C154 C123 1.383 . S
C154 C141 1.479 1_565 S
C154 C155 1.398 . S
C155 C120 1.382 . S
C155 H132 0.951 . S
C155 C154 1.398 . S
C156 C157 1.384 . S
C156 H169 0.947 . S
C156 C191 1.382 . S
C157 C156 1.384 . S
C157 C158 1.378 . S
C158 C157 1.378 . S
C158 C159 1.378 . S
C158 H170 0.952 . S
C159 C158 1.378 . S
C159 H171 0.950 . S
C159 C190 1.383 . S
H160 C179 0.947 . S
H161 C180 0.946 . S
H162 C182 0.953 . S
H163 C183 0.945 . S
H164 C185 0.952 . S
H165 C186 0.949 . S
H166 C188 0.950 . S
H167 C189 0.948 . S
H168 C191 0.951 . S
H169 C156 0.947 . S
H170 C158 0.952 . S
H171 C159 0.950 . S
N172 C175 1.382 . S
N172 C177 1.363 . S
N173 C175 1.371 . S
N173 C176 1.372 . S
N174 C176 1.361 . S
N174 C177 1.377 . S
C175 N172 1.382 . S
C175 N173 1.371 . S
C175 C178 1.480 . S
C176 N173 1.372 . S
C176 N174 1.361 . S
C176 C184 1.457 . S
C177 N172 1.363 . S
C177 N174 1.377 . S
C177 C190 1.479 . S
C178 C175 1.480 . S
C178 C179 1.383 . S
C178 C183 1.385 . S
C179 H160 0.947 . S
C179 C178 1.383 . S
C179 C180 1.388 . S
C180 H161 0.946 . S
C180 C179 1.388 . S
C180 C181 1.384 . S
C181 C180 1.384 . S
C181 C182 1.377 . S
C182 H162 0.953 . S
C182 C181 1.377 . S
C182 C183 1.369 . S
C183 H163 0.945 . S
C183 C178 1.385 . S
C183 C182 1.369 . S
C184 C176 1.457 . S
C184 C185 1.372 . S
C184 C189 1.364 . S
C185 H164 0.952 . S
C185 C184 1.372 . S
C185 C186 1.389 . S
C186 H165 0.949 . S
C186 C185 1.389 . S
C186 C187 1.387 . S
C187 C186 1.387 . S
C187 C188 1.372 . S
C188 H166 0.950 . S
C188 C187 1.372 . S
C188 C189 1.379 . S
C189 H167 0.948 . S
C189 C184 1.364 . S
C189 C188 1.379 . S
C190 C159 1.383 . S
C190 C177 1.479 . S
C190 C191 1.398 . S
C191 C156 1.382 . S
C191 H168 0.951 . S
C191 C190 1.398 . S
C192 C193 1.384 . S
C192 H205 0.947 . S
C192 C227 1.382 . S
C193 C192 1.384 . S
C193 C194 1.378 . S
C194 C193 1.378 . S
C194 C195 1.378 . S
C194 H206 0.952 . S
C195 C194 1.378 . S
C195 H207 0.950 . S
C195 C226 1.383 . S
H196 C215 0.947 . S
H197 C216 0.946 . S
H198 C218 0.953 . S
H199 C219 0.945 . S
H200 C221 0.952 . S
H201 C222 0.949 . S
H202 C224 0.950 . S
H203 C225 0.948 . S
H204 C227 0.951 . S
H205 C192 0.947 . S
H206 C194 0.952 . S
H207 C195 0.950 . S
N208 C211 1.382 . S
N208 C213 1.363 1_455 S
N209 C211 1.371 . S
N209 C212 1.372 . S
N210 C212 1.361 1_655 S
N210 C213 1.377 . S
C211 N208 1.382 . S
C211 N209 1.371 . S
C211 C214 1.480 . S
C212 N209 1.372 . S
C212 N210 1.361 1_455 S
C212 C220 1.457 . S
C213 N208 1.363 1_655 S
C213 N210 1.377 . S
C213 C226 1.479 . S
C214 C211 1.480 . S
C214 C215 1.383 . S
C214 C219 1.385 . S
C215 H196 0.947 . S
C215 C214 1.383 . S
C215 C216 1.388 . S
C216 H197 0.946 . S
C216 C215 1.388 . S
C216 C217 1.384 . S
C217 C216 1.384 . S
C217 C218 1.377 . S
C218 H198 0.953 . S
C218 C217 1.377 . S
C218 C219 1.369 . S
C219 H199 0.945 . S
C219 C214 1.385 . S
C219 C218 1.369 . S
C220 C212 1.457 . S
C220 C221 1.372 . S
C220 C225 1.364 1_455 S
C221 H200 0.952 . S
C221 C220 1.372 . S
C221 C222 1.389 . S
C222 H201 0.949 . S
C222 C221 1.389 . S
C222 C223 1.387 . S
C223 C222 1.387 . S
C223 C224 1.372 1_455 S
C224 H202 0.950 . S
C224 C223 1.372 1_655 S
C224 C225 1.379 . S
C225 H203 0.948 . S
C225 C220 1.364 1_655 S
C225 C224 1.379 . S
C226 C195 1.383 . S
C226 C213 1.479 . S
C226 C227 1.398 . S
C227 C192 1.382 . S
C227 H204 0.951 . S
C227 C226 1.398 . S
C228 C229 1.384 . S
C228 H241 0.947 . S
C228 C263 1.382 . S
C229 C228 1.384 . S
C229 C230 1.378 . S
C230 C229 1.378 . S
C230 C231 1.378 . S
C230 H242 0.952 . S
C231 C230 1.378 . S
C231 H243 0.950 . S
C231 C262 1.383 . S
H232 C251 0.947 . S
H233 C252 0.946 . S
H234 C254 0.953 . S
H235 C255 0.945 . S
H236 C257 0.952 . S
H237 C258 0.949 . S
H238 C260 0.950 . S
H239 C261 0.948 . S
H240 C263 0.951 . S
H241 C228 0.947 . S
H242 C230 0.952 . S
H243 C231 0.950 . S
N244 C247 1.382 1_455 S
N244 C249 1.363 . S
N245 C247 1.371 . S
N245 C248 1.372 1_655 S
N246 C248 1.361 . S
N246 C249 1.377 . S
C247 N244 1.382 1_655 S
C247 N245 1.371 . S
C247 C250 1.480 . S
C248 N245 1.372 1_455 S
C248 N246 1.361 . S
C248 C256 1.457 . S
C249 N244 1.363 . S
C249 N246 1.377 . S
C249 C262 1.479 . S
C250 C247 1.480 . S
C250 C251 1.383 . S
C250 C255 1.385 . S
C251 H232 0.947 . S
C251 C250 1.383 . S
C251 C252 1.388 . S
C252 H233 0.946 . S
C252 C251 1.388 . S
C252 C253 1.384 . S
C253 C252 1.384 . S
C253 C254 1.377 . S
C254 H234 0.953 . S
C254 C253 1.377 . S
C254 C255 1.369 . S
C255 H235 0.945 . S
C255 C250 1.385 . S
C255 C254 1.369 . S
C256 C248 1.457 . S
C256 C257 1.372 1_455 S
C256 C261 1.364 . S
C257 H236 0.952 . S
C257 C256 1.372 1_655 S
C257 C258 1.389 . S
C258 H237 0.949 . S
C258 C257 1.389 . S
C258 C259 1.401 . S
C259 C258 1.401 . S
C259 C260 1.357 1_655 S
C260 H238 0.950 . S
C260 C259 1.357 1_455 S
C260 C261 1.379 . S
C261 H239 0.948 . S
C261 C256 1.364 . S
C261 C260 1.379 . S
C262 C231 1.383 . S
C262 C249 1.479 . S
C262 C263 1.398 . S
C263 C228 1.382 . S
C263 H240 0.951 . S
C263 C262 1.398 . S
C264 C265 1.384 . S
C264 H277 0.947 . S
C264 C299 1.382 . S
C265 C264 1.384 . S
C265 C266 1.378 . S
C266 C265 1.378 . S
C266 C267 1.378 . S
C266 H278 0.952 . S
C267 C266 1.378 . S
C267 H279 0.950 . S
C267 C298 1.383 . S
H268 C287 0.947 . S
H269 C288 0.946 . S
H270 C290 0.953 . S
H271 C291 0.945 . S
H272 C293 0.952 . S
H273 C294 0.949 . S
H274 C296 0.950 . S
H275 C297 0.948 . S
H276 C299 0.951 . S
H277 C264 0.947 . S
H278 C266 0.952 . S
H279 C267 0.950 . S
N280 C283 1.382 1_545 S
N280 C285 1.363 . S
N281 C283 1.371 . S
N281 C284 1.372 1_565 S
N282 C284 1.361 . S
N282 C285 1.377 . S
C283 N280 1.382 1_565 S
C283 N281 1.371 . S
C283 C286 1.480 . S
C284 N281 1.372 1_545 S
C284 N282 1.361 . S
C284 C292 1.457 . S
C285 N280 1.363 . S
C285 N282 1.377 . S
C285 C298 1.479 . S
C286 C283 1.480 . S
C286 C287 1.383 . S
C286 C291 1.385 . S
C287 H268 0.947 . S
C287 C286 1.383 . S
C287 C288 1.388 . S
C288 H269 0.946 . S
C288 C287 1.388 . S
C288 C289 1.384 . S
C289 C288 1.384 . S
C289 C290 1.377 . S
C290 H270 0.953 . S
C290 C289 1.377 . S
C290 C291 1.369 . S
C291 H271 0.945 . S
C291 C286 1.385 . S
C291 C290 1.369 . S
C292 C284 1.457 . S
C292 C293 1.372 1_545 S
C292 C297 1.364 . S
C293 H272 0.952 . S
C293 C292 1.372 1_565 S
C293 C294 1.389 . S
C294 H273 0.949 . S
C294 C293 1.389 . S
C294 C295 1.387 1_565 S
C295 C294 1.387 1_545 S
C295 C296 1.372 . S
C296 H274 0.950 . S
C296 C295 1.372 . S
C296 C297 1.379 . S
C297 H275 0.948 . S
C297 C292 1.364 . S
C297 C296 1.379 . S
C298 C267 1.383 . S
C298 C285 1.479 . S
C298 C299 1.398 . S
C299 C264 1.382 . S
C299 H276 0.951 . S
C299 C298 1.398 . S
C300 C301 1.384 . S
C300 H313 0.947 . S
C300 C335 1.382 . S
C301 C300 1.384 . S
C301 C302 1.378 . S
C302 C301 1.378 . S
C302 C303 1.378 . S
C302 H314 0.952 . S
C303 C302 1.378 . S
C303 H315 0.950 . S
C303 C334 1.383 . S
H304 C323 0.947 . S
H305 C324 0.946 . S
H306 C326 0.953 . S
H307 C327 0.945 . S
H308 C329 0.952 . S
H309 C330 0.949 . S
H310 C332 0.950 . S
H311 C333 0.948 . S
H312 C335 0.951 . S
H313 C300 0.947 . S
H314 C302 0.952 . S
H315 C303 0.950 . S
N316 C319 1.382 . S
N316 C321 1.363 . S
N317 C319 1.371 . S
N317 C320 1.372 . S
N318 C320 1.361 . S
N318 C321 1.377 . S
C319 N316 1.382 . S
C319 N317 1.371 . S
C319 C322 1.480 . S
C320 N317 1.372 . S
C320 N318 1.361 . S
C320 C328 1.457 . S
C321 N316 1.363 . S
C321 N318 1.377 . S
C321 C334 1.479 . S
C322 C319 1.480 . S
C322 C323 1.383 . S
C322 C327 1.385 . S
C323 H304 0.947 . S
C323 C322 1.383 . S
C323 C324 1.388 . S
C324 H305 0.946 . S
C324 C323 1.388 . S
C324 C325 1.384 . S
C325 C324 1.384 . S
C325 C326 1.377 . S
C326 H306 0.953 . S
C326 C325 1.377 . S
C326 C327 1.369 . S
C327 H307 0.945 . S
C327 C322 1.385 . S
C327 C326 1.369 . S
C328 C320 1.457 . S
C328 C329 1.372 . S
C328 C333 1.364 . S
C329 H308 0.952 . S
C329 C328 1.372 . S
C329 C330 1.389 . S
C330 H309 0.949 . S
C330 C329 1.389 . S
C330 C331 1.387 . S
C331 C330 1.387 . S
C331 C332 1.372 . S
C332 H310 0.950 . S
C332 C331 1.372 . S
C332 C333 1.379 . S
C333 H311 0.948 . S
C333 C328 1.364 . S
C333 C332 1.379 . S
C334 C303 1.383 . S
C334 C321 1.479 . S
C334 C335 1.398 . S
C335 C300 1.382 . S
C335 H312 0.951 . S
C335 C334 1.398 . S
H336 C348 0.930 . S
H337 C350 0.930 . S
H338 C351 0.930 . S
H339 C355 0.959 . S
H340 C355 0.959 . S
H341 C355 0.961 . S
H342 C356 0.960 . S
H343 C356 0.961 . S
H344 C356 0.959 . S
H345 C359 0.929 . S
H346 C360 0.931 . S
H347 C362 0.930 . S
C348 H336 0.930 . S
C348 C349 1.399 . S
C348 C353 1.399 . S
C349 C348 1.399 . S
C349 C350 1.376 . S
C350 H337 0.930 . S
C350 C349 1.376 . S
C350 C351 1.388 . S
C351 H338 0.930 . S
C351 C350 1.388 . S
C351 C352 1.390 . S
C352 C351 1.390 . S
C352 C353 1.394 . S
C352 C358 1.465 . S
C353 C348 1.399 . S
C353 C352 1.394 . S
C353 C354 1.516 . S
C354 C353 1.516 . S
C354 C355 1.502 . S
C354 C356 1.561 . S
C354 C357 1.526 . S
C355 H339 0.959 . S
C355 H340 0.959 . S
C355 H341 0.961 . S
C355 C354 1.502 . S
C356 H342 0.960 . S
C356 H343 0.961 . S
C356 H344 0.959 . S
C356 C354 1.561 . S
C357 C354 1.526 . S
C357 C358 1.396 . S
C357 C362 1.390 . S
C358 C352 1.465 . S
C358 C357 1.396 . S
C358 C359 1.399 . S
C359 H345 0.929 . S
C359 C358 1.399 . S
C359 C360 1.385 . S
C360 H346 0.931 . S
C360 C359 1.385 . S
C360 C361 1.389 . S
C361 C360 1.389 . S
C361 C362 1.387 . S
C362 H347 0.930 . S
C362 C357 1.390 . S
C362 C361 1.387 . S
H363 C375 0.930 . S
H364 C377 0.930 . S
H365 C378 0.930 . S
H366 C382 0.959 . S
H367 C382 0.959 . S
H368 C382 0.961 . S
H369 C383 0.960 . S
H370 C383 0.961 . S
H371 C383 0.959 . S
H372 C386 0.929 . S
H373 C387 0.931 . S
H374 C389 0.930 . S
C375 H363 0.930 . S
C375 C376 1.399 . S
C375 C380 1.399 . S
C376 C375 1.399 . S
C376 C377 1.376 . S
C377 H364 0.930 . S
C377 C376 1.376 . S
C377 C378 1.388 . S
C378 H365 0.930 . S
C378 C377 1.388 . S
C378 C379 1.390 . S
C379 C378 1.390 . S
C379 C380 1.394 . S
C379 C385 1.465 . S
C380 C375 1.399 . S
C380 C379 1.394 . S
C380 C381 1.516 . S
C381 C380 1.516 . S
C381 C382 1.502 . S
C381 C383 1.561 . S
C381 C384 1.526 . S
C382 H366 0.959 . S
C382 H367 0.959 . S
C382 H368 0.961 . S
C382 C381 1.502 . S
C383 H369 0.960 . S
C383 H370 0.961 . S
C383 H371 0.959 . S
C383 C381 1.561 . S
C384 C381 1.526 . S
C384 C385 1.396 . S
C384 C389 1.390 . S
C385 C379 1.465 . S
C385 C384 1.396 . S
C385 C386 1.399 . S
C386 H372 0.929 . S
C386 C385 1.399 . S
C386 C387 1.385 . S
C387 H373 0.931 . S
C387 C386 1.385 . S
C387 C388 1.389 . S
C388 C387 1.389 . S
C388 C389 1.387 . S
C389 H374 0.930 . S
C389 C384 1.390 . S
C389 C388 1.387 . S
H390 C402 0.930 . S
H391 C404 0.930 . S
H392 C405 0.930 . S
H393 C409 0.959 . S
H394 C409 0.959 . S
H395 C409 0.961 . S
H396 C410 0.960 . S
H397 C410 0.961 . S
H398 C410 0.959 . S
H399 C413 0.929 . S
H400 C414 0.931 . S
H401 C416 0.930 . S
C402 H390 0.930 . S
C402 C403 1.399 . S
C402 C407 1.399 . S
C403 C402 1.399 . S
C403 C404 1.376 . S
C404 H391 0.930 . S
C404 C403 1.376 . S
C404 C405 1.388 . S
C405 H392 0.930 . S
C405 C404 1.388 . S
C405 C406 1.390 . S
C406 C405 1.390 . S
C406 C407 1.394 . S
C406 C412 1.465 . S
C407 C402 1.399 . S
C407 C406 1.394 . S
C407 C408 1.516 . S
C408 C407 1.516 . S
C408 C409 1.502 . S
C408 C410 1.561 . S
C408 C411 1.526 . S
C409 H393 0.959 . S
C409 H394 0.959 . S
C409 H395 0.961 . S
C409 C408 1.502 . S
C410 H396 0.960 . S
C410 H397 0.961 . S
C410 H398 0.959 . S
C410 C408 1.561 . S
C411 C408 1.526 . S
C411 C412 1.396 . S
C411 C416 1.390 . S
C412 C406 1.465 . S
C412 C411 1.396 . S
C412 C413 1.399 . S
C413 H399 0.929 . S
C413 C412 1.399 . S
C413 C414 1.385 . S
C414 H400 0.931 . S
C414 C413 1.385 . S
C414 C415 1.389 . S
C415 C414 1.389 . S
C415 C416 1.387 . S
C416 H401 0.930 . S
C416 C411 1.390 . S
C416 C415 1.387 . S
H417 C429 0.930 . S
H418 C431 0.930 . S
H419 C432 0.930 . S
H420 C436 0.959 . S
H421 C436 0.959 . S
H422 C436 0.961 . S
H423 C437 0.960 . S
H424 C437 0.961 . S
H425 C437 0.959 . S
H426 C440 0.929 . S
H427 C441 0.931 . S
H428 C443 0.930 . S
C429 H417 0.930 . S
C429 C430 1.399 . S
C429 C434 1.399 . S
C430 C429 1.399 . S
C430 C431 1.376 . S
C431 H418 0.930 . S
C431 C430 1.376 . S
C431 C432 1.388 . S
C432 H419 0.930 . S
C432 C431 1.388 . S
C432 C433 1.390 . S
C433 C432 1.390 . S
C433 C434 1.394 . S
C433 C439 1.465 . S
C434 C429 1.399 . S
C434 C433 1.394 . S
C434 C435 1.516 . S
C435 C434 1.516 . S
C435 C436 1.502 . S
C435 C437 1.561 . S
C435 C438 1.526 . S
C436 H420 0.959 . S
C436 H421 0.959 . S
C436 H422 0.961 . S
C436 C435 1.502 . S
C437 H423 0.960 . S
C437 H424 0.961 . S
C437 H425 0.959 . S
C437 C435 1.561 . S
C438 C435 1.526 . S
C438 C439 1.396 . S
C438 C443 1.390 . S
C439 C433 1.465 . S
C439 C438 1.396 . S
C439 C440 1.399 . S
C440 H426 0.929 . S
C440 C439 1.399 . S
C440 C441 1.385 . S
C441 H427 0.931 . S
C441 C440 1.385 . S
C441 C442 1.389 . S
C442 C441 1.389 . S
C442 C443 1.387 . S
C443 H428 0.930 . S
C443 C438 1.390 . S
C443 C442 1.387 . S
H444 C456 0.930 . S
H445 C458 0.930 . S
H446 C459 0.930 . S
H447 C463 0.959 . S
H448 C463 0.959 . S
H449 C463 0.961 . S
H450 C464 0.960 . S
H451 C464 0.961 . S
H452 C464 0.959 . S
H453 C467 0.929 . S
H454 C468 0.931 . S
H455 C470 0.930 . S
C456 H444 0.930 . S
C456 C457 1.399 . S
C456 C461 1.399 . S
C457 C456 1.399 . S
C457 C458 1.376 . S
C458 H445 0.930 . S
C458 C457 1.376 . S
C458 C459 1.388 . S
C459 H446 0.930 . S
C459 C458 1.388 . S
C459 C460 1.390 . S
C460 C459 1.390 . S
C460 C461 1.394 . S
C460 C466 1.465 . S
C461 C456 1.399 . S
C461 C460 1.394 . S
C461 C462 1.516 . S
C462 C461 1.516 . S
C462 C463 1.502 . S
C462 C464 1.561 . S
C462 C465 1.526 . S
C463 H447 0.959 . S
C463 H448 0.959 . S
C463 H449 0.961 . S
C463 C462 1.502 . S
C464 H450 0.960 . S
C464 H451 0.961 . S
C464 H452 0.959 . S
C464 C462 1.561 . S
C465 C462 1.526 . S
C465 C466 1.396 . S
C465 C470 1.390 . S
C466 C460 1.465 . S
C466 C465 1.396 . S
C466 C467 1.399 . S
C467 H453 0.929 . S
C467 C466 1.399 . S
C467 C468 1.385 . S
C468 H454 0.931 . S
C468 C467 1.385 . S
C468 C469 1.389 . S
C469 C468 1.389 . S
C469 C470 1.387 . S
C470 H455 0.930 . S
C470 C465 1.390 . S
C470 C469 1.387 . S
H471 C483 0.930 . S
H472 C485 0.930 . S
H473 C486 0.930 . S
H474 C490 0.959 . S
H475 C490 0.959 . S
H476 C490 0.961 . S
H477 C491 0.960 . S
H478 C491 0.961 . S
H479 C491 0.959 . S
H480 C494 0.929 . S
H481 C495 0.931 . S
H482 C497 0.930 . S
C483 H471 0.930 . S
C483 C484 1.399 . S
C483 C488 1.399 . S
C484 C483 1.399 . S
C484 C485 1.376 . S
C485 H472 0.930 . S
C485 C484 1.376 . S
C485 C486 1.388 . S
C486 H473 0.930 . S
C486 C485 1.388 . S
C486 C487 1.390 . S
C487 C486 1.390 . S
C487 C488 1.394 . S
C487 C493 1.465 . S
C488 C483 1.399 . S
C488 C487 1.394 . S
C488 C489 1.516 . S
C489 C488 1.516 . S
C489 C490 1.502 . S
C489 C491 1.561 . S
C489 C492 1.526 . S
C490 H474 0.959 . S
C490 H475 0.959 . S
C490 H476 0.961 . S
C490 C489 1.502 . S
C491 H477 0.960 . S
C491 H478 0.961 . S
C491 H479 0.959 . S
C491 C489 1.561 . S
C492 C489 1.526 . S
C492 C493 1.396 . S
C492 C497 1.390 . S
C493 C487 1.465 . S
C493 C492 1.396 . S
C493 C494 1.399 . S
C494 H480 0.929 . S
C494 C493 1.399 . S
C494 C495 1.385 . S
C495 H481 0.931 . S
C495 C494 1.385 . S
C495 C496 1.389 . S
C496 C495 1.389 . S
C496 C497 1.387 . S
C497 H482 0.930 . S
C497 C492 1.390 . S
C497 C496 1.387 . S
H498 C510 0.930 . S
H499 C512 0.930 . S
H500 C513 0.930 . S
H501 C517 0.959 . S
H502 C517 0.959 . S
H503 C517 0.961 . S
H504 C518 0.960 . S
H505 C518 0.961 . S
H506 C518 0.959 . S
H507 C521 0.929 . S
H508 C522 0.931 . S
H509 C524 0.930 . S
C510 H498 0.930 . S
C510 C511 1.399 . S
C510 C515 1.399 . S
C511 C510 1.399 . S
C511 C512 1.376 . S
C512 H499 0.930 . S
C512 C511 1.376 . S
C512 C513 1.388 . S
C513 H500 0.930 . S
C513 C512 1.388 . S
C513 C514 1.390 . S
C514 C513 1.390 . S
C514 C515 1.394 . S
C514 C520 1.465 . S
C515 C510 1.399 . S
C515 C514 1.394 . S
C515 C516 1.516 . S
C516 C515 1.516 . S
C516 C517 1.502 . S
C516 C518 1.561 . S
C516 C519 1.526 . S
C517 H501 0.959 . S
C517 H502 0.959 . S
C517 H503 0.961 . S
C517 C516 1.502 . S
C518 H504 0.960 . S
C518 H505 0.961 . S
C518 H506 0.959 . S
C518 C516 1.561 . S
C519 C516 1.526 . S
C519 C520 1.396 . S
C519 C524 1.390 . S
C520 C514 1.465 . S
C520 C519 1.396 . S
C520 C521 1.399 . S
C521 H507 0.929 . S
C521 C520 1.399 . S
C521 C522 1.385 . S
C522 H508 0.931 . S
C522 C521 1.385 . S
C522 C523 1.389 . S
C523 C522 1.389 . S
C523 C524 1.387 . S
C524 H509 0.930 . S
C524 C519 1.390 . S
C524 C523 1.387 . S
H525 C537 0.930 . S
H526 C539 0.930 . S
H527 C540 0.930 . S
H528 C544 0.959 . S
H529 C544 0.959 . S
H530 C544 0.961 . S
H531 C545 0.960 . S
H532 C545 0.961 . S
H533 C545 0.959 . S
H534 C548 0.929 . S
H535 C549 0.931 . S
H536 C551 0.930 . S
C537 H525 0.930 . S
C537 C538 1.399 . S
C537 C542 1.399 . S
C538 C537 1.399 . S
C538 C539 1.376 . S
C539 H526 0.930 . S
C539 C538 1.376 . S
C539 C540 1.388 . S
C540 H527 0.930 . S
C540 C539 1.388 . S
C540 C541 1.390 . S
C541 C540 1.390 . S
C541 C542 1.394 . S
C541 C547 1.465 . S
C542 C537 1.399 . S
C542 C541 1.394 . S
C542 C543 1.516 . S
C543 C542 1.516 . S
C543 C544 1.502 . S
C543 C545 1.561 . S
C543 C546 1.526 . S
C544 H528 0.959 . S
C544 H529 0.959 . S
C544 H530 0.961 . S
C544 C543 1.502 . S
C545 H531 0.960 . S
C545 H532 0.961 . S
C545 H533 0.959 . S
C545 C543 1.561 . S
C546 C543 1.526 . S
C546 C547 1.396 . S
C546 C551 1.390 . S
C547 C541 1.465 . S
C547 C546 1.396 . S
C547 C548 1.399 . S
C548 H534 0.929 . S
C548 C547 1.399 . S
C548 C549 1.385 . S
C549 H535 0.931 . S
C549 C548 1.385 . S
C549 C550 1.389 . S
C550 C549 1.389 . S
C550 C551 1.387 . S
C551 H536 0.930 . S
C551 C546 1.390 . S
C551 C550 1.387 . S
H552 C564 0.930 . S
H553 C566 0.930 . S
H554 C567 0.930 . S
H555 C571 0.959 . S
H556 C571 0.959 . S
H557 C571 0.961 . S
H558 C572 0.960 . S
H559 C572 0.961 . S
H560 C572 0.959 . S
H561 C575 0.929 . S
H562 C576 0.931 . S
H563 C578 0.930 . S
C564 H552 0.930 . S
C564 C565 1.399 . S
C564 C569 1.399 . S
C565 C564 1.399 . S
C565 C566 1.376 . S
C566 H553 0.930 . S
C566 C565 1.376 . S
C566 C567 1.388 . S
C567 H554 0.930 . S
C567 C566 1.388 . S
C567 C568 1.390 . S
C568 C567 1.390 . S
C568 C569 1.394 . S
C568 C574 1.465 . S
C569 C564 1.399 . S
C569 C568 1.394 . S
C569 C570 1.516 . S
C570 C569 1.516 . S
C570 C571 1.502 . S
C570 C572 1.561 . S
C570 C573 1.526 . S
C571 H555 0.959 . S
C571 H556 0.959 . S
C571 H557 0.961 . S
C571 C570 1.502 . S
C572 H558 0.960 . S
C572 H559 0.961 . S
C572 H560 0.959 . S
C572 C570 1.561 . S
C573 C570 1.526 . S
C573 C574 1.396 . S
C573 C578 1.390 . S
C574 C568 1.465 . S
C574 C573 1.396 . S
C574 C575 1.399 . S
C575 H561 0.929 . S
C575 C574 1.399 . S
C575 C576 1.385 . S
C576 H562 0.931 . S
C576 C575 1.385 . S
C576 C577 1.389 . S
C577 C576 1.389 . S
C577 C578 1.387 . S
C578 H563 0.930 . S
C578 C573 1.390 . S
C578 C577 1.387 . S
H579 C591 0.930 . S
H580 C593 0.930 . S
H581 C594 0.930 . S
H582 C598 0.959 . S
H583 C598 0.959 . S
H584 C598 0.961 . S
H585 C599 0.960 . S
H586 C599 0.961 . S
H587 C599 0.959 . S
H588 C602 0.929 . S
H589 C603 0.931 . S
H590 C605 0.930 . S
C591 H579 0.930 . S
C591 C592 1.399 . S
C591 C596 1.399 . S
C592 C591 1.399 . S
C592 C593 1.376 . S
C593 H580 0.930 . S
C593 C592 1.376 . S
C593 C594 1.388 . S
C594 H581 0.930 . S
C594 C593 1.388 . S
C594 C595 1.390 . S
C595 C594 1.390 . S
C595 C596 1.394 . S
C595 C601 1.465 . S
C596 C591 1.399 . S
C596 C595 1.394 . S
C596 C597 1.516 . S
C597 C596 1.516 . S
C597 C598 1.502 . S
C597 C599 1.561 . S
C597 C600 1.526 . S
C598 H582 0.959 . S
C598 H583 0.959 . S
C598 H584 0.961 . S
C598 C597 1.502 . S
C599 H585 0.960 . S
C599 H586 0.961 . S
C599 H587 0.959 . S
C599 C597 1.561 . S
C600 C597 1.526 . S
C600 C601 1.396 . S
C600 C605 1.390 . S
C601 C595 1.465 . S
C601 C600 1.396 . S
C601 C602 1.399 . S
C602 H588 0.929 . S
C602 C601 1.399 . S
C602 C603 1.385 . S
C603 H589 0.931 . S
C603 C602 1.385 . S
C603 C604 1.389 . S
C604 C603 1.389 . S
C604 C605 1.387 . S
C605 H590 0.930 . S
C605 C600 1.390 . S
C605 C604 1.387 . S
H606 C618 0.930 . S
H607 C620 0.930 . S
H608 C621 0.930 . S
H609 C625 0.959 . S
H610 C625 0.959 . S
H611 C625 0.961 . S
H612 C626 0.960 . S
H613 C626 0.961 . S
H614 C626 0.959 . S
H615 C629 0.929 . S
H616 C630 0.931 . S
H617 C632 0.930 . S
C618 H606 0.930 . S
C618 C619 1.399 . S
C618 C623 1.399 . S
C619 C618 1.399 . S
C619 C620 1.376 . S
C620 H607 0.930 . S
C620 C619 1.376 . S
C620 C621 1.388 . S
C621 H608 0.930 . S
C621 C620 1.388 . S
C621 C622 1.390 . S
C622 C621 1.390 . S
C622 C623 1.394 . S
C622 C628 1.465 . S
C623 C618 1.399 . S
C623 C622 1.394 . S
C623 C624 1.516 . S
C624 C623 1.516 . S
C624 C625 1.502 . S
C624 C626 1.561 . S
C624 C627 1.526 . S
C625 H609 0.959 . S
C625 H610 0.959 . S
C625 H611 0.961 . S
C625 C624 1.502 . S
C626 H612 0.960 . S
C626 H613 0.961 . S
C626 H614 0.959 . S
C626 C624 1.561 . S
C627 C624 1.526 . S
C627 C628 1.396 . S
C627 C632 1.390 . S
C628 C622 1.465 . S
C628 C627 1.396 . S
C628 C629 1.399 . S
C629 H615 0.929 . S
C629 C628 1.399 . S
C629 C630 1.385 . S
C630 H616 0.931 . S
C630 C629 1.385 . S
C630 C631 1.389 . S
C631 C630 1.389 . S
C631 C632 1.387 . S
C632 H617 0.930 . S
C632 C627 1.390 . S
C632 C631 1.387 . S
H633 C645 0.930 . S
H634 C647 0.930 . S
H635 C648 0.930 . S
H636 C652 0.959 . S
H637 C652 0.959 . S
H638 C652 0.961 . S
H639 C653 0.960 . S
H640 C653 0.961 . S
H641 C653 0.959 . S
H642 C656 0.929 . S
H643 C657 0.931 . S
H644 C659 0.930 . S
C645 H633 0.930 . S
C645 C646 1.399 . S
C645 C650 1.399 . S
C646 C645 1.399 . S
C646 C647 1.376 . S
C647 H634 0.930 . S
C647 C646 1.376 . S
C647 C648 1.388 . S
C648 H635 0.930 . S
C648 C647 1.388 . S
C648 C649 1.390 . S
C649 C648 1.390 . S
C649 C650 1.394 . S
C649 C655 1.465 . S
C650 C645 1.399 . S
C650 C649 1.394 . S
C650 C651 1.516 . S
C651 C650 1.516 . S
C651 C652 1.502 . S
C651 C653 1.561 . S
C651 C654 1.526 . S
C652 H636 0.959 . S
C652 H637 0.959 . S
C652 H638 0.961 . S
C652 C651 1.502 . S
C653 H639 0.960 . S
C653 H640 0.961 . S
C653 H641 0.959 . S
C653 C651 1.561 . S
C654 C651 1.526 . S
C654 C655 1.396 . S
C654 C659 1.390 . S
C655 C649 1.465 . S
C655 C654 1.396 . S
C655 C656 1.399 . S
C656 H642 0.929 . S
C656 C655 1.399 . S
C656 C657 1.385 . S
C657 H643 0.931 . S
C657 C656 1.385 . S
C657 C658 1.389 . S
C658 C657 1.389 . S
C658 C659 1.387 . S
C659 H644 0.930 . S
C659 C654 1.390 . S
C659 C658 1.387 . S
H660 C672 0.930 . S
H661 C674 0.930 . S
H662 C675 0.930 . S
H663 C679 0.959 1_655 S
H664 C679 0.959 . S
H665 C679 0.961 . S
H666 C680 0.960 . S
H667 C680 0.961 . S
H668 C680 0.959 . S
H669 C683 0.929 . S
H670 C684 0.931 . S
H671 C686 0.930 . S
C672 H660 0.930 . S
C672 C673 1.399 . S
C672 C677 1.399 . S
C673 C672 1.399 . S
C673 C674 1.376 . S
C674 H661 0.930 . S
C674 C673 1.376 . S
C674 C675 1.388 . S
C675 H662 0.930 . S
C675 C674 1.388 . S
C675 C676 1.390 . S
C676 C675 1.390 . S
C676 C677 1.394 . S
C676 C682 1.465 . S
C677 C672 1.399 . S
C677 C676 1.394 . S
C677 C678 1.516 . S
C678 C677 1.516 . S
C678 C679 1.502 . S
C678 C680 1.561 . S
C678 C681 1.526 . S
C679 H663 0.959 1_455 S
C679 H664 0.959 . S
C679 H665 0.961 . S
C679 C678 1.502 . S
C680 H666 0.960 . S
C680 H667 0.961 . S
C680 H668 0.959 . S
C680 C678 1.561 . S
C681 C678 1.526 . S
C681 C682 1.396 . S
C681 C686 1.390 . S
C682 C676 1.465 . S
C682 C681 1.396 . S
C682 C683 1.399 . S
C683 H669 0.929 . S
C683 C682 1.399 . S
C683 C684 1.385 . S
C684 H670 0.931 . S
C684 C683 1.385 . S
C684 C685 1.389 . S
C685 C684 1.389 . S
C685 C686 1.387 . S
C686 H671 0.930 . S
C686 C681 1.390 . S
C686 C685 1.387 . S
H687 C699 0.930 1_565 S
H688 C701 0.930 . S
H689 C702 0.930 . S
H690 C706 0.959 . S
H691 C706 0.959 . S
H692 C706 0.961 . S
H693 C707 0.960 . S
H694 C707 0.961 . S
H695 C707 0.959 . S
H696 C710 0.929 . S
H697 C711 0.931 . S
H698 C713 0.930 . S
C699 H687 0.930 1_545 S
C699 C700 1.399 . S
C699 C704 1.399 . S
C700 C699 1.399 . S
C700 C701 1.376 . S
C701 H688 0.930 . S
C701 C700 1.376 . S
C701 C702 1.388 . S
C702 H689 0.930 . S
C702 C701 1.388 . S
C702 C703 1.390 . S
C703 C702 1.390 . S
C703 C704 1.394 . S
C703 C709 1.465 . S
C704 C699 1.399 . S
C704 C703 1.394 . S
C704 C705 1.516 1_545 S
C705 C704 1.516 1_565 S
C705 C706 1.502 . S
C705 C707 1.561 . S
C705 C708 1.526 1_565 S
C706 H690 0.959 . S
C706 H691 0.959 . S
C706 H692 0.961 . S
C706 C705 1.502 . S
C707 H693 0.960 . S
C707 H694 0.961 . S
C707 H695 0.959 . S
C707 C705 1.561 . S
C708 C705 1.526 1_545 S
C708 C709 1.396 . S
C708 C713 1.390 . S
C709 C703 1.465 . S
C709 C708 1.396 . S
C709 C710 1.399 . S
C710 H696 0.929 . S
C710 C709 1.399 . S
C710 C711 1.385 . S
C711 H697 0.931 . S
C711 C710 1.385 . S
C711 C712 1.389 . S
C712 C711 1.389 . S
C712 C713 1.387 . S
C713 H698 0.930 . S
C713 C708 1.390 . S
C713 C712 1.387 . S
H714 C726 0.930 . S
H715 C728 0.930 . S
H716 C729 0.930 . S
H717 C733 0.959 . S
H718 C733 0.959 . S
H719 C733 0.961 . S
H720 C734 0.960 . S
H721 C734 0.961 . S
H722 C734 0.959 . S
H723 C737 0.929 . S
H724 C738 0.931 . S
H725 C740 0.930 . S
C726 H714 0.930 . S
C726 C727 1.399 . S
C726 C731 1.399 . S
C727 C726 1.399 . S
C727 C728 1.376 . S
C728 H715 0.930 . S
C728 C727 1.376 . S
C728 C729 1.388 . S
C729 H716 0.930 . S
C729 C728 1.388 . S
C729 C730 1.390 . S
C730 C729 1.390 . S
C730 C731 1.394 . S
C730 C736 1.465 . S
C731 C726 1.399 . S
C731 C730 1.394 . S
C731 C732 1.516 . S
C732 C731 1.516 . S
C732 C733 1.502 . S
C732 C734 1.561 . S
C732 C735 1.526 . S
C733 H717 0.959 . S
C733 H718 0.959 . S
C733 H719 0.961 . S
C733 C732 1.502 . S
C734 H720 0.960 . S
C734 H721 0.961 . S
C734 H722 0.959 . S
C734 C732 1.561 . S
C735 C732 1.526 . S
C735 C736 1.396 . S
C735 C740 1.390 . S
C736 C730 1.465 . S
C736 C735 1.396 . S
C736 C737 1.399 . S
C737 H723 0.929 . S
C737 C736 1.399 . S
C737 C738 1.385 . S
C738 H724 0.931 . S
C738 C737 1.385 . S
C738 C739 1.389 . S
C739 C738 1.389 . S
C739 C740 1.387 . S
C740 H725 0.930 . S
C740 C735 1.390 . S
C740 C739 1.387 . S
H741 C753 0.930 . S
H742 C755 0.930 . S
H743 C756 0.930 . S
H744 C760 0.959 . S
H745 C760 0.959 . S
H746 C760 0.961 . S
H747 C761 0.960 . S
H748 C761 0.961 . S
H749 C761 0.959 . S
H750 C764 0.929 . S
H751 C765 0.931 . S
H752 C767 0.930 . S
C753 H741 0.930 . S
C753 C754 1.399 1_565 S
C753 C758 1.399 . S
C754 C753 1.399 1_545 S
C754 C755 1.376 . S
C755 H742 0.930 . S
C755 C754 1.376 . S
C755 C756 1.388 . S
C756 H743 0.930 . S
C756 C755 1.388 . S
C756 C757 1.390 . S
C757 C756 1.390 . S
C757 C758 1.394 1_545 S
C757 C763 1.465 . S
C758 C753 1.399 . S
C758 C757 1.394 1_565 S
C758 C759 1.516 . S
C759 C758 1.516 . S
C759 C760 1.502 . S
C759 C761 1.561 . S
C759 C762 1.526 . S
C760 H744 0.959 . S
C760 H745 0.959 . S
C760 H746 0.961 . S
C760 C759 1.502 . S
C761 H747 0.960 . S
C761 H748 0.961 . S
C761 H749 0.959 . S
C761 C759 1.561 . S
C762 C759 1.526 . S
C762 C763 1.396 1_565 S
C762 C767 1.390 . S
C763 C757 1.465 . S
C763 C762 1.396 1_545 S
C763 C764 1.399 . S
C764 H750 0.929 . S
C764 C763 1.399 . S
C764 C765 1.385 . S
C765 H751 0.931 . S
C765 C764 1.385 . S
C765 C766 1.389 . S
C766 C765 1.389 . S
C766 C767 1.387 1_545 S
C767 H752 0.930 . S
C767 C762 1.390 . S
C767 C766 1.387 1_565 S
H768 C780 0.930 . S
H769 C782 0.930 . S
H770 C783 0.930 . S
H771 C787 0.959 . S
H772 C787 0.959 . S
H773 C787 0.961 . S
H774 C788 0.960 . S
H775 C788 0.961 . S
H776 C788 0.959 . S
H777 C791 0.929 . S
H778 C792 0.951 . S
H779 C794 0.930 . S
C780 H768 0.930 . S
C780 C781 1.399 . S
C780 C785 1.399 . S
C781 C780 1.399 . S
C781 C782 1.376 . S
C782 H769 0.930 . S
C782 C781 1.376 . S
C782 C783 1.388 . S
C783 H770 0.930 . S
C783 C782 1.388 . S
C783 C784 1.390 . S
C784 C783 1.390 . S
C784 C785 1.394 . S
C784 C790 1.465 . S
C785 C780 1.399 . S
C785 C784 1.394 . S
C785 C786 1.516 . S
C786 C785 1.516 . S
C786 C787 1.502 . S
C786 C788 1.561 . S
C786 C789 1.526 . S
C787 H771 0.959 . S
C787 H772 0.959 . S
C787 H773 0.961 . S
C787 C786 1.502 . S
C788 H774 0.960 . S
C788 H775 0.961 . S
C788 H776 0.959 . S
C788 C786 1.561 . S
C789 C786 1.526 . S
C789 C790 1.396 . S
C789 C794 1.390 . S
C790 C784 1.465 . S
C790 C789 1.396 . S
C790 C791 1.399 . S
C791 H777 0.929 . S
C791 C790 1.399 . S
C791 C792 1.385 . S
C792 H778 0.951 . S
C792 C791 1.385 . S
C792 C793 1.389 . S
C793 C792 1.389 . S
C793 C794 1.387 . S
C794 H779 0.930 . S
C794 C789 1.390 . S
C794 C793 1.387 . S
H795 C807 0.930 . S
H796 C809 0.930 . S
H797 C810 0.930 . S
H798 C814 0.959 . S
H799 C814 0.959 . S
H800 C814 0.961 . S
H801 C815 0.960 . S
H802 C815 0.961 . S
H803 C815 0.959 1_455 S
H804 C818 0.929 . S
H805 C819 0.931 . S
H806 C821 0.930 . S
C807 H795 0.930 . S
C807 C808 1.399 1_655 S
C807 C812 1.399 . S
C808 C807 1.399 1_455 S
C808 C809 1.376 . S
C809 H796 0.930 . S
C809 C808 1.376 . S
C809 C810 1.388 . S
C810 H797 0.930 . S
C810 C809 1.388 . S
C810 C811 1.390 . S
C811 C810 1.390 . S
C811 C812 1.394 1_455 S
C811 C817 1.465 . S
C812 C807 1.399 . S
C812 C811 1.394 1_655 S
C812 C813 1.516 . S
C813 C812 1.516 . S
C813 C814 1.502 . S
C813 C815 1.561 . S
C813 C816 1.526 . S
C814 H798 0.959 . S
C814 H799 0.959 . S
C814 H800 0.961 . S
C814 C813 1.502 . S
C815 H801 0.960 . S
C815 H802 0.961 . S
C815 H803 0.959 1_655 S
C815 C813 1.561 . S
C816 C813 1.526 . S
C816 C817 1.396 1_655 S
C816 C821 1.390 . S
C817 C811 1.465 . S
C817 C816 1.396 1_455 S
C817 C818 1.399 . S
C818 H804 0.929 . S
C818 C817 1.399 . S
C818 C819 1.385 . S
C819 H805 0.931 . S
C819 C818 1.385 . S
C819 C820 1.378 1_455 S
C820 C819 1.378 1_655 S
C820 C821 1.392 . S
C821 H806 0.930 . S
C821 C816 1.390 . S
C821 C820 1.392 . S
C349 C24 2.931 . S
C361 C325 2.864 . S
C376 C66 1.103 . S
C388 C253 1.117 . S
C403 C93 1.823 . S
C415 C289 1.732 . S
C430 C13 3.071 . S
C442 C301 3.017 . S
C469 C229 1.279 . S
C457 C57 1.275 . S
C496 C265 1.913 . S
C484 C104 1.969 . S
C511 C64 1.943 . S
C523 C181 1.905 . S
C538 C97 0.562 . S
C550 C193 0.451 . S
C565 C17 1.276 . S
C577 C121 1.291 . S
C604 C157 1.784 . S
C592 C53 1.836 . S
C631 C217 0.357 . S
C619 C106 0.300 . S
C646 C26 1.146 . S
C658 C145 1.186 . S
C685 C223 1.046 1_554 S
C673 C2 1.046 . S
C700 C63 1.448 . S
C712 C151 1.504 . S
C727 C82 1.384 . S
C739 C187 1.374 . S
C766 C295 1.376 . S
C754 C42 1.356 . S
C793 C331 1.780 1_556 S
C781 C103 1.710 . S
C808 C23 1.443 . S
C820 C259 1.482 . S
