# Generated by pormake.
# Topology ptr, (4,4)-cn, num edge types: 1
# Building blocks:
#     Node 0, Type 0, BuildingBlock: QUQFOY_clean_sbu_3, # of connection points: 4
#     Node 1, Type 0, BuildingBlock: QUQFOY_clean_sbu_3, # of connection points: 4
#     Node 2, Type 0, BuildingBlock: QUQFOY_clean_sbu_3, # of connection points: 4
#     Node 3, Type 0, BuildingBlock: QUQFOY_clean_sbu_3, # of connection points: 4
#     Node 4, Type 0, BuildingBlock: QUQFOY_clean_sbu_3, # of connection points: 4
#     Node 5, Type 0, BuildingBlock: QUQFOY_clean_sbu_3, # of connection points: 4
#     Node 6, Type 0, BuildingBlock: QUQFOY_clean_sbu_3, # of connection points: 4
#     Node 7, Type 0, BuildingBlock: QUQFOY_clean_sbu_3, # of connection points: 4
#     Node 8, Type 0, BuildingBlock: QUQFOY_clean_sbu_3, # of connection points: 4
#     Node 9, Type 0, BuildingBlock: QUQFOY_clean_sbu_3, # of connection points: 4
#     Node 10, Type 0, BuildingBlock: QUQFOY_clean_sbu_3, # of connection points: 4
#     Node 11, Type 0, BuildingBlock: QUQFOY_clean_sbu_3, # of connection points: 4
#     Node 12, Type 0, BuildingBlock: QUQFOY_clean_sbu_3, # of connection points: 4
#     Node 13, Type 0, BuildingBlock: QUQFOY_clean_sbu_3, # of connection points: 4
#     Node 14, Type 0, BuildingBlock: QUQFOY_clean_sbu_3, # of connection points: 4
#     Node 15, Type 0, BuildingBlock: QUQFOY_clean_sbu_3, # of connection points: 4
#     Node 16, Type 0, BuildingBlock: QUQFOY_clean_sbu_3, # of connection points: 4
#     Node 17, Type 0, BuildingBlock: QUQFOY_clean_sbu_3, # of connection points: 4
#     Node 18, Type 1, BuildingBlock: AZAVOO_clean_linker_0, # of connection points: 4
#     Node 19, Type 1, BuildingBlock: AZAVOO_clean_linker_0, # of connection points: 4
#     Node 20, Type 1, BuildingBlock: AZAVOO_clean_linker_0, # of connection points: 4
#     Node 21, Type 1, BuildingBlock: AZAVOO_clean_linker_0, # of connection points: 4
#     Node 22, Type 1, BuildingBlock: AZAVOO_clean_linker_0, # of connection points: 4
#     Node 23, Type 1, BuildingBlock: AZAVOO_clean_linker_0, # of connection points: 4
#     Node 24, Type 1, BuildingBlock: AZAVOO_clean_linker_0, # of connection points: 4
#     Node 25, Type 1, BuildingBlock: AZAVOO_clean_linker_0, # of connection points: 4
#     Node 26, Type 1, BuildingBlock: AZAVOO_clean_linker_0, # of connection points: 4
#     Node 27, Type 1, BuildingBlock: AZAVOO_clean_linker_0, # of connection points: 4
#     Node 28, Type 1, BuildingBlock: AZAVOO_clean_linker_0, # of connection points: 4
#     Node 29, Type 1, BuildingBlock: AZAVOO_clean_linker_0, # of connection points: 4
#     Node 30, Type 1, BuildingBlock: AZAVOO_clean_linker_0, # of connection points: 4
#     Node 31, Type 1, BuildingBlock: AZAVOO_clean_linker_0, # of connection points: 4
#     Node 32, Type 1, BuildingBlock: AZAVOO_clean_linker_0, # of connection points: 4
#     Node 33, Type 1, BuildingBlock: AZAVOO_clean_linker_0, # of connection points: 4
#     Node 34, Type 1, BuildingBlock: AZAVOO_clean_linker_0, # of connection points: 4
#     Node 35, Type 1, BuildingBlock: AZAVOO_clean_linker_0, # of connection points: 4
#     Edge 36, Type (0, 1), BuildingBlock: KIFKEQ_clean_linker_1, # of connection points: 2
#     Edge 37, Type (0, 1), BuildingBlock: KIFKEQ_clean_linker_1, # of connection points: 2
#     Edge 38, Type (0, 1), BuildingBlock: KIFKEQ_clean_linker_1, # of connection points: 2
#     Edge 39, Type (0, 1), BuildingBlock: KIFKEQ_clean_linker_1, # of connection points: 2
#     Edge 40, Type (0, 1), BuildingBlock: KIFKEQ_clean_linker_1, # of connection points: 2
#     Edge 41, Type (0, 1), BuildingBlock: KIFKEQ_clean_linker_1, # of connection points: 2
#     Edge 42, Type (0, 1), BuildingBlock: KIFKEQ_clean_linker_1, # of connection points: 2
#     Edge 43, Type (0, 1), BuildingBlock: KIFKEQ_clean_linker_1, # of connection points: 2
#     Edge 44, Type (0, 1), BuildingBlock: KIFKEQ_clean_linker_1, # of connection points: 2
#     Edge 45, Type (0, 1), BuildingBlock: KIFKEQ_clean_linker_1, # of connection points: 2
#     Edge 46, Type (0, 1), BuildingBlock: KIFKEQ_clean_linker_1, # of connection points: 2
#     Edge 47, Type (0, 1), BuildingBlock: KIFKEQ_clean_linker_1, # of connection points: 2
#     Edge 48, Type (0, 1), BuildingBlock: KIFKEQ_clean_linker_1, # of connection points: 2
#     Edge 49, Type (0, 1), BuildingBlock: KIFKEQ_clean_linker_1, # of connection points: 2
#     Edge 50, Type (0, 1), BuildingBlock: KIFKEQ_clean_linker_1, # of connection points: 2
#     Edge 51, Type (0, 1), BuildingBlock: KIFKEQ_clean_linker_1, # of connection points: 2
#     Edge 52, Type (0, 1), BuildingBlock: KIFKEQ_clean_linker_1, # of connection points: 2
#     Edge 53, Type (0, 1), BuildingBlock: KIFKEQ_clean_linker_1, # of connection points: 2
#     Edge 54, Type (0, 1), BuildingBlock: KIFKEQ_clean_linker_1, # of connection points: 2
#     Edge 55, Type (0, 1), BuildingBlock: KIFKEQ_clean_linker_1, # of connection points: 2
#     Edge 56, Type (0, 1), BuildingBlock: KIFKEQ_clean_linker_1, # of connection points: 2
#     Edge 57, Type (0, 1), BuildingBlock: KIFKEQ_clean_linker_1, # of connection points: 2
#     Edge 58, Type (0, 1), BuildingBlock: KIFKEQ_clean_linker_1, # of connection points: 2
#     Edge 59, Type (0, 1), BuildingBlock: KIFKEQ_clean_linker_1, # of connection points: 2
#     Edge 60, Type (0, 1), BuildingBlock: KIFKEQ_clean_linker_1, # of connection points: 2
#     Edge 61, Type (0, 1), BuildingBlock: KIFKEQ_clean_linker_1, # of connection points: 2
#     Edge 62, Type (0, 1), BuildingBlock: KIFKEQ_clean_linker_1, # of connection points: 2
#     Edge 63, Type (0, 1), BuildingBlock: KIFKEQ_clean_linker_1, # of connection points: 2
#     Edge 64, Type (0, 1), BuildingBlock: KIFKEQ_clean_linker_1, # of connection points: 2
#     Edge 65, Type (0, 1), BuildingBlock: KIFKEQ_clean_linker_1, # of connection points: 2
#     Edge 66, Type (0, 1), BuildingBlock: KIFKEQ_clean_linker_1, # of connection points: 2
#     Edge 67, Type (0, 1), BuildingBlock: KIFKEQ_clean_linker_1, # of connection points: 2
#     Edge 68, Type (0, 1), BuildingBlock: KIFKEQ_clean_linker_1, # of connection points: 2
#     Edge 69, Type (0, 1), BuildingBlock: KIFKEQ_clean_linker_1, # of connection points: 2
#     Edge 70, Type (0, 1), BuildingBlock: KIFKEQ_clean_linker_1, # of connection points: 2
#     Edge 71, Type (0, 1), BuildingBlock: KIFKEQ_clean_linker_1, # of connection points: 2
#     Edge 72, Type (0, 1), BuildingBlock: KIFKEQ_clean_linker_1, # of connection points: 2
#     Edge 73, Type (0, 1), BuildingBlock: KIFKEQ_clean_linker_1, # of connection points: 2
#     Edge 74, Type (0, 1), BuildingBlock: KIFKEQ_clean_linker_1, # of connection points: 2
#     Edge 75, Type (0, 1), BuildingBlock: KIFKEQ_clean_linker_1, # of connection points: 2
#     Edge 76, Type (0, 1), BuildingBlock: KIFKEQ_clean_linker_1, # of connection points: 2
#     Edge 77, Type (0, 1), BuildingBlock: KIFKEQ_clean_linker_1, # of connection points: 2
#     Edge 78, Type (0, 1), BuildingBlock: KIFKEQ_clean_linker_1, # of connection points: 2
#     Edge 79, Type (0, 1), BuildingBlock: KIFKEQ_clean_linker_1, # of connection points: 2
#     Edge 80, Type (0, 1), BuildingBlock: KIFKEQ_clean_linker_1, # of connection points: 2
#     Edge 81, Type (0, 1), BuildingBlock: KIFKEQ_clean_linker_1, # of connection points: 2
#     Edge 82, Type (0, 1), BuildingBlock: KIFKEQ_clean_linker_1, # of connection points: 2
#     Edge 83, Type (0, 1), BuildingBlock: KIFKEQ_clean_linker_1, # of connection points: 2
#     Edge 84, Type (0, 1), BuildingBlock: KIFKEQ_clean_linker_1, # of connection points: 2
#     Edge 85, Type (0, 1), BuildingBlock: KIFKEQ_clean_linker_1, # of connection points: 2
#     Edge 86, Type (0, 1), BuildingBlock: KIFKEQ_clean_linker_1, # of connection points: 2
#     Edge 87, Type (0, 1), BuildingBlock: KIFKEQ_clean_linker_1, # of connection points: 2
#     Edge 88, Type (0, 1), BuildingBlock: KIFKEQ_clean_linker_1, # of connection points: 2
#     Edge 89, Type (0, 1), BuildingBlock: KIFKEQ_clean_linker_1, # of connection points: 2
#     Edge 90, Type (0, 1), BuildingBlock: KIFKEQ_clean_linker_1, # of connection points: 2
#     Edge 91, Type (0, 1), BuildingBlock: KIFKEQ_clean_linker_1, # of connection points: 2
#     Edge 92, Type (0, 1), BuildingBlock: KIFKEQ_clean_linker_1, # of connection points: 2
#     Edge 93, Type (0, 1), BuildingBlock: KIFKEQ_clean_linker_1, # of connection points: 2
#     Edge 94, Type (0, 1), BuildingBlock: KIFKEQ_clean_linker_1, # of connection points: 2
#     Edge 95, Type (0, 1), BuildingBlock: KIFKEQ_clean_linker_1, # of connection points: 2
#     Edge 96, Type (0, 1), BuildingBlock: KIFKEQ_clean_linker_1, # of connection points: 2
#     Edge 97, Type (0, 1), BuildingBlock: KIFKEQ_clean_linker_1, # of connection points: 2
#     Edge 98, Type (0, 1), BuildingBlock: KIFKEQ_clean_linker_1, # of connection points: 2
#     Edge 99, Type (0, 1), BuildingBlock: KIFKEQ_clean_linker_1, # of connection points: 2
#     Edge 100, Type (0, 1), BuildingBlock: KIFKEQ_clean_linker_1, # of connection points: 2
#     Edge 101, Type (0, 1), BuildingBlock: KIFKEQ_clean_linker_1, # of connection points: 2
#     Edge 102, Type (0, 1), BuildingBlock: KIFKEQ_clean_linker_1, # of connection points: 2
#     Edge 103, Type (0, 1), BuildingBlock: KIFKEQ_clean_linker_1, # of connection points: 2
#     Edge 104, Type (0, 1), BuildingBlock: KIFKEQ_clean_linker_1, # of connection points: 2
#     Edge 105, Type (0, 1), BuildingBlock: KIFKEQ_clean_linker_1, # of connection points: 2
#     Edge 106, Type (0, 1), BuildingBlock: KIFKEQ_clean_linker_1, # of connection points: 2
#     Edge 107, Type (0, 1), BuildingBlock: KIFKEQ_clean_linker_1, # of connection points: 2
# Relax obj value: 0.053
# Max RMSD: 0.179
# Mean RMSD: 0.120
data_MOF--net-ptr--node1-QUQFOY_clean_sbu_3--node2-AZAVOO_clean_linker_0--edge1-KIFKEQ_clean_linker_1
_symmetry_space_group_name_H-M    P1
_symmetry_Int_Tables_number       1
_symmetry_cell_setting            triclinic
loop_
_symmetry_equiv_pos_as_xyz
'x, y, z'
_cell_length_a     83.563806
_cell_length_b     82.525236
_cell_length_c     70.921486
_cell_angle_alpha  92.945438
_cell_angle_beta   91.904029
_cell_angle_gamma 120.70061
loop_
_atom_site_label
_atom_site_type_symbol
_atom_site_fract_x
_atom_site_fract_y
_atom_site_fract_z
_atom_type_partial_charge
C0 C 0.9635 0.31898 0.00351 0.0
O1 O 0.9539 0.32612 0.00882 0.0
Cd2 Cd 0.96696 0.35707 0.02432 0.0
O3 O 0.9811 0.3279 0.00723 0.0
Cd4 Cd 0.00589 0.3576 0.02475 0.0
C5 C 1e-05 0.38349 0.99293 0.0
O6 O 0.98759 0.3599 0.04977 0.0
O7 O 0.01456 0.38466 0.0473 0.0
O8 O 0.01372 0.33628 0.03894 0.0
C9 C -0.00025 0.37663 0.05598 0.0
O10 O 0.98499 0.37857 0.00104 0.0
C11 C 0.03114 0.34592 0.03717 0.0
O12 O 0.01053 0.37712 0.99769 0.0
O13 O 0.03714 0.3612 0.02904 0.0
C14 C 0.62462 0.65599 0.08433 0.0
O15 O 0.6072 0.64736 0.07994 0.0
Cd16 Cd 0.59182 0.6182 0.06003 0.0
O17 O 0.63449 0.64957 0.07783 0.0
Cd18 Cd 0.63141 0.62344 0.05659 0.0
C19 C 0.60319 0.59065 0.08527 0.0
O20 O 0.60926 0.62304 0.03258 0.0
O21 O 0.61499 0.60034 0.02962 0.0
O22 O 0.66038 0.64863 0.04615 0.0
C23 C 0.60719 0.6087 0.02281 0.0
O24 O 0.59067 0.59363 0.07858 0.0
C25 C 0.66904 0.63972 0.04626 0.0
O26 O 0.62002 0.60053 0.0809 0.0
O27 O 0.66028 0.62303 0.05157 0.0
C28 C 0.34349 0.95884 0.02627 0.0
O29 O 0.34906 0.94785 0.02049 0.0
Cd30 Cd 0.37989 0.96131 0.00913 0.0
O31 O 0.3536 0.97655 0.02504 0.0
Cd32 Cd 0.3826 0.00171 0.0138 0.0
C33 C 0.40589 0.99281 0.04759 0.0
O34 O 0.38256 0.98286 0.98617 0.0
O35 O 0.40686 0.01089 0.99174 0.0
O36 O 0.36053 0.01021 0.00295 0.0
C37 C 0.39825 0.99561 0.98118 0.0
O38 O 0.40048 0.97739 0.03762 0.0
C39 C 0.37029 0.02765 0.00833 0.0
O40 O 0.40112 0.00446 0.04258 0.0
O41 O 0.38636 0.03346 0.01635 0.0
C42 C 0.95602 0.63012 0.02634 0.0
O43 O 0.94713 0.61269 0.02925 0.0
Cd44 Cd 0.96085 0.59841 0.04774 0.0
O45 O 0.97264 0.64084 0.03342 0.0
Cd46 Cd 0.99634 0.63909 0.05321 0.0
C47 C 0.99785 0.608 0.02145 0.0
O48 O 0.9764 0.61766 0.07652 0.0
O49 O 0.00507 0.6245 0.07685 0.0
O50 O 0.00342 0.66994 0.06682 0.0
C51 C 0.98957 0.61637 0.08434 0.0
O52 O 0.98271 0.59565 0.02794 0.0
C53 C 0.02096 0.67779 0.06609 0.0
O54 O 0.0053 0.62547 0.02691 0.0
O55 O 0.0271 0.66773 0.05899 0.0
C56 C 0.34155 0.38695 0.01623 0.0
O57 O 0.35046 0.40471 0.01503 0.0
Cd58 Cd 0.38055 0.42064 0.00203 0.0
O59 O 0.34816 0.37695 0.01018 0.0
Cd60 Cd 0.3749 0.37925 0.99468 0.0
C61 C 0.40402 0.40688 0.03209 0.0
O62 O 0.37918 0.40311 0.97343 0.0
O63 O 0.40102 0.39639 0.97538 0.0
O64 O 0.35279 0.3518 0.97436 0.0
C65 C 0.39446 0.40555 0.96777 0.0
O66 O 0.40153 0.41978 0.02611 0.0
C67 C 0.35914 0.34138 0.97889 0.0
O68 O 0.39526 0.39019 0.02396 0.0
O69 O 0.37317 0.34864 0.99086 0.0
C70 C 0.66686 0.04448 0.03344 0.0
O71 O 0.66015 0.05466 0.03849 0.0
Cd72 Cd 0.62983 0.04012 0.05147 0.0
O73 O 0.65809 0.02694 0.03587 0.0
Cd74 Cd 0.62994 0.00204 0.04878 0.0
C75 C 0.60379 0.00678 0.01465 0.0
O76 O 0.62723 0.01995 0.07605 0.0
O77 O 0.60371 0.99186 0.06818 0.0
O78 O 0.6517 0.9952 0.06405 0.0
C79 C 0.6112 0.00655 0.07962 0.0
O80 O 0.60804 0.02198 0.02446 0.0
C81 C 0.64389 0.97802 0.05775 0.0
O82 O 0.61058 0.9967 0.01945 0.0
O83 O 0.62902 0.97153 0.04706 0.0
C84 C 0.62962 0.65591 0.33256 0.0
O85 O 0.62006 0.66363 0.3358 0.0
Cd86 Cd 0.63236 0.69459 0.3509 0.0
O87 O 0.64685 0.66434 0.33815 0.0
Cd88 Cd 0.67061 0.69406 0.35665 0.0
C89 C 0.66887 0.72059 0.32281 0.0
O90 O 0.64959 0.69572 0.3788 0.0
O91 O 0.67744 0.72004 0.37996 0.0
O92 O 0.67798 0.673 0.37232 0.0
C93 C 0.66151 0.71187 0.38659 0.0
O94 O 0.65295 0.71587 0.32873 0.0
C95 C 0.69553 0.68303 0.37159 0.0
O96 O 0.67858 0.71416 0.32981 0.0
O97 O 0.70172 0.69829 0.36343 0.0
C98 C 0.29238 0.9892 0.41684 0.0
O99 O 0.2748 0.98059 0.41349 0.0
Cd100 Cd 0.25705 0.95067 0.39534 0.0
O101 O 0.30168 0.98198 0.41062 0.0
Cd102 Cd 0.29554 0.95312 0.39152 0.0
C103 C 0.26661 0.92283 0.42193 0.0
O104 O 0.27374 0.95354 0.36778 0.0
O105 O 0.27716 0.92934 0.36529 0.0
O106 O 0.32538 0.97463 0.37923 0.0
C107 C 0.27023 0.93847 0.3584 0.0
O108 O 0.25448 0.92622 0.41499 0.0
C109 C 0.33199 0.96384 0.38028 0.0
O110 O 0.28337 0.93177 0.41715 0.0
O111 O 0.32179 0.94805 0.38708 0.0
C112 C 0.02031 0.28892 0.36451 0.0
O113 O 0.02636 0.27787 0.36076 0.0
Cd114 Cd 0.0568 0.28969 0.34971 0.0
O115 O 0.03 0.30632 0.36149 0.0
Cd116 Cd 0.05949 0.32871 0.34802 0.0
C117 C 0.08349 0.32498 0.38479 0.0
O118 O 0.05828 0.30694 0.32288 0.0
O119 O 0.08452 0.33336 0.32786 0.0
O120 O 0.04056 0.33811 0.331 0.0
C121 C 0.07437 0.31812 0.31756 0.0
O122 O 0.07815 0.30861 0.37699 0.0
C123 C 0.05048 0.35565 0.33589 0.0
O124 O 0.07833 0.33553 0.37756 0.0
O125 O 0.06498 0.361 0.3468 0.0
C126 C 0.62657 0.95474 0.3534 0.0
O127 O 0.61841 0.9372 0.35579 0.0
Cd128 Cd 0.63211 0.92339 0.37469 0.0
O129 O 0.64271 0.96609 0.36139 0.0
Cd130 Cd 0.66652 0.96558 0.38253 0.0
C131 C 0.67186 0.93645 0.35132 0.0
O132 O 0.6458 0.94256 0.40381 0.0
O133 O 0.67471 0.95026 0.40623 0.0
O134 O 0.67218 0.99423 0.40038 0.0
C135 C 0.65857 0.94111 0.41231 0.0
O136 O 0.65609 0.92348 0.35607 0.0
C137 C 0.68911 0.00428 0.39665 0.0
O138 O 0.67868 0.95354 0.35787 0.0
O139 O 0.69566 0.99633 0.38628 0.0
C140 C 0.00618 0.71787 0.35643 0.0
O141 O 0.01272 0.73546 0.35558 0.0
Cd142 Cd 0.04379 0.7553 0.34566 0.0
O143 O 0.01545 0.71041 0.35089 0.0
Cd144 Cd 0.0446 0.71893 0.3362 0.0
C145 C 0.06966 0.74493 0.37586 0.0
O146 O 0.0463 0.74255 0.31527 0.0
O147 O 0.07081 0.74022 0.31905 0.0
O148 O 0.02572 0.6898 0.31621 0.0
C149 C 0.06251 0.74722 0.31044 0.0
O150 O 0.06568 0.75712 0.37082 0.0
C151 C 0.03637 0.6833 0.31919 0.0
O152 O 0.06292 0.72909 0.36629 0.0
O153 O 0.05096 0.69346 0.33007 0.0
C154 C 0.32499 0.37567 0.36134 0.0
O155 O 0.31807 0.38593 0.36508 0.0
Cd156 Cd 0.28876 0.3728 0.37976 0.0
O157 O 0.31683 0.35867 0.36581 0.0
Cd158 Cd 0.28936 0.33564 0.38149 0.0
C159 C 0.2609 0.33596 0.34676 0.0
O160 O 0.28952 0.35704 0.40721 0.0
O161 O 0.26537 0.32881 0.40339 0.0
O162 O 0.3125 0.32927 0.39463 0.0
C163 C 0.27419 0.34455 0.41316 0.0
O164 O 0.26524 0.35194 0.35486 0.0
C165 C 0.30256 0.3114 0.3922 0.0
O166 O 0.2684 0.3269 0.35275 0.0
O167 O 0.28614 0.30449 0.38462 0.0
C168 C 0.30186 0.99616 0.6611 0.0
O169 O 0.2928 0.00461 0.66284 0.0
Cd170 Cd 0.30401 0.03442 0.68052 0.0
O171 O 0.31823 0.00341 0.66903 0.0
Cd172 Cd 0.3404 0.03225 0.68934 0.0
C173 C 0.34308 0.06222 0.65714 0.0
O174 O 0.31761 0.03283 0.70986 0.0
O175 O 0.34537 0.05731 0.7129 0.0
O176 O 0.34794 0.01147 0.70567 0.0
C177 C 0.32907 0.04861 0.71864 0.0
O178 O 0.3273 0.05876 0.66242 0.0
C179 C 0.36551 0.0223 0.70605 0.0
O180 O 0.35064 0.05325 0.66323 0.0
O181 O 0.37152 0.03764 0.69811 0.0
C182 C 0.95581 0.31843 0.74306 0.0
O183 O 0.93839 0.30987 0.73866 0.0
Cd184 Cd 0.92258 0.28014 0.72018 0.0
O185 O 0.96561 0.3117 0.73711 0.0
Cd186 Cd 0.96264 0.2847 0.71698 0.0
C187 C 0.93508 0.25499 0.74847 0.0
O188 O 0.94029 0.28376 0.69312 0.0
O189 O 0.94603 0.26106 0.69036 0.0
O190 O 0.99175 0.30949 0.70629 0.0
C191 C 0.93797 0.26919 0.6836 0.0
O192 O 0.92293 0.25865 0.74214 0.0
C193 C 0.00034 0.30052 0.70691 0.0
O194 O 0.95129 0.26277 0.74221 0.0
O195 O 0.99145 0.28396 0.71253 0.0
C196 C 0.6843 0.62661 0.69639 0.0
O197 O 0.69023 0.61566 0.69167 0.0
Cd198 Cd 0.72074 0.62939 0.6799 0.0
O199 O 0.69383 0.64407 0.69365 0.0
Cd200 Cd 0.72195 0.66833 0.67999 0.0
C201 C 0.74674 0.66445 0.71582 0.0
O202 O 0.72106 0.64745 0.65409 0.0
O203 O 0.74627 0.67494 0.65819 0.0
O204 O 0.6985 0.67411 0.66745 0.0
C205 C 0.73669 0.65935 0.64828 0.0
O206 O 0.74171 0.64835 0.70747 0.0
C207 C 0.7076 0.6919 0.67084 0.0
O208 O 0.74127 0.67498 0.70918 0.0
O209 O 0.72411 0.69931 0.67838 0.0
C210 C 0.29426 0.29659 0.69138 0.0
O211 O 0.28376 0.27948 0.69487 0.0
Cd212 Cd 0.29551 0.26213 0.71061 0.0
O213 O 0.31132 0.30578 0.69757 0.0
Cd214 Cd 0.33329 0.3016 0.71808 0.0
C215 C 0.33301 0.2711 0.68442 0.0
O216 O 0.31161 0.27971 0.73981 0.0
O217 O 0.33919 0.2836 0.74038 0.0
O218 O 0.34156 0.33219 0.73351 0.0
C219 C 0.32335 0.27608 0.7472 0.0
O220 O 0.31682 0.25947 0.68954 0.0
C221 C 0.35906 0.33944 0.73296 0.0
O222 O 0.34205 0.2881 0.69171 0.0
O223 O 0.36467 0.32911 0.72535 0.0
C224 C 0.67918 0.05801 0.68295 0.0
O225 O 0.68908 0.07562 0.68113 0.0
Cd226 Cd 0.71852 0.08935 0.66699 0.0
O227 O 0.68446 0.0468 0.67698 0.0
Cd228 Cd 0.71012 0.04692 0.66086 0.0
C229 C 0.74134 0.07492 0.69693 0.0
O230 O 0.71411 0.06997 0.63872 0.0
O231 O 0.73516 0.06215 0.63963 0.0
O232 O 0.6868 0.01861 0.64216 0.0
C233 C 0.72857 0.07128 0.63202 0.0
O234 O 0.73962 0.08821 0.69074 0.0
C235 C 0.69321 0.0083 0.64693 0.0
O236 O 0.73156 0.05809 0.6893 0.0
O237 O 0.70768 0.01597 0.65833 0.0
C238 C 0.98609 0.70365 0.69538 0.0
O239 O 0.9788 0.71367 0.69861 0.0
Cd240 Cd 0.9488 0.70055 0.71177 0.0
O241 O 0.97774 0.68648 0.69934 0.0
Cd242 Cd 0.949 0.663 0.71324 0.0
C243 C 0.92149 0.6645 0.67803 0.0
O244 O 0.94875 0.68408 0.73893 0.0
O245 O 0.92454 0.65595 0.73476 0.0
O246 O 0.97007 0.65426 0.72739 0.0
C247 C 0.93325 0.67166 0.7446 0.0
O248 O 0.92578 0.68048 0.68611 0.0
C249 C 0.95986 0.63664 0.72299 0.0
O250 O 0.92872 0.6553 0.68428 0.0
O251 O 0.94428 0.63104 0.71398 0.0
H252 H 0.16881 0.32886 0.02234 0.0
H253 H 0.26571 0.28602 0.17954 0.0
H254 H 0.15978 0.33347 0.12566 0.0
H255 H 0.13783 0.33978 0.10882 0.0
H256 H 0.09515 0.28081 0.10839 0.0
H257 H 0.11745 0.27454 0.12524 0.0
H258 H 0.18738 0.33359 0.10346 0.0
H259 H 0.18367 0.33719 0.06985 0.0
H260 H 0.14092 0.27803 0.06145 0.0
H261 H 0.14493 0.27458 0.09507 0.0
H262 H 0.21552 0.33625 0.13324 0.0
H263 H 0.24172 0.34913 0.1133 0.0
H264 H 0.21669 0.29525 0.0803 0.0
H265 H 0.19001 0.28265 0.10021 0.0
H266 H 0.21452 0.32677 0.17266 0.0
H267 H 0.24227 0.32732 0.18575 0.0
H268 H 0.22412 0.27355 0.15482 0.0
H269 H 0.19632 0.27309 0.14201 0.0
H270 H 0.17761 0.32408 0.18783 0.0
H271 H 0.1879 0.32734 0.22105 0.0
H272 H 0.18673 0.2744 0.21361 0.0
H273 H 0.17517 0.27066 0.18053 0.0
H274 H 0.14738 0.32378 0.16331 0.0
H275 H 0.12837 0.32328 0.18901 0.0
H276 H 0.11587 0.26712 0.19979 0.0
H277 H 0.13425 0.2673 0.17347 0.0
O278 O 0.17013 0.32709 0.03558 0.0
O279 O 0.14819 0.29661 0.03203 0.0
O280 O 0.26359 0.3138 0.19017 0.0
O281 O 0.25488 0.28619 0.17454 0.0
C282 C 0.15473 0.2998 0.13409 0.0
C283 C 0.1686 0.30155 0.12208 0.0
C284 C 0.18458 0.30187 0.1296 0.0
C285 C 0.18627 0.29923 0.14888 0.0
C286 C 0.17219 0.29692 0.1609 0.0
C287 C 0.15632 0.29712 0.15345 0.0
C288 C 0.14022 0.30354 0.12659 0.0
C289 C 0.14562 0.32194 0.12214 0.0
C290 C 0.13313 0.32549 0.1124 0.0
C291 C 0.11488 0.31074 0.10705 0.0
C292 C 0.10915 0.29244 0.11236 0.0
C293 C 0.1218 0.28884 0.122 0.0
C294 C 0.16659 0.30377 0.10162 0.0
C295 C 0.17737 0.32139 0.09429 0.0
C296 C 0.17515 0.32342 0.07511 0.0
C297 C 0.16202 0.30788 0.06295 0.0
C298 C 0.15118 0.29027 0.07041 0.0
C299 C 0.15345 0.28825 0.08959 0.0
C300 C 0.20101 0.30852 0.11821 0.0
C301 C 0.21583 0.32715 0.12187 0.0
C302 C 0.23083 0.33445 0.11047 0.0
C303 C 0.23139 0.32319 0.09524 0.0
C304 C 0.21659 0.30434 0.0918 0.0
C305 C 0.20145 0.29706 0.10321 0.0
C306 C 0.20333 0.29979 0.15656 0.0
C307 C 0.21653 0.31509 0.16882 0.0
C308 C 0.23238 0.31538 0.17623 0.0
C309 C 0.23538 0.30043 0.17138 0.0
C310 C 0.22222 0.28525 0.15889 0.0
C311 C 0.20634 0.28496 0.15153 0.0
C312 C 0.1756 0.29713 0.1817 0.0
C313 C 0.17897 0.31287 0.1935 0.0
C314 C 0.18517 0.31485 0.21244 0.0
C315 C 0.18856 0.30134 0.21994 0.0
C316 C 0.18422 0.28505 0.20836 0.0
C317 C 0.1777 0.28292 0.18942 0.0
C318 C 0.14207 0.2955 0.16638 0.0
C319 C 0.13988 0.31103 0.17062 0.0
C320 C 0.12915 0.3108 0.18538 0.0
C321 C 0.1208 0.29519 0.19633 0.0
C322 C 0.12225 0.27931 0.19152 0.0
C323 C 0.13266 0.27939 0.17651 0.0
C324 C 0.15965 0.31011 0.04259 0.0
C325 C 0.25215 0.30062 0.17929 0.0
H326 H 0.66936 0.81895 0.04943 0.0
H327 H 0.74708 0.98587 0.19496 0.0
H328 H 0.67222 0.81925 0.15385 0.0
H329 H 0.65979 0.78589 0.1444 0.0
H330 H 0.71528 0.79456 0.15144 0.0
H331 H 0.72769 0.82823 0.16078 0.0
H332 H 0.67501 0.84637 0.1285 0.0
H333 H 0.66744 0.83421 0.09522 0.0
H334 H 0.7219 0.84039 0.09249 0.0
H335 H 0.72935 0.85271 0.12574 0.0
H336 H 0.68063 0.88 0.15643 0.0
H337 H 0.67043 0.89523 0.13455 0.0
H338 H 0.71764 0.90868 0.1015 0.0
H339 H 0.72813 0.89378 0.12407 0.0
H340 H 0.69378 0.8921 0.19517 0.0
H341 H 0.69959 0.92363 0.20482 0.0
H342 H 0.75044 0.94848 0.17551 0.0
H343 H 0.74459 0.91685 0.16618 0.0
H344 H 0.69002 0.85688 0.21367 0.0
H345 H 0.6913 0.86944 0.24584 0.0
H346 H 0.74765 0.91486 0.24031 0.0
H347 H 0.74674 0.90144 0.20819 0.0
H348 H 0.6805 0.82399 0.19395 0.0
H349 H 0.67703 0.80306 0.21862 0.0
H350 H 0.73692 0.83204 0.22882 0.0
H351 H 0.74032 0.8532 0.20395 0.0
O352 O 0.67266 0.82385 0.06256 0.0
O353 O 0.70081 0.82725 0.06192 0.0
O354 O 0.71827 0.95975 0.20636 0.0
O355 O 0.74446 0.97323 0.19137 0.0
C356 C 0.70792 0.84634 0.16336 0.0
C357 C 0.70746 0.85793 0.14965 0.0
C358 C 0.71055 0.876 0.15531 0.0
C359 C 0.71553 0.88307 0.1745 0.0
C360 C 0.71633 0.87159 0.18825 0.0
C361 C 0.71232 0.85311 0.18265 0.0
C362 C 0.70084 0.82612 0.15783 0.0
C363 C 0.68169 0.81395 0.15333 0.0
C364 C 0.6746 0.79488 0.14813 0.0
C365 C 0.68655 0.7876 0.14729 0.0
C366 C 0.70578 0.79983 0.15188 0.0
C367 C 0.71287 0.81898 0.15724 0.0
C368 C 0.70281 0.85064 0.12943 0.0
C369 C 0.68534 0.84524 0.12063 0.0
C370 C 0.68103 0.83822 0.10165 0.0
C371 C 0.69409 0.83637 0.09117 0.0
C372 C 0.71155 0.84168 0.10013 0.0
C373 C 0.71584 0.84872 0.1191 0.0
C374 C 0.70522 0.88598 0.14195 0.0
C375 C 0.68889 0.8864 0.14457 0.0
C376 C 0.68293 0.89486 0.13188 0.0
C377 C 0.69309 0.90298 0.11614 0.0
C378 C 0.70955 0.90262 0.11354 0.0
C379 C 0.71556 0.89413 0.12636 0.0
C380 C 0.7189 0.90221 0.1802 0.0
C381 C 0.70624 0.90437 0.19098 0.0
C382 C 0.70956 0.9224 0.19641 0.0
C383 C 0.72552 0.9386 0.19098 0.0
C384 C 0.73804 0.93633 0.17997 0.0
C385 C 0.73474 0.91829 0.17461 0.0
C386 C 0.71843 0.87793 0.20867 0.0
C387 C 0.70299 0.86898 0.21963 0.0
C388 C 0.70367 0.87629 0.23797 0.0
C389 C 0.71962 0.89303 0.24554 0.0
C390 C 0.73526 0.90186 0.23477 0.0
C391 C 0.73475 0.89421 0.21651 0.0
C392 C 0.71065 0.84007 0.19715 0.0
C393 C 0.69289 0.82574 0.20137 0.0
C394 C 0.69094 0.8139 0.21553 0.0
C395 C 0.70672 0.81605 0.22566 0.0
C396 C 0.72456 0.8301 0.22114 0.0
C397 C 0.72651 0.84218 0.20705 0.0
C398 C 0.68946 0.8289 0.07101 0.0
C399 C 0.72913 0.95779 0.19673 0.0
H400 H 0.13445 0.8553 0.02994 0.0
H401 H 0.29286 0.96863 0.18052 0.0
H402 H 0.12252 0.85419 0.13175 0.0
H403 H 0.0962 0.82296 0.12022 0.0
H404 H 0.12772 0.79747 0.13842 0.0
H405 H 0.15333 0.82842 0.15042 0.0
H406 H 0.15789 0.88974 0.10759 0.0
H407 H 0.1474 0.87979 0.07416 0.0
H408 H 0.15366 0.83128 0.07934 0.0
H409 H 0.16435 0.84153 0.11266 0.0
H410 H 0.20197 0.92334 0.12394 0.0
H411 H 0.22632 0.93608 0.10123 0.0
H412 H 0.22494 0.88293 0.09671 0.0
H413 H 0.20086 0.87047 0.11925 0.0
H414 H 0.20039 0.9297 0.17086 0.0
H415 H 0.23131 0.95712 0.18017 0.0
H416 H 0.2564 0.92418 0.16435 0.0
H417 H 0.2254 0.89685 0.15528 0.0
H418 H 0.17221 0.90375 0.19848 0.0
H419 H 0.18477 0.91225 0.23173 0.0
H420 H 0.21694 0.88542 0.22197 0.0
H421 H 0.20462 0.87728 0.18887 0.0
H422 H 0.13007 0.86415 0.17814 0.0
H423 H 0.11049 0.84321 0.20167 0.0
H424 H 0.15053 0.82559 0.21127 0.0
H425 H 0.16958 0.84601 0.18748 0.0
O426 O 0.13866 0.859 0.04319 0.0
O427 O 0.14201 0.83423 0.04663 0.0
O428 O 0.26688 0.97434 0.18486 0.0
O429 O 0.28048 0.95803 0.17691 0.0
C430 C 0.15653 0.86226 0.14719 0.0
C431 C 0.16802 0.87248 0.13285 0.0
C432 C 0.18594 0.88831 0.13775 0.0
C433 C 0.19187 0.89476 0.15696 0.0
C434 C 0.18023 0.88477 0.17128 0.0
C435 C 0.16264 0.86843 0.1664 0.0
C436 C 0.1397 0.84348 0.14206 0.0
C437 C 0.12346 0.84174 0.13356 0.0
C438 C 0.10856 0.82392 0.12683 0.0
C439 C 0.10979 0.80762 0.12836 0.0
C440 C 0.12601 0.80954 0.13734 0.0
C441 C 0.14074 0.82726 0.14418 0.0
C442 C 0.16163 0.86623 0.11259 0.0
C443 C 0.15696 0.87696 0.10147 0.0
C444 C 0.15097 0.87124 0.08239 0.0
C445 C 0.14961 0.85469 0.07409 0.0
C446 C 0.15446 0.84405 0.08529 0.0
C447 C 0.16048 0.84981 0.10435 0.0
C448 C 0.19956 0.89595 0.12305 0.0
C449 C 0.20683 0.91445 0.11783 0.0
C450 C 0.22073 0.92169 0.10496 0.0
C451 C 0.22743 0.91044 0.09712 0.0
C452 C 0.21981 0.89181 0.10219 0.0
C453 C 0.20608 0.88468 0.11508 0.0
C454 C 0.2107 0.91139 0.16224 0.0
C455 C 0.2126 0.92848 0.16939 0.0
C456 C 0.23026 0.94409 0.17469 0.0
C457 C 0.24634 0.94285 0.17296 0.0
C458 C 0.24433 0.92564 0.16582 0.0
C459 C 0.22665 0.91003 0.16056 0.0
C460 C 0.18755 0.88994 0.19136 0.0
C461 C 0.18198 0.89976 0.20359 0.0
C462 C 0.18916 0.90461 0.22247 0.0
C463 C 0.20172 0.89937 0.22937 0.0
C464 C 0.20712 0.88942 0.21705 0.0
C465 C 0.20019 0.88487 0.19818 0.0
C466 C 0.1513 0.85672 0.18133 0.0
C467 C 0.13459 0.85582 0.18546 0.0
C468 C 0.12349 0.84393 0.19889 0.0
C469 C 0.12894 0.8327 0.20823 0.0
C470 C 0.14582 0.83385 0.20412 0.0
C471 C 0.15684 0.84568 0.19073 0.0
C472 C 0.14321 0.84863 0.05383 0.0
C473 C 0.26514 0.95939 0.17862 0.0
H474 H 0.29234 0.17037 0.02237 0.0
H475 H 0.32044 0.04364 0.88105 0.0
H476 H 0.27321 0.16217 0.92342 0.0
H477 H 0.27944 0.19379 0.93419 0.0
H478 H 0.33136 0.21896 0.90691 0.0
H479 H 0.32549 0.18756 0.89693 0.0
H480 H 0.27417 0.12913 0.94775 0.0
H481 H 0.27682 0.14195 0.98035 0.0
H482 H 0.33059 0.19014 0.97071 0.0
H483 H 0.32788 0.17703 0.93825 0.0
H484 H 0.28016 0.09338 0.93159 0.0
H485 H 0.29239 0.07959 0.9534 0.0
H486 H 0.34522 0.13239 0.95968 0.0
H487 H 0.33322 0.14561 0.93714 0.0
H488 H 0.26956 0.0849 0.88665 0.0
H489 H 0.27147 0.05662 0.87946 0.0
H490 H 0.33091 0.08919 0.89406 0.0
H491 H 0.32882 0.11738 0.901 0.0
H492 H 0.26676 0.10728 0.8571 0.0
H493 H 0.26857 0.09414 0.82577 0.0
H494 H 0.32862 0.1239 0.83473 0.0
H495 H 0.32667 0.13649 0.86595 0.0
H496 H 0.26743 0.15186 0.87403 0.0
H497 H 0.26816 0.17135 0.84861 0.0
H498 H 0.3244 0.18526 0.83875 0.0
H499 H 0.32355 0.16602 0.86404 0.0
O500 O 0.29163 0.1655 0.00945 0.0
O501 O 0.31915 0.19004 0.00372 0.0
O502 O 0.28869 0.0385 0.87642 0.0
O503 O 0.31928 0.05459 0.88382 0.0
C504 C 0.29686 0.15377 0.90545 0.0
C505 C 0.29885 0.14442 0.92075 0.0
C506 C 0.2998 0.12796 0.91719 0.0
C507 C 0.29779 0.12027 0.8984 0.0
C508 C 0.29578 0.12958 0.88316 0.0
C509 C 0.29546 0.1464 0.88662 0.0
C510 C 0.2988 0.17257 0.90923 0.0
C511 C 0.28574 0.17454 0.9195 0.0
C512 C 0.28933 0.19252 0.92567 0.0
C513 C 0.30584 0.20872 0.9213 0.0
C514 C 0.31841 0.20669 0.91022 0.0
C515 C 0.31501 0.18877 0.90441 0.0
C516 C 0.30072 0.15224 0.94059 0.0
C517 C 0.28652 0.14244 0.95273 0.0
C518 C 0.28806 0.14981 0.97133 0.0
C519 C 0.30388 0.16712 0.97812 0.0
C520 C 0.31818 0.17681 0.96592 0.0
C521 C 0.31664 0.1694 0.94736 0.0
C522 C 0.30581 0.12047 0.93276 0.0
C523 C 0.29427 0.102 0.93791 0.0
C524 C 0.30126 0.09421 0.95047 0.0
C525 C 0.31986 0.10485 0.95816 0.0
C526 C 0.33096 0.12371 0.95376 0.0
C527 C 0.32405 0.13138 0.94108 0.0
C528 C 0.29902 0.10311 0.89446 0.0
C529 C 0.28297 0.08586 0.8883 0.0
C530 C 0.2841 0.06975 0.88421 0.0
C531 C 0.30135 0.07064 0.88622 0.0
C532 C 0.31742 0.088 0.8924 0.0
C533 C 0.31626 0.10411 0.89643 0.0
C534 C 0.2966 0.12294 0.86362 0.0
C535 C 0.28027 0.11109 0.85212 0.0
C536 C 0.28132 0.10359 0.83436 0.0
C537 C 0.29875 0.10817 0.82786 0.0
C538 C 0.31505 0.12039 0.8393 0.0
C539 C 0.31396 0.12756 0.85709 0.0
C540 C 0.29528 0.15719 0.87058 0.0
C541 C 0.27978 0.15897 0.86618 0.0
C542 C 0.28027 0.17016 0.85177 0.0
C543 C 0.29627 0.17968 0.84155 0.0
C544 C 0.31171 0.17776 0.84603 0.0
C545 C 0.31124 0.16671 0.86044 0.0
C546 C 0.30542 0.17497 0.99784 0.0
C547 C 0.30265 0.05358 0.88184 0.0
H548 H 0.83847 0.14854 0.0255 0.0
H549 H 0.733 0.00931 0.8566 0.0
H550 H 0.8443 0.16257 0.9228 0.0
H551 H 0.8669 0.19294 0.93925 0.0
H552 H 0.9103 0.17966 0.93313 0.0
H553 H 0.88725 0.14878 0.91664 0.0
H554 H 0.81859 0.13604 0.94406 0.0
H555 H 0.82309 0.14295 0.9784 0.0
H556 H 0.86353 0.12504 0.98033 0.0
H557 H 0.85871 0.11797 0.94596 0.0
H558 H 0.78987 0.11191 0.91204 0.0
H559 H 0.76453 0.10085 0.93299 0.0
H560 H 0.78542 0.06929 0.96103 0.0
H561 H 0.81137 0.08124 0.94024 0.0
H562 H 0.78929 0.10276 0.87221 0.0
H563 H 0.76036 0.07564 0.8577 0.0
H564 H 0.7757 0.03784 0.88152 0.0
H565 H 0.8047 0.06511 0.89575 0.0
H566 H 0.82605 0.13713 0.85967 0.0
H567 H 0.81513 0.13109 0.82648 0.0
H568 H 0.81409 0.0781 0.82444 0.0
H569 H 0.82647 0.08504 0.85759 0.0
H570 H 0.85403 0.16545 0.88387 0.0
H571 H 0.87509 0.18712 0.86218 0.0
H572 H 0.89319 0.14779 0.84726 0.0
H573 H 0.87162 0.1259 0.86898 0.0
O574 O 0.83683 0.14561 0.01193 0.0
O575 O 0.85756 0.13632 0.01214 0.0
O576 O 0.73715 0.04033 0.85017 0.0
O577 O 0.74435 0.02029 0.86216 0.0
C578 C 0.84951 0.13452 0.91022 0.0
C579 C 0.83556 0.12211 0.92167 0.0
C580 C 0.81892 0.1065 0.91323 0.0
C581 C 0.81688 0.10231 0.89345 0.0
C582 C 0.83113 0.11431 0.88195 0.0
C583 C 0.84745 0.13053 0.89037 0.0
C584 C 0.8641 0.15339 0.91884 0.0
C585 C 0.85867 0.16616 0.92503 0.0
C586 C 0.87157 0.18346 0.93444 0.0
C587 C 0.89025 0.18847 0.93773 0.0
C588 C 0.89594 0.17604 0.93082 0.0
C589 C 0.88286 0.15849 0.92146 0.0
C590 C 0.83811 0.12621 0.94257 0.0
C591 C 0.82824 0.1334 0.95194 0.0
C592 C 0.83093 0.13744 0.97156 0.0
C593 C 0.84363 0.13449 0.98213 0.0
C594 C 0.8536 0.12742 0.97263 0.0
C595 C 0.85087 0.12336 0.95301 0.0
C596 C 0.80234 0.09724 0.92452 0.0
C597 C 0.78876 0.10231 0.92247 0.0
C598 C 0.77424 0.09592 0.93449 0.0
C599 C 0.77283 0.0841 0.94875 0.0
C600 C 0.7862 0.07857 0.9504 0.0
C601 C 0.80091 0.08517 0.93841 0.0
C602 C 0.79919 0.08587 0.88481 0.0
C603 C 0.78643 0.08861 0.87415 0.0
C604 C 0.76989 0.0731 0.86594 0.0
C605 C 0.76574 0.05456 0.8684 0.0
C606 C 0.77848 0.05191 0.8793 0.0
C607 C 0.79505 0.06745 0.88745 0.0
C608 C 0.82731 0.11167 0.86105 0.0
C609 C 0.82422 0.12459 0.85191 0.0
C610 C 0.81758 0.12089 0.83299 0.0
C611 C 0.81334 0.1039 0.82288 0.0
C612 C 0.81728 0.09135 0.83178 0.0
C613 C 0.8243 0.09526 0.85072 0.0
C614 C 0.86148 0.14421 0.87822 0.0
C615 C 0.86284 0.16168 0.87625 0.0
C616 C 0.87494 0.17407 0.86383 0.0
C617 C 0.88602 0.16931 0.85306 0.0
C618 C 0.8848 0.15186 0.85525 0.0
C619 C 0.87259 0.1394 0.86771 0.0
C620 C 0.84648 0.13883 0.00296 0.0
C621 C 0.74821 0.03802 0.85967 0.0
H622 H 0.87897 0.71341 0.04345 0.0
H623 H 0.72599 0.68502 0.89923 0.0
H624 H 0.88806 0.72062 0.94378 0.0
H625 H 0.90991 0.71204 0.95709 0.0
H626 H 0.87373 0.65451 0.93326 0.0
H627 H 0.8524 0.66338 0.91972 0.0
H628 H 0.85756 0.7262 0.96879 0.0
H629 H 0.86797 0.72631 0.00149 0.0
H630 H 0.85186 0.66762 0.99128 0.0
H631 H 0.84124 0.66765 0.95873 0.0
H632 H 0.81734 0.72297 0.95253 0.0
H633 H 0.79383 0.71675 0.97547 0.0
H634 H 0.78363 0.66008 0.97843 0.0
H635 H 0.80689 0.66636 0.95555 0.0
H636 H 0.81894 0.72866 0.90801 0.0
H637 H 0.79062 0.7296 0.90054 0.0
H638 H 0.75704 0.67072 0.91156 0.0
H639 H 0.78548 0.66995 0.91881 0.0
H640 H 0.84194 0.72625 0.87968 0.0
H641 H 0.82854 0.72324 0.84746 0.0
H642 H 0.79339 0.6629 0.85107 0.0
H643 H 0.80614 0.66633 0.88339 0.0
H644 H 0.88113 0.72389 0.89569 0.0
H645 H 0.8978 0.72081 0.86918 0.0
H646 H 0.85406 0.66233 0.85774 0.0
H647 H 0.83787 0.66547 0.88446 0.0
O648 O 0.87462 0.71301 0.03051 0.0
O649 O 0.86625 0.68289 0.02448 0.0
O650 O 0.7553 0.71525 0.89647 0.0
O651 O 0.7374 0.68503 0.90206 0.0
C652 C 0.85349 0.69642 0.92651 0.0
C653 C 0.84301 0.69726 0.94141 0.0
C654 C 0.82673 0.69795 0.93735 0.0
C655 C 0.82145 0.6988 0.91846 0.0
C656 C 0.83203 0.69819 0.90362 0.0
C657 C 0.84796 0.69685 0.90761 0.0
C658 C 0.86871 0.69264 0.93075 0.0
C659 C 0.88523 0.70634 0.94096 0.0
C660 C 0.89755 0.70133 0.94873 0.0
C661 C 0.89346 0.68251 0.94648 0.0
C662 C 0.87748 0.66917 0.93513 0.0
C663 C 0.86525 0.67421 0.92732 0.0
C664 C 0.84884 0.69699 0.96136 0.0
C665 C 0.85624 0.71338 0.97368 0.0
C666 C 0.86221 0.7134 0.99233 0.0
C667 C 0.86083 0.697 -0.00102 0.0
C668 C 0.85319 0.68052 0.9866 0.0
C669 C 0.84717 0.68051 0.96799 0.0
C670 C 0.81388 0.69516 0.95247 0.0
C671 C 0.81014 0.70932 0.95833 0.0
C672 C 0.7967 0.70571 0.97135 0.0
C673 C 0.78693 0.68794 0.9788 0.0
C674 C 0.79113 0.67401 0.97323 0.0
C675 C 0.8044 0.67757 0.96014 0.0
C676 C 0.80422 0.69927 0.91402 0.0
C677 C 0.80544 0.71599 0.90877 0.0
C678 C 0.78926 0.71648 0.90453 0.0
C679 C 0.77156 0.70024 0.90549 0.0
C680 C 0.77043 0.68349 0.91072 0.0
C681 C 0.78663 0.68301 0.9149 0.0
C682 C 0.82495 0.6965 0.88377 0.0
C683 C 0.83135 0.71243 0.87339 0.0
C684 C 0.82373 0.71064 0.85498 0.0
C685 C 0.80972 0.69284 0.84666 0.0
C686 C 0.80377 0.6769 0.85711 0.0
C687 C 0.81118 0.67876 0.87552 0.0
C688 C 0.85828 0.69493 0.89188 0.0
C689 C 0.87525 0.71043 0.88747 0.0
C690 C 0.88466 0.70866 0.87227 0.0
C691 C 0.87725 0.69132 0.86133 0.0
C692 C 0.86029 0.67581 0.866 0.0
C693 C 0.85092 0.6776 0.88115 0.0
C694 C 0.86736 0.69713 0.01873 0.0
C695 C 0.75432 0.7007 0.90105 0.0
H696 H 0.83938 0.67063 0.35817 0.0
H697 H 0.91562 0.59988 0.50864 0.0
H698 H 0.82511 0.66961 0.45814 0.0
H699 H 0.8034 0.67705 0.44273 0.0
H700 H 0.75852 0.61947 0.44643 0.0
H701 H 0.78071 0.612 0.46127 0.0
H702 H 0.855 0.6682 0.43866 0.0
H703 H 0.85311 0.67449 0.40557 0.0
H704 H 0.80364 0.61911 0.39465 0.0
H705 H 0.80584 0.61291 0.42773 0.0
H706 H 0.88205 0.66244 0.46897 0.0
H707 H 0.90786 0.67124 0.4487 0.0
H708 H 0.87161 0.62426 0.40852 0.0
H709 H 0.84586 0.61475 0.42949 0.0
H710 H 0.87667 0.65314 0.50703 0.0
H711 H 0.90129 0.64798 0.51927 0.0
H712 H 0.87679 0.59533 0.48426 0.0
H713 H 0.85209 0.60054 0.47232 0.0
H714 H 0.84289 0.65675 0.52213 0.0
H715 H 0.85155 0.65703 0.5554 0.0
H716 H 0.84128 0.60032 0.54548 0.0
H717 H 0.83207 0.59992 0.51213 0.0
H718 H 0.81452 0.6614 0.49735 0.0
H719 H 0.79604 0.66301 0.52265 0.0
H720 H 0.77744 0.60517 0.53312 0.0
H721 H 0.79517 0.60323 0.50709 0.0
O722 O 0.8399 0.66782 0.37119 0.0
O723 O 0.81443 0.63927 0.36636 0.0
O724 O 0.91804 0.62941 0.52182 0.0
O725 O 0.90605 0.60228 0.50402 0.0
C726 C 0.81843 0.63555 0.46786 0.0
C727 C 0.83175 0.6362 0.45564 0.0
C728 C 0.84636 0.63379 0.46268 0.0
C729 C 0.84726 0.62999 0.48176 0.0
C730 C 0.834 0.6294 0.49404 0.0
C731 C 0.81947 0.63205 0.48704 0.0
C732 C 0.8045 0.64024 0.46068 0.0
C733 C 0.81055 0.65864 0.45573 0.0
C734 C 0.79808 0.66288 0.44705 0.0
C735 C 0.77919 0.64885 0.44327 0.0
C736 C 0.77302 0.63054 0.44887 0.0
C737 C 0.7856 0.62627 0.45752 0.0
C738 C 0.83065 0.64004 0.43553 0.0
C739 C 0.84385 0.6574 0.42906 0.0
C740 C 0.84269 0.66098 0.41017 0.0
C741 C 0.82824 0.64729 0.39745 0.0
C742 C 0.81497 0.62994 0.40405 0.0
C743 C 0.81618 0.62637 0.42293 0.0
C744 C 0.86212 0.63783 0.45082 0.0
C745 C 0.87977 0.65367 0.45609 0.0
C746 C 0.89445 0.65875 0.44449 0.0
C747 C 0.89162 0.64836 0.42717 0.0
C748 C 0.87402 0.63241 0.42187 0.0
C749 C 0.85939 0.62701 0.43378 0.0
C750 C 0.86249 0.62711 0.48894 0.0
C751 C 0.87658 0.64044 0.50211 0.0
C752 C 0.89066 0.63749 0.50903 0.0
C753 C 0.89098 0.6212 0.50278 0.0
C754 C 0.87694 0.60799 0.4894 0.0
C755 C 0.86284 0.61094 0.48254 0.0
C756 C 0.8368 0.62831 0.51468 0.0
C757 C 0.84197 0.64417 0.52722 0.0
C758 C 0.84694 0.64431 0.54623 0.0
C759 C 0.84714 0.62871 0.55301 0.0
C760 C 0.84136 0.61257 0.54058 0.0
C761 C 0.83606 0.61231 0.52159 0.0
C762 C 0.80608 0.63214 0.50024 0.0
C763 C 0.80588 0.64883 0.50455 0.0
C764 C 0.79545 0.64979 0.51907 0.0
C765 C 0.78544 0.63422 0.52974 0.0
C766 C 0.7851 0.61733 0.52503 0.0
C767 C 0.79516 0.61622 0.5102 0.0
C768 C 0.82704 0.65114 0.3774 0.0
C769 C 0.90586 0.61795 0.51015 0.0
H770 H 0.34507 0.15891 0.37838 0.0
H771 H 0.39238 0.31078 0.54043 0.0
H772 H 0.33767 0.15253 0.4846 0.0
H773 H 0.32687 0.12039 0.4719 0.0
H774 H 0.38355 0.13198 0.47619 0.0
H775 H 0.39431 0.16449 0.48922 0.0
H776 H 0.33935 0.1742 0.45855 0.0
H777 H 0.33609 0.16547 0.42456 0.0
H778 H 0.39581 0.18982 0.4245 0.0
H779 H 0.39886 0.19857 0.4585 0.0
H780 H 0.33679 0.19875 0.47929 0.0
H781 H 0.32494 0.21427 0.45979 0.0
H782 H 0.38157 0.25748 0.45072 0.0
H783 H 0.39322 0.24093 0.46941 0.0
H784 H 0.34814 0.21687 0.52451 0.0
H785 H 0.34839 0.24519 0.5371 0.0
H786 H 0.40418 0.28 0.51912 0.0
H787 H 0.40378 0.25153 0.50677 0.0
H788 H 0.35144 0.18513 0.54509 0.0
H789 H 0.34977 0.19666 0.57687 0.0
H790 H 0.40472 0.24567 0.57399 0.0
H791 H 0.40644 0.23376 0.54215 0.0
H792 H 0.34792 0.15177 0.52258 0.0
H793 H 0.34885 0.13139 0.54583 0.0
H794 H 0.40678 0.17258 0.56112 0.0
H795 H 0.40601 0.19268 0.53712 0.0
O796 O 0.34668 0.16256 0.39181 0.0
O797 O 0.37745 0.17526 0.39255 0.0
O798 O 0.36322 0.28083 0.54456 0.0
O799 O 0.39186 0.29936 0.53548 0.0
C800 C 0.37266 0.18049 0.49446 0.0
C801 C 0.37151 0.1924 0.48156 0.0
C802 C 0.37239 0.2092 0.48826 0.0
C803 C 0.37599 0.21497 0.50775 0.0
C804 C 0.37808 0.20356 0.5207 0.0
C805 C 0.37622 0.18616 0.51406 0.0
C806 C 0.36677 0.16086 0.48757 0.0
C807 C 0.34779 0.14817 0.48274 0.0
C808 C 0.34166 0.12984 0.47544 0.0
C809 C 0.3544 0.12375 0.47274 0.0
C810 C 0.37343 0.13632 0.47811 0.0
C811 C 0.3796 0.15483 0.48547 0.0
C812 C 0.36936 0.18718 0.46091 0.0
C813 C 0.35172 0.17778 0.45114 0.0
C814 C 0.34989 0.17274 0.43173 0.0
C815 C 0.36569 0.17698 0.42179 0.0
C816 C 0.38336 0.18637 0.43171 0.0
C817 C 0.38515 0.1914 0.45111 0.0
C818 C 0.36582 0.21865 0.47559 0.0
C819 C 0.34661 0.2114 0.47281 0.0
C820 C 0.33989 0.22046 0.46185 0.0
C821 C 0.35227 0.23729 0.45381 0.0
C822 C 0.37161 0.24444 0.45649 0.0
C823 C 0.37832 0.23511 0.46725 0.0
C824 C 0.37595 0.2322 0.51478 0.0
C825 C 0.36037 0.23064 0.5233 0.0
C826 C 0.36056 0.24683 0.53047 0.0
C827 C 0.37633 0.26487 0.52914 0.0
C828 C 0.39183 0.26634 0.52039 0.0
C829 C 0.39163 0.25013 0.51328 0.0
C830 C 0.37908 0.20856 0.54131 0.0
C831 C 0.36343 0.19797 0.55157 0.0
C832 C 0.36247 0.20463 0.56973 0.0
C833 C 0.37707 0.22214 0.57786 0.0
C834 C 0.39321 0.23221 0.56798 0.0
C835 C 0.39425 0.22539 0.54989 0.0
C836 C 0.37702 0.17352 0.52779 0.0
C837 C 0.36098 0.15617 0.53049 0.0
C838 C 0.36151 0.14458 0.54384 0.0
C839 C 0.37795 0.15035 0.5551 0.0
C840 C 0.39397 0.1678 0.55253 0.0
C841 C 0.39354 0.17924 0.53887 0.0
C842 C 0.36371 0.17158 0.40118 0.0
C843 C 0.37666 0.28211 0.53687 0.0
H844 H 0.80342 0.18314 0.35404 0.0
H845 H 0.96019 0.29804 0.50477 0.0
H846 H 0.79203 0.18374 0.45271 0.0
H847 H 0.76525 0.15283 0.44075 0.0
H848 H 0.791 0.12503 0.46722 0.0
H849 H 0.81793 0.15571 0.47826 0.0
H850 H 0.82752 0.21878 0.43121 0.0
H851 H 0.81716 0.20852 0.3978 0.0
H852 H 0.8197 0.1581 0.40475 0.0
H853 H 0.83029 0.16865 0.43804 0.0
H854 H 0.87137 0.25201 0.4489 0.0
H855 H 0.89854 0.26499 0.4296 0.0
H856 H 0.89377 0.21027 0.42412 0.0
H857 H 0.86739 0.19774 0.44387 0.0
H858 H 0.86759 0.25803 0.49496 0.0
H859 H 0.89835 0.28575 0.50413 0.0
H860 H 0.92408 0.25322 0.48911 0.0
H861 H 0.89323 0.22559 0.48019 0.0
H862 H 0.84017 0.23147 0.52371 0.0
H863 H 0.85445 0.24131 0.55621 0.0
H864 H 0.88684 0.21487 0.54494 0.0
H865 H 0.87311 0.20592 0.51251 0.0
H866 H 0.79754 0.19103 0.50307 0.0
H867 H 0.7785 0.16948 0.52649 0.0
H868 H 0.82008 0.15382 0.53561 0.0
H869 H 0.83868 0.17494 0.51204 0.0
O870 O 0.80759 0.18696 0.36727 0.0
O871 O 0.80903 0.16123 0.37162 0.0
O872 O 0.93394 0.30337 0.50883 0.0
O873 O 0.94786 0.2873 0.50125 0.0
C874 C 0.82417 0.19047 0.47178 0.0
C875 C 0.83563 0.20073 0.45739 0.0
C876 C 0.85354 0.21664 0.46226 0.0
C877 C 0.85948 0.22312 0.48146 0.0
C878 C 0.84805 0.21295 0.49583 0.0
C879 C 0.83051 0.19653 0.49102 0.0
C880 C 0.80682 0.17199 0.46663 0.0
C881 C 0.79173 0.17095 0.45613 0.0
C882 C 0.77653 0.15337 0.44929 0.0
C883 C 0.77608 0.13663 0.45322 0.0
C884 C 0.79089 0.13772 0.46428 0.0
C885 C 0.80621 0.15524 0.47071 0.0
C886 C 0.82941 0.19435 0.4371 0.0
C887 C 0.82583 0.20553 0.42547 0.0
C888 C 0.8199 0.19962 0.40641 0.0
C889 C 0.81751 0.18244 0.39862 0.0
C890 C 0.82131 0.17136 0.4103 0.0
C891 C 0.82728 0.17731 0.42935 0.0
C892 C 0.86743 0.22394 0.44776 0.0
C893 C 0.87603 0.24281 0.44319 0.0
C894 C 0.89147 0.25016 0.43217 0.0
C895 C 0.89839 0.23868 0.42562 0.0
C896 C 0.88895 0.21952 0.42927 0.0
C897 C 0.87371 0.21227 0.44032 0.0
C898 C 0.87823 0.2399 0.48674 0.0
C899 C 0.87991 0.25696 0.49364 0.0
C900 C 0.89748 0.27275 0.49886 0.0
C901 C 0.91369 0.27171 0.49729 0.0
C902 C 0.9119 0.25453 0.49044 0.0
C903 C 0.89431 0.23874 0.48527 0.0
C904 C 0.85571 0.21809 0.51582 0.0
C905 C 0.85033 0.22783 0.52838 0.0
C906 C 0.85844 0.23333 0.54693 0.0
C907 C 0.87194 0.22903 0.55318 0.0
C908 C 0.87686 0.21884 0.54055 0.0
C909 C 0.86893 0.21356 0.52204 0.0
C910 C 0.81955 0.18467 0.50606 0.0
C911 C 0.80254 0.18304 0.51029 0.0
C912 C 0.79175 0.1708 0.52364 0.0
C913 C 0.79779 0.15993 0.53277 0.0
C914 C 0.81497 0.16185 0.52863 0.0
C915 C 0.82573 0.17408 0.51538 0.0
C916 C 0.81114 0.17618 0.37838 0.0
C917 C 0.93239 0.28845 0.50282 0.0
H918 H 0.01308 0.52233 0.35539 0.0
H919 H 0.99265 0.38605 0.17274 0.0
H920 H 0.97044 0.51301 0.24334 0.0
H921 H 0.97658 0.54403 0.25619 0.0
H922 H 0.03518 0.56311 0.26481 0.0
H923 H 0.02904 0.53235 0.2516 0.0
H924 H 0.97833 0.49287 0.27883 0.0
H925 H 0.98778 0.50429 0.31216 0.0
H926 H 0.04312 0.51477 0.3032 0.0
H927 H 0.03355 0.50352 0.26985 0.0
H928 H 0.98202 0.45373 0.27488 0.0
H929 H 0.9925 0.43585 0.29309 0.0
H930 H 0.03912 0.45347 0.25813 0.0
H931 H 0.02875 0.4714 0.24026 0.0
H932 H 0.96564 0.43132 0.2324 0.0
H933 H 0.96158 0.40162 0.21831 0.0
H934 H 0.01013 0.43321 0.18664 0.0
H935 H 0.01423 0.46274 0.20112 0.0
H936 H 0.95532 0.44773 0.19706 0.0
H937 H 0.95177 0.43116 0.16617 0.0
H938 H 0.0061 0.47634 0.15333 0.0
H939 H 0.00945 0.49276 0.18412 0.0
H940 H 0.95757 0.48939 0.20277 0.0
H941 H 0.95382 0.5103 0.182 0.0
H942 H 0.01347 0.5491 0.18765 0.0
H943 H 0.01698 0.5283 0.20846 0.0
O944 O 0.00963 0.51782 0.34217 0.0
O945 O 0.03783 0.52283 0.33685 0.0
O946 O 0.97007 0.38191 0.19641 0.0
O947 O 0.99422 0.39755 0.17893 0.0
C948 C 0.9957 0.50159 0.23953 0.0
C949 C -0.00057 0.49066 0.25167 0.0
C950 C 0.99797 0.4737 0.24437 0.0
C951 C 0.99176 0.46712 0.22526 0.0
C952 C 0.98757 0.4778 0.21323 0.0
C953 C 0.98989 0.49522 0.22025 0.0
C954 C -0.00073 0.5204 0.24677 0.0
C955 C 0.98459 0.52396 0.24789 0.0
C956 C 0.98811 0.54162 0.25518 0.0
C957 C 0.00632 0.55584 0.26162 0.0
C958 C 0.02099 0.55229 0.2602 0.0
C959 C 0.01751 0.53477 0.25269 0.0
C960 C 0.0052 0.49723 0.27198 0.0
C961 C 0.99247 0.49761 0.28412 0.0
C962 C 0.99791 0.50414 0.30314 0.0
C963 C 0.0162 0.51041 0.31036 0.0
C964 C 0.02892 0.51 0.29812 0.0
C965 C 0.02347 0.5035 0.27909 0.0
C966 C 0.00452 0.46362 0.25614 0.0
C967 C 0.99458 0.45383 0.27133 0.0
C968 C 0.00061 0.44374 0.28172 0.0
C969 C 0.01653 0.44321 0.27688 0.0
C970 C 0.02668 0.45347 0.26198 0.0
C971 C 0.02078 0.46366 0.25177 0.0
C972 C 0.99011 0.44915 0.21765 0.0
C973 C 0.97547 0.43177 0.22256 0.0
C974 C 0.97315 0.41484 0.21443 0.0
C975 C 0.98546 0.41505 0.20124 0.0
C976 C 0.00035 0.43253 0.19667 0.0
C977 C 0.00271 0.44942 0.2049 0.0
C978 C 0.9827 0.47135 0.19285 0.0
C979 C 0.96609 0.45439 0.18722 0.0
C980 C 0.96419 0.44486 0.16969 0.0
C981 C 0.97882 0.45227 0.1575 0.0
C982 C 0.99454 0.47029 0.16236 0.0
C983 C 0.99646 0.47976 0.17993 0.0
C984 C 0.98752 0.50743 0.2072 0.0
C985 C 0.96978 0.50241 0.19945 0.0
C986 C 0.96768 0.51434 0.1876 0.0
C987 C 0.98332 0.53146 0.18334 0.0
C988 C 0.00109 0.53624 0.19098 0.0
C989 C 0.00315 0.52433 0.20277 0.0
C990 C 0.02194 0.5174 0.33057 0.0
C991 C 0.98274 0.39714 0.19212 0.0
H992 H 0.50188 0.48395 0.36006 0.0
H993 H 0.39531 0.34671 0.19043 0.0
H994 H 0.50943 0.49829 0.25808 0.0
H995 H 0.5327 0.52861 0.27404 0.0
H996 H 0.57517 0.51415 0.26683 0.0
H997 H 0.55142 0.4833 0.25082 0.0
H998 H 0.48253 0.47183 0.27852 0.0
H999 H 0.48684 0.47861 0.31288 0.0
H1000 H 0.52685 0.46016 0.31507 0.0
H1001 H 0.52222 0.45321 0.28069 0.0
H1002 H 0.45415 0.44866 0.2466 0.0
H1003 H 0.42766 0.43635 0.26617 0.0
H1004 H 0.44707 0.40315 0.29337 0.0
H1005 H 0.47413 0.4163 0.27399 0.0
H1006 H 0.45404 0.43973 0.20629 0.0
H1007 H 0.4248 0.41326 0.19153 0.0
H1008 H 0.43796 0.37407 0.2158 0.0
H1009 H 0.46728 0.40069 0.23028 0.0
H1010 H 0.49199 0.47311 0.19348 0.0
H1011 H 0.48086 0.46657 0.16028 0.0
H1012 H 0.4774 0.41246 0.15977 0.0
H1013 H 0.48979 0.41973 0.1929 0.0
H1014 H 0.52228 0.50218 0.2195 0.0
H1015 H 0.54403 0.52262 0.19733 0.0
H1016 H 0.5548 0.47841 0.17964 0.0
H1017 H 0.53338 0.45814 0.20244 0.0
O1018 O 0.50031 0.48105 0.34649 0.0
O1019 O 0.52082 0.47147 0.34684 0.0
O1020 O 0.40073 0.37818 0.18388 0.0
O1021 O 0.4068 0.35744 0.19609 0.0
C1022 C 0.51374 0.46983 0.24491 0.0
C1023 C 0.49944 0.45773 0.25625 0.0
C1024 C 0.48267 0.4424 0.2477 0.0
C1025 C 0.48075 0.43816 0.22794 0.0
C1026 C 0.49534 0.44977 0.21657 0.0
C1027 C 0.51187 0.46572 0.22506 0.0
C1028 C 0.52868 0.48849 0.25362 0.0
C1029 C 0.52372 0.50157 0.26004 0.0
C1030 C 0.53701 0.51885 0.26917 0.0
C1031 C 0.55565 0.52356 0.27196 0.0
C1032 C 0.56085 0.51077 0.26492 0.0
C1033 C 0.54737 0.49323 0.25583 0.0
C1034 C 0.50184 0.46174 0.27716 0.0
C1035 C 0.49204 0.46904 0.28647 0.0
C1036 C 0.49462 0.47301 0.30609 0.0
C1037 C 0.50714 0.46987 0.31674 0.0
C1038 C 0.51705 0.46269 0.30731 0.0
C1039 C 0.51443 0.45869 0.28769 0.0
C1040 C 0.46594 0.43325 0.2588 0.0
C1041 C 0.45254 0.43854 0.25663 0.0
C1042 C 0.43736 0.4314 0.26781 0.0
C1043 C 0.4351 0.41863 0.28132 0.0
C1044 C 0.44847 0.41312 0.28326 0.0
C1045 C 0.46383 0.42045 0.27212 0.0
C1046 C 0.46287 0.4221 0.21915 0.0
C1047 C 0.45064 0.42542 0.20828 0.0
C1048 C 0.43392 0.41027 0.19993 0.0
C1049 C 0.42906 0.39153 0.20243 0.0
C1050 C 0.44128 0.38831 0.21353 0.0
C1051 C 0.45803 0.40347 0.22184 0.0
C1052 C 0.49179 0.44695 0.19563 0.0
C1053 C 0.48952 0.46015 0.18605 0.0
C1054 C 0.48283 0.45623 0.16713 0.0
C1055 C 0.47783 0.4388 0.15748 0.0
C1056 C 0.48115 0.42602 0.16677 0.0
C1057 C 0.48817 0.43012 0.1857 0.0
C1058 C 0.52647 0.47876 0.2129 0.0
C1059 C 0.52981 0.49711 0.21137 0.0
C1060 C 0.54218 0.50874 0.19862 0.0
C1061 C 0.55117 0.50213 0.18685 0.0
C1062 C 0.54805 0.48385 0.18856 0.0
C1063 C 0.53588 0.47231 0.20157 0.0
C1064 C 0.50989 0.47415 0.33758 0.0
C1065 C 0.41134 0.37538 0.19355 0.0
H1066 H 0.53356 0.0173 0.37245 0.0
H1067 H 0.38021 0.98437 0.22589 0.0
H1068 H 0.54547 0.03408 0.27366 0.0
H1069 H 0.56987 0.02877 0.2864 0.0
H1070 H 0.53962 0.97164 0.26004 0.0
H1071 H 0.51578 0.97738 0.24696 0.0
H1072 H 0.51275 0.03339 0.2992 0.0
H1073 H 0.5225 0.0319 0.33169 0.0
H1074 H 0.51092 0.97518 0.31728 0.0
H1075 H 0.50097 0.97677 0.28495 0.0
H1076 H 0.47362 0.03008 0.28098 0.0
H1077 H 0.45009 0.02333 0.30385 0.0
H1078 H 0.44188 0.96747 0.30757 0.0
H1079 H 0.46478 0.97408 0.28412 0.0
H1080 H 0.47317 0.03551 0.23754 0.0
H1081 H 0.44345 0.03354 0.22963 0.0
H1082 H 0.41411 0.97394 0.23855 0.0
H1083 H 0.44395 0.9761 0.24624 0.0
H1084 H 0.5001 0.03866 0.2113 0.0
H1085 H 0.48709 0.03817 0.17962 0.0
H1086 H 0.45368 0.97712 0.17746 0.0
H1087 H 0.46603 0.97798 0.20937 0.0
H1088 H 0.5407 0.03833 0.22834 0.0
H1089 H 0.55947 0.03961 0.20192 0.0
H1090 H 0.51824 0.98167 0.18346 0.0
H1091 H 0.49967 0.98058 0.20981 0.0
O1092 O 0.52951 0.01753 0.35957 0.0
O1093 O 0.52348 0.98847 0.35138 0.0
O1094 O 0.4079 0.01622 0.2245 0.0
O1095 O 0.39215 0.98555 0.22895 0.0
C1096 C 0.51233 0.00775 0.25518 0.0
C1097 C 0.50082 0.00645 0.26993 0.0
C1098 C 0.48392 0.00594 0.26582 0.0
C1099 C 0.47873 0.00717 0.24703 0.0
C1100 C 0.49031 0.00862 0.23235 0.0
C1101 C 0.50707 0.00882 0.23638 0.0
C1102 C 0.5289 0.0061 0.25942 0.0
C1103 C 0.54448 0.02064 0.27021 0.0
C1104 C 0.55826 0.01748 0.27764 0.0
C1105 C 0.55659 -0.00032 0.27449 0.0
C1106 C 0.54152 0.98559 0.26261 0.0
C1107 C 0.52784 0.98881 0.2551 0.0
C1108 C 0.5063 0.00526 0.28972 0.0
C1109 C 0.51228 0.02064 0.30313 0.0
C1110 C 0.51787 0.01976 0.32166 0.0
C1111 C 0.51756 0.00345 0.32707 0.0
C1112 C 0.51139 0.98798 0.31358 0.0
C1113 C 0.50575 0.98887 0.29509 0.0
C1114 C 0.4709 0.00258 0.28091 0.0
C1115 C 0.46678 0.01644 0.28684 0.0
C1116 C 0.45344 0.01259 0.30001 0.0
C1117 C 0.44405 0.99482 0.30752 0.0
C1118 C 0.44863 0.98118 0.30188 0.0
C1119 C 0.46186 0.985 0.28864 0.0
C1120 C 0.46067 0.00596 0.24248 0.0
C1121 C 0.4603 0.02205 0.23774 0.0
C1122 C 0.44331 0.02088 0.23326 0.0
C1123 C 0.42639 0.00357 0.23347 0.0
C1124 C 0.42687 0.98748 0.23826 0.0
C1125 C 0.44387 0.98867 0.2427 0.0
C1126 C 0.48395 0.00836 0.21254 0.0
C1127 C 0.49004 0.02523 0.20385 0.0
C1128 C 0.48264 0.02489 0.18574 0.0
C1129 C 0.46915 0.00761 0.17601 0.0
C1130 C 0.46365 0.99072 0.18466 0.0
C1131 C 0.47083 0.99112 0.20281 0.0
C1132 C 0.51874 0.00945 0.22081 0.0
C1133 C 0.5358 0.02594 0.21858 0.0
C1134 C 0.54651 0.02661 0.20355 0.0
C1135 C 0.54025 0.0108 0.1905 0.0
C1136 C 0.52327 0.99421 0.19304 0.0
C1137 C 0.51266 0.99353 0.20809 0.0
C1138 C 0.52367 0.00262 0.34671 0.0
C1139 C 0.40831 0.00224 0.2287 0.0
H1140 H 0.50564 0.01988 0.69595 0.0
H1141 H 0.60832 0.9742 0.84417 0.0
H1142 H 0.49839 0.02111 0.79882 0.0
H1143 H 0.4746 0.02578 0.78371 0.0
H1144 H 0.43423 0.9662 0.78532 0.0
H1145 H 0.45856 0.96161 0.79989 0.0
H1146 H 0.52703 0.02245 0.7759 0.0
H1147 H 0.52217 0.02694 0.74283 0.0
H1148 H 0.47893 0.96799 0.73386 0.0
H1149 H 0.4841 0.96366 0.76694 0.0
H1150 H 0.55654 0.02376 0.8007 0.0
H1151 H 0.58121 0.03403 0.77861 0.0
H1152 H 0.55214 0.97833 0.74918 0.0
H1153 H 0.52728 0.96817 0.77134 0.0
H1154 H 0.55638 0.01438 0.84236 0.0
H1155 H 0.58471 0.01505 0.85366 0.0
H1156 H 0.56562 0.9615 0.82183 0.0
H1157 H 0.53724 0.96091 0.81083 0.0
H1158 H 0.52158 0.01068 0.86126 0.0
H1159 H 0.53285 0.01138 0.89359 0.0
H1160 H 0.5278 0.95713 0.88059 0.0
H1161 H 0.51542 0.95607 0.84848 0.0
H1162 H 0.4944 0.01428 0.84005 0.0
H1163 H 0.47418 0.01365 0.86435 0.0
H1164 H 0.45115 0.95345 0.86633 0.0
H1165 H 0.47215 0.9545 0.8425 0.0
O1166 O 0.50741 0.01775 0.70896 0.0
O1167 O 0.48524 0.98737 0.70511 0.0
O1168 O 0.60638 0.00176 0.8561 0.0
O1169 O 0.59725 0.97429 0.83992 0.0
C1170 C 0.49558 0.98815 0.80676 0.0
C1171 C 0.50881 0.98999 0.79387 0.0
C1172 C 0.5249 0.98988 0.80025 0.0
C1173 C 0.52739 0.987 0.81929 0.0
C1174 C 0.51387 0.98456 0.83214 0.0
C1175 C 0.49803 0.98534 0.82586 0.0
C1176 C 0.48019 0.99103 0.80034 0.0
C1177 C 0.48434 0.00912 0.79613 0.0
C1178 C 0.47066 0.01176 0.78758 0.0
C1179 C 0.45247 0.99634 0.78321 0.0
C1180 C 0.44816 0.97831 0.78823 0.0
C1181 C 0.46195 0.97568 0.79673 0.0
C1182 C 0.50606 0.99268 0.77372 0.0
C1183 C 0.51666 0.01049 0.76671 0.0
C1184 C 0.51378 0.01303 0.74784 0.0
C1185 C 0.50018 0.99782 0.73568 0.0
C1186 C 0.48954 0.98 0.74283 0.0
C1187 C 0.49247 0.97747 0.76169 0.0
C1188 C 0.54024 0.99525 0.78758 0.0
C1189 C 0.55559 0.01375 0.78957 0.0
C1190 C 0.56953 0.01961 0.7769 0.0
C1191 C 0.56843 0.00698 0.76217 0.0
C1192 C 0.55326 0.98828 0.76047 0.0
C1193 C 0.53914 0.98248 0.77305 0.0
C1194 C 0.54471 0.98752 0.82592 0.0
C1195 C 0.55831 0.00277 0.83793 0.0
C1196 C 0.5745 0.00314 0.84432 0.0
C1197 C 0.57742 0.9883 0.83868 0.0
C1198 C 0.56381 0.97313 0.82648 0.0
C1199 C 0.5476 0.97276 0.82015 0.0
C1200 C 0.51755 0.98327 0.85251 0.0
C1201 C 0.52225 0.99863 0.86557 0.0
C1202 C 0.52902 -0.00086 0.88397 0.0
C1203 C 0.53159 0.98447 0.88961 0.0
C1204 C 0.52593 0.96862 0.87678 0.0
C1205 C 0.51889 0.968 0.85841 0.0
C1206 C 0.48468 0.98444 0.83956 0.0
C1207 C 0.48484 0.00094 0.84563 0.0
C1208 C 0.47317 0.0005 0.85945 0.0
C1209 C 0.46095 0.98347 0.86732 0.0
C1210 C 0.46056 0.96685 0.86081 0.0
C1211 C 0.47242 0.96737 0.84711 0.0
C1212 C 0.49711 0.00059 0.71566 0.0
C1213 C 0.59457 0.98859 0.84546 0.0
H1214 H 0.99083 0.45554 0.72027 0.0
H1215 H 0.03389 0.63095 0.86403 0.0
H1216 H 0.9896 0.46693 0.83825 0.0
H1217 H 0.98292 0.43547 0.82741 0.0
H1218 H 0.03724 0.46006 0.80474 0.0
H1219 H 0.04349 0.49165 0.8152 0.0
H1220 H 0.98714 0.47797 0.79881 0.0
H1221 H 0.98345 0.46414 0.76648 0.0
H1222 H 0.03846 0.5099 0.75617 0.0
H1223 H 0.04206 0.52344 0.78867 0.0
H1224 H 0.98441 0.51137 0.79828 0.0
H1225 H 0.97477 0.52674 0.77587 0.0
H1226 H 0.02952 0.57711 0.78409 0.0
H1227 H 0.03933 0.56116 0.8057 0.0
H1228 H 0.98983 0.53955 0.8336 0.0
H1229 H 0.98917 0.56857 0.84023 0.0
H1230 H 0.04785 0.59817 0.85848 0.0
H1231 H 0.04837 0.5691 0.85152 0.0
H1232 H 0.99333 0.52614 0.87021 0.0
H1233 H 0.99495 0.54267 0.90047 0.0
H1234 H 0.05211 0.55733 0.91137 0.0
H1235 H 0.0506 0.54115 0.88057 0.0
H1236 H 0.99599 0.49155 0.87614 0.0
H1237 H 0.9967 0.47294 0.90148 0.0
H1238 H 0.04971 0.48196 0.88467 0.0
H1239 H 0.04897 0.50082 0.85935 0.0
O1240 O 0.99259 0.46126 0.73301 0.0
O1241 O 0.02087 0.4852 0.72835 0.0
O1242 O 0.0037 0.6035 0.85139 0.0
O1243 O 0.0338 0.61931 0.86113 0.0
C1244 C 0.01936 0.50048 0.8312 0.0
C1245 C 0.01735 0.50979 0.81589 0.0
C1246 C 0.01721 0.5267 0.81937 0.0
C1247 C 0.01952 0.53454 0.83815 0.0
C1248 C 0.02147 0.52521 0.85348 0.0
C1249 C 0.02148 0.50819 0.85003 0.0
C1250 C 0.01699 0.48152 0.82746 0.0
C1251 C 0.00021 0.46547 0.83133 0.0
C1252 C 0.99646 0.44748 0.82515 0.0
C1253 C 0.0095 0.44519 0.81508 0.0
C1254 C 0.02677 0.46133 0.81216 0.0
C1255 C 0.03045 0.47936 0.81825 0.0
C1256 C 0.01495 0.50159 0.79612 0.0
C1257 C 0.99842 0.48491 0.78959 0.0
C1258 C 0.99633 0.47708 0.77109 0.0
C1259 C 0.01068 0.48589 0.75875 0.0
C1260 C 0.02715 0.50273 0.76532 0.0
C1261 C 0.02924 0.51051 0.78385 0.0
C1262 C 0.01257 0.53514 0.80362 0.0
C1263 C 0.9945 0.52551 0.79477 0.0
C1264 C 0.98893 0.53443 0.78218 0.0
C1265 C 0.00127 0.55328 0.77837 0.0
C1266 C 0.0197 0.56255 0.78654 0.0
C1267 C 0.02532 0.55351 0.79898 0.0
C1268 C 0.01919 0.55227 0.84193 0.0
C1269 C 0.00257 0.55236 0.83886 0.0
C1270 C 0.00221 0.56894 0.84274 0.0
C1271 C 0.01847 0.58571 0.84988 0.0
C1272 C 0.03509 0.58552 0.85298 0.0
C1273 C 0.03544 0.56895 0.84902 0.0
C1274 C 0.02192 0.53269 0.8731 0.0
C1275 C 0.00618 0.53281 0.87916 0.0
C1276 C 0.00713 0.54228 0.89637 0.0
C1277 C 0.02374 0.55147 0.90801 0.0
C1278 C 0.0392 0.55039 0.90252 0.0
C1279 C 0.03833 0.54114 0.88506 0.0
C1280 C 0.02253 0.49776 0.86604 0.0
C1281 C 0.00792 0.48982 0.87813 0.0
C1282 C 0.00836 0.47917 0.89259 0.0
C1283 C 0.02333 0.47607 0.89514 0.0
C1284 C 0.03796 0.48403 0.88299 0.0
C1285 C 0.0376 0.49485 0.86861 0.0
C1286 C 0.00842 0.4775 0.73912 0.0
C1287 C 0.01814 0.60333 0.85415 0.0
H1288 H 0.46848 0.51472 0.69456 0.0
H1289 H 0.62921 0.63707 0.8407 0.0
H1290 H 0.45952 0.51616 0.79633 0.0
H1291 H 0.43457 0.48424 0.78415 0.0
H1292 H 0.46818 0.46149 0.80321 0.0
H1293 H 0.49281 0.49318 0.81553 0.0
H1294 H 0.49317 0.5518 0.77116 0.0
H1295 H 0.48191 0.54057 0.73807 0.0
H1296 H 0.49107 0.49399 0.74421 0.0
H1297 H 0.50255 0.50553 0.77716 0.0
H1298 H 0.53752 0.58753 0.7869 0.0
H1299 H 0.56238 0.60115 0.76481 0.0
H1300 H 0.56268 0.54886 0.76035 0.0
H1301 H 0.53819 0.53558 0.78234 0.0
H1302 H 0.5363 0.5945 0.83326 0.0
H1303 H 0.56681 0.62289 0.84159 0.0
H1304 H 0.59371 0.59166 0.826 0.0
H1305 H 0.56311 0.56335 0.81792 0.0
H1306 H 0.50976 0.56868 0.86202 0.0
H1307 H 0.52418 0.57957 0.89439 0.0
H1308 H 0.55757 0.55403 0.8843 0.0
H1309 H 0.54367 0.54402 0.85196 0.0
H1310 H 0.46795 0.52821 0.84213 0.0
H1311 H 0.44943 0.50857 0.86691 0.0
H1312 H 0.4904 0.49229 0.87724 0.0
H1313 H 0.50876 0.51197 0.85262 0.0
O1314 O 0.47303 0.51895 0.70767 0.0
O1315 O 0.47789 0.4952 0.7116 0.0
O1316 O 0.60246 0.64147 0.84538 0.0
O1317 O 0.61697 0.62607 0.8375 0.0
C1318 C 0.49425 0.52615 0.81144 0.0
C1319 C 0.50513 0.53628 0.79671 0.0
C1320 C 0.52274 0.55273 0.80106 0.0
C1321 C 0.52897 0.55975 0.82011 0.0
C1322 C 0.51794 0.54981 0.83482 0.0
C1323 C 0.50064 0.53296 0.83048 0.0
C1324 C 0.47789 0.5069 0.80687 0.0
C1325 C 0.46123 0.50418 0.79828 0.0
C1326 C 0.44708 0.48604 0.79133 0.0
C1327 C 0.44963 0.47056 0.79266 0.0
C1328 C 0.466 0.47327 0.80195 0.0
C1329 C 0.47996 0.49127 0.80911 0.0
C1330 C 0.49843 0.52935 0.77661 0.0
C1331 C 0.49272 0.53917 0.76531 0.0
C1332 C 0.48629 0.53272 0.74643 0.0
C1333 C 0.48551 0.51633 0.73851 0.0
C1334 C 0.49141 0.5066 0.74988 0.0
C1335 C 0.49788 0.51311 0.76873 0.0
C1336 C 0.53597 0.56053 0.78604 0.0
C1337 C 0.54279 0.57899 0.78085 0.0
C1338 C 0.55699 0.58672 0.76834 0.0
C1339 C 0.5644 0.57602 0.76081 0.0
C1340 C 0.55703 0.55733 0.76561 0.0
C1341 C 0.54303 0.54971 0.77817 0.0
C1342 C 0.54754 0.57696 0.82483 0.0
C1343 C 0.54882 0.59386 0.83163 0.0
C1344 C 0.56625 0.61003 0.83637 0.0
C1345 C 0.58271 0.60955 0.83441 0.0
C1346 C 0.58133 0.59253 0.82763 0.0
C1347 C 0.56388 0.57636 0.82294 0.0
C1348 C 0.52578 0.55568 0.8547 0.0
C1349 C 0.52019 0.56548 0.86691 0.0
C1350 C 0.52838 0.57159 0.88539 0.0
C1351 C 0.54218 0.56783 0.89194 0.0
C1352 C 0.54735 0.55759 0.87966 0.0
C1353 C 0.53932 0.55171 0.86122 0.0
C1354 C 0.48978 0.52167 0.84584 0.0
C1355 C 0.47293 0.52049 0.84989 0.0
C1356 C 0.46237 0.50923 0.86394 0.0
C1357 C 0.46854 0.499 0.87408 0.0
C1358 C 0.48547 0.5003 0.86993 0.0
C1359 C 0.49596 0.5115 0.85589 0.0
C1360 C 0.4786 0.50946 0.71847 0.0
C1361 C 0.60126 0.62669 0.83944 0.0
H1362 H 0.62643 0.83287 0.6912 0.0
H1363 H 0.65178 0.70729 0.54774 0.0
H1364 H 0.60981 0.82886 0.59182 0.0
H1365 H 0.61568 0.86024 0.60303 0.0
H1366 H 0.66872 0.88623 0.57787 0.0
H1367 H 0.6632 0.85502 0.56748 0.0
H1368 H 0.60898 0.79482 0.61504 0.0
H1369 H 0.61118 0.80639 0.64805 0.0
H1370 H 0.66633 0.85363 0.64089 0.0
H1371 H 0.66403 0.84178 0.60798 0.0
H1372 H 0.61225 0.75888 0.59773 0.0
H1373 H 0.62203 0.74187 0.61804 0.0
H1374 H 0.67749 0.7912 0.6256 0.0
H1375 H 0.66762 0.80798 0.60536 0.0
H1376 H 0.60416 0.75203 0.55341 0.0
H1377 H 0.60473 0.72304 0.54592 0.0
H1378 H 0.66413 0.75341 0.56081 0.0
H1379 H 0.66337 0.78233 0.56802 0.0
H1380 H 0.60356 0.77504 0.52485 0.0
H1381 H 0.6054 0.76173 0.49368 0.0
H1382 H 0.66548 0.79185 0.50251 0.0
H1383 H 0.66348 0.80466 0.53362 0.0
H1384 H 0.60532 0.81983 0.54137 0.0
H1385 H 0.60702 0.83974 0.51602 0.0
H1386 H 0.66423 0.85512 0.50942 0.0
H1387 H 0.66229 0.83518 0.53448 0.0
O1388 O 0.6259 0.8285 0.67813 0.0
O1389 O 0.65415 0.85259 0.67368 0.0
O1390 O 0.62066 0.70365 0.54281 0.0
O1391 O 0.65116 0.71856 0.55053 0.0
C1392 C 0.63384 0.82087 0.57414 0.0
C1393 C 0.63471 0.81049 0.58902 0.0
C1394 C 0.63478 0.79363 0.58483 0.0
C1395 C 0.63324 0.78673 0.56582 0.0
C1396 C 0.63246 0.79711 0.551 0.0
C1397 C 0.63288 0.81423 0.5551 0.0
C1398 C 0.63598 0.83967 0.57863 0.0
C1399 C 0.62256 0.84136 0.58852 0.0
C1400 C 0.62593 0.8592 0.59493 0.0
C1401 C 0.6426 0.87556 0.59119 0.0
C1402 C 0.65565 0.87383 0.58066 0.0
C1403 C 0.65246 0.85603 0.57463 0.0
C1404 C 0.63627 0.81755 0.60909 0.0
C1405 C 0.62153 0.80765 0.62065 0.0
C1406 C 0.62282 0.8143 0.63949 0.0
C1407 C 0.63891 0.83098 0.6471 0.0
C1408 C 0.65372 0.84079 0.63547 0.0
C1409 C 0.65243 0.83408 0.61665 0.0
C1410 C 0.63924 0.78462 0.60007 0.0
C1411 C 0.62636 0.76611 0.60418 0.0
C1412 C 0.632 0.75642 0.61567 0.0
C1413 C 0.65057 0.76517 0.62326 0.0
C1414 C 0.66305 0.78415 0.62013 0.0
C1415 C 0.65743 0.79376 0.60858 0.0
C1416 C 0.6337 0.7692 0.56131 0.0
C1417 C 0.61727 0.75237 0.55499 0.0
C1418 C 0.61764 0.73585 0.55076 0.0
C1419 C 0.63448 0.7359 0.5528 0.0
C1420 C 0.65093 0.75286 0.5591 0.0
C1421 C 0.65054 0.76939 0.56326 0.0
C1422 C 0.63341 0.79094 0.5313 0.0
C1423 C 0.61709 0.77897 0.51984 0.0
C1424 C 0.61816 0.77135 0.50218 0.0
C1425 C 0.63559 0.77588 0.49571 0.0
C1426 C 0.6519 0.78837 0.50703 0.0
C1427 C 0.65079 0.79568 0.52476 0.0
C1428 C 0.63358 0.82583 0.5395 0.0
C1429 C 0.61813 0.82741 0.53429 0.0
C1430 C 0.61918 0.83886 0.51992 0.0
C1431 C 0.63571 0.84889 0.51059 0.0
C1432 C 0.65115 0.84726 0.51599 0.0
C1433 C 0.65008 0.83587 0.5303 0.0
C1434 C 0.64018 0.83806 0.66708 0.0
C1435 C 0.63494 0.71837 0.54839 0.0
H1436 H 0.17532 0.8267 0.70225 0.0
H1437 H 0.06138 0.68181 0.53983 0.0
H1438 H 0.17858 0.83716 0.59877 0.0
H1439 H 0.20387 0.8693 0.60826 0.0
H1440 H 0.2442 0.85211 0.60008 0.0
H1441 H 0.21857 0.81963 0.59027 0.0
H1442 H 0.15257 0.812 0.62135 0.0
H1443 H 0.15851 0.82013 0.65552 0.0
H1444 H 0.19701 0.79975 0.65685 0.0
H1445 H 0.19077 0.79149 0.62267 0.0
H1446 H 0.12283 0.78779 0.59343 0.0
H1447 H 0.09667 0.77465 0.61373 0.0
H1448 H 0.11589 0.73967 0.63689 0.0
H1449 H 0.14241 0.75321 0.61656 0.0
H1450 H 0.11909 0.7753 0.55176 0.0
H1451 H 0.08937 0.74807 0.53889 0.0
H1452 H 0.1052 0.71055 0.56251 0.0
H1453 H 0.13495 0.73792 0.57511 0.0
H1454 H 0.15499 0.80764 0.53619 0.0
H1455 H 0.14426 0.8005 0.50279 0.0
H1456 H 0.14505 0.74854 0.50285 0.0
H1457 H 0.15606 0.75597 0.53648 0.0
H1458 H 0.18713 0.83805 0.55954 0.0
H1459 H 0.20785 0.85771 0.53624 0.0
H1460 H 0.21888 0.81348 0.51951 0.0
H1461 H 0.19863 0.79406 0.54354 0.0
O1462 O 0.17313 0.82331 0.68874 0.0
O1463 O 0.19284 0.81272 0.68865 0.0
O1464 O 0.06557 0.71272 0.53283 0.0
O1465 O 0.07302 0.69283 0.54475 0.0
C1466 C 0.18109 0.80726 0.58655 0.0
C1467 C 0.16749 0.79591 0.59888 0.0
C1468 C 0.15039 0.7802 0.59145 0.0
C1469 C 0.14735 0.77504 0.57182 0.0
C1470 C 0.16108 0.78613 0.55946 0.0
C1471 C 0.17798 0.80231 0.56682 0.0
C1472 C 0.19676 0.82608 0.59394 0.0
C1473 C 0.19285 0.84022 0.59927 0.0
C1474 C 0.20727 0.85857 0.60448 0.0
C1475 C 0.2259 0.86311 0.60467 0.0
C1476 C 0.22989 0.84885 0.59997 0.0
C1477 C 0.21535 0.83041 0.59444 0.0
C1478 C 0.17104 0.80091 0.61961 0.0
C1479 C 0.16213 0.80912 0.62908 0.0
C1480 C 0.16563 0.81384 0.64859 0.0
C1481 C 0.17819 0.81053 0.65894 0.0
C1482 C 0.18722 0.80244 0.64932 0.0
C1483 C 0.18368 0.7977 0.62982 0.0
C1484 C 0.13445 0.77144 0.60358 0.0
C1485 C 0.12139 0.77728 0.60288 0.0
C1486 C 0.10656 0.76987 0.61454 0.0
C1487 C 0.10438 0.75628 0.62694 0.0
C1488 C 0.1173 0.75014 0.62741 0.0
C1489 C 0.13239 0.75783 0.61589 0.0
C1490 C 0.12922 0.75855 0.56418 0.0
C1491 C 0.11614 0.76118 0.55403 0.0
C1492 C 0.09917 0.74561 0.54675 0.0
C1493 C 0.09493 0.72712 0.54962 0.0
C1494 C 0.10803 0.72458 0.55999 0.0
C1495 C 0.12502 0.74017 0.56722 0.0
C1496 C 0.15648 0.78242 0.5387 0.0
C1497 C 0.15332 0.79496 0.52889 0.0
C1498 C 0.14719 0.79085 0.5098 0.0
C1499 C 0.14387 0.77398 0.50018 0.0
C1500 C 0.14741 0.7616 0.50994 0.0
C1501 C 0.15375 0.76583 0.52907 0.0
C1502 C 0.19168 0.81476 0.55359 0.0
C1503 C 0.19451 0.83283 0.55135 0.0
C1504 C 0.20627 0.84401 0.53796 0.0
C1505 C 0.21506 0.83715 0.5262 0.0
C1506 C 0.21229 0.81909 0.52846 0.0
C1507 C 0.2008 0.80804 0.54216 0.0
C1508 C 0.18188 0.81556 0.67966 0.0
C1509 C 0.07695 0.71051 0.54188 0.0
H1510 H 0.21277 0.37504 0.71336 0.0
H1511 H 0.06143 0.34421 0.5664 0.0
H1512 H 0.22403 0.38914 0.61737 0.0
H1513 H 0.24712 0.38263 0.6317 0.0
H1514 H 0.2208 0.32861 0.59921 0.0
H1515 H 0.19721 0.33464 0.58577 0.0
H1516 H 0.19143 0.38991 0.63972 0.0
H1517 H 0.2011 0.38882 0.67237 0.0
H1518 H 0.19159 0.33282 0.65832 0.0
H1519 H 0.18165 0.33397 0.62583 0.0
H1520 H 0.15301 0.38657 0.62069 0.0
H1521 H 0.12811 0.37899 0.64217 0.0
H1522 H 0.11987 0.32309 0.6454 0.0
H1523 H 0.14464 0.33077 0.62399 0.0
H1524 H 0.15453 0.39212 0.57589 0.0
H1525 H 0.12536 0.39125 0.56789 0.0
H1526 H 0.09419 0.33235 0.57949 0.0
H1527 H 0.12347 0.33339 0.58725 0.0
H1528 H 0.17983 0.39139 0.54775 0.0
H1529 H 0.16628 0.38749 0.51539 0.0
H1530 H 0.13157 0.32734 0.52042 0.0
H1531 H 0.14451 0.33162 0.5528 0.0
H1532 H 0.22018 0.39241 0.56622 0.0
H1533 H 0.23796 0.39088 0.53997 0.0
H1534 H 0.19551 0.33228 0.52625 0.0
H1535 H 0.1782 0.33387 0.55263 0.0
O1536 O 0.20866 0.37508 0.70044 0.0
O1537 O 0.20381 0.34642 0.69241 0.0
O1538 O 0.08985 0.37519 0.56349 0.0
O1539 O 0.07317 0.34494 0.56941 0.0
C1540 C 0.19231 0.36393 0.59582 0.0
C1541 C 0.1808 0.36315 0.61043 0.0
C1542 C 0.16399 0.36274 0.60602 0.0
C1543 C 0.15884 0.36352 0.58707 0.0
C1544 C 0.17012 0.36396 0.57249 0.0
C1545 C 0.18683 0.36414 0.5768 0.0
C1546 C 0.20893 0.36239 0.60049 0.0
C1547 C 0.22356 0.37613 0.61296 0.0
C1548 C 0.23667 0.37241 0.62115 0.0
C1549 C 0.23564 0.35514 0.61651 0.0
C1550 C 0.22197 0.34211 0.60281 0.0
C1551 C 0.20859 0.34562 0.59502 0.0
C1552 C 0.18599 0.36209 0.63039 0.0
C1553 C 0.19134 0.37738 0.64377 0.0
C1554 C 0.19691 0.37674 0.66238 0.0
C1555 C 0.1972 0.36076 0.66793 0.0
C1556 C 0.19158 0.34535 0.65451 0.0
C1557 C 0.18594 0.34599 0.63594 0.0
C1558 C 0.15065 0.35924 0.62083 0.0
C1559 C 0.14599 0.37281 0.62629 0.0
C1560 C 0.13173 0.36842 0.63846 0.0
C1561 C 0.12199 0.35042 0.64544 0.0
C1562 C 0.12725 0.33715 0.64049 0.0
C1563 C 0.1414 0.34151 0.62825 0.0
C1564 C 0.14108 0.36286 0.58225 0.0
C1565 C 0.14138 0.37905 0.57666 0.0
C1566 C 0.12471 0.37851 0.57212 0.0
C1567 C 0.10743 0.36173 0.5731 0.0
C1568 C 0.10723 0.34551 0.57863 0.0
C1569 C 0.12392 0.34606 0.58311 0.0
C1570 C 0.16306 0.36178 0.55253 0.0
C1571 C 0.16932 0.37742 0.54174 0.0
C1572 C 0.16161 0.37512 0.52326 0.0
C1573 C 0.14766 0.35712 0.51533 0.0
C1574 C 0.1419 0.34148 0.52617 0.0
C1575 C 0.1494 0.34383 0.54462 0.0
C1576 C 0.19788 0.36328 0.56123 0.0
C1577 C 0.21483 0.37926 0.55755 0.0
C1578 C 0.22488 0.37838 0.54252 0.0
C1579 C 0.21816 0.36145 0.53105 0.0
C1580 C 0.20122 0.34546 0.53495 0.0
C1581 C 0.19121 0.34638 0.54989 0.0
C1582 C 0.2034 0.36024 0.68763 0.0
C1583 C 0.08968 0.3611 0.56836 0.0
H1584 H 0.02196 0.41353 0.06935 0.0
H1585 H 0.96851 0.36359 0.07582 0.0
H1586 H 0.01514 0.43128 0.09295 0.0
H1587 H 0.96161 0.38146 0.09933 0.0
H1588 H 0.96876 0.41521 0.15676 0.0
H1589 H 0.97276 0.39651 0.13176 0.0
H1590 H 0.99404 0.44368 0.09684 0.0
H1591 H 0.98998 0.46245 0.12192 0.0
C1592 C 0.00875 0.40634 0.07581 0.0
C1593 C 0.99579 0.38715 0.07075 0.0
C1594 C 0.00477 0.41655 0.0892 0.0
C1595 C 0.98778 0.4078 0.09788 0.0
C1596 C 0.97487 0.38856 0.09295 0.0
C1597 C 0.97881 0.37834 0.07948 0.0
C1598 C 0.97382 0.42145 0.14356 0.0
C1599 C 0.97897 0.4403 0.14126 0.0
C1600 C 0.97619 0.41074 0.12926 0.0
C1601 C 0.98382 0.41866 0.11238 0.0
C1602 C 0.9884 0.4373 0.10983 0.0
C1603 C 0.98601 0.44801 0.12413 0.0
H1604 H 0.56888 0.55985 0.08815 0.0
H1605 H 0.62547 0.58835 0.11301 0.0
H1606 H 0.5591 0.53718 0.11217 0.0
H1607 H 0.61552 0.56561 0.13734 0.0
H1608 H 0.57843 0.5395 0.19017 0.0
H1609 H 0.59352 0.55966 0.16451 0.0
H1610 H 0.56407 0.51121 0.1239 0.0
H1611 H 0.54896 0.49107 0.14953 0.0
C1612 C 0.57928 0.56115 0.09865 0.0
C1613 C 0.59793 0.57593 0.09877 0.0
C1614 C 0.57369 0.54807 0.11232 0.0
C1615 C 0.58656 0.54964 0.1266 0.0
C1616 C 0.60533 0.56413 0.12649 0.0
C1617 C 0.61102 0.57706 0.11255 0.0
C1618 C 0.57545 0.53314 0.17578 0.0
C1619 C 0.56246 0.51377 0.17181 0.0
C1620 C 0.58418 0.54463 0.16114 0.0
C1621 C 0.57988 0.53698 0.14223 0.0
C1622 C 0.56756 0.51745 0.13835 0.0
C1623 C 0.55901 0.50593 0.15301 0.0
H1624 H 0.41035 0.96747 0.06667 0.0
H1625 H 0.42594 0.02626 0.06981 0.0
H1626 H 0.42633 0.97247 0.09762 0.0
H1627 H 0.44227 0.03123 0.10091 0.0
H1628 H 0.48556 0.02995 0.14669 0.0
H1629 H 0.47108 0.02793 0.11539 0.0
H1630 H 0.41885 0.98175 0.13116 0.0
H1631 H 0.43284 0.9842 0.16259 0.0
C1632 C 0.41736 0.98152 0.07385 0.0
C1633 C 0.4168 0.99646 0.0658 0.0
C1634 C 0.42642 0.98433 0.09161 0.0
C1635 C 0.43539 0.00219 0.10161 0.0
C1636 C 0.43546 0.01734 0.09339 0.0
C1637 C 0.42607 0.01446 0.07567 0.0
C1638 C 0.47091 0.01958 0.14362 0.0
C1639 C 0.46046 0.00706 0.15714 0.0
C1640 C 0.46268 0.01842 0.12569 0.0
C1641 C 0.44395 0.00457 0.1209 0.0
C1642 C 0.43341 0.99236 0.13446 0.0
C1643 C 0.4415 0.9937 0.15241 0.0
H1644 H 0.38825 0.96241 0.96085 0.0
H1645 H 0.42589 0.02282 0.96224 0.0
H1646 H 0.4018 0.95815 0.93225 0.0
H1647 H 0.43916 0.01853 0.93358 0.0
H1648 H 0.44335 0.00373 0.87131 0.0
H1649 H 0.42709 0.00596 0.89834 0.0
H1650 H 0.43527 0.96474 0.92516 0.0
H1651 H 0.45227 0.96302 0.89858 0.0
C1652 C 0.39932 0.97475 0.95498 0.0
C1653 C 0.40606 0.99294 0.96376 0.0
C1654 C 0.40708 0.9723 0.9387 0.0
C1655 C 0.42143 0.98802 0.93075 0.0
C1656 C 0.42797 0.0062 0.93937 0.0
C1657 C 0.42046 0.00863 0.95581 0.0
C1658 C 0.44181 0.9952 0.88299 0.0
C1659 C 0.44933 0.98334 0.88281 0.0
C1660 C 0.4324 0.99642 0.8984 0.0
C1661 C 0.43003 0.98558 0.9138 0.0
C1662 C 0.4368 0.97313 0.91335 0.0
C1663 C 0.44647 0.9721 0.89807 0.0
H1664 H 0.03135 0.39924 0.97231 0.0
H1665 H 0.97998 0.39871 0.98007 0.0
H1666 H 0.03947 0.42287 0.94904 0.0
H1667 H 0.98796 0.42182 0.95707 0.0
H1668 H 0.01452 0.47711 0.93166 0.0
H1669 H 0.01099 0.45545 0.95544 0.0
H1670 H 0.02839 0.42633 0.91655 0.0
H1671 H 0.032 0.44815 0.89265 0.0
C1672 C 0.02179 0.40406 0.96904 0.0
C1673 C 0.00508 0.39714 0.97819 0.0
C1674 C 0.02642 0.41755 0.95571 0.0
C1675 C 0.01448 0.42441 0.95145 0.0
C1676 C 0.99768 0.41718 0.96035 0.0
C1677 C 0.99304 0.40377 0.97349 0.0
C1678 C 0.01767 0.46614 0.92819 0.0
C1679 C 0.02327 0.46417 0.91019 0.0
C1680 C 0.01566 0.45374 0.94181 0.0
C1681 C 0.01913 0.43899 0.93776 0.0
C1682 C 0.02568 0.43759 0.92011 0.0
C1683 C 0.02773 0.45007 0.90643 0.0
H1684 H 0.60647 0.58332 0.99615 0.0
H1685 H 0.58431 0.61983 0.00721 0.0
H1686 H 0.59027 0.57379 0.96471 0.0
H1687 H 0.56796 0.61013 0.97569 0.0
H1688 H 0.52647 0.56949 0.92495 0.0
H1689 H 0.54169 0.57963 0.95693 0.0
H1690 H 0.59374 0.59124 0.93492 0.0
H1691 H 0.57888 0.58181 0.903 0.0
C1692 C 0.59805 0.58923 0.99191 0.0
C1693 C 0.59671 0.60238 0.00411 0.0
C1694 C 0.58886 0.58384 0.97389 0.0
C1695 C 0.57795 0.5913 0.96777 0.0
C1696 C 0.57622 0.60411 0.98011 0.0
C1697 C 0.58564 0.60971 0.99808 0.0
C1698 C 0.54122 0.57447 0.92688 0.0
C1699 C 0.55138 0.57463 0.91138 0.0
C1700 C 0.54989 0.58021 0.94519 0.0
C1701 C 0.56882 0.58601 0.94838 0.0
C1702 C 0.57904 0.58649 0.93289 0.0
C1703 C 0.57047 0.58101 0.91462 0.0
H1704 H 0.99215 0.57268 0.01407 0.0
H1705 H 0.02223 0.62922 0.99561 0.0
H1706 H 0.0028 0.56137 0.98774 0.0
H1707 H 0.03282 0.61776 0.96907 0.0
H1708 H 0.01595 0.57954 0.91114 0.0
H1709 H 0.01393 0.59549 0.94013 0.0
H1710 H 0.03164 0.56425 0.9733 0.0
H1711 H 0.03375 0.5483 0.94409 0.0
C1712 C 0.00124 0.58275 0.00452 0.0
C1713 C 0.0062 0.60181 0.00679 0.0
C1714 C 0.00747 0.57628 0.98954 0.0
C1715 C 0.01859 0.58868 0.97636 0.0
C1716 C 0.02417 0.6079 0.97901 0.0
C1717 C 0.01816 0.61445 0.99421 0.0
C1718 C 0.01967 0.57631 0.92464 0.0
C1719 C 0.02483 0.56262 0.92549 0.0
C1720 C 0.01867 0.58554 0.9412 0.0
C1721 C 0.0226 0.58107 0.95894 0.0
C1722 C 0.02848 0.56789 0.95977 0.0
C1723 C 0.02975 0.55884 0.94314 0.0
H1724 H 0.38414 0.42758 0.94963 0.0
H1725 H 0.42828 0.41499 0.95495 0.0
H1726 H 0.40185 0.45117 0.9275 0.0
H1727 H 0.44579 0.43834 0.93272 0.0
H1728 H 0.48069 0.49515 0.90881 0.0
H1729 H 0.46241 0.47296 0.93173 0.0
H1730 H 0.41248 0.45253 0.89505 0.0
H1731 H 0.43079 0.47469 0.87205 0.0
C1732 C 0.39757 0.4298 0.94602 0.0
C1733 C 0.40485 0.41947 0.95404 0.0
C1734 C 0.40766 0.44325 0.93332 0.0
C1735 C 0.42523 0.44665 0.92848 0.0
C1736 C 0.43242 0.43623 0.93643 0.0
C1737 C 0.42233 0.42277 0.94906 0.0
C1738 C 0.46582 0.4859 0.90563 0.0
C1739 C 0.45719 0.48655 0.88859 0.0
C1740 C 0.45536 0.4732 0.91874 0.0
C1741 C 0.43606 0.46092 0.91509 0.0
C1742 C 0.42731 0.46195 0.89831 0.0
C1743 C 0.43779 0.47465 0.88517 0.0
H1744 H 0.58784 0.02576 0.0007 0.0
H1745 H 0.59185 0.97608 0.98874 0.0
H1746 H 0.56959 0.01901 0.97097 0.0
H1747 H 0.57343 0.96938 0.95865 0.0
H1748 H 0.52425 0.95713 0.91435 0.0
H1749 H 0.54089 0.96102 0.94493 0.0
H1750 H 0.57779 0.02016 0.93733 0.0
H1751 H 0.56163 0.0163 0.90686 0.0
C1752 C 0.58478 0.01332 0.99179 0.0
C1753 C 0.59151 0.00156 0.99707 0.0
C1754 C 0.57434 0.00951 0.97468 0.0
C1755 C 0.57027 0.9938 0.9624 0.0
C1756 C 0.57634 0.98157 0.9679 0.0
C1757 C 0.58694 0.98546 0.98507 0.0
C1758 C 0.536 0.97092 0.91917 0.0
C1759 C 0.5414 0.98647 0.90826 0.0
C1760 C 0.5455 0.97312 0.93666 0.0
C1761 C 0.56049 0.99093 0.94359 0.0
C1762 C 0.56604 0.00634 0.93254 0.0
C1763 C 0.55669 0.00414 0.9151 0.0
H1764 H 0.62272 0.03659 0.106 0.0
H1765 H 0.57753 0.97953 0.09053 0.0
H1766 H 0.60594 0.03865 0.13277 0.0
H1767 H 0.56104 0.98145 0.11732 0.0
H1768 H 0.5272 0.9974 0.15389 0.0
H1769 H 0.54477 0.99729 0.12724 0.0
H1770 H 0.59572 0.02574 0.16342 0.0
H1771 H 0.57806 0.02595 0.19015 0.0
C1772 C 0.60927 0.02448 0.10835 0.0
C1773 C 0.60143 0.00793 0.0961 0.0
C1774 C 0.59969 0.02563 0.12373 0.0
C1775 C 0.58209 0.01026 0.12712 0.0
C1776 C 0.5744 0.99368 0.11493 0.0
C1777 C 0.58393 0.99254 0.09962 0.0
C1778 C 0.54214 0.00355 0.15619 0.0
C1779 C 0.55122 0.01152 0.17417 0.0
C1780 C 0.55222 0.00349 0.14091 0.0
C1781 C 0.57164 0.01134 0.14323 0.0
C1782 C 0.5808 0.01972 0.16112 0.0
C1783 C 0.5707 0.01982 0.17643 0.0
H1784 H 0.95672 0.58938 0.09766 0.0
H1785 H 0.01661 0.61757 0.1076 0.0
H1786 H 0.95303 0.56911 0.12332 0.0
H1787 H 0.01294 0.59751 0.13302 0.0
H1788 H 0.00109 0.57 0.1877 0.0
H1789 H 0.0008 0.59125 0.16524 0.0
H1790 H 0.96069 0.54327 0.12811 0.0
H1791 H 0.96115 0.52191 0.15046 0.0
C1792 C 0.96905 0.59138 0.10545 0.0
C1793 C 0.98695 0.605 0.10061 0.0
C1794 C 0.96694 0.57975 0.12003 0.0
C1795 C 0.9827 0.58179 0.13018 0.0
C1796 C 0.00053 0.59577 0.12562 0.0
C1797 C 0.00264 0.60717 0.11097 0.0
C1798 C 0.99218 0.56396 0.17476 0.0
C1799 C 0.98138 0.54426 0.17072 0.0
C1800 C 0.99197 0.57614 0.16196 0.0
C1801 C 0.98086 0.5689 0.14486 0.0
C1802 C 0.96928 0.54923 0.14125 0.0
C1803 C 0.96956 0.53701 0.15405 0.0
H1804 H 0.42434 0.44086 0.05261 0.0
H1805 H 0.41236 0.38321 0.05042 0.0
H1806 H 0.44315 0.44806 0.08207 0.0
H1807 H 0.4313 0.39057 0.08023 0.0
H1808 H 0.48182 0.41972 0.12663 0.0
H1809 H 0.4649 0.41141 0.09538 0.0
H1810 H 0.43413 0.43746 0.11448 0.0
H1811 H 0.45054 0.44536 0.14549 0.0
C1812 C 0.42578 0.42971 0.05833 0.0
C1813 C 0.41664 0.41137 0.04922 0.0
C1814 C 0.43654 0.43386 0.07527 0.0
C1815 C 0.43849 0.41982 0.08353 0.0
C1816 C 0.43004 0.40167 0.07411 0.0
C1817 C 0.41915 0.39745 0.05711 0.0
C1818 C 0.47136 0.42356 0.12414 0.0
C1819 C 0.46778 0.43352 0.13845 0.0
C1820 C 0.46171 0.41881 0.10629 0.0
C1821 C 0.44842 0.42404 0.10246 0.0
C1822 C 0.44462 0.43364 0.11688 0.0
C1823 C 0.45411 0.43824 0.13465 0.0
H1824 H 0.68521 0.74411 0.40857 0.0
H1825 H 0.62701 0.7009 0.39882 0.0
H1826 H 0.67751 0.75959 0.43373 0.0
H1827 H 0.61914 0.71678 0.42358 0.0
H1828 H 0.61664 0.73833 0.48432 0.0
H1829 H 0.62203 0.72285 0.45711 0.0
H1830 H 0.663 0.77751 0.43958 0.0
H1831 H 0.65796 0.79284 0.46718 0.0
C1832 C 0.67073 0.73801 0.41171 0.0
C1833 C 0.65673 0.72127 0.40177 0.0
C1834 C 0.66628 0.74698 0.42603 0.0
C1835 C 0.64767 0.73952 0.43063 0.0
C1836 C 0.63363 0.7228 0.42058 0.0
C1837 C 0.63813 0.71373 0.40634 0.0
C1838 C 0.62654 0.74699 0.47443 0.0
C1839 C 0.63696 0.76674 0.47785 0.0
C1840 C 0.62964 0.73815 0.45883 0.0
C1841 C 0.64311 0.74892 0.44624 0.0
C1842 C 0.65286 0.76876 0.44923 0.0
C1843 C 0.6499 0.77756 0.46493 0.0
H1844 H 0.23173 0.89349 0.4263 0.0
H1845 H 0.28876 0.9202 0.44956 0.0
H1846 H 0.22173 0.87147 0.45097 0.0
H1847 H 0.27859 0.89816 0.47455 0.0
H1848 H 0.24263 0.87433 0.52858 0.0
H1849 H 0.2573 0.89383 0.50236 0.0
H1850 H 0.22607 0.84483 0.46271 0.0
H1851 H 0.21147 0.82532 0.48893 0.0
C1852 C 0.24216 0.89456 0.43661 0.0
C1853 C 0.26102 0.90863 0.43606 0.0
C1854 C 0.23643 0.88186 0.45065 0.0
C1855 C 0.24939 0.88311 0.46463 0.0
C1856 C 0.26833 0.89694 0.46393 0.0
C1857 C 0.27414 0.90947 0.44962 0.0
C1858 C 0.23917 0.86771 0.51427 0.0
C1859 C 0.22589 0.84836 0.51074 0.0
C1860 C 0.24764 0.87881 0.49931 0.0
C1861 C 0.24275 0.87082 0.48054 0.0
C1862 C 0.23002 0.85132 0.47707 0.0
C1863 C 0.22177 0.84017 0.49205 0.0
H1864 H 0.10381 0.36087 0.40227 0.0
H1865 H 0.08841 0.30296 0.40879 0.0
H1866 H 0.12049 0.37027 0.43371 0.0
H1867 H 0.10471 0.31237 0.44011 0.0
H1868 H 0.11106 0.3334 0.50314 0.0
H1869 H 0.097 0.32674 0.47098 0.0
H1870 H 0.14961 0.3687 0.45142 0.0
H1871 H 0.16416 0.37489 0.4836 0.0
C1872 C 0.10408 0.3502 0.41033 0.0
C1873 C 0.09474 0.33116 0.40308 0.0
C1874 C 0.11365 0.3556 0.42823 0.0
C1875 C 0.11371 0.34199 0.43926 0.0
C1876 C 0.10472 0.32307 0.43187 0.0
C1877 C 0.09547 0.31773 0.41392 0.0
C1878 C 0.11977 0.3411 0.49202 0.0
C1879 C 0.13886 0.35444 0.49595 0.0
C1880 C 0.11165 0.33735 0.47364 0.0
C1881 C 0.1223 0.3471 0.45881 0.0
C1882 C 0.14115 0.36105 0.46271 0.0
C1883 C 0.14941 0.36461 0.48112 0.0
H1884 H 0.11017 0.33337 0.30739 0.0
H1885 H 0.05295 0.29292 0.28809 0.0
H1886 H 0.12056 0.32628 0.27786 0.0
H1887 H 0.06339 0.2862 0.25844 0.0
H1888 H 0.09334 0.30346 0.20051 0.0
H1889 H 0.0814 0.30795 0.23029 0.0
H1890 H 0.11827 0.29504 0.2614 0.0
H1891 H 0.12993 0.29023 0.23167 0.0
C1892 C 0.09985 0.32299 0.29685 0.0
C1893 C 0.08078 0.31367 0.3 0.0
C1894 C 0.10579 0.3189 0.28004 0.0
C1895 C 0.09273 0.30572 0.26599 0.0
C1896 C 0.07367 0.29646 0.26909 0.0
C1897 C 0.06775 0.30025 0.28605 0.0
C1898 C 0.09866 0.30137 0.21373 0.0
C1899 C 0.1124 0.2964 0.21391 0.0
C1900 C 0.09185 0.30389 0.23068 0.0
C1901 C 0.09901 0.30188 0.24802 0.0
C1902 C 0.11262 0.29673 0.24817 0.0
C1903 C 0.11915 0.29385 0.23122 0.0
H1904 H 0.64867 0.72974 0.29971 0.0
H1905 H 0.70488 0.74183 0.31204 0.0
H1906 H 0.65976 0.75337 0.27691 0.0
H1907 H 0.71617 0.76611 0.2892 0.0
H1908 H 0.72276 0.79467 0.23138 0.0
H1909 H 0.71507 0.77148 0.25503 0.0
H1910 H 0.67759 0.78739 0.27872 0.0
H1911 H 0.68492 0.81 0.25497 0.0
C1912 C 0.66345 0.73749 0.29758 0.0
C1913 C 0.67592 0.73404 0.30788 0.0
C1914 C 0.66984 0.75116 0.28456 0.0
C1915 C 0.68891 0.76194 0.28153 0.0
C1916 C 0.70139 0.75805 0.29126 0.0
C1917 C 0.69494 0.74419 0.30433 0.0
C1918 C 0.71308 0.7933 0.24185 0.0
C1919 C 0.70418 0.80384 0.24122 0.0
C1920 C 0.70869 0.78007 0.25537 0.0
C1921 C 0.69542 0.77732 0.2685 0.0
C1922 C 0.68745 0.78876 0.26847 0.0
C1923 C 0.69169 0.80177 0.25494 0.0
H1924 H 0.2486 0.9514 0.34368 0.0
H1925 H 0.26593 0.91093 0.3322 0.0
H1926 H 0.23016 0.94117 0.31347 0.0
H1927 H 0.2482 0.90124 0.30168 0.0
H1928 H 0.20313 0.87624 0.25452 0.0
H1929 H 0.218 0.88495 0.28652 0.0
H1930 H 0.23365 0.94304 0.2806 0.0
H1931 H 0.21809 0.93403 0.24886 0.0
C1932 C 0.24852 0.94036 0.33465 0.0
C1933 C 0.25872 0.93197 0.34029 0.0
C1934 C 0.23804 0.93456 0.31727 0.0
C1935 C 0.23768 0.92039 0.30505 0.0
C1936 C 0.24783 0.91194 0.31082 0.0
C1937 C 0.25812 0.91758 0.32829 0.0
C1938 C 0.20965 0.89083 0.26018 0.0
C1939 C 0.20954 0.90449 0.24925 0.0
C1940 C 0.21828 0.89587 0.27846 0.0
C1941 C 0.22724 0.91476 0.28614 0.0
C1942 C 0.2267 0.92832 0.2753 0.0
C1943 C 0.21784 0.92321 0.25709 0.0
H1944 H 0.70586 0.95977 0.33716 0.0
H1945 H 0.66088 0.90151 0.33477 0.0
H1946 H 0.72177 0.95094 0.31407 0.0
H1947 H 0.67639 0.8929 0.31162 0.0
H1948 H 0.7105 0.87708 0.27908 0.0
H1949 H 0.70255 0.88916 0.30714 0.0
H1950 H 0.71766 0.94063 0.28057 0.0
H1951 H 0.72619 0.92868 0.2528 0.0
C1952 C 0.69939 0.94511 0.33178 0.0
C1953 C 0.68206 0.93137 0.3378 0.0
C1954 C 0.70849 0.94006 0.31852 0.0
C1955 C 0.70044 0.92119 0.31108 0.0
C1956 C 0.68324 0.90749 0.31733 0.0
C1957 C 0.67421 0.91249 0.33052 0.0
C1958 C 0.71258 0.89117 0.27952 0.0
C1959 C 0.71883 0.90193 0.26383 0.0
C1960 C 0.7079 0.89805 0.29549 0.0
C1961 C 0.70907 0.9157 0.29594 0.0
C1962 C 0.71666 0.92703 0.28075 0.0
C1963 C 0.72156 0.92021 0.26484 0.0
H1964 H 0.09554 0.75671 0.29578 0.0
H1965 H 0.04952 0.76653 0.29097 0.0
H1966 H 0.11012 0.77714 0.27048 0.0
H1967 H 0.06421 0.78703 0.26538 0.0
H1968 H 0.11063 0.83935 0.23618 0.0
H1969 H 0.09325 0.81842 0.26056 0.0
H1970 H 0.10328 0.77575 0.23586 0.0
H1971 H 0.12044 0.79647 0.21151 0.0
C1972 C 0.08852 0.76323 0.28931 0.0
C1973 C 0.07135 0.75997 0.29532 0.0
C1974 C 0.09683 0.77484 0.27474 0.0
C1975 C 0.08821 0.78352 0.26587 0.0
C1976 C 0.07117 0.78054 0.27204 0.0
C1977 C 0.06275 0.76878 0.2866 0.0
C1978 C 0.10886 0.82538 0.23582 0.0
C1979 C 0.11712 0.81964 0.22212 0.0
C1980 C 0.09893 0.81343 0.24975 0.0
C1981 C 0.09715 0.79558 0.25022 0.0
C1982 C 0.10478 0.78959 0.23607 0.0
C1983 C 0.11462 0.80147 0.22216 0.0
H1984 H 0.2498 0.30367 0.32355 0.0
H1985 H 0.24257 0.35184 0.33082 0.0
H1986 H 0.23089 0.29389 0.29343 0.0
H1987 H 0.22377 0.34202 0.30103 0.0
H1988 H 0.21674 0.33499 0.23644 0.0
H1989 H 0.23231 0.34164 0.26776 0.0
H1990 H 0.1982 0.28286 0.27847 0.0
H1991 H 0.1821 0.27613 0.24698 0.0
C1992 C 0.24402 0.31203 0.31888 0.0
C1993 C 0.24791 0.32867 0.32952 0.0
C1994 C 0.23314 0.30638 0.30168 0.0
C1995 C 0.22606 0.31733 0.29478 0.0
C1996 C 0.22931 0.33348 0.30582 0.0
C1997 C 0.24006 0.33906 0.32296 0.0
C1998 C 0.21223 0.32348 0.24553 0.0
C1999 C 0.19791 0.30506 0.23924 0.0
C2000 C 0.22125 0.3273 0.26349 0.0
C2001 C 0.21634 0.31281 0.27565 0.0
C2002 C 0.20229 0.2943 0.26935 0.0
C2003 C 0.19311 0.29046 0.25133 0.0
H2004 H 0.24279 0.31953 0.42952 0.0
H2005 H 0.28907 0.37716 0.43658 0.0
H2006 H 0.23069 0.32461 0.45851 0.0
H2007 H 0.27698 0.38219 0.46591 0.0
H2008 H 0.23534 0.38741 0.50493 0.0
H2009 H 0.25003 0.38416 0.47687 0.0
H2010 H 0.23893 0.32967 0.49259 0.0
H2011 H 0.22436 0.33292 0.52056 0.0
C2012 C 0.25042 0.33329 0.43729 0.0
C2013 C 0.26692 0.34793 0.43076 0.0
C2014 C 0.24354 0.33616 0.454 0.0
C2015 C 0.25295 0.35376 0.4646 0.0
C2016 C 0.26937 0.3685 0.45799 0.0
C2017 C 0.27632 0.3656 0.44126 0.0
C2018 C 0.23631 0.37488 0.50253 0.0
C2019 C 0.2285 0.36033 0.51486 0.0
C2020 C 0.24471 0.37302 0.48646 0.0
C2021 C 0.24544 0.35656 0.48239 0.0
C2022 C 0.23823 0.34234 0.4951 0.0
C2023 C 0.22988 0.3442 0.51113 0.0
H2024 H 0.68258 0.93264 0.42983 0.0
H2025 H 0.62541 0.91952 0.42829 0.0
H2026 H 0.67584 0.90984 0.45327 0.0
H2027 H 0.61865 0.89652 0.4518 0.0
H2028 H 0.62245 0.87319 0.50975 0.0
H2029 H 0.62708 0.89532 0.48592 0.0
H2030 H 0.6571 0.87493 0.45368 0.0
H2031 H 0.65231 0.85272 0.47727 0.0
C2032 C 0.66858 0.92492 0.43452 0.0
C2033 C 0.65451 0.92783 0.42715 0.0
C2034 C 0.66469 0.91176 0.44787 0.0
C2035 C 0.64668 0.90128 0.45424 0.0
C2036 C 0.63267 0.90446 0.44719 0.0
C2037 C 0.63654 0.91757 0.43371 0.0
C2038 C 0.62977 0.87323 0.49742 0.0
C2039 C 0.63718 0.86133 0.4955 0.0
C2040 C 0.63244 0.88592 0.48381 0.0
C2041 C 0.64264 0.887 0.46807 0.0
C2042 C 0.64952 0.87469 0.46587 0.0
C2043 C 0.64678 0.86198 0.47939 0.0
H2044 H 0.08677 0.77727 0.39956 0.0
H2045 H 0.08068 0.72207 0.39117 0.0
H2046 H 0.10632 0.78378 0.42843 0.0
H2047 H 0.10056 0.72877 0.41994 0.0
H2048 H 0.11513 0.73985 0.48515 0.0
H2049 H 0.09858 0.73264 0.45408 0.0
H2050 H 0.13683 0.78952 0.43973 0.0
H2051 H 0.15335 0.79673 0.47086 0.0
C2052 C 0.08971 0.76657 0.40378 0.0
C2053 C 0.08208 0.74912 0.39308 0.0
C2054 C 0.10105 0.77036 0.42027 0.0
C2055 C 0.10503 0.7568 0.42645 0.0
C2056 C 0.0976 0.73944 0.41564 0.0
C2057 C 0.08626 0.73564 0.39912 0.0
C2058 C 0.12025 0.75068 0.4752 0.0
C2059 C 0.13545 0.76889 0.48047 0.0
C2060 C 0.11076 0.74656 0.4574 0.0
C2061 C 0.11628 0.76057 0.44452 0.0
C2062 C 0.13202 0.77853 0.44949 0.0
C2063 C 0.14149 0.78265 0.46728 0.0
H2064 H 0.29385 0.0362 0.7297 0.0
H2065 H 0.3514 0.08048 0.74163 0.0
H2066 H 0.28454 0.05089 0.75435 0.0
H2067 H 0.34225 0.09478 0.76658 0.0
H2068 H 0.32076 0.12613 0.79951 0.0
H2069 H 0.32657 0.11174 0.77169 0.0
H2070 H 0.2865 0.05625 0.78816 0.0
H2071 H 0.28033 0.0708 0.81566 0.0
C2072 C 0.30451 0.04901 0.73766 0.0
C2073 C 0.32336 0.05721 0.73374 0.0
C2074 C 0.29919 0.05739 0.75181 0.0
C2075 C 0.31262 0.07408 0.76238 0.0
C2076 C 0.33147 0.08217 0.75845 0.0
C2077 C 0.33676 0.07388 0.74425 0.0
C2078 C 0.31303 0.11087 0.79697 0.0
C2079 C 0.30019 0.09954 0.80971 0.0
C2080 C 0.31643 0.10261 0.78114 0.0
C2081 C 0.30724 0.08282 0.77786 0.0
C2082 C 0.29372 0.07152 0.79017 0.0
C2083 C 0.29018 0.07983 0.80591 0.0
H2084 H 0.90953 0.24854 0.77402 0.0
H2085 H 0.95004 0.23337 0.75843 0.0
H2086 H 0.90138 0.22832 0.80013 0.0
H2087 H 0.94138 0.21255 0.78462 0.0
H2088 H 0.89182 0.15976 0.81729 0.0
H2089 H 0.90708 0.18104 0.79247 0.0
H2090 H 0.92134 0.229 0.83152 0.0
H2091 H 0.90685 0.20798 0.85657 0.0
C2092 C 0.91665 0.24081 0.77612 0.0
C2093 C 0.9304 0.2425 0.76414 0.0
C2094 C 0.91206 0.22935 0.79115 0.0
C2095 C 0.92085 0.21904 0.79439 0.0
C2096 C 0.93447 0.22046 0.78236 0.0
C2097 C 0.93941 0.23235 0.76747 0.0
C2098 C 0.89874 0.17486 0.82079 0.0
C2099 C 0.89782 0.18213 0.83887 0.0
C2100 C 0.90743 0.18701 0.80655 0.0
C2101 C 0.91517 0.20657 0.81012 0.0
C2102 C 0.9153 0.21392 0.82843 0.0
C2103 C 0.90686 0.20186 0.8427 0.0
H2104 H 0.75201 0.64189 0.73874 0.0
H2105 H 0.7665 0.69985 0.73451 0.0
H2106 H 0.76801 0.65041 0.77018 0.0
H2107 H 0.78291 0.70838 0.76606 0.0
H2108 H 0.82655 0.71161 0.81548 0.0
H2109 H 0.81232 0.70642 0.7833 0.0
H2110 H 0.75949 0.66365 0.80168 0.0
H2111 H 0.77322 0.66933 0.83389 0.0
C2112 C 0.75882 0.6565 0.74439 0.0
C2113 C 0.75791 0.67018 0.73415 0.0
C2114 C 0.7679 0.66133 0.76241 0.0
C2115 C 0.77655 0.67999 0.77047 0.0
C2116 C 0.77633 0.69389 0.76005 0.0
C2117 C 0.76692 0.68899 0.74208 0.0
C2118 C 0.81182 0.70137 0.81277 0.0
C2119 C 0.80111 0.6907 0.82728 0.0
C2120 C 0.80374 0.69838 0.79434 0.0
C2121 C 0.78493 0.6845 0.79009 0.0
C2122 C 0.77412 0.67423 0.80461 0.0
C2123 C 0.78206 0.67741 0.82302 0.0
H2124 H 0.71588 0.63358 0.61891 0.0
H2125 H 0.7726 0.67556 0.63834 0.0
H2126 H 0.72699 0.62673 0.58974 0.0
H2127 H 0.78367 0.66828 0.60937 0.0
H2128 H 0.79325 0.62952 0.56568 0.0
H2129 H 0.78107 0.63533 0.59462 0.0
H2130 H 0.74637 0.64936 0.56119 0.0
H2131 H 0.75894 0.64402 0.53221 0.0
C2132 C 0.73071 0.64125 0.61698 0.0
C2133 C 0.74341 0.6551 0.63084 0.0
C2134 C 0.73701 0.63738 0.60031 0.0
C2135 C 0.75613 0.64698 0.59746 0.0
C2136 C 0.76885 0.66067 0.61138 0.0
C2137 C 0.76253 0.66486 0.62785 0.0
C2138 C 0.78288 0.63366 0.56457 0.0
C2139 C 0.77689 0.63626 0.54685 0.0
C2140 C 0.77604 0.63708 0.58104 0.0
C2141 C 0.76285 0.64278 0.58 0.0
C2142 C 0.75649 0.6449 0.56224 0.0
C2143 C 0.76365 0.64188 0.54577 0.0
H2144 H 0.34009 0.09307 0.65324 0.0
H2145 H 0.36673 0.06398 0.63031 0.0
H2146 H 0.35277 0.11564 0.62919 0.0
H2147 H 0.3792 0.08656 0.60581 0.0
H2148 H 0.36576 0.11266 0.55207 0.0
H2149 H 0.36132 0.09247 0.57792 0.0
H2150 H 0.38481 0.14136 0.61815 0.0
H2151 H 0.3894 0.16157 0.5923 0.0
C2152 C 0.34881 0.09161 0.64313 0.0
C2153 C 0.35235 0.07672 0.64356 0.0
C2154 C 0.35617 0.10462 0.62947 0.0
C2155 C 0.36698 0.10284 0.6157 0.0
C2156 C 0.3709 0.08821 0.61631 0.0
C2157 C 0.36383 0.07537 0.63031 0.0
C2158 C 0.37028 0.11909 0.56642 0.0
C2159 C 0.37782 0.13861 0.57025 0.0
C2160 C 0.36788 0.10759 0.58115 0.0
C2161 C 0.37268 0.11539 0.59999 0.0
C2162 C 0.38097 0.13503 0.60373 0.0
C2163 C 0.38366 0.14657 0.58897 0.0
H2164 H 0.9148 0.2801 0.66832 0.0
H2165 H 0.93663 0.24331 0.6571 0.0
H2166 H 0.89807 0.27018 0.63702 0.0
H2167 H 0.92001 0.23355 0.62584 0.0
H2168 H 0.90847 0.24205 0.56414 0.0
H2169 H 0.92336 0.25088 0.59605 0.0
H2170 H 0.87164 0.23997 0.61836 0.0
H2171 H 0.85639 0.23042 0.58639 0.0
C2172 C 0.91596 0.26984 0.65921 0.0
C2173 C 0.92709 0.26254 0.66512 0.0
C2174 C 0.90631 0.26412 0.64136 0.0
C2175 C 0.90784 0.25119 0.62901 0.0
C2176 C 0.91875 0.24369 0.63503 0.0
C2177 C 0.92818 0.24921 0.65295 0.0
C2178 C 0.90013 0.24124 0.57582 0.0
C2179 C 0.88114 0.23529 0.57266 0.0
C2180 C 0.90872 0.24638 0.5941 0.0
C2181 C 0.89861 0.24596 0.60966 0.0
C2182 C 0.87976 0.24049 0.60657 0.0
C2183 C 0.87107 0.23511 0.58826 0.0
H2184 H 0.36735 0.29135 0.66998 0.0
H2185 H 0.31741 0.23598 0.66601 0.0
H2186 H 0.38066 0.28025 0.646 0.0
H2187 H 0.33051 0.2251 0.64194 0.0
H2188 H 0.36326 0.20502 0.61032 0.0
H2189 H 0.35462 0.21756 0.63751 0.0
H2190 H 0.37567 0.27067 0.61217 0.0
H2191 H 0.38447 0.25817 0.58514 0.0
C2192 C 0.35921 0.27684 0.66401 0.0
C2193 C 0.3413 0.26457 0.66992 0.0
C2194 C 0.36682 0.2705 0.65024 0.0
C2195 C 0.3567 0.25176 0.64213 0.0
C2196 C 0.33885 0.23951 0.64814 0.0
C2197 C 0.33126 0.24582 0.66185 0.0
C2198 C 0.36624 0.21945 0.61071 0.0
C2199 C 0.37446 0.23058 0.59559 0.0
C2200 C 0.36123 0.22662 0.62622 0.0
C2201 C 0.36423 0.24504 0.6269 0.0
C2202 C 0.37331 0.25649 0.6122 0.0
C2203 C 0.37839 0.24934 0.59671 0.0
H2204 H 0.71778 0.09281 0.61368 0.0
H2205 H 0.76051 0.07805 0.6162 0.0
H2206 H 0.73346 0.11373 0.58886 0.0
H2207 H 0.77636 0.09924 0.59171 0.0
H2208 H 0.78983 0.12373 0.53476 0.0
H2209 H 0.77224 0.10184 0.55816 0.0
H2210 H 0.76209 0.14368 0.58498 0.0
H2211 H 0.77961 0.16555 0.56141 0.0
C2212 C 0.73053 0.09406 0.60895 0.0
C2213 C 0.73792 0.08379 0.61687 0.0
C2214 C 0.73956 0.10612 0.59482 0.0
C2215 C 0.75613 0.10813 0.58832 0.0
C2216 C 0.76346 0.09779 0.59622 0.0
C2217 C 0.75444 0.08573 0.61033 0.0
C2218 C 0.78387 0.12825 0.5457 0.0
C2219 C 0.78621 0.14638 0.54639 0.0
C2220 C 0.77382 0.11574 0.55909 0.0
C2221 C 0.76592 0.12109 0.57351 0.0
C2222 C 0.76786 0.13907 0.57393 0.0
C2223 C 0.7779 0.1516 0.56047 0.0
H2224 H 0.90796 0.63048 0.65725 0.0
H2225 H 0.90546 0.68159 0.65984 0.0
H2226 H 0.88743 0.61899 0.62829 0.0
H2227 H 0.8855 0.6704 0.6308 0.0
H2228 H 0.83931 0.64156 0.58563 0.0
H2229 H 0.8551 0.64778 0.61703 0.0
H2230 H 0.88878 0.6259 0.59559 0.0
H2231 H 0.87268 0.61934 0.56435 0.0
C2232 C 0.90302 0.63925 0.65169 0.0
C2233 C 0.90842 0.65699 0.66087 0.0
C2234 C 0.89131 0.63269 0.63504 0.0
C2235 C 0.88477 0.64374 0.62719 0.0
C2236 C 0.88996 0.66133 0.63658 0.0
C2237 C 0.90157 0.66784 0.65321 0.0
C2238 C 0.84993 0.63788 0.58774 0.0
C2239 C 0.85484 0.63006 0.57255 0.0
C2240 C 0.85904 0.64151 0.60568 0.0
C2241 C 0.8734 0.63758 0.6088 0.0
C2242 C 0.87768 0.62893 0.59378 0.0
C2243 C 0.86846 0.62517 0.57586 0.0
H2244 H 0.948 0.7043 0.76784 0.0
H2245 H 0.9013 0.64691 0.76043 0.0
H2246 H 0.93549 0.70969 0.79663 0.0
H2247 H 0.88873 0.65236 0.78894 0.0
H2248 H 0.882 0.66174 0.85105 0.0
H2249 H 0.89618 0.65756 0.82318 0.0
H2250 H 0.90873 0.71227 0.80663 0.0
H2251 H 0.89443 0.71643 0.83452 0.0
C2252 C 0.93506 0.69286 0.77232 0.0
C2253 C 0.92567 0.67517 0.76188 0.0
C2254 C 0.92785 0.69598 0.78875 0.0
C2255 C 0.91117 0.68142 0.79512 0.0
C2256 C 0.90177 0.66378 0.7846 0.0
C2257 C 0.90892 0.66069 0.76817 0.0
C2258 C 0.88771 0.67285 0.84143 0.0
C2259 C 0.88694 0.68935 0.84494 0.0
C2260 C 0.89584 0.67045 0.82546 0.0
C2261 C 0.90345 0.68452 0.81261 0.0
C2262 C 0.90315 0.70125 0.81635 0.0
C2263 C 0.89496 0.70364 0.83234 0.0
H2264 H 0.34519 0.26393 0.76273 0.0
H2265 H 0.29011 0.25641 0.76375 0.0
H2266 H 0.33677 0.23978 0.78491 0.0
H2267 H 0.28162 0.23198 0.78603 0.0
H2268 H 0.28477 0.20543 0.84255 0.0
H2269 H 0.28997 0.22841 0.81946 0.0
H2270 H 0.31561 0.20513 0.78407 0.0
H2271 H 0.31034 0.18218 0.80698 0.0
C2272 C 0.33127 0.25714 0.76771 0.0
C2273 C 0.31829 0.26203 0.76142 0.0
C2274 C 0.32641 0.24319 0.78033 0.0
C2275 C 0.30846 0.23383 0.78702 0.0
C2276 C 0.29557 0.23899 0.78111 0.0
C2277 C 0.30041 0.25293 0.76835 0.0
C2278 C 0.29119 0.205 0.82966 0.0
C2279 C 0.29736 0.19215 0.82668 0.0
C2280 C 0.29419 0.21817 0.81647 0.0
C2281 C 0.30345 0.21873 0.80011 0.0
C2282 C 0.30881 0.2053 0.79675 0.0
C2283 C 0.30579 0.19216 0.80986 0.0
H2284 H 0.74924 0.05066 0.71467 0.0
H2285 H 0.76226 0.10868 0.71773 0.0
H2286 H 0.76793 0.05731 0.74452 0.0
H2287 H 0.78074 0.11512 0.74731 0.0
H2288 H 0.78562 0.10988 0.81086 0.0
H2289 H 0.77003 0.10287 0.77951 0.0
H2290 H 0.8021 0.07843 0.76011 0.0
H2291 H 0.81836 0.086 0.79166 0.0
C2292 C 0.75622 0.06484 0.72155 0.0
C2293 C 0.75405 0.07907 0.71391 0.0
C2294 C 0.76697 0.06864 0.73857 0.0
C2295 C 0.77557 0.08666 0.74827 0.0
C2296 C 0.77403 0.10103 0.74023 0.0
C2297 C 0.76346 0.09731 0.72324 0.0
C2298 C 0.78967 0.10332 0.7999 0.0
C2299 C 0.80356 0.09888 0.80371 0.0
C2300 C 0.78063 0.09922 0.78195 0.0
C2301 C 0.78505 0.09035 0.76735 0.0
C2302 C 0.79848 0.0853 0.77116 0.0
C2303 C 0.80773 0.0896 0.78919 0.0
H2304 H 0.06923 0.36663 0.04314 0.0
H2305 H 0.0213 0.31155 0.0495 0.0
H2306 H 0.08926 0.35738 0.05927 0.0
H2307 H 0.04129 0.30205 0.06496 0.0
H2308 H 0.07853 0.29972 0.11237 0.0
H2309 H 0.05846 0.30771 0.09431 0.0
H2310 H 0.10262 0.33797 0.05718 0.0
H2311 H 0.12273 0.33036 0.07559 0.0
C2312 C 0.06303 0.35245 0.0477 0.0
C2313 C 0.04368 0.33988 0.04515 0.0
C2314 C 0.0745 0.34709 0.0569 0.0
C2315 C 0.0669 0.32898 0.06359 0.0
C2316 C 0.04761 0.31623 0.06041 0.0
C2317 C 0.03615 0.32164 0.05139 0.0
C2318 C 0.08384 0.30795 0.10026 0.0
C2319 C 0.10221 0.31455 0.09548 0.0
C2320 C 0.07235 0.3125 0.08984 0.0
C2321 C 0.07892 0.32358 0.07428 0.0
C2322 C 0.09719 0.32976 0.06928 0.0
C2323 C 0.10871 0.32535 0.07979 0.0
H2324 H 0.60887 0.67586 0.09809 0.0
H2325 H 0.66127 0.67724 0.09737 0.0
H2326 H 0.62465 0.70694 0.11535 0.0
H2327 H 0.67694 0.70812 0.115 0.0
H2328 H 0.7004 0.7728 0.12181 0.0
H2329 H 0.68573 0.74009 0.10863 0.0
H2330 H 0.64055 0.72419 0.14528 0.0
H2331 H 0.65517 0.75696 0.1583 0.0
C2332 C 0.6237 0.68267 0.10183 0.0
C2333 C 0.63381 0.67411 0.09622 0.0
C2334 C 0.63274 0.70045 0.11183 0.0
C2335 C 0.65208 0.71005 0.11649 0.0
C2336 C 0.66208 0.70123 0.11138 0.0
C2337 C 0.65306 0.68348 0.10135 0.0
C2338 C 0.68752 0.76224 0.12729 0.0
C2339 C 0.67884 0.76744 0.14095 0.0
C2340 C 0.6791 0.74349 0.11975 0.0
C2341 C 0.66187 0.72955 0.12579 0.0
C2342 C 0.65362 0.73465 0.14006 0.0
C2343 C 0.66201 0.75339 0.14754 0.0
H2344 H 0.31918 0.92249 0.03482 0.0
H2345 H 0.32665 0.97843 0.03677 0.0
H2346 H 0.29011 0.91107 0.05047 0.0
H2347 H 0.29758 0.96694 0.05201 0.0
H2348 H 0.2595 0.9449 0.10157 0.0
H2349 H 0.2867 0.95644 0.08297 0.0
H2350 H 0.25816 0.90503 0.04599 0.0
H2351 H 0.2309 0.89347 0.06465 0.0
C2352 C 0.31455 0.93229 0.0384 0.0
C2353 C 0.32532 0.95139 0.03469 0.0
C2354 C 0.29786 0.92574 0.04727 0.0
C2355 C 0.29163 0.93815 0.05256 0.0
C2356 C 0.30216 0.95711 0.04839 0.0
C2357 C 0.31881 0.96366 0.03958 0.0
C2358 C 0.25889 0.93623 0.08925 0.0
C2359 C 0.2431 0.91827 0.08459 0.0
C2360 C 0.27449 0.94281 0.07861 0.0
C2361 C 0.2746 0.93158 0.06307 0.0
C2362 C 0.25859 0.91385 0.05808 0.0
C2363 C 0.24299 0.90728 0.06872 0.0
H2364 H 0.3896 0.06644 0.01144 0.0
H2365 H 0.3348 0.01755 0.99724 0.0
H2366 H 0.37784 0.08705 0.00282 0.0
H2367 H 0.32319 0.03799 0.98857 0.0
H2368 H 0.30388 0.07958 0.98519 0.0
H2369 H 0.31655 0.06242 0.00086 0.0
H2370 H 0.36716 0.09263 0.97191 0.0
H2371 H 0.35451 0.10951 0.9561 0.0
C2372 C 0.37503 0.06013 0.00669 0.0
C2373 C 0.36317 0.0404 0.00483 0.0
C2374 C 0.36833 0.0719 0.00172 0.0
C2375 C 0.34961 0.06412 0.995 0.0
C2376 C 0.33762 0.04443 0.99391 0.0
C2377 C 0.34433 0.03271 -0.00129 0.0
C2378 C 0.31774 0.08261 0.98226 0.0
C2379 C 0.32814 0.09586 0.96934 0.0
C2380 C 0.32502 0.07285 0.99127 0.0
C2381 C 0.34284 0.07618 0.98759 0.0
C2382 C 0.35352 0.08998 0.97528 0.0
C2383 C 0.34623 0.09966 0.96622 0.0
H2384 H 0.97921 0.29881 0.99011 0.0
H2385 H 0.92626 0.29583 0.9942 0.0
H2386 H 0.96305 0.26663 0.97488 0.0
H2387 H 0.91032 0.264 0.97889 0.0
H2388 H 0.88497 0.20146 0.97138 0.0
H2389 H 0.90399 0.23288 0.98751 0.0
H2390 H 0.94402 0.24796 0.94492 0.0
H2391 H 0.92487 0.2162 0.92877 0.0
C2392 C 0.96417 0.29136 0.98769 0.0
C2393 C 0.95401 0.29986 0.99349 0.0
C2394 C 0.95495 0.27297 0.97892 0.0
C2395 C 0.93542 0.26273 0.97591 0.0
C2396 C 0.92536 0.27139 0.98137 0.0
C2397 C 0.93453 0.28971 0.99005 0.0
C2398 C 0.89792 0.21145 0.96556 0.0
C2399 C 0.90334 0.20656 0.9487 0.0
C2400 C 0.90877 0.22944 0.97474 0.0
C2401 C 0.92529 0.243 0.96726 0.0
C2402 C 0.93133 0.23779 0.951 0.0
C2403 C 0.92043 0.21966 0.94178 0.0
H2404 H 0.69163 0.67599 0.0374 0.0
H2405 H 0.68929 0.62261 0.03969 0.0
H2406 H 0.72166 0.6894 0.02357 0.0
H2407 H 0.71917 0.6359 0.02537 0.0
H2408 H 0.7795 0.66888 0.01086 0.0
H2409 H 0.75238 0.65854 0.02955 0.0
H2410 H 0.73227 0.68587 0.99335 0.0
H2411 H 0.7594 0.69629 0.97485 0.0
C2412 C 0.69758 0.66714 0.03503 0.0
C2413 C 0.68802 0.64819 0.03951 0.0
C2414 C 0.71476 0.67481 0.02701 0.0
C2415 C 0.72276 0.66369 0.02318 0.0
C2416 C 0.71351 0.64492 0.0283 0.0
C2417 C 0.69633 0.63726 0.03642 0.0
C2418 C 0.76932 0.67276 0.007 0.0
C2419 C 0.77156 0.68336 0.99136 0.0
C2420 C 0.75377 0.6668 0.01767 0.0
C2421 C 0.74009 0.67128 0.01291 0.0
C2422 C 0.74266 0.68239 0.99761 0.0
C2423 C 0.75822 0.68839 0.98699 0.0
H2424 H 0.92413 0.61105 0.00283 0.0
H2425 H 0.96825 0.66738 0.02282 0.0
H2426 H 0.91024 0.62454 0.9828 0.0
H2427 H 0.95432 0.68076 0.00285 0.0
H2428 H 0.90873 0.69402 0.98287 0.0
H2429 H 0.92456 0.68182 0.0017 0.0
H2430 H 0.91855 0.64398 0.95404 0.0
H2431 H 0.90317 0.65657 0.93488 0.0
C2432 C 0.93084 0.62628 0.00299 0.0
C2433 C 0.94728 0.63813 0.01444 0.0
C2434 C 0.92296 0.63399 0.99142 0.0
C2435 C 0.93125 0.65369 0.99125 0.0
C2436 C 0.94759 0.66553 0.00279 0.0
C2437 C 0.95558 0.65784 0.01417 0.0
C2438 C 0.91118 0.68345 0.9762 0.0
C2439 C 0.90469 0.67632 0.95731 0.0
C2440 C 0.92015 0.67638 0.98706 0.0
C2441 C 0.92266 0.66187 0.97936 0.0
C2442 C 0.91654 0.65498 0.9604 0.0
C2443 C 0.90775 0.6622 0.94945 0.0
H2444 H 0.36533 0.31368 0.98998 0.0
H2445 H 0.33315 0.32466 0.94914 0.0
H2446 H 0.35057 0.28106 0.97616 0.0
H2447 H 0.31852 0.29214 0.93536 0.0
H2448 H 0.31784 0.24079 0.90301 0.0
H2449 H 0.32988 0.27288 0.9173 0.0
H2450 H 0.31792 0.25143 0.97255 0.0
H2451 H 0.3059 0.21934 0.95824 0.0
C2452 C 0.35513 0.30913 0.97807 0.0
C2453 C 0.35042 0.32171 0.97061 0.0
C2454 C 0.3466 0.29046 0.97027 0.0
C2455 C 0.3334 0.28413 0.95474 0.0
C2456 C 0.32873 0.29672 0.94726 0.0
C2457 C 0.33708 0.31529 0.95519 0.0
C2458 C 0.31759 0.24296 0.91817 0.0
C2459 C 0.31093 0.22767 0.92955 0.0
C2460 C 0.32441 0.26126 0.92632 0.0
C2461 C 0.32491 0.26459 0.94602 0.0
C2462 C 0.31782 0.24923 0.95735 0.0
C2463 C 0.31078 0.23089 0.94916 0.0
H2464 H 0.69065 0.03119 0.03161 0.0
H2465 H 0.68227 0.07545 0.01278 0.0
H2466 H 0.71734 0.04173 0.01224 0.0
H2467 H 0.70888 0.08579 0.99312 0.0
H2468 H 0.7367 0.07517 0.94115 0.0
H2469 H 0.71281 0.06789 0.96343 0.0
H2470 H 0.75044 0.07167 0.0089 0.0
H2471 H 0.77484 0.0799 0.98683 0.0
C2472 C 0.69465 0.04331 0.0235 0.0
C2473 C 0.68434 0.05246 0.02363 0.0
C2474 C 0.70996 0.04936 0.01248 0.0
C2475 C 0.71504 0.06446 0.00113 0.0
C2476 C 0.70512 0.07401 0.00169 0.0
C2477 C 0.69 0.06818 0.013 0.0
C2478 C 0.74007 0.07476 0.95593 0.0
C2479 C 0.75782 0.07828 0.96216 0.0
C2480 C 0.72634 0.07056 0.96866 0.0
C2481 C 0.72989 0.06943 0.98787 0.0
C2482 C 0.74739 0.07246 0.99412 0.0
C2483 C 0.76128 0.077 0.98143 0.0
H2484 H 0.67497 0.98905 0.08068 0.0
H2485 H 0.63093 0.94068 0.04682 0.0
H2486 H 0.68749 0.97 0.09113 0.0
H2487 H 0.64387 0.92153 0.05696 0.0
H2488 H 0.65737 0.89062 0.10259 0.0
H2489 H 0.6462 0.90818 0.08558 0.0
H2490 H 0.70309 0.95358 0.08212 0.0
H2491 H 0.7142 0.93639 0.10005 0.0
C2492 C 0.66806 0.97436 0.07527 0.0
C2493 C 0.65185 0.96634 0.06303 0.0
C2494 C 0.67539 0.96345 0.08112 0.0
C2495 C 0.66675 0.94423 0.07484 0.0
C2496 C 0.65076 0.93627 0.0622 0.0
C2497 C 0.64337 0.94723 0.05635 0.0
C2498 C 0.6675 0.90433 0.09814 0.0
C2499 C 0.68665 0.91228 0.10302 0.0
C2500 C 0.6611 0.9143 0.08815 0.0
C2501 C 0.67372 0.93242 0.08269 0.0
C2502 C 0.69296 0.93981 0.08645 0.0
C2503 C 0.69936 0.92987 0.09654 0.0
H2504 H 0.01255 0.70534 0.07318 0.0
H2505 H 0.05787 0.69442 0.07711 0.0
H2506 H 0.0332 0.73729 0.08822 0.0
H2507 H 0.07828 0.72616 0.09251 0.0
H2508 H 0.0974 0.77294 0.142 0.0
H2509 H 0.07584 0.74194 0.12598 0.0
H2510 H 0.06593 0.76832 0.0797 0.0
H2511 H 0.0883 0.7995 0.09511 0.0
C2512 C 0.02692 0.7098 0.07719 0.0
C2513 C 0.03363 0.69742 0.07401 0.0
C2514 C 0.03869 0.72804 0.08573 0.0
C2515 C 0.05721 0.73402 0.09159 0.0
C2516 C 0.06398 0.72175 0.08822 0.0
C2517 C 0.05235 0.70368 0.07933 0.0
C2518 C 0.09079 0.77222 0.12834 0.0
C2519 C 0.09483 0.7888 0.11976 0.0
C2520 C 0.07838 0.75446 0.11925 0.0
C2521 C 0.06943 0.75285 0.10159 0.0
C2522 C 0.07268 0.76927 0.09336 0.0
C2523 C 0.08538 0.7871 0.10228 0.0
H2524 H 0.31476 0.34958 0.01311 0.0
H2525 H 0.32867 0.40346 0.04095 0.0
H2526 H 0.28726 0.33373 0.03133 0.0
H2527 H 0.30121 0.38749 0.05929 0.0
H2528 H 0.26829 0.34775 0.10562 0.0
H2529 H 0.29374 0.36361 0.08504 0.0
H2530 H 0.25596 0.33295 0.03611 0.0
H2531 H 0.23016 0.31752 0.05662 0.0
C2532 C 0.31184 0.35805 0.02298 0.0
C2533 C 0.32391 0.37775 0.02571 0.0
C2534 C 0.29608 0.34898 0.03332 0.0
C2535 C 0.29227 0.35941 0.04676 0.0
C2536 C 0.304 0.37915 0.0491 0.0
C2537 C 0.31961 0.38828 0.03854 0.0
C2538 C 0.26531 0.3445 0.09047 0.0
C2539 C 0.24713 0.33149 0.08277 0.0
C2540 C 0.27989 0.35358 0.07872 0.0
C2541 C 0.2767 0.34963 0.05904 0.0
C2542 C 0.25872 0.3362 0.05129 0.0
C2543 C 0.24402 0.32729 0.06304 0.0
H2544 H 0.68568 0.64934 0.38577 0.0
H2545 H 0.73351 0.70418 0.37816 0.0
H2546 H 0.70575 0.64077 0.40284 0.0
H2547 H 0.75363 0.69553 0.39525 0.0
H2548 H 0.77759 0.6812 0.44719 0.0
H2549 H 0.75781 0.68922 0.42876 0.0
H2550 H 0.7316 0.63452 0.39752 0.0
H2551 H 0.75166 0.62658 0.41566 0.0
C2552 C 0.70051 0.65951 0.38761 0.0
C2553 C 0.70801 0.67746 0.38066 0.0
C2554 C 0.71201 0.65456 0.39732 0.0
C2555 C 0.73123 0.6675 0.40046 0.0
C2556 C 0.73881 0.68534 0.39323 0.0
C2557 C 0.72732 0.69025 0.38334 0.0
C2558 C 0.76772 0.67092 0.43629 0.0
C2559 C 0.76627 0.65325 0.43289 0.0
C2560 C 0.75641 0.67554 0.42573 0.0
C2561 C 0.74326 0.66255 0.41162 0.0
C2562 C 0.74153 0.64476 0.40841 0.0
C2563 C 0.75295 0.64018 0.41889 0.0
H2564 H 0.32982 0.01178 0.42703 0.0
H2565 H 0.27729 0.00998 0.42937 0.0
H2566 H 0.3462 0.04448 0.44089 0.0
H2567 H 0.29365 0.04245 0.44322 0.0
H2568 H 0.32969 0.10596 0.44224 0.0
H2569 H 0.31546 0.07314 0.42992 0.0
H2570 H 0.34935 0.06476 0.47099 0.0
H2571 H 0.36357 0.09783 0.4836 0.0
C2572 C 0.32174 0.01826 0.43067 0.0
C2573 C 0.30224 0.00831 0.42692 0.0
C2574 C 0.33114 0.03695 0.43865 0.0
C2575 C 0.32121 0.04605 0.44288 0.0
C2576 C 0.30169 0.03588 0.43978 0.0
C2577 C 0.29231 0.01723 0.43194 0.0
C2578 C 0.3341 0.09713 0.4487 0.0
C2579 C 0.34752 0.10438 0.4641 0.0
C2580 C 0.32593 0.07834 0.44165 0.0
C2581 C 0.33105 0.06632 0.44973 0.0
C2582 C 0.34514 0.07373 0.46453 0.0
C2583 C 0.3533 0.09263 0.47169 0.0
H2584 H 0.00326 0.30864 0.37435 0.0
H2585 H 0.9958 0.25272 0.37269 0.0
H2586 H 0.97352 0.29684 0.38861 0.0
H2587 H 0.96596 0.24092 0.38661 0.0
H2588 H 0.9269 0.23265 0.43309 0.0
H2589 H 0.95592 0.24489 0.41758 0.0
H2590 H 0.93947 0.27551 0.38184 0.0
H2591 H 0.9102 0.26317 0.39752 0.0
C2592 C 0.99524 0.29381 0.37691 0.0
C2593 C 0.00197 0.28164 0.37251 0.0
C2594 C 0.97814 0.28705 0.38496 0.0
C2595 C 0.96747 0.268 0.38881 0.0
C2596 C 0.97403 0.25576 0.38407 0.0
C2597 C 0.99109 0.2625 0.37603 0.0
C2598 C 0.92937 0.24184 0.42178 0.0
C2599 C 0.91618 0.24674 0.4163 0.0
C2600 C 0.94599 0.24884 0.4129 0.0
C2601 C 0.94986 0.26095 0.39834 0.0
C2602 C 0.93687 0.26624 0.39309 0.0
C2603 C 0.92015 0.2592 0.40203 0.0
H2604 H 0.02325 0.34788 0.30886 0.0
H2605 H 0.06618 0.39349 0.34646 0.0
H2606 H 0.01531 0.36968 0.29565 0.0
H2607 H 0.05803 0.41543 0.33312 0.0
H2608 H 0.02052 0.44091 0.31498 0.0
H2609 H 0.02912 0.4202 0.33049 0.0
H2610 H 0.03332 0.39775 0.27575 0.0
H2611 H 0.02473 0.41824 0.26035 0.0
C2612 C 0.03095 0.36256 0.31438 0.0
C2613 C 0.04543 0.36901 0.32863 0.0
C2614 C 0.02642 0.37504 0.30675 0.0
C2615 C 0.03615 0.39421 0.3133 0.0
C2616 C 0.0503 0.40066 0.3279 0.0
C2617 C 0.055 0.38816 0.33544 0.0
C2618 C 0.0233 0.43152 0.30635 0.0
C2619 C 0.02201 0.43114 0.28651 0.0
C2620 C 0.02833 0.41983 0.31519 0.0
C2621 C 0.03181 0.40739 0.30428 0.0
C2622 C 0.03057 0.40712 0.28447 0.0
C2623 C 0.0258 0.41892 0.27568 0.0
H2624 H 0.59265 0.63285 0.32207 0.0
H2625 H 0.64551 0.63514 0.32154 0.0
H2626 H 0.57685 0.60049 0.30815 0.0
H2627 H 0.62944 0.60244 0.30751 0.0
H2628 H 0.59026 0.5504 0.26194 0.0
H2629 H 0.60996 0.58268 0.27684 0.0
H2630 H 0.57099 0.56989 0.32016 0.0
H2631 H 0.5515 0.5379 0.30542 0.0
C2632 C 0.60094 0.6265 0.31893 0.0
C2633 C 0.62035 0.63658 0.32305 0.0
C2634 C 0.59184 0.60789 0.31105 0.0
C2635 C 0.6019 0.59889 0.307 0.0
C2636 C 0.62138 0.60907 0.31053 0.0
C2637 C 0.63052 0.62774 0.31859 0.0
C2638 C 0.5862 0.55444 0.27488 0.0
C2639 C 0.56924 0.54183 0.28238 0.0
C2640 C 0.59741 0.57286 0.28336 0.0
C2641 C 0.59176 0.57884 0.29941 0.0
C2642 C 0.57544 0.56578 0.30755 0.0
C2643 C 0.56433 0.54748 0.29914 0.0
H2644 H 0.35723 0.99745 0.36715 0.0
H2645 H 0.34774 0.94192 0.37624 0.0
H2646 H 0.38552 0.00499 0.35162 0.0
H2647 H 0.37624 0.94958 0.36084 0.0
H2648 H 0.41071 0.96167 0.30777 0.0
H2649 H 0.38523 0.95447 0.32787 0.0
H2650 H 0.41732 0.01038 0.35652 0.0
H2651 H 0.44302 0.01757 0.33651 0.0
C2652 C 0.36133 0.98694 0.36607 0.0
C2653 C 0.35018 0.96903 0.3728 0.0
C2654 C 0.37761 0.99131 0.35726 0.0
C2655 C 0.38306 0.97784 0.35492 0.0
C2656 C 0.37226 0.96016 0.36224 0.0
C2657 C 0.35601 0.95582 0.37115 0.0
C2658 C 0.41252 0.97233 0.31859 0.0
C2659 C 0.42893 0.99021 0.32051 0.0
C2660 C 0.39789 0.96818 0.33012 0.0
C2661 C 0.39926 0.98185 0.34379 0.0
C2662 C 0.41578 -0.00037 0.34596 0.0
C2663 C 0.43047 0.00376 0.33447 0.0
H2664 H 0.59613 0.93454 0.32832 0.0
H2665 H 0.63637 0.99156 0.35071 0.0
H2666 H 0.58099 0.94672 0.30824 0.0
H2667 H 0.62112 0.00365 0.33065 0.0
H2668 H 0.57112 0.01099 0.31115 0.0
H2669 H 0.58942 0.00111 0.32935 0.0
H2670 H 0.58845 0.96731 0.28032 0.0
H2671 H 0.57061 0.97767 0.26178 0.0
C2672 C 0.60175 0.94965 0.32896 0.0
C2673 C 0.61741 0.96207 0.34116 0.0
C2674 C 0.59317 0.95662 0.31735 0.0
C2675 C 0.59993 0.97612 0.31788 0.0
C2676 C 0.61559 0.98855 0.33005 0.0
C2677 C 0.62432 0.98161 0.34147 0.0
C2678 C 0.57521 0.00188 0.30403 0.0
C2679 C 0.56937 0.99515 0.28495 0.0
C2680 C 0.58562 0.99613 0.31453 0.0
C2681 C 0.59023 0.98336 0.30626 0.0
C2682 C 0.58485 0.97698 0.28709 0.0
C2683 C 0.57462 0.9829 0.27651 0.0
H2684 H 0.05887 0.66834 0.31833 0.0
H2685 H 0.00368 0.65628 0.30042 0.0
H2686 H 0.05143 0.63762 0.30401 0.0
H2687 H 0.99595 0.62525 0.28673 0.0
H2688 H 0.99498 0.57883 0.24764 0.0
H2689 H 0.00233 0.60987 0.26122 0.0
H2690 H 0.03304 0.60495 0.30868 0.0
H2691 H 0.02613 0.57427 0.29475 0.0
C2692 C 0.04511 0.65906 0.31144 0.0
C2693 C 0.03186 0.6647 0.3105 0.0
C2694 C 0.04078 0.6414 0.30333 0.0
C2695 C 0.02305 0.6289 0.29429 0.0
C2696 C 0.00982 0.6346 0.29334 0.0
C2697 C 0.01422 0.65235 0.30128 0.0
C2698 C 0.00322 0.58442 0.26102 0.0
C2699 C 0.01009 0.57428 0.27012 0.0
C2700 C 0.0074 0.60215 0.26883 0.0
C2701 C 0.01836 0.60996 0.28601 0.0
C2702 C 0.02492 0.59957 0.29523 0.0
C2703 C 0.0209 0.58197 0.28732 0.0
H2704 H 0.34837 0.36177 0.35964 0.0
H2705 H 0.34044 0.40601 0.33983 0.0
H2706 H 0.37553 0.37234 0.34096 0.0
H2707 H 0.36754 0.41641 0.32097 0.0
H2708 H 0.39926 0.40937 0.27145 0.0
H2709 H 0.37367 0.40026 0.29195 0.0
H2710 H 0.40853 0.40207 0.33924 0.0
H2711 H 0.43455 0.41201 0.31897 0.0
C2712 C 0.35249 0.37382 0.35139 0.0
C2713 C 0.34223 0.38303 0.35114 0.0
C2714 C 0.36808 0.37989 0.34078 0.0
C2715 C 0.37353 0.3951 0.32947 0.0
C2716 C 0.3635 0.40453 0.32947 0.0
C2717 C 0.34808 0.39866 0.34033 0.0
C2718 C 0.40162 0.40808 0.28626 0.0
C2719 C 0.41908 0.41161 0.29356 0.0
C2720 C 0.38692 0.40283 0.29797 0.0
C2721 C 0.38921 0.40065 0.31718 0.0
C2722 C 0.40643 0.40362 0.32444 0.0
C2723 C 0.42126 0.40917 0.31278 0.0
H2724 H 0.28269 0.27378 0.39808 0.0
H2725 H 0.33876 0.32209 0.40089 0.0
H2726 H 0.29468 0.25493 0.41142 0.0
H2727 H 0.35068 0.30321 0.41402 0.0
H2728 H 0.36544 0.25685 0.42213 0.0
H2729 H 0.35333 0.27394 0.40532 0.0
H2730 H 0.3101 0.25755 0.4444 0.0
H2731 H 0.32249 0.24119 0.46166 0.0
C2732 C 0.29757 0.28028 0.40131 0.0
C2733 C 0.30977 0.29942 0.39858 0.0
C2734 C 0.3044 0.26954 0.409 0.0
C2735 C 0.32359 0.27767 0.41379 0.0
C2736 C 0.33585 0.29658 0.41034 0.0
C2737 C 0.329 0.30739 0.40293 0.0
C2738 C 0.35346 0.25702 0.42726 0.0
C2739 C 0.34492 0.24753 0.44323 0.0
C2740 C 0.34648 0.2667 0.41755 0.0
C2741 C 0.33068 0.26687 0.42347 0.0
C2742 C 0.32208 0.25732 0.43931 0.0
C2743 C 0.32918 0.2479 0.44916 0.0
H2744 H 0.72311 0.03114 0.38581 0.0
H2745 H 0.6812 0.02243 0.42473 0.0
H2746 H 0.7425 0.06389 0.39908 0.0
H2747 H 0.70071 0.05511 0.43807 0.0
H2748 H 0.75501 0.10488 0.47139 0.0
H2749 H 0.73263 0.07314 0.45705 0.0
H2750 H 0.74126 0.09462 0.40174 0.0
H2751 H 0.76359 0.12642 0.41614 0.0
C2752 C 0.71803 0.03623 0.39715 0.0
C2753 C 0.70067 0.02421 0.40428 0.0
C2754 C 0.72906 0.05499 0.40464 0.0
C2755 C 0.72306 0.06199 0.41957 0.0
C2756 C 0.70567 0.05002 0.42662 0.0
C2757 C 0.69451 0.03135 0.41895 0.0
C2758 C 0.75189 0.10281 0.45621 0.0
C2759 C 0.76094 0.11802 0.44484 0.0
C2760 C 0.73907 0.08472 0.44802 0.0
C2761 C 0.73532 0.08147 0.4283 0.0
C2762 C 0.74403 0.09677 0.41697 0.0
C2763 C 0.75663 0.11494 0.4252 0.0
H2764 H 0.97909 0.72636 0.36333 0.0
H2765 H 0.99229 0.68233 0.36775 0.0
H2766 H 0.9499 0.70697 0.37826 0.0
H2767 H 0.96328 0.66319 0.3828 0.0
H2768 H 0.92611 0.65381 0.43474 0.0
H2769 H 0.95292 0.66903 0.41539 0.0
H2770 H 0.91857 0.67412 0.37203 0.0
H2771 H 0.89162 0.65858 0.39136 0.0
C2772 C 0.97572 0.71254 0.36736 0.0
C2773 C 0.98804 0.70593 0.36446 0.0
C2774 C 0.95898 0.70141 0.37577 0.0
C2775 C 0.95443 0.68364 0.38164 0.0
C2776 C 0.96655 0.67689 0.37844 0.0
C2777 C 0.98311 0.68785 0.3698 0.0
C2778 C 0.92427 0.65786 0.42091 0.0
C2779 C 0.90692 0.65502 0.41441 0.0
C2780 C 0.93953 0.66651 0.40985 0.0
C2781 C 0.93775 0.67277 0.39229 0.0
C2782 C 0.92026 0.66947 0.38557 0.0
C2783 C 0.90488 0.66049 0.3965 0.0
H2784 H 0.4029 0.04537 0.715 0.0
H2785 H 0.35678 0.98885 0.72031 0.0
H2786 H 0.42336 0.03842 0.73386 0.0
H2787 H 0.37728 0.98194 0.73915 0.0
H2788 H 0.42675 0.97287 0.75469 0.0
H2789 H 0.4055 0.97855 0.73562 0.0
H2790 H 0.42575 0.03194 0.76797 0.0
H2791 H 0.44664 0.02612 0.78739 0.0
C2792 C 0.39717 0.03142 0.72005 0.0
C2793 C 0.37823 0.01767 0.7162 0.0
C2794 C 0.40885 0.0275 0.73096 0.0
C2795 C 0.40186 0.00968 0.73807 0.0
C2796 C 0.38305 0.99576 0.73378 0.0
C2797 C 0.37132 -0.00025 0.72305 0.0
C2798 C 0.42642 0.98565 0.758 0.0
C2799 C 0.43848 -0.00094 0.77256 0.0
C2800 C 0.41432 0.98894 0.74699 0.0
C2801 C 0.41413 0.00578 0.75019 0.0
C2802 C 0.42587 0.019 0.76496 0.0
C2803 C 0.43783 0.01564 0.77608 0.0
H2804 H 0.993 0.34494 0.7479 0.0
H2805 H 0.93906 0.33271 0.76522 0.0
H2806 H 0.00778 0.37526 0.76684 0.0
H2807 H 0.95392 0.36294 0.78422 0.0
H2808 H 0.98921 0.41073 0.82976 0.0
H2809 H 0.97715 0.37952 0.81339 0.0
H2810 H 0.00622 0.40549 0.76431 0.0
H2811 H 0.01774 0.43667 0.78026 0.0
C2812 C 0.98432 0.34865 0.75585 0.0
C2813 C 0.96485 0.33648 0.75501 0.0
C2814 C 0.99278 0.366 0.76662 0.0
C2815 C 0.98198 0.37136 0.777 0.0
C2816 C 0.96258 0.35903 0.7765 0.0
C2817 C 0.95408 0.34182 0.76551 0.0
C2818 C 0.99306 0.40981 0.81548 0.0
C2819 C 0.00434 0.42625 0.8063 0.0
C2820 C 0.9862 0.39194 0.80616 0.0
C2821 C 0.9907 0.39015 0.78758 0.0
C2822 C 0.00269 0.4065 0.77871 0.0
C2823 C 0.00936 0.42437 0.78792 0.0
H2824 H 0.65994 0.59035 0.705 0.0
H2825 H 0.66745 0.6463 0.70659 0.0
H2826 H 0.63014 0.57869 0.7192 0.0
H2827 H 0.63763 0.63456 0.72042 0.0
H2828 H 0.59594 0.6107 0.76714 0.0
H2829 H 0.62447 0.62309 0.75053 0.0
H2830 H 0.59848 0.57275 0.71198 0.0
H2831 H 0.56991 0.56036 0.72863 0.0
C2832 C 0.65521 0.60013 0.70828 0.0
C2833 C 0.66611 0.61926 0.70475 0.0
C2834 C 0.63809 0.59343 0.71629 0.0
C2835 C 0.63156 0.60572 0.72091 0.0
C2836 C 0.64239 0.6248 0.71722 0.0
C2837 C 0.65947 0.63149 0.70923 0.0
C2838 C 0.59618 0.60249 0.75486 0.0
C2839 C 0.58073 0.58455 0.7492 0.0
C2840 C 0.61254 0.60954 0.74538 0.0
C2841 C 0.61376 0.5988 0.73006 0.0
C2842 C 0.59806 0.58118 0.72397 0.0
C2843 C 0.5817 0.57413 0.73344 0.0
H2844 H 0.67112 0.67854 0.66094 0.0
H2845 H 0.72446 0.73046 0.67026 0.0
H2846 H 0.65658 0.69621 0.65172 0.0
H2847 H 0.70989 0.74825 0.66041 0.0
H2848 H 0.67407 0.77549 0.65527 0.0
H2849 H 0.68766 0.75805 0.66856 0.0
H2850 H 0.65691 0.71275 0.62479 0.0
H2851 H 0.64332 0.73002 0.61172 0.0
C2852 C 0.67978 0.69377 0.66096 0.0
C2853 C 0.69899 0.70311 0.66612 0.0
C2854 C 0.67143 0.70389 0.65561 0.0
C2855 C 0.6821 0.72361 0.6551 0.0
C2856 C 0.70126 0.73307 0.66079 0.0
C2857 C 0.70963 0.7229 0.66631 0.0
C2858 C 0.67014 0.76173 0.64863 0.0
C2859 C 0.65751 0.75404 0.63256 0.0
C2860 C 0.67798 0.7518 0.65617 0.0
C2861 C 0.67335 0.73401 0.64776 0.0
C2862 C 0.6605 0.72625 0.63186 0.0
C2863 C 0.65266 0.73613 0.62438 0.0
H2864 H 0.31617 0.97295 0.65565 0.0
H2865 H 0.26739 0.97679 0.64244 0.0
H2866 H 0.30061 0.94127 0.63938 0.0
H2867 H 0.25183 0.94521 0.62668 0.0
H2868 H 0.2539 0.87656 0.63264 0.0
H2869 H 0.27466 0.90968 0.64438 0.0
H2870 H 0.25216 0.92709 0.59922 0.0
H2871 H 0.23115 0.89406 0.58797 0.0
C2872 C 0.30219 0.9671 0.6492 0.0
C2873 C 0.29301 0.9774 0.65039 0.0
C2874 C 0.29326 0.94893 0.63997 0.0
C2875 C 0.27501 0.94073 0.63168 0.0
C2876 C 0.26602 0.9512 0.63259 0.0
C2877 C 0.2749 0.9693 0.64179 0.0
C2878 C 0.25376 0.88757 0.62506 0.0
C2879 C 0.24084 0.88289 0.60961 0.0
C2880 C 0.26564 0.90651 0.63172 0.0
C2881 C 0.26481 0.921 0.62292 0.0
C2882 C 0.2528 0.91625 0.6066 0.0
C2883 C 0.24087 0.89739 0.60009 0.0
H2884 H 0.02322 0.33663 0.6978 0.0
H2885 H 0.02069 0.2833 0.7016 0.0
H2886 H 0.05377 0.34998 0.68513 0.0
H2887 H 0.05113 0.29653 0.68841 0.0
H2888 H 0.11266 0.33038 0.67696 0.0
H2889 H 0.08429 0.31925 0.69382 0.0
H2890 H 0.06567 0.34652 0.65579 0.0
H2891 H 0.09398 0.3577 0.63912 0.0
C2892 C 0.02922 0.32776 0.69598 0.0
C2893 C 0.01948 0.30886 0.70058 0.0
C2894 C 0.0467 0.33539 0.68861 0.0
C2895 C 0.05484 0.32429 0.68556 0.0
C2896 C 0.04536 0.30554 0.69074 0.0
C2897 C 0.02786 0.29791 0.69821 0.0
C2898 C 0.10251 0.33404 0.67228 0.0
C2899 C 0.10557 0.34495 0.65673 0.0
C2900 C 0.08625 0.32763 0.6819 0.0
C2901 C 0.07268 0.33196 0.67615 0.0
C2902 C 0.07596 0.34319 0.66083 0.0
C2903 C 0.09221 0.34962 0.65126 0.0
H2904 H 0.31328 0.32703 0.67064 0.0
H2905 H 0.25802 0.28762 0.68711 0.0
H2906 H 0.30055 0.34283 0.65237 0.0
H2907 H 0.24549 0.30378 0.66925 0.0
H2908 H 0.23732 0.35357 0.65448 0.0
H2909 H 0.25246 0.3401 0.67281 0.0
H2910 H 0.27414 0.33008 0.62197 0.0
H2911 H 0.25858 0.34317 0.6035 0.0
C2912 C 0.29845 0.32181 0.67042 0.0
C2913 C 0.28662 0.30609 0.68028 0.0
C2914 C 0.29121 0.33081 0.65995 0.0
C2915 C 0.27211 0.32452 0.65955 0.0
C2916 C 0.2603 0.30892 0.66949 0.0
C2917 C 0.26745 0.29965 0.67959 0.0
C2918 C 0.24562 0.34881 0.64731 0.0
C2919 C 0.24696 0.34948 0.62765 0.0
C2920 C 0.25412 0.341 0.65774 0.0
C2921 C 0.26437 0.33406 0.64873 0.0
C2922 C 0.26636 0.33544 0.62919 0.0
C2923 C 0.25751 0.34289 0.61867 0.0
H2924 H 0.69955 0.98101 0.659 0.0
H2925 H 0.66672 0.99065 0.61767 0.0
H2926 H 0.68515 0.94824 0.64579 0.0
H2927 H 0.65249 0.95796 0.60444 0.0
H2928 H 0.65438 0.9075 0.57279 0.0
H2929 H 0.66526 0.93943 0.58685 0.0
H2930 H 0.65252 0.91798 0.64204 0.0
H2931 H 0.64158 0.88601 0.62793 0.0
C2932 C 0.68924 0.97612 0.64715 0.0
C2933 C 0.6843 0.98839 0.63933 0.0
C2934 C 0.68093 0.95736 0.63969 0.0
C2935 C 0.66772 0.95063 0.62412 0.0
C2936 C 0.66271 0.96286 0.61638 0.0
C2937 C 0.67082 0.98152 0.624 0.0
C2938 C 0.65371 0.90963 0.58788 0.0
C2939 C 0.64714 0.89439 0.5993 0.0
C2940 C 0.65985 0.92783 0.5959 0.0
C2941 C 0.65979 0.93112 0.61552 0.0
C2942 C 0.65282 0.9158 0.62689 0.0
C2943 C 0.64642 0.89754 0.61882 0.0
H2944 H 0.00889 0.68902 0.6933 0.0
H2945 H 0.00436 0.73658 0.67791 0.0
H2946 H 0.03848 0.70194 0.67865 0.0
H2947 H 0.03356 0.74913 0.66257 0.0
H2948 H 0.09381 0.77602 0.64995 0.0
H2949 H 0.06616 0.7636 0.668 0.0
H2950 H 0.05094 0.70665 0.64861 0.0
H2951 H 0.07906 0.71923 0.63116 0.0
C2952 C 0.01417 0.7022 0.68671 0.0
C2953 C 0.00426 0.71177 0.68676 0.0
C2954 C 0.03111 0.70957 0.6782 0.0
C2955 C 0.03846 0.72658 0.66935 0.0
C2956 C 0.02855 0.73618 0.66952 0.0
C2957 C 0.01171 0.72892 0.67822 0.0
C2958 C 0.08459 0.76084 0.64972 0.0
C2959 C 0.08848 0.74856 0.63914 0.0
C2960 C 0.06868 0.75371 0.65994 0.0
C2961 C 0.05614 0.7341 0.65962 0.0
C2962 C 0.06036 0.72181 0.6494 0.0
C2963 C 0.07643 0.72897 0.63936 0.0
H2964 H 0.93921 0.59794 0.72063 0.0
H2965 H 0.99409 0.64549 0.73781 0.0
H2966 H 0.94894 0.57639 0.73146 0.0
H2967 H 0.00372 0.62403 0.74864 0.0
H2968 H 0.01981 0.57941 0.75266 0.0
H2969 H 0.00961 0.5986 0.73696 0.0
H2970 H 0.95727 0.56987 0.76327 0.0
H2971 H 0.96751 0.55103 0.77924 0.0
C2972 C 0.95336 0.60377 0.72658 0.0
C2973 C 0.96585 0.6234 0.72848 0.0
C2974 C 0.95891 0.59145 0.73282 0.0
C2975 C 0.97709 0.59853 0.74089 0.0
C2976 C 0.98969 0.61813 0.74228 0.0
C2977 C 0.98411 0.63043 0.73621 0.0
C2978 C 0.00612 0.57717 0.75507 0.0
C2979 C 0.99452 0.56369 0.76726 0.0
C2980 C 0.00027 0.58812 0.74604 0.0
C2981 C 0.98265 0.58574 0.74891 0.0
C2982 C 0.97081 0.57184 0.76056 0.0
C2983 C 0.97669 0.561 0.76968 0.0
H2984 H 0.39623 0.35543 0.74252 0.0
H2985 H 0.35155 0.36732 0.74183 0.0
H2986 H 0.41769 0.3871 0.757 0.0
H2987 H 0.37317 0.39939 0.75538 0.0
H2988 H 0.41239 0.4491 0.7977 0.0
H2989 H 0.39034 0.41737 0.78319 0.0
H2990 H 0.43421 0.4189 0.75115 0.0
H2991 H 0.45622 0.45007 0.76645 0.0
C2992 C 0.39107 0.36493 0.74525 0.0
C2993 C 0.37223 0.35891 0.74107 0.0
C2994 C 0.40339 0.38317 0.75345 0.0
C2995 C 0.39724 0.39594 0.75735 0.0
C2996 C 0.37838 0.3899 0.75293 0.0
C2997 C 0.36599 0.37155 0.74502 0.0
C2998 C 0.41718 0.44254 0.78753 0.0
C2999 C 0.43594 0.45182 0.78328 0.0
C3000 C 0.40458 0.42443 0.77911 0.0
C3001 C 0.41046 0.41542 0.76603 0.0
C3002 C 0.42922 0.42509 0.76148 0.0
C3003 C 0.44183 0.443 0.77014 0.0
H3004 H 0.66787 0.07752 0.70562 0.0
H3005 H 0.65101 0.02124 0.68229 0.0
H3006 H 0.64018 0.0646 0.72354 0.0
H3007 H 0.62291 0.00835 0.69958 0.0
H3008 H 0.58807 0.99039 0.75144 0.0
H3009 H 0.61405 0.00256 0.73101 0.0
H3010 H 0.60734 0.0502 0.72156 0.0
H3011 H 0.58186 0.03829 0.74257 0.0
C3012 C 0.65809 0.06242 0.70409 0.0
C3013 C 0.66167 0.05039 0.69265 0.0
C3014 C 0.64214 0.055 0.71428 0.0
C3015 C 0.62931 0.0354 0.71307 0.0
C3016 C 0.63266 0.02346 0.70115 0.0
C3017 C 0.64872 0.03086 0.69115 0.0
C3018 C 0.5921 0.00336 0.74482 0.0
C3019 C 0.58313 0.0135 0.74863 0.0
C3020 C 0.60692 0.01032 0.73305 0.0
C3021 C 0.61287 0.02744 0.72469 0.0
C3022 C 0.60341 0.03721 0.72807 0.0
C3023 C 0.58877 0.03037 0.74002 0.0
loop_
_geom_bond_atom_site_label_1
_geom_bond_atom_site_label_2
_geom_bond_distance
_geom_bond_site_symmetry_2
_ccdc_geom_bond_type
C0 O1 1.306 . S
C0 O3 1.160 . S
O1 C0 1.306 . S
O1 Cd2 2.228 . S
Cd2 O1 2.228 . S
Cd2 O6 2.273 . S
Cd2 O10 2.277 . S
O3 C0 1.160 . S
O3 Cd4 2.203 1_655 S
Cd4 O3 2.203 1_455 S
Cd4 O6 2.411 1_455 S
Cd4 O7 2.333 . S
Cd4 O8 2.352 . S
Cd4 O12 2.259 1_554 S
Cd4 O13 2.356 . S
C5 O10 1.209 1_456 S
C5 O12 1.231 . S
O6 Cd2 2.273 . S
O6 Cd4 2.411 1_655 S
O6 C9 1.320 1_655 S
O7 Cd4 2.333 . S
O7 C9 1.214 . S
O8 Cd4 2.352 . S
O8 C11 1.258 . S
C9 O6 1.320 1_455 S
C9 O7 1.214 . S
O10 Cd2 2.277 . S
O10 C5 1.209 1_654 S
C11 O8 1.258 . S
C11 O13 1.282 . S
O12 Cd4 2.259 1_556 S
O12 C5 1.231 . S
O13 Cd4 2.356 . S
O13 C11 1.282 . S
C14 O15 1.306 . S
C14 O17 1.160 . S
O15 C14 1.306 . S
O15 Cd16 2.228 . S
Cd16 O15 2.228 . S
Cd16 O20 2.273 . S
Cd16 O24 2.277 . S
O17 C14 1.160 . S
O17 Cd18 2.203 . S
Cd18 O17 2.203 . S
Cd18 O20 2.411 . S
Cd18 O21 2.333 . S
Cd18 O22 2.352 . S
Cd18 O26 2.277 . S
Cd18 O27 2.356 . S
C19 O24 1.209 . S
C19 O26 1.226 . S
O20 Cd16 2.273 . S
O20 Cd18 2.411 . S
O20 C23 1.320 . S
O21 Cd18 2.333 . S
O21 C23 1.214 . S
O22 Cd18 2.352 . S
O22 C25 1.258 . S
C23 O20 1.320 . S
C23 O21 1.214 . S
O24 Cd16 2.277 . S
O24 C19 1.209 . S
C25 O22 1.258 . S
C25 O27 1.282 . S
O26 Cd18 2.277 . S
O26 C19 1.226 . S
O27 Cd18 2.356 . S
O27 C25 1.282 . S
C28 O29 1.306 . S
C28 O31 1.160 . S
O29 C28 1.306 . S
O29 Cd30 2.228 . S
Cd30 O29 2.228 . S
Cd30 O34 2.273 . S
Cd30 O38 2.277 . S
O31 C28 1.160 . S
O31 Cd32 2.203 1_565 S
Cd32 O31 2.203 1_545 S
Cd32 O34 2.411 1_545 S
Cd32 O35 2.333 . S
Cd32 O36 2.352 . S
Cd32 O40 2.277 . S
Cd32 O41 2.356 . S
C33 O38 1.209 1_545 S
C33 O40 1.226 . S
O34 Cd30 2.273 . S
O34 Cd32 2.411 1_565 S
O34 C37 1.320 1_554 S
O35 Cd32 2.333 . S
O35 C37 1.214 1_544 S
O36 Cd32 2.352 . S
O36 C39 1.258 . S
C37 O34 1.320 1_556 S
C37 O35 1.214 1_566 S
O38 Cd30 2.277 . S
O38 C33 1.209 1_565 S
C39 O36 1.258 . S
C39 O41 1.282 . S
O40 Cd32 2.277 . S
O40 C33 1.226 . S
O41 Cd32 2.356 . S
O41 C39 1.282 . S
C42 O43 1.306 . S
C42 O45 1.160 . S
O43 C42 1.306 . S
O43 Cd44 2.228 . S
Cd44 O43 2.228 . S
Cd44 O48 2.273 . S
Cd44 O52 2.277 . S
O45 C42 1.160 . S
O45 Cd46 2.203 1_655 S
Cd46 O45 2.203 1_455 S
Cd46 O48 2.411 1_455 S
Cd46 O49 2.333 . S
Cd46 O50 2.352 . S
Cd46 O54 2.277 . S
Cd46 O55 2.356 . S
C47 O52 1.209 1_455 S
C47 O54 1.226 . S
O48 Cd44 2.273 . S
O48 Cd46 2.411 1_655 S
O48 C51 1.320 . S
O49 Cd46 2.333 . S
O49 C51 1.214 1_455 S
O50 Cd46 2.352 . S
O50 C53 1.258 . S
C51 O48 1.320 . S
C51 O49 1.214 1_655 S
O52 Cd44 2.277 . S
O52 C47 1.209 1_655 S
C53 O50 1.258 . S
C53 O55 1.282 . S
O54 Cd46 2.277 . S
O54 C47 1.226 . S
O55 Cd46 2.356 . S
O55 C53 1.282 . S
C56 O57 1.306 . S
C56 O59 1.160 . S
O57 C56 1.306 . S
O57 Cd58 2.228 . S
Cd58 O57 2.228 . S
Cd58 O62 2.273 1_554 S
Cd58 O66 2.277 . S
O59 C56 1.160 . S
O59 Cd60 2.203 . S
Cd60 O59 2.203 . S
Cd60 O62 2.411 1_554 S
Cd60 O63 2.333 1_554 S
Cd60 O64 2.352 1_554 S
Cd60 O68 2.277 . S
Cd60 O69 2.356 1_554 S
C61 O66 1.209 . S
C61 O68 1.226 . S
O62 Cd58 2.273 1_556 S
O62 Cd60 2.411 1_556 S
O62 C65 1.320 . S
O63 Cd60 2.333 1_556 S
O63 C65 1.214 . S
O64 Cd60 2.352 1_556 S
O64 C67 1.258 . S
C65 O62 1.320 . S
C65 O63 1.214 . S
O66 Cd58 2.277 . S
O66 C61 1.209 . S
C67 O64 1.258 . S
C67 O69 1.282 . S
O68 Cd60 2.277 . S
O68 C61 1.226 . S
O69 Cd60 2.356 1_556 S
O69 C67 1.282 . S
C70 O71 1.306 . S
C70 O73 1.160 . S
O71 C70 1.306 . S
O71 Cd72 2.228 . S
Cd72 O71 2.228 . S
Cd72 O76 2.273 . S
Cd72 O80 2.277 . S
O73 C70 1.160 . S
O73 Cd74 2.203 1_545 S
Cd74 O73 2.203 1_565 S
Cd74 O76 2.411 1_565 S
Cd74 O77 2.333 . S
Cd74 O78 2.352 . S
Cd74 O82 2.277 . S
Cd74 O83 2.356 . S
C75 O80 1.209 1_565 S
C75 O82 1.226 . S
O76 Cd72 2.273 . S
O76 Cd74 2.411 1_545 S
O76 C79 1.320 . S
O77 Cd74 2.333 . S
O77 C79 1.214 1_565 S
O78 Cd74 2.352 . S
O78 C81 1.258 . S
C79 O76 1.320 . S
C79 O77 1.214 1_545 S
O80 Cd72 2.277 . S
O80 C75 1.209 1_545 S
C81 O78 1.258 . S
C81 O83 1.282 . S
O82 Cd74 2.277 . S
O82 C75 1.226 . S
O83 Cd74 2.356 . S
O83 C81 1.282 . S
C84 O85 1.306 . S
C84 O87 1.160 . S
O85 C84 1.306 . S
O85 Cd86 2.228 . S
Cd86 O85 2.228 . S
Cd86 O90 2.273 . S
Cd86 O94 2.277 . S
O87 C84 1.160 . S
O87 Cd88 2.203 . S
Cd88 O87 2.203 . S
Cd88 O90 2.411 . S
Cd88 O91 2.333 . S
Cd88 O92 2.352 . S
Cd88 O96 2.277 . S
Cd88 O97 2.356 . S
C89 O94 1.209 . S
C89 O96 1.226 . S
O90 Cd86 2.273 . S
O90 Cd88 2.411 . S
O90 C93 1.320 . S
O91 Cd88 2.333 . S
O91 C93 1.214 . S
O92 Cd88 2.352 . S
O92 C95 1.258 . S
C93 O90 1.320 . S
C93 O91 1.214 . S
O94 Cd86 2.277 . S
O94 C89 1.209 . S
C95 O92 1.258 . S
C95 O97 1.282 . S
O96 Cd88 2.277 . S
O96 C89 1.226 . S
O97 Cd88 2.356 . S
O97 C95 1.282 . S
C98 O99 1.306 . S
C98 O101 1.160 . S
O99 C98 1.306 . S
O99 Cd100 2.228 . S
Cd100 O99 2.228 . S
Cd100 O104 2.273 . S
Cd100 O108 2.277 . S
O101 C98 1.160 . S
O101 Cd102 2.203 . S
Cd102 O101 2.203 . S
Cd102 O104 2.411 . S
Cd102 O105 2.333 . S
Cd102 O106 2.352 . S
Cd102 O110 2.277 . S
Cd102 O111 2.356 . S
C103 O108 1.209 . S
C103 O110 1.226 . S
O104 Cd100 2.273 . S
O104 Cd102 2.411 . S
O104 C107 1.320 . S
O105 Cd102 2.333 . S
O105 C107 1.214 . S
O106 Cd102 2.352 . S
O106 C109 1.258 . S
C107 O104 1.320 . S
C107 O105 1.214 . S
O108 Cd100 2.277 . S
O108 C103 1.209 . S
C109 O106 1.258 . S
C109 O111 1.282 . S
O110 Cd102 2.277 . S
O110 C103 1.226 . S
O111 Cd102 2.356 . S
O111 C109 1.282 . S
C112 O113 1.306 . S
C112 O115 1.160 . S
O113 C112 1.306 . S
O113 Cd114 2.228 . S
Cd114 O113 2.228 . S
Cd114 O118 2.273 . S
Cd114 O122 2.277 . S
O115 C112 1.160 . S
O115 Cd116 2.203 . S
Cd116 O115 2.203 . S
Cd116 O118 2.411 . S
Cd116 O119 2.333 . S
Cd116 O120 2.352 . S
Cd116 O124 2.277 . S
Cd116 O125 2.356 . S
C117 O122 1.209 . S
C117 O124 1.226 . S
O118 Cd114 2.273 . S
O118 Cd116 2.411 . S
O118 C121 1.320 . S
O119 Cd116 2.333 . S
O119 C121 1.214 . S
O120 Cd116 2.352 . S
O120 C123 1.258 . S
C121 O118 1.320 . S
C121 O119 1.214 . S
O122 Cd114 2.277 . S
O122 C117 1.209 . S
C123 O120 1.258 . S
C123 O125 1.282 . S
O124 Cd116 2.277 . S
O124 C117 1.226 . S
O125 Cd116 2.356 . S
O125 C123 1.282 . S
C126 O127 1.306 . S
C126 O129 1.160 . S
O127 C126 1.306 . S
O127 Cd128 2.228 . S
Cd128 O127 2.228 . S
Cd128 O132 2.273 . S
Cd128 O136 2.277 . S
O129 C126 1.160 . S
O129 Cd130 2.203 . S
Cd130 O129 2.203 . S
Cd130 O132 2.411 . S
Cd130 O133 2.333 . S
Cd130 O134 2.352 . S
Cd130 O138 2.277 . S
Cd130 O139 2.356 . S
C131 O136 1.209 . S
C131 O138 1.226 . S
O132 Cd128 2.273 . S
O132 Cd130 2.411 . S
O132 C135 1.320 . S
O133 Cd130 2.333 . S
O133 C135 1.214 . S
O134 Cd130 2.352 . S
O134 C137 1.258 1_565 S
C135 O132 1.320 . S
C135 O133 1.214 . S
O136 Cd128 2.277 . S
O136 C131 1.209 . S
C137 O134 1.258 1_545 S
C137 O139 1.282 1_545 S
O138 Cd130 2.277 . S
O138 C131 1.226 . S
O139 Cd130 2.356 . S
O139 C137 1.282 1_565 S
C140 O141 1.306 . S
C140 O143 1.160 . S
O141 C140 1.306 . S
O141 Cd142 2.228 . S
Cd142 O141 2.228 . S
Cd142 O146 2.273 . S
Cd142 O150 2.277 . S
O143 C140 1.160 . S
O143 Cd144 2.203 . S
Cd144 O143 2.203 . S
Cd144 O146 2.411 . S
Cd144 O147 2.333 . S
Cd144 O148 2.352 . S
Cd144 O152 2.277 . S
Cd144 O153 2.356 . S
C145 O150 1.209 . S
C145 O152 1.226 . S
O146 Cd142 2.273 . S
O146 Cd144 2.411 . S
O146 C149 1.320 . S
O147 Cd144 2.333 . S
O147 C149 1.214 . S
O148 Cd144 2.352 . S
O148 C151 1.258 . S
C149 O146 1.320 . S
C149 O147 1.214 . S
O150 Cd142 2.277 . S
O150 C145 1.209 . S
C151 O148 1.258 . S
C151 O153 1.282 . S
O152 Cd144 2.277 . S
O152 C145 1.226 . S
O153 Cd144 2.356 . S
O153 C151 1.282 . S
C154 O155 1.306 . S
C154 O157 1.160 . S
O155 C154 1.306 . S
O155 Cd156 2.228 . S
Cd156 O155 2.228 . S
Cd156 O160 2.273 . S
Cd156 O164 2.277 . S
O157 C154 1.160 . S
O157 Cd158 2.203 . S
Cd158 O157 2.203 . S
Cd158 O160 2.411 . S
Cd158 O161 2.333 . S
Cd158 O162 2.352 . S
Cd158 O166 2.277 . S
Cd158 O167 2.356 . S
C159 O164 1.209 . S
C159 O166 1.226 . S
O160 Cd156 2.273 . S
O160 Cd158 2.411 . S
O160 C163 1.320 . S
O161 Cd158 2.333 . S
O161 C163 1.214 . S
O162 Cd158 2.352 . S
O162 C165 1.258 . S
C163 O160 1.320 . S
C163 O161 1.214 . S
O164 Cd156 2.277 . S
O164 C159 1.209 . S
C165 O162 1.258 . S
C165 O167 1.282 . S
O166 Cd158 2.277 . S
O166 C159 1.226 . S
O167 Cd158 2.356 . S
O167 C165 1.282 . S
C168 O169 1.306 . S
C168 O171 1.160 . S
O169 C168 1.306 . S
O169 Cd170 2.228 . S
Cd170 O169 2.228 . S
Cd170 O174 2.273 . S
Cd170 O178 2.277 . S
O171 C168 1.160 . S
O171 Cd172 2.203 . S
Cd172 O171 2.203 . S
Cd172 O174 2.411 . S
Cd172 O175 2.333 . S
Cd172 O176 2.352 . S
Cd172 O180 2.277 . S
Cd172 O181 2.356 . S
C173 O178 1.209 . S
C173 O180 1.226 . S
O174 Cd170 2.273 . S
O174 Cd172 2.411 . S
O174 C177 1.320 . S
O175 Cd172 2.333 . S
O175 C177 1.214 . S
O176 Cd172 2.352 . S
O176 C179 1.258 . S
C177 O174 1.320 . S
C177 O175 1.214 . S
O178 Cd170 2.277 . S
O178 C173 1.209 . S
C179 O176 1.258 . S
C179 O181 1.282 . S
O180 Cd172 2.277 . S
O180 C173 1.226 . S
O181 Cd172 2.356 . S
O181 C179 1.282 . S
C182 O183 1.306 . S
C182 O185 1.160 . S
O183 C182 1.306 . S
O183 Cd184 2.228 . S
Cd184 O183 2.228 . S
Cd184 O188 2.273 . S
Cd184 O192 2.277 . S
O185 C182 1.160 . S
O185 Cd186 2.203 . S
Cd186 O185 2.203 . S
Cd186 O188 2.411 . S
Cd186 O189 2.333 . S
Cd186 O190 2.352 . S
Cd186 O194 2.277 . S
Cd186 O195 2.356 . S
C187 O192 1.209 . S
C187 O194 1.226 . S
O188 Cd184 2.273 . S
O188 Cd186 2.411 . S
O188 C191 1.320 . S
O189 Cd186 2.333 . S
O189 C191 1.214 . S
O190 Cd186 2.352 . S
O190 C193 1.258 1_655 S
C191 O188 1.320 . S
C191 O189 1.214 . S
O192 Cd184 2.277 . S
O192 C187 1.209 . S
C193 O190 1.258 1_455 S
C193 O195 1.282 1_455 S
O194 Cd186 2.277 . S
O194 C187 1.226 . S
O195 Cd186 2.356 . S
O195 C193 1.282 1_655 S
C196 O197 1.306 . S
C196 O199 1.160 . S
O197 C196 1.306 . S
O197 Cd198 2.228 . S
Cd198 O197 2.228 . S
Cd198 O202 2.273 . S
Cd198 O206 2.277 . S
O199 C196 1.160 . S
O199 Cd200 2.203 . S
Cd200 O199 2.203 . S
Cd200 O202 2.411 . S
Cd200 O203 2.333 . S
Cd200 O204 2.352 . S
Cd200 O208 2.277 . S
Cd200 O209 2.356 . S
C201 O206 1.209 . S
C201 O208 1.226 . S
O202 Cd198 2.273 . S
O202 Cd200 2.411 . S
O202 C205 1.320 . S
O203 Cd200 2.333 . S
O203 C205 1.214 . S
O204 Cd200 2.352 . S
O204 C207 1.258 . S
C205 O202 1.320 . S
C205 O203 1.214 . S
O206 Cd198 2.277 . S
O206 C201 1.209 . S
C207 O204 1.258 . S
C207 O209 1.282 . S
O208 Cd200 2.277 . S
O208 C201 1.226 . S
O209 Cd200 2.356 . S
O209 C207 1.282 . S
C210 O211 1.306 . S
C210 O213 1.160 . S
O211 C210 1.306 . S
O211 Cd212 2.228 . S
Cd212 O211 2.228 . S
Cd212 O216 2.273 . S
Cd212 O220 2.277 . S
O213 C210 1.160 . S
O213 Cd214 2.203 . S
Cd214 O213 2.203 . S
Cd214 O216 2.411 . S
Cd214 O217 2.333 . S
Cd214 O218 2.352 . S
Cd214 O222 2.277 . S
Cd214 O223 2.356 . S
C215 O220 1.209 . S
C215 O222 1.226 . S
O216 Cd212 2.273 . S
O216 Cd214 2.411 . S
O216 C219 1.320 . S
O217 Cd214 2.333 . S
O217 C219 1.214 . S
O218 Cd214 2.352 . S
O218 C221 1.258 . S
C219 O216 1.320 . S
C219 O217 1.214 . S
O220 Cd212 2.277 . S
O220 C215 1.209 . S
C221 O218 1.258 . S
C221 O223 1.282 . S
O222 Cd214 2.277 . S
O222 C215 1.226 . S
O223 Cd214 2.356 . S
O223 C221 1.282 . S
C224 O225 1.306 . S
C224 O227 1.160 . S
O225 C224 1.306 . S
O225 Cd226 2.228 . S
Cd226 O225 2.228 . S
Cd226 O230 2.273 . S
Cd226 O234 2.277 . S
O227 C224 1.160 . S
O227 Cd228 2.203 . S
Cd228 O227 2.203 . S
Cd228 O230 2.411 . S
Cd228 O231 2.333 . S
Cd228 O232 2.352 . S
Cd228 O236 2.277 . S
Cd228 O237 2.356 . S
C229 O234 1.209 . S
C229 O236 1.226 . S
O230 Cd226 2.273 . S
O230 Cd228 2.411 . S
O230 C233 1.320 . S
O231 Cd228 2.333 . S
O231 C233 1.214 . S
O232 Cd228 2.352 . S
O232 C235 1.258 . S
C233 O230 1.320 . S
C233 O231 1.214 . S
O234 Cd226 2.277 . S
O234 C229 1.209 . S
C235 O232 1.258 . S
C235 O237 1.282 . S
O236 Cd228 2.277 . S
O236 C229 1.226 . S
O237 Cd228 2.356 . S
O237 C235 1.282 . S
C238 O239 1.306 . S
C238 O241 1.160 . S
O239 C238 1.306 . S
O239 Cd240 2.228 . S
Cd240 O239 2.228 . S
Cd240 O244 2.273 . S
Cd240 O248 2.277 . S
O241 C238 1.160 . S
O241 Cd242 2.203 . S
Cd242 O241 2.203 . S
Cd242 O244 2.411 . S
Cd242 O245 2.333 . S
Cd242 O246 2.352 . S
Cd242 O250 2.277 . S
Cd242 O251 2.356 . S
C243 O248 1.209 . S
C243 O250 1.226 . S
O244 Cd240 2.273 . S
O244 Cd242 2.411 . S
O244 C247 1.320 . S
O245 Cd242 2.333 . S
O245 C247 1.214 . S
O246 Cd242 2.352 . S
O246 C249 1.258 . S
C247 O244 1.320 . S
C247 O245 1.214 . S
O248 Cd240 2.277 . S
O248 C243 1.209 . S
C249 O246 1.258 . S
C249 O251 1.282 . S
O250 Cd242 2.277 . S
O250 C243 1.226 . S
O251 Cd242 2.356 . S
O251 C249 1.282 . S
H252 O278 0.856 . S
H253 O281 0.854 . S
H254 C289 0.930 . S
H255 C290 0.930 . S
H256 C292 0.930 . S
H257 C293 0.930 . S
H258 C295 0.931 . S
H259 C296 0.930 . S
H260 C298 0.930 . S
H261 C299 0.929 . S
H262 C301 0.930 . S
H263 C302 0.931 . S
H264 C304 0.930 . S
H265 C305 0.929 . S
H266 C307 0.931 . S
H267 C308 0.930 . S
H268 C310 0.930 . S
H269 C311 0.932 . S
H270 C313 0.930 . S
H271 C314 0.929 . S
H272 C316 0.931 . S
H273 C317 0.930 . S
H274 C319 0.929 . S
H275 C320 0.931 . S
H276 C322 0.930 . S
H277 C323 0.929 . S
O278 H252 0.856 . S
O278 C324 1.300 . S
O279 C324 1.209 . S
O280 C325 1.199 . S
O281 H253 0.854 . S
O281 C325 1.297 . S
C282 C283 1.404 . S
C282 C287 1.397 . S
C282 C288 1.492 . S
C283 C282 1.404 . S
C283 C284 1.396 . S
C283 C294 1.492 . S
C284 C283 1.396 . S
C284 C285 1.397 . S
C284 C300 1.509 . S
C285 C284 1.397 . S
C285 C286 1.412 . S
C285 C306 1.485 . S
C286 C285 1.412 . S
C286 C287 1.388 . S
C286 C312 1.490 . S
C287 C282 1.397 . S
C287 C286 1.388 . S
C287 C318 1.519 . S
C288 C282 1.492 . S
C288 C289 1.363 . S
C288 C293 1.390 . S
C289 H254 0.930 . S
C289 C288 1.363 . S
C289 C290 1.372 . S
C290 H255 0.930 . S
C290 C289 1.372 . S
C290 C291 1.383 . S
C291 C290 1.383 . S
C291 C292 1.395 . S
C292 H256 0.930 . S
C292 C291 1.395 . S
C292 C293 1.362 . S
C293 H257 0.930 . S
C293 C288 1.390 . S
C293 C292 1.362 . S
C294 C283 1.492 . S
C294 C295 1.377 . S
C294 C299 1.397 . S
C295 H258 0.931 . S
C295 C294 1.377 . S
C295 C296 1.376 . S
C296 H259 0.930 . S
C296 C295 1.376 . S
C296 C297 1.376 . S
C297 C296 1.376 . S
C297 C298 1.378 . S
C297 C324 1.486 . S
C298 H260 0.930 . S
C298 C297 1.378 . S
C298 C299 1.376 . S
C299 H261 0.929 . S
C299 C294 1.397 . S
C299 C298 1.376 . S
C300 C284 1.509 . S
C300 C301 1.391 . S
C300 C305 1.386 . S
C301 H262 0.930 . S
C301 C300 1.391 . S
C301 C302 1.375 . S
C302 H263 0.931 . S
C302 C301 1.375 . S
C302 C303 1.375 . S
C303 C302 1.375 . S
C303 C304 1.361 . S
C304 H264 0.930 . S
C304 C303 1.361 . S
C304 C305 1.399 . S
C305 H265 0.929 . S
C305 C300 1.386 . S
C305 C304 1.399 . S
C306 C285 1.485 . S
C306 C307 1.394 . S
C306 C311 1.360 . S
C307 H266 0.931 . S
C307 C306 1.394 . S
C307 C308 1.372 . S
C308 H267 0.930 . S
C308 C307 1.372 . S
C308 C309 1.397 . S
C309 C308 1.397 . S
C309 C310 1.390 . S
C309 C325 1.476 . S
C310 H268 0.930 . S
C310 C309 1.390 . S
C310 C311 1.366 . S
C311 H269 0.932 . S
C311 C306 1.360 . S
C311 C310 1.366 . S
C312 C286 1.490 . S
C312 C313 1.380 . S
C312 C317 1.386 . S
C313 H270 0.930 . S
C313 C312 1.380 . S
C313 C314 1.381 . S
C314 H271 0.929 . S
C314 C313 1.381 . S
C314 C315 1.371 . S
C315 C314 1.371 . S
C315 C316 1.380 . S
C316 H272 0.931 . S
C316 C315 1.380 . S
C316 C317 1.387 . S
C317 H273 0.930 . S
C317 C312 1.386 . S
C317 C316 1.387 . S
C318 C287 1.519 . S
C318 C319 1.377 . S
C318 C323 1.361 . S
C319 H274 0.929 . S
C319 C318 1.377 . S
C319 C320 1.386 . S
C320 H275 0.931 . S
C320 C319 1.386 . S
C320 C321 1.363 . S
C321 C320 1.363 . S
C321 C322 1.385 . S
C322 H276 0.930 . S
C322 C321 1.385 . S
C322 C323 1.396 . S
C323 H277 0.929 . S
C323 C318 1.361 . S
C323 C322 1.396 . S
C324 O278 1.300 . S
C324 O279 1.209 . S
C324 C297 1.486 . S
C325 O280 1.199 . S
C325 O281 1.297 . S
C325 C309 1.476 . S
H326 O352 0.856 . S
H327 O355 0.854 . S
H328 C363 0.930 . S
H329 C364 0.930 . S
H330 C366 0.930 . S
H331 C367 0.930 . S
H332 C369 0.931 . S
H333 C370 0.930 . S
H334 C372 0.930 . S
H335 C373 0.929 . S
H336 C375 0.930 . S
H337 C376 0.931 . S
H338 C378 0.930 . S
H339 C379 0.929 . S
H340 C381 0.931 . S
H341 C382 0.930 . S
H342 C384 0.930 . S
H343 C385 0.932 . S
H344 C387 0.930 . S
H345 C388 0.929 . S
H346 C390 0.931 . S
H347 C391 0.930 . S
H348 C393 0.929 . S
H349 C394 0.931 . S
H350 C396 0.930 . S
H351 C397 0.929 . S
O352 H326 0.856 . S
O352 C398 1.300 . S
O353 C398 1.209 . S
O354 C399 1.199 . S
O355 H327 0.854 . S
O355 C399 1.297 . S
C356 C357 1.404 . S
C356 C361 1.397 . S
C356 C362 1.492 . S
C357 C356 1.404 . S
C357 C358 1.396 . S
C357 C368 1.492 . S
C358 C357 1.396 . S
C358 C359 1.397 . S
C358 C374 1.509 . S
C359 C358 1.397 . S
C359 C360 1.412 . S
C359 C380 1.485 . S
C360 C359 1.412 . S
C360 C361 1.388 . S
C360 C386 1.490 . S
C361 C356 1.397 . S
C361 C360 1.388 . S
C361 C392 1.519 . S
C362 C356 1.492 . S
C362 C363 1.363 . S
C362 C367 1.390 . S
C363 H328 0.930 . S
C363 C362 1.363 . S
C363 C364 1.372 . S
C364 H329 0.930 . S
C364 C363 1.372 . S
C364 C365 1.383 . S
C365 C364 1.383 . S
C365 C366 1.395 . S
C366 H330 0.930 . S
C366 C365 1.395 . S
C366 C367 1.362 . S
C367 H331 0.930 . S
C367 C362 1.390 . S
C367 C366 1.362 . S
C368 C357 1.492 . S
C368 C369 1.377 . S
C368 C373 1.397 . S
C369 H332 0.931 . S
C369 C368 1.377 . S
C369 C370 1.376 . S
C370 H333 0.930 . S
C370 C369 1.376 . S
C370 C371 1.376 . S
C371 C370 1.376 . S
C371 C372 1.378 . S
C371 C398 1.486 . S
C372 H334 0.930 . S
C372 C371 1.378 . S
C372 C373 1.376 . S
C373 H335 0.929 . S
C373 C368 1.397 . S
C373 C372 1.376 . S
C374 C358 1.509 . S
C374 C375 1.391 . S
C374 C379 1.386 . S
C375 H336 0.930 . S
C375 C374 1.391 . S
C375 C376 1.375 . S
C376 H337 0.931 . S
C376 C375 1.375 . S
C376 C377 1.375 . S
C377 C376 1.375 . S
C377 C378 1.361 . S
C378 H338 0.930 . S
C378 C377 1.361 . S
C378 C379 1.399 . S
C379 H339 0.929 . S
C379 C374 1.386 . S
C379 C378 1.399 . S
C380 C359 1.485 . S
C380 C381 1.394 . S
C380 C385 1.360 . S
C381 H340 0.931 . S
C381 C380 1.394 . S
C381 C382 1.372 . S
C382 H341 0.930 . S
C382 C381 1.372 . S
C382 C383 1.397 . S
C383 C382 1.397 . S
C383 C384 1.390 . S
C383 C399 1.476 . S
C384 H342 0.930 . S
C384 C383 1.390 . S
C384 C385 1.366 . S
C385 H343 0.932 . S
C385 C380 1.360 . S
C385 C384 1.366 . S
C386 C360 1.490 . S
C386 C387 1.380 . S
C386 C391 1.386 . S
C387 H344 0.930 . S
C387 C386 1.380 . S
C387 C388 1.381 . S
C388 H345 0.929 . S
C388 C387 1.381 . S
C388 C389 1.371 . S
C389 C388 1.371 . S
C389 C390 1.380 . S
C390 H346 0.931 . S
C390 C389 1.380 . S
C390 C391 1.387 . S
C391 H347 0.930 . S
C391 C386 1.386 . S
C391 C390 1.387 . S
C392 C361 1.519 . S
C392 C393 1.377 . S
C392 C397 1.361 . S
C393 H348 0.929 . S
C393 C392 1.377 . S
C393 C394 1.386 . S
C394 H349 0.931 . S
C394 C393 1.386 . S
C394 C395 1.363 . S
C395 C394 1.363 . S
C395 C396 1.385 . S
C396 H350 0.930 . S
C396 C395 1.385 . S
C396 C397 1.396 . S
C397 H351 0.929 . S
C397 C392 1.361 . S
C397 C396 1.396 . S
C398 O352 1.300 . S
C398 O353 1.209 . S
C398 C371 1.486 . S
C399 O354 1.199 . S
C399 O355 1.297 . S
C399 C383 1.476 . S
H400 O426 0.856 . S
H401 O429 0.854 . S
H402 C437 0.930 . S
H403 C438 0.930 . S
H404 C440 0.930 . S
H405 C441 0.930 . S
H406 C443 0.931 . S
H407 C444 0.930 . S
H408 C446 0.930 . S
H409 C447 0.929 . S
H410 C449 0.930 . S
H411 C450 0.931 . S
H412 C452 0.930 . S
H413 C453 0.929 . S
H414 C455 0.931 . S
H415 C456 0.930 . S
H416 C458 0.930 . S
H417 C459 0.932 . S
H418 C461 0.930 . S
H419 C462 0.929 . S
H420 C464 0.931 . S
H421 C465 0.930 . S
H422 C467 0.929 . S
H423 C468 0.931 . S
H424 C470 0.930 . S
H425 C471 0.929 . S
O426 H400 0.856 . S
O426 C472 1.300 . S
O427 C472 1.209 . S
O428 C473 1.199 . S
O429 H401 0.854 . S
O429 C473 1.297 . S
C430 C431 1.404 . S
C430 C435 1.397 . S
C430 C436 1.492 . S
C431 C430 1.404 . S
C431 C432 1.396 . S
C431 C442 1.492 . S
C432 C431 1.396 . S
C432 C433 1.397 . S
C432 C448 1.509 . S
C433 C432 1.397 . S
C433 C434 1.412 . S
C433 C454 1.485 . S
C434 C433 1.412 . S
C434 C435 1.388 . S
C434 C460 1.490 . S
C435 C430 1.397 . S
C435 C434 1.388 . S
C435 C466 1.519 . S
C436 C430 1.492 . S
C436 C437 1.363 . S
C436 C441 1.390 . S
C437 H402 0.930 . S
C437 C436 1.363 . S
C437 C438 1.372 . S
C438 H403 0.930 . S
C438 C437 1.372 . S
C438 C439 1.383 . S
C439 C438 1.383 . S
C439 C440 1.395 . S
C440 H404 0.930 . S
C440 C439 1.395 . S
C440 C441 1.362 . S
C441 H405 0.930 . S
C441 C436 1.390 . S
C441 C440 1.362 . S
C442 C431 1.492 . S
C442 C443 1.377 . S
C442 C447 1.397 . S
C443 H406 0.931 . S
C443 C442 1.377 . S
C443 C444 1.376 . S
C444 H407 0.930 . S
C444 C443 1.376 . S
C444 C445 1.376 . S
C445 C444 1.376 . S
C445 C446 1.378 . S
C445 C472 1.486 . S
C446 H408 0.930 . S
C446 C445 1.378 . S
C446 C447 1.376 . S
C447 H409 0.929 . S
C447 C442 1.397 . S
C447 C446 1.376 . S
C448 C432 1.509 . S
C448 C449 1.391 . S
C448 C453 1.386 . S
C449 H410 0.930 . S
C449 C448 1.391 . S
C449 C450 1.375 . S
C450 H411 0.931 . S
C450 C449 1.375 . S
C450 C451 1.375 . S
C451 C450 1.375 . S
C451 C452 1.361 . S
C452 H412 0.930 . S
C452 C451 1.361 . S
C452 C453 1.399 . S
C453 H413 0.929 . S
C453 C448 1.386 . S
C453 C452 1.399 . S
C454 C433 1.485 . S
C454 C455 1.394 . S
C454 C459 1.360 . S
C455 H414 0.931 . S
C455 C454 1.394 . S
C455 C456 1.372 . S
C456 H415 0.930 . S
C456 C455 1.372 . S
C456 C457 1.397 . S
C457 C456 1.397 . S
C457 C458 1.390 . S
C457 C473 1.476 . S
C458 H416 0.930 . S
C458 C457 1.390 . S
C458 C459 1.366 . S
C459 H417 0.932 . S
C459 C454 1.360 . S
C459 C458 1.366 . S
C460 C434 1.490 . S
C460 C461 1.380 . S
C460 C465 1.386 . S
C461 H418 0.930 . S
C461 C460 1.380 . S
C461 C462 1.381 . S
C462 H419 0.929 . S
C462 C461 1.381 . S
C462 C463 1.371 . S
C463 C462 1.371 . S
C463 C464 1.380 . S
C464 H420 0.931 . S
C464 C463 1.380 . S
C464 C465 1.387 . S
C465 H421 0.930 . S
C465 C460 1.386 . S
C465 C464 1.387 . S
C466 C435 1.519 . S
C466 C467 1.377 . S
C466 C471 1.361 . S
C467 H422 0.929 . S
C467 C466 1.377 . S
C467 C468 1.386 . S
C468 H423 0.931 . S
C468 C467 1.386 . S
C468 C469 1.363 . S
C469 C468 1.363 . S
C469 C470 1.385 . S
C470 H424 0.930 . S
C470 C469 1.385 . S
C470 C471 1.396 . S
C471 H425 0.929 . S
C471 C466 1.361 . S
C471 C470 1.396 . S
C472 O426 1.300 . S
C472 O427 1.209 . S
C472 C445 1.486 . S
C473 O428 1.199 . S
C473 O429 1.297 . S
C473 C457 1.476 . S
H474 O500 0.833 1_554 S
H475 O503 0.854 . S
H476 C511 0.930 . S
H477 C512 0.930 . S
H478 C514 0.930 . S
H479 C515 0.930 . S
H480 C517 0.931 . S
H481 C518 0.930 . S
H482 C520 0.930 . S
H483 C521 0.929 . S
H484 C523 0.930 . S
H485 C524 0.931 . S
H486 C526 0.930 . S
H487 C527 0.929 . S
H488 C529 0.931 . S
H489 C530 0.930 . S
H490 C532 0.930 . S
H491 C533 0.932 . S
H492 C535 0.930 . S
H493 C536 0.929 . S
H494 C538 0.931 . S
H495 C539 0.930 . S
H496 C541 0.929 . S
H497 C542 0.931 . S
H498 C544 0.930 . S
H499 C545 0.929 . S
O500 H474 0.833 1_556 S
O500 C546 1.317 . S
O501 C546 1.209 . S
O502 C547 1.199 . S
O503 H475 0.854 . S
O503 C547 1.297 . S
C504 C505 1.404 . S
C504 C509 1.397 . S
C504 C510 1.492 . S
C505 C504 1.404 . S
C505 C506 1.396 . S
C505 C516 1.492 . S
C506 C505 1.396 . S
C506 C507 1.397 . S
C506 C522 1.509 . S
C507 C506 1.397 . S
C507 C508 1.412 . S
C507 C528 1.485 . S
C508 C507 1.412 . S
C508 C509 1.388 . S
C508 C534 1.490 . S
C509 C504 1.397 . S
C509 C508 1.388 . S
C509 C540 1.519 . S
C510 C504 1.492 . S
C510 C511 1.363 . S
C510 C515 1.390 . S
C511 H476 0.930 . S
C511 C510 1.363 . S
C511 C512 1.372 . S
C512 H477 0.930 . S
C512 C511 1.372 . S
C512 C513 1.383 . S
C513 C512 1.383 . S
C513 C514 1.395 . S
C514 H478 0.930 . S
C514 C513 1.395 . S
C514 C515 1.362 . S
C515 H479 0.930 . S
C515 C510 1.390 . S
C515 C514 1.362 . S
C516 C505 1.492 . S
C516 C517 1.377 . S
C516 C521 1.397 . S
C517 H480 0.931 . S
C517 C516 1.377 . S
C517 C518 1.376 . S
C518 H481 0.930 . S
C518 C517 1.376 . S
C518 C519 1.376 . S
C519 C518 1.376 . S
C519 C520 1.378 . S
C519 C546 1.486 . S
C520 H482 0.930 . S
C520 C519 1.378 . S
C520 C521 1.376 . S
C521 H483 0.929 . S
C521 C516 1.397 . S
C521 C520 1.376 . S
C522 C506 1.509 . S
C522 C523 1.391 . S
C522 C527 1.386 . S
C523 H484 0.930 . S
C523 C522 1.391 . S
C523 C524 1.375 . S
C524 H485 0.931 . S
C524 C523 1.375 . S
C524 C525 1.375 . S
C525 C524 1.375 . S
C525 C526 1.361 . S
C526 H486 0.930 . S
C526 C525 1.361 . S
C526 C527 1.399 . S
C527 H487 0.929 . S
C527 C522 1.386 . S
C527 C526 1.399 . S
C528 C507 1.485 . S
C528 C529 1.394 . S
C528 C533 1.360 . S
C529 H488 0.931 . S
C529 C528 1.394 . S
C529 C530 1.372 . S
C530 H489 0.930 . S
C530 C529 1.372 . S
C530 C531 1.397 . S
C531 C530 1.397 . S
C531 C532 1.390 . S
C531 C547 1.476 . S
C532 H490 0.930 . S
C532 C531 1.390 . S
C532 C533 1.366 . S
C533 H491 0.932 . S
C533 C528 1.360 . S
C533 C532 1.366 . S
C534 C508 1.490 . S
C534 C535 1.380 . S
C534 C539 1.386 . S
C535 H492 0.930 . S
C535 C534 1.380 . S
C535 C536 1.381 . S
C536 H493 0.929 . S
C536 C535 1.381 . S
C536 C537 1.371 . S
C537 C536 1.371 . S
C537 C538 1.380 . S
C538 H494 0.931 . S
C538 C537 1.380 . S
C538 C539 1.387 . S
C539 H495 0.930 . S
C539 C534 1.386 . S
C539 C538 1.387 . S
C540 C509 1.519 . S
C540 C541 1.377 . S
C540 C545 1.361 . S
C541 H496 0.929 . S
C541 C540 1.377 . S
C541 C542 1.386 . S
C542 H497 0.931 . S
C542 C541 1.386 . S
C542 C543 1.363 . S
C543 C542 1.363 . S
C543 C544 1.385 . S
C544 H498 0.930 . S
C544 C543 1.385 . S
C544 C545 1.396 . S
C545 H499 0.929 . S
C545 C540 1.361 . S
C545 C544 1.396 . S
C546 O500 1.317 . S
C546 O501 1.209 . S
C546 C519 1.486 . S
C547 O502 1.199 . S
C547 O503 1.297 . S
C547 C531 1.476 . S
H548 O574 0.856 . S
H549 O577 0.854 . S
H550 C585 0.930 . S
H551 C586 0.930 . S
H552 C588 0.930 . S
H553 C589 0.930 . S
H554 C591 0.931 . S
H555 C592 0.930 . S
H556 C594 0.930 . S
H557 C595 0.929 . S
H558 C597 0.930 . S
H559 C598 0.931 . S
H560 C600 0.930 . S
H561 C601 0.929 . S
H562 C603 0.931 . S
H563 C604 0.930 . S
H564 C606 0.930 . S
H565 C607 0.932 . S
H566 C609 0.930 . S
H567 C610 0.929 . S
H568 C612 0.931 . S
H569 C613 0.930 . S
H570 C615 0.929 . S
H571 C616 0.931 . S
H572 C618 0.930 . S
H573 C619 0.929 . S
O574 H548 0.856 . S
O574 C620 1.300 . S
O575 C620 1.209 . S
O576 C621 1.199 . S
O577 H549 0.854 . S
O577 C621 1.297 . S
C578 C579 1.404 . S
C578 C583 1.397 . S
C578 C584 1.492 . S
C579 C578 1.404 . S
C579 C580 1.396 . S
C579 C590 1.492 . S
C580 C579 1.396 . S
C580 C581 1.397 . S
C580 C596 1.509 . S
C581 C580 1.397 . S
C581 C582 1.412 . S
C581 C602 1.485 . S
C582 C581 1.412 . S
C582 C583 1.388 . S
C582 C608 1.490 . S
C583 C578 1.397 . S
C583 C582 1.388 . S
C583 C614 1.519 . S
C584 C578 1.492 . S
C584 C585 1.363 . S
C584 C589 1.390 . S
C585 H550 0.930 . S
C585 C584 1.363 . S
C585 C586 1.372 . S
C586 H551 0.930 . S
C586 C585 1.372 . S
C586 C587 1.383 . S
C587 C586 1.383 . S
C587 C588 1.395 . S
C588 H552 0.930 . S
C588 C587 1.395 . S
C588 C589 1.362 . S
C589 H553 0.930 . S
C589 C584 1.390 . S
C589 C588 1.362 . S
C590 C579 1.492 . S
C590 C591 1.377 . S
C590 C595 1.397 . S
C591 H554 0.931 . S
C591 C590 1.377 . S
C591 C592 1.376 . S
C592 H555 0.930 . S
C592 C591 1.376 . S
C592 C593 1.376 . S
C593 C592 1.376 . S
C593 C594 1.378 . S
C593 C620 1.486 1_556 S
C594 H556 0.930 . S
C594 C593 1.378 . S
C594 C595 1.376 . S
C595 H557 0.929 . S
C595 C590 1.397 . S
C595 C594 1.376 . S
C596 C580 1.509 . S
C596 C597 1.391 . S
C596 C601 1.386 . S
C597 H558 0.930 . S
C597 C596 1.391 . S
C597 C598 1.375 . S
C598 H559 0.931 . S
C598 C597 1.375 . S
C598 C599 1.375 . S
C599 C598 1.375 . S
C599 C600 1.361 . S
C600 H560 0.930 . S
C600 C599 1.361 . S
C600 C601 1.399 . S
C601 H561 0.929 . S
C601 C596 1.386 . S
C601 C600 1.399 . S
C602 C581 1.485 . S
C602 C603 1.394 . S
C602 C607 1.360 . S
C603 H562 0.931 . S
C603 C602 1.394 . S
C603 C604 1.372 . S
C604 H563 0.930 . S
C604 C603 1.372 . S
C604 C605 1.397 . S
C605 C604 1.397 . S
C605 C606 1.390 . S
C605 C621 1.476 . S
C606 H564 0.930 . S
C606 C605 1.390 . S
C606 C607 1.366 . S
C607 H565 0.932 . S
C607 C602 1.360 . S
C607 C606 1.366 . S
C608 C582 1.490 . S
C608 C609 1.380 . S
C608 C613 1.386 . S
C609 H566 0.930 . S
C609 C608 1.380 . S
C609 C610 1.381 . S
C610 H567 0.929 . S
C610 C609 1.381 . S
C610 C611 1.371 . S
C611 C610 1.371 . S
C611 C612 1.380 . S
C612 H568 0.931 . S
C612 C611 1.380 . S
C612 C613 1.387 . S
C613 H569 0.930 . S
C613 C608 1.386 . S
C613 C612 1.387 . S
C614 C583 1.519 . S
C614 C615 1.377 . S
C614 C619 1.361 . S
C615 H570 0.929 . S
C615 C614 1.377 . S
C615 C616 1.386 . S
C616 H571 0.931 . S
C616 C615 1.386 . S
C616 C617 1.363 . S
C617 C616 1.363 . S
C617 C618 1.385 . S
C618 H572 0.930 . S
C618 C617 1.385 . S
C618 C619 1.396 . S
C619 H573 0.929 . S
C619 C614 1.361 . S
C619 C618 1.396 . S
C620 O574 1.300 . S
C620 O575 1.209 . S
C620 C593 1.486 1_554 S
C621 O576 1.199 . S
C621 O577 1.297 . S
C621 C605 1.476 . S
H622 O648 0.856 . S
H623 O651 0.854 . S
H624 C659 0.930 . S
H625 C660 0.930 . S
H626 C662 0.930 . S
H627 C663 0.930 . S
H628 C665 0.931 . S
H629 C666 0.930 . S
H630 C668 0.930 . S
H631 C669 0.929 . S
H632 C671 0.930 . S
H633 C672 0.931 . S
H634 C674 0.930 . S
H635 C675 0.929 . S
H636 C677 0.931 . S
H637 C678 0.930 . S
H638 C680 0.930 . S
H639 C681 0.932 . S
H640 C683 0.930 . S
H641 C684 0.929 . S
H642 C686 0.931 . S
H643 C687 0.930 . S
H644 C689 0.929 . S
H645 C690 0.931 . S
H646 C692 0.930 . S
H647 C693 0.929 . S
O648 H622 0.856 . S
O648 C694 1.300 . S
O649 C694 1.209 . S
O650 C695 1.199 . S
O651 H623 0.854 . S
O651 C695 1.297 . S
C652 C653 1.404 . S
C652 C657 1.397 . S
C652 C658 1.492 . S
C653 C652 1.404 . S
C653 C654 1.396 . S
C653 C664 1.492 . S
C654 C653 1.396 . S
C654 C655 1.397 . S
C654 C670 1.509 . S
C655 C654 1.397 . S
C655 C656 1.412 . S
C655 C676 1.485 . S
C656 C655 1.412 . S
C656 C657 1.388 . S
C656 C682 1.490 . S
C657 C652 1.397 . S
C657 C656 1.388 . S
C657 C688 1.519 . S
C658 C652 1.492 . S
C658 C659 1.363 . S
C658 C663 1.390 . S
C659 H624 0.930 . S
C659 C658 1.363 . S
C659 C660 1.372 . S
C660 H625 0.930 . S
C660 C659 1.372 . S
C660 C661 1.383 . S
C661 C660 1.383 . S
C661 C662 1.395 . S
C662 H626 0.930 . S
C662 C661 1.395 . S
C662 C663 1.362 . S
C663 H627 0.930 . S
C663 C658 1.390 . S
C663 C662 1.362 . S
C664 C653 1.492 . S
C664 C665 1.377 . S
C664 C669 1.397 . S
C665 H628 0.931 . S
C665 C664 1.377 . S
C665 C666 1.376 . S
C666 H629 0.930 . S
C666 C665 1.376 . S
C666 C667 1.376 . S
C667 C666 1.376 . S
C667 C668 1.378 . S
C667 C694 1.486 1_556 S
C668 H630 0.930 . S
C668 C667 1.378 . S
C668 C669 1.376 . S
C669 H631 0.929 . S
C669 C664 1.397 . S
C669 C668 1.376 . S
C670 C654 1.509 . S
C670 C671 1.391 . S
C670 C675 1.386 . S
C671 H632 0.930 . S
C671 C670 1.391 . S
C671 C672 1.375 . S
C672 H633 0.931 . S
C672 C671 1.375 . S
C672 C673 1.375 . S
C673 C672 1.375 . S
C673 C674 1.361 . S
C674 H634 0.930 . S
C674 C673 1.361 . S
C674 C675 1.399 . S
C675 H635 0.929 . S
C675 C670 1.386 . S
C675 C674 1.399 . S
C676 C655 1.485 . S
C676 C677 1.394 . S
C676 C681 1.360 . S
C677 H636 0.931 . S
C677 C676 1.394 . S
C677 C678 1.372 . S
C678 H637 0.930 . S
C678 C677 1.372 . S
C678 C679 1.397 . S
C679 C678 1.397 . S
C679 C680 1.390 . S
C679 C695 1.476 . S
C680 H638 0.930 . S
C680 C679 1.390 . S
C680 C681 1.366 . S
C681 H639 0.932 . S
C681 C676 1.360 . S
C681 C680 1.366 . S
C682 C656 1.490 . S
C682 C683 1.380 . S
C682 C687 1.386 . S
C683 H640 0.930 . S
C683 C682 1.380 . S
C683 C684 1.381 . S
C684 H641 0.929 . S
C684 C683 1.381 . S
C684 C685 1.371 . S
C685 C684 1.371 . S
C685 C686 1.380 . S
C686 H642 0.931 . S
C686 C685 1.380 . S
C686 C687 1.387 . S
C687 H643 0.930 . S
C687 C682 1.386 . S
C687 C686 1.387 . S
C688 C657 1.519 . S
C688 C689 1.377 . S
C688 C693 1.361 . S
C689 H644 0.929 . S
C689 C688 1.377 . S
C689 C690 1.386 . S
C690 H645 0.931 . S
C690 C689 1.386 . S
C690 C691 1.363 . S
C691 C690 1.363 . S
C691 C692 1.385 . S
C692 H646 0.930 . S
C692 C691 1.385 . S
C692 C693 1.396 . S
C693 H647 0.929 . S
C693 C688 1.361 . S
C693 C692 1.396 . S
C694 O648 1.300 . S
C694 O649 1.209 . S
C694 C667 1.486 1_554 S
C695 O650 1.199 . S
C695 O651 1.297 . S
C695 C679 1.476 . S
H696 O722 0.856 . S
H697 O725 0.854 . S
H698 C733 0.930 . S
H699 C734 0.930 . S
H700 C736 0.930 . S
H701 C737 0.930 . S
H702 C739 0.931 . S
H703 C740 0.930 . S
H704 C742 0.930 . S
H705 C743 0.929 . S
H706 C745 0.930 . S
H707 C746 0.931 . S
H708 C748 0.930 . S
H709 C749 0.929 . S
H710 C751 0.931 . S
H711 C752 0.930 . S
H712 C754 0.930 . S
H713 C755 0.932 . S
H714 C757 0.930 . S
H715 C758 0.929 . S
H716 C760 0.931 . S
H717 C761 0.930 . S
H718 C763 0.929 . S
H719 C764 0.931 . S
H720 C766 0.930 . S
H721 C767 0.929 . S
O722 H696 0.856 . S
O722 C768 1.300 . S
O723 C768 1.209 . S
O724 C769 1.199 . S
O725 H697 0.854 . S
O725 C769 1.297 . S
C726 C727 1.404 . S
C726 C731 1.397 . S
C726 C732 1.492 . S
C727 C726 1.404 . S
C727 C728 1.396 . S
C727 C738 1.492 . S
C728 C727 1.396 . S
C728 C729 1.397 . S
C728 C744 1.509 . S
C729 C728 1.397 . S
C729 C730 1.412 . S
C729 C750 1.485 . S
C730 C729 1.412 . S
C730 C731 1.388 . S
C730 C756 1.490 . S
C731 C726 1.397 . S
C731 C730 1.388 . S
C731 C762 1.519 . S
C732 C726 1.492 . S
C732 C733 1.363 . S
C732 C737 1.390 . S
C733 H698 0.930 . S
C733 C732 1.363 . S
C733 C734 1.372 . S
C734 H699 0.930 . S
C734 C733 1.372 . S
C734 C735 1.383 . S
C735 C734 1.383 . S
C735 C736 1.395 . S
C736 H700 0.930 . S
C736 C735 1.395 . S
C736 C737 1.362 . S
C737 H701 0.930 . S
C737 C732 1.390 . S
C737 C736 1.362 . S
C738 C727 1.492 . S
C738 C739 1.377 . S
C738 C743 1.397 . S
C739 H702 0.931 . S
C739 C738 1.377 . S
C739 C740 1.376 . S
C740 H703 0.930 . S
C740 C739 1.376 . S
C740 C741 1.376 . S
C741 C740 1.376 . S
C741 C742 1.378 . S
C741 C768 1.486 . S
C742 H704 0.930 . S
C742 C741 1.378 . S
C742 C743 1.376 . S
C743 H705 0.929 . S
C743 C738 1.397 . S
C743 C742 1.376 . S
C744 C728 1.509 . S
C744 C745 1.391 . S
C744 C749 1.386 . S
C745 H706 0.930 . S
C745 C744 1.391 . S
C745 C746 1.375 . S
C746 H707 0.931 . S
C746 C745 1.375 . S
C746 C747 1.375 . S
C747 C746 1.375 . S
C747 C748 1.361 . S
C748 H708 0.930 . S
C748 C747 1.361 . S
C748 C749 1.399 . S
C749 H709 0.929 . S
C749 C744 1.386 . S
C749 C748 1.399 . S
C750 C729 1.485 . S
C750 C751 1.394 . S
C750 C755 1.360 . S
C751 H710 0.931 . S
C751 C750 1.394 . S
C751 C752 1.372 . S
C752 H711 0.930 . S
C752 C751 1.372 . S
C752 C753 1.397 . S
C753 C752 1.397 . S
C753 C754 1.390 . S
C753 C769 1.476 . S
C754 H712 0.930 . S
C754 C753 1.390 . S
C754 C755 1.366 . S
C755 H713 0.932 . S
C755 C750 1.360 . S
C755 C754 1.366 . S
C756 C730 1.490 . S
C756 C757 1.380 . S
C756 C761 1.386 . S
C757 H714 0.930 . S
C757 C756 1.380 . S
C757 C758 1.381 . S
C758 H715 0.929 . S
C758 C757 1.381 . S
C758 C759 1.371 . S
C759 C758 1.371 . S
C759 C760 1.380 . S
C760 H716 0.931 . S
C760 C759 1.380 . S
C760 C761 1.387 . S
C761 H717 0.930 . S
C761 C756 1.386 . S
C761 C760 1.387 . S
C762 C731 1.519 . S
C762 C763 1.377 . S
C762 C767 1.361 . S
C763 H718 0.929 . S
C763 C762 1.377 . S
C763 C764 1.386 . S
C764 H719 0.931 . S
C764 C763 1.386 . S
C764 C765 1.363 . S
C765 C764 1.363 . S
C765 C766 1.385 . S
C766 H720 0.930 . S
C766 C765 1.385 . S
C766 C767 1.396 . S
C767 H721 0.929 . S
C767 C762 1.361 . S
C767 C766 1.396 . S
C768 O722 1.300 . S
C768 O723 1.209 . S
C768 C741 1.486 . S
C769 O724 1.199 . S
C769 O725 1.297 . S
C769 C753 1.476 . S
H770 O796 0.856 . S
H771 O799 0.854 . S
H772 C807 0.930 . S
H773 C808 0.930 . S
H774 C810 0.930 . S
H775 C811 0.930 . S
H776 C813 0.931 . S
H777 C814 0.930 . S
H778 C816 0.930 . S
H779 C817 0.929 . S
H780 C819 0.930 . S
H781 C820 0.931 . S
H782 C822 0.930 . S
H783 C823 0.929 . S
H784 C825 0.931 . S
H785 C826 0.930 . S
H786 C828 0.930 . S
H787 C829 0.932 . S
H788 C831 0.930 . S
H789 C832 0.929 . S
H790 C834 0.931 . S
H791 C835 0.930 . S
H792 C837 0.929 . S
H793 C838 0.931 . S
H794 C840 0.930 . S
H795 C841 0.929 . S
O796 H770 0.856 . S
O796 C842 1.300 . S
O797 C842 1.209 . S
O798 C843 1.199 . S
O799 H771 0.854 . S
O799 C843 1.297 . S
C800 C801 1.404 . S
C800 C805 1.397 . S
C800 C806 1.492 . S
C801 C800 1.404 . S
C801 C802 1.396 . S
C801 C812 1.492 . S
C802 C801 1.396 . S
C802 C803 1.397 . S
C802 C818 1.509 . S
C803 C802 1.397 . S
C803 C804 1.412 . S
C803 C824 1.485 . S
C804 C803 1.412 . S
C804 C805 1.388 . S
C804 C830 1.490 . S
C805 C800 1.397 . S
C805 C804 1.388 . S
C805 C836 1.519 . S
C806 C800 1.492 . S
C806 C807 1.363 . S
C806 C811 1.390 . S
C807 H772 0.930 . S
C807 C806 1.363 . S
C807 C808 1.372 . S
C808 H773 0.930 . S
C808 C807 1.372 . S
C808 C809 1.383 . S
C809 C808 1.383 . S
C809 C810 1.395 . S
C810 H774 0.930 . S
C810 C809 1.395 . S
C810 C811 1.362 . S
C811 H775 0.930 . S
C811 C806 1.390 . S
C811 C810 1.362 . S
C812 C801 1.492 . S
C812 C813 1.377 . S
C812 C817 1.397 . S
C813 H776 0.931 . S
C813 C812 1.377 . S
C813 C814 1.376 . S
C814 H777 0.930 . S
C814 C813 1.376 . S
C814 C815 1.376 . S
C815 C814 1.376 . S
C815 C816 1.378 . S
C815 C842 1.486 . S
C816 H778 0.930 . S
C816 C815 1.378 . S
C816 C817 1.376 . S
C817 H779 0.929 . S
C817 C812 1.397 . S
C817 C816 1.376 . S
C818 C802 1.509 . S
C818 C819 1.391 . S
C818 C823 1.386 . S
C819 H780 0.930 . S
C819 C818 1.391 . S
C819 C820 1.375 . S
C820 H781 0.931 . S
C820 C819 1.375 . S
C820 C821 1.375 . S
C821 C820 1.375 . S
C821 C822 1.361 . S
C822 H782 0.930 . S
C822 C821 1.361 . S
C822 C823 1.399 . S
C823 H783 0.929 . S
C823 C818 1.386 . S
C823 C822 1.399 . S
C824 C803 1.485 . S
C824 C825 1.394 . S
C824 C829 1.360 . S
C825 H784 0.931 . S
C825 C824 1.394 . S
C825 C826 1.372 . S
C826 H785 0.930 . S
C826 C825 1.372 . S
C826 C827 1.397 . S
C827 C826 1.397 . S
C827 C828 1.390 . S
C827 C843 1.476 . S
C828 H786 0.930 . S
C828 C827 1.390 . S
C828 C829 1.366 . S
C829 H787 0.932 . S
C829 C824 1.360 . S
C829 C828 1.366 . S
C830 C804 1.490 . S
C830 C831 1.380 . S
C830 C835 1.386 . S
C831 H788 0.930 . S
C831 C830 1.380 . S
C831 C832 1.381 . S
C832 H789 0.929 . S
C832 C831 1.381 . S
C832 C833 1.371 . S
C833 C832 1.371 . S
C833 C834 1.380 . S
C834 H790 0.931 . S
C834 C833 1.380 . S
C834 C835 1.387 . S
C835 H791 0.930 . S
C835 C830 1.386 . S
C835 C834 1.387 . S
C836 C805 1.519 . S
C836 C837 1.377 . S
C836 C841 1.361 . S
C837 H792 0.929 . S
C837 C836 1.377 . S
C837 C838 1.386 . S
C838 H793 0.931 . S
C838 C837 1.386 . S
C838 C839 1.363 . S
C839 C838 1.363 . S
C839 C840 1.385 . S
C840 H794 0.930 . S
C840 C839 1.385 . S
C840 C841 1.396 . S
C841 H795 0.929 . S
C841 C836 1.361 . S
C841 C840 1.396 . S
C842 O796 1.300 . S
C842 O797 1.209 . S
C842 C815 1.486 . S
C843 O798 1.199 . S
C843 O799 1.297 . S
C843 C827 1.476 . S
H844 O870 0.856 . S
H845 O873 0.854 . S
H846 C881 0.930 . S
H847 C882 0.930 . S
H848 C884 0.930 . S
H849 C885 0.930 . S
H850 C887 0.931 . S
H851 C888 0.930 . S
H852 C890 0.930 . S
H853 C891 0.929 . S
H854 C893 0.930 . S
H855 C894 0.931 . S
H856 C896 0.930 . S
H857 C897 0.929 . S
H858 C899 0.931 . S
H859 C900 0.930 . S
H860 C902 0.930 . S
H861 C903 0.932 . S
H862 C905 0.930 . S
H863 C906 0.929 . S
H864 C908 0.931 . S
H865 C909 0.930 . S
H866 C911 0.929 . S
H867 C912 0.931 . S
H868 C914 0.930 . S
H869 C915 0.929 . S
O870 H844 0.856 . S
O870 C916 1.300 . S
O871 C916 1.209 . S
O872 C917 1.199 . S
O873 H845 0.854 . S
O873 C917 1.297 . S
C874 C875 1.404 . S
C874 C879 1.397 . S
C874 C880 1.492 . S
C875 C874 1.404 . S
C875 C876 1.396 . S
C875 C886 1.492 . S
C876 C875 1.396 . S
C876 C877 1.397 . S
C876 C892 1.509 . S
C877 C876 1.397 . S
C877 C878 1.412 . S
C877 C898 1.485 . S
C878 C877 1.412 . S
C878 C879 1.388 . S
C878 C904 1.490 . S
C879 C874 1.397 . S
C879 C878 1.388 . S
C879 C910 1.519 . S
C880 C874 1.492 . S
C880 C881 1.363 . S
C880 C885 1.390 . S
C881 H846 0.930 . S
C881 C880 1.363 . S
C881 C882 1.372 . S
C882 H847 0.930 . S
C882 C881 1.372 . S
C882 C883 1.383 . S
C883 C882 1.383 . S
C883 C884 1.395 . S
C884 H848 0.930 . S
C884 C883 1.395 . S
C884 C885 1.362 . S
C885 H849 0.930 . S
C885 C880 1.390 . S
C885 C884 1.362 . S
C886 C875 1.492 . S
C886 C887 1.377 . S
C886 C891 1.397 . S
C887 H850 0.931 . S
C887 C886 1.377 . S
C887 C888 1.376 . S
C888 H851 0.930 . S
C888 C887 1.376 . S
C888 C889 1.376 . S
C889 C888 1.376 . S
C889 C890 1.378 . S
C889 C916 1.486 . S
C890 H852 0.930 . S
C890 C889 1.378 . S
C890 C891 1.376 . S
C891 H853 0.929 . S
C891 C886 1.397 . S
C891 C890 1.376 . S
C892 C876 1.509 . S
C892 C893 1.391 . S
C892 C897 1.386 . S
C893 H854 0.930 . S
C893 C892 1.391 . S
C893 C894 1.375 . S
C894 H855 0.931 . S
C894 C893 1.375 . S
C894 C895 1.375 . S
C895 C894 1.375 . S
C895 C896 1.361 . S
C896 H856 0.930 . S
C896 C895 1.361 . S
C896 C897 1.399 . S
C897 H857 0.929 . S
C897 C892 1.386 . S
C897 C896 1.399 . S
C898 C877 1.485 . S
C898 C899 1.394 . S
C898 C903 1.360 . S
C899 H858 0.931 . S
C899 C898 1.394 . S
C899 C900 1.372 . S
C900 H859 0.930 . S
C900 C899 1.372 . S
C900 C901 1.397 . S
C901 C900 1.397 . S
C901 C902 1.390 . S
C901 C917 1.476 . S
C902 H860 0.930 . S
C902 C901 1.390 . S
C902 C903 1.366 . S
C903 H861 0.932 . S
C903 C898 1.360 . S
C903 C902 1.366 . S
C904 C878 1.490 . S
C904 C905 1.380 . S
C904 C909 1.386 . S
C905 H862 0.930 . S
C905 C904 1.380 . S
C905 C906 1.381 . S
C906 H863 0.929 . S
C906 C905 1.381 . S
C906 C907 1.371 . S
C907 C906 1.371 . S
C907 C908 1.380 . S
C908 H864 0.931 . S
C908 C907 1.380 . S
C908 C909 1.387 . S
C909 H865 0.930 . S
C909 C904 1.386 . S
C909 C908 1.387 . S
C910 C879 1.519 . S
C910 C911 1.377 . S
C910 C915 1.361 . S
C911 H866 0.929 . S
C911 C910 1.377 . S
C911 C912 1.386 . S
C912 H867 0.931 . S
C912 C911 1.386 . S
C912 C913 1.363 . S
C913 C912 1.363 . S
C913 C914 1.385 . S
C914 H868 0.930 . S
C914 C913 1.385 . S
C914 C915 1.396 . S
C915 H869 0.929 . S
C915 C910 1.361 . S
C915 C914 1.396 . S
C916 O870 1.300 . S
C916 O871 1.209 . S
C916 C889 1.486 . S
C917 O872 1.199 . S
C917 O873 1.297 . S
C917 C901 1.476 . S
H918 O944 0.856 . S
H919 O947 0.854 . S
H920 C955 0.930 . S
H921 C956 0.930 . S
H922 C958 0.930 . S
H923 C959 0.930 . S
H924 C961 0.931 . S
H925 C962 0.930 1_655 S
H926 C964 0.930 . S
H927 C965 0.929 . S
H928 C967 0.930 . S
H929 C968 0.931 1_655 S
H930 C970 0.930 . S
H931 C971 0.929 . S
H932 C973 0.931 . S
H933 C974 0.930 . S
H934 C976 0.930 . S
H935 C977 0.932 . S
H936 C979 0.930 . S
H937 C980 0.929 . S
H938 C982 0.931 . S
H939 C983 0.930 . S
H940 C985 0.929 . S
H941 C986 0.931 . S
H942 C988 0.930 . S
H943 C989 0.929 . S
O944 H918 0.856 . S
O944 C990 1.300 . S
O945 C990 1.209 . S
O946 C991 1.199 1_655 S
O947 H919 0.854 . S
O947 C991 1.297 . S
C948 C949 1.404 . S
C948 C953 1.395 . S
C948 C954 1.492 . S
C949 C948 1.404 . S
C949 C950 1.396 . S
C949 C960 1.492 . S
C950 C949 1.396 . S
C950 C951 1.397 . S
C950 C966 1.509 . S
C951 C950 1.397 . S
C951 C952 1.427 . S
C951 C972 1.485 . S
C952 C951 1.427 . S
C952 C953 1.402 . S
C952 C978 1.490 1_455 S
C953 C948 1.395 . S
C953 C952 1.402 . S
C953 C984 1.484 1_455 S
C954 C948 1.492 . S
C954 C955 1.363 1_455 S
C954 C959 1.390 . S
C955 H920 0.930 . S
C955 C954 1.363 1_655 S
C955 C956 1.372 . S
C956 H921 0.930 . S
C956 C955 1.372 . S
C956 C957 1.383 . S
C957 C956 1.383 . S
C957 C958 1.395 1_655 S
C958 H922 0.930 . S
C958 C957 1.395 1_455 S
C958 C959 1.362 . S
C959 H923 0.930 . S
C959 C954 1.390 . S
C959 C958 1.362 . S
C960 C949 1.492 . S
C960 C961 1.377 1_455 S
C960 C965 1.397 . S
C961 H924 0.931 . S
C961 C960 1.377 1_655 S
C961 C962 1.376 1_655 S
C962 H925 0.930 1_455 S
C962 C961 1.376 1_455 S
C962 C963 1.376 . S
C963 C962 1.376 . S
C963 C964 1.378 . S
C963 C990 1.486 . S
C964 H926 0.930 . S
C964 C963 1.378 . S
C964 C965 1.376 . S
C965 H927 0.929 . S
C965 C960 1.397 . S
C965 C964 1.376 . S
C966 C950 1.509 . S
C966 C967 1.391 1_455 S
C966 C971 1.386 . S
C967 H928 0.930 . S
C967 C966 1.391 1_655 S
C967 C968 1.375 1_655 S
C968 H929 0.931 1_455 S
C968 C967 1.375 1_455 S
C968 C969 1.375 . S
C969 C968 1.375 . S
C969 C970 1.361 . S
C970 H930 0.930 . S
C970 C969 1.361 . S
C970 C971 1.399 . S
C971 H931 0.929 . S
C971 C966 1.386 . S
C971 C970 1.399 . S
C972 C951 1.485 . S
C972 C973 1.394 1_455 S
C972 C977 1.360 . S
C973 H932 0.931 . S
C973 C972 1.394 1_655 S
C973 C974 1.372 . S
C974 H933 0.930 . S
C974 C973 1.372 . S
C974 C975 1.397 1_655 S
C975 C974 1.397 1_455 S
C975 C976 1.390 . S
C975 C991 1.476 . S
C976 H934 0.930 . S
C976 C975 1.390 . S
C976 C977 1.366 . S
C977 H935 0.932 . S
C977 C972 1.360 . S
C977 C976 1.366 . S
C978 C952 1.490 1_655 S
C978 C979 1.380 . S
C978 C983 1.386 1_655 S
C979 H936 0.930 . S
C979 C978 1.380 . S
C979 C980 1.381 . S
C980 H937 0.929 . S
C980 C979 1.381 . S
C980 C981 1.371 . S
C981 C980 1.371 . S
C981 C982 1.380 1_655 S
C982 H938 0.931 . S
C982 C981 1.380 1_455 S
C982 C983 1.387 . S
C983 H939 0.930 . S
C983 C978 1.386 1_455 S
C983 C982 1.387 . S
C984 C953 1.484 1_655 S
C984 C985 1.416 . S
C984 C989 1.336 1_655 S
C985 H940 0.929 . S
C985 C984 1.416 . S
C985 C986 1.386 . S
C986 H941 0.931 . S
C986 C985 1.386 . S
C986 C987 1.395 . S
C987 C986 1.395 . S
C987 C988 1.336 1_655 S
C988 H942 0.930 . S
C988 C987 1.336 1_455 S
C988 C989 1.396 . S
C989 H943 0.929 . S
C989 C984 1.336 1_455 S
C989 C988 1.396 . S
C990 O944 1.300 . S
C990 O945 1.209 . S
C990 C963 1.486 . S
C991 O946 1.199 1_455 S
C991 O947 1.297 . S
C991 C975 1.476 . S
H992 O1018 0.856 . S
H993 O1021 0.854 . S
H994 C1029 0.930 . S
H995 C1030 0.930 . S
H996 C1032 0.930 . S
H997 C1033 0.930 . S
H998 C1035 0.931 . S
H999 C1036 0.930 . S
H1000 C1038 0.930 . S
H1001 C1039 0.929 . S
H1002 C1041 0.930 . S
H1003 C1042 0.931 . S
H1004 C1044 0.930 . S
H1005 C1045 0.929 . S
H1006 C1047 0.931 . S
H1007 C1048 0.930 . S
H1008 C1050 0.930 . S
H1009 C1051 0.932 . S
H1010 C1053 0.930 . S
H1011 C1054 0.929 . S
H1012 C1056 0.931 . S
H1013 C1057 0.930 . S
H1014 C1059 0.929 . S
H1015 C1060 0.931 . S
H1016 C1062 0.930 . S
H1017 C1063 0.929 . S
O1018 H992 0.856 . S
O1018 C1064 1.300 . S
O1019 C1064 1.209 . S
O1020 C1065 1.199 . S
O1021 H993 0.854 . S
O1021 C1065 1.297 . S
C1022 C1023 1.404 . S
C1022 C1027 1.397 . S
C1022 C1028 1.492 . S
C1023 C1022 1.404 . S
C1023 C1024 1.396 . S
C1023 C1034 1.492 . S
C1024 C1023 1.396 . S
C1024 C1025 1.397 . S
C1024 C1040 1.509 . S
C1025 C1024 1.397 . S
C1025 C1026 1.412 . S
C1025 C1046 1.485 . S
C1026 C1025 1.412 . S
C1026 C1027 1.388 . S
C1026 C1052 1.490 . S
C1027 C1022 1.397 . S
C1027 C1026 1.388 . S
C1027 C1058 1.519 . S
C1028 C1022 1.492 . S
C1028 C1029 1.363 . S
C1028 C1033 1.390 . S
C1029 H994 0.930 . S
C1029 C1028 1.363 . S
C1029 C1030 1.372 . S
C1030 H995 0.930 . S
C1030 C1029 1.372 . S
C1030 C1031 1.383 . S
C1031 C1030 1.383 . S
C1031 C1032 1.395 . S
C1032 H996 0.930 . S
C1032 C1031 1.395 . S
C1032 C1033 1.362 . S
C1033 H997 0.930 . S
C1033 C1028 1.390 . S
C1033 C1032 1.362 . S
C1034 C1023 1.492 . S
C1034 C1035 1.377 . S
C1034 C1039 1.397 . S
C1035 H998 0.931 . S
C1035 C1034 1.377 . S
C1035 C1036 1.376 . S
C1036 H999 0.930 . S
C1036 C1035 1.376 . S
C1036 C1037 1.376 . S
C1037 C1036 1.376 . S
C1037 C1038 1.378 . S
C1037 C1064 1.486 . S
C1038 H1000 0.930 . S
C1038 C1037 1.378 . S
C1038 C1039 1.376 . S
C1039 H1001 0.929 . S
C1039 C1034 1.397 . S
C1039 C1038 1.376 . S
C1040 C1024 1.509 . S
C1040 C1041 1.391 . S
C1040 C1045 1.386 . S
C1041 H1002 0.930 . S
C1041 C1040 1.391 . S
C1041 C1042 1.375 . S
C1042 H1003 0.931 . S
C1042 C1041 1.375 . S
C1042 C1043 1.375 . S
C1043 C1042 1.375 . S
C1043 C1044 1.361 . S
C1044 H1004 0.930 . S
C1044 C1043 1.361 . S
C1044 C1045 1.399 . S
C1045 H1005 0.929 . S
C1045 C1040 1.386 . S
C1045 C1044 1.399 . S
C1046 C1025 1.485 . S
C1046 C1047 1.394 . S
C1046 C1051 1.360 . S
C1047 H1006 0.931 . S
C1047 C1046 1.394 . S
C1047 C1048 1.372 . S
C1048 H1007 0.930 . S
C1048 C1047 1.372 . S
C1048 C1049 1.397 . S
C1049 C1048 1.397 . S
C1049 C1050 1.390 . S
C1049 C1065 1.476 . S
C1050 H1008 0.930 . S
C1050 C1049 1.390 . S
C1050 C1051 1.366 . S
C1051 H1009 0.932 . S
C1051 C1046 1.360 . S
C1051 C1050 1.366 . S
C1052 C1026 1.490 . S
C1052 C1053 1.380 . S
C1052 C1057 1.386 . S
C1053 H1010 0.930 . S
C1053 C1052 1.380 . S
C1053 C1054 1.381 . S
C1054 H1011 0.929 . S
C1054 C1053 1.381 . S
C1054 C1055 1.371 . S
C1055 C1054 1.371 . S
C1055 C1056 1.380 . S
C1056 H1012 0.931 . S
C1056 C1055 1.380 . S
C1056 C1057 1.387 . S
C1057 H1013 0.930 . S
C1057 C1052 1.386 . S
C1057 C1056 1.387 . S
C1058 C1027 1.519 . S
C1058 C1059 1.377 . S
C1058 C1063 1.361 . S
C1059 H1014 0.929 . S
C1059 C1058 1.377 . S
C1059 C1060 1.386 . S
C1060 H1015 0.931 . S
C1060 C1059 1.386 . S
C1060 C1061 1.363 . S
C1061 C1060 1.363 . S
C1061 C1062 1.385 . S
C1062 H1016 0.930 . S
C1062 C1061 1.385 . S
C1062 C1063 1.396 . S
C1063 H1017 0.929 . S
C1063 C1058 1.361 . S
C1063 C1062 1.396 . S
C1064 O1018 1.300 . S
C1064 O1019 1.209 . S
C1064 C1037 1.486 . S
C1065 O1020 1.199 . S
C1065 O1021 1.297 . S
C1065 C1049 1.476 . S
H1066 O1092 0.856 . S
H1067 O1095 0.854 . S
H1068 C1103 0.930 . S
H1069 C1104 0.930 . S
H1070 C1106 0.930 . S
H1071 C1107 0.930 . S
H1072 C1109 0.931 . S
H1073 C1110 0.960 . S
H1074 C1112 0.930 . S
H1075 C1113 0.929 . S
H1076 C1115 0.930 . S
H1077 C1116 0.931 . S
H1078 C1118 0.930 . S
H1079 C1119 0.929 . S
H1080 C1121 0.931 . S
H1081 C1122 0.930 . S
H1082 C1124 0.930 . S
H1083 C1125 0.932 . S
H1084 C1127 0.930 . S
H1085 C1128 0.929 . S
H1086 C1130 0.931 . S
H1087 C1131 0.930 . S
H1088 C1133 0.929 . S
H1089 C1134 0.931 . S
H1090 C1136 0.930 . S
H1091 C1137 0.929 . S
O1092 H1066 0.856 . S
O1092 C1138 1.300 . S
O1093 C1138 1.209 . S
O1094 C1139 1.199 1_545 S
O1095 H1067 0.854 . S
O1095 C1139 1.297 . S
C1096 C1097 1.404 . S
C1096 C1101 1.413 . S
C1096 C1102 1.492 . S
C1097 C1096 1.404 . S
C1097 C1098 1.396 . S
C1097 C1108 1.492 . S
C1098 C1097 1.396 . S
C1098 C1099 1.397 . S
C1098 C1114 1.509 . S
C1099 C1098 1.397 . S
C1099 C1100 1.411 . S
C1099 C1120 1.485 . S
C1100 C1099 1.411 . S
C1100 C1101 1.366 . S
C1100 C1126 1.489 1_565 S
C1101 C1096 1.413 . S
C1101 C1100 1.366 . S
C1101 C1132 1.531 1_565 S
C1102 C1096 1.492 . S
C1102 C1103 1.363 1_565 S
C1102 C1107 1.390 . S
C1103 H1068 0.930 . S
C1103 C1102 1.363 1_545 S
C1103 C1104 1.372 . S
C1104 H1069 0.930 . S
C1104 C1103 1.372 . S
C1104 C1105 1.383 . S
C1105 C1104 1.383 . S
C1105 C1106 1.395 1_545 S
C1106 H1070 0.930 . S
C1106 C1105 1.395 1_565 S
C1106 C1107 1.362 . S
C1107 H1071 0.930 . S
C1107 C1102 1.390 . S
C1107 C1106 1.362 . S
C1108 C1097 1.492 . S
C1108 C1109 1.377 1_565 S
C1108 C1113 1.397 . S
C1109 H1072 0.931 . S
C1109 C1108 1.377 1_545 S
C1109 C1110 1.392 . S
C1110 H1073 0.960 . S
C1110 C1109 1.392 . S
C1110 C1111 1.330 1_545 S
C1111 C1110 1.330 1_565 S
C1111 C1112 1.378 . S
C1111 C1138 1.486 . S
C1112 H1074 0.930 . S
C1112 C1111 1.378 . S
C1112 C1113 1.376 . S
C1113 H1075 0.929 . S
C1113 C1108 1.397 . S
C1113 C1112 1.376 . S
C1114 C1098 1.509 . S
C1114 C1115 1.391 1_565 S
C1114 C1119 1.386 . S
C1115 H1076 0.930 . S
C1115 C1114 1.391 1_545 S
C1115 C1116 1.375 . S
C1116 H1077 0.931 . S
C1116 C1115 1.375 . S
C1116 C1117 1.375 1_545 S
C1117 C1116 1.375 1_565 S
C1117 C1118 1.361 . S
C1118 H1078 0.930 . S
C1118 C1117 1.361 . S
C1118 C1119 1.399 . S
C1119 H1079 0.929 . S
C1119 C1114 1.386 . S
C1119 C1118 1.399 . S
C1120 C1099 1.485 . S
C1120 C1121 1.394 1_565 S
C1120 C1125 1.360 . S
C1121 H1080 0.931 . S
C1121 C1120 1.394 1_545 S
C1121 C1122 1.372 . S
C1122 H1081 0.930 . S
C1122 C1121 1.372 . S
C1122 C1123 1.397 1_545 S
C1123 C1122 1.397 1_565 S
C1123 C1124 1.390 . S
C1123 C1139 1.476 . S
C1124 H1082 0.930 . S
C1124 C1123 1.390 . S
C1124 C1125 1.366 . S
C1125 H1083 0.932 . S
C1125 C1120 1.360 . S
C1125 C1124 1.366 . S
C1126 C1100 1.489 1_545 S
C1126 C1127 1.380 . S
C1126 C1131 1.386 1_545 S
C1127 H1084 0.930 . S
C1127 C1126 1.380 . S
C1127 C1128 1.381 . S
C1128 H1085 0.929 . S
C1128 C1127 1.381 . S
C1128 C1129 1.371 . S
C1129 C1128 1.371 . S
C1129 C1130 1.380 1_545 S
C1130 H1086 0.931 . S
C1130 C1129 1.380 1_565 S
C1130 C1131 1.387 . S
C1131 H1087 0.930 . S
C1131 C1126 1.386 1_565 S
C1131 C1130 1.387 . S
C1132 C1101 1.531 1_545 S
C1132 C1133 1.374 . S
C1132 C1137 1.366 1_545 S
C1133 H1088 0.929 . S
C1133 C1132 1.374 . S
C1133 C1134 1.386 . S
C1134 H1089 0.931 . S
C1134 C1133 1.386 . S
C1134 C1135 1.363 1_545 S
C1135 C1134 1.363 1_565 S
C1135 C1136 1.385 . S
C1136 H1090 0.930 . S
C1136 C1135 1.385 . S
C1136 C1137 1.396 . S
C1137 H1091 0.929 . S
C1137 C1132 1.366 1_565 S
C1137 C1136 1.396 . S
C1138 O1092 1.300 . S
C1138 O1093 1.209 . S
C1138 C1111 1.486 . S
C1139 O1094 1.199 1_565 S
C1139 O1095 1.297 . S
C1139 C1123 1.476 . S
H1140 O1166 0.856 . S
H1141 O1169 0.854 . S
H1142 C1177 0.930 . S
H1143 C1178 0.930 . S
H1144 C1180 0.930 . S
H1145 C1181 0.930 . S
H1146 C1183 0.931 . S
H1147 C1184 0.930 . S
H1148 C1186 0.930 . S
H1149 C1187 0.929 . S
H1150 C1189 0.930 . S
H1151 C1190 0.931 . S
H1152 C1192 0.930 . S
H1153 C1193 0.929 . S
H1154 C1195 0.931 . S
H1155 C1196 0.930 . S
H1156 C1198 0.930 . S
H1157 C1199 0.932 . S
H1158 C1201 0.930 . S
H1159 C1202 0.929 . S
H1160 C1204 0.931 . S
H1161 C1205 0.930 . S
H1162 C1207 0.929 . S
H1163 C1208 0.931 . S
H1164 C1210 0.930 . S
H1165 C1211 0.929 . S
O1166 H1140 0.856 . S
O1166 C1212 1.300 . S
O1167 C1212 1.209 1_565 S
O1168 C1213 1.199 1_545 S
O1169 H1141 0.854 . S
O1169 C1213 1.297 . S
C1170 C1171 1.404 . S
C1170 C1175 1.397 1_545 S
C1170 C1176 1.492 . S
C1171 C1170 1.404 . S
C1171 C1172 1.426 . S
C1171 C1182 1.492 . S
C1172 C1171 1.426 . S
C1172 C1173 1.378 1_545 S
C1172 C1188 1.503 . S
C1173 C1172 1.378 1_565 S
C1173 C1174 1.416 . S
C1173 C1194 1.504 . S
C1174 C1173 1.416 . S
C1174 C1175 1.365 . S
C1174 C1200 1.488 . S
C1175 C1170 1.397 1_565 S
C1175 C1174 1.365 . S
C1175 C1206 1.519 . S
C1176 C1170 1.492 . S
C1176 C1177 1.363 . S
C1176 C1181 1.390 1_545 S
C1177 H1142 0.930 . S
C1177 C1176 1.363 . S
C1177 C1178 1.372 . S
C1178 H1143 0.930 . S
C1178 C1177 1.372 . S
C1178 C1179 1.383 . S
C1179 C1178 1.383 . S
C1179 C1180 1.395 1_545 S
C1180 H1144 0.930 . S
C1180 C1179 1.395 1_565 S
C1180 C1181 1.362 . S
C1181 H1145 0.930 . S
C1181 C1176 1.390 1_565 S
C1181 C1180 1.362 . S
C1182 C1171 1.492 . S
C1182 C1183 1.377 . S
C1182 C1187 1.397 1_545 S
C1183 H1146 0.931 . S
C1183 C1182 1.377 . S
C1183 C1184 1.376 . S
C1184 H1147 0.930 . S
C1184 C1183 1.376 . S
C1184 C1185 1.376 . S
C1185 C1184 1.376 . S
C1185 C1186 1.378 1_545 S
C1185 C1212 1.486 . S
C1186 H1148 0.930 . S
C1186 C1185 1.378 1_565 S
C1186 C1187 1.376 . S
C1187 H1149 0.929 . S
C1187 C1182 1.397 1_565 S
C1187 C1186 1.376 . S
C1188 C1172 1.503 . S
C1188 C1189 1.406 . S
C1188 C1193 1.361 1_545 S
C1189 H1150 0.930 . S
C1189 C1188 1.406 . S
C1189 C1190 1.375 . S
C1190 H1151 0.931 . S
C1190 C1189 1.375 . S
C1190 C1191 1.372 . S
C1191 C1190 1.372 . S
C1191 C1192 1.364 1_545 S
C1192 H1152 0.930 . S
C1192 C1191 1.364 1_565 S
C1192 C1193 1.399 . S
C1193 H1153 0.929 . S
C1193 C1188 1.361 1_565 S
C1193 C1192 1.399 . S
C1194 C1173 1.504 . S
C1194 C1195 1.394 1_565 S
C1194 C1199 1.360 . S
C1195 H1154 0.931 . S
C1195 C1194 1.394 1_545 S
C1195 C1196 1.372 . S
C1196 H1155 0.930 . S
C1196 C1195 1.372 . S
C1196 C1197 1.397 1_545 S
C1197 C1196 1.397 1_565 S
C1197 C1198 1.390 . S
C1197 C1213 1.476 . S
C1198 H1156 0.930 . S
C1198 C1197 1.390 . S
C1198 C1199 1.366 . S
C1199 H1157 0.932 . S
C1199 C1194 1.360 . S
C1199 C1198 1.366 . S
C1200 C1174 1.488 . S
C1200 C1201 1.339 1_565 S
C1200 C1205 1.438 . S
C1201 H1158 0.930 . S
C1201 C1200 1.339 1_545 S
C1201 C1202 1.381 . S
C1202 H1159 0.929 . S
C1202 C1201 1.381 . S
C1202 C1203 1.383 . S
C1203 C1202 1.383 . S
C1203 C1204 1.370 1_545 S
C1204 H1160 0.931 . S
C1204 C1203 1.370 1_565 S
C1204 C1205 1.387 . S
C1205 H1161 0.930 . S
C1205 C1200 1.438 . S
C1205 C1204 1.387 . S
C1206 C1175 1.519 . S
C1206 C1207 1.377 1_565 S
C1206 C1211 1.361 . S
C1207 H1162 0.929 . S
C1207 C1206 1.377 1_545 S
C1207 C1208 1.386 . S
C1208 H1163 0.931 . S
C1208 C1207 1.386 . S
C1208 C1209 1.363 1_545 S
C1209 C1208 1.363 1_565 S
C1209 C1210 1.385 . S
C1210 H1164 0.930 . S
C1210 C1209 1.385 . S
C1210 C1211 1.396 . S
C1211 H1165 0.929 . S
C1211 C1206 1.361 . S
C1211 C1210 1.396 . S
C1212 O1166 1.300 . S
C1212 O1167 1.209 1_545 S
C1212 C1185 1.486 . S
C1213 O1168 1.199 1_565 S
C1213 O1169 1.297 . S
C1213 C1197 1.476 . S
H1214 O1240 0.856 . S
H1215 O1243 0.854 . S
H1216 C1251 0.930 . S
H1217 C1252 0.930 . S
H1218 C1254 0.930 . S
H1219 C1255 0.930 . S
H1220 C1257 0.931 . S
H1221 C1258 0.930 . S
H1222 C1260 0.930 . S
H1223 C1261 0.929 . S
H1224 C1263 0.930 . S
H1225 C1264 0.931 . S
H1226 C1266 0.930 . S
H1227 C1267 0.929 . S
H1228 C1269 0.931 . S
H1229 C1270 0.930 . S
H1230 C1272 0.930 . S
H1231 C1273 0.932 . S
H1232 C1275 0.930 . S
H1233 C1276 0.929 . S
H1234 C1278 0.931 . S
H1235 C1279 0.930 . S
H1236 C1281 0.929 . S
H1237 C1282 0.931 . S
H1238 C1284 0.930 . S
H1239 C1285 0.929 . S
O1240 H1214 0.856 . S
O1240 C1286 1.300 . S
O1241 C1286 1.209 1_455 S
O1242 C1287 1.199 1_655 S
O1243 H1215 0.854 . S
O1243 C1287 1.297 . S
C1244 C1245 1.404 . S
C1244 C1249 1.396 1_655 S
C1244 C1250 1.492 . S
C1245 C1244 1.404 . S
C1245 C1246 1.396 . S
C1245 C1256 1.492 . S
C1246 C1245 1.396 . S
C1246 C1247 1.396 . S
C1246 C1262 1.509 . S
C1247 C1246 1.396 . S
C1247 C1248 1.397 1_655 S
C1247 C1268 1.521 1_655 S
C1248 C1247 1.397 1_455 S
C1248 C1249 1.409 . S
C1248 C1274 1.486 . S
C1249 C1244 1.396 1_455 S
C1249 C1248 1.409 . S
C1249 C1280 1.515 . S
C1250 C1244 1.492 . S
C1250 C1251 1.363 . S
C1250 C1255 1.390 1_655 S
C1251 H1216 0.930 . S
C1251 C1250 1.363 . S
C1251 C1252 1.372 . S
C1252 H1217 0.930 . S
C1252 C1251 1.372 . S
C1252 C1253 1.383 . S
C1253 C1252 1.383 . S
C1253 C1254 1.395 1_655 S
C1254 H1218 0.930 . S
C1254 C1253 1.395 1_455 S
C1254 C1255 1.362 . S
C1255 H1219 0.930 . S
C1255 C1250 1.390 1_455 S
C1255 C1254 1.362 . S
C1256 C1245 1.492 . S
C1256 C1257 1.377 . S
C1256 C1261 1.397 1_655 S
C1257 H1220 0.931 . S
C1257 C1256 1.377 . S
C1257 C1258 1.376 . S
C1258 H1221 0.930 . S
C1258 C1257 1.376 . S
C1258 C1259 1.376 . S
C1259 C1258 1.376 . S
C1259 C1260 1.378 1_655 S
C1259 C1286 1.486 . S
C1260 H1222 0.930 . S
C1260 C1259 1.378 1_455 S
C1260 C1261 1.376 . S
C1261 H1223 0.929 . S
C1261 C1256 1.397 1_455 S
C1261 C1260 1.376 . S
C1262 C1246 1.509 . S
C1262 C1263 1.391 . S
C1262 C1267 1.386 1_655 S
C1263 H1224 0.930 . S
C1263 C1262 1.391 . S
C1263 C1264 1.375 . S
C1264 H1225 0.931 . S
C1264 C1263 1.375 . S
C1264 C1265 1.375 . S
C1265 C1264 1.375 . S
C1265 C1266 1.361 1_655 S
C1266 H1226 0.930 . S
C1266 C1265 1.361 1_455 S
C1266 C1267 1.399 . S
C1267 H1227 0.929 . S
C1267 C1262 1.386 1_455 S
C1267 C1266 1.399 . S
C1268 C1247 1.521 1_455 S
C1268 C1269 1.341 1_455 S
C1268 C1273 1.385 . S
C1269 H1228 0.931 . S
C1269 C1268 1.341 1_655 S
C1269 C1270 1.372 . S
C1270 H1229 0.930 . S
C1270 C1269 1.372 . S
C1270 C1271 1.397 1_655 S
C1271 C1270 1.397 1_455 S
C1271 C1272 1.390 . S
C1271 C1287 1.476 . S
C1272 H1230 0.930 . S
C1272 C1271 1.390 . S
C1272 C1273 1.366 . S
C1273 H1231 0.932 . S
C1273 C1268 1.385 . S
C1273 C1272 1.366 . S
C1274 C1248 1.486 . S
C1274 C1275 1.380 1_455 S
C1274 C1279 1.386 . S
C1275 H1232 0.930 . S
C1275 C1274 1.380 1_655 S
C1275 C1276 1.381 . S
C1276 H1233 0.929 . S
C1276 C1275 1.381 . S
C1276 C1277 1.371 1_655 S
C1277 C1276 1.371 1_455 S
C1277 C1278 1.380 . S
C1278 H1234 0.931 . S
C1278 C1277 1.380 . S
C1278 C1279 1.387 . S
C1279 H1235 0.930 . S
C1279 C1274 1.386 . S
C1279 C1278 1.387 . S
C1280 C1249 1.515 . S
C1280 C1281 1.377 1_455 S
C1280 C1285 1.361 . S
C1281 H1236 0.929 . S
C1281 C1280 1.377 1_655 S
C1281 C1282 1.386 . S
C1282 H1237 0.931 . S
C1282 C1281 1.386 . S
C1282 C1283 1.363 1_655 S
C1283 C1282 1.363 1_455 S
C1283 C1284 1.385 . S
C1284 H1238 0.930 . S
C1284 C1283 1.385 . S
C1284 C1285 1.396 . S
C1285 H1239 0.929 . S
C1285 C1280 1.361 . S
C1285 C1284 1.396 . S
C1286 O1240 1.300 . S
C1286 O1241 1.209 1_655 S
C1286 C1259 1.486 . S
C1287 O1242 1.199 1_455 S
C1287 O1243 1.297 . S
C1287 C1271 1.476 . S
H1288 O1314 0.856 . S
H1289 O1317 0.854 . S
H1290 C1325 0.930 . S
H1291 C1326 0.930 . S
H1292 C1328 0.930 . S
H1293 C1329 0.930 . S
H1294 C1331 0.931 . S
H1295 C1332 0.930 . S
H1296 C1334 0.930 . S
H1297 C1335 0.929 . S
H1298 C1337 0.930 . S
H1299 C1338 0.931 . S
H1300 C1340 0.930 . S
H1301 C1341 0.929 . S
H1302 C1343 0.931 . S
H1303 C1344 0.930 . S
H1304 C1346 0.930 . S
H1305 C1347 0.932 . S
H1306 C1349 0.930 . S
H1307 C1350 0.929 . S
H1308 C1352 0.931 . S
H1309 C1353 0.930 . S
H1310 C1355 0.929 . S
H1311 C1356 0.931 . S
H1312 C1358 0.930 . S
H1313 C1359 0.929 . S
O1314 H1288 0.856 . S
O1314 C1360 1.300 . S
O1315 C1360 1.209 . S
O1316 C1361 1.199 . S
O1317 H1289 0.854 . S
O1317 C1361 1.297 . S
C1318 C1319 1.404 . S
C1318 C1323 1.397 . S
C1318 C1324 1.492 . S
C1319 C1318 1.404 . S
C1319 C1320 1.396 . S
C1319 C1330 1.492 . S
C1320 C1319 1.396 . S
C1320 C1321 1.397 . S
C1320 C1336 1.509 . S
C1321 C1320 1.397 . S
C1321 C1322 1.412 . S
C1321 C1342 1.485 . S
C1322 C1321 1.412 . S
C1322 C1323 1.388 . S
C1322 C1348 1.490 . S
C1323 C1318 1.397 . S
C1323 C1322 1.388 . S
C1323 C1354 1.519 . S
C1324 C1318 1.492 . S
C1324 C1325 1.363 . S
C1324 C1329 1.390 . S
C1325 H1290 0.930 . S
C1325 C1324 1.363 . S
C1325 C1326 1.372 . S
C1326 H1291 0.930 . S
C1326 C1325 1.372 . S
C1326 C1327 1.383 . S
C1327 C1326 1.383 . S
C1327 C1328 1.395 . S
C1328 H1292 0.930 . S
C1328 C1327 1.395 . S
C1328 C1329 1.362 . S
C1329 H1293 0.930 . S
C1329 C1324 1.390 . S
C1329 C1328 1.362 . S
C1330 C1319 1.492 . S
C1330 C1331 1.377 . S
C1330 C1335 1.397 . S
C1331 H1294 0.931 . S
C1331 C1330 1.377 . S
C1331 C1332 1.376 . S
C1332 H1295 0.930 . S
C1332 C1331 1.376 . S
C1332 C1333 1.376 . S
C1333 C1332 1.376 . S
C1333 C1334 1.378 . S
C1333 C1360 1.486 . S
C1334 H1296 0.930 . S
C1334 C1333 1.378 . S
C1334 C1335 1.376 . S
C1335 H1297 0.929 . S
C1335 C1330 1.397 . S
C1335 C1334 1.376 . S
C1336 C1320 1.509 . S
C1336 C1337 1.391 . S
C1336 C1341 1.386 . S
C1337 H1298 0.930 . S
C1337 C1336 1.391 . S
C1337 C1338 1.375 . S
C1338 H1299 0.931 . S
C1338 C1337 1.375 . S
C1338 C1339 1.375 . S
C1339 C1338 1.375 . S
C1339 C1340 1.361 . S
C1340 H1300 0.930 . S
C1340 C1339 1.361 . S
C1340 C1341 1.399 . S
C1341 H1301 0.929 . S
C1341 C1336 1.386 . S
C1341 C1340 1.399 . S
C1342 C1321 1.485 . S
C1342 C1343 1.394 . S
C1342 C1347 1.360 . S
C1343 H1302 0.931 . S
C1343 C1342 1.394 . S
C1343 C1344 1.372 . S
C1344 H1303 0.930 . S
C1344 C1343 1.372 . S
C1344 C1345 1.397 . S
C1345 C1344 1.397 . S
C1345 C1346 1.390 . S
C1345 C1361 1.476 . S
C1346 H1304 0.930 . S
C1346 C1345 1.390 . S
C1346 C1347 1.366 . S
C1347 H1305 0.932 . S
C1347 C1342 1.360 . S
C1347 C1346 1.366 . S
C1348 C1322 1.490 . S
C1348 C1349 1.380 . S
C1348 C1353 1.386 . S
C1349 H1306 0.930 . S
C1349 C1348 1.380 . S
C1349 C1350 1.381 . S
C1350 H1307 0.929 . S
C1350 C1349 1.381 . S
C1350 C1351 1.371 . S
C1351 C1350 1.371 . S
C1351 C1352 1.380 . S
C1352 H1308 0.931 . S
C1352 C1351 1.380 . S
C1352 C1353 1.387 . S
C1353 H1309 0.930 . S
C1353 C1348 1.386 . S
C1353 C1352 1.387 . S
C1354 C1323 1.519 . S
C1354 C1355 1.377 . S
C1354 C1359 1.361 . S
C1355 H1310 0.929 . S
C1355 C1354 1.377 . S
C1355 C1356 1.386 . S
C1356 H1311 0.931 . S
C1356 C1355 1.386 . S
C1356 C1357 1.363 . S
C1357 C1356 1.363 . S
C1357 C1358 1.385 . S
C1358 H1312 0.930 . S
C1358 C1357 1.385 . S
C1358 C1359 1.396 . S
C1359 H1313 0.929 . S
C1359 C1354 1.361 . S
C1359 C1358 1.396 . S
C1360 O1314 1.300 . S
C1360 O1315 1.209 . S
C1360 C1333 1.486 . S
C1361 O1316 1.199 . S
C1361 O1317 1.297 . S
C1361 C1345 1.476 . S
H1362 O1388 0.856 . S
H1363 O1391 0.854 . S
H1364 C1399 0.930 . S
H1365 C1400 0.930 . S
H1366 C1402 0.930 . S
H1367 C1403 0.930 . S
H1368 C1405 0.931 . S
H1369 C1406 0.930 . S
H1370 C1408 0.930 . S
H1371 C1409 0.929 . S
H1372 C1411 0.930 . S
H1373 C1412 0.931 . S
H1374 C1414 0.930 . S
H1375 C1415 0.929 . S
H1376 C1417 0.931 . S
H1377 C1418 0.930 . S
H1378 C1420 0.930 . S
H1379 C1421 0.932 . S
H1380 C1423 0.930 . S
H1381 C1424 0.929 . S
H1382 C1426 0.931 . S
H1383 C1427 0.930 . S
H1384 C1429 0.929 . S
H1385 C1430 0.931 . S
H1386 C1432 0.930 . S
H1387 C1433 0.929 . S
O1388 H1362 0.856 . S
O1388 C1434 1.300 . S
O1389 C1434 1.209 . S
O1390 C1435 1.199 . S
O1391 H1363 0.854 . S
O1391 C1435 1.297 . S
C1392 C1393 1.404 . S
C1392 C1397 1.397 . S
C1392 C1398 1.492 . S
C1393 C1392 1.404 . S
C1393 C1394 1.396 . S
C1393 C1404 1.492 . S
C1394 C1393 1.396 . S
C1394 C1395 1.397 . S
C1394 C1410 1.509 . S
C1395 C1394 1.397 . S
C1395 C1396 1.412 . S
C1395 C1416 1.485 . S
C1396 C1395 1.412 . S
C1396 C1397 1.388 . S
C1396 C1422 1.490 . S
C1397 C1392 1.397 . S
C1397 C1396 1.388 . S
C1397 C1428 1.519 . S
C1398 C1392 1.492 . S
C1398 C1399 1.363 . S
C1398 C1403 1.390 . S
C1399 H1364 0.930 . S
C1399 C1398 1.363 . S
C1399 C1400 1.372 . S
C1400 H1365 0.930 . S
C1400 C1399 1.372 . S
C1400 C1401 1.383 . S
C1401 C1400 1.383 . S
C1401 C1402 1.395 . S
C1402 H1366 0.930 . S
C1402 C1401 1.395 . S
C1402 C1403 1.362 . S
C1403 H1367 0.930 . S
C1403 C1398 1.390 . S
C1403 C1402 1.362 . S
C1404 C1393 1.492 . S
C1404 C1405 1.377 . S
C1404 C1409 1.397 . S
C1405 H1368 0.931 . S
C1405 C1404 1.377 . S
C1405 C1406 1.376 . S
C1406 H1369 0.930 . S
C1406 C1405 1.376 . S
C1406 C1407 1.376 . S
C1407 C1406 1.376 . S
C1407 C1408 1.378 . S
C1407 C1434 1.486 . S
C1408 H1370 0.930 . S
C1408 C1407 1.378 . S
C1408 C1409 1.376 . S
C1409 H1371 0.929 . S
C1409 C1404 1.397 . S
C1409 C1408 1.376 . S
C1410 C1394 1.509 . S
C1410 C1411 1.391 . S
C1410 C1415 1.386 . S
C1411 H1372 0.930 . S
C1411 C1410 1.391 . S
C1411 C1412 1.375 . S
C1412 H1373 0.931 . S
C1412 C1411 1.375 . S
C1412 C1413 1.375 . S
C1413 C1412 1.375 . S
C1413 C1414 1.361 . S
C1414 H1374 0.930 . S
C1414 C1413 1.361 . S
C1414 C1415 1.399 . S
C1415 H1375 0.929 . S
C1415 C1410 1.386 . S
C1415 C1414 1.399 . S
C1416 C1395 1.485 . S
C1416 C1417 1.394 . S
C1416 C1421 1.360 . S
C1417 H1376 0.931 . S
C1417 C1416 1.394 . S
C1417 C1418 1.372 . S
C1418 H1377 0.930 . S
C1418 C1417 1.372 . S
C1418 C1419 1.397 . S
C1419 C1418 1.397 . S
C1419 C1420 1.390 . S
C1419 C1435 1.476 . S
C1420 H1378 0.930 . S
C1420 C1419 1.390 . S
C1420 C1421 1.366 . S
C1421 H1379 0.932 . S
C1421 C1416 1.360 . S
C1421 C1420 1.366 . S
C1422 C1396 1.490 . S
C1422 C1423 1.380 . S
C1422 C1427 1.386 . S
C1423 H1380 0.930 . S
C1423 C1422 1.380 . S
C1423 C1424 1.381 . S
C1424 H1381 0.929 . S
C1424 C1423 1.381 . S
C1424 C1425 1.371 . S
C1425 C1424 1.371 . S
C1425 C1426 1.380 . S
C1426 H1382 0.931 . S
C1426 C1425 1.380 . S
C1426 C1427 1.387 . S
C1427 H1383 0.930 . S
C1427 C1422 1.386 . S
C1427 C1426 1.387 . S
C1428 C1397 1.519 . S
C1428 C1429 1.377 . S
C1428 C1433 1.361 . S
C1429 H1384 0.929 . S
C1429 C1428 1.377 . S
C1429 C1430 1.386 . S
C1430 H1385 0.931 . S
C1430 C1429 1.386 . S
C1430 C1431 1.363 . S
C1431 C1430 1.363 . S
C1431 C1432 1.385 . S
C1432 H1386 0.930 . S
C1432 C1431 1.385 . S
C1432 C1433 1.396 . S
C1433 H1387 0.929 . S
C1433 C1428 1.361 . S
C1433 C1432 1.396 . S
C1434 O1388 1.300 . S
C1434 O1389 1.209 . S
C1434 C1407 1.486 . S
C1435 O1390 1.199 . S
C1435 O1391 1.297 . S
C1435 C1419 1.476 . S
H1436 O1462 0.856 . S
H1437 O1465 0.854 . S
H1438 C1473 0.930 . S
H1439 C1474 0.930 . S
H1440 C1476 0.930 . S
H1441 C1477 0.930 . S
H1442 C1479 0.931 . S
H1443 C1480 0.930 . S
H1444 C1482 0.930 . S
H1445 C1483 0.929 . S
H1446 C1485 0.930 . S
H1447 C1486 0.931 . S
H1448 C1488 0.930 . S
H1449 C1489 0.929 . S
H1450 C1491 0.931 . S
H1451 C1492 0.930 . S
H1452 C1494 0.930 . S
H1453 C1495 0.932 . S
H1454 C1497 0.930 . S
H1455 C1498 0.929 . S
H1456 C1500 0.931 . S
H1457 C1501 0.930 . S
H1458 C1503 0.929 . S
H1459 C1504 0.931 . S
H1460 C1506 0.930 . S
H1461 C1507 0.929 . S
O1462 H1436 0.856 . S
O1462 C1508 1.300 . S
O1463 C1508 1.209 . S
O1464 C1509 1.199 . S
O1465 H1437 0.854 . S
O1465 C1509 1.297 . S
C1466 C1467 1.404 . S
C1466 C1471 1.397 . S
C1466 C1472 1.492 . S
C1467 C1466 1.404 . S
C1467 C1468 1.396 . S
C1467 C1478 1.492 . S
C1468 C1467 1.396 . S
C1468 C1469 1.397 . S
C1468 C1484 1.509 . S
C1469 C1468 1.397 . S
C1469 C1470 1.412 . S
C1469 C1490 1.485 . S
C1470 C1469 1.412 . S
C1470 C1471 1.388 . S
C1470 C1496 1.490 . S
C1471 C1466 1.397 . S
C1471 C1470 1.388 . S
C1471 C1502 1.519 . S
C1472 C1466 1.492 . S
C1472 C1473 1.363 . S
C1472 C1477 1.390 . S
C1473 H1438 0.930 . S
C1473 C1472 1.363 . S
C1473 C1474 1.372 . S
C1474 H1439 0.930 . S
C1474 C1473 1.372 . S
C1474 C1475 1.383 . S
C1475 C1474 1.383 . S
C1475 C1476 1.395 . S
C1476 H1440 0.930 . S
C1476 C1475 1.395 . S
C1476 C1477 1.362 . S
C1477 H1441 0.930 . S
C1477 C1472 1.390 . S
C1477 C1476 1.362 . S
C1478 C1467 1.492 . S
C1478 C1479 1.377 . S
C1478 C1483 1.397 . S
C1479 H1442 0.931 . S
C1479 C1478 1.377 . S
C1479 C1480 1.376 . S
C1480 H1443 0.930 . S
C1480 C1479 1.376 . S
C1480 C1481 1.376 . S
C1481 C1480 1.376 . S
C1481 C1482 1.378 . S
C1481 C1508 1.486 . S
C1482 H1444 0.930 . S
C1482 C1481 1.378 . S
C1482 C1483 1.376 . S
C1483 H1445 0.929 . S
C1483 C1478 1.397 . S
C1483 C1482 1.376 . S
C1484 C1468 1.509 . S
C1484 C1485 1.391 . S
C1484 C1489 1.386 . S
C1485 H1446 0.930 . S
C1485 C1484 1.391 . S
C1485 C1486 1.375 . S
C1486 H1447 0.931 . S
C1486 C1485 1.375 . S
C1486 C1487 1.375 . S
C1487 C1486 1.375 . S
C1487 C1488 1.361 . S
C1488 H1448 0.930 . S
C1488 C1487 1.361 . S
C1488 C1489 1.399 . S
C1489 H1449 0.929 . S
C1489 C1484 1.386 . S
C1489 C1488 1.399 . S
C1490 C1469 1.485 . S
C1490 C1491 1.394 . S
C1490 C1495 1.360 . S
C1491 H1450 0.931 . S
C1491 C1490 1.394 . S
C1491 C1492 1.372 . S
C1492 H1451 0.930 . S
C1492 C1491 1.372 . S
C1492 C1493 1.397 . S
C1493 C1492 1.397 . S
C1493 C1494 1.390 . S
C1493 C1509 1.476 . S
C1494 H1452 0.930 . S
C1494 C1493 1.390 . S
C1494 C1495 1.366 . S
C1495 H1453 0.932 . S
C1495 C1490 1.360 . S
C1495 C1494 1.366 . S
C1496 C1470 1.490 . S
C1496 C1497 1.380 . S
C1496 C1501 1.386 . S
C1497 H1454 0.930 . S
C1497 C1496 1.380 . S
C1497 C1498 1.381 . S
C1498 H1455 0.929 . S
C1498 C1497 1.381 . S
C1498 C1499 1.371 . S
C1499 C1498 1.371 . S
C1499 C1500 1.380 . S
C1500 H1456 0.931 . S
C1500 C1499 1.380 . S
C1500 C1501 1.387 . S
C1501 H1457 0.930 . S
C1501 C1496 1.386 . S
C1501 C1500 1.387 . S
C1502 C1471 1.519 . S
C1502 C1503 1.377 . S
C1502 C1507 1.361 . S
C1503 H1458 0.929 . S
C1503 C1502 1.377 . S
C1503 C1504 1.386 . S
C1504 H1459 0.931 . S
C1504 C1503 1.386 . S
C1504 C1505 1.363 . S
C1505 C1504 1.363 . S
C1505 C1506 1.385 . S
C1506 H1460 0.930 . S
C1506 C1505 1.385 . S
C1506 C1507 1.396 . S
C1507 H1461 0.929 . S
C1507 C1502 1.361 . S
C1507 C1506 1.396 . S
C1508 O1462 1.300 . S
C1508 O1463 1.209 . S
C1508 C1481 1.486 . S
C1509 O1464 1.199 . S
C1509 O1465 1.297 . S
C1509 C1493 1.476 . S
H1510 O1536 0.856 . S
H1511 O1539 0.854 . S
H1512 C1547 0.930 . S
H1513 C1548 0.930 . S
H1514 C1550 0.930 . S
H1515 C1551 0.930 . S
H1516 C1553 0.931 . S
H1517 C1554 0.930 . S
H1518 C1556 0.930 . S
H1519 C1557 0.929 . S
H1520 C1559 0.930 . S
H1521 C1560 0.931 . S
H1522 C1562 0.930 . S
H1523 C1563 0.929 . S
H1524 C1565 0.931 . S
H1525 C1566 0.930 . S
H1526 C1568 0.930 . S
H1527 C1569 0.932 . S
H1528 C1571 0.930 . S
H1529 C1572 0.929 . S
H1530 C1574 0.931 . S
H1531 C1575 0.930 . S
H1532 C1577 0.929 . S
H1533 C1578 0.931 . S
H1534 C1580 0.930 . S
H1535 C1581 0.929 . S
O1536 H1510 0.856 . S
O1536 C1582 1.300 . S
O1537 C1582 1.209 . S
O1538 C1583 1.199 . S
O1539 H1511 0.854 . S
O1539 C1583 1.297 . S
C1540 C1541 1.404 . S
C1540 C1545 1.397 . S
C1540 C1546 1.492 . S
C1541 C1540 1.404 . S
C1541 C1542 1.396 . S
C1541 C1552 1.492 . S
C1542 C1541 1.396 . S
C1542 C1543 1.397 . S
C1542 C1558 1.509 . S
C1543 C1542 1.397 . S
C1543 C1544 1.412 . S
C1543 C1564 1.485 . S
C1544 C1543 1.412 . S
C1544 C1545 1.388 . S
C1544 C1570 1.490 . S
C1545 C1540 1.397 . S
C1545 C1544 1.388 . S
C1545 C1576 1.519 . S
C1546 C1540 1.492 . S
C1546 C1547 1.363 . S
C1546 C1551 1.390 . S
C1547 H1512 0.930 . S
C1547 C1546 1.363 . S
C1547 C1548 1.372 . S
C1548 H1513 0.930 . S
C1548 C1547 1.372 . S
C1548 C1549 1.383 . S
C1549 C1548 1.383 . S
C1549 C1550 1.395 . S
C1550 H1514 0.930 . S
C1550 C1549 1.395 . S
C1550 C1551 1.362 . S
C1551 H1515 0.930 . S
C1551 C1546 1.390 . S
C1551 C1550 1.362 . S
C1552 C1541 1.492 . S
C1552 C1553 1.377 . S
C1552 C1557 1.397 . S
C1553 H1516 0.931 . S
C1553 C1552 1.377 . S
C1553 C1554 1.376 . S
C1554 H1517 0.930 . S
C1554 C1553 1.376 . S
C1554 C1555 1.376 . S
C1555 C1554 1.376 . S
C1555 C1556 1.378 . S
C1555 C1582 1.486 . S
C1556 H1518 0.930 . S
C1556 C1555 1.378 . S
C1556 C1557 1.376 . S
C1557 H1519 0.929 . S
C1557 C1552 1.397 . S
C1557 C1556 1.376 . S
C1558 C1542 1.509 . S
C1558 C1559 1.391 . S
C1558 C1563 1.386 . S
C1559 H1520 0.930 . S
C1559 C1558 1.391 . S
C1559 C1560 1.375 . S
C1560 H1521 0.931 . S
C1560 C1559 1.375 . S
C1560 C1561 1.375 . S
C1561 C1560 1.375 . S
C1561 C1562 1.361 . S
C1562 H1522 0.930 . S
C1562 C1561 1.361 . S
C1562 C1563 1.399 . S
C1563 H1523 0.929 . S
C1563 C1558 1.386 . S
C1563 C1562 1.399 . S
C1564 C1543 1.485 . S
C1564 C1565 1.394 . S
C1564 C1569 1.360 . S
C1565 H1524 0.931 . S
C1565 C1564 1.394 . S
C1565 C1566 1.372 . S
C1566 H1525 0.930 . S
C1566 C1565 1.372 . S
C1566 C1567 1.397 . S
C1567 C1566 1.397 . S
C1567 C1568 1.390 . S
C1567 C1583 1.476 . S
C1568 H1526 0.930 . S
C1568 C1567 1.390 . S
C1568 C1569 1.366 . S
C1569 H1527 0.932 . S
C1569 C1564 1.360 . S
C1569 C1568 1.366 . S
C1570 C1544 1.490 . S
C1570 C1571 1.380 . S
C1570 C1575 1.386 . S
C1571 H1528 0.930 . S
C1571 C1570 1.380 . S
C1571 C1572 1.381 . S
C1572 H1529 0.929 . S
C1572 C1571 1.381 . S
C1572 C1573 1.371 . S
C1573 C1572 1.371 . S
C1573 C1574 1.380 . S
C1574 H1530 0.931 . S
C1574 C1573 1.380 . S
C1574 C1575 1.387 . S
C1575 H1531 0.930 . S
C1575 C1570 1.386 . S
C1575 C1574 1.387 . S
C1576 C1545 1.519 . S
C1576 C1577 1.377 . S
C1576 C1581 1.361 . S
C1577 H1532 0.929 . S
C1577 C1576 1.377 . S
C1577 C1578 1.386 . S
C1578 H1533 0.931 . S
C1578 C1577 1.386 . S
C1578 C1579 1.363 . S
C1579 C1578 1.363 . S
C1579 C1580 1.385 . S
C1580 H1534 0.930 . S
C1580 C1579 1.385 . S
C1580 C1581 1.396 . S
C1581 H1535 0.929 . S
C1581 C1576 1.361 . S
C1581 C1580 1.396 . S
C1582 O1536 1.300 . S
C1582 O1537 1.209 . S
C1582 C1555 1.486 . S
C1583 O1538 1.199 . S
C1583 O1539 1.297 . S
C1583 C1567 1.476 . S
H1584 C1592 0.950 . S
H1585 C1597 0.950 . S
H1586 C1594 0.950 . S
H1587 C1596 0.950 . S
H1588 C1598 0.950 . S
H1589 C1600 0.950 . S
H1590 C1602 0.950 . S
H1591 C1603 0.950 . S
C1592 H1584 0.950 . S
C1592 C1593 1.367 1_455 S
C1592 C1594 1.391 . S
C1593 C1592 1.367 1_655 S
C1593 C1597 1.438 . S
C1594 H1586 0.950 . S
C1594 C1592 1.391 . S
C1594 C1595 1.400 1_455 S
C1595 C1594 1.400 1_655 S
C1595 C1596 1.398 . S
C1595 C1601 1.491 . S
C1596 H1587 0.950 . S
C1596 C1595 1.398 . S
C1596 C1597 1.391 . S
C1597 H1585 0.950 . S
C1597 C1593 1.438 . S
C1597 C1596 1.391 . S
C1598 H1588 0.950 . S
C1598 C1599 1.386 . S
C1598 C1600 1.391 . S
C1599 C1598 1.386 . S
C1599 C1603 1.393 1_655 S
C1600 H1589 0.950 . S
C1600 C1598 1.391 . S
C1600 C1601 1.400 . S
C1601 C1595 1.491 . S
C1601 C1600 1.400 . S
C1601 C1602 1.398 1_655 S
C1602 H1590 0.950 . S
C1602 C1601 1.398 1_455 S
C1602 C1603 1.391 . S
C1603 H1591 0.950 . S
C1603 C1599 1.393 1_455 S
C1603 C1602 1.391 . S
H1604 C1612 0.950 . S
H1605 C1617 0.950 . S
H1606 C1614 0.950 . S
H1607 C1616 0.950 . S
H1608 C1618 0.950 . S
H1609 C1620 0.950 . S
H1610 C1622 0.950 . S
H1611 C1623 0.950 . S
C1612 H1604 0.950 . S
C1612 C1613 1.386 . S
C1612 C1614 1.391 . S
C1613 C1612 1.386 . S
C1613 C1617 1.393 . S
C1614 H1606 0.950 . S
C1614 C1612 1.391 . S
C1614 C1615 1.400 . S
C1615 C1614 1.400 . S
C1615 C1616 1.398 . S
C1615 C1621 1.491 . S
C1616 H1607 0.950 . S
C1616 C1615 1.398 . S
C1616 C1617 1.391 . S
C1617 H1605 0.950 . S
C1617 C1613 1.393 . S
C1617 C1616 1.391 . S
C1618 H1608 0.950 . S
C1618 C1619 1.386 . S
C1618 C1620 1.391 . S
C1619 C1618 1.386 . S
C1619 C1623 1.393 . S
C1620 H1609 0.950 . S
C1620 C1618 1.391 . S
C1620 C1621 1.400 . S
C1621 C1615 1.491 . S
C1621 C1620 1.400 . S
C1621 C1622 1.398 . S
C1622 H1610 0.950 . S
C1622 C1621 1.398 . S
C1622 C1623 1.391 . S
C1623 H1611 0.950 . S
C1623 C1619 1.393 . S
C1623 C1622 1.391 . S
H1624 C1632 0.950 1_565 S
H1625 C1637 0.950 . S
H1626 C1634 0.950 1_565 S
H1627 C1636 0.950 . S
H1628 C1638 0.950 . S
H1629 C1640 0.950 . S
H1630 C1642 0.949 . S
H1631 C1643 0.950 . S
C1632 H1624 0.950 1_545 S
C1632 C1633 1.386 . S
C1632 C1634 1.391 . S
C1633 C1632 1.386 . S
C1633 C1637 1.393 . S
C1634 H1626 0.950 1_545 S
C1634 C1632 1.391 . S
C1634 C1635 1.400 . S
C1635 C1634 1.400 . S
C1635 C1636 1.398 . S
C1635 C1641 1.491 . S
C1636 H1627 0.950 . S
C1636 C1635 1.398 . S
C1636 C1637 1.391 . S
C1637 H1625 0.950 . S
C1637 C1633 1.393 . S
C1637 C1636 1.391 . S
C1638 H1628 0.950 . S
C1638 C1639 1.386 . S
C1638 C1640 1.391 . S
C1639 C1638 1.386 . S
C1639 C1643 1.393 . S
C1640 H1629 0.950 . S
C1640 C1638 1.391 . S
C1640 C1641 1.400 . S
C1641 C1635 1.491 . S
C1641 C1640 1.400 . S
C1641 C1642 1.398 . S
C1642 H1630 0.949 . S
C1642 C1641 1.398 . S
C1642 C1643 1.391 . S
C1643 H1631 0.950 . S
C1643 C1639 1.393 . S
C1643 C1642 1.391 . S
H1644 C1652 0.950 . S
H1645 C1657 0.950 . S
H1646 C1654 0.950 . S
H1647 C1656 0.950 . S
H1648 C1658 0.950 . S
H1649 C1660 0.950 . S
H1650 C1662 0.950 . S
H1651 C1663 0.950 . S
C1652 H1644 0.950 . S
C1652 C1653 1.386 . S
C1652 C1654 1.391 . S
C1653 C1652 1.386 . S
C1653 C1657 1.393 1_565 S
C1654 H1646 0.950 . S
C1654 C1652 1.391 . S
C1654 C1655 1.400 . S
C1655 C1654 1.400 . S
C1655 C1656 1.398 1_565 S
C1655 C1661 1.491 . S
C1656 H1647 0.950 . S
C1656 C1655 1.398 1_545 S
C1656 C1657 1.391 . S
C1657 H1645 0.950 . S
C1657 C1653 1.393 1_545 S
C1657 C1656 1.391 . S
C1658 H1648 0.950 . S
C1658 C1659 1.386 1_545 S
C1658 C1660 1.391 . S
C1659 C1658 1.386 1_565 S
C1659 C1663 1.393 . S
C1660 H1649 0.950 . S
C1660 C1658 1.391 . S
C1660 C1661 1.400 1_545 S
C1661 C1655 1.491 . S
C1661 C1660 1.400 1_565 S
C1661 C1662 1.398 . S
C1662 H1650 0.950 . S
C1662 C1661 1.398 . S
C1662 C1663 1.391 . S
C1663 H1651 0.950 . S
C1663 C1659 1.393 . S
C1663 C1662 1.391 . S
H1664 C1672 0.950 . S
H1665 C1677 0.950 . S
H1666 C1674 0.950 . S
H1667 C1676 0.997 . S
H1668 C1678 0.950 1_655 S
H1669 C1680 0.950 1_655 S
H1670 C1682 0.950 . S
H1671 C1683 0.950 . S
C1672 H1664 0.950 . S
C1672 C1673 1.386 . S
C1672 C1674 1.391 . S
C1673 C1672 1.386 . S
C1673 C1677 1.393 1_455 S
C1674 H1666 0.950 . S
C1674 C1672 1.391 . S
C1674 C1675 1.400 . S
C1675 C1674 1.400 . S
C1675 C1676 1.368 1_455 S
C1675 C1681 1.491 . S
C1676 H1667 0.997 . S
C1676 C1675 1.368 1_655 S
C1676 C1677 1.377 . S
C1677 H1665 0.950 . S
C1677 C1673 1.393 1_655 S
C1677 C1676 1.377 . S
C1678 H1668 0.950 1_455 S
C1678 C1679 1.386 . S
C1678 C1680 1.391 . S
C1679 C1678 1.386 . S
C1679 C1683 1.393 . S
C1680 H1669 0.950 1_455 S
C1680 C1678 1.391 . S
C1680 C1681 1.400 . S
C1681 C1675 1.491 . S
C1681 C1680 1.400 . S
C1681 C1682 1.398 . S
C1682 H1670 0.950 . S
C1682 C1681 1.398 . S
C1682 C1683 1.391 . S
C1683 H1671 0.950 . S
C1683 C1679 1.393 . S
C1683 C1682 1.391 . S
H1684 C1692 0.950 . S
H1685 C1697 0.950 . S
H1686 C1694 0.950 . S
H1687 C1696 0.943 1_554 S
H1688 C1698 0.950 . S
H1689 C1700 0.950 . S
H1690 C1702 0.950 . S
H1691 C1703 0.950 . S
C1692 H1684 0.950 . S
C1692 C1693 1.386 1_556 S
C1692 C1694 1.391 . S
C1693 C1692 1.386 1_554 S
C1693 C1697 1.393 . S
C1694 H1686 0.950 . S
C1694 C1692 1.391 . S
C1694 C1695 1.400 . S
C1695 C1694 1.400 . S
C1695 C1696 1.417 . S
C1695 C1701 1.491 . S
C1696 H1687 0.943 1_556 S
C1696 C1695 1.417 . S
C1696 C1697 1.374 1_556 S
C1697 H1685 0.950 . S
C1697 C1693 1.393 . S
C1697 C1696 1.374 1_554 S
C1698 H1688 0.950 . S
C1698 C1699 1.386 . S
C1698 C1700 1.391 . S
C1699 C1698 1.386 . S
C1699 C1703 1.393 . S
C1700 H1689 0.950 . S
C1700 C1698 1.391 . S
C1700 C1701 1.400 . S
C1701 C1695 1.491 . S
C1701 C1700 1.400 . S
C1701 C1702 1.398 . S
C1702 H1690 0.950 . S
C1702 C1701 1.398 . S
C1702 C1703 1.391 . S
C1703 H1691 0.950 . S
C1703 C1699 1.393 . S
C1703 C1702 1.391 . S
H1704 C1712 0.950 . S
H1705 C1717 0.946 . S
H1706 C1714 0.950 . S
H1707 C1716 0.950 . S
H1708 C1718 0.950 . S
H1709 C1720 0.950 . S
H1710 C1722 0.950 . S
H1711 C1723 0.950 . S
C1712 H1704 0.950 . S
C1712 C1713 1.386 . S
C1712 C1714 1.391 1_554 S
C1713 C1712 1.386 . S
C1713 C1717 1.393 1_454 S
C1714 H1706 0.950 . S
C1714 C1712 1.391 1_556 S
C1714 C1715 1.400 . S
C1715 C1714 1.400 . S
C1715 C1716 1.398 1_455 S
C1715 C1721 1.491 . S
C1716 H1707 0.950 . S
C1716 C1715 1.398 1_655 S
C1716 C1717 1.393 . S
C1717 H1705 0.946 . S
C1717 C1713 1.393 1_656 S
C1717 C1716 1.393 . S
C1718 H1708 0.950 . S
C1718 C1719 1.386 1_655 S
C1718 C1720 1.391 . S
C1719 C1718 1.386 1_455 S
C1719 C1723 1.393 . S
C1720 H1709 0.950 . S
C1720 C1718 1.391 . S
C1720 C1721 1.400 1_655 S
C1721 C1715 1.491 . S
C1721 C1720 1.400 1_455 S
C1721 C1722 1.398 . S
C1722 H1710 0.950 . S
C1722 C1721 1.398 . S
C1722 C1723 1.391 . S
C1723 H1711 0.950 . S
C1723 C1719 1.393 . S
C1723 C1722 1.391 . S
H1724 C1732 0.950 . S
H1725 C1737 0.950 . S
H1726 C1734 0.950 . S
H1727 C1736 0.950 . S
H1728 C1738 0.950 . S
H1729 C1740 0.950 . S
H1730 C1742 0.950 . S
H1731 C1743 0.950 . S
C1732 H1724 0.950 . S
C1732 C1733 1.386 . S
C1732 C1734 1.391 . S
C1733 C1732 1.386 . S
C1733 C1737 1.393 . S
C1734 H1726 0.950 . S
C1734 C1732 1.391 . S
C1734 C1735 1.400 . S
C1735 C1734 1.400 . S
C1735 C1736 1.398 . S
C1735 C1741 1.491 . S
C1736 H1727 0.950 . S
C1736 C1735 1.398 . S
C1736 C1737 1.391 . S
C1737 H1725 0.950 . S
C1737 C1733 1.393 . S
C1737 C1736 1.391 . S
C1738 H1728 0.950 . S
C1738 C1739 1.386 . S
C1738 C1740 1.391 . S
C1739 C1738 1.386 . S
C1739 C1743 1.393 . S
C1740 H1729 0.950 . S
C1740 C1738 1.391 . S
C1740 C1741 1.400 . S
C1741 C1735 1.491 . S
C1741 C1740 1.400 . S
C1741 C1742 1.398 . S
C1742 H1730 0.950 . S
C1742 C1741 1.398 . S
C1742 C1743 1.391 . S
C1743 H1731 0.950 . S
C1743 C1739 1.393 . S
C1743 C1742 1.391 . S
H1744 C1752 0.950 1_554 S
H1745 C1757 0.950 . S
H1746 C1754 0.950 . S
H1747 C1756 0.950 . S
H1748 C1758 0.950 . S
H1749 C1760 0.950 . S
H1750 C1762 0.950 . S
H1751 C1763 0.950 . S
C1752 H1744 0.950 1_556 S
C1752 C1753 1.386 1_545 S
C1752 C1754 1.391 . S
C1753 C1752 1.386 1_565 S
C1753 C1757 1.393 . S
C1754 H1746 0.950 . S
C1754 C1752 1.391 . S
C1754 C1755 1.400 1_545 S
C1755 C1754 1.400 1_565 S
C1755 C1756 1.398 . S
C1755 C1761 1.491 . S
C1756 H1747 0.950 . S
C1756 C1755 1.398 . S
C1756 C1757 1.391 . S
C1757 H1745 0.950 . S
C1757 C1753 1.393 . S
C1757 C1756 1.391 . S
C1758 H1748 0.950 . S
C1758 C1759 1.368 1_565 S
C1758 C1760 1.391 . S
C1759 C1758 1.368 1_545 S
C1759 C1763 1.403 . S
C1760 H1749 0.950 . S
C1760 C1758 1.391 . S
C1760 C1761 1.400 . S
C1761 C1755 1.491 . S
C1761 C1760 1.400 . S
C1761 C1762 1.398 1_565 S
C1762 H1750 0.950 . S
C1762 C1761 1.398 1_545 S
C1762 C1763 1.391 . S
C1763 H1751 0.950 . S
C1763 C1759 1.403 . S
C1763 C1762 1.391 . S
H1764 C1772 0.950 . S
H1765 C1777 0.950 . S
H1766 C1774 0.950 . S
H1767 C1776 0.950 . S
H1768 C1778 0.950 . S
H1769 C1780 0.950 . S
H1770 C1782 0.950 . S
H1771 C1783 0.950 . S
C1772 H1764 0.950 . S
C1772 C1773 1.386 . S
C1772 C1774 1.391 . S
C1773 C1772 1.386 . S
C1773 C1777 1.393 1_545 S
C1774 H1766 0.950 . S
C1774 C1772 1.391 . S
C1774 C1775 1.400 . S
C1775 C1774 1.400 . S
C1775 C1776 1.398 1_545 S
C1775 C1781 1.491 . S
C1776 H1767 0.950 . S
C1776 C1775 1.398 1_565 S
C1776 C1777 1.391 . S
C1777 H1765 0.950 . S
C1777 C1773 1.393 1_565 S
C1777 C1776 1.391 . S
C1778 H1768 0.950 . S
C1778 C1779 1.414 . S
C1778 C1780 1.391 . S
C1779 C1778 1.414 . S
C1779 C1783 1.376 1_565 S
C1780 H1769 0.950 . S
C1780 C1778 1.391 . S
C1780 C1781 1.400 1_565 S
C1781 C1775 1.491 . S
C1781 C1780 1.400 1_545 S
C1781 C1782 1.398 . S
C1782 H1770 0.950 . S
C1782 C1781 1.398 . S
C1782 C1783 1.391 . S
C1783 H1771 0.950 . S
C1783 C1779 1.376 1_545 S
C1783 C1782 1.391 . S
H1784 C1792 0.950 . S
H1785 C1797 0.950 . S
H1786 C1794 0.950 . S
H1787 C1796 0.950 . S
H1788 C1798 0.950 . S
H1789 C1800 0.950 . S
H1790 C1802 0.950 . S
H1791 C1803 0.950 . S
C1792 H1784 0.950 . S
C1792 C1793 1.386 . S
C1792 C1794 1.391 . S
C1793 C1792 1.386 . S
C1793 C1797 1.393 1_655 S
C1794 H1786 0.950 . S
C1794 C1792 1.391 . S
C1794 C1795 1.400 . S
C1795 C1794 1.400 . S
C1795 C1796 1.398 1_655 S
C1795 C1801 1.491 . S
C1796 H1787 0.950 . S
C1796 C1795 1.398 1_455 S
C1796 C1797 1.391 . S
C1797 H1785 0.950 . S
C1797 C1793 1.393 1_455 S
C1797 C1796 1.391 . S
C1798 H1788 0.950 . S
C1798 C1799 1.353 1_455 S
C1798 C1800 1.391 . S
C1799 C1798 1.353 1_655 S
C1799 C1803 1.454 . S
C1800 H1789 0.950 . S
C1800 C1798 1.391 . S
C1800 C1801 1.400 1_455 S
C1801 C1795 1.491 . S
C1801 C1800 1.400 1_655 S
C1801 C1802 1.398 . S
C1802 H1790 0.950 . S
C1802 C1801 1.398 . S
C1802 C1803 1.391 . S
C1803 H1791 0.950 . S
C1803 C1799 1.454 . S
C1803 C1802 1.391 . S
H1804 C1812 0.950 . S
H1805 C1817 0.950 . S
H1806 C1814 0.950 . S
H1807 C1816 0.950 . S
H1808 C1818 0.950 . S
H1809 C1820 0.950 . S
H1810 C1822 0.950 . S
H1811 C1823 0.950 . S
C1812 H1804 0.950 . S
C1812 C1813 1.386 . S
C1812 C1814 1.391 . S
C1813 C1812 1.386 . S
C1813 C1817 1.393 . S
C1814 H1806 0.950 . S
C1814 C1812 1.391 . S
C1814 C1815 1.400 . S
C1815 C1814 1.400 . S
C1815 C1816 1.398 . S
C1815 C1821 1.491 . S
C1816 H1807 0.950 . S
C1816 C1815 1.398 . S
C1816 C1817 1.391 . S
C1817 H1805 0.950 . S
C1817 C1813 1.393 . S
C1817 C1816 1.391 . S
C1818 H1808 0.950 . S
C1818 C1819 1.386 . S
C1818 C1820 1.391 . S
C1819 C1818 1.386 . S
C1819 C1823 1.393 . S
C1820 H1809 0.950 . S
C1820 C1818 1.391 . S
C1820 C1821 1.400 . S
C1821 C1815 1.491 . S
C1821 C1820 1.400 . S
C1821 C1822 1.398 . S
C1822 H1810 0.950 . S
C1822 C1821 1.398 . S
C1822 C1823 1.391 . S
C1823 H1811 0.950 . S
C1823 C1819 1.393 . S
C1823 C1822 1.391 . S
H1824 C1832 0.950 . S
H1825 C1837 0.950 . S
H1826 C1834 0.950 . S
H1827 C1836 0.950 . S
H1828 C1838 0.950 . S
H1829 C1840 0.950 . S
H1830 C1842 0.950 . S
H1831 C1843 0.950 . S
C1832 H1824 0.950 . S
C1832 C1833 1.386 . S
C1832 C1834 1.391 . S
C1833 C1832 1.386 . S
C1833 C1837 1.393 . S
C1834 H1826 0.950 . S
C1834 C1832 1.391 . S
C1834 C1835 1.400 . S
C1835 C1834 1.400 . S
C1835 C1836 1.398 . S
C1835 C1841 1.491 . S
C1836 H1827 0.950 . S
C1836 C1835 1.398 . S
C1836 C1837 1.391 . S
C1837 H1825 0.950 . S
C1837 C1833 1.393 . S
C1837 C1836 1.391 . S
C1838 H1828 0.950 . S
C1838 C1839 1.386 . S
C1838 C1840 1.391 . S
C1839 C1838 1.386 . S
C1839 C1843 1.393 . S
C1840 H1829 0.950 . S
C1840 C1838 1.391 . S
C1840 C1841 1.400 . S
C1841 C1835 1.491 . S
C1841 C1840 1.400 . S
C1841 C1842 1.398 . S
C1842 H1830 0.950 . S
C1842 C1841 1.398 . S
C1842 C1843 1.391 . S
C1843 H1831 0.950 . S
C1843 C1839 1.393 . S
C1843 C1842 1.391 . S
H1844 C1852 0.950 . S
H1845 C1857 0.950 . S
H1846 C1854 0.950 . S
H1847 C1856 0.950 . S
H1848 C1858 0.950 . S
H1849 C1860 0.950 . S
H1850 C1862 0.950 . S
H1851 C1863 0.950 . S
C1852 H1844 0.950 . S
C1852 C1853 1.386 . S
C1852 C1854 1.391 . S
C1853 C1852 1.386 . S
C1853 C1857 1.393 . S
C1854 H1846 0.950 . S
C1854 C1852 1.391 . S
C1854 C1855 1.400 . S
C1855 C1854 1.400 . S
C1855 C1856 1.398 . S
C1855 C1861 1.491 . S
C1856 H1847 0.950 . S
C1856 C1855 1.398 . S
C1856 C1857 1.391 . S
C1857 H1845 0.950 . S
C1857 C1853 1.393 . S
C1857 C1856 1.391 . S
C1858 H1848 0.950 . S
C1858 C1859 1.386 . S
C1858 C1860 1.391 . S
C1859 C1858 1.386 . S
C1859 C1863 1.393 . S
C1860 H1849 0.950 . S
C1860 C1858 1.391 . S
C1860 C1861 1.400 . S
C1861 C1855 1.491 . S
C1861 C1860 1.400 . S
C1861 C1862 1.398 . S
C1862 H1850 0.950 . S
C1862 C1861 1.398 . S
C1862 C1863 1.391 . S
C1863 H1851 0.950 . S
C1863 C1859 1.393 . S
C1863 C1862 1.391 . S
H1864 C1872 0.950 . S
H1865 C1877 0.950 . S
H1866 C1874 0.950 . S
H1867 C1876 0.950 . S
H1868 C1878 0.950 . S
H1869 C1880 0.950 . S
H1870 C1882 0.950 . S
H1871 C1883 0.950 . S
C1872 H1864 0.950 . S
C1872 C1873 1.386 . S
C1872 C1874 1.391 . S
C1873 C1872 1.386 . S
C1873 C1877 1.393 . S
C1874 H1866 0.950 . S
C1874 C1872 1.391 . S
C1874 C1875 1.400 . S
C1875 C1874 1.400 . S
C1875 C1876 1.398 . S
C1875 C1881 1.491 . S
C1876 H1867 0.950 . S
C1876 C1875 1.398 . S
C1876 C1877 1.391 . S
C1877 H1865 0.950 . S
C1877 C1873 1.393 . S
C1877 C1876 1.391 . S
C1878 H1868 0.950 . S
C1878 C1879 1.386 . S
C1878 C1880 1.391 . S
C1879 C1878 1.386 . S
C1879 C1883 1.393 . S
C1880 H1869 0.950 . S
C1880 C1878 1.391 . S
C1880 C1881 1.400 . S
C1881 C1875 1.491 . S
C1881 C1880 1.400 . S
C1881 C1882 1.398 . S
C1882 H1870 0.950 . S
C1882 C1881 1.398 . S
C1882 C1883 1.391 . S
C1883 H1871 0.950 . S
C1883 C1879 1.393 . S
C1883 C1882 1.391 . S
H1884 C1892 0.950 . S
H1885 C1897 0.950 . S
H1886 C1894 0.950 . S
H1887 C1896 0.950 . S
H1888 C1898 0.950 . S
H1889 C1900 0.950 . S
H1890 C1902 0.950 . S
H1891 C1903 0.950 . S
C1892 H1884 0.950 . S
C1892 C1893 1.386 . S
C1892 C1894 1.391 . S
C1893 C1892 1.386 . S
C1893 C1897 1.393 . S
C1894 H1886 0.950 . S
C1894 C1892 1.391 . S
C1894 C1895 1.400 . S
C1895 C1894 1.400 . S
C1895 C1896 1.398 . S
C1895 C1901 1.491 . S
C1896 H1887 0.950 . S
C1896 C1895 1.398 . S
C1896 C1897 1.391 . S
C1897 H1885 0.950 . S
C1897 C1893 1.393 . S
C1897 C1896 1.391 . S
C1898 H1888 0.950 . S
C1898 C1899 1.386 . S
C1898 C1900 1.391 . S
C1899 C1898 1.386 . S
C1899 C1903 1.393 . S
C1900 H1889 0.950 . S
C1900 C1898 1.391 . S
C1900 C1901 1.400 . S
C1901 C1895 1.491 . S
C1901 C1900 1.400 . S
C1901 C1902 1.398 . S
C1902 H1890 0.950 . S
C1902 C1901 1.398 . S
C1902 C1903 1.391 . S
C1903 H1891 0.950 . S
C1903 C1899 1.393 . S
C1903 C1902 1.391 . S
H1904 C1912 0.950 . S
H1905 C1917 0.950 . S
H1906 C1914 0.950 . S
H1907 C1916 0.950 . S
H1908 C1918 0.950 . S
H1909 C1920 0.950 . S
H1910 C1922 0.950 . S
H1911 C1923 0.950 . S
C1912 H1904 0.950 . S
C1912 C1913 1.386 . S
C1912 C1914 1.391 . S
C1913 C1912 1.386 . S
C1913 C1917 1.393 . S
C1914 H1906 0.950 . S
C1914 C1912 1.391 . S
C1914 C1915 1.400 . S
C1915 C1914 1.400 . S
C1915 C1916 1.398 . S
C1915 C1921 1.491 . S
C1916 H1907 0.950 . S
C1916 C1915 1.398 . S
C1916 C1917 1.391 . S
C1917 H1905 0.950 . S
C1917 C1913 1.393 . S
C1917 C1916 1.391 . S
C1918 H1908 0.950 . S
C1918 C1919 1.386 . S
C1918 C1920 1.391 . S
C1919 C1918 1.386 . S
C1919 C1923 1.393 . S
C1920 H1909 0.950 . S
C1920 C1918 1.391 . S
C1920 C1921 1.400 . S
C1921 C1915 1.491 . S
C1921 C1920 1.400 . S
C1921 C1922 1.398 . S
C1922 H1910 0.950 . S
C1922 C1921 1.398 . S
C1922 C1923 1.391 . S
C1923 H1911 0.950 . S
C1923 C1919 1.393 . S
C1923 C1922 1.391 . S
H1924 C1932 0.950 . S
H1925 C1937 0.950 . S
H1926 C1934 0.950 . S
H1927 C1936 0.950 . S
H1928 C1938 0.950 . S
H1929 C1940 0.950 . S
H1930 C1942 0.950 . S
H1931 C1943 0.950 . S
C1932 H1924 0.950 . S
C1932 C1933 1.386 . S
C1932 C1934 1.391 . S
C1933 C1932 1.386 . S
C1933 C1937 1.393 . S
C1934 H1926 0.950 . S
C1934 C1932 1.391 . S
C1934 C1935 1.400 . S
C1935 C1934 1.400 . S
C1935 C1936 1.398 . S
C1935 C1941 1.491 . S
C1936 H1927 0.950 . S
C1936 C1935 1.398 . S
C1936 C1937 1.391 . S
C1937 H1925 0.950 . S
C1937 C1933 1.393 . S
C1937 C1936 1.391 . S
C1938 H1928 0.950 . S
C1938 C1939 1.386 . S
C1938 C1940 1.391 . S
C1939 C1938 1.386 . S
C1939 C1943 1.393 . S
C1940 H1929 0.950 . S
C1940 C1938 1.391 . S
C1940 C1941 1.400 . S
C1941 C1935 1.491 . S
C1941 C1940 1.400 . S
C1941 C1942 1.398 . S
C1942 H1930 0.950 . S
C1942 C1941 1.398 . S
C1942 C1943 1.391 . S
C1943 H1931 0.950 . S
C1943 C1939 1.393 . S
C1943 C1942 1.391 . S
H1944 C1952 0.950 . S
H1945 C1957 0.950 . S
H1946 C1954 0.950 . S
H1947 C1956 0.950 . S
H1948 C1958 0.950 . S
H1949 C1960 0.950 . S
H1950 C1962 0.950 . S
H1951 C1963 0.950 . S
C1952 H1944 0.950 . S
C1952 C1953 1.386 . S
C1952 C1954 1.391 . S
C1953 C1952 1.386 . S
C1953 C1957 1.393 . S
C1954 H1946 0.950 . S
C1954 C1952 1.391 . S
C1954 C1955 1.400 . S
C1955 C1954 1.400 . S
C1955 C1956 1.398 . S
C1955 C1961 1.491 . S
C1956 H1947 0.950 . S
C1956 C1955 1.398 . S
C1956 C1957 1.391 . S
C1957 H1945 0.950 . S
C1957 C1953 1.393 . S
C1957 C1956 1.391 . S
C1958 H1948 0.950 . S
C1958 C1959 1.386 . S
C1958 C1960 1.391 . S
C1959 C1958 1.386 . S
C1959 C1963 1.393 . S
C1960 H1949 0.950 . S
C1960 C1958 1.391 . S
C1960 C1961 1.400 . S
C1961 C1955 1.491 . S
C1961 C1960 1.400 . S
C1961 C1962 1.398 . S
C1962 H1950 0.950 . S
C1962 C1961 1.398 . S
C1962 C1963 1.391 . S
C1963 H1951 0.950 . S
C1963 C1959 1.393 . S
C1963 C1962 1.391 . S
H1964 C1972 0.950 . S
H1965 C1977 0.950 . S
H1966 C1974 0.950 . S
H1967 C1976 0.950 . S
H1968 C1978 0.950 . S
H1969 C1980 0.950 . S
H1970 C1982 0.950 . S
H1971 C1983 0.950 . S
C1972 H1964 0.950 . S
C1972 C1973 1.386 . S
C1972 C1974 1.391 . S
C1973 C1972 1.386 . S
C1973 C1977 1.393 . S
C1974 H1966 0.950 . S
C1974 C1972 1.391 . S
C1974 C1975 1.400 . S
C1975 C1974 1.400 . S
C1975 C1976 1.398 . S
C1975 C1981 1.491 . S
C1976 H1967 0.950 . S
C1976 C1975 1.398 . S
C1976 C1977 1.391 . S
C1977 H1965 0.950 . S
C1977 C1973 1.393 . S
C1977 C1976 1.391 . S
C1978 H1968 0.950 . S
C1978 C1979 1.386 . S
C1978 C1980 1.391 . S
C1979 C1978 1.386 . S
C1979 C1983 1.393 . S
C1980 H1969 0.950 . S
C1980 C1978 1.391 . S
C1980 C1981 1.400 . S
C1981 C1975 1.491 . S
C1981 C1980 1.400 . S
C1981 C1982 1.398 . S
C1982 H1970 0.950 . S
C1982 C1981 1.398 . S
C1982 C1983 1.391 . S
C1983 H1971 0.950 . S
C1983 C1979 1.393 . S
C1983 C1982 1.391 . S
H1984 C1992 0.950 . S
H1985 C1997 0.950 . S
H1986 C1994 0.950 . S
H1987 C1996 0.950 . S
H1988 C1998 0.950 . S
H1989 C2000 0.950 . S
H1990 C2002 0.950 . S
H1991 C2003 0.950 . S
C1992 H1984 0.950 . S
C1992 C1993 1.386 . S
C1992 C1994 1.391 . S
C1993 C1992 1.386 . S
C1993 C1997 1.393 . S
C1994 H1986 0.950 . S
C1994 C1992 1.391 . S
C1994 C1995 1.400 . S
C1995 C1994 1.400 . S
C1995 C1996 1.398 . S
C1995 C2001 1.491 . S
C1996 H1987 0.950 . S
C1996 C1995 1.398 . S
C1996 C1997 1.391 . S
C1997 H1985 0.950 . S
C1997 C1993 1.393 . S
C1997 C1996 1.391 . S
C1998 H1988 0.950 . S
C1998 C1999 1.386 . S
C1998 C2000 1.391 . S
C1999 C1998 1.386 . S
C1999 C2003 1.393 . S
C2000 H1989 0.950 . S
C2000 C1998 1.391 . S
C2000 C2001 1.400 . S
C2001 C1995 1.491 . S
C2001 C2000 1.400 . S
C2001 C2002 1.398 . S
C2002 H1990 0.950 . S
C2002 C2001 1.398 . S
C2002 C2003 1.391 . S
C2003 H1991 0.950 . S
C2003 C1999 1.393 . S
C2003 C2002 1.391 . S
H2004 C2012 0.950 . S
H2005 C2017 0.950 . S
H2006 C2014 0.950 . S
H2007 C2016 0.950 . S
H2008 C2018 0.950 . S
H2009 C2020 0.950 . S
H2010 C2022 0.950 . S
H2011 C2023 0.950 . S
C2012 H2004 0.950 . S
C2012 C2013 1.386 . S
C2012 C2014 1.391 . S
C2013 C2012 1.386 . S
C2013 C2017 1.393 . S
C2014 H2006 0.950 . S
C2014 C2012 1.391 . S
C2014 C2015 1.400 . S
C2015 C2014 1.400 . S
C2015 C2016 1.398 . S
C2015 C2021 1.491 . S
C2016 H2007 0.950 . S
C2016 C2015 1.398 . S
C2016 C2017 1.391 . S
C2017 H2005 0.950 . S
C2017 C2013 1.393 . S
C2017 C2016 1.391 . S
C2018 H2008 0.950 . S
C2018 C2019 1.386 . S
C2018 C2020 1.391 . S
C2019 C2018 1.386 . S
C2019 C2023 1.393 . S
C2020 H2009 0.950 . S
C2020 C2018 1.391 . S
C2020 C2021 1.400 . S
C2021 C2015 1.491 . S
C2021 C2020 1.400 . S
C2021 C2022 1.398 . S
C2022 H2010 0.950 . S
C2022 C2021 1.398 . S
C2022 C2023 1.391 . S
C2023 H2011 0.950 . S
C2023 C2019 1.393 . S
C2023 C2022 1.391 . S
H2024 C2032 0.950 . S
H2025 C2037 0.950 . S
H2026 C2034 0.950 . S
H2027 C2036 0.950 . S
H2028 C2038 0.950 . S
H2029 C2040 0.950 . S
H2030 C2042 0.950 . S
H2031 C2043 0.950 . S
C2032 H2024 0.950 . S
C2032 C2033 1.386 . S
C2032 C2034 1.391 . S
C2033 C2032 1.386 . S
C2033 C2037 1.393 . S
C2034 H2026 0.950 . S
C2034 C2032 1.391 . S
C2034 C2035 1.400 . S
C2035 C2034 1.400 . S
C2035 C2036 1.398 . S
C2035 C2041 1.491 . S
C2036 H2027 0.950 . S
C2036 C2035 1.398 . S
C2036 C2037 1.391 . S
C2037 H2025 0.950 . S
C2037 C2033 1.393 . S
C2037 C2036 1.391 . S
C2038 H2028 0.950 . S
C2038 C2039 1.386 . S
C2038 C2040 1.391 . S
C2039 C2038 1.386 . S
C2039 C2043 1.393 . S
C2040 H2029 0.950 . S
C2040 C2038 1.391 . S
C2040 C2041 1.400 . S
C2041 C2035 1.491 . S
C2041 C2040 1.400 . S
C2041 C2042 1.398 . S
C2042 H2030 0.950 . S
C2042 C2041 1.398 . S
C2042 C2043 1.391 . S
C2043 H2031 0.950 . S
C2043 C2039 1.393 . S
C2043 C2042 1.391 . S
H2044 C2052 0.950 . S
H2045 C2057 0.950 . S
H2046 C2054 0.950 . S
H2047 C2056 0.950 . S
H2048 C2058 0.950 . S
H2049 C2060 0.950 . S
H2050 C2062 0.950 . S
H2051 C2063 0.950 . S
C2052 H2044 0.950 . S
C2052 C2053 1.386 . S
C2052 C2054 1.391 . S
C2053 C2052 1.386 . S
C2053 C2057 1.393 . S
C2054 H2046 0.950 . S
C2054 C2052 1.391 . S
C2054 C2055 1.400 . S
C2055 C2054 1.400 . S
C2055 C2056 1.398 . S
C2055 C2061 1.491 . S
C2056 H2047 0.950 . S
C2056 C2055 1.398 . S
C2056 C2057 1.391 . S
C2057 H2045 0.950 . S
C2057 C2053 1.393 . S
C2057 C2056 1.391 . S
C2058 H2048 0.950 . S
C2058 C2059 1.386 . S
C2058 C2060 1.391 . S
C2059 C2058 1.386 . S
C2059 C2063 1.393 . S
C2060 H2049 0.950 . S
C2060 C2058 1.391 . S
C2060 C2061 1.400 . S
C2061 C2055 1.491 . S
C2061 C2060 1.400 . S
C2061 C2062 1.398 . S
C2062 H2050 0.950 . S
C2062 C2061 1.398 . S
C2062 C2063 1.391 . S
C2063 H2051 0.950 . S
C2063 C2059 1.393 . S
C2063 C2062 1.391 . S
H2064 C2072 0.950 . S
H2065 C2077 0.950 . S
H2066 C2074 0.950 . S
H2067 C2076 0.950 . S
H2068 C2078 0.950 . S
H2069 C2080 0.950 . S
H2070 C2082 0.950 . S
H2071 C2083 0.950 . S
C2072 H2064 0.950 . S
C2072 C2073 1.386 . S
C2072 C2074 1.391 . S
C2073 C2072 1.386 . S
C2073 C2077 1.393 . S
C2074 H2066 0.950 . S
C2074 C2072 1.391 . S
C2074 C2075 1.400 . S
C2075 C2074 1.400 . S
C2075 C2076 1.398 . S
C2075 C2081 1.491 . S
C2076 H2067 0.950 . S
C2076 C2075 1.398 . S
C2076 C2077 1.391 . S
C2077 H2065 0.950 . S
C2077 C2073 1.393 . S
C2077 C2076 1.391 . S
C2078 H2068 0.950 . S
C2078 C2079 1.386 . S
C2078 C2080 1.391 . S
C2079 C2078 1.386 . S
C2079 C2083 1.393 . S
C2080 H2069 0.950 . S
C2080 C2078 1.391 . S
C2080 C2081 1.400 . S
C2081 C2075 1.491 . S
C2081 C2080 1.400 . S
C2081 C2082 1.398 . S
C2082 H2070 0.950 . S
C2082 C2081 1.398 . S
C2082 C2083 1.391 . S
C2083 H2071 0.950 . S
C2083 C2079 1.393 . S
C2083 C2082 1.391 . S
H2084 C2092 0.950 . S
H2085 C2097 0.950 . S
H2086 C2094 0.950 . S
H2087 C2096 0.950 . S
H2088 C2098 0.950 . S
H2089 C2100 0.950 . S
H2090 C2102 0.950 . S
H2091 C2103 0.950 . S
C2092 H2084 0.950 . S
C2092 C2093 1.386 . S
C2092 C2094 1.391 . S
C2093 C2092 1.386 . S
C2093 C2097 1.393 . S
C2094 H2086 0.950 . S
C2094 C2092 1.391 . S
C2094 C2095 1.400 . S
C2095 C2094 1.400 . S
C2095 C2096 1.398 . S
C2095 C2101 1.491 . S
C2096 H2087 0.950 . S
C2096 C2095 1.398 . S
C2096 C2097 1.391 . S
C2097 H2085 0.950 . S
C2097 C2093 1.393 . S
C2097 C2096 1.391 . S
C2098 H2088 0.950 . S
C2098 C2099 1.386 . S
C2098 C2100 1.391 . S
C2099 C2098 1.386 . S
C2099 C2103 1.393 . S
C2100 H2089 0.950 . S
C2100 C2098 1.391 . S
C2100 C2101 1.400 . S
C2101 C2095 1.491 . S
C2101 C2100 1.400 . S
C2101 C2102 1.398 . S
C2102 H2090 0.950 . S
C2102 C2101 1.398 . S
C2102 C2103 1.391 . S
C2103 H2091 0.950 . S
C2103 C2099 1.393 . S
C2103 C2102 1.391 . S
H2104 C2112 0.950 . S
H2105 C2117 0.950 . S
H2106 C2114 0.950 . S
H2107 C2116 0.950 . S
H2108 C2118 0.950 . S
H2109 C2120 0.950 . S
H2110 C2122 0.950 . S
H2111 C2123 0.950 . S
C2112 H2104 0.950 . S
C2112 C2113 1.386 . S
C2112 C2114 1.391 . S
C2113 C2112 1.386 . S
C2113 C2117 1.393 . S
C2114 H2106 0.950 . S
C2114 C2112 1.391 . S
C2114 C2115 1.400 . S
C2115 C2114 1.400 . S
C2115 C2116 1.398 . S
C2115 C2121 1.491 . S
C2116 H2107 0.950 . S
C2116 C2115 1.398 . S
C2116 C2117 1.391 . S
C2117 H2105 0.950 . S
C2117 C2113 1.393 . S
C2117 C2116 1.391 . S
C2118 H2108 0.950 . S
C2118 C2119 1.386 . S
C2118 C2120 1.391 . S
C2119 C2118 1.386 . S
C2119 C2123 1.393 . S
C2120 H2109 0.950 . S
C2120 C2118 1.391 . S
C2120 C2121 1.400 . S
C2121 C2115 1.491 . S
C2121 C2120 1.400 . S
C2121 C2122 1.398 . S
C2122 H2110 0.950 . S
C2122 C2121 1.398 . S
C2122 C2123 1.391 . S
C2123 H2111 0.950 . S
C2123 C2119 1.393 . S
C2123 C2122 1.391 . S
H2124 C2132 0.950 . S
H2125 C2137 0.950 . S
H2126 C2134 0.950 . S
H2127 C2136 0.950 . S
H2128 C2138 0.950 . S
H2129 C2140 0.950 . S
H2130 C2142 0.950 . S
H2131 C2143 0.950 . S
C2132 H2124 0.950 . S
C2132 C2133 1.386 . S
C2132 C2134 1.391 . S
C2133 C2132 1.386 . S
C2133 C2137 1.393 . S
C2134 H2126 0.950 . S
C2134 C2132 1.391 . S
C2134 C2135 1.400 . S
C2135 C2134 1.400 . S
C2135 C2136 1.398 . S
C2135 C2141 1.491 . S
C2136 H2127 0.950 . S
C2136 C2135 1.398 . S
C2136 C2137 1.391 . S
C2137 H2125 0.950 . S
C2137 C2133 1.393 . S
C2137 C2136 1.391 . S
C2138 H2128 0.950 . S
C2138 C2139 1.386 . S
C2138 C2140 1.391 . S
C2139 C2138 1.386 . S
C2139 C2143 1.393 . S
C2140 H2129 0.950 . S
C2140 C2138 1.391 . S
C2140 C2141 1.400 . S
C2141 C2135 1.491 . S
C2141 C2140 1.400 . S
C2141 C2142 1.398 . S
C2142 H2130 0.950 . S
C2142 C2141 1.398 . S
C2142 C2143 1.391 . S
C2143 H2131 0.950 . S
C2143 C2139 1.393 . S
C2143 C2142 1.391 . S
H2144 C2152 0.950 . S
H2145 C2157 0.950 . S
H2146 C2154 0.950 . S
H2147 C2156 0.950 . S
H2148 C2158 0.950 . S
H2149 C2160 0.950 . S
H2150 C2162 0.950 . S
H2151 C2163 0.950 . S
C2152 H2144 0.950 . S
C2152 C2153 1.386 . S
C2152 C2154 1.391 . S
C2153 C2152 1.386 . S
C2153 C2157 1.393 . S
C2154 H2146 0.950 . S
C2154 C2152 1.391 . S
C2154 C2155 1.400 . S
C2155 C2154 1.400 . S
C2155 C2156 1.398 . S
C2155 C2161 1.491 . S
C2156 H2147 0.950 . S
C2156 C2155 1.398 . S
C2156 C2157 1.391 . S
C2157 H2145 0.950 . S
C2157 C2153 1.393 . S
C2157 C2156 1.391 . S
C2158 H2148 0.950 . S
C2158 C2159 1.386 . S
C2158 C2160 1.391 . S
C2159 C2158 1.386 . S
C2159 C2163 1.393 . S
C2160 H2149 0.950 . S
C2160 C2158 1.391 . S
C2160 C2161 1.400 . S
C2161 C2155 1.491 . S
C2161 C2160 1.400 . S
C2161 C2162 1.398 . S
C2162 H2150 0.950 . S
C2162 C2161 1.398 . S
C2162 C2163 1.391 . S
C2163 H2151 0.950 . S
C2163 C2159 1.393 . S
C2163 C2162 1.391 . S
H2164 C2172 0.950 . S
H2165 C2177 0.950 . S
H2166 C2174 0.950 . S
H2167 C2176 0.950 . S
H2168 C2178 0.950 . S
H2169 C2180 0.950 . S
H2170 C2182 0.950 . S
H2171 C2183 0.950 . S
C2172 H2164 0.950 . S
C2172 C2173 1.386 . S
C2172 C2174 1.391 . S
C2173 C2172 1.386 . S
C2173 C2177 1.393 . S
C2174 H2166 0.950 . S
C2174 C2172 1.391 . S
C2174 C2175 1.400 . S
C2175 C2174 1.400 . S
C2175 C2176 1.398 . S
C2175 C2181 1.491 . S
C2176 H2167 0.950 . S
C2176 C2175 1.398 . S
C2176 C2177 1.391 . S
C2177 H2165 0.950 . S
C2177 C2173 1.393 . S
C2177 C2176 1.391 . S
C2178 H2168 0.950 . S
C2178 C2179 1.386 . S
C2178 C2180 1.391 . S
C2179 C2178 1.386 . S
C2179 C2183 1.393 . S
C2180 H2169 0.950 . S
C2180 C2178 1.391 . S
C2180 C2181 1.400 . S
C2181 C2175 1.491 . S
C2181 C2180 1.400 . S
C2181 C2182 1.398 . S
C2182 H2170 0.950 . S
C2182 C2181 1.398 . S
C2182 C2183 1.391 . S
C2183 H2171 0.950 . S
C2183 C2179 1.393 . S
C2183 C2182 1.391 . S
H2184 C2192 0.950 . S
H2185 C2197 0.950 . S
H2186 C2194 0.950 . S
H2187 C2196 0.950 . S
H2188 C2198 0.950 . S
H2189 C2200 0.950 . S
H2190 C2202 0.950 . S
H2191 C2203 0.950 . S
C2192 H2184 0.950 . S
C2192 C2193 1.386 . S
C2192 C2194 1.391 . S
C2193 C2192 1.386 . S
C2193 C2197 1.393 . S
C2194 H2186 0.950 . S
C2194 C2192 1.391 . S
C2194 C2195 1.400 . S
C2195 C2194 1.400 . S
C2195 C2196 1.398 . S
C2195 C2201 1.491 . S
C2196 H2187 0.950 . S
C2196 C2195 1.398 . S
C2196 C2197 1.391 . S
C2197 H2185 0.950 . S
C2197 C2193 1.393 . S
C2197 C2196 1.391 . S
C2198 H2188 0.950 . S
C2198 C2199 1.386 . S
C2198 C2200 1.391 . S
C2199 C2198 1.386 . S
C2199 C2203 1.393 . S
C2200 H2189 0.950 . S
C2200 C2198 1.391 . S
C2200 C2201 1.400 . S
C2201 C2195 1.491 . S
C2201 C2200 1.400 . S
C2201 C2202 1.398 . S
C2202 H2190 0.950 . S
C2202 C2201 1.398 . S
C2202 C2203 1.391 . S
C2203 H2191 0.950 . S
C2203 C2199 1.393 . S
C2203 C2202 1.391 . S
H2204 C2212 0.950 . S
H2205 C2217 0.950 . S
H2206 C2214 0.950 . S
H2207 C2216 0.950 . S
H2208 C2218 0.950 . S
H2209 C2220 0.950 . S
H2210 C2222 0.950 . S
H2211 C2223 0.950 . S
C2212 H2204 0.950 . S
C2212 C2213 1.386 . S
C2212 C2214 1.391 . S
C2213 C2212 1.386 . S
C2213 C2217 1.393 . S
C2214 H2206 0.950 . S
C2214 C2212 1.391 . S
C2214 C2215 1.400 . S
C2215 C2214 1.400 . S
C2215 C2216 1.398 . S
C2215 C2221 1.491 . S
C2216 H2207 0.950 . S
C2216 C2215 1.398 . S
C2216 C2217 1.391 . S
C2217 H2205 0.950 . S
C2217 C2213 1.393 . S
C2217 C2216 1.391 . S
C2218 H2208 0.950 . S
C2218 C2219 1.386 . S
C2218 C2220 1.391 . S
C2219 C2218 1.386 . S
C2219 C2223 1.393 . S
C2220 H2209 0.950 . S
C2220 C2218 1.391 . S
C2220 C2221 1.400 . S
C2221 C2215 1.491 . S
C2221 C2220 1.400 . S
C2221 C2222 1.398 . S
C2222 H2210 0.950 . S
C2222 C2221 1.398 . S
C2222 C2223 1.391 . S
C2223 H2211 0.950 . S
C2223 C2219 1.393 . S
C2223 C2222 1.391 . S
H2224 C2232 0.950 . S
H2225 C2237 0.950 . S
H2226 C2234 0.950 . S
H2227 C2236 0.950 . S
H2228 C2238 0.950 . S
H2229 C2240 0.950 . S
H2230 C2242 0.950 . S
H2231 C2243 0.950 . S
C2232 H2224 0.950 . S
C2232 C2233 1.386 . S
C2232 C2234 1.391 . S
C2233 C2232 1.386 . S
C2233 C2237 1.393 . S
C2234 H2226 0.950 . S
C2234 C2232 1.391 . S
C2234 C2235 1.400 . S
C2235 C2234 1.400 . S
C2235 C2236 1.398 . S
C2235 C2241 1.491 . S
C2236 H2227 0.950 . S
C2236 C2235 1.398 . S
C2236 C2237 1.391 . S
C2237 H2225 0.950 . S
C2237 C2233 1.393 . S
C2237 C2236 1.391 . S
C2238 H2228 0.950 . S
C2238 C2239 1.386 . S
C2238 C2240 1.391 . S
C2239 C2238 1.386 . S
C2239 C2243 1.393 . S
C2240 H2229 0.950 . S
C2240 C2238 1.391 . S
C2240 C2241 1.400 . S
C2241 C2235 1.491 . S
C2241 C2240 1.400 . S
C2241 C2242 1.398 . S
C2242 H2230 0.950 . S
C2242 C2241 1.398 . S
C2242 C2243 1.391 . S
C2243 H2231 0.950 . S
C2243 C2239 1.393 . S
C2243 C2242 1.391 . S
H2244 C2252 0.950 . S
H2245 C2257 0.950 . S
H2246 C2254 0.950 . S
H2247 C2256 0.950 . S
H2248 C2258 0.950 . S
H2249 C2260 0.950 . S
H2250 C2262 0.950 . S
H2251 C2263 0.950 . S
C2252 H2244 0.950 . S
C2252 C2253 1.386 . S
C2252 C2254 1.391 . S
C2253 C2252 1.386 . S
C2253 C2257 1.393 . S
C2254 H2246 0.950 . S
C2254 C2252 1.391 . S
C2254 C2255 1.400 . S
C2255 C2254 1.400 . S
C2255 C2256 1.398 . S
C2255 C2261 1.491 . S
C2256 H2247 0.950 . S
C2256 C2255 1.398 . S
C2256 C2257 1.391 . S
C2257 H2245 0.950 . S
C2257 C2253 1.393 . S
C2257 C2256 1.391 . S
C2258 H2248 0.950 . S
C2258 C2259 1.386 . S
C2258 C2260 1.391 . S
C2259 C2258 1.386 . S
C2259 C2263 1.393 . S
C2260 H2249 0.950 . S
C2260 C2258 1.391 . S
C2260 C2261 1.400 . S
C2261 C2255 1.491 . S
C2261 C2260 1.400 . S
C2261 C2262 1.398 . S
C2262 H2250 0.950 . S
C2262 C2261 1.398 . S
C2262 C2263 1.391 . S
C2263 H2251 0.950 . S
C2263 C2259 1.393 . S
C2263 C2262 1.391 . S
H2264 C2272 0.950 . S
H2265 C2277 0.950 . S
H2266 C2274 0.950 . S
H2267 C2276 0.950 . S
H2268 C2278 0.950 . S
H2269 C2280 0.950 . S
H2270 C2282 0.950 . S
H2271 C2283 0.950 . S
C2272 H2264 0.950 . S
C2272 C2273 1.386 . S
C2272 C2274 1.391 . S
C2273 C2272 1.386 . S
C2273 C2277 1.393 . S
C2274 H2266 0.950 . S
C2274 C2272 1.391 . S
C2274 C2275 1.400 . S
C2275 C2274 1.400 . S
C2275 C2276 1.398 . S
C2275 C2281 1.491 . S
C2276 H2267 0.950 . S
C2276 C2275 1.398 . S
C2276 C2277 1.391 . S
C2277 H2265 0.950 . S
C2277 C2273 1.393 . S
C2277 C2276 1.391 . S
C2278 H2268 0.950 . S
C2278 C2279 1.386 . S
C2278 C2280 1.391 . S
C2279 C2278 1.386 . S
C2279 C2283 1.393 . S
C2280 H2269 0.950 . S
C2280 C2278 1.391 . S
C2280 C2281 1.400 . S
C2281 C2275 1.491 . S
C2281 C2280 1.400 . S
C2281 C2282 1.398 . S
C2282 H2270 0.950 . S
C2282 C2281 1.398 . S
C2282 C2283 1.391 . S
C2283 H2271 0.950 . S
C2283 C2279 1.393 . S
C2283 C2282 1.391 . S
H2284 C2292 0.950 . S
H2285 C2297 0.950 . S
H2286 C2294 0.950 . S
H2287 C2296 0.950 . S
H2288 C2298 0.950 . S
H2289 C2300 0.950 . S
H2290 C2302 0.950 . S
H2291 C2303 0.950 . S
C2292 H2284 0.950 . S
C2292 C2293 1.386 . S
C2292 C2294 1.391 . S
C2293 C2292 1.386 . S
C2293 C2297 1.393 . S
C2294 H2286 0.950 . S
C2294 C2292 1.391 . S
C2294 C2295 1.400 . S
C2295 C2294 1.400 . S
C2295 C2296 1.398 . S
C2295 C2301 1.491 . S
C2296 H2287 0.950 . S
C2296 C2295 1.398 . S
C2296 C2297 1.391 . S
C2297 H2285 0.950 . S
C2297 C2293 1.393 . S
C2297 C2296 1.391 . S
C2298 H2288 0.950 . S
C2298 C2299 1.386 . S
C2298 C2300 1.391 . S
C2299 C2298 1.386 . S
C2299 C2303 1.393 . S
C2300 H2289 0.950 . S
C2300 C2298 1.391 . S
C2300 C2301 1.400 . S
C2301 C2295 1.491 . S
C2301 C2300 1.400 . S
C2301 C2302 1.398 . S
C2302 H2290 0.950 . S
C2302 C2301 1.398 . S
C2302 C2303 1.391 . S
C2303 H2291 0.950 . S
C2303 C2299 1.393 . S
C2303 C2302 1.391 . S
H2304 C2312 0.950 . S
H2305 C2317 0.950 . S
H2306 C2314 0.950 . S
H2307 C2316 0.950 . S
H2308 C2318 0.950 . S
H2309 C2320 0.950 . S
H2310 C2322 0.950 . S
H2311 C2323 0.950 . S
C2312 H2304 0.950 . S
C2312 C2313 1.386 . S
C2312 C2314 1.391 . S
C2313 C2312 1.386 . S
C2313 C2317 1.393 . S
C2314 H2306 0.950 . S
C2314 C2312 1.391 . S
C2314 C2315 1.400 . S
C2315 C2314 1.400 . S
C2315 C2316 1.398 . S
C2315 C2321 1.491 . S
C2316 H2307 0.950 . S
C2316 C2315 1.398 . S
C2316 C2317 1.391 . S
C2317 H2305 0.950 . S
C2317 C2313 1.393 . S
C2317 C2316 1.391 . S
C2318 H2308 0.950 . S
C2318 C2319 1.386 . S
C2318 C2320 1.391 . S
C2319 C2318 1.386 . S
C2319 C2323 1.393 . S
C2320 H2309 0.950 . S
C2320 C2318 1.391 . S
C2320 C2321 1.400 . S
C2321 C2315 1.491 . S
C2321 C2320 1.400 . S
C2321 C2322 1.398 . S
C2322 H2310 0.950 . S
C2322 C2321 1.398 . S
C2322 C2323 1.391 . S
C2323 H2311 0.950 . S
C2323 C2319 1.393 . S
C2323 C2322 1.391 . S
H2324 C2332 0.950 . S
H2325 C2337 0.950 . S
H2326 C2334 0.950 . S
H2327 C2336 0.950 . S
H2328 C2338 0.950 . S
H2329 C2340 0.950 . S
H2330 C2342 0.950 . S
H2331 C2343 0.950 . S
C2332 H2324 0.950 . S
C2332 C2333 1.386 . S
C2332 C2334 1.391 . S
C2333 C2332 1.386 . S
C2333 C2337 1.393 . S
C2334 H2326 0.950 . S
C2334 C2332 1.391 . S
C2334 C2335 1.400 . S
C2335 C2334 1.400 . S
C2335 C2336 1.398 . S
C2335 C2341 1.491 . S
C2336 H2327 0.950 . S
C2336 C2335 1.398 . S
C2336 C2337 1.391 . S
C2337 H2325 0.950 . S
C2337 C2333 1.393 . S
C2337 C2336 1.391 . S
C2338 H2328 0.950 . S
C2338 C2339 1.386 . S
C2338 C2340 1.391 . S
C2339 C2338 1.386 . S
C2339 C2343 1.393 . S
C2340 H2329 0.950 . S
C2340 C2338 1.391 . S
C2340 C2341 1.400 . S
C2341 C2335 1.491 . S
C2341 C2340 1.400 . S
C2341 C2342 1.398 . S
C2342 H2330 0.950 . S
C2342 C2341 1.398 . S
C2342 C2343 1.391 . S
C2343 H2331 0.950 . S
C2343 C2339 1.393 . S
C2343 C2342 1.391 . S
H2344 C2352 0.950 . S
H2345 C2357 0.950 . S
H2346 C2354 0.950 . S
H2347 C2356 0.950 . S
H2348 C2358 0.950 . S
H2349 C2360 0.950 . S
H2350 C2362 0.950 . S
H2351 C2363 0.950 . S
C2352 H2344 0.950 . S
C2352 C2353 1.386 . S
C2352 C2354 1.391 . S
C2353 C2352 1.386 . S
C2353 C2357 1.393 . S
C2354 H2346 0.950 . S
C2354 C2352 1.391 . S
C2354 C2355 1.400 . S
C2355 C2354 1.400 . S
C2355 C2356 1.398 . S
C2355 C2361 1.491 . S
C2356 H2347 0.950 . S
C2356 C2355 1.398 . S
C2356 C2357 1.391 . S
C2357 H2345 0.950 . S
C2357 C2353 1.393 . S
C2357 C2356 1.391 . S
C2358 H2348 0.950 . S
C2358 C2359 1.386 . S
C2358 C2360 1.391 . S
C2359 C2358 1.386 . S
C2359 C2363 1.393 . S
C2360 H2349 0.950 . S
C2360 C2358 1.391 . S
C2360 C2361 1.400 . S
C2361 C2355 1.491 . S
C2361 C2360 1.400 . S
C2361 C2362 1.398 . S
C2362 H2350 0.950 . S
C2362 C2361 1.398 . S
C2362 C2363 1.391 . S
C2363 H2351 0.950 . S
C2363 C2359 1.393 . S
C2363 C2362 1.391 . S
H2364 C2372 0.950 . S
H2365 C2377 0.950 . S
H2366 C2374 0.950 . S
H2367 C2376 0.947 1_554 S
H2368 C2378 0.950 . S
H2369 C2380 0.950 . S
H2370 C2382 0.950 . S
H2371 C2383 0.950 . S
C2372 H2364 0.950 . S
C2372 C2373 1.386 . S
C2372 C2374 1.391 . S
C2373 C2372 1.386 . S
C2373 C2377 1.393 1_556 S
C2374 H2366 0.950 . S
C2374 C2372 1.391 . S
C2374 C2375 1.400 . S
C2375 C2374 1.400 . S
C2375 C2376 1.398 . S
C2375 C2381 1.491 . S
C2376 H2367 0.947 1_556 S
C2376 C2375 1.398 . S
C2376 C2377 1.391 1_556 S
C2377 H2365 0.950 . S
C2377 C2373 1.393 1_554 S
C2377 C2376 1.391 1_554 S
C2378 H2368 0.950 . S
C2378 C2379 1.386 . S
C2378 C2380 1.391 . S
C2379 C2378 1.386 . S
C2379 C2383 1.393 . S
C2380 H2369 0.950 . S
C2380 C2378 1.391 . S
C2380 C2381 1.400 . S
C2381 C2375 1.491 . S
C2381 C2380 1.400 . S
C2381 C2382 1.398 . S
C2382 H2370 0.950 . S
C2382 C2381 1.398 . S
C2382 C2383 1.391 . S
C2383 H2371 0.950 . S
C2383 C2379 1.393 . S
C2383 C2382 1.391 . S
H2384 C2392 0.950 . S
H2385 C2397 0.934 1_554 S
H2386 C2394 0.950 . S
H2387 C2396 0.950 . S
H2388 C2398 0.950 . S
H2389 C2400 0.950 . S
H2390 C2402 0.950 . S
H2391 C2403 0.950 . S
C2392 H2384 0.950 . S
C2392 C2393 1.386 . S
C2392 C2394 1.391 . S
C2393 C2392 1.386 . S
C2393 C2397 1.393 . S
C2394 H2386 0.950 . S
C2394 C2392 1.391 . S
C2394 C2395 1.400 . S
C2395 C2394 1.400 . S
C2395 C2396 1.398 . S
C2395 C2401 1.491 . S
C2396 H2387 0.950 . S
C2396 C2395 1.398 . S
C2396 C2397 1.391 . S
C2397 H2385 0.934 1_556 S
C2397 C2393 1.393 . S
C2397 C2396 1.391 . S
C2398 H2388 0.950 . S
C2398 C2399 1.386 . S
C2398 C2400 1.391 . S
C2399 C2398 1.386 . S
C2399 C2403 1.393 . S
C2400 H2389 0.950 . S
C2400 C2398 1.391 . S
C2400 C2401 1.400 . S
C2401 C2395 1.491 . S
C2401 C2400 1.400 . S
C2401 C2402 1.398 . S
C2402 H2390 0.950 . S
C2402 C2401 1.398 . S
C2402 C2403 1.391 . S
C2403 H2391 0.950 . S
C2403 C2399 1.393 . S
C2403 C2402 1.391 . S
H2404 C2412 0.950 . S
H2405 C2417 0.950 . S
H2406 C2414 0.950 1_556 S
H2407 C2416 0.950 . S
H2408 C2418 0.964 . S
H2409 C2420 0.950 . S
H2410 C2422 0.950 . S
H2411 C2423 0.950 . S
C2412 H2404 0.950 . S
C2412 C2413 1.386 . S
C2412 C2414 1.391 . S
C2413 C2412 1.386 . S
C2413 C2417 1.393 . S
C2414 H2406 0.950 1_554 S
C2414 C2412 1.391 . S
C2414 C2415 1.400 . S
C2415 C2414 1.400 . S
C2415 C2416 1.398 . S
C2415 C2421 1.524 . S
C2416 H2407 0.950 . S
C2416 C2415 1.398 . S
C2416 C2417 1.391 . S
C2417 H2405 0.950 . S
C2417 C2413 1.393 . S
C2417 C2416 1.391 . S
C2418 H2408 0.964 . S
C2418 C2419 1.386 . S
C2418 C2420 1.391 1_556 S
C2419 C2418 1.386 . S
C2419 C2423 1.393 . S
C2420 H2409 0.950 . S
C2420 C2418 1.391 1_554 S
C2420 C2421 1.414 . S
C2421 C2415 1.524 . S
C2421 C2420 1.414 . S
C2421 C2422 1.351 1_554 S
C2422 H2410 0.950 . S
C2422 C2421 1.351 1_556 S
C2422 C2423 1.391 . S
C2423 H2411 0.950 . S
C2423 C2419 1.393 . S
C2423 C2422 1.391 . S
H2424 C2432 0.950 . S
H2425 C2437 0.950 . S
H2426 C2434 0.950 . S
H2427 C2436 0.950 . S
H2428 C2438 0.950 . S
H2429 C2440 0.950 . S
H2430 C2442 0.950 . S
H2431 C2443 0.950 . S
C2432 H2424 0.950 . S
C2432 C2433 1.386 1_556 S
C2432 C2434 1.391 . S
C2433 C2432 1.386 1_554 S
C2433 C2437 1.393 . S
C2434 H2426 0.950 . S
C2434 C2432 1.391 . S
C2434 C2435 1.400 . S
C2435 C2434 1.400 . S
C2435 C2436 1.398 1_556 S
C2435 C2441 1.491 . S
C2436 H2427 0.950 . S
C2436 C2435 1.398 1_554 S
C2436 C2437 1.391 . S
C2437 H2425 0.950 . S
C2437 C2433 1.393 . S
C2437 C2436 1.391 . S
C2438 H2428 0.950 . S
C2438 C2439 1.386 . S
C2438 C2440 1.391 . S
C2439 C2438 1.386 . S
C2439 C2443 1.393 . S
C2440 H2429 0.950 . S
C2440 C2438 1.391 . S
C2440 C2441 1.400 . S
C2441 C2435 1.491 . S
C2441 C2440 1.400 . S
C2441 C2442 1.398 . S
C2442 H2430 0.950 . S
C2442 C2441 1.398 . S
C2442 C2443 1.391 . S
C2443 H2431 0.950 . S
C2443 C2439 1.393 . S
C2443 C2442 1.391 . S
H2444 C2452 0.950 . S
H2445 C2457 0.950 . S
H2446 C2454 0.950 . S
H2447 C2456 0.950 . S
H2448 C2458 0.950 . S
H2449 C2460 0.950 . S
H2450 C2462 0.950 . S
H2451 C2463 0.950 . S
C2452 H2444 0.950 . S
C2452 C2453 1.386 . S
C2452 C2454 1.391 . S
C2453 C2452 1.386 . S
C2453 C2457 1.393 . S
C2454 H2446 0.950 . S
C2454 C2452 1.391 . S
C2454 C2455 1.400 . S
C2455 C2454 1.400 . S
C2455 C2456 1.398 . S
C2455 C2461 1.491 . S
C2456 H2447 0.950 . S
C2456 C2455 1.398 . S
C2456 C2457 1.391 . S
C2457 H2445 0.950 . S
C2457 C2453 1.393 . S
C2457 C2456 1.391 . S
C2458 H2448 0.950 . S
C2458 C2459 1.386 . S
C2458 C2460 1.391 . S
C2459 C2458 1.386 . S
C2459 C2463 1.393 . S
C2460 H2449 0.950 . S
C2460 C2458 1.391 . S
C2460 C2461 1.400 . S
C2461 C2455 1.491 . S
C2461 C2460 1.400 . S
C2461 C2462 1.398 . S
C2462 H2450 0.950 . S
C2462 C2461 1.398 . S
C2462 C2463 1.391 . S
C2463 H2451 0.950 . S
C2463 C2459 1.393 . S
C2463 C2462 1.391 . S
H2464 C2472 0.950 . S
H2465 C2477 0.950 . S
H2466 C2474 0.950 . S
H2467 C2476 0.950 . S
H2468 C2478 0.950 . S
H2469 C2480 0.950 . S
H2470 C2482 0.921 1_554 S
H2471 C2483 0.950 . S
C2472 H2464 0.950 . S
C2472 C2473 1.386 . S
C2472 C2474 1.391 . S
C2473 C2472 1.386 . S
C2473 C2477 1.393 1_554 S
C2474 H2466 0.950 . S
C2474 C2472 1.391 . S
C2474 C2475 1.400 1_554 S
C2475 C2474 1.400 1_556 S
C2475 C2476 1.398 . S
C2475 C2481 1.491 . S
C2476 H2467 0.950 . S
C2476 C2475 1.398 . S
C2476 C2477 1.391 . S
C2477 H2465 0.950 . S
C2477 C2473 1.393 1_556 S
C2477 C2476 1.391 . S
C2478 H2468 0.950 . S
C2478 C2479 1.386 . S
C2478 C2480 1.391 . S
C2479 C2478 1.386 . S
C2479 C2483 1.393 . S
C2480 H2469 0.950 . S
C2480 C2478 1.391 . S
C2480 C2481 1.400 . S
C2481 C2475 1.491 . S
C2481 C2480 1.400 . S
C2481 C2482 1.412 . S
C2482 H2470 0.921 1_556 S
C2482 C2481 1.412 . S
C2482 C2483 1.405 . S
C2483 H2471 0.950 . S
C2483 C2479 1.393 . S
C2483 C2482 1.405 . S
H2484 C2492 0.950 . S
H2485 C2497 0.950 . S
H2486 C2494 0.950 . S
H2487 C2496 0.950 . S
H2488 C2498 0.950 . S
H2489 C2500 0.950 . S
H2490 C2502 0.950 . S
H2491 C2503 0.950 . S
C2492 H2484 0.950 . S
C2492 C2493 1.386 . S
C2492 C2494 1.391 . S
C2493 C2492 1.386 . S
C2493 C2497 1.393 . S
C2494 H2486 0.950 . S
C2494 C2492 1.391 . S
C2494 C2495 1.400 . S
C2495 C2494 1.400 . S
C2495 C2496 1.398 . S
C2495 C2501 1.491 . S
C2496 H2487 0.950 . S
C2496 C2495 1.398 . S
C2496 C2497 1.391 . S
C2497 H2485 0.950 . S
C2497 C2493 1.393 . S
C2497 C2496 1.391 . S
C2498 H2488 0.950 . S
C2498 C2499 1.386 . S
C2498 C2500 1.391 . S
C2499 C2498 1.386 . S
C2499 C2503 1.393 . S
C2500 H2489 0.950 . S
C2500 C2498 1.391 . S
C2500 C2501 1.400 . S
C2501 C2495 1.491 . S
C2501 C2500 1.400 . S
C2501 C2502 1.398 . S
C2502 H2490 0.950 . S
C2502 C2501 1.398 . S
C2502 C2503 1.391 . S
C2503 H2491 0.950 . S
C2503 C2499 1.393 . S
C2503 C2502 1.391 . S
H2504 C2512 0.950 . S
H2505 C2517 0.950 . S
H2506 C2514 0.950 . S
H2507 C2516 0.950 . S
H2508 C2518 0.950 . S
H2509 C2520 0.950 . S
H2510 C2522 0.950 . S
H2511 C2523 0.950 . S
C2512 H2504 0.950 . S
C2512 C2513 1.386 . S
C2512 C2514 1.391 . S
C2513 C2512 1.386 . S
C2513 C2517 1.393 . S
C2514 H2506 0.950 . S
C2514 C2512 1.391 . S
C2514 C2515 1.400 . S
C2515 C2514 1.400 . S
C2515 C2516 1.398 . S
C2515 C2521 1.491 . S
C2516 H2507 0.950 . S
C2516 C2515 1.398 . S
C2516 C2517 1.391 . S
C2517 H2505 0.950 . S
C2517 C2513 1.393 . S
C2517 C2516 1.391 . S
C2518 H2508 0.950 . S
C2518 C2519 1.386 . S
C2518 C2520 1.391 . S
C2519 C2518 1.386 . S
C2519 C2523 1.393 . S
C2520 H2509 0.950 . S
C2520 C2518 1.391 . S
C2520 C2521 1.400 . S
C2521 C2515 1.491 . S
C2521 C2520 1.400 . S
C2521 C2522 1.398 . S
C2522 H2510 0.950 . S
C2522 C2521 1.398 . S
C2522 C2523 1.391 . S
C2523 H2511 0.950 . S
C2523 C2519 1.393 . S
C2523 C2522 1.391 . S
H2524 C2532 0.950 . S
H2525 C2537 0.950 . S
H2526 C2534 0.950 . S
H2527 C2536 0.950 . S
H2528 C2538 0.950 . S
H2529 C2540 0.950 . S
H2530 C2542 0.950 . S
H2531 C2543 0.950 . S
C2532 H2524 0.950 . S
C2532 C2533 1.386 . S
C2532 C2534 1.391 . S
C2533 C2532 1.386 . S
C2533 C2537 1.393 . S
C2534 H2526 0.950 . S
C2534 C2532 1.391 . S
C2534 C2535 1.400 . S
C2535 C2534 1.400 . S
C2535 C2536 1.398 . S
C2535 C2541 1.491 . S
C2536 H2527 0.950 . S
C2536 C2535 1.398 . S
C2536 C2537 1.391 . S
C2537 H2525 0.950 . S
C2537 C2533 1.393 . S
C2537 C2536 1.391 . S
C2538 H2528 0.950 . S
C2538 C2539 1.386 . S
C2538 C2540 1.391 . S
C2539 C2538 1.386 . S
C2539 C2543 1.393 . S
C2540 H2529 0.950 . S
C2540 C2538 1.391 . S
C2540 C2541 1.400 . S
C2541 C2535 1.491 . S
C2541 C2540 1.400 . S
C2541 C2542 1.398 . S
C2542 H2530 0.950 . S
C2542 C2541 1.398 . S
C2542 C2543 1.391 . S
C2543 H2531 0.950 . S
C2543 C2539 1.393 . S
C2543 C2542 1.391 . S
H2544 C2552 0.950 . S
H2545 C2557 0.950 . S
H2546 C2554 0.950 . S
H2547 C2556 0.950 . S
H2548 C2558 0.950 . S
H2549 C2560 0.950 . S
H2550 C2562 0.950 . S
H2551 C2563 0.950 . S
C2552 H2544 0.950 . S
C2552 C2553 1.386 . S
C2552 C2554 1.391 . S
C2553 C2552 1.386 . S
C2553 C2557 1.393 . S
C2554 H2546 0.950 . S
C2554 C2552 1.391 . S
C2554 C2555 1.400 . S
C2555 C2554 1.400 . S
C2555 C2556 1.398 . S
C2555 C2561 1.491 . S
C2556 H2547 0.950 . S
C2556 C2555 1.398 . S
C2556 C2557 1.391 . S
C2557 H2545 0.950 . S
C2557 C2553 1.393 . S
C2557 C2556 1.391 . S
C2558 H2548 0.950 . S
C2558 C2559 1.386 . S
C2558 C2560 1.391 . S
C2559 C2558 1.386 . S
C2559 C2563 1.393 . S
C2560 H2549 0.950 . S
C2560 C2558 1.391 . S
C2560 C2561 1.400 . S
C2561 C2555 1.491 . S
C2561 C2560 1.400 . S
C2561 C2562 1.398 . S
C2562 H2550 0.950 . S
C2562 C2561 1.398 . S
C2562 C2563 1.391 . S
C2563 H2551 0.950 . S
C2563 C2559 1.393 . S
C2563 C2562 1.391 . S
H2564 C2572 0.950 . S
H2565 C2577 0.950 . S
H2566 C2574 0.950 . S
H2567 C2576 0.950 . S
H2568 C2578 0.950 . S
H2569 C2580 0.950 . S
H2570 C2582 0.950 . S
H2571 C2583 0.950 . S
C2572 H2564 0.950 . S
C2572 C2573 1.386 . S
C2572 C2574 1.391 . S
C2573 C2572 1.386 . S
C2573 C2577 1.393 . S
C2574 H2566 0.950 . S
C2574 C2572 1.391 . S
C2574 C2575 1.400 . S
C2575 C2574 1.400 . S
C2575 C2576 1.398 . S
C2575 C2581 1.491 . S
C2576 H2567 0.950 . S
C2576 C2575 1.398 . S
C2576 C2577 1.391 . S
C2577 H2565 0.950 . S
C2577 C2573 1.393 . S
C2577 C2576 1.391 . S
C2578 H2568 0.950 . S
C2578 C2579 1.386 . S
C2578 C2580 1.391 . S
C2579 C2578 1.386 . S
C2579 C2583 1.393 . S
C2580 H2569 0.950 . S
C2580 C2578 1.391 . S
C2580 C2581 1.400 . S
C2581 C2575 1.491 . S
C2581 C2580 1.400 . S
C2581 C2582 1.398 . S
C2582 H2570 0.950 . S
C2582 C2581 1.398 . S
C2582 C2583 1.391 . S
C2583 H2571 0.950 . S
C2583 C2579 1.393 . S
C2583 C2582 1.391 . S
H2584 C2592 0.950 . S
H2585 C2597 0.985 . S
H2586 C2594 0.950 . S
H2587 C2596 0.950 . S
H2588 C2598 0.950 . S
H2589 C2600 0.950 . S
H2590 C2602 0.950 . S
H2591 C2603 0.950 . S
C2592 H2584 0.950 . S
C2592 C2593 1.386 1_655 S
C2592 C2594 1.391 . S
C2593 C2592 1.386 1_455 S
C2593 C2597 1.388 . S
C2594 H2586 0.950 . S
C2594 C2592 1.391 . S
C2594 C2595 1.400 . S
C2595 C2594 1.400 . S
C2595 C2596 1.398 . S
C2595 C2601 1.491 . S
C2596 H2587 0.950 . S
C2596 C2595 1.398 . S
C2596 C2597 1.361 1_655 S
C2597 H2585 0.985 . S
C2597 C2593 1.388 . S
C2597 C2596 1.361 1_455 S
C2598 H2588 0.950 . S
C2598 C2599 1.386 . S
C2598 C2600 1.391 . S
C2599 C2598 1.386 . S
C2599 C2603 1.393 . S
C2600 H2589 0.950 . S
C2600 C2598 1.391 . S
C2600 C2601 1.400 . S
C2601 C2595 1.491 . S
C2601 C2600 1.400 . S
C2601 C2602 1.398 . S
C2602 H2590 0.950 . S
C2602 C2601 1.398 . S
C2602 C2603 1.391 . S
C2603 H2591 0.950 . S
C2603 C2599 1.393 . S
C2603 C2602 1.391 . S
H2604 C2612 0.950 . S
H2605 C2617 0.950 . S
H2606 C2614 0.950 . S
H2607 C2616 0.950 . S
H2608 C2618 0.950 . S
H2609 C2620 0.950 . S
H2610 C2622 0.950 . S
H2611 C2623 0.950 . S
C2612 H2604 0.950 . S
C2612 C2613 1.386 . S
C2612 C2614 1.391 . S
C2613 C2612 1.386 . S
C2613 C2617 1.393 . S
C2614 H2606 0.950 . S
C2614 C2612 1.391 . S
C2614 C2615 1.400 . S
C2615 C2614 1.400 . S
C2615 C2616 1.398 . S
C2615 C2621 1.491 . S
C2616 H2607 0.950 . S
C2616 C2615 1.398 . S
C2616 C2617 1.391 . S
C2617 H2605 0.950 . S
C2617 C2613 1.393 . S
C2617 C2616 1.391 . S
C2618 H2608 0.950 . S
C2618 C2619 1.386 . S
C2618 C2620 1.391 . S
C2619 C2618 1.386 . S
C2619 C2623 1.393 . S
C2620 H2609 0.950 . S
C2620 C2618 1.391 . S
C2620 C2621 1.400 . S
C2621 C2615 1.491 . S
C2621 C2620 1.400 . S
C2621 C2622 1.398 . S
C2622 H2610 0.950 . S
C2622 C2621 1.398 . S
C2622 C2623 1.391 . S
C2623 H2611 0.950 . S
C2623 C2619 1.393 . S
C2623 C2622 1.391 . S
H2624 C2632 0.950 . S
H2625 C2637 0.950 . S
H2626 C2634 0.950 . S
H2627 C2636 0.950 . S
H2628 C2638 0.950 . S
H2629 C2640 0.950 . S
H2630 C2642 0.950 . S
H2631 C2643 0.950 . S
C2632 H2624 0.950 . S
C2632 C2633 1.386 . S
C2632 C2634 1.391 . S
C2633 C2632 1.386 . S
C2633 C2637 1.393 . S
C2634 H2626 0.950 . S
C2634 C2632 1.391 . S
C2634 C2635 1.400 . S
C2635 C2634 1.400 . S
C2635 C2636 1.398 . S
C2635 C2641 1.491 . S
C2636 H2627 0.950 . S
C2636 C2635 1.398 . S
C2636 C2637 1.391 . S
C2637 H2625 0.950 . S
C2637 C2633 1.393 . S
C2637 C2636 1.391 . S
C2638 H2628 0.950 . S
C2638 C2639 1.386 . S
C2638 C2640 1.391 . S
C2639 C2638 1.386 . S
C2639 C2643 1.393 . S
C2640 H2629 0.950 . S
C2640 C2638 1.391 . S
C2640 C2641 1.400 . S
C2641 C2635 1.491 . S
C2641 C2640 1.400 . S
C2641 C2642 1.398 . S
C2642 H2630 0.950 . S
C2642 C2641 1.398 . S
C2642 C2643 1.391 . S
C2643 H2631 0.950 . S
C2643 C2639 1.393 . S
C2643 C2642 1.391 . S
H2644 C2652 0.950 . S
H2645 C2657 0.950 . S
H2646 C2654 0.950 . S
H2647 C2656 0.950 . S
H2648 C2658 0.950 . S
H2649 C2660 0.950 . S
H2650 C2662 0.950 . S
H2651 C2663 0.950 1_545 S
C2652 H2644 0.950 . S
C2652 C2653 1.386 . S
C2652 C2654 1.391 . S
C2653 C2652 1.386 . S
C2653 C2657 1.393 . S
C2654 H2646 0.950 . S
C2654 C2652 1.391 . S
C2654 C2655 1.400 . S
C2655 C2654 1.400 . S
C2655 C2656 1.398 . S
C2655 C2661 1.491 . S
C2656 H2647 0.950 . S
C2656 C2655 1.398 . S
C2656 C2657 1.391 . S
C2657 H2645 0.950 . S
C2657 C2653 1.393 . S
C2657 C2656 1.391 . S
C2658 H2648 0.950 . S
C2658 C2659 1.386 . S
C2658 C2660 1.391 . S
C2659 C2658 1.386 . S
C2659 C2663 1.393 . S
C2660 H2649 0.950 . S
C2660 C2658 1.391 . S
C2660 C2661 1.400 . S
C2661 C2655 1.491 . S
C2661 C2660 1.400 . S
C2661 C2662 1.398 . S
C2662 H2650 0.950 . S
C2662 C2661 1.398 . S
C2662 C2663 1.391 . S
C2663 H2651 0.950 1_565 S
C2663 C2659 1.393 . S
C2663 C2662 1.391 . S
H2664 C2672 0.950 . S
H2665 C2677 0.950 . S
H2666 C2674 0.950 . S
H2667 C2676 0.950 1_545 S
H2668 C2678 0.950 . S
H2669 C2680 0.950 . S
H2670 C2682 0.950 . S
H2671 C2683 0.950 . S
C2672 H2664 0.950 . S
C2672 C2673 1.386 . S
C2672 C2674 1.391 . S
C2673 C2672 1.386 . S
C2673 C2677 1.393 . S
C2674 H2666 0.950 . S
C2674 C2672 1.391 . S
C2674 C2675 1.400 . S
C2675 C2674 1.400 . S
C2675 C2676 1.398 . S
C2675 C2681 1.491 . S
C2676 H2667 0.950 1_565 S
C2676 C2675 1.398 . S
C2676 C2677 1.391 . S
C2677 H2665 0.950 . S
C2677 C2673 1.393 . S
C2677 C2676 1.391 . S
C2678 H2668 0.950 . S
C2678 C2679 1.386 1_545 S
C2678 C2680 1.391 . S
C2679 C2678 1.386 1_565 S
C2679 C2683 1.392 . S
C2680 H2669 0.950 . S
C2680 C2678 1.391 . S
C2680 C2681 1.400 1_545 S
C2681 C2675 1.491 . S
C2681 C2680 1.400 1_565 S
C2681 C2682 1.398 . S
C2682 H2670 0.950 . S
C2682 C2681 1.398 . S
C2682 C2683 1.391 . S
C2683 H2671 0.950 . S
C2683 C2679 1.392 . S
C2683 C2682 1.391 . S
H2684 C2692 0.950 . S
H2685 C2697 0.948 . S
H2686 C2694 0.950 . S
H2687 C2696 0.950 1_655 S
H2688 C2698 0.950 . S
H2689 C2700 0.950 . S
H2690 C2702 0.950 . S
H2691 C2703 0.950 . S
C2692 H2684 0.950 . S
C2692 C2693 1.386 . S
C2692 C2694 1.391 . S
C2693 C2692 1.386 . S
C2693 C2697 1.393 . S
C2694 H2686 0.950 . S
C2694 C2692 1.391 . S
C2694 C2695 1.400 . S
C2695 C2694 1.400 . S
C2695 C2696 1.398 . S
C2695 C2701 1.491 . S
C2696 H2687 0.950 1_455 S
C2696 C2695 1.398 . S
C2696 C2697 1.391 . S
C2697 H2685 0.948 . S
C2697 C2693 1.393 . S
C2697 C2696 1.391 . S
C2698 H2688 0.950 . S
C2698 C2699 1.428 . S
C2698 C2700 1.391 . S
C2699 C2698 1.428 . S
C2699 C2703 1.360 1_655 S
C2700 H2689 0.950 . S
C2700 C2698 1.391 . S
C2700 C2701 1.400 1_655 S
C2701 C2695 1.491 . S
C2701 C2700 1.400 1_455 S
C2701 C2702 1.398 . S
C2702 H2690 0.950 . S
C2702 C2701 1.398 . S
C2702 C2703 1.391 . S
C2703 H2691 0.950 . S
C2703 C2699 1.360 1_455 S
C2703 C2702 1.391 . S
H2704 C2712 0.950 . S
H2705 C2717 0.950 . S
H2706 C2714 0.950 . S
H2707 C2716 0.950 . S
H2708 C2718 0.950 . S
H2709 C2720 0.950 . S
H2710 C2722 0.950 . S
H2711 C2723 0.950 . S
C2712 H2704 0.950 . S
C2712 C2713 1.386 . S
C2712 C2714 1.391 . S
C2713 C2712 1.386 . S
C2713 C2717 1.393 . S
C2714 H2706 0.950 . S
C2714 C2712 1.391 . S
C2714 C2715 1.400 . S
C2715 C2714 1.400 . S
C2715 C2716 1.398 . S
C2715 C2721 1.491 . S
C2716 H2707 0.950 . S
C2716 C2715 1.398 . S
C2716 C2717 1.391 . S
C2717 H2705 0.950 . S
C2717 C2713 1.393 . S
C2717 C2716 1.391 . S
C2718 H2708 0.950 . S
C2718 C2719 1.386 . S
C2718 C2720 1.391 . S
C2719 C2718 1.386 . S
C2719 C2723 1.393 . S
C2720 H2709 0.950 . S
C2720 C2718 1.391 . S
C2720 C2721 1.400 . S
C2721 C2715 1.491 . S
C2721 C2720 1.400 . S
C2721 C2722 1.398 . S
C2722 H2710 0.950 . S
C2722 C2721 1.398 . S
C2722 C2723 1.391 . S
C2723 H2711 0.950 . S
C2723 C2719 1.393 . S
C2723 C2722 1.391 . S
H2724 C2732 0.950 . S
H2725 C2737 0.950 . S
H2726 C2734 0.950 . S
H2727 C2736 0.950 . S
H2728 C2738 0.950 . S
H2729 C2740 0.950 . S
H2730 C2742 0.950 . S
H2731 C2743 0.950 . S
C2732 H2724 0.950 . S
C2732 C2733 1.386 . S
C2732 C2734 1.391 . S
C2733 C2732 1.386 . S
C2733 C2737 1.393 . S
C2734 H2726 0.950 . S
C2734 C2732 1.391 . S
C2734 C2735 1.400 . S
C2735 C2734 1.400 . S
C2735 C2736 1.398 . S
C2735 C2741 1.491 . S
C2736 H2727 0.950 . S
C2736 C2735 1.398 . S
C2736 C2737 1.391 . S
C2737 H2725 0.950 . S
C2737 C2733 1.393 . S
C2737 C2736 1.391 . S
C2738 H2728 0.950 . S
C2738 C2739 1.386 . S
C2738 C2740 1.391 . S
C2739 C2738 1.386 . S
C2739 C2743 1.393 . S
C2740 H2729 0.950 . S
C2740 C2738 1.391 . S
C2740 C2741 1.400 . S
C2741 C2735 1.491 . S
C2741 C2740 1.400 . S
C2741 C2742 1.398 . S
C2742 H2730 0.950 . S
C2742 C2741 1.398 . S
C2742 C2743 1.391 . S
C2743 H2731 0.950 . S
C2743 C2739 1.393 . S
C2743 C2742 1.391 . S
H2744 C2752 0.950 . S
H2745 C2757 0.950 . S
H2746 C2754 0.950 . S
H2747 C2756 0.950 . S
H2748 C2758 0.950 . S
H2749 C2760 0.950 . S
H2750 C2762 0.950 . S
H2751 C2763 0.950 . S
C2752 H2744 0.950 . S
C2752 C2753 1.386 . S
C2752 C2754 1.391 . S
C2753 C2752 1.386 . S
C2753 C2757 1.393 . S
C2754 H2746 0.950 . S
C2754 C2752 1.391 . S
C2754 C2755 1.400 . S
C2755 C2754 1.400 . S
C2755 C2756 1.398 . S
C2755 C2761 1.491 . S
C2756 H2747 0.950 . S
C2756 C2755 1.398 . S
C2756 C2757 1.391 . S
C2757 H2745 0.950 . S
C2757 C2753 1.393 . S
C2757 C2756 1.391 . S
C2758 H2748 0.950 . S
C2758 C2759 1.386 . S
C2758 C2760 1.391 . S
C2759 C2758 1.386 . S
C2759 C2763 1.393 . S
C2760 H2749 0.950 . S
C2760 C2758 1.391 . S
C2760 C2761 1.400 . S
C2761 C2755 1.491 . S
C2761 C2760 1.400 . S
C2761 C2762 1.398 . S
C2762 H2750 0.950 . S
C2762 C2761 1.398 . S
C2762 C2763 1.391 . S
C2763 H2751 0.950 . S
C2763 C2759 1.393 . S
C2763 C2762 1.391 . S
H2764 C2772 0.950 . S
H2765 C2777 0.950 . S
H2766 C2774 0.950 . S
H2767 C2776 0.950 . S
H2768 C2778 0.950 . S
H2769 C2780 0.950 . S
H2770 C2782 0.950 . S
H2771 C2783 0.950 . S
C2772 H2764 0.950 . S
C2772 C2773 1.386 . S
C2772 C2774 1.391 . S
C2773 C2772 1.386 . S
C2773 C2777 1.393 . S
C2774 H2766 0.950 . S
C2774 C2772 1.391 . S
C2774 C2775 1.400 . S
C2775 C2774 1.400 . S
C2775 C2776 1.398 . S
C2775 C2781 1.491 . S
C2776 H2767 0.950 . S
C2776 C2775 1.398 . S
C2776 C2777 1.391 . S
C2777 H2765 0.950 . S
C2777 C2773 1.393 . S
C2777 C2776 1.391 . S
C2778 H2768 0.950 . S
C2778 C2779 1.386 . S
C2778 C2780 1.391 . S
C2779 C2778 1.386 . S
C2779 C2783 1.393 . S
C2780 H2769 0.950 . S
C2780 C2778 1.391 . S
C2780 C2781 1.400 . S
C2781 C2775 1.491 . S
C2781 C2780 1.400 . S
C2781 C2782 1.398 . S
C2782 H2770 0.950 . S
C2782 C2781 1.398 . S
C2782 C2783 1.391 . S
C2783 H2771 0.950 . S
C2783 C2779 1.393 . S
C2783 C2782 1.391 . S
H2784 C2792 0.950 . S
H2785 C2797 0.950 1_565 S
H2786 C2794 0.950 . S
H2787 C2796 0.950 1_565 S
H2788 C2798 0.950 . S
H2789 C2800 0.962 . S
H2790 C2802 0.950 . S
H2791 C2803 0.950 . S
C2792 H2784 0.950 . S
C2792 C2793 1.386 . S
C2792 C2794 1.391 . S
C2793 C2792 1.386 . S
C2793 C2797 1.393 . S
C2794 H2786 0.950 . S
C2794 C2792 1.391 . S
C2794 C2795 1.400 . S
C2795 C2794 1.400 . S
C2795 C2796 1.398 . S
C2795 C2801 1.491 . S
C2796 H2787 0.950 1_545 S
C2796 C2795 1.398 . S
C2796 C2797 1.391 . S
C2797 H2785 0.950 1_545 S
C2797 C2793 1.393 . S
C2797 C2796 1.391 . S
C2798 H2788 0.950 . S
C2798 C2799 1.386 1_565 S
C2798 C2800 1.405 . S
C2799 C2798 1.386 1_545 S
C2799 C2803 1.393 . S
C2800 H2789 0.962 . S
C2800 C2798 1.405 . S
C2800 C2801 1.376 1_565 S
C2801 C2795 1.491 . S
C2801 C2800 1.376 1_545 S
C2801 C2802 1.398 . S
C2802 H2790 0.950 . S
C2802 C2801 1.398 . S
C2802 C2803 1.391 . S
C2803 H2791 0.950 . S
C2803 C2799 1.393 . S
C2803 C2802 1.391 . S
H2804 C2812 0.950 1_455 S
H2805 C2817 0.950 . S
H2806 C2814 0.950 1_455 S
H2807 C2816 0.950 . S
H2808 C2818 0.950 . S
H2809 C2820 0.950 . S
H2810 C2822 0.950 . S
H2811 C2823 0.950 . S
C2812 H2804 0.950 1_655 S
C2812 C2813 1.386 . S
C2812 C2814 1.391 . S
C2813 C2812 1.386 . S
C2813 C2817 1.393 . S
C2814 H2806 0.950 1_655 S
C2814 C2812 1.391 . S
C2814 C2815 1.400 . S
C2815 C2814 1.400 . S
C2815 C2816 1.398 . S
C2815 C2821 1.491 . S
C2816 H2807 0.950 . S
C2816 C2815 1.398 . S
C2816 C2817 1.391 . S
C2817 H2805 0.950 . S
C2817 C2813 1.393 . S
C2817 C2816 1.391 . S
C2818 H2808 0.950 . S
C2818 C2819 1.386 . S
C2818 C2820 1.391 . S
C2819 C2818 1.386 . S
C2819 C2823 1.393 1_655 S
C2820 H2809 0.950 . S
C2820 C2818 1.391 . S
C2820 C2821 1.400 . S
C2821 C2815 1.491 . S
C2821 C2820 1.400 . S
C2821 C2822 1.398 1_655 S
C2822 H2810 0.950 . S
C2822 C2821 1.398 1_455 S
C2822 C2823 1.391 . S
C2823 H2811 0.950 . S
C2823 C2819 1.393 1_455 S
C2823 C2822 1.391 . S
H2824 C2832 0.950 . S
H2825 C2837 0.950 . S
H2826 C2834 0.950 . S
H2827 C2836 0.950 . S
H2828 C2838 0.950 . S
H2829 C2840 0.950 . S
H2830 C2842 0.950 . S
H2831 C2843 0.950 . S
C2832 H2824 0.950 . S
C2832 C2833 1.386 . S
C2832 C2834 1.391 . S
C2833 C2832 1.386 . S
C2833 C2837 1.393 . S
C2834 H2826 0.950 . S
C2834 C2832 1.391 . S
C2834 C2835 1.400 . S
C2835 C2834 1.400 . S
C2835 C2836 1.398 . S
C2835 C2841 1.491 . S
C2836 H2827 0.950 . S
C2836 C2835 1.398 . S
C2836 C2837 1.391 . S
C2837 H2825 0.950 . S
C2837 C2833 1.393 . S
C2837 C2836 1.391 . S
C2838 H2828 0.950 . S
C2838 C2839 1.386 . S
C2838 C2840 1.391 . S
C2839 C2838 1.386 . S
C2839 C2843 1.393 . S
C2840 H2829 0.950 . S
C2840 C2838 1.391 . S
C2840 C2841 1.400 . S
C2841 C2835 1.491 . S
C2841 C2840 1.400 . S
C2841 C2842 1.398 . S
C2842 H2830 0.950 . S
C2842 C2841 1.398 . S
C2842 C2843 1.391 . S
C2843 H2831 0.950 . S
C2843 C2839 1.393 . S
C2843 C2842 1.391 . S
H2844 C2852 0.950 . S
H2845 C2857 0.950 . S
H2846 C2854 0.950 . S
H2847 C2856 0.950 . S
H2848 C2858 0.950 . S
H2849 C2860 0.950 . S
H2850 C2862 0.950 . S
H2851 C2863 0.950 . S
C2852 H2844 0.950 . S
C2852 C2853 1.386 . S
C2852 C2854 1.391 . S
C2853 C2852 1.386 . S
C2853 C2857 1.393 . S
C2854 H2846 0.950 . S
C2854 C2852 1.391 . S
C2854 C2855 1.400 . S
C2855 C2854 1.400 . S
C2855 C2856 1.398 . S
C2855 C2861 1.491 . S
C2856 H2847 0.950 . S
C2856 C2855 1.398 . S
C2856 C2857 1.391 . S
C2857 H2845 0.950 . S
C2857 C2853 1.393 . S
C2857 C2856 1.391 . S
C2858 H2848 0.950 . S
C2858 C2859 1.386 . S
C2858 C2860 1.391 . S
C2859 C2858 1.386 . S
C2859 C2863 1.393 . S
C2860 H2849 0.950 . S
C2860 C2858 1.391 . S
C2860 C2861 1.400 . S
C2861 C2855 1.491 . S
C2861 C2860 1.400 . S
C2861 C2862 1.398 . S
C2862 H2850 0.950 . S
C2862 C2861 1.398 . S
C2862 C2863 1.391 . S
C2863 H2851 0.950 . S
C2863 C2859 1.393 . S
C2863 C2862 1.391 . S
H2864 C2872 0.950 . S
H2865 C2877 0.950 . S
H2866 C2874 0.950 . S
H2867 C2876 0.950 . S
H2868 C2878 0.950 . S
H2869 C2880 0.950 . S
H2870 C2882 0.950 . S
H2871 C2883 0.950 . S
C2872 H2864 0.950 . S
C2872 C2873 1.386 . S
C2872 C2874 1.391 . S
C2873 C2872 1.386 . S
C2873 C2877 1.393 . S
C2874 H2866 0.950 . S
C2874 C2872 1.391 . S
C2874 C2875 1.400 . S
C2875 C2874 1.400 . S
C2875 C2876 1.398 . S
C2875 C2881 1.491 . S
C2876 H2867 0.950 . S
C2876 C2875 1.398 . S
C2876 C2877 1.391 . S
C2877 H2865 0.950 . S
C2877 C2873 1.393 . S
C2877 C2876 1.391 . S
C2878 H2868 0.950 . S
C2878 C2879 1.386 . S
C2878 C2880 1.391 . S
C2879 C2878 1.386 . S
C2879 C2883 1.393 . S
C2880 H2869 0.950 . S
C2880 C2878 1.391 . S
C2880 C2881 1.400 . S
C2881 C2875 1.491 . S
C2881 C2880 1.400 . S
C2881 C2882 1.398 . S
C2882 H2870 0.950 . S
C2882 C2881 1.398 . S
C2882 C2883 1.391 . S
C2883 H2871 0.950 . S
C2883 C2879 1.393 . S
C2883 C2882 1.391 . S
H2884 C2892 0.950 . S
H2885 C2897 0.950 . S
H2886 C2894 0.950 . S
H2887 C2896 0.950 . S
H2888 C2898 0.950 . S
H2889 C2900 0.950 . S
H2890 C2902 0.950 . S
H2891 C2903 0.950 . S
C2892 H2884 0.950 . S
C2892 C2893 1.386 . S
C2892 C2894 1.391 . S
C2893 C2892 1.386 . S
C2893 C2897 1.393 . S
C2894 H2886 0.950 . S
C2894 C2892 1.391 . S
C2894 C2895 1.400 . S
C2895 C2894 1.400 . S
C2895 C2896 1.398 . S
C2895 C2901 1.491 . S
C2896 H2887 0.950 . S
C2896 C2895 1.398 . S
C2896 C2897 1.391 . S
C2897 H2885 0.950 . S
C2897 C2893 1.393 . S
C2897 C2896 1.391 . S
C2898 H2888 0.950 . S
C2898 C2899 1.386 . S
C2898 C2900 1.391 . S
C2899 C2898 1.386 . S
C2899 C2903 1.393 . S
C2900 H2889 0.950 . S
C2900 C2898 1.391 . S
C2900 C2901 1.400 . S
C2901 C2895 1.491 . S
C2901 C2900 1.400 . S
C2901 C2902 1.398 . S
C2902 H2890 0.950 . S
C2902 C2901 1.398 . S
C2902 C2903 1.391 . S
C2903 H2891 0.950 . S
C2903 C2899 1.393 . S
C2903 C2902 1.391 . S
H2904 C2912 0.950 . S
H2905 C2917 0.950 . S
H2906 C2914 0.950 . S
H2907 C2916 0.950 . S
H2908 C2918 0.950 . S
H2909 C2920 0.950 . S
H2910 C2922 0.950 . S
H2911 C2923 0.950 . S
C2912 H2904 0.950 . S
C2912 C2913 1.386 . S
C2912 C2914 1.391 . S
C2913 C2912 1.386 . S
C2913 C2917 1.393 . S
C2914 H2906 0.950 . S
C2914 C2912 1.391 . S
C2914 C2915 1.400 . S
C2915 C2914 1.400 . S
C2915 C2916 1.398 . S
C2915 C2921 1.491 . S
C2916 H2907 0.950 . S
C2916 C2915 1.398 . S
C2916 C2917 1.391 . S
C2917 H2905 0.950 . S
C2917 C2913 1.393 . S
C2917 C2916 1.391 . S
C2918 H2908 0.950 . S
C2918 C2919 1.386 . S
C2918 C2920 1.391 . S
C2919 C2918 1.386 . S
C2919 C2923 1.393 . S
C2920 H2909 0.950 . S
C2920 C2918 1.391 . S
C2920 C2921 1.400 . S
C2921 C2915 1.491 . S
C2921 C2920 1.400 . S
C2921 C2922 1.398 . S
C2922 H2910 0.950 . S
C2922 C2921 1.398 . S
C2922 C2923 1.391 . S
C2923 H2911 0.950 . S
C2923 C2919 1.393 . S
C2923 C2922 1.391 . S
H2924 C2932 0.950 . S
H2925 C2937 0.950 . S
H2926 C2934 0.950 . S
H2927 C2936 0.950 . S
H2928 C2938 0.950 . S
H2929 C2940 0.950 . S
H2930 C2942 0.950 . S
H2931 C2943 0.950 . S
C2932 H2924 0.950 . S
C2932 C2933 1.386 . S
C2932 C2934 1.391 . S
C2933 C2932 1.386 . S
C2933 C2937 1.393 . S
C2934 H2926 0.950 . S
C2934 C2932 1.391 . S
C2934 C2935 1.400 . S
C2935 C2934 1.400 . S
C2935 C2936 1.398 . S
C2935 C2941 1.491 . S
C2936 H2927 0.950 . S
C2936 C2935 1.398 . S
C2936 C2937 1.391 . S
C2937 H2925 0.950 . S
C2937 C2933 1.393 . S
C2937 C2936 1.391 . S
C2938 H2928 0.950 . S
C2938 C2939 1.386 . S
C2938 C2940 1.391 . S
C2939 C2938 1.386 . S
C2939 C2943 1.393 . S
C2940 H2929 0.950 . S
C2940 C2938 1.391 . S
C2940 C2941 1.400 . S
C2941 C2935 1.491 . S
C2941 C2940 1.400 . S
C2941 C2942 1.398 . S
C2942 H2930 0.950 . S
C2942 C2941 1.398 . S
C2942 C2943 1.391 . S
C2943 H2931 0.950 . S
C2943 C2939 1.393 . S
C2943 C2942 1.391 . S
H2944 C2952 0.950 . S
H2945 C2957 0.950 . S
H2946 C2954 0.950 . S
H2947 C2956 0.950 . S
H2948 C2958 0.950 . S
H2949 C2960 0.950 . S
H2950 C2962 0.950 . S
H2951 C2963 0.950 . S
C2952 H2944 0.950 . S
C2952 C2953 1.386 . S
C2952 C2954 1.391 . S
C2953 C2952 1.386 . S
C2953 C2957 1.393 . S
C2954 H2946 0.950 . S
C2954 C2952 1.391 . S
C2954 C2955 1.400 . S
C2955 C2954 1.400 . S
C2955 C2956 1.398 . S
C2955 C2961 1.491 . S
C2956 H2947 0.950 . S
C2956 C2955 1.398 . S
C2956 C2957 1.391 . S
C2957 H2945 0.950 . S
C2957 C2953 1.393 . S
C2957 C2956 1.391 . S
C2958 H2948 0.950 . S
C2958 C2959 1.386 . S
C2958 C2960 1.391 . S
C2959 C2958 1.386 . S
C2959 C2963 1.393 . S
C2960 H2949 0.950 . S
C2960 C2958 1.391 . S
C2960 C2961 1.400 . S
C2961 C2955 1.491 . S
C2961 C2960 1.400 . S
C2961 C2962 1.398 . S
C2962 H2950 0.950 . S
C2962 C2961 1.398 . S
C2962 C2963 1.391 . S
C2963 H2951 0.950 . S
C2963 C2959 1.393 . S
C2963 C2962 1.391 . S
H2964 C2972 0.950 . S
H2965 C2977 0.950 . S
H2966 C2974 0.950 . S
H2967 C2976 0.950 1_455 S
H2968 C2978 0.950 . S
H2969 C2980 0.950 . S
H2970 C2982 0.950 . S
H2971 C2983 0.950 . S
C2972 H2964 0.950 . S
C2972 C2973 1.386 . S
C2972 C2974 1.391 . S
C2973 C2972 1.386 . S
C2973 C2977 1.393 . S
C2974 H2966 0.950 . S
C2974 C2972 1.391 . S
C2974 C2975 1.400 . S
C2975 C2974 1.400 . S
C2975 C2976 1.398 . S
C2975 C2981 1.491 . S
C2976 H2967 0.950 1_655 S
C2976 C2975 1.398 . S
C2976 C2977 1.391 . S
C2977 H2965 0.950 . S
C2977 C2973 1.393 . S
C2977 C2976 1.391 . S
C2978 H2968 0.950 . S
C2978 C2979 1.386 1_455 S
C2978 C2980 1.391 . S
C2979 C2978 1.386 1_655 S
C2979 C2983 1.393 . S
C2980 H2969 0.950 . S
C2980 C2978 1.391 . S
C2980 C2981 1.400 1_455 S
C2981 C2975 1.491 . S
C2981 C2980 1.400 1_655 S
C2981 C2982 1.398 . S
C2982 H2970 0.950 . S
C2982 C2981 1.398 . S
C2982 C2983 1.391 . S
C2983 H2971 0.950 . S
C2983 C2979 1.393 . S
C2983 C2982 1.391 . S
H2984 C2992 0.950 . S
H2985 C2997 0.950 . S
H2986 C2994 0.950 . S
H2987 C2996 0.950 . S
H2988 C2998 0.950 . S
H2989 C3000 0.950 . S
H2990 C3002 0.950 . S
H2991 C3003 0.950 . S
C2992 H2984 0.950 . S
C2992 C2993 1.386 . S
C2992 C2994 1.391 . S
C2993 C2992 1.386 . S
C2993 C2997 1.393 . S
C2994 H2986 0.950 . S
C2994 C2992 1.391 . S
C2994 C2995 1.400 . S
C2995 C2994 1.400 . S
C2995 C2996 1.398 . S
C2995 C3001 1.491 . S
C2996 H2987 0.950 . S
C2996 C2995 1.398 . S
C2996 C2997 1.391 . S
C2997 H2985 0.950 . S
C2997 C2993 1.393 . S
C2997 C2996 1.391 . S
C2998 H2988 0.950 . S
C2998 C2999 1.386 . S
C2998 C3000 1.391 . S
C2999 C2998 1.386 . S
C2999 C3003 1.393 . S
C3000 H2989 0.950 . S
C3000 C2998 1.391 . S
C3000 C3001 1.400 . S
C3001 C2995 1.491 . S
C3001 C3000 1.400 . S
C3001 C3002 1.398 . S
C3002 H2990 0.950 . S
C3002 C3001 1.398 . S
C3002 C3003 1.391 . S
C3003 H2991 0.950 . S
C3003 C2999 1.393 . S
C3003 C3002 1.391 . S
H3004 C3012 0.950 . S
H3005 C3017 0.950 . S
H3006 C3014 0.950 . S
H3007 C3016 0.950 1_565 S
H3008 C3018 0.950 . S
H3009 C3020 1.014 . S
H3010 C3022 0.950 . S
H3011 C3023 0.950 . S
C3012 H3004 0.950 . S
C3012 C3013 1.386 . S
C3012 C3014 1.391 . S
C3013 C3012 1.386 . S
C3013 C3017 1.393 . S
C3014 H3006 0.950 . S
C3014 C3012 1.391 . S
C3014 C3015 1.400 . S
C3015 C3014 1.400 . S
C3015 C3016 1.398 . S
C3015 C3021 1.491 . S
C3016 H3007 0.950 1_545 S
C3016 C3015 1.398 . S
C3016 C3017 1.391 . S
C3017 H3005 0.950 . S
C3017 C3013 1.393 . S
C3017 C3016 1.391 . S
C3018 H3008 0.950 . S
C3018 C3019 1.386 1_565 S
C3018 C3020 1.383 . S
C3019 C3018 1.386 1_545 S
C3019 C3023 1.393 . S
C3020 H3009 1.014 . S
C3020 C3018 1.383 . S
C3020 C3021 1.349 1_565 S
C3021 C3015 1.491 . S
C3021 C3020 1.349 1_545 S
C3021 C3022 1.398 . S
C3022 H3010 0.950 . S
C3022 C3021 1.398 . S
C3022 C3023 1.391 . S
C3023 H3011 0.950 . S
C3023 C3019 1.393 . S
C3023 C3022 1.391 . S
C1593 C9 1.190 1_655 S
C1599 C981 1.137 . S
C1613 C19 1.609 . S
C1619 C1061 1.550 . S
C1639 C1129 1.366 . S
C1633 C33 1.405 . S
C1653 C37 1.731 . S
C1659 C1209 1.725 . S
C1673 C5 1.494 . S
C1679 C1283 1.491 . S
C1693 C23 1.695 . S
C1699 C1351 1.598 . S
C1713 C47 1.135 . S
C1719 C1277 1.098 . S
C1739 C1357 1.507 . S
C1733 C65 1.507 . S
C1759 C1203 1.301 . S
C1753 C75 1.306 1_556 S
C1773 C79 1.622 . S
C1779 C1135 1.628 . S
C1799 C987 1.493 . S
C1793 C51 1.480 . S
C1813 C61 1.488 . S
C1819 C1055 1.473 . S
C1833 C93 1.563 . S
C1839 C1425 1.421 . S
C1853 C103 1.658 . S
C1859 C1505 1.590 . S
C1879 C1573 1.539 . S
C1873 C117 1.627 . S
C1893 C121 1.955 . S
C1899 C321 1.887 . S
C1913 C89 1.768 . S
C1919 C395 1.706 . S
C1933 C107 1.725 . S
C1939 C463 1.647 . S
C1953 C131 1.192 . S
C1959 C389 1.142 . S
C1973 C149 1.544 . S
C1979 C469 1.540 . S
C1999 C315 1.391 . S
C1993 C159 1.419 . S
C2019 C1579 1.848 . S
C2013 C163 1.852 . S
C2039 C1431 1.609 . S
C2033 C135 1.616 . S
C2059 C1499 1.517 . S
C2053 C145 1.529 . S
C2073 C177 1.449 . S
C2079 C537 1.343 . S
C2093 C187 1.664 . S
C2099 C617 1.614 . S
C2113 C201 1.672 . S
C2119 C685 1.587 . S
C2133 C205 2.054 . S
C2139 C765 2.002 . S
C2159 C839 1.676 . S
C2153 C173 1.747 . S
C2179 C907 1.650 . S
C2173 C191 1.758 . S
C2199 C833 1.263 . S
C2193 C215 1.317 . S
C2219 C913 1.544 . S
C2213 C233 1.540 . S
C2233 C243 1.366 . S
C2239 C759 1.335 . S
C2259 C691 1.744 . S
C2253 C247 1.738 . S
C2273 C219 1.645 . S
C2279 C543 1.645 . S
C2299 C611 1.491 . S
C2293 C229 1.512 . S
C2319 C291 1.920 . S
C2313 C11 1.968 . S
C2333 C14 1.465 . S
C2339 C365 1.438 . S
C2359 C451 1.592 . S
C2353 C28 1.598 . S
C2379 C525 1.300 . S
C2373 C39 1.323 1_556 S
C2399 C587 1.638 . S
C2393 C0 1.659 1_556 S
C2419 C673 1.483 . S
C2413 C25 1.505 . S
C2433 C42 2.233 . S
C2439 C661 2.126 . S
C2453 C67 1.696 . S
C2459 C513 1.597 . S
C2473 C70 1.725 . S
C2479 C599 1.661 . S
C2493 C81 1.516 . S
C2499 C377 1.456 . S
C2519 C439 1.765 . S
C2513 C53 1.877 . S
C2533 C56 1.816 . S
C2539 C303 1.743 . S
C2559 C735 1.876 . S
C2553 C95 1.911 . S
C2573 C98 1.618 1_545 S
C2579 C809 1.597 . S
C2593 C112 1.658 . S
C2599 C895 1.641 . S
C2619 C969 1.072 . S
C2613 C123 1.081 . S
C2633 C84 1.578 . S
C2639 C1031 1.558 . S
C2653 C109 1.367 . S
C2659 C1117 1.368 . S
C2673 C126 1.906 . S
C2679 C1105 1.853 1_565 S
C2693 C151 1.413 . S
C2699 C957 1.360 . S
C2719 C1043 1.619 . S
C2713 C154 1.675 . S
C2733 C165 1.488 . S
C2739 C821 1.405 . S
C2753 C137 1.885 . S
C2759 C883 1.788 . S
C2779 C747 1.841 . S
C2773 C140 1.918 1_655 S
C2799 C1179 1.736 . S
C2793 C179 1.773 . S
C2813 C182 1.302 . S
C2819 C1253 1.309 . S
C2833 C196 1.554 . S
C2839 C1339 1.545 . S
C2859 C1413 1.263 . S
C2853 C207 1.299 . S
C2879 C1475 1.664 . S
C2873 C168 1.686 1_565 S
C2893 C193 1.619 . S
C2899 C1561 1.597 . S
C2913 C210 2.179 . S
C2919 C1549 2.076 . S
C2933 C235 1.832 1_565 S
C2939 C1401 1.730 . S
C2959 C1487 1.724 . S
C2953 C238 1.780 1_455 S
C2979 C1265 1.075 . S
C2973 C249 1.102 . S
C2999 C1327 1.699 . S
C2993 C221 1.787 . S
C3013 C224 1.535 . S
C3019 C1191 1.507 . S
