# Generated by pormake.
# Topology scu, (8,4)-cn, num edge types: 1
# Building blocks:
#     Node 0, Type 0, BuildingBlock: VETTIZ_charged_sbu_0, # of connection points: 8
#     Node 1, Type 1, BuildingBlock: IZENUY_clean_linker_0, # of connection points: 4
#     Node 2, Type 1, BuildingBlock: IZENUY_clean_linker_0, # of connection points: 4
#     Edge 3, Type (0, 1), BuildingBlock: XUDNAN_clean_linker_2, # of connection points: 2
#     Edge 4, Type (0, 1), BuildingBlock: XUDNAN_clean_linker_2, # of connection points: 2
#     Edge 5, Type (0, 1), BuildingBlock: XUDNAN_clean_linker_2, # of connection points: 2
#     Edge 6, Type (0, 1), BuildingBlock: XUDNAN_clean_linker_2, # of connection points: 2
#     Edge 7, Type (0, 1), BuildingBlock: XUDNAN_clean_linker_2, # of connection points: 2
#     Edge 8, Type (0, 1), BuildingBlock: XUDNAN_clean_linker_2, # of connection points: 2
#     Edge 9, Type (0, 1), BuildingBlock: XUDNAN_clean_linker_2, # of connection points: 2
#     Edge 10, Type (0, 1), BuildingBlock: XUDNAN_clean_linker_2, # of connection points: 2
# Relax obj value: 0.029
# Max RMSD: 0.128
# Mean RMSD: 0.109
data_MOF--net-scu--node1-VETTIZ_charged_sbu_0--node2-IZENUY_clean_linker_0--edge1-XUDNAN_clean_linker_2
_symmetry_space_group_name_H-M    P1
_symmetry_Int_Tables_number       1
_symmetry_cell_setting            triclinic
loop_
_symmetry_equiv_pos_as_xyz
'x, y, z'
_cell_length_a     29.108022
_cell_length_b     29.123562
_cell_length_c     18.333404
_cell_angle_alpha  93.278909
_cell_angle_beta   89.649227
_cell_angle_gamma 91.920852
loop_
_atom_site_label
_atom_site_type_symbol
_atom_site_fract_x
_atom_site_fract_y
_atom_site_fract_z
_atom_type_partial_charge
Fe0 Fe 0.99834 1.00655 0.1603 0.0
O1 O 0.99281 1.00051 0.05351 0.0
Fe2 Fe 0.05104 0.97955 0.99357 0.0
Fe3 Fe 0.97507 0.05183 0.99277 0.0
O4 O 0.99609 0.99732 0.05345 0.0
O5 O 0.0329 0.0306 0.9325 0.0
O6 O 0.02948 0.03355 0.93235 0.0
Fe7 Fe 0.02695 0.02371 0.82558 0.0
C8 C 0.90399 0.03977 0.11761 0.0
O9 O 1.00113 0.07781 0.16594 0.0
O10 O 1.01536 0.09903 0.0527 0.0
O11 O 0.09742 0.02119 0.83352 0.0
O12 O 0.10755 0.96912 0.92224 0.0
O13 O 0.09365 0.02446 0.05495 0.0
O14 O 0.06906 1.0066 0.16504 0.0
O15 O 0.9646 0.1044 0.92115 0.0
O16 O 0.02119 0.0942 0.83346 0.0
C17 C 0.10078 0.02021 0.12252 0.0
O18 O 0.02661 0.95258 0.82044 0.0
O19 O 1.01117 0.93203 0.93342 0.0
O20 O 0.92772 1.01168 0.15366 0.0
O21 O 0.91918 0.06323 0.06358 0.0
C22 C 1.0137 0.10788 0.12133 0.0
C23 C 0.99097 0.11885 0.86885 0.0
C24 C 0.92498 1.00744 0.86505 0.0
O25 O 0.9322 1.00711 0.93321 0.0
O26 O 0.95587 0.02042 0.82048 0.0
C27 C 0.12244 0.99396 0.86926 0.0
O28 O 0.06085 0.92669 0.06535 0.0
O29 O 1.00256 0.93591 0.15079 0.0
C30 C 1.01359 0.92275 0.86503 0.0
C31 C 0.03355 0.91166 0.11625 0.0
H32 H 0.02221 0.44611 0.40024 0.0
H33 H 0.99435 0.45256 0.63208 0.0
H34 H 1.00021 0.32185 0.51368 0.0
H35 H 1.0047 0.58466 0.58618 0.0
H36 H 0.0321 0.57852 0.3542 0.0
H37 H 0.02541 0.70912 0.47283 0.0
N38 N 1.00908 0.50412 0.52035 0.0
N39 N 0.01754 0.52679 0.46586 0.0
C40 C 1.01459 0.42896 0.44998 0.0
C41 C 1.01314 0.38047 0.44862 0.0
C42 C 1.00717 0.45518 0.51628 0.0
C43 C 0.99873 0.43261 0.58091 0.0
C44 C 0.99757 0.38453 0.57995 0.0
C45 C 1.00327 0.35906 0.51376 0.0
C46 C 1.01205 0.60187 0.5364 0.0
C47 C 1.01324 0.65035 0.53787 0.0
C48 C 0.01939 0.57573 0.47001 0.0
C49 C 0.02765 0.5984 0.40542 0.0
C50 C 0.02854 0.64648 0.40647 0.0
C51 C 0.02268 0.67189 0.47269 0.0
H52 H 0.57678 0.02608 0.39533 0.0
H53 H 0.58863 0.98765 0.61779 0.0
H54 H 0.70985 0.01884 0.49228 0.0
H55 H 0.45388 1.00037 0.59249 0.0
H56 H 0.44034 1.01427 0.36043 0.0
H57 H 0.3204 1.01022 0.49862 0.0
N58 N 0.52844 1.00385 0.51671 0.0
N59 N 0.50153 1.00924 0.46534 0.0
C60 C 0.59779 0.01919 0.44176 0.0
C61 C 0.64586 0.02385 0.43623 0.0
C62 C 0.57703 1.00669 0.50788 0.0
C63 C 0.60482 0.99778 0.56756 0.0
C64 C 0.65303 1.00142 0.5623 0.0
C65 C 0.67282 1.01505 0.49668 0.0
C66 C 0.43268 1.00346 0.54476 0.0
C67 C 0.38482 1.00472 0.55304 0.0
C68 C 0.45298 1.00775 0.47513 0.0
C69 C 0.42472 1.01172 0.41391 0.0
C70 C 0.3766 1.01154 0.4215 0.0
C71 C 0.35737 1.00898 0.49154 0.0
H72 H 0.05225 0.13739 0.25173 0.0
H73 H 0.99153 0.18643 0.05667 0.0
H74 H 0.99369 0.26578 0.11306 0.0
H75 H 0.99359 0.20353 0.37832 0.0
H76 H 0.04077 0.21521 0.4406 0.0
H77 H 0.03974 0.1639 0.38129 0.0
H78 H 0.11972 0.18691 0.3292 0.0
H79 H 0.12112 0.23832 0.3889 0.0
H80 H 0.1285 0.24246 0.29178 0.0
H81 H 0.98994 0.33698 0.20064 0.0
H82 H 0.98624 0.39334 0.30676 0.0
H83 H 0.05864 0.2995 0.43739 0.0
C84 C 0.04048 0.16507 0.2203 0.0
C85 C 0.02174 0.15593 0.15004 0.0
C86 C 1.00646 0.19287 0.11044 0.0
C87 C 1.00747 0.23802 0.14208 0.0
C88 C 0.0251 0.24578 0.21247 0.0
C89 C 0.04238 0.21039 0.25028 0.0
C90 C 0.05759 0.22711 0.32619 0.0
C91 C 0.03134 0.20089 0.38501 0.0
C92 C 0.10984 0.22349 0.33448 0.0
C93 C 0.04395 0.2768 0.32671 0.0
C94 C 0.02536 0.2872 0.26078 0.0
C95 C 1.00559 0.32959 0.25188 0.0
C96 C 1.00381 0.36156 0.31242 0.0
C97 C 0.02179 0.35095 0.38089 0.0
C98 C 0.04386 0.3087 0.3864 0.0
H99 H 0.87406 0.08968 0.23632 0.0
H100 H 0.82781 0.99844 0.05527 0.0
H101 H 0.74891 0.99717 0.10663 0.0
H102 H 0.81678 0.03476 0.36811 0.0
H103 H 0.80245 0.08506 0.42439 0.0
H104 H 0.85181 0.0869 0.36538 0.0
H105 H 0.8198 0.15711 0.30389 0.0
H106 H 0.77013 0.15549 0.36306 0.0
H107 H 0.76288 0.15323 0.26533 0.0
H108 H 0.68002 0.99387 0.18975 0.0
H109 H 0.62853 0.98804 0.29692 0.0
H110 H 0.71823 0.08462 0.42143 0.0
C111 C 0.8467 0.07106 0.2063 0.0
C112 C 0.85615 0.04531 0.14099 0.0
C113 C 0.82045 0.01965 0.10408 0.0
C114 C 0.77569 0.01866 0.13305 0.0
C115 C 0.76739 0.04378 0.19866 0.0
C116 C 0.80191 0.06994 0.23442 0.0
C117 C 0.78584 0.08912 0.30827 0.0
C118 C 0.81599 0.07296 0.37011 0.0
C119 C 0.78458 0.14188 0.31021 0.0
C120 C 0.73784 0.06763 0.31036 0.0
C121 C 0.72739 0.04221 0.24627 0.0
C122 C 0.68725 1.01468 0.2394 0.0
C123 C 0.65804 1.0117 0.30043 0.0
C124 C 0.66939 0.03588 0.3674 0.0
C125 C 0.70863 0.06582 0.37083 0.0
H126 H 0.97202 0.86201 0.19464 0.0
H127 H 0.10573 0.85353 0.08957 0.0
H128 H 0.11466 0.77653 0.13774 0.0
H129 H 1.00276 0.81678 0.35549 0.0
H130 H 0.94861 0.7866 0.36911 0.0
H131 H 0.95075 0.83721 0.31751 0.0
H132 H 0.9122 0.79087 0.20783 0.0
H133 H 0.91022 0.73988 0.25918 0.0
H134 H 0.93785 0.739 0.17088 0.0
H135 H 0.1125 0.70465 0.21255 0.0
H136 H 0.09995 0.64775 0.30742 0.0
H137 H 0.96731 0.70462 0.35831 0.0
C138 C 1.003 0.84385 0.18058 0.0
C139 C 0.03825 0.86394 0.13852 0.0
C140 C 0.07813 0.83877 0.1215 0.0
C141 C 0.08344 0.79496 0.14848 0.0
C142 C 0.04825 0.77666 0.19129 0.0
C143 C 1.00868 0.80042 0.20661 0.0
C144 C 0.97746 0.7758 0.25871 0.0
C145 C 0.96948 0.80588 0.32934 0.0
C146 C 0.93173 0.76047 0.22192 0.0
C147 C 1.0062 0.7351 0.27261 0.0
C148 C 0.04672 0.73555 0.23279 0.0
C149 C 0.08045 0.70343 0.2427 0.0
C150 C 0.07305 0.67114 0.29625 0.0
C151 C 0.0325 0.67179 0.33909 0.0
C152 C 0.99824 0.70309 0.32516 0.0
H153 H 0.13451 0.97355 0.23263 0.0
H154 H 0.1744 0.07398 0.07638 0.0
H155 H 0.25314 0.07918 0.12896 0.0
H156 H 0.19541 0.02257 0.38348 0.0
H157 H 0.21076 0.96809 0.41664 0.0
H158 H 0.15915 0.97197 0.36428 0.0
H159 H 0.18712 0.90777 0.27221 0.0
H160 H 0.239 0.9038 0.32424 0.0
H161 H 0.24237 0.91454 0.22846 0.0
H162 H 0.32644 0.07689 0.20863 0.0
H163 H 0.3852 0.06644 0.30337 0.0
H164 H 0.29631 0.96254 0.39693 0.0
C165 C 0.15969 0.99681 0.20935 0.0
C166 C 0.14825 0.02393 0.1512 0.0
C167 C 0.1825 0.05311 0.12131 0.0
C168 C 0.22723 0.05617 0.15075 0.0
C169 C 0.23718 0.02901 0.20875 0.0
C170 C 0.20426 0.99953 0.23687 0.0
C171 C 0.22265 0.97404 0.29923 0.0
C172 C 0.19538 0.98484 0.37006 0.0
C173 C 0.2228 0.92195 0.27984 0.0
C174 C 0.27087 0.99462 0.30373 0.0
C175 C 0.27901 0.02624 0.25133 0.0
C176 C 0.32052 0.05168 0.24908 0.0
C177 C 0.35384 0.04535 0.30282 0.0
C178 C 0.3453 1.01387 0.3579 0.0
C179 C 0.30381 0.98729 0.35623 0.0
H180 H 0.97357 0.89284 0.73612 0.0
H181 H 0.03746 0.84457 0.9291 0.0
H182 H 0.03534 0.76513 0.87284 0.0
H183 H 0.89796 0.78645 0.69871 0.0
H184 H 0.90377 0.79127 0.60145 0.0
H185 H 0.9054 0.84229 0.66199 0.0
H186 H 0.98406 0.86647 0.60627 0.0
H187 H 0.98297 0.81518 0.54693 0.0
H188 H 0.03093 0.82756 0.60744 0.0
H189 H 0.03863 0.69393 0.78518 0.0
H190 H 0.04172 0.63765 0.67888 0.0
H191 H 0.9669 0.73077 0.55038 0.0
C192 C 0.98608 0.86529 0.76711 0.0
C193 C 1.00573 0.87464 0.83669 0.0
C194 C 0.02189 0.83791 0.87584 0.0
C195 C 0.02089 0.79274 0.84428 0.0
C196 C 1.00237 0.78476 0.77449 0.0
C197 C 0.98421 0.81995 0.73725 0.0
C198 C 0.96811 0.80303 0.66189 0.0
C199 C 0.91568 0.80591 0.65565 0.0
C200 C 0.99303 0.82963 0.60217 0.0
C201 C 0.98247 0.75356 0.66078 0.0
C202 C 1.00196 0.74335 0.72614 0.0
C203 C 0.0223 0.70117 0.73441 0.0
C204 C 0.02374 0.66925 0.67378 0.0
C205 C 1.0049 0.67971 0.60584 0.0
C206 C 0.98229 0.72171 0.60099 0.0
H207 H 0.17192 0.05823 0.79805 0.0
H208 H 0.18282 0.92379 0.88552 0.0
H209 H 0.26066 0.91747 0.83052 0.0
H210 H 0.21723 0.03043 0.63081 0.0
H211 H 0.24655 0.08515 0.62022 0.0
H212 H 0.19646 0.0819 0.67745 0.0
H213 H 0.24298 0.12016 0.78626 0.0
H214 H 0.29349 0.12332 0.72912 0.0
H215 H 0.29542 0.09499 0.81388 0.0
H216 H 0.33205 0.92147 0.74815 0.0
H217 H 0.38689 0.93452 0.64652 0.0
H218 H 0.32791 0.06653 0.61683 0.0
C219 C 0.1909 0.02772 0.80708 0.0
C220 C 0.17118 0.99138 0.84581 0.0
C221 C 0.19734 0.95219 0.85636 0.0
C222 C 0.2416 0.94838 0.82539 0.0
C223 C 0.25936 0.98443 0.78534 0.0
C224 C 0.23474 0.02355 0.77699 0.0
C225 C 0.25856 0.05553 0.72568 0.0
C226 C 0.22789 0.06368 0.65968 0.0
C227 C 0.27351 0.1012 0.76619 0.0
C228 C 0.29957 0.02752 0.70347 0.0
C229 C 0.30017 0.98694 0.73919 0.0
C230 C 0.33247 0.95362 0.72129 0.0
C231 C 0.36365 0.96134 0.66387 0.0
C232 C 0.36178 1.00176 0.62488 0.0
C233 C 0.3305 0.03578 0.64694 0.0
H234 H 0.05235 0.16766 0.78908 0.0
H235 H 0.91986 0.17804 0.89755 0.0
H236 H 0.91165 0.25537 0.85006 0.0
H237 H 0.08859 0.29003 0.81331 0.0
H238 H 0.11553 0.28905 0.72446 0.0
H239 H 0.11312 0.23785 0.77531 0.0
H240 H 0.07304 0.19253 0.66606 0.0
H241 H 0.07561 0.24333 0.61493 0.0
H242 H 0.02111 0.21398 0.62937 0.0
H243 H 0.91416 0.32733 0.77525 0.0
H244 H 0.9268 0.3842 0.68035 0.0
H245 H 0.05832 0.32559 0.62696 0.0
C246 C 0.02177 0.18627 0.80395 0.0
C247 C 0.98662 0.16662 0.8467 0.0
C248 C 0.94732 0.19243 0.86494 0.0
C249 C 0.94245 0.23642 0.83838 0.0
C250 C 0.97751 0.25427 0.79485 0.0
C251 C 0.01656 0.2299 0.77845 0.0
C252 C 0.04776 0.25421 0.72598 0.0
C253 C 0.09398 0.26865 0.76195 0.0
C254 C 0.05474 0.22424 0.65493 0.0
C255 C 0.01958 0.29546 0.7131 0.0
C256 C 0.97936 0.29552 0.75367 0.0
C257 C 0.94601 0.32815 0.74454 0.0
C258 C 0.95347 0.36043 0.69097 0.0
C259 C 0.9937 0.35926 0.64738 0.0
C260 C 0.02764 0.32749 0.66064 0.0
H261 H 0.8986 0.97106 0.73022 0.0
H262 H 0.84506 0.02551 0.93738 0.0
H263 H 0.76625 0.01945 0.88771 0.0
H264 H 0.82941 0.03045 0.61983 0.0
H265 H 0.82089 0.98486 0.55006 0.0
H266 H 0.87187 0.98717 0.60514 0.0
H267 H 0.85356 0.90454 0.64309 0.0
H268 H 0.80208 0.90157 0.58874 0.0
H269 H 0.79886 0.89072 0.68452 0.0
H270 H 0.69554 0.01984 0.80869 0.0
H271 H 0.63911 0.02315 0.7092 0.0
H272 H 0.73732 0.96149 0.55696 0.0
C273 C 0.8701 0.98061 0.76553 0.0
C274 C 0.87771 0.99814 0.83793 0.0
C275 C 0.83973 1.01086 0.88239 0.0
C276 C 0.7949 1.0078 0.85447 0.0
C277 C 0.78855 0.99119 0.7823 0.0
C278 C 0.82508 0.97711 0.73881 0.0
C279 C 0.80955 0.96346 0.66178 0.0
C280 C 0.83439 0.99327 0.60597 0.0
C281 C 0.81639 0.91199 0.6435 0.0
C282 C 0.75905 0.97395 0.66787 0.0
C283 C 0.74743 0.98975 0.73776 0.0
C284 C 0.70391 1.00636 0.75417 0.0
C285 C 0.67191 1.00789 0.69727 0.0
C286 C 0.68358 0.99279 0.62485 0.0
C287 C 0.72723 0.97393 0.61127 0.0
loop_
_geom_bond_atom_site_label_1
_geom_bond_atom_site_label_2
_geom_bond_distance
_geom_bond_site_symmetry_2
_ccdc_geom_bond_type
Fe0 O1 1.886 . S
Fe0 O4 1.715 1_645 S
Fe0 O9 2.077 1_655 S
Fe0 O14 1.935 1_655 S
Fe0 O20 2.077 1_545 S
Fe0 O29 1.935 1_545 S
O1 Fe0 1.886 . S
O1 Fe3 1.715 . S
Fe2 O4 1.885 . S
Fe2 O5 1.715 1_554 S
Fe2 O12 1.935 1_554 S
Fe2 O13 2.077 . S
Fe2 O19 1.935 1_554 S
Fe2 O28 2.077 . S
Fe3 O1 1.715 . S
Fe3 O6 1.885 1_554 S
Fe3 O10 1.935 . S
Fe3 O15 2.077 1_554 S
Fe3 O21 1.935 . S
Fe3 O25 2.077 1_554 S
O4 Fe0 1.715 1_465 S
O4 Fe2 1.885 . S
O5 Fe2 1.715 1_556 S
O5 Fe7 1.886 . S
O6 Fe3 1.885 1_556 S
O6 Fe7 1.715 1_645 S
Fe7 O5 1.886 . S
Fe7 O6 1.715 1_465 S
Fe7 O11 2.077 1_565 S
Fe7 O16 1.935 1_565 S
Fe7 O18 2.077 1_455 S
Fe7 O26 1.935 1_455 S
C8 O20 1.377 1_545 S
C8 O21 1.421 . S
O9 Fe0 2.077 1_455 S
O9 C22 1.375 1_455 S
O10 Fe3 1.935 . S
O10 C22 1.421 . S
O11 Fe7 2.077 1_545 S
O11 C27 1.375 1_545 S
O12 Fe2 1.935 1_556 S
O12 C27 1.421 . S
O13 Fe2 2.077 . S
O13 C17 1.381 . S
O14 Fe0 1.935 1_455 S
O14 C17 1.421 1_545 S
O15 Fe3 2.077 1_556 S
O15 C23 1.381 . S
O16 Fe7 1.935 1_545 S
O16 C23 1.421 1_455 S
C17 O13 1.381 . S
C17 O14 1.421 1_565 S
O18 Fe7 2.077 1_655 S
O18 C30 1.377 1_655 S
O19 Fe2 1.935 1_556 S
O19 C30 1.421 . S
O20 Fe0 2.077 1_565 S
O20 C8 1.377 1_565 S
O21 Fe3 1.935 . S
O21 C8 1.421 . S
C22 O9 1.375 1_655 S
C22 O10 1.421 . S
C23 O15 1.381 . S
C23 O16 1.421 1_655 S
C24 O25 1.381 . S
C24 O26 1.421 1_545 S
O25 Fe3 2.077 1_556 S
O25 C24 1.381 . S
O26 Fe7 1.935 1_655 S
O26 C24 1.421 1_565 S
C27 O11 1.375 1_565 S
C27 O12 1.421 . S
O28 Fe2 2.077 . S
O28 C31 1.381 . S
O29 Fe0 1.935 1_565 S
O29 C31 1.421 1_655 S
C30 O18 1.377 1_455 S
C30 O19 1.421 . S
C31 O28 1.381 . S
C31 O29 1.421 1_455 S
H32 C40 0.940 . S
H33 C43 0.940 . S
H34 C45 0.940 . S
H35 C46 0.940 . S
H36 C49 0.940 . S
H37 C51 0.940 . S
N38 N39 1.190 . S
N38 C42 1.477 . S
N39 N38 1.190 . S
N39 C48 1.477 . S
C40 H32 0.940 . S
C40 C41 1.390 1_455 S
C40 C42 1.322 . S
C41 C40 1.390 1_655 S
C41 C45 1.370 . S
C42 N38 1.477 . S
C42 C40 1.322 . S
C42 C43 1.447 . S
C43 H33 0.940 . S
C43 C42 1.447 . S
C43 C44 1.373 . S
C44 C43 1.373 . S
C44 C45 1.417 1_455 S
C45 H34 0.940 . S
C45 C41 1.370 . S
C45 C44 1.417 1_655 S
C46 H35 0.940 . S
C46 C47 1.390 1_455 S
C46 C48 1.322 . S
C47 C46 1.390 1_655 S
C47 C51 1.370 . S
C48 N39 1.477 . S
C48 C46 1.322 . S
C48 C49 1.447 . S
C49 H36 0.940 . S
C49 C48 1.447 . S
C49 C50 1.373 . S
C50 C49 1.373 . S
C50 C51 1.417 1_455 S
C51 H37 0.940 . S
C51 C47 1.370 . S
C51 C50 1.417 1_655 S
H52 C60 0.940 . S
H53 C63 0.940 . S
H54 C65 0.940 . S
H55 C66 0.940 . S
H56 C69 0.940 . S
H57 C71 0.940 . S
N58 N59 1.190 . S
N58 C62 1.477 . S
N59 N58 1.190 . S
N59 C68 1.477 . S
C60 H52 0.940 . S
C60 C61 1.390 1_545 S
C60 C62 1.322 . S
C61 C60 1.390 1_565 S
C61 C65 1.370 . S
C62 N58 1.477 . S
C62 C60 1.322 . S
C62 C63 1.447 . S
C63 H53 0.940 . S
C63 C62 1.447 . S
C63 C64 1.373 . S
C64 C63 1.373 . S
C64 C65 1.417 1_545 S
C65 H54 0.940 . S
C65 C61 1.370 . S
C65 C64 1.417 1_565 S
C66 H55 0.940 . S
C66 C67 1.390 1_545 S
C66 C68 1.322 . S
C67 C66 1.390 1_565 S
C67 C71 1.370 . S
C68 N59 1.477 . S
C68 C66 1.322 . S
C68 C69 1.447 . S
C69 H56 0.940 . S
C69 C68 1.447 . S
C69 C70 1.373 . S
C70 C69 1.373 . S
C70 C71 1.417 1_545 S
C71 H57 0.940 . S
C71 C67 1.370 . S
C71 C70 1.417 1_565 S
H72 C84 0.930 . S
H73 C86 0.930 . S
H74 C87 0.930 . S
H75 C91 0.959 . S
H76 C91 0.959 . S
H77 C91 0.961 . S
H78 C92 0.960 . S
H79 C92 0.961 . S
H80 C92 0.959 . S
H81 C95 0.929 . S
H82 C96 0.931 . S
H83 C98 0.930 . S
C84 H72 0.930 . S
C84 C85 1.399 1_455 S
C84 C89 1.399 . S
C85 C84 1.399 1_655 S
C85 C86 1.376 . S
C86 H73 0.930 . S
C86 C85 1.376 . S
C86 C87 1.388 . S
C87 H74 0.930 . S
C87 C86 1.388 . S
C87 C88 1.390 . S
C88 C87 1.390 . S
C88 C89 1.394 1_655 S
C88 C94 1.465 . S
C89 C84 1.399 . S
C89 C88 1.394 1_455 S
C89 C90 1.516 . S
C90 C89 1.516 . S
C90 C91 1.502 . S
C90 C92 1.561 1_455 S
C90 C93 1.526 . S
C91 H75 0.959 . S
C91 H76 0.959 . S
C91 H77 0.961 . S
C91 C90 1.502 . S
C92 H78 0.960 . S
C92 H79 0.961 . S
C92 H80 0.959 . S
C92 C90 1.561 1_655 S
C93 C90 1.526 . S
C93 C94 1.396 1_455 S
C93 C98 1.390 . S
C94 C88 1.465 . S
C94 C93 1.396 1_655 S
C94 C95 1.399 . S
C95 H81 0.929 . S
C95 C94 1.399 . S
C95 C96 1.385 . S
C96 H82 0.931 . S
C96 C95 1.385 . S
C96 C97 1.389 . S
C97 C96 1.389 . S
C97 C98 1.387 1_655 S
C98 H83 0.930 . S
C98 C93 1.390 . S
C98 C97 1.387 1_455 S
H99 C111 0.930 . S
H100 C113 0.930 . S
H101 C114 0.930 . S
H102 C118 0.959 . S
H103 C118 0.959 . S
H104 C118 0.961 . S
H105 C119 0.960 . S
H106 C119 0.961 . S
H107 C119 0.959 . S
H108 C122 0.929 . S
H109 C123 0.931 . S
H110 C125 0.930 . S
C111 H99 0.930 . S
C111 C112 1.399 1_545 S
C111 C116 1.399 . S
C112 C111 1.399 1_565 S
C112 C113 1.376 . S
C113 H100 0.930 . S
C113 C112 1.376 . S
C113 C114 1.388 . S
C114 H101 0.930 . S
C114 C113 1.388 . S
C114 C115 1.390 . S
C115 C114 1.390 . S
C115 C116 1.394 1_565 S
C115 C121 1.465 . S
C116 C111 1.399 . S
C116 C115 1.394 1_545 S
C116 C117 1.516 . S
C117 C116 1.516 . S
C117 C118 1.502 . S
C117 C119 1.561 . S
C117 C120 1.526 . S
C118 H102 0.959 . S
C118 H103 0.959 . S
C118 H104 0.961 . S
C118 C117 1.502 . S
C119 H105 0.960 . S
C119 H106 0.961 . S
C119 H107 0.959 . S
C119 C117 1.561 . S
C120 C117 1.526 . S
C120 C121 1.396 1_545 S
C120 C125 1.390 . S
C121 C115 1.465 . S
C121 C120 1.396 1_565 S
C121 C122 1.399 . S
C122 H108 0.929 . S
C122 C121 1.399 . S
C122 C123 1.385 . S
C123 H109 0.931 . S
C123 C122 1.385 . S
C123 C124 1.389 . S
C124 C123 1.389 . S
C124 C125 1.387 1_565 S
C125 H110 0.930 . S
C125 C120 1.390 . S
C125 C124 1.387 1_545 S
H126 C138 0.930 . S
H127 C140 0.930 . S
H128 C141 0.930 . S
H129 C145 0.959 . S
H130 C145 0.959 . S
H131 C145 0.961 . S
H132 C146 0.960 . S
H133 C146 0.961 . S
H134 C146 0.939 1_455 S
H135 C149 0.929 . S
H136 C150 0.931 . S
H137 C152 0.930 . S
C138 H126 0.930 . S
C138 C139 1.399 1_655 S
C138 C143 1.399 . S
C139 C138 1.399 1_455 S
C139 C140 1.376 . S
C140 H127 0.930 . S
C140 C139 1.376 . S
C140 C141 1.388 . S
C141 H128 0.930 . S
C141 C140 1.388 . S
C141 C142 1.390 . S
C142 C141 1.390 . S
C142 C143 1.394 1_455 S
C142 C148 1.465 . S
C143 C138 1.399 . S
C143 C142 1.394 1_655 S
C143 C144 1.516 . S
C144 C143 1.516 . S
C144 C145 1.502 . S
C144 C146 1.561 . S
C144 C147 1.526 . S
C145 H129 0.959 . S
C145 H130 0.959 . S
C145 H131 0.961 . S
C145 C144 1.502 . S
C146 H132 0.960 . S
C146 H133 0.961 . S
C146 H134 0.939 1_655 S
C146 C144 1.561 . S
C147 C144 1.526 . S
C147 C148 1.396 1_655 S
C147 C152 1.390 . S
C148 C142 1.465 . S
C148 C147 1.396 1_455 S
C148 C149 1.399 . S
C149 H135 0.929 . S
C149 C148 1.399 . S
C149 C150 1.385 . S
C150 H136 0.931 . S
C150 C149 1.385 . S
C150 C151 1.389 . S
C151 C150 1.389 . S
C151 C152 1.387 1_455 S
C152 H137 0.930 . S
C152 C147 1.390 . S
C152 C151 1.387 1_655 S
H153 C165 0.930 . S
H154 C167 0.930 . S
H155 C168 0.930 . S
H156 C172 0.959 . S
H157 C172 0.959 . S
H158 C172 0.961 . S
H159 C173 0.960 . S
H160 C173 0.961 . S
H161 C173 0.959 . S
H162 C176 0.929 . S
H163 C177 0.931 . S
H164 C179 0.930 . S
C165 H153 0.930 . S
C165 C166 1.399 1_565 S
C165 C170 1.399 . S
C166 C165 1.399 1_545 S
C166 C167 1.376 . S
C167 H154 0.930 . S
C167 C166 1.376 . S
C167 C168 1.388 . S
C168 H155 0.930 . S
C168 C167 1.388 . S
C168 C169 1.390 . S
C169 C168 1.390 . S
C169 C170 1.394 1_545 S
C169 C175 1.465 . S
C170 C165 1.399 . S
C170 C169 1.394 1_565 S
C170 C171 1.516 . S
C171 C170 1.516 . S
C171 C172 1.502 . S
C171 C173 1.561 . S
C171 C174 1.526 . S
C172 H156 0.959 . S
C172 H157 0.959 . S
C172 H158 0.961 . S
C172 C171 1.502 . S
C173 H159 0.960 . S
C173 H160 0.961 . S
C173 H161 0.959 . S
C173 C171 1.561 . S
C174 C171 1.526 . S
C174 C175 1.396 1_565 S
C174 C179 1.390 . S
C175 C169 1.465 . S
C175 C174 1.396 1_545 S
C175 C176 1.399 . S
C176 H162 0.929 . S
C176 C175 1.399 . S
C176 C177 1.385 . S
C177 H163 0.931 . S
C177 C176 1.385 . S
C177 C178 1.389 . S
C178 C177 1.389 . S
C178 C179 1.387 1_545 S
C179 H164 0.930 . S
C179 C174 1.390 . S
C179 C178 1.387 1_565 S
H180 C192 0.930 . S
H181 C194 0.930 . S
H182 C195 0.930 . S
H183 C199 0.959 . S
H184 C199 0.959 . S
H185 C199 0.961 . S
H186 C200 0.960 . S
H187 C200 0.961 . S
H188 C200 0.959 . S
H189 C203 0.929 . S
H190 C204 0.931 . S
H191 C206 0.930 . S
C192 H180 0.930 . S
C192 C193 1.399 1_655 S
C192 C197 1.399 . S
C193 C192 1.399 1_455 S
C193 C194 1.376 . S
C194 H181 0.930 . S
C194 C193 1.376 . S
C194 C195 1.388 . S
C195 H182 0.930 . S
C195 C194 1.388 . S
C195 C196 1.390 . S
C196 C195 1.390 . S
C196 C197 1.394 1_455 S
C196 C202 1.465 . S
C197 C192 1.399 . S
C197 C196 1.394 1_655 S
C197 C198 1.516 . S
C198 C197 1.516 . S
C198 C199 1.502 . S
C198 C200 1.561 1_655 S
C198 C201 1.526 . S
C199 H183 0.959 . S
C199 H184 0.959 . S
C199 H185 0.961 . S
C199 C198 1.502 . S
C200 H186 0.960 . S
C200 H187 0.961 . S
C200 H188 0.959 . S
C200 C198 1.561 1_455 S
C201 C198 1.526 . S
C201 C202 1.396 1_655 S
C201 C206 1.390 . S
C202 C196 1.465 . S
C202 C201 1.396 1_455 S
C202 C203 1.399 . S
C203 H189 0.929 . S
C203 C202 1.399 . S
C203 C204 1.385 . S
C204 H190 0.931 . S
C204 C203 1.385 . S
C204 C205 1.389 1_455 S
C205 C204 1.389 1_655 S
C205 C206 1.387 . S
C206 H191 0.930 . S
C206 C201 1.390 . S
C206 C205 1.387 . S
H207 C219 0.930 . S
H208 C221 0.930 . S
H209 C222 0.930 . S
H210 C226 0.959 . S
H211 C226 0.959 . S
H212 C226 0.961 . S
H213 C227 0.960 . S
H214 C227 0.961 . S
H215 C227 0.959 . S
H216 C230 0.929 . S
H217 C231 0.931 . S
H218 C233 0.930 . S
C219 H207 0.930 . S
C219 C220 1.398 1_545 S
C219 C224 1.399 . S
C220 C219 1.398 1_565 S
C220 C221 1.377 . S
C221 H208 0.930 . S
C221 C220 1.377 . S
C221 C222 1.388 . S
C222 H209 0.930 . S
C222 C221 1.388 . S
C222 C223 1.390 . S
C223 C222 1.390 . S
C223 C224 1.394 1_565 S
C223 C229 1.465 . S
C224 C219 1.399 . S
C224 C223 1.394 1_545 S
C224 C225 1.516 . S
C225 C224 1.516 . S
C225 C226 1.502 1_545 S
C225 C227 1.561 . S
C225 C228 1.526 . S
C226 H210 0.959 . S
C226 H211 0.959 . S
C226 H212 0.961 . S
C226 C225 1.502 1_565 S
C227 H213 0.960 . S
C227 H214 0.961 . S
C227 H215 0.959 . S
C227 C225 1.561 . S
C228 C225 1.526 . S
C228 C229 1.396 1_545 S
C228 C233 1.390 . S
C229 C223 1.465 . S
C229 C228 1.396 1_565 S
C229 C230 1.399 . S
C230 H216 0.929 . S
C230 C229 1.399 . S
C230 C231 1.385 . S
C231 H217 0.931 . S
C231 C230 1.385 . S
C231 C232 1.389 . S
C232 C231 1.389 . S
C232 C233 1.387 1_565 S
C233 H218 0.930 . S
C233 C228 1.390 . S
C233 C232 1.387 1_545 S
H234 C246 0.930 . S
H235 C248 0.930 . S
H236 C249 0.930 . S
H237 C253 0.959 . S
H238 C253 0.959 . S
H239 C253 0.961 . S
H240 C254 0.960 . S
H241 C254 0.961 . S
H242 C254 0.959 . S
H243 C257 0.929 . S
H244 C258 0.931 . S
H245 C260 0.930 . S
C246 H234 0.930 . S
C246 C247 1.399 1_455 S
C246 C251 1.399 . S
C247 C246 1.399 1_655 S
C247 C248 1.376 . S
C248 H235 0.930 . S
C248 C247 1.376 . S
C248 C249 1.388 . S
C249 H236 0.930 . S
C249 C248 1.388 . S
C249 C250 1.390 . S
C250 C249 1.390 . S
C250 C251 1.394 1_655 S
C250 C256 1.465 . S
C251 C246 1.399 . S
C251 C250 1.394 1_455 S
C251 C252 1.516 . S
C252 C251 1.516 . S
C252 C253 1.502 . S
C252 C254 1.561 1_455 S
C252 C255 1.526 . S
C253 H237 0.959 . S
C253 H238 0.959 . S
C253 H239 0.961 . S
C253 C252 1.502 . S
C254 H240 0.960 . S
C254 H241 0.961 . S
C254 H242 0.959 . S
C254 C252 1.561 1_655 S
C255 C252 1.526 . S
C255 C256 1.396 1_455 S
C255 C260 1.390 . S
C256 C250 1.465 . S
C256 C255 1.396 1_655 S
C256 C257 1.399 . S
C257 H243 0.929 . S
C257 C256 1.399 . S
C257 C258 1.385 . S
C258 H244 0.931 . S
C258 C257 1.385 . S
C258 C259 1.389 1_655 S
C259 C258 1.389 1_455 S
C259 C260 1.387 . S
C260 H245 0.930 . S
C260 C255 1.390 . S
C260 C259 1.387 . S
H261 C273 0.930 . S
H262 C275 0.930 . S
H263 C276 0.930 . S
H264 C280 0.959 . S
H265 C280 0.959 . S
H266 C280 0.961 . S
H267 C281 0.960 . S
H268 C281 0.961 . S
H269 C281 0.959 . S
H270 C284 0.929 . S
H271 C285 0.931 . S
H272 C287 0.930 . S
C273 H261 0.930 . S
C273 C274 1.399 1_565 S
C273 C278 1.399 . S
C274 C273 1.399 1_545 S
C274 C275 1.376 . S
C275 H262 0.930 . S
C275 C274 1.376 . S
C275 C276 1.388 . S
C276 H263 0.930 . S
C276 C275 1.388 . S
C276 C277 1.390 . S
C277 C276 1.390 . S
C277 C278 1.394 1_545 S
C277 C283 1.465 . S
C278 C273 1.399 . S
C278 C277 1.394 1_565 S
C278 C279 1.516 . S
C279 C278 1.516 . S
C279 C280 1.502 . S
C279 C281 1.561 . S
C279 C282 1.526 . S
C280 H264 0.959 . S
C280 H265 0.959 . S
C280 H266 0.961 . S
C280 C279 1.502 . S
C281 H267 0.960 . S
C281 H268 0.961 . S
C281 H269 0.959 . S
C281 C279 1.561 . S
C282 C279 1.526 . S
C282 C283 1.396 1_565 S
C282 C287 1.390 . S
C283 C277 1.465 . S
C283 C282 1.396 1_545 S
C283 C284 1.399 . S
C284 H270 0.929 . S
C284 C283 1.399 . S
C284 C285 1.385 . S
C285 H271 0.931 . S
C285 C284 1.385 . S
C285 C286 1.389 . S
C286 C285 1.389 . S
C286 C287 1.387 1_545 S
C287 H272 0.930 . S
C287 C282 1.390 . S
C287 C286 1.387 1_565 S
C85 C22 1.535 . S
C97 C41 1.507 . S
C112 C8 1.604 1_565 S
C124 C61 1.556 . S
C139 C31 1.503 . S
C151 C50 1.538 . S
C166 C17 1.572 1_545 S
C178 C70 1.566 . S
C193 C30 1.555 . S
C205 C47 1.569 . S
C220 C27 1.583 . S
C232 C67 1.580 . S
C259 C44 1.577 . S
C247 C23 1.540 . S
C274 C24 1.528 . S
C286 C64 1.565 . S
