# Generated by pormake.
# Topology pyr, (3,6)-cn, num edge types: 1
# Building blocks:
#     Node 0, Type 0, BuildingBlock: BETDAH_clean_linker_0, # of connection points: 3
#     Node 1, Type 0, BuildingBlock: BETDAH_clean_linker_0, # of connection points: 3
#     Node 2, Type 0, BuildingBlock: BETDAH_clean_linker_0, # of connection points: 3
#     Node 3, Type 0, BuildingBlock: BETDAH_clean_linker_0, # of connection points: 3
#     Node 4, Type 0, BuildingBlock: BETDAH_clean_linker_0, # of connection points: 3
#     Node 5, Type 0, BuildingBlock: BETDAH_clean_linker_0, # of connection points: 3
#     Node 6, Type 0, BuildingBlock: BETDAH_clean_linker_0, # of connection points: 3
#     Node 7, Type 0, BuildingBlock: BETDAH_clean_linker_0, # of connection points: 3
#     Node 8, Type 1, BuildingBlock: PAMTUU_clean_sbu_0, # of connection points: 6
#     Node 9, Type 1, BuildingBlock: PAMTUU_clean_sbu_0, # of connection points: 6
#     Node 10, Type 1, BuildingBlock: PAMTUU_clean_sbu_0, # of connection points: 6
#     Node 11, Type 1, BuildingBlock: PAMTUU_clean_sbu_0, # of connection points: 6
#     Edge 12, Type (0, 1), BuildingBlock: XUDNAN_clean_linker_2, # of connection points: 2
#     Edge 13, Type (0, 1), BuildingBlock: XUDNAN_clean_linker_2, # of connection points: 2
#     Edge 14, Type (0, 1), BuildingBlock: XUDNAN_clean_linker_2, # of connection points: 2
#     Edge 15, Type (0, 1), BuildingBlock: XUDNAN_clean_linker_2, # of connection points: 2
#     Edge 16, Type (0, 1), BuildingBlock: XUDNAN_clean_linker_2, # of connection points: 2
#     Edge 17, Type (0, 1), BuildingBlock: XUDNAN_clean_linker_2, # of connection points: 2
#     Edge 18, Type (0, 1), BuildingBlock: XUDNAN_clean_linker_2, # of connection points: 2
#     Edge 19, Type (0, 1), BuildingBlock: XUDNAN_clean_linker_2, # of connection points: 2
#     Edge 20, Type (0, 1), BuildingBlock: XUDNAN_clean_linker_2, # of connection points: 2
#     Edge 21, Type (0, 1), BuildingBlock: XUDNAN_clean_linker_2, # of connection points: 2
#     Edge 22, Type (0, 1), BuildingBlock: XUDNAN_clean_linker_2, # of connection points: 2
#     Edge 23, Type (0, 1), BuildingBlock: XUDNAN_clean_linker_2, # of connection points: 2
#     Edge 24, Type (0, 1), BuildingBlock: XUDNAN_clean_linker_2, # of connection points: 2
#     Edge 25, Type (0, 1), BuildingBlock: XUDNAN_clean_linker_2, # of connection points: 2
#     Edge 26, Type (0, 1), BuildingBlock: XUDNAN_clean_linker_2, # of connection points: 2
#     Edge 27, Type (0, 1), BuildingBlock: XUDNAN_clean_linker_2, # of connection points: 2
#     Edge 28, Type (0, 1), BuildingBlock: XUDNAN_clean_linker_2, # of connection points: 2
#     Edge 29, Type (0, 1), BuildingBlock: XUDNAN_clean_linker_2, # of connection points: 2
#     Edge 30, Type (0, 1), BuildingBlock: XUDNAN_clean_linker_2, # of connection points: 2
#     Edge 31, Type (0, 1), BuildingBlock: XUDNAN_clean_linker_2, # of connection points: 2
#     Edge 32, Type (0, 1), BuildingBlock: XUDNAN_clean_linker_2, # of connection points: 2
#     Edge 33, Type (0, 1), BuildingBlock: XUDNAN_clean_linker_2, # of connection points: 2
#     Edge 34, Type (0, 1), BuildingBlock: XUDNAN_clean_linker_2, # of connection points: 2
#     Edge 35, Type (0, 1), BuildingBlock: XUDNAN_clean_linker_2, # of connection points: 2
# Relax obj value: 0.134
# Max RMSD: 0.173
# Mean RMSD: 0.134
data_MOF--net-pyr--node1-PAMTUU_clean_sbu_0--node2-BETDAH_clean_linker_0--edge1-XUDNAN_clean_linker_2
_symmetry_space_group_name_H-M    P1
_symmetry_Int_Tables_number       1
_symmetry_cell_setting            triclinic
loop_
_symmetry_equiv_pos_as_xyz
'x, y, z'
_cell_length_a     37.698282
_cell_length_b     38.862687
_cell_length_c     38.426309
_cell_angle_alpha  90.469211
_cell_angle_beta   90.064034
_cell_angle_gamma 107.02
loop_
_atom_site_label
_atom_site_type_symbol
_atom_site_fract_x
_atom_site_fract_y
_atom_site_fract_z
_atom_type_partial_charge
H0 H 0.3497 0.22836 0.24136 0.0
H1 H 0.36369 0.27161 0.13794 0.0
H2 H 0.2814 0.29213 0.20593 0.0
C3 C 0.34169 0.24399 0.22118 0.0
C4 C 0.31339 0.25997 0.2275 0.0
C5 C 0.35964 0.24772 0.1889 0.0
C6 C 0.34963 0.26824 0.16283 0.0
C7 C 0.32219 0.28527 0.16903 0.0
C8 C 0.30375 0.28052 0.20129 0.0
N9 N 0.31388 0.30712 0.14259 0.0
C10 C 0.2894 0.32738 0.14763 0.0
H11 H 0.26786 0.81726 0.77626 0.0
H12 H 0.16442 0.84221 0.7833 0.0
H13 H 0.1815 0.77357 0.70067 0.0
C14 C 0.24005 0.8139 0.76646 0.0
C15 C 0.22757 0.7929 0.73648 0.0
C16 C 0.21727 0.83127 0.78371 0.0
C17 C 0.18184 0.82824 0.77045 0.0
C18 C 0.16915 0.80772 0.7402 0.0
C19 C 0.19166 0.78949 0.72385 0.0
N20 N 0.13455 0.80646 0.72497 0.0
C21 C 0.12347 0.8374 0.72211 0.0
H22 H 0.73323 0.37866 0.95219 0.0
H23 H 0.70751 0.45476 0.88266 0.0
H24 H 0.62744 0.35238 0.90131 0.0
C25 C 0.71385 0.38663 0.93566 0.0
C26 C 0.67839 0.36213 0.9307 0.0
C27 C 0.72454 0.42108 0.92047 0.0
C28 C 0.70045 0.42879 0.89512 0.0
C29 C 0.66596 0.40334 0.88703 0.0
C30 C 0.65486 0.37073 0.90582 0.0
N31 N 0.64011 0.41023 0.86254 0.0
C32 C 0.6467 0.43482 0.8349 0.0
H33 H 0.86136 0.78549 0.46913 0.0
H34 H 0.92276 0.77746 0.37641 0.0
H35 H 0.81978 0.69689 0.39815 0.0
C36 C 0.86342 0.77194 0.44483 0.0
C37 C 0.83565 0.74005 0.4361 0.0
C38 C 0.89421 0.78677 0.42322 0.0
C39 C 0.89904 0.76699 0.39315 0.0
C40 C 0.87228 0.73387 0.38463 0.0
C41 C 0.84073 0.72137 0.40586 0.0
N42 N 0.87448 0.71189 0.35503 0.0
C43 C 0.90169 0.71609 0.32928 0.0
H44 H 0.76747 0.79495 0.84308 0.0
H45 H 0.69238 0.78976 0.9285 0.0
H46 H 0.6608 0.81086 0.82529 0.0
C47 C 0.74049 0.79508 0.85269 0.0
C48 C 0.71499 0.80288 0.82971 0.0
C49 C 0.73261 0.78977 0.88832 0.0
C50 C 0.69888 0.7933 0.90107 0.0
C51 C 0.67299 0.80067 0.87817 0.0
C52 C 0.6808 0.80473 0.8426 0.0
N53 N 0.63931 0.80511 0.8906 0.0
C54 C 0.63916 0.83042 0.91622 0.0
H55 H 0.89803 0.2762 0.38356 0.0
H56 H 0.94485 0.34641 0.4695 0.0
H57 H 0.86152 0.36919 0.40512 0.0
C58 C 0.90048 0.30077 0.39814 0.0
C59 C 0.87701 0.32193 0.39034 0.0
C60 C 0.92521 0.3095 0.42644 0.0
C61 C 0.92663 0.33993 0.44702 0.0
C62 C 0.90312 0.36098 0.43991 0.0
C63 C 0.87907 0.35236 0.41107 0.0
N64 N 0.90186 0.38894 0.46344 0.0
C65 C 0.86891 0.39739 0.46877 0.0
H66 H 0.35483 0.77153 0.18927 0.0
H67 H 0.31714 0.67893 0.25456 0.0
H68 H 0.42419 0.75521 0.27304 0.0
C69 C 0.35934 0.75563 0.21084 0.0
C70 C 0.39281 0.76774 0.22977 0.0
C71 C 0.33124 0.72409 0.21955 0.0
C72 C 0.33815 0.70336 0.24723 0.0
C73 C 0.37147 0.714 0.26662 0.0
C74 C 0.39866 0.74667 0.25818 0.0
N75 N 0.37571 0.69015 0.29361 0.0
C76 C 0.40245 0.69478 0.32009 0.0
H77 H 0.21487 0.37695 0.69655 0.0
H78 H 0.23253 0.47847 0.74919 0.0
H79 H 0.12902 0.39559 0.76165 0.0
C80 C 0.20502 0.39424 0.71386 0.0
C81 C 0.16895 0.38157 0.72772 0.0
C82 C 0.22855 0.4289 0.72148 0.0
C83 C 0.21525 0.45139 0.74353 0.0
C84 C 0.17992 0.43936 0.75896 0.0
C85 C 0.15684 0.40426 0.75115 0.0
N86 N 0.16685 0.46527 0.77749 0.0
C87 C 0.14917 0.46152 0.80989 0.0
Tb88 Tb 0.07839 0.09158 0.56089 0.0
Tb89 Tb 0.99639 0.07085 0.59597 0.0
C90 C 0.01639 1.02019 0.53959 0.0
C91 C 0.1611 0.13334 0.5068 0.0
C92 C 0.19519 0.17695 0.4511 0.0
C93 C 0.21232 0.15325 0.46666 0.0
C94 C 0.19534 0.13159 0.49427 0.0
C95 C 0.14452 0.15797 0.49241 0.0
C96 C 0.16155 0.17975 0.46477 0.0
C97 C 0.14139 0.10701 0.5324 0.0
O98 O 0.04367 0.11027 0.52483 0.0
O99 O 1.00115 0.11787 0.56433 0.0
O100 O 0.03227 0.11402 0.6282 0.0
O101 O 0.07604 0.14075 0.58778 0.0
O102 O 0.93887 0.06061 0.59019 0.0
O103 O 0.96377 0.06145 0.64105 0.0
O104 O 0.02274 0.03207 0.61555 0.0
O105 O 0.08276 0.06768 0.61106 0.0
O106 O 0.05163 0.03515 0.54712 0.0
O107 O 0.99085 0.03431 0.5512 0.0
C108 C 0.0178 0.12484 0.53415 0.0
O109 O 0.13534 0.11956 0.56263 0.0
O110 O 0.11206 0.08297 0.52049 0.0
C111 C 0.05916 0.14192 0.61753 0.0
C112 C 0.90399 1.02188 0.63309 0.0
C113 C 0.85047 0.95898 0.6555 0.0
C114 C 0.85792 0.99115 0.675 0.0
C115 C 0.88425 1.02226 0.66379 0.0
C116 C 0.89672 0.99003 0.61325 0.0
C117 C 0.87001 0.95883 0.62431 0.0
C118 C 0.93295 0.05469 0.62335 0.0
C119 C 0.05788 0.03982 0.6242 0.0
H120 H 0.23849 0.15092 0.45696 0.0
H121 H 0.20839 0.11264 0.50511 0.0
H122 H 0.11786 0.15939 0.50173 0.0
H123 H 0.14761 0.19757 0.45312 0.0
H124 H 0.84427 0.99215 0.69961 0.0
H125 H 0.88979 0.04652 0.67956 0.0
H126 H 0.91192 0.98916 0.5895 0.0
H127 H 0.86486 0.93459 0.6086 0.0
Tb128 Tb 0.58981 0.07378 0.1167 0.0
Tb129 Tb 0.52586 0.05212 0.05559 0.0
C130 C 0.59471 1.02536 0.05386 0.0
C131 C 0.66426 0.12214 0.17872 0.0
C132 C 0.70802 0.18267 0.21536 0.0
C133 C 0.71709 0.15004 0.21566 0.0
C134 C 0.69534 0.12004 0.1975 0.0
C135 C 0.65568 0.15489 0.17726 0.0
C136 C 0.67737 0.18496 0.19559 0.0
C137 C 0.64024 0.08948 0.16229 0.0
O138 O 0.60913 0.1159 0.07793 0.0
O139 O 0.55803 0.10715 0.04211 0.0
O140 O 0.50196 0.07378 0.09904 0.0
O141 O 0.55595 0.10957 0.12355 0.0
O142 O 0.50066 1.01637 1.01554 0.0
O143 O 0.48438 0.06449 1.02582 0.0
O144 O 0.51268 1.00493 0.09022 0.0
O145 O 0.54523 0.03097 0.13915 0.0
O146 O 0.5961 0.02795 0.08777 0.0
O147 O 0.57639 0.0431 1.03596 0.0
C148 C 0.59105 0.12661 0.05282 0.0
O149 O 0.60494 0.08211 0.16919 0.0
O150 O 0.64628 0.0847 0.12943 0.0
C151 C 0.51995 0.10112 0.11881 0.0
C152 C 0.44039 1.01623 0.99693 0.0
C153 C 0.37304 0.97684 0.96579 0.0
C154 C 0.38955 1.013 0.95711 0.0
C155 C 0.42289 0.03251 0.9726 0.0
C156 C 0.42281 0.98077 1.00742 0.0
C157 C 0.38916 0.96122 0.992 0.0
C158 C 0.47879 0.03543 1.00687 0.0
C159 C 0.52093 1.00387 0.12358 0.0
H160 H 0.74016 0.14724 0.23106 0.0
H161 H 0.70224 0.0949 0.19888 0.0
H162 H 0.6318 0.15694 0.16263 0.0
H163 H 0.66993 0.20983 0.19468 0.0
H164 H 0.37748 1.02571 0.93718 0.0
H165 H 0.43603 0.05981 0.96416 0.0
H166 H 0.43588 0.96767 1.02618 0.0
H167 H 0.377 0.9333 0.99898 0.0
Tb168 Tb 0.5373 0.54673 0.55458 0.0
Tb169 Tb 0.53281 0.61068 0.60815 0.0
C170 C 0.5042 0.60835 0.52964 0.0
C171 C 0.57441 0.48282 0.50707 0.0
C172 C 0.63446 0.45536 0.49379 0.0
C173 C 0.60063 0.4417 0.47575 0.0
C174 C 0.57081 0.45531 0.48242 0.0
C175 C 0.60821 0.497 0.52471 0.0
C176 C 0.63794 0.48334 0.51821 0.0
C177 C 0.54292 0.49648 0.51487 0.0
O178 O 0.58629 0.59101 0.543 0.0
O179 O 0.591 0.62613 0.59238 0.0
O180 O 0.55048 0.57185 0.64001 0.0
O181 O 0.57554 0.54495 0.59721 0.0
O182 O 0.54223 0.66554 0.61995 0.0
O183 O 0.51582 0.62478 0.65687 0.0
O184 O 0.47607 0.57587 0.60227 0.0
O185 O 0.49079 0.52447 0.58942 0.0
O186 O 0.5014 0.57375 0.52761 0.0
O187 O 0.52015 0.62779 0.5567 0.0
C188 C 0.60465 0.618 0.5629 0.0
O189 O 0.53081 0.49171 0.5467 0.0
O190 O 0.54626 0.52905 0.50442 0.0
C191 C 0.57104 0.55127 0.63043 0.0
C192 C 0.4925 0.67396 0.652 0.0
C193 C 0.431 0.70063 0.65937 0.0
C194 C 0.46099 0.71109 0.6829 0.0
C195 C 0.49152 0.69781 0.67923 0.0
C196 C 0.46283 0.66365 0.62833 0.0
C197 C 0.43235 0.67686 0.63196 0.0
C198 C 0.52359 0.65864 0.64886 0.0
C199 C 0.46747 0.54068 0.60194 0.0
H200 H 0.59721 0.42055 0.45641 0.0
H201 H 0.54493 0.44425 0.46846 0.0
H202 H 0.61144 0.51836 0.54383 0.0
H203 H 0.66335 0.49418 0.53291 0.0
H204 H 0.46096 0.72968 0.70404 0.0
H205 H 0.5142 0.70595 0.69774 0.0
H206 H 0.46307 0.64502 0.60725 0.0
H207 H 0.40952 0.66788 0.61371 0.0
Tb208 Tb 0.02976 0.62635 0.04163 0.0
Tb209 Tb 0.01861 0.55647 0.09194 0.0
C210 C 0.05641 0.55939 1.01801 0.0
C211 C 1.00506 0.70002 0.99962 0.0
C212 C 0.94651 0.72985 0.98766 0.0
C213 C 0.97244 0.72988 0.96133 0.0
C214 C 1.0015 0.71508 0.9673 0.0
C215 C 0.97986 0.70086 1.0263 0.0
C216 C 0.95097 0.71589 1.02043 0.0
C217 C 0.03225 0.67994 1.00412 0.0
O218 O 0.97066 0.59874 0.04078 0.0
O219 O 0.97184 0.54207 0.05516 0.0
O220 O 0.98711 0.58855 0.11802 0.0
O221 O 0.01661 0.64292 0.09343 0.0
O222 O 1.00358 0.50031 0.09712 0.0
O223 O 0.02156 0.53507 0.14159 0.0
O224 O 0.07103 0.59506 0.10851 0.0
O225 O 0.08547 0.63146 0.06047 0.0
O226 O 0.04265 0.58537 1.00856 0.0
O227 O 0.05633 0.54993 0.05084 0.0
C228 C 0.95562 0.56376 0.04004 0.0
O229 O 0.04793 0.68236 1.03464 0.0
O230 O 0.02128 0.64681 0.99291 0.0
C231 C 0.99595 0.62395 0.1182 0.0
C232 C 0.04259 0.48419 0.13721 0.0
C233 C 0.09709 0.44986 0.15148 0.0
C234 C 0.06428 0.44192 0.17117 0.0
C235 C 0.0371 0.45891 0.16396 0.0
C236 C 0.07558 0.49258 0.11796 0.0
C237 C 0.10248 0.47542 0.12488 0.0
C238 C 0.01448 0.50239 0.12944 0.0
C239 C 0.09441 0.62063 0.0907 0.0
H240 H 0.96984 0.74076 0.93591 0.0
H241 H 0.02049 0.71436 0.94634 0.0
H242 H 0.98174 0.68881 0.0513 0.0
H243 H 0.93118 0.71512 0.04105 0.0
H244 H 0.05943 0.42221 0.19174 0.0
H245 H 1.01187 0.45231 0.17918 0.0
H246 H 0.08057 0.51244 0.09756 0.0
H247 H 0.12774 0.48248 0.10968 0.0
H248 H 0.28954 0.19776 0.26463 0.0
H249 H 0.2928 0.31033 0.26683 0.0
H250 H 0.26119 0.30139 0.32387 0.0
H251 H 0.20017 0.16281 0.30523 0.0
H252 H 0.21395 0.12915 0.32925 0.0
H253 H 0.23528 0.14438 0.28805 0.0
H254 H 0.30021 0.16125 0.31729 0.0
H255 H 0.27909 0.14616 0.35858 0.0
H256 H 0.30949 0.19133 0.35436 0.0
H257 H 0.23048 0.27995 0.38178 0.0
H258 H 0.20368 0.24784 0.43549 0.0
H259 H 0.22215 0.15014 0.39462 0.0
C260 C 0.28382 0.22063 0.27715 0.0
C261 C 0.29373 0.25476 0.26135 0.0
C262 C 0.28512 0.28383 0.27833 0.0
C263 C 0.26735 0.27906 0.31078 0.0
C264 C 0.25834 0.24507 0.32577 0.0
C265 C 0.26626 0.21638 0.30943 0.0
C266 C 0.25434 0.18272 0.33111 0.0
C267 C 0.22414 0.15302 0.31229 0.0
C268 C 0.28778 0.16961 0.34092 0.0
C269 C 0.23893 0.19701 0.36249 0.0
C270 C 0.24118 0.23294 0.35894 0.0
C271 C 0.22855 0.2518 0.38481 0.0
C272 C 0.21332 0.23338 0.41513 0.0
C273 C 0.21119 0.19665 0.41928 0.0
C274 C 0.22403 0.17839 0.39246 0.0
H275 H 0.28053 0.88682 0.78929 0.0
H276 H 0.18618 0.82451 0.84852 0.0
H277 H 0.21395 0.85723 0.90237 0.0
H278 H 0.34895 0.88819 0.85085 0.0
H279 H 0.37657 0.93365 0.8422 0.0
H280 H 0.34775 0.90733 0.80844 0.0
H281 H 0.31486 0.95678 0.80066 0.0
H282 H 0.34378 0.98342 0.83431 0.0
H283 H 0.294 0.97177 0.83779 0.0
H284 H 0.25621 0.89257 0.95054 0.0
H285 H 0.30645 0.93115 0.98775 0.0
H286 H 0.37078 0.9714 0.8955 0.0
C287 C 0.26553 0.8805 0.81356 0.0
C288 C 0.23138 0.85327 0.81505 0.0
C289 C 0.21233 0.84557 0.84707 0.0
C290 C 0.22793 0.86389 0.87767 0.0
C291 C 0.2622 0.89016 0.87548 0.0
C292 C 0.28041 0.89881 0.84407 0.0
C293 C 0.31722 0.92734 0.84856 0.0
C294 C 0.34951 0.91327 0.83683 0.0
C295 C 0.31746 0.96187 0.82918 0.0
C296 C 0.31743 0.93285 0.88751 0.0
C297 C 0.28559 0.91119 0.90275 0.0
C298 C 0.28094 0.91013 0.93881 0.0
C299 C 0.30955 0.93192 0.95973 0.0
C300 C 0.34202 0.9546 0.94436 0.0
C301 C 0.34578 0.955 0.90784 0.0
H302 H 0.60212 0.47771 0.82128 0.0
H303 H 0.68545 0.43507 0.77533 0.0
H304 H 0.6768 0.46171 0.71863 0.0
H305 H 0.54111 0.46187 0.74854 0.0
H306 H 0.52782 0.50257 0.75356 0.0
H307 H 0.54227 0.48238 0.79095 0.0
H308 H 0.59286 0.54212 0.80485 0.0
H309 H 0.57837 0.56258 0.76762 0.0
H310 H 0.62605 0.56275 0.77185 0.0
H311 H 0.6554 0.48957 0.66531 0.0
H312 H 0.62603 0.51856 0.62133 0.0
H313 H 0.55725 0.5449 0.70168 0.0
C314 C 0.61914 0.47474 0.79943 0.0
C315 C 0.64504 0.45481 0.8029 0.0
C316 C 0.666 0.45072 0.77348 0.0
C317 C 0.66108 0.46565 0.74108 0.0
C318 C 0.63502 0.48477 0.73831 0.0
C319 C 0.61463 0.48967 0.76684 0.0
C320 C 0.58773 0.51056 0.75664 0.0
C321 C 0.54734 0.48799 0.76279 0.0
C322 C 0.5968 0.54665 0.77642 0.0
C323 C 0.59578 0.51631 0.71791 0.0
C324 C 0.62311 0.50114 0.70785 0.0
C325 C 0.63427 0.50182 0.67313 0.0
C326 C 0.61729 0.51837 0.64818 0.0
C327 C 0.58937 0.53447 0.65772 0.0
C328 C 0.57875 0.53337 0.69331 0.0
H329 H 0.90647 0.65213 0.30393 0.0
H330 H 0.94052 0.76654 0.28353 0.0
H331 H 0.96839 0.7553 0.22758 0.0
H332 H 0.98798 0.63267 0.26582 0.0
H333 H 0.96136 0.58978 0.24811 0.0
H334 H 0.94599 0.60719 0.28705 0.0
H335 H 0.88253 0.60113 0.25782 0.0
H336 H 0.89782 0.58403 0.21869 0.0
H337 H 0.88105 0.62291 0.21682 0.0
H338 H 0.99018 0.73089 0.1724 0.0
H339 H 1.00653 0.69662 0.12398 0.0
H340 H 0.95837 0.5971 0.17958 0.0
C341 C 0.92044 0.67485 0.28792 0.0
C342 C 0.92194 0.71036 0.29829 0.0
C343 C 0.93963 0.73929 0.27635 0.0
C344 C 0.95534 0.73305 0.24444 0.0
C345 C 0.95306 0.69766 0.23471 0.0
C346 C 0.93625 0.66903 0.25595 0.0
C347 C 0.93683 0.63354 0.2391 0.0
C348 C 0.95939 0.61469 0.26134 0.0
C349 C 0.8972 0.60896 0.23274 0.0
C350 C 0.95636 0.64652 0.2049 0.0
C351 C 0.96545 0.68362 0.20296 0.0
C352 C 0.9833 0.70188 0.17385 0.0
C353 C 0.99246 0.68199 0.1463 0.0
C354 C 0.98391 0.64389 0.14756 0.0
C355 C 0.96534 0.62607 0.17746 0.0
H356 H 0.3633 0.20116 0.13616 0.0
H357 H 0.42092 0.25374 0.22868 0.0
H358 H 0.46802 0.22141 0.22101 0.0
H359 H 0.3769 0.11529 0.15199 0.0
H360 H 0.38322 0.10568 0.10684 0.0
H361 H 0.35502 0.13423 0.11846 0.0
H362 H 0.39535 0.18492 0.07964 0.0
H363 H 0.42347 0.1564 0.06767 0.0
H364 H 0.44486 0.2003 0.08634 0.0
H365 H 0.50874 0.18404 0.20318 0.0
H366 H 0.54032 0.14283 0.17695 0.0
H367 H 0.45453 0.1119 0.09757 0.0
C368 C 0.38616 0.20613 0.15445 0.0
C369 C 0.38885 0.23003 0.18285 0.0
C370 C 0.4186 0.23549 0.20676 0.0
C371 C 0.44538 0.21731 0.20261 0.0
C372 C 0.44173 0.19353 0.1746 0.0
C373 C 0.41287 0.18779 0.15096 0.0
C374 C 0.41484 0.15994 0.12379 0.0
C375 C 0.38045 0.12683 0.12539 0.0
C376 C 0.41995 0.17639 0.08719 0.0
C377 C 0.44936 0.15101 0.13582 0.0
C378 C 0.46454 0.17089 0.16504 0.0
C379 C 0.49706 0.16818 0.18041 0.0
C380 C 0.51476 0.14473 0.16533 0.0
C381 C 0.49967 0.12401 0.13544 0.0
C382 C 0.46636 0.12701 0.12074 0.0
H383 H 0.06303 0.84834 0.6914 0.0
H384 H 0.16888 0.90243 0.73942 0.0
H385 H 0.16077 0.96155 0.72432 0.0
H386 H 0.07236 0.90492 0.6201 0.0
H387 H 0.02448 0.90458 0.61821 0.0
H388 H 0.03645 0.86693 0.63638 0.0
H389 H 1.00275 0.87375 0.69364 0.0
H390 H 0.99053 0.91142 0.67554 0.0
H391 H 0.01532 0.91645 0.7163 0.0
H392 H 0.14474 1.01369 0.6979 0.0
H393 H 0.12078 0.05586 0.66394 0.0
H394 H 0.02411 0.96814 0.63461 0.0
C395 C 0.08391 0.87277 0.69945 0.0
C396 C 0.11631 0.87136 0.71687 0.0
C397 C 0.14368 0.90343 0.72641 0.0
C398 C 0.13929 0.93697 0.71795 0.0
C399 C 0.10724 0.9377 0.70019 0.0
C400 C 0.07982 0.90648 0.69132 0.0
C401 C 0.04924 0.91466 0.67036 0.0
C402 C 0.04544 0.89671 0.63412 0.0
C403 C 1.01227 0.90341 0.69015 0.0
C404 C 0.06426 0.95521 0.66796 0.0
C405 C 0.09766 0.96797 0.68547 0.0
C406 C 0.11827 1.00414 0.68466 0.0
C407 C 0.10453 0.02784 0.66521 0.0
C408 C 0.07043 1.0153 0.64702 0.0
C409 C 0.04985 0.97861 0.64891 0.0
H410 H 0.76105 0.4248 0.98439 0.0
H411 H 0.76969 0.48118 0.88591 0.0
H412 H 0.82709 0.52523 0.9072 0.0
H413 H 0.79869 0.49909 0.04073 0.0
H414 H 0.82433 0.47615 0.0668 0.0
H415 H 0.78228 0.45086 0.04512 0.0
H416 H 0.81762 0.41126 1.01449 0.0
H417 H 0.85973 0.43618 0.03629 0.0
H418 H 0.85853 0.4324 0.98949 0.0
H419 H 0.88397 0.56442 0.94067 0.0
H420 H 0.93773 0.59051 0.97938 0.0
H421 H 0.89652 0.50279 0.05156 0.0
C422 C 0.77497 0.4456 0.96643 0.0
C423 C 0.75999 0.44858 0.93285 0.0
C424 C 0.77948 0.4779 0.91178 0.0
C425 C 0.81251 0.50313 0.92362 0.0
C426 C 0.82646 0.49864 0.95646 0.0
C427 C 0.80851 0.47016 0.97724 0.0
C428 C 0.83016 0.46984 1.0106 0.0
C429 C 0.80751 0.47425 0.0427 0.0
C430 C 0.84223 0.43538 1.01284 0.0
C431 C 0.86326 0.50276 1.00554 0.0
C432 C 0.86022 0.51946 0.97446 0.0
C433 C 0.88666 0.55126 0.96481 0.0
C434 C 0.91706 0.56599 0.98712 0.0
C435 C 0.92152 0.54866 1.01849 0.0
C436 C 0.89411 0.51654 1.02768 0.0
H437 H 0.78954 0.66977 0.44673 0.0
H438 H 0.80159 0.78124 0.47527 0.0
H439 H 0.74796 0.76138 0.51376 0.0
H440 H 0.68922 0.64541 0.44146 0.0
H441 H 0.68256 0.60049 0.45745 0.0
H442 H 0.72417 0.62293 0.43407 0.0
H443 H 0.76379 0.61276 0.4859 0.0
H444 H 0.72224 0.59059 0.50953 0.0
H445 H 0.7563 0.6287 0.52866 0.0
H446 H 0.69343 0.72989 0.55074 0.0
H447 H 0.63665 0.68949 0.57676 0.0
H448 H 0.65444 0.59927 0.51955 0.0
C449 C 0.78101 0.69023 0.46077 0.0
C450 C 0.80132 0.72727 0.45832 0.0
C451 C 0.78828 0.75263 0.47745 0.0
C452 C 0.75732 0.74166 0.49933 0.0
C453 C 0.73859 0.70515 0.50149 0.0
C454 C 0.74939 0.67983 0.48219 0.0
C455 C 0.72259 0.64249 0.48752 0.0
C456 C 0.7035 0.62692 0.45308 0.0
C457 C 0.74242 0.61715 0.50388 0.0
C458 C 0.69523 0.65094 0.51285 0.0
C459 C 0.70543 0.68719 0.52102 0.0
C460 C 0.68503 0.70147 0.54437 0.0
C461 C 0.65291 0.67827 0.55922 0.0
C462 C 0.64099 0.64125 0.55021 0.0
C463 C 0.66273 0.62748 0.52687 0.0
H464 H 0.24604 0.34825 0.10117 0.0
H465 H 0.27477 0.35115 0.21059 0.0
H466 H 0.22763 0.38221 0.22405 0.0
H467 H 0.23171 0.4367 0.09963 0.0
H468 H 0.1937 0.4233 0.06912 0.0
H469 H 0.22963 0.4013 0.06838 0.0
H470 H 0.18004 0.33948 0.07541 0.0
H471 H 0.14399 0.36132 0.07636 0.0
H472 H 0.14845 0.33255 0.11164 0.0
H473 H 0.17586 0.41106 0.22556 0.0
H474 H 0.12612 0.43948 0.21453 0.0
H475 H 0.13278 0.41934 0.10388 0.0
C476 C 0.24239 0.35567 0.12787 0.0
C477 C 0.26345 0.34724 0.15498 0.0
C478 C 0.25839 0.35721 0.18963 0.0
C479 C 0.2318 0.37486 0.19747 0.0
C480 C 0.21096 0.38252 0.17022 0.0
C481 C 0.21622 0.3736 0.13607 0.0
C482 C 0.19054 0.38528 0.1116 0.0
C483 C 0.21273 0.41331 0.08566 0.0
C484 C 0.1642 0.35271 0.09265 0.0
C485 C 0.16984 0.4019 0.13732 0.0
C486 C 0.18185 0.3999 0.17102 0.0
C487 C 0.16632 0.41294 0.19926 0.0
C488 C 0.138 0.42881 0.19281 0.0
C489 C 0.1258 0.43167 0.15839 0.0
C490 C 0.1419 0.41787 0.13042 0.0
H491 H 0.63133 0.2921 0.91598 0.0
H492 H 0.69634 0.35756 0.99923 0.0
H493 H 0.68245 0.30496 0.0369 0.0
H494 H 0.55867 0.23902 0.97469 0.0
H495 H 0.55131 0.19778 0.95016 0.0
H496 H 0.56674 0.24048 0.92842 0.0
H497 H 0.62323 0.22322 0.90406 0.0
H498 H 0.60813 0.18058 0.92592 0.0
H499 H 0.6541 0.21031 0.93369 0.0
H500 H 0.66557 0.24543 0.0653 0.0
H501 H 0.63975 0.18327 0.08554 0.0
H502 H 0.57966 0.15447 0.988 0.0
C503 C 0.64244 0.29548 0.94219 0.0
C504 C 0.66625 0.32933 0.95377 0.0
C505 C 0.67953 0.33209 0.98866 0.0
C506 C 0.67149 0.30224 1.01065 0.0
C507 C 0.64915 0.26935 0.99816 0.0
C508 C 0.63407 0.26572 0.96507 0.0
C509 C 0.60976 0.22706 0.95913 0.0
C510 C 0.56921 0.22603 0.95272 0.0
C511 C 0.6247 0.20925 0.9289 0.0
C512 C 0.61409 0.20976 0.99385 0.0
C513 C 0.63735 0.23483 1.01568 0.0
C514 C 0.64703 0.22561 0.04857 0.0
C515 C 0.63233 0.19001 0.05978 0.0
C516 C 0.60759 0.16366 0.03854 0.0
C517 C 0.59832 0.17389 1.00501 0.0
H518 H 0.87615 0.84545 0.44998 0.0
H519 H 0.97119 0.81039 0.42048 0.0
H520 H 0.01298 0.86726 0.44477 0.0
H521 H 0.91668 0.94127 0.43459 0.0
H522 H 0.8944 0.95414 0.47191 0.0
H523 H 0.87271 0.91244 0.44936 0.0
H524 H 0.86965 0.87782 0.50712 0.0
H525 H 0.89155 0.91935 0.52981 0.0
H526 H 0.91163 0.88263 0.53167 0.0
H527 H 0.04424 0.92707 0.47677 0.0
H528 H 0.0619 0.98383 0.51068 0.0
H529 H 0.94572 0.97827 0.52091 0.0
C530 C 0.90579 0.84961 0.44839 0.0
C531 C 0.92022 0.82297 0.43334 0.0
C532 C 0.95927 0.83022 0.43146 0.0
C533 C 0.98322 0.86243 0.44549 0.0
C534 C 0.96784 0.88735 0.46126 0.0
C535 C 0.92993 0.88129 0.46252 0.0
C536 C 0.92002 0.91138 0.48204 0.0
C537 C 0.89976 0.93097 0.45804 0.0
C538 C 0.89685 0.89693 0.51458 0.0
C539 C 0.95829 0.93545 0.49192 0.0
C540 C 0.98556 0.92122 0.47963 0.0
C541 C 0.023 0.9384 0.48623 0.0
C542 C 0.03277 0.97075 0.50566 0.0
C543 C 1.00533 0.98594 0.51857 0.0
C544 C 0.96755 0.96777 0.51139 0.0
H545 H 0.27566 0.75943 0.76451 0.0
H546 H 0.2378 0.78995 0.66592 0.0
H547 H 0.28406 0.76735 0.63508 0.0
H548 H 0.37109 0.78747 0.74449 0.0
H549 H 0.38167 0.75117 0.76706 0.0
H550 H 0.3434 0.76668 0.78111 0.0
H551 H 0.29876 0.70203 0.77451 0.0
H552 H 0.33697 0.68625 0.76068 0.0
H553 H 0.2963 0.67847 0.73355 0.0
H554 H 0.33728 0.74503 0.61541 0.0
H555 H 0.39225 0.72329 0.60834 0.0
H556 H 0.39553 0.70828 0.71999 0.0
C557 C 0.27692 0.76121 0.73641 0.0
C558 C 0.25298 0.77638 0.71764 0.0
C559 C 0.25539 0.7779 0.68084 0.0
C560 C 0.28175 0.76537 0.6631 0.0
C561 C 0.30543 0.75132 0.68253 0.0
C562 C 0.3031 0.749 0.71835 0.0
C563 C 0.33267 0.73406 0.73327 0.0
C564 C 0.35874 0.76149 0.75793 0.0
C565 C 0.31512 0.69806 0.75158 0.0
C566 C 0.35237 0.72881 0.70028 0.0
C567 C 0.33615 0.73873 0.67126 0.0
C568 C 0.34999 0.73687 0.63792 0.0
C569 C 0.38114 0.72439 0.63416 0.0
C570 C 0.39817 0.71403 0.66359 0.0
C571 C 0.38342 0.71632 0.69702 0.0
H572 H 0.70623 0.86038 0.79451 0.0
H573 H 0.75159 0.77039 0.78427 0.0
H574 H 0.78271 0.79606 0.72987 0.0
H575 H 0.6968 0.87548 0.69688 0.0
H576 H 0.71016 0.92349 0.70388 0.0
H577 H 0.68429 0.8937 0.73675 0.0
H578 H 0.73522 0.92329 0.78209 0.0
H579 H 0.76145 0.9527 0.74949 0.0
H580 H 0.78256 0.92427 0.77369 0.0
H581 H 0.81946 0.83758 0.68528 0.0
H582 H 0.85715 0.89043 0.65345 0.0
H583 H 0.78526 0.95212 0.69015 0.0
C584 C 0.72114 0.84514 0.77988 0.0
C585 C 0.72634 0.81333 0.79345 0.0
C586 C 0.74731 0.79486 0.77429 0.0
C587 C 0.76486 0.80911 0.74326 0.0
C588 C 0.7607 0.84154 0.73147 0.0
C589 C 0.73878 0.85902 0.7489 0.0
C590 C 0.74284 0.89577 0.73371 0.0
C591 C 0.70635 0.89718 0.71679 0.0
C592 C 0.75634 0.92573 0.76139 0.0
C593 C 0.77225 0.8972 0.70657 0.0
C594 C 0.78169 0.86544 0.70515 0.0
C595 C 0.8115 0.86217 0.6853 0.0
C596 C 0.83274 0.89238 0.66718 0.0
C597 C 0.82418 0.9255 0.66921 0.0
C598 C 0.79263 0.92727 0.68812 0.0
H599 H 0.88235 0.28948 0.32732 0.0
H600 H 0.80569 0.32676 0.39119 0.0
H601 H 0.75646 0.30313 0.3478 0.0
H602 H 0.84365 0.30171 0.24104 0.0
H603 H 0.85011 0.2606 0.22406 0.0
H604 H 0.88133 0.28624 0.2568 0.0
H605 H 0.86719 0.22992 0.29607 0.0
H606 H 0.83605 0.20418 0.26351 0.0
H607 H 0.81975 0.20699 0.30722 0.0
H608 H 0.71353 0.26927 0.3015 0.0
H609 H 0.67972 0.22507 0.25758 0.0
H610 H 0.78332 0.20763 0.22497 0.0
C611 C 0.85538 0.29313 0.33205 0.0
C612 C 0.84825 0.31049 0.36259 0.0
C613 C 0.81239 0.31455 0.36764 0.0
C614 C 0.78406 0.30104 0.34316 0.0
C615 C 0.79189 0.28344 0.31376 0.0
C616 C 0.82666 0.2794 0.30813 0.0
C617 C 0.82677 0.25592 0.27653 0.0
C618 C 0.85196 0.27741 0.24791 0.0
C619 C 0.83809 0.22227 0.28644 0.0
C620 C 0.78632 0.24632 0.26605 0.0
C621 C 0.76683 0.26307 0.2874 0.0
C622 C 0.72859 0.25648 0.28422 0.0
C623 C 0.70964 0.23145 0.2591 0.0
C624 C 0.72893 0.21305 0.2378 0.0
C625 C 0.76787 0.22133 0.24087 0.0
H626 H 0.41561 0.633 0.34203 0.0
H627 H 0.43345 0.745 0.36989 0.0
H628 H 0.46143 0.73492 0.42602 0.0
H629 H 0.39022 0.59694 0.42662 0.0
H630 H 0.41331 0.56248 0.4232 0.0
H631 H 0.39664 0.57876 0.38457 0.0
H632 H 0.4624 0.59474 0.3579 0.0
H633 H 0.47921 0.5782 0.39633 0.0
H634 H 0.5011 0.62345 0.38189 0.0
H635 H 0.48488 0.71169 0.48053 0.0
H636 H 0.50461 0.67891 0.52766 0.0
H637 H 0.47228 0.58094 0.46525 0.0
C638 C 0.4261 0.65554 0.35973 0.0
C639 C 0.42294 0.69005 0.35135 0.0
C640 C 0.43614 0.7186 0.37549 0.0
C641 C 0.4519 0.71299 0.40753 0.0
C642 C 0.45426 0.67857 0.41524 0.0
C643 C 0.44197 0.65034 0.39189 0.0
C644 C 0.44712 0.61584 0.40686 0.0
C645 C 0.40959 0.58679 0.41053 0.0
C646 C 0.47406 0.60226 0.38441 0.0
C647 C 0.46397 0.6289 0.44241 0.0
C648 C 0.46777 0.66519 0.44661 0.0
C649 C 0.48218 0.68335 0.47729 0.0
C650 C 0.49331 0.66427 0.50411 0.0
C651 C 0.49026 0.62706 0.50063 0.0
C652 C 0.47511 0.60925 0.46911 0.0
H653 H 0.11556 0.51263 0.82549 0.0
H654 H 0.15042 0.42609 0.87075 0.0
H655 H 0.13026 0.44132 0.92899 0.0
H656 H 0.14541 0.57535 0.89556 0.0
H657 H 0.10691 0.59383 0.89243 0.0
H658 H 0.12231 0.57499 0.85439 0.0
H659 H 0.05614 0.53179 0.84513 0.0
H660 H 0.04046 0.55071 0.88299 0.0
H661 H 0.03377 0.50291 0.8801 0.0
H662 H 0.10813 0.46821 0.9831 0.0
H663 H 0.08434 0.5021 1.02741 0.0
H664 H 0.06366 0.57151 0.94679 0.0
C665 C 0.11833 0.49653 0.84764 0.0
C666 C 0.13402 0.46778 0.84362 0.0
C667 C 0.13798 0.44782 0.87322 0.0
C668 C 0.12673 0.45645 0.9064 0.0
C669 C 0.11165 0.48523 0.90961 0.0
C670 C 0.10725 0.50484 0.88091 0.0
C671 C 0.091 0.53492 0.89139 0.0
C672 C 0.11802 0.57196 0.88294 0.0
C673 C 0.05309 0.52976 0.87386 0.0
C674 C 0.08697 0.52938 0.93048 0.0
C675 C 0.09909 0.50062 0.9405 0.0
C676 C 0.09847 0.49064 0.97537 0.0
C677 C 0.08492 0.51024 1.00048 0.0
C678 C 0.07197 0.5397 0.99093 0.0
C679 C 0.07323 0.54924 0.95525 0.0
H680 H 0.60228 0.87968 0.90914 0.0
H681 H 0.67606 0.84457 0.97747 0.0
H682 H 0.67608 0.89382 1.01909 0.0
H683 H 0.64228 0.9758 0.92432 0.0
H684 H 0.59809 0.98492 0.92292 0.0
H685 H 0.60496 0.94777 0.89826 0.0
H686 H 0.54835 0.90404 0.92868 0.0
H687 H 0.5412 0.94108 0.95322 0.0
H688 H 0.54689 0.90243 0.97555 0.0
H689 H 0.66554 0.94504 0.05398 0.0
H690 H 0.64472 0.99388 0.08042 0.0
H691 H 0.57867 0.9963 0.98836 0.0
C692 C 0.61845 0.88258 0.93289 0.0
C693 C 0.63907 0.85868 0.94057 0.0
C694 C 0.66003 0.86285 0.97157 0.0
C695 C 0.66028 0.89071 0.99514 0.0
C696 C 0.63958 0.91404 0.98695 0.0
C697 C 0.61905 0.91027 0.95656 0.0
C698 C 0.59842 0.93826 0.95433 0.0
C699 C 0.61175 0.96316 0.9231 0.0
C700 C 0.55622 0.92038 0.95288 0.0
C701 C 0.61011 0.95812 0.98843 0.0
C702 C 0.63396 0.94383 1.00679 0.0
C703 C 0.64714 0.95665 0.03972 0.0
C704 C 0.63514 0.98438 0.05451 0.0
C705 C 0.61029 0.99905 0.03635 0.0
C706 C 0.59816 0.98606 1.00265 0.0
H707 H 0.9286 0.28133 0.4906 0.0
H708 H 0.96765 0.27986 0.38469 0.0
H709 H 0.99794 0.23357 0.40087 0.0
H710 H 1.00939 0.26707 0.53446 0.0
H711 H 0.98135 0.23856 0.56699 0.0
H712 H 0.96589 0.27367 0.54748 0.0
H713 H 0.90421 0.22656 0.52934 0.0
H714 H 0.91962 0.1913 0.54847 0.0
H715 H 0.9056 0.1881 0.50341 0.0
H716 H 0.02226 0.1858 0.42882 0.0
H717 H 0.03705 0.13977 0.46564 0.0
H718 H 0.97933 0.17179 0.55209 0.0
C719 C 0.94431 0.2719 0.47104 0.0
C720 C 0.94633 0.28444 0.43655 0.0
C721 C 0.96606 0.27065 0.41133 0.0
C722 C 0.98334 0.24446 0.42029 0.0
C723 C 0.98035 0.23226 0.4545 0.0
C724 C 0.9613 0.24557 0.47944 0.0
C725 C 0.96018 0.22659 0.51378 0.0
C726 C 0.98042 0.25306 0.54236 0.0
C727 C 0.92002 0.20698 0.52435 0.0
C728 C 0.98127 0.20028 0.50424 0.0
C729 C 0.99307 0.20411 0.47009 0.0
C730 C 0.01315 0.18258 0.45561 0.0
C731 C 0.02136 0.15649 0.47667 0.0
C732 C 1.00907 0.15195 0.51163 0.0
C733 C 0.98883 0.17426 0.52538 0.0
H734 H 0.28178 0.65557 0.2053 0.0
H735 H 0.29561 0.76963 0.19035 0.0
H736 H 0.23976 0.7547 0.15418 0.0
H737 H 0.24365 0.62319 0.12182 0.0
H738 H 0.20931 0.58393 0.13797 0.0
H739 H 0.2519 0.6027 0.16176 0.0
H740 H 0.21467 0.60867 0.21688 0.0
H741 H 0.17197 0.58961 0.19331 0.0
H742 H 0.18055 0.63282 0.21454 0.0
H743 H 0.18484 0.72844 0.11626 0.0
H744 H 0.12784 0.69233 0.08673 0.0
H745 H 0.14219 0.59519 0.1317 0.0
C746 C 0.27305 0.67755 0.19479 0.0
C747 C 0.29474 0.71398 0.19998 0.0
C748 C 0.28135 0.74149 0.18567 0.0
C749 C 0.2491 0.73333 0.16524 0.0
C750 C 0.22926 0.69742 0.15991 0.0
C751 C 0.24002 0.66991 0.17496 0.0
C752 C 0.212 0.63367 0.16644 0.0
C753 C 0.23032 0.60945 0.14577 0.0
C754 C 0.19371 0.6151 0.19978 0.0
C755 C 0.18425 0.6453 0.14398 0.0
C756 C 0.19532 0.68223 0.14017 0.0
C757 C 0.1756 0.69954 0.11941 0.0
C758 C 0.14336 0.67874 0.10251 0.0
C759 C 0.13043 0.64099 0.10691 0.0
C760 C 0.15124 0.62405 0.12803 0.0
H761 H 0.26773 0.49659 0.6961 0.0
H762 H 0.2768 0.38888 0.71187 0.0
H763 H 0.33691 0.40578 0.68202 0.0
H764 H 0.30963 0.51135 0.61205 0.0
H765 H 0.33506 0.55785 0.61983 0.0
H766 H 0.29234 0.53795 0.64264 0.0
H767 H 0.32608 0.5562 0.70165 0.0
H768 H 0.36883 0.57644 0.67896 0.0
H769 H 0.36677 0.54253 0.71125 0.0
H770 H 0.39426 0.43244 0.64815 0.0
H771 H 0.44905 0.46926 0.61717 0.0
H772 H 0.40703 0.56185 0.62562 0.0
C773 C 0.28254 0.47667 0.69372 0.0
C774 C 0.26675 0.44102 0.70592 0.0
C775 C 0.28737 0.41597 0.702 0.0
C776 C 0.32182 0.42538 0.68522 0.0
C777 C 0.33602 0.46025 0.67281 0.0
C778 C 0.31747 0.48578 0.67728 0.0
C779 C 0.33969 0.52156 0.66175 0.0
C780 C 0.31787 0.53283 0.63232 0.0
C781 C 0.35101 0.55092 0.69009 0.0
C782 C 0.37331 0.51188 0.64762 0.0
C783 C 0.37029 0.47624 0.65417 0.0
C784 C 0.39711 0.46047 0.6431 0.0
C785 C 0.42816 0.4817 0.6253 0.0
C786 C 0.43265 0.5186 0.61881 0.0
C787 C 0.40459 0.53379 0.63013 0.0
H788 H 0.77501 0.745 0.87499 0.0
H789 H 0.75393 0.81679 0.95417 0.0
H790 H 0.80485 0.80733 0.99001 0.0
H791 H 0.80114 0.68282 0.93302 0.0
H792 H 0.83663 0.67729 0.90399 0.0
H793 H 0.79624 0.68707 0.88671 0.0
H794 H 0.83865 0.74266 0.85508 0.0
H795 H 0.87913 0.73325 0.87249 0.0
H796 H 0.87215 0.77666 0.8799 0.0
H797 H 0.86116 0.79252 1.01538 0.0
H798 H 0.91692 0.77323 1.02808 0.0
H799 H 0.90136 0.71343 0.93066 0.0
C800 C 0.78091 0.75866 0.89995 0.0
C801 C 0.76051 0.7817 0.91173 0.0
C802 C 0.76887 0.79866 0.94477 0.0
C803 C 0.79789 0.79362 0.9652 0.0
C804 C 0.81812 0.7715 0.95222 0.0
C805 C 0.80979 0.75419 0.92039 0.0
C806 C 0.83661 0.73323 0.91134 0.0
C807 C 0.81645 0.6927 0.90862 0.0
C808 C 0.85789 0.74731 0.87772 0.0
C809 C 0.86181 0.74185 0.94279 0.0
C810 C 0.85062 0.76368 0.9663 0.0
C811 C 0.87003 0.77531 0.9972 0.0
C812 C 0.9016 0.76423 1.0042 0.0
C813 C 0.91357 0.7421 0.98021 0.0
C814 C 0.89324 0.73082 0.94923 0.0
H815 H 0.41155 0.79639 0.16387 0.0
H816 H 0.43428 0.82138 0.27345 0.0
H817 H 0.47006 0.88351 0.25796 0.0
H818 H 0.49953 0.85323 0.12953 0.0
H819 H 0.47795 0.86648 0.09212 0.0
H820 H 0.45747 0.82321 0.11162 0.0
H821 H 0.39557 0.83866 0.11886 0.0
H822 H 0.41596 0.88212 0.09974 0.0
H823 H 0.39515 0.87893 0.14226 0.0
H824 H 0.49965 0.94449 0.23065 0.0
H825 H 0.5237 0.99803 0.19434 0.0
H826 H 0.47953 0.93475 0.10201 0.0
C827 C 0.42413 0.81474 0.18478 0.0
C828 C 0.41968 0.80356 0.22015 0.0
C829 C 0.43743 0.82871 0.24626 0.0
C830 C 0.45757 0.8643 0.23766 0.0
C831 C 0.45992 0.87463 0.20275 0.0
C832 C 0.44393 0.85045 0.17668 0.0
C833 C 0.44933 0.86866 0.14128 0.0
C834 C 0.47245 0.8519 0.11722 0.0
C835 C 0.41177 0.86699 0.12456 0.0
C836 C 0.47066 0.90707 0.15144 0.0
C837 C 0.47654 0.9098 0.18705 0.0
C838 C 0.49532 0.94247 0.20277 0.0
C839 C 0.50888 0.97291 0.18173 0.0
C840 C 0.5037 0.97103 0.14503 0.0
C841 C 0.48394 0.93743 0.12987 0.0
H842 H 0.16416 0.34878 0.66289 0.0
H843 H 0.11891 0.33028 0.76722 0.0
H844 H 0.08412 0.26795 0.74998 0.0
H845 H 0.08347 0.29375 0.61592 0.0
H846 H 0.1109 0.27756 0.58501 0.0
H847 H 0.12938 0.32135 0.60483 0.0
H848 H 0.1866 0.30337 0.62634 0.0
H849 H 0.16822 0.2595 0.60672 0.0
H850 H 0.17981 0.26361 0.65239 0.0
H851 H 0.05639 0.20581 0.72137 0.0
H852 H 0.03835 0.15082 0.68477 0.0
H853 H 0.10485 0.20944 0.60021 0.0
C854 C 0.14709 0.33177 0.68237 0.0
C855 C 0.14475 0.34481 0.71673 0.0
C856 C 0.12113 0.32143 0.74074 0.0
C857 C 0.1014 0.28578 0.73119 0.0
C858 C 0.1054 0.27366 0.69745 0.0
C859 C 0.12763 0.29612 0.6734 0.0
C860 C 0.12849 0.27641 0.63922 0.0
C861 C 0.11208 0.29328 0.60949 0.0
C862 C 0.16813 0.27568 0.63068 0.0
C863 C 0.1036 0.2391 0.64776 0.0
C864 C 0.09025 0.2381 0.68137 0.0
C865 C 0.06672 0.20647 0.69504 0.0
C866 C 0.05661 0.17525 0.67396 0.0
C867 C 0.07017 0.17547 0.63948 0.0
C868 C 0.09404 0.20807 0.62642 0.0
H869 H 0.84703 0.45771 0.47805 0.0
H870 H 0.80737 0.34178 0.46591 0.0
H871 H 0.74247 0.34384 0.46998 0.0
H872 H 0.77813 0.46586 0.54014 0.0
H873 H 0.7736 0.50712 0.52228 0.0
H874 H 0.81684 0.49648 0.51833 0.0
H875 H 0.81459 0.50326 0.45136 0.0
H876 H 0.77132 0.51386 0.45517 0.0
H877 H 0.77439 0.47721 0.42743 0.0
H878 H 0.68243 0.35841 0.47615 0.0
H879 H 0.63061 0.38437 0.48423 0.0
H880 H 0.70908 0.49132 0.49065 0.0
C881 C 0.82452 0.43289 0.4764 0.0
C882 C 0.83162 0.39953 0.47196 0.0
C883 C 0.80198 0.36748 0.46959 0.0
C884 C 0.7652 0.36842 0.47179 0.0
C885 C 0.75881 0.40172 0.47623 0.0
C886 C 0.78757 0.4334 0.4785 0.0
C887 C 0.77296 0.46553 0.48326 0.0
C888 C 0.78617 0.48488 0.51808 0.0
C889 C 0.78397 0.49149 0.45246 0.0
C890 C 0.7316 0.44692 0.48349 0.0
C891 C 0.72406 0.41015 0.47935 0.0
C892 C 0.68793 0.38721 0.47918 0.0
C893 C 0.65866 0.40225 0.48354 0.0
C894 C 0.66568 0.43991 0.48793 0.0
C895 C 0.70274 0.46242 0.4877 0.0
loop_
_geom_bond_atom_site_label_1
_geom_bond_atom_site_label_2
_geom_bond_distance
_geom_bond_site_symmetry_2
_ccdc_geom_bond_type
H0 C3 0.929 . S
H1 C6 0.929 . S
H2 C8 0.930 . S
C3 H0 0.929 . S
C3 C4 1.398 . S
C3 C5 1.396 . S
C4 C3 1.398 . S
C4 C8 1.407 . S
C5 C3 1.396 . S
C5 C6 1.394 . S
C6 H1 0.929 . S
C6 C5 1.394 . S
C6 C7 1.382 . S
C7 C6 1.382 . S
C7 C8 1.392 . S
C7 N9 1.420 . S
C8 H2 0.930 . S
C8 C4 1.407 . S
C8 C7 1.392 . S
N9 C7 1.420 . S
N9 C10 1.244 . S
C10 N9 1.244 . S
H11 C14 0.929 . S
H12 C17 0.929 . S
H13 C19 0.930 . S
C14 H11 0.929 . S
C14 C15 1.398 . S
C14 C16 1.396 . S
C15 C14 1.398 . S
C15 C19 1.407 . S
C16 C14 1.396 . S
C16 C17 1.394 . S
C17 H12 0.929 . S
C17 C16 1.394 . S
C17 C18 1.382 . S
C18 C17 1.382 . S
C18 C19 1.392 . S
C18 N20 1.420 . S
C19 H13 0.930 . S
C19 C15 1.407 . S
C19 C18 1.392 . S
N20 C18 1.420 . S
N20 C21 1.244 . S
C21 N20 1.244 . S
H22 C25 0.929 . S
H23 C28 0.929 . S
H24 C30 0.930 . S
C25 H22 0.929 . S
C25 C26 1.398 . S
C25 C27 1.396 . S
C26 C25 1.398 . S
C26 C30 1.407 . S
C27 C25 1.396 . S
C27 C28 1.394 . S
C28 H23 0.929 . S
C28 C27 1.394 . S
C28 C29 1.382 . S
C29 C28 1.382 . S
C29 C30 1.392 . S
C29 N31 1.420 . S
C30 H24 0.930 . S
C30 C26 1.407 . S
C30 C29 1.392 . S
N31 C29 1.420 . S
N31 C32 1.244 . S
C32 N31 1.244 . S
H33 C36 0.929 . S
H34 C39 0.929 . S
H35 C41 0.930 . S
C36 H33 0.929 . S
C36 C37 1.398 . S
C36 C38 1.396 . S
C37 C36 1.398 . S
C37 C41 1.407 . S
C38 C36 1.396 . S
C38 C39 1.394 . S
C39 H34 0.929 . S
C39 C38 1.394 . S
C39 C40 1.382 . S
C40 C39 1.382 . S
C40 C41 1.392 . S
C40 N42 1.420 . S
C41 H35 0.930 . S
C41 C37 1.407 . S
C41 C40 1.392 . S
N42 C40 1.420 . S
N42 C43 1.244 . S
C43 N42 1.244 . S
H44 C47 0.929 . S
H45 C50 0.929 . S
H46 C52 0.930 . S
C47 H44 0.929 . S
C47 C48 1.398 . S
C47 C49 1.396 . S
C48 C47 1.398 . S
C48 C52 1.407 . S
C49 C47 1.396 . S
C49 C50 1.394 . S
C50 H45 0.929 . S
C50 C49 1.394 . S
C50 C51 1.382 . S
C51 C50 1.382 . S
C51 C52 1.392 . S
C51 N53 1.420 . S
C52 H46 0.930 . S
C52 C48 1.407 . S
C52 C51 1.392 . S
N53 C51 1.420 . S
N53 C54 1.244 . S
C54 N53 1.244 . S
H55 C58 0.929 . S
H56 C61 0.929 . S
H57 C63 0.930 . S
C58 H55 0.929 . S
C58 C59 1.398 . S
C58 C60 1.396 . S
C59 C58 1.398 . S
C59 C63 1.407 . S
C60 C58 1.396 . S
C60 C61 1.394 . S
C61 H56 0.929 . S
C61 C60 1.394 . S
C61 C62 1.382 . S
C62 C61 1.382 . S
C62 C63 1.392 . S
C62 N64 1.420 . S
C63 H57 0.930 . S
C63 C59 1.407 . S
C63 C62 1.392 . S
N64 C62 1.420 . S
N64 C65 1.244 . S
C65 N64 1.244 . S
H66 C69 0.929 . S
H67 C72 0.929 . S
H68 C74 0.930 . S
C69 H66 0.929 . S
C69 C70 1.398 . S
C69 C71 1.396 . S
C70 C69 1.398 . S
C70 C74 1.407 . S
C71 C69 1.396 . S
C71 C72 1.394 . S
C72 H67 0.929 . S
C72 C71 1.394 . S
C72 C73 1.382 . S
C73 C72 1.382 . S
C73 C74 1.392 . S
C73 N75 1.420 . S
C74 H68 0.930 . S
C74 C70 1.407 . S
C74 C73 1.392 . S
N75 C73 1.420 . S
N75 C76 1.244 . S
C76 N75 1.244 . S
H77 C80 0.929 . S
H78 C83 0.929 . S
H79 C85 0.930 . S
C80 H77 0.929 . S
C80 C81 1.398 . S
C80 C82 1.396 . S
C81 C80 1.398 . S
C81 C85 1.407 . S
C82 C80 1.396 . S
C82 C83 1.394 . S
C83 H78 0.929 . S
C83 C82 1.394 . S
C83 C84 1.382 . S
C84 C83 1.382 . S
C84 C85 1.392 . S
C84 N86 1.420 . S
C85 H79 0.930 . S
C85 C81 1.407 . S
C85 C84 1.392 . S
N86 C84 1.420 . S
N86 C87 1.244 . S
C87 N86 1.244 . S
Tb88 C97 2.764 . S
Tb88 O98 2.325 . S
Tb88 O101 2.303 . S
Tb88 O105 2.322 1_545 S
Tb88 O106 2.349 1_545 S
Tb88 O109 2.415 . S
Tb88 O110 2.399 . S
Tb89 O99 2.322 . S
Tb89 O100 2.349 1_655 S
Tb89 O102 2.415 1_545 S
Tb89 O103 2.399 . S
Tb89 O104 2.325 1_655 S
Tb89 O107 2.303 1_545 S
Tb89 C118 2.764 1_545 S
C90 O106 1.261 1_655 S
C90 O107 1.257 . S
C91 C94 1.358 . S
C91 C95 1.332 . S
C91 C97 1.504 . S
C92 C93 1.373 . S
C92 C96 1.308 . S
C93 C92 1.373 . S
C93 C94 1.429 . S
C93 H120 0.932 . S
C94 C91 1.358 . S
C94 C93 1.429 . S
C94 H121 0.930 . S
C95 C91 1.332 . S
C95 C96 1.394 . S
C95 H122 0.932 . S
C96 C92 1.308 . S
C96 C95 1.394 . S
C96 H123 0.929 . S
C97 Tb88 2.764 . S
C97 C91 1.504 . S
C97 O109 1.239 . S
C97 O110 1.263 . S
O98 Tb88 2.325 . S
O98 C108 1.236 1_455 S
O99 Tb89 2.322 . S
O99 C108 1.257 . S
O100 Tb89 2.349 1_455 S
O100 C111 1.261 . S
O101 Tb88 2.303 . S
O101 C111 1.257 . S
O102 Tb89 2.415 1_565 S
O102 C118 1.239 . S
O103 Tb89 2.399 . S
O103 C118 1.263 1_545 S
O104 Tb89 2.325 1_455 S
O104 C119 1.236 1_545 S
O105 Tb88 2.322 1_565 S
O105 C119 1.257 . S
O106 Tb88 2.349 1_565 S
O106 C90 1.261 1_455 S
O107 Tb89 2.303 1_565 S
O107 C90 1.257 . S
C108 O98 1.236 1_655 S
C108 O99 1.257 . S
O109 Tb88 2.415 . S
O109 C97 1.239 . S
O110 Tb88 2.399 . S
O110 C97 1.263 . S
C111 O100 1.261 . S
C111 O101 1.257 . S
C112 C115 1.358 . S
C112 C116 1.332 . S
C112 C118 1.504 . S
C113 C114 1.373 . S
C113 C117 1.308 . S
C114 C113 1.373 . S
C114 C115 1.429 . S
C114 H124 0.932 . S
C115 C112 1.358 . S
C115 C114 1.429 . S
C115 H125 0.957 . S
C116 C112 1.332 . S
C116 C117 1.394 . S
C116 H126 0.932 . S
C117 C113 1.308 . S
C117 C116 1.394 . S
C117 H127 0.929 . S
C118 Tb89 2.764 1_565 S
C118 O102 1.239 . S
C118 O103 1.263 1_565 S
C118 C112 1.504 . S
C119 O104 1.236 1_565 S
C119 O105 1.257 . S
H120 C93 0.932 . S
H121 C94 0.930 . S
H122 C95 0.932 . S
H123 C96 0.929 . S
H124 C114 0.932 . S
H125 C115 0.957 . S
H126 C116 0.932 . S
H127 C117 0.929 . S
Tb128 C137 2.764 . S
Tb128 O138 2.325 . S
Tb128 O141 2.303 . S
Tb128 O145 2.322 1_545 S
Tb128 O146 2.349 . S
Tb128 O149 2.415 . S
Tb128 O150 2.399 . S
Tb129 O139 2.322 . S
Tb129 O140 2.349 . S
Tb129 O142 2.415 1_544 S
Tb129 O143 2.399 1_544 S
Tb129 O144 2.325 1_545 S
Tb129 O147 2.303 . S
Tb129 C158 2.764 1_544 S
C130 O146 1.261 1_565 S
C130 O147 1.257 1_565 S
C131 C134 1.358 . S
C131 C135 1.332 . S
C131 C137 1.504 . S
C132 C133 1.373 . S
C132 C136 1.308 . S
C133 C132 1.373 . S
C133 C134 1.429 . S
C133 H160 0.932 . S
C134 C131 1.358 . S
C134 C133 1.429 . S
C134 H161 0.930 . S
C135 C131 1.332 . S
C135 C136 1.394 . S
C135 H162 0.932 . S
C136 C132 1.308 . S
C136 C135 1.394 . S
C136 H163 0.929 . S
C137 Tb128 2.764 . S
C137 C131 1.504 . S
C137 O149 1.239 . S
C137 O150 1.263 . S
O138 Tb128 2.325 . S
O138 C148 1.236 . S
O139 Tb129 2.322 . S
O139 C148 1.257 . S
O140 Tb129 2.349 . S
O140 C151 1.261 . S
O141 Tb128 2.303 . S
O141 C151 1.257 . S
O142 Tb129 2.415 1_566 S
O142 C158 1.239 . S
O143 Tb129 2.399 1_566 S
O143 C158 1.263 . S
O144 Tb129 2.325 1_565 S
O144 C159 1.236 . S
O145 Tb128 2.322 1_565 S
O145 C159 1.257 . S
O146 Tb128 2.349 . S
O146 C130 1.261 1_545 S
O147 Tb129 2.303 . S
O147 C130 1.257 1_545 S
C148 O138 1.236 . S
C148 O139 1.257 . S
O149 Tb128 2.415 . S
O149 C137 1.239 . S
O150 Tb128 2.399 . S
O150 C137 1.263 . S
C151 O140 1.261 . S
C151 O141 1.257 . S
C152 C155 1.358 . S
C152 C156 1.332 . S
C152 C158 1.504 . S
C153 C154 1.373 . S
C153 C157 1.308 . S
C154 C153 1.373 . S
C154 C155 1.429 . S
C154 H164 0.932 . S
C155 C152 1.358 . S
C155 C154 1.429 . S
C155 H165 0.930 . S
C156 C152 1.332 . S
C156 C157 1.394 . S
C156 H166 0.932 . S
C157 C153 1.308 . S
C157 C156 1.394 . S
C157 H167 0.929 . S
C158 Tb129 2.764 1_566 S
C158 O142 1.239 . S
C158 O143 1.263 . S
C158 C152 1.504 . S
C159 O144 1.236 . S
C159 O145 1.257 . S
H160 C133 0.932 . S
H161 C134 0.930 . S
H162 C135 0.932 . S
H163 C136 0.929 . S
H164 C154 0.932 . S
H165 C155 0.930 . S
H166 C156 0.932 . S
H167 C157 0.929 . S
Tb168 C177 2.764 . S
Tb168 O178 2.325 . S
Tb168 O181 2.303 . S
Tb168 O185 2.322 . S
Tb168 O186 2.349 . S
Tb168 O189 2.415 . S
Tb168 O190 2.399 . S
Tb169 O179 2.322 . S
Tb169 O180 2.349 . S
Tb169 O182 2.415 . S
Tb169 O183 2.399 . S
Tb169 O184 2.325 . S
Tb169 O187 2.303 . S
Tb169 C198 2.764 . S
C170 O186 1.261 . S
C170 O187 1.257 . S
C171 C174 1.358 . S
C171 C175 1.332 . S
C171 C177 1.504 . S
C172 C173 1.373 . S
C172 C176 1.308 . S
C173 C172 1.373 . S
C173 C174 1.429 . S
C173 H200 0.932 . S
C174 C171 1.358 . S
C174 C173 1.429 . S
C174 H201 0.930 . S
C175 C171 1.332 . S
C175 C176 1.394 . S
C175 H202 0.932 . S
C176 C172 1.308 . S
C176 C175 1.394 . S
C176 H203 0.929 . S
C177 Tb168 2.764 . S
C177 C171 1.504 . S
C177 O189 1.239 . S
C177 O190 1.263 . S
O178 Tb168 2.325 . S
O178 C188 1.236 . S
O179 Tb169 2.322 . S
O179 C188 1.257 . S
O180 Tb169 2.349 . S
O180 C191 1.261 . S
O181 Tb168 2.303 . S
O181 C191 1.257 . S
O182 Tb169 2.415 . S
O182 C198 1.239 . S
O183 Tb169 2.399 . S
O183 C198 1.263 . S
O184 Tb169 2.325 . S
O184 C199 1.236 . S
O185 Tb168 2.322 . S
O185 C199 1.257 . S
O186 Tb168 2.349 . S
O186 C170 1.261 . S
O187 Tb169 2.303 . S
O187 C170 1.257 . S
C188 O178 1.236 . S
C188 O179 1.257 . S
O189 Tb168 2.415 . S
O189 C177 1.239 . S
O190 Tb168 2.399 . S
O190 C177 1.263 . S
C191 O180 1.261 . S
C191 O181 1.257 . S
C192 C195 1.358 . S
C192 C196 1.332 . S
C192 C198 1.504 . S
C193 C194 1.373 . S
C193 C197 1.308 . S
C194 C193 1.373 . S
C194 C195 1.429 . S
C194 H204 0.932 . S
C195 C192 1.358 . S
C195 C194 1.429 . S
C195 H205 0.930 . S
C196 C192 1.332 . S
C196 C197 1.394 . S
C196 H206 0.932 . S
C197 C193 1.308 . S
C197 C196 1.394 . S
C197 H207 0.929 . S
C198 Tb169 2.764 . S
C198 O182 1.239 . S
C198 O183 1.263 . S
C198 C192 1.504 . S
C199 O184 1.236 . S
C199 O185 1.257 . S
H200 C173 0.932 . S
H201 C174 0.930 . S
H202 C175 0.932 . S
H203 C176 0.929 . S
H204 C194 0.932 . S
H205 C195 0.930 . S
H206 C196 0.932 . S
H207 C197 0.929 . S
Tb208 C217 2.764 1_455 S
Tb208 O218 2.325 1_455 S
Tb208 O221 2.303 1_556 S
Tb208 O225 2.322 1_556 S
Tb208 O226 2.349 . S
Tb208 O229 2.415 1_455 S
Tb208 O230 2.399 . S
Tb209 O219 2.322 1_455 S
Tb209 O220 2.349 . S
Tb209 O222 2.415 . S
Tb209 O223 2.399 . S
Tb209 O224 2.325 . S
Tb209 O227 2.303 1_554 S
Tb209 C238 2.764 . S
C210 O226 1.261 . S
C210 O227 1.257 . S
C211 C214 1.358 . S
C211 C215 1.332 . S
C211 C217 1.504 . S
C212 C213 1.373 . S
C212 C216 1.308 . S
C213 C212 1.373 . S
C213 C214 1.429 . S
C213 H240 0.932 . S
C214 C211 1.358 . S
C214 C213 1.429 . S
C214 H241 0.930 . S
C215 C211 1.332 . S
C215 C216 1.394 . S
C215 H242 0.932 . S
C216 C212 1.308 . S
C216 C215 1.394 . S
C216 H243 0.929 . S
C217 Tb208 2.764 1_655 S
C217 C211 1.504 . S
C217 O229 1.239 . S
C217 O230 1.263 1_655 S
O218 Tb208 2.325 1_655 S
O218 C228 1.236 . S
O219 Tb209 2.322 1_655 S
O219 C228 1.257 1_554 S
O220 Tb209 2.349 . S
O220 C231 1.261 . S
O221 Tb208 2.303 1_554 S
O221 C231 1.257 . S
O222 Tb209 2.415 . S
O222 C238 1.239 . S
O223 Tb209 2.399 . S
O223 C238 1.263 . S
O224 Tb209 2.325 . S
O224 C239 1.236 . S
O225 Tb208 2.322 1_554 S
O225 C239 1.257 . S
O226 Tb208 2.349 . S
O226 C210 1.261 . S
O227 Tb209 2.303 1_556 S
O227 C210 1.257 . S
C228 O218 1.236 . S
C228 O219 1.257 1_556 S
O229 Tb208 2.415 1_655 S
O229 C217 1.239 . S
O230 Tb208 2.399 . S
O230 C217 1.263 1_455 S
C231 O220 1.261 . S
C231 O221 1.257 . S
C232 C235 1.358 . S
C232 C236 1.332 . S
C232 C238 1.504 . S
C233 C234 1.373 . S
C233 C237 1.308 . S
C234 C233 1.373 . S
C234 C235 1.429 . S
C234 H244 0.932 . S
C235 C232 1.358 . S
C235 C234 1.429 . S
C235 H245 0.930 . S
C236 C232 1.332 . S
C236 C237 1.394 . S
C236 H246 0.932 . S
C237 C233 1.308 . S
C237 C236 1.394 . S
C237 H247 0.929 . S
C238 Tb209 2.764 . S
C238 O222 1.239 . S
C238 O223 1.263 . S
C238 C232 1.504 . S
C239 O224 1.236 . S
C239 O225 1.257 . S
H240 C213 0.932 . S
H241 C214 0.930 . S
H242 C215 0.932 . S
H243 C216 0.929 . S
H244 C234 0.932 . S
H245 C235 0.930 . S
H246 C236 0.932 . S
H247 C237 0.929 . S
H248 C260 0.930 . S
H249 C262 0.930 . S
H250 C263 0.930 . S
H251 C267 0.959 . S
H252 C267 0.959 . S
H253 C267 0.961 . S
H254 C268 0.960 . S
H255 C268 0.961 . S
H256 C268 0.959 . S
H257 C271 0.929 . S
H258 C272 0.931 . S
H259 C274 0.930 . S
C260 H248 0.930 . S
C260 C261 1.399 . S
C260 C265 1.399 . S
C261 C260 1.399 . S
C261 C262 1.376 . S
C262 H249 0.930 . S
C262 C261 1.376 . S
C262 C263 1.388 . S
C263 H250 0.930 . S
C263 C262 1.388 . S
C263 C264 1.390 . S
C264 C263 1.390 . S
C264 C265 1.394 . S
C264 C270 1.465 . S
C265 C260 1.399 . S
C265 C264 1.394 . S
C265 C266 1.516 . S
C266 C265 1.516 . S
C266 C267 1.502 . S
C266 C268 1.561 . S
C266 C269 1.526 . S
C267 H251 0.959 . S
C267 H252 0.959 . S
C267 H253 0.961 . S
C267 C266 1.502 . S
C268 H254 0.960 . S
C268 H255 0.961 . S
C268 H256 0.959 . S
C268 C266 1.561 . S
C269 C266 1.526 . S
C269 C270 1.396 . S
C269 C274 1.390 . S
C270 C264 1.465 . S
C270 C269 1.396 . S
C270 C271 1.399 . S
C271 H257 0.929 . S
C271 C270 1.399 . S
C271 C272 1.385 . S
C272 H258 0.931 . S
C272 C271 1.385 . S
C272 C273 1.389 . S
C273 C272 1.389 . S
C273 C274 1.387 . S
C274 H259 0.930 . S
C274 C269 1.390 . S
C274 C273 1.387 . S
H275 C287 0.930 . S
H276 C289 0.930 . S
H277 C290 0.930 . S
H278 C294 0.959 . S
H279 C294 0.959 . S
H280 C294 0.961 . S
H281 C295 0.960 . S
H282 C295 0.961 . S
H283 C295 0.959 . S
H284 C298 0.929 . S
H285 C299 0.931 . S
H286 C301 0.930 . S
C287 H275 0.930 . S
C287 C288 1.399 . S
C287 C292 1.399 . S
C288 C287 1.399 . S
C288 C289 1.376 . S
C289 H276 0.930 . S
C289 C288 1.376 . S
C289 C290 1.388 . S
C290 H277 0.930 . S
C290 C289 1.388 . S
C290 C291 1.390 . S
C291 C290 1.390 . S
C291 C292 1.394 . S
C291 C297 1.465 . S
C292 C287 1.399 . S
C292 C291 1.394 . S
C292 C293 1.516 . S
C293 C292 1.516 . S
C293 C294 1.502 . S
C293 C295 1.561 . S
C293 C296 1.526 . S
C294 H278 0.959 . S
C294 H279 0.959 . S
C294 H280 0.961 . S
C294 C293 1.502 . S
C295 H281 0.960 . S
C295 H282 0.961 . S
C295 H283 0.959 . S
C295 C293 1.561 . S
C296 C293 1.526 . S
C296 C297 1.396 . S
C296 C301 1.390 . S
C297 C291 1.465 . S
C297 C296 1.396 . S
C297 C298 1.399 . S
C298 H284 0.929 . S
C298 C297 1.399 . S
C298 C299 1.385 . S
C299 H285 0.931 . S
C299 C298 1.385 . S
C299 C300 1.389 . S
C300 C299 1.389 . S
C300 C301 1.387 . S
C301 H286 0.930 . S
C301 C296 1.390 . S
C301 C300 1.387 . S
H302 C314 0.930 . S
H303 C316 0.930 . S
H304 C317 0.930 . S
H305 C321 0.959 . S
H306 C321 0.959 . S
H307 C321 0.961 . S
H308 C322 0.960 . S
H309 C322 0.961 . S
H310 C322 0.959 . S
H311 C325 0.929 . S
H312 C326 0.931 . S
H313 C328 0.930 . S
C314 H302 0.930 . S
C314 C315 1.399 . S
C314 C319 1.399 . S
C315 C314 1.399 . S
C315 C316 1.376 . S
C316 H303 0.930 . S
C316 C315 1.376 . S
C316 C317 1.388 . S
C317 H304 0.930 . S
C317 C316 1.388 . S
C317 C318 1.390 . S
C318 C317 1.390 . S
C318 C319 1.394 . S
C318 C324 1.465 . S
C319 C314 1.399 . S
C319 C318 1.394 . S
C319 C320 1.516 . S
C320 C319 1.516 . S
C320 C321 1.502 . S
C320 C322 1.561 . S
C320 C323 1.526 . S
C321 H305 0.959 . S
C321 H306 0.959 . S
C321 H307 0.961 . S
C321 C320 1.502 . S
C322 H308 0.960 . S
C322 H309 0.961 . S
C322 H310 0.959 . S
C322 C320 1.561 . S
C323 C320 1.526 . S
C323 C324 1.396 . S
C323 C328 1.390 . S
C324 C318 1.465 . S
C324 C323 1.396 . S
C324 C325 1.399 . S
C325 H311 0.929 . S
C325 C324 1.399 . S
C325 C326 1.385 . S
C326 H312 0.931 . S
C326 C325 1.385 . S
C326 C327 1.389 . S
C327 C326 1.389 . S
C327 C328 1.387 . S
C328 H313 0.930 . S
C328 C323 1.390 . S
C328 C327 1.387 . S
H329 C341 0.930 . S
H330 C343 0.930 . S
H331 C344 0.930 . S
H332 C348 0.959 1_455 S
H333 C348 0.959 1_455 S
H334 C348 0.961 . S
H335 C349 0.960 . S
H336 C349 0.961 . S
H337 C349 0.959 . S
H338 C352 0.929 . S
H339 C353 0.931 . S
H340 C355 0.930 . S
C341 H329 0.930 . S
C341 C342 1.399 . S
C341 C346 1.399 . S
C342 C341 1.399 . S
C342 C343 1.376 . S
C343 H330 0.930 . S
C343 C342 1.376 . S
C343 C344 1.388 . S
C344 H331 0.930 . S
C344 C343 1.388 . S
C344 C345 1.390 . S
C345 C344 1.390 . S
C345 C346 1.394 . S
C345 C351 1.465 . S
C346 C341 1.399 . S
C346 C345 1.394 . S
C346 C347 1.516 . S
C347 C346 1.516 . S
C347 C348 1.502 . S
C347 C349 1.561 . S
C347 C350 1.526 . S
C348 H332 0.959 1_655 S
C348 H333 0.959 1_655 S
C348 H334 0.961 . S
C348 C347 1.502 . S
C349 H335 0.960 . S
C349 H336 0.961 . S
C349 H337 0.959 . S
C349 C347 1.561 . S
C350 C347 1.526 . S
C350 C351 1.396 . S
C350 C355 1.390 . S
C351 C345 1.465 . S
C351 C350 1.396 . S
C351 C352 1.399 . S
C352 H338 0.929 . S
C352 C351 1.399 . S
C352 C353 1.385 . S
C353 H339 0.931 . S
C353 C352 1.385 . S
C353 C354 1.389 . S
C354 C353 1.389 . S
C354 C355 1.387 . S
C355 H340 0.930 . S
C355 C350 1.390 . S
C355 C354 1.387 . S
H356 C368 0.930 . S
H357 C370 0.930 . S
H358 C371 0.930 . S
H359 C375 0.959 . S
H360 C375 0.959 . S
H361 C375 0.961 . S
H362 C376 0.960 . S
H363 C376 0.961 . S
H364 C376 0.959 . S
H365 C379 0.929 . S
H366 C380 0.931 . S
H367 C382 0.930 . S
C368 H356 0.930 . S
C368 C369 1.399 . S
C368 C373 1.399 . S
C369 C368 1.399 . S
C369 C370 1.376 . S
C370 H357 0.930 . S
C370 C369 1.376 . S
C370 C371 1.388 . S
C371 H358 0.930 . S
C371 C370 1.388 . S
C371 C372 1.390 . S
C372 C371 1.390 . S
C372 C373 1.394 . S
C372 C378 1.465 . S
C373 C368 1.399 . S
C373 C372 1.394 . S
C373 C374 1.516 . S
C374 C373 1.516 . S
C374 C375 1.502 . S
C374 C376 1.561 . S
C374 C377 1.526 . S
C375 H359 0.959 . S
C375 H360 0.959 . S
C375 H361 0.961 . S
C375 C374 1.502 . S
C376 H362 0.960 . S
C376 H363 0.961 . S
C376 H364 0.959 . S
C376 C374 1.561 . S
C377 C374 1.526 . S
C377 C378 1.396 . S
C377 C382 1.390 . S
C378 C372 1.465 . S
C378 C377 1.396 . S
C378 C379 1.399 . S
C379 H365 0.929 . S
C379 C378 1.399 . S
C379 C380 1.385 . S
C380 H366 0.931 . S
C380 C379 1.385 . S
C380 C381 1.389 . S
C381 C380 1.389 . S
C381 C382 1.387 . S
C382 H367 0.930 . S
C382 C377 1.390 . S
C382 C381 1.387 . S
H383 C395 0.930 . S
H384 C397 0.930 . S
H385 C398 0.930 . S
H386 C402 0.959 . S
H387 C402 0.959 . S
H388 C402 0.961 . S
H389 C403 0.960 . S
H390 C403 0.961 1_655 S
H391 C403 0.959 . S
H392 C406 0.929 . S
H393 C407 0.931 . S
H394 C409 0.930 . S
C395 H383 0.930 . S
C395 C396 1.399 . S
C395 C400 1.399 . S
C396 C395 1.399 . S
C396 C397 1.376 . S
C397 H384 0.930 . S
C397 C396 1.376 . S
C397 C398 1.388 . S
C398 H385 0.930 . S
C398 C397 1.388 . S
C398 C399 1.390 . S
C399 C398 1.390 . S
C399 C400 1.394 . S
C399 C405 1.465 . S
C400 C395 1.399 . S
C400 C399 1.394 . S
C400 C401 1.516 . S
C401 C400 1.516 . S
C401 C402 1.502 1_455 S
C401 C403 1.561 . S
C401 C404 1.526 . S
C402 H386 0.959 . S
C402 H387 0.959 . S
C402 H388 0.961 . S
C402 C401 1.502 1_655 S
C403 H389 0.960 . S
C403 H390 0.961 1_455 S
C403 H391 0.959 . S
C403 C401 1.561 . S
C404 C401 1.526 . S
C404 C405 1.396 . S
C404 C409 1.390 . S
C405 C399 1.465 . S
C405 C404 1.396 . S
C405 C406 1.399 . S
C406 H392 0.929 . S
C406 C405 1.399 . S
C406 C407 1.385 . S
C407 H393 0.931 . S
C407 C406 1.385 . S
C407 C408 1.389 . S
C408 C407 1.389 . S
C408 C409 1.387 . S
C409 H394 0.930 . S
C409 C404 1.390 . S
C409 C408 1.387 . S
H410 C422 0.930 . S
H411 C424 0.930 . S
H412 C425 0.930 . S
H413 C429 0.959 . S
H414 C429 0.959 . S
H415 C429 0.961 . S
H416 C430 0.960 . S
H417 C430 0.961 1_554 S
H418 C430 0.959 . S
H419 C433 0.929 . S
H420 C434 0.931 . S
H421 C436 0.930 1_554 S
C422 H410 0.930 . S
C422 C423 1.399 . S
C422 C427 1.399 . S
C423 C422 1.399 . S
C423 C424 1.376 . S
C424 H411 0.930 . S
C424 C423 1.376 . S
C424 C425 1.388 . S
C425 H412 0.930 . S
C425 C424 1.388 . S
C425 C426 1.390 . S
C426 C425 1.390 . S
C426 C427 1.394 . S
C426 C432 1.465 . S
C427 C422 1.399 . S
C427 C426 1.394 . S
C427 C428 1.516 . S
C428 C427 1.516 . S
C428 C429 1.502 1_556 S
C428 C430 1.561 . S
C428 C431 1.526 . S
C429 H413 0.959 . S
C429 H414 0.959 . S
C429 H415 0.961 . S
C429 C428 1.502 1_554 S
C430 H416 0.960 . S
C430 H417 0.961 1_556 S
C430 H418 0.959 . S
C430 C428 1.561 . S
C431 C428 1.526 . S
C431 C432 1.396 . S
C431 C436 1.390 . S
C432 C426 1.465 . S
C432 C431 1.396 . S
C432 C433 1.399 . S
C433 H419 0.929 . S
C433 C432 1.399 . S
C433 C434 1.385 . S
C434 H420 0.931 . S
C434 C433 1.385 . S
C434 C435 1.389 . S
C435 C434 1.389 . S
C435 C436 1.387 . S
C436 H421 0.930 1_556 S
C436 C431 1.390 . S
C436 C435 1.387 . S
H437 C449 0.930 . S
H438 C451 0.930 . S
H439 C452 0.930 . S
H440 C456 0.959 . S
H441 C456 0.959 . S
H442 C456 0.961 . S
H443 C457 0.960 . S
H444 C457 0.961 . S
H445 C457 0.959 . S
H446 C460 0.929 . S
H447 C461 0.931 . S
H448 C463 0.930 . S
C449 H437 0.930 . S
C449 C450 1.399 . S
C449 C454 1.399 . S
C450 C449 1.399 . S
C450 C451 1.376 . S
C451 H438 0.930 . S
C451 C450 1.376 . S
C451 C452 1.388 . S
C452 H439 0.930 . S
C452 C451 1.388 . S
C452 C453 1.390 . S
C453 C452 1.390 . S
C453 C454 1.394 . S
C453 C459 1.465 . S
C454 C449 1.399 . S
C454 C453 1.394 . S
C454 C455 1.516 . S
C455 C454 1.516 . S
C455 C456 1.502 . S
C455 C457 1.561 . S
C455 C458 1.526 . S
C456 H440 0.959 . S
C456 H441 0.959 . S
C456 H442 0.961 . S
C456 C455 1.502 . S
C457 H443 0.960 . S
C457 H444 0.961 . S
C457 H445 0.959 . S
C457 C455 1.561 . S
C458 C455 1.526 . S
C458 C459 1.396 . S
C458 C463 1.390 . S
C459 C453 1.465 . S
C459 C458 1.396 . S
C459 C460 1.399 . S
C460 H446 0.929 . S
C460 C459 1.399 . S
C460 C461 1.385 . S
C461 H447 0.931 . S
C461 C460 1.385 . S
C461 C462 1.389 . S
C462 C461 1.389 . S
C462 C463 1.387 . S
C463 H448 0.930 . S
C463 C458 1.390 . S
C463 C462 1.387 . S
H464 C476 0.930 . S
H465 C478 0.930 . S
H466 C479 0.930 . S
H467 C483 0.959 . S
H468 C483 0.959 . S
H469 C483 0.961 . S
H470 C484 0.960 . S
H471 C484 0.961 . S
H472 C484 0.959 . S
H473 C487 0.929 . S
H474 C488 0.931 . S
H475 C490 0.930 . S
C476 H464 0.930 . S
C476 C477 1.399 . S
C476 C481 1.399 . S
C477 C476 1.399 . S
C477 C478 1.376 . S
C478 H465 0.930 . S
C478 C477 1.376 . S
C478 C479 1.388 . S
C479 H466 0.930 . S
C479 C478 1.388 . S
C479 C480 1.390 . S
C480 C479 1.390 . S
C480 C481 1.394 . S
C480 C486 1.465 . S
C481 C476 1.399 . S
C481 C480 1.394 . S
C481 C482 1.516 . S
C482 C481 1.516 . S
C482 C483 1.502 . S
C482 C484 1.561 . S
C482 C485 1.526 . S
C483 H467 0.959 . S
C483 H468 0.959 . S
C483 H469 0.961 . S
C483 C482 1.502 . S
C484 H470 0.960 . S
C484 H471 0.961 . S
C484 H472 0.959 . S
C484 C482 1.561 . S
C485 C482 1.526 . S
C485 C486 1.396 . S
C485 C490 1.390 . S
C486 C480 1.465 . S
C486 C485 1.396 . S
C486 C487 1.399 . S
C487 H473 0.929 . S
C487 C486 1.399 . S
C487 C488 1.385 . S
C488 H474 0.931 . S
C488 C487 1.385 . S
C488 C489 1.389 . S
C489 C488 1.389 . S
C489 C490 1.387 . S
C490 H475 0.930 . S
C490 C485 1.390 . S
C490 C489 1.387 . S
H491 C503 0.930 . S
H492 C505 0.930 . S
H493 C506 0.930 1_554 S
H494 C510 0.959 . S
H495 C510 0.959 . S
H496 C510 0.961 . S
H497 C511 0.960 . S
H498 C511 0.961 . S
H499 C511 0.959 . S
H500 C514 0.929 . S
H501 C515 0.931 . S
H502 C517 0.930 . S
C503 H491 0.930 . S
C503 C504 1.399 . S
C503 C508 1.399 . S
C504 C503 1.399 . S
C504 C505 1.376 . S
C505 H492 0.930 . S
C505 C504 1.376 . S
C505 C506 1.388 . S
C506 H493 0.930 1_556 S
C506 C505 1.388 . S
C506 C507 1.390 . S
C507 C506 1.390 . S
C507 C508 1.394 . S
C507 C513 1.465 . S
C508 C503 1.399 . S
C508 C507 1.394 . S
C508 C509 1.516 . S
C509 C508 1.516 . S
C509 C510 1.502 . S
C509 C511 1.561 . S
C509 C512 1.526 . S
C510 H494 0.959 . S
C510 H495 0.959 . S
C510 H496 0.961 . S
C510 C509 1.502 . S
C511 H497 0.960 . S
C511 H498 0.961 . S
C511 H499 0.959 . S
C511 C509 1.561 . S
C512 C509 1.526 . S
C512 C513 1.396 . S
C512 C517 1.390 . S
C513 C507 1.465 . S
C513 C512 1.396 . S
C513 C514 1.399 1_556 S
C514 H500 0.929 . S
C514 C513 1.399 1_554 S
C514 C515 1.385 . S
C515 H501 0.931 . S
C515 C514 1.385 . S
C515 C516 1.389 . S
C516 C515 1.389 . S
C516 C517 1.387 1_554 S
C517 H502 0.930 . S
C517 C512 1.390 . S
C517 C516 1.387 1_556 S
H518 C530 0.930 . S
H519 C532 0.930 . S
H520 C533 0.930 . S
H521 C537 0.959 . S
H522 C537 0.959 . S
H523 C537 0.961 . S
H524 C538 0.960 . S
H525 C538 0.961 . S
H526 C538 0.959 . S
H527 C541 0.929 . S
H528 C542 0.931 . S
H529 C544 0.930 . S
C530 H518 0.930 . S
C530 C531 1.399 . S
C530 C535 1.399 . S
C531 C530 1.399 . S
C531 C532 1.376 . S
C532 H519 0.930 . S
C532 C531 1.376 . S
C532 C533 1.388 . S
C533 H520 0.930 . S
C533 C532 1.388 . S
C533 C534 1.390 . S
C534 C533 1.390 . S
C534 C535 1.394 . S
C534 C540 1.465 . S
C535 C530 1.399 . S
C535 C534 1.394 . S
C535 C536 1.516 . S
C536 C535 1.516 . S
C536 C537 1.502 . S
C536 C538 1.561 . S
C536 C539 1.526 . S
C537 H521 0.959 . S
C537 H522 0.959 . S
C537 H523 0.961 . S
C537 C536 1.502 . S
C538 H524 0.960 . S
C538 H525 0.961 . S
C538 H526 0.959 . S
C538 C536 1.561 . S
C539 C536 1.526 . S
C539 C540 1.396 . S
C539 C544 1.390 . S
C540 C534 1.465 . S
C540 C539 1.396 . S
C540 C541 1.399 . S
C541 H527 0.929 . S
C541 C540 1.399 . S
C541 C542 1.385 . S
C542 H528 0.931 . S
C542 C541 1.385 . S
C542 C543 1.389 . S
C543 C542 1.389 . S
C543 C544 1.387 . S
C544 H529 0.930 . S
C544 C539 1.390 . S
C544 C543 1.387 . S
H545 C557 0.930 . S
H546 C559 0.930 . S
H547 C560 0.930 . S
H548 C564 0.959 . S
H549 C564 0.959 . S
H550 C564 0.961 . S
H551 C565 0.960 . S
H552 C565 0.961 . S
H553 C565 0.959 . S
H554 C568 0.929 . S
H555 C569 0.931 . S
H556 C571 0.930 . S
C557 H545 0.930 . S
C557 C558 1.399 . S
C557 C562 1.399 . S
C558 C557 1.399 . S
C558 C559 1.376 . S
C559 H546 0.930 . S
C559 C558 1.376 . S
C559 C560 1.388 . S
C560 H547 0.930 . S
C560 C559 1.388 . S
C560 C561 1.390 . S
C561 C560 1.390 . S
C561 C562 1.394 . S
C561 C567 1.465 . S
C562 C557 1.399 . S
C562 C561 1.394 . S
C562 C563 1.516 . S
C563 C562 1.516 . S
C563 C564 1.502 . S
C563 C565 1.561 . S
C563 C566 1.526 . S
C564 H548 0.959 . S
C564 H549 0.959 . S
C564 H550 0.961 . S
C564 C563 1.502 . S
C565 H551 0.960 . S
C565 H552 0.961 . S
C565 H553 0.959 . S
C565 C563 1.561 . S
C566 C563 1.526 . S
C566 C567 1.396 . S
C566 C571 1.390 . S
C567 C561 1.465 . S
C567 C566 1.396 . S
C567 C568 1.399 . S
C568 H554 0.929 . S
C568 C567 1.399 . S
C568 C569 1.385 . S
C569 H555 0.931 . S
C569 C568 1.385 . S
C569 C570 1.389 . S
C570 C569 1.389 . S
C570 C571 1.387 . S
C571 H556 0.930 . S
C571 C566 1.390 . S
C571 C570 1.387 . S
H572 C584 0.930 . S
H573 C586 0.930 . S
H574 C587 0.930 . S
H575 C591 0.959 . S
H576 C591 0.959 . S
H577 C591 0.961 . S
H578 C592 0.960 . S
H579 C592 0.961 . S
H580 C592 0.959 . S
H581 C595 0.929 . S
H582 C596 0.931 . S
H583 C598 0.930 . S
C584 H572 0.930 . S
C584 C585 1.399 . S
C584 C589 1.399 . S
C585 C584 1.399 . S
C585 C586 1.376 . S
C586 H573 0.930 . S
C586 C585 1.376 . S
C586 C587 1.388 . S
C587 H574 0.930 . S
C587 C586 1.388 . S
C587 C588 1.390 . S
C588 C587 1.390 . S
C588 C589 1.394 . S
C588 C594 1.465 . S
C589 C584 1.399 . S
C589 C588 1.394 . S
C589 C590 1.516 . S
C590 C589 1.516 . S
C590 C591 1.502 . S
C590 C592 1.561 . S
C590 C593 1.526 . S
C591 H575 0.959 . S
C591 H576 0.959 . S
C591 H577 0.961 . S
C591 C590 1.502 . S
C592 H578 0.960 . S
C592 H579 0.961 . S
C592 H580 0.959 . S
C592 C590 1.561 . S
C593 C590 1.526 . S
C593 C594 1.396 . S
C593 C598 1.390 . S
C594 C588 1.465 . S
C594 C593 1.396 . S
C594 C595 1.399 . S
C595 H581 0.929 . S
C595 C594 1.399 . S
C595 C596 1.385 . S
C596 H582 0.931 . S
C596 C595 1.385 . S
C596 C597 1.389 . S
C597 C596 1.389 . S
C597 C598 1.387 . S
C598 H583 0.930 . S
C598 C593 1.390 . S
C598 C597 1.387 . S
H599 C611 0.930 . S
H600 C613 0.930 . S
H601 C614 0.930 . S
H602 C618 0.959 . S
H603 C618 0.959 . S
H604 C618 0.961 . S
H605 C619 0.960 . S
H606 C619 0.961 . S
H607 C619 0.959 . S
H608 C622 0.929 . S
H609 C623 0.931 . S
H610 C625 0.930 . S
C611 H599 0.930 . S
C611 C612 1.399 . S
C611 C616 1.399 . S
C612 C611 1.399 . S
C612 C613 1.376 . S
C613 H600 0.930 . S
C613 C612 1.376 . S
C613 C614 1.388 . S
C614 H601 0.930 . S
C614 C613 1.388 . S
C614 C615 1.390 . S
C615 C614 1.390 . S
C615 C616 1.394 . S
C615 C621 1.465 . S
C616 C611 1.399 . S
C616 C615 1.394 . S
C616 C617 1.516 . S
C617 C616 1.516 . S
C617 C618 1.502 . S
C617 C619 1.561 . S
C617 C620 1.526 . S
C618 H602 0.959 . S
C618 H603 0.959 . S
C618 H604 0.961 . S
C618 C617 1.502 . S
C619 H605 0.960 . S
C619 H606 0.961 . S
C619 H607 0.959 . S
C619 C617 1.561 . S
C620 C617 1.526 . S
C620 C621 1.396 . S
C620 C625 1.390 . S
C621 C615 1.465 . S
C621 C620 1.396 . S
C621 C622 1.399 . S
C622 H608 0.929 . S
C622 C621 1.399 . S
C622 C623 1.385 . S
C623 H609 0.931 . S
C623 C622 1.385 . S
C623 C624 1.389 . S
C624 C623 1.389 . S
C624 C625 1.387 . S
C625 H610 0.930 . S
C625 C620 1.390 . S
C625 C624 1.387 . S
H626 C638 0.930 . S
H627 C640 0.930 . S
H628 C641 0.930 . S
H629 C645 0.959 . S
H630 C645 0.959 . S
H631 C645 0.961 . S
H632 C646 0.960 . S
H633 C646 0.961 . S
H634 C646 0.959 . S
H635 C649 0.929 . S
H636 C650 0.931 . S
H637 C652 0.930 . S
C638 H626 0.930 . S
C638 C639 1.399 . S
C638 C643 1.399 . S
C639 C638 1.399 . S
C639 C640 1.376 . S
C640 H627 0.930 . S
C640 C639 1.376 . S
C640 C641 1.388 . S
C641 H628 0.930 . S
C641 C640 1.388 . S
C641 C642 1.390 . S
C642 C641 1.390 . S
C642 C643 1.394 . S
C642 C648 1.465 . S
C643 C638 1.399 . S
C643 C642 1.394 . S
C643 C644 1.516 . S
C644 C643 1.516 . S
C644 C645 1.502 . S
C644 C646 1.561 . S
C644 C647 1.526 . S
C645 H629 0.959 . S
C645 H630 0.959 . S
C645 H631 0.961 . S
C645 C644 1.502 . S
C646 H632 0.960 . S
C646 H633 0.961 . S
C646 H634 0.959 . S
C646 C644 1.561 . S
C647 C644 1.526 . S
C647 C648 1.396 . S
C647 C652 1.390 . S
C648 C642 1.465 . S
C648 C647 1.396 . S
C648 C649 1.399 . S
C649 H635 0.929 . S
C649 C648 1.399 . S
C649 C650 1.385 . S
C650 H636 0.931 . S
C650 C649 1.385 . S
C650 C651 1.389 . S
C651 C650 1.389 . S
C651 C652 1.387 . S
C652 H637 0.930 . S
C652 C647 1.390 . S
C652 C651 1.387 . S
H653 C665 0.930 . S
H654 C667 0.930 . S
H655 C668 0.930 . S
H656 C672 0.959 . S
H657 C672 0.959 . S
H658 C672 0.961 . S
H659 C673 0.960 . S
H660 C673 0.961 . S
H661 C673 0.959 . S
H662 C676 0.929 . S
H663 C677 0.931 . S
H664 C679 0.930 . S
C665 H653 0.930 . S
C665 C666 1.399 . S
C665 C670 1.399 . S
C666 C665 1.399 . S
C666 C667 1.376 . S
C667 H654 0.930 . S
C667 C666 1.376 . S
C667 C668 1.388 . S
C668 H655 0.930 . S
C668 C667 1.388 . S
C668 C669 1.390 . S
C669 C668 1.390 . S
C669 C670 1.394 . S
C669 C675 1.465 . S
C670 C665 1.399 . S
C670 C669 1.394 . S
C670 C671 1.516 . S
C671 C670 1.516 . S
C671 C672 1.502 . S
C671 C673 1.561 . S
C671 C674 1.526 . S
C672 H656 0.959 . S
C672 H657 0.959 . S
C672 H658 0.961 . S
C672 C671 1.502 . S
C673 H659 0.960 . S
C673 H660 0.961 . S
C673 H661 0.959 . S
C673 C671 1.561 . S
C674 C671 1.526 . S
C674 C675 1.396 . S
C674 C679 1.390 . S
C675 C669 1.465 . S
C675 C674 1.396 . S
C675 C676 1.399 . S
C676 H662 0.929 . S
C676 C675 1.399 . S
C676 C677 1.385 . S
C677 H663 0.931 . S
C677 C676 1.385 . S
C677 C678 1.389 . S
C678 C677 1.389 . S
C678 C679 1.387 . S
C679 H664 0.930 . S
C679 C674 1.390 . S
C679 C678 1.387 . S
H680 C692 0.930 . S
H681 C694 0.930 . S
H682 C695 0.930 . S
H683 C699 0.959 . S
H684 C699 0.959 . S
H685 C699 0.961 . S
H686 C700 0.960 . S
H687 C700 0.961 . S
H688 C700 0.959 . S
H689 C703 0.929 . S
H690 C704 0.931 . S
H691 C706 0.949 . S
C692 H680 0.930 . S
C692 C693 1.399 . S
C692 C697 1.399 . S
C693 C692 1.399 . S
C693 C694 1.376 . S
C694 H681 0.930 . S
C694 C693 1.376 . S
C694 C695 1.388 . S
C695 H682 0.930 . S
C695 C694 1.388 . S
C695 C696 1.390 . S
C696 C695 1.390 . S
C696 C697 1.394 . S
C696 C702 1.465 . S
C697 C692 1.399 . S
C697 C696 1.394 . S
C697 C698 1.516 . S
C698 C697 1.516 . S
C698 C699 1.502 . S
C698 C700 1.561 . S
C698 C701 1.526 . S
C699 H683 0.959 . S
C699 H684 0.959 . S
C699 H685 0.961 . S
C699 C698 1.502 . S
C700 H686 0.960 . S
C700 H687 0.961 . S
C700 H688 0.959 . S
C700 C698 1.561 . S
C701 C698 1.526 . S
C701 C702 1.396 . S
C701 C706 1.390 . S
C702 C696 1.465 . S
C702 C701 1.396 . S
C702 C703 1.399 1_556 S
C703 H689 0.929 . S
C703 C702 1.399 1_554 S
C703 C704 1.385 . S
C704 H690 0.931 . S
C704 C703 1.385 . S
C704 C705 1.389 . S
C705 C704 1.389 . S
C705 C706 1.387 1_554 S
C706 H691 0.949 . S
C706 C701 1.390 . S
C706 C705 1.387 1_556 S
H707 C719 0.930 . S
H708 C721 0.930 . S
H709 C722 0.930 . S
H710 C726 0.959 1_455 S
H711 C726 0.959 . S
H712 C726 0.961 . S
H713 C727 0.960 . S
H714 C727 0.961 . S
H715 C727 0.959 . S
H716 C730 0.929 . S
H717 C731 0.931 . S
H718 C733 0.930 . S
C719 H707 0.930 . S
C719 C720 1.399 . S
C719 C724 1.399 . S
C720 C719 1.399 . S
C720 C721 1.376 . S
C721 H708 0.930 . S
C721 C720 1.376 . S
C721 C722 1.388 . S
C722 H709 0.930 . S
C722 C721 1.388 . S
C722 C723 1.390 . S
C723 C722 1.390 . S
C723 C724 1.394 . S
C723 C729 1.465 . S
C724 C719 1.399 . S
C724 C723 1.394 . S
C724 C725 1.516 . S
C725 C724 1.516 . S
C725 C726 1.502 . S
C725 C727 1.561 . S
C725 C728 1.526 . S
C726 H710 0.959 1_655 S
C726 H711 0.959 . S
C726 H712 0.961 . S
C726 C725 1.502 . S
C727 H713 0.960 . S
C727 H714 0.961 . S
C727 H715 0.959 . S
C727 C725 1.561 . S
C728 C725 1.526 . S
C728 C729 1.396 . S
C728 C733 1.390 . S
C729 C723 1.465 . S
C729 C728 1.396 . S
C729 C730 1.399 . S
C730 H716 0.929 . S
C730 C729 1.399 . S
C730 C731 1.385 . S
C731 H717 0.931 . S
C731 C730 1.385 . S
C731 C732 1.389 . S
C732 C731 1.389 . S
C732 C733 1.387 . S
C733 H718 0.930 . S
C733 C728 1.390 . S
C733 C732 1.387 . S
H734 C746 0.930 . S
H735 C748 0.930 . S
H736 C749 0.930 . S
H737 C753 0.959 . S
H738 C753 0.959 . S
H739 C753 0.961 . S
H740 C754 0.960 . S
H741 C754 0.961 . S
H742 C754 0.959 . S
H743 C757 0.929 . S
H744 C758 0.931 . S
H745 C760 0.930 . S
C746 H734 0.930 . S
C746 C747 1.399 . S
C746 C751 1.399 . S
C747 C746 1.399 . S
C747 C748 1.376 . S
C748 H735 0.930 . S
C748 C747 1.376 . S
C748 C749 1.388 . S
C749 H736 0.930 . S
C749 C748 1.388 . S
C749 C750 1.390 . S
C750 C749 1.390 . S
C750 C751 1.394 . S
C750 C756 1.465 . S
C751 C746 1.399 . S
C751 C750 1.394 . S
C751 C752 1.516 . S
C752 C751 1.516 . S
C752 C753 1.502 . S
C752 C754 1.561 . S
C752 C755 1.526 . S
C753 H737 0.959 . S
C753 H738 0.959 . S
C753 H739 0.961 . S
C753 C752 1.502 . S
C754 H740 0.960 . S
C754 H741 0.961 . S
C754 H742 0.959 . S
C754 C752 1.561 . S
C755 C752 1.526 . S
C755 C756 1.396 . S
C755 C760 1.390 . S
C756 C750 1.465 . S
C756 C755 1.396 . S
C756 C757 1.399 . S
C757 H743 0.929 . S
C757 C756 1.399 . S
C757 C758 1.385 . S
C758 H744 0.931 . S
C758 C757 1.385 . S
C758 C759 1.389 . S
C759 C758 1.389 . S
C759 C760 1.387 . S
C760 H745 0.930 . S
C760 C755 1.390 . S
C760 C759 1.387 . S
H761 C773 0.930 . S
H762 C775 0.930 . S
H763 C776 0.930 . S
H764 C780 0.959 . S
H765 C780 0.959 . S
H766 C780 0.961 . S
H767 C781 0.960 . S
H768 C781 0.961 . S
H769 C781 0.959 . S
H770 C784 0.929 . S
H771 C785 0.931 . S
H772 C787 0.930 . S
C773 H761 0.930 . S
C773 C774 1.399 . S
C773 C778 1.399 . S
C774 C773 1.399 . S
C774 C775 1.376 . S
C775 H762 0.930 . S
C775 C774 1.376 . S
C775 C776 1.388 . S
C776 H763 0.930 . S
C776 C775 1.388 . S
C776 C777 1.390 . S
C777 C776 1.390 . S
C777 C778 1.394 . S
C777 C783 1.465 . S
C778 C773 1.399 . S
C778 C777 1.394 . S
C778 C779 1.516 . S
C779 C778 1.516 . S
C779 C780 1.502 . S
C779 C781 1.561 . S
C779 C782 1.526 . S
C780 H764 0.959 . S
C780 H765 0.959 . S
C780 H766 0.961 . S
C780 C779 1.502 . S
C781 H767 0.960 . S
C781 H768 0.961 . S
C781 H769 0.959 . S
C781 C779 1.561 . S
C782 C779 1.526 . S
C782 C783 1.396 . S
C782 C787 1.390 . S
C783 C777 1.465 . S
C783 C782 1.396 . S
C783 C784 1.399 . S
C784 H770 0.929 . S
C784 C783 1.399 . S
C784 C785 1.385 . S
C785 H771 0.931 . S
C785 C784 1.385 . S
C785 C786 1.389 . S
C786 C785 1.389 . S
C786 C787 1.387 . S
C787 H772 0.930 . S
C787 C782 1.390 . S
C787 C786 1.387 . S
H788 C800 0.930 . S
H789 C802 0.930 . S
H790 C803 0.930 . S
H791 C807 0.959 . S
H792 C807 0.959 . S
H793 C807 0.961 . S
H794 C808 0.960 . S
H795 C808 0.961 . S
H796 C808 0.959 . S
H797 C811 0.929 . S
H798 C812 0.931 . S
H799 C814 0.930 . S
C800 H788 0.930 . S
C800 C801 1.399 . S
C800 C805 1.399 . S
C801 C800 1.399 . S
C801 C802 1.376 . S
C802 H789 0.930 . S
C802 C801 1.376 . S
C802 C803 1.388 . S
C803 H790 0.930 . S
C803 C802 1.388 . S
C803 C804 1.390 . S
C804 C803 1.390 . S
C804 C805 1.394 . S
C804 C810 1.465 . S
C805 C800 1.399 . S
C805 C804 1.394 . S
C805 C806 1.516 . S
C806 C805 1.516 . S
C806 C807 1.502 . S
C806 C808 1.561 . S
C806 C809 1.526 . S
C807 H791 0.959 . S
C807 H792 0.959 . S
C807 H793 0.961 . S
C807 C806 1.502 . S
C808 H794 0.960 . S
C808 H795 0.961 . S
C808 H796 0.959 . S
C808 C806 1.561 . S
C809 C806 1.526 . S
C809 C810 1.396 . S
C809 C814 1.390 . S
C810 C804 1.465 . S
C810 C809 1.396 . S
C810 C811 1.399 . S
C811 H797 0.929 . S
C811 C810 1.399 . S
C811 C812 1.385 . S
C812 H798 0.931 . S
C812 C811 1.385 . S
C812 C813 1.389 . S
C813 C812 1.389 . S
C813 C814 1.387 . S
C814 H799 0.930 . S
C814 C809 1.390 . S
C814 C813 1.387 . S
H815 C827 0.930 . S
H816 C829 0.930 . S
H817 C830 0.930 . S
H818 C834 0.959 . S
H819 C834 0.959 . S
H820 C834 0.961 . S
H821 C835 0.960 . S
H822 C835 0.961 . S
H823 C835 0.959 . S
H824 C838 0.929 . S
H825 C839 0.931 . S
H826 C841 0.930 . S
C827 H815 0.930 . S
C827 C828 1.399 . S
C827 C832 1.399 . S
C828 C827 1.399 . S
C828 C829 1.376 . S
C829 H816 0.930 . S
C829 C828 1.376 . S
C829 C830 1.388 . S
C830 H817 0.930 . S
C830 C829 1.388 . S
C830 C831 1.390 . S
C831 C830 1.390 . S
C831 C832 1.394 . S
C831 C837 1.465 . S
C832 C827 1.399 . S
C832 C831 1.394 . S
C832 C833 1.516 . S
C833 C832 1.516 . S
C833 C834 1.502 . S
C833 C835 1.561 . S
C833 C836 1.526 . S
C834 H818 0.959 . S
C834 H819 0.959 . S
C834 H820 0.961 . S
C834 C833 1.502 . S
C835 H821 0.960 . S
C835 H822 0.961 . S
C835 H823 0.959 . S
C835 C833 1.561 . S
C836 C833 1.526 . S
C836 C837 1.396 . S
C836 C841 1.390 . S
C837 C831 1.465 . S
C837 C836 1.396 . S
C837 C838 1.399 . S
C838 H824 0.929 . S
C838 C837 1.399 . S
C838 C839 1.385 . S
C839 H825 0.931 . S
C839 C838 1.385 . S
C839 C840 1.389 . S
C840 C839 1.389 . S
C840 C841 1.387 . S
C841 H826 0.930 . S
C841 C836 1.390 . S
C841 C840 1.387 . S
H842 C854 0.930 . S
H843 C856 0.930 . S
H844 C857 0.930 . S
H845 C861 0.959 . S
H846 C861 0.959 . S
H847 C861 0.961 . S
H848 C862 0.960 . S
H849 C862 0.961 . S
H850 C862 0.959 . S
H851 C865 0.929 . S
H852 C866 0.931 . S
H853 C868 0.930 . S
C854 H842 0.930 . S
C854 C855 1.399 . S
C854 C859 1.399 . S
C855 C854 1.399 . S
C855 C856 1.376 . S
C856 H843 0.930 . S
C856 C855 1.376 . S
C856 C857 1.388 . S
C857 H844 0.930 . S
C857 C856 1.388 . S
C857 C858 1.390 . S
C858 C857 1.390 . S
C858 C859 1.394 . S
C858 C864 1.465 . S
C859 C854 1.399 . S
C859 C858 1.394 . S
C859 C860 1.516 . S
C860 C859 1.516 . S
C860 C861 1.502 . S
C860 C862 1.561 . S
C860 C863 1.526 . S
C861 H845 0.959 . S
C861 H846 0.959 . S
C861 H847 0.961 . S
C861 C860 1.502 . S
C862 H848 0.960 . S
C862 H849 0.961 . S
C862 H850 0.959 . S
C862 C860 1.561 . S
C863 C860 1.526 . S
C863 C864 1.396 . S
C863 C868 1.390 . S
C864 C858 1.465 . S
C864 C863 1.396 . S
C864 C865 1.399 . S
C865 H851 0.929 . S
C865 C864 1.399 . S
C865 C866 1.385 . S
C866 H852 0.931 . S
C866 C865 1.385 . S
C866 C867 1.389 . S
C867 C866 1.389 . S
C867 C868 1.387 . S
C868 H853 0.930 . S
C868 C863 1.390 . S
C868 C867 1.387 . S
H869 C881 0.930 . S
H870 C883 0.930 . S
H871 C884 0.930 . S
H872 C888 0.959 . S
H873 C888 0.959 . S
H874 C888 0.961 . S
H875 C889 0.960 . S
H876 C889 0.961 . S
H877 C889 0.959 . S
H878 C892 0.929 . S
H879 C893 0.931 . S
H880 C895 0.930 . S
C881 H869 0.930 . S
C881 C882 1.399 . S
C881 C886 1.399 . S
C882 C881 1.399 . S
C882 C883 1.376 . S
C883 H870 0.930 . S
C883 C882 1.376 . S
C883 C884 1.388 . S
C884 H871 0.930 . S
C884 C883 1.388 . S
C884 C885 1.390 . S
C885 C884 1.390 . S
C885 C886 1.394 . S
C885 C891 1.465 . S
C886 C881 1.399 . S
C886 C885 1.394 . S
C886 C887 1.516 . S
C887 C886 1.516 . S
C887 C888 1.502 . S
C887 C889 1.561 . S
C887 C890 1.526 . S
C888 H872 0.959 . S
C888 H873 0.959 . S
C888 H874 0.961 . S
C888 C887 1.502 . S
C889 H875 0.960 . S
C889 H876 0.961 . S
C889 H877 0.959 . S
C889 C887 1.561 . S
C890 C887 1.526 . S
C890 C891 1.396 . S
C890 C895 1.390 . S
C891 C885 1.465 . S
C891 C890 1.396 . S
C891 C892 1.399 . S
C892 H878 0.929 . S
C892 C891 1.399 . S
C892 C893 1.385 . S
C893 H879 0.931 . S
C893 C892 1.385 . S
C893 C894 1.389 . S
C894 C893 1.389 . S
C894 C895 1.387 . S
C895 H880 0.930 . S
C895 C890 1.390 . S
C895 C894 1.387 . S
C261 C4 0.953 . S
C273 C92 0.918 . S
C288 C16 1.316 . S
C300 C153 1.328 . S
C327 C191 2.145 . S
C315 C32 2.160 . S
C342 C43 2.274 . S
C354 C231 2.254 1_655 S
C381 C151 1.769 . S
C369 C5 1.724 . S
C408 C119 1.657 . S
C396 C21 1.529 . S
C435 C228 1.691 . S
C423 C27 1.703 . S
C462 C188 1.729 . S
C450 C37 1.737 . S
C477 C10 0.989 . S
C489 C233 1.045 . S
C516 C148 2.591 . S
C504 C26 2.584 . S
C531 C38 1.900 . S
C543 C90 1.896 . S
C558 C15 1.510 . S
C570 C193 1.580 . S
C597 C113 1.071 . S
C585 C48 1.020 . S
C612 C59 1.053 . S
C624 C132 1.074 . S
C639 C76 2.467 . S
C651 C170 2.425 . S
C666 C87 2.051 . S
C678 C210 2.008 . S
C693 C54 1.040 . S
C705 C130 1.001 . S
C732 C108 2.326 . S
C720 C60 2.226 . S
C759 C239 1.591 . S
C747 C71 1.579 . S
C786 C199 1.812 . S
C774 C82 1.821 . S
C801 C49 1.311 . S
C813 C212 1.368 . S
C840 C159 2.040 . S
C828 C70 2.048 . S
C867 C111 2.332 . S
C855 C81 2.390 . S
C882 C65 1.243 . S
C894 C172 1.338 . S
