# Generated by pormake.
# Topology dag, (6,3)-cn, num edge types: 1
# Building blocks:
#     Node 0, Type 0, BuildingBlock: IZENUY_clean_sbu_0, # of connection points: 6
#     Node 1, Type 0, BuildingBlock: IZENUY_clean_sbu_0, # of connection points: 6
#     Node 2, Type 0, BuildingBlock: IZENUY_clean_sbu_0, # of connection points: 6
#     Node 3, Type 0, BuildingBlock: IZENUY_clean_sbu_0, # of connection points: 6
#     Node 4, Type 1, BuildingBlock: INOVEN_clean_linker_0, # of connection points: 3
#     Node 5, Type 1, BuildingBlock: INOVEN_clean_linker_0, # of connection points: 3
#     Node 6, Type 1, BuildingBlock: INOVEN_clean_linker_0, # of connection points: 3
#     Node 7, Type 1, BuildingBlock: INOVEN_clean_linker_0, # of connection points: 3
#     Node 8, Type 1, BuildingBlock: INOVEN_clean_linker_0, # of connection points: 3
#     Node 9, Type 1, BuildingBlock: INOVEN_clean_linker_0, # of connection points: 3
#     Node 10, Type 1, BuildingBlock: INOVEN_clean_linker_0, # of connection points: 3
#     Node 11, Type 1, BuildingBlock: INOVEN_clean_linker_0, # of connection points: 3
#     Edge 12, Type (0, 1), BuildingBlock: EYOCIG_clean_linker_4, # of connection points: 2
#     Edge 13, Type (0, 1), BuildingBlock: EYOCIG_clean_linker_4, # of connection points: 2
#     Edge 14, Type (0, 1), BuildingBlock: EYOCIG_clean_linker_4, # of connection points: 2
#     Edge 15, Type (0, 1), BuildingBlock: EYOCIG_clean_linker_4, # of connection points: 2
#     Edge 16, Type (0, 1), BuildingBlock: EYOCIG_clean_linker_4, # of connection points: 2
#     Edge 17, Type (0, 1), BuildingBlock: EYOCIG_clean_linker_4, # of connection points: 2
#     Edge 18, Type (0, 1), BuildingBlock: EYOCIG_clean_linker_4, # of connection points: 2
#     Edge 19, Type (0, 1), BuildingBlock: EYOCIG_clean_linker_4, # of connection points: 2
#     Edge 20, Type (0, 1), BuildingBlock: EYOCIG_clean_linker_4, # of connection points: 2
#     Edge 21, Type (0, 1), BuildingBlock: EYOCIG_clean_linker_4, # of connection points: 2
#     Edge 22, Type (0, 1), BuildingBlock: EYOCIG_clean_linker_4, # of connection points: 2
#     Edge 23, Type (0, 1), BuildingBlock: EYOCIG_clean_linker_4, # of connection points: 2
#     Edge 24, Type (0, 1), BuildingBlock: EYOCIG_clean_linker_4, # of connection points: 2
#     Edge 25, Type (0, 1), BuildingBlock: EYOCIG_clean_linker_4, # of connection points: 2
#     Edge 26, Type (0, 1), BuildingBlock: EYOCIG_clean_linker_4, # of connection points: 2
#     Edge 27, Type (0, 1), BuildingBlock: EYOCIG_clean_linker_4, # of connection points: 2
#     Edge 28, Type (0, 1), BuildingBlock: EYOCIG_clean_linker_4, # of connection points: 2
#     Edge 29, Type (0, 1), BuildingBlock: EYOCIG_clean_linker_4, # of connection points: 2
#     Edge 30, Type (0, 1), BuildingBlock: EYOCIG_clean_linker_4, # of connection points: 2
#     Edge 31, Type (0, 1), BuildingBlock: EYOCIG_clean_linker_4, # of connection points: 2
#     Edge 32, Type (0, 1), BuildingBlock: EYOCIG_clean_linker_4, # of connection points: 2
#     Edge 33, Type (0, 1), BuildingBlock: EYOCIG_clean_linker_4, # of connection points: 2
#     Edge 34, Type (0, 1), BuildingBlock: EYOCIG_clean_linker_4, # of connection points: 2
#     Edge 35, Type (0, 1), BuildingBlock: EYOCIG_clean_linker_4, # of connection points: 2
# Relax obj value: 0.097
# Max RMSD: 0.111
# Mean RMSD: 0.095
data_MOF--net-dag--node1-IZENUY_clean_sbu_0--node2-INOVEN_clean_linker_0--edge1-EYOCIG_clean_linker_4
_symmetry_space_group_name_H-M    P1
_symmetry_Int_Tables_number       1
_symmetry_cell_setting            triclinic
loop_
_symmetry_equiv_pos_as_xyz
'x, y, z'
_cell_length_a     30.240087
_cell_length_b     32.495469
_cell_length_c     28.067994
_cell_angle_alpha  93.464688
_cell_angle_beta   90.136267
_cell_angle_gamma 89.819821
loop_
_atom_site_label
_atom_site_type_symbol
_atom_site_fract_x
_atom_site_fract_y
_atom_site_fract_z
_atom_type_partial_charge
Fe0 Fe 0.18488 0.8788 0.06763 0.0
Fe1 Fe 0.0891 0.90778 0.03836 0.0
O2 O 0.12875 0.86644 0.0475 0.0
Fe3 Fe 0.11231 0.81261 0.03677 0.0
O4 O 0.13374 0.79654 0.09317 0.0
O5 O 0.18662 0.84094 0.11255 0.0
O6 O 0.16808 0.91575 0.11519 0.0
C7 C 0.13471 0.93838 0.12207 0.0
C8 C 0.20034 0.8111 0.00153 0.0
O9 O 0.10225 0.93742 0.09385 0.0
C10 C 0.06967 0.84997 0.96049 0.0
O11 O 0.19332 0.91909 0.0269 0.0
O12 O 0.12683 0.93829 0.00453 0.0
O13 O 0.16225 0.79634 0.00501 0.0
O14 O 0.21177 0.84415 0.02352 0.0
C15 C 0.03502 0.84828 0.07889 0.0
O16 O 0.06854 0.88548 0.98123 0.0
O17 O 0.08767 0.81979 0.97883 0.0
C18 C 0.16829 0.94132 0.00366 0.0
O19 O 0.04455 0.88479 0.07079 0.0
O20 O 0.05935 0.8183 0.06633 0.0
C21 C 0.16424 0.80959 0.12045 0.0
Fe22 Fe 0.68239 0.62374 0.47913 0.0
Fe23 Fe 0.61006 0.69072 0.5093 0.0
O24 O 0.62624 0.63672 0.49873 0.0
Fe25 Fe 0.58638 0.59579 0.50775 0.0
O26 O 0.62444 0.56333 0.53919 0.0
O27 O 0.69102 0.58483 0.52145 0.0
O28 O 0.70945 0.65933 0.5221 0.0
C29 C 0.69739 0.69133 0.54592 0.0
C30 C 0.63116 0.56496 0.42411 0.0
O31 O 0.65888 0.70557 0.5437 0.0
C32 C 0.53239 0.65656 0.46756 0.0
O33 O 0.68384 0.66044 0.43306 0.0
O34 O 0.63395 0.70746 0.45448 0.0
O35 O 0.5977 0.56774 0.45079 0.0
O36 O 0.66567 0.58556 0.4327 0.0
C37 C 0.56762 0.6531 0.58567 0.0
O38 O 0.55835 0.6859 0.47701 0.0
O39 O 0.54068 0.62031 0.47812 0.0
C40 C 0.66341 0.69332 0.42656 0.0
O41 O 0.58305 0.68361 0.5659 0.0
O42 O 0.56842 0.61713 0.56617 0.0
C43 C 0.66586 0.56144 0.54253 0.0
Fe44 Fe 0.8914 0.19444 0.00879 0.0
Fe45 Fe 0.91536 0.09966 0.00887 0.0
O46 O 0.8753 0.14049 0.9995 0.0
Fe47 Fe 0.81909 0.12737 0.98066 0.0
O48 O 0.81805 0.16254 0.93296 0.0
O49 O 0.86694 0.21041 0.95409 0.0
O50 O 0.94248 0.18918 0.97594 0.0
C51 C 0.96894 0.15996 0.96792 0.0
C52 C 0.8046 0.19599 0.04539 0.0
O53 O 0.96138 0.12417 0.98026 0.0
C54 C 0.83612 0.06589 0.04477 0.0
O55 O 0.919 0.18771 0.06484 0.0
O56 O 0.93199 0.12087 0.06707 0.0
O57 O 0.7922 0.16418 0.02182 0.0
O58 O 0.84316 0.20975 0.0434 0.0
C59 C 0.87084 0.06896 0.92639 0.0
O60 O 0.87738 0.0667 0.03945 0.0
O61 O 0.81065 0.0901 0.02498 0.0
C62 C 0.93332 0.15711 0.0853 0.0
O63 O 0.9049 0.0726 0.95189 0.0
O64 O 0.83552 0.08795 0.936 0.0
C65 C 0.83829 0.1953 0.92589 0.0
Fe66 Fe 0.41366 0.40384 0.53928 0.0
Fe67 Fe 0.31832 0.37566 0.5693 0.0
O68 O 0.3744 0.36283 0.54971 0.0
Fe69 Fe 0.39122 0.30892 0.5408 0.0
O70 O 0.44262 0.31486 0.57316 0.0
O71 O 0.46038 0.37994 0.56779 0.0
O72 O 0.40353 0.43139 0.59605 0.0
C73 C 0.37035 0.43413 0.62286 0.0
C74 C 0.43156 0.34582 0.46335 0.0
O75 O 0.33532 0.41437 0.61454 0.0
C76 C 0.30403 0.30715 0.50436 0.0
O77 O 0.37486 0.43631 0.50871 0.0
O78 O 0.30872 0.4138 0.52609 0.0
O79 O 0.41801 0.31537 0.48441 0.0
O80 O 0.42983 0.38221 0.48109 0.0
C81 C 0.33889 0.30759 0.62382 0.0
O82 O 0.29156 0.33929 0.52744 0.0
O83 O 0.3426 0.29314 0.50687 0.0
C84 C 0.33345 0.43773 0.50523 0.0
O85 O 0.31777 0.33988 0.61638 0.0
O86 O 0.36794 0.29297 0.5959 0.0
C87 C 0.46862 0.34439 0.58067 0.0
H88 H 0.06924 0.20566 0.31015 0.0
H89 H 0.05409 0.08801 0.23434 0.0
H90 H 0.16522 0.10942 0.32835 0.0
N91 N 0.1415 0.1888 0.35601 0.0
N92 N 0.17119 0.17825 0.38347 0.0
C93 C 0.07983 0.17389 0.30367 0.0
C94 C 0.05711 0.14785 0.27099 0.0
C95 C 0.11797 0.15995 0.32588 0.0
C96 C 0.13402 0.11957 0.31399 0.0
C97 C 0.11083 0.09368 0.28055 0.0
C98 C 0.07151 0.10753 0.26096 0.0
H99 H 0.34093 0.59605 0.826 0.0
H100 H 0.45549 0.58917 0.73627 0.0
H101 H 0.42437 0.70269 0.81617 0.0
N102 N 0.35001 0.67277 0.8585 0.0
N103 N 0.35689 0.70819 0.87641 0.0
C104 C 0.37093 0.61002 0.81347 0.0
C105 C 0.39795 0.58802 0.7806 0.0
C106 C 0.38079 0.65105 0.82794 0.0
C107 C 0.41796 0.67026 0.80798 0.0
C108 C 0.44474 0.64768 0.77452 0.0
C109 C 0.43551 0.60629 0.76287 0.0
H110 H 0.7187 0.89633 0.18915 0.0
H111 H 0.83859 0.89438 0.10682 0.0
H112 H 0.81302 0.79692 0.19883 0.0
N113 N 0.73338 0.82529 0.23051 0.0
N114 N 0.74084 0.78987 0.24351 0.0
C115 C 0.74875 0.88071 0.17717 0.0
C116 C 0.77714 0.89922 0.14508 0.0
C117 C 0.76063 0.84274 0.19564 0.0
C118 C 0.80175 0.8245 0.18259 0.0
C119 C 0.82973 0.84353 0.15102 0.0
C120 C 0.81635 0.87957 0.13084 0.0
H121 H 0.7907 0.38749 0.67485 0.0
H122 H 0.66196 0.39381 0.61014 0.0
H123 H 0.69579 0.28953 0.68879 0.0
N124 N 0.77639 0.31755 0.71798 0.0
N125 N 0.76476 0.28623 0.73819 0.0
C126 C 0.75907 0.37338 0.66599 0.0
C127 C 0.72782 0.39434 0.63917 0.0
C128 C 0.74786 0.33532 0.68435 0.0
C129 C 0.70569 0.31816 0.67409 0.0
C130 C 0.67502 0.33951 0.64758 0.0
C131 C 0.68646 0.37695 0.62969 0.0
H132 H 0.56968 0.29402 0.24038 0.0
H133 H 0.55191 0.41179 0.31547 0.0
H134 H 0.66295 0.39184 0.22147 0.0
N135 N 0.64126 0.31209 0.19425 0.0
N136 N 0.67023 0.32336 0.16659 0.0
C137 C 0.57959 0.32593 0.24685 0.0
C138 C 0.55625 0.35181 0.27922 0.0
C139 C 0.61726 0.34044 0.22458 0.0
C140 C 0.63223 0.38115 0.2361 0.0
C141 C 0.60852 0.40682 0.26928 0.0
C142 C 0.56979 0.39236 0.28913 0.0
H143 H 0.29057 0.11779 0.8764 0.0
H144 H 0.16179 0.11278 0.94037 0.0
H145 H 0.19636 0.21681 0.86195 0.0
N146 N 0.27685 0.18773 0.83316 0.0
N147 N 0.26557 0.21904 0.81255 0.0
C148 C 0.25906 0.13229 0.88518 0.0
C149 C 0.22766 0.11158 0.91171 0.0
C150 C 0.24815 0.17048 0.86678 0.0
C151 C 0.20607 0.18811 0.8768 0.0
C152 C 0.17521 0.16706 0.90316 0.0
C153 C 0.18642 0.12945 0.92107 0.0
H154 H 0.2141 0.60881 0.3631 0.0
H155 H 0.33471 0.61059 0.44489 0.0
H156 H 0.30773 0.70818 0.35322 0.0
N157 N 0.2284 0.67977 0.32127 0.0
N158 N 0.23543 0.71535 0.30865 0.0
C159 C 0.24414 0.6244 0.375 0.0
C160 C 0.27285 0.60587 0.40709 0.0
C161 C 0.25568 0.66238 0.35644 0.0
C162 C 0.29672 0.68061 0.36949 0.0
C163 C 0.32508 0.66155 0.4009 0.0
C164 C 0.31215 0.62545 0.42104 0.0
H165 H 0.83552 0.90537 0.72596 0.0
H166 H 0.95157 0.91184 0.81398 0.0
H167 H 0.91961 0.79844 0.73446 0.0
N168 N 0.84452 0.82867 0.6931 0.0
N169 N 0.85165 0.79345 0.67469 0.0
C170 C 0.86567 0.89123 0.73821 0.0
C171 C 0.89326 0.91316 0.77054 0.0
C172 C 0.87544 0.85017 0.72363 0.0
C173 C 0.91307 0.83084 0.74295 0.0
C174 C 0.94038 0.85334 0.77595 0.0
C175 C 0.9311 0.89472 0.78784 0.0
C176 C 0.13528 0.99289 0.19653 0.0
C177 C 0.13497 0.96805 0.16256 0.0
C178 C 0.13423 0.02488 0.23333 0.0
C179 C 0.12886 0.05571 0.2591 0.0
C180 C 0.52833 0.66602 0.66986 0.0
C181 C 0.54627 0.66025 0.63147 0.0
C182 C 0.50326 0.6698 0.71268 0.0
C183 C 0.47704 0.66631 0.7447 0.0
C184 C 0.79853 0.00707 0.09178 0.0
C185 C 0.81654 0.03359 0.07055 0.0
C186 C 0.77974 0.97309 0.11362 0.0
C187 C 0.77168 0.94086 0.13101 0.0
C188 C 0.54704 0.32941 0.61728 0.0
C189 C 0.51118 0.33607 0.60058 0.0
C190 C 0.59109 0.32439 0.63243 0.0
C191 C 0.62983 0.32658 0.64217 0.0
C192 C 0.63139 0.50991 0.35016 0.0
C193 C 0.63134 0.53502 0.38387 0.0
C194 C 0.63027 0.47712 0.31433 0.0
C195 C 0.62538 0.44559 0.28968 0.0
C196 C 0.04713 0.17636 0.93217 0.0
C197 C 0.01139 0.16902 0.94848 0.0
C198 C 0.09115 0.18209 0.91752 0.0
C199 C 0.12995 0.1802 0.90806 0.0
C200 C 0.29458 0.49757 0.46029 0.0
C201 C 0.31301 0.47052 0.48058 0.0
C202 C 0.27568 0.532 0.43901 0.0
C203 C 0.26759 0.56429 0.42152 0.0
C204 C 0.02793 0.83641 0.87757 0.0
C205 C 0.04694 0.84268 0.91538 0.0
C206 C 1.00138 0.83175 0.83573 0.0
C207 C 0.97398 0.83483 0.8046 0.0
C208 C 0.87291 0.01597 0.85202 0.0
C209 C 0.87149 0.0403 0.8859 0.0
C210 C 0.87558 0.98367 0.81664 0.0
C211 C 0.88002 0.95205 0.79275 0.0
C212 C 0.46993 0.33314 0.38021 0.0
C213 C 0.45226 0.33826 0.41825 0.0
C214 C 0.49557 0.3313 0.33876 0.0
C215 C 0.52284 0.33595 0.30875 0.0
C216 C 0.20649 0.00176 0.96015 0.0
C217 C 0.18814 0.97446 0.97966 0.0
C218 C 0.22526 0.03687 0.94075 0.0
C219 C 0.23331 0.06987 0.9253 0.0
C220 C 0.45318 0.67255 0.43315 0.0
C221 C 0.48947 0.66576 0.44884 0.0
C222 C 0.40882 0.67707 0.41851 0.0
C223 C 0.37033 0.67419 0.40761 0.0
C224 C 0.37438 0.48652 0.69772 0.0
C225 C 0.37183 0.4624 0.66371 0.0
C226 C 0.37852 0.51839 0.73349 0.0
C227 C 0.38392 0.54964 0.7578 0.0
C228 C 0.95705 0.83321 0.11623 0.0
C229 C 0.99269 0.83988 0.09917 0.0
C230 C 0.91329 0.82847 0.13236 0.0
C231 C 0.87498 0.83094 0.14391 0.0
C232 C 0.70496 0.50236 0.58799 0.0
C233 C 0.68592 0.52891 0.56762 0.0
C234 C 0.72497 0.4683 0.60863 0.0
C235 C 0.73376 0.43577 0.62495 0.0
C236 C 0.97195 0.16839 0.16854 0.0
C237 C 0.9541 0.1642 0.13047 0.0
C238 C 0.99727 0.16899 0.21027 0.0
C239 C 0.02412 0.16373 0.24068 0.0
C240 C 0.18336 0.7694 0.1973 0.0
C241 C 0.17436 0.7875 0.16213 0.0
C242 C 0.19653 0.74848 0.23793 0.0
C243 C 0.21213 0.73192 0.27158 0.0
C244 C 0.75744 0.7332 0.59759 0.0
C245 C 0.72985 0.71426 0.57409 0.0
C246 C 0.79066 0.75547 0.62377 0.0
C247 C 0.81921 0.77359 0.64675 0.0
C248 C 0.74581 0.24106 0.09389 0.0
C249 C 0.7722 0.22004 0.07154 0.0
C250 C 0.71652 0.2687 0.11806 0.0
C251 C 0.69401 0.29402 0.13963 0.0
C252 C 0.32086 0.26892 0.70148 0.0
C253 C 0.32936 0.28633 0.66591 0.0
C254 C 0.30749 0.24943 0.7427 0.0
C255 C 0.29072 0.23437 0.77645 0.0
C256 C 0.68564 0.73511 0.35218 0.0
C257 C 0.67519 0.71633 0.38625 0.0
C258 C 0.70044 0.75655 0.31277 0.0
C259 C 0.71701 0.77324 0.27991 0.0
C260 C 0.81949 0.23433 0.84861 0.0
C261 C 0.82819 0.21661 0.88396 0.0
C262 C 0.8062 0.25443 0.80773 0.0
C263 C 0.78966 0.27016 0.77419 0.0
C264 C 0.24549 0.26194 0.45559 0.0
C265 C 0.27169 0.28308 0.47807 0.0
C266 C 0.21651 0.23398 0.43145 0.0
C267 C 0.19441 0.20821 0.4101 0.0
C268 C 0.26138 0.76861 0.95169 0.0
C269 C 0.2332 0.78767 0.9743 0.0
C270 C 0.29536 0.74638 0.92649 0.0
C271 C 0.32431 0.72823 0.90406 0.0
loop_
_geom_bond_atom_site_label_1
_geom_bond_atom_site_label_2
_geom_bond_distance
_geom_bond_site_symmetry_2
_ccdc_geom_bond_type
Fe0 O2 1.918 . S
Fe0 O5 1.997 . S
Fe0 O6 2.002 . S
Fe0 O11 1.976 . S
Fe0 O14 1.996 . S
Fe1 O2 1.918 . S
Fe1 O9 1.997 . S
Fe1 O12 1.996 . S
Fe1 O16 1.976 1_554 S
Fe1 O19 2.002 . S
O2 Fe0 1.918 . S
O2 Fe1 1.918 . S
O2 Fe3 1.918 . S
Fe3 O2 1.918 . S
Fe3 O4 2.002 . S
Fe3 O13 1.976 1_554 S
Fe3 O17 1.996 1_554 S
Fe3 O20 1.997 . S
O4 Fe3 2.002 . S
O4 C21 1.295 . S
O5 Fe0 1.997 . S
O5 C21 1.235 . S
O6 Fe0 2.002 . S
O6 C7 1.295 . S
C7 O6 1.295 . S
C7 O9 1.235 . S
C8 O13 1.287 . S
C8 O14 1.255 1_556 S
O9 Fe1 1.997 . S
O9 C7 1.235 . S
C10 O16 1.287 . S
C10 O17 1.255 . S
O11 Fe0 1.976 . S
O11 C18 1.287 1_554 S
O12 Fe1 1.996 . S
O12 C18 1.255 1_554 S
O13 Fe3 1.976 1_556 S
O13 C8 1.287 . S
O14 Fe0 1.996 . S
O14 C8 1.255 1_554 S
C15 O19 1.295 . S
C15 O20 1.235 . S
O16 Fe1 1.976 1_556 S
O16 C10 1.287 . S
O17 Fe3 1.996 1_556 S
O17 C10 1.255 . S
C18 O11 1.287 1_556 S
C18 O12 1.255 1_556 S
O19 Fe1 2.002 . S
O19 C15 1.295 . S
O20 Fe3 1.997 . S
O20 C15 1.235 . S
C21 O4 1.295 . S
C21 O5 1.235 . S
Fe22 O24 1.918 . S
Fe22 O27 1.997 . S
Fe22 O28 2.002 . S
Fe22 O33 1.976 . S
Fe22 O36 1.996 . S
Fe23 O24 1.918 . S
Fe23 O31 1.997 . S
Fe23 O34 1.996 . S
Fe23 O38 1.976 . S
Fe23 O41 2.002 . S
O24 Fe22 1.918 . S
O24 Fe23 1.918 . S
O24 Fe25 1.918 . S
Fe25 O24 1.918 . S
Fe25 O26 2.002 . S
Fe25 O35 1.976 . S
Fe25 O39 1.996 . S
Fe25 O42 1.997 . S
O26 Fe25 2.002 . S
O26 C43 1.295 . S
O27 Fe22 1.997 . S
O27 C43 1.235 . S
O28 Fe22 2.002 . S
O28 C29 1.295 . S
C29 O28 1.295 . S
C29 O31 1.235 . S
C30 O35 1.287 . S
C30 O36 1.255 . S
O31 Fe23 1.997 . S
O31 C29 1.235 . S
C32 O38 1.287 . S
C32 O39 1.255 . S
O33 Fe22 1.976 . S
O33 C40 1.287 . S
O34 Fe23 1.996 . S
O34 C40 1.255 . S
O35 Fe25 1.976 . S
O35 C30 1.287 . S
O36 Fe22 1.996 . S
O36 C30 1.255 . S
C37 O41 1.295 . S
C37 O42 1.235 . S
O38 Fe23 1.976 . S
O38 C32 1.287 . S
O39 Fe25 1.996 . S
O39 C32 1.255 . S
C40 O33 1.287 . S
C40 O34 1.255 . S
O41 Fe23 2.002 . S
O41 C37 1.295 . S
O42 Fe25 1.997 . S
O42 C37 1.235 . S
C43 O26 1.295 . S
C43 O27 1.235 . S
Fe44 O46 1.918 . S
Fe44 O49 1.997 1_554 S
Fe44 O50 2.002 1_554 S
Fe44 O55 1.976 . S
Fe44 O58 1.996 . S
Fe45 O46 1.918 . S
Fe45 O53 1.997 1_554 S
Fe45 O56 1.996 . S
Fe45 O60 1.976 . S
Fe45 O63 2.002 1_554 S
O46 Fe44 1.918 . S
O46 Fe45 1.918 . S
O46 Fe47 1.918 1_554 S
Fe47 O46 1.918 1_556 S
Fe47 O48 2.002 . S
Fe47 O57 1.976 1_556 S
Fe47 O61 1.996 1_556 S
Fe47 O64 1.997 . S
O48 Fe47 2.002 . S
O48 C65 1.295 . S
O49 Fe44 1.997 1_556 S
O49 C65 1.235 . S
O50 Fe44 2.002 1_556 S
O50 C51 1.295 . S
C51 O50 1.295 . S
C51 O53 1.235 . S
C52 O57 1.287 . S
C52 O58 1.255 . S
O53 Fe45 1.997 1_556 S
O53 C51 1.235 . S
C54 O60 1.287 . S
C54 O61 1.255 . S
O55 Fe44 1.976 . S
O55 C62 1.287 . S
O56 Fe45 1.996 . S
O56 C62 1.255 . S
O57 Fe47 1.976 1_554 S
O57 C52 1.287 . S
O58 Fe44 1.996 . S
O58 C52 1.255 . S
C59 O63 1.295 . S
C59 O64 1.235 . S
O60 Fe45 1.976 . S
O60 C54 1.287 . S
O61 Fe47 1.996 1_554 S
O61 C54 1.255 . S
C62 O55 1.287 . S
C62 O56 1.255 . S
O63 Fe45 2.002 1_556 S
O63 C59 1.295 . S
O64 Fe47 1.997 . S
O64 C59 1.235 . S
C65 O48 1.295 . S
C65 O49 1.235 . S
Fe66 O68 1.918 . S
Fe66 O71 1.997 . S
Fe66 O72 2.002 . S
Fe66 O77 1.976 . S
Fe66 O80 1.996 . S
Fe67 O68 1.918 . S
Fe67 O75 1.997 . S
Fe67 O78 1.996 . S
Fe67 O82 1.976 . S
Fe67 O85 2.002 . S
O68 Fe66 1.918 . S
O68 Fe67 1.918 . S
O68 Fe69 1.918 . S
Fe69 O68 1.918 . S
Fe69 O70 2.002 . S
Fe69 O79 1.976 . S
Fe69 O83 1.996 . S
Fe69 O86 1.997 . S
O70 Fe69 2.002 . S
O70 C87 1.295 . S
O71 Fe66 1.997 . S
O71 C87 1.235 . S
O72 Fe66 2.002 . S
O72 C73 1.295 . S
C73 O72 1.295 . S
C73 O75 1.235 . S
C74 O79 1.287 . S
C74 O80 1.255 . S
O75 Fe67 1.997 . S
O75 C73 1.235 . S
C76 O82 1.287 . S
C76 O83 1.255 . S
O77 Fe66 1.976 . S
O77 C84 1.287 . S
O78 Fe67 1.996 . S
O78 C84 1.255 . S
O79 Fe69 1.976 . S
O79 C74 1.287 . S
O80 Fe66 1.996 . S
O80 C74 1.255 . S
C81 O85 1.295 . S
C81 O86 1.235 . S
O82 Fe67 1.976 . S
O82 C76 1.287 . S
O83 Fe69 1.996 . S
O83 C76 1.255 . S
C84 O77 1.287 . S
C84 O78 1.255 . S
O85 Fe67 2.002 . S
O85 C81 1.295 . S
O86 Fe69 1.997 . S
O86 C81 1.235 . S
C87 O70 1.295 . S
C87 O71 1.235 . S
H88 C93 0.929 . S
H89 C98 0.931 . S
H90 C96 0.930 . S
N91 N92 1.234 . S
N91 C95 1.453 . S
N92 N91 1.234 . S
C93 H88 0.929 . S
C93 C94 1.373 . S
C93 C95 1.368 . S
C94 C93 1.373 . S
C94 C98 1.397 . S
C95 N91 1.453 . S
C95 C93 1.368 . S
C95 C96 1.373 . S
C96 H90 0.930 . S
C96 C95 1.373 . S
C96 C97 1.371 . S
C97 C96 1.371 . S
C97 C98 1.383 . S
C98 H89 0.931 . S
C98 C94 1.397 . S
C98 C97 1.383 . S
H99 C104 0.929 . S
H100 C109 0.931 . S
H101 C107 0.930 . S
N102 N103 1.234 . S
N102 C106 1.453 . S
N103 N102 1.234 . S
C104 H99 0.929 . S
C104 C105 1.373 . S
C104 C106 1.368 . S
C105 C104 1.373 . S
C105 C109 1.397 . S
C106 N102 1.453 . S
C106 C104 1.368 . S
C106 C107 1.373 . S
C107 H101 0.930 . S
C107 C106 1.373 . S
C107 C108 1.371 . S
C108 C107 1.371 . S
C108 C109 1.383 . S
C109 H100 0.931 . S
C109 C105 1.397 . S
C109 C108 1.383 . S
H110 C115 0.929 . S
H111 C120 0.931 . S
H112 C118 0.930 . S
N113 N114 1.234 . S
N113 C117 1.453 . S
N114 N113 1.234 . S
C115 H110 0.929 . S
C115 C116 1.373 . S
C115 C117 1.368 . S
C116 C115 1.373 . S
C116 C120 1.397 . S
C117 N113 1.453 . S
C117 C115 1.368 . S
C117 C118 1.373 . S
C118 H112 0.930 . S
C118 C117 1.373 . S
C118 C119 1.371 . S
C119 C118 1.371 . S
C119 C120 1.383 . S
C120 H111 0.931 . S
C120 C116 1.397 . S
C120 C119 1.383 . S
H121 C126 0.929 . S
H122 C131 0.931 . S
H123 C129 0.930 . S
N124 N125 1.234 . S
N124 C128 1.453 . S
N125 N124 1.234 . S
C126 H121 0.929 . S
C126 C127 1.373 . S
C126 C128 1.368 . S
C127 C126 1.373 . S
C127 C131 1.397 . S
C128 N124 1.453 . S
C128 C126 1.368 . S
C128 C129 1.373 . S
C129 H123 0.930 . S
C129 C128 1.373 . S
C129 C130 1.371 . S
C130 C129 1.371 . S
C130 C131 1.383 . S
C131 H122 0.931 . S
C131 C127 1.397 . S
C131 C130 1.383 . S
H132 C137 0.929 . S
H133 C142 0.931 . S
H134 C140 0.930 . S
N135 N136 1.234 . S
N135 C139 1.453 . S
N136 N135 1.234 . S
C137 H132 0.929 . S
C137 C138 1.373 . S
C137 C139 1.368 . S
C138 C137 1.373 . S
C138 C142 1.397 . S
C139 N135 1.453 . S
C139 C137 1.368 . S
C139 C140 1.373 . S
C140 H134 0.930 . S
C140 C139 1.373 . S
C140 C141 1.371 . S
C141 C140 1.371 . S
C141 C142 1.383 . S
C142 H133 0.931 . S
C142 C138 1.397 . S
C142 C141 1.383 . S
H143 C148 0.929 . S
H144 C153 0.931 . S
H145 C151 0.930 . S
N146 N147 1.234 . S
N146 C150 1.453 . S
N147 N146 1.234 . S
C148 H143 0.929 . S
C148 C149 1.373 . S
C148 C150 1.368 . S
C149 C148 1.373 . S
C149 C153 1.397 . S
C150 N146 1.453 . S
C150 C148 1.368 . S
C150 C151 1.373 . S
C151 H145 0.930 . S
C151 C150 1.373 . S
C151 C152 1.371 . S
C152 C151 1.371 . S
C152 C153 1.383 . S
C153 H144 0.931 . S
C153 C149 1.397 . S
C153 C152 1.383 . S
H154 C159 0.929 . S
H155 C164 0.931 . S
H156 C162 0.930 . S
N157 N158 1.234 . S
N157 C161 1.453 . S
N158 N157 1.234 . S
C159 H154 0.929 . S
C159 C160 1.373 . S
C159 C161 1.368 . S
C160 C159 1.373 . S
C160 C164 1.397 . S
C161 N157 1.453 . S
C161 C159 1.368 . S
C161 C162 1.373 . S
C162 H156 0.930 . S
C162 C161 1.373 . S
C162 C163 1.371 . S
C163 C162 1.371 . S
C163 C164 1.383 . S
C164 H155 0.931 . S
C164 C160 1.397 . S
C164 C163 1.383 . S
H165 C170 0.929 . S
H166 C175 0.931 . S
H167 C173 0.930 . S
N168 N169 1.234 . S
N168 C172 1.453 . S
N169 N168 1.234 . S
C170 H165 0.929 . S
C170 C171 1.373 . S
C170 C172 1.368 . S
C171 C170 1.373 . S
C171 C175 1.397 . S
C172 N168 1.453 . S
C172 C170 1.368 . S
C172 C173 1.373 . S
C173 H167 0.930 . S
C173 C172 1.373 . S
C173 C174 1.371 . S
C174 C173 1.371 . S
C174 C175 1.383 . S
C175 H166 0.931 . S
C175 C171 1.397 . S
C175 C174 1.383 . S
C176 C177 1.172 . S
C176 C178 1.379 1_565 S
C177 C176 1.172 . S
C178 C176 1.379 1_545 S
C178 C179 1.170 . S
C179 C178 1.170 . S
C180 C181 1.170 . S
C180 C182 1.380 . S
C181 C180 1.170 . S
C182 C180 1.380 . S
C182 C183 1.170 . S
C183 C182 1.170 . S
C184 C185 1.170 1_565 S
C184 C186 1.380 . S
C185 C184 1.170 1_545 S
C186 C184 1.380 . S
C186 C187 1.170 . S
C187 C186 1.170 . S
C188 C189 1.170 . S
C188 C190 1.380 . S
C189 C188 1.170 . S
C190 C188 1.380 . S
C190 C191 1.170 . S
C191 C190 1.170 . S
C192 C193 1.170 . S
C192 C194 1.380 . S
C193 C192 1.170 . S
C194 C192 1.380 . S
C194 C195 1.170 . S
C195 C194 1.170 . S
C196 C197 1.170 . S
C196 C198 1.380 . S
C197 C196 1.170 . S
C198 C196 1.380 . S
C198 C199 1.170 . S
C199 C198 1.170 . S
C200 C201 1.170 . S
C200 C202 1.380 . S
C201 C200 1.170 . S
C202 C200 1.380 . S
C202 C203 1.170 . S
C203 C202 1.170 . S
C204 C205 1.170 . S
C204 C206 1.380 1_455 S
C205 C204 1.170 . S
C206 C204 1.380 1_655 S
C206 C207 1.170 . S
C207 C206 1.170 . S
C208 C209 1.170 . S
C208 C210 1.380 1_545 S
C209 C208 1.170 . S
C210 C208 1.380 1_565 S
C210 C211 1.170 . S
C211 C210 1.170 . S
C212 C213 1.170 . S
C212 C214 1.380 . S
C213 C212 1.170 . S
C214 C212 1.380 . S
C214 C215 1.170 . S
C215 C214 1.170 . S
C216 C217 1.170 1_545 S
C216 C218 1.380 . S
C217 C216 1.170 1_565 S
C218 C216 1.380 . S
C218 C219 1.170 . S
C219 C218 1.170 . S
C220 C221 1.170 . S
C220 C222 1.380 . S
C221 C220 1.170 . S
C222 C220 1.380 . S
C222 C223 1.170 . S
C223 C222 1.170 . S
C224 C225 1.170 . S
C224 C226 1.380 . S
C225 C224 1.170 . S
C226 C224 1.380 . S
C226 C227 1.170 . S
C227 C226 1.170 . S
C228 C229 1.170 . S
C228 C230 1.380 . S
C229 C228 1.170 . S
C230 C228 1.380 . S
C230 C231 1.170 . S
C231 C230 1.170 . S
C232 C233 1.170 . S
C232 C234 1.380 . S
C233 C232 1.170 . S
C234 C232 1.380 . S
C234 C235 1.170 . S
C235 C234 1.170 . S
C236 C237 1.170 . S
C236 C238 1.380 1_655 S
C237 C236 1.170 . S
C238 C236 1.380 1_455 S
C238 C239 1.170 . S
C239 C238 1.170 . S
C240 C241 1.170 . S
C240 C242 1.380 . S
C241 C240 1.170 . S
C242 C240 1.380 . S
C242 C243 1.170 . S
C243 C242 1.170 . S
C244 C245 1.170 . S
C244 C246 1.380 . S
C245 C244 1.170 . S
C246 C244 1.380 . S
C246 C247 1.170 . S
C247 C246 1.170 . S
C248 C249 1.170 . S
C248 C250 1.380 . S
C249 C248 1.170 . S
C250 C248 1.380 . S
C250 C251 1.170 . S
C251 C250 1.170 . S
C252 C253 1.170 . S
C252 C254 1.380 . S
C253 C252 1.170 . S
C254 C252 1.380 . S
C254 C255 1.170 . S
C255 C254 1.170 . S
C256 C257 1.170 . S
C256 C258 1.380 . S
C257 C256 1.170 . S
C258 C256 1.380 . S
C258 C259 1.170 . S
C259 C258 1.170 . S
C260 C261 1.170 . S
C260 C262 1.380 . S
C261 C260 1.170 . S
C262 C260 1.380 . S
C262 C263 1.170 . S
C263 C262 1.170 . S
C264 C265 1.170 . S
C264 C266 1.380 . S
C265 C264 1.170 . S
C266 C264 1.380 . S
C266 C267 1.170 . S
C267 C266 1.170 . S
C268 C269 1.170 . S
C268 C270 1.380 . S
C269 C268 1.170 . S
C270 C268 1.380 . S
C270 C271 1.170 . S
C271 C270 1.170 . S
C177 C7 1.495 . S
C179 C97 1.424 . S
C181 C37 1.471 . S
C183 C108 1.399 . S
C185 C54 1.411 . S
C187 C116 1.318 . S
C191 C130 1.405 . S
C189 C87 1.420 . S
C195 C141 1.393 . S
C193 C30 1.477 . S
C197 C51 1.431 1_455 S
C199 C152 1.441 . S
C201 C84 1.436 . S
C203 C160 1.387 . S
C205 C10 1.446 . S
C207 C174 1.368 . S
C209 C59 1.359 . S
C211 C171 1.337 . S
C215 C138 1.212 . S
C213 C74 1.265 . S
C219 C149 1.327 . S
C217 C18 1.390 . S
C221 C32 1.450 . S
C223 C163 1.421 . S
C227 C105 1.323 . S
C225 C73 1.355 . S
C229 C15 1.428 1_655 S
C231 C119 1.399 . S
C235 C127 1.364 . S
C233 C43 1.399 . S
C239 C94 1.200 . S
C237 C62 1.267 . S
C243 N158 1.460 . S
C241 C21 1.512 . S
C247 N169 1.464 . S
C245 C29 1.472 . S
C249 C52 1.391 . S
C251 N136 1.387 . S
C255 N147 1.436 . S
C253 C81 1.461 . S
C259 N114 1.433 . S
C257 C40 1.483 . S
C261 C65 1.458 . S
C263 N125 1.431 . S
C267 N92 1.403 . S
C265 C76 1.404 . S
C271 N103 1.460 . S
C269 C8 1.478 . S
