# Generated by pormake.
# Topology tsx, (6,3)-cn, num edge types: 1
# Building blocks:
#     Node 0, Type 0, BuildingBlock: MIDCAF_clean_sbu_0, # of connection points: 6
#     Node 1, Type 0, BuildingBlock: MIDCAF_clean_sbu_0, # of connection points: 6
#     Node 2, Type 1, BuildingBlock: CUQRIR_clean_linker_1, # of connection points: 3
#     Node 3, Type 1, BuildingBlock: CUQRIR_clean_linker_1, # of connection points: 3
#     Node 4, Type 1, BuildingBlock: CUQRIR_clean_linker_1, # of connection points: 3
#     Node 5, Type 1, BuildingBlock: CUQRIR_clean_linker_1, # of connection points: 3
#     Edge 6, Type (0, 1), BuildingBlock: MIFKUJ_clean_linker_0, # of connection points: 2
#     Edge 7, Type (0, 1), BuildingBlock: MIFKUJ_clean_linker_0, # of connection points: 2
#     Edge 8, Type (0, 1), BuildingBlock: MIFKUJ_clean_linker_0, # of connection points: 2
#     Edge 9, Type (0, 1), BuildingBlock: MIFKUJ_clean_linker_0, # of connection points: 2
#     Edge 10, Type (0, 1), BuildingBlock: MIFKUJ_clean_linker_0, # of connection points: 2
#     Edge 11, Type (0, 1), BuildingBlock: MIFKUJ_clean_linker_0, # of connection points: 2
#     Edge 12, Type (0, 1), BuildingBlock: MIFKUJ_clean_linker_0, # of connection points: 2
#     Edge 13, Type (0, 1), BuildingBlock: MIFKUJ_clean_linker_0, # of connection points: 2
#     Edge 14, Type (0, 1), BuildingBlock: MIFKUJ_clean_linker_0, # of connection points: 2
#     Edge 15, Type (0, 1), BuildingBlock: MIFKUJ_clean_linker_0, # of connection points: 2
#     Edge 16, Type (0, 1), BuildingBlock: MIFKUJ_clean_linker_0, # of connection points: 2
#     Edge 17, Type (0, 1), BuildingBlock: MIFKUJ_clean_linker_0, # of connection points: 2
# Relax obj value: 0.117
# Max RMSD: 0.170
# Mean RMSD: 0.152
data_MOF--net-tsx--node1-MIDCAF_clean_sbu_0--node2-CUQRIR_clean_linker_1--edge1-MIFKUJ_clean_linker_0
_symmetry_space_group_name_H-M    P1
_symmetry_Int_Tables_number       1
_symmetry_cell_setting            triclinic
loop_
_symmetry_equiv_pos_as_xyz
'x, y, z'
_cell_length_a     24.461004
_cell_length_b     25.201423
_cell_length_c     44.036729
_cell_angle_alpha  80.267662
_cell_angle_beta   94.32396
_cell_angle_gamma 90.368508
loop_
_atom_site_label
_atom_site_type_symbol
_atom_site_fract_x
_atom_site_fract_y
_atom_site_fract_z
_atom_type_partial_charge
Zn0 Zn 0.96874 0.00346 0.98123 0.0
Zn1 Zn 0.15828 0.01082 0.0358 0.0
Zn2 Zn 0.05967 0.01492 0.00844 0.0
C3 C 0.12482 0.12057 0.0211 0.0
C4 C 0.16945 0.96108 0.98625 0.0
O5 O 0.00945 0.95513 0.03891 0.0
O6 O 0.94452 0.93579 0.00495 0.0
C7 C 0.97168 0.10802 0.99435 0.0
O8 O 0.0794 0.10095 0.01112 0.0
O9 O 0.16469 0.08981 0.03196 0.0
O10 O 0.19895 0.97284 0.00889 0.0
O11 O 0.11838 0.97532 0.98228 0.0
O12 O 0.93827 0.0715 0.98943 0.0
O13 O 0.02338 0.09736 0.9992 0.0
O14 O 0.07116 0.9898 0.96324 0.0
O15 O 0.98847 1.00001 0.93916 0.0
C16 C 0.03882 0.99016 0.93866 0.0
O17 O 0.05596 0.97042 0.05621 0.0
O18 O 0.14132 0.97115 0.07675 0.0
C19 C 0.96835 0.92609 0.03166 0.0
C20 C 0.0916 0.95905 0.07956 0.0
Zn21 Zn 0.64771 0.51538 0.54132 0.0
Zn22 Zn 0.45668 0.52705 0.47914 0.0
Zn23 Zn 0.55159 0.52578 0.51037 0.0
C24 C 0.53147 0.49951 0.44047 0.0
C25 C 0.47453 0.63134 0.49163 0.0
O26 O 0.54338 0.47465 0.55645 0.0
O27 O 0.62798 0.46524 0.57833 0.0
C28 C 0.66331 0.47733 0.48788 0.0
O29 O 0.56347 0.50251 0.46477 0.0
O30 O 0.48076 0.50842 0.44041 0.0
O31 O 0.43858 0.60262 0.48037 0.0
O32 O 0.52136 0.61095 0.50309 0.0
O33 O 0.69119 0.48706 0.51158 0.0
O34 O 0.61172 0.48932 0.48387 0.0
O35 O 0.57546 0.6085 0.51682 0.0
O36 O 0.65453 0.59227 0.54477 0.0
C37 C 0.61799 0.62515 0.53151 0.0
O38 O 0.49506 0.46949 0.53769 0.0
O39 O 0.41906 0.47211 0.50694 0.0
C40 C 0.57744 0.45567 0.57953 0.0
C41 C 0.44574 0.45332 0.53204 0.0
C42 C 0.0356 0.04732 0.42447 0.0
N43 N 0.05938 0.01237 0.40902 0.0
N44 N 0.98851 0.06791 0.40876 0.0
C45 C 0.05585 0.05842 0.45586 0.0
C46 C 0.98435 0.04413 0.38334 0.0
N47 N 0.02689 0.00995 0.38369 0.0
C48 C 0.94168 0.05835 0.35672 0.0
H49 H 0.02122 0.06897 0.46867 0.0
H50 H 0.08445 0.09294 0.45311 0.0
H51 H 0.07804 0.02294 0.46952 0.0
H52 H 0.92864 0.10105 0.3542 0.0
H53 H 0.90531 0.03247 0.36114 0.0
H54 H 0.95723 0.05153 0.33472 0.0
C55 C 0.06623 0.00444 0.57455 0.0
N56 N 0.0987 0.01593 0.59892 0.0
N57 N 0.03004 0.96539 0.58404 0.0
C58 C 0.07039 0.03015 0.54145 0.0
C59 C 0.04114 0.95394 0.61505 0.0
N60 N 0.08329 0.98423 0.62409 0.0
C61 C 0.00637 0.91812 0.63676 0.0
H62 H 0.04233 0.06544 0.53594 0.0
H63 H 0.05779 0.00133 0.52581 0.0
H64 H 0.11272 0.04409 0.53734 0.0
H65 H 0.02539 0.87746 0.64237 0.0
H66 H 0.96424 0.91425 0.62618 0.0
H67 H 1.00367 0.93402 0.6586 0.0
C68 C 0.5097 0.50034 0.92846 0.0
N69 N 0.53554 0.47211 0.91007 0.0
N70 N 0.46431 0.52531 0.91305 0.0
C71 C 0.52892 0.50361 0.96134 0.0
C72 C 0.46363 0.51141 0.88466 0.0
N73 N 0.50677 0.4791 0.88286 0.0
C74 C 0.42173 0.53138 0.85846 0.0
H75 H 0.52018 0.46484 0.97619 0.0
H76 H 0.5077 0.53595 0.97016 0.0
H77 H 0.57389 0.51002 0.96334 0.0
H78 H 0.41923 0.57597 0.85505 0.0
H79 H 0.38088 0.5155 0.86457 0.0
H80 H 0.43109 0.51862 0.83653 0.0
C81 C 0.55234 0.51027 0.07517 0.0
N82 N 0.5825 0.52527 0.09952 0.0
N83 N 0.50969 0.47885 0.08498 0.0
C84 C 0.56697 0.52219 0.04218 0.0
C85 C 0.51492 0.47547 0.11611 0.0
N86 N 0.55928 0.50301 0.12493 0.0
C87 C 0.47382 0.44953 0.13775 0.0
H88 H 0.54471 0.55896 0.03023 0.0
H89 H 0.55454 0.48842 0.03001 0.0
H90 H 0.61165 0.52901 0.04087 0.0
H91 H 0.48597 0.40696 0.14625 0.0
H92 H 0.43214 0.45042 0.12583 0.0
H93 H 0.47252 0.47023 0.15801 0.0
H94 H 0.15728 0.16488 0.07039 0.0
H95 H 0.2045 0.24958 0.07001 0.0
H96 H 0.16356 0.29228 0.97181 0.0
H97 H 0.11737 0.20496 0.97221 0.0
H98 H 0.26592 0.30569 0.98094 0.0
H99 H 0.12186 0.376 0.02773 0.0
H100 H 0.04818 0.38081 0.06243 0.0
H101 H 0.16384 0.34573 0.14142 0.0
H102 H 0.23843 0.34095 0.10733 0.0
H103 H 0.44519 0.52672 0.03492 0.0
H104 H 0.36463 0.48649 0.01039 0.0
H105 H 0.39779 0.33618 0.07173 0.0
H106 H 0.47956 0.37495 0.09481 0.0
H107 H 0.28233 0.40844 0.06778 0.0
H108 H 0.41474 0.30946 0.01313 0.0
H109 H 0.48685 0.31516 0.97637 0.0
H110 H 0.38518 0.4216 0.90911 0.0
H111 H 0.31263 0.41666 0.9456 0.0
C112 C 0.15614 0.19334 0.04893 0.0
C113 C 0.13323 0.17857 0.02142 0.0
C114 C 0.18316 0.24223 0.04869 0.0
C115 C 0.18753 0.27832 0.02092 0.0
C116 C 0.16079 0.26545 0.9936 0.0
C117 C 0.13369 0.21589 0.99385 0.0
C118 C 0.22697 0.32415 0.02046 0.0
C119 C 0.26823 0.32919 0.99947 0.0
C120 C 0.23058 0.35608 0.04418 0.0
C121 C 0.18575 0.35801 0.06491 0.0
C122 C 0.13157 0.36897 0.05251 0.0
C123 C 0.08963 0.37177 0.07207 0.0
C124 C 0.10122 0.36332 0.10407 0.0
C125 C 0.1549 0.35229 0.11662 0.0
C126 C 0.19709 0.34982 0.09718 0.0
C127 C 0.43602 0.4847 0.04246 0.0
C128 C 0.4679 0.45407 0.06714 0.0
C129 C 0.38984 0.46203 0.02869 0.0
C130 C 0.3748 0.40884 0.03976 0.0
C131 C 0.40849 0.37748 0.06308 0.0
C132 C 0.45494 0.39966 0.07634 0.0
C133 C 0.32159 0.38648 0.02968 0.0
C134 C 0.2782 0.38617 0.0487 0.0
C135 C 0.31533 0.36019 0.00385 0.0
C136 C 0.35853 0.36272 0.98199 0.0
C137 C 0.40794 0.33416 0.99052 0.0
C138 C 0.4488 0.33724 0.96976 0.0
C139 C 0.44054 0.36871 0.94044 0.0
C140 C 0.39146 0.39723 0.93182 0.0
C141 C 0.35044 0.39422 0.95249 0.0
H142 H 0.47215 0.37091 0.92442 0.0
H143 H 0.06861 0.36546 0.11914 0.0
H144 H 0.2764 0.95251 0.97493 0.0
H145 H 0.31853 0.88057 0.95391 0.0
H146 H 0.15865 0.81587 0.93396 0.0
H147 H 0.11613 0.88779 0.95542 0.0
H148 H 0.22663 0.74228 0.97039 0.0
H149 H 0.23982 0.86645 0.87552 0.0
H150 H 0.26418 0.95127 0.84247 0.0
H151 H 0.43364 0.92574 0.87371 0.0
H152 H 0.41067 0.8416 0.90748 0.0
H153 H 0.35487 0.52379 0.91694 0.0
H154 H 0.29691 0.59957 0.92356 0.0
H155 H 0.44171 0.6952 0.93518 0.0
H156 H 0.499 0.62009 0.92706 0.0
H157 H 0.37104 0.75168 0.89654 0.0
H158 H 0.36001 0.64929 0.99927 0.0
H159 H 0.34368 0.56894 0.03792 0.0
H160 H 0.18086 0.55601 0.99614 0.0
H161 H 0.1958 0.63732 0.95771 0.0
C162 C 0.25007 0.92385 0.96528 0.0
C163 C 0.19297 0.92573 0.96689 0.0
C164 C 0.27422 0.88284 0.9531 0.0
C165 C 0.24179 0.84281 0.94229 0.0
C166 C 0.18444 0.84645 0.94211 0.0
C167 C 0.16016 0.88779 0.95416 0.0
C168 C 0.26836 0.79382 0.93537 0.0
C169 C 0.25724 0.74417 0.95364 0.0
C170 C 0.30981 0.79655 0.9144 0.0
C171 C 0.32342 0.84764 0.8942 0.0
C172 C 0.28224 0.87908 0.87558 0.0
C173 C 0.29577 0.92698 0.85666 0.0
C174 C 0.35025 0.94371 0.85595 0.0
C175 C 0.39143 0.91269 0.87424 0.0
C176 C 0.3782 0.86488 0.89327 0.0
C177 C 0.37397 0.56093 0.92127 0.0
C178 C 0.43111 0.56637 0.92173 0.0
C179 C 0.34103 0.60407 0.92523 0.0
C180 C 0.36487 0.6532 0.93004 0.0
C181 C 0.42226 0.65787 0.93142 0.0
C182 C 0.45503 0.61493 0.92717 0.0
C183 C 0.33026 0.70065 0.93211 0.0
C184 C 0.33977 0.74978 0.91288 0.0
C185 C 0.28831 0.69792 0.95271 0.0
C186 C 0.27922 0.64887 0.97547 0.0
C187 C 0.32083 0.62913 0.99827 0.0
C188 C 0.31174 0.5836 0.0202 0.0
C189 C 0.26147 0.55702 0.0193 0.0
C190 C 0.21985 0.57649 0.99673 0.0
C191 C 0.22845 0.62253 0.97501 0.0
H192 H 0.25472 0.52148 0.03615 0.0
H193 H 0.36055 0.98075 0.84124 0.0
H194 H 0.92408 0.9217 0.08757 0.0
H195 H 0.8731 0.84602 0.11442 0.0
H196 H 0.91149 0.75112 0.04574 0.0
H197 H 0.96505 0.82496 0.0206 0.0
H198 H 0.78525 0.80904 0.09587 0.0
H199 H 0.89971 0.62155 0.06501 0.0
H200 H 0.99478 0.58836 0.06738 0.0
H201 H 0.04383 0.68814 0.1345 0.0
H202 H 0.94895 0.72141 0.13285 0.0
H203 H 0.59103 0.62226 0.06343 0.0
H204 H 0.66809 0.68434 0.06336 0.0
H205 H 0.75495 0.57277 0.13593 0.0
H206 H 0.67965 0.50855 0.1338 0.0
H207 H 0.8255 0.61479 0.10171 0.0
H208 H 0.68878 0.69036 0.14953 0.0
H209 H 0.5966 0.72112 0.15798 0.0
H210 H 0.59894 0.84204 0.07671 0.0
H211 H 0.69077 0.81136 0.0674 0.0
C212 C 0.92443 0.88352 0.07951 0.0
C213 C 0.94995 0.87853 0.05263 0.0
C214 C 0.89427 0.84052 0.09444 0.0
C215 C 0.88849 0.79222 0.0824 0.0
C216 C 0.91624 0.78688 0.05626 0.0
C217 C 0.94679 0.82934 0.04172 0.0
C218 C 0.84806 0.75029 0.09399 0.0
C219 C 0.79439 0.76657 0.09752 0.0
C220 C 0.85993 0.69446 0.09758 0.0
C221 C 0.91711 0.67418 0.09871 0.0
C222 C 0.93065 0.63617 0.08044 0.0
C223 C 0.98457 0.61741 0.0816 0.0
C224 C 0.02533 0.63619 0.10103 0.0
C225 C 0.01226 0.67373 0.11938 0.0
C226 C 0.95843 0.69261 0.1183 0.0
C227 C 0.62708 0.61061 0.07886 0.0
C228 C 0.62927 0.56072 0.09867 0.0
C229 C 0.67079 0.64651 0.07928 0.0
C230 C 0.71702 0.63419 0.1003 0.0
C231 C 0.71976 0.58369 0.11967 0.0
C232 C 0.6765 0.54717 0.11867 0.0
C233 C 0.76232 0.67401 0.10159 0.0
C234 C 0.81674 0.65721 0.10062 0.0
C235 C 0.75173 0.72909 0.10208 0.0
C236 C 0.69668 0.74836 0.10769 0.0
C237 C 0.66957 0.72335 0.13335 0.0
C238 C 0.61734 0.74076 0.13829 0.0
C239 C 0.59192 0.7835 0.11788 0.0
C240 C 0.61871 0.80895 0.09251 0.0
C241 C 0.6709 0.7916 0.0874 0.0
H242 H 0.55147 0.79693 0.12174 0.0
H243 H 0.06704 0.62161 0.10188 0.0
H244 H 0.99618 0.2018 0.95652 0.0
H245 H 0.93207 0.27834 0.94085 0.0
H246 H 0.82732 0.2093 0.01151 0.0
H247 H 0.89079 0.13368 0.02709 0.0
H248 H 0.77906 0.22113 0.94917 0.0
H249 H 0.87791 0.32254 0.01947 0.0
H250 H 0.96 0.36437 0.04071 0.0
H251 H 0.97862 0.46158 0.95209 0.0
H252 H 0.89622 0.41998 0.9303 0.0
H253 H 0.55829 0.38991 0.95684 0.0
H254 H 0.64468 0.33985 0.96949 0.0
H255 H 0.71529 0.43905 0.89279 0.0
H256 H 0.62846 0.48976 0.88041 0.0
H257 H 0.78738 0.41782 0.94955 0.0
H258 H 0.67915 0.32491 0.88131 0.0
H259 H 0.59429 0.28499 0.86168 0.0
H260 H 0.59397 0.17051 0.94582 0.0
H261 H 0.67836 0.21053 0.96623 0.0
C262 C 0.96091 0.20463 0.96965 0.0
C263 C 0.94836 0.16214 0.99307 0.0
C264 C 0.92402 0.24795 0.96049 0.0
C265 C 0.87451 0.24889 0.97472 0.0
C266 C 0.865 0.2091 1.00007 0.0
C267 C 0.90159 0.16623 0.00918 0.0
C268 C 0.82913 0.28634 0.96109 0.0
C269 C 0.78086 0.26412 0.94934 0.0
C270 C 0.83213 0.34255 0.9603 0.0
C271 C 0.88144 0.36771 0.97319 0.0
C272 C 0.8998 0.3525 0.00445 0.0
C273 C 0.94635 0.37628 0.01661 0.0
C274 C 0.97489 0.41544 0.99773 0.0
C275 C 0.9566 0.43113 0.96667 0.0
C276 C 0.90988 0.40756 0.95442 0.0
C277 C 0.59229 0.4011 0.94283 0.0
C278 C 0.58667 0.44306 0.91747 0.0
C279 C 0.6416 0.37262 0.95003 0.0
C280 C 0.68633 0.38565 0.932 0.0
C281 C 0.68132 0.42847 0.90702 0.0
C282 C 0.63168 0.45685 0.89974 0.0
C283 C 0.73688 0.35219 0.93864 0.0
C284 C 0.786 0.37501 0.94886 0.0
C285 C 0.7349 0.29634 0.93788 0.0
C286 C 0.68502 0.27095 0.92537 0.0
C287 C 0.66089 0.29139 0.8957 0.0
C288 C 0.61283 0.26876 0.88443 0.0
C289 C 0.58871 0.22525 0.90251 0.0
C290 C 0.61272 0.20421 0.93185 0.0
C291 C 0.66072 0.22684 0.94327 0.0
H292 H 0.55145 0.20779 0.89377 0.0
H293 H 0.01101 0.43376 0.00718 0.0
H294 H 0.61559 0.70603 0.48155 0.0
H295 H 0.66987 0.78885 0.47943 0.0
H296 H 0.704 0.75379 0.57837 0.0
H297 H 0.65013 0.67191 0.58042 0.0
H298 H 0.70539 0.85986 0.55929 0.0
H299 H 0.78236 0.69887 0.53099 0.0
H300 H 0.78459 0.62728 0.49918 0.0
H301 H 0.79774 0.74637 0.41793 0.0
H302 H 0.79472 0.81872 0.44927 0.0
H303 H 0.01394 0.86203 0.57867 0.0
H304 H 0.9299 0.82339 0.55778 0.0
H305 H 0.8613 0.98288 0.52948 0.0
H306 H 0.94559 0.02136 0.55086 0.0
H307 H 0.86825 0.83124 0.50313 0.0
H308 H 0.72051 0.96897 0.55173 0.0
H309 H 0.72239 0.02973 0.59023 0.0
H310 H 0.85852 0.94118 0.64162 0.0
H311 H 0.85677 0.87937 0.60379 0.0
C312 C 0.63231 0.71771 0.50293 0.0
C313 C 0.62916 0.68268 0.53114 0.0
C314 C 0.66377 0.76469 0.50169 0.0
C315 C 0.69213 0.77684 0.52867 0.0
C316 C 0.68282 0.74529 0.55723 0.0
C317 C 0.65189 0.69846 0.55842 0.0
C318 C 0.73866 0.81524 0.52731 0.0
C319 C 0.74049 0.85463 0.5464 0.0
C320 C 0.78512 0.80747 0.51113 0.0
C321 C 0.7876 0.76412 0.49236 0.0
C322 C 0.7854 0.70975 0.50631 0.0
C323 C 0.78681 0.66906 0.48838 0.0
C324 C 0.79113 0.68228 0.45654 0.0
C325 C 0.79423 0.73621 0.44258 0.0
C326 C 0.79263 0.77707 0.46041 0.0
C327 C 0.9813 0.88866 0.56726 0.0
C328 C 0.9857 0.94437 0.56636 0.0
C329 C 0.93345 0.86676 0.55528 0.0
C330 C 0.88899 0.90026 0.54242 0.0
C331 C 0.89486 0.95636 0.53958 0.0
C332 C 0.94295 0.97829 0.55153 0.0
C333 C 0.83518 0.87559 0.53534 0.0
C334 C 0.83228 0.83841 0.5149 0.0
C335 C 0.7884 0.88417 0.55111 0.0
C336 C 0.78936 0.92041 0.57443 0.0
C337 C 0.75079 0.96244 0.57127 0.0
C338 C 0.75179 0.99703 0.59301 0.0
C339 C 0.79081 0.98957 0.61824 0.0
C340 C 0.8286 0.9472 0.62193 0.0
C341 C 0.82768 0.91245 0.6003 0.0
H342 H 0.79159 0.01645 0.63501 0.0
H343 H 0.79223 0.65073 0.44269 0.0
H344 H 0.77005 0.48094 0.47472 0.0
H345 H 0.81873 0.41561 0.45148 0.0
H346 H 0.66588 0.33702 0.4323 0.0
H347 H 0.61691 0.40227 0.45591 0.0
H348 H 0.74102 0.26958 0.46769 0.0
H349 H 0.73996 0.39672 0.37359 0.0
H350 H 0.75459 0.48465 0.34095 0.0
H351 H 0.92652 0.47485 0.3688 0.0
H352 H 0.91311 0.38761 0.40217 0.0
H353 H 0.8787 0.06399 0.4105 0.0
H354 H 0.81749 0.13763 0.41625 0.0
H355 H 0.95781 0.23871 0.42859 0.0
H356 H 0.01872 0.16556 0.42127 0.0
H357 H 0.88171 0.29435 0.39121 0.0
H358 H 0.88418 0.18 0.48997 0.0
H359 H 0.87483 0.09528 0.52643 0.0
H360 H 0.70596 0.08477 0.49365 0.0
H361 H 0.71444 0.16922 0.4567 0.0
C362 C 0.74661 0.4507 0.46471 0.0
C363 C 0.68972 0.44662 0.46715 0.0
C364 C 0.77446 0.41351 0.45128 0.0
C365 C 0.74598 0.3714 0.44011 0.0
C366 C 0.68862 0.36932 0.44069 0.0
C367 C 0.66063 0.40684 0.45398 0.0
C368 C 0.77702 0.32565 0.43236 0.0
C369 C 0.77082 0.27474 0.45039 0.0
C370 C 0.81745 0.3329 0.41068 0.0
C371 C 0.82544 0.38558 0.39058 0.0
C372 C 0.78085 0.41345 0.37299 0.0
C373 C 0.78891 0.46312 0.3543 0.0
C374 C 0.84134 0.48518 0.35278 0.0
C375 C 0.88591 0.45768 0.36997 0.0
C376 C 0.87812 0.40811 0.38878 0.0
C377 C 0.89623 0.10197 0.41451 0.0
C378 C 0.95323 0.10926 0.41556 0.0
C379 C 0.86138 0.14393 0.41794 0.0
C380 C 0.88297 0.19375 0.42307 0.0
C381 C 0.94012 0.20074 0.42459 0.0
C382 C 0.97494 0.15884 0.42086 0.0
C383 C 0.846 0.23855 0.42678 0.0
C384 C 0.85124 0.28912 0.40811 0.0
C385 C 0.80529 0.23146 0.44828 0.0
C386 C 0.80012 0.18058 0.47034 0.0
C387 C 0.84518 0.15938 0.49035 0.0
C388 C 0.84002 0.11149 0.51113 0.0
C389 C 0.78989 0.08466 0.51226 0.0
C390 C 0.74477 0.10563 0.49268 0.0
C391 C 0.74971 0.15352 0.47183 0.0
H392 H 0.78598 0.04771 0.52835 0.0
H393 H 0.84743 0.5236 0.33826 0.0
H394 H 0.4941 0.36557 0.57022 0.0
H395 H 0.44642 0.28622 0.59587 0.0
H396 H 0.29078 0.36418 0.5647 0.0
H397 H 0.33792 0.44355 0.54056 0.0
H398 H 0.28148 0.3051 0.61785 0.0
H399 H 0.35777 0.28023 0.52216 0.0
H400 H 0.43338 0.27473 0.48873 0.0
H401 H 0.50781 0.14667 0.55554 0.0
H402 H 0.43288 0.15191 0.58952 0.0
H403 H 0.08773 0.12148 0.57571 0.0
H404 H 0.15813 0.19098 0.57686 0.0
H405 H 0.27457 0.07083 0.62344 0.0
H406 H 0.20366 0.00119 0.62218 0.0
H407 H 0.31686 0.14074 0.57419 0.0
H408 H 0.23098 0.15474 0.66588 0.0
H409 H 0.15517 0.16105 0.69895 0.0
H410 H 0.09898 0.30737 0.64052 0.0
H411 H 0.17488 0.30229 0.60724 0.0
C412 C 0.44984 0.36644 0.57 0.0
C413 C 0.41968 0.41061 0.55331 0.0
C414 C 0.42257 0.32082 0.58426 0.0
C415 C 0.36491 0.31866 0.58157 0.0
C416 C 0.33519 0.36456 0.56703 0.0
C417 C 0.36223 0.40994 0.55307 0.0
C418 C 0.3346 0.2678 0.59073 0.0
C419 C 0.28976 0.26891 0.60871 0.0
C420 C 0.34544 0.22023 0.57896 0.0
C421 C 0.39021 0.21692 0.55851 0.0
C422 C 0.39047 0.25115 0.52978 0.0
C423 C 0.43316 0.24806 0.51074 0.0
C424 C 0.47548 0.2105 0.52006 0.0
C425 C 0.47509 0.17583 0.54839 0.0
C426 C 0.43254 0.17885 0.56755 0.0
C427 C 0.12854 0.11006 0.58586 0.0
C428 C 0.14077 0.05625 0.59855 0.0
C429 C 0.1685 0.14966 0.58686 0.0
C430 C 0.22143 0.13611 0.60054 0.0
C431 C 0.23395 0.08214 0.61291 0.0
C432 C 0.19367 0.04257 0.6122 0.0
C433 C 0.26356 0.17864 0.601 0.0
C434 C 0.31014 0.17603 0.58457 0.0
C435 C 0.25449 0.22481 0.61427 0.0
C436 C 0.20841 0.22792 0.63396 0.0
C437 C 0.20223 0.18806 0.65995 0.0
C438 C 0.15929 0.19145 0.67876 0.0
C439 C 0.122 0.23432 0.67171 0.0
C440 C 0.12784 0.27413 0.64593 0.0
C441 C 0.17098 0.27117 0.62717 0.0
H442 H 0.08872 0.2368 0.68628 0.0
H443 H 0.50849 0.20816 0.50528 0.0
H444 H 0.40159 0.66086 0.52801 0.0
H445 H 0.34591 0.74255 0.51649 0.0
H446 H 0.45146 0.80813 0.44533 0.0
H447 H 0.50645 0.7248 0.45641 0.0
H448 H 0.34427 0.84655 0.51165 0.0
H449 H 0.37043 0.86816 0.38222 0.0
H450 H 0.40305 0.81666 0.34408 0.0
H451 H 0.36052 0.66861 0.40084 0.0
H452 H 0.32696 0.71933 0.43911 0.0
H453 H 0.15759 0.05061 0.42803 0.0
H454 H 0.24209 0.99841 0.44519 0.0
H455 H 0.15981 0.85439 0.42621 0.0
H456 H 0.07486 0.90614 0.41032 0.0
H457 H 0.26363 0.86668 0.40347 0.0
H458 H 0.17674 0.87168 0.49708 0.0
H459 H 0.1351 0.91486 0.53608 0.0
H460 H 0.28608 0.99651 0.55296 0.0
H461 H 0.32844 0.95445 0.51363 0.0
C462 C 0.41441 0.69379 0.51091 0.0
C463 C 0.45835 0.68684 0.4932 0.0
C464 C 0.38236 0.7405 0.50419 0.0
C465 C 0.39346 0.78112 0.47947 0.0
C466 C 0.44138 0.77691 0.46412 0.0
C467 C 0.47334 0.72969 0.47073 0.0
C468 C 0.35035 0.82253 0.4673 0.0
C469 C 0.32736 0.85165 0.48784 0.0
C470 C 0.3271 0.82856 0.43639 0.0
C471 C 0.34691 0.79749 0.41364 0.0
C472 C 0.36801 0.82462 0.38651 0.0
C473 C 0.38661 0.7956 0.36489 0.0
C474 C 0.38399 0.73943 0.3701 0.0
C475 C 0.36264 0.71212 0.3969 0.0
C476 C 0.34383 0.74098 0.41856 0.0
C477 C 0.15754 0.00771 0.42791 0.0
C478 C 0.10968 0.98222 0.41813 0.0
C479 C 0.2058 0.97804 0.4375 0.0
C480 C 0.20718 0.9225 0.43705 0.0
C481 C 0.15972 0.89726 0.42661 0.0
C482 C 0.11133 0.92678 0.41746 0.0
C483 C 0.25768 0.89022 0.44784 0.0
C484 C 0.28169 0.86277 0.42703 0.0
C485 C 0.28094 0.88482 0.47863 0.0
C486 C 0.25555 0.91044 0.50213 0.0
C487 C 0.2009 0.8993 0.50885 0.0
C488 C 0.17721 0.92346 0.53105 0.0
C489 C 0.20794 0.95842 0.54692 0.0
C490 C 0.26237 0.96942 0.5406 0.0
C491 C 0.28624 0.94544 0.51835 0.0
H492 H 0.18963 0.97676 0.5642 0.0
H493 H 0.39833 0.71718 0.35328 0.0
H494 H 0.15189 0.89985 0.12794 0.0
H495 H 0.13279 0.8879 0.1823 0.0
H496 H 0.9743 0.96318 0.15648 0.0
H497 H 0.99453 0.97749 0.10221 0.0
H498 H 0.03048 0.01365 0.19523 0.0
H499 H 0.98758 0.82984 0.19282 0.0
H500 H 1.00159 0.73853 0.18164 0.0
H501 H 0.14803 0.72042 0.24273 0.0
H502 H 0.1353 0.81192 0.25404 0.0
H503 H 0.96774 0.93243 0.36198 0.0
H504 H 0.9756 0.9032 0.31192 0.0
H505 H 0.11943 0.00165 0.29797 0.0
H506 H 0.1114 0.03047 0.34808 0.0
H507 H 0.05941 0.85741 0.2801 0.0
H508 H 0.0944 0.07833 0.22833 0.0
H509 H 0.07406 0.16961 0.23798 0.0
H510 H 0.9301 0.11061 0.28245 0.0
H511 H 0.94975 0.01898 0.27318 0.0
C512 C 0.11227 0.91231 0.13382 0.0
C513 C 0.07433 0.93902 0.11082 0.0
C514 C 0.10126 0.90519 0.16491 0.0
C515 C 0.05202 0.92449 0.17353 0.0
C516 C 0.01248 0.94775 0.15037 0.0
C517 C 0.02366 0.95516 0.11929 0.0
C518 C 0.0456 0.92808 0.20639 0.0
C519 C 0.03636 0.97922 0.21366 0.0
C520 C 0.05319 0.88331 0.23056 0.0
C521 C 0.06065 0.82795 0.22413 0.0
C522 C 0.02297 0.80655 0.20373 0.0
C523 C 0.03066 0.75472 0.19738 0.0
C524 C 0.07574 0.72375 0.21138 0.0
C525 C 0.11313 0.74447 0.23188 0.0
C526 C 0.10564 0.79629 0.23833 0.0
C527 C 1.00198 0.94611 0.34854 0.0
C528 C 0.03904 0.98347 0.35851 0.0
C529 C 0.00648 0.92952 0.32009 0.0
C530 C 0.04777 0.95068 0.30119 0.0
C531 C 0.0872 0.98501 0.31224 0.0
C532 C 0.08288 0.00123 0.34079 0.0
C533 C 0.04541 0.94293 0.26853 0.0
C534 C 0.05316 0.89138 0.26144 0.0
C535 C 0.03564 0.98708 0.24431 0.0
C536 C 0.02384 0.04184 0.2503 0.0
C537 C 0.05847 0.08489 0.24021 0.0
C538 C 0.04711 0.13663 0.24566 0.0
C539 C 1.00097 0.14583 0.26096 0.0
C540 C 0.96604 0.10333 0.2708 0.0
C541 C 0.97738 0.05146 0.26557 0.0
H542 H 0.99217 0.18592 0.2651 0.0
H543 H 0.08165 0.68366 0.20639 0.0
H544 H 0.14012 0.01461 0.9173 0.0
H545 H 0.16638 0.01416 0.86456 0.0
H546 H 0.00995 0.94526 0.8415 0.0
H547 H 0.98346 0.9462 0.89367 0.0
H548 H 0.17424 0.94225 0.82425 0.0
H549 H 0.95548 0.01293 0.77468 0.0
H550 H 0.87829 0.06348 0.78921 0.0
H551 H 0.98964 0.14597 0.84508 0.0
H552 H 0.06755 0.09657 0.83049 0.0
H553 H 0.11823 0.90362 0.66955 0.0
H554 H 0.13111 0.90787 0.72477 0.0
H555 H 0.10212 0.07948 0.70442 0.0
H556 H 0.08593 0.07431 0.64959 0.0
H557 H 0.04209 0.04323 0.74477 0.0
H558 H 0.22989 0.01715 0.73637 0.0
H559 H 0.31574 0.97843 0.72362 0.0
H560 H 0.28468 0.8305 0.78383 0.0
H561 H 0.19798 0.86779 0.79645 0.0
C562 C 0.112 0.9982 0.90114 0.0
C563 C 0.05951 0.98111 0.90935 0.0
C564 C 0.12697 0.99806 0.87106 0.0
C565 C 0.0895 0.98093 0.84898 0.0
C566 C 0.03895 0.95977 0.85801 0.0
C567 C 0.0239 0.96031 0.88781 0.0
C568 C 0.10038 0.98945 0.81588 0.0
C569 C 0.14612 0.96486 0.8067 0.0
C570 C 0.0639 0.02004 0.79325 0.0
C571 C 0.01729 0.0507 0.80167 0.0
C572 C 0.96352 0.04208 0.78992 0.0
C573 C 0.91963 0.0705 0.79819 0.0
C574 C 0.92904 0.10781 0.81812 0.0
C575 C 0.98239 0.11694 0.82972 0.0
C576 C 0.02642 0.08871 0.82147 0.0
C577 C 0.11566 0.94224 0.67703 0.0
C578 C 0.10099 0.98856 0.65553 0.0
C579 C 0.12361 0.94486 0.70851 0.0
C580 C 0.11814 0.99418 0.71893 0.0
C581 C 0.10687 0.04103 0.69705 0.0
C582 C 0.09802 0.0382 0.66569 0.0
C583 C 0.11656 0.99573 0.75251 0.0
C584 C 0.0718 0.02182 0.76196 0.0
C585 C 0.15551 0.96853 0.77527 0.0
C586 C 0.20693 0.94517 0.76709 0.0
C587 C 0.24091 0.9761 0.74659 0.0
C588 C 0.28985 0.95443 0.73944 0.0
C589 C 0.30557 0.90198 0.75283 0.0
C590 C 0.27238 0.87108 0.77341 0.0
C591 C 0.22329 0.89247 0.78056 0.0
H592 H 0.34356 0.88534 0.74733 0.0
H593 H 0.895 0.1297 0.82453 0.0
H594 H 0.62842 0.37495 0.62018 0.0
H595 H 0.61196 0.34875 0.67467 0.0
H596 H 0.47018 0.45362 0.6613 0.0
H597 H 0.48527 0.47781 0.60645 0.0
H598 H 0.62543 0.41382 0.71172 0.0
H599 H 0.38829 0.42817 0.72119 0.0
H600 H 0.30221 0.39834 0.69678 0.0
H601 H 0.38966 0.27578 0.6631 0.0
H602 H 0.47625 0.30393 0.68797 0.0
H603 H 0.54847 0.53557 0.8331 0.0
H604 H 0.56095 0.50489 0.78407 0.0
H605 H 0.50617 0.3463 0.82263 0.0
H606 H 0.49392 0.37757 0.87181 0.0
H607 H 0.4536 0.38556 0.76506 0.0
H608 H 0.63499 0.35958 0.80978 0.0
H609 H 0.72046 0.38288 0.83781 0.0
H610 H 0.74552 0.5152 0.76506 0.0
H611 H 0.65973 0.49341 0.73677 0.0
C612 C 0.59252 0.39073 0.62868 0.0
C613 C 0.55834 0.4287 0.60924 0.0
C614 C 0.58327 0.37597 0.65987 0.0
C615 C 0.54021 0.39957 0.67237 0.0
C616 C 0.50331 0.43416 0.65233 0.0
C617 C 0.51198 0.44813 0.62091 0.0
C618 C 0.53929 0.39506 0.70653 0.0
C619 C 0.58783 0.40684 0.72333 0.0
C620 C 0.49067 0.38502 0.72209 0.0
C621 C 0.43896 0.36836 0.70644 0.0
C622 C 0.38924 0.39467 0.70872 0.0
C623 C 0.34032 0.37805 0.69481 0.0
C624 C 0.34048 0.33512 0.67851 0.0
C625 C 0.38964 0.309 0.6758 0.0
C626 C 0.4387 0.32532 0.68979 0.0
C627 C 0.54024 0.49399 0.83108 0.0
C628 C 0.52068 0.45868 0.8559 0.0
C629 C 0.54718 0.47646 0.80323 0.0
C630 C 0.53457 0.42325 0.79975 0.0
C631 C 0.51606 0.38749 0.82486 0.0
C632 C 0.50949 0.40509 0.85289 0.0
C633 C 0.53885 0.40655 0.76929 0.0
C634 C 0.49115 0.39113 0.75332 0.0
C635 C 0.58835 0.41221 0.75453 0.0
C636 C 0.64071 0.42492 0.77116 0.0
C637 C 0.65854 0.39383 0.7998 0.0
C638 C 0.70704 0.40677 0.81576 0.0
C639 C 0.73832 0.4505 0.80325 0.0
C640 C 0.72124 0.48131 0.77471 0.0
C641 C 0.67271 0.46863 0.75867 0.0
H642 H 0.77583 0.46047 0.81566 0.0
H643 H 0.30237 0.32196 0.66819 0.0
H644 H 0.63074 0.53031 0.41832 0.0
H645 H 0.65606 0.53281 0.36516 0.0
H646 H 0.5055 0.45221 0.3438 0.0
H647 H 0.48005 0.4498 0.39653 0.0
H648 H 0.66637 0.46134 0.32249 0.0
H649 H 0.44315 0.52355 0.27931 0.0
H650 H 0.36429 0.56529 0.29821 0.0
H651 H 0.47373 0.64836 0.3548 0.0
H652 H 0.55316 0.60819 0.33567 0.0
H653 H 0.58846 0.42208 0.17087 0.0
H654 H 0.60649 0.42748 0.22571 0.0
H655 H 0.5884 0.6004 0.20432 0.0
H656 H 0.56916 0.59437 0.14933 0.0
H657 H 0.52591 0.56168 0.24779 0.0
H658 H 0.71151 0.54067 0.23261 0.0
H659 H 0.79513 0.50417 0.21576 0.0
H660 H 0.77297 0.35423 0.27613 0.0
H661 H 0.68845 0.38928 0.29284 0.0
C662 C 0.604 0.51158 0.40253 0.0
C663 C 0.55321 0.49028 0.4114 0.0
C664 C 0.61841 0.5132 0.37218 0.0
C665 C 0.582 0.49382 0.35043 0.0
C666 C 0.53368 0.46825 0.36011 0.0
C667 C 0.51922 0.46687 0.39023 0.0
C668 C 0.59058 0.50553 0.31699 0.0
C669 C 0.63628 0.48377 0.30603 0.0
C670 C 0.55165 0.53599 0.29575 0.0
C671 C 0.5041 0.5625 0.30621 0.0
C672 C 0.45039 0.55116 0.29554 0.0
C673 C 0.40556 0.57451 0.30632 0.0
C674 C 0.41395 0.60937 0.32774 0.0
C675 C 0.46721 0.62134 0.33822 0.0
C676 C 0.51215 0.59831 0.3274 0.0
C677 C 0.58931 0.46116 0.17801 0.0
C678 C 0.57722 0.50775 0.15625 0.0
C679 C 0.60008 0.46438 0.20921 0.0
C680 C 0.59921 0.51439 0.21921 0.0
C681 C 0.58943 0.56138 0.19716 0.0
C682 C 0.57861 0.55806 0.16586 0.0
C683 C 0.60147 0.51638 0.25284 0.0
C684 C 0.55728 0.54051 0.264 0.0
C685 C 0.64275 0.48941 0.27415 0.0
C686 C 0.69315 0.46755 0.26378 0.0
C687 C 0.724 0.49967 0.24204 0.0
C688 C 0.77169 0.47926 0.23255 0.0
C689 C 0.7893 0.42687 0.24482 0.0
C690 C 0.75924 0.39479 0.26661 0.0
C691 C 0.7114 0.41493 0.2761 0.0
H692 H 0.82629 0.41118 0.23749 0.0
H693 H 0.37915 0.62707 0.3362 0.0
loop_
_geom_bond_atom_site_label_1
_geom_bond_atom_site_label_2
_geom_bond_distance
_geom_bond_site_symmetry_2
_ccdc_geom_bond_type
Zn0 O6 1.920 1_545 S
Zn0 O12 1.898 . S
Zn0 O15 1.905 1_545 S
Zn1 O9 1.905 1_565 S
Zn1 O10 1.898 . S
Zn1 O18 1.920 . S
Zn2 O5 2.080 1_545 S
Zn2 O8 2.115 . S
Zn2 O11 2.120 1_545 S
Zn2 O13 2.120 1_455 S
Zn2 O14 2.114 1_554 S
Zn2 O17 2.080 . S
C3 O8 1.183 . S
C3 O9 1.182 . S
C4 O10 1.167 . S
C4 O11 1.299 . S
O5 Zn2 2.080 1_565 S
O5 C19 1.305 1_455 S
O6 Zn0 1.920 1_565 S
O6 C19 1.234 1_556 S
C7 O12 1.167 . S
C7 O13 1.299 1_556 S
O8 Zn2 2.115 . S
O8 C3 1.183 . S
O9 Zn1 1.905 1_545 S
O9 C3 1.182 . S
O10 Zn1 1.898 . S
O10 C4 1.167 . S
O11 Zn2 2.120 1_565 S
O11 C4 1.299 . S
O12 Zn0 1.898 . S
O12 C7 1.167 . S
O13 Zn2 2.120 1_655 S
O13 C7 1.299 1_554 S
O14 Zn2 2.114 1_556 S
O14 C16 1.166 1_545 S
O15 Zn0 1.905 1_565 S
O15 C16 1.182 1_655 S
C16 O14 1.166 1_565 S
C16 O15 1.182 1_455 S
O17 Zn2 2.080 . S
O17 C20 1.305 1_545 S
O18 Zn1 1.920 . S
O18 C20 1.234 . S
C19 O5 1.305 1_655 S
C19 O6 1.234 1_554 S
C20 O17 1.305 1_565 S
C20 O18 1.234 . S
Zn21 O27 1.920 . S
Zn21 O33 1.898 . S
Zn21 O36 1.905 . S
Zn22 O30 1.905 . S
Zn22 O31 1.898 . S
Zn22 O39 1.920 . S
Zn23 O26 2.080 . S
Zn23 O29 2.114 . S
Zn23 O32 2.120 . S
Zn23 O34 2.120 . S
Zn23 O35 2.114 . S
Zn23 O38 2.080 . S
C24 O29 1.166 . S
C24 O30 1.182 . S
C25 O31 1.167 . S
C25 O32 1.299 . S
O26 Zn23 2.080 . S
O26 C40 1.305 . S
O27 Zn21 1.920 . S
O27 C40 1.234 . S
C28 O33 1.167 . S
C28 O34 1.299 . S
O29 Zn23 2.114 . S
O29 C24 1.166 . S
O30 Zn22 1.905 . S
O30 C24 1.182 . S
O31 Zn22 1.898 . S
O31 C25 1.167 . S
O32 Zn23 2.120 . S
O32 C25 1.299 . S
O33 Zn21 1.898 . S
O33 C28 1.167 . S
O34 Zn23 2.120 . S
O34 C28 1.299 . S
O35 Zn23 2.114 . S
O35 C37 1.166 . S
O36 Zn21 1.905 . S
O36 C37 1.182 . S
C37 O35 1.166 . S
C37 O36 1.182 . S
O38 Zn23 2.080 . S
O38 C41 1.305 . S
O39 Zn22 1.920 . S
O39 C41 1.234 . S
C40 O26 1.305 . S
C40 O27 1.234 . S
C41 O38 1.305 . S
C41 O39 1.234 . S
C42 N43 1.317 . S
C42 N44 1.348 . S
C42 C45 1.485 . S
N43 C42 1.317 . S
N43 N47 1.370 . S
N44 C42 1.348 . S
N44 C46 1.346 . S
C45 C42 1.485 . S
C45 H49 0.960 1_545 S
C45 H50 0.961 . S
C45 H51 0.964 . S
C46 N44 1.346 . S
C46 N47 1.307 . S
C46 C48 1.486 . S
N47 N43 1.370 . S
N47 C46 1.307 . S
C48 C46 1.486 . S
C48 H52 0.960 . S
C48 H53 0.960 1_455 S
C48 H54 0.959 . S
H49 C45 0.960 1_565 S
H50 C45 0.961 . S
H51 C45 0.964 . S
H52 C48 0.960 . S
H53 C48 0.960 1_655 S
H54 C48 0.959 . S
C55 N56 1.317 . S
C55 N57 1.348 1_445 S
C55 C58 1.485 . S
N56 C55 1.317 . S
N56 N60 1.370 . S
N57 C55 1.348 1_665 S
N57 C59 1.346 . S
C58 C55 1.485 . S
C58 H62 0.960 1_455 S
C58 H63 0.961 1_545 S
C58 H64 0.960 . S
C59 N57 1.346 . S
C59 N60 1.307 1_665 S
C59 C61 1.486 . S
N60 N56 1.370 . S
N60 C59 1.307 1_445 S
C61 C59 1.486 . S
C61 H65 0.960 . S
C61 H66 0.960 . S
C61 H67 0.959 . S
H62 C58 0.960 1_655 S
H63 C58 0.961 1_565 S
H64 C58 0.960 . S
H65 C61 0.960 . S
H66 C61 0.960 . S
H67 C61 0.959 . S
C68 N69 1.317 . S
C68 N70 1.348 . S
C68 C71 1.485 . S
N69 C68 1.317 . S
N69 N73 1.370 . S
N70 C68 1.348 . S
N70 C72 1.346 . S
C71 C68 1.485 . S
C71 H75 0.960 . S
C71 H76 0.961 . S
C71 H77 0.960 . S
C72 N70 1.346 . S
C72 N73 1.307 . S
C72 C74 1.486 . S
N73 N69 1.370 . S
N73 C72 1.307 . S
C74 C72 1.486 . S
C74 H78 0.960 . S
C74 H79 0.960 . S
C74 H80 0.959 . S
H75 C71 0.960 . S
H76 C71 0.961 . S
H77 C71 0.960 . S
H78 C74 0.960 . S
H79 C74 0.960 . S
H80 C74 0.959 . S
C81 N82 1.317 . S
C81 N83 1.348 . S
C81 C84 1.485 . S
N82 C81 1.317 . S
N82 N86 1.370 . S
N83 C81 1.348 . S
N83 C85 1.346 . S
C84 C81 1.485 . S
C84 H88 0.960 . S
C84 H89 0.961 . S
C84 H90 0.960 . S
C85 N83 1.346 . S
C85 N86 1.307 . S
C85 C87 1.486 . S
N86 N82 1.370 . S
N86 C85 1.307 . S
C87 C85 1.486 . S
C87 H91 0.960 . S
C87 H92 0.960 . S
C87 H93 0.959 . S
H88 C84 0.960 . S
H89 C84 0.961 . S
H90 C84 0.960 . S
H91 C87 0.960 . S
H92 C87 0.960 . S
H93 C87 0.959 . S
H94 C112 0.951 . S
H95 C114 0.951 . S
H96 C116 0.955 . S
H97 C117 0.950 . S
H98 C119 0.950 1_556 S
H99 C122 0.950 . S
H100 C123 0.950 . S
H101 C125 0.950 . S
H102 C126 0.950 . S
H103 C127 0.951 . S
H104 C129 0.951 . S
H105 C131 0.950 . S
H106 C132 0.950 . S
H107 C134 0.950 . S
H108 C137 0.950 . S
H109 C138 0.950 . S
H110 C140 0.950 . S
H111 C141 0.950 . S
C112 H94 0.951 . S
C112 C113 1.366 . S
C112 C114 1.388 . S
C113 C112 1.366 . S
C113 C117 1.385 1_554 S
C114 H95 0.951 . S
C114 C112 1.388 . S
C114 C115 1.366 . S
C115 C114 1.366 . S
C115 C116 1.407 1_554 S
C115 C118 1.499 . S
C116 H96 0.955 . S
C116 C115 1.407 1_556 S
C116 C117 1.376 . S
C117 H97 0.950 . S
C117 C113 1.385 1_556 S
C117 C116 1.376 . S
C118 C115 1.499 . S
C118 C119 1.373 . S
C118 C120 1.389 . S
C119 H98 0.950 1_554 S
C119 C118 1.373 . S
C119 C135 1.377 . S
C120 C118 1.389 . S
C120 C121 1.524 . S
C120 C134 1.377 . S
C121 C120 1.524 . S
C121 C122 1.397 . S
C121 C126 1.363 . S
C122 H99 0.950 . S
C122 C121 1.397 . S
C122 C123 1.334 . S
C123 H100 0.950 . S
C123 C122 1.334 . S
C123 C124 1.287 . S
C124 C123 1.287 . S
C124 C125 1.524 . S
C124 H143 0.913 . S
C125 H101 0.950 . S
C125 C124 1.524 . S
C125 C126 1.415 . S
C126 H102 0.950 . S
C126 C121 1.363 . S
C126 C125 1.415 . S
C127 H103 0.951 . S
C127 C128 1.366 . S
C127 C129 1.388 . S
C128 C127 1.366 . S
C128 C132 1.385 . S
C129 H104 0.951 . S
C129 C127 1.388 . S
C129 C130 1.366 . S
C130 C129 1.366 . S
C130 C131 1.414 . S
C130 C133 1.499 . S
C131 H105 0.950 . S
C131 C130 1.414 . S
C131 C132 1.374 . S
C132 H106 0.950 . S
C132 C128 1.385 . S
C132 C131 1.374 . S
C133 C130 1.499 . S
C133 C134 1.373 . S
C133 C135 1.389 . S
C134 H107 0.950 . S
C134 C120 1.377 . S
C134 C133 1.373 . S
C135 C119 1.377 . S
C135 C133 1.389 . S
C135 C136 1.524 1_554 S
C136 C135 1.524 1_556 S
C136 C137 1.397 1_556 S
C136 C141 1.363 . S
C137 H108 0.950 . S
C137 C136 1.397 1_554 S
C137 C138 1.334 1_554 S
C138 H109 0.950 . S
C138 C137 1.334 1_556 S
C138 C139 1.287 . S
C139 C138 1.287 . S
C139 C140 1.524 . S
C139 H142 0.999 . S
C140 H110 0.950 . S
C140 C139 1.524 . S
C140 C141 1.415 . S
C141 H111 0.950 . S
C141 C136 1.363 . S
C141 C140 1.415 . S
H142 C139 0.999 . S
H143 C124 0.913 . S
H144 C162 0.969 . S
H145 C164 0.951 . S
H146 C166 0.950 . S
H147 C167 0.950 . S
H148 C169 0.950 . S
H149 C172 0.950 . S
H150 C173 0.950 . S
H151 C175 0.950 . S
H152 C176 0.950 . S
H153 C177 0.951 . S
H154 C179 0.951 . S
H155 C181 0.950 . S
H156 C182 0.950 . S
H157 C184 0.950 . S
H158 C187 0.950 . S
H159 C188 0.950 . S
H160 C190 0.950 . S
H161 C191 0.950 . S
C162 H144 0.969 . S
C162 C163 1.360 1_554 S
C162 C164 1.377 1_554 S
C163 C162 1.360 1_556 S
C163 C167 1.385 . S
C164 H145 0.951 . S
C164 C162 1.377 1_556 S
C164 C165 1.366 . S
C165 C164 1.366 . S
C165 C166 1.414 . S
C165 C168 1.499 . S
C166 H146 0.950 . S
C166 C165 1.414 . S
C166 C167 1.374 . S
C167 H147 0.950 . S
C167 C163 1.385 . S
C167 C166 1.374 . S
C168 C165 1.499 . S
C168 C169 1.373 . S
C168 C170 1.389 . S
C169 H148 0.950 . S
C169 C168 1.373 . S
C169 C185 1.377 . S
C170 C168 1.389 . S
C170 C171 1.524 . S
C170 C184 1.377 . S
C171 C170 1.524 . S
C171 C172 1.397 . S
C171 C176 1.363 . S
C172 H149 0.950 . S
C172 C171 1.397 . S
C172 C173 1.334 . S
C173 H150 0.950 . S
C173 C172 1.334 . S
C173 C174 1.287 . S
C174 C173 1.287 . S
C174 C175 1.524 . S
C174 H193 0.913 . S
C175 H151 0.950 . S
C175 C174 1.524 . S
C175 C176 1.415 . S
C176 H152 0.950 . S
C176 C171 1.363 . S
C176 C175 1.415 . S
C177 H153 0.951 . S
C177 C178 1.366 . S
C177 C179 1.388 . S
C178 C177 1.366 . S
C178 C182 1.385 . S
C179 H154 0.951 . S
C179 C177 1.388 . S
C179 C180 1.366 . S
C180 C179 1.366 . S
C180 C181 1.414 . S
C180 C183 1.499 . S
C181 H155 0.950 . S
C181 C180 1.414 . S
C181 C182 1.374 . S
C182 H156 0.950 . S
C182 C178 1.385 . S
C182 C181 1.374 . S
C183 C180 1.499 . S
C183 C184 1.373 . S
C183 C185 1.389 . S
C184 H157 0.950 . S
C184 C170 1.377 . S
C184 C183 1.373 . S
C185 C169 1.377 . S
C185 C183 1.389 . S
C185 C186 1.524 . S
C186 C185 1.524 . S
C186 C187 1.397 1_556 S
C186 C191 1.363 . S
C187 H158 0.950 . S
C187 C186 1.397 1_554 S
C187 C188 1.334 . S
C188 H159 0.950 . S
C188 C187 1.334 . S
C188 C189 1.287 . S
C189 C188 1.287 . S
C189 C190 1.524 1_554 S
C189 H192 0.999 . S
C190 H160 0.950 . S
C190 C189 1.524 1_556 S
C190 C191 1.415 . S
C191 H161 0.950 . S
C191 C186 1.363 . S
C191 C190 1.415 . S
H192 C189 0.999 . S
H193 C174 0.913 . S
H194 C212 0.951 . S
H195 C214 0.951 . S
H196 C216 0.950 1_556 S
H197 C217 0.950 1_556 S
H198 C219 0.950 . S
H199 C222 0.950 . S
H200 C223 0.950 . S
H201 C225 0.950 . S
H202 C226 0.950 . S
H203 C227 0.951 . S
H204 C229 0.951 . S
H205 C231 0.950 . S
H206 C232 0.950 . S
H207 C234 0.950 . S
H208 C237 0.950 . S
H209 C238 0.950 . S
H210 C240 0.950 . S
H211 C241 0.950 . S
C212 H194 0.951 . S
C212 C213 1.366 . S
C212 C214 1.388 . S
C213 C212 1.366 . S
C213 C217 1.385 . S
C214 H195 0.951 . S
C214 C212 1.388 . S
C214 C215 1.366 . S
C215 C214 1.366 . S
C215 C216 1.414 . S
C215 C218 1.499 . S
C216 H196 0.950 1_554 S
C216 C215 1.414 . S
C216 C217 1.374 . S
C217 H197 0.950 1_554 S
C217 C213 1.385 . S
C217 C216 1.374 . S
C218 C215 1.499 . S
C218 C219 1.373 . S
C218 C220 1.389 . S
C219 H198 0.950 . S
C219 C218 1.373 . S
C219 C235 1.377 . S
C220 C218 1.389 . S
C220 C221 1.524 . S
C220 C234 1.377 . S
C221 C220 1.524 . S
C221 C222 1.397 . S
C221 C226 1.363 . S
C222 H199 0.950 . S
C222 C221 1.397 . S
C222 C223 1.334 . S
C223 H200 0.950 . S
C223 C222 1.334 . S
C223 C224 1.287 . S
C224 C223 1.287 . S
C224 C225 1.524 . S
C224 H243 0.913 . S
C225 H201 0.950 . S
C225 C224 1.524 . S
C225 C226 1.415 . S
C226 H202 0.950 . S
C226 C221 1.363 . S
C226 C225 1.415 . S
C227 H203 0.951 . S
C227 C228 1.366 . S
C227 C229 1.388 . S
C228 C227 1.366 . S
C228 C232 1.385 . S
C229 H204 0.951 . S
C229 C227 1.388 . S
C229 C230 1.366 . S
C230 C229 1.366 . S
C230 C231 1.414 . S
C230 C233 1.499 . S
C231 H205 0.950 . S
C231 C230 1.414 . S
C231 C232 1.374 . S
C232 H206 0.950 . S
C232 C228 1.385 . S
C232 C231 1.374 . S
C233 C230 1.499 . S
C233 C234 1.373 . S
C233 C235 1.389 . S
C234 H207 0.950 . S
C234 C220 1.377 . S
C234 C233 1.373 . S
C235 C219 1.377 . S
C235 C233 1.389 . S
C235 C236 1.524 . S
C236 C235 1.524 . S
C236 C237 1.397 . S
C236 C241 1.363 1_554 S
C237 H208 0.950 . S
C237 C236 1.397 . S
C237 C238 1.334 . S
C238 H209 0.950 . S
C238 C237 1.334 . S
C238 C239 1.287 1_554 S
C239 C238 1.287 1_556 S
C239 C240 1.524 . S
C239 H242 0.999 . S
C240 H210 0.950 . S
C240 C239 1.524 . S
C240 C241 1.415 . S
C241 H211 0.950 . S
C241 C236 1.363 1_556 S
C241 C240 1.415 . S
H242 C239 0.999 . S
H243 C224 0.913 . S
H244 C262 0.951 1_455 S
H245 C264 0.951 . S
H246 C266 0.950 . S
H247 C267 0.950 . S
H248 C269 0.950 . S
H249 C272 0.950 . S
H250 C273 0.950 . S
H251 C275 0.950 . S
H252 C276 0.944 1_556 S
H253 C277 0.951 . S
H254 C279 0.951 . S
H255 C281 0.950 . S
H256 C282 0.950 . S
H257 C284 0.950 . S
H258 C287 0.950 . S
H259 C288 0.950 . S
H260 C290 0.950 . S
H261 C291 0.950 . S
C262 H244 0.951 1_655 S
C262 C263 1.366 . S
C262 C264 1.388 . S
C263 C262 1.366 . S
C263 C267 1.385 . S
C264 H245 0.951 . S
C264 C262 1.388 . S
C264 C265 1.366 . S
C265 C264 1.366 . S
C265 C266 1.414 . S
C265 C268 1.499 . S
C266 H246 0.950 . S
C266 C265 1.414 . S
C266 C267 1.374 . S
C267 H247 0.950 . S
C267 C263 1.385 . S
C267 C266 1.374 . S
C268 C265 1.499 . S
C268 C269 1.373 . S
C268 C270 1.389 . S
C269 H248 0.950 . S
C269 C268 1.373 . S
C269 C285 1.377 . S
C270 C268 1.389 . S
C270 C271 1.524 1_556 S
C270 C284 1.377 . S
C271 C270 1.524 1_554 S
C271 C272 1.397 . S
C271 C276 1.362 . S
C272 H249 0.950 . S
C272 C271 1.397 . S
C272 C273 1.334 . S
C273 H250 0.950 . S
C273 C272 1.334 . S
C273 C274 1.287 . S
C274 C273 1.287 . S
C274 C275 1.524 . S
C274 H293 0.913 . S
C275 H251 0.950 . S
C275 C274 1.524 . S
C275 C276 1.422 . S
C276 H252 0.944 1_554 S
C276 C271 1.362 . S
C276 C275 1.422 . S
C277 H253 0.951 . S
C277 C278 1.366 . S
C277 C279 1.388 . S
C278 C277 1.366 . S
C278 C282 1.385 . S
C279 H254 0.951 . S
C279 C277 1.388 . S
C279 C280 1.366 . S
C280 C279 1.366 . S
C280 C281 1.414 . S
C280 C283 1.499 . S
C281 H255 0.950 . S
C281 C280 1.414 . S
C281 C282 1.374 . S
C282 H256 0.950 . S
C282 C278 1.385 . S
C282 C281 1.374 . S
C283 C280 1.499 . S
C283 C284 1.373 . S
C283 C285 1.389 . S
C284 H257 0.950 . S
C284 C270 1.377 . S
C284 C283 1.373 . S
C285 C269 1.377 . S
C285 C283 1.389 . S
C285 C286 1.524 . S
C286 C285 1.524 . S
C286 C287 1.397 . S
C286 C291 1.363 . S
C287 H258 0.950 . S
C287 C286 1.397 . S
C287 C288 1.334 . S
C288 H259 0.950 . S
C288 C287 1.334 . S
C288 C289 1.287 . S
C289 C288 1.287 . S
C289 C290 1.524 . S
C289 H292 0.999 . S
C290 H260 0.950 . S
C290 C289 1.524 . S
C290 C291 1.415 . S
C291 H261 0.950 . S
C291 C286 1.363 . S
C291 C290 1.415 . S
H292 C289 0.999 . S
H293 C274 0.913 . S
H294 C312 0.951 . S
H295 C314 0.951 . S
H296 C316 0.950 . S
H297 C317 0.950 . S
H298 C319 0.950 . S
H299 C322 0.950 . S
H300 C323 0.950 . S
H301 C325 0.950 . S
H302 C326 0.950 . S
H303 C327 0.951 . S
H304 C329 0.951 . S
H305 C331 0.950 . S
H306 C332 0.950 . S
H307 C334 0.950 . S
H308 C337 0.950 . S
H309 C338 0.950 . S
H310 C340 0.950 . S
H311 C341 0.950 . S
C312 H294 0.951 . S
C312 C313 1.366 . S
C312 C314 1.388 . S
C313 C312 1.366 . S
C313 C317 1.385 . S
C314 H295 0.951 . S
C314 C312 1.388 . S
C314 C315 1.366 . S
C315 C314 1.366 . S
C315 C316 1.414 . S
C315 C318 1.499 . S
C316 H296 0.950 . S
C316 C315 1.414 . S
C316 C317 1.374 . S
C317 H297 0.950 . S
C317 C313 1.385 . S
C317 C316 1.374 . S
C318 C315 1.499 . S
C318 C319 1.373 . S
C318 C320 1.389 . S
C319 H298 0.950 . S
C319 C318 1.373 . S
C319 C335 1.377 . S
C320 C318 1.389 . S
C320 C321 1.524 . S
C320 C334 1.377 . S
C321 C320 1.524 . S
C321 C322 1.397 . S
C321 C326 1.363 . S
C322 H299 0.950 . S
C322 C321 1.397 . S
C322 C323 1.334 . S
C323 H300 0.950 . S
C323 C322 1.334 . S
C323 C324 1.287 . S
C324 C323 1.287 . S
C324 C325 1.524 . S
C324 H343 0.913 . S
C325 H301 0.950 . S
C325 C324 1.524 . S
C325 C326 1.415 . S
C326 H302 0.950 . S
C326 C321 1.363 . S
C326 C325 1.415 . S
C327 H303 0.951 . S
C327 C328 1.366 . S
C327 C329 1.388 . S
C328 C327 1.366 . S
C328 C332 1.385 . S
C329 H304 0.951 . S
C329 C327 1.388 . S
C329 C330 1.366 . S
C330 C329 1.366 . S
C330 C331 1.414 . S
C330 C333 1.499 . S
C331 H305 0.950 . S
C331 C330 1.414 . S
C331 C332 1.374 . S
C332 H306 0.950 . S
C332 C328 1.385 . S
C332 C331 1.374 . S
C333 C330 1.499 . S
C333 C334 1.373 . S
C333 C335 1.389 . S
C334 H307 0.950 . S
C334 C320 1.377 . S
C334 C333 1.373 . S
C335 C319 1.377 . S
C335 C333 1.389 . S
C335 C336 1.524 . S
C336 C335 1.524 . S
C336 C337 1.397 . S
C336 C341 1.363 . S
C337 H308 0.950 . S
C337 C336 1.397 . S
C337 C338 1.334 . S
C338 H309 0.950 . S
C338 C337 1.334 . S
C338 C339 1.287 . S
C339 C338 1.287 . S
C339 C340 1.524 . S
C339 H342 0.999 . S
C340 H310 0.950 . S
C340 C339 1.524 . S
C340 C341 1.415 . S
C341 H311 0.950 . S
C341 C336 1.363 . S
C341 C340 1.415 . S
H342 C339 0.999 . S
H343 C324 0.913 . S
H344 C362 0.951 . S
H345 C364 0.951 . S
H346 C366 0.950 . S
H347 C367 0.950 . S
H348 C369 0.950 . S
H349 C372 0.950 . S
H350 C373 0.950 . S
H351 C375 0.950 . S
H352 C376 0.950 . S
H353 C377 0.951 . S
H354 C379 0.951 . S
H355 C381 0.950 . S
H356 C382 0.950 . S
H357 C384 0.950 . S
H358 C387 0.950 . S
H359 C388 0.950 . S
H360 C390 0.950 . S
H361 C391 0.950 . S
C362 H344 0.951 . S
C362 C363 1.366 . S
C362 C364 1.388 . S
C363 C362 1.366 . S
C363 C367 1.385 . S
C364 H345 0.951 . S
C364 C362 1.388 . S
C364 C365 1.366 . S
C365 C364 1.366 . S
C365 C366 1.414 . S
C365 C368 1.499 . S
C366 H346 0.950 . S
C366 C365 1.414 . S
C366 C367 1.374 . S
C367 H347 0.950 . S
C367 C363 1.385 . S
C367 C366 1.374 . S
C368 C365 1.499 . S
C368 C369 1.373 . S
C368 C370 1.389 . S
C369 H348 0.950 . S
C369 C368 1.373 . S
C369 C385 1.377 . S
C370 C368 1.389 . S
C370 C371 1.524 . S
C370 C384 1.377 . S
C371 C370 1.524 . S
C371 C372 1.397 . S
C371 C376 1.363 . S
C372 H349 0.950 . S
C372 C371 1.397 . S
C372 C373 1.334 . S
C373 H350 0.950 . S
C373 C372 1.334 . S
C373 C374 1.287 . S
C374 C373 1.287 . S
C374 C375 1.524 . S
C374 H393 0.913 . S
C375 H351 0.950 . S
C375 C374 1.524 . S
C375 C376 1.415 . S
C376 H352 0.950 . S
C376 C371 1.363 . S
C376 C375 1.415 . S
C377 H353 0.951 . S
C377 C378 1.366 . S
C377 C379 1.388 . S
C378 C377 1.366 . S
C378 C382 1.385 1_655 S
C379 H354 0.951 . S
C379 C377 1.388 . S
C379 C380 1.366 . S
C380 C379 1.366 . S
C380 C381 1.414 . S
C380 C383 1.499 . S
C381 H355 0.950 . S
C381 C380 1.414 . S
C381 C382 1.374 1_655 S
C382 H356 0.950 . S
C382 C378 1.385 1_455 S
C382 C381 1.374 1_455 S
C383 C380 1.499 . S
C383 C384 1.373 . S
C383 C385 1.389 . S
C384 H357 0.950 . S
C384 C370 1.377 . S
C384 C383 1.373 . S
C385 C369 1.377 . S
C385 C383 1.389 . S
C385 C386 1.524 . S
C386 C385 1.524 . S
C386 C387 1.397 . S
C386 C391 1.363 . S
C387 H358 0.950 . S
C387 C386 1.397 . S
C387 C388 1.334 . S
C388 H359 0.950 . S
C388 C387 1.334 . S
C388 C389 1.287 . S
C389 C388 1.287 . S
C389 C390 1.524 . S
C389 H392 0.999 1_545 S
C390 H360 0.950 . S
C390 C389 1.524 . S
C390 C391 1.415 . S
C391 H361 0.950 . S
C391 C386 1.363 . S
C391 C390 1.415 . S
H392 C389 0.999 1_565 S
H393 C374 0.913 . S
H394 C412 0.951 . S
H395 C414 0.951 . S
H396 C416 0.950 . S
H397 C417 0.950 . S
H398 C419 0.950 . S
H399 C422 0.950 . S
H400 C423 0.950 . S
H401 C425 0.950 . S
H402 C426 0.950 . S
H403 C427 0.951 . S
H404 C429 0.951 . S
H405 C431 0.950 . S
H406 C432 0.950 . S
H407 C434 0.950 . S
H408 C437 0.950 . S
H409 C438 0.950 . S
H410 C440 0.950 . S
H411 C441 0.950 . S
C412 H394 0.951 . S
C412 C413 1.366 . S
C412 C414 1.388 . S
C413 C412 1.366 . S
C413 C417 1.385 . S
C414 H395 0.951 . S
C414 C412 1.388 . S
C414 C415 1.366 . S
C415 C414 1.366 . S
C415 C416 1.414 . S
C415 C418 1.499 . S
C416 H396 0.950 . S
C416 C415 1.414 . S
C416 C417 1.374 . S
C417 H397 0.950 . S
C417 C413 1.385 . S
C417 C416 1.374 . S
C418 C415 1.499 . S
C418 C419 1.373 . S
C418 C420 1.389 . S
C419 H398 0.950 . S
C419 C418 1.373 . S
C419 C435 1.377 . S
C420 C418 1.389 . S
C420 C421 1.524 . S
C420 C434 1.377 . S
C421 C420 1.524 . S
C421 C422 1.397 . S
C421 C426 1.363 . S
C422 H399 0.950 . S
C422 C421 1.397 . S
C422 C423 1.334 . S
C423 H400 0.950 . S
C423 C422 1.334 . S
C423 C424 1.287 . S
C424 C423 1.287 . S
C424 C425 1.524 . S
C424 H443 0.913 . S
C425 H401 0.950 . S
C425 C424 1.524 . S
C425 C426 1.415 . S
C426 H402 0.950 . S
C426 C421 1.363 . S
C426 C425 1.415 . S
C427 H403 0.951 . S
C427 C428 1.366 . S
C427 C429 1.388 . S
C428 C427 1.366 . S
C428 C432 1.385 . S
C429 H404 0.951 . S
C429 C427 1.388 . S
C429 C430 1.366 . S
C430 C429 1.366 . S
C430 C431 1.414 . S
C430 C433 1.499 . S
C431 H405 0.950 . S
C431 C430 1.414 . S
C431 C432 1.374 . S
C432 H406 0.950 . S
C432 C428 1.385 . S
C432 C431 1.374 . S
C433 C430 1.499 . S
C433 C434 1.373 . S
C433 C435 1.389 . S
C434 H407 0.950 . S
C434 C420 1.377 . S
C434 C433 1.373 . S
C435 C419 1.377 . S
C435 C433 1.389 . S
C435 C436 1.524 . S
C436 C435 1.524 . S
C436 C437 1.397 . S
C436 C441 1.363 . S
C437 H408 0.950 . S
C437 C436 1.397 . S
C437 C438 1.334 . S
C438 H409 0.950 . S
C438 C437 1.334 . S
C438 C439 1.287 . S
C439 C438 1.287 . S
C439 C440 1.524 . S
C439 H442 0.999 . S
C440 H410 0.950 . S
C440 C439 1.524 . S
C440 C441 1.415 . S
C441 H411 0.950 . S
C441 C436 1.363 . S
C441 C440 1.415 . S
H442 C439 0.999 . S
H443 C424 0.913 . S
H444 C462 0.951 . S
H445 C464 0.951 . S
H446 C466 0.950 . S
H447 C467 0.950 . S
H448 C469 0.950 . S
H449 C472 0.950 . S
H450 C473 0.950 . S
H451 C475 0.950 . S
H452 C476 0.950 . S
H453 C477 0.951 1_545 S
H454 C479 0.951 . S
H455 C481 0.950 . S
H456 C482 0.950 . S
H457 C484 0.950 . S
H458 C487 0.950 . S
H459 C488 0.950 . S
H460 C490 0.950 . S
H461 C491 0.950 . S
C462 H444 0.951 . S
C462 C463 1.366 . S
C462 C464 1.388 . S
C463 C462 1.366 . S
C463 C467 1.385 . S
C464 H445 0.951 . S
C464 C462 1.388 . S
C464 C465 1.366 . S
C465 C464 1.366 . S
C465 C466 1.414 . S
C465 C468 1.499 . S
C466 H446 0.950 . S
C466 C465 1.414 . S
C466 C467 1.374 . S
C467 H447 0.950 . S
C467 C463 1.385 . S
C467 C466 1.374 . S
C468 C465 1.499 . S
C468 C469 1.373 . S
C468 C470 1.389 . S
C469 H448 0.950 . S
C469 C468 1.373 . S
C469 C485 1.377 . S
C470 C468 1.389 . S
C470 C471 1.524 . S
C470 C484 1.377 . S
C471 C470 1.524 . S
C471 C472 1.397 . S
C471 C476 1.363 . S
C472 H449 0.950 . S
C472 C471 1.397 . S
C472 C473 1.334 . S
C473 H450 0.950 . S
C473 C472 1.334 . S
C473 C474 1.287 . S
C474 C473 1.287 . S
C474 C475 1.524 . S
C474 H493 0.913 . S
C475 H451 0.950 . S
C475 C474 1.524 . S
C475 C476 1.415 . S
C476 H452 0.950 . S
C476 C471 1.363 . S
C476 C475 1.415 . S
C477 H453 0.951 1_565 S
C477 C478 1.366 . S
C477 C479 1.388 . S
C478 C477 1.366 . S
C478 C482 1.385 . S
C479 H454 0.951 . S
C479 C477 1.388 . S
C479 C480 1.366 . S
C480 C479 1.366 . S
C480 C481 1.414 . S
C480 C483 1.499 . S
C481 H455 0.950 . S
C481 C480 1.414 . S
C481 C482 1.374 . S
C482 H456 0.950 . S
C482 C478 1.385 . S
C482 C481 1.374 . S
C483 C480 1.499 . S
C483 C484 1.373 . S
C483 C485 1.389 . S
C484 H457 0.950 . S
C484 C470 1.377 . S
C484 C483 1.373 . S
C485 C469 1.377 . S
C485 C483 1.389 . S
C485 C486 1.524 . S
C486 C485 1.524 . S
C486 C487 1.397 . S
C486 C491 1.363 . S
C487 H458 0.950 . S
C487 C486 1.397 . S
C487 C488 1.334 . S
C488 H459 0.950 . S
C488 C487 1.334 . S
C488 C489 1.287 . S
C489 C488 1.287 . S
C489 C490 1.524 . S
C489 H492 0.999 . S
C490 H460 0.950 . S
C490 C489 1.524 . S
C490 C491 1.415 . S
C491 H461 0.950 . S
C491 C486 1.363 . S
C491 C490 1.415 . S
H492 C489 0.999 . S
H493 C474 0.913 . S
H494 C512 0.951 . S
H495 C514 0.951 . S
H496 C516 0.950 1_655 S
H497 C517 0.950 1_655 S
H498 C519 0.950 . S
H499 C522 0.950 . S
H500 C523 0.950 . S
H501 C525 0.950 . S
H502 C526 0.950 . S
H503 C527 0.934 1_655 S
H504 C529 0.951 1_655 S
H505 C531 0.945 1_565 S
H506 C532 0.950 . S
H507 C534 0.950 . S
H508 C537 0.950 . S
H509 C538 0.950 . S
H510 C540 0.950 . S
H511 C541 0.950 . S
C512 H494 0.951 . S
C512 C513 1.366 . S
C512 C514 1.388 . S
C513 C512 1.366 . S
C513 C517 1.385 . S
C514 H495 0.951 . S
C514 C512 1.388 . S
C514 C515 1.366 . S
C515 C514 1.366 . S
C515 C516 1.414 . S
C515 C518 1.499 . S
C516 H496 0.950 1_455 S
C516 C515 1.414 . S
C516 C517 1.374 . S
C517 H497 0.950 1_455 S
C517 C513 1.385 . S
C517 C516 1.374 . S
C518 C515 1.499 . S
C518 C519 1.373 1_565 S
C518 C520 1.389 . S
C519 H498 0.950 . S
C519 C518 1.373 1_545 S
C519 C535 1.377 . S
C520 C518 1.389 . S
C520 C521 1.524 . S
C520 C534 1.377 . S
C521 C520 1.524 . S
C521 C522 1.397 . S
C521 C526 1.363 . S
C522 H499 0.950 . S
C522 C521 1.397 . S
C522 C523 1.334 . S
C523 H500 0.950 . S
C523 C522 1.334 . S
C523 C524 1.287 . S
C524 C523 1.287 . S
C524 C525 1.524 . S
C524 H543 0.913 . S
C525 H501 0.950 . S
C525 C524 1.524 . S
C525 C526 1.415 . S
C526 H502 0.950 . S
C526 C521 1.363 . S
C526 C525 1.415 . S
C527 H503 0.934 1_455 S
C527 C528 1.366 . S
C527 C529 1.388 . S
C528 C527 1.366 . S
C528 C532 1.385 . S
C529 H504 0.951 1_455 S
C529 C527 1.388 . S
C529 C530 1.366 . S
C530 C529 1.366 . S
C530 C531 1.414 . S
C530 C533 1.496 1_545 S
C531 H505 0.945 1_545 S
C531 C530 1.414 . S
C531 C532 1.380 . S
C532 H506 0.950 . S
C532 C528 1.385 . S
C532 C531 1.380 . S
C533 C530 1.496 1_565 S
C533 C534 1.382 . S
C533 C535 1.384 1_565 S
C534 H507 0.950 . S
C534 C520 1.377 . S
C534 C533 1.382 . S
C535 C519 1.377 . S
C535 C533 1.384 1_545 S
C535 C536 1.524 . S
C536 C535 1.524 . S
C536 C537 1.397 . S
C536 C541 1.363 1_455 S
C537 H508 0.950 . S
C537 C536 1.397 . S
C537 C538 1.334 . S
C538 H509 0.950 . S
C538 C537 1.334 . S
C538 C539 1.287 1_455 S
C539 C538 1.287 1_655 S
C539 C540 1.524 . S
C539 H542 0.999 . S
C540 H510 0.950 . S
C540 C539 1.524 . S
C540 C541 1.415 . S
C541 H511 0.950 . S
C541 C536 1.363 1_655 S
C541 C540 1.415 . S
H542 C539 0.999 . S
H543 C524 0.913 . S
H544 C562 0.951 . S
H545 C564 0.951 . S
H546 C566 0.950 . S
H547 C567 0.950 . S
H548 C569 0.950 . S
H549 C572 0.950 . S
H550 C573 0.950 . S
H551 C575 0.950 . S
H552 C576 0.950 . S
H553 C577 0.951 1_655 S
H554 C579 0.951 . S
H555 C581 0.950 . S
H556 C582 0.950 . S
H557 C584 0.950 1_655 S
H558 C587 0.950 . S
H559 C588 0.950 . S
H560 C590 0.950 . S
H561 C591 0.950 . S
C562 H544 0.951 . S
C562 C563 1.366 1_545 S
C562 C564 1.388 . S
C563 C562 1.366 1_565 S
C563 C567 1.385 . S
C564 H545 0.951 . S
C564 C562 1.388 . S
C564 C565 1.347 1_545 S
C565 C564 1.347 1_565 S
C565 C566 1.431 . S
C565 C568 1.501 1_565 S
C566 H546 0.950 . S
C566 C565 1.431 . S
C566 C567 1.374 . S
C567 H547 0.950 . S
C567 C563 1.385 . S
C567 C566 1.374 . S
C568 C565 1.501 1_545 S
C568 C569 1.373 1_545 S
C568 C570 1.389 . S
C569 H548 0.950 . S
C569 C568 1.373 1_565 S
C569 C585 1.377 . S
C570 C568 1.389 . S
C570 C571 1.524 1_455 S
C570 C584 1.377 . S
C571 C570 1.524 1_655 S
C571 C572 1.397 . S
C571 C576 1.363 . S
C572 H549 0.950 . S
C572 C571 1.397 . S
C572 C573 1.334 . S
C573 H550 0.950 . S
C573 C572 1.334 . S
C573 C574 1.287 . S
C574 C573 1.287 . S
C574 C575 1.524 . S
C574 H593 0.913 . S
C575 H551 0.950 . S
C575 C574 1.524 . S
C575 C576 1.415 . S
C576 H552 0.950 . S
C576 C571 1.363 . S
C576 C575 1.415 . S
C577 H553 0.951 1_455 S
C577 C578 1.366 1_565 S
C577 C579 1.388 . S
C578 C577 1.366 1_545 S
C578 C582 1.385 . S
C579 H554 0.951 . S
C579 C577 1.388 . S
C579 C580 1.366 1_565 S
C580 C579 1.366 1_545 S
C580 C581 1.414 . S
C580 C583 1.499 . S
C581 H555 0.950 . S
C581 C580 1.414 . S
C581 C582 1.374 . S
C582 H556 0.950 . S
C582 C578 1.385 . S
C582 C581 1.374 . S
C583 C580 1.499 . S
C583 C584 1.373 . S
C583 C585 1.389 1_545 S
C584 H557 0.950 1_455 S
C584 C570 1.377 . S
C584 C583 1.373 . S
C585 C569 1.377 . S
C585 C583 1.389 1_565 S
C585 C586 1.524 . S
C586 C585 1.524 . S
C586 C587 1.397 . S
C586 C591 1.363 . S
C587 H558 0.950 . S
C587 C586 1.397 . S
C587 C588 1.334 . S
C588 H559 0.950 . S
C588 C587 1.334 . S
C588 C589 1.287 . S
C589 C588 1.287 . S
C589 C590 1.524 . S
C589 H592 0.999 . S
C590 H560 0.950 . S
C590 C589 1.524 . S
C590 C591 1.415 . S
C591 H561 0.950 . S
C591 C586 1.363 . S
C591 C590 1.415 . S
H592 C589 0.999 . S
H593 C574 0.913 . S
H594 C612 0.951 . S
H595 C614 0.951 . S
H596 C616 0.950 . S
H597 C617 0.950 . S
H598 C619 0.950 . S
H599 C622 0.950 . S
H600 C623 0.950 . S
H601 C625 0.950 . S
H602 C626 0.950 . S
H603 C627 0.951 . S
H604 C629 0.951 . S
H605 C631 0.950 . S
H606 C632 0.950 . S
H607 C634 0.950 . S
H608 C637 0.950 . S
H609 C638 0.950 . S
H610 C640 0.950 . S
H611 C641 0.950 . S
C612 H594 0.951 . S
C612 C613 1.366 . S
C612 C614 1.388 . S
C613 C612 1.366 . S
C613 C617 1.385 . S
C614 H595 0.951 . S
C614 C612 1.388 . S
C614 C615 1.366 . S
C615 C614 1.366 . S
C615 C616 1.414 . S
C615 C618 1.499 . S
C616 H596 0.950 . S
C616 C615 1.414 . S
C616 C617 1.374 . S
C617 H597 0.950 . S
C617 C613 1.385 . S
C617 C616 1.374 . S
C618 C615 1.499 . S
C618 C619 1.373 . S
C618 C620 1.389 . S
C619 H598 0.950 . S
C619 C618 1.373 . S
C619 C635 1.377 . S
C620 C618 1.389 . S
C620 C621 1.524 . S
C620 C634 1.377 . S
C621 C620 1.524 . S
C621 C622 1.397 . S
C621 C626 1.363 . S
C622 H599 0.950 . S
C622 C621 1.397 . S
C622 C623 1.334 . S
C623 H600 0.950 . S
C623 C622 1.334 . S
C623 C624 1.287 . S
C624 C623 1.287 . S
C624 C625 1.524 . S
C624 H643 0.913 . S
C625 H601 0.950 . S
C625 C624 1.524 . S
C625 C626 1.415 . S
C626 H602 0.950 . S
C626 C621 1.363 . S
C626 C625 1.415 . S
C627 H603 0.951 . S
C627 C628 1.366 . S
C627 C629 1.388 . S
C628 C627 1.366 . S
C628 C632 1.385 . S
C629 H604 0.951 . S
C629 C627 1.388 . S
C629 C630 1.366 . S
C630 C629 1.366 . S
C630 C631 1.414 . S
C630 C633 1.499 . S
C631 H605 0.950 . S
C631 C630 1.414 . S
C631 C632 1.374 . S
C632 H606 0.950 . S
C632 C628 1.385 . S
C632 C631 1.374 . S
C633 C630 1.499 . S
C633 C634 1.373 . S
C633 C635 1.389 . S
C634 H607 0.950 . S
C634 C620 1.377 . S
C634 C633 1.373 . S
C635 C619 1.377 . S
C635 C633 1.389 . S
C635 C636 1.524 . S
C636 C635 1.524 . S
C636 C637 1.397 . S
C636 C641 1.363 . S
C637 H608 0.950 . S
C637 C636 1.397 . S
C637 C638 1.334 . S
C638 H609 0.950 . S
C638 C637 1.334 . S
C638 C639 1.287 . S
C639 C638 1.287 . S
C639 C640 1.524 . S
C639 H642 0.999 . S
C640 H610 0.950 . S
C640 C639 1.524 . S
C640 C641 1.415 . S
C641 H611 0.950 . S
C641 C636 1.363 . S
C641 C640 1.415 . S
H642 C639 0.999 . S
H643 C624 0.913 . S
H644 C662 0.951 . S
H645 C664 0.951 . S
H646 C666 0.950 . S
H647 C667 0.950 . S
H648 C669 0.950 . S
H649 C672 0.950 . S
H650 C673 0.950 . S
H651 C675 0.950 . S
H652 C676 0.950 . S
H653 C677 0.951 . S
H654 C679 0.951 . S
H655 C681 0.950 . S
H656 C682 0.950 . S
H657 C684 0.950 . S
H658 C687 0.950 . S
H659 C688 0.950 . S
H660 C690 0.950 . S
H661 C691 0.950 . S
C662 H644 0.951 . S
C662 C663 1.366 . S
C662 C664 1.388 . S
C663 C662 1.366 . S
C663 C667 1.385 . S
C664 H645 0.951 . S
C664 C662 1.388 . S
C664 C665 1.366 . S
C665 C664 1.366 . S
C665 C666 1.414 . S
C665 C668 1.499 . S
C666 H646 0.950 . S
C666 C665 1.414 . S
C666 C667 1.374 . S
C667 H647 0.950 . S
C667 C663 1.385 . S
C667 C666 1.374 . S
C668 C665 1.499 . S
C668 C669 1.373 . S
C668 C670 1.389 . S
C669 H648 0.950 . S
C669 C668 1.373 . S
C669 C685 1.377 . S
C670 C668 1.389 . S
C670 C671 1.524 . S
C670 C684 1.377 . S
C671 C670 1.524 . S
C671 C672 1.397 . S
C671 C676 1.363 . S
C672 H649 0.950 . S
C672 C671 1.397 . S
C672 C673 1.334 . S
C673 H650 0.950 . S
C673 C672 1.334 . S
C673 C674 1.287 . S
C674 C673 1.287 . S
C674 C675 1.524 . S
C674 H693 0.913 . S
C675 H651 0.950 . S
C675 C674 1.524 . S
C675 C676 1.415 . S
C676 H652 0.950 . S
C676 C671 1.363 . S
C676 C675 1.415 . S
C677 H653 0.951 . S
C677 C678 1.366 . S
C677 C679 1.388 . S
C678 C677 1.366 . S
C678 C682 1.385 . S
C679 H654 0.951 . S
C679 C677 1.388 . S
C679 C680 1.366 . S
C680 C679 1.366 . S
C680 C681 1.414 . S
C680 C683 1.499 . S
C681 H655 0.950 . S
C681 C680 1.414 . S
C681 C682 1.374 . S
C682 H656 0.950 . S
C682 C678 1.385 . S
C682 C681 1.374 . S
C683 C680 1.499 . S
C683 C684 1.373 . S
C683 C685 1.389 . S
C684 H657 0.950 . S
C684 C670 1.377 . S
C684 C683 1.373 . S
C685 C669 1.377 . S
C685 C683 1.389 . S
C685 C686 1.524 . S
C686 C685 1.524 . S
C686 C687 1.397 . S
C686 C691 1.363 . S
C687 H658 0.950 . S
C687 C686 1.397 . S
C687 C688 1.334 . S
C688 H659 0.950 . S
C688 C687 1.334 . S
C688 C689 1.287 . S
C689 C688 1.287 . S
C689 C690 1.524 . S
C689 H692 0.999 . S
C690 H660 0.950 . S
C690 C689 1.524 . S
C690 C691 1.415 . S
C691 H661 0.950 . S
C691 C686 1.363 . S
C691 C690 1.415 . S
H692 C689 0.999 . S
H693 C674 0.913 . S
C128 N83 1.146 . S
C113 C3 1.036 . S
C163 C4 1.431 1_556 S
C178 N70 1.509 . S
C213 C19 1.581 . S
C228 N82 1.712 . S
C263 C7 1.152 . S
C278 N69 1.305 . S
C313 C37 1.037 . S
C328 N57 1.146 . S
C363 C28 1.431 . S
C378 N44 1.509 1_655 S
C428 N56 1.712 . S
C413 C41 1.581 . S
C478 N43 1.305 1_565 S
C463 C25 1.153 . S
C513 C20 1.337 . S
C528 N47 1.488 . S
C563 C16 1.354 . S
C578 N60 1.473 . S
C628 N73 1.488 . S
C613 C40 1.337 . S
C663 C24 1.354 . S
C678 N86 1.473 . S
