# Generated by pormake.
# Topology pyr, (3,6)-cn, num edge types: 1
# Building blocks:
#     Node 0, Type 0, BuildingBlock: BELTOD_clean_linker_0, # of connection points: 3
#     Node 1, Type 0, BuildingBlock: BELTOD_clean_linker_0, # of connection points: 3
#     Node 2, Type 0, BuildingBlock: BELTOD_clean_linker_0, # of connection points: 3
#     Node 3, Type 0, BuildingBlock: BELTOD_clean_linker_0, # of connection points: 3
#     Node 4, Type 0, BuildingBlock: BELTOD_clean_linker_0, # of connection points: 3
#     Node 5, Type 0, BuildingBlock: BELTOD_clean_linker_0, # of connection points: 3
#     Node 6, Type 0, BuildingBlock: BELTOD_clean_linker_0, # of connection points: 3
#     Node 7, Type 0, BuildingBlock: BELTOD_clean_linker_0, # of connection points: 3
#     Node 8, Type 1, BuildingBlock: VOLQOD_clean_sbu_1, # of connection points: 6
#     Node 9, Type 1, BuildingBlock: VOLQOD_clean_sbu_1, # of connection points: 6
#     Node 10, Type 1, BuildingBlock: VOLQOD_clean_sbu_1, # of connection points: 6
#     Node 11, Type 1, BuildingBlock: VOLQOD_clean_sbu_1, # of connection points: 6
#     Edge 12, Type (0, 1), BuildingBlock: TEMPAE_clean_linker_10, # of connection points: 2
#     Edge 13, Type (0, 1), BuildingBlock: TEMPAE_clean_linker_10, # of connection points: 2
#     Edge 14, Type (0, 1), BuildingBlock: TEMPAE_clean_linker_10, # of connection points: 2
#     Edge 15, Type (0, 1), BuildingBlock: TEMPAE_clean_linker_10, # of connection points: 2
#     Edge 16, Type (0, 1), BuildingBlock: TEMPAE_clean_linker_10, # of connection points: 2
#     Edge 17, Type (0, 1), BuildingBlock: TEMPAE_clean_linker_10, # of connection points: 2
#     Edge 18, Type (0, 1), BuildingBlock: TEMPAE_clean_linker_10, # of connection points: 2
#     Edge 19, Type (0, 1), BuildingBlock: TEMPAE_clean_linker_10, # of connection points: 2
#     Edge 20, Type (0, 1), BuildingBlock: TEMPAE_clean_linker_10, # of connection points: 2
#     Edge 21, Type (0, 1), BuildingBlock: TEMPAE_clean_linker_10, # of connection points: 2
#     Edge 22, Type (0, 1), BuildingBlock: TEMPAE_clean_linker_10, # of connection points: 2
#     Edge 23, Type (0, 1), BuildingBlock: TEMPAE_clean_linker_10, # of connection points: 2
#     Edge 24, Type (0, 1), BuildingBlock: TEMPAE_clean_linker_10, # of connection points: 2
#     Edge 25, Type (0, 1), BuildingBlock: TEMPAE_clean_linker_10, # of connection points: 2
#     Edge 26, Type (0, 1), BuildingBlock: TEMPAE_clean_linker_10, # of connection points: 2
#     Edge 27, Type (0, 1), BuildingBlock: TEMPAE_clean_linker_10, # of connection points: 2
#     Edge 28, Type (0, 1), BuildingBlock: TEMPAE_clean_linker_10, # of connection points: 2
#     Edge 29, Type (0, 1), BuildingBlock: TEMPAE_clean_linker_10, # of connection points: 2
#     Edge 30, Type (0, 1), BuildingBlock: TEMPAE_clean_linker_10, # of connection points: 2
#     Edge 31, Type (0, 1), BuildingBlock: TEMPAE_clean_linker_10, # of connection points: 2
#     Edge 32, Type (0, 1), BuildingBlock: TEMPAE_clean_linker_10, # of connection points: 2
#     Edge 33, Type (0, 1), BuildingBlock: TEMPAE_clean_linker_10, # of connection points: 2
#     Edge 34, Type (0, 1), BuildingBlock: TEMPAE_clean_linker_10, # of connection points: 2
#     Edge 35, Type (0, 1), BuildingBlock: TEMPAE_clean_linker_10, # of connection points: 2
# Relax obj value: 0.036
# Max RMSD: 0.117
# Mean RMSD: 0.050
data_MOF--net-pry--node1-VOLQOD_clean_sbu_1--node2-BELTOD_clean_linker_0--edge1-TEMPAE_clean_linker_10
_symmetry_space_group_name_H-M    P1
_symmetry_Int_Tables_number       1
_symmetry_cell_setting            triclinic
loop_
_symmetry_equiv_pos_as_xyz
'x, y, z'
_cell_length_a     42.51856
_cell_length_b     42.842721
_cell_length_c     42.396564
_cell_angle_alpha  89.972457
_cell_angle_beta   90.168796
_cell_angle_gamma 90.114806
loop_
_atom_site_label
_atom_site_type_symbol
_atom_site_fract_x
_atom_site_fract_y
_atom_site_fract_z
_atom_type_partial_charge
P0 P 0.15739 0.16833 0.18858 0.0
H1 H 0.21655 0.18753 0.16111 0.0
H2 H 0.25487 0.16095 0.12797 0.0
H3 H 0.19436 0.07976 0.12438 0.0
H4 H 0.15537 0.1073 0.15615 0.0
H5 H 0.16769 0.23519 0.18361 0.0
H6 H 0.14181 0.27624 0.1538 0.0
H7 H 0.07663 0.20854 0.11528 0.0
H8 H 0.10388 0.16707 0.14444 0.0
H9 H 0.16964 0.10917 0.21939 0.0
H10 H 0.09006 0.16997 0.20558 0.0
O11 O 0.17934 0.18541 0.21637 0.0
H12 H 0.13848 0.07643 0.25435 0.0
H13 H 0.0583 0.13666 0.23969 0.0
C14 C 0.1837 0.14897 0.16195 0.0
C15 C 0.21148 0.16407 0.15301 0.0
C16 C 0.23344 0.14875 0.1342 0.0
C17 C 0.22808 0.1179 0.12412 0.0
C18 C 0.19931 0.10346 0.13175 0.0
C19 C 0.17713 0.11904 0.15027 0.0
C20 C 0.13704 0.19827 0.167 0.0
C21 C 0.14767 0.22914 0.16899 0.0
C22 C 0.13271 0.25268 0.15198 0.0
C23 C 0.10668 0.24586 0.1326 0.0
C24 C 0.09657 0.21463 0.12999 0.0
C25 C 0.11189 0.19096 0.14685 0.0
C26 C 0.13198 0.14149 0.20904 0.0
C27 C 0.14509 0.11484 0.22296 0.0
C28 C 0.12716 0.09605 0.24292 0.0
C29 C 0.09575 0.10374 0.24969 0.0
C30 C 0.08243 0.1301 0.23504 0.0
C31 C 0.1005 0.149 0.21517 0.0
P32 P 0.42765 0.91696 0.59648 0.0
H33 H 0.48539 0.93259 0.63045 0.0
H34 H 0.49669 0.94218 0.6863 0.0
H35 H 0.39862 0.92689 0.70826 0.0
H36 H 0.38783 0.91637 0.65283 0.0
H37 H 0.44109 0.88656 0.53666 0.0
H38 H 0.44863 0.83187 0.52195 0.0
H39 H 0.44042 0.80517 0.61992 0.0
H40 H 0.43216 0.85967 0.63426 0.0
H41 H 0.3924 0.97489 0.59205 0.0
H42 H 0.37284 0.87625 0.58539 0.0
O43 O 0.44964 0.94076 0.57448 0.0
H44 H 0.33628 0.98613 0.58539 0.0
H45 H 0.31698 0.88729 0.57886 0.0
C46 C 0.4357 0.92447 0.63745 0.0
C47 C 0.46637 0.93144 0.64735 0.0
C48 C 0.47274 0.93702 0.67923 0.0
C49 C 0.44851 0.93551 0.70173 0.0
C50 C 0.41788 0.92799 0.69163 0.0
C51 C 0.4116 0.92231 0.65982 0.0
C52 C 0.43674 0.87721 0.58657 0.0
C53 C 0.44138 0.86893 0.55497 0.0
C54 C 0.44569 0.83769 0.54662 0.0
C55 C 0.44517 0.81417 0.56978 0.0
C56 C 0.44064 0.82267 0.60148 0.0
C57 C 0.43628 0.85391 0.60977 0.0
C58 C 0.38686 0.92484 0.58858 0.0
C59 C 0.37609 0.95571 0.58875 0.0
C60 C 0.34404 0.96206 0.58524 0.0
C61 C 0.32229 0.93756 0.58153 0.0
C62 C 0.33325 0.90665 0.58121 0.0
C63 C 0.36525 0.90033 0.58492 0.0
P64 P 0.66439 0.34274 0.84643 0.0
H65 H 0.72018 0.32402 0.88049 0.0
H66 H 0.75854 0.35265 0.9122 0.0
H67 H 0.70295 0.43648 0.90212 0.0
H68 H 0.66387 0.40718 0.87169 0.0
H69 H 0.6715 0.27546 0.85236 0.0
H70 H 0.64207 0.23571 0.88051 0.0
H71 H 0.57999 0.30668 0.91735 0.0
H72 H 0.61099 0.34679 0.89013 0.0
H73 H 0.67825 0.39803 0.80945 0.0
H74 H 0.59677 0.34133 0.82973 0.0
O75 O 0.68748 0.32427 0.82075 0.0
H76 H 0.64719 0.42865 0.77196 0.0
H77 H 0.56568 0.37208 0.79269 0.0
C78 C 0.68977 0.3637 0.87297 0.0
C79 C 0.71611 0.34849 0.88541 0.0
C80 C 0.7381 0.36495 0.90335 0.0
C81 C 0.73422 0.39706 0.90905 0.0
C82 C 0.70671 0.41181 0.89811 0.0
C83 C 0.6845 0.39515 0.88038 0.0
C84 C 0.6428 0.31394 0.8684 0.0
C85 C 0.65155 0.28255 0.86643 0.0
C86 C 0.63449 0.25975 0.88242 0.0
C87 C 0.60808 0.26783 0.90058 0.0
C88 C 0.60011 0.29958 0.90352 0.0
C89 C 0.61762 0.32251 0.88781 0.0
C90 C 0.63969 0.368 0.8232 0.0
C91 C 0.65349 0.39272 0.80654 0.0
C92 C 0.63582 0.41005 0.78501 0.0
C93 C 0.60402 0.40281 0.77963 0.0
C94 C 0.59 0.37852 0.79687 0.0
C95 C 0.60781 0.36098 0.81819 0.0
P96 P 0.86266 0.65317 0.38864 0.0
H97 H 0.90664 0.70221 0.37512 0.0
H98 H 0.94326 0.73189 0.40763 0.0
H99 H 0.92244 0.67225 0.4871 0.0
H100 H 0.88646 0.64165 0.45386 0.0
H101 H 0.8674 0.67127 0.32253 0.0
H102 H 0.89189 0.64687 0.27706 0.0
H103 H 0.92377 0.57084 0.3361 0.0
H104 H 0.89999 0.59628 0.38202 0.0
H105 H 0.831 0.65571 0.44974 0.0
H106 H 0.83384 0.59398 0.36935 0.0
O107 O 0.84002 0.68226 0.37561 0.0
H108 H 0.78842 0.62446 0.47239 0.0
H109 H 0.79099 0.56336 0.3916 0.0
C110 C 0.89306 0.67047 0.41236 0.0
C111 C 0.9104 0.69507 0.39936 0.0
C112 C 0.93155 0.71184 0.4179 0.0
C113 C 0.93556 0.70442 0.44993 0.0
C114 C 0.91955 0.67852 0.46251 0.0
C115 C 0.89874 0.6613 0.44363 0.0
C116 C 0.88134 0.63517 0.35542 0.0
C117 C 0.87958 0.64934 0.32574 0.0
C118 C 0.89347 0.63524 0.29969 0.0
C119 C 0.90929 0.6066 0.30283 0.0
C120 C 0.91179 0.5929 0.3329 0.0
C121 C 0.89808 0.60726 0.35908 0.0
C122 C 0.8367 0.62647 0.40851 0.0
C123 C 0.82349 0.63474 0.43761 0.0
C124 C 0.79906 0.61702 0.45046 0.0
C125 C 0.7868 0.59143 0.4338 0.0
C126 C 0.80037 0.58282 0.40499 0.0
C127 C 0.82506 0.60025 0.39241 0.0
P128 P 0.92418 0.94017 0.95906 0.0
H129 H 0.89045 0.96256 0.0147 0.0
H130 H 0.83433 0.9695 0.02595 0.0
H131 H 0.81144 0.93633 0.93248 0.0
H132 H 0.86713 0.92925 0.92148 0.0
H133 H 0.97466 0.90014 0.93588 0.0
H134 H 0.98725 0.84545 0.9444 0.0
H135 H 0.91305 0.83933 0.01379 0.0
H136 H 0.89922 0.89353 0.00333 0.0
H137 H 0.94565 0.99631 0.92586 0.0
H138 H 0.91753 0.90247 0.90195 0.0
O139 O 0.94568 0.96415 0.98144 0.0
H140 H 0.95473 0.00758 0.86994 0.0
H141 H 0.92728 0.91321 0.84639 0.0
C142 C 0.88305 0.94614 0.96699 0.0
C143 C 0.87333 0.95703 0.99657 0.0
C144 C 0.84132 0.96077 0.00305 0.0
C145 C 0.8186 0.95373 0.97995 0.0
C146 C 0.82847 0.94246 0.95051 0.0
C147 C 0.86038 0.93843 0.9442 0.0
C148 C 0.93521 0.90058 0.96801 0.0
C149 C 0.96086 0.88692 0.95267 0.0
C150 C 0.96833 0.85564 0.95794 0.0
C151 C 0.95095 0.83763 0.97955 0.0
C152 C 0.92636 0.85208 0.99626 0.0
C153 C 0.91852 0.88323 0.99046 0.0
C154 C 0.93158 0.94838 0.91808 0.0
C155 C 0.94175 0.97806 0.90862 0.0
C156 C 0.94699 0.98443 0.8767 0.0
C157 C 0.94182 0.96125 0.85375 0.0
C158 C 0.93119 0.93167 0.8634 0.0
C159 C 0.92596 0.92539 0.89523 0.0
P160 P 0.63164 0.13172 0.38466 0.0
H161 H 0.6504 0.18971 0.41371 0.0
H162 H 0.62168 0.22942 0.44283 0.0
H163 H 0.53913 0.1704 0.4429 0.0
H164 H 0.56831 0.13041 0.41378 0.0
H165 H 0.69758 0.14813 0.39029 0.0
H166 H 0.74203 0.12377 0.41633 0.0
H167 H 0.68086 0.051 0.45172 0.0
H168 H 0.63577 0.07716 0.42713 0.0
H169 H 0.57322 0.14143 0.35101 0.0
H170 H 0.63535 0.06417 0.36997 0.0
O171 O 0.64723 0.15408 0.35647 0.0
H172 H 0.54406 0.10957 0.31366 0.0
H173 H 0.60499 0.03142 0.33439 0.0
C174 C 0.61125 0.15756 0.41091 0.0
C175 C 0.62629 0.18506 0.42046 0.0
C176 C 0.60987 0.20766 0.43731 0.0
C177 C 0.57804 0.20313 0.44497 0.0
C178 C 0.56352 0.17466 0.43696 0.0
C179 C 0.58015 0.15186 0.42027 0.0
C180 C 0.66363 0.11364 0.4056 0.0
C181 C 0.69365 0.1269 0.40358 0.0
C182 C 0.71919 0.11275 0.41837 0.0
C183 C 0.71535 0.08475 0.43529 0.0
C184 C 0.68481 0.07239 0.4387 0.0
C185 C 0.65905 0.08708 0.42437 0.0
C186 C 0.60595 0.10508 0.36413 0.0
C187 C 0.57972 0.11715 0.34826 0.0
C188 C 0.56292 0.09874 0.32691 0.0
C189 C 0.57207 0.06776 0.32089 0.0
C190 C 0.59744 0.05525 0.33812 0.0
C191 C 0.61458 0.07391 0.35906 0.0
P192 P 0.43361 0.57292 0.07652 0.0
H193 H 0.39824 0.56089 0.01888 0.0
H194 H 0.34201 0.55383 0.00831 0.0
H195 H 0.32307 0.56049 0.10817 0.0
H196 H 0.3791 0.56714 0.11853 0.0
H197 H 0.49068 0.6081 0.06247 0.0
H198 H 0.50062 0.66378 0.05332 0.0
H199 H 0.40147 0.68257 0.06446 0.0
H200 H 0.39173 0.62725 0.07335 0.0
H201 H 0.44989 0.51543 0.10955 0.0
H202 H 0.43777 0.61269 0.13271 0.0
O203 O 0.45591 0.55107 0.05295 0.0
H204 H 0.46057 0.50378 0.16516 0.0
H205 H 0.44804 0.60123 0.18809 0.0
C206 C 0.3929 0.56381 0.06949 0.0
C207 C 0.38199 0.56023 0.0385 0.0
C208 C 0.34986 0.55654 0.03248 0.0
C209 C 0.32813 0.55656 0.05743 0.0
C210 C 0.33926 0.55987 0.08851 0.0
C211 C 0.37136 0.56364 0.09446 0.0
C212 C 0.44043 0.61345 0.06782 0.0
C213 C 0.47109 0.62422 0.06254 0.0
C214 C 0.47675 0.65601 0.05758 0.0
C215 C 0.45177 0.67748 0.05796 0.0
C216 C 0.4211 0.66653 0.06343 0.0
C217 C 0.41552 0.63483 0.06852 0.0
C218 C 0.44376 0.56497 0.11693 0.0
C219 C 0.4499 0.5343 0.12654 0.0
C220 C 0.45573 0.52765 0.15831 0.0
C221 C 0.45533 0.55163 0.18096 0.0
C222 C 0.44912 0.58236 0.17113 0.0
C223 C 0.44322 0.58893 0.13942 0.0
P224 P 0.11346 0.38916 0.62832 0.0
H225 H 0.12911 0.34716 0.57707 0.0
H226 H 0.10163 0.30176 0.55548 0.0
H227 H 0.01948 0.32512 0.61008 0.0
H228 H 0.04658 0.37101 0.63092 0.0
H229 H 0.16364 0.43082 0.64576 0.0
H230 H 0.20192 0.46016 0.61524 0.0
H231 H 0.15299 0.43524 0.52929 0.0
H232 H 0.11456 0.40564 0.56031 0.0
H233 H 0.08614 0.36958 0.68739 0.0
H234 H 0.09039 0.45403 0.63213 0.0
O235 O 0.13887 0.36707 0.64839 0.0
H236 H 0.05949 0.39761 0.72949 0.0
H237 H 0.06354 0.48246 0.67445 0.0
C238 C 0.08993 0.36254 0.60552 0.0
C239 C 0.10473 0.34331 0.58336 0.0
C240 C 0.08904 0.31737 0.57105 0.0
C241 C 0.05856 0.30999 0.5813 0.0
C242 C 0.04303 0.33039 0.60192 0.0
C243 C 0.05858 0.35661 0.61384 0.0
C244 C 0.13681 0.41553 0.60524 0.0
C245 C 0.16078 0.43219 0.6204 0.0
C246 C 0.18251 0.4492 0.60288 0.0
C247 C 0.18062 0.44989 0.56977 0.0
C248 C 0.15525 0.4348 0.55474 0.0
C249 C 0.13334 0.41783 0.57242 0.0
C250 C 0.09067 0.40987 0.65702 0.0
C251 C 0.08098 0.39413 0.68423 0.0
C252 C 0.06548 0.41013 0.70813 0.0
C253 C 0.05943 0.44225 0.70524 0.0
C254 C 0.06811 0.45776 0.67734 0.0
C255 C 0.08345 0.44157 0.65322 0.0
O256 O 0.99178 0.06916 0.55946 0.0
Zn257 Zn 0.97801 0.02434 0.56101 0.0
O258 O 0.00655 0.99748 0.53737 0.0
Zn259 Zn 0.98394 0.97959 0.5013 0.0
Zn260 Zn 0.04182 0.02238 0.52242 0.0
Zn261 Zn 0.02275 0.96424 0.56472 0.0
O262 O 0.98562 0.93286 0.50326 0.0
O263 O 0.01035 0.92184 0.54813 0.0
O264 O 0.9344 0.02328 0.54296 0.0
O265 O 0.93811 0.99179 0.50157 0.0
O266 O 0.00235 0.99411 0.45965 0.0
O267 O 0.04315 0.02254 0.47537 0.0
O268 O 0.08311 0.00578 0.53762 0.0
O269 O 0.97592 0.01119 0.60651 0.0
O270 O 0.07025 0.96505 0.56718 0.0
O271 O 0.00603 0.96894 0.60891 0.0
C272 C 0.01653 0.08248 0.54932 0.0
C273 C 0.99614 0.91312 0.52313 0.0
C274 C 0.02628 0.01097 0.45347 0.0
C275 C 0.92199 0.00942 0.51946 0.0
C276 C 0.09094 0.98292 0.55508 0.0
C277 C 0.98802 0.98875 0.62207 0.0
O278 O 0.03825 0.06714 0.53582 0.0
O279 O 0.49212 0.06324 0.986 0.0
Zn280 Zn 0.47367 0.01988 0.99012 0.0
O281 O 0.4993 0.99362 0.0179 0.0
Zn282 Zn 0.5192 0.9606 0.9934 0.0
Zn283 Zn 0.53185 0.01918 0.03735 0.0
Zn284 Zn 0.47298 0.97513 0.05087 0.0
O285 O 0.50534 0.91843 0.00868 0.0
O286 O 0.47196 0.92814 0.04761 0.0
O287 O 0.47153 0.0017 0.94623 0.0
O288 O 0.50671 0.96347 0.94773 0.0
O289 O 0.56653 0.96226 0.99658 0.0
O290 O 0.5749 0.00196 0.02908 0.0
O291 O 0.52613 0.02157 0.0841 0.0
O292 O 0.42988 0.02448 0.00734 0.0
O293 O 0.48891 0.98658 0.09436 0.0
O294 O 0.42876 0.99195 0.04814 0.0
C295 C 0.51538 0.07663 -0.00066 0.0
C296 C 0.48647 0.90896 0.02991 0.0
C297 C 0.58522 0.97979 0.01208 0.0
C298 C 0.48692 0.98007 0.93262 0.0
C299 C 0.50919 0.00652 0.10362 0.0
C300 C 0.4153 0.01179 0.03023 0.0
O301 O 0.53219 0.06244 0.01961 0.0
O302 O 0.51264 0.50963 0.57344 0.0
Zn303 Zn 0.51178 0.52771 0.52974 0.0
O304 O 0.48687 0.50194 0.50106 0.0
Zn305 Zn 0.51424 0.48372 0.46916 0.0
Zn306 Zn 0.46678 0.46828 0.52485 0.0
Zn307 Zn 0.45507 0.52814 0.48063 0.0
O308 O 0.50079 0.49651 0.42549 0.0
O309 O 0.46001 0.52778 0.43337 0.0
O310 O 0.55653 0.53084 0.51513 0.0
O311 O 0.55904 0.49765 0.47499 0.0
O312 O 0.51354 0.43698 0.47104 0.0
O313 O 0.47867 0.42575 0.50815 0.0
O314 O 0.41975 0.47259 0.52312 0.0
O315 O 0.49516 0.57134 0.53218 0.0
O316 O 0.41156 0.51265 0.49082 0.0
O317 O 0.45767 0.57288 0.49573 0.0
C318 C 0.49932 0.48611 0.58603 0.0
C319 C 0.47909 0.51409 0.41486 0.0
C320 C 0.49818 0.4171 0.48718 0.0
C321 C 0.57208 0.51696 0.49373 0.0
C322 C 0.40117 0.49082 0.50836 0.0
C323 C 0.47427 0.58627 0.51685 0.0
O324 O 0.48094 0.46854 0.57021 0.0
O325 O 0.9801 0.51157 0.08141 0.0
Zn326 Zn 0.983 0.49496 0.03714 0.0
O327 O 0.00883 0.52228 0.01079 0.0
Zn328 Zn 0.98271 0.54116 0.97778 0.0
Zn329 Zn 0.02769 0.55509 0.03666 0.0
Zn330 Zn 0.04214 0.49764 0.9916 0.0
O331 O 0.99881 0.53007 0.93464 0.0
O332 O 0.03782 0.49709 0.94448 0.0
O333 O 0.93929 0.49089 0.01945 0.0
O334 O 0.93831 0.52451 0.97961 0.0
O335 O 0.98186 0.58813 0.98143 0.0
O336 O 0.01348 0.59744 0.02219 0.0
O337 O 0.07519 0.55385 0.03548 0.0
O338 O 0.00131 0.45179 0.04011 0.0
O339 O 0.08462 0.51514 0.00213 0.0
O340 O 0.04233 0.45352 0.00794 0.0
C341 C 0.99411 0.53374 0.09572 0.0
C342 C 0.02022 0.51165 0.9251 0.0
C343 C 0.99533 0.60704 0.00034 0.0
C344 C 0.92473 0.50425 0.9969 0.0
C345 C 0.09438 0.53683 0.02018 0.0
C346 C 0.02487 0.43876 0.02721 0.0
O347 O 0.01349 0.55149 0.08152 0.0
C348 C 0.08194 0.05383 0.27764 0.0
C349 C 0.07843 0.08627 0.27453 0.0
C350 C 0.07021 0.03797 0.30411 0.0
C351 C 0.05448 0.05495 0.32792 0.0
C352 C 0.04881 0.08724 0.32377 0.0
C353 C 0.06095 0.10253 0.29721 0.0
C354 C 0.07657 0.00349 0.30758 0.0
C355 C 0.03195 0.10618 0.34853 0.0
C356 C 0.01193 0.01559 0.3961 0.0
C357 C 0.0342 0.01881 0.4204 0.0
C358 C 0.01847 0.02628 0.36543 0.0
C359 C 0.04797 0.04026 0.35901 0.0
C360 C 0.07099 0.0422 0.38312 0.0
C361 C 0.06379 0.03155 0.41346 0.0
C362 C 0.99338 0.02383 0.3403 0.0
C363 C 0.1029 0.05665 0.3772 0.0
H364 H 0.09489 0.04099 0.2599 0.0
H365 H 0.05833 0.12761 0.29526 0.0
H366 H 0.09501 -0.00012 0.3258 0.0
H367 H 0.05515 0.99099 0.31556 0.0
H368 H 0.08475 0.99287 0.28516 0.0
H369 H 0.02586 0.12992 0.33996 0.0
H370 H 0.01006 0.0942 0.35602 0.0
H371 H 0.04722 0.10856 0.36967 0.0
H372 H 0.989 0.00579 0.40129 0.0
H373 H 0.08128 0.0338 0.43199 0.0
H374 H 0.00324 0.01372 0.31837 0.0
H375 H 0.9846 0.0475 0.3344 0.0
H376 H 0.97315 0.00929 0.34802 0.0
H377 H 0.11432 0.04529 0.35672 0.0
H378 H 0.11879 0.05462 0.39794 0.0
H379 H 0.10012 0.08175 0.37139 0.0
C380 C 0.47501 0.96646 0.74447 0.0
C381 C 0.455 0.94189 0.7356 0.0
C382 C 0.48081 0.97311 0.77638 0.0
C383 C 0.46609 0.95487 0.79996 0.0
C384 C 0.44597 0.92998 0.79119 0.0
C385 C 0.44076 0.92371 0.75913 0.0
C386 C 0.50251 -0.00022 0.78485 0.0
C387 C 0.42986 0.91 0.81569 0.0
C388 C 0.5012 0.953 0.88234 0.0
C389 C 0.48176 0.97397 0.89857 0.0
C390 C 0.49656 0.94681 0.85018 0.0
C391 C 0.47173 0.96177 0.83386 0.0
C392 C 0.45205 0.98301 0.85002 0.0
C393 C 0.45736 0.98894 0.88215 0.0
C394 C 0.51817 0.92418 0.83367 0.0
C395 C 0.42521 -0.00075 0.83341 0.0
H396 H 0.48577 0.98088 0.72645 0.0
H397 H 0.42567 0.90438 0.75248 0.0
H398 H 0.48958 0.01746 0.79882 0.0
H399 H 0.52213 0.99117 0.7998 0.0
H400 H 0.51256 0.01135 0.76369 0.0
H401 H 0.41471 0.89169 0.80495 0.0
H402 H 0.44767 0.89851 0.83091 0.0
H403 H 0.41512 0.92481 0.83118 0.0
H404 H 0.52021 0.94141 0.89474 0.0
H405 H 0.44217 0.00512 0.89447 0.0
H406 H 0.52966 0.93582 0.81334 0.0
H407 H 0.50437 0.90426 0.8242 0.0
H408 H 0.53672 0.91492 0.84961 0.0
H409 H 0.43423 0.01285 0.81307 0.0
H410 H 0.41222 0.0153 0.84928 0.0
H411 H 0.40845 0.98169 0.82394 0.0
C412 C 0.55594 0.42995 0.75907 0.0
C413 C 0.58639 0.41852 0.75403 0.0
C414 C 0.53864 0.44337 0.73427 0.0
C415 C 0.55197 0.44476 0.70373 0.0
C416 C 0.58282 0.43346 0.69867 0.0
C417 C 0.5997 0.42066 0.72393 0.0
C418 C 0.50603 0.45569 0.7406 0.0
C419 C 0.59773 0.43412 0.66637 0.0
C420 C 0.50266 0.44664 0.62932 0.0
C421 C 0.50807 0.47717 0.61862 0.0
C422 C 0.51542 0.43621 0.65797 0.0
C423 C 0.5336 0.45696 0.67656 0.0
C424 C 0.53717 0.48843 0.66704 0.0
C425 C 0.52455 0.49812 0.63804 0.0
C426 C 0.51129 0.4024 0.66719 0.0
C427 C 0.55589 0.51139 0.68656 0.0
H428 H 0.54572 0.4284 0.78241 0.0
H429 H 0.62306 0.41139 0.71992 0.0
H430 H 0.50418 0.48027 0.73255 0.0
H431 H 0.48847 0.44196 0.72703 0.0
H432 H 0.49982 0.45456 0.76601 0.0
H433 H 0.62203 0.42463 0.66652 0.0
H434 H 0.58333 0.42021 0.6496 0.0
H435 H 0.59852 0.4584 0.65731 0.0
H436 H 0.48993 0.4303 0.6145 0.0
H437 H 0.52851 0.52186 0.63012 0.0
H438 H 0.50354 0.40048 0.69207 0.0
H439 H 0.53419 0.39017 0.66526 0.0
H440 H 0.49391 0.39018 0.65193 0.0
H441 H 0.54899 0.50995 0.71173 0.0
H442 H 0.55267 0.53579 0.67829 0.0
H443 H 0.58126 0.50556 0.68514 0.0
C444 C 0.90623 0.5917 0.24597 0.0
C445 C 0.92282 0.59126 0.2746 0.0
C446 C 0.91944 0.57962 0.21838 0.0
C447 C 0.94982 0.56626 0.21953 0.0
C448 C 0.96618 0.56441 0.24858 0.0
C449 C 0.95254 0.57712 0.27581 0.0
C450 C 0.90127 0.58213 0.1878 0.0
C451 C 0.99844 0.5499 0.2507 0.0
C452 C 0.96975 0.51848 0.14717 0.0
C453 C 0.98609 0.54047 0.12893 0.0
C454 C 0.95936 0.52591 0.17763 0.0
C455 C 0.96498 0.55617 0.18978 0.0
C456 C 0.98258 0.578 0.17199 0.0
C457 C 0.99314 0.56979 0.14187 0.0
C458 C 0.94122 0.50185 0.19623 0.0
C459 C 0.98873 0.61065 0.18401 0.0
H460 H 0.88292 0.60187 0.24502 0.0
H461 H 0.96557 0.57683 0.29782 0.0
H462 H 0.91447 0.59694 0.17088 0.0
H463 H 0.89855 0.55875 0.1769 0.0
H464 H 0.87754 0.59239 0.19115 0.0
H465 H 0.00657 0.54733 0.27549 0.0
H466 H 0.99844 0.52659 0.23931 0.0
H467 H 0.01564 0.56465 0.23786 0.0
H468 H 0.96455 0.49565 0.13743 0.0
H469 H 0.00574 0.58691 0.12792 0.0
H470 H 0.91619 0.50892 0.19777 0.0
H471 H 0.95045 0.5003 0.22069 0.0
H472 H 0.94234 0.47834 0.18524 0.0
H473 H 0.96615 0.62345 0.18586 0.0
H474 H 0.00468 0.62403 0.16828 0.0
H475 H -0.00073 0.60985 0.20795 0.0
C476 C 0.28466 0.10407 0.1165 0.0
C477 C 0.25315 0.10049 0.10723 0.0
C478 C 0.3088 0.08784 0.10131 0.0
C479 C 0.30132 0.06707 0.07644 0.0
C480 C 0.2696 0.06306 0.06703 0.0
C481 C 0.24586 0.07994 0.08246 0.0
C482 C 0.34237 0.09287 0.11202 0.0
C483 C 0.26078 0.04093 0.04075 0.0
C484 C 0.37098 0.04969 0.02394 0.0
C485 C 0.38326 0.02277 0.03827 0.0
C486 C 0.34315 0.0634 0.03491 0.0
C487 C 0.32705 0.04969 0.06061 0.0
C488 C 0.33803 0.02129 0.07364 0.0
C489 C 0.36609 0.00823 0.0624 0.0
C490 C 0.33225 0.09374 0.02044 0.0
C491 C 0.32125 0.00572 0.10078 0.0
H492 H 0.2905 0.1193 0.13608 0.0
H493 H 0.22163 0.07721 0.07496 0.0
H494 H 0.35246 0.07053 0.12054 0.0
H495 H 0.35696 0.10085 0.0919 0.0
H496 H 0.34424 0.11038 0.13125 0.0
H497 H 0.235 0.04018 0.0365 0.0
H498 H 0.27262 0.04803 0.01859 0.0
H499 H 0.269 0.01702 0.0465 0.0
H500 H 0.38396 0.06106 0.00519 0.0
H501 H 0.37516 0.98723 0.07339 0.0
H502 H 0.33629 0.11304 0.03744 0.0
H503 H 0.30667 0.09291 0.01534 0.0
H504 H 0.34498 0.09928 0.99828 0.0
H505 H 0.32459 0.01981 0.12249 0.0
H506 H 0.33023 0.9818 0.10532 0.0
H507 H 0.29561 0.00438 0.09607 0.0
C508 C 0.27009 0.92877 0.5556 0.0
C509 C 0.2882 0.94415 0.57851 0.0
C510 C 0.23781 0.93475 0.55248 0.0
C511 C 0.22331 0.95652 0.57288 0.0
C512 C 0.24142 0.97192 0.59625 0.0
C513 C 0.27369 0.96562 0.59872 0.0
C514 C 0.21931 0.91807 0.5271 0.0
C515 C 0.22671 0.99512 0.61856 0.0
C516 C 0.14771 0.99439 0.54485 0.0
C517 C 0.1248 0.97666 0.56058 0.0
C518 C 0.17983 0.98819 0.54883 0.0
C519 C 0.18935 0.96378 0.56917 0.0
C520 C 0.16645 0.94604 0.58549 0.0
C521 C 0.13442 0.95264 0.58094 0.0
C522 C 0.20358 0.00754 0.53094 0.0
C523 C 0.17579 0.91993 0.60751 0.0
H524 H 0.2813 0.91238 0.53975 0.0
H525 H 0.28755 0.97722 0.61675 0.0
H526 H 0.19941 0.90506 0.53776 0.0
H527 H 0.20913 0.93534 0.51046 0.0
H528 H 0.23401 0.90143 0.51353 0.0
H529 H 0.24392 0.00456 0.63588 0.0
H530 H 0.21658 0.01488 0.60502 0.0
H531 H 0.20712 0.98393 0.63162 0.0
H532 H 0.14058 0.01297 0.52903 0.0
H533 H 0.11692 0.93886 0.59325 0.0
H534 H 0.21765 0.99227 0.51528 0.0
H535 H 0.22018 0.01885 0.54765 0.0
H536 H 0.19232 0.02595 0.51633 0.0
H537 H 0.18873 0.90171 0.59428 0.0
H538 H 0.15515 0.90891 0.61908 0.0
H539 H 0.19189 0.92891 0.62605 0.0
C540 C 0.7912 0.40929 0.91666 0.0
C541 C 0.75976 0.41525 0.92453 0.0
C542 C 0.81584 0.42612 0.93056 0.0
C543 C 0.80897 0.44981 0.95272 0.0
C544 C 0.77731 0.45626 0.96063 0.0
C545 C 0.75303 0.43883 0.94646 0.0
C546 C 0.8493 0.41851 0.92145 0.0
C547 C 0.76915 0.48146 0.98406 0.0
C548 C 0.87847 0.46896 0.00525 0.0
C549 C 0.89242 0.4938 0.98877 0.0
C550 C 0.85012 0.45562 0.9949 0.0
C551 C 0.83528 0.46747 0.9675 0.0
C552 C 0.84804 0.49389 0.95204 0.0
C553 C 0.8765 0.50672 0.96284 0.0
C554 C 0.83723 0.4275 0.01206 0.0
C555 C 0.83273 0.50739 0.92291 0.0
H556 H 0.79661 0.39165 0.89919 0.0
H557 H 0.72881 0.44345 0.9528 0.0
H558 H 0.86079 0.43943 0.91115 0.0
H559 H 0.863 0.41179 0.94269 0.0
H560 H 0.85062 0.39918 0.90405 0.0
H561 H 0.74336 0.48395 0.98725 0.0
H562 H 0.78 0.47613 0.00727 0.0
H563 H 0.7789 0.50418 0.97613 0.0
H564 H 0.8904 0.45894 0.02548 0.0
H565 H 0.88687 0.5261 0.95011 0.0
H566 H 0.8404 0.40639 0.99725 0.0
H567 H 0.81165 0.43017 0.01633 0.0
H568 H 0.84923 0.42357 0.03503 0.0
H569 H 0.83576 0.49103 0.90288 0.0
H570 H 0.84309 0.53028 0.91624 0.0
H571 H 0.8071 0.51041 0.9266 0.0
C572 C 0.75466 0.56393 0.47466 0.0
C573 C 0.75738 0.57643 0.44427 0.0
C574 C 0.72597 0.55134 0.48505 0.0
C575 C 0.69942 0.55224 0.46481 0.0
C576 C 0.70226 0.56466 0.43401 0.0
C577 C 0.73133 0.57631 0.42401 0.0
C578 C 0.72393 0.53754 0.51774 0.0
C579 C 0.67435 0.56664 0.41195 0.0
C580 C 0.62606 0.50314 0.47546 0.0
C581 C 0.60562 0.52467 0.48944 0.0
C582 C 0.65741 0.51116 0.46909 0.0
C583 C 0.66815 0.54168 0.47604 0.0
C584 C 0.64784 0.56318 0.49102 0.0
C585 C 0.6169 0.55426 0.49791 0.0
C586 C 0.67866 0.48736 0.45388 0.0
C587 C 0.65823 0.59618 0.49816 0.0
H588 H 0.77494 0.56405 0.49021 0.0
H589 H 0.73346 0.58639 0.40064 0.0
H590 H 0.70808 0.55189 0.53254 0.0
H591 H 0.71372 0.51371 0.51663 0.0
H592 H 0.74728 0.53629 0.52949 0.0
H593 H 0.68066 0.5768 0.38869 0.0
H594 H 0.6642 0.54309 0.40804 0.0
H595 H 0.65573 0.58126 0.42271 0.0
H596 H 0.61747 0.4801 0.46924 0.0
H597 H 0.60109 0.57099 0.50862 0.0
H598 H 0.70157 0.48635 0.46645 0.0
H599 H 0.68353 0.4943 0.42917 0.0
H600 H 0.66803 0.46365 0.45374 0.0
H601 H 0.6804 0.59609 0.512 0.0
H602 H 0.6402 0.60942 0.51152 0.0
H603 H 0.66301 0.60871 0.47576 0.0
C604 C 0.08011 0.26735 0.08408 0.0
C605 C 0.09053 0.27147 0.11526 0.0
C606 C 0.06675 0.29219 0.06705 0.0
C607 C 0.0642 0.3219 0.08142 0.0
C608 C 0.07389 0.32596 0.11311 0.0
C609 C 0.08658 0.30066 0.1297 0.0
C610 C 0.05613 0.28688 0.03347 0.0
C611 C 0.0717 0.35731 0.12929 0.0
C612 C 0.06483 0.39658 0.03359 0.0
C613 C 0.03371 0.40679 0.03701 0.0
C614 C 0.07476 0.36821 0.04674 0.0
C615 C 0.05289 0.34933 0.06317 0.0
C616 C 0.02099 0.35852 0.0649 0.0
C617 C 0.01183 0.38734 0.05208 0.0
C618 C 0.10909 0.35945 0.04476 0.0
C619 C 0.99684 0.33865 0.08156 0.0
H620 H 0.08321 0.24496 0.07263 0.0
H621 H 0.09379 0.30388 0.15403 0.0
H622 H 0.03182 0.29566 0.03009 0.0
H623 H 0.07153 0.30012 0.01714 0.0
H624 H 0.05684 0.26182 0.0268 0.0
H625 H 0.07993 0.35644 0.15417 0.0
H626 H 0.08612 0.37473 0.11639 0.0
H627 H 0.04705 0.36572 0.12896 0.0
H628 H 0.08189 0.41151 0.02204 0.0
H629 H 0.98766 0.39495 0.0545 0.0
H630 H 0.11167 0.33522 0.03597 0.0
H631 H 0.11977 0.36034 0.06866 0.0
H632 H 0.12254 0.37534 0.02905 0.0
H633 H 0.99873 0.31395 0.07394 0.0
H634 H 0.97247 0.34686 0.07705 0.0
H635 H 0.00122 0.3393 0.10736 0.0
C636 C 0.58424 0.21437 0.90055 0.0
C637 C 0.58914 0.24292 0.91604 0.0
C638 C 0.56923 0.18941 0.91563 0.0
C639 C 0.55802 0.19326 0.94677 0.0
C640 C 0.56113 0.22254 0.96194 0.0
C641 C 0.57694 0.24698 0.94651 0.0
C642 C 0.56663 0.15849 0.89868 0.0
C643 C 0.5488 0.22769 0.99487 0.0
C644 C 0.50379 0.12785 0.97312 0.0
C645 C 0.52486 0.10833 0.98922 0.0
C646 C 0.51373 0.15669 0.96085 0.0
C647 C 0.54563 0.16572 0.96409 0.0
C648 C 0.56668 0.14661 0.98132 0.0
C649 C 0.55595 0.11834 0.99396 0.0
C650 C 0.49042 0.17689 0.94339 0.0
C651 C 0.60102 0.15511 0.98485 0.0
H652 H 0.59269 0.21129 0.87666 0.0
H653 H 0.58063 0.26889 0.95874 0.0
H654 H 0.58019 0.14048 0.91171 0.0
H655 H 0.54177 0.15063 0.89793 0.0
H656 H 0.57564 0.15968 0.87414 0.0
H657 H 0.54915 0.25275 0.0016 0.0
H658 H 0.52437 0.21878 0.99691 0.0
H659 H 0.56344 0.21455 0.01201 0.0
H660 H 0.47964 0.12039 0.96968 0.0
H661 H 0.57241 0.10336 0.00631 0.0
H662 H 0.49566 0.17642 0.91778 0.0
H663 H 0.49237 0.20151 0.95129 0.0
H664 H 0.46581 0.16885 0.94685 0.0
H665 H 0.61243 0.15498 0.96133 0.0
H666 H 0.61386 0.13865 0.00049 0.0
H667 H 0.6035 0.17901 0.99457 0.0
C668 C 0.93732 0.73956 0.49654 0.0
C669 C 0.95267 0.72666 0.47044 0.0
C670 C 0.94837 0.76718 0.51047 0.0
C671 C 0.97545 0.78193 0.498 0.0
C672 C 0.99309 0.76688 0.4742 0.0
C673 C 0.98137 0.73942 0.46055 0.0
C674 C 0.92895 0.78235 0.53594 0.0
C675 C 0.02243 0.7815 0.46068 0.0
C676 C 0.9719 0.86992 0.49201 0.0
C677 C 0.99132 0.87941 0.51702 0.0
C678 C 0.96664 0.83828 0.48579 0.0
C679 C 0.98134 0.81541 0.5049 0.0
C680 C 0.00113 0.82468 0.53009 0.0
C681 C 0.00581 0.85665 0.53596 0.0
C682 C 0.9452 0.82937 0.45872 0.0
C683 C 0.01733 0.80089 0.55073 0.0
H684 H 0.91506 0.7298 0.50419 0.0
H685 H 0.99346 0.72916 0.44061 0.0
H686 H 0.9442 0.79267 0.55447 0.0
H687 H 0.91489 0.80155 0.52543 0.0
H688 H 0.91251 0.76549 0.54712 0.0
H689 H 0.03663 0.76429 0.44729 0.0
H690 H 0.01569 0.80064 0.44437 0.0
H691 H 0.03726 0.79177 0.47959 0.0
H692 H 0.9605 0.88727 0.47731 0.0
H693 H 0.02094 0.86379 0.55528 0.0
H694 H 0.92536 0.81497 0.46753 0.0
H695 H 0.95826 0.81509 0.44133 0.0
H696 H 0.93539 0.85006 0.44636 0.0
H697 H -0.0004 0.78577 0.56235 0.0
H698 H 0.0322 0.81193 0.56921 0.0
H699 H 0.03233 0.7855 0.5361 0.0
C700 C 0.47119 0.77183 0.53849 0.0
C701 C 0.44874 0.78083 0.56087 0.0
C702 C 0.475 0.74036 0.53017 0.0
C703 C 0.45595 0.71735 0.54466 0.0
C704 C 0.43303 0.7263 0.56703 0.0
C705 C 0.42967 0.75793 0.57482 0.0
C706 C 0.49971 0.73168 0.50624 0.0
C707 C 0.41227 0.70243 0.58297 0.0
C708 C 0.44803 0.63764 0.5061 0.0
C709 C 0.46944 0.61985 0.52378 0.0
C710 C 0.44349 0.66947 0.51251 0.0
C711 C 0.46068 0.68379 0.53723 0.0
C712 C 0.4823 0.666 0.55515 0.0
C713 C 0.48644 0.63429 0.54819 0.0
C714 C 0.4203 0.68778 0.49284 0.0
C715 C 0.50098 0.68043 0.58179 0.0
H716 H 0.48622 0.78936 0.52786 0.0
H717 H 0.4119 0.76477 0.59173 0.0
H718 H 0.51762 0.71639 0.51738 0.0
H719 H 0.48887 0.71828 0.48663 0.0
H720 H 0.51177 0.75247 0.49628 0.0
H721 H 0.39516 0.7133 0.59937 0.0
H722 H 0.39908 0.68882 0.56501 0.0
H723 H 0.42696 0.68568 0.59645 0.0
H724 H 0.43483 0.62674 0.48715 0.0
H725 H 0.50302 0.6208 0.56204 0.0
H726 H 0.43237 0.70774 0.48135 0.0
H727 H 0.40169 0.6976 0.50818 0.0
H728 H 0.40898 0.67326 0.4743 0.0
H729 H 0.51527 0.7002 0.5728 0.0
H730 H 0.51695 0.66339 0.59337 0.0
H731 H 0.48478 0.68996 0.59984 0.0
C732 C 0.9268 0.95643 0.79679 0.0
C733 C 0.94773 0.96758 0.81984 0.0
C734 C 0.93289 0.96069 0.7646 0.0
C735 C 0.9605 0.97663 0.75522 0.0
C736 C 0.98138 0.98858 0.77833 0.0
C737 C 0.97476 0.98387 0.8104 0.0
C738 C 0.91002 0.9477 0.74062 0.0
C739 C 0.01102 0.00577 0.76918 0.0
C740 C 0.99213 0.95996 0.67335 0.0
C741 C 0.98111 0.98576 0.6562 0.0
C742 C 0.98569 0.95679 0.70563 0.0
C743 C 0.96792 0.98004 0.72117 0.0
C744 C 0.95687 0.00622 0.7041 0.0
C745 C 0.96354 0.00874 0.67181 0.0
C746 C 0.99774 0.92846 0.72306 0.0
C747 C 0.93795 0.03152 0.71994 0.0
H748 H 0.9056 0.94429 0.80396 0.0
H749 H 0.99119 0.99225 0.82807 0.0
H750 H 0.90167 0.96658 0.72479 0.0
H751 H 0.92199 0.93014 0.72567 0.0
H752 H 0.88928 0.9365 0.75183 0.0
H753 H 0.02408 0.01477 0.79002 0.0
H754 H 0.02672 0.98996 0.7558 0.0
H755 H 0.00522 0.02568 0.75348 0.0
H756 H 0.00569 0.94207 0.66155 0.0
H757 H 0.955 0.02882 0.65882 0.0
H758 H 0.97771 0.91516 0.73311 0.0
H759 H 0.01291 0.93581 0.74306 0.0
H760 H 0.01145 0.91264 0.70759 0.0
H761 H 0.91607 0.02147 0.72993 0.0
H762 H 0.9315 0.05062 0.70343 0.0
H763 H 0.95155 0.04163 0.73985 0.0
C764 C 0.52626 0.05453 0.28559 0.0
C765 C 0.558 0.05041 0.29385 0.0
C766 C 0.51454 0.04374 0.25658 0.0
C767 C 0.53492 0.02798 0.23564 0.0
C768 C 0.56607 0.02114 0.24512 0.0
C769 C 0.57733 0.03268 0.27394 0.0
C770 C 0.48114 0.05147 0.24734 0.0
C771 C 0.5884 0.00388 0.2237 0.0
C772 C 0.50511 0.98991 0.1602 0.0
C773 C 0.51353 0.01242 0.13769 0.0
C774 C 0.51121 0.9948 0.19244 0.0
C775 C 0.52556 0.02303 0.20223 0.0
C776 C 0.53294 0.04628 0.17968 0.0
C777 C 0.52708 0.04058 0.1477 0.0
C778 C 0.50341 0.96936 0.21579 0.0
C779 C 0.5478 0.07695 0.1892 0.0
H780 H 0.51089 0.06749 0.30114 0.0
H781 H 0.60194 0.02949 0.27973 0.0
H782 H 0.48134 0.07053 0.2296 0.0
H783 H 0.46942 0.03103 0.23633 0.0
H784 H 0.46699 0.05923 0.26787 0.0
H785 H 0.60992 0.99613 0.23639 0.0
H786 H 0.57674 0.98315 0.21319 0.0
H787 H 0.5956 0.01943 0.20406 0.0
H788 H 0.49468 0.96807 0.15255 0.0
H789 H 0.53326 0.05822 0.13045 0.0
H790 H 0.48992 0.97898 0.23591 0.0
H791 H 0.5255 0.95947 0.22552 0.0
H792 H 0.48958 0.95015 0.20486 0.0
H793 H 0.53357 0.08835 0.20781 0.0
H794 H 0.55011 0.09333 0.16902 0.0
H795 H 0.57156 0.07271 0.19919 0.0
C796 C 0.4456 0.51895 0.22898 0.0
C797 C 0.46045 0.54465 0.21488 0.0
C798 C 0.44902 0.51298 0.26135 0.0
C799 C 0.46776 0.53317 0.28002 0.0
C800 C 0.48327 0.55882 0.26582 0.0
C801 C 0.47941 0.56426 0.23342 0.0
C802 C 0.43207 0.48543 0.2757 0.0
C803 C 0.50361 0.58075 0.28493 0.0
C804 C 0.45193 0.53749 0.36797 0.0
C805 C 0.47606 0.51876 0.38032 0.0
C806 C 0.4489 0.54223 0.33536 0.0
C807 C 0.47052 0.52796 0.31458 0.0
C808 C 0.49486 0.50897 0.32681 0.0
C809 C 0.49733 0.50457 0.35952 0.0
C810 C 0.4226 0.56263 0.32315 0.0
C811 C 0.51836 0.49339 0.30534 0.0
H812 H 0.43063 0.50394 0.21484 0.0
H813 H 0.49127 0.58391 0.22253 0.0
H814 H 0.44906 0.47008 0.28812 0.0
H815 H 0.41493 0.49372 0.29349 0.0
H816 H 0.41929 0.47137 0.25775 0.0
H817 H 0.51473 0.5991 0.27015 0.0
H818 H 0.48925 0.59225 0.30336 0.0
H819 H 0.52241 0.56748 0.29718 0.0
H820 H 0.43535 0.54852 0.38378 0.0
H821 H 0.51606 0.49006 0.36878 0.0
H822 H 0.4076 0.54921 0.30652 0.0
H823 H 0.43251 0.58268 0.3099 0.0
H824 H 0.40755 0.57177 0.34241 0.0
H825 H 0.50596 0.47804 0.28827 0.0
H826 H 0.53578 0.47917 0.31859 0.0
H827 H 0.53117 0.51129 0.29147 0.0
C828 C 0.06192 0.48689 0.74302 0.0
C829 C 0.04691 0.45957 0.73268 0.0
C830 C 0.05489 0.49984 0.77254 0.0
C831 C 0.03243 0.48497 0.79206 0.0
C832 C 0.01533 0.45897 0.78056 0.0
C833 C 0.02276 0.44659 0.75094 0.0
C834 C 0.07338 0.52781 0.78385 0.0
C835 C 0.99101 0.44261 0.80055 0.0
C836 C 0.04678 0.48496 0.88015 0.0
C837 C 0.02421 0.50627 0.89084 0.0
C838 C 0.04997 0.47835 0.848 0.0
C839 C 0.03019 0.49349 0.82589 0.0
C840 C 0.00785 0.51558 0.83632 0.0
C841 C 0.00506 0.52168 0.86874 0.0
C842 C 0.07413 0.45462 0.83776 0.0
C843 C 0.98654 0.53228 0.81334 0.0
H844 H 0.0807 0.49695 0.72904 0.0
H845 H 0.01074 0.42578 0.74271 0.0
H846 H 0.05774 0.54491 0.79558 0.0
H847 H 0.09109 0.52016 0.80149 0.0
H848 H 0.08588 0.53966 0.76422 0.0
H849 H 0.97695 0.42553 0.7867 0.0
H850 H 0.00295 0.42995 0.82003 0.0
H851 H 0.9748 0.45975 0.81139 0.0
H852 H 0.06175 0.473 0.89697 0.0
H853 H 0.98762 0.53827 0.87674 0.0
H854 H 0.09043 0.46518 0.82036 0.0
H855 H 0.06225 0.43466 0.82602 0.0
H856 H 0.08819 0.44552 0.85788 0.0
H857 H 0.00066 0.54366 0.79459 0.0
H858 H 0.97185 0.55027 0.82504 0.0
H859 H 0.97077 0.51518 0.8016 0.0
C860 C 0.77127 0.94647 0.01423 0.0
C861 C 0.78464 0.95799 0.98636 0.0
C862 C 0.73889 0.94937 0.0199 0.0
C863 C 0.7196 0.96443 0.99729 0.0
C864 C 0.7331 0.97654 0.96935 0.0
C865 C 0.76545 0.97303 0.96416 0.0
C866 C 0.72525 0.93596 0.04984 0.0
C867 C 0.71337 0.99311 0.94488 0.0
C868 C 0.63175 0.94857 0.99441 0.0
C869 C 0.61964 0.97502 0.0096 0.0
C870 C 0.66429 0.94446 0.99091 0.0
C871 C 0.68521 0.96747 0.00264 0.0
C872 C 0.6732 0.99398 0.01839 0.0
C873 C 0.64058 0.99737 0.02181 0.0
C874 C 0.67628 0.91573 0.97422 0.0
C875 C 0.69477 0.01913 0.031 0.0
H876 H 0.78605 0.93458 0.03128 0.0
H877 H 0.77583 0.98227 0.94277 0.0
H878 H 0.71319 0.95453 0.0634 0.0
H879 H 0.70735 0.91799 0.04396 0.0
H880 H 0.7435 0.92518 0.06514 0.0
H881 H 0.72762 0.0017 0.92472 0.0
H882 H 0.69497 0.9771 0.93568 0.0
H883 H 0.70116 0.01327 0.95574 0.0
H884 H 0.61578 0.9311 0.98506 0.0
H885 H 0.63149 0.01792 0.03354 0.0
H886 H 0.69349 0.90331 0.98939 0.0
H887 H 0.68873 0.92264 0.95233 0.0
H888 H 0.65703 0.8993 0.96788 0.0
H889 H 0.71227 0.00887 0.04743 0.0
H890 H 0.68174 0.0378 0.04357 0.0
H891 H 0.70804 0.02988 0.01127 0.0
C892 C 0.74215 0.05363 0.47813 0.0
C893 C 0.74339 0.06866 0.44871 0.0
C894 C 0.76921 0.04012 0.49148 0.0
C895 C 0.79824 0.04237 0.47536 0.0
C896 C 0.79943 0.05667 0.44531 0.0
C897 C 0.77196 0.06914 0.43219 0.0
C898 C 0.76692 0.02426 0.52318 0.0
C899 C 0.82999 0.05987 0.42745 0.0
C900 C 0.87546 0.04461 0.51991 0.0
C901 C 0.88884 0.01597 0.51139 0.0
C902 C 0.84538 0.05299 0.50934 0.0
C903 C 0.82794 0.03184 0.4905 0.0
C904 C 0.84053 0.00208 0.48348 0.0
C905 C 0.87109 0.99466 0.49361 0.0
C906 C 0.83312 0.08523 0.51675 0.0
C907 C 0.82223 0.97856 0.46426 0.0
H908 H 0.72029 0.05314 0.49118 0.0
H909 H 0.77302 0.07971 0.40899 0.0
H910 H 0.77862 0.00114 0.52249 0.0
H911 H 0.77925 0.03849 0.54125 0.0
H912 H 0.74213 0.02098 0.53073 0.0
H913 H 0.8268 0.07139 0.40418 0.0
H914 H 0.84699 0.07381 0.44153 0.0
H915 H 0.84062 0.03658 0.42359 0.0
H916 H 0.88915 0.06122 0.53355 0.0
H917 H 0.88125 0.97234 0.48728 0.0
H918 H 0.80934 0.08374 0.5273 0.0
H919 H 0.83098 0.09889 0.4946 0.0
H920 H 0.84877 0.09816 0.53323 0.0
H921 H 0.79776 0.9766 0.47309 0.0
H922 H 0.83327 0.95508 0.46483 0.0
H923 H 0.82092 0.98641 0.43936 0.0
C924 C 0.28004 0.5713 0.0266 0.0
C925 C 0.29387 0.55404 0.05109 0.0
C926 C 0.24758 0.56967 0.02079 0.0
C927 C 0.22853 0.55029 0.03991 0.0
C928 C 0.24235 0.53277 0.06463 0.0
C929 C 0.27486 0.53488 0.06993 0.0
C930 C 0.23364 0.58876 0.99428 0.0
C931 C 0.22282 0.51169 0.08539 0.0
C932 C 0.14051 0.56461 0.04442 0.0
C933 C 0.12875 0.54142 0.02419 0.0
C934 C 0.17299 0.5681 0.0494 0.0
C935 C 0.19418 0.5479 0.03381 0.0
C936 C 0.18252 0.52482 0.01297 0.0
C937 C 0.14999 0.52188 0.00839 0.0
C938 C 0.18463 0.59307 0.07172 0.0
C939 C 0.2044 0.50286 0.99591 0.0
H940 H 0.29457 0.5865 0.01227 0.0
H941 H 0.2855 0.52125 0.08867 0.0
H942 H 0.2218 0.57317 0.97703 0.0
H943 H 0.2155 0.60481 0.00369 0.0
H944 H 0.25168 0.60277 0.98167 0.0
H945 H 0.23714 0.49986 0.10378 0.0
H946 H 0.20411 0.52539 0.09715 0.0
H947 H 0.21101 0.49361 0.0708 0.0
H948 H 0.12434 0.57986 0.05669 0.0
H949 H 0.14121 0.50391 0.99266 0.0
H950 H 0.20167 0.60853 0.05954 0.0
H951 H 0.19719 0.58212 0.09184 0.0
H952 H 0.16518 0.60759 0.08113 0.0
H953 H 0.22176 0.51634 0.98191 0.0
H954 H 0.19161 0.48673 0.97983 0.0
H955 H 0.21781 0.48875 0.01327 0.0
C956 C 0.22301 0.4897 0.56186 0.0
C957 C 0.20739 0.46272 0.55148 0.0
C958 C 0.25285 0.49748 0.5503 0.0
C959 C 0.26717 0.47797 0.52759 0.0
C960 C 0.25009 0.45266 0.51458 0.0
C961 C 0.22039 0.44523 0.5268 0.0
C962 C 0.2702 0.52481 0.56465 0.0
C963 C 0.26433 0.43162 0.48992 0.0
C964 C 0.34555 0.50331 0.49302 0.0
C965 C 0.3668 0.487 0.51234 0.0
C966 C 0.31293 0.50029 0.49725 0.0
C967 C 0.30142 0.48082 0.52157 0.0
C968 C 0.32274 0.46415 0.54097 0.0
C969 C 0.35512 0.46732 0.53601 0.0
C970 C 0.29083 0.51805 0.47589 0.0
C971 C 0.31138 0.44325 0.56733 0.0
H972 H 0.21272 0.50367 0.58047 0.0
H973 H 0.20854 0.42428 0.51867 0.0
H974 H 0.28869 0.51601 0.58089 0.0
H975 H 0.28205 0.53882 0.54615 0.0
H976 H 0.25427 0.5403 0.57822 0.0
H977 H 0.24625 0.41689 0.47814 0.0
H978 H 0.27685 0.44547 0.47174 0.0
H979 H 0.28181 0.416 0.50127 0.0
H980 H 0.35438 0.51844 0.47454 0.0
H981 H 0.37132 0.45471 0.55111 0.0
H982 H 0.27675 0.53475 0.48997 0.0
H983 H 0.27405 0.50172 0.46444 0.0
H984 H 0.30353 0.53122 0.45727 0.0
H985 H 0.29736 0.45702 0.5844 0.0
H986 H 0.33106 0.43192 0.58025 0.0
H987 H 0.2958 0.42474 0.5577 0.0
C988 C 0.93339 0.78238 0.98908 0.0
C989 C 0.95789 0.80381 0.98394 0.0
C990 C 0.93943 0.75037 0.99241 0.0
C991 C 0.97064 0.73933 0.98973 0.0
C992 C 0.9955 0.76069 0.98448 0.0
C993 C 0.98889 0.79267 0.98208 0.0
C994 C 0.91236 0.72833 0.99859 0.0
C995 C 0.02906 0.74972 0.98107 0.0
C996 C 0.99152 0.66018 0.02403 0.0
C997 C 0.98929 0.64086 0.99742 0.0
C998 C 0.9852 0.69223 0.02193 0.0
C999 C 0.97726 0.70537 0.99234 0.0
C1000 C 0.97545 0.68606 0.96528 0.0
C1001 C 0.98108 0.65392 0.96824 0.0
C1002 C 0.9866 0.71193 0.05144 0.0
C1003 C 0.96776 0.69939 0.9332 0.0
H1004 H 0.90929 0.79049 0.98998 0.0
H1005 H 0.00812 0.80896 0.97876 0.0
H1006 H 0.90988 0.71167 0.97872 0.0
H1007 H 0.91706 0.71442 0.02018 0.0
H1008 H 0.8897 0.74083 0.0016 0.0
H1009 H 0.04558 0.76925 0.97622 0.0
H1010 H 0.03676 0.73769 0.00292 0.0
H1011 H 0.03068 0.73257 0.96154 0.0
H1012 H 0.99758 0.65009 0.04671 0.0
H1013 H 0.97955 0.63907 0.94759 0.0
H1014 H 0.96356 0.7234 0.05534 0.0
H1015 H 0.00439 0.73069 0.0487 0.0
H1016 H 0.99262 0.69799 0.07271 0.0
H1017 H 0.94407 0.71019 0.93352 0.0
H1018 H 0.96824 0.68138 0.91437 0.0
H1019 H 0.98484 0.71806 0.92714 0.0
C1020 C 0.48251 0.72622 0.06889 0.0
C1021 C 0.45759 0.7113 0.05325 0.0
C1022 C 0.48762 0.7584 0.06539 0.0
C1023 C 0.46737 0.77599 0.04569 0.0
C1024 C 0.44235 0.761 0.02961 0.0
C1025 C 0.43773 0.72883 0.03362 0.0
C1026 C 0.51449 0.77364 0.083 0.0
C1027 C 0.42042 0.77895 0.00821 0.0
C1028 C 0.46192 0.86359 0.05807 0.0
C1029 C 0.48151 0.87494 0.03405 0.0
C1030 C 0.45721 0.83141 0.06222 0.0
C1031 C 0.47238 0.8101 0.04182 0.0
C1032 C 0.49216 0.82135 0.01756 0.0
C1033 C 0.4965 0.85361 0.01398 0.0
C1034 C 0.43598 0.82021 0.0884 0.0
C1035 C 0.50867 0.79931 0.99531 0.0
H1036 H 0.49767 0.71282 0.08438 0.0
H1037 H 0.41866 0.71729 0.0212 0.0
H1038 H 0.53061 0.78526 0.06612 0.0
H1039 H 0.5053 0.79196 0.09898 0.0
H1040 H 0.52821 0.75662 0.09721 0.0
H1041 H 0.40218 0.76376 0.99732 0.0
H1042 H 0.40852 0.79766 0.02172 0.0
H1043 H 0.43402 0.79041 0.98913 0.0
H1044 H 0.45027 0.87983 0.07373 0.0
H1045 H 0.51167 0.86209 0.99533 0.0
H1046 H 0.44919 0.80454 0.1045 0.0
H1047 H 0.4162 0.80646 0.07838 0.0
H1048 H 0.42615 0.83979 0.1024 0.0
H1049 H 0.52398 0.78316 0.00884 0.0
H1050 H 0.52332 0.81183 0.9777 0.0
H1051 H 0.49111 0.78483 0.98255 0.0
C1052 C 0.04445 0.26706 0.54384 0.0
C1053 C 0.04541 0.27876 0.57466 0.0
C1054 C 0.03639 0.23578 0.53813 0.0
C1055 C 0.0301 0.21575 0.56395 0.0
C1056 C 0.02996 0.22782 0.59501 0.0
C1057 C 0.03733 0.2593 0.59994 0.0
C1058 C 0.03595 0.22386 0.50463 0.0
C1059 C 0.024 0.20709 0.62322 0.0
C1060 C 0.99321 0.13574 0.55325 0.0
C1061 C 0.01988 0.11656 0.55272 0.0
C1062 C 0.99615 0.16825 0.55588 0.0
C1063 C 0.02644 0.18167 0.55893 0.0
C1064 C 0.05343 0.16236 0.55853 0.0
C1065 C 0.04983 0.13004 0.55499 0.0
C1066 C 0.96694 0.18822 0.55541 0.0
C1067 C 0.0861 0.17576 0.56249 0.0
H1068 H 0.0507 0.28221 0.52434 0.0
H1069 H 0.03858 0.26828 0.62383 0.0
H1070 H 0.0562 0.20802 0.50087 0.0
H1071 H 0.01421 0.21018 0.50013 0.0
H1072 H 0.03735 0.24313 0.48715 0.0
H1073 H 0.02278 0.22053 0.64558 0.0
H1074 H 0.0017 0.19398 0.62018 0.0
H1075 H 0.0432 0.18969 0.62531 0.0
H1076 H 0.97003 0.12534 0.55108 0.0
H1077 H 0.07046 0.11521 0.5547 0.0
H1078 H 0.96893 0.20634 0.53681 0.0
H1079 H 0.96442 0.20054 0.57827 0.0
H1080 H 0.94529 0.17429 0.55106 0.0
H1081 H 0.09094 0.19297 0.54356 0.0
H1082 H 0.10459 0.15749 0.56184 0.0
H1083 H 0.08784 0.18831 0.58533 0.0
C1084 C 0.53084 0.23785 0.44437 0.0
C1085 C 0.55967 0.22949 0.45811 0.0
C1086 C 0.51639 0.26634 0.45178 0.0
C1087 C 0.53122 0.28687 0.47336 0.0
C1088 C 0.55894 0.27736 0.48923 0.0
C1089 C 0.57283 0.24875 0.48141 0.0
C1090 C 0.48668 0.2755 0.43457 0.0
C1091 C 0.57533 0.29845 0.51263 0.0
C1092 C 0.52531 0.37385 0.45873 0.0
C1093 C 0.50448 0.3834 0.48242 0.0
C1094 C 0.53354 0.34242 0.45519 0.0
C1095 C 0.52062 0.31982 0.47582 0.0
C1096 C 0.49887 0.32905 0.49922 0.0
C1097 C 0.49105 0.36077 0.50227 0.0
C1098 C 0.55676 0.33353 0.42982 0.0
C1099 C 0.48452 0.30555 0.52151 0.0
H1100 H 0.52061 0.22315 0.42622 0.0
H1101 H 0.59484 0.2421 0.49248 0.0
H1102 H 0.46954 0.28615 0.45101 0.0
H1103 H 0.49239 0.29321 0.41635 0.0
H1104 H 0.4754 0.25521 0.42275 0.0
H1105 H 0.5941 0.28605 0.52591 0.0
H1106 H 0.58617 0.31838 0.49991 0.0
H1107 H 0.55824 0.3082 0.52968 0.0
H1108 H 0.53571 0.39106 0.44315 0.0
H1109 H 0.47491 0.36789 0.52064 0.0
H1110 H 0.54645 0.31539 0.41423 0.0
H1111 H 0.5782 0.32346 0.44078 0.0
H1112 H 0.56383 0.35378 0.41507 0.0
H1113 H 0.47395 0.28592 0.50808 0.0
H1114 H 0.46615 0.31608 0.53672 0.0
H1115 H 0.50313 0.29558 0.53687 0.0
loop_
_geom_bond_atom_site_label_1
_geom_bond_atom_site_label_2
_geom_bond_distance
_geom_bond_site_symmetry_2
_ccdc_geom_bond_type
P0 O11 1.490 . S
P0 C14 1.812 . S
P0 C20 1.803 . S
P0 C26 1.819 . S
H1 C15 0.941 . S
H2 C16 0.939 . S
H3 C18 0.940 . S
H4 C19 0.940 . S
H5 C21 0.939 . S
H6 C22 0.942 . S
H7 C24 0.940 . S
H8 C25 0.939 . S
H9 C27 0.941 . S
H10 C31 0.939 . S
O11 P0 1.490 . S
H12 C28 0.939 . S
H13 C30 0.940 . S
C14 P0 1.812 . S
C14 C15 1.389 . S
C14 C19 1.391 . S
C15 H1 0.941 . S
C15 C14 1.389 . S
C15 C16 1.397 . S
C16 H2 0.939 . S
C16 C15 1.397 . S
C16 C17 1.378 . S
C17 C16 1.378 . S
C17 C18 1.378 . S
C18 H3 0.940 . S
C18 C17 1.378 . S
C18 C19 1.396 . S
C19 H4 0.940 . S
C19 C14 1.391 . S
C19 C18 1.396 . S
C20 P0 1.803 . S
C20 C21 1.378 . S
C20 C25 1.400 . S
C21 H5 0.939 . S
C21 C20 1.378 . S
C21 C22 1.361 . S
C22 H6 0.942 . S
C22 C21 1.361 . S
C22 C23 1.369 . S
C23 C22 1.369 . S
C23 C24 1.404 . S
C24 H7 0.940 . S
C24 C23 1.404 . S
C24 C25 1.389 . S
C25 H8 0.939 . S
C25 C20 1.400 . S
C25 C24 1.389 . S
C26 P0 1.819 . S
C26 C27 1.391 . S
C26 C31 1.391 . S
C27 H9 0.941 . S
C27 C26 1.391 . S
C27 C28 1.396 . S
C28 H12 0.939 . S
C28 C27 1.396 . S
C28 C29 1.397 . S
C29 C28 1.397 . S
C29 C30 1.385 . S
C30 H13 0.940 . S
C30 C29 1.385 . S
C30 C31 1.388 . S
C31 H10 0.939 . S
C31 C26 1.391 . S
C31 C30 1.388 . S
P32 O43 1.490 . S
P32 C46 1.812 . S
P32 C52 1.803 . S
P32 C58 1.819 . S
H33 C47 0.941 . S
H34 C48 0.939 . S
H35 C50 0.940 . S
H36 C51 0.940 . S
H37 C53 0.939 . S
H38 C54 0.942 . S
H39 C56 0.940 . S
H40 C57 0.939 . S
H41 C59 0.941 . S
H42 C63 0.939 . S
O43 P32 1.490 . S
H44 C60 0.939 . S
H45 C62 0.940 . S
C46 P32 1.812 . S
C46 C47 1.389 . S
C46 C51 1.391 . S
C47 H33 0.941 . S
C47 C46 1.389 . S
C47 C48 1.397 . S
C48 H34 0.939 . S
C48 C47 1.397 . S
C48 C49 1.378 . S
C49 C48 1.378 . S
C49 C50 1.378 . S
C50 H35 0.940 . S
C50 C49 1.378 . S
C50 C51 1.396 . S
C51 H36 0.940 . S
C51 C46 1.391 . S
C51 C50 1.396 . S
C52 P32 1.803 . S
C52 C53 1.378 . S
C52 C57 1.400 . S
C53 H37 0.939 . S
C53 C52 1.378 . S
C53 C54 1.361 . S
C54 H38 0.942 . S
C54 C53 1.361 . S
C54 C55 1.369 . S
C55 C54 1.369 . S
C55 C56 1.404 . S
C56 H39 0.940 . S
C56 C55 1.404 . S
C56 C57 1.389 . S
C57 H40 0.939 . S
C57 C52 1.400 . S
C57 C56 1.389 . S
C58 P32 1.819 . S
C58 C59 1.391 . S
C58 C63 1.391 . S
C59 H41 0.941 . S
C59 C58 1.391 . S
C59 C60 1.396 . S
C60 H44 0.939 . S
C60 C59 1.396 . S
C60 C61 1.397 . S
C61 C60 1.397 . S
C61 C62 1.385 . S
C62 H45 0.940 . S
C62 C61 1.385 . S
C62 C63 1.388 . S
C63 H42 0.939 . S
C63 C58 1.391 . S
C63 C62 1.388 . S
P64 O75 1.490 . S
P64 C78 1.812 . S
P64 C84 1.803 . S
P64 C90 1.819 . S
H65 C79 0.941 . S
H66 C80 0.939 . S
H67 C82 0.940 . S
H68 C83 0.940 . S
H69 C85 0.939 . S
H70 C86 0.942 . S
H71 C88 0.940 . S
H72 C89 0.939 . S
H73 C91 0.941 . S
H74 C95 0.939 . S
O75 P64 1.490 . S
H76 C92 0.939 . S
H77 C94 0.940 . S
C78 P64 1.812 . S
C78 C79 1.389 . S
C78 C83 1.391 . S
C79 H65 0.941 . S
C79 C78 1.389 . S
C79 C80 1.397 . S
C80 H66 0.939 . S
C80 C79 1.397 . S
C80 C81 1.378 . S
C81 C80 1.378 . S
C81 C82 1.378 . S
C82 H67 0.940 . S
C82 C81 1.378 . S
C82 C83 1.396 . S
C83 H68 0.940 . S
C83 C78 1.391 . S
C83 C82 1.396 . S
C84 P64 1.803 . S
C84 C85 1.378 . S
C84 C89 1.400 . S
C85 H69 0.939 . S
C85 C84 1.378 . S
C85 C86 1.361 . S
C86 H70 0.942 . S
C86 C85 1.361 . S
C86 C87 1.369 . S
C87 C86 1.369 . S
C87 C88 1.404 . S
C88 H71 0.940 . S
C88 C87 1.404 . S
C88 C89 1.389 . S
C89 H72 0.939 . S
C89 C84 1.400 . S
C89 C88 1.389 . S
C90 P64 1.819 . S
C90 C91 1.391 . S
C90 C95 1.391 . S
C91 H73 0.941 . S
C91 C90 1.391 . S
C91 C92 1.396 . S
C92 H76 0.939 . S
C92 C91 1.396 . S
C92 C93 1.397 . S
C93 C92 1.397 . S
C93 C94 1.385 . S
C94 H77 0.940 . S
C94 C93 1.385 . S
C94 C95 1.388 . S
C95 H74 0.939 . S
C95 C90 1.391 . S
C95 C94 1.388 . S
P96 O107 1.490 . S
P96 C110 1.812 . S
P96 C116 1.803 . S
P96 C122 1.819 . S
H97 C111 0.941 . S
H98 C112 0.939 . S
H99 C114 0.940 . S
H100 C115 0.940 . S
H101 C117 0.939 . S
H102 C118 0.942 . S
H103 C120 0.940 . S
H104 C121 0.939 . S
H105 C123 0.941 . S
H106 C127 0.939 . S
O107 P96 1.490 . S
H108 C124 0.939 . S
H109 C126 0.940 . S
C110 P96 1.812 . S
C110 C111 1.389 . S
C110 C115 1.391 . S
C111 H97 0.941 . S
C111 C110 1.389 . S
C111 C112 1.397 . S
C112 H98 0.939 . S
C112 C111 1.397 . S
C112 C113 1.378 . S
C113 C112 1.378 . S
C113 C114 1.378 . S
C114 H99 0.940 . S
C114 C113 1.378 . S
C114 C115 1.396 . S
C115 H100 0.940 . S
C115 C110 1.391 . S
C115 C114 1.396 . S
C116 P96 1.803 . S
C116 C117 1.378 . S
C116 C121 1.400 . S
C117 H101 0.939 . S
C117 C116 1.378 . S
C117 C118 1.361 . S
C118 H102 0.942 . S
C118 C117 1.361 . S
C118 C119 1.369 . S
C119 C118 1.369 . S
C119 C120 1.404 . S
C120 H103 0.940 . S
C120 C119 1.404 . S
C120 C121 1.389 . S
C121 H104 0.939 . S
C121 C116 1.400 . S
C121 C120 1.389 . S
C122 P96 1.819 . S
C122 C123 1.391 . S
C122 C127 1.391 . S
C123 H105 0.941 . S
C123 C122 1.391 . S
C123 C124 1.396 . S
C124 H108 0.939 . S
C124 C123 1.396 . S
C124 C125 1.397 . S
C125 C124 1.397 . S
C125 C126 1.385 . S
C126 H109 0.940 . S
C126 C125 1.385 . S
C126 C127 1.388 . S
C127 H106 0.939 . S
C127 C122 1.391 . S
C127 C126 1.388 . S
P128 O139 1.490 . S
P128 C142 1.812 . S
P128 C148 1.803 . S
P128 C154 1.819 . S
H129 C143 0.964 . S
H130 C144 0.939 1_554 S
H131 C146 0.940 . S
H132 C147 0.940 . S
H133 C149 0.939 . S
H134 C150 0.942 . S
H135 C152 0.940 . S
H136 C153 0.939 . S
H137 C155 0.941 1_545 S
H138 C159 0.939 . S
O139 P128 1.490 . S
H140 C156 0.939 1_545 S
H141 C158 0.940 . S
C142 P128 1.812 . S
C142 C143 1.389 . S
C142 C147 1.391 . S
C143 H129 0.964 . S
C143 C142 1.389 . S
C143 C144 1.397 . S
C144 H130 0.939 1_556 S
C144 C143 1.397 . S
C144 C145 1.378 . S
C145 C144 1.378 . S
C145 C146 1.378 . S
C146 H131 0.940 . S
C146 C145 1.378 . S
C146 C147 1.396 . S
C147 H132 0.940 . S
C147 C142 1.391 . S
C147 C146 1.396 . S
C148 P128 1.803 . S
C148 C149 1.378 . S
C148 C153 1.400 . S
C149 H133 0.939 . S
C149 C148 1.378 . S
C149 C150 1.361 . S
C150 H134 0.942 . S
C150 C149 1.361 . S
C150 C151 1.369 . S
C151 C150 1.369 . S
C151 C152 1.404 . S
C152 H135 0.940 . S
C152 C151 1.404 . S
C152 C153 1.389 . S
C153 H136 0.939 . S
C153 C148 1.400 . S
C153 C152 1.389 . S
C154 P128 1.819 . S
C154 C155 1.391 . S
C154 C159 1.391 . S
C155 H137 0.941 1_565 S
C155 C154 1.391 . S
C155 C156 1.396 . S
C156 H140 0.939 1_565 S
C156 C155 1.396 . S
C156 C157 1.397 . S
C157 C156 1.397 . S
C157 C158 1.385 . S
C158 H141 0.940 . S
C158 C157 1.385 . S
C158 C159 1.388 . S
C159 H138 0.939 . S
C159 C154 1.391 . S
C159 C158 1.388 . S
P160 O171 1.490 . S
P160 C174 1.812 . S
P160 C180 1.803 . S
P160 C186 1.819 . S
H161 C175 0.941 . S
H162 C176 0.939 . S
H163 C178 0.940 . S
H164 C179 0.940 . S
H165 C181 0.939 . S
H166 C182 0.942 . S
H167 C184 0.940 . S
H168 C185 0.939 . S
H169 C187 0.941 . S
H170 C191 0.939 . S
O171 P160 1.490 . S
H172 C188 0.939 . S
H173 C190 0.940 . S
C174 P160 1.812 . S
C174 C175 1.389 . S
C174 C179 1.391 . S
C175 H161 0.941 . S
C175 C174 1.389 . S
C175 C176 1.397 . S
C176 H162 0.939 . S
C176 C175 1.397 . S
C176 C177 1.378 . S
C177 C176 1.378 . S
C177 C178 1.378 . S
C178 H163 0.940 . S
C178 C177 1.378 . S
C178 C179 1.396 . S
C179 H164 0.940 . S
C179 C174 1.391 . S
C179 C178 1.396 . S
C180 P160 1.803 . S
C180 C181 1.378 . S
C180 C185 1.400 . S
C181 H165 0.939 . S
C181 C180 1.378 . S
C181 C182 1.361 . S
C182 H166 0.942 . S
C182 C181 1.361 . S
C182 C183 1.369 . S
C183 C182 1.369 . S
C183 C184 1.404 . S
C184 H167 0.940 . S
C184 C183 1.404 . S
C184 C185 1.389 . S
C185 H168 0.939 . S
C185 C180 1.400 . S
C185 C184 1.389 . S
C186 P160 1.819 . S
C186 C187 1.391 . S
C186 C191 1.391 . S
C187 H169 0.941 . S
C187 C186 1.391 . S
C187 C188 1.396 . S
C188 H172 0.939 . S
C188 C187 1.396 . S
C188 C189 1.397 . S
C189 C188 1.397 . S
C189 C190 1.385 . S
C190 H173 0.940 . S
C190 C189 1.385 . S
C190 C191 1.388 . S
C191 H170 0.939 . S
C191 C186 1.391 . S
C191 C190 1.388 . S
P192 O203 1.490 . S
P192 C206 1.812 . S
P192 C212 1.803 . S
P192 C218 1.819 . S
H193 C207 0.941 . S
H194 C208 0.939 . S
H195 C210 0.940 . S
H196 C211 0.940 . S
H197 C213 0.939 . S
H198 C214 0.942 . S
H199 C216 0.940 . S
H200 C217 0.939 . S
H201 C219 0.941 . S
H202 C223 0.939 . S
O203 P192 1.490 . S
H204 C220 0.939 . S
H205 C222 0.940 . S
C206 P192 1.812 . S
C206 C207 1.389 . S
C206 C211 1.391 . S
C207 H193 0.941 . S
C207 C206 1.389 . S
C207 C208 1.397 . S
C208 H194 0.939 . S
C208 C207 1.397 . S
C208 C209 1.378 . S
C209 C208 1.378 . S
C209 C210 1.378 . S
C210 H195 0.940 . S
C210 C209 1.378 . S
C210 C211 1.396 . S
C211 H196 0.940 . S
C211 C206 1.391 . S
C211 C210 1.396 . S
C212 P192 1.803 . S
C212 C213 1.378 . S
C212 C217 1.400 . S
C213 H197 0.939 . S
C213 C212 1.378 . S
C213 C214 1.361 . S
C214 H198 0.942 . S
C214 C213 1.361 . S
C214 C215 1.369 . S
C215 C214 1.369 . S
C215 C216 1.404 . S
C216 H199 0.940 . S
C216 C215 1.404 . S
C216 C217 1.389 . S
C217 H200 0.939 . S
C217 C212 1.400 . S
C217 C216 1.389 . S
C218 P192 1.819 . S
C218 C219 1.391 . S
C218 C223 1.391 . S
C219 H201 0.941 . S
C219 C218 1.391 . S
C219 C220 1.396 . S
C220 H204 0.939 . S
C220 C219 1.396 . S
C220 C221 1.397 . S
C221 C220 1.397 . S
C221 C222 1.385 . S
C222 H205 0.940 . S
C222 C221 1.385 . S
C222 C223 1.388 . S
C223 H202 0.939 . S
C223 C218 1.391 . S
C223 C222 1.388 . S
P224 O235 1.490 . S
P224 C238 1.812 . S
P224 C244 1.803 . S
P224 C250 1.819 . S
H225 C239 0.941 . S
H226 C240 0.939 . S
H227 C242 0.940 . S
H228 C243 0.940 . S
H229 C245 0.939 . S
H230 C246 0.942 . S
H231 C248 0.940 . S
H232 C249 0.939 . S
H233 C251 0.941 . S
H234 C255 0.939 . S
O235 P224 1.490 . S
H236 C252 0.939 . S
H237 C254 0.940 . S
C238 P224 1.812 . S
C238 C239 1.389 . S
C238 C243 1.391 . S
C239 H225 0.941 . S
C239 C238 1.389 . S
C239 C240 1.397 . S
C240 H226 0.939 . S
C240 C239 1.397 . S
C240 C241 1.378 . S
C241 C240 1.378 . S
C241 C242 1.378 . S
C242 H227 0.940 . S
C242 C241 1.378 . S
C242 C243 1.396 . S
C243 H228 0.940 . S
C243 C238 1.391 . S
C243 C242 1.396 . S
C244 P224 1.803 . S
C244 C245 1.378 . S
C244 C249 1.400 . S
C245 H229 0.939 . S
C245 C244 1.378 . S
C245 C246 1.361 . S
C246 H230 0.942 . S
C246 C245 1.361 . S
C246 C247 1.369 . S
C247 C246 1.369 . S
C247 C248 1.404 . S
C248 H231 0.940 . S
C248 C247 1.404 . S
C248 C249 1.389 . S
C249 H232 0.939 . S
C249 C244 1.400 . S
C249 C248 1.389 . S
C250 P224 1.819 . S
C250 C251 1.391 . S
C250 C255 1.391 . S
C251 H233 0.941 . S
C251 C250 1.391 . S
C251 C252 1.396 . S
C252 H236 0.939 . S
C252 C251 1.396 . S
C252 C253 1.397 . S
C253 C252 1.397 . S
C253 C254 1.385 . S
C254 H237 0.940 . S
C254 C253 1.385 . S
C254 C255 1.388 . S
C255 H234 0.939 . S
C255 C250 1.391 . S
C255 C254 1.388 . S
O256 Zn257 1.953 . S
O256 C272 1.225 1_655 S
Zn257 O256 1.953 . S
Zn257 O258 1.949 1_655 S
Zn257 O264 1.919 . S
Zn257 O269 1.924 . S
O258 Zn257 1.949 1_455 S
O258 Zn259 1.923 1_445 S
O258 Zn260 1.950 . S
O258 Zn261 1.945 1_545 S
Zn259 O258 1.923 1_665 S
Zn259 O262 1.933 . S
Zn259 O265 1.941 1_565 S
Zn259 O266 1.965 1_665 S
Zn260 O258 1.950 . S
Zn260 O267 1.938 . S
Zn260 O268 1.906 1_545 S
Zn260 O278 1.953 . S
Zn261 O258 1.945 1_565 S
Zn261 O263 1.932 1_455 S
Zn261 O270 1.977 . S
Zn261 O271 1.910 1_455 S
O262 Zn259 1.933 . S
O262 C273 1.226 . S
O263 Zn261 1.932 1_655 S
O263 C273 1.307 . S
O264 Zn257 1.919 . S
O264 C275 1.253 . S
O265 Zn259 1.941 1_545 S
O265 C275 1.283 . S
O266 Zn259 1.965 1_445 S
O266 C274 1.303 . S
O267 Zn260 1.938 . S
O267 C274 1.247 . S
O268 Zn260 1.906 1_565 S
O268 C276 1.304 . S
O269 Zn257 1.924 . S
O269 C277 1.311 1_545 S
O270 Zn261 1.977 . S
O270 C276 1.272 . S
O271 Zn261 1.910 1_655 S
O271 C277 1.231 . S
C272 O256 1.225 1_455 S
C272 O278 1.298 . S
C273 O262 1.226 . S
C273 O263 1.307 . S
C274 O266 1.303 . S
C274 O267 1.247 . S
C275 O264 1.253 . S
C275 O265 1.283 . S
C276 O268 1.304 . S
C276 O270 1.272 . S
C277 O269 1.311 1_565 S
C277 O271 1.231 . S
O278 Zn260 1.953 . S
O278 C272 1.298 . S
O279 Zn280 1.953 . S
O279 C295 1.225 . S
Zn280 O279 1.953 . S
Zn280 O281 1.949 1_556 S
Zn280 O287 1.919 . S
Zn280 O292 1.924 1_556 S
O281 Zn280 1.949 1_554 S
O281 Zn282 1.923 1_545 S
O281 Zn283 1.950 . S
O281 Zn284 1.945 1_545 S
Zn282 O281 1.923 1_565 S
Zn282 O285 1.933 . S
Zn282 O288 1.941 1_554 S
Zn282 O289 1.965 . S
Zn283 O281 1.950 . S
Zn283 O290 1.938 . S
Zn283 O291 1.906 . S
Zn283 O301 1.953 . S
Zn284 O281 1.945 1_565 S
Zn284 O286 1.932 . S
Zn284 O293 1.977 1_565 S
Zn284 O294 1.910 1_565 S
O285 Zn282 1.933 . S
O285 C296 1.226 . S
O286 Zn284 1.932 . S
O286 C296 1.307 . S
O287 Zn280 1.919 . S
O287 C298 1.253 1_545 S
O288 Zn282 1.941 1_556 S
O288 C298 1.283 . S
O289 Zn282 1.965 . S
O289 C297 1.303 . S
O290 Zn283 1.938 . S
O290 C297 1.247 1_545 S
O291 Zn283 1.906 . S
O291 C299 1.304 . S
O292 Zn280 1.924 1_554 S
O292 C300 1.311 . S
O293 Zn284 1.977 1_545 S
O293 C299 1.272 . S
O294 Zn284 1.910 1_545 S
O294 C300 1.231 . S
C295 O279 1.225 . S
C295 O301 1.298 1_556 S
C296 O285 1.226 . S
C296 O286 1.307 . S
C297 O289 1.303 . S
C297 O290 1.247 1_565 S
C298 O287 1.253 1_565 S
C298 O288 1.283 . S
C299 O291 1.304 . S
C299 O293 1.272 . S
C300 O292 1.311 . S
C300 O294 1.231 . S
O301 Zn283 1.953 . S
O301 C295 1.298 1_554 S
O302 Zn303 1.953 . S
O302 C318 1.225 . S
Zn303 O302 1.953 . S
Zn303 O304 1.949 . S
Zn303 O310 1.919 . S
Zn303 O315 1.924 . S
O304 Zn303 1.949 . S
O304 Zn305 1.923 . S
O304 Zn306 1.950 . S
O304 Zn307 1.945 . S
Zn305 O304 1.923 . S
Zn305 O308 1.933 . S
Zn305 O311 1.941 . S
Zn305 O312 1.965 . S
Zn306 O304 1.950 . S
Zn306 O313 1.938 . S
Zn306 O314 1.906 . S
Zn306 O324 1.953 . S
Zn307 O304 1.945 . S
Zn307 O309 1.932 . S
Zn307 O316 1.977 . S
Zn307 O317 1.910 . S
O308 Zn305 1.933 . S
O308 C319 1.226 . S
O309 Zn307 1.932 . S
O309 C319 1.307 . S
O310 Zn303 1.919 . S
O310 C321 1.253 . S
O311 Zn305 1.941 . S
O311 C321 1.283 . S
O312 Zn305 1.965 . S
O312 C320 1.303 . S
O313 Zn306 1.938 . S
O313 C320 1.247 . S
O314 Zn306 1.906 . S
O314 C322 1.304 . S
O315 Zn303 1.924 . S
O315 C323 1.311 . S
O316 Zn307 1.977 . S
O316 C322 1.272 . S
O317 Zn307 1.910 . S
O317 C323 1.231 . S
C318 O302 1.225 . S
C318 O324 1.298 . S
C319 O308 1.226 . S
C319 O309 1.307 . S
C320 O312 1.303 . S
C320 O313 1.247 . S
C321 O310 1.253 . S
C321 O311 1.283 . S
C322 O314 1.304 . S
C322 O316 1.272 . S
C323 O315 1.311 . S
C323 O317 1.231 . S
O324 Zn306 1.953 . S
O324 C318 1.298 . S
O325 Zn326 1.953 . S
O325 C341 1.225 . S
Zn326 O325 1.953 . S
Zn326 O327 1.949 1_655 S
Zn326 O333 1.919 . S
Zn326 O338 1.924 . S
O327 Zn326 1.949 1_455 S
O327 Zn328 1.923 1_454 S
O327 Zn329 1.950 . S
O327 Zn330 1.945 1_554 S
Zn328 O327 1.923 1_656 S
Zn328 O331 1.933 1_655 S
Zn328 O334 1.941 . S
Zn328 O335 1.965 . S
Zn329 O327 1.950 . S
Zn329 O336 1.938 . S
Zn329 O337 1.906 . S
Zn329 O347 1.953 . S
Zn330 O327 1.945 1_556 S
Zn330 O332 1.932 . S
Zn330 O339 1.977 1_556 S
Zn330 O340 1.910 1_556 S
O331 Zn328 1.933 1_455 S
O331 C342 1.226 . S
O332 Zn330 1.932 . S
O332 C342 1.307 . S
O333 Zn326 1.919 . S
O333 C344 1.253 1_554 S
O334 Zn328 1.941 . S
O334 C344 1.283 . S
O335 Zn328 1.965 . S
O335 C343 1.303 . S
O336 Zn329 1.938 . S
O336 C343 1.247 1_454 S
O337 Zn329 1.906 . S
O337 C345 1.304 . S
O338 Zn326 1.924 . S
O338 C346 1.311 1_655 S
O339 Zn330 1.977 1_554 S
O339 C345 1.272 . S
O340 Zn330 1.910 1_554 S
O340 C346 1.231 . S
C341 O325 1.225 . S
C341 O347 1.298 1_655 S
C342 O331 1.226 . S
C342 O332 1.307 . S
C343 O335 1.303 . S
C343 O336 1.247 1_656 S
C344 O333 1.253 1_556 S
C344 O334 1.283 . S
C345 O337 1.304 . S
C345 O339 1.272 . S
C346 O338 1.311 1_455 S
C346 O340 1.231 . S
O347 Zn329 1.953 . S
O347 C341 1.298 1_455 S
C348 C349 1.391 . S
C348 C350 1.394 . S
C348 H364 0.931 . S
C349 C348 1.391 . S
C349 C353 1.376 . S
C350 C348 1.394 . S
C350 C351 1.369 . S
C350 C354 1.531 . S
C351 C350 1.369 . S
C351 C352 1.410 . S
C351 C359 1.503 . S
C352 C351 1.410 . S
C352 C353 1.392 . S
C352 C355 1.511 . S
C353 C349 1.376 . S
C353 C352 1.392 . S
C353 H365 0.929 . S
C354 C350 1.531 . S
C354 H366 0.960 . S
C354 H367 0.962 . S
C354 H368 0.960 . S
C355 C352 1.511 . S
C355 H369 0.979 . S
C355 H370 0.961 . S
C355 H371 0.961 . S
C356 C357 1.370 . S
C356 C358 1.363 . S
C356 H372 0.931 . S
C357 C356 1.370 . S
C357 C361 1.408 . S
C358 C356 1.363 . S
C358 C359 1.370 . S
C358 C362 1.524 . S
C359 C351 1.503 . S
C359 C358 1.370 . S
C359 C360 1.403 . S
C360 C359 1.403 . S
C360 C361 1.404 . S
C360 C363 1.539 . S
C361 C357 1.408 . S
C361 C360 1.404 . S
C361 H373 0.930 . S
C362 C358 1.524 . S
C362 H374 0.956 . S
C362 H375 0.961 . S
C362 H376 0.961 . S
C363 C360 1.539 . S
C363 H377 0.958 . S
C363 H378 0.961 . S
C363 H379 0.960 . S
H364 C348 0.931 . S
H365 C353 0.929 . S
H366 C354 0.960 . S
H367 C354 0.962 . S
H368 C354 0.960 . S
H369 C355 0.979 . S
H370 C355 0.961 . S
H371 C355 0.961 . S
H372 C356 0.931 . S
H373 C361 0.930 . S
H374 C362 0.956 . S
H375 C362 0.961 . S
H376 C362 0.961 . S
H377 C363 0.958 . S
H378 C363 0.961 . S
H379 C363 0.960 . S
C380 C381 1.391 . S
C380 C382 1.394 . S
C380 H396 0.931 . S
C381 C380 1.391 . S
C381 C385 1.376 . S
C382 C380 1.394 . S
C382 C383 1.369 . S
C382 C386 1.531 . S
C383 C382 1.369 . S
C383 C384 1.410 . S
C383 C391 1.503 . S
C384 C383 1.410 . S
C384 C385 1.392 . S
C384 C387 1.511 . S
C385 C381 1.376 . S
C385 C384 1.392 . S
C385 H397 0.929 . S
C386 C382 1.531 . S
C386 H398 0.960 . S
C386 H399 0.962 . S
C386 H400 0.960 . S
C387 C384 1.511 . S
C387 H401 0.961 . S
C387 H402 0.961 . S
C387 H403 0.961 . S
C388 C389 1.370 . S
C388 C390 1.363 . S
C388 H404 0.931 . S
C389 C388 1.370 . S
C389 C393 1.408 . S
C390 C388 1.363 . S
C390 C391 1.370 . S
C390 C394 1.524 . S
C391 C383 1.503 . S
C391 C390 1.370 . S
C391 C392 1.403 . S
C392 C391 1.403 . S
C392 C393 1.404 . S
C392 C395 1.539 . S
C393 C389 1.408 . S
C393 C392 1.404 . S
C393 H405 0.902 1_565 S
C394 C390 1.524 . S
C394 H406 0.956 . S
C394 H407 0.961 . S
C394 H408 0.961 . S
C395 C392 1.539 . S
C395 H409 0.958 1_565 S
C395 H410 0.949 1_565 S
C395 H411 0.960 . S
H396 C380 0.931 . S
H397 C385 0.929 . S
H398 C386 0.960 . S
H399 C386 0.962 . S
H400 C386 0.960 . S
H401 C387 0.961 . S
H402 C387 0.961 . S
H403 C387 0.961 . S
H404 C388 0.931 . S
H405 C393 0.902 1_545 S
H406 C394 0.956 . S
H407 C394 0.961 . S
H408 C394 0.961 . S
H409 C395 0.958 1_545 S
H410 C395 0.949 1_545 S
H411 C395 0.960 . S
C412 C413 1.391 . S
C412 C414 1.394 . S
C412 H428 0.931 . S
C413 C412 1.391 . S
C413 C417 1.376 . S
C414 C412 1.394 . S
C414 C415 1.369 . S
C414 C418 1.531 . S
C415 C414 1.369 . S
C415 C416 1.410 . S
C415 C423 1.503 . S
C416 C415 1.410 . S
C416 C417 1.392 . S
C416 C419 1.511 . S
C417 C413 1.376 . S
C417 C416 1.392 . S
C417 H429 0.929 . S
C418 C414 1.531 . S
C418 H430 0.960 . S
C418 H431 0.962 . S
C418 H432 0.960 . S
C419 C416 1.511 . S
C419 H433 0.961 . S
C419 H434 0.961 . S
C419 H435 0.961 . S
C420 C421 1.370 . S
C420 C422 1.363 . S
C420 H436 0.931 . S
C421 C420 1.370 . S
C421 C425 1.408 . S
C422 C420 1.363 . S
C422 C423 1.370 . S
C422 C426 1.524 . S
C423 C415 1.503 . S
C423 C422 1.370 . S
C423 C424 1.403 . S
C424 C423 1.403 . S
C424 C425 1.404 . S
C424 C427 1.539 . S
C425 C421 1.408 . S
C425 C424 1.404 . S
C425 H437 0.930 . S
C426 C422 1.524 . S
C426 H438 0.956 . S
C426 H439 0.961 . S
C426 H440 0.961 . S
C427 C424 1.539 . S
C427 H441 0.958 . S
C427 H442 0.961 . S
C427 H443 0.960 . S
H428 C412 0.931 . S
H429 C417 0.929 . S
H430 C418 0.960 . S
H431 C418 0.962 . S
H432 C418 0.960 . S
H433 C419 0.961 . S
H434 C419 0.961 . S
H435 C419 0.961 . S
H436 C420 0.931 . S
H437 C425 0.930 . S
H438 C426 0.956 . S
H439 C426 0.961 . S
H440 C426 0.961 . S
H441 C427 0.958 . S
H442 C427 0.961 . S
H443 C427 0.960 . S
C444 C445 1.391 . S
C444 C446 1.394 . S
C444 H460 0.931 . S
C445 C444 1.391 . S
C445 C449 1.376 . S
C446 C444 1.394 . S
C446 C447 1.369 . S
C446 C450 1.531 . S
C447 C446 1.369 . S
C447 C448 1.410 . S
C447 C455 1.503 . S
C448 C447 1.410 . S
C448 C449 1.392 . S
C448 C451 1.511 . S
C449 C445 1.376 . S
C449 C448 1.392 . S
C449 H461 0.929 . S
C450 C446 1.531 . S
C450 H462 0.960 . S
C450 H463 0.962 . S
C450 H464 0.960 . S
C451 C448 1.511 . S
C451 H465 0.961 1_655 S
C451 H466 0.961 1_655 S
C451 H467 0.961 . S
C452 C453 1.370 . S
C452 C454 1.363 . S
C452 H468 0.931 . S
C453 C452 1.370 . S
C453 C457 1.408 . S
C454 C452 1.363 . S
C454 C455 1.370 . S
C454 C458 1.524 . S
C455 C447 1.503 . S
C455 C454 1.370 . S
C455 C456 1.403 . S
C456 C455 1.403 . S
C456 C457 1.404 . S
C456 C459 1.539 . S
C457 C453 1.408 . S
C457 C456 1.404 . S
C457 H469 0.930 . S
C458 C454 1.524 . S
C458 H470 0.956 . S
C458 H471 0.961 . S
C458 H472 0.979 . S
C459 C456 1.539 . S
C459 H473 0.958 . S
C459 H474 0.961 . S
C459 H475 0.960 . S
H460 C444 0.931 . S
H461 C449 0.929 . S
H462 C450 0.960 . S
H463 C450 0.962 . S
H464 C450 0.960 . S
H465 C451 0.961 1_455 S
H466 C451 0.961 1_455 S
H467 C451 0.961 . S
H468 C452 0.931 . S
H469 C457 0.930 . S
H470 C458 0.956 . S
H471 C458 0.961 . S
H472 C458 0.979 . S
H473 C459 0.958 . S
H474 C459 0.961 . S
H475 C459 0.960 . S
C476 C477 1.391 . S
C476 C478 1.394 . S
C476 H492 0.931 . S
C477 C476 1.391 . S
C477 C481 1.376 . S
C478 C476 1.394 . S
C478 C479 1.369 . S
C478 C482 1.531 . S
C479 C478 1.369 . S
C479 C480 1.410 . S
C479 C487 1.503 . S
C480 C479 1.410 . S
C480 C481 1.392 . S
C480 C483 1.511 . S
C481 C477 1.376 . S
C481 C480 1.392 . S
C481 H493 0.929 . S
C482 C478 1.531 . S
C482 H494 0.960 . S
C482 H495 0.962 . S
C482 H496 0.960 . S
C483 C480 1.511 . S
C483 H497 0.961 . S
C483 H498 0.961 . S
C483 H499 0.961 . S
C484 C485 1.370 . S
C484 C486 1.363 . S
C484 H500 0.931 . S
C485 C484 1.370 . S
C485 C489 1.408 . S
C486 C484 1.363 . S
C486 C487 1.370 . S
C486 C490 1.524 . S
C487 C479 1.503 . S
C487 C486 1.370 . S
C487 C488 1.403 . S
C488 C487 1.403 . S
C488 C489 1.404 . S
C488 C491 1.539 . S
C489 C485 1.408 . S
C489 C488 1.404 . S
C489 H501 0.930 . S
C490 C486 1.524 . S
C490 H502 0.956 . S
C490 H503 0.961 . S
C490 H504 0.961 . S
C491 C488 1.539 . S
C491 H505 0.958 . S
C491 H506 0.961 1_545 S
C491 H507 0.960 . S
H492 C476 0.931 . S
H493 C481 0.929 . S
H494 C482 0.960 . S
H495 C482 0.962 . S
H496 C482 0.960 . S
H497 C483 0.961 . S
H498 C483 0.961 . S
H499 C483 0.961 . S
H500 C484 0.931 . S
H501 C489 0.930 . S
H502 C490 0.956 . S
H503 C490 0.961 . S
H504 C490 0.961 . S
H505 C491 0.958 . S
H506 C491 0.961 1_565 S
H507 C491 0.960 . S
C508 C509 1.391 . S
C508 C510 1.394 . S
C508 H524 0.931 . S
C509 C508 1.391 . S
C509 C513 1.376 . S
C510 C508 1.394 . S
C510 C511 1.369 . S
C510 C514 1.531 . S
C511 C510 1.369 . S
C511 C512 1.410 . S
C511 C519 1.503 . S
C512 C511 1.410 . S
C512 C513 1.392 . S
C512 C515 1.511 . S
C513 C509 1.376 . S
C513 C512 1.392 . S
C513 H525 0.929 . S
C514 C510 1.531 . S
C514 H526 0.960 . S
C514 H527 0.962 . S
C514 H528 0.960 . S
C515 C512 1.511 . S
C515 H529 0.961 . S
C515 H530 0.961 . S
C515 H531 0.961 . S
C516 C517 1.370 . S
C516 C518 1.363 . S
C516 H532 0.931 . S
C517 C516 1.370 . S
C517 C521 1.408 . S
C518 C516 1.363 . S
C518 C519 1.370 . S
C518 C522 1.524 . S
C519 C511 1.503 . S
C519 C518 1.370 . S
C519 C520 1.403 . S
C520 C519 1.403 . S
C520 C521 1.404 . S
C520 C523 1.539 . S
C521 C517 1.408 . S
C521 C520 1.404 . S
C521 H533 0.930 . S
C522 C518 1.524 . S
C522 H534 0.956 . S
C522 H535 0.961 . S
C522 H536 0.942 1_565 S
C523 C520 1.539 . S
C523 H537 0.958 . S
C523 H538 0.961 . S
C523 H539 0.960 . S
H524 C508 0.931 . S
H525 C513 0.929 . S
H526 C514 0.960 . S
H527 C514 0.962 . S
H528 C514 0.960 . S
H529 C515 0.961 . S
H530 C515 0.961 . S
H531 C515 0.961 . S
H532 C516 0.931 . S
H533 C521 0.930 . S
H534 C522 0.956 . S
H535 C522 0.961 . S
H536 C522 0.942 1_545 S
H537 C523 0.958 . S
H538 C523 0.961 . S
H539 C523 0.960 . S
C540 C541 1.391 . S
C540 C542 1.394 . S
C540 H556 0.931 . S
C541 C540 1.391 . S
C541 C545 1.376 . S
C542 C540 1.394 . S
C542 C543 1.369 . S
C542 C546 1.531 . S
C543 C542 1.369 . S
C543 C544 1.410 . S
C543 C551 1.503 . S
C544 C543 1.410 . S
C544 C545 1.392 . S
C544 C547 1.536 . S
C545 C541 1.376 . S
C545 C544 1.392 . S
C545 H557 0.929 . S
C546 C542 1.531 . S
C546 H558 0.960 . S
C546 H559 0.962 . S
C546 H560 0.960 . S
C547 C544 1.536 . S
C547 H561 0.943 1_556 S
C547 H562 0.957 1_556 S
C547 H563 0.958 1_556 S
C548 C549 1.370 . S
C548 C550 1.363 . S
C548 H564 0.931 . S
C549 C548 1.370 . S
C549 C553 1.408 . S
C550 C548 1.363 . S
C550 C551 1.370 . S
C550 C554 1.524 . S
C551 C543 1.503 . S
C551 C550 1.370 . S
C551 C552 1.403 . S
C552 C551 1.403 . S
C552 C553 1.404 . S
C552 C555 1.539 . S
C553 C549 1.408 . S
C553 C552 1.404 . S
C553 H565 0.930 . S
C554 C550 1.524 . S
C554 H566 0.956 . S
C554 H567 0.961 . S
C554 H568 0.961 . S
C555 C552 1.539 . S
C555 H569 0.958 . S
C555 H570 0.961 . S
C555 H571 0.960 . S
H556 C540 0.931 . S
H557 C545 0.929 . S
H558 C546 0.960 . S
H559 C546 0.962 . S
H560 C546 0.960 . S
H561 C547 0.943 1_554 S
H562 C547 0.957 1_554 S
H563 C547 0.958 1_554 S
H564 C548 0.931 . S
H565 C553 0.930 . S
H566 C554 0.956 . S
H567 C554 0.961 . S
H568 C554 0.961 . S
H569 C555 0.958 . S
H570 C555 0.961 . S
H571 C555 0.960 . S
C572 C573 1.391 . S
C572 C574 1.394 . S
C572 H588 0.931 . S
C573 C572 1.391 . S
C573 C577 1.376 . S
C574 C572 1.394 . S
C574 C575 1.369 . S
C574 C578 1.531 . S
C575 C574 1.369 . S
C575 C576 1.410 . S
C575 C583 1.503 . S
C576 C575 1.410 . S
C576 C577 1.392 . S
C576 C579 1.511 . S
C577 C573 1.376 . S
C577 C576 1.392 . S
C577 H589 0.929 . S
C578 C574 1.531 . S
C578 H590 0.960 . S
C578 H591 0.962 . S
C578 H592 0.960 . S
C579 C576 1.511 . S
C579 H593 0.961 . S
C579 H594 0.961 . S
C579 H595 0.961 . S
C580 C581 1.370 . S
C580 C582 1.363 . S
C580 H596 0.931 . S
C581 C580 1.370 . S
C581 C585 1.408 . S
C582 C580 1.363 . S
C582 C583 1.370 . S
C582 C586 1.524 . S
C583 C575 1.503 . S
C583 C582 1.370 . S
C583 C584 1.403 . S
C584 C583 1.403 . S
C584 C585 1.404 . S
C584 C587 1.539 . S
C585 C581 1.408 . S
C585 C584 1.404 . S
C585 H597 0.930 . S
C586 C582 1.524 . S
C586 H598 0.956 . S
C586 H599 0.961 . S
C586 H600 0.961 . S
C587 C584 1.539 . S
C587 H601 0.958 . S
C587 H602 0.961 . S
C587 H603 0.960 . S
H588 C572 0.931 . S
H589 C577 0.929 . S
H590 C578 0.960 . S
H591 C578 0.962 . S
H592 C578 0.960 . S
H593 C579 0.961 . S
H594 C579 0.961 . S
H595 C579 0.961 . S
H596 C580 0.931 . S
H597 C585 0.930 . S
H598 C586 0.956 . S
H599 C586 0.961 . S
H600 C586 0.961 . S
H601 C587 0.958 . S
H602 C587 0.961 . S
H603 C587 0.960 . S
C604 C605 1.391 . S
C604 C606 1.394 . S
C604 H620 0.931 . S
C605 C604 1.391 . S
C605 C609 1.376 . S
C606 C604 1.394 . S
C606 C607 1.369 . S
C606 C610 1.531 . S
C607 C606 1.369 . S
C607 C608 1.410 . S
C607 C615 1.503 . S
C608 C607 1.410 . S
C608 C609 1.392 . S
C608 C611 1.511 . S
C609 C605 1.376 . S
C609 C608 1.392 . S
C609 H621 0.929 . S
C610 C606 1.531 . S
C610 H622 0.960 . S
C610 H623 0.962 . S
C610 H624 0.960 . S
C611 C608 1.511 . S
C611 H625 0.961 . S
C611 H626 0.961 . S
C611 H627 0.961 1_455 S
C612 C613 1.370 . S
C612 C614 1.363 . S
C612 H628 0.931 . S
C613 C612 1.370 . S
C613 C617 1.408 . S
C614 C612 1.363 . S
C614 C615 1.370 . S
C614 C618 1.524 . S
C615 C607 1.503 . S
C615 C614 1.370 . S
C615 C616 1.403 . S
C616 C615 1.403 . S
C616 C617 1.404 . S
C616 C619 1.539 . S
C617 C613 1.408 . S
C617 C616 1.404 . S
C617 H629 0.930 . S
C618 C614 1.524 . S
C618 H630 0.956 . S
C618 H631 0.961 . S
C618 H632 0.961 . S
C619 C616 1.539 . S
C619 H633 0.958 . S
C619 H634 0.961 1_455 S
C619 H635 0.960 . S
H620 C604 0.931 . S
H621 C609 0.929 . S
H622 C610 0.960 . S
H623 C610 0.962 . S
H624 C610 0.960 . S
H625 C611 0.961 . S
H626 C611 0.961 . S
H627 C611 0.961 1_655 S
H628 C612 0.931 . S
H629 C617 0.930 . S
H630 C618 0.956 . S
H631 C618 0.961 . S
H632 C618 0.961 . S
H633 C619 0.958 . S
H634 C619 0.961 1_655 S
H635 C619 0.960 . S
C636 C637 1.391 . S
C636 C638 1.394 . S
C636 H652 0.931 . S
C637 C636 1.391 . S
C637 C641 1.376 . S
C638 C636 1.394 . S
C638 C639 1.369 . S
C638 C642 1.531 . S
C639 C638 1.369 . S
C639 C640 1.410 . S
C639 C647 1.503 . S
C640 C639 1.410 . S
C640 C641 1.392 . S
C640 C643 1.511 1_556 S
C641 C637 1.376 . S
C641 C640 1.392 . S
C641 H653 0.929 . S
C642 C638 1.531 . S
C642 H654 0.960 . S
C642 H655 0.962 . S
C642 H656 0.960 . S
C643 C640 1.511 1_554 S
C643 H657 0.961 . S
C643 H658 0.961 . S
C643 H659 0.963 . S
C644 C645 1.370 . S
C644 C646 1.363 . S
C644 H660 0.931 1_556 S
C645 C644 1.370 . S
C645 C649 1.408 . S
C646 C644 1.363 . S
C646 C647 1.370 . S
C646 C650 1.524 . S
C647 C639 1.503 . S
C647 C646 1.370 . S
C647 C648 1.403 . S
C648 C647 1.403 . S
C648 C649 1.404 . S
C648 C651 1.539 . S
C649 C645 1.408 . S
C649 C648 1.404 . S
C649 H661 0.930 . S
C650 C646 1.524 . S
C650 H662 0.956 . S
C650 H663 0.961 1_556 S
C650 H664 0.961 1_556 S
C651 C648 1.539 . S
C651 H665 0.958 . S
C651 H666 0.961 . S
C651 H667 0.960 . S
H652 C636 0.931 . S
H653 C641 0.929 . S
H654 C642 0.960 . S
H655 C642 0.962 . S
H656 C642 0.960 . S
H657 C643 0.961 . S
H658 C643 0.961 . S
H659 C643 0.963 . S
H660 C644 0.931 1_554 S
H661 C649 0.930 . S
H662 C650 0.956 . S
H663 C650 0.961 1_554 S
H664 C650 0.961 1_554 S
H665 C651 0.958 . S
H666 C651 0.961 . S
H667 C651 0.960 . S
C668 C669 1.391 . S
C668 C670 1.394 . S
C668 H684 0.931 . S
C669 C668 1.391 . S
C669 C673 1.376 . S
C670 C668 1.394 . S
C670 C671 1.369 . S
C670 C674 1.531 . S
C671 C670 1.369 . S
C671 C672 1.410 . S
C671 C679 1.503 . S
C672 C671 1.410 . S
C672 C673 1.392 . S
C672 C675 1.511 1_655 S
C673 C669 1.376 . S
C673 C672 1.392 . S
C673 H685 0.929 . S
C674 C670 1.531 . S
C674 H686 0.960 . S
C674 H687 0.962 . S
C674 H688 0.960 . S
C675 C672 1.511 1_455 S
C675 H689 0.961 . S
C675 H690 0.961 . S
C675 H691 0.961 . S
C676 C677 1.370 . S
C676 C678 1.363 . S
C676 H692 0.931 . S
C677 C676 1.370 . S
C677 C681 1.408 . S
C678 C676 1.363 . S
C678 C679 1.370 . S
C678 C682 1.524 . S
C679 C671 1.503 . S
C679 C678 1.370 . S
C679 C680 1.403 . S
C680 C679 1.403 . S
C680 C681 1.404 . S
C680 C683 1.539 . S
C681 C677 1.408 . S
C681 C680 1.404 . S
C681 H693 0.930 . S
C682 C678 1.524 . S
C682 H694 0.956 . S
C682 H695 0.961 . S
C682 H696 0.961 . S
C683 C680 1.539 . S
C683 H697 0.958 . S
C683 H698 0.961 . S
C683 H699 0.960 . S
H684 C668 0.931 . S
H685 C673 0.929 . S
H686 C674 0.960 . S
H687 C674 0.962 . S
H688 C674 0.960 . S
H689 C675 0.961 . S
H690 C675 0.961 . S
H691 C675 0.961 . S
H692 C676 0.931 . S
H693 C681 0.930 . S
H694 C682 0.956 . S
H695 C682 0.961 . S
H696 C682 0.961 . S
H697 C683 0.958 . S
H698 C683 0.961 . S
H699 C683 0.960 . S
C700 C701 1.391 . S
C700 C702 1.394 . S
C700 H716 0.931 . S
C701 C700 1.391 . S
C701 C705 1.376 . S
C702 C700 1.394 . S
C702 C703 1.369 . S
C702 C706 1.531 . S
C703 C702 1.369 . S
C703 C704 1.410 . S
C703 C711 1.503 . S
C704 C703 1.410 . S
C704 C705 1.392 . S
C704 C707 1.511 . S
C705 C701 1.376 . S
C705 C704 1.392 . S
C705 H717 0.929 . S
C706 C702 1.531 . S
C706 H718 0.960 . S
C706 H719 0.962 . S
C706 H720 0.960 . S
C707 C704 1.511 . S
C707 H721 0.961 . S
C707 H722 0.961 . S
C707 H723 0.961 . S
C708 C709 1.370 . S
C708 C710 1.363 . S
C708 H724 0.931 . S
C709 C708 1.370 . S
C709 C713 1.408 . S
C710 C708 1.363 . S
C710 C711 1.370 . S
C710 C714 1.524 . S
C711 C703 1.503 . S
C711 C710 1.370 . S
C711 C712 1.403 . S
C712 C711 1.403 . S
C712 C713 1.404 . S
C712 C715 1.539 . S
C713 C709 1.408 . S
C713 C712 1.404 . S
C713 H725 0.930 . S
C714 C710 1.524 . S
C714 H726 0.956 . S
C714 H727 0.961 . S
C714 H728 0.961 . S
C715 C712 1.539 . S
C715 H729 0.958 . S
C715 H730 0.961 . S
C715 H731 0.960 . S
H716 C700 0.931 . S
H717 C705 0.929 . S
H718 C706 0.960 . S
H719 C706 0.962 . S
H720 C706 0.960 . S
H721 C707 0.961 . S
H722 C707 0.961 . S
H723 C707 0.961 . S
H724 C708 0.931 . S
H725 C713 0.930 . S
H726 C714 0.956 . S
H727 C714 0.961 . S
H728 C714 0.961 . S
H729 C715 0.958 . S
H730 C715 0.961 . S
H731 C715 0.960 . S
C732 C733 1.391 . S
C732 C734 1.394 . S
C732 H748 0.931 . S
C733 C732 1.391 . S
C733 C737 1.376 . S
C734 C732 1.394 . S
C734 C735 1.369 . S
C734 C738 1.531 1_565 S
C735 C734 1.369 . S
C735 C736 1.410 . S
C735 C743 1.503 . S
C736 C735 1.410 . S
C736 C737 1.392 . S
C736 C739 1.511 1_655 S
C737 C733 1.376 . S
C737 C736 1.392 . S
C737 H749 0.929 . S
C738 C734 1.531 1_545 S
C738 H750 0.960 . S
C738 H751 0.962 1_545 S
C738 H752 0.960 . S
C739 C736 1.511 1_455 S
C739 H753 0.961 . S
C739 H754 0.961 . S
C739 H755 0.961 1_565 S
C740 C741 1.370 . S
C740 C742 1.363 . S
C740 H756 0.931 . S
C741 C740 1.370 . S
C741 C745 1.408 1_565 S
C742 C740 1.363 . S
C742 C743 1.370 . S
C742 C746 1.524 . S
C743 C735 1.503 . S
C743 C742 1.370 . S
C743 C744 1.403 1_565 S
C744 C743 1.403 1_545 S
C744 C745 1.404 . S
C744 C747 1.539 . S
C745 C741 1.408 1_545 S
C745 C744 1.404 . S
C745 H757 0.930 . S
C746 C742 1.524 . S
C746 H758 0.956 . S
C746 H759 0.961 . S
C746 H760 0.961 . S
C747 C744 1.539 . S
C747 H761 0.958 . S
C747 H762 0.961 . S
C747 H763 0.960 . S
H748 C732 0.931 . S
H749 C737 0.929 . S
H750 C738 0.960 . S
H751 C738 0.962 1_565 S
H752 C738 0.960 . S
H753 C739 0.961 . S
H754 C739 0.961 . S
H755 C739 0.961 1_545 S
H756 C740 0.931 . S
H757 C745 0.930 . S
H758 C746 0.956 . S
H759 C746 0.961 . S
H760 C746 0.961 . S
H761 C747 0.958 . S
H762 C747 0.961 . S
H763 C747 0.960 . S
C764 C765 1.391 . S
C764 C766 1.394 . S
C764 H780 0.931 . S
C765 C764 1.391 . S
C765 C769 1.376 . S
C766 C764 1.394 . S
C766 C767 1.369 . S
C766 C770 1.531 . S
C767 C766 1.369 . S
C767 C768 1.410 . S
C767 C775 1.503 . S
C768 C767 1.410 . S
C768 C769 1.392 . S
C768 C771 1.511 . S
C769 C765 1.376 . S
C769 C768 1.392 . S
C769 H781 0.929 . S
C770 C766 1.531 . S
C770 H782 0.960 . S
C770 H783 0.962 1_545 S
C770 H784 0.960 . S
C771 C768 1.511 . S
C771 H785 0.961 . S
C771 H786 0.961 . S
C771 H787 0.961 . S
C772 C773 1.370 1_565 S
C772 C774 1.363 1_565 S
C772 H788 0.931 . S
C773 C772 1.370 1_545 S
C773 C777 1.408 . S
C774 C772 1.363 1_545 S
C774 C775 1.370 . S
C774 C778 1.524 1_545 S
C775 C767 1.503 . S
C775 C774 1.370 . S
C775 C776 1.403 . S
C776 C775 1.403 . S
C776 C777 1.404 . S
C776 C779 1.539 . S
C777 C773 1.408 . S
C777 C776 1.404 . S
C777 H789 0.930 . S
C778 C774 1.524 1_565 S
C778 H790 0.956 . S
C778 H791 0.961 . S
C778 H792 0.961 . S
C779 C776 1.539 . S
C779 H793 0.958 . S
C779 H794 0.961 . S
C779 H795 0.960 . S
H780 C764 0.931 . S
H781 C769 0.929 . S
H782 C770 0.960 . S
H783 C770 0.962 1_565 S
H784 C770 0.960 . S
H785 C771 0.961 . S
H786 C771 0.961 . S
H787 C771 0.961 . S
H788 C772 0.931 . S
H789 C777 0.930 . S
H790 C778 0.956 . S
H791 C778 0.961 . S
H792 C778 0.961 . S
H793 C779 0.958 . S
H794 C779 0.961 . S
H795 C779 0.960 . S
C796 C797 1.391 . S
C796 C798 1.394 . S
C796 H812 0.931 . S
C797 C796 1.391 . S
C797 C801 1.376 . S
C798 C796 1.394 . S
C798 C799 1.369 . S
C798 C802 1.531 . S
C799 C798 1.369 . S
C799 C800 1.410 . S
C799 C807 1.503 . S
C800 C799 1.410 . S
C800 C801 1.392 . S
C800 C803 1.511 . S
C801 C797 1.376 . S
C801 C800 1.392 . S
C801 H813 0.929 . S
C802 C798 1.531 . S
C802 H814 0.960 . S
C802 H815 0.962 . S
C802 H816 0.960 . S
C803 C800 1.511 . S
C803 H817 0.961 . S
C803 H818 0.961 . S
C803 H819 0.961 . S
C804 C805 1.370 . S
C804 C806 1.363 . S
C804 H820 0.931 . S
C805 C804 1.370 . S
C805 C809 1.408 . S
C806 C804 1.363 . S
C806 C807 1.370 . S
C806 C810 1.524 . S
C807 C799 1.503 . S
C807 C806 1.370 . S
C807 C808 1.403 . S
C808 C807 1.403 . S
C808 C809 1.404 . S
C808 C811 1.539 . S
C809 C805 1.408 . S
C809 C808 1.404 . S
C809 H821 0.930 . S
C810 C806 1.524 . S
C810 H822 0.956 . S
C810 H823 0.961 . S
C810 H824 0.961 . S
C811 C808 1.539 . S
C811 H825 0.958 . S
C811 H826 0.961 . S
C811 H827 0.960 . S
H812 C796 0.931 . S
H813 C801 0.929 . S
H814 C802 0.960 . S
H815 C802 0.962 . S
H816 C802 0.960 . S
H817 C803 0.961 . S
H818 C803 0.961 . S
H819 C803 0.961 . S
H820 C804 0.931 . S
H821 C809 0.930 . S
H822 C810 0.956 . S
H823 C810 0.961 . S
H824 C810 0.961 . S
H825 C811 0.958 . S
H826 C811 0.961 . S
H827 C811 0.960 . S
C828 C829 1.391 . S
C828 C830 1.394 . S
C828 H844 0.931 . S
C829 C828 1.391 . S
C829 C833 1.376 . S
C830 C828 1.394 . S
C830 C831 1.369 . S
C830 C834 1.531 . S
C831 C830 1.369 . S
C831 C832 1.410 . S
C831 C839 1.503 . S
C832 C831 1.410 . S
C832 C833 1.392 . S
C832 C835 1.511 1_455 S
C833 C829 1.376 . S
C833 C832 1.392 . S
C833 H845 0.929 . S
C834 C830 1.531 . S
C834 H846 0.960 . S
C834 H847 0.962 . S
C834 H848 0.960 . S
C835 C832 1.511 1_655 S
C835 H849 0.961 . S
C835 H850 0.961 1_655 S
C835 H851 0.961 . S
C836 C837 1.370 . S
C836 C838 1.363 . S
C836 H852 0.931 . S
C837 C836 1.370 . S
C837 C841 1.408 . S
C838 C836 1.363 . S
C838 C839 1.370 . S
C838 C842 1.524 . S
C839 C831 1.503 . S
C839 C838 1.370 . S
C839 C840 1.403 . S
C840 C839 1.403 . S
C840 C841 1.404 . S
C840 C843 1.539 . S
C841 C837 1.408 . S
C841 C840 1.404 . S
C841 H853 0.930 . S
C842 C838 1.524 . S
C842 H854 0.956 . S
C842 H855 0.961 . S
C842 H856 0.961 . S
C843 C840 1.539 . S
C843 H857 0.958 . S
C843 H858 0.961 1_455 S
C843 H859 0.960 . S
H844 C828 0.931 . S
H845 C833 0.929 . S
H846 C834 0.960 . S
H847 C834 0.962 . S
H848 C834 0.960 . S
H849 C835 0.961 . S
H850 C835 0.961 1_455 S
H851 C835 0.961 . S
H852 C836 0.931 . S
H853 C841 0.930 . S
H854 C842 0.956 . S
H855 C842 0.961 . S
H856 C842 0.961 . S
H857 C843 0.958 . S
H858 C843 0.961 1_655 S
H859 C843 0.960 . S
C860 C861 1.391 . S
C860 C862 1.394 . S
C860 H876 0.931 . S
C861 C860 1.391 . S
C861 C865 1.376 1_565 S
C862 C860 1.394 . S
C862 C863 1.369 . S
C862 C866 1.531 1_556 S
C863 C862 1.369 . S
C863 C864 1.410 1_565 S
C863 C871 1.503 . S
C864 C863 1.410 1_545 S
C864 C865 1.392 . S
C864 C867 1.511 . S
C865 C861 1.376 1_545 S
C865 C864 1.392 . S
C865 H877 0.929 . S
C866 C862 1.531 1_554 S
C866 H878 0.960 . S
C866 H879 0.962 1_554 S
C866 H880 0.960 . S
C867 C864 1.511 . S
C867 H881 0.961 . S
C867 H882 0.961 . S
C867 H883 0.961 . S
C868 C869 1.370 . S
C868 C870 1.363 . S
C868 H884 0.931 . S
C869 C868 1.370 . S
C869 C873 1.408 1_566 S
C870 C868 1.363 . S
C870 C871 1.370 . S
C870 C874 1.524 . S
C871 C863 1.503 . S
C871 C870 1.370 . S
C871 C872 1.403 1_556 S
C872 C871 1.403 1_554 S
C872 C873 1.404 1_565 S
C872 C875 1.539 1_565 S
C873 C869 1.408 1_544 S
C873 C872 1.404 1_545 S
C873 H885 0.930 . S
C874 C870 1.524 . S
C874 H886 0.956 . S
C874 H887 0.961 . S
C874 H888 0.961 . S
C875 C872 1.539 1_545 S
C875 H889 0.958 1_545 S
C875 H890 0.961 . S
C875 H891 0.960 . S
H876 C860 0.931 . S
H877 C865 0.929 . S
H878 C866 0.960 . S
H879 C866 0.962 1_556 S
H880 C866 0.960 . S
H881 C867 0.961 . S
H882 C867 0.961 . S
H883 C867 0.961 . S
H884 C868 0.931 . S
H885 C873 0.930 . S
H886 C874 0.956 . S
H887 C874 0.961 . S
H888 C874 0.961 . S
H889 C875 0.958 1_565 S
H890 C875 0.961 . S
H891 C875 0.960 . S
C892 C893 1.391 . S
C892 C894 1.394 . S
C892 H908 0.931 . S
C893 C892 1.391 . S
C893 C897 1.376 . S
C894 C892 1.394 . S
C894 C895 1.369 . S
C894 C898 1.531 . S
C895 C894 1.369 . S
C895 C896 1.410 . S
C895 C903 1.503 . S
C896 C895 1.410 . S
C896 C897 1.392 . S
C896 C899 1.511 . S
C897 C893 1.376 . S
C897 C896 1.392 . S
C897 H909 0.929 . S
C898 C894 1.531 . S
C898 H910 0.960 . S
C898 H911 0.962 . S
C898 H912 0.960 . S
C899 C896 1.511 . S
C899 H913 0.961 . S
C899 H914 0.961 . S
C899 H915 0.938 1_545 S
C900 C901 1.370 . S
C900 C902 1.363 . S
C900 H916 0.931 . S
C901 C900 1.370 . S
C901 C905 1.408 1_545 S
C902 C900 1.363 . S
C902 C903 1.370 . S
C902 C906 1.524 . S
C903 C895 1.503 . S
C903 C902 1.370 . S
C903 C904 1.403 1_545 S
C904 C903 1.403 1_565 S
C904 C905 1.404 . S
C904 C907 1.539 . S
C905 C901 1.408 1_565 S
C905 C904 1.404 . S
C905 H917 0.930 . S
C906 C902 1.524 . S
C906 H918 0.956 . S
C906 H919 0.961 . S
C906 H920 0.961 . S
C907 C904 1.539 . S
C907 H921 0.958 . S
C907 H922 0.961 . S
C907 H923 0.960 . S
H908 C892 0.931 . S
H909 C897 0.929 . S
H910 C898 0.960 . S
H911 C898 0.962 . S
H912 C898 0.960 . S
H913 C899 0.961 . S
H914 C899 0.961 . S
H915 C899 0.938 1_565 S
H916 C900 0.931 . S
H917 C905 0.930 . S
H918 C906 0.956 . S
H919 C906 0.961 . S
H920 C906 0.961 . S
H921 C907 0.958 . S
H922 C907 0.961 . S
H923 C907 0.960 . S
C924 C925 1.391 . S
C924 C926 1.394 . S
C924 H940 0.931 . S
C925 C924 1.391 . S
C925 C929 1.376 . S
C926 C924 1.394 . S
C926 C927 1.369 . S
C926 C930 1.531 1_554 S
C927 C926 1.369 . S
C927 C928 1.410 . S
C927 C935 1.503 . S
C928 C927 1.410 . S
C928 C929 1.392 . S
C928 C931 1.511 . S
C929 C925 1.376 . S
C929 C928 1.392 . S
C929 H941 0.929 . S
C930 C926 1.531 1_556 S
C930 H942 0.960 . S
C930 H943 0.962 . S
C930 H944 0.960 . S
C931 C928 1.511 . S
C931 H945 0.961 . S
C931 H946 0.961 . S
C931 H947 0.961 . S
C932 C933 1.370 . S
C932 C934 1.363 . S
C932 H948 0.931 . S
C933 C932 1.370 . S
C933 C937 1.408 . S
C934 C932 1.363 . S
C934 C935 1.370 . S
C934 C938 1.524 . S
C935 C927 1.503 . S
C935 C934 1.370 . S
C935 C936 1.403 . S
C936 C935 1.403 . S
C936 C937 1.404 . S
C936 C939 1.539 . S
C937 C933 1.408 . S
C937 C936 1.404 . S
C937 H949 0.930 . S
C938 C934 1.524 . S
C938 H950 0.956 . S
C938 H951 0.961 . S
C938 H952 0.961 . S
C939 C936 1.539 . S
C939 H953 0.958 . S
C939 H954 0.961 . S
C939 H955 0.960 . S
H940 C924 0.931 . S
H941 C929 0.929 . S
H942 C930 0.960 . S
H943 C930 0.962 . S
H944 C930 0.960 . S
H945 C931 0.961 . S
H946 C931 0.961 . S
H947 C931 0.961 . S
H948 C932 0.931 . S
H949 C937 0.930 . S
H950 C938 0.956 . S
H951 C938 0.961 . S
H952 C938 0.961 . S
H953 C939 0.958 . S
H954 C939 0.961 . S
H955 C939 0.960 . S
C956 C957 1.391 . S
C956 C958 1.394 . S
C956 H972 0.931 . S
C957 C956 1.391 . S
C957 C961 1.376 . S
C958 C956 1.394 . S
C958 C959 1.369 . S
C958 C962 1.531 . S
C959 C958 1.369 . S
C959 C960 1.410 . S
C959 C967 1.503 . S
C960 C959 1.410 . S
C960 C961 1.392 . S
C960 C963 1.511 . S
C961 C957 1.376 . S
C961 C960 1.392 . S
C961 H973 0.929 . S
C962 C958 1.531 . S
C962 H974 0.960 . S
C962 H975 0.962 . S
C962 H976 0.960 . S
C963 C960 1.511 . S
C963 H977 0.961 . S
C963 H978 0.961 . S
C963 H979 0.961 . S
C964 C965 1.370 . S
C964 C966 1.363 . S
C964 H980 0.931 . S
C965 C964 1.370 . S
C965 C969 1.408 . S
C966 C964 1.363 . S
C966 C967 1.370 . S
C966 C970 1.524 . S
C967 C959 1.503 . S
C967 C966 1.370 . S
C967 C968 1.403 . S
C968 C967 1.403 . S
C968 C969 1.404 . S
C968 C971 1.539 . S
C969 C965 1.408 . S
C969 C968 1.404 . S
C969 H981 0.930 . S
C970 C966 1.524 . S
C970 H982 0.956 . S
C970 H983 0.961 . S
C970 H984 0.961 . S
C971 C968 1.539 . S
C971 H985 0.958 . S
C971 H986 0.961 . S
C971 H987 0.960 . S
H972 C956 0.931 . S
H973 C961 0.929 . S
H974 C962 0.960 . S
H975 C962 0.962 . S
H976 C962 0.960 . S
H977 C963 0.961 . S
H978 C963 0.961 . S
H979 C963 0.961 . S
H980 C964 0.931 . S
H981 C969 0.930 . S
H982 C970 0.956 . S
H983 C970 0.961 . S
H984 C970 0.961 . S
H985 C971 0.958 . S
H986 C971 0.961 . S
H987 C971 0.960 . S
C988 C989 1.391 . S
C988 C990 1.394 . S
C988 H1004 0.931 . S
C989 C988 1.391 . S
C989 C993 1.376 . S
C990 C988 1.394 . S
C990 C991 1.369 . S
C990 C994 1.531 . S
C991 C990 1.369 . S
C991 C992 1.410 . S
C991 C999 1.503 . S
C992 C991 1.410 . S
C992 C993 1.392 . S
C992 C995 1.500 1_656 S
C993 C989 1.376 . S
C993 C992 1.392 . S
C993 H1005 0.929 . S
C994 C990 1.531 . S
C994 H1006 0.960 . S
C994 H1007 0.962 . S
C994 H1008 0.960 . S
C995 C992 1.500 1_454 S
C995 H1009 0.977 . S
C995 H1010 0.972 . S
C995 H1011 0.945 1_554 S
C996 C997 1.370 1_554 S
C996 C998 1.363 . S
C996 H1012 0.931 . S
C997 C996 1.370 1_556 S
C997 C1001 1.408 . S
C998 C996 1.363 . S
C998 C999 1.370 1_554 S
C998 C1002 1.524 . S
C999 C991 1.503 . S
C999 C998 1.370 1_556 S
C999 C1000 1.403 . S
C1000 C999 1.403 . S
C1000 C1001 1.404 . S
C1000 C1003 1.539 1_655 S
C1001 C997 1.408 . S
C1001 C1000 1.404 . S
C1001 H1013 0.924 1_655 S
C1002 C998 1.524 . S
C1002 H1014 0.956 . S
C1002 H1015 0.961 . S
C1002 H1016 0.961 . S
C1003 C1000 1.539 1_455 S
C1003 H1017 0.958 1_455 S
C1003 H1018 0.961 . S
C1003 H1019 0.960 . S
H1004 C988 0.931 . S
H1005 C993 0.929 . S
H1006 C994 0.960 . S
H1007 C994 0.962 . S
H1008 C994 0.960 . S
H1009 C995 0.977 . S
H1010 C995 0.972 . S
H1011 C995 0.945 1_556 S
H1012 C996 0.931 . S
H1013 C1001 0.924 1_455 S
H1014 C1002 0.956 . S
H1015 C1002 0.961 . S
H1016 C1002 0.961 . S
H1017 C1003 0.958 1_655 S
H1018 C1003 0.961 . S
H1019 C1003 0.960 . S
C1020 C1021 1.391 . S
C1020 C1022 1.394 . S
C1020 H1036 0.931 . S
C1021 C1020 1.391 . S
C1021 C1025 1.376 . S
C1022 C1020 1.394 . S
C1022 C1023 1.369 . S
C1022 C1026 1.531 . S
C1023 C1022 1.369 . S
C1023 C1024 1.410 . S
C1023 C1031 1.503 . S
C1024 C1023 1.410 . S
C1024 C1025 1.392 . S
C1024 C1027 1.511 . S
C1025 C1021 1.376 . S
C1025 C1024 1.392 . S
C1025 H1037 0.929 . S
C1026 C1022 1.531 . S
C1026 H1038 0.960 . S
C1026 H1039 0.962 . S
C1026 H1040 0.960 . S
C1027 C1024 1.511 . S
C1027 H1041 0.961 1_554 S
C1027 H1042 0.961 . S
C1027 H1043 0.961 1_554 S
C1028 C1029 1.370 . S
C1028 C1030 1.363 . S
C1028 H1044 0.931 . S
C1029 C1028 1.370 . S
C1029 C1033 1.408 . S
C1030 C1028 1.363 . S
C1030 C1031 1.370 . S
C1030 C1034 1.524 . S
C1031 C1023 1.503 . S
C1031 C1030 1.370 . S
C1031 C1032 1.403 . S
C1032 C1031 1.403 . S
C1032 C1033 1.404 . S
C1032 C1035 1.539 . S
C1033 C1029 1.408 . S
C1033 C1032 1.404 . S
C1033 H1045 0.930 . S
C1034 C1030 1.524 . S
C1034 H1046 0.956 . S
C1034 H1047 0.961 . S
C1034 H1048 0.961 . S
C1035 C1032 1.539 . S
C1035 H1049 0.958 . S
C1035 H1050 0.961 . S
C1035 H1051 0.960 . S
H1036 C1020 0.931 . S
H1037 C1025 0.929 . S
H1038 C1026 0.960 . S
H1039 C1026 0.962 . S
H1040 C1026 0.960 . S
H1041 C1027 0.961 1_556 S
H1042 C1027 0.961 . S
H1043 C1027 0.961 1_556 S
H1044 C1028 0.931 . S
H1045 C1033 0.930 . S
H1046 C1034 0.956 . S
H1047 C1034 0.961 . S
H1048 C1034 0.961 . S
H1049 C1035 0.958 . S
H1050 C1035 0.961 . S
H1051 C1035 0.960 . S
C1052 C1053 1.391 . S
C1052 C1054 1.394 . S
C1052 H1068 0.931 . S
C1053 C1052 1.391 . S
C1053 C1057 1.376 . S
C1054 C1052 1.394 . S
C1054 C1055 1.369 . S
C1054 C1058 1.531 . S
C1055 C1054 1.369 . S
C1055 C1056 1.410 . S
C1055 C1063 1.503 . S
C1056 C1055 1.410 . S
C1056 C1057 1.392 . S
C1056 C1059 1.511 . S
C1057 C1053 1.376 . S
C1057 C1056 1.392 . S
C1057 H1069 0.929 . S
C1058 C1054 1.531 . S
C1058 H1070 0.960 . S
C1058 H1071 0.962 . S
C1058 H1072 0.960 . S
C1059 C1056 1.511 . S
C1059 H1073 0.961 . S
C1059 H1074 0.961 . S
C1059 H1075 0.961 . S
C1060 C1061 1.370 . S
C1060 C1062 1.363 . S
C1060 H1076 0.931 1_455 S
C1061 C1060 1.370 . S
C1061 C1065 1.408 . S
C1062 C1060 1.363 . S
C1062 C1063 1.370 . S
C1062 C1066 1.524 1_455 S
C1063 C1055 1.503 . S
C1063 C1062 1.370 . S
C1063 C1064 1.403 . S
C1064 C1063 1.403 . S
C1064 C1065 1.404 . S
C1064 C1067 1.539 . S
C1065 C1061 1.408 . S
C1065 C1064 1.404 . S
C1065 H1077 0.930 . S
C1066 C1062 1.524 1_655 S
C1066 H1078 0.956 . S
C1066 H1079 0.961 . S
C1066 H1080 0.961 . S
C1067 C1064 1.539 . S
C1067 H1081 0.958 . S
C1067 H1082 0.961 . S
C1067 H1083 0.960 . S
H1068 C1052 0.931 . S
H1069 C1057 0.929 . S
H1070 C1058 0.960 . S
H1071 C1058 0.962 . S
H1072 C1058 0.960 . S
H1073 C1059 0.961 . S
H1074 C1059 0.961 . S
H1075 C1059 0.961 . S
H1076 C1060 0.931 1_655 S
H1077 C1065 0.930 . S
H1078 C1066 0.956 . S
H1079 C1066 0.961 . S
H1080 C1066 0.961 . S
H1081 C1067 0.958 . S
H1082 C1067 0.961 . S
H1083 C1067 0.960 . S
C1084 C1085 1.391 . S
C1084 C1086 1.394 . S
C1084 H1100 0.931 . S
C1085 C1084 1.391 . S
C1085 C1089 1.376 . S
C1086 C1084 1.394 . S
C1086 C1087 1.369 . S
C1086 C1090 1.531 . S
C1087 C1086 1.369 . S
C1087 C1088 1.410 . S
C1087 C1095 1.503 . S
C1088 C1087 1.410 . S
C1088 C1089 1.392 . S
C1088 C1091 1.511 . S
C1089 C1085 1.376 . S
C1089 C1088 1.392 . S
C1089 H1101 0.929 . S
C1090 C1086 1.531 . S
C1090 H1102 0.960 . S
C1090 H1103 0.962 . S
C1090 H1104 0.960 . S
C1091 C1088 1.511 . S
C1091 H1105 0.961 . S
C1091 H1106 0.961 . S
C1091 H1107 0.961 . S
C1092 C1093 1.370 . S
C1092 C1094 1.363 . S
C1092 H1108 0.931 . S
C1093 C1092 1.370 . S
C1093 C1097 1.408 . S
C1094 C1092 1.363 . S
C1094 C1095 1.370 . S
C1094 C1098 1.524 . S
C1095 C1087 1.503 . S
C1095 C1094 1.370 . S
C1095 C1096 1.403 . S
C1096 C1095 1.403 . S
C1096 C1097 1.404 . S
C1096 C1099 1.539 . S
C1097 C1093 1.408 . S
C1097 C1096 1.404 . S
C1097 H1109 0.930 . S
C1098 C1094 1.524 . S
C1098 H1110 0.956 . S
C1098 H1111 0.961 . S
C1098 H1112 0.961 . S
C1099 C1096 1.539 . S
C1099 H1113 0.958 . S
C1099 H1114 0.961 . S
C1099 H1115 0.960 . S
H1100 C1084 0.931 . S
H1101 C1089 0.929 . S
H1102 C1090 0.960 . S
H1103 C1090 0.962 . S
H1104 C1090 0.960 . S
H1105 C1091 0.961 . S
H1106 C1091 0.961 . S
H1107 C1091 0.961 . S
H1108 C1092 0.931 . S
H1109 C1097 0.930 . S
H1110 C1098 0.956 . S
H1111 C1098 0.961 . S
H1112 C1098 0.961 . S
H1113 C1099 0.958 . S
H1114 C1099 0.961 . S
H1115 C1099 0.960 . S
C349 C29 1.538 . S
C357 C274 1.622 . S
C381 C49 1.550 . S
C389 C298 1.523 . S
C421 C318 1.455 . S
C413 C93 1.389 . S
C445 C119 1.276 . S
C453 C341 1.400 . S
C485 C300 1.630 . S
C477 C17 1.642 . S
C517 C276 1.675 . S
C509 C61 1.712 . S
C549 C344 1.532 . S
C541 C81 1.532 . S
C581 C321 1.591 . S
C573 C125 1.512 . S
C605 C23 1.359 . S
C613 C346 1.336 . S
C645 C295 1.607 . S
C637 C87 1.489 . S
C669 C113 1.606 . S
C677 C273 1.655 . S
C701 C55 1.384 . S
C709 C323 1.363 . S
C741 C277 1.646 . S
C733 C157 1.653 . S
C765 C189 1.490 . S
C773 C299 1.601 . S
C797 C221 1.769 . S
C805 C319 1.768 . S
C829 C253 1.681 . S
C837 C342 1.779 . S
C861 C145 1.630 . S
C869 C297 1.573 1_556 S
C901 C275 1.553 . S
C893 C183 1.461 . S
C933 C345 1.490 . S
C925 C209 1.545 . S
C965 C322 1.487 . S
C957 C247 1.400 . S
C989 C151 1.893 . S
C997 C343 1.826 . S
C1029 C296 1.554 . S
C1021 C215 1.572 . S
C1061 C272 1.601 . S
C1053 C241 1.451 . S
C1085 C177 1.780 . S
C1093 C320 1.850 . S
