# Generated by pormake.
# Topology zzz, (3,6)-cn, num edge types: 1
# Building blocks:
#     Node 0, Type 0, BuildingBlock: BELTOD_clean_linker_0, # of connection points: 3
#     Node 1, Type 0, BuildingBlock: BELTOD_clean_linker_0, # of connection points: 3
#     Node 2, Type 0, BuildingBlock: BELTOD_clean_linker_0, # of connection points: 3
#     Node 3, Type 0, BuildingBlock: BELTOD_clean_linker_0, # of connection points: 3
#     Node 4, Type 0, BuildingBlock: BELTOD_clean_linker_0, # of connection points: 3
#     Node 5, Type 0, BuildingBlock: BELTOD_clean_linker_0, # of connection points: 3
#     Node 6, Type 0, BuildingBlock: BELTOD_clean_linker_0, # of connection points: 3
#     Node 7, Type 0, BuildingBlock: BELTOD_clean_linker_0, # of connection points: 3
#     Node 8, Type 1, BuildingBlock: BETDIP_clean_sbu_0, # of connection points: 6
#     Node 9, Type 1, BuildingBlock: BETDIP_clean_sbu_0, # of connection points: 6
#     Node 10, Type 1, BuildingBlock: BETDIP_clean_sbu_0, # of connection points: 6
#     Node 11, Type 1, BuildingBlock: BETDIP_clean_sbu_0, # of connection points: 6
#     Edge 12, Type (0, 1), BuildingBlock: XIVTED_clean_linker_0, # of connection points: 2
#     Edge 13, Type (0, 1), BuildingBlock: XIVTED_clean_linker_0, # of connection points: 2
#     Edge 14, Type (0, 1), BuildingBlock: XIVTED_clean_linker_0, # of connection points: 2
#     Edge 15, Type (0, 1), BuildingBlock: XIVTED_clean_linker_0, # of connection points: 2
#     Edge 16, Type (0, 1), BuildingBlock: XIVTED_clean_linker_0, # of connection points: 2
#     Edge 17, Type (0, 1), BuildingBlock: XIVTED_clean_linker_0, # of connection points: 2
#     Edge 18, Type (0, 1), BuildingBlock: XIVTED_clean_linker_0, # of connection points: 2
#     Edge 19, Type (0, 1), BuildingBlock: XIVTED_clean_linker_0, # of connection points: 2
#     Edge 20, Type (0, 1), BuildingBlock: XIVTED_clean_linker_0, # of connection points: 2
#     Edge 21, Type (0, 1), BuildingBlock: XIVTED_clean_linker_0, # of connection points: 2
#     Edge 22, Type (0, 1), BuildingBlock: XIVTED_clean_linker_0, # of connection points: 2
#     Edge 23, Type (0, 1), BuildingBlock: XIVTED_clean_linker_0, # of connection points: 2
#     Edge 24, Type (0, 1), BuildingBlock: XIVTED_clean_linker_0, # of connection points: 2
#     Edge 25, Type (0, 1), BuildingBlock: XIVTED_clean_linker_0, # of connection points: 2
#     Edge 26, Type (0, 1), BuildingBlock: XIVTED_clean_linker_0, # of connection points: 2
#     Edge 27, Type (0, 1), BuildingBlock: XIVTED_clean_linker_0, # of connection points: 2
#     Edge 28, Type (0, 1), BuildingBlock: XIVTED_clean_linker_0, # of connection points: 2
#     Edge 29, Type (0, 1), BuildingBlock: XIVTED_clean_linker_0, # of connection points: 2
#     Edge 30, Type (0, 1), BuildingBlock: XIVTED_clean_linker_0, # of connection points: 2
#     Edge 31, Type (0, 1), BuildingBlock: XIVTED_clean_linker_0, # of connection points: 2
#     Edge 32, Type (0, 1), BuildingBlock: XIVTED_clean_linker_0, # of connection points: 2
#     Edge 33, Type (0, 1), BuildingBlock: XIVTED_clean_linker_0, # of connection points: 2
#     Edge 34, Type (0, 1), BuildingBlock: XIVTED_clean_linker_0, # of connection points: 2
#     Edge 35, Type (0, 1), BuildingBlock: XIVTED_clean_linker_0, # of connection points: 2
# Relax obj value: 0.429
# Max RMSD: 0.251
# Mean RMSD: 0.233
data_MOF--net-zzz--node1-BETDIP_clean_sbu_0--node2-BELTOD_clean_linker_0--edge1-XIVTED_clean_linker_0
_symmetry_space_group_name_H-M    P1
_symmetry_Int_Tables_number       1
_symmetry_cell_setting            triclinic
loop_
_symmetry_equiv_pos_as_xyz
'x, y, z'
_cell_length_a     56.006288
_cell_length_b     55.968038
_cell_length_c     17.363178
_cell_angle_alpha  89.540974
_cell_angle_beta   89.961341
_cell_angle_gamma 89.914394
loop_
_atom_site_label
_atom_site_type_symbol
_atom_site_fract_x
_atom_site_fract_y
_atom_site_fract_z
_atom_type_partial_charge
P0 P 0.72293 0.47067 0.37162 0.0
H1 H 0.7351 0.48641 0.52755 0.0
H2 H 0.77277 0.49969 0.58276 0.0
H3 H 0.80271 0.50605 0.35404 0.0
H4 H 0.76466 0.49368 0.29933 0.0
H5 H 0.6738 0.45775 0.34436 0.0
H6 H 0.64406 0.4711 0.25204 0.0
H7 H 0.69155 0.52727 0.17533 0.0
H8 H 0.72168 0.51334 0.26845 0.0
H9 H 0.74659 0.42567 0.41014 0.0
H10 H 0.73282 0.46793 0.20621 0.0
O11 O 0.70973 0.45666 0.44542 0.0
H12 H 0.77469 0.40107 0.33776 0.0
H13 H 0.76134 0.44439 0.13481 0.0
C14 C 0.74699 0.48878 0.40916 0.0
C15 C 0.74948 0.49141 0.48902 0.0
C16 C 0.77127 0.4987 0.5207 0.0
C17 C 0.79116 0.50335 0.47322 0.0
C18 C 0.78792 0.50266 0.39276 0.0
C19 C 0.76604 0.49556 0.36115 0.0
C20 C 0.69981 0.48483 0.31462 0.0
C21 C 0.67764 0.47338 0.30935 0.0
C22 C 0.66055 0.48109 0.25619 0.0
C23 C 0.66523 0.50038 0.20606 0.0
C24 C 0.68734 0.51227 0.21265 0.0
C25 C 0.7045 0.50453 0.26649 0.0
C26 C 0.73747 0.44853 0.31355 0.0
C27 C 0.74903 0.42919 0.34922 0.0
C28 C 0.76529 0.41529 0.30789 0.0
C29 C 0.7706 0.42089 0.23055 0.0
C30 C 0.75756 0.43922 0.19377 0.0
C31 C 0.74119 0.4529 0.23493 0.0
P32 P 0.0388 0.7215 0.37014 0.0
H33 H 0.03278 0.73918 0.52724 0.0
H34 H 0.02061 0.77791 0.57497 0.0
H35 H 0.99437 0.79693 0.34837 0.0
H36 H 0.00823 0.75857 0.30004 0.0
H37 H 0.04906 0.67089 0.35858 0.0
H38 H 0.03566 0.64032 0.2706 0.0
H39 H 0.9819 0.68865 0.18149 0.0
H40 H 0.99602 0.71956 0.26914 0.0
H41 H 0.06904 0.76328 0.38356 0.0
H42 H 0.05303 0.71126 0.20885 0.0
O43 O 0.05537 0.70953 0.44046 0.0
H44 H 0.08925 0.78795 0.28822 0.0
H45 H 0.07414 0.73536 0.1137 0.0
C46 C 0.02118 0.74563 0.41005 0.0
C47 C 0.02375 0.75133 0.48813 0.0
C48 C 0.01672 0.77373 0.51557 0.0
C49 C 0.00673 0.79102 0.46562 0.0
C50 C 1.00249 0.78446 0.38853 0.0
C51 C 0.00985 0.76214 0.36097 0.0
C52 C 0.02335 0.69752 0.32174 0.0
C53 C 0.03385 0.67476 0.32203 0.0
C54 C 0.02613 0.65716 0.27121 0.0
C55 C 0.00768 0.66188 0.21821 0.0
C56 C 0.99637 0.68441 0.22058 0.0
C57 C 0.00423 0.70209 0.27158 0.0
C58 C 0.05883 0.73583 0.30311 0.0
C59 C 0.07041 0.75685 0.32504 0.0
C60 C 0.08223 0.77086 0.27033 0.0
C61 C 0.08301 0.76387 0.19267 0.0
C62 C 0.07334 0.74158 0.17254 0.0
C63 C 0.06126 0.72772 0.22725 0.0
P64 P 0.79349 0.03928 0.37917 0.0
H65 H 0.78219 0.02096 0.53387 0.0
H66 H 0.7448 0.0063 0.58804 0.0
H67 H 0.71523 1.00171 0.35867 0.0
H68 H 0.75313 0.01502 0.30509 0.0
H69 H 0.84024 0.05725 0.34069 0.0
H70 H 0.8709 0.04494 0.25035 0.0
H71 H 0.82915 0.98261 0.19327 0.0
H72 H 0.798 0.99564 0.28351 0.0
H73 H 0.76651 0.08133 0.42492 0.0
H74 H 0.78307 0.04439 0.21454 0.0
O75 O 0.80628 0.05287 0.45375 0.0
H76 H 0.73527 0.10387 0.35833 0.0
H77 H 0.7515 0.06606 0.14843 0.0
C78 C 0.77047 0.01946 0.41533 0.0
C79 C 0.76799 0.01594 0.49497 0.0
C80 C 0.74633 0.00791 0.52607 0.0
C81 C 0.72651 1.00354 0.47821 0.0
C82 C 0.72989 0.00488 0.39783 0.0
C83 C 0.75171 0.01256 0.36681 0.0
C84 C 0.81705 0.02713 0.32008 0.0
C85 C 0.83786 0.04066 0.30995 0.0
C86 C 0.8555 0.03351 0.25816 0.0
C87 C 0.85276 0.01261 0.21456 0.0
C88 C 0.83188 0.99887 0.22544 0.0
C89 C 0.81412 0.00614 0.27759 0.0
C90 C 0.77725 0.06135 0.32458 0.0
C91 C 0.76403 0.07871 0.36371 0.0
C92 C 0.74597 0.09137 0.32574 0.0
C93 C 0.74058 0.08654 0.24827 0.0
C94 C 0.75525 0.07052 0.20777 0.0
C95 C 0.7734 0.05801 0.24569 0.0
P96 P 0.47264 0.79432 0.38435 0.0
H97 H 0.47781 0.77653 0.54241 0.0
H98 H 0.49111 0.73824 0.59217 0.0
H99 H 0.52149 0.72158 0.36991 0.0
H100 H 0.50665 0.75953 0.31934 0.0
H101 H 0.4689 0.84619 0.39644 0.0
H102 H 0.47922 0.87852 0.30824 0.0
H103 H 0.51691 0.82865 0.16369 0.0
H104 H 0.50656 0.79613 0.2529 0.0
H105 H 0.44617 0.75021 0.40495 0.0
H106 H 0.45397 0.80378 0.22657 0.0
O107 O 0.45594 0.80617 0.45398 0.0
H108 H 0.42593 0.72423 0.31524 0.0
H109 H 0.43302 0.77803 0.13645 0.0
C110 C 0.4914 0.77129 0.42703 0.0
C111 C 0.48802 0.76507 0.50476 0.0
C112 C 0.49569 0.74289 0.5334 0.0
C113 C 0.50715 0.7263 0.48514 0.0
C114 C 0.51223 0.73346 0.40873 0.0
C115 C 0.50426 0.75558 0.37991 0.0
C116 C 0.48701 0.81856 0.33197 0.0
C117 C 0.48 0.84215 0.34718 0.0
C118 C 0.48574 0.8607 0.29611 0.0
C119 C 0.49858 0.85615 0.22818 0.0
C120 C 0.50711 0.83281 0.21568 0.0
C121 C 0.5013 0.81416 0.26704 0.0
C122 C 0.45264 0.77845 0.3217 0.0
C123 C 0.44315 0.75659 0.34672 0.0
C124 C 0.43123 0.74182 0.2953 0.0
C125 C 0.42819 0.74882 0.2179 0.0
C126 C 0.43563 0.77182 0.19508 0.0
C127 C 0.44772 0.78656 0.24669 0.0
P128 P 0.29327 0.46023 0.06501 0.0
H129 H 0.27597 0.46187 0.90533 0.0
H130 H 0.2377 0.47433 0.85214 0.0
H131 H 0.22056 0.50917 0.06638 0.0
H132 H 0.25825 0.49554 0.1203 0.0
H133 H 0.34508 0.45342 0.06605 0.0
H134 H 0.37564 0.4654 0.15776 0.0
H135 H 0.32491 0.51206 0.26832 0.0
H136 H 0.29439 0.50003 0.17638 0.0
H137 H 0.24789 0.43493 0.05905 0.0
H138 H 0.30275 0.44708 0.22866 0.0
O139 O 0.30498 0.44107 1.00218 0.0
H140 H 0.21938 0.42666 0.16083 0.0
H141 H 0.27436 0.43829 0.33108 0.0
C142 C 0.27047 0.47803 0.01678 0.0
C143 C 0.26442 0.47293 0.94014 0.0
C144 C 0.24231 0.48005 0.90964 0.0
C145 C 0.22563 0.49246 0.95515 0.0
C146 C 0.23261 0.49921 0.02986 0.0
C147 C 0.25464 0.49195 0.06039 0.0
C148 C 0.3173 0.47593 0.11324 0.0
C149 C 0.34067 0.46694 0.10798 0.0
C150 C 0.35821 0.47375 0.16091 0.0
C151 C 0.35267 0.48946 0.22115 0.0
C152 C 0.3297 0.49969 0.2232 0.0
C153 C 0.31224 0.49307 0.16963 0.0
C154 C 0.27696 0.44326 0.13631 0.0
C155 C 0.25406 0.435 0.11815 0.0
C156 C 0.23776 0.43001 0.17679 0.0
C157 C 0.24436 0.43282 0.25436 0.0
C158 C 0.26852 0.4369 0.27183 0.0
C159 C 0.28477 0.44209 0.21302 0.0
P160 P 0.03293 0.2748 0.15902 0.0
H161 H 0.07042 0.24997 0.07378 0.0
H162 H 0.06747 0.21781 0.9811 0.0
H163 H 0.99271 0.23396 0.94817 0.0
H164 H 0.99617 0.26708 0.0389 0.0
H165 H 0.07272 0.30807 0.17559 0.0
H166 H 0.07362 0.34769 0.23247 0.0
H167 H 0.99682 0.35211 0.2131 0.0
H168 H 0.99627 0.31286 0.15252 0.0
H169 H 1.00312 0.23163 0.15028 0.0
H170 H 0.00901 0.293 0.29804 0.0
O171 O 0.05665 0.26466 0.2075 0.0
H172 H 0.96976 0.21721 0.22549 0.0
H173 H 0.97555 0.27812 0.37523 0.0
C174 C 0.03331 0.26046 0.06555 0.0
C175 C 0.05357 0.24729 0.04459 0.0
C176 C 0.05176 0.22857 0.99209 0.0
C177 C 0.02956 0.22243 0.95983 0.0
C178 C 0.01004 0.23786 0.97255 0.0
C179 C 0.01203 0.25698 0.02429 0.0
C180 C 0.03434 0.30711 0.16226 0.0
C181 C 0.05614 0.31793 0.18056 0.0
C182 C 0.05659 0.34054 0.21429 0.0
C183 C 0.03519 0.35272 0.23091 0.0
C184 C 0.01367 0.34324 0.20231 0.0
C185 C 0.01331 0.32071 0.16728 0.0
C186 C 0.00754 0.26449 0.21423 0.0
C187 C 0.99663 0.2427 0.19649 0.0
C188 C 0.9775 0.23432 0.24009 0.0
C189 C 0.96942 0.24704 0.30447 0.0
C190 C 0.98096 0.26835 0.3245 0.0
C191 C 0.99998 0.27691 0.27997 0.0
P192 P 0.24338 0.04278 0.15355 0.0
H193 H 0.2589 0.07574 0.03226 0.0
H194 H 0.29031 0.07157 0.9359 0.0
H195 H 0.29081 0.99525 0.97381 0.0
H196 H 0.25906 0.99942 0.06839 0.0
H197 H 0.21376 0.07489 0.2416 0.0
H198 H 0.1738 0.07184 0.29116 0.0
H199 H 0.16148 0.00972 0.15026 0.0
H200 H 0.20255 0.01284 0.10072 0.0
H201 H 0.28018 0.044 0.27261 0.0
H202 H 0.23163 0.99199 0.17856 0.0
O203 O 0.25413 0.06901 0.18293 0.0
H204 H 0.29869 0.01295 0.3512 0.0
H205 H 0.2507 0.96062 0.25609 0.0
C206 C 0.25693 0.03803 0.05983 0.0
C207 C 0.26507 0.05797 0.01797 0.0
C208 C 0.28334 0.0556 0.96335 0.0
C209 C 0.29375 0.03316 0.94891 0.0
C210 C 0.28346 0.01285 0.98384 0.0
C211 C 0.26517 0.01527 0.03857 0.0
C212 C 0.21133 0.04421 0.16669 0.0
C213 C 0.2024 0.06103 0.2188 0.0
C214 C 0.17922 0.05925 0.24747 0.0
C215 C 0.16412 0.04048 0.22522 0.0
C216 C 0.17263 0.02427 0.16957 0.0
C217 C 0.19605 0.02615 0.14051 0.0
C218 C 0.2545 0.02039 0.21946 0.0
C219 C 0.27314 0.02603 0.26981 0.0
C220 C 0.28365 0.00826 0.31515 0.0
C221 C 0.27599 0.98444 0.30989 0.0
C222 C 0.25681 0.97889 0.26134 0.0
C223 C 0.24594 0.99683 0.21713 0.0
P224 P 0.46303 0.21802 0.02143 0.0
H225 H 0.46827 0.23662 0.86434 0.0
H226 H 0.48049 0.27596 0.81964 0.0
H227 H 0.51144 0.29006 0.04248 0.0
H228 H 0.49866 0.2506 0.08732 0.0
H229 H 0.44023 0.17567 0.08029 0.0
H230 H 0.45208 0.14444 0.17012 0.0
H231 H 0.52308 0.17454 0.18018 0.0
H232 H 0.51054 0.2065 0.09111 0.0
H233 H 0.42578 0.2527 0.98818 0.0
H234 H 0.46289 0.2256 0.18826 0.0
O235 O 0.44557 0.20678 0.95282 0.0
H236 H 0.41521 0.28879 0.05869 0.0
H237 H 0.45256 0.26136 0.25835 0.0
C238 C 0.48269 0.24031 0.97922 0.0
C239 C 0.47865 0.24764 0.90278 0.0
C240 C 0.48555 0.27042 0.87725 0.0
C241 C 0.49659 0.28658 0.92771 0.0
C242 C 0.50254 0.27837 1.00228 0.0
C243 C 0.49571 0.25549 0.02762 0.0
C244 C 0.47455 0.19324 0.07793 0.0
C245 C 0.45851 0.17532 0.1006 0.0
C246 C 0.4654 0.15732 0.15212 0.0
C247 C 0.48867 0.15665 0.18267 0.0
C248 C 0.50495 0.1745 0.15867 0.0
C249 C 0.4979 0.19271 0.10703 0.0
C250 C 0.44513 0.23645 0.08281 0.0
C251 C 0.4305 0.25388 0.04851 0.0
C252 C 0.42471 0.27462 0.08857 0.0
C253 C 0.43347 0.27811 0.16346 0.0
C254 C 0.44542 0.25921 0.20087 0.0
C255 C 0.45134 0.23859 0.16062 0.0
Tb256 Tb 0.02152 1.00189 0.7575 0.0
Tb257 Tb 0.98584 0.01493 0.64459 0.0
C258 C 0.04649 0.98259 0.86104 0.0
C259 C 0.05588 0.95847 0.87636 0.0
C260 C 0.04143 0.93818 0.86844 0.0
C261 C 0.05066 0.91549 0.88411 0.0
C262 C 0.07455 0.91262 0.9076 0.0
C263 C 0.0891 0.93298 0.91369 0.0
C264 C 0.07981 0.95569 0.89833 0.0
C265 C 0.03919 0.0191 0.62725 0.0
C266 C 1.0007 0.96188 0.64581 0.0
C267 C 0.96114 0.03513 0.54233 0.0
C268 C 0.95165 0.05958 0.5355 0.0
C269 C 0.96614 0.07927 0.55248 0.0
C270 C 0.95674 0.10229 0.55067 0.0
C271 C 0.93268 0.1062 0.53138 0.0
C272 C 0.91816 0.08651 0.51392 0.0
C273 C 0.92758 0.06333 0.51642 0.0
C274 C 0.96776 0.99818 0.77508 0.0
C275 C 0.00703 0.05496 0.75767 0.0
O276 O 0.02335 0.98548 0.86624 0.0
O277 O 0.05546 0.99348 0.80095 0.0
O278 O 0.02224 0.00446 0.6337 0.0
O279 O 0.04707 0.02426 0.69505 0.0
O280 O 0.01033 0.96671 0.71355 0.0
O281 O 0.99254 0.97925 0.60117 0.0
O282 O 0.98437 0.03278 0.53811 0.0
O283 O 0.95201 0.02234 0.59815 0.0
O284 O 0.98507 0.01246 0.76828 0.0
O285 O 0.95987 0.9932 0.70711 0.0
O286 O 0.99646 0.05026 0.69112 0.0
O287 O 0.01563 0.03749 0.80078 0.0
H288 H 0.02292 0.93984 0.85122 0.0
H289 H 0.0388 0.90028 0.88009 0.0
H290 H 0.10763 0.93139 0.93072 0.0
H291 H 0.09129 0.97115 0.90399 0.0
H292 H 0.9848 0.07695 0.56702 0.0
H293 H 0.96858 0.11712 0.56224 0.0
H294 H 0.8996 0.08904 0.49833 0.0
H295 H 0.91607 0.04833 0.50366 0.0
Tb296 Tb 0.51614 0.0226 0.76438 0.0
Tb297 Tb 0.50051 0.99052 0.64179 0.0
C298 C 0.5246 0.04439 0.88756 0.0
C299 C 0.54555 0.05629 0.92005 0.0
C300 C 0.56816 0.05312 0.88706 0.0
C301 C 0.58819 0.06376 0.92004 0.0
C302 C 0.58591 0.07789 0.98637 0.0
C303 C 0.56302 0.08157 0.01774 0.0
C304 C 0.54301 0.07081 0.98483 0.0
C305 C 0.51645 0.04273 0.62616 0.0
C306 C 0.55617 1.00045 0.66625 0.0
C307 C 0.49135 0.96644 0.52423 0.0
C308 C 0.47056 0.9517 0.50447 0.0
C309 C 0.46048 0.95367 0.43095 0.0
C310 C 0.43822 0.94353 0.41586 0.0
C311 C 0.42567 0.93124 0.47426 0.0
C312 C 0.43675 0.92767 0.54602 0.0
C313 C 0.45894 0.93792 0.56116 0.0
C314 C 0.49966 0.97113 0.78089 0.0
C315 C 0.46022 0.014 0.73705 0.0
O316 O 0.52625 0.02118 0.88048 0.0
O317 O 0.51545 0.05459 0.82641 0.0
O318 O 0.5008 0.02849 0.65188 0.0
O319 O 0.53184 0.04697 0.67995 0.0
O320 O 0.55126 0.00925 0.73471 0.0
O321 O 0.53889 0.99487 0.61757 0.0
O322 O 0.48706 0.98939 0.52909 0.0
O323 O 0.50462 0.95859 0.58104 0.0
O324 O 0.51576 0.98461 0.75421 0.0
O325 O 0.48399 0.96732 0.72792 0.0
O326 O 0.46506 1.00373 0.6706 0.0
O327 O 0.47748 0.02034 0.78471 0.0
H328 H 0.57039 0.04206 0.83666 0.0
H329 H 0.60554 0.06023 0.895 0.0
H330 H 0.56058 0.0926 0.06812 0.0
H331 H 0.52559 0.0736 0.01047 0.0
H332 H 0.46914 0.96428 0.38658 0.0
H333 H 0.43012 0.9469 0.36019 0.0
H334 H 0.42771 0.91804 0.59182 0.0
H335 H 0.46637 0.93606 0.61845 0.0
Tb336 Tb 0.4958 0.51392 0.78151 0.0
Tb337 Tb 0.52381 0.49972 0.64454 0.0
C338 C 0.48056 0.53323 0.90182 0.0
C339 C 0.4689 0.55629 0.91852 0.0
C340 C 0.48074 0.57805 0.90534 0.0
C341 C 0.46938 0.59968 0.92085 0.0
C342 C 0.44589 0.60009 0.94966 0.0
C343 C 0.43399 0.57828 0.96208 0.0
C344 C 0.44542 0.55661 0.94687 0.0
C345 C 0.4695 0.50244 0.66049 0.0
C346 C 0.51529 0.55441 0.6642 0.0
C347 C 0.53507 0.47965 0.52108 0.0
C348 C 0.52244 0.4604 0.48151 0.0
C349 C 0.49898 0.45485 0.50359 0.0
C350 C 0.48655 0.43662 0.46737 0.0
C351 C 0.49737 0.42349 0.40829 0.0
C352 C 0.52087 0.42918 0.38571 0.0
C353 C 0.53335 0.44753 0.4223 0.0
C354 C 0.55017 0.51149 0.76443 0.0
C355 C 0.50406 0.46016 0.76072 0.0
O356 O 0.50298 0.53393 0.8802 0.0
O357 O 0.46799 0.51827 0.86108 0.0
O358 O 0.48887 0.51376 0.66007 0.0
O359 O 0.46334 0.49859 0.73132 0.0
O360 O 0.50531 0.54909 0.73156 0.0
O361 O 0.52286 0.53759 0.6171 0.0
O362 O 0.52326 0.49977 0.52409 0.0
O363 O 0.54443 0.47385 0.58768 0.0
O364 O 0.53083 0.50005 0.76562 0.0
O365 O 0.55655 0.51475 0.69326 0.0
O366 O 0.50769 0.46611 0.68762 0.0
O367 O 0.50271 0.47694 0.81354 0.0
H368 H 0.49886 0.57845 0.88364 0.0
H369 H 0.4793 0.61608 0.91215 0.0
H370 H 0.41584 0.57794 0.9836 0.0
H371 H 0.43589 0.54006 0.95725 0.0
H372 H 0.49018 0.4647 0.54883 0.0
H373 H 0.46838 0.43294 0.48524 0.0
H374 H 0.52971 0.41919 0.34076 0.0
H375 H 0.55146 0.4516 0.40467 0.0
Tb376 Tb 1.00172 0.49324 0.78528 0.0
Tb377 Tb 0.01471 0.52434 0.65383 0.0
C378 C 0.98402 0.47463 0.90439 0.0
C379 C 0.96277 0.46049 0.92471 0.0
C380 C 0.93989 0.46725 0.89978 0.0
C381 C 0.91991 0.45413 0.92293 0.0
C382 C 0.92244 0.43402 0.97145 0.0
C383 C 0.94548 0.42689 0.9942 0.0
C384 C 0.96545 0.44004 0.97107 0.0
C385 C 0.01599 0.4701 0.66118 0.0
C386 C 0.96067 0.51215 0.66914 0.0
C387 C 0.03529 0.53966 0.53545 0.0
C388 C 0.05904 0.53324 0.50512 0.0
C389 C 0.06067 0.51989 0.43724 0.0
C390 C 0.08211 0.50881 0.41714 0.0
C391 C 0.10236 0.51096 0.46445 0.0
C392 C 0.10117 0.52585 0.52911 0.0
C393 C 0.07972 0.53684 0.54937 0.0
C394 C 1.00028 0.5477 0.77685 0.0
C395 C 0.05484 0.50554 0.76935 0.0
O396 O 0.98057 0.49697 0.88397 0.0
O397 O 0.99974 0.46393 0.86093 0.0
O398 O 1.00296 0.48838 0.66307 0.0
O399 O 0.02022 0.46316 0.73107 0.0
O400 O 0.96632 0.50091 0.73439 0.0
O401 O 0.97717 0.52192 0.62452 0.0
O402 O 0.01973 0.52224 0.5346 0.0
O403 O 0.03478 0.55143 0.60036 0.0
O404 O 0.01334 0.52933 0.77599 0.0
O405 O 0.99631 0.55456 0.70645 0.0
O406 O 0.04937 0.51049 0.6967 0.0
O407 O 0.03772 0.50231 0.82049 0.0
H408 H 0.93736 0.48296 0.86396 0.0
H409 H 0.90241 0.46035 0.90534 0.0
H410 H 0.94805 0.41136 0.03087 0.0
H411 H 0.98299 0.43445 0.99045 0.0
H412 H 0.04501 0.51692 0.40198 0.0
H413 H 0.08263 0.49802 0.36568 0.0
H414 H 0.11641 0.52791 0.56682 0.0
H415 H 0.07911 0.54699 0.60219 0.0
H416 H 0.14204 0.99821 0.26795 0.0
H417 H 0.06658 0.0577 0.59401 0.0
H418 H 0.13279 0.07475 0.27781 0.0
H419 H 0.04418 0.99021 0.50085 0.0
H420 H 0.09321 0.06334 0.48332 0.0
H421 H 0.10784 0.99346 0.35492 0.0
C422 C 0.13263 0.01402 0.28686 0.0
C423 C 0.14079 0.03697 0.26619 0.0
C424 C 0.08226 0.04742 0.48651 0.0
C425 C 0.10203 0.03154 0.36783 0.0
C426 C 0.06712 0.04419 0.54968 0.0
C427 C 0.05319 0.02352 0.55631 0.0
C428 C 0.08403 0.02951 0.43057 0.0
C429 C 0.05458 0.00649 0.49746 0.0
C430 C 0.11317 0.01125 0.337 0.0
C431 C 0.1278 0.05671 0.29376 0.0
N432 N 0.07008 0.00964 0.43759 0.0
N433 N 0.10946 0.05356 0.34413 0.0
H434 H 0.47376 0.10966 0.19296 0.0
H435 H 0.54439 0.08031 0.58307 0.0
H436 H 0.51841 0.16092 0.30882 0.0
H437 H 0.48311 0.03989 0.50968 0.0
H438 H 0.53938 0.10687 0.47176 0.0
H439 H 0.48123 0.08106 0.29727 0.0
C440 C 0.48512 0.11501 0.24015 0.0
C441 C 0.49518 0.13807 0.24193 0.0
C442 C 0.52706 0.09216 0.47974 0.0
C443 C 0.50422 0.1049 0.36137 0.0
C444 C 0.52993 0.07692 0.54323 0.0
C445 C 0.51406 0.05789 0.55597 0.0
C446 C 0.50832 0.08827 0.4277 0.0
C447 C 0.49572 0.05436 0.50216 0.0
C448 C 0.48944 0.09855 0.29964 0.0
C449 C 0.51036 0.14344 0.30398 0.0
N450 N 0.49335 0.0694 0.44037 0.0
N451 N 0.51433 0.12706 0.36107 0.0
H452 H 0.34347 0.48918 0.37597 0.0
H453 H 0.47782 0.51467 0.50929 0.0
H454 H 0.40128 0.49741 0.21368 0.0
H455 H 0.42369 0.48581 0.66 0.0
H456 H 0.44977 0.51204 0.40106 0.0
H457 H 0.37204 0.49237 0.48167 0.0
C458 C 0.36215 0.49199 0.36247 0.0
C459 C 0.36992 0.49315 0.28558 0.0
C460 C 0.44407 0.50622 0.45778 0.0
C461 C 0.40291 0.49653 0.40697 0.0
C462 C 0.46008 0.50767 0.51953 0.0
C463 C 0.45312 0.50035 0.59374 0.0
C464 C 0.42076 0.49778 0.47057 0.0
C465 C 0.42984 0.49162 0.60379 0.0
C466 C 0.3785 0.49355 0.42297 0.0
C467 C 0.39448 0.49632 0.27196 0.0
N468 N 0.41448 0.49071 0.54314 0.0
N469 N 0.41008 0.49797 0.33196 0.0
H470 H 0.06278 0.35769 0.35988 0.0
H471 H 0.99791 0.47574 0.51482 0.0
H472 H 0.00681 0.39351 0.23264 0.0
H473 H 0.04486 0.43113 0.6504 0.0
H474 H 0.00436 0.44932 0.40413 0.0
H475 H 0.06019 0.38812 0.45834 0.0
C476 C 0.05021 0.3722 0.35157 0.0
C477 C 0.03507 0.37293 0.28697 0.0
C478 C 0.01333 0.44541 0.458 0.0
C479 C 0.03157 0.40786 0.40216 0.0
C480 C 0.00973 0.46051 0.52106 0.0
C481 C 0.02077 0.4555 0.592 0.0
C482 C 0.02823 0.42529 0.46589 0.0
C483 C 0.03587 0.43555 0.59697 0.0
C484 C 0.04856 0.3895 0.40869 0.0
C485 C 0.01873 0.39201 0.28147 0.0
N486 N 0.0391 0.4212 0.535 0.0
N487 N 0.01735 0.40865 0.33837 0.0
H488 H 0.90168 0.01757 0.22266 0.0
H489 H 0.92469 0.97592 0.78837 0.0
H490 H 0.84596 0.99314 0.0708 0.0
H491 H 0.97622 0.01552 0.9203 0.0
H492 H 0.89763 0.97615 0.89894 0.0
H493 H 0.93083 0.01129 0.12002 0.0
C494 C 0.8955 0.01084 0.1679 0.0
C495 C 0.87112 0.00619 0.15549 0.0
C496 C 0.91491 0.98465 0.90402 0.0
C497 C 0.90471 0.99858 0.03767 0.0
C498 C 0.93042 0.98446 0.84097 0.0
C499 C 0.95267 0.99591 0.84493 0.0
C500 C 0.92169 0.99626 0.97197 0.0
C501 C 0.95918 0.00659 0.91468 0.0
C502 C 0.91225 0.00716 0.10937 0.0
C503 C 0.86448 0.99686 0.08367 0.0
N504 N 0.94371 0.00662 0.97534 0.0
N505 N 0.88112 0.99351 0.02753 0.0
H506 H 0.53773 0.86847 0.13882 0.0
H507 H 0.46228 0.95162 0.85624 0.0
H508 H 0.46385 0.88669 0.17762 0.0
H509 H 0.53881 0.95837 0.86945 0.0
H510 H 0.463 0.92532 0.96901 0.0
H511 H 0.53923 0.89867 0.03478 0.0
C512 C 0.5219 0.87887 0.12579 0.0
C513 C 0.50067 0.87509 0.16742 0.0
C514 C 0.47966 0.93266 0.94789 0.0
C515 C 0.5022 0.90939 0.04827 0.0
C516 C 0.47926 0.94767 0.88344 0.0
C517 C 0.5005 0.95718 0.85363 0.0
C518 C 0.50156 0.9266 0.98232 0.0
C519 C 0.52202 0.95147 0.89106 0.0
C520 C 0.52281 0.89616 0.06679 0.0
C521 C 0.48071 0.88915 0.14806 0.0
N522 N 0.52206 0.93627 0.95304 0.0
N523 N 0.48192 0.90543 0.08972 0.0
H524 H 0.61614 0.50102 0.21501 0.0
H525 H 0.59638 0.52725 0.76463 0.0
H526 H 0.67396 0.51393 0.05559 0.0
H527 H 0.5413 0.50047 0.91578 0.0
H528 H 0.6241 0.52796 0.87382 0.0
H529 H 0.58772 0.50633 0.10964 0.0
C530 C 0.62291 0.50506 0.15796 0.0
C531 C 0.64763 0.50672 0.14438 0.0
C532 C 0.60592 0.52205 0.88323 0.0
C533 C 0.61493 0.51308 0.02301 0.0
C534 C 0.59007 0.52169 0.82095 0.0
C535 C 0.56654 0.51365 0.83107 0.0
C536 C 0.59815 0.51446 0.95643 0.0
C537 C 0.55931 0.50672 0.90536 0.0
C538 C 0.60661 0.50816 0.09776 0.0
C539 C 0.65515 0.51259 0.06928 0.0
N540 N 0.57505 0.50721 0.96507 0.0
N541 N 0.63891 0.51539 0.01147 0.0
H542 H 0.00717 0.6126 0.22895 0.0
H543 H 0.98192 0.5929 0.77952 0.0
H544 H 0.99537 0.6703 0.06673 0.0
H545 H 0.01207 0.53849 0.9276 0.0
H546 H 0.98029 0.62009 0.88913 0.0
H547 H 1.00272 0.58406 0.1241 0.0
C548 C 1.00355 0.61934 0.17151 0.0
C549 C 1.00191 0.64407 0.15705 0.0
C550 C 0.98713 0.60217 0.89783 0.0
C551 C 0.99644 0.61124 0.03653 0.0
C552 C 0.98801 0.5866 0.83532 0.0
C553 C 0.99732 0.56346 0.84437 0.0
C554 C 0.99545 0.59451 0.97026 0.0
C555 C 0.00487 0.55624 0.91804 0.0
C556 C 1.00094 0.60297 0.11167 0.0
C557 C 0.99659 0.65151 0.08137 0.0
N558 N 0.00385 0.57173 0.97811 0.0
N559 N 0.99418 0.63522 0.02412 0.0
H560 H 0.92698 0.2267 0.26339 0.0
H561 H 0.94001 0.14429 0.62662 0.0
H562 H 0.97098 0.24163 0.46087 0.0
H563 H 0.90585 0.12473 0.41372 0.0
H564 H 0.9368 0.18634 0.58923 0.0
H565 H 0.90493 0.19729 0.33993 0.0
C566 C 0.93151 0.22427 0.3236 0.0
C567 C 0.95129 0.23596 0.35529 0.0
C568 C 0.92937 0.1729 0.55167 0.0
C569 C 0.92652 0.20219 0.44255 0.0
C570 C 0.93126 0.14891 0.57289 0.0
C571 C 0.92397 0.13103 0.52182 0.0
C572 C 0.92042 0.17894 0.47854 0.0
C573 C 0.9121 0.13794 0.45416 0.0
C574 C 0.91893 0.2075 0.36727 0.0
C575 C 0.95609 0.23267 0.43389 0.0
N576 N 0.91126 0.16136 0.43348 0.0
N577 N 0.94421 0.21557 0.47437 0.0
H578 H 0.29481 0.94458 0.2441 0.0
H579 H 0.38979 0.9375 0.57906 0.0
H580 H 0.29017 0.98172 0.46018 0.0
H581 H 0.40248 0.91389 0.34641 0.0
H582 H 0.3473 0.93958 0.55167 0.0
H583 H 0.32728 0.92011 0.29679 0.0
C584 C 0.30008 0.94699 0.30356 0.0
C585 C 0.29022 0.96545 0.34758 0.0
C586 C 0.3593 0.93338 0.50711 0.0
C587 C 0.32739 0.93789 0.40755 0.0
C588 C 0.38364 0.93197 0.52286 0.0
C589 C 0.39987 0.92607 0.46426 0.0
C590 C 0.35114 0.92913 0.4321 0.0
C591 C 0.39067 0.91924 0.39255 0.0
C592 C 0.3187 0.93314 0.33339 0.0
C593 C 0.29769 0.96794 0.42407 0.0
N594 N 0.36694 0.92147 0.3779 0.0
N595 N 0.31614 0.9546 0.45126 0.0
H596 H 0.44563 0.3192 0.08815 0.0
H597 H 0.46966 0.38946 0.47811 0.0
H598 H 0.42614 0.29215 0.31306 0.0
H599 H 0.49488 0.41268 0.25484 0.0
H600 H 0.44827 0.35675 0.41687 0.0
H601 H 0.45725 0.35686 0.14614 0.0
C602 C 0.44308 0.32142 0.14953 0.0
C603 C 0.43495 0.30244 0.19596 0.0
C604 C 0.45836 0.36907 0.38119 0.0
C605 C 0.449 0.34534 0.26303 0.0
C606 C 0.47052 0.38779 0.41606 0.0
C607 C 0.48416 0.40375 0.37146 0.0
C608 C 0.45983 0.36626 0.30109 0.0
C609 C 0.48488 0.40056 0.29147 0.0
C610 C 0.45005 0.34286 0.18275 0.0
C611 C 0.43256 0.30624 0.27535 0.0
N612 N 0.47294 0.38213 0.25885 0.0
N613 N 0.43982 0.32718 0.30656 0.0
H614 H 0.20108 0.41 0.27416 0.0
H615 H 0.14911 0.52467 0.48071 0.0
H616 H 0.2443 0.467 0.36531 0.0
H617 H 0.10545 0.46473 0.41428 0.0
H618 H 0.18468 0.50113 0.45354 0.0
H619 H 0.16654 0.42637 0.34213 0.0
C620 C 0.20346 0.42558 0.30993 0.0
C621 C 0.22556 0.43736 0.31271 0.0
C622 C 0.16733 0.49303 0.4454 0.0
C623 C 0.18614 0.45635 0.38966 0.0
C624 C 0.14698 0.5065 0.46093 0.0
C625 C 0.12422 0.49682 0.44869 0.0
C626 C 0.16497 0.46975 0.41667 0.0
C627 C 0.12262 0.47318 0.42249 0.0
C628 C 0.18373 0.43496 0.34857 0.0
C629 C 0.2277 0.45724 0.36115 0.0
N630 N 0.14272 0.46054 0.40664 0.0
N631 N 0.20814 0.46636 0.3964 0.0
H632 H 0.11944 0.79696 0.19784 0.0
H633 H 0.06537 0.86921 0.84089 0.0
H634 H 0.06329 0.77106 0.04997 0.0
H635 H 0.10424 0.90133 0.0281 0.0
H636 H 0.07472 0.82974 0.89417 0.0
H637 H 0.12424 0.8315 0.11208 0.0
C638 C 0.10841 0.79827 0.14678 0.0
C639 C 0.09051 0.78131 0.13236 0.0
C640 C 0.08153 0.84546 0.92273 0.0
C641 C 0.09615 0.8206 0.03377 0.0
C642 C 0.07608 0.86799 0.89269 0.0
C643 C 0.08356 0.88867 0.93101 0.0
C644 C 0.09458 0.84358 0.99148 0.0
C645 C 0.09802 0.88595 0.99658 0.0
C646 C 0.11123 0.81794 0.09777 0.0
C647 C 0.07728 0.7836 0.06391 0.0
N648 N 0.10277 0.86383 0.02536 0.0
N649 N 0.08011 0.80309 0.01788 0.0
H650 H 0.69704 0.09031 0.31866 0.0
H651 H 0.62669 0.09655 0.92107 0.0
H652 H 0.73159 0.10078 0.09852 0.0
H653 H 0.59458 0.08015 0.14136 0.0
H654 H 0.66402 0.10615 0.98685 0.0
H655 H 0.65851 0.09569 0.25691 0.0
C656 C 0.69664 0.09438 0.25761 0.0
C657 C 0.71771 0.09479 0.21365 0.0
C658 C 0.64869 0.10078 0.02078 0.0
C659 C 0.6733 0.10019 0.14193 0.0
C660 C 0.6274 0.09516 0.98327 0.0
C661 C 0.60753 0.08716 0.02558 0.0
C662 C 0.65013 0.09835 0.10119 0.0
C663 C 0.60934 0.08629 0.1062 0.0
C664 C 0.67451 0.09719 0.22215 0.0
C665 C 0.71582 0.09978 0.13444 0.0
N666 N 0.63033 0.09152 0.1412 0.0
N667 N 0.69398 0.10192 0.10089 0.0
H668 H 0.39447 0.71319 0.23254 0.0
H669 H 0.4487 0.64341 0.87448 0.0
H670 H 0.44544 0.74292 0.07155 0.0
H671 H 0.41747 0.60946 0.07471 0.0
H672 H 0.43615 0.68223 0.92389 0.0
H673 H 0.39118 0.67785 0.15134 0.0
C674 C 0.40462 0.71254 0.17949 0.0
C675 C 0.42078 0.73082 0.16013 0.0
C676 C 0.43169 0.66621 0.9562 0.0
C677 C 0.41685 0.69059 0.06679 0.0
C678 C 0.43899 0.64406 0.92838 0.0
C679 C 0.43467 0.62315 0.97142 0.0
C680 C 0.41993 0.66746 0.02742 0.0
C681 C 0.4213 0.62505 0.03959 0.0
C682 C 0.40267 0.69239 0.13313 0.0
C683 C 0.43285 0.72931 0.08934 0.0
N684 N 0.41471 0.64685 0.06604 0.0
N685 N 0.43096 0.70934 0.04595 0.0
H686 H 0.81368 0.40968 0.29639 0.0
H687 H 0.88033 0.42306 0.89838 0.0
H688 H 0.77719 0.40981 0.07726 0.0
H689 H 0.91553 0.41805 0.11902 0.0
H690 H 0.84312 0.41009 0.95936 0.0
H691 H 0.85121 0.40328 0.23008 0.0
C692 C 0.81335 0.40768 0.23444 0.0
C693 C 0.79215 0.41086 0.19238 0.0
C694 C 0.8591 0.41138 0.99413 0.0
C695 C 0.83554 0.40444 0.11555 0.0
C696 C 0.88031 0.41893 0.95942 0.0
C697 C 0.90098 0.42208 0.00389 0.0
C698 C 0.85852 0.40718 0.07399 0.0
C699 C 0.90008 0.41592 0.08236 0.0
C700 C 0.83497 0.40427 0.19638 0.0
C701 C 0.79317 0.40825 0.11198 0.0
N702 N 0.87912 0.40915 0.11506 0.0
N703 N 0.81457 0.40573 0.07602 0.0
H704 H 1.00128 0.20982 0.8346 0.0
H705 H 0.03186 0.0703 0.88292 0.0
H706 H 0.04972 0.1799 0.003 0.0
H707 H 0.98846 0.09697 0.6958 0.0
H708 H 0.03718 0.11089 0.92777 0.0
H709 H 0.99514 0.16944 0.78277 0.0
C710 C 0.01072 0.19489 0.86045 0.0
C711 C 0.02631 0.19851 0.92288 0.0
C712 C 0.02648 0.10801 0.87677 0.0
C713 C 0.01922 0.15223 0.86409 0.0
C714 C 0.02335 0.08468 0.85106 0.0
C715 C 0.00969 0.08002 0.78509 0.0
C716 C 0.01585 0.12717 0.83677 0.0
C717 C 0.99923 0.09964 0.74659 0.0
C718 C 0.00724 0.17185 0.83068 0.0
C719 C 0.03801 0.17835 0.95377 0.0
N720 N 1.00249 0.12235 0.773 0.0
N721 N 0.03417 0.15628 0.92434 0.0
H722 H 0.30867 0.99895 0.8445 0.0
H723 H 0.44391 0.04412 0.8481 0.0
H724 H 0.33231 0.06288 0.9587 0.0
H725 H 0.41904 0.99294 0.68195 0.0
H726 H 0.403 0.04961 0.89233 0.0
H727 H 0.34859 0.99491 0.78681 0.0
C728 C 0.32212 0.01224 0.857 0.0
C729 C 0.31695 0.03137 0.90641 0.0
C730 C 0.40638 0.03725 0.84589 0.0
C731 C 0.36277 0.02668 0.84121 0.0
C732 C 0.42982 0.03404 0.82067 0.0
C733 C 0.43502 0.01802 0.76112 0.0
C734 C 0.38777 0.02414 0.81234 0.0
C735 C 0.41588 0.00556 0.72778 0.0
C736 C 0.34489 0.00995 0.82385 0.0
C737 C 0.33518 0.04805 0.92014 0.0
N738 N 0.39312 0.00872 0.75426 0.0
N739 N 0.35719 0.0452 0.88841 0.0
H740 H 0.4905 0.3266 0.01707 0.0
H741 H 0.50859 0.4204 0.66939 0.0
H742 H 0.50898 0.30572 0.78573 0.0
H743 H 0.49679 0.4411 0.90528 0.0
H744 H 0.50789 0.37839 0.71 0.0
H745 H 0.49261 0.36845 0.97704 0.0
C746 C 0.49537 0.33072 0.95808 0.0
C747 C 0.49968 0.31234 0.90496 0.0
C748 C 0.50545 0.39212 0.7529 0.0
C749 C 0.50154 0.36068 0.85802 0.0
C750 C 0.50577 0.41617 0.7297 0.0
C751 C 0.50275 0.43446 0.78391 0.0
C752 C 0.50199 0.38615 0.83098 0.0
C753 C 0.4992 0.42772 0.86129 0.0
C754 C 0.49633 0.35474 0.93504 0.0
C755 C 0.50527 0.3191 0.82876 0.0
N756 N 0.49892 0.40421 0.88237 0.0
N757 N 0.50598 0.34262 0.80767 0.0
H758 H 0.18413 0.49023 0.03974 0.0
H759 H 0.09552 0.50634 0.68016 0.0
H760 H 0.20922 0.50273 0.80771 0.0
H761 H 0.07227 0.50137 0.91642 0.0
H762 H 0.13714 0.50465 0.7239 0.0
H763 H 0.14321 0.49428 0.99444 0.0
C764 C 0.18116 0.49419 0.97937 0.0
C765 C 0.20046 0.4963 0.92784 0.0
C766 C 0.12293 0.50402 0.76619 0.0
C767 C 0.15303 0.50035 0.87479 0.0
C768 C 0.09914 0.50508 0.74117 0.0
C769 C 0.08027 0.50423 0.79447 0.0
C770 C 0.12798 0.50192 0.84532 0.0
C771 C 0.08612 0.50211 0.87296 0.0
C772 C 0.15763 0.49627 0.95333 0.0
C773 C 0.19508 0.50072 0.84975 0.0
N774 N 0.10934 0.50102 0.89582 0.0
N775 N 0.17195 0.50255 0.82569 0.0
H776 H 0.99377 0.80704 0.61055 0.0
H777 H 0.99402 0.94591 0.49847 0.0
H778 H 0.01106 0.83305 0.38224 0.0
H779 H 0.00548 0.92051 0.73081 0.0
H780 H 0.99359 0.90446 0.45424 0.0
H781 H 0.9915 0.84835 0.65465 0.0
C782 C 0.99708 0.82129 0.56942 0.0
C783 C 1.00278 0.8162 0.49224 0.0
C784 C 0.99616 0.90798 0.51492 0.0
C785 C 0.99962 0.86382 0.54271 0.0
C786 C 0.99633 0.93164 0.54031 0.0
C787 C 0.99988 0.93677 0.61854 0.0
C788 C 0.99917 0.88919 0.56818 0.0
C789 C 1.00284 0.91746 0.66995 0.0
C790 C 0.99567 0.84493 0.59483 0.0
C791 C 0.00623 0.83576 0.44185 0.0
N792 N 1.00232 0.89455 0.64396 0.0
N793 N 0.00459 0.85859 0.46791 0.0
H794 H 0.70762 0.02386 0.60861 0.0
H795 H 0.57392 0.9802 0.53419 0.0
H796 H 0.68892 0.97612 0.42401 0.0
H797 H 0.59639 0.0159 0.74125 0.0
H798 H 0.61561 0.97868 0.49179 0.0
H799 H 0.66704 0.02092 0.65751 0.0
C800 C 0.6952 0.01239 0.57883 0.0
C801 C 0.70205 1.00014 0.51183 0.0
C802 C 0.61143 0.98672 0.54671 0.0
C803 C 0.65483 0.99731 0.56704 0.0
C804 C 0.58759 0.98763 0.57098 0.0
C805 C 0.58152 0.99826 0.64143 0.0
C806 C 0.6294 0.99669 0.5928 0.0
C807 C 0.60011 0.00753 0.68655 0.0
C808 C 0.67183 0.01091 0.60663 0.0
C809 C 0.6846 0.98617 0.47512 0.0
N810 N 0.6231 0.00667 0.66127 0.0
N811 N 0.66183 0.98526 0.50288 0.0
H812 H 0.51844 0.70998 0.63211 0.0
H813 H 0.52378 0.57177 0.51863 0.0
H814 H 0.50587 0.68455 0.40133 0.0
H815 H 0.50943 0.5952 0.7503 0.0
H816 H 0.52394 0.61346 0.47552 0.0
H817 H 0.52157 0.66853 0.67665 0.0
C818 C 0.51635 0.69584 0.59051 0.0
C819 C 0.51171 0.70114 0.51246 0.0
C820 C 0.52084 0.60949 0.53584 0.0
C821 C 0.51587 0.65336 0.56358 0.0
C822 C 0.52084 0.58565 0.5607 0.0
C823 C 0.51653 0.57984 0.63838 0.0
C824 C 0.51683 0.62784 0.58903 0.0
C825 C 0.51273 0.59875 0.68988 0.0
C826 C 0.51826 0.67211 0.61621 0.0
C827 C 0.50984 0.68171 0.46166 0.0
N828 N 0.51303 0.62186 0.66437 0.0
N829 N 0.5119 0.65882 0.48805 0.0
H830 H 0.81041 0.48136 0.60115 0.0
H831 H 0.94142 0.53623 0.54528 0.0
H832 H 0.828 0.53253 0.42262 0.0
H833 H 0.9219 0.48913 0.73291 0.0
H834 H 0.90002 0.5357 0.50071 0.0
H835 H 0.85078 0.48496 0.65183 0.0
C836 C 0.82258 0.49366 0.57306 0.0
C837 C 0.81551 0.50673 0.50734 0.0
C838 C 0.90475 0.52556 0.55185 0.0
C839 C 0.86238 0.51049 0.5647 0.0
C840 C 0.92845 0.52583 0.57742 0.0
C841 C 0.9353 0.5127 0.6432 0.0
C842 C 0.88764 0.51198 0.59196 0.0
C843 C 0.91756 0.49962 0.68225 0.0
C844 C 0.84581 0.49553 0.60184 0.0
C845 C 0.83255 0.52186 0.47276 0.0
N846 N 0.89465 0.49953 0.65592 0.0
N847 N 0.85513 0.52326 0.50165 0.0
loop_
_geom_bond_atom_site_label_1
_geom_bond_atom_site_label_2
_geom_bond_distance
_geom_bond_site_symmetry_2
_ccdc_geom_bond_type
P0 O11 1.490 . S
P0 C14 1.812 . S
P0 C20 1.803 . S
P0 C26 1.819 . S
H1 C15 0.941 . S
H2 C16 0.939 . S
H3 C18 0.940 . S
H4 C19 0.940 . S
H5 C21 0.939 . S
H6 C22 0.942 . S
H7 C24 0.940 . S
H8 C25 0.939 . S
H9 C27 0.941 . S
H10 C31 0.939 . S
O11 P0 1.490 . S
H12 C28 0.939 . S
H13 C30 0.940 . S
C14 P0 1.812 . S
C14 C15 1.389 . S
C14 C19 1.391 . S
C15 H1 0.941 . S
C15 C14 1.389 . S
C15 C16 1.397 . S
C16 H2 0.939 . S
C16 C15 1.397 . S
C16 C17 1.378 . S
C17 C16 1.378 . S
C17 C18 1.378 . S
C18 H3 0.940 . S
C18 C17 1.378 . S
C18 C19 1.396 . S
C19 H4 0.940 . S
C19 C14 1.391 . S
C19 C18 1.396 . S
C20 P0 1.803 . S
C20 C21 1.378 . S
C20 C25 1.400 . S
C21 H5 0.939 . S
C21 C20 1.378 . S
C21 C22 1.361 . S
C22 H6 0.942 . S
C22 C21 1.361 . S
C22 C23 1.369 . S
C23 C22 1.369 . S
C23 C24 1.404 . S
C24 H7 0.940 . S
C24 C23 1.404 . S
C24 C25 1.389 . S
C25 H8 0.939 . S
C25 C20 1.400 . S
C25 C24 1.389 . S
C26 P0 1.819 . S
C26 C27 1.391 . S
C26 C31 1.391 . S
C27 H9 0.941 . S
C27 C26 1.391 . S
C27 C28 1.396 . S
C28 H12 0.939 . S
C28 C27 1.396 . S
C28 C29 1.397 . S
C29 C28 1.397 . S
C29 C30 1.385 . S
C30 H13 0.940 . S
C30 C29 1.385 . S
C30 C31 1.388 . S
C31 H10 0.939 . S
C31 C26 1.391 . S
C31 C30 1.388 . S
P32 O43 1.490 . S
P32 C46 1.812 . S
P32 C52 1.803 . S
P32 C58 1.819 . S
H33 C47 0.941 . S
H34 C48 0.939 . S
H35 C50 0.940 . S
H36 C51 0.950 . S
H37 C53 0.939 . S
H38 C54 0.942 . S
H39 C56 0.940 . S
H40 C57 0.959 . S
H41 C59 0.941 . S
H42 C63 0.929 1_655 S
O43 P32 1.490 . S
H44 C60 0.939 . S
H45 C62 0.940 . S
C46 P32 1.812 . S
C46 C47 1.389 . S
C46 C51 1.375 1_455 S
C47 H33 0.941 . S
C47 C46 1.389 . S
C47 C48 1.397 . S
C48 H34 0.939 . S
C48 C47 1.397 . S
C48 C49 1.378 . S
C49 C48 1.378 . S
C49 C50 1.378 1_455 S
C50 H35 0.940 . S
C50 C49 1.378 1_655 S
C50 C51 1.403 . S
C51 H36 0.950 . S
C51 C46 1.375 1_655 S
C51 C50 1.403 . S
C52 P32 1.803 . S
C52 C53 1.378 . S
C52 C57 1.368 1_455 S
C53 H37 0.939 . S
C53 C52 1.378 . S
C53 C54 1.361 . S
C54 H38 0.942 . S
C54 C53 1.361 . S
C54 C55 1.369 . S
C55 C54 1.369 . S
C55 C56 1.404 1_455 S
C56 H39 0.940 . S
C56 C55 1.404 1_655 S
C56 C57 1.402 . S
C57 H40 0.959 . S
C57 C52 1.368 1_655 S
C57 C56 1.402 . S
C58 P32 1.819 . S
C58 C59 1.391 . S
C58 C63 1.391 . S
C59 H41 0.941 . S
C59 C58 1.391 . S
C59 C60 1.396 . S
C60 H44 0.939 . S
C60 C59 1.396 . S
C60 C61 1.397 . S
C61 C60 1.397 . S
C61 C62 1.385 1_455 S
C62 H45 0.940 . S
C62 C61 1.385 1_655 S
C62 C63 1.388 1_655 S
C63 H42 0.929 1_455 S
C63 C58 1.391 . S
C63 C62 1.388 1_455 S
P64 O75 1.490 . S
P64 C78 1.812 . S
P64 C84 1.803 . S
P64 C90 1.819 . S
H65 C79 0.941 . S
H66 C80 0.939 . S
H67 C82 0.940 . S
H68 C83 0.950 . S
H69 C85 0.939 . S
H70 C86 0.942 . S
H71 C88 0.940 . S
H72 C89 0.959 . S
H73 C91 0.941 . S
H74 C95 0.929 1_565 S
O75 P64 1.490 . S
H76 C92 0.939 . S
H77 C94 0.940 . S
C78 P64 1.812 . S
C78 C79 1.389 . S
C78 C83 1.375 1_545 S
C79 H65 0.941 . S
C79 C78 1.389 . S
C79 C80 1.397 . S
C80 H66 0.939 . S
C80 C79 1.397 . S
C80 C81 1.378 . S
C81 C80 1.378 . S
C81 C82 1.378 1_545 S
C82 H67 0.940 . S
C82 C81 1.378 1_565 S
C82 C83 1.402 . S
C83 H68 0.950 . S
C83 C78 1.375 1_565 S
C83 C82 1.402 . S
C84 P64 1.803 . S
C84 C85 1.378 . S
C84 C89 1.368 1_545 S
C85 H69 0.939 . S
C85 C84 1.378 . S
C85 C86 1.361 . S
C86 H70 0.942 . S
C86 C85 1.361 . S
C86 C87 1.369 . S
C87 C86 1.369 . S
C87 C88 1.404 1_545 S
C88 H71 0.940 . S
C88 C87 1.404 1_565 S
C88 C89 1.402 . S
C89 H72 0.959 . S
C89 C84 1.368 1_565 S
C89 C88 1.402 . S
C90 P64 1.819 . S
C90 C91 1.391 . S
C90 C95 1.391 . S
C91 H73 0.941 . S
C91 C90 1.391 . S
C91 C92 1.396 . S
C92 H76 0.939 . S
C92 C91 1.396 . S
C92 C93 1.397 . S
C93 C92 1.397 . S
C93 C94 1.385 1_545 S
C94 H77 0.940 . S
C94 C93 1.385 1_565 S
C94 C95 1.388 1_565 S
C95 H74 0.929 1_545 S
C95 C90 1.391 . S
C95 C94 1.388 1_545 S
P96 O107 1.490 . S
P96 C110 1.812 . S
P96 C116 1.803 . S
P96 C122 1.819 . S
H97 C111 0.941 . S
H98 C112 0.939 . S
H99 C114 0.940 . S
H100 C115 0.940 . S
H101 C117 0.939 . S
H102 C118 0.942 . S
H103 C120 0.940 . S
H104 C121 0.939 . S
H105 C123 0.941 . S
H106 C127 0.939 . S
O107 P96 1.490 . S
H108 C124 0.939 . S
H109 C126 0.940 . S
C110 P96 1.812 . S
C110 C111 1.389 . S
C110 C115 1.391 . S
C111 H97 0.941 . S
C111 C110 1.389 . S
C111 C112 1.397 . S
C112 H98 0.939 . S
C112 C111 1.397 . S
C112 C113 1.378 . S
C113 C112 1.378 . S
C113 C114 1.378 . S
C114 H99 0.940 . S
C114 C113 1.378 . S
C114 C115 1.396 . S
C115 H100 0.940 . S
C115 C110 1.391 . S
C115 C114 1.396 . S
C116 P96 1.803 . S
C116 C117 1.378 . S
C116 C121 1.400 . S
C117 H101 0.939 . S
C117 C116 1.378 . S
C117 C118 1.361 . S
C118 H102 0.942 . S
C118 C117 1.361 . S
C118 C119 1.369 . S
C119 C118 1.369 . S
C119 C120 1.404 . S
C120 H103 0.940 . S
C120 C119 1.404 . S
C120 C121 1.389 . S
C121 H104 0.939 . S
C121 C116 1.400 . S
C121 C120 1.389 . S
C122 P96 1.819 . S
C122 C123 1.391 . S
C122 C127 1.391 . S
C123 H105 0.941 . S
C123 C122 1.391 . S
C123 C124 1.396 . S
C124 H108 0.939 . S
C124 C123 1.396 . S
C124 C125 1.397 . S
C125 C124 1.397 . S
C125 C126 1.385 . S
C126 H109 0.940 . S
C126 C125 1.385 . S
C126 C127 1.388 . S
C127 H106 0.939 . S
C127 C122 1.391 . S
C127 C126 1.388 . S
P128 O139 1.490 . S
P128 C142 1.812 1_554 S
P128 C148 1.803 . S
P128 C154 1.819 . S
H129 C143 0.941 . S
H130 C144 0.939 . S
H131 C146 0.940 . S
H132 C147 0.936 1_554 S
H133 C149 0.939 . S
H134 C150 0.942 . S
H135 C152 0.940 . S
H136 C153 0.939 . S
H137 C155 0.941 . S
H138 C159 0.939 . S
O139 P128 1.490 . S
H140 C156 0.939 . S
H141 C158 0.940 . S
C142 P128 1.812 1_556 S
C142 C143 1.389 . S
C142 C147 1.391 . S
C143 H129 0.941 . S
C143 C142 1.389 . S
C143 C144 1.397 . S
C144 H130 0.939 . S
C144 C143 1.397 . S
C144 C145 1.378 . S
C145 C144 1.378 . S
C145 C146 1.378 . S
C146 H131 0.940 . S
C146 C145 1.378 . S
C146 C147 1.396 . S
C147 H132 0.936 1_556 S
C147 C142 1.391 . S
C147 C146 1.396 . S
C148 P128 1.803 . S
C148 C149 1.378 . S
C148 C153 1.400 . S
C149 H133 0.939 . S
C149 C148 1.378 . S
C149 C150 1.361 . S
C150 H134 0.942 . S
C150 C149 1.361 . S
C150 C151 1.369 . S
C151 C150 1.369 . S
C151 C152 1.404 . S
C152 H135 0.940 . S
C152 C151 1.404 . S
C152 C153 1.389 . S
C153 H136 0.939 . S
C153 C148 1.400 . S
C153 C152 1.389 . S
C154 P128 1.819 . S
C154 C155 1.391 . S
C154 C159 1.391 . S
C155 H137 0.941 . S
C155 C154 1.391 . S
C155 C156 1.396 . S
C156 H140 0.939 . S
C156 C155 1.396 . S
C156 C157 1.397 . S
C157 C156 1.397 . S
C157 C158 1.385 . S
C158 H141 0.940 . S
C158 C157 1.385 . S
C158 C159 1.388 . S
C159 H138 0.939 . S
C159 C154 1.391 . S
C159 C158 1.388 . S
P160 O171 1.490 . S
P160 C174 1.812 1_554 S
P160 C180 1.803 . S
P160 C186 1.819 . S
H161 C175 0.941 . S
H162 C176 0.939 . S
H163 C178 0.940 . S
H164 C179 0.944 1_554 S
H165 C181 0.939 . S
H166 C182 0.942 . S
H167 C184 0.940 . S
H168 C185 0.953 . S
H169 C187 0.941 . S
H170 C191 0.933 1_655 S
O171 P160 1.490 . S
H172 C188 0.939 . S
H173 C190 0.940 . S
C174 P160 1.812 1_556 S
C174 C175 1.389 . S
C174 C179 1.385 1_455 S
C175 H161 0.941 . S
C175 C174 1.389 . S
C175 C176 1.397 . S
C176 H162 0.939 . S
C176 C175 1.397 . S
C176 C177 1.378 . S
C177 C176 1.378 . S
C177 C178 1.378 1_455 S
C178 H163 0.940 . S
C178 C177 1.378 1_655 S
C178 C179 1.399 . S
C179 H164 0.944 1_556 S
C179 C174 1.385 1_655 S
C179 C178 1.399 . S
C180 P160 1.803 . S
C180 C181 1.378 . S
C180 C185 1.379 1_455 S
C181 H165 0.939 . S
C181 C180 1.378 . S
C181 C182 1.361 . S
C182 H166 0.942 . S
C182 C181 1.361 . S
C182 C183 1.369 . S
C183 C182 1.369 . S
C183 C184 1.404 1_455 S
C184 H167 0.940 . S
C184 C183 1.404 1_655 S
C184 C185 1.398 . S
C185 H168 0.953 . S
C185 C180 1.379 1_655 S
C185 C184 1.398 . S
C186 P160 1.819 . S
C186 C187 1.391 . S
C186 C191 1.391 . S
C187 H169 0.941 . S
C187 C186 1.391 . S
C187 C188 1.396 . S
C188 H172 0.939 . S
C188 C187 1.396 . S
C188 C189 1.397 . S
C189 C188 1.397 . S
C189 C190 1.385 1_455 S
C190 H173 0.940 . S
C190 C189 1.385 1_655 S
C190 C191 1.388 1_655 S
C191 H170 0.933 1_455 S
C191 C186 1.391 . S
C191 C190 1.388 1_455 S
P192 O203 1.490 . S
P192 C206 1.812 1_554 S
P192 C212 1.803 . S
P192 C218 1.819 . S
H193 C207 0.941 . S
H194 C208 0.939 . S
H195 C210 0.940 . S
H196 C211 0.944 1_554 S
H197 C213 0.939 . S
H198 C214 0.942 . S
H199 C216 0.940 . S
H200 C217 0.953 . S
H201 C219 0.941 . S
H202 C223 0.933 1_565 S
O203 P192 1.490 . S
H204 C220 0.939 . S
H205 C222 0.940 . S
C206 P192 1.812 1_556 S
C206 C207 1.389 . S
C206 C211 1.385 1_545 S
C207 H193 0.941 . S
C207 C206 1.389 . S
C207 C208 1.397 . S
C208 H194 0.939 . S
C208 C207 1.397 . S
C208 C209 1.378 . S
C209 C208 1.378 . S
C209 C210 1.378 1_545 S
C210 H195 0.940 . S
C210 C209 1.378 1_565 S
C210 C211 1.399 . S
C211 H196 0.944 1_556 S
C211 C206 1.385 1_565 S
C211 C210 1.399 . S
C212 P192 1.803 . S
C212 C213 1.378 . S
C212 C217 1.379 1_545 S
C213 H197 0.939 . S
C213 C212 1.378 . S
C213 C214 1.361 . S
C214 H198 0.942 . S
C214 C213 1.361 . S
C214 C215 1.369 . S
C215 C214 1.369 . S
C215 C216 1.404 1_545 S
C216 H199 0.940 . S
C216 C215 1.404 1_565 S
C216 C217 1.398 . S
C217 H200 0.953 . S
C217 C212 1.379 1_565 S
C217 C216 1.398 . S
C218 P192 1.819 . S
C218 C219 1.391 . S
C218 C223 1.391 . S
C219 H201 0.941 . S
C219 C218 1.391 . S
C219 C220 1.396 . S
C220 H204 0.939 . S
C220 C219 1.396 . S
C220 C221 1.397 . S
C221 C220 1.397 . S
C221 C222 1.385 1_545 S
C222 H205 0.940 . S
C222 C221 1.385 1_565 S
C222 C223 1.388 1_565 S
C223 H202 0.933 1_545 S
C223 C218 1.391 . S
C223 C222 1.388 1_545 S
P224 O235 1.490 . S
P224 C238 1.812 1_554 S
P224 C244 1.803 . S
P224 C250 1.819 . S
H225 C239 0.941 . S
H226 C240 0.939 . S
H227 C242 0.940 . S
H228 C243 0.940 . S
H229 C245 0.939 . S
H230 C246 0.942 . S
H231 C248 0.940 . S
H232 C249 0.939 . S
H233 C251 0.941 . S
H234 C255 0.939 . S
O235 P224 1.490 . S
H236 C252 0.939 . S
H237 C254 0.940 . S
C238 P224 1.812 1_556 S
C238 C239 1.389 . S
C238 C243 1.391 . S
C239 H225 0.941 . S
C239 C238 1.389 . S
C239 C240 1.397 . S
C240 H226 0.939 . S
C240 C239 1.397 . S
C240 C241 1.378 . S
C241 C240 1.378 . S
C241 C242 1.378 . S
C242 H227 0.940 . S
C242 C241 1.378 . S
C242 C243 1.396 . S
C243 H228 0.940 . S
C243 C238 1.391 . S
C243 C242 1.396 . S
C244 P224 1.803 . S
C244 C245 1.378 . S
C244 C249 1.400 . S
C245 H229 0.939 . S
C245 C244 1.378 . S
C245 C246 1.361 . S
C246 H230 0.942 . S
C246 C245 1.361 . S
C246 C247 1.369 . S
C247 C246 1.369 . S
C247 C248 1.404 . S
C248 H231 0.940 . S
C248 C247 1.404 . S
C248 C249 1.389 . S
C249 H232 0.939 . S
C249 C244 1.400 . S
C249 C248 1.389 . S
C250 P224 1.819 . S
C250 C251 1.391 . S
C250 C255 1.391 . S
C251 H233 0.941 . S
C251 C250 1.391 . S
C251 C252 1.396 . S
C252 H236 0.939 . S
C252 C251 1.396 . S
C252 C253 1.397 . S
C253 C252 1.397 . S
C253 C254 1.385 . S
C254 H237 0.940 . S
C254 C253 1.385 . S
C254 C255 1.388 . S
C255 H234 0.939 . S
C255 C250 1.391 . S
C255 C254 1.388 . S
Tb256 C258 2.809 . S
Tb256 O276 2.484 . S
Tb256 O277 2.440 . S
Tb256 O278 2.658 1_565 S
Tb256 O279 2.409 . S
Tb256 O280 2.378 . S
Tb256 O284 2.325 1_455 S
Tb256 O287 2.341 1_565 S
Tb257 C267 2.809 . S
Tb257 O278 2.325 1_655 S
Tb257 O281 2.341 1_545 S
Tb257 O282 2.484 . S
Tb257 O283 2.440 . S
Tb257 O284 2.658 1_545 S
Tb257 O285 2.409 . S
Tb257 O286 2.378 . S
C258 Tb256 2.809 . S
C258 C259 1.514 . S
C258 O276 1.248 . S
C258 O277 1.266 . S
C259 C258 1.514 . S
C259 C260 1.359 . S
C259 C264 1.348 . S
C260 C259 1.359 . S
C260 C261 1.380 . S
C260 H288 0.929 1_455 S
C261 C260 1.380 . S
C261 C262 1.347 . S
C261 H289 0.931 1_455 S
C262 C261 1.347 . S
C262 C263 1.369 . S
C263 C262 1.369 . S
C263 C264 1.408 . S
C263 H290 0.930 . S
C264 C259 1.348 . S
C264 C263 1.408 . S
C264 H291 0.930 . S
C265 O278 1.281 1_565 S
C265 O279 1.254 . S
C266 O280 1.236 1_655 S
C266 O281 1.266 . S
C267 Tb257 2.809 . S
C267 C268 1.514 . S
C267 O282 1.248 . S
C267 O283 1.266 . S
C268 C267 1.514 . S
C268 C269 1.359 . S
C268 C273 1.348 . S
C269 C268 1.359 . S
C269 C270 1.380 . S
C269 H292 0.929 1_655 S
C270 C269 1.380 . S
C270 C271 1.347 . S
C270 H293 0.931 1_655 S
C271 C270 1.347 . S
C271 C272 1.369 . S
C272 C271 1.369 . S
C272 C273 1.408 . S
C272 H294 0.930 . S
C273 C268 1.348 . S
C273 C272 1.408 . S
C273 H295 0.930 . S
C274 O284 1.281 1_545 S
C274 O285 1.254 . S
C275 O286 1.236 1_455 S
C275 O287 1.266 . S
O276 Tb256 2.484 . S
O276 C258 1.248 . S
O277 Tb256 2.440 . S
O277 C258 1.266 . S
O278 Tb256 2.658 1_545 S
O278 Tb257 2.325 1_455 S
O278 C265 1.281 1_545 S
O279 Tb256 2.409 . S
O279 C265 1.254 . S
O280 Tb256 2.378 . S
O280 C266 1.236 1_455 S
O281 Tb257 2.341 1_565 S
O281 C266 1.266 . S
O282 Tb257 2.484 . S
O282 C267 1.248 . S
O283 Tb257 2.440 . S
O283 C267 1.266 . S
O284 Tb256 2.325 1_655 S
O284 Tb257 2.658 1_565 S
O284 C274 1.281 1_565 S
O285 Tb257 2.409 . S
O285 C274 1.254 . S
O286 Tb257 2.378 . S
O286 C275 1.236 1_655 S
O287 Tb256 2.341 1_545 S
O287 C275 1.266 . S
H288 C260 0.929 1_655 S
H289 C261 0.931 1_655 S
H290 C263 0.930 . S
H291 C264 0.930 . S
H292 C269 0.929 1_455 S
H293 C270 0.931 1_455 S
H294 C272 0.930 . S
H295 C273 0.930 . S
Tb296 C298 2.809 . S
Tb296 O316 2.484 . S
Tb296 O317 2.440 . S
Tb296 O318 2.658 . S
Tb296 O319 2.409 . S
Tb296 O320 2.378 . S
Tb296 O324 2.325 1_545 S
Tb296 O327 2.341 . S
Tb297 C307 2.809 . S
Tb297 O318 2.325 1_565 S
Tb297 O321 2.341 . S
Tb297 O322 2.484 . S
Tb297 O323 2.440 . S
Tb297 O324 2.658 . S
Tb297 O325 2.409 . S
Tb297 O326 2.378 . S
C298 Tb296 2.809 . S
C298 C299 1.514 . S
C298 O316 1.248 . S
C298 O317 1.266 . S
C299 C298 1.514 . S
C299 C300 1.359 . S
C299 C304 1.348 . S
C300 C299 1.359 . S
C300 C301 1.380 . S
C300 H328 0.929 1_545 S
C301 C300 1.380 . S
C301 C302 1.347 . S
C301 H329 0.931 1_545 S
C302 C301 1.347 . S
C302 C303 1.369 . S
C303 C302 1.369 . S
C303 C304 1.408 . S
C303 H330 0.930 . S
C304 C299 1.348 . S
C304 C303 1.408 . S
C304 H331 0.930 . S
C305 O318 1.281 . S
C305 O319 1.254 . S
C306 O320 1.236 1_565 S
C306 O321 1.266 . S
C307 Tb297 2.809 . S
C307 C308 1.514 . S
C307 O322 1.248 . S
C307 O323 1.266 . S
C308 C307 1.514 . S
C308 C309 1.359 . S
C308 C313 1.348 . S
C309 C308 1.359 . S
C309 C310 1.380 . S
C309 H332 0.929 1_565 S
C310 C309 1.380 . S
C310 C311 1.347 . S
C310 H333 0.931 1_565 S
C311 C310 1.347 . S
C311 C312 1.369 . S
C312 C311 1.369 . S
C312 C313 1.408 . S
C312 H334 0.930 . S
C313 C308 1.348 . S
C313 C312 1.408 . S
C313 H335 0.930 . S
C314 O324 1.281 . S
C314 O325 1.254 . S
C315 O326 1.236 1_545 S
C315 O327 1.266 . S
O316 Tb296 2.484 . S
O316 C298 1.248 . S
O317 Tb296 2.440 . S
O317 C298 1.266 . S
O318 Tb296 2.658 . S
O318 Tb297 2.325 1_545 S
O318 C305 1.281 . S
O319 Tb296 2.409 . S
O319 C305 1.254 . S
O320 Tb296 2.378 . S
O320 C306 1.236 1_545 S
O321 Tb297 2.341 . S
O321 C306 1.266 . S
O322 Tb297 2.484 . S
O322 C307 1.248 . S
O323 Tb297 2.440 . S
O323 C307 1.266 . S
O324 Tb296 2.325 1_565 S
O324 Tb297 2.658 . S
O324 C314 1.281 . S
O325 Tb297 2.409 . S
O325 C314 1.254 . S
O326 Tb297 2.378 . S
O326 C315 1.236 1_565 S
O327 Tb296 2.341 . S
O327 C315 1.266 . S
H328 C300 0.929 1_565 S
H329 C301 0.931 1_565 S
H330 C303 0.930 . S
H331 C304 0.930 . S
H332 C309 0.929 1_545 S
H333 C310 0.931 1_545 S
H334 C312 0.930 . S
H335 C313 0.930 . S
Tb336 C338 2.809 . S
Tb336 O356 2.484 . S
Tb336 O357 2.440 . S
Tb336 O358 2.658 . S
Tb336 O359 2.409 . S
Tb336 O360 2.378 . S
Tb336 O364 2.325 . S
Tb336 O367 2.341 . S
Tb337 C347 2.809 . S
Tb337 O358 2.325 . S
Tb337 O361 2.341 . S
Tb337 O362 2.484 . S
Tb337 O363 2.440 . S
Tb337 O364 2.658 . S
Tb337 O365 2.409 . S
Tb337 O366 2.378 . S
C338 Tb336 2.809 . S
C338 C339 1.514 . S
C338 O356 1.248 . S
C338 O357 1.266 . S
C339 C338 1.514 . S
C339 C340 1.359 . S
C339 C344 1.348 . S
C340 C339 1.359 . S
C340 C341 1.380 . S
C340 H368 0.929 . S
C341 C340 1.380 . S
C341 C342 1.347 . S
C341 H369 0.931 . S
C342 C341 1.347 . S
C342 C343 1.369 . S
C343 C342 1.369 . S
C343 C344 1.408 . S
C343 H370 0.930 . S
C344 C339 1.348 . S
C344 C343 1.408 . S
C344 H371 0.930 . S
C345 O358 1.281 . S
C345 O359 1.254 . S
C346 O360 1.236 . S
C346 O361 1.266 . S
C347 Tb337 2.809 . S
C347 C348 1.514 . S
C347 O362 1.248 . S
C347 O363 1.266 . S
C348 C347 1.514 . S
C348 C349 1.359 . S
C348 C353 1.348 . S
C349 C348 1.359 . S
C349 C350 1.380 . S
C349 H372 0.929 . S
C350 C349 1.380 . S
C350 C351 1.347 . S
C350 H373 0.931 . S
C351 C350 1.347 . S
C351 C352 1.369 . S
C352 C351 1.369 . S
C352 C353 1.408 . S
C352 H374 0.930 . S
C353 C348 1.348 . S
C353 C352 1.408 . S
C353 H375 0.930 . S
C354 O364 1.281 . S
C354 O365 1.254 . S
C355 O366 1.236 . S
C355 O367 1.266 . S
O356 Tb336 2.484 . S
O356 C338 1.248 . S
O357 Tb336 2.440 . S
O357 C338 1.266 . S
O358 Tb336 2.658 . S
O358 Tb337 2.325 . S
O358 C345 1.281 . S
O359 Tb336 2.409 . S
O359 C345 1.254 . S
O360 Tb336 2.378 . S
O360 C346 1.236 . S
O361 Tb337 2.341 . S
O361 C346 1.266 . S
O362 Tb337 2.484 . S
O362 C347 1.248 . S
O363 Tb337 2.440 . S
O363 C347 1.266 . S
O364 Tb336 2.325 . S
O364 Tb337 2.658 . S
O364 C354 1.281 . S
O365 Tb337 2.409 . S
O365 C354 1.254 . S
O366 Tb337 2.378 . S
O366 C355 1.236 . S
O367 Tb336 2.341 . S
O367 C355 1.266 . S
H368 C340 0.929 . S
H369 C341 0.931 . S
H370 C343 0.930 . S
H371 C344 0.930 . S
H372 C349 0.929 . S
H373 C350 0.931 . S
H374 C352 0.930 . S
H375 C353 0.930 . S
Tb376 C378 2.809 . S
Tb376 O396 2.484 . S
Tb376 O397 2.440 . S
Tb376 O398 2.658 1_655 S
Tb376 O399 2.409 . S
Tb376 O400 2.378 . S
Tb376 O404 2.325 . S
Tb376 O407 2.341 1_655 S
Tb377 C387 2.809 . S
Tb377 O398 2.325 . S
Tb377 O401 2.341 1_455 S
Tb377 O402 2.484 . S
Tb377 O403 2.440 . S
Tb377 O404 2.658 1_455 S
Tb377 O405 2.409 . S
Tb377 O406 2.378 . S
C378 Tb376 2.809 . S
C378 C379 1.514 . S
C378 O396 1.248 . S
C378 O397 1.266 . S
C379 C378 1.514 . S
C379 C380 1.359 . S
C379 C384 1.348 . S
C380 C379 1.359 . S
C380 C381 1.380 . S
C380 H408 0.929 . S
C381 C380 1.380 . S
C381 C382 1.347 . S
C381 H409 0.931 . S
C382 C381 1.347 . S
C382 C383 1.369 . S
C383 C382 1.369 . S
C383 C384 1.408 . S
C383 H410 0.930 . S
C384 C379 1.348 . S
C384 C383 1.408 . S
C384 H411 0.930 . S
C385 O398 1.276 1_655 S
C385 O399 1.260 . S
C386 O400 1.236 . S
C386 O401 1.266 . S
C387 Tb377 2.809 . S
C387 C388 1.514 . S
C387 O402 1.248 . S
C387 O403 1.266 . S
C388 C387 1.514 . S
C388 C389 1.359 . S
C388 C393 1.348 . S
C389 C388 1.359 . S
C389 C390 1.380 . S
C389 H412 0.929 . S
C390 C389 1.380 . S
C390 C391 1.347 . S
C390 H413 0.931 . S
C391 C390 1.347 . S
C391 C392 1.369 . S
C392 C391 1.369 . S
C392 C393 1.408 . S
C392 H414 0.930 . S
C393 C388 1.348 . S
C393 C392 1.408 . S
C393 H415 0.930 . S
C394 O404 1.273 1_455 S
C394 O405 1.265 . S
C395 O406 1.236 . S
C395 O407 1.266 . S
O396 Tb376 2.484 . S
O396 C378 1.248 . S
O397 Tb376 2.440 . S
O397 C378 1.266 . S
O398 Tb376 2.658 1_455 S
O398 Tb377 2.325 . S
O398 C385 1.276 1_455 S
O399 Tb376 2.409 . S
O399 C385 1.260 . S
O400 Tb376 2.378 . S
O400 C386 1.236 . S
O401 Tb377 2.341 1_655 S
O401 C386 1.266 . S
O402 Tb377 2.484 . S
O402 C387 1.248 . S
O403 Tb377 2.440 . S
O403 C387 1.266 . S
O404 Tb376 2.325 . S
O404 Tb377 2.658 1_655 S
O404 C394 1.273 1_655 S
O405 Tb377 2.409 . S
O405 C394 1.265 . S
O406 Tb377 2.378 . S
O406 C395 1.236 . S
O407 Tb376 2.341 1_455 S
O407 C395 1.266 . S
H408 C380 0.929 . S
H409 C381 0.931 . S
H410 C383 0.930 . S
H411 C384 0.930 . S
H412 C389 0.929 . S
H413 C390 0.931 . S
H414 C392 0.930 . S
H415 C393 0.930 . S
H416 C422 0.930 . S
H417 C426 0.930 . S
H418 C431 0.929 . S
H419 C429 0.929 . S
H420 C424 0.929 . S
H421 C430 0.929 . S
C422 H416 0.930 . S
C422 C423 1.380 . S
C422 C430 1.378 . S
C423 C422 1.380 . S
C423 C431 1.420 1_565 S
C424 H420 0.929 . S
C424 C426 1.378 . S
C424 C428 1.391 . S
C425 C428 1.460 1_565 S
C425 C430 1.373 . S
C425 N433 1.405 1_565 S
C426 H417 0.930 . S
C426 C424 1.378 . S
C426 C427 1.398 . S
C427 C426 1.398 . S
C427 C429 1.401 1_545 S
C428 C424 1.391 . S
C428 C425 1.460 1_545 S
C428 N432 1.387 1_545 S
C429 H419 0.929 . S
C429 C427 1.401 1_565 S
C429 N432 1.384 . S
C430 H421 0.929 . S
C430 C422 1.378 . S
C430 C425 1.373 . S
C431 H418 0.929 . S
C431 C423 1.420 1_545 S
C431 N433 1.384 . S
N432 C428 1.387 1_565 S
N432 C429 1.384 . S
N433 C425 1.405 1_545 S
N433 C431 1.384 . S
H434 C440 0.930 . S
H435 C444 0.930 . S
H436 C449 0.929 . S
H437 C447 0.929 . S
H438 C442 0.929 . S
H439 C448 0.929 . S
C440 H434 0.930 . S
C440 C441 1.367 . S
C440 C448 1.378 . S
C441 C440 1.367 . S
C441 C449 1.433 . S
C442 H438 0.929 . S
C442 C444 1.378 . S
C442 C446 1.350 . S
C443 C446 1.463 . S
C443 C448 1.350 . S
C443 N451 1.427 . S
C444 H435 0.930 . S
C444 C442 1.378 . S
C444 C445 1.367 . S
C445 C444 1.367 . S
C445 C447 1.433 . S
C446 C442 1.350 . S
C446 C443 1.463 . S
C446 N450 1.427 . S
C447 H437 0.929 . S
C447 C445 1.433 . S
C447 N450 1.384 . S
C448 H439 0.929 . S
C448 C440 1.378 . S
C448 C443 1.350 . S
C449 H436 0.929 . S
C449 C441 1.433 . S
C449 N451 1.384 . S
N450 C446 1.427 . S
N450 C447 1.384 . S
N451 C443 1.427 . S
N451 C449 1.384 . S
H452 C458 0.930 . S
H453 C462 0.930 . S
H454 C467 0.929 . S
H455 C465 0.929 . S
H456 C460 0.929 . S
H457 C466 0.929 . S
C458 H452 0.930 . S
C458 C459 1.367 . S
C458 C466 1.378 . S
C459 C458 1.367 . S
C459 C467 1.433 . S
C460 H456 0.929 . S
C460 C462 1.378 . S
C460 C464 1.350 . S
C461 C464 1.463 . S
C461 C466 1.350 . S
C461 N469 1.427 . S
C462 H453 0.930 . S
C462 C460 1.378 . S
C462 C463 1.367 . S
C463 C462 1.367 . S
C463 C465 1.433 . S
C464 C460 1.350 . S
C464 C461 1.463 . S
C464 N468 1.427 . S
C465 H455 0.929 . S
C465 C463 1.433 . S
C465 N468 1.384 . S
C466 H457 0.929 . S
C466 C458 1.378 . S
C466 C461 1.350 . S
C467 H454 0.929 . S
C467 C459 1.433 . S
C467 N469 1.384 . S
N468 C464 1.427 . S
N468 C465 1.384 . S
N469 C461 1.427 . S
N469 C467 1.384 . S
H470 C476 0.930 . S
H471 C480 0.930 . S
H472 C485 0.929 . S
H473 C483 0.929 . S
H474 C478 0.929 . S
H475 C484 0.929 . S
C476 H470 0.930 . S
C476 C477 1.373 . S
C476 C484 1.378 . S
C477 C476 1.373 . S
C477 C485 1.427 1_455 S
C478 H474 0.929 . S
C478 C480 1.378 . S
C478 C482 1.342 1_655 S
C479 C482 1.462 . S
C479 C484 1.364 . S
C479 N487 1.414 1_455 S
C480 H471 0.930 . S
C480 C478 1.378 . S
C480 C481 1.352 1_655 S
C481 C480 1.352 1_455 S
C481 C483 1.449 . S
C482 C478 1.342 1_455 S
C482 C479 1.462 . S
C482 N486 1.436 . S
C483 H473 0.929 . S
C483 C481 1.449 . S
C483 N486 1.384 . S
C484 H475 0.929 . S
C484 C476 1.378 . S
C484 C479 1.364 . S
C485 H472 0.929 . S
C485 C477 1.427 1_655 S
C485 N487 1.384 . S
N486 C482 1.436 . S
N486 C483 1.384 . S
N487 C479 1.414 1_655 S
N487 C485 1.384 . S
H488 C494 0.930 . S
H489 C498 0.930 . S
H490 C503 0.929 . S
H491 C501 0.929 . S
H492 C496 0.929 . S
H493 C502 0.929 . S
C494 H488 0.930 . S
C494 C495 1.372 . S
C494 C502 1.378 . S
C495 C494 1.372 . S
C495 C503 1.428 1_545 S
C496 H492 0.929 . S
C496 C498 1.378 . S
C496 C500 1.356 1_556 S
C497 C500 1.462 1_545 S
C497 C502 1.356 . S
C497 N505 1.421 1_545 S
C498 H489 0.930 . S
C498 C496 1.378 . S
C498 C499 1.371 . S
C499 C498 1.371 . S
C499 C501 1.429 1_565 S
C500 C496 1.356 1_554 S
C500 C497 1.462 1_565 S
C500 N504 1.422 1_565 S
C501 H491 0.929 . S
C501 C499 1.429 1_545 S
C501 N504 1.384 1_556 S
C502 H493 0.929 . S
C502 C494 1.378 . S
C502 C497 1.356 . S
C503 H490 0.929 . S
C503 C495 1.428 1_565 S
C503 N505 1.384 . S
N504 C500 1.422 1_545 S
N504 C501 1.384 1_554 S
N505 C497 1.421 1_565 S
N505 C503 1.384 . S
H506 C512 0.930 . S
H507 C516 0.930 . S
H508 C521 0.929 . S
H509 C519 0.929 . S
H510 C514 0.929 . S
H511 C520 0.929 . S
C512 H506 0.930 . S
C512 C513 1.367 . S
C512 C520 1.378 . S
C513 C512 1.367 . S
C513 C521 1.433 . S
C514 H510 0.929 . S
C514 C516 1.378 . S
C514 C518 1.350 1_556 S
C515 C518 1.463 . S
C515 C520 1.350 . S
C515 N523 1.427 . S
C516 H507 0.930 . S
C516 C514 1.378 . S
C516 C517 1.367 . S
C517 C516 1.367 . S
C517 C519 1.433 . S
C518 C514 1.350 1_554 S
C518 C515 1.463 . S
C518 N522 1.427 . S
C519 H509 0.929 . S
C519 C517 1.433 . S
C519 N522 1.384 1_556 S
C520 H511 0.929 . S
C520 C512 1.378 . S
C520 C515 1.350 . S
C521 H508 0.929 . S
C521 C513 1.433 . S
C521 N523 1.384 . S
N522 C518 1.427 . S
N522 C519 1.384 1_554 S
N523 C515 1.427 . S
N523 C521 1.384 . S
H524 C530 0.930 . S
H525 C534 0.930 . S
H526 C539 0.929 . S
H527 C537 0.929 . S
H528 C532 0.929 . S
H529 C538 0.929 . S
C530 H524 0.930 . S
C530 C531 1.367 . S
C530 C538 1.378 . S
C531 C530 1.367 . S
C531 C539 1.433 . S
C532 H528 0.929 . S
C532 C534 1.378 . S
C532 C536 1.350 1_556 S
C533 C536 1.463 . S
C533 C538 1.350 . S
C533 N541 1.427 . S
C534 H525 0.930 . S
C534 C532 1.378 . S
C534 C535 1.367 . S
C535 C534 1.367 . S
C535 C537 1.433 . S
C536 C532 1.350 1_554 S
C536 C533 1.463 . S
C536 N540 1.427 . S
C537 H527 0.929 . S
C537 C535 1.433 . S
C537 N540 1.384 1_556 S
C538 H529 0.929 . S
C538 C530 1.378 . S
C538 C533 1.350 . S
C539 H526 0.929 . S
C539 C531 1.433 . S
C539 N541 1.384 . S
N540 C536 1.427 . S
N540 C537 1.384 1_554 S
N541 C533 1.427 . S
N541 C539 1.384 . S
H542 C548 0.930 . S
H543 C552 0.930 . S
H544 C557 0.929 . S
H545 C555 0.929 . S
H546 C550 0.929 . S
H547 C556 0.929 . S
C548 H542 0.930 . S
C548 C549 1.376 . S
C548 C556 1.378 . S
C549 C548 1.376 . S
C549 C557 1.425 1_655 S
C550 H546 0.929 . S
C550 C552 1.378 . S
C550 C554 1.342 1_456 S
C551 C554 1.462 . S
C551 C556 1.369 . S
C551 N559 1.409 1_655 S
C552 H543 0.930 . S
C552 C550 1.378 . S
C552 C553 1.349 1_455 S
C553 C552 1.349 1_655 S
C553 C555 1.452 . S
C554 C550 1.342 1_654 S
C554 C551 1.462 . S
C554 N558 1.436 . S
C555 H545 0.929 . S
C555 C553 1.452 . S
C555 N558 1.384 1_556 S
C556 H547 0.929 . S
C556 C548 1.378 . S
C556 C551 1.369 . S
C557 H544 0.929 . S
C557 C549 1.425 1_455 S
C557 N559 1.384 . S
N558 C554 1.436 . S
N558 C555 1.384 1_554 S
N559 C551 1.409 1_455 S
N559 C557 1.384 . S
H560 C566 0.930 . S
H561 C570 0.930 . S
H562 C575 0.929 . S
H563 C573 0.929 . S
H564 C568 0.929 . S
H565 C574 0.929 . S
C566 H560 0.930 . S
C566 C567 1.367 . S
C566 C574 1.378 . S
C567 C566 1.367 . S
C567 C575 1.433 1_455 S
C568 H564 0.929 . S
C568 C570 1.378 . S
C568 C572 1.350 . S
C569 C572 1.463 . S
C569 C574 1.350 1_655 S
C569 N577 1.427 . S
C570 H561 0.930 . S
C570 C568 1.378 . S
C570 C571 1.367 . S
C571 C570 1.367 . S
C571 C573 1.433 . S
C572 C568 1.350 . S
C572 C569 1.463 . S
C572 N576 1.427 . S
C573 H563 0.929 . S
C573 C571 1.433 . S
C573 N576 1.384 . S
C574 H565 0.929 . S
C574 C566 1.378 . S
C574 C569 1.350 1_455 S
C575 H562 0.929 . S
C575 C567 1.433 1_655 S
C575 N577 1.384 . S
N576 C572 1.427 . S
N576 C573 1.384 . S
N577 C569 1.427 . S
N577 C575 1.384 . S
H578 C584 0.930 . S
H579 C588 0.930 . S
H580 C593 0.929 . S
H581 C591 0.929 . S
H582 C586 0.929 1_545 S
H583 C592 0.929 . S
C584 H578 0.930 . S
C584 C585 1.367 1_565 S
C584 C592 1.378 . S
C585 C584 1.367 1_545 S
C585 C593 1.433 . S
C586 H582 0.929 1_565 S
C586 C588 1.378 . S
C586 C590 1.350 . S
C587 C590 1.463 . S
C587 C592 1.350 . S
C587 N595 1.427 1_565 S
C588 H579 0.930 . S
C588 C586 1.378 . S
C588 C589 1.367 . S
C589 C588 1.367 . S
C589 C591 1.433 . S
C590 C586 1.350 . S
C590 C587 1.463 . S
C590 N594 1.427 . S
C591 H581 0.929 . S
C591 C589 1.433 . S
C591 N594 1.384 . S
C592 H583 0.929 . S
C592 C584 1.378 . S
C592 C587 1.350 . S
C593 H580 0.929 . S
C593 C585 1.433 . S
C593 N595 1.384 . S
N594 C590 1.427 . S
N594 C591 1.384 . S
N595 C587 1.427 1_545 S
N595 C593 1.384 . S
H596 C602 0.930 . S
H597 C606 0.930 . S
H598 C611 0.929 . S
H599 C609 0.929 . S
H600 C604 0.929 . S
H601 C610 0.929 . S
C602 H596 0.930 . S
C602 C603 1.367 . S
C602 C610 1.378 . S
C603 C602 1.367 . S
C603 C611 1.433 . S
C604 H600 0.929 . S
C604 C606 1.378 . S
C604 C608 1.350 . S
C605 C608 1.463 . S
C605 C610 1.350 . S
C605 N613 1.427 . S
C606 H597 0.930 . S
C606 C604 1.378 . S
C606 C607 1.367 . S
C607 C606 1.367 . S
C607 C609 1.433 . S
C608 C604 1.350 . S
C608 C605 1.463 . S
C608 N612 1.427 . S
C609 H599 0.929 . S
C609 C607 1.433 . S
C609 N612 1.384 . S
C610 H601 0.929 . S
C610 C602 1.378 . S
C610 C605 1.350 . S
C611 H598 0.929 . S
C611 C603 1.433 . S
C611 N613 1.384 . S
N612 C608 1.427 . S
N612 C609 1.384 . S
N613 C605 1.427 . S
N613 C611 1.384 . S
H614 C620 0.930 . S
H615 C624 0.930 . S
H616 C629 0.929 . S
H617 C627 0.929 . S
H618 C622 0.929 . S
H619 C628 0.929 . S
C620 H614 0.930 . S
C620 C621 1.367 . S
C620 C628 1.378 . S
C621 C620 1.367 . S
C621 C629 1.433 . S
C622 H618 0.929 . S
C622 C624 1.378 . S
C622 C626 1.350 . S
C623 C626 1.463 . S
C623 C628 1.350 . S
C623 N631 1.427 . S
C624 H615 0.930 . S
C624 C622 1.378 . S
C624 C625 1.367 . S
C625 C624 1.367 . S
C625 C627 1.433 . S
C626 C622 1.350 . S
C626 C623 1.463 . S
C626 N630 1.427 . S
C627 H617 0.929 . S
C627 C625 1.433 . S
C627 N630 1.384 . S
C628 H619 0.929 . S
C628 C620 1.378 . S
C628 C623 1.350 . S
C629 H616 0.929 . S
C629 C621 1.433 . S
C629 N631 1.384 . S
N630 C626 1.427 . S
N630 C627 1.384 . S
N631 C623 1.427 . S
N631 C629 1.384 . S
H632 C638 0.930 . S
H633 C642 0.963 . S
H634 C647 0.929 . S
H635 C645 0.928 1_556 S
H636 C640 0.929 1_655 S
H637 C646 0.929 . S
C638 H632 0.930 . S
C638 C639 1.367 1_455 S
C638 C646 1.378 . S
C639 C638 1.367 1_655 S
C639 C647 1.433 . S
C640 H636 0.929 1_455 S
C640 C642 1.378 1_554 S
C640 C644 1.350 . S
C641 C644 1.463 . S
C641 C646 1.350 . S
C641 N649 1.427 1_455 S
C642 H633 0.963 . S
C642 C640 1.378 1_556 S
C642 C643 1.367 . S
C643 C642 1.367 . S
C643 C645 1.433 1_556 S
C644 C640 1.350 . S
C644 C641 1.463 . S
C644 N648 1.427 . S
C645 H635 0.928 1_554 S
C645 C643 1.433 1_554 S
C645 N648 1.384 . S
C646 H637 0.929 . S
C646 C638 1.378 . S
C646 C641 1.350 . S
C647 H634 0.929 . S
C647 C639 1.433 . S
C647 N649 1.384 . S
N648 C644 1.427 . S
N648 C645 1.384 . S
N649 C641 1.427 1_655 S
N649 C647 1.384 . S
H650 C656 0.930 . S
H651 C660 0.930 . S
H652 C665 0.929 . S
H653 C663 0.929 . S
H654 C658 0.929 1_565 S
H655 C664 0.929 . S
C656 H650 0.930 . S
C656 C657 1.367 1_545 S
C656 C664 1.378 . S
C657 C656 1.367 1_565 S
C657 C665 1.433 . S
C658 H654 0.929 1_545 S
C658 C660 1.378 . S
C658 C662 1.350 1_556 S
C659 C662 1.463 . S
C659 C664 1.350 . S
C659 N667 1.427 1_545 S
C660 H651 0.930 . S
C660 C658 1.378 . S
C660 C661 1.367 . S
C661 C660 1.367 . S
C661 C663 1.433 1_556 S
C662 C658 1.350 1_554 S
C662 C659 1.463 . S
C662 N666 1.427 . S
C663 H653 0.929 . S
C663 C661 1.433 1_554 S
C663 N666 1.384 . S
C664 H655 0.929 . S
C664 C656 1.378 . S
C664 C659 1.350 . S
C665 H652 0.929 . S
C665 C657 1.433 . S
C665 N667 1.384 . S
N666 C662 1.427 . S
N666 C663 1.384 . S
N667 C659 1.427 1_565 S
N667 C665 1.384 . S
H668 C674 0.930 . S
H669 C678 0.930 . S
H670 C683 0.929 . S
H671 C681 0.929 . S
H672 C676 0.929 . S
H673 C682 0.929 . S
C674 H668 0.930 . S
C674 C675 1.367 . S
C674 C682 1.378 . S
C675 C674 1.367 . S
C675 C683 1.433 . S
C676 H672 0.929 . S
C676 C678 1.378 1_554 S
C676 C680 1.350 . S
C677 C680 1.463 . S
C677 C682 1.350 . S
C677 N685 1.427 . S
C678 H669 0.930 . S
C678 C676 1.378 1_556 S
C678 C679 1.367 . S
C679 C678 1.367 . S
C679 C681 1.433 1_556 S
C680 C676 1.350 . S
C680 C677 1.463 . S
C680 N684 1.427 . S
C681 H671 0.929 . S
C681 C679 1.433 1_554 S
C681 N684 1.384 . S
C682 H673 0.929 . S
C682 C674 1.378 . S
C682 C677 1.350 . S
C683 H670 0.929 . S
C683 C675 1.433 . S
C683 N685 1.384 . S
N684 C680 1.427 . S
N684 C681 1.384 . S
N685 C677 1.427 . S
N685 C683 1.384 . S
H686 C692 0.930 . S
H687 C696 0.930 . S
H688 C701 0.929 . S
H689 C699 0.929 . S
H690 C694 0.930 . S
H691 C700 0.929 . S
C692 H686 0.930 . S
C692 C693 1.367 . S
C692 C700 1.378 . S
C693 C692 1.367 . S
C693 C701 1.433 . S
C694 H690 0.930 . S
C694 C696 1.381 . S
C694 C698 1.345 1_556 S
C695 C698 1.463 . S
C695 C700 1.350 . S
C695 N703 1.427 . S
C696 H687 0.930 . S
C696 C694 1.381 . S
C696 C697 1.367 . S
C697 C696 1.367 . S
C697 C699 1.433 1_556 S
C698 C694 1.345 1_554 S
C698 C695 1.463 . S
C698 N702 1.427 . S
C699 H689 0.929 . S
C699 C697 1.433 1_554 S
C699 N702 1.384 . S
C700 H691 0.929 . S
C700 C692 1.378 . S
C700 C695 1.350 . S
C701 H688 0.929 . S
C701 C693 1.433 . S
C701 N703 1.384 . S
N702 C698 1.427 . S
N702 C699 1.384 . S
N703 C695 1.427 . S
N703 C701 1.384 . S
H704 C710 0.930 . S
H705 C714 0.930 . S
H706 C719 0.929 . S
H707 C717 0.929 . S
H708 C712 0.929 . S
H709 C718 0.929 . S
C710 H704 0.930 . S
C710 C711 1.367 1_655 S
C710 C718 1.378 . S
C711 C710 1.367 1_455 S
C711 C719 1.433 . S
C712 H708 0.929 . S
C712 C714 1.378 . S
C712 C716 1.350 . S
C713 C716 1.463 . S
C713 C718 1.350 1_455 S
C713 N721 1.427 . S
C714 H705 0.930 . S
C714 C712 1.378 . S
C714 C715 1.367 . S
C715 C714 1.367 . S
C715 C717 1.433 1_455 S
C716 C712 1.350 . S
C716 C713 1.463 . S
C716 N720 1.427 1_455 S
C717 H707 0.929 . S
C717 C715 1.433 1_655 S
C717 N720 1.384 . S
C718 H709 0.929 . S
C718 C710 1.378 . S
C718 C713 1.350 1_655 S
C719 H706 0.929 . S
C719 C711 1.433 . S
C719 N721 1.384 . S
N720 C716 1.427 1_655 S
N720 C717 1.384 . S
N721 C713 1.427 . S
N721 C719 1.384 . S
H722 C728 0.930 . S
H723 C732 0.930 . S
H724 C737 0.929 . S
H725 C735 0.929 . S
H726 C730 0.929 . S
H727 C736 0.929 . S
C728 H722 0.930 . S
C728 C729 1.367 1_565 S
C728 C736 1.378 . S
C729 C728 1.367 1_545 S
C729 C737 1.433 . S
C730 H726 0.929 . S
C730 C732 1.378 . S
C730 C734 1.350 . S
C731 C734 1.463 . S
C731 C736 1.350 1_545 S
C731 N739 1.427 . S
C732 H723 0.930 . S
C732 C730 1.378 . S
C732 C733 1.367 . S
C733 C732 1.367 . S
C733 C735 1.433 1_545 S
C734 C730 1.350 . S
C734 C731 1.463 . S
C734 N738 1.427 1_545 S
C735 H725 0.929 . S
C735 C733 1.433 1_565 S
C735 N738 1.384 . S
C736 H727 0.929 . S
C736 C728 1.378 . S
C736 C731 1.350 1_565 S
C737 H724 0.929 . S
C737 C729 1.433 . S
C737 N739 1.384 . S
N738 C734 1.427 1_565 S
N738 C735 1.384 . S
N739 C731 1.427 . S
N739 C737 1.384 . S
H740 C746 0.930 . S
H741 C750 0.930 . S
H742 C755 0.929 . S
H743 C753 0.929 . S
H744 C748 0.929 . S
H745 C754 0.929 . S
C746 H740 0.930 . S
C746 C747 1.367 . S
C746 C754 1.378 . S
C747 C746 1.367 . S
C747 C755 1.433 . S
C748 H744 0.929 . S
C748 C750 1.378 . S
C748 C752 1.350 . S
C749 C752 1.463 . S
C749 C754 1.350 . S
C749 N757 1.427 . S
C750 H741 0.930 . S
C750 C748 1.378 . S
C750 C751 1.367 . S
C751 C750 1.367 . S
C751 C753 1.433 . S
C752 C748 1.350 . S
C752 C749 1.463 . S
C752 N756 1.427 . S
C753 H743 0.929 . S
C753 C751 1.433 . S
C753 N756 1.384 . S
C754 H745 0.929 . S
C754 C746 1.378 . S
C754 C749 1.350 . S
C755 H742 0.929 . S
C755 C747 1.433 . S
C755 N757 1.384 . S
N756 C752 1.427 . S
N756 C753 1.384 . S
N757 C749 1.427 . S
N757 C755 1.384 . S
H758 C764 0.930 . S
H759 C768 0.930 . S
H760 C773 0.929 . S
H761 C771 0.929 . S
H762 C766 0.929 . S
H763 C772 0.929 . S
C764 H758 0.930 . S
C764 C765 1.367 . S
C764 C772 1.378 . S
C765 C764 1.367 . S
C765 C773 1.433 . S
C766 H762 0.929 . S
C766 C768 1.378 . S
C766 C770 1.350 . S
C767 C770 1.463 . S
C767 C772 1.350 . S
C767 N775 1.427 . S
C768 H759 0.930 . S
C768 C766 1.378 . S
C768 C769 1.367 . S
C769 C768 1.367 . S
C769 C771 1.433 . S
C770 C766 1.350 . S
C770 C767 1.463 . S
C770 N774 1.427 . S
C771 H761 0.929 . S
C771 C769 1.433 . S
C771 N774 1.384 . S
C772 H763 0.929 . S
C772 C764 1.378 . S
C772 C767 1.350 . S
C773 H760 0.929 . S
C773 C765 1.433 . S
C773 N775 1.384 . S
N774 C770 1.427 . S
N774 C771 1.384 . S
N775 C767 1.427 . S
N775 C773 1.384 . S
H776 C782 0.930 . S
H777 C786 0.930 . S
H778 C791 0.929 . S
H779 C789 0.929 . S
H780 C784 0.929 . S
H781 C790 0.929 . S
C782 H776 0.930 . S
C782 C783 1.367 1_455 S
C782 C790 1.378 . S
C783 C782 1.367 1_655 S
C783 C791 1.433 . S
C784 H780 0.929 . S
C784 C786 1.378 . S
C784 C788 1.350 . S
C785 C788 1.463 . S
C785 C790 1.350 1_655 S
C785 N793 1.427 . S
C786 H777 0.930 . S
C786 C784 1.378 . S
C786 C787 1.367 . S
C787 C786 1.367 . S
C787 C789 1.433 1_655 S
C788 C784 1.350 . S
C788 C785 1.463 . S
C788 N792 1.427 1_655 S
C789 H779 0.929 . S
C789 C787 1.433 1_455 S
C789 N792 1.384 . S
C790 H781 0.929 . S
C790 C782 1.378 . S
C790 C785 1.350 1_455 S
C791 H778 0.929 . S
C791 C783 1.433 . S
C791 N793 1.384 . S
N792 C788 1.427 1_455 S
N792 C789 1.384 . S
N793 C785 1.427 . S
N793 C791 1.384 . S
H794 C800 0.930 . S
H795 C804 0.930 . S
H796 C809 0.929 . S
H797 C807 0.929 . S
H798 C802 0.929 . S
H799 C808 0.929 . S
C800 H794 0.930 . S
C800 C801 1.367 1_545 S
C800 C808 1.378 . S
C801 C800 1.367 1_565 S
C801 C809 1.433 . S
C802 H798 0.929 . S
C802 C804 1.378 . S
C802 C806 1.350 . S
C803 C806 1.463 . S
C803 C808 1.350 1_565 S
C803 N811 1.427 . S
C804 H795 0.930 . S
C804 C802 1.378 . S
C804 C805 1.367 . S
C805 C804 1.367 . S
C805 C807 1.433 1_565 S
C806 C802 1.350 . S
C806 C803 1.463 . S
C806 N810 1.427 1_565 S
C807 H797 0.929 . S
C807 C805 1.433 1_545 S
C807 N810 1.384 . S
C808 H799 0.929 . S
C808 C800 1.378 . S
C808 C803 1.350 1_545 S
C809 H796 0.929 . S
C809 C801 1.433 . S
C809 N811 1.384 . S
N810 C806 1.427 1_545 S
N810 C807 1.384 . S
N811 C803 1.427 . S
N811 C809 1.384 . S
H812 C818 0.930 . S
H813 C822 0.930 . S
H814 C827 0.929 . S
H815 C825 0.929 . S
H816 C820 0.929 . S
H817 C826 0.929 . S
C818 H812 0.930 . S
C818 C819 1.367 . S
C818 C826 1.378 . S
C819 C818 1.367 . S
C819 C827 1.433 . S
C820 H816 0.929 . S
C820 C822 1.378 . S
C820 C824 1.350 . S
C821 C824 1.463 . S
C821 C826 1.350 . S
C821 N829 1.427 . S
C822 H813 0.930 . S
C822 C820 1.378 . S
C822 C823 1.367 . S
C823 C822 1.367 . S
C823 C825 1.433 . S
C824 C820 1.350 . S
C824 C821 1.463 . S
C824 N828 1.427 . S
C825 H815 0.929 . S
C825 C823 1.433 . S
C825 N828 1.384 . S
C826 H817 0.929 . S
C826 C818 1.378 . S
C826 C821 1.350 . S
C827 H814 0.929 . S
C827 C819 1.433 . S
C827 N829 1.384 . S
N828 C824 1.427 . S
N828 C825 1.384 . S
N829 C821 1.427 . S
N829 C827 1.384 . S
H830 C836 0.930 . S
H831 C840 0.930 . S
H832 C845 0.929 . S
H833 C843 0.929 . S
H834 C838 0.929 . S
H835 C844 0.929 . S
C836 H830 0.930 . S
C836 C837 1.367 . S
C836 C844 1.378 . S
C837 C836 1.367 . S
C837 C845 1.433 . S
C838 H834 0.929 . S
C838 C840 1.378 . S
C838 C842 1.350 . S
C839 C842 1.463 . S
C839 C844 1.350 . S
C839 N847 1.427 . S
C840 H831 0.930 . S
C840 C838 1.378 . S
C840 C841 1.367 . S
C841 C840 1.367 . S
C841 C843 1.433 . S
C842 C838 1.350 . S
C842 C839 1.463 . S
C842 N846 1.427 . S
C843 H833 0.929 . S
C843 C841 1.433 . S
C843 N846 1.384 . S
C844 H835 0.929 . S
C844 C836 1.378 . S
C844 C839 1.350 . S
C845 H832 0.929 . S
C845 C837 1.433 . S
C845 N847 1.384 . S
N846 C842 1.427 . S
N846 C843 1.384 . S
N847 C839 1.427 . S
N847 C845 1.384 . S
C423 C215 2.006 1_565 S
C427 C265 2.177 1_545 S
C445 C305 2.198 . S
C441 C247 2.010 . S
C463 C345 2.207 . S
C459 C151 2.017 . S
C481 C385 2.185 1_455 S
C477 C183 2.007 . S
C499 C274 2.180 1_565 S
C495 C87 2.013 . S
C513 C119 2.044 . S
C517 C314 2.201 . S
C531 C23 2.049 . S
C535 C354 2.207 . S
C549 C55 2.019 1_655 S
C553 C394 2.185 1_655 S
C571 C271 0.461 . S
C567 C189 0.363 . S
C589 C311 0.438 . S
C585 C221 0.394 . S
C607 C351 0.452 . S
C603 C253 0.394 . S
C621 C157 0.384 . S
C625 C391 0.450 . S
C639 C61 0.509 1_655 S
C643 C262 0.423 . S
C661 C302 0.438 . S
C657 C93 0.504 1_565 S
C679 C342 0.427 . S
C675 C125 0.492 . S
C693 C29 0.491 . S
C697 C382 0.427 . S
C711 C177 2.538 . S
C715 C275 2.841 . S
C729 C209 2.495 . S
C733 C315 2.803 . S
C751 C355 2.782 . S
C747 C241 2.458 . S
C769 C395 2.826 . S
C765 C145 2.496 . S
C783 C49 2.560 1_655 S
C787 C266 2.852 . S
C805 C306 2.803 . S
C801 C81 2.514 1_565 S
C823 C346 2.784 . S
C819 C113 2.510 . S
C837 C17 2.548 . S
C841 C386 2.833 . S
