# Generated by pormake.
# Topology dag, (6,3)-cn, num edge types: 1
# Building blocks:
#     Node 0, Type 0, BuildingBlock: IZENUY_clean_sbu_0, # of connection points: 6
#     Node 1, Type 0, BuildingBlock: IZENUY_clean_sbu_0, # of connection points: 6
#     Node 2, Type 0, BuildingBlock: IZENUY_clean_sbu_0, # of connection points: 6
#     Node 3, Type 0, BuildingBlock: IZENUY_clean_sbu_0, # of connection points: 6
#     Node 4, Type 1, BuildingBlock: ESEHIV_clean_linker_0, # of connection points: 3
#     Node 5, Type 1, BuildingBlock: ESEHIV_clean_linker_0, # of connection points: 3
#     Node 6, Type 1, BuildingBlock: ESEHIV_clean_linker_0, # of connection points: 3
#     Node 7, Type 1, BuildingBlock: ESEHIV_clean_linker_0, # of connection points: 3
#     Node 8, Type 1, BuildingBlock: ESEHIV_clean_linker_0, # of connection points: 3
#     Node 9, Type 1, BuildingBlock: ESEHIV_clean_linker_0, # of connection points: 3
#     Node 10, Type 1, BuildingBlock: ESEHIV_clean_linker_0, # of connection points: 3
#     Node 11, Type 1, BuildingBlock: ESEHIV_clean_linker_0, # of connection points: 3
#     Edge 12, Type (0, 1), BuildingBlock: UVAHIK_clean_linker_0, # of connection points: 2
#     Edge 13, Type (0, 1), BuildingBlock: UVAHIK_clean_linker_0, # of connection points: 2
#     Edge 14, Type (0, 1), BuildingBlock: UVAHIK_clean_linker_0, # of connection points: 2
#     Edge 15, Type (0, 1), BuildingBlock: UVAHIK_clean_linker_0, # of connection points: 2
#     Edge 16, Type (0, 1), BuildingBlock: UVAHIK_clean_linker_0, # of connection points: 2
#     Edge 17, Type (0, 1), BuildingBlock: UVAHIK_clean_linker_0, # of connection points: 2
#     Edge 18, Type (0, 1), BuildingBlock: UVAHIK_clean_linker_0, # of connection points: 2
#     Edge 19, Type (0, 1), BuildingBlock: UVAHIK_clean_linker_0, # of connection points: 2
#     Edge 20, Type (0, 1), BuildingBlock: UVAHIK_clean_linker_0, # of connection points: 2
#     Edge 21, Type (0, 1), BuildingBlock: UVAHIK_clean_linker_0, # of connection points: 2
#     Edge 22, Type (0, 1), BuildingBlock: UVAHIK_clean_linker_0, # of connection points: 2
#     Edge 23, Type (0, 1), BuildingBlock: UVAHIK_clean_linker_0, # of connection points: 2
#     Edge 24, Type (0, 1), BuildingBlock: UVAHIK_clean_linker_0, # of connection points: 2
#     Edge 25, Type (0, 1), BuildingBlock: UVAHIK_clean_linker_0, # of connection points: 2
#     Edge 26, Type (0, 1), BuildingBlock: UVAHIK_clean_linker_0, # of connection points: 2
#     Edge 27, Type (0, 1), BuildingBlock: UVAHIK_clean_linker_0, # of connection points: 2
#     Edge 28, Type (0, 1), BuildingBlock: UVAHIK_clean_linker_0, # of connection points: 2
#     Edge 29, Type (0, 1), BuildingBlock: UVAHIK_clean_linker_0, # of connection points: 2
#     Edge 30, Type (0, 1), BuildingBlock: UVAHIK_clean_linker_0, # of connection points: 2
#     Edge 31, Type (0, 1), BuildingBlock: UVAHIK_clean_linker_0, # of connection points: 2
#     Edge 32, Type (0, 1), BuildingBlock: UVAHIK_clean_linker_0, # of connection points: 2
#     Edge 33, Type (0, 1), BuildingBlock: UVAHIK_clean_linker_0, # of connection points: 2
#     Edge 34, Type (0, 1), BuildingBlock: UVAHIK_clean_linker_0, # of connection points: 2
#     Edge 35, Type (0, 1), BuildingBlock: UVAHIK_clean_linker_0, # of connection points: 2
# Relax obj value: 0.255
# Max RMSD: 0.192
# Mean RMSD: 0.159
data_MOF--net-dag--node1-IZENUY_clean_sbu_0--node2-ESEHIV_clean_linker_0--edge1-UVAHIK_clean_linker_0
_symmetry_space_group_name_H-M    P1
_symmetry_Int_Tables_number       1
_symmetry_cell_setting            triclinic
loop_
_symmetry_equiv_pos_as_xyz
'x, y, z'
_cell_length_a     46.93278
_cell_length_b     48.883222
_cell_length_c     41.323792
_cell_angle_alpha  95.213667
_cell_angle_beta   90.171074
_cell_angle_gamma 89.991864
loop_
_atom_site_label
_atom_site_type_symbol
_atom_site_fract_x
_atom_site_fract_y
_atom_site_fract_z
_atom_type_partial_charge
Fe0 Fe 0.18737 0.84103 0.09055 0.0
Fe1 Fe 0.13197 0.8567 0.05767 0.0
O2 O 0.15542 0.83118 0.06959 0.0
Fe3 Fe 0.14725 0.79578 0.06082 0.0
O4 O 0.14766 0.79033 0.10384 0.0
O5 O 0.18878 0.81078 0.11349 0.0
O6 O 0.16783 0.85833 0.12429 0.0
C7 C 0.14904 0.8764 0.12126 0.0
C8 C 0.20654 0.79907 0.04851 0.0
O9 O 0.13888 0.88056 0.09368 0.0
C10 C 0.1319 0.81651 0.00382 0.0
O11 O 0.1921 0.87327 0.07186 0.0
O12 O 0.15936 0.87178 0.03397 0.0
O13 O 0.1848 0.78529 0.05545 0.0
O14 O 0.20853 0.8243 0.05791 0.0
C15 C 0.09341 0.81954 0.07733 0.0
O16 O 0.12098 0.83712 0.01991 0.0
O17 O 0.14612 0.79883 0.01735 0.0
C18 C 0.1827 0.8809 0.04547 0.0
O19 O 0.10284 0.84374 0.08029 0.0
O20 O 0.10836 0.80001 0.06427 0.0
C21 C 0.16898 0.79548 0.12203 0.0
Fe22 Fe 0.68446 0.65413 0.48152 0.0
Fe23 Fe 0.64475 0.69985 0.51103 0.0
O24 O 0.65322 0.66437 0.50334 0.0
Fe25 Fe 0.63062 0.63911 0.51732 0.0
O26 O 0.65884 0.62555 0.54111 0.0
O27 O 0.69086 0.62314 0.50252 0.0
O28 O 0.70665 0.67254 0.51209 0.0
C29 C 0.70449 0.69789 0.52062 0.0
C30 C 0.64621 0.6166 0.45431 0.0
O31 O 0.68222 0.71109 0.51413 0.0
C32 C 0.59076 0.67485 0.49762 0.0
O33 O 0.68386 0.683 0.45633 0.0
O34 O 0.6433 0.70415 0.46784 0.0
O35 O 0.63707 0.61369 0.48262 0.0
O36 O 0.66399 0.63516 0.44964 0.0
C37 C 0.63186 0.68074 0.56945 0.0
O38 O 0.60579 0.69488 0.50949 0.0
O39 O 0.60076 0.65085 0.49469 0.0
C40 C 0.66329 0.6977 0.44828 0.0
O41 O 0.64557 0.69797 0.55472 0.0
O42 O 0.62023 0.65997 0.55439 0.0
C43 C 0.68222 0.61657 0.52972 0.0
Fe44 Fe 0.85653 0.19616 0.01973 0.0
Fe45 Fe 0.87173 0.13515 0.01959 0.0
O46 O 0.84808 0.16108 0.00923 0.0
Fe47 Fe 0.81608 0.15166 0.98819 0.0
O48 O 0.82647 0.17033 0.95451 0.0
O49 O 0.84015 0.20831 0.98301 0.0
O50 O 0.88984 0.19358 0.99738 0.0
C51 C 0.90924 0.17655 0.00203 0.0
C52 C 0.79933 0.19651 0.03244 0.0
O53 O 0.90406 0.15562 0.01684 0.0
C54 C 0.81755 0.11232 0.03061 0.0
O55 O 0.87419 0.18997 0.05835 0.0
O56 O 0.86796 0.14574 0.06233 0.0
O57 O 0.79515 0.18077 0.0068 0.0
O58 O 0.82417 0.20144 0.04294 0.0
C59 C 0.85686 0.11494 0.95832 0.0
O60 O 0.84388 0.1097 0.02455 0.0
O61 O 0.80363 0.13198 0.02064 0.0
C62 C 0.87289 0.16962 0.07535 0.0
O63 O 0.87685 0.12315 0.97723 0.0
O64 O 0.83121 0.12095 0.96543 0.0
C65 C 0.83356 0.19526 0.95607 0.0
Fe66 Fe 0.37161 0.36425 0.55616 0.0
Fe67 Fe 0.31608 0.34764 0.58741 0.0
O68 O 0.34789 0.33831 0.56624 0.0
Fe69 Fe 0.35604 0.30325 0.55541 0.0
O70 O 0.38918 0.30553 0.57814 0.0
O71 O 0.40391 0.34363 0.55932 0.0
O72 O 0.37681 0.37612 0.59854 0.0
C73 C 0.35695 0.38427 0.61747 0.0
C74 C 0.37274 0.32998 0.50024 0.0
O75 O 0.33127 0.37832 0.61034 0.0
C76 C 0.29893 0.30322 0.5427 0.0
O77 O 0.34366 0.38978 0.5511 0.0
O78 O 0.30352 0.36736 0.55509 0.0
O79 O 0.3739 0.30955 0.5171 0.0
O80 O 0.36789 0.35383 0.51334 0.0
C81 C 0.3334 0.30378 0.61897 0.0
O82 O 0.29504 0.3186 0.56866 0.0
O83 O 0.32366 0.29843 0.53192 0.0
C84 C 0.3172 0.38724 0.54541 0.0
O85 O 0.32675 0.32883 0.62092 0.0
O86 O 0.33947 0.29089 0.59182 0.0
C87 C 0.40863 0.32269 0.57437 0.0
H88 H 0.02363 0.10639 0.31576 0.0
H89 H 0.10109 0.10582 0.37129 0.0
H90 H 0.04766 0.17795 0.37746 0.0
C91 C 0.03782 0.11623 0.33405 0.0
C92 C 0.03215 0.14313 0.34699 0.0
C93 C 0.0628 0.10279 0.34242 0.0
C94 C 0.08154 0.11604 0.36523 0.0
C95 C 0.07621 0.14319 0.3783 0.0
C96 C 0.05134 0.15659 0.36903 0.0
H97 H 0.47744 0.60824 0.8119 0.0
H98 H 0.40403 0.61676 0.8737 0.0
H99 H 0.46507 0.68266 0.87367 0.0
C100 C 0.46543 0.61977 0.83092 0.0
C101 C 0.47459 0.64626 0.84224 0.0
C102 C 0.43994 0.60895 0.84197 0.0
C103 C 0.42391 0.62485 0.86535 0.0
C104 C 0.43265 0.65151 0.87701 0.0
C105 C 0.45809 0.66212 0.86517 0.0
H106 H 0.79652 0.85513 0.1041 0.0
H107 H 0.78497 0.79105 0.1674 0.0
H108 H 0.71807 0.84994 0.15634 0.0
C109 C 0.78307 0.84427 0.11997 0.0
C110 C 0.75582 0.8546 0.12785 0.0
C111 C 0.79393 0.82149 0.13431 0.0
C112 C 0.77665 0.8085 0.156 0.0
C113 C 0.74919 0.81849 0.16407 0.0
C114 C 0.73901 0.84176 0.15005 0.0
H115 H 0.69675 0.36026 0.61929 0.0
H116 H 0.71365 0.29526 0.6797 0.0
H117 H 0.77618 0.35862 0.67148 0.0
C118 C 0.71134 0.34998 0.63458 0.0
C119 C 0.73786 0.36203 0.64298 0.0
C120 C 0.70245 0.32597 0.64774 0.0
C121 C 0.72066 0.31354 0.66898 0.0
C122 C 0.74728 0.3252 0.67763 0.0
C123 C 0.75575 0.34949 0.66463 0.0
H124 H 0.517 0.3912 0.25222 0.0
H125 H 0.59895 0.38907 0.20558 0.0
H126 H 0.5458 0.31696 0.19934 0.0
C127 C 0.53288 0.38052 0.23683 0.0
C128 C 0.52833 0.35291 0.2259 0.0
C129 C 0.55863 0.39365 0.23047 0.0
C130 C 0.57894 0.37927 0.21058 0.0
C131 C 0.57423 0.35175 0.19851 0.0
C132 C 0.54894 0.33861 0.20667 0.0
H133 H 0.19975 0.14333 0.96397 0.0
H134 H 0.21288 0.20764 0.90129 0.0
H135 H 0.27102 0.13921 0.89881 0.0
C136 C 0.21267 0.15278 0.94632 0.0
C137 C 0.23674 0.13891 0.93329 0.0
C138 C 0.20373 0.17742 0.93458 0.0
C139 C 0.21998 0.18881 0.91075 0.0
C140 C 0.24456 0.1754 0.89801 0.0
C141 C 0.25259 0.15016 0.90907 0.0
H142 H 0.28439 0.6372 0.47891 0.0
H143 H 0.2867 0.70045 0.41349 0.0
H144 H 0.21471 0.64541 0.41325 0.0
C145 C 0.27422 0.64829 0.46045 0.0
C146 C 0.24745 0.63966 0.44841 0.0
C147 C 0.28894 0.6696 0.44727 0.0
C148 C 0.27551 0.68374 0.42338 0.0
C149 C 0.2485 0.67544 0.41097 0.0
C150 C 0.23477 0.65307 0.4235 0.0
H151 H 0.97285 0.88984 0.76298 0.0
H152 H 0.95995 0.81587 0.70049 0.0
H153 H 0.89911 0.88206 0.70118 0.0
C154 C 0.96069 0.87845 0.74389 0.0
C155 C 0.93523 0.88949 0.73292 0.0
C156 C 0.9697 0.852 0.73233 0.0
C157 C 0.95303 0.83636 0.70924 0.0
C158 C 0.92758 0.84717 0.69748 0.0
C159 C 0.91898 0.87379 0.70945 0.0
C160 C 0.11058 0.90065 0.15314 0.0
C161 C 0.13959 0.89433 0.14969 0.0
C162 C 0.10129 0.9195 0.17821 0.0
C163 C 0.12467 0.96222 0.25366 0.0
H164 H 0.06338 0.00879 0.22787 0.0
C165 C 0.07938 0.05361 0.33867 0.0
C166 C 0.07124 0.07696 0.32347 0.0
C167 C 0.0871 0.02939 0.31995 0.0
C168 C 0.08072 0.99621 0.23546 0.0
H169 H 0.18168 0.90182 0.17006 0.0
H170 H 0.16579 0.93621 0.21292 0.0
H171 H 0.07848 0.97035 0.19132 0.0
H172 H 0.06626 0.09396 0.27719 0.0
H173 H 0.08054 0.05244 0.24473 0.0
H174 H 0.12796 0.9896 0.29707 0.0
C175 C 0.14995 0.92599 0.19702 0.0
C176 C 0.08907 0.97366 0.21465 0.0
C177 C 0.15916 0.90643 0.17238 0.0
C178 C 0.07176 0.07599 0.28946 0.0
C179 C 0.07983 0.0521 0.27087 0.0
C180 C 0.11658 0.98519 0.27437 0.0
C181 C 0.12092 0.93324 0.1998 0.0
C182 C 0.11128 0.95638 0.22327 0.0
C183 C 0.0872 0.02831 0.28576 0.0
C184 C 0.09475 0.00271 0.26526 0.0
H185 H 0.09507 0.89115 0.13619 0.0
H186 H 0.07868 0.92369 0.18015 0.0
H187 H 0.14157 0.9492 0.26142 0.0
H188 H 0.07927 0.05399 0.36492 0.0
H189 H 0.09252 0.01144 0.33224 0.0
C190 C 0.63686 0.66493 0.62421 0.0
C191 C 0.6275 0.68508 0.60464 0.0
C192 C 0.62819 0.66558 0.6565 0.0
C193 C 0.58767 0.70597 0.72263 0.0
H194 H 0.56442 0.63307 0.7417 0.0
C195 C 0.49789 0.68211 0.81181 0.0
C196 C 0.50001 0.65776 0.82728 0.0
C197 C 0.51956 0.68947 0.79107 0.0
C198 C 0.5713 0.65355 0.73728 0.0
H199 H 0.60291 0.72235 0.60321 0.0
H200 H 0.58657 0.72302 0.65953 0.0
H201 H 0.59139 0.63856 0.69311 0.0
H202 H 0.52741 0.62358 0.83607 0.0
H203 H 0.56554 0.6367 0.80053 0.0
H204 H 0.56599 0.72083 0.76646 0.0
C205 C 0.60133 0.70715 0.65041 0.0
C206 C 0.58689 0.65673 0.70927 0.0
C207 C 0.61057 0.70678 0.61816 0.0
C208 C 0.52519 0.64228 0.82407 0.0
C209 C 0.5469 0.64974 0.80363 0.0
C210 C 0.57182 0.70276 0.75075 0.0
C211 C 0.60919 0.68593 0.66958 0.0
C212 C 0.59505 0.68297 0.7013 0.0
C213 C 0.54371 0.67264 0.78565 0.0
C214 C 0.56322 0.67649 0.75816 0.0
H215 H 0.65002 0.64805 0.61411 0.0
H216 H 0.63534 0.64935 0.67076 0.0
H217 H 0.5938 0.72646 0.71739 0.0
H218 H 0.47859 0.69429 0.81377 0.0
H219 H 0.51637 0.70716 0.77749 0.0
C220 C 0.81901 0.06952 0.05873 0.0
C221 C 0.80275 0.08936 0.04443 0.0
C222 C 0.80645 0.04546 0.06728 0.0
C223 C 0.77985 0.9898 0.05286 0.0
H224 H 0.71524 0.98174 0.10948 0.0
C225 C 0.74833 0.88319 0.08158 0.0
C226 C 0.74662 0.88043 0.115 0.0
C227 C 0.74614 0.90904 0.07001 0.0
C228 C 0.73317 0.98372 0.09342 0.0
H229 H 0.76004 0.10044 0.03019 0.0
H230 H 0.73788 0.05791 0.04548 0.0
H231 H 0.73023 0.02783 0.09701 0.0
H232 H 0.73908 0.90192 0.16233 0.0
H233 H 0.73605 0.94733 0.1423 0.0
H234 H 0.78394 0.9463 0.05007 0.0
C235 C 0.76046 0.06119 0.04974 0.0
C236 C 0.74161 0.01001 0.0862 0.0
C237 C 0.77314 0.08545 0.04101 0.0
C238 C 0.74033 0.90358 0.13641 0.0
C239 C 0.73852 0.92956 0.12489 0.0
C240 C 0.7714 0.96371 0.05984 0.0
C241 C 0.77729 0.04063 0.06186 0.0
C242 C 0.76556 0.01321 0.06662 0.0
C243 C 0.74277 0.9327 0.09173 0.0
C244 C 0.74837 0.96032 0.08078 0.0
H245 H 0.84177 0.0721 0.06227 0.0
H246 H 0.81976 0.03014 0.07723 0.0
H247 H 0.79819 0.99172 0.03737 0.0
H248 H 0.75288 0.86552 0.06462 0.0
H249 H 0.74882 0.91069 0.04424 0.0
C250 C 0.44753 0.291 0.58978 0.0
C251 C 0.43786 0.3177 0.58569 0.0
C252 C 0.47572 0.28663 0.59926 0.0
C253 C 0.53636 0.32073 0.6413 0.0
H254 H 0.58453 0.27216 0.58577 0.0
C255 C 0.6556 0.31026 0.6681 0.0
C256 C 0.673 0.31574 0.64183 0.0
C257 C 0.62666 0.30457 0.66328 0.0
C258 C 0.57124 0.28559 0.60163 0.0
H259 H 0.4497 0.36076 0.58929 0.0
H260 H 0.49856 0.35316 0.60645 0.0
H261 H 0.53324 0.27427 0.57464 0.0
H262 H 0.67426 0.31785 0.58971 0.0
H263 H 0.62361 0.3078 0.58123 0.0
H264 H 0.57424 0.33272 0.66774 0.0
C265 C 0.4845 0.33564 0.60206 0.0
C266 C 0.54196 0.28666 0.59541 0.0
C267 C 0.45661 0.33994 0.59202 0.0
C268 C 0.66126 0.31387 0.61039 0.0
C269 C 0.63236 0.30791 0.60552 0.0
C270 C 0.56548 0.31939 0.64779 0.0
C271 C 0.49439 0.30896 0.60552 0.0
C272 C 0.52444 0.30479 0.6147 0.0
C273 C 0.61463 0.30399 0.63206 0.0
C274 C 0.58333 0.30231 0.62757 0.0
H275 H 0.43352 0.27348 0.58501 0.0
H276 H 0.48291 0.26588 0.60184 0.0
H277 H 0.52323 0.33478 0.65659 0.0
H278 H 0.66403 0.31178 0.69263 0.0
H279 H 0.61349 0.30146 0.68411 0.0
C280 C 0.61668 0.57667 0.4321 0.0
C281 C 0.63691 0.59698 0.42688 0.0
C282 C 0.6073 0.55835 0.40646 0.0
C283 C 0.62729 0.52661 0.32594 0.0
H284 H 0.54776 0.50492 0.3233 0.0
C285 C 0.58148 0.4407 0.23309 0.0
C286 C 0.56555 0.42088 0.2479 0.0
C287 C 0.58919 0.4655 0.25067 0.0
C288 C 0.57001 0.51083 0.32365 0.0
H289 H 0.6631 0.614 0.39042 0.0
H290 H 0.64665 0.58174 0.34546 0.0
H291 H 0.56341 0.54245 0.36212 0.0
H292 H 0.54593 0.41158 0.29321 0.0
H293 H 0.55856 0.45473 0.32316 0.0
H294 H 0.63388 0.49437 0.28789 0.0
C295 C 0.63822 0.58003 0.36956 0.0
C296 C 0.579 0.53225 0.34593 0.0
C297 C 0.64758 0.59851 0.3953 0.0
C298 C 0.55737 0.42659 0.28054 0.0
C299 C 0.56474 0.45135 0.29786 0.0
C300 C 0.61824 0.50516 0.3035 0.0
C301 C 0.61786 0.55983 0.37488 0.0
C302 C 0.60789 0.5398 0.34807 0.0
C303 C 0.58083 0.47102 0.28324 0.0
C304 C 0.58967 0.49652 0.30289 0.0
H305 H 0.60797 0.57485 0.45605 0.0
H306 H 0.59201 0.54271 0.41152 0.0
H307 H 0.6497 0.5319 0.32706 0.0
H308 H 0.58803 0.43706 0.20796 0.0
H309 H 0.60158 0.48037 0.23881 0.0
C310 C 0.94835 0.20876 0.98821 0.0
C311 C 0.93914 0.1822 0.99369 0.0
C312 C 0.97734 0.21399 0.9834 0.0
C313 C 0.04812 0.18455 -0.00052 0.0
H314 H 0.07549 0.23005 0.93408 0.0
C315 C 0.15532 0.19381 0.92033 0.0
C316 C 0.17556 0.18901 0.94425 0.0
C317 C 0.1271 0.19981 0.92889 0.0
C318 C 0.06819 0.21728 0.95247 0.0
H319 H 0.95277 0.14006 0.99651 0.0
H320 H 0.00277 0.14899 0.98745 0.0
H321 H 0.02428 0.2256 0.94271 0.0
H322 H 0.18291 0.18892 0.99596 0.0
H323 H 0.13382 0.20042 0.0112 0.0
H324 H 0.09154 0.17478 0.00808 0.0
C325 C 0.98796 0.16601 0.98795 0.0
C326 C 0.03884 0.21496 0.95762 0.0
C327 C 0.95922 0.16085 0.99292 0.0
C328 C 0.16758 0.19225 0.97706 0.0
C329 C 0.13944 0.19866 0.9857 0.0
C330 C 0.07731 0.18669 0.99421 0.0
C331 C 0.9975 0.19272 0.98388 0.0
C332 C 0.0285 0.19794 0.98059 0.0
C333 C 0.11858 0.20142 0.96163 0.0
C334 C 0.08776 0.20258 0.97014 0.0
H335 H 0.93335 0.22563 0.98866 0.0
H336 H 0.98404 0.23479 0.98029 0.0
H337 H 0.0409 0.17177 0.01791 0.0
H338 H 0.16087 0.19116 0.8948 0.0
H339 H 0.11168 0.20145 0.90963 0.0
C340 C 0.27176 0.41062 0.53046 0.0
C341 C 0.30172 0.41035 0.53256 0.0
C342 C 0.25743 0.43406 0.52181 0.0
C343 C 0.26749 0.5081 0.52673 0.0
H344 H 0.21115 0.51017 0.45817 0.0
C345 C 0.23356 0.59067 0.43678 0.0
C346 C 0.23545 0.61406 0.45901 0.0
C347 C 0.23122 0.5646 0.44792 0.0
C348 C 0.22665 0.50986 0.4776 0.0
H349 H 0.34007 0.43387 0.52525 0.0
H350 H 0.31515 0.47442 0.51046 0.0
H351 H 0.22975 0.46579 0.47225 0.0
H352 H 0.233 0.62922 0.50974 0.0
H353 H 0.22775 0.58382 0.52927 0.0
H354 H 0.26588 0.55176 0.53131 0.0
C355 C 0.30275 0.45674 0.51596 0.0
C356 C 0.23715 0.4845 0.48571 0.0
C357 C 0.317 0.43342 0.52432 0.0
C358 C 0.23172 0.61137 0.49222 0.0
C359 C 0.22895 0.58538 0.50334 0.0
C360 C 0.25698 0.53327 0.51881 0.0
C361 C 0.27286 0.45756 0.51541 0.0
C362 C 0.25838 0.48356 0.50961 0.0
C363 C 0.23055 0.56163 0.48146 0.0
C364 C 0.23704 0.53457 0.49353 0.0
H365 H 0.25936 0.3931 0.53647 0.0
H366 H 0.23435 0.43421 0.52139 0.0
H367 H 0.28357 0.50789 0.54557 0.0
H368 H 0.23663 0.5923 0.41105 0.0
H369 H 0.23262 0.5468 0.43037 0.0
C370 C 0.134 0.83407 0.94971 0.0
C371 C 0.12631 0.81299 0.96875 0.0
C372 C 0.12446 0.83375 0.91771 0.0
C373 C 0.08444 0.79273 0.85128 0.0
H374 H 0.05856 0.86521 0.83359 0.0
C375 C 0.99337 0.81598 0.76238 0.0
C376 C 0.99528 0.84042 0.74706 0.0
C377 C 0.01516 0.80867 0.78315 0.0
C378 C 0.06614 0.84487 0.83769 0.0
H379 H 0.10379 0.77448 0.96947 0.0
H380 H 0.0858 0.77439 0.91374 0.0
H381 H 0.08603 0.85991 0.88207 0.0
H382 H 0.02247 0.87477 0.73851 0.0
H383 H 0.06073 0.8618 0.7742 0.0
H384 H 0.06285 0.77778 0.80725 0.0
C385 C 0.09995 0.79078 0.92302 0.0
C386 C 0.08204 0.84179 0.8656 0.0
C387 C 0.11012 0.79081 0.95494 0.0
C388 C 0.0204 0.856 0.75038 0.0
C389 C 0.0422 0.84863 0.7709 0.0
C390 C 0.0682 0.79582 0.82329 0.0
C391 C 0.10618 0.8128 0.9044 0.0
C392 C 0.09128 0.8157 0.873 0.0
C393 C 0.03919 0.82566 0.78876 0.0
C394 C 0.05873 0.82195 0.81636 0.0
H395 H 0.14664 0.8513 0.95999 0.0
H396 H 0.13045 0.85061 0.90385 0.0
H397 H 0.09138 0.77235 0.85605 0.0
H398 H 0.97412 0.80371 0.76032 0.0
H399 H 0.01217 0.79091 0.79664 0.0
C400 C 0.8409 0.0806 0.91324 0.0
C401 C 0.86309 0.09531 0.92982 0.0
C402 C 0.84687 0.0608 0.88763 0.0
C403 C 0.90127 0.0368 0.82767 0.0
H404 H 0.86701 0.9653 0.83381 0.0
C405 C 0.94377 0.93788 0.75722 0.0
C406 C 0.92466 0.91636 0.74813 0.0
C407 C 0.93444 0.96175 0.77523 0.0
C408 C 0.87633 0.98524 0.83119 0.0
H409 H 0.90887 0.10156 0.9316 0.0
H410 H 0.91922 0.06701 0.88671 0.0
H411 H 0.85403 0.00347 0.87278 0.0
H412 H 0.88035 0.9038 0.74967 0.0
H413 H 0.86389 0.94586 0.77963 0.0
H414 H 0.92361 0.0186 0.78606 0.0
C415 C 0.89724 0.07083 0.89363 0.0
C416 C 0.86894 0.0071 0.85367 0.0
C417 C 0.8913 0.09045 0.91947 0.0
C418 C 0.89569 0.91997 0.75598 0.0
C419 C 0.8863 0.94397 0.77367 0.0
C420 C 0.90846 0.01497 0.8049 0.0
C421 C 0.87511 0.0555 0.87781 0.0
C422 C 0.8816 0.03299 0.85242 0.0
C423 C 0.90568 0.96485 0.78432 0.0
C424 C 0.89637 0.98879 0.80665 0.0
H425 H 0.81892 0.0839 0.92049 0.0
H426 H 0.82939 0.04945 0.87565 0.0
H427 H 0.91112 0.05665 0.82596 0.0
H428 H 0.96616 0.936 0.75111 0.0
H429 H 0.95007 0.97725 0.78314 0.0
C430 C 0.38796 0.34962 0.44938 0.0
C431 C 0.38036 0.32658 0.46539 0.0
C432 C 0.39668 0.34665 0.41706 0.0
C433 C 0.42659 0.29528 0.35513 0.0
H434 H 0.41884 0.35689 0.3031 0.0
C435 C 0.47634 0.34628 0.23533 0.0
C436 C 0.5046 0.33827 0.24002 0.0
C437 C 0.45468 0.33739 0.25506 0.0
C438 C 0.42079 0.33901 0.31657 0.0
H439 H 0.37481 0.28238 0.45961 0.0
H440 H 0.38924 0.2772 0.40259 0.0
H441 H 0.39128 0.35593 0.35211 0.0
H442 H 0.53248 0.31373 0.26743 0.0
H443 H 0.49544 0.29939 0.30293 0.0
H444 H 0.45544 0.27793 0.31899 0.0
C445 C 0.38919 0.29755 0.41534 0.0
C446 C 0.40529 0.33878 0.34529 0.0
C447 C 0.38083 0.3005 0.44799 0.0
C448 C 0.51069 0.31986 0.26317 0.0
C449 C 0.48926 0.31156 0.28347 0.0
C450 C 0.44159 0.29517 0.32592 0.0
C451 C 0.39758 0.32058 0.39956 0.0
C452 C 0.40916 0.31768 0.36585 0.0
C453 C 0.46111 0.32116 0.28065 0.0
C454 C 0.44008 0.31774 0.30708 0.0
H455 H 0.38802 0.37001 0.46209 0.0
H456 H 0.40366 0.36485 0.40624 0.0
H457 H 0.43006 0.27853 0.37011 0.0
H458 H 0.47126 0.36051 0.21752 0.0
H459 H 0.43319 0.34452 0.25132 0.0
C460 C 0.21695 0.92019 0.04928 0.0
C461 C 0.19681 0.90395 0.03106 0.0
C462 C 0.22804 0.94379 0.03744 0.0
C463 C 0.23991 0.98022 0.96537 0.0
H464 H 0.22483 0.04586 0.02264 0.0
C465 C 0.23787 0.08832 0.9204 0.0
C466 C 0.24298 0.11118 0.94262 0.0
C467 C 0.23848 0.06187 0.93063 0.0
C468 C 0.23001 0.02784 0.00655 0.0
H469 H 0.17386 0.89879 0.98526 0.0
H470 H 0.19372 0.94001 0.96434 0.0
H471 H 0.21485 0.00111 0.04092 0.0
H472 H 0.2545 0.12478 0.99214 0.0
H473 H 0.25737 0.07852 0.00983 0.0
H474 H 0.25538 0.00683 0.93104 0.0
C475 C 0.20065 0.93444 0.98789 0.0
C476 C 0.22404 0.00216 0.01704 0.0
C477 C 0.18918 0.911 -5e-05 0.0
C478 C 0.25047 0.10729 0.9747 0.0
C479 C 0.25174 0.08082 0.9848 0.0
C480 C 0.24644 0.00595 0.95504 0.0
C481 C 0.2196 0.95138 0.00692 0.0
C482 C 0.22846 0.97817 0.99638 0.0
C483 C 0.24466 0.0578 0.96323 0.0
C484 C 0.24104 0.03018 0.97528 0.0
H485 H 0.22336 0.91532 0.0733 0.0
H486 H 0.24275 0.95648 0.05245 0.0
H487 H 0.24368 0.96192 0.94912 0.0
H488 H 0.23172 0.09103 0.89559 0.0
H489 H 0.23251 0.04486 0.91333 0.0
C490 C 0.54719 0.70482 0.49545 0.0
C491 C 0.55995 0.67867 0.49134 0.0
C492 C 0.51762 0.7077 0.49213 0.0
C493 C 0.45218 0.66865 0.50049 0.0
H494 H 0.41576 0.71845 0.44529 0.0
C495 C 0.33776 0.65192 0.45737 0.0
C496 C 0.31947 0.6745 0.45558 0.0
C497 C 0.3666 0.65578 0.46425 0.0
C498 C 0.42559 0.70481 0.46127 0.0
H499 H 0.55165 0.6352 0.47921 0.0
H500 H 0.50045 0.64028 0.47378 0.0
H501 H 0.46773 0.71936 0.45193 0.0
H502 H 0.31735 0.71897 0.45919 0.0
H503 H 0.36823 0.72579 0.47138 0.0
H504 H 0.41047 0.65386 0.5098 0.0
C505 C 0.51322 0.6585 0.47986 0.0
C506 C 0.4553 0.70529 0.46498 0.0
C507 C 0.54263 0.65565 0.48283 0.0
C508 C 0.33091 0.70117 0.46046 0.0
C509 C 0.35999 0.70506 0.46737 0.0
C510 C 0.42265 0.6683 0.49701 0.0
C511 C 0.50035 0.68444 0.48502 0.0
C512 C 0.46888 0.68662 0.48388 0.0
C513 C 0.3781 0.68234 0.46952 0.0
C514 C 0.40904 0.68575 0.47658 0.0
H515 H 0.55993 0.72299 0.50189 0.0
H516 H 0.50817 0.72793 0.49616 0.0
H517 H 0.46207 0.65444 0.51578 0.0
H518 H 0.3299 0.63109 0.45274 0.0
H519 H 0.38005 0.63781 0.46479 0.0
C520 C 0.39178 0.40817 0.65649 0.0
C521 C 0.36346 0.40373 0.64608 0.0
C522 C 0.39808 0.42769 0.68235 0.0
C523 C 0.37093 0.49185 0.72214 0.0
H524 H 0.42619 0.47989 0.78936 0.0
C525 C 0.39987 0.57889 0.81917 0.0
C526 C 0.42897 0.58219 0.8268 0.0
C527 C 0.39002 0.55497 0.80166 0.0
C528 C 0.41088 0.48364 0.77062 0.0
H529 H 0.31949 0.41572 0.65534 0.0
H530 H 0.33063 0.45002 0.70025 0.0
H531 H 0.41269 0.44185 0.74982 0.0
H532 H 0.47021 0.56209 0.82349 0.0
H533 H 0.45328 0.52095 0.79174 0.0
H534 H 0.36984 0.53374 0.74174 0.0
C535 C 0.34789 0.43842 0.68829 0.0
C536 C 0.4031 0.46182 0.74807 0.0
C537 C 0.34154 0.41871 0.66265 0.0
C538 C 0.44774 0.56045 0.81758 0.0
C539 C 0.43794 0.53665 0.79972 0.0
C540 C 0.37889 0.51369 0.74442 0.0
C541 C 0.37625 0.44332 0.69814 0.0
C542 C 0.38322 0.46579 0.72345 0.0
C543 C 0.40903 0.53385 0.79092 0.0
C544 C 0.39916 0.50996 0.7688 0.0
H545 H 0.40914 0.39684 0.64438 0.0
H546 H 0.42016 0.4312 0.68927 0.0
H547 H 0.35587 0.49561 0.70312 0.0
H548 H 0.38477 0.59524 0.82553 0.0
H549 H 0.36752 0.55332 0.7959 0.0
C550 C 0.05043 0.78893 0.07902 0.0
C551 C 0.06345 0.81466 0.08648 0.0
C552 C 0.02163 0.78508 0.08612 0.0
C553 C 0.96205 0.81568 0.13593 0.0
H554 H 0.91399 0.77822 0.06945 0.0
C555 C 0.83659 0.8134 0.09796 0.0
C556 C 0.82413 0.81305 0.12883 0.0
C557 C 0.86578 0.80871 0.0937 0.0
C558 C 0.92712 0.78875 0.08825 0.0
H559 H 0.05647 0.85631 0.108 0.0
H560 H 0.00651 0.84966 0.12002 0.0
H561 H 0.96542 0.78007 0.06116 0.0
H562 H 0.83257 0.80643 0.1792 0.0
H563 H 0.88322 0.79746 0.17155 0.0
H564 H 0.92382 0.82548 0.16239 0.0
C565 C 0.01852 0.83235 0.10899 0.0
C566 C 0.95663 0.78953 0.08366 0.0
C567 C 0.04719 0.83622 0.10186 0.0
C568 C 0.84134 0.80663 0.15501 0.0
C569 C 0.8705 0.80184 0.15073 0.0
C570 C 0.93261 0.81492 0.14049 0.0
C571 C 0.00531 0.80682 0.10099 0.0
C572 C 0.97437 0.80348 0.10719 0.0
C573 C 0.88321 0.80349 0.12019 0.0
C574 C 0.91471 0.80184 0.11648 0.0
H575 H 0.06235 0.77187 0.06724 0.0
H576 H 0.01213 0.76509 0.07994 0.0
H577 H 0.97514 0.82626 0.15473 0.0
H578 H 0.82387 0.81794 0.0772 0.0
H579 H 0.87485 0.81034 0.06989 0.0
C580 C 0.72388 0.58497 0.5342 0.0
C581 C 0.69743 0.59503 0.54592 0.0
C582 C 0.73678 0.5627 0.54738 0.0
C583 C 0.73215 0.5183 0.61622 0.0
H584 H 0.76131 0.46223 0.5525 0.0
C585 C 0.75672 0.41021 0.65244 0.0
C586 C 0.74533 0.38891 0.63112 0.0
C587 C 0.75936 0.43675 0.64267 0.0
C588 C 0.75327 0.47767 0.57065 0.0
H589 H 0.66448 0.5904 0.58176 0.0
H590 H 0.68642 0.55125 0.60399 0.0
H591 H 0.74882 0.50711 0.53583 0.0
H592 H 0.73002 0.37823 0.58205 0.0
H593 H 0.73359 0.42444 0.56541 0.0
H594 H 0.73452 0.48823 0.65049 0.0
C595 C 0.69758 0.56076 0.58504 0.0
C596 C 0.74646 0.5036 0.56117 0.0
C597 C 0.68482 0.58314 0.57207 0.0
C598 C 0.73841 0.39431 0.59922 0.0
C599 C 0.74084 0.42081 0.58955 0.0
C600 C 0.73867 0.49229 0.62562 0.0
C601 C 0.72344 0.54988 0.57244 0.0
C602 C 0.73496 0.52397 0.58363 0.0
C603 C 0.75054 0.44256 0.61145 0.0
C604 C 0.74847 0.47137 0.60272 0.0
H605 H 0.73434 0.5939 0.51433 0.0
H606 H 0.75695 0.55519 0.53749 0.0
H607 H 0.72392 0.53367 0.63432 0.0
H608 H 0.76218 0.40677 0.67722 0.0
H609 H 0.76739 0.4529 0.65998 0.0
C610 C 0.88259 0.1993 0.12714 0.0
C611 C 0.88065 0.17309 0.11021 0.0
C612 C 0.89147 0.20228 0.15966 0.0
C613 C 0.90683 0.16144 0.23036 0.0
H614 H 0.96133 0.21947 0.25343 0.0
C615 C 0.01561 0.17525 0.30806 0.0
C616 C 0.00901 0.15825 0.33247 0.0
C617 C 0.99417 0.18422 0.28811 0.0
C618 C 0.94623 0.20304 0.24741 0.0
H619 H 0.88598 0.12944 0.11435 0.0
H620 H 0.90244 0.13459 0.16998 0.0
H621 H 0.93443 0.21964 0.20322 0.0
H622 H 0.97506 0.13889 0.35725 0.0
H623 H 0.93707 0.156 0.32383 0.0
H624 H 0.92053 0.14325 0.27257 0.0
C625 C 0.89631 0.15292 0.15886 0.0
C626 C 0.93038 0.20339 0.21874 0.0
C627 C 0.88712 0.14995 0.12665 0.0
C628 C 0.98048 0.15211 0.33851 0.0
C629 C 0.95885 0.16163 0.31904 0.0
C630 C 0.92312 0.16073 0.25856 0.0
C631 C 0.89887 0.17911 0.1758 0.0
C632 C 0.91136 0.18192 0.20915 0.0
C633 C 0.96555 0.17666 0.29249 0.0
C634 C 0.94394 0.18091 0.26681 0.0
H635 H 0.87747 0.21752 0.11521 0.0
H636 H 0.8928 0.22274 0.17201 0.0
H637 H 0.89166 0.14505 0.22439 0.0
H638 H 0.03762 0.17984 0.3028 0.0
H639 H 0.0005 0.19533 0.26782 0.0
C640 C 0.1494 0.77042 0.16779 0.0
C641 C 0.17253 0.78215 0.15248 0.0
C642 C 0.15315 0.7597 0.19788 0.0
C643 C 0.20318 0.76431 0.26782 0.0
H644 H 0.17166 0.69416 0.28657 0.0
C645 C 0.25325 0.69747 0.35869 0.0
C646 C 0.23573 0.68875 0.38334 0.0
C647 C 0.24155 0.71006 0.33282 0.0
C648 C 0.18021 0.71397 0.28175 0.0
H649 H 0.2179 0.79069 0.15597 0.0
H650 H 0.22447 0.7716 0.2074 0.0
H651 H 0.15825 0.71385 0.23613 0.0
H652 H 0.19189 0.6862 0.39957 0.0
H653 H 0.17139 0.7074 0.35329 0.0
H654 H 0.22625 0.76375 0.31248 0.0
C655 C 0.20326 0.77141 0.19698 0.0
C656 C 0.17252 0.72526 0.253 0.0
C657 C 0.19951 0.78219 0.16728 0.0
C658 C 0.20603 0.69244 0.38094 0.0
C659 C 0.19425 0.70464 0.35459 0.0
C660 C 0.21107 0.75291 0.29619 0.0
C661 C 0.18009 0.76052 0.213 0.0
C662 C 0.18466 0.75016 0.24529 0.0
C663 C 0.21201 0.71379 0.33057 0.0
C664 C 0.20025 0.72734 0.30297 0.0
H665 H 0.12835 0.77016 0.15695 0.0
H666 H 0.1349 0.7514 0.20963 0.0
H667 H 0.21227 0.78391 0.26306 0.0
H668 H 0.27606 0.69424 0.35901 0.0
H669 H 0.2556 0.71658 0.31423 0.0
C670 C 0.73148 0.74136 0.53577 0.0
C671 C 0.72914 0.71275 0.53608 0.0
C672 C 0.75465 0.75541 0.55061 0.0
C673 C 0.8273 0.74474 0.58433 0.0
H674 H 0.81387 0.8171 0.62819 0.0
C675 C 0.9044 0.80229 0.67764 0.0
C676 C 0.9089 0.83036 0.67428 0.0
C677 C 0.88448 0.78728 0.65803 0.0
C678 C 0.81799 0.79702 0.61575 0.0
H679 H 0.74912 0.67642 0.55241 0.0
H680 H 0.78896 0.70101 0.5794 0.0
H681 H 0.77472 0.79227 0.60027 0.0
H682 H 0.89723 0.8641 0.64618 0.0
H683 H 0.86192 0.83806 0.61272 0.0
H684 H 0.87049 0.74936 0.60119 0.0
C685 C 0.77342 0.71258 0.56685 0.0
C686 C 0.79558 0.78278 0.5996 0.0
C687 C 0.75046 0.69847 0.55155 0.0
C688 C 0.89384 0.84272 0.64997 0.0
C689 C 0.8737 0.82782 0.63071 0.0
C690 C 0.84964 0.75886 0.60095 0.0
C691 C 0.77581 0.74127 0.56664 0.0
C692 C 0.79991 0.75646 0.58359 0.0
C693 C 0.86847 0.80011 0.63495 0.0
C694 C 0.84518 0.78516 0.61672 0.0
H695 H 0.71553 0.7529 0.52376 0.0
H696 H 0.75602 0.77739 0.54929 0.0
H697 H 0.83162 0.72474 0.57185 0.0
H698 H 0.91535 0.79216 0.69632 0.0
H699 H 0.88071 0.76596 0.6619 0.0
C700 C 0.77976 0.22899 0.07719 0.0
C701 C 0.77507 0.21107 0.0491 0.0
C702 C 0.75713 0.24314 0.09278 0.0
C703 C 0.68413 0.26737 0.07935 0.0
H704 H 0.68206 0.27603 0.17354 0.0
C705 C 0.58963 0.31788 0.15256 0.0
C706 C 0.59671 0.33594 0.17982 0.0
C707 C 0.6107 0.30211 0.13586 0.0
C708 C 0.68248 0.27401 0.14722 0.0
H709 H 0.74274 0.19382 0.01555 0.0
H710 H 0.7031 0.21847 0.04305 0.0
H711 H 0.71978 0.24884 0.14602 0.0
H712 H 0.63142 0.35152 0.21103 0.0
H713 H 0.66818 0.32443 0.1816 0.0
H714 H 0.64679 0.29267 0.08066 0.0
C715 C 0.72443 0.22175 0.05272 0.0
C716 C 0.70408 0.25842 0.13145 0.0
C717 C 0.74712 0.20753 0.03708 0.0
C718 C 0.62531 0.33808 0.18986 0.0
C719 C 0.64633 0.32228 0.17326 0.0
C720 C 0.66245 0.28296 0.09515 0.0
C721 C 0.72921 0.23973 0.08074 0.0
C722 C 0.70534 0.25515 0.09735 0.0
C723 C 0.63924 0.30398 0.14622 0.0
C724 C 0.66159 0.28668 0.12927 0.0
H725 H 0.801 0.23226 0.08714 0.0
H726 H 0.76161 0.25714 0.11403 0.0
H727 H 0.68469 0.26549 0.05304 0.0
H728 H 0.56777 0.31592 0.14417 0.0
H729 H 0.60455 0.28806 0.11525 0.0
C730 C 0.32898 0.30417 0.67904 0.0
C731 C 0.33099 0.28907 0.64853 0.0
C732 C 0.32414 0.29091 0.70693 0.0
C733 C 0.32497 0.224 0.74168 0.0
H734 H 0.26605 0.25819 0.79721 0.0
C735 C 0.26807 0.1706 0.84341 0.0
C736 C 0.26056 0.1871 0.87173 0.0
C737 C 0.28041 0.18234 0.81722 0.0
C738 C 0.28288 0.24859 0.78231 0.0
H739 H 0.33096 0.24808 0.62356 0.0
H740 H 0.322 0.22482 0.67256 0.0
H741 H 0.28084 0.27967 0.74935 0.0
H742 H 0.26171 0.22836 0.89576 0.0
H743 H 0.28355 0.24884 0.85025 0.0
H744 H 0.32661 0.19265 0.77474 0.0
C745 C 0.32438 0.24695 0.67477 0.0
C746 C 0.29134 0.26089 0.75482 0.0
C747 C 0.32939 0.26026 0.64672 0.0
C748 C 0.26685 0.21528 0.87399 0.0
C749 C 0.2793 0.22697 0.84793 0.0
C750 C 0.31649 0.21163 0.76935 0.0
C751 C 0.32103 0.26225 0.70502 0.0
C752 C 0.31252 0.24883 0.73425 0.0
C753 C 0.28553 0.21077 0.81895 0.0
C754 C 0.29539 0.22388 0.78999 0.0
H755 H 0.33065 0.32637 0.68137 0.0
H756 H 0.32232 0.30321 0.73 0.0
H757 H 0.34147 0.21433 0.72634 0.0
H758 H 0.26323 0.14884 0.84095 0.0
H759 H 0.28475 0.16936 0.79513 0.0
C760 C 0.65446 0.73542 0.41209 0.0
C761 C 0.66445 0.70893 0.41644 0.0
C762 C 0.65892 0.74672 0.38254 0.0
C763 C 0.70736 0.73785 0.31185 0.0
H764 H 0.6565 0.78898 0.27426 0.0
C765 C 0.73186 0.77674 0.189 0.0
C766 C 0.73222 0.80547 0.18876 0.0
C767 C 0.71924 0.76453 0.21459 0.0
C768 C 0.67085 0.77473 0.28459 0.0
H769 H 0.68468 0.67262 0.39287 0.0
H770 H 0.69132 0.69167 0.34116 0.0
H771 H 0.64215 0.76797 0.32336 0.0
H772 H 0.71822 0.84382 0.21436 0.0
H773 H 0.69584 0.82233 0.25901 0.0
H774 H 0.73595 0.74443 0.27322 0.0
C775 C 0.68125 0.70434 0.36075 0.0
C776 C 0.66273 0.76279 0.31273 0.0
C777 C 0.67731 0.69333 0.39031 0.0
C778 C 0.71813 0.82162 0.21371 0.0
C779 C 0.70533 0.80935 0.23928 0.0
C780 C 0.71526 0.74948 0.28369 0.0
C781 C 0.67303 0.7315 0.35679 0.0
C782 C 0.68092 0.74415 0.32665 0.0
C783 C 0.70655 0.78075 0.24042 0.0
C784 C 0.69714 0.768 0.26974 0.0
H785 H 0.64444 0.74782 0.43195 0.0
H786 H 0.6524 0.76773 0.3804 0.0
H787 H 0.72233 0.72427 0.32233 0.0
H788 H 0.74201 0.76371 0.16978 0.0
H789 H 0.72005 0.74238 0.21463 0.0
C790 C 0.83178 0.23846 0.92732 0.0
C791 C 0.83154 0.20963 0.92616 0.0
C792 C 0.82757 0.2516 0.89894 0.0
C793 C 0.79354 0.23859 0.81905 0.0
H794 H 0.83341 0.30398 0.79755 0.0
C795 C 0.76945 0.28444 0.70001 0.0
C796 C 0.76493 0.31292 0.70226 0.0
C797 C 0.78231 0.27222 0.72554 0.0
C798 C 0.82202 0.28579 0.80335 0.0
H799 H 0.82857 0.17201 0.89405 0.0
H800 H 0.82153 0.19483 0.8449 0.0
H801 H 0.84688 0.28213 0.84644 0.0
H802 H 0.77149 0.35117 0.73214 0.0
H803 H 0.79361 0.32977 0.77712 0.0
H804 H 0.76828 0.24233 0.77672 0.0
C805 C 0.82425 0.20732 0.86772 0.0
C806 C 0.82971 0.27334 0.83132 0.0
C807 C 0.82834 0.19426 0.89593 0.0
C808 C 0.77492 0.32916 0.72974 0.0
C809 C 0.78761 0.3169 0.75546 0.0
C810 C 0.78585 0.251 0.79129 0.0
C811 C 0.82313 0.2361 0.86898 0.0
C812 C 0.81555 0.24955 0.83937 0.0
C813 C 0.79064 0.28819 0.75403 0.0
C814 C 0.8 0.2747 0.78302 0.0
H815 H 0.83433 0.25087 0.95023 0.0
H816 H 0.8267 0.27382 0.90066 0.0
H817 H 0.78176 0.22066 0.82497 0.0
H818 H 0.76228 0.27152 0.67886 0.0
H819 H 0.78497 0.25012 0.72336 0.0
C820 C 0.27894 0.27073 0.49812 0.0
C821 C 0.27454 0.28852 0.52634 0.0
C822 C 0.25624 0.2562 0.48303 0.0
C823 C 0.18425 0.23051 0.49819 0.0
H824 H 0.18057 0.22116 0.40407 0.0
C825 C 0.09052 0.17665 0.42533 0.0
C826 C 0.09818 0.15873 0.39821 0.0
C827 C 0.11113 0.19295 0.4423 0.0
C828 C 0.18145 0.22339 0.43038 0.0
H829 H 0.24266 0.30525 0.56058 0.0
H830 H 0.20289 0.27997 0.53393 0.0
H831 H 0.21781 0.24972 0.43071 0.0
H832 H 0.13349 0.14377 0.36774 0.0
H833 H 0.16938 0.17175 0.39763 0.0
H834 H 0.1478 0.20403 0.49768 0.0
C835 C 0.22404 0.27706 0.52379 0.0
C836 C 0.20277 0.23976 0.44564 0.0
C837 C 0.2468 0.29165 0.53893 0.0
C838 C 0.12692 0.15706 0.38881 0.0
C839 C 0.14744 0.17338 0.40565 0.0
C840 C 0.16282 0.21414 0.48287 0.0
C841 C 0.22855 0.25914 0.4957 0.0
C842 C 0.20467 0.2432 0.4797 0.0
C843 C 0.13973 0.19178 0.43227 0.0
C844 C 0.16148 0.21011 0.4488 0.0
H845 H 0.30001 0.26778 0.48775 0.0
H846 H 0.26052 0.24225 0.46171 0.0
H847 H 0.18532 0.23255 0.52448 0.0
H848 H 0.06854 0.17828 0.43319 0.0
H849 H 0.10456 0.20703 0.46267 0.0
C850 C 0.23411 0.75618 0.03278 0.0
C851 C 0.2312 0.78475 0.03256 0.0
C852 C 0.25752 0.7426 0.01808 0.0
C853 C 0.33008 0.75459 0.98564 0.0
H854 H 0.31845 0.68164 0.94246 0.0
C855 C 0.40933 0.69656 0.89553 0.0
C856 C 0.41397 0.66865 0.89971 0.0
C857 C 0.38909 0.71174 0.91435 0.0
C858 C 0.32205 0.7019 0.9547 0.0
H859 H 0.25036 0.82149 0.01646 0.0
H860 H 0.29068 0.79768 0.98962 0.0
H861 H 0.27847 0.70613 0.96877 0.0
H862 H 0.40234 0.63543 0.92856 0.0
H863 H 0.36649 0.66174 0.96066 0.0
H864 H 0.37363 0.75043 0.97019 0.0
C865 C 0.27536 0.7858 0.002 0.0
C866 C 0.29917 0.71594 0.96992 0.0
C867 C 0.25214 0.79946 0.01719 0.0
C868 C 0.39884 0.65667 0.92416 0.0
C869 C 0.37839 0.67173 0.94263 0.0
C870 C 0.35291 0.74064 0.96992 0.0
C871 C 0.27837 0.75717 0.00225 0.0
C872 C 0.30287 0.74243 0.98578 0.0
C873 C 0.37292 0.69921 0.93743 0.0
C874 C 0.3491 0.71411 0.9545 0.0
H875 H 0.21849 0.7443 0.04475 0.0
H876 H 0.25936 0.72066 0.01945 0.0
H877 H 0.33388 0.77475 0.99799 0.0
H878 H 0.42034 0.70639 0.87672 0.0
H879 H 0.38514 0.73288 0.90979 0.0
loop_
_geom_bond_atom_site_label_1
_geom_bond_atom_site_label_2
_geom_bond_distance
_geom_bond_site_symmetry_2
_ccdc_geom_bond_type
Fe0 O2 1.918 . S
Fe0 O5 1.997 . S
Fe0 O6 2.002 . S
Fe0 O11 1.976 . S
Fe0 O14 1.996 . S
Fe1 O2 1.918 . S
Fe1 O9 1.997 . S
Fe1 O12 1.996 . S
Fe1 O16 1.976 . S
Fe1 O19 2.002 . S
O2 Fe0 1.918 . S
O2 Fe1 1.918 . S
O2 Fe3 1.918 . S
Fe3 O2 1.918 . S
Fe3 O4 2.002 . S
Fe3 O13 1.976 . S
Fe3 O17 1.996 . S
Fe3 O20 1.997 . S
O4 Fe3 2.002 . S
O4 C21 1.295 . S
O5 Fe0 1.997 . S
O5 C21 1.235 . S
O6 Fe0 2.002 . S
O6 C7 1.295 . S
C7 O6 1.295 . S
C7 O9 1.235 . S
C8 O13 1.287 . S
C8 O14 1.255 . S
O9 Fe1 1.997 . S
O9 C7 1.235 . S
C10 O16 1.273 1_556 S
C10 O17 1.238 1_556 S
O11 Fe0 1.976 . S
O11 C18 1.287 . S
O12 Fe1 1.996 . S
O12 C18 1.255 . S
O13 Fe3 1.976 . S
O13 C8 1.287 . S
O14 Fe0 1.996 . S
O14 C8 1.255 . S
C15 O19 1.295 . S
C15 O20 1.235 . S
O16 Fe1 1.976 . S
O16 C10 1.273 1_554 S
O17 Fe3 1.996 . S
O17 C10 1.238 1_554 S
C18 O11 1.287 . S
C18 O12 1.255 . S
O19 Fe1 2.002 . S
O19 C15 1.295 . S
O20 Fe3 1.997 . S
O20 C15 1.235 . S
C21 O4 1.295 . S
C21 O5 1.235 . S
Fe22 O24 1.918 . S
Fe22 O27 1.997 . S
Fe22 O28 2.002 . S
Fe22 O33 1.976 . S
Fe22 O36 1.996 . S
Fe23 O24 1.918 . S
Fe23 O31 1.997 . S
Fe23 O34 1.996 . S
Fe23 O38 1.976 . S
Fe23 O41 2.002 . S
O24 Fe22 1.918 . S
O24 Fe23 1.918 . S
O24 Fe25 1.918 . S
Fe25 O24 1.918 . S
Fe25 O26 2.002 . S
Fe25 O35 1.976 . S
Fe25 O39 1.996 . S
Fe25 O42 1.997 . S
O26 Fe25 2.002 . S
O26 C43 1.295 . S
O27 Fe22 1.997 . S
O27 C43 1.235 . S
O28 Fe22 2.002 . S
O28 C29 1.295 . S
C29 O28 1.295 . S
C29 O31 1.235 . S
C30 O35 1.287 . S
C30 O36 1.255 . S
O31 Fe23 1.997 . S
O31 C29 1.235 . S
C32 O38 1.287 . S
C32 O39 1.255 . S
O33 Fe22 1.976 . S
O33 C40 1.287 . S
O34 Fe23 1.996 . S
O34 C40 1.255 . S
O35 Fe25 1.976 . S
O35 C30 1.287 . S
O36 Fe22 1.996 . S
O36 C30 1.255 . S
C37 O41 1.295 . S
C37 O42 1.235 . S
O38 Fe23 1.976 . S
O38 C32 1.287 . S
O39 Fe25 1.996 . S
O39 C32 1.255 . S
C40 O33 1.287 . S
C40 O34 1.255 . S
O41 Fe23 2.002 . S
O41 C37 1.295 . S
O42 Fe25 1.997 . S
O42 C37 1.235 . S
C43 O26 1.295 . S
C43 O27 1.235 . S
Fe44 O46 1.918 . S
Fe44 O49 1.997 1_554 S
Fe44 O50 2.002 . S
Fe44 O55 1.976 . S
Fe44 O58 1.996 . S
Fe45 O46 1.918 . S
Fe45 O53 2.008 . S
Fe45 O56 1.996 . S
Fe45 O60 1.976 . S
Fe45 O63 2.002 1_554 S
O46 Fe44 1.918 . S
O46 Fe45 1.918 . S
O46 Fe47 1.918 1_554 S
Fe47 O46 1.918 1_556 S
Fe47 O48 2.002 . S
Fe47 O57 1.976 1_556 S
Fe47 O61 1.996 1_556 S
Fe47 O64 1.997 . S
O48 Fe47 2.002 . S
O48 C65 1.295 . S
O49 Fe44 1.997 1_556 S
O49 C65 1.235 . S
O50 Fe44 2.002 . S
O50 C51 1.295 1_554 S
C51 O50 1.295 1_556 S
C51 O53 1.228 1_556 S
C52 O57 1.287 . S
C52 O58 1.255 . S
O53 Fe45 2.008 . S
O53 C51 1.228 1_554 S
C54 O60 1.287 . S
C54 O61 1.255 . S
O55 Fe44 1.976 . S
O55 C62 1.287 . S
O56 Fe45 1.996 . S
O56 C62 1.255 . S
O57 Fe47 1.976 1_554 S
O57 C52 1.287 . S
O58 Fe44 1.996 . S
O58 C52 1.255 . S
C59 O63 1.295 . S
C59 O64 1.235 . S
O60 Fe45 1.976 . S
O60 C54 1.287 . S
O61 Fe47 1.996 1_554 S
O61 C54 1.255 . S
C62 O55 1.287 . S
C62 O56 1.255 . S
O63 Fe45 2.002 1_556 S
O63 C59 1.295 . S
O64 Fe47 1.997 . S
O64 C59 1.235 . S
C65 O48 1.295 . S
C65 O49 1.235 . S
Fe66 O68 1.918 . S
Fe66 O71 1.997 . S
Fe66 O72 2.002 . S
Fe66 O77 1.976 . S
Fe66 O80 1.996 . S
Fe67 O68 1.918 . S
Fe67 O75 1.997 . S
Fe67 O78 1.996 . S
Fe67 O82 1.976 . S
Fe67 O85 2.002 . S
O68 Fe66 1.918 . S
O68 Fe67 1.918 . S
O68 Fe69 1.918 . S
Fe69 O68 1.918 . S
Fe69 O70 2.002 . S
Fe69 O79 1.976 . S
Fe69 O83 1.996 . S
Fe69 O86 1.997 . S
O70 Fe69 2.002 . S
O70 C87 1.295 . S
O71 Fe66 1.997 . S
O71 C87 1.235 . S
O72 Fe66 2.002 . S
O72 C73 1.295 . S
C73 O72 1.295 . S
C73 O75 1.235 . S
C74 O79 1.287 . S
C74 O80 1.255 . S
O75 Fe67 1.997 . S
O75 C73 1.235 . S
C76 O82 1.287 . S
C76 O83 1.255 . S
O77 Fe66 1.976 . S
O77 C84 1.287 . S
O78 Fe67 1.996 . S
O78 C84 1.255 . S
O79 Fe69 1.976 . S
O79 C74 1.287 . S
O80 Fe66 1.996 . S
O80 C74 1.255 . S
C81 O85 1.295 . S
C81 O86 1.235 . S
O82 Fe67 1.976 . S
O82 C76 1.287 . S
O83 Fe69 1.996 . S
O83 C76 1.255 . S
C84 O77 1.287 . S
C84 O78 1.255 . S
O85 Fe67 2.002 . S
O85 C81 1.295 . S
O86 Fe69 1.997 . S
O86 C81 1.235 . S
C87 O70 1.295 . S
C87 O71 1.235 . S
H88 C91 0.931 . S
H89 C94 0.928 . S
H90 C96 0.930 . S
C91 H88 0.931 . S
C91 C92 1.413 . S
C91 C93 1.360 . S
C92 C91 1.413 . S
C92 C96 1.429 . S
C93 C91 1.360 . S
C93 C94 1.372 . S
C94 H89 0.928 . S
C94 C93 1.372 . S
C94 C95 1.404 . S
C95 C94 1.404 . S
C95 C96 1.391 . S
C96 H90 0.930 . S
C96 C92 1.429 . S
C96 C95 1.391 . S
H97 C100 0.931 . S
H98 C103 0.928 . S
H99 C105 0.930 . S
C100 H97 0.931 . S
C100 C101 1.413 . S
C100 C102 1.360 . S
C101 C100 1.413 . S
C101 C105 1.429 . S
C102 C100 1.360 . S
C102 C103 1.372 . S
C103 H98 0.928 . S
C103 C102 1.372 . S
C103 C104 1.404 . S
C104 C103 1.404 . S
C104 C105 1.391 . S
C105 H99 0.930 . S
C105 C101 1.429 . S
C105 C104 1.391 . S
H106 C109 0.931 . S
H107 C112 0.928 . S
H108 C114 0.930 . S
C109 H106 0.931 . S
C109 C110 1.413 . S
C109 C111 1.360 . S
C110 C109 1.413 . S
C110 C114 1.429 . S
C111 C109 1.360 . S
C111 C112 1.372 . S
C112 H107 0.928 . S
C112 C111 1.372 . S
C112 C113 1.404 . S
C113 C112 1.404 . S
C113 C114 1.391 . S
C114 H108 0.930 . S
C114 C110 1.429 . S
C114 C113 1.391 . S
H115 C118 0.931 . S
H116 C121 0.928 . S
H117 C123 0.930 . S
C118 H115 0.931 . S
C118 C119 1.413 . S
C118 C120 1.360 . S
C119 C118 1.413 . S
C119 C123 1.429 . S
C120 C118 1.360 . S
C120 C121 1.372 . S
C121 H116 0.928 . S
C121 C120 1.372 . S
C121 C122 1.404 . S
C122 C121 1.404 . S
C122 C123 1.391 . S
C123 H117 0.930 . S
C123 C119 1.429 . S
C123 C122 1.391 . S
H124 C127 0.931 . S
H125 C130 0.928 . S
H126 C132 0.930 . S
C127 H124 0.931 . S
C127 C128 1.413 . S
C127 C129 1.360 . S
C128 C127 1.413 . S
C128 C132 1.429 . S
C129 C127 1.360 . S
C129 C130 1.372 . S
C130 H125 0.928 . S
C130 C129 1.372 . S
C130 C131 1.404 . S
C131 C130 1.404 . S
C131 C132 1.391 . S
C132 H126 0.930 . S
C132 C128 1.429 . S
C132 C131 1.391 . S
H133 C136 0.931 . S
H134 C139 0.928 . S
H135 C141 0.930 . S
C136 H133 0.931 . S
C136 C137 1.413 . S
C136 C138 1.360 . S
C137 C136 1.413 . S
C137 C141 1.429 . S
C138 C136 1.360 . S
C138 C139 1.372 . S
C139 H134 0.928 . S
C139 C138 1.372 . S
C139 C140 1.404 . S
C140 C139 1.404 . S
C140 C141 1.391 . S
C141 H135 0.930 . S
C141 C137 1.429 . S
C141 C140 1.391 . S
H142 C145 0.931 . S
H143 C148 0.928 . S
H144 C150 0.930 . S
C145 H142 0.931 . S
C145 C146 1.413 . S
C145 C147 1.360 . S
C146 C145 1.413 . S
C146 C150 1.429 . S
C147 C145 1.360 . S
C147 C148 1.372 . S
C148 H143 0.928 . S
C148 C147 1.372 . S
C148 C149 1.404 . S
C149 C148 1.404 . S
C149 C150 1.391 . S
C150 H144 0.930 . S
C150 C146 1.429 . S
C150 C149 1.391 . S
H151 C154 0.931 . S
H152 C157 0.928 . S
H153 C159 0.930 . S
C154 H151 0.931 . S
C154 C155 1.413 . S
C154 C156 1.360 . S
C155 C154 1.413 . S
C155 C159 1.429 . S
C156 C154 1.360 . S
C156 C157 1.372 . S
C157 H152 0.928 . S
C157 C156 1.372 . S
C157 C158 1.404 . S
C158 C157 1.404 . S
C158 C159 1.391 . S
C159 H153 0.930 . S
C159 C155 1.429 . S
C159 C158 1.391 . S
C160 C161 1.349 . S
C160 C162 1.327 . S
C160 H185 0.950 . S
C161 C160 1.349 . S
C161 C177 1.349 . S
C162 C160 1.327 . S
C162 C181 1.429 . S
C162 H186 0.950 . S
C163 C180 1.574 1_565 S
C163 C182 1.368 . S
C163 H187 0.949 . S
H164 C168 0.949 . S
C165 C166 1.349 . S
C165 C167 1.327 . S
C165 H188 0.950 . S
C166 C165 1.349 . S
C166 C178 1.349 . S
C167 C165 1.327 . S
C167 C183 1.429 . S
C167 H189 0.950 . S
C168 H164 0.949 . S
C168 C176 1.574 1_545 S
C168 C184 1.368 . S
H169 C177 0.950 . S
H170 C175 0.950 . S
H171 C176 0.949 . S
H172 C178 0.950 . S
H173 C179 0.950 . S
H174 C180 0.949 . S
C175 H170 0.950 . S
C175 C177 1.327 . S
C175 C181 1.429 . S
C176 C168 1.574 1_565 S
C176 H171 0.949 . S
C176 C182 1.368 . S
C177 C161 1.349 . S
C177 H169 0.950 . S
C177 C175 1.327 . S
C178 C166 1.349 . S
C178 H172 0.950 . S
C178 C179 1.327 . S
C179 H173 0.950 . S
C179 C178 1.327 . S
C179 C183 1.429 . S
C180 C163 1.574 1_545 S
C180 H174 0.949 . S
C180 C184 1.368 . S
C181 C162 1.429 . S
C181 C175 1.429 . S
C181 C182 1.523 . S
C182 C163 1.368 . S
C182 C176 1.368 . S
C182 C181 1.523 . S
C183 C167 1.429 . S
C183 C179 1.429 . S
C183 C184 1.523 . S
C184 C168 1.368 . S
C184 C180 1.368 . S
C184 C183 1.523 . S
H185 C160 0.950 . S
H186 C162 0.950 . S
H187 C163 0.949 . S
H188 C165 0.950 . S
H189 C167 0.950 . S
C190 C191 1.349 . S
C190 C192 1.327 . S
C190 H215 0.950 . S
C191 C190 1.349 . S
C191 C207 1.349 . S
C192 C190 1.327 . S
C192 C211 1.429 . S
C192 H216 0.950 . S
C193 C210 1.574 . S
C193 C212 1.368 . S
C193 H217 0.949 . S
H194 C198 0.949 . S
C195 C196 1.349 . S
C195 C197 1.327 . S
C195 H218 0.950 . S
C196 C195 1.349 . S
C196 C208 1.349 . S
C197 C195 1.327 . S
C197 C213 1.429 . S
C197 H219 0.950 . S
C198 H194 0.949 . S
C198 C206 1.574 . S
C198 C214 1.368 . S
H199 C207 0.950 . S
H200 C205 0.950 . S
H201 C206 0.949 . S
H202 C208 0.950 . S
H203 C209 0.950 . S
H204 C210 0.949 . S
C205 H200 0.950 . S
C205 C207 1.327 . S
C205 C211 1.429 . S
C206 C198 1.574 . S
C206 H201 0.949 . S
C206 C212 1.368 . S
C207 C191 1.349 . S
C207 H199 0.950 . S
C207 C205 1.327 . S
C208 C196 1.349 . S
C208 H202 0.950 . S
C208 C209 1.327 . S
C209 H203 0.950 . S
C209 C208 1.327 . S
C209 C213 1.429 . S
C210 C193 1.574 . S
C210 H204 0.949 . S
C210 C214 1.368 . S
C211 C192 1.429 . S
C211 C205 1.429 . S
C211 C212 1.523 . S
C212 C193 1.368 . S
C212 C206 1.368 . S
C212 C211 1.523 . S
C213 C197 1.429 . S
C213 C209 1.429 . S
C213 C214 1.523 . S
C214 C198 1.368 . S
C214 C210 1.368 . S
C214 C213 1.523 . S
H215 C190 0.950 . S
H216 C192 0.950 . S
H217 C193 0.949 . S
H218 C195 0.950 . S
H219 C197 0.950 . S
C220 C221 1.349 . S
C220 C222 1.327 . S
C220 H245 0.950 . S
C221 C220 1.349 . S
C221 C237 1.349 . S
C222 C220 1.327 . S
C222 C241 1.429 . S
C222 H246 0.950 . S
C223 C240 1.574 . S
C223 C242 1.368 1_565 S
C223 H247 0.949 . S
H224 C228 0.949 . S
C225 C226 1.349 . S
C225 C227 1.327 . S
C225 H248 0.950 . S
C226 C225 1.349 . S
C226 C238 1.349 . S
C227 C225 1.327 . S
C227 C243 1.429 . S
C227 H249 0.950 . S
C228 H224 0.949 . S
C228 C236 1.574 1_565 S
C228 C244 1.368 . S
H229 C237 0.950 . S
H230 C235 0.950 . S
H231 C236 0.949 . S
H232 C238 0.950 . S
H233 C239 0.950 . S
H234 C240 0.949 . S
C235 H230 0.950 . S
C235 C237 1.327 . S
C235 C241 1.429 . S
C236 C228 1.574 1_545 S
C236 H231 0.949 . S
C236 C242 1.368 . S
C237 C221 1.349 . S
C237 H229 0.950 . S
C237 C235 1.327 . S
C238 C226 1.349 . S
C238 H232 0.950 . S
C238 C239 1.327 . S
C239 H233 0.950 . S
C239 C238 1.327 . S
C239 C243 1.429 . S
C240 C223 1.574 . S
C240 H234 0.949 . S
C240 C244 1.368 . S
C241 C222 1.429 . S
C241 C235 1.429 . S
C241 C242 1.523 . S
C242 C223 1.368 1_545 S
C242 C236 1.368 . S
C242 C241 1.523 . S
C243 C227 1.429 . S
C243 C239 1.429 . S
C243 C244 1.523 . S
C244 C228 1.368 . S
C244 C240 1.368 . S
C244 C243 1.523 . S
H245 C220 0.950 . S
H246 C222 0.950 . S
H247 C223 0.949 . S
H248 C225 0.950 . S
H249 C227 0.950 . S
C250 C251 1.349 . S
C250 C252 1.327 . S
C250 H275 0.950 . S
C251 C250 1.349 . S
C251 C267 1.349 . S
C252 C250 1.327 . S
C252 C271 1.429 . S
C252 H276 0.950 . S
C253 C270 1.574 . S
C253 C272 1.368 . S
C253 H277 0.949 . S
H254 C258 0.949 . S
C255 C256 1.349 . S
C255 C257 1.327 . S
C255 H278 0.950 . S
C256 C255 1.349 . S
C256 C268 1.349 . S
C257 C255 1.327 . S
C257 C273 1.429 . S
C257 H279 0.950 . S
C258 H254 0.949 . S
C258 C266 1.574 . S
C258 C274 1.368 . S
H259 C267 0.950 . S
H260 C265 0.950 . S
H261 C266 0.949 . S
H262 C268 0.950 . S
H263 C269 0.950 . S
H264 C270 0.949 . S
C265 H260 0.950 . S
C265 C267 1.327 . S
C265 C271 1.429 . S
C266 C258 1.574 . S
C266 H261 0.949 . S
C266 C272 1.368 . S
C267 C251 1.349 . S
C267 H259 0.950 . S
C267 C265 1.327 . S
C268 C256 1.349 . S
C268 H262 0.950 . S
C268 C269 1.327 . S
C269 H263 0.950 . S
C269 C268 1.327 . S
C269 C273 1.429 . S
C270 C253 1.574 . S
C270 H264 0.949 . S
C270 C274 1.368 . S
C271 C252 1.429 . S
C271 C265 1.429 . S
C271 C272 1.523 . S
C272 C253 1.368 . S
C272 C266 1.368 . S
C272 C271 1.523 . S
C273 C257 1.429 . S
C273 C269 1.429 . S
C273 C274 1.523 . S
C274 C258 1.368 . S
C274 C270 1.368 . S
C274 C273 1.523 . S
H275 C250 0.950 . S
H276 C252 0.950 . S
H277 C253 0.949 . S
H278 C255 0.950 . S
H279 C257 0.950 . S
C280 C281 1.349 . S
C280 C282 1.327 . S
C280 H305 0.950 . S
C281 C280 1.349 . S
C281 C297 1.349 . S
C282 C280 1.327 . S
C282 C301 1.429 . S
C282 H306 0.950 . S
C283 C300 1.574 . S
C283 C302 1.368 . S
C283 H307 0.949 . S
H284 C288 0.949 . S
C285 C286 1.349 . S
C285 C287 1.327 . S
C285 H308 0.950 . S
C286 C285 1.349 . S
C286 C298 1.349 . S
C287 C285 1.327 . S
C287 C303 1.429 . S
C287 H309 0.950 . S
C288 H284 0.949 . S
C288 C296 1.574 . S
C288 C304 1.368 . S
H289 C297 0.950 . S
H290 C295 0.950 . S
H291 C296 0.949 . S
H292 C298 0.950 . S
H293 C299 0.950 . S
H294 C300 0.949 . S
C295 H290 0.950 . S
C295 C297 1.327 . S
C295 C301 1.429 . S
C296 C288 1.574 . S
C296 H291 0.949 . S
C296 C302 1.368 . S
C297 C281 1.349 . S
C297 H289 0.950 . S
C297 C295 1.327 . S
C298 C286 1.349 . S
C298 H292 0.950 . S
C298 C299 1.327 . S
C299 H293 0.950 . S
C299 C298 1.327 . S
C299 C303 1.429 . S
C300 C283 1.574 . S
C300 H294 0.949 . S
C300 C304 1.368 . S
C301 C282 1.429 . S
C301 C295 1.429 . S
C301 C302 1.523 . S
C302 C283 1.368 . S
C302 C296 1.368 . S
C302 C301 1.523 . S
C303 C287 1.429 . S
C303 C299 1.429 . S
C303 C304 1.523 . S
C304 C288 1.368 . S
C304 C300 1.368 . S
C304 C303 1.523 . S
H305 C280 0.950 . S
H306 C282 0.950 . S
H307 C283 0.949 . S
H308 C285 0.950 . S
H309 C287 0.950 . S
C310 C311 1.349 . S
C310 C312 1.327 . S
C310 H335 0.950 1_556 S
C311 C310 1.349 . S
C311 C327 1.349 . S
C312 C310 1.327 . S
C312 C331 1.429 . S
C312 H336 0.950 1_556 S
C313 C330 1.574 . S
C313 C332 1.368 . S
C313 H337 0.949 . S
H314 C318 0.949 . S
C315 C316 1.349 . S
C315 C317 1.327 . S
C315 H338 0.950 . S
C316 C315 1.349 . S
C316 C328 1.349 . S
C317 C315 1.327 . S
C317 C333 1.429 . S
C317 H339 0.950 . S
C318 H314 0.949 . S
C318 C326 1.574 . S
C318 C334 1.368 . S
H319 C327 0.950 . S
H320 C325 0.950 . S
H321 C326 0.949 . S
H322 C328 0.950 . S
H323 C329 0.950 . S
H324 C330 0.949 . S
C325 H320 0.950 . S
C325 C327 1.327 . S
C325 C331 1.429 . S
C326 C318 1.574 . S
C326 H321 0.949 . S
C326 C332 1.368 . S
C327 C311 1.349 . S
C327 H319 0.950 . S
C327 C325 1.327 . S
C328 C316 1.349 . S
C328 H322 0.950 . S
C328 C329 1.327 . S
C329 H323 0.950 . S
C329 C328 1.327 . S
C329 C333 1.429 . S
C330 C313 1.574 . S
C330 H324 0.949 . S
C330 C334 1.368 . S
C331 C312 1.429 . S
C331 C325 1.429 . S
C331 C332 1.523 1_655 S
C332 C313 1.368 . S
C332 C326 1.368 . S
C332 C331 1.523 1_455 S
C333 C317 1.429 . S
C333 C329 1.429 . S
C333 C334 1.523 . S
C334 C318 1.368 . S
C334 C330 1.368 . S
C334 C333 1.523 . S
H335 C310 0.950 1_554 S
H336 C312 0.950 1_554 S
H337 C313 0.949 . S
H338 C315 0.950 . S
H339 C317 0.950 . S
C340 C341 1.349 . S
C340 C342 1.327 . S
C340 H365 0.950 . S
C341 C340 1.349 . S
C341 C357 1.349 . S
C342 C340 1.327 . S
C342 C361 1.429 . S
C342 H366 0.950 . S
C343 C360 1.574 . S
C343 C362 1.368 . S
C343 H367 0.949 . S
H344 C348 0.949 . S
C345 C346 1.349 . S
C345 C347 1.327 . S
C345 H368 0.950 . S
C346 C345 1.349 . S
C346 C358 1.349 . S
C347 C345 1.327 . S
C347 C363 1.429 . S
C347 H369 0.950 . S
C348 H344 0.949 . S
C348 C356 1.574 . S
C348 C364 1.368 . S
H349 C357 0.950 . S
H350 C355 0.950 . S
H351 C356 0.949 . S
H352 C358 0.950 . S
H353 C359 0.950 . S
H354 C360 0.949 . S
C355 H350 0.950 . S
C355 C357 1.327 . S
C355 C361 1.429 . S
C356 C348 1.574 . S
C356 H351 0.949 . S
C356 C362 1.368 . S
C357 C341 1.349 . S
C357 H349 0.950 . S
C357 C355 1.327 . S
C358 C346 1.349 . S
C358 H352 0.950 . S
C358 C359 1.327 . S
C359 H353 0.950 . S
C359 C358 1.327 . S
C359 C363 1.429 . S
C360 C343 1.574 . S
C360 H354 0.949 . S
C360 C364 1.368 . S
C361 C342 1.429 . S
C361 C355 1.429 . S
C361 C362 1.523 . S
C362 C343 1.368 . S
C362 C356 1.368 . S
C362 C361 1.523 . S
C363 C347 1.429 . S
C363 C359 1.429 . S
C363 C364 1.523 . S
C364 C348 1.368 . S
C364 C360 1.368 . S
C364 C363 1.523 . S
H365 C340 0.950 . S
H366 C342 0.950 . S
H367 C343 0.949 . S
H368 C345 0.950 . S
H369 C347 0.950 . S
C370 C371 1.349 . S
C370 C372 1.327 . S
C370 H395 0.950 . S
C371 C370 1.349 . S
C371 C387 1.349 . S
C372 C370 1.327 . S
C372 C391 1.429 . S
C372 H396 0.950 . S
C373 C390 1.574 . S
C373 C392 1.368 . S
C373 H397 0.949 . S
H374 C378 0.949 . S
C375 C376 1.349 . S
C375 C377 1.327 . S
C375 H398 0.950 . S
C376 C375 1.349 . S
C376 C388 1.349 . S
C377 C375 1.327 . S
C377 C393 1.429 1_655 S
C377 H399 0.950 . S
C378 H374 0.949 . S
C378 C386 1.574 . S
C378 C394 1.368 . S
H379 C387 0.950 . S
H380 C385 0.950 . S
H381 C386 0.949 . S
H382 C388 0.950 . S
H383 C389 0.950 . S
H384 C390 0.949 1_655 S
C385 H380 0.950 . S
C385 C387 1.327 . S
C385 C391 1.429 . S
C386 C378 1.574 . S
C386 H381 0.949 . S
C386 C392 1.368 . S
C387 C371 1.349 . S
C387 H379 0.950 . S
C387 C385 1.327 . S
C388 C376 1.349 . S
C388 H382 0.950 . S
C388 C389 1.327 1_655 S
C389 H383 0.950 . S
C389 C388 1.327 1_455 S
C389 C393 1.429 . S
C390 C373 1.574 . S
C390 H384 0.949 1_455 S
C390 C394 1.368 . S
C391 C372 1.429 . S
C391 C385 1.429 . S
C391 C392 1.523 . S
C392 C373 1.368 . S
C392 C386 1.368 . S
C392 C391 1.523 . S
C393 C377 1.429 1_455 S
C393 C389 1.429 . S
C393 C394 1.523 . S
C394 C378 1.368 . S
C394 C390 1.368 . S
C394 C393 1.523 . S
H395 C370 0.950 . S
H396 C372 0.950 . S
H397 C373 0.949 . S
H398 C375 0.950 . S
H399 C377 0.950 . S
C400 C401 1.349 . S
C400 C402 1.327 . S
C400 H425 0.950 . S
C401 C400 1.349 . S
C401 C417 1.349 . S
C402 C400 1.327 . S
C402 C421 1.429 . S
C402 H426 0.950 . S
C403 C420 1.574 . S
C403 C422 1.368 . S
C403 H427 0.949 . S
H404 C408 0.949 . S
C405 C406 1.349 . S
C405 C407 1.327 . S
C405 H428 0.950 . S
C406 C405 1.349 . S
C406 C418 1.349 . S
C407 C405 1.327 . S
C407 C423 1.429 . S
C407 H429 0.950 . S
C408 H404 0.949 . S
C408 C416 1.574 1_565 S
C408 C424 1.368 . S
H409 C417 0.950 . S
H410 C415 0.950 . S
H411 C416 0.953 . S
H412 C418 0.950 . S
H413 C419 0.950 . S
H414 C420 0.949 . S
C415 H410 0.950 . S
C415 C417 1.327 . S
C415 C421 1.429 . S
C416 C408 1.574 1_545 S
C416 H411 0.953 . S
C416 C422 1.368 . S
C417 C401 1.349 . S
C417 H409 0.950 . S
C417 C415 1.327 . S
C418 C406 1.349 . S
C418 H412 0.950 . S
C418 C419 1.327 . S
C419 H413 0.950 . S
C419 C418 1.327 . S
C419 C423 1.429 . S
C420 C403 1.574 . S
C420 H414 0.949 . S
C420 C424 1.368 1_545 S
C421 C402 1.429 . S
C421 C415 1.429 . S
C421 C422 1.523 . S
C422 C403 1.368 . S
C422 C416 1.368 . S
C422 C421 1.523 . S
C423 C407 1.429 . S
C423 C419 1.429 . S
C423 C424 1.523 . S
C424 C408 1.368 . S
C424 C420 1.368 1_565 S
C424 C423 1.523 . S
H425 C400 0.950 . S
H426 C402 0.950 . S
H427 C403 0.949 . S
H428 C405 0.950 . S
H429 C407 0.950 . S
C430 C431 1.349 . S
C430 C432 1.327 . S
C430 H455 0.950 . S
C431 C430 1.349 . S
C431 C447 1.349 . S
C432 C430 1.327 . S
C432 C451 1.429 . S
C432 H456 0.950 . S
C433 C450 1.574 . S
C433 C452 1.368 . S
C433 H457 0.949 . S
H434 C438 0.949 . S
C435 C436 1.349 . S
C435 C437 1.327 . S
C435 H458 0.950 . S
C436 C435 1.349 . S
C436 C448 1.349 . S
C437 C435 1.327 . S
C437 C453 1.429 . S
C437 H459 0.950 . S
C438 H434 0.949 . S
C438 C446 1.574 . S
C438 C454 1.368 . S
H439 C447 0.950 . S
H440 C445 0.950 . S
H441 C446 0.949 . S
H442 C448 0.950 . S
H443 C449 0.950 . S
H444 C450 0.949 . S
C445 H440 0.950 . S
C445 C447 1.327 . S
C445 C451 1.429 . S
C446 C438 1.574 . S
C446 H441 0.949 . S
C446 C452 1.368 . S
C447 C431 1.349 . S
C447 H439 0.950 . S
C447 C445 1.327 . S
C448 C436 1.349 . S
C448 H442 0.950 . S
C448 C449 1.327 . S
C449 H443 0.950 . S
C449 C448 1.327 . S
C449 C453 1.429 . S
C450 C433 1.574 . S
C450 H444 0.949 . S
C450 C454 1.368 . S
C451 C432 1.429 . S
C451 C445 1.429 . S
C451 C452 1.523 . S
C452 C433 1.368 . S
C452 C446 1.368 . S
C452 C451 1.523 . S
C453 C437 1.429 . S
C453 C449 1.429 . S
C453 C454 1.523 . S
C454 C438 1.368 . S
C454 C450 1.368 . S
C454 C453 1.523 . S
H455 C430 0.950 . S
H456 C432 0.950 . S
H457 C433 0.949 . S
H458 C435 0.950 . S
H459 C437 0.950 . S
C460 C461 1.349 . S
C460 C462 1.327 . S
C460 H485 0.950 . S
C461 C460 1.349 . S
C461 C477 1.349 1_554 S
C462 C460 1.327 . S
C462 C481 1.429 . S
C462 H486 0.950 . S
C463 C480 1.574 1_565 S
C463 C482 1.368 . S
C463 H487 0.949 . S
H464 C468 0.949 . S
C465 C466 1.349 . S
C465 C467 1.327 . S
C465 H488 0.950 . S
C466 C465 1.349 . S
C466 C478 1.349 . S
C467 C465 1.327 . S
C467 C483 1.429 . S
C467 H489 0.950 . S
C468 H464 0.949 . S
C468 C476 1.574 . S
C468 C484 1.368 1_554 S
H469 C477 0.950 . S
H470 C475 0.950 . S
H471 C476 0.949 . S
H472 C478 0.950 . S
H473 C479 0.950 1_554 S
H474 C480 0.949 . S
C475 H470 0.950 . S
C475 C477 1.327 . S
C475 C481 1.429 1_556 S
C476 C468 1.574 . S
C476 H471 0.949 . S
C476 C482 1.368 1_544 S
C477 C461 1.349 1_556 S
C477 H469 0.950 . S
C477 C475 1.327 . S
C478 C466 1.349 . S
C478 H472 0.950 . S
C478 C479 1.327 . S
C479 H473 0.950 1_556 S
C479 C478 1.327 . S
C479 C483 1.429 . S
C480 C463 1.574 1_545 S
C480 H474 0.949 . S
C480 C484 1.368 . S
C481 C462 1.429 . S
C481 C475 1.429 1_554 S
C481 C482 1.523 1_554 S
C482 C463 1.368 . S
C482 C476 1.368 1_566 S
C482 C481 1.523 1_556 S
C483 C467 1.429 . S
C483 C479 1.429 . S
C483 C484 1.523 . S
C484 C468 1.368 1_556 S
C484 C480 1.368 . S
C484 C483 1.523 . S
H485 C460 0.950 . S
H486 C462 0.950 . S
H487 C463 0.949 . S
H488 C465 0.950 . S
H489 C467 0.950 . S
C490 C491 1.349 . S
C490 C492 1.327 . S
C490 H515 0.950 . S
C491 C490 1.349 . S
C491 C507 1.349 . S
C492 C490 1.327 . S
C492 C511 1.429 . S
C492 H516 0.950 . S
C493 C510 1.574 . S
C493 C512 1.368 . S
C493 H517 0.949 . S
H494 C498 0.949 . S
C495 C496 1.349 . S
C495 C497 1.327 . S
C495 H518 0.950 . S
C496 C495 1.349 . S
C496 C508 1.349 . S
C497 C495 1.327 . S
C497 C513 1.429 . S
C497 H519 0.950 . S
C498 H494 0.949 . S
C498 C506 1.574 . S
C498 C514 1.368 . S
H499 C507 0.950 . S
H500 C505 0.950 . S
H501 C506 0.949 . S
H502 C508 0.950 . S
H503 C509 0.950 . S
H504 C510 0.949 . S
C505 H500 0.950 . S
C505 C507 1.327 . S
C505 C511 1.429 . S
C506 C498 1.574 . S
C506 H501 0.949 . S
C506 C512 1.368 . S
C507 C491 1.349 . S
C507 H499 0.950 . S
C507 C505 1.327 . S
C508 C496 1.349 . S
C508 H502 0.950 . S
C508 C509 1.327 . S
C509 H503 0.950 . S
C509 C508 1.327 . S
C509 C513 1.429 . S
C510 C493 1.574 . S
C510 H504 0.949 . S
C510 C514 1.368 . S
C511 C492 1.429 . S
C511 C505 1.429 . S
C511 C512 1.523 . S
C512 C493 1.368 . S
C512 C506 1.368 . S
C512 C511 1.523 . S
C513 C497 1.429 . S
C513 C509 1.429 . S
C513 C514 1.523 . S
C514 C498 1.368 . S
C514 C510 1.368 . S
C514 C513 1.523 . S
H515 C490 0.950 . S
H516 C492 0.950 . S
H517 C493 0.949 . S
H518 C495 0.950 . S
H519 C497 0.950 . S
C520 C521 1.349 . S
C520 C522 1.327 . S
C520 H545 0.950 . S
C521 C520 1.349 . S
C521 C537 1.349 . S
C522 C520 1.327 . S
C522 C541 1.429 . S
C522 H546 0.950 . S
C523 C540 1.574 . S
C523 C542 1.368 . S
C523 H547 0.949 . S
H524 C528 0.949 . S
C525 C526 1.349 . S
C525 C527 1.327 . S
C525 H548 0.950 . S
C526 C525 1.349 . S
C526 C538 1.349 . S
C527 C525 1.327 . S
C527 C543 1.429 . S
C527 H549 0.950 . S
C528 H524 0.949 . S
C528 C536 1.574 . S
C528 C544 1.368 . S
H529 C537 0.950 . S
H530 C535 0.950 . S
H531 C536 0.949 . S
H532 C538 0.950 . S
H533 C539 0.950 . S
H534 C540 0.949 . S
C535 H530 0.950 . S
C535 C537 1.327 . S
C535 C541 1.429 . S
C536 C528 1.574 . S
C536 H531 0.949 . S
C536 C542 1.368 . S
C537 C521 1.349 . S
C537 H529 0.950 . S
C537 C535 1.327 . S
C538 C526 1.349 . S
C538 H532 0.950 . S
C538 C539 1.327 . S
C539 H533 0.950 . S
C539 C538 1.327 . S
C539 C543 1.429 . S
C540 C523 1.574 . S
C540 H534 0.949 . S
C540 C544 1.368 . S
C541 C522 1.429 . S
C541 C535 1.429 . S
C541 C542 1.523 . S
C542 C523 1.368 . S
C542 C536 1.368 . S
C542 C541 1.523 . S
C543 C527 1.429 . S
C543 C539 1.429 . S
C543 C544 1.523 . S
C544 C528 1.368 . S
C544 C540 1.368 . S
C544 C543 1.523 . S
H545 C520 0.950 . S
H546 C522 0.950 . S
H547 C523 0.949 . S
H548 C525 0.950 . S
H549 C527 0.950 . S
C550 C551 1.349 . S
C550 C552 1.327 . S
C550 H575 0.950 . S
C551 C550 1.349 . S
C551 C567 1.349 . S
C552 C550 1.327 . S
C552 C571 1.429 . S
C552 H576 0.950 . S
C553 C570 1.574 . S
C553 C572 1.368 . S
C553 H577 0.949 . S
H554 C558 0.949 . S
C555 C556 1.349 . S
C555 C557 1.327 . S
C555 H578 0.950 . S
C556 C555 1.349 . S
C556 C568 1.349 . S
C557 C555 1.327 . S
C557 C573 1.429 . S
C557 H579 0.950 . S
C558 H554 0.949 . S
C558 C566 1.574 . S
C558 C574 1.368 . S
H559 C567 0.950 . S
H560 C565 0.950 . S
H561 C566 0.949 . S
H562 C568 0.950 . S
H563 C569 0.950 . S
H564 C570 0.949 . S
C565 H560 0.950 . S
C565 C567 1.327 . S
C565 C571 1.429 . S
C566 C558 1.574 . S
C566 H561 0.949 . S
C566 C572 1.368 . S
C567 C551 1.349 . S
C567 H559 0.950 . S
C567 C565 1.327 . S
C568 C556 1.349 . S
C568 H562 0.950 . S
C568 C569 1.327 . S
C569 H563 0.950 . S
C569 C568 1.327 . S
C569 C573 1.429 . S
C570 C553 1.574 . S
C570 H564 0.949 . S
C570 C574 1.368 . S
C571 C552 1.429 . S
C571 C565 1.429 . S
C571 C572 1.523 1_455 S
C572 C553 1.368 . S
C572 C566 1.368 . S
C572 C571 1.523 1_655 S
C573 C557 1.429 . S
C573 C569 1.429 . S
C573 C574 1.523 . S
C574 C558 1.368 . S
C574 C570 1.368 . S
C574 C573 1.523 . S
H575 C550 0.950 . S
H576 C552 0.950 . S
H577 C553 0.949 . S
H578 C555 0.950 . S
H579 C557 0.950 . S
C580 C581 1.349 . S
C580 C582 1.327 . S
C580 H605 0.950 . S
C581 C580 1.349 . S
C581 C597 1.349 . S
C582 C580 1.327 . S
C582 C601 1.429 . S
C582 H606 0.950 . S
C583 C600 1.574 . S
C583 C602 1.368 . S
C583 H607 0.949 . S
H584 C588 0.949 . S
C585 C586 1.349 . S
C585 C587 1.327 . S
C585 H608 0.950 . S
C586 C585 1.349 . S
C586 C598 1.349 . S
C587 C585 1.327 . S
C587 C603 1.429 . S
C587 H609 0.950 . S
C588 H584 0.949 . S
C588 C596 1.574 . S
C588 C604 1.368 . S
H589 C597 0.950 . S
H590 C595 0.950 . S
H591 C596 0.949 . S
H592 C598 0.950 . S
H593 C599 0.950 . S
H594 C600 0.949 . S
C595 H590 0.950 . S
C595 C597 1.327 . S
C595 C601 1.429 . S
C596 C588 1.574 . S
C596 H591 0.949 . S
C596 C602 1.368 . S
C597 C581 1.349 . S
C597 H589 0.950 . S
C597 C595 1.327 . S
C598 C586 1.349 . S
C598 H592 0.950 . S
C598 C599 1.327 . S
C599 H593 0.950 . S
C599 C598 1.327 . S
C599 C603 1.429 . S
C600 C583 1.574 . S
C600 H594 0.949 . S
C600 C604 1.368 . S
C601 C582 1.429 . S
C601 C595 1.429 . S
C601 C602 1.523 . S
C602 C583 1.368 . S
C602 C596 1.368 . S
C602 C601 1.523 . S
C603 C587 1.429 . S
C603 C599 1.429 . S
C603 C604 1.523 . S
C604 C588 1.368 . S
C604 C600 1.368 . S
C604 C603 1.523 . S
H605 C580 0.950 . S
H606 C582 0.950 . S
H607 C583 0.949 . S
H608 C585 0.950 . S
H609 C587 0.950 . S
C610 C611 1.349 . S
C610 C612 1.327 . S
C610 H635 0.950 . S
C611 C610 1.349 . S
C611 C627 1.349 . S
C612 C610 1.327 . S
C612 C631 1.429 . S
C612 H636 0.950 . S
C613 C630 1.574 . S
C613 C632 1.368 . S
C613 H637 0.949 . S
H614 C618 0.949 . S
C615 C616 1.349 . S
C615 C617 1.327 . S
C615 H638 0.950 . S
C616 C615 1.349 . S
C616 C628 1.349 . S
C617 C615 1.327 . S
C617 C633 1.429 1_455 S
C617 H639 0.950 . S
C618 H614 0.949 . S
C618 C626 1.574 . S
C618 C634 1.368 . S
H619 C627 0.950 . S
H620 C625 0.950 . S
H621 C626 0.949 . S
H622 C628 0.950 . S
H623 C629 0.950 . S
H624 C630 0.949 1_455 S
C625 H620 0.950 . S
C625 C627 1.327 . S
C625 C631 1.429 . S
C626 C618 1.574 . S
C626 H621 0.949 . S
C626 C632 1.368 . S
C627 C611 1.349 . S
C627 H619 0.950 . S
C627 C625 1.327 . S
C628 C616 1.349 . S
C628 H622 0.950 . S
C628 C629 1.327 1_455 S
C629 H623 0.950 . S
C629 C628 1.327 1_655 S
C629 C633 1.429 . S
C630 C613 1.574 . S
C630 H624 0.949 1_655 S
C630 C634 1.368 . S
C631 C612 1.429 . S
C631 C625 1.429 . S
C631 C632 1.523 . S
C632 C613 1.368 . S
C632 C626 1.368 . S
C632 C631 1.523 . S
C633 C617 1.429 1_655 S
C633 C629 1.429 . S
C633 C634 1.523 . S
C634 C618 1.368 . S
C634 C630 1.368 . S
C634 C633 1.523 . S
H635 C610 0.950 . S
H636 C612 0.950 . S
H637 C613 0.949 . S
H638 C615 0.950 . S
H639 C617 0.950 . S
C640 C641 1.349 . S
C640 C642 1.327 . S
C640 H665 0.950 . S
C641 C640 1.349 . S
C641 C657 1.349 . S
C642 C640 1.327 . S
C642 C661 1.429 . S
C642 H666 0.950 . S
C643 C660 1.574 . S
C643 C662 1.368 . S
C643 H667 0.949 . S
H644 C648 0.949 . S
C645 C646 1.349 . S
C645 C647 1.327 . S
C645 H668 0.950 . S
C646 C645 1.349 . S
C646 C658 1.349 . S
C647 C645 1.327 . S
C647 C663 1.429 . S
C647 H669 0.950 . S
C648 H644 0.949 . S
C648 C656 1.574 . S
C648 C664 1.368 . S
H649 C657 0.950 . S
H650 C655 0.950 . S
H651 C656 0.949 . S
H652 C658 0.950 . S
H653 C659 0.950 . S
H654 C660 0.949 . S
C655 H650 0.950 . S
C655 C657 1.327 . S
C655 C661 1.429 . S
C656 C648 1.574 . S
C656 H651 0.949 . S
C656 C662 1.368 . S
C657 C641 1.349 . S
C657 H649 0.950 . S
C657 C655 1.327 . S
C658 C646 1.349 . S
C658 H652 0.950 . S
C658 C659 1.327 . S
C659 H653 0.950 . S
C659 C658 1.327 . S
C659 C663 1.429 . S
C660 C643 1.574 . S
C660 H654 0.949 . S
C660 C664 1.368 . S
C661 C642 1.429 . S
C661 C655 1.429 . S
C661 C662 1.523 . S
C662 C643 1.368 . S
C662 C656 1.368 . S
C662 C661 1.523 . S
C663 C647 1.429 . S
C663 C659 1.429 . S
C663 C664 1.523 . S
C664 C648 1.368 . S
C664 C660 1.368 . S
C664 C663 1.523 . S
H665 C640 0.950 . S
H666 C642 0.950 . S
H667 C643 0.949 . S
H668 C645 0.950 . S
H669 C647 0.950 . S
C670 C671 1.349 . S
C670 C672 1.327 . S
C670 H695 0.950 . S
C671 C670 1.349 . S
C671 C687 1.349 . S
C672 C670 1.327 . S
C672 C691 1.429 . S
C672 H696 0.950 . S
C673 C690 1.574 . S
C673 C692 1.368 . S
C673 H697 0.949 . S
H674 C678 0.949 . S
C675 C676 1.349 . S
C675 C677 1.327 . S
C675 H698 0.950 . S
C676 C675 1.349 . S
C676 C688 1.349 . S
C677 C675 1.327 . S
C677 C693 1.429 . S
C677 H699 0.950 . S
C678 H674 0.949 . S
C678 C686 1.574 . S
C678 C694 1.368 . S
H679 C687 0.950 . S
H680 C685 0.950 . S
H681 C686 0.949 . S
H682 C688 0.950 . S
H683 C689 0.950 . S
H684 C690 0.949 . S
C685 H680 0.950 . S
C685 C687 1.327 . S
C685 C691 1.429 . S
C686 C678 1.574 . S
C686 H681 0.949 . S
C686 C692 1.368 . S
C687 C671 1.349 . S
C687 H679 0.950 . S
C687 C685 1.327 . S
C688 C676 1.349 . S
C688 H682 0.950 . S
C688 C689 1.327 . S
C689 H683 0.950 . S
C689 C688 1.327 . S
C689 C693 1.429 . S
C690 C673 1.574 . S
C690 H684 0.949 . S
C690 C694 1.368 . S
C691 C672 1.429 . S
C691 C685 1.429 . S
C691 C692 1.523 . S
C692 C673 1.368 . S
C692 C686 1.368 . S
C692 C691 1.523 . S
C693 C677 1.429 . S
C693 C689 1.429 . S
C693 C694 1.523 . S
C694 C678 1.368 . S
C694 C690 1.368 . S
C694 C693 1.523 . S
H695 C670 0.950 . S
H696 C672 0.950 . S
H697 C673 0.949 . S
H698 C675 0.950 . S
H699 C677 0.950 . S
C700 C701 1.349 . S
C700 C702 1.327 . S
C700 H725 0.950 . S
C701 C700 1.349 . S
C701 C717 1.349 . S
C702 C700 1.327 . S
C702 C721 1.429 . S
C702 H726 0.950 . S
C703 C720 1.574 . S
C703 C722 1.368 . S
C703 H727 0.949 . S
H704 C708 0.949 . S
C705 C706 1.349 . S
C705 C707 1.327 . S
C705 H728 0.950 . S
C706 C705 1.349 . S
C706 C718 1.349 . S
C707 C705 1.327 . S
C707 C723 1.429 . S
C707 H729 0.950 . S
C708 H704 0.949 . S
C708 C716 1.574 . S
C708 C724 1.368 . S
H709 C717 0.950 . S
H710 C715 0.950 . S
H711 C716 0.949 . S
H712 C718 0.950 . S
H713 C719 0.950 . S
H714 C720 0.949 . S
C715 H710 0.950 . S
C715 C717 1.327 . S
C715 C721 1.429 . S
C716 C708 1.574 . S
C716 H711 0.949 . S
C716 C722 1.368 . S
C717 C701 1.349 . S
C717 H709 0.950 . S
C717 C715 1.327 . S
C718 C706 1.349 . S
C718 H712 0.950 . S
C718 C719 1.327 . S
C719 H713 0.950 . S
C719 C718 1.327 . S
C719 C723 1.429 . S
C720 C703 1.574 . S
C720 H714 0.949 . S
C720 C724 1.368 . S
C721 C702 1.429 . S
C721 C715 1.429 . S
C721 C722 1.523 . S
C722 C703 1.368 . S
C722 C716 1.368 . S
C722 C721 1.523 . S
C723 C707 1.429 . S
C723 C719 1.429 . S
C723 C724 1.523 . S
C724 C708 1.368 . S
C724 C720 1.368 . S
C724 C723 1.523 . S
H725 C700 0.950 . S
H726 C702 0.950 . S
H727 C703 0.949 . S
H728 C705 0.950 . S
H729 C707 0.950 . S
C730 C731 1.349 . S
C730 C732 1.327 . S
C730 H755 0.950 . S
C731 C730 1.349 . S
C731 C747 1.349 . S
C732 C730 1.327 . S
C732 C751 1.429 . S
C732 H756 0.950 . S
C733 C750 1.574 . S
C733 C752 1.368 . S
C733 H757 0.949 . S
H734 C738 0.949 . S
C735 C736 1.349 . S
C735 C737 1.327 . S
C735 H758 0.950 . S
C736 C735 1.349 . S
C736 C748 1.349 . S
C737 C735 1.327 . S
C737 C753 1.429 . S
C737 H759 0.950 . S
C738 H734 0.949 . S
C738 C746 1.574 . S
C738 C754 1.368 . S
H739 C747 0.950 . S
H740 C745 0.950 . S
H741 C746 0.949 . S
H742 C748 0.950 . S
H743 C749 0.950 . S
H744 C750 0.949 . S
C745 H740 0.950 . S
C745 C747 1.327 . S
C745 C751 1.429 . S
C746 C738 1.574 . S
C746 H741 0.949 . S
C746 C752 1.368 . S
C747 C731 1.349 . S
C747 H739 0.950 . S
C747 C745 1.327 . S
C748 C736 1.349 . S
C748 H742 0.950 . S
C748 C749 1.327 . S
C749 H743 0.950 . S
C749 C748 1.327 . S
C749 C753 1.429 . S
C750 C733 1.574 . S
C750 H744 0.949 . S
C750 C754 1.368 . S
C751 C732 1.429 . S
C751 C745 1.429 . S
C751 C752 1.523 . S
C752 C733 1.368 . S
C752 C746 1.368 . S
C752 C751 1.523 . S
C753 C737 1.429 . S
C753 C749 1.429 . S
C753 C754 1.523 . S
C754 C738 1.368 . S
C754 C750 1.368 . S
C754 C753 1.523 . S
H755 C730 0.950 . S
H756 C732 0.950 . S
H757 C733 0.949 . S
H758 C735 0.950 . S
H759 C737 0.950 . S
C760 C761 1.349 . S
C760 C762 1.327 . S
C760 H785 0.950 . S
C761 C760 1.349 . S
C761 C777 1.349 . S
C762 C760 1.327 . S
C762 C781 1.429 . S
C762 H786 0.950 . S
C763 C780 1.574 . S
C763 C782 1.368 . S
C763 H787 0.949 . S
H764 C768 0.949 . S
C765 C766 1.349 . S
C765 C767 1.327 . S
C765 H788 0.950 . S
C766 C765 1.349 . S
C766 C778 1.349 . S
C767 C765 1.327 . S
C767 C783 1.429 . S
C767 H789 0.950 . S
C768 H764 0.949 . S
C768 C776 1.574 . S
C768 C784 1.368 . S
H769 C777 0.950 . S
H770 C775 0.950 . S
H771 C776 0.949 . S
H772 C778 0.950 . S
H773 C779 0.950 . S
H774 C780 0.949 . S
C775 H770 0.950 . S
C775 C777 1.327 . S
C775 C781 1.429 . S
C776 C768 1.574 . S
C776 H771 0.949 . S
C776 C782 1.368 . S
C777 C761 1.349 . S
C777 H769 0.950 . S
C777 C775 1.327 . S
C778 C766 1.349 . S
C778 H772 0.950 . S
C778 C779 1.327 . S
C779 H773 0.950 . S
C779 C778 1.327 . S
C779 C783 1.429 . S
C780 C763 1.574 . S
C780 H774 0.949 . S
C780 C784 1.368 . S
C781 C762 1.429 . S
C781 C775 1.429 . S
C781 C782 1.523 . S
C782 C763 1.368 . S
C782 C776 1.368 . S
C782 C781 1.523 . S
C783 C767 1.429 . S
C783 C779 1.429 . S
C783 C784 1.523 . S
C784 C768 1.368 . S
C784 C780 1.368 . S
C784 C783 1.523 . S
H785 C760 0.950 . S
H786 C762 0.950 . S
H787 C763 0.949 . S
H788 C765 0.950 . S
H789 C767 0.950 . S
C790 C791 1.349 . S
C790 C792 1.327 . S
C790 H815 0.950 . S
C791 C790 1.349 . S
C791 C807 1.349 . S
C792 C790 1.327 . S
C792 C811 1.429 . S
C792 H816 0.950 . S
C793 C810 1.574 . S
C793 C812 1.368 . S
C793 H817 0.949 . S
H794 C798 0.949 . S
C795 C796 1.349 . S
C795 C797 1.327 . S
C795 H818 0.950 . S
C796 C795 1.349 . S
C796 C808 1.349 . S
C797 C795 1.327 . S
C797 C813 1.429 . S
C797 H819 0.950 . S
C798 H794 0.949 . S
C798 C806 1.574 . S
C798 C814 1.368 . S
H799 C807 0.950 . S
H800 C805 0.950 . S
H801 C806 0.949 . S
H802 C808 0.950 . S
H803 C809 0.950 . S
H804 C810 0.949 . S
C805 H800 0.950 . S
C805 C807 1.327 . S
C805 C811 1.429 . S
C806 C798 1.574 . S
C806 H801 0.949 . S
C806 C812 1.368 . S
C807 C791 1.349 . S
C807 H799 0.950 . S
C807 C805 1.327 . S
C808 C796 1.349 . S
C808 H802 0.950 . S
C808 C809 1.327 . S
C809 H803 0.950 . S
C809 C808 1.327 . S
C809 C813 1.429 . S
C810 C793 1.574 . S
C810 H804 0.949 . S
C810 C814 1.368 . S
C811 C792 1.429 . S
C811 C805 1.429 . S
C811 C812 1.523 . S
C812 C793 1.368 . S
C812 C806 1.368 . S
C812 C811 1.523 . S
C813 C797 1.429 . S
C813 C809 1.429 . S
C813 C814 1.523 . S
C814 C798 1.368 . S
C814 C810 1.368 . S
C814 C813 1.523 . S
H815 C790 0.950 . S
H816 C792 0.950 . S
H817 C793 0.949 . S
H818 C795 0.950 . S
H819 C797 0.950 . S
C820 C821 1.349 . S
C820 C822 1.327 . S
C820 H845 0.950 . S
C821 C820 1.349 . S
C821 C837 1.349 . S
C822 C820 1.327 . S
C822 C841 1.429 . S
C822 H846 0.950 . S
C823 C840 1.574 . S
C823 C842 1.368 . S
C823 H847 0.949 . S
H824 C828 0.949 . S
C825 C826 1.349 . S
C825 C827 1.327 . S
C825 H848 0.950 . S
C826 C825 1.349 . S
C826 C838 1.349 . S
C827 C825 1.327 . S
C827 C843 1.429 . S
C827 H849 0.950 . S
C828 H824 0.949 . S
C828 C836 1.574 . S
C828 C844 1.368 . S
H829 C837 0.950 . S
H830 C835 0.950 . S
H831 C836 0.949 . S
H832 C838 0.950 . S
H833 C839 0.950 . S
H834 C840 0.949 . S
C835 H830 0.950 . S
C835 C837 1.327 . S
C835 C841 1.429 . S
C836 C828 1.574 . S
C836 H831 0.949 . S
C836 C842 1.368 . S
C837 C821 1.349 . S
C837 H829 0.950 . S
C837 C835 1.327 . S
C838 C826 1.349 . S
C838 H832 0.950 . S
C838 C839 1.327 . S
C839 H833 0.950 . S
C839 C838 1.327 . S
C839 C843 1.429 . S
C840 C823 1.574 . S
C840 H834 0.949 . S
C840 C844 1.368 . S
C841 C822 1.429 . S
C841 C835 1.429 . S
C841 C842 1.523 . S
C842 C823 1.368 . S
C842 C836 1.368 . S
C842 C841 1.523 . S
C843 C827 1.429 . S
C843 C839 1.429 . S
C843 C844 1.523 . S
C844 C828 1.368 . S
C844 C840 1.368 . S
C844 C843 1.523 . S
H845 C820 0.950 . S
H846 C822 0.950 . S
H847 C823 0.949 . S
H848 C825 0.950 . S
H849 C827 0.950 . S
C850 C851 1.349 . S
C850 C852 1.317 1_554 S
C850 H875 0.950 . S
C851 C850 1.349 . S
C851 C867 1.349 . S
C852 C850 1.317 1_556 S
C852 C871 1.438 . S
C852 H876 0.951 . S
C853 C870 1.574 . S
C853 C872 1.368 . S
C853 H877 0.949 . S
H854 C858 0.949 . S
C855 C856 1.349 . S
C855 C857 1.327 . S
C855 H878 0.950 . S
C856 C855 1.349 . S
C856 C868 1.349 . S
C857 C855 1.327 . S
C857 C873 1.429 . S
C857 H879 0.950 . S
C858 H854 0.949 . S
C858 C866 1.574 . S
C858 C874 1.368 . S
H859 C867 0.950 . S
H860 C865 0.950 . S
H861 C866 0.949 . S
H862 C868 0.950 . S
H863 C869 0.950 . S
H864 C870 0.949 . S
C865 H860 0.950 . S
C865 C867 1.327 1_556 S
C865 C871 1.429 . S
C866 C858 1.574 . S
C866 H861 0.949 . S
C866 C872 1.368 . S
C867 C851 1.349 . S
C867 H859 0.950 . S
C867 C865 1.327 1_554 S
C868 C856 1.349 . S
C868 H862 0.950 . S
C868 C869 1.327 . S
C869 H863 0.950 . S
C869 C868 1.327 . S
C869 C873 1.429 . S
C870 C853 1.574 . S
C870 H864 0.949 . S
C870 C874 1.368 . S
C871 C852 1.438 . S
C871 C865 1.429 . S
C871 C872 1.523 . S
C872 C853 1.368 . S
C872 C866 1.368 . S
C872 C871 1.523 . S
C873 C857 1.429 . S
C873 C869 1.429 . S
C873 C874 1.523 . S
C874 C858 1.368 . S
C874 C870 1.368 . S
C874 C873 1.523 . S
H875 C850 0.950 . S
H876 C852 0.951 . S
H877 C853 0.949 . S
H878 C855 0.950 . S
H879 C857 0.950 . S
C161 C7 1.313 . S
C166 C93 1.306 . S
C191 C37 1.104 . S
C196 C101 1.090 . S
C221 C54 1.252 . S
C226 C110 1.222 . S
C256 C120 1.312 . S
C251 C87 1.307 . S
C286 C129 1.262 . S
C281 C30 1.276 . S
C311 C51 1.322 . S
C316 C138 1.325 . S
C341 C84 1.290 . S
C346 C146 1.256 . S
C371 C10 1.103 . S
C376 C156 1.055 . S
C401 C59 1.330 . S
C406 C155 1.329 . S
C436 C128 1.054 . S
C431 C74 1.068 . S
C466 C137 1.262 . S
C461 C18 1.293 . S
C491 C32 1.296 . S
C496 C147 1.297 . S
C526 C102 1.315 . S
C521 C73 1.322 . S
C551 C15 1.304 . S
C556 C111 1.318 . S
C586 C119 1.290 . S
C581 C43 1.307 . S
C616 C92 1.060 . S
C611 C62 1.073 . S
C646 C149 1.321 . S
C641 C21 1.344 . S
C676 C158 1.203 . S
C671 C29 1.208 . S
C701 C52 1.169 . S
C706 C131 1.158 . S
C736 C140 1.310 . S
C731 C81 1.332 . S
C766 C113 1.288 . S
C761 C40 1.307 . S
C791 C65 1.326 . S
C796 C122 1.305 . S
C826 C95 1.169 . S
C821 C76 1.180 . S
C856 C104 1.199 . S
C851 C8 1.215 . S
