# Generated by pormake.
# Topology ssb, (4,4)-cn, num edge types: 1
# Building blocks:
#     Node 0, Type 0, BuildingBlock: MIFKUJ_clean_linker_1, # of connection points: 4
#     Node 1, Type 0, BuildingBlock: MIFKUJ_clean_linker_1, # of connection points: 4
#     Node 2, Type 0, BuildingBlock: MIFKUJ_clean_linker_1, # of connection points: 4
#     Node 3, Type 0, BuildingBlock: MIFKUJ_clean_linker_1, # of connection points: 4
#     Node 4, Type 0, BuildingBlock: MIFKUJ_clean_linker_1, # of connection points: 4
#     Node 5, Type 0, BuildingBlock: MIFKUJ_clean_linker_1, # of connection points: 4
#     Node 6, Type 0, BuildingBlock: MIFKUJ_clean_linker_1, # of connection points: 4
#     Node 7, Type 0, BuildingBlock: MIFKUJ_clean_linker_1, # of connection points: 4
#     Node 8, Type 1, BuildingBlock: NAWXER_clean_sbu_0, # of connection points: 4
#     Node 9, Type 1, BuildingBlock: NAWXER_clean_sbu_0, # of connection points: 4
#     Node 10, Type 1, BuildingBlock: NAWXER_clean_sbu_0, # of connection points: 4
#     Node 11, Type 1, BuildingBlock: NAWXER_clean_sbu_0, # of connection points: 4
#     Node 12, Type 1, BuildingBlock: NAWXER_clean_sbu_0, # of connection points: 4
#     Node 13, Type 1, BuildingBlock: NAWXER_clean_sbu_0, # of connection points: 4
#     Node 14, Type 1, BuildingBlock: NAWXER_clean_sbu_0, # of connection points: 4
#     Node 15, Type 1, BuildingBlock: NAWXER_clean_sbu_0, # of connection points: 4
#     Edge 16, Type (0, 1), BuildingBlock: TEMPAE_clean_linker_10, # of connection points: 2
#     Edge 17, Type (0, 1), BuildingBlock: TEMPAE_clean_linker_10, # of connection points: 2
#     Edge 18, Type (0, 1), BuildingBlock: TEMPAE_clean_linker_10, # of connection points: 2
#     Edge 19, Type (0, 1), BuildingBlock: TEMPAE_clean_linker_10, # of connection points: 2
#     Edge 20, Type (0, 1), BuildingBlock: TEMPAE_clean_linker_10, # of connection points: 2
#     Edge 21, Type (0, 1), BuildingBlock: TEMPAE_clean_linker_10, # of connection points: 2
#     Edge 22, Type (0, 1), BuildingBlock: TEMPAE_clean_linker_10, # of connection points: 2
#     Edge 23, Type (0, 1), BuildingBlock: TEMPAE_clean_linker_10, # of connection points: 2
#     Edge 24, Type (0, 1), BuildingBlock: TEMPAE_clean_linker_10, # of connection points: 2
#     Edge 25, Type (0, 1), BuildingBlock: TEMPAE_clean_linker_10, # of connection points: 2
#     Edge 26, Type (0, 1), BuildingBlock: TEMPAE_clean_linker_10, # of connection points: 2
#     Edge 27, Type (0, 1), BuildingBlock: TEMPAE_clean_linker_10, # of connection points: 2
#     Edge 28, Type (0, 1), BuildingBlock: TEMPAE_clean_linker_10, # of connection points: 2
#     Edge 29, Type (0, 1), BuildingBlock: TEMPAE_clean_linker_10, # of connection points: 2
#     Edge 30, Type (0, 1), BuildingBlock: TEMPAE_clean_linker_10, # of connection points: 2
#     Edge 31, Type (0, 1), BuildingBlock: TEMPAE_clean_linker_10, # of connection points: 2
#     Edge 32, Type (0, 1), BuildingBlock: TEMPAE_clean_linker_10, # of connection points: 2
#     Edge 33, Type (0, 1), BuildingBlock: TEMPAE_clean_linker_10, # of connection points: 2
#     Edge 34, Type (0, 1), BuildingBlock: TEMPAE_clean_linker_10, # of connection points: 2
#     Edge 35, Type (0, 1), BuildingBlock: TEMPAE_clean_linker_10, # of connection points: 2
#     Edge 36, Type (0, 1), BuildingBlock: TEMPAE_clean_linker_10, # of connection points: 2
#     Edge 37, Type (0, 1), BuildingBlock: TEMPAE_clean_linker_10, # of connection points: 2
#     Edge 38, Type (0, 1), BuildingBlock: TEMPAE_clean_linker_10, # of connection points: 2
#     Edge 39, Type (0, 1), BuildingBlock: TEMPAE_clean_linker_10, # of connection points: 2
#     Edge 40, Type (0, 1), BuildingBlock: TEMPAE_clean_linker_10, # of connection points: 2
#     Edge 41, Type (0, 1), BuildingBlock: TEMPAE_clean_linker_10, # of connection points: 2
#     Edge 42, Type (0, 1), BuildingBlock: TEMPAE_clean_linker_10, # of connection points: 2
#     Edge 43, Type (0, 1), BuildingBlock: TEMPAE_clean_linker_10, # of connection points: 2
#     Edge 44, Type (0, 1), BuildingBlock: TEMPAE_clean_linker_10, # of connection points: 2
#     Edge 45, Type (0, 1), BuildingBlock: TEMPAE_clean_linker_10, # of connection points: 2
#     Edge 46, Type (0, 1), BuildingBlock: TEMPAE_clean_linker_10, # of connection points: 2
#     Edge 47, Type (0, 1), BuildingBlock: TEMPAE_clean_linker_10, # of connection points: 2
# Relax obj value: 0.000
# Max RMSD: 0.000
# Mean RMSD: 0.000
data_MOF--net-ssb--node1-NAWXER_clean_sbu_0--node2-MIFKUJ_clean_linker_1--edge1-TEMPAE_clean_linker_10
_symmetry_space_group_name_H-M    P1
_symmetry_Int_Tables_number       1
_symmetry_cell_setting            triclinic
loop_
_symmetry_equiv_pos_as_xyz
'x, y, z'
_cell_length_a     54.66825
_cell_length_b     54.725998
_cell_length_c     47.796197
_cell_angle_alpha  89.942832
_cell_angle_beta   89.908551
_cell_angle_gamma 89.991082
loop_
_atom_site_label
_atom_site_type_symbol
_atom_site_fract_x
_atom_site_fract_y
_atom_site_fract_z
_atom_type_partial_charge
H0 H 0.26617 0.19709 0.17388 0.0
H1 H 0.30229 0.19671 0.14343 0.0
H2 H 0.32587 0.26523 0.17914 0.0
H3 H 0.2899 0.26537 0.20973 0.0
H4 H 0.26554 0.19716 0.23234 0.0
H5 H 0.23227 0.25074 0.15702 0.0
H6 H 0.23049 0.28664 0.12649 0.0
H7 H 0.24285 0.33328 0.19812 0.0
H8 H 0.24341 0.2974 0.22844 0.0
H9 H 0.20123 0.26352 0.29005 0.0
H10 H 0.16802 0.26071 0.32434 0.0
H11 H 0.14747 0.1904 0.29075 0.0
H12 H 0.18049 0.19347 0.25623 0.0
H13 H 0.20351 0.26341 0.2331 0.0
H14 H 0.2322 0.21713 0.30838 0.0
H15 H 0.22802 0.18614 0.34453 0.0
H16 H 0.23105 0.1297 0.28134 0.0
H17 H 0.23351 0.16114 0.24495 0.0
C18 C 0.27523 0.23137 0.19387 0.0
C19 C 0.27908 0.21208 0.17503 0.0
C20 C 0.29964 0.21193 0.15759 0.0
C21 C 0.31691 0.23093 0.15893 0.0
C22 C 0.31299 0.25025 0.17781 0.0
C23 C 0.29233 0.25047 0.19509 0.0
C24 C 0.25395 0.23092 0.21313 0.0
C25 C 0.25174 0.2114 0.23214 0.0
C26 C 0.23661 0.25011 0.2139 0.0
C27 C 0.23795 0.27147 0.19493 0.0
C28 C 0.23476 0.26873 0.166 0.0
C29 C 0.23383 0.2893 0.1486 0.0
C30 C 0.2363 0.31299 0.15981 0.0
C31 C 0.24025 0.31546 0.18877 0.0
C32 C 0.24083 0.29495 0.20615 0.0
C33 C 0.19339 0.22864 0.27075 0.0
C34 C 0.18936 0.24766 0.28985 0.0
C35 C 0.17057 0.24591 0.30958 0.0
C36 C 0.15533 0.22522 0.31036 0.0
C37 C 0.15888 0.20658 0.29057 0.0
C38 C 0.17776 0.20828 0.27094 0.0
C39 C 0.21479 0.22941 0.25169 0.0
C40 C 0.21716 0.24901 0.23302 0.0
C41 C 0.23273 0.21076 0.25192 0.0
C42 C 0.23268 0.1915 0.27388 0.0
C43 C 0.23175 0.19809 0.30225 0.0
C44 C 0.22964 0.18026 0.32299 0.0
C45 C 0.22908 0.15532 0.31595 0.0
C46 C 0.23091 0.14872 0.28752 0.0
C47 C 0.23266 0.16665 0.26669 0.0
H48 H 0.66806 0.2727 0.25965 0.0
H49 H 0.63612 0.27403 0.22399 0.0
H50 H 0.69108 0.28714 0.16054 0.0
H51 H 0.72294 0.2842 0.19604 0.0
H52 H 0.7069 0.24419 0.26853 0.0
H53 H 0.69264 0.32801 0.24633 0.0
H54 H 0.68747 0.36017 0.21111 0.0
H55 H 0.76374 0.35401 0.18897 0.0
H56 H 0.76866 0.32092 0.22309 0.0
H57 H 0.80269 0.28599 0.28 0.0
H58 H 0.8376 0.28691 0.31146 0.0
H59 H 0.78992 0.26996 0.38111 0.0
H60 H 0.75471 0.27075 0.34963 0.0
H61 H 0.76463 0.31367 0.27666 0.0
H62 H 0.77758 0.22815 0.3007 0.0
H63 H 0.77851 0.19106 0.32965 0.0
H64 H 0.70188 0.20008 0.34837 0.0
H65 H 0.70115 0.23785 0.3209 0.0
C66 C 0.69785 0.27867 0.23058 0.0
C67 C 0.67322 0.27549 0.23799 0.0
C68 C 0.65496 0.27662 0.21761 0.0
C69 C 0.66096 0.28103 0.1894 0.0
C70 C 0.68575 0.28353 0.18198 0.0
C71 C 0.70401 0.28207 0.2023 0.0
C72 C 0.717 0.27947 0.25254 0.0
C73 C 0.71936 0.25949 0.27073 0.0
C74 C 0.73323 0.2995 0.25505 0.0
C75 C 0.73092 0.32158 0.23696 0.0
C76 C 0.70828 0.33353 0.23391 0.0
C77 C 0.70532 0.35192 0.21388 0.0
C78 C 0.72517 0.35935 0.19729 0.0
C79 C 0.74818 0.34858 0.20159 0.0
C80 C 0.75101 0.32976 0.22114 0.0
C81 C 0.77604 0.27803 0.31232 0.0
C82 C 0.79968 0.28266 0.30209 0.0
C83 C 0.81973 0.2829 0.32012 0.0
C84 C 0.81672 0.27826 0.34887 0.0
C85 C 0.79296 0.27383 0.35916 0.0
C86 C 0.7728 0.27394 0.34111 0.0
C87 C 0.755 0.27802 0.29262 0.0
C88 C 0.75214 0.29835 0.27483 0.0
C89 C 0.73808 0.25838 0.29084 0.0
C90 C 0.73938 0.23618 0.30892 0.0
C91 C 0.7611 0.22256 0.31155 0.0
C92 C 0.76161 0.20128 0.32788 0.0
C93 C 0.74025 0.19287 0.34109 0.0
C94 C 0.71853 0.20625 0.33827 0.0
C95 C 0.71815 0.22778 0.32256 0.0
H96 H 0.73819 0.79343 0.18362 0.0
H97 H 0.70306 0.79716 0.15202 0.0
H98 H 0.67469 0.72863 0.18306 0.0
H99 H 0.70961 0.72513 0.21473 0.0
H100 H 0.7389 0.79179 0.24036 0.0
H101 H 0.76986 0.73996 0.16623 0.0
H102 H 0.77315 0.7065 0.13253 0.0
H103 H 0.75584 0.6548 0.19815 0.0
H104 H 0.75358 0.68827 0.23177 0.0
H105 H 0.79154 0.71363 0.29652 0.0
H106 H 0.82447 0.70699 0.33036 0.0
H107 H 0.85327 0.77861 0.31218 0.0
H108 H 0.82119 0.78481 0.27704 0.0
H109 H 0.79249 0.71879 0.24371 0.0
H110 H 0.76896 0.77221 0.31932 0.0
H111 H 0.77492 0.80574 0.35213 0.0
H112 H 0.7773 0.85669 0.28291 0.0
H113 H 0.77339 0.82282 0.25023 0.0
C114 C 0.72666 0.7589 0.20138 0.0
C115 C 0.72443 0.77918 0.18352 0.0
C116 C 0.70442 0.78124 0.16541 0.0
C117 C 0.68608 0.76322 0.16511 0.0
C118 C 0.68839 0.74293 0.183 0.0
C119 C 0.70848 0.74078 0.2009 0.0
C120 C 0.74735 0.75712 0.22143 0.0
C121 C 0.75088 0.77599 0.24093 0.0
C122 C 0.76266 0.73635 0.2225 0.0
C123 C 0.76145 0.71656 0.20145 0.0
C124 C 0.76647 0.72142 0.1732 0.0
C125 C 0.76833 0.70225 0.15397 0.0
C126 C 0.76504 0.67786 0.16265 0.0
C127 C 0.75911 0.67324 0.19083 0.0
C128 C 0.75754 0.69237 0.21005 0.0
C129 C 0.80359 0.74988 0.2844 0.0
C130 C 0.805 0.72789 0.2996 0.0
C131 C 0.82374 0.72408 0.31895 0.0
C132 C 0.84118 0.74235 0.32382 0.0
C133 C 0.83982 0.76438 0.30884 0.0
C134 C 0.82141 0.76797 0.28894 0.0
C135 C 0.78393 0.75324 0.26319 0.0
C136 C 0.78056 0.73464 0.24337 0.0
C137 C 0.76891 0.77438 0.26189 0.0
C138 C 0.77121 0.79485 0.2822 0.0
C139 C 0.77117 0.79056 0.31118 0.0
C140 C 0.77426 0.80987 0.32999 0.0
C141 C 0.77675 0.83407 0.32029 0.0
C142 C 0.77606 0.83833 0.29125 0.0
C143 C 0.77346 0.81896 0.27246 0.0
H144 H 0.2249 0.71934 0.32214 0.0
H145 H 0.19004 0.72661 0.35331 0.0
H146 H 0.1793 0.7976 0.31575 0.0
H147 H 0.21409 0.79015 0.28446 0.0
H148 H 0.2285 0.71753 0.26454 0.0
H149 H 0.25927 0.76586 0.33986 0.0
H150 H 0.26177 0.8004 0.37188 0.0
H151 H 0.27815 0.84825 0.30227 0.0
H152 H 0.27395 0.81387 0.27017 0.0
H153 H 0.30051 0.77333 0.20614 0.0
H154 H 0.33357 0.76648 0.17248 0.0
H155 H 0.34732 0.69564 0.20918 0.0
H156 H 0.31443 0.70279 0.24313 0.0
H157 H 0.29928 0.77435 0.26432 0.0
H158 H 0.26584 0.72762 0.18903 0.0
H159 H 0.26942 0.69349 0.15664 0.0
H160 H 0.26039 0.64293 0.22549 0.0
H161 H 0.25839 0.67736 0.25805 0.0
C162 C 0.22222 0.75424 0.30108 0.0
C163 C 0.21496 0.73641 0.32052 0.0
C164 C 0.19518 0.74068 0.33848 0.0
C165 C 0.18202 0.76276 0.33713 0.0
C166 C 0.18901 0.78039 0.31724 0.0
C167 C 0.20895 0.7762 0.29944 0.0
C168 C 0.24395 0.75007 0.2829 0.0
C169 C 0.24406 0.72983 0.26474 0.0
C170 C 0.26417 0.76631 0.28282 0.0
C171 C 0.26594 0.78729 0.30248 0.0
C172 C 0.26295 0.78386 0.33141 0.0
C173 C 0.2648 0.80362 0.34979 0.0
C174 C 0.2702 0.8272 0.33973 0.0
C175 C 0.27357 0.83048 0.31077 0.0
C176 C 0.2714 0.81076 0.29237 0.0
C177 C 0.30491 0.73853 0.22702 0.0
C178 C 0.31082 0.75645 0.20712 0.0
C179 C 0.32953 0.75239 0.18773 0.0
C180 C 0.34288 0.7304 0.188 0.0
C181 C 0.33742 0.71277 0.2085 0.0
C182 C 0.31859 0.7168 0.22783 0.0
C183 C 0.28363 0.74212 0.24594 0.0
C184 C 0.28363 0.76216 0.26419 0.0
C185 C 0.26351 0.72584 0.24601 0.0
C186 C 0.26229 0.70506 0.22605 0.0
C187 C 0.26467 0.70918 0.19716 0.0
C188 C 0.26649 0.68957 0.1786 0.0
C189 C 0.2654 0.66533 0.18839 0.0
C190 C 0.26186 0.6613 0.21724 0.0
C191 C 0.26035 0.68097 0.23587 0.0
H192 H 0.17091 0.75749 0.75949 0.0
H193 H 0.14003 0.75004 0.72368 0.0
H194 H 0.19721 0.74271 0.66157 0.0
H195 H 0.22786 0.75128 0.69742 0.0
H196 H 0.2084 0.7279 0.77628 0.0
H197 H 0.19684 0.80513 0.73663 0.0
H198 H 0.19396 0.83778 0.70178 0.0
H199 H 0.27127 0.83144 0.68533 0.0
H200 H 0.274 0.79765 0.71889 0.0
H201 H 0.30613 0.75983 0.78052 0.0
H202 H 0.34112 0.76376 0.81171 0.0
H203 H 0.29202 0.77539 0.88149 0.0
H204 H 0.25699 0.77044 0.85007 0.0
H205 H 0.26956 0.79451 0.77044 0.0
H206 H 0.27762 0.71401 0.81246 0.0
H207 H 0.2755 0.68047 0.84643 0.0
H208 H 0.19951 0.69688 0.86178 0.0
H209 H 0.20187 0.73123 0.82907 0.0
C210 C 0.20164 0.75514 0.73108 0.0
C211 C 0.17674 0.75435 0.73812 0.0
C212 C 0.15912 0.74987 0.71761 0.0
C213 C 0.16604 0.74562 0.68963 0.0
C214 C 0.1911 0.74628 0.68273 0.0
C215 C 0.20869 0.75109 0.70322 0.0
C216 C 0.22032 0.75933 0.75305 0.0
C217 C 0.22156 0.74272 0.77535 0.0
C218 C 0.23745 0.77868 0.75152 0.0
C219 C 0.23557 0.79843 0.73011 0.0
C220 C 0.2131 0.8102 0.72505 0.0
C221 C 0.21146 0.82902 0.70534 0.0
C222 C 0.23239 0.83697 0.69101 0.0
C223 C 0.25491 0.82557 0.69627 0.0
C224 C 0.25645 0.80634 0.71547 0.0
C225 C 0.27896 0.76474 0.81297 0.0
C226 C 0.30292 0.76319 0.80256 0.0
C227 C 0.32294 0.76566 0.82045 0.0
C228 C 0.31953 0.77015 0.84919 0.0
C229 C 0.29542 0.77168 0.85958 0.0
C230 C 0.27534 0.76893 0.84165 0.0
C231 C 0.25802 0.76267 0.79337 0.0
C232 C 0.2563 0.77979 0.77149 0.0
C233 C 0.24 0.74417 0.79575 0.0
C234 C 0.23998 0.72545 0.81837 0.0
C235 C 0.26073 0.71102 0.8238 0.0
C236 C 0.25948 0.69173 0.84301 0.0
C237 C 0.23732 0.68619 0.85651 0.0
C238 C 0.21675 0.70082 0.8515 0.0
C239 C 0.21813 0.72039 0.83283 0.0
H240 H 0.33954 0.27251 0.7396 0.0
H241 H 0.37183 0.27264 0.77486 0.0
H242 H 0.31702 0.27823 0.83997 0.0
H243 H 0.28502 0.27595 0.80484 0.0
H244 H 0.30338 0.24254 0.72814 0.0
H245 H 0.30786 0.32749 0.75422 0.0
H246 H 0.31109 0.35902 0.79038 0.0
H247 H 0.24065 0.33741 0.82316 0.0
H248 H 0.23765 0.30575 0.78713 0.0
H249 H 0.20363 0.26794 0.72261 0.0
H250 H 0.16839 0.26887 0.69146 0.0
H251 H 0.21669 0.27997 0.6208 0.0
H252 H 0.25199 0.27783 0.65221 0.0
H253 H 0.23831 0.30568 0.72937 0.0
H254 H 0.233 0.2229 0.69649 0.0
H255 H 0.23453 0.18723 0.66565 0.0
H256 H 0.30999 0.20288 0.6464 0.0
H257 H 0.30814 0.23947 0.67579 0.0
C258 C 0.30985 0.27466 0.7695 0.0
C259 C 0.33453 0.27346 0.76151 0.0
C260 C 0.35298 0.27387 0.78172 0.0
C261 C 0.34713 0.27571 0.81036 0.0
C262 C 0.32233 0.27653 0.81822 0.0
C263 C 0.30394 0.27561 0.79807 0.0
C264 C 0.29023 0.27521 0.74803 0.0
C265 C 0.2894 0.25661 0.72787 0.0
C266 C 0.27183 0.29339 0.74819 0.0
C267 C 0.27258 0.31418 0.76811 0.0
C268 C 0.29303 0.32971 0.76906 0.0
C269 C 0.29483 0.34774 0.78966 0.0
C270 C 0.27623 0.35052 0.80975 0.0
C271 C 0.25543 0.33545 0.8082 0.0
C272 C 0.25356 0.31754 0.78747 0.0
C273 C 0.23038 0.27273 0.68969 0.0
C274 C 0.20659 0.27045 0.70037 0.0
C275 C 0.18644 0.27121 0.68251 0.0
C276 C 0.18957 0.27478 0.65355 0.0
C277 C 0.21354 0.27692 0.64289 0.0
C278 C 0.23376 0.2758 0.6608 0.0
C279 C 0.25142 0.27297 0.70915 0.0
C280 C 0.25249 0.29181 0.72907 0.0
C281 C 0.27028 0.25518 0.70826 0.0
C282 C 0.27032 0.23432 0.68819 0.0
C283 C 0.24965 0.21927 0.68495 0.0
C284 C 0.25058 0.19872 0.66756 0.0
C285 C 0.27238 0.19243 0.65378 0.0
C286 C 0.29301 0.2074 0.65691 0.0
C287 C 0.29192 0.22825 0.67372 0.0
H288 H 0.73275 0.19428 0.82509 0.0
H289 H 0.69707 0.19277 0.85617 0.0
H290 H 0.68067 0.26788 0.83644 0.0
H291 H 0.71532 0.26905 0.80397 0.0
H292 H 0.73608 0.19908 0.7722 0.0
H293 H 0.77035 0.25176 0.84912 0.0
H294 H 0.77234 0.28776 0.87952 0.0
H295 H 0.76041 0.33432 0.80763 0.0
H296 H 0.75958 0.29844 0.77751 0.0
H297 H 0.80089 0.26565 0.71602 0.0
H298 H 0.83442 0.26353 0.68209 0.0
H299 H 0.85484 0.19267 0.71439 0.0
H300 H 0.8214 0.19499 0.7485 0.0
H301 H 0.79895 0.26442 0.77299 0.0
H302 H 0.77069 0.21927 0.69654 0.0
H303 H 0.77469 0.18839 0.66035 0.0
H304 H 0.76876 0.13172 0.72317 0.0
H305 H 0.76675 0.16299 0.75963 0.0
C306 C 0.72716 0.23194 0.81248 0.0
C307 C 0.72149 0.21046 0.82733 0.0
C308 C 0.70118 0.20957 0.8451 0.0
C309 C 0.68641 0.23027 0.84872 0.0
C310 C 0.69207 0.25181 0.83416 0.0
C311 C 0.71204 0.25253 0.81585 0.0
C312 C 0.74813 0.23219 0.79254 0.0
C313 C 0.75005 0.21314 0.77284 0.0
C314 C 0.76578 0.25118 0.7921 0.0
C315 C 0.76484 0.27249 0.81112 0.0
C316 C 0.76804 0.26976 0.84007 0.0
C317 C 0.7691 0.29037 0.85738 0.0
C318 C 0.7668 0.31405 0.84603 0.0
C319 C 0.7629 0.3165 0.81707 0.0
C320 C 0.76218 0.29598 0.79981 0.0
C321 C 0.8086 0.23042 0.73462 0.0
C322 C 0.81276 0.2498 0.71599 0.0
C323 C 0.83175 0.24846 0.69648 0.0
C324 C 0.84708 0.22784 0.6955 0.0
C325 C 0.84336 0.2088 0.71477 0.0
C326 C 0.82424 0.21007 0.73416 0.0
C327 C 0.7872 0.23098 0.75368 0.0
C328 C 0.78512 0.25019 0.77283 0.0
C329 C 0.76904 0.21259 0.75303 0.0
C330 C 0.76899 0.1935 0.73091 0.0
C331 C 0.77054 0.20019 0.7026 0.0
C332 C 0.77249 0.18243 0.68181 0.0
C333 C 0.77216 0.15743 0.68871 0.0
C334 C 0.76963 0.15075 0.71706 0.0
C335 C 0.76813 0.16861 0.73794 0.0
H336 H 0.77857 0.72126 0.67761 0.0
H337 H 0.81396 0.72835 0.64715 0.0
H338 H 0.82312 0.80014 0.68309 0.0
H339 H 0.78791 0.79281 0.71374 0.0
H340 H 0.77508 0.72086 0.73603 0.0
H341 H 0.73592 0.7655 0.65858 0.0
H342 H 0.73177 0.79937 0.62554 0.0
H343 H 0.73347 0.85047 0.69456 0.0
H344 H 0.7363 0.81635 0.72734 0.0
H345 H 0.69579 0.77771 0.78556 0.0
H346 H 0.66153 0.77114 0.8178 0.0
H347 H 0.65893 0.69514 0.79422 0.0
H348 H 0.69224 0.70195 0.76068 0.0
H349 H 0.70268 0.77551 0.7326 0.0
H350 H 0.73523 0.73172 0.81064 0.0
H351 H 0.73277 0.69827 0.84421 0.0
H352 H 0.74746 0.64665 0.77782 0.0
H353 H 0.74831 0.68021 0.74405 0.0
C354 C 0.78046 0.75655 0.69782 0.0
C355 C 0.78822 0.73851 0.67895 0.0
C356 C 0.80833 0.74267 0.6614 0.0
C357 C 0.82129 0.76488 0.66259 0.0
C358 C 0.81362 0.78282 0.68175 0.0
C359 C 0.7934 0.77871 0.69914 0.0
C360 C 0.75882 0.75225 0.71609 0.0
C361 C 0.75912 0.73261 0.73511 0.0
C362 C 0.73826 0.76792 0.71543 0.0
C363 C 0.73646 0.78848 0.69535 0.0
C364 C 0.73536 0.78404 0.66649 0.0
C365 C 0.73313 0.80348 0.64764 0.0
C366 C 0.73225 0.8278 0.65726 0.0
C367 C 0.73354 0.83206 0.6863 0.0
C368 C 0.73538 0.81259 0.70512 0.0
C369 C 0.69699 0.74025 0.77097 0.0
C370 C 0.68762 0.75971 0.78689 0.0
C371 C 0.66812 0.75596 0.80536 0.0
C372 C 0.65784 0.73262 0.80855 0.0
C373 C 0.66676 0.71325 0.79225 0.0
C374 C 0.68586 0.71713 0.77324 0.0
C375 C 0.71878 0.74408 0.75267 0.0
C376 C 0.71858 0.76368 0.73367 0.0
C377 C 0.73958 0.72856 0.75377 0.0
C378 C 0.74148 0.70848 0.77469 0.0
C379 C 0.73791 0.71319 0.8033 0.0
C380 C 0.73672 0.69399 0.82256 0.0
C381 C 0.73966 0.66961 0.81379 0.0
C382 C 0.74451 0.66509 0.78529 0.0
C383 C 0.74537 0.68431 0.76597 0.0
C384 C 0.97553 0.23126 0.54468 0.0
C385 C 0.02801 0.22977 0.46216 0.0
O386 O 0.98123 0.25272 0.53598 0.0
Zn387 Zn 0.00228 0.26888 0.5026 0.0
O388 O 0.98362 0.21258 0.53183 0.0
Zn389 Zn 1.00173 0.23002 0.5036 0.0
O390 O 0.0304 0.24676 0.52754 0.0
O391 O 0.02753 0.28673 0.52228 0.0
O392 O 0.01966 0.2116 0.47571 0.0
O393 O 0.0227 0.25148 0.47014 0.0
O394 O 0.97775 0.28673 0.48174 0.0
O395 O 0.97269 0.24675 0.48017 0.0
C396 C 0.03833 0.26832 0.5328 0.0
C397 C 0.96557 0.26832 0.4735 0.0
C398 C 0.77647 0.03309 0.53325 0.0
C399 C 0.77826 0.97534 0.45537 0.0
O400 O 0.79534 0.02483 0.52087 0.0
Zn401 Zn 0.77813 0.00494 0.49367 0.0
O402 O 0.75513 0.02716 0.52451 0.0
Zn403 Zn 0.73917 0.00551 0.49194 0.0
O404 O 0.72003 0.98202 0.51317 0.0
O405 O 0.75986 0.97873 0.5199 0.0
O406 O 0.75656 0.98227 0.46179 0.0
O407 O 0.79644 0.9838 0.46878 0.0
O408 O 0.76305 0.03206 0.46619 0.0
O409 O 0.72282 0.03001 0.46936 0.0
C410 C 0.73798 0.97172 0.52533 0.0
C411 C 0.74185 0.03994 0.45911 0.0
C412 C 0.97014 0.77029 0.53735 0.0
C413 C 0.03781 0.76964 0.46906 0.0
O414 O 0.97987 0.78889 0.52579 0.0
Zn415 Zn 0.00418 0.77131 0.50337 0.0
O416 O 0.97803 0.74891 0.53118 0.0
Zn417 Zn 0.00463 0.73209 0.50466 0.0
O418 O 0.02589 0.71545 0.5311 0.0
O419 O 0.02741 0.75566 0.53457 0.0
O420 O 0.0306 0.74836 0.4767 0.0
O421 O 0.02777 0.78849 0.47966 0.0
O422 O 0.98165 0.75354 0.47303 0.0
O423 O 0.98378 0.71358 0.47949 0.0
C424 C 0.03428 0.73449 0.54294 0.0
C425 C 0.97527 0.73183 0.46618 0.0
C426 C 0.27033 0.03749 0.54038 0.0
C427 C 0.26833 0.96849 0.47544 0.0
O428 O 0.28837 0.02731 0.52832 0.0
Zn429 Zn 0.27004 0.00283 0.50759 0.0
O430 O 0.24862 0.02977 0.53569 0.0
Zn431 Zn 0.23111 0.00263 0.51076 0.0
O432 O 0.21488 0.98283 0.53873 0.0
O433 O 0.25511 0.9787 0.53886 0.0
O434 O 0.24702 0.97513 0.48386 0.0
O435 O 0.28719 0.97996 0.48386 0.0
O436 O 0.25154 0.02414 0.47687 0.0
O437 O 0.21182 0.02224 0.48484 0.0
C438 C 0.23401 0.97272 0.54849 0.0
C439 C 0.22965 0.03015 0.47032 0.0
C440 C 0.47545 0.72674 0.0418 0.0
C441 C 0.53316 0.72796 0.9633 0.0
O442 O 0.48218 0.74827 0.03461 0.0
Zn443 Zn 0.50486 0.7655 0.00401 0.0
O444 O 0.4836 0.70839 0.02839 0.0
Zn445 Zn 0.50392 0.72649 1.00199 0.0
O446 O 0.5321 0.74178 0.02823 0.0
O447 O 0.52872 0.78197 0.02734 0.0
O448 O 0.52285 0.70925 0.97385 0.0
O449 O 0.52797 0.74931 0.97266 0.0
O450 O 0.48107 0.78431 0.98249 0.0
O451 O 0.47717 0.74453 0.97684 0.0
C452 C 0.53964 0.7629 0.0361 0.0
C453 C 0.47014 0.76632 0.97123 0.0
C454 C 0.27334 0.5286 0.04754 0.0
C455 C 0.2743 0.47301 0.96717 0.0
O456 O 0.2921 0.52086 0.03449 0.0
Zn457 Zn 0.27483 0.50059 0.00751 0.0
O458 O 0.25199 0.52185 0.03967 0.0
Zn459 Zn 0.23571 0.4999 0.00778 0.0
O460 O 0.21855 0.47501 0.02896 0.0
O461 O 0.2587 0.47267 0.03307 0.0
O462 O 0.25274 0.47871 0.97549 0.0
O463 O 0.29281 0.48144 0.98008 0.0
O464 O 0.25752 0.52755 0.98181 0.0
O465 O 0.21746 0.52423 0.98685 0.0
C466 C 0.23732 0.46469 0.0393 0.0
C467 C 0.23585 0.53483 0.97592 0.0
C468 C 0.53715 0.2368 0.97198 0.0
C469 C 0.46659 0.23891 0.03491 0.0
O470 O 0.52953 0.25855 0.97683 0.0
Zn471 Zn 0.50209 0.27612 1.00203 0.0
O472 O 0.52684 0.21874 0.9839 0.0
Zn473 Zn 0.50229 0.2373 0.00397 0.0
O474 O 0.48076 0.25304 0.97077 0.0
O475 O 0.48302 0.29326 0.97447 0.0
O476 O 0.47803 0.22019 0.02615 0.0
O477 O 0.47386 0.26025 0.02753 0.0
O478 O 0.52146 0.29487 0.02823 0.0
O479 O 0.52384 0.25508 0.03512 0.0
C480 C 0.47488 0.27443 0.96202 0.0
C481 C 0.52982 0.27688 0.04206 0.0
C482 C 0.76631 0.53505 0.02995 0.0
C483 C 0.76496 0.46715 0.96368 0.0
O484 O 0.78472 0.52404 0.01967 0.0
Zn485 Zn 0.76649 0.50148 0.99611 0.0
O486 O 0.74473 0.52894 0.02229 0.0
Zn487 Zn 0.72746 0.50364 0.99487 0.0
O488 O 0.70781 0.48499 0.02131 0.0
O489 O 0.74758 0.47894 0.02585 0.0
O490 O 0.74357 0.4755 0.96931 0.0
O491 O 0.78369 0.477 0.97471 0.0
O492 O 0.75215 0.52519 0.96449 0.0
O493 O 0.71191 0.52525 0.96789 0.0
C494 C 0.72555 0.47431 0.03342 0.0
C495 C 0.73128 0.5329 0.95601 0.0
C496 C 0.14144 0.22854 0.36004 0.0
C497 C 0.13608 0.22297 0.3321 0.0
C498 C 0.1233 0.22739 0.38075 0.0
C499 C 0.09917 0.22064 0.3733 0.0
C500 C 0.09378 0.21437 0.34525 0.0
C501 C 0.11235 0.21555 0.32496 0.0
C502 C 0.12982 0.23403 0.41049 0.0
C503 C 0.06824 0.20725 0.3365 0.0
C504 C 0.05615 0.20397 0.43296 0.0
C505 C 0.04458 0.22642 0.43795 0.0
C506 C 0.07357 0.20155 0.41147 0.0
C507 C 0.07932 0.22202 0.39452 0.0
C508 C 0.06698 0.24443 0.39881 0.0
C509 C 0.04985 0.24637 0.4205 0.0
C510 C 0.08644 0.17739 0.40753 0.0
C511 C 0.07243 0.26663 0.38104 0.0
H512 H 0.15988 0.23386 0.3657 0.0
H513 H 0.10814 0.21133 0.30334 0.0
H514 H 0.11983 0.25082 0.41674 0.0
H515 H 0.12412 0.21924 0.42499 0.0
H516 H 0.14973 0.23731 0.41315 0.0
H517 H 0.06747 0.20116 0.31436 0.0
H518 H 0.06123 0.19234 0.35005 0.0
H519 H 0.05577 0.22308 0.33912 0.0
H520 H 0.05218 0.18849 0.4464 0.0
H521 H 0.04082 0.26374 0.42404 0.0
H522 H 0.10615 0.17948 0.41252 0.0
H523 H 0.0852 0.17146 0.38539 0.0
H524 H 0.07869 0.16281 0.42109 0.0
H525 H 0.09162 0.27251 0.38441 0.0
H526 H 0.06016 0.28223 0.38596 0.0
H527 H 0.07048 0.2621 0.35853 0.0
C528 C 0.75367 0.16837 0.38239 0.0
C529 C 0.74036 0.16994 0.35747 0.0
C530 C 0.75309 0.14699 0.39871 0.0
C531 C 0.73941 0.12654 0.38942 0.0
C532 C 0.72627 0.128 0.36395 0.0
C533 C 0.72664 0.14984 0.34846 0.0
C534 C 0.76692 0.14638 0.42602 0.0
C535 C 0.71201 0.10644 0.35293 0.0
C536 C 0.75826 0.06515 0.41982 0.0
C537 C 0.74001 0.0611 0.43994 0.0
C538 C 0.75783 0.08597 0.40263 0.0
C539 C 0.7391 0.10357 0.40624 0.0
C540 C 0.72049 0.09947 0.42639 0.0
C541 C 0.72097 0.07808 0.44273 0.0
C542 C 0.77759 0.08925 0.38084 0.0
C543 C 0.70054 0.11805 0.43133 0.0
H544 H 0.76411 0.18406 0.38936 0.0
H545 H 0.71642 0.15116 0.32909 0.0
H546 H 0.75426 0.1418 0.44342 0.0
H547 H 0.78112 0.13191 0.42535 0.0
H548 H 0.77593 0.16409 0.43074 0.0
H549 H 0.70329 0.11037 0.33244 0.0
H550 H 0.72432 0.09046 0.3505 0.0
H551 H 0.69755 0.10119 0.36808 0.0
H552 H 0.77293 0.05196 0.4175 0.0
H553 H 0.70698 0.07511 0.45847 0.0
H554 H 0.78885 0.1055 0.38597 0.0
H555 H 0.76926 0.09255 0.36002 0.0
H556 H 0.78984 0.0731 0.37939 0.0
H557 H 0.70876 0.13563 0.43802 0.0
H558 H 0.68729 0.11202 0.44758 0.0
H559 H 0.69044 0.12159 0.41164 0.0
C560 C 0.87796 0.71963 0.34048 0.0
C561 C 0.86084 0.73834 0.34447 0.0
C562 C 0.89718 0.7161 0.35954 0.0
C563 C 0.89884 0.73127 0.38345 0.0
C564 C 0.88108 0.74975 0.38791 0.0
C565 C 0.86247 0.75328 0.36812 0.0
C566 C 0.9161 0.69666 0.35366 0.0
C567 C 0.88189 0.76598 0.41342 0.0
C568 C 0.93764 0.71279 0.44609 0.0
C569 C 0.95748 0.72878 0.44332 0.0
C570 C 0.91856 0.71291 0.42637 0.0
C571 C 0.91985 0.7289 0.40305 0.0
C572 C 0.94065 0.74398 0.3994 0.0
C573 C 0.95901 0.74402 0.41983 0.0
C574 C 0.89644 0.69697 0.43131 0.0
C575 C 0.94311 0.76077 0.37445 0.0
H576 H 0.87663 0.70816 0.32205 0.0
H577 H 0.84903 0.76761 0.3712 0.0
H578 H 0.93429 0.70531 0.35081 0.0
H579 H 0.91757 0.68399 0.3717 0.0
H580 H 0.91174 0.68589 0.33462 0.0
H581 H 0.86567 0.77816 0.41486 0.0
H582 H 0.88283 0.75468 0.43269 0.0
H583 H 0.89858 0.77749 0.41282 0.0
H584 H 0.93637 0.70123 0.46447 0.0
H585 H 0.97446 0.75632 0.41767 0.0
H586 H 0.89223 0.68609 0.41236 0.0
H587 H 0.8803 0.70868 0.43563 0.0
H588 H 0.89903 0.6843 0.44924 0.0
H589 H 0.93969 0.75057 0.35479 0.0
H590 H 0.96152 0.76931 0.3732 0.0
H591 H 0.92924 0.77552 0.37578 0.0
C592 C 0.26302 0.87135 0.35171 0.0
C593 C 0.2721 0.84829 0.35934 0.0
C594 C 0.26407 0.89121 0.37023 0.0
C595 C 0.2741 0.88789 0.39726 0.0
C596 C 0.28359 0.86481 0.40502 0.0
C597 C 0.28264 0.84535 0.38591 0.0
C598 C 0.2539 0.9156 0.36111 0.0
C599 C 0.29422 0.86049 0.43374 0.0
C600 C 0.29152 0.94414 0.43966 0.0
C601 C 0.27051 0.9475 0.45608 0.0
C602 C 0.29303 0.92476 0.42042 0.0
C603 C 0.27324 0.90819 0.41796 0.0
C604 C 0.25225 0.91121 0.43496 0.0
C605 C 0.25107 0.93091 0.45363 0.0
C606 C 0.31557 0.92229 0.40236 0.0
C607 C 0.23091 0.89373 0.43331 0.0
H608 H 0.25452 0.8738 0.33144 0.0
H609 H 0.29016 0.82778 0.39186 0.0
H610 H 0.23764 0.92023 0.37395 0.0
H611 H 0.26766 0.93021 0.36447 0.0
H612 H 0.24847 0.91567 0.33872 0.0
H613 H 0.30161 0.8417 0.43619 0.0
H614 H 0.30911 0.87376 0.43791 0.0
H615 H 0.2799 0.86344 0.44987 0.0
H616 H 0.30655 0.95696 0.44139 0.0
H617 H 0.23486 0.93326 0.46644 0.0
H618 H 0.31044 0.9239 0.37997 0.0
H619 H 0.32388 0.90398 0.40527 0.0
H620 H 0.32953 0.93641 0.40717 0.0
H621 H 0.22286 0.89424 0.41203 0.0
H622 H 0.21634 0.89812 0.44872 0.0
H623 H 0.23726 0.87475 0.4371 0.0
C624 C 0.12603 0.72728 0.67417 0.0
C625 C 0.14715 0.74083 0.66778 0.0
C626 C 0.10741 0.72394 0.65432 0.0
C627 C 0.11011 0.73399 0.6272 0.0
C628 C 0.13176 0.74685 0.62023 0.0
C629 C 0.14988 0.75031 0.64063 0.0
C630 C 0.08449 0.71034 0.66267 0.0
C631 C 0.13546 0.75765 0.59144 0.0
C632 C 0.06871 0.71319 0.5677 0.0
C633 C 0.05236 0.73286 0.56587 0.0
C634 C 0.08749 0.71307 0.58782 0.0
C635 C 0.08956 0.73284 0.60682 0.0
C636 C 0.07243 0.75221 0.60571 0.0
C637 C 0.05423 0.7521 0.5851 0.0
C638 C 0.10563 0.69228 0.58808 0.0
C639 C 0.07364 0.77338 0.62592 0.0
H640 H 0.12391 0.71939 0.69483 0.0
H641 H 0.1659 0.76107 0.63546 0.0
H642 H 0.0686 0.72295 0.66196 0.0
H643 H 0.08078 0.69534 0.64768 0.0
H644 H 0.08577 0.7025 0.68406 0.0
H645 H 0.1542 0.76508 0.58855 0.0
H646 H 0.13207 0.74362 0.57516 0.0
H647 H 0.12213 0.77265 0.58802 0.0
H648 H 0.06741 0.69838 0.55273 0.0
H649 H 0.04149 0.76725 0.58392 0.0
H650 H 0.10679 0.68416 0.6093 0.0
H651 H 0.1241 0.69932 0.58274 0.0
H652 H 0.10075 0.67769 0.57295 0.0
H653 H 0.07376 0.76655 0.64779 0.0
H654 H 0.05802 0.78618 0.62341 0.0
H655 H 0.09088 0.7837 0.62264 0.0
C656 C 0.25888 0.16655 0.61366 0.0
C657 C 0.27391 0.16976 0.63704 0.0
C658 C 0.26003 0.14498 0.59779 0.0
C659 C 0.27609 0.12595 0.60605 0.0
C660 C 0.29125 0.12916 0.62976 0.0
C661 C 0.2902 0.1512 0.64477 0.0
C662 C 0.24395 0.1425 0.5723 0.0
C663 C 0.30809 0.1091 0.63972 0.0
C664 C 0.25764 0.0627 0.58122 0.0
C665 C 0.27373 0.0589 0.55879 0.0
C666 C 0.2589 0.08401 0.59746 0.0
C667 C 0.27617 0.10233 0.59054 0.0
C668 C 0.29277 0.0984 0.56816 0.0
C669 C 0.29158 0.07652 0.55279 0.0
C670 C 0.24137 0.08712 0.62165 0.0
C671 C 0.31105 0.11772 0.55972 0.0
H672 H 0.24639 0.18103 0.60768 0.0
H673 H 0.30169 0.15373 0.66302 0.0
H674 H 0.2552 0.1376 0.55379 0.0
H675 H 0.23056 0.12754 0.57554 0.0
H676 H 0.23375 0.15958 0.56762 0.0
H677 H 0.31895 0.11464 0.65829 0.0
H678 H 0.29721 0.09266 0.64522 0.0
H679 H 0.32087 0.10375 0.62275 0.0
H680 H 0.24391 0.04901 0.58598 0.0
H681 H 0.30385 0.07371 0.53524 0.0
H682 H 0.22855 0.10234 0.61719 0.0
H683 H 0.25154 0.09194 0.64095 0.0
H684 H 0.2305 0.07033 0.62572 0.0
H685 H 0.30122 0.13438 0.55274 0.0
H686 H 0.32324 0.1115 0.54252 0.0
H687 H 0.3225 0.12297 0.57788 0.0
C688 C 0.89034 0.21896 0.68149 0.0
C689 C 0.8666 0.2261 0.67405 0.0
C690 C 0.90912 0.21809 0.66144 0.0
C691 C 0.9039 0.22431 0.63331 0.0
C692 C 0.87979 0.23091 0.62559 0.0
C693 C 0.86145 0.23182 0.64609 0.0
C694 C 0.93465 0.21117 0.67047 0.0
C695 C 0.87346 0.23745 0.59576 0.0
C696 C 0.95354 0.24896 0.58567 0.0
C697 C 0.95876 0.22864 0.56882 0.0
C698 C 0.93632 0.24752 0.60734 0.0
C699 C 0.92382 0.22527 0.61215 0.0
C700 C 0.92946 0.20448 0.59574 0.0
C701 C 0.94699 0.20638 0.57432 0.0
C702 C 0.93099 0.27004 0.62457 0.0
C703 C 0.91637 0.18049 0.60019 0.0
H704 H 0.89437 0.21466 0.70314 0.0
H705 H 0.843 0.23696 0.64023 0.0
H706 H 0.94164 0.19592 0.65743 0.0
H707 H 0.94716 0.22691 0.6673 0.0
H708 H 0.93541 0.20561 0.69281 0.0
H709 H 0.85359 0.24093 0.59296 0.0
H710 H 0.88366 0.25406 0.58934 0.0
H711 H 0.87903 0.22248 0.58146 0.0
H712 H 0.96272 0.26618 0.5817 0.0
H713 H 0.9509 0.19062 0.56134 0.0
H714 H 0.93279 0.26584 0.64718 0.0
H715 H 0.91187 0.27604 0.62095 0.0
H716 H 0.94342 0.28545 0.61936 0.0
H717 H 0.91766 0.17482 0.62242 0.0
H718 H 0.92393 0.16567 0.58687 0.0
H719 H 0.89667 0.1827 0.59527 0.0
C720 C 0.71687 0.86969 0.64416 0.0
C721 C 0.73033 0.84866 0.6372 0.0
C722 C 0.71608 0.88999 0.62617 0.0
C723 C 0.72862 0.88913 0.60027 0.0
C724 C 0.74147 0.86769 0.59261 0.0
C725 C 0.7424 0.84786 0.61124 0.0
C726 C 0.70245 0.91263 0.63528 0.0
C727 C 0.75486 0.86593 0.56502 0.0
C728 C 0.71413 0.93582 0.54342 0.0
C729 C 0.73422 0.95161 0.54557 0.0
C730 C 0.71187 0.91546 0.56125 0.0
C731 C 0.72983 0.9112 0.58205 0.0
C732 C 0.74963 0.92767 0.58493 0.0
C733 C 0.75172 0.94748 0.56647 0.0
C734 C 0.69075 0.89806 0.55723 0.0
C735 C 0.76887 0.92415 0.60722 0.0
H736 H 0.707 0.87039 0.66382 0.0
H737 H 0.75315 0.83195 0.6057 0.0
H738 H 0.71548 0.92806 0.63749 0.0
H739 H 0.68887 0.91798 0.61919 0.0
H740 H 0.6928 0.91003 0.65554 0.0
H741 H 0.76206 0.84726 0.56107 0.0
H742 H 0.74252 0.87108 0.54756 0.0
H743 H 0.77043 0.87893 0.56481 0.0
H744 H 0.70067 0.93889 0.52716 0.0
H745 H 0.76716 0.95979 0.56838 0.0
H746 H 0.68058 0.89569 0.57714 0.0
H747 H 0.69782 0.87982 0.5511 0.0
H748 H 0.67781 0.90447 0.54089 0.0
H749 H 0.76012 0.92256 0.6281 0.0
H750 H 0.78223 0.93944 0.60778 0.0
H751 H 0.779 0.90691 0.60337 0.0
C752 C 0.86456 0.77906 0.65501 0.0
C753 C 0.84291 0.76909 0.64415 0.0
C754 C 0.88554 0.78175 0.63821 0.0
C755 C 0.88485 0.77447 0.60978 0.0
C756 C 0.86278 0.7652 0.59847 0.0
C757 C 0.84215 0.76253 0.61579 0.0
C758 C 0.90873 0.79149 0.65117 0.0
C759 C 0.86115 0.7574 0.56824 0.0
C760 C 0.93515 0.79389 0.55876 0.0
C761 C 0.94936 0.77258 0.55729 0.0
C762 C 0.91428 0.79501 0.57609 0.0
C763 C 0.90766 0.77443 0.59251 0.0
C764 C 0.92244 0.75321 0.59175 0.0
C765 C 0.94296 0.75252 0.57412 0.0
C766 C 0.89892 0.81792 0.57624 0.0
C767 C 0.91629 0.73096 0.60911 0.0
H768 H 0.86536 0.784 0.67694 0.0
H769 H 0.82537 0.75518 0.60715 0.0
H770 H 0.92275 0.77684 0.65173 0.0
H771 H 0.91626 0.80663 0.63834 0.0
H772 H 0.90576 0.79822 0.67284 0.0
H773 H 0.84221 0.75241 0.5621 0.0
H774 H 0.86767 0.77229 0.55434 0.0
H775 H 0.87319 0.74138 0.56465 0.0
H776 H 0.93991 0.80943 0.54578 0.0
H777 H 0.95393 0.73602 0.57335 0.0
H778 H 0.8965 0.82462 0.59796 0.0
H779 H 0.88044 0.8138 0.56791 0.0
H780 H 0.90716 0.83274 0.56343 0.0
H781 H 0.91459 0.73606 0.63149 0.0
H782 H 0.9303 0.71635 0.60717 0.0
H783 H 0.89838 0.72342 0.60246 0.0
C784 C 0.21642 0.85531 0.64684 0.0
C785 C 0.23084 0.85741 0.67089 0.0
C786 C 0.21564 0.87423 0.62697 0.0
C787 C 0.22911 0.89596 0.63175 0.0
C788 C 0.24308 0.89839 0.65654 0.0
C789 C 0.24404 0.87891 0.67564 0.0
C790 C 0.20106 0.87067 0.60049 0.0
C791 C 0.25726 0.92143 0.66271 0.0
C792 C 0.24996 0.93463 0.57026 0.0
C793 C 0.23226 0.95317 0.56974 0.0
C794 C 0.24878 0.91565 0.58993 0.0
C795 C 0.22982 0.91554 0.61012 0.0
C796 C 0.21194 0.93431 0.60983 0.0
C797 C 0.21316 0.95274 0.58933 0.0
C798 C 0.26783 0.89566 0.58902 0.0
C799 C 0.1918 0.93513 0.63145 0.0
H800 H 0.2063 0.83857 0.64323 0.0
H801 H 0.25502 0.8805 0.69443 0.0
H802 H 0.18763 0.8857 0.59795 0.0
H803 H 0.21348 0.87128 0.58212 0.0
H804 H 0.19109 0.85298 0.60032 0.0
H805 H 0.26558 0.92115 0.6839 0.0
H806 H 0.27207 0.92377 0.64705 0.0
H807 H 0.24508 0.9376 0.66107 0.0
H808 H 0.26459 0.93474 0.55491 0.0
H809 H 0.19952 0.96711 0.589 0.0
H810 H 0.25881 0.87755 0.58742 0.0
H811 H 0.2786 0.89569 0.60867 0.0
H812 H 0.28064 0.89778 0.57111 0.0
H813 H 0.18078 0.91814 0.63055 0.0
H814 H 0.17943 0.95102 0.62846 0.0
H815 H 0.19988 0.93616 0.65271 0.0
C816 C 0.14621 0.2876 0.64391 0.0
C817 C 0.16785 0.27626 0.63474 0.0
C818 C 0.12512 0.28785 0.62722 0.0
C819 C 0.12573 0.27694 0.60041 0.0
C820 C 0.14771 0.26629 0.59053 0.0
C821 C 0.16843 0.26588 0.60789 0.0
C822 C 0.10196 0.29914 0.63865 0.0
C823 C 0.14918 0.25475 0.5619 0.0
C824 C 0.06672 0.2526 0.56937 0.0
C825 C 0.06015 0.27129 0.55076 0.0
C826 C 0.08779 0.25444 0.58593 0.0
C827 C 0.10297 0.27528 0.58344 0.0
C828 C 0.09641 0.29428 0.56474 0.0
C829 C 0.0749 0.29218 0.54881 0.0
C830 C 0.09382 0.234 0.60605 0.0
C831 C 0.11237 0.31659 0.56119 0.0
H832 H 0.14567 0.29622 0.6643 0.0
H833 H 0.18489 0.25684 0.60064 0.0
H834 H 0.09502 0.31331 0.62407 0.0
H835 H 0.08755 0.28494 0.64051 0.0
H836 H 0.10473 0.3076 0.65953 0.0
H837 H 0.16812 0.24917 0.55638 0.0
H838 H 0.13727 0.23835 0.56119 0.0
H839 H 0.14242 0.26767 0.54577 0.0
H840 H 0.05528 0.23649 0.57113 0.0
H841 H 0.06998 0.3066 0.5343 0.0
H842 H 0.09563 0.24134 0.62758 0.0
H843 H 0.11164 0.22567 0.60035 0.0
H844 H 0.07967 0.21944 0.60615 0.0
H845 H 0.11473 0.32597 0.58156 0.0
H846 H 0.10464 0.3298 0.54591 0.0
H847 H 0.13083 0.311 0.55392 0.0
C848 C 0.76379 0.14224 0.64003 0.0
C849 C 0.77449 0.13852 0.66638 0.0
C850 C 0.76606 0.12484 0.61866 0.0
C851 C 0.77886 0.10282 0.62387 0.0
C852 C 0.78968 0.09884 0.65036 0.0
C853 C 0.78757 0.11682 0.6712 0.0
C854 C 0.75442 0.12988 0.59059 0.0
C855 C 0.80314 0.07542 0.65684 0.0
C856 C 0.75971 0.05005 0.57755 0.0
C857 C 0.77855 0.04954 0.55762 0.0
C858 C 0.76017 0.06662 0.59987 0.0
C859 C 0.77967 0.0835 0.60198 0.0
C860 C 0.79906 0.08274 0.58227 0.0
C861 C 0.79841 0.06552 0.56044 0.0
C862 C 0.73942 0.06644 0.62079 0.0
C863 C 0.81994 0.10075 0.58356 0.0
H864 H 0.75325 0.15865 0.63612 0.0
H865 H 0.79631 0.11388 0.69125 0.0
H866 H 0.76811 0.12762 0.57362 0.0
H867 H 0.73954 0.11654 0.58672 0.0
H868 H 0.74665 0.1486 0.58927 0.0
H869 H 0.81088 0.0753 0.67832 0.0
H870 H 0.79051 0.05966 0.65471 0.0
H871 H 0.81823 0.07266 0.64164 0.0
H872 H 0.74446 0.03751 0.5756 0.0
H873 H 0.81293 0.06523 0.54497 0.0
H874 H 0.72885 0.08368 0.6191 0.0
H875 H 0.74672 0.06542 0.64241 0.0
H876 H 0.72672 0.05087 0.61749 0.0
H877 H 0.81287 0.11951 0.58002 0.0
H878 H 0.83426 0.09686 0.56767 0.0
H879 H 0.82845 0.10048 0.6046 0.0
C880 C 0.83681 0.28735 0.39512 0.0
C881 C 0.83836 0.27792 0.36785 0.0
C882 C 0.8571 0.28694 0.41314 0.0
C883 C 0.8796 0.27719 0.40357 0.0
C884 C 0.88139 0.26794 0.376 0.0
C885 C 0.86074 0.2682 0.35862 0.0
C886 C 0.85441 0.29669 0.44252 0.0
C887 C 0.90508 0.25749 0.36494 0.0
C888 C 0.93883 0.29284 0.44134 0.0
C889 C 0.94315 0.27132 0.4565 0.0
C890 C 0.91806 0.29516 0.42421 0.0
C891 C 0.90105 0.27567 0.42265 0.0
C892 C 0.905 0.25421 0.43855 0.0
C893 C 0.92609 0.25222 0.45506 0.0
C894 C 0.91465 0.31817 0.40723 0.0
C895 C 0.88711 0.23318 0.43785 0.0
H896 H 0.81977 0.29524 0.40237 0.0
H897 H 0.86209 0.26043 0.33783 0.0
H898 H 0.85842 0.28199 0.45786 0.0
H899 H 0.86781 0.31156 0.44617 0.0
H900 H 0.83573 0.30384 0.44669 0.0
H901 H 0.90381 0.25229 0.34253 0.0
H902 H 0.92006 0.271 0.36738 0.0
H903 H 0.9102 0.24105 0.3772 0.0
H904 H 0.95199 0.30763 0.44232 0.0
H905 H 0.92917 0.23563 0.46696 0.0
H906 H 0.89658 0.32647 0.41186 0.0
H907 H 0.91491 0.31366 0.3846 0.0
H908 H 0.92912 0.33193 0.41143 0.0
H909 H 0.86847 0.23972 0.44317 0.0
H910 H 0.89218 0.21835 0.45263 0.0
H911 H 0.8863 0.22544 0.41643 0.0
C912 C 0.79437 0.87504 0.33341 0.0
C913 C 0.77966 0.85483 0.34029 0.0
C914 C 0.79619 0.89527 0.35135 0.0
C915 C 0.78346 0.89513 0.37714 0.0
C916 C 0.76928 0.8745 0.3847 0.0
C917 C 0.76733 0.85477 0.36609 0.0
C918 C 0.81123 0.91706 0.34237 0.0
C919 C 0.75567 0.8735 0.41221 0.0
C920 C 0.80068 0.93956 0.43513 0.0
C921 C 0.78147 0.95647 0.43357 0.0
C922 C 0.80189 0.91967 0.41655 0.0
C923 C 0.78377 0.91705 0.39559 0.0
C924 C 0.76505 0.93479 0.39313 0.0
C925 C 0.76396 0.9541 0.41235 0.0
C926 C 0.82186 0.90089 0.42017 0.0
C927 C 0.74571 0.93301 0.37068 0.0
H928 H 0.80444 0.87515 0.31387 0.0
H929 H 0.75561 0.83953 0.37157 0.0
H930 H 0.79925 0.93334 0.34043 0.0
H931 H 0.82521 0.92133 0.35843 0.0
H932 H 0.8206 0.91403 0.32203 0.0
H933 H 0.74711 0.85538 0.41596 0.0
H934 H 0.76829 0.87757 0.42976 0.0
H935 H 0.7411 0.88761 0.41247 0.0
H936 H 0.81411 0.94122 0.45168 0.0
H937 H 0.74917 0.96726 0.41097 0.0
H938 H 0.83159 0.89788 0.4001 0.0
H939 H 0.81365 0.88316 0.42643 0.0
H940 H 0.8354 0.90636 0.4363 0.0
H941 H 0.75441 0.93085 0.34983 0.0
H942 H 0.73364 0.94933 0.37018 0.0
H943 H 0.7342 0.91662 0.37437 0.0
C944 C 0.16296 0.76158 0.38491 0.0
C945 C 0.16102 0.76721 0.35636 0.0
C946 C 0.14296 0.76447 0.4031 0.0
C947 C 0.12031 0.77297 0.39249 0.0
C948 C 0.11842 0.77933 0.36383 0.0
C949 C 0.13882 0.77648 0.34614 0.0
C950 C 0.14586 0.75771 0.43355 0.0
C951 C 0.09458 0.78821 0.3516 0.0
C952 C 0.06414 0.75108 0.43206 0.0
C953 C 0.05793 0.77157 0.44823 0.0
C954 C 0.08393 0.7516 0.41336 0.0
C955 C 0.09818 0.77308 0.41086 0.0
C956 C 0.09176 0.79405 0.42667 0.0
C957 C 0.07159 0.7931 0.44507 0.0
C958 C 0.08988 0.72891 0.39669 0.0
C959 C 0.1066 0.81723 0.42472 0.0
H960 H 0.18018 0.75479 0.39302 0.0
H961 H 0.13714 0.78072 0.32407 0.0
H962 H 0.13953 0.77291 0.44709 0.0
H963 H 0.13434 0.74157 0.43843 0.0
H964 H 0.16512 0.75332 0.43898 0.0
H965 H 0.09661 0.79427 0.32952 0.0
H966 H 0.08085 0.77329 0.35239 0.0
H967 H 0.08722 0.80361 0.36411 0.0
H968 H 0.05356 0.73441 0.43411 0.0
H969 H 0.06695 0.80898 0.45753 0.0
H970 H 0.10817 0.72193 0.40275 0.0
H971 H 0.09062 0.73332 0.37404 0.0
H972 H 0.07625 0.71412 0.39997 0.0
H973 H 0.12548 0.81374 0.43223 0.0
H974 H 0.09856 0.83229 0.4373 0.0
H975 H 0.10801 0.82327 0.40261 0.0
C976 C 0.21262 0.11526 0.33389 0.0
C977 C 0.2267 0.13638 0.33825 0.0
C978 C 0.2106 0.09717 0.35466 0.0
C979 C 0.22266 0.10042 0.38058 0.0
C980 C 0.23641 0.12192 0.38537 0.0
C981 C 0.23846 0.13948 0.3641 0.0
C982 C 0.19601 0.07435 0.34867 0.0
C983 C 0.24946 0.12615 0.41278 0.0
C984 C 0.20616 0.06275 0.44494 0.0
C985 C 0.22586 0.04641 0.446 0.0
C986 C 0.2044 0.0801 0.42328 0.0
C987 C 0.22251 0.08068 0.40202 0.0
C988 C 0.2417 0.06333 0.40231 0.0
C989 C 0.24326 0.04659 0.42441 0.0
C990 C 0.18386 0.09852 0.42386 0.0
C991 C 0.26113 0.06299 0.37979 0.0
H992 H 0.20309 0.11285 0.31423 0.0
H993 H 0.24972 0.15547 0.36762 0.0
H994 H 0.20826 0.05819 0.34917 0.0
H995 H 0.18189 0.07159 0.36506 0.0
H996 H 0.18687 0.07506 0.32794 0.0
H997 H 0.25777 0.14464 0.414 0.0
H998 H 0.23655 0.12391 0.43053 0.0
H999 H 0.26417 0.11237 0.41542 0.0
H1000 H 0.19275 0.0627 0.46168 0.0
H1001 H 0.25838 0.03377 0.42499 0.0
H1002 H 0.17443 0.0991 0.40334 0.0
H1003 H 0.19147 0.11701 0.42772 0.0
H1004 H 0.17018 0.09439 0.44041 0.0
H1005 H 0.25254 0.06261 0.35878 0.0
H1006 H 0.27353 0.04699 0.38174 0.0
H1007 H 0.27229 0.07988 0.38104 0.0
C1008 C 0.61659 0.74186 0.82837 0.0
C1009 C 0.63838 0.72848 0.82957 0.0
C1010 C 0.59869 0.73938 0.84927 0.0
C1011 C 0.60305 0.72367 0.87232 0.0
C1012 C 0.62488 0.70973 0.87329 0.0
C1013 C 0.64219 0.7121 0.85168 0.0
C1014 C 0.57544 0.75415 0.84712 0.0
C1015 C 0.63052 0.69324 0.89778 0.0
C1016 C 0.57087 0.74242 0.93934 0.0
C1017 C 0.55159 0.72559 0.9408 0.0
C1018 C 0.58818 0.74139 0.9177 0.0
C1019 C 0.58576 0.72353 0.89647 0.0
C1020 C 0.5664 0.70633 0.89793 0.0
C1021 C 0.54971 0.70734 0.92037 0.0
C1022 C 0.6089 0.75966 0.91739 0.0
C1023 C 0.56289 0.6874 0.87536 0.0
H1024 H 0.61367 0.75442 0.81113 0.0
H1025 H 0.65918 0.7019 0.85263 0.0
H1026 H 0.55926 0.74221 0.8503 0.0
H1027 H 0.57509 0.76824 0.86378 0.0
H1028 H 0.57371 0.76345 0.82654 0.0
H1029 H 0.64745 0.68239 0.89444 0.0
H1030 H 0.63285 0.70445 0.91694 0.0
H1031 H 0.61511 0.68052 0.90169 0.0
H1032 H 0.57252 0.75639 0.9553 0.0
H1033 H 0.53471 0.69441 0.92141 0.0
H1034 H 0.60719 0.77178 0.89888 0.0
H1035 H 0.6267 0.75003 0.91565 0.0
H1036 H 0.60916 0.77121 0.93649 0.0
H1037 H 0.55935 0.69662 0.85508 0.0
H1038 H 0.5474 0.67489 0.87999 0.0
H1039 H 0.57977 0.67639 0.87277 0.0
C1040 C 0.24973 0.66181 0.89837 0.0
C1041 C 0.2352 0.6643 0.87446 0.0
C1042 C 0.24798 0.64088 0.91529 0.0
C1043 C 0.23184 0.62177 0.90758 0.0
C1044 C 0.21713 0.62428 0.88339 0.0
C1045 C 0.21878 0.64569 0.8673 0.0
C1046 C 0.26359 0.63911 0.94124 0.0
C1047 C 0.20023 0.60407 0.87402 0.0
C1048 C 0.24939 0.55908 0.9348 0.0
C1049 C 0.2329 0.5559 0.95697 0.0
C1050 C 0.24861 0.58003 0.91794 0.0
C1051 C 0.2314 0.59863 0.92397 0.0
C1052 C 0.21442 0.59535 0.94611 0.0
C1053 C 0.21514 0.57379 0.96214 0.0
C1054 C 0.26654 0.58245 0.89401 0.0
C1055 C 0.19618 0.61501 0.95355 0.0
H1056 H 0.26231 0.67633 0.90389 0.0
H1057 H 0.20769 0.64765 0.84864 0.0
H1058 H 0.252 0.63479 0.95968 0.0
H1059 H 0.27699 0.62403 0.93891 0.0
H1060 H 0.27376 0.65629 0.94545 0.0
H1061 H 0.18959 0.60916 0.85511 0.0
H1062 H 0.21105 0.58741 0.86929 0.0
H1063 H 0.18726 0.59929 0.89103 0.0
H1064 H 0.26305 0.54514 0.93072 0.0
H1065 H 0.20258 0.57142 0.9795 0.0
H1066 H 0.27931 0.59776 0.89816 0.0
H1067 H 0.25668 0.58676 0.87434 0.0
H1068 H 0.27743 0.56554 0.8908 0.0
H1069 H 0.20604 0.63177 0.96011 0.0
H1070 H 0.18373 0.60932 0.97076 0.0
H1071 H 0.18501 0.61988 0.93502 0.0
C1072 C 0.36342 0.26529 0.85802 0.0
C1073 C 0.36673 0.27672 0.83197 0.0
C1074 C 0.38148 0.26639 0.87876 0.0
C1075 C 0.40373 0.27867 0.87314 0.0
C1076 C 0.40736 0.29008 0.84688 0.0
C1077 C 0.38872 0.2892 0.82673 0.0
C1078 C 0.37681 0.25423 0.90665 0.0
C1079 C 0.43103 0.30299 0.83998 0.0
C1080 C 0.44238 0.29688 0.93574 0.0
C1081 C 0.45813 0.27678 0.938 0.0
C1082 C 0.42479 0.298 0.91439 0.0
C1083 C 0.42341 0.27884 0.89454 0.0
C1084 C 0.44004 0.25906 0.89606 0.0
C1085 C 0.45699 0.25812 0.91799 0.0
C1086 C 0.40704 0.31913 0.91376 0.0
C1087 C 0.43954 0.23858 0.8749 0.0
H1088 H 0.34677 0.25518 0.86218 0.0
H1089 H 0.39136 0.29848 0.80692 0.0
H1090 H 0.39005 0.23913 0.90985 0.0
H1091 H 0.37956 0.26752 0.92388 0.0
H1092 H 0.358 0.24668 0.90827 0.0
H1093 H 0.43103 0.31081 0.81852 0.0
H1094 H 0.43431 0.31796 0.85515 0.0
H1095 H 0.44656 0.29003 0.84182 0.0
H1096 H 0.44314 0.31124 0.95132 0.0
H1097 H 0.46934 0.24267 0.91956 0.0
H1098 H 0.3882 0.31228 0.91745 0.0
H1099 H 0.4072 0.32798 0.89288 0.0
H1100 H 0.4113 0.33313 0.92985 0.0
H1101 H 0.42216 0.22826 0.87688 0.0
H1102 H 0.455 0.22563 0.87769 0.0
H1103 H 0.44029 0.24611 0.85336 0.0
C1104 C 0.75856 0.33649 0.89104 0.0
C1105 C 0.7687 0.3362 0.86405 0.0
C1106 C 0.7595 0.35762 0.90769 0.0
C1107 C 0.77052 0.3791 0.89696 0.0
C1108 C 0.78115 0.37884 0.86997 0.0
C1109 C 0.78033 0.35736 0.85399 0.0
C1110 C 0.7482 0.35711 0.93654 0.0
C1111 C 0.79287 0.40142 0.85767 0.0
C1112 C 0.74828 0.43926 0.92717 0.0
C1113 C 0.76734 0.44546 0.94543 0.0
C1114 C 0.74933 0.41796 0.91092 0.0
C1115 C 0.76976 0.4022 0.91336 0.0
C1116 C 0.7892 0.40846 0.93156 0.0
C1117 C 0.78786 0.43016 0.9472 0.0
C1118 C 0.72846 0.41221 0.89133 0.0
C1119 C 0.8111 0.39193 0.935 0.0
H1120 H 0.74933 0.32039 0.89897 0.0
H1121 H 0.78877 0.35722 0.83346 0.0
H1122 H 0.76155 0.36368 0.95228 0.0
H1123 H 0.73224 0.36961 0.93724 0.0
H1124 H 0.742 0.33851 0.94262 0.0
H1125 H 0.8009 0.39802 0.83666 0.0
H1126 H 0.77903 0.41617 0.8558 0.0
H1127 H 0.80749 0.40823 0.87171 0.0
H1128 H 0.73243 0.45109 0.92558 0.0
H1129 H 0.80255 0.43477 0.96147 0.0
H1130 H 0.7196 0.39483 0.89767 0.0
H1131 H 0.73548 0.40971 0.86973 0.0
H1132 H 0.71436 0.42683 0.89111 0.0
H1133 H 0.8051 0.37386 0.94301 0.0
H1134 H 0.82485 0.39961 0.94965 0.0
H1135 H 0.82002 0.38879 0.91446 0.0
C1136 C 0.61922 0.29467 0.17398 0.0
C1137 C 0.64145 0.28298 0.16782 0.0
C1138 C 0.60032 0.29583 0.15417 0.0
C1139 C 0.60386 0.28534 0.12743 0.0
C1140 C 0.62649 0.27418 0.12077 0.0
C1141 C 0.64492 0.27296 0.14109 0.0
C1142 C 0.57637 0.30771 0.16209 0.0
C1143 C 0.63102 0.26293 0.09238 0.0
C1144 C 0.55003 0.26205 0.08546 0.0
C1145 C 0.54713 0.28051 0.06538 0.0
C1146 C 0.56783 0.26388 0.10639 0.0
C1147 C 0.58342 0.28451 0.10698 0.0
C1148 C 0.58019 0.30355 0.08723 0.0
C1149 C 0.56189 0.30142 0.06675 0.0
C1150 C 0.5704 0.24338 0.12738 0.0
C1151 C 0.59668 0.32567 0.08704 0.0
H1152 H 0.61652 0.30291 0.19436 0.0
H1153 H 0.66188 0.26363 0.1362 0.0
H1154 H 0.57159 0.32215 0.14674 0.0
H1155 H 0.5615 0.29392 0.16158 0.0
H1156 H 0.57693 0.31597 0.18331 0.0
H1157 H 0.65021 0.25663 0.08981 0.0
H1158 H 0.61868 0.24705 0.08938 0.0
H1159 H 0.62685 0.27633 0.07561 0.0
H1160 H 0.5385 0.24594 0.08464 0.0
H1161 H 0.55978 0.31566 0.05115 0.0
H1162 H 0.5699 0.25076 0.14899 0.0
H1163 H 0.58834 0.23423 0.12456 0.0
H1164 H 0.55574 0.22946 0.12523 0.0
H1165 H 0.59708 0.33426 0.10804 0.0
H1166 H 0.59079 0.33956 0.07148 0.0
H1167 H 0.61567 0.31998 0.082 0.0
C1168 C 0.75995 0.65921 0.11492 0.0
C1169 C 0.7682 0.65723 0.14263 0.0
C1170 C 0.76208 0.63955 0.09623 0.0
C1171 C 0.77238 0.61723 0.10554 0.0
C1172 C 0.78128 0.61528 0.13322 0.0
C1173 C 0.77926 0.63534 0.15134 0.0
C1174 C 0.75255 0.64239 0.06677 0.0
C1175 C 0.79217 0.59173 0.14402 0.0
C1176 C 0.74962 0.56046 0.06857 0.0
C1177 C 0.7691 0.55503 0.05049 0.0
C1178 C 0.75078 0.58028 0.08702 0.0
C1179 C 0.7718 0.59534 0.08711 0.0
C1180 C 0.79176 0.58975 0.06926 0.0
C1181 C 0.79026 0.56945 0.05129 0.0
C1182 C 0.7293 0.5853 0.1061 0.0
C1183 C 0.81434 0.6056 0.06858 0.0
H1184 H 0.7512 0.67592 0.108 0.0
H1185 H 0.78624 0.63379 0.17247 0.0
H1186 H 0.7666 0.63646 0.05143 0.0
H1187 H 0.7363 0.63055 0.06383 0.0
H1188 H 0.74727 0.66155 0.06199 0.0
H1189 H 0.79959 0.59365 0.16553 0.0
H1190 H 0.77796 0.57726 0.1442 0.0
H1191 H 0.80706 0.58546 0.12998 0.0
H1192 H 0.7333 0.54921 0.06823 0.0
H1193 H 0.80529 0.56537 0.03722 0.0
H1194 H 0.72115 0.6033 0.10091 0.0
H1195 H 0.73549 0.58614 0.12817 0.0
H1196 H 0.71483 0.57113 0.10437 0.0
H1197 H 0.80938 0.62427 0.06151 0.0
H1198 H 0.82863 0.59824 0.05435 0.0
H1199 H 0.82216 0.60731 0.08989 0.0
C1200 C 0.38519 0.71665 0.1748 0.0
C1201 C 0.36233 0.72598 0.16683 0.0
C1202 C 0.40419 0.71395 0.15518 0.0
C1203 C 0.40017 0.72064 0.12692 0.0
C1204 C 0.37682 0.72913 0.11858 0.0
C1205 C 0.35823 0.73176 0.13863 0.0
C1206 C 0.42884 0.70495 0.16494 0.0
C1207 C 0.37171 0.73629 0.08863 0.0
C1208 C 0.4528 0.74393 0.08259 0.0
C1209 C 0.45763 0.72396 0.06503 0.0
C1210 C 0.4347 0.74274 0.10333 0.0
C1211 C 0.42088 0.72107 0.10661 0.0
C1212 C 0.4261 0.70054 0.08954 0.0
C1213 C 0.44451 0.70219 0.06899 0.0
C1214 C 0.4299 0.76499 0.12122 0.0
C1215 C 0.41169 0.67715 0.09239 0.0
H1216 H 0.3885 0.71226 0.19659 0.0
H1217 H 0.34046 0.73855 0.13226 0.0
H1218 H 0.43542 0.68994 0.15129 0.0
H1219 H 0.44238 0.72001 0.16346 0.0
H1220 H 0.42835 0.69832 0.18691 0.0
H1221 H 0.3521 0.74063 0.0851 0.0
H1222 H 0.38276 0.75258 0.083 0.0
H1223 H 0.37714 0.72133 0.07425 0.0
H1224 H 0.46298 0.76077 0.0799 0.0
H1225 H 0.44811 0.6867 0.05548 0.0
H1226 H 0.43083 0.76008 0.14371 0.0
H1227 H 0.4112 0.77199 0.11711 0.0
H1228 H 0.44318 0.77994 0.11709 0.0
H1229 H 0.41171 0.67086 0.11446 0.0
H1230 H 0.41911 0.66232 0.07898 0.0
H1231 H 0.39236 0.68047 0.08645 0.0
C1232 C 0.24421 0.33506 0.11442 0.0
C1233 C 0.23443 0.33508 0.1416 0.0
C1234 C 0.24303 0.35597 0.0974 0.0
C1235 C 0.23218 0.3776 0.10794 0.0
C1236 C 0.222 0.37769 0.13517 0.0
C1237 C 0.22303 0.3564 0.15153 0.0
C1238 C 0.25387 0.35508 0.06835 0.0
C1239 C 0.21053 0.40045 0.14729 0.0
C1240 C 0.2543 0.43714 0.076 0.0
C1241 C 0.23503 0.44319 0.05793 0.0
C1242 C 0.25333 0.41614 0.09278 0.0
C1243 C 0.23277 0.40049 0.09109 0.0
C1244 C 0.21311 0.4066 0.0731 0.0
C1245 C 0.21437 0.42805 0.05691 0.0
C1246 C 0.27444 0.41058 0.11212 0.0
C1247 C 0.19106 0.39017 0.07044 0.0
H1248 H 0.2533 0.31885 0.10658 0.0
H1249 H 0.21488 0.35652 0.17221 0.0
H1250 H 0.24028 0.36149 0.05276 0.0
H1251 H 0.26984 0.36753 0.06708 0.0
H1252 H 0.25993 0.33639 0.06248 0.0
H1253 H 0.20285 0.39733 0.16853 0.0
H1254 H 0.22442 0.41519 0.14858 0.0
H1255 H 0.19569 0.40711 0.13344 0.0
H1256 H 0.27024 0.44889 0.07704 0.0
H1257 H 0.19951 0.43256 0.04282 0.0
H1258 H 0.28316 0.39308 0.10598 0.0
H1259 H 0.2677 0.40838 0.13389 0.0
H1260 H 0.28858 0.42515 0.11183 0.0
H1261 H 0.19684 0.37196 0.06267 0.0
H1262 H 0.17713 0.39774 0.05593 0.0
H1263 H 0.18246 0.38735 0.09123 0.0
C1264 C 0.36212 0.23582 0.15222 0.0
C1265 C 0.33908 0.23052 0.1409 0.0
C1266 C 0.38319 0.23591 0.13536 0.0
C1267 C 0.38113 0.23078 0.10643 0.0
C1268 C 0.35794 0.22514 0.09494 0.0
C1269 C 0.33721 0.22497 0.11234 0.0
C1270 C 0.4076 0.2418 0.14846 0.0
C1271 C 0.35494 0.21985 0.06413 0.0
C1272 C 0.43005 0.25698 0.05859 0.0
C1273 C 0.44475 0.23648 0.05318 0.0
C1274 C 0.40924 0.25528 0.07567 0.0
C1275 C 0.40302 0.23258 0.08795 0.0
C1276 C 0.41778 0.21179 0.08267 0.0
C1277 C 0.43842 0.21396 0.06522 0.0
C1278 C 0.39388 0.27784 0.08057 0.0
C1279 C 0.41183 0.18732 0.09559 0.0
H1280 H 0.3637 0.23978 0.17436 0.0
H1281 H 0.3194 0.22106 0.10346 0.0
H1282 H 0.42092 0.22702 0.14393 0.0
H1283 H 0.41502 0.25887 0.13924 0.0
H1284 H 0.40628 0.24416 0.17149 0.0
H1285 H 0.33584 0.21487 0.05868 0.0
H1286 H 0.36028 0.23616 0.05173 0.0
H1287 H 0.36722 0.20469 0.05778 0.0
H1288 H 0.43468 0.27445 0.04927 0.0
H1289 H 0.4497 0.19805 0.06121 0.0
H1290 H 0.39337 0.2822 0.10322 0.0
H1291 H 0.37477 0.27445 0.07384 0.0
H1292 H 0.40098 0.29402 0.06909 0.0
H1293 H 0.41172 0.18888 0.11873 0.0
H1294 H 0.42515 0.17294 0.08947 0.0
H1295 H 0.39326 0.18142 0.08915 0.0
C1296 C 0.70478 0.37271 0.15315 0.0
C1297 C 0.72169 0.37734 0.17449 0.0
C1298 C 0.70281 0.38843 0.13 0.0
C1299 C 0.71775 0.40955 0.12856 0.0
C1300 C 0.73411 0.4148 0.15074 0.0
C1301 C 0.73613 0.39843 0.17326 0.0
C1302 C 0.68561 0.38183 0.10652 0.0
C1303 C 0.75 0.43736 0.1503 0.0
C1304 C 0.73712 0.43644 0.05881 0.0
C1305 C 0.72147 0.4566 0.05628 0.0
C1306 C 0.73531 0.42041 0.0816 0.0
C1307 C 0.7179 0.42506 0.1029 0.0
C1308 C 0.70168 0.44515 0.10019 0.0
C1309 C 0.70343 0.46053 0.07664 0.0
C1310 C 0.7525 0.39884 0.08322 0.0
C1311 C 0.68324 0.451 0.12274 0.0
H1312 H 0.69378 0.35623 0.15404 0.0
H1313 H 0.74911 0.40202 0.18989 0.0
H1314 H 0.67351 0.39748 0.10145 0.0
H1315 H 0.69634 0.3776 0.0874 0.0
H1316 H 0.67405 0.36575 0.11172 0.0
H1317 H 0.75987 0.44007 0.17036 0.0
H1318 H 0.7637 0.43586 0.13324 0.0
H1319 H 0.73874 0.45381 0.146 0.0
H1320 H 0.75097 0.43329 0.04293 0.0
H1321 H 0.69148 0.47625 0.0748 0.0
H1322 H 0.74205 0.38177 0.08702 0.0
H1323 H 0.76525 0.40124 0.10104 0.0
H1324 H 0.76346 0.39659 0.06379 0.0
H1325 H 0.67181 0.43475 0.12739 0.0
H1326 H 0.67106 0.4664 0.11678 0.0
H1327 H 0.69296 0.45591 0.14231 0.0
C1328 C 0.66743 0.77205 0.11817 0.0
C1329 C 0.66448 0.76555 0.14637 0.0
C1330 C 0.64725 0.7732 0.1 0.0
C1331 C 0.62352 0.76795 0.11034 0.0
C1332 C 0.62037 0.76207 0.13898 0.0
C1333 C 0.64088 0.76083 0.1566 0.0
C1334 C 0.65143 0.77929 0.06955 0.0
C1335 C 0.59537 0.75658 0.15092 0.0
C1336 C 0.56769 0.7868 0.06763 0.0
C1337 C 0.56119 0.76463 0.0549 0.0
C1338 C 0.58796 0.78823 0.08569 0.0
C1339 C 0.6022 0.76707 0.09091 0.0
C1340 C 0.59587 0.74475 0.07785 0.0
C1341 C 0.57544 0.74379 0.06017 0.0
C1342 C 0.59401 0.8123 0.09941 0.0
C1343 C 0.61066 0.7218 0.08263 0.0
H1344 H 0.68564 0.77554 0.1101 0.0
H1345 H 0.63844 0.75616 0.17847 0.0
H1346 H 0.64638 0.76338 0.0564 0.0
H1347 H 0.63957 0.79476 0.06316 0.0
H1348 H 0.67078 0.78417 0.06512 0.0
H1349 H 0.59582 0.75383 0.17395 0.0
H1350 H 0.58256 0.77174 0.14612 0.0
H1351 H 0.5879 0.73983 0.14107 0.0
H1352 H 0.55678 0.80298 0.06372 0.0
H1353 H 0.57071 0.72659 0.05031 0.0
H1354 H 0.61295 0.81785 0.09396 0.0
H1355 H 0.59321 0.81031 0.1225 0.0
H1356 H 0.58129 0.82711 0.09302 0.0
H1357 H 0.63005 0.72501 0.07681 0.0
H1358 H 0.60369 0.70606 0.07034 0.0
H1359 H 0.6103 0.71684 0.10513 0.0
C1360 C 0.25827 0.64561 0.1416 0.0
C1361 C 0.26829 0.64444 0.1686 0.0
C1362 C 0.26112 0.62628 0.12259 0.0
C1363 C 0.27395 0.60499 0.13085 0.0
C1364 C 0.28414 0.60363 0.15801 0.0
C1365 C 0.28133 0.62341 0.17647 0.0
C1366 C 0.25006 0.62851 0.09375 0.0
C1367 C 0.29772 0.58114 0.16769 0.0
C1368 C 0.25638 0.54806 0.09045 0.0
C1369 C 0.2754 0.54627 0.07084 0.0
C1370 C 0.25629 0.56642 0.11088 0.0
C1371 C 0.2755 0.58374 0.11145 0.0
C1372 C 0.29523 0.58155 0.09231 0.0
C1373 C 0.29505 0.56266 0.07235 0.0
C1374 C 0.23515 0.5678 0.13121 0.0
C1375 C 0.31589 0.59984 0.09206 0.0
H1376 H 0.24783 0.66154 0.13536 0.0
H1377 H 0.28956 0.62245 0.19706 0.0
H1378 H 0.2642 0.62506 0.07755 0.0
H1379 H 0.23556 0.61454 0.09105 0.0
H1380 H 0.24194 0.64683 0.09 0.0
H1381 H 0.30499 0.58314 0.18926 0.0
H1382 H 0.28533 0.56508 0.16716 0.0
H1383 H 0.31317 0.5772 0.15332 0.0
H1384 H 0.24124 0.53528 0.08954 0.0
H1385 H 0.30972 0.56143 0.05712 0.0
H1386 H 0.22432 0.58457 0.12714 0.0
H1387 H 0.24202 0.56895 0.15299 0.0
H1388 H 0.22279 0.55175 0.12954 0.0
H1389 H 0.30877 0.61802 0.08577 0.0
H1390 H 0.33073 0.59456 0.07735 0.0
H1391 H 0.32375 0.60181 0.11331 0.0
C1392 C 0.34083 0.76317 0.89528 0.0
C1393 C 0.34113 0.77291 0.86809 0.0
C1394 C 0.36158 0.76439 0.91257 0.0
C1395 C 0.38334 0.77528 0.90236 0.0
C1396 C 0.3836 0.78573 0.87527 0.0
C1397 C 0.36249 0.78462 0.8586 0.0
C1398 C 0.36045 0.75325 0.94146 0.0
C1399 C 0.40647 0.79732 0.86346 0.0
C1400 C 0.43424 0.79082 0.95398 0.0
C1401 C 0.44893 0.76986 0.95234 0.0
C1402 C 0.41286 0.79299 0.93775 0.0
C1403 C 0.40633 0.77394 0.91911 0.0
C1404 C 0.42159 0.75314 0.91675 0.0
C1405 C 0.44253 0.75127 0.93354 0.0
C1406 C 0.39689 0.81529 0.94112 0.0
C1407 C 0.41562 0.73263 0.89676 0.0
H1408 H 0.32461 0.75388 0.90282 0.0
H1409 H 0.36283 0.79274 0.83792 0.0
H1410 H 0.37248 0.73694 0.94235 0.0
H1411 H 0.36725 0.76643 0.95726 0.0
H1412 H 0.3416 0.74762 0.94731 0.0
H1413 H 0.4033 0.80585 0.84268 0.0
H1414 H 0.4135 0.81147 0.87797 0.0
H1415 H 0.42097 0.78326 0.86124 0.0
H1416 H 0.43901 0.80516 0.96862 0.0
H1417 H 0.4539 0.73509 0.93199 0.0
H1418 H 0.37866 0.80976 0.94916 0.0
H1419 H 0.39396 0.82423 0.92056 0.0
H1420 H 0.40492 0.82885 0.95575 0.0
H1421 H 0.39798 0.72406 0.90276 0.0
H1422 H 0.42997 0.71825 0.8965 0.0
H1423 H 0.41347 0.73991 0.87523 0.0
C1424 C 0.27314 0.3622 0.86026 0.0
C1425 C 0.27866 0.36875 0.83259 0.0
C1426 C 0.2746 0.37934 0.88202 0.0
C1427 C 0.28156 0.4037 0.87595 0.0
C1428 C 0.2877 0.4103 0.84815 0.0
C1429 C 0.28627 0.39271 0.82681 0.0
C1430 C 0.2681 0.3715 0.91141 0.0
C1431 C 0.29498 0.43613 0.84079 0.0
C1432 C 0.25678 0.45163 0.92574 0.0
C1433 C 0.27705 0.45639 0.94287 0.0
C1434 C 0.25825 0.43501 0.90351 0.0
C1435 C 0.28051 0.4226 0.89833 0.0
C1436 C 0.30122 0.42763 0.91516 0.0
C1437 C 0.29929 0.44459 0.93719 0.0
C1438 C 0.23579 0.43038 0.88592 0.0
C1439 C 0.32521 0.41464 0.91035 0.0
H1440 H 0.26766 0.34359 0.8649 0.0
H1441 H 0.29044 0.39788 0.80543 0.0
H1442 H 0.28304 0.37643 0.92605 0.0
H1443 H 0.2514 0.38127 0.91843 0.0
H1444 H 0.26472 0.35153 0.91296 0.0
H1445 H 0.30081 0.43791 0.8186 0.0
H1446 H 0.27929 0.44859 0.84446 0.0
H1447 H 0.31014 0.44233 0.85444 0.0
H1448 H 0.23956 0.46081 0.92979 0.0
H1449 H 0.31501 0.44814 0.95036 0.0
H1450 H 0.22993 0.41108 0.88829 0.0
H1451 H 0.24005 0.43335 0.86347 0.0
H1452 H 0.22024 0.4424 0.89183 0.0
H1453 H 0.32282 0.39475 0.91395 0.0
H1454 H 0.3399 0.42141 0.92439 0.0
H1455 H 0.33121 0.41702 0.88833 0.0
C1456 C 0.6635 0.24413 0.89096 0.0
C1457 C 0.66476 0.22926 0.86721 0.0
C1458 C 0.64284 0.24367 0.90844 0.0
C1459 C 0.62275 0.2285 0.90146 0.0
C1460 C 0.62402 0.21343 0.87742 0.0
C1461 C 0.64521 0.21376 0.86076 0.0
C1462 C 0.64242 0.25961 0.93421 0.0
C1463 C 0.60276 0.19752 0.86886 0.0
C1464 C 0.57529 0.21474 0.95772 0.0
C1465 C 0.55809 0.23324 0.95287 0.0
C1466 C 0.59643 0.21284 0.94106 0.0
C1467 C 0.59998 0.22939 0.91858 0.0
C1468 C 0.5821 0.24745 0.91297 0.0
C1469 C 0.56157 0.24939 0.93045 0.0
C1470 C 0.61536 0.19373 0.9481 0.0
C1471 C 0.58482 0.26499 0.88874 0.0
H1472 H 0.67878 0.25599 0.89591 0.0
H1473 H 0.64626 0.2024 0.84222 0.0
H1474 H 0.62796 0.27371 0.93212 0.0
H1475 H 0.63793 0.24847 0.95293 0.0
H1476 H 0.66019 0.26894 0.93777 0.0
H1477 H 0.60689 0.18649 0.84992 0.0
H1478 H 0.59772 0.18496 0.88615 0.0
H1479 H 0.58655 0.20912 0.86451 0.0
H1480 H 0.57269 0.20238 0.97522 0.0
H1481 H 0.54816 0.26358 0.92655 0.0
H1482 H 0.63282 0.20278 0.95377 0.0
H1483 H 0.61907 0.18206 0.92962 0.0
H1484 H 0.60957 0.18186 0.96578 0.0
H1485 H 0.60092 0.27695 0.89217 0.0
H1486 H 0.56842 0.27673 0.88599 0.0
H1487 H 0.58807 0.25475 0.86906 0.0
C1488 C 0.74594 0.65139 0.86167 0.0
C1489 C 0.73723 0.64903 0.83417 0.0
C1490 C 0.74349 0.6323 0.88114 0.0
C1491 C 0.73242 0.61005 0.87289 0.0
C1492 C 0.72357 0.60749 0.84523 0.0
C1493 C 0.72592 0.62703 0.8263 0.0
C1494 C 0.75303 0.63584 0.9105 0.0
C1495 C 0.71188 0.58399 0.83553 0.0
C1496 C 0.75051 0.55424 0.91538 0.0
C1497 C 0.73036 0.55135 0.93329 0.0
C1498 C 0.75105 0.57278 0.8951 0.0
C1499 C 0.73111 0.58916 0.89291 0.0
C1500 C 0.71046 0.58607 0.91054 0.0
C1501 C 0.71023 0.56704 0.93039 0.0
C1502 C 0.77322 0.57514 0.87639 0.0
C1503 C 0.68898 0.60336 0.90909 0.0
H1504 H 0.75503 0.66809 0.86796 0.0
H1505 H 0.71867 0.6251 0.80534 0.0
H1506 H 0.73837 0.63194 0.92595 0.0
H1507 H 0.76815 0.62279 0.91458 0.0
H1508 H 0.75991 0.65468 0.91406 0.0
H1509 H 0.70569 0.585 0.81343 0.0
H1510 H 0.72512 0.56872 0.83754 0.0
H1511 H 0.69593 0.57951 0.84895 0.0
H1512 H 0.76606 0.54206 0.91735 0.0
H1513 H 0.69467 0.565 0.94428 0.0
H1514 H 0.78261 0.59273 0.88057 0.0
H1515 H 0.76757 0.57527 0.8541 0.0
H1516 H 0.78652 0.56004 0.8796 0.0
H1517 H 0.69501 0.62207 0.91476 0.0
H1518 H 0.6739 0.59787 0.92338 0.0
H1519 H 0.68178 0.60421 0.88743 0.0
loop_
_geom_bond_atom_site_label_1
_geom_bond_atom_site_label_2
_geom_bond_distance
_geom_bond_site_symmetry_2
_ccdc_geom_bond_type
H0 C19 0.949 . S
H1 C20 0.950 . S
H2 C22 0.950 . S
H3 C23 0.950 . S
H4 C25 0.950 . S
H5 C28 0.950 . S
H6 C29 0.950 . S
H7 C31 0.951 . S
H8 C32 0.949 . S
H9 C34 0.949 . S
H10 C35 0.950 . S
H11 C37 0.950 . S
H12 C38 0.950 . S
H13 C40 0.950 . S
H14 C43 0.950 . S
H15 C44 0.950 . S
H16 C46 0.951 . S
H17 C47 0.949 . S
C18 C19 1.376 . S
C18 C23 1.386 . S
C18 C24 1.483 . S
C19 H0 0.949 . S
C19 C18 1.376 . S
C19 C20 1.397 . S
C20 H1 0.950 . S
C20 C19 1.397 . S
C20 C21 1.391 . S
C21 C20 1.391 . S
C21 C22 1.405 . S
C22 H2 0.950 . S
C22 C21 1.405 . S
C22 C23 1.367 . S
C23 H3 0.950 . S
C23 C18 1.386 . S
C23 C22 1.367 . S
C24 C18 1.483 . S
C24 C25 1.382 . S
C24 C26 1.403 . S
C25 H4 0.950 . S
C25 C24 1.382 . S
C25 C41 1.411 . S
C26 C24 1.403 . S
C26 C27 1.489 . S
C26 C40 1.411 . S
C27 C26 1.489 . S
C27 C28 1.383 . S
C27 C32 1.382 . S
C28 H5 0.950 . S
C28 C27 1.383 . S
C28 C29 1.395 . S
C29 H6 0.950 . S
C29 C28 1.395 . S
C29 C30 1.288 . S
C30 C29 1.288 . S
C30 C31 1.392 . S
C31 H7 0.951 . S
C31 C30 1.392 . S
C31 C32 1.392 . S
C32 H8 0.949 . S
C32 C27 1.382 . S
C32 C31 1.392 . S
C33 C34 1.376 . S
C33 C38 1.386 . S
C33 C39 1.483 . S
C34 H9 0.949 . S
C34 C33 1.376 . S
C34 C35 1.397 . S
C35 H10 0.950 . S
C35 C34 1.397 . S
C35 C36 1.391 . S
C36 C35 1.391 . S
C36 C37 1.405 . S
C37 H11 0.950 . S
C37 C36 1.405 . S
C37 C38 1.367 . S
C38 H12 0.950 . S
C38 C33 1.386 . S
C38 C37 1.367 . S
C39 C33 1.483 . S
C39 C40 1.382 . S
C39 C41 1.403 . S
C40 H13 0.950 . S
C40 C26 1.411 . S
C40 C39 1.382 . S
C41 C25 1.411 . S
C41 C39 1.403 . S
C41 C42 1.489 . S
C42 C41 1.489 . S
C42 C43 1.383 . S
C42 C47 1.382 . S
C43 H14 0.950 . S
C43 C42 1.383 . S
C43 C44 1.395 . S
C44 H15 0.950 . S
C44 C43 1.395 . S
C44 C45 1.288 . S
C45 C44 1.288 . S
C45 C46 1.392 . S
C46 H16 0.951 . S
C46 C45 1.392 . S
C46 C47 1.392 . S
C47 H17 0.949 . S
C47 C42 1.382 . S
C47 C46 1.392 . S
H48 C67 0.949 . S
H49 C68 0.950 . S
H50 C70 0.950 . S
H51 C71 0.950 . S
H52 C73 0.950 . S
H53 C76 0.950 . S
H54 C77 0.950 . S
H55 C79 0.951 . S
H56 C80 0.949 . S
H57 C82 0.949 . S
H58 C83 0.950 . S
H59 C85 0.950 . S
H60 C86 0.950 . S
H61 C88 0.950 . S
H62 C91 0.950 . S
H63 C92 0.950 . S
H64 C94 0.951 . S
H65 C95 0.949 . S
C66 C67 1.376 . S
C66 C71 1.386 . S
C66 C72 1.483 . S
C67 H48 0.949 . S
C67 C66 1.376 . S
C67 C68 1.397 . S
C68 H49 0.950 . S
C68 C67 1.397 . S
C68 C69 1.391 . S
C69 C68 1.391 . S
C69 C70 1.405 . S
C70 H50 0.950 . S
C70 C69 1.405 . S
C70 C71 1.367 . S
C71 H51 0.950 . S
C71 C66 1.386 . S
C71 C70 1.367 . S
C72 C66 1.483 . S
C72 C73 1.382 . S
C72 C74 1.403 . S
C73 H52 0.950 . S
C73 C72 1.382 . S
C73 C89 1.411 . S
C74 C72 1.403 . S
C74 C75 1.489 . S
C74 C88 1.411 . S
C75 C74 1.489 . S
C75 C76 1.383 . S
C75 C80 1.382 . S
C76 H53 0.950 . S
C76 C75 1.383 . S
C76 C77 1.395 . S
C77 H54 0.950 . S
C77 C76 1.395 . S
C77 C78 1.288 . S
C78 C77 1.288 . S
C78 C79 1.392 . S
C79 H55 0.951 . S
C79 C78 1.392 . S
C79 C80 1.392 . S
C80 H56 0.949 . S
C80 C75 1.382 . S
C80 C79 1.392 . S
C81 C82 1.376 . S
C81 C86 1.386 . S
C81 C87 1.483 . S
C82 H57 0.949 . S
C82 C81 1.376 . S
C82 C83 1.397 . S
C83 H58 0.950 . S
C83 C82 1.397 . S
C83 C84 1.391 . S
C84 C83 1.391 . S
C84 C85 1.405 . S
C85 H59 0.950 . S
C85 C84 1.405 . S
C85 C86 1.367 . S
C86 H60 0.950 . S
C86 C81 1.386 . S
C86 C85 1.367 . S
C87 C81 1.483 . S
C87 C88 1.382 . S
C87 C89 1.403 . S
C88 H61 0.950 . S
C88 C74 1.411 . S
C88 C87 1.382 . S
C89 C73 1.411 . S
C89 C87 1.403 . S
C89 C90 1.489 . S
C90 C89 1.489 . S
C90 C91 1.383 . S
C90 C95 1.382 . S
C91 H62 0.950 . S
C91 C90 1.383 . S
C91 C92 1.395 . S
C92 H63 0.950 . S
C92 C91 1.395 . S
C92 C93 1.288 . S
C93 C92 1.288 . S
C93 C94 1.392 . S
C94 H64 0.951 . S
C94 C93 1.392 . S
C94 C95 1.392 . S
C95 H65 0.949 . S
C95 C90 1.382 . S
C95 C94 1.392 . S
H96 C115 0.949 . S
H97 C116 0.950 . S
H98 C118 0.950 . S
H99 C119 0.950 . S
H100 C121 0.950 . S
H101 C124 0.950 . S
H102 C125 0.950 . S
H103 C127 0.951 . S
H104 C128 0.949 . S
H105 C130 0.949 . S
H106 C131 0.950 . S
H107 C133 0.950 . S
H108 C134 0.950 . S
H109 C136 0.950 . S
H110 C139 0.950 . S
H111 C140 0.950 . S
H112 C142 0.951 . S
H113 C143 0.949 . S
C114 C115 1.376 . S
C114 C119 1.386 . S
C114 C120 1.483 . S
C115 H96 0.949 . S
C115 C114 1.376 . S
C115 C116 1.397 . S
C116 H97 0.950 . S
C116 C115 1.397 . S
C116 C117 1.391 . S
C117 C116 1.391 . S
C117 C118 1.405 . S
C118 H98 0.950 . S
C118 C117 1.405 . S
C118 C119 1.367 . S
C119 H99 0.950 . S
C119 C114 1.386 . S
C119 C118 1.367 . S
C120 C114 1.483 . S
C120 C121 1.382 . S
C120 C122 1.403 . S
C121 H100 0.950 . S
C121 C120 1.382 . S
C121 C137 1.411 . S
C122 C120 1.403 . S
C122 C123 1.489 . S
C122 C136 1.411 . S
C123 C122 1.489 . S
C123 C124 1.383 . S
C123 C128 1.382 . S
C124 H101 0.950 . S
C124 C123 1.383 . S
C124 C125 1.395 . S
C125 H102 0.950 . S
C125 C124 1.395 . S
C125 C126 1.288 . S
C126 C125 1.288 . S
C126 C127 1.392 . S
C127 H103 0.951 . S
C127 C126 1.392 . S
C127 C128 1.392 . S
C128 H104 0.949 . S
C128 C123 1.382 . S
C128 C127 1.392 . S
C129 C130 1.376 . S
C129 C134 1.386 . S
C129 C135 1.483 . S
C130 H105 0.949 . S
C130 C129 1.376 . S
C130 C131 1.397 . S
C131 H106 0.950 . S
C131 C130 1.397 . S
C131 C132 1.391 . S
C132 C131 1.391 . S
C132 C133 1.405 . S
C133 H107 0.950 . S
C133 C132 1.405 . S
C133 C134 1.367 . S
C134 H108 0.950 . S
C134 C129 1.386 . S
C134 C133 1.367 . S
C135 C129 1.483 . S
C135 C136 1.382 . S
C135 C137 1.403 . S
C136 H109 0.950 . S
C136 C122 1.411 . S
C136 C135 1.382 . S
C137 C121 1.411 . S
C137 C135 1.403 . S
C137 C138 1.489 . S
C138 C137 1.489 . S
C138 C139 1.383 . S
C138 C143 1.382 . S
C139 H110 0.950 . S
C139 C138 1.383 . S
C139 C140 1.395 . S
C140 H111 0.950 . S
C140 C139 1.395 . S
C140 C141 1.288 . S
C141 C140 1.288 . S
C141 C142 1.392 . S
C142 H112 0.951 . S
C142 C141 1.392 . S
C142 C143 1.392 . S
C143 H113 0.949 . S
C143 C138 1.382 . S
C143 C142 1.392 . S
H144 C163 0.949 . S
H145 C164 0.950 . S
H146 C166 0.950 . S
H147 C167 0.950 . S
H148 C169 0.950 . S
H149 C172 0.950 . S
H150 C173 0.950 . S
H151 C175 0.951 . S
H152 C176 0.949 . S
H153 C178 0.949 . S
H154 C179 0.950 . S
H155 C181 0.950 . S
H156 C182 0.950 . S
H157 C184 0.950 . S
H158 C187 0.950 . S
H159 C188 0.950 . S
H160 C190 0.951 . S
H161 C191 0.949 . S
C162 C163 1.376 . S
C162 C167 1.386 . S
C162 C168 1.483 . S
C163 H144 0.949 . S
C163 C162 1.376 . S
C163 C164 1.397 . S
C164 H145 0.950 . S
C164 C163 1.397 . S
C164 C165 1.391 . S
C165 C164 1.391 . S
C165 C166 1.405 . S
C166 H146 0.950 . S
C166 C165 1.405 . S
C166 C167 1.367 . S
C167 H147 0.950 . S
C167 C162 1.386 . S
C167 C166 1.367 . S
C168 C162 1.483 . S
C168 C169 1.382 . S
C168 C170 1.403 . S
C169 H148 0.950 . S
C169 C168 1.382 . S
C169 C185 1.411 . S
C170 C168 1.403 . S
C170 C171 1.489 . S
C170 C184 1.411 . S
C171 C170 1.489 . S
C171 C172 1.383 . S
C171 C176 1.382 . S
C172 H149 0.950 . S
C172 C171 1.383 . S
C172 C173 1.395 . S
C173 H150 0.950 . S
C173 C172 1.395 . S
C173 C174 1.288 . S
C174 C173 1.288 . S
C174 C175 1.392 . S
C175 H151 0.951 . S
C175 C174 1.392 . S
C175 C176 1.392 . S
C176 H152 0.949 . S
C176 C171 1.382 . S
C176 C175 1.392 . S
C177 C178 1.376 . S
C177 C182 1.386 . S
C177 C183 1.483 . S
C178 H153 0.949 . S
C178 C177 1.376 . S
C178 C179 1.397 . S
C179 H154 0.950 . S
C179 C178 1.397 . S
C179 C180 1.391 . S
C180 C179 1.391 . S
C180 C181 1.405 . S
C181 H155 0.950 . S
C181 C180 1.405 . S
C181 C182 1.367 . S
C182 H156 0.950 . S
C182 C177 1.386 . S
C182 C181 1.367 . S
C183 C177 1.483 . S
C183 C184 1.382 . S
C183 C185 1.403 . S
C184 H157 0.950 . S
C184 C170 1.411 . S
C184 C183 1.382 . S
C185 C169 1.411 . S
C185 C183 1.403 . S
C185 C186 1.489 . S
C186 C185 1.489 . S
C186 C187 1.383 . S
C186 C191 1.382 . S
C187 H158 0.950 . S
C187 C186 1.383 . S
C187 C188 1.395 . S
C188 H159 0.950 . S
C188 C187 1.395 . S
C188 C189 1.288 . S
C189 C188 1.288 . S
C189 C190 1.392 . S
C190 H160 0.951 . S
C190 C189 1.392 . S
C190 C191 1.392 . S
C191 H161 0.949 . S
C191 C186 1.382 . S
C191 C190 1.392 . S
H192 C211 0.949 . S
H193 C212 0.950 . S
H194 C214 0.950 . S
H195 C215 0.950 . S
H196 C217 0.950 . S
H197 C220 0.950 . S
H198 C221 0.950 . S
H199 C223 0.951 . S
H200 C224 0.949 . S
H201 C226 0.949 . S
H202 C227 0.950 . S
H203 C229 0.950 . S
H204 C230 0.950 . S
H205 C232 0.950 . S
H206 C235 0.950 . S
H207 C236 0.950 . S
H208 C238 0.951 . S
H209 C239 0.949 . S
C210 C211 1.376 . S
C210 C215 1.386 . S
C210 C216 1.483 . S
C211 H192 0.949 . S
C211 C210 1.376 . S
C211 C212 1.397 . S
C212 H193 0.950 . S
C212 C211 1.397 . S
C212 C213 1.391 . S
C213 C212 1.391 . S
C213 C214 1.405 . S
C214 H194 0.950 . S
C214 C213 1.405 . S
C214 C215 1.367 . S
C215 H195 0.950 . S
C215 C210 1.386 . S
C215 C214 1.367 . S
C216 C210 1.483 . S
C216 C217 1.382 . S
C216 C218 1.403 . S
C217 H196 0.950 . S
C217 C216 1.382 . S
C217 C233 1.411 . S
C218 C216 1.403 . S
C218 C219 1.489 . S
C218 C232 1.411 . S
C219 C218 1.489 . S
C219 C220 1.383 . S
C219 C224 1.382 . S
C220 H197 0.950 . S
C220 C219 1.383 . S
C220 C221 1.395 . S
C221 H198 0.950 . S
C221 C220 1.395 . S
C221 C222 1.288 . S
C222 C221 1.288 . S
C222 C223 1.392 . S
C223 H199 0.951 . S
C223 C222 1.392 . S
C223 C224 1.392 . S
C224 H200 0.949 . S
C224 C219 1.382 . S
C224 C223 1.392 . S
C225 C226 1.376 . S
C225 C230 1.386 . S
C225 C231 1.483 . S
C226 H201 0.949 . S
C226 C225 1.376 . S
C226 C227 1.397 . S
C227 H202 0.950 . S
C227 C226 1.397 . S
C227 C228 1.391 . S
C228 C227 1.391 . S
C228 C229 1.405 . S
C229 H203 0.950 . S
C229 C228 1.405 . S
C229 C230 1.367 . S
C230 H204 0.950 . S
C230 C225 1.386 . S
C230 C229 1.367 . S
C231 C225 1.483 . S
C231 C232 1.382 . S
C231 C233 1.403 . S
C232 H205 0.950 . S
C232 C218 1.411 . S
C232 C231 1.382 . S
C233 C217 1.411 . S
C233 C231 1.403 . S
C233 C234 1.489 . S
C234 C233 1.489 . S
C234 C235 1.383 . S
C234 C239 1.382 . S
C235 H206 0.950 . S
C235 C234 1.383 . S
C235 C236 1.395 . S
C236 H207 0.950 . S
C236 C235 1.395 . S
C236 C237 1.288 . S
C237 C236 1.288 . S
C237 C238 1.392 . S
C238 H208 0.951 . S
C238 C237 1.392 . S
C238 C239 1.392 . S
C239 H209 0.949 . S
C239 C234 1.382 . S
C239 C238 1.392 . S
H240 C259 0.949 . S
H241 C260 0.950 . S
H242 C262 0.950 . S
H243 C263 0.950 . S
H244 C265 0.950 . S
H245 C268 0.950 . S
H246 C269 0.950 . S
H247 C271 0.951 . S
H248 C272 0.949 . S
H249 C274 0.949 . S
H250 C275 0.950 . S
H251 C277 0.950 . S
H252 C278 0.950 . S
H253 C280 0.950 . S
H254 C283 0.950 . S
H255 C284 0.950 . S
H256 C286 0.951 . S
H257 C287 0.949 . S
C258 C259 1.376 . S
C258 C263 1.386 . S
C258 C264 1.483 . S
C259 H240 0.949 . S
C259 C258 1.376 . S
C259 C260 1.397 . S
C260 H241 0.950 . S
C260 C259 1.397 . S
C260 C261 1.391 . S
C261 C260 1.391 . S
C261 C262 1.405 . S
C262 H242 0.950 . S
C262 C261 1.405 . S
C262 C263 1.367 . S
C263 H243 0.950 . S
C263 C258 1.386 . S
C263 C262 1.367 . S
C264 C258 1.483 . S
C264 C265 1.382 . S
C264 C266 1.403 . S
C265 H244 0.950 . S
C265 C264 1.382 . S
C265 C281 1.411 . S
C266 C264 1.403 . S
C266 C267 1.489 . S
C266 C280 1.411 . S
C267 C266 1.489 . S
C267 C268 1.383 . S
C267 C272 1.382 . S
C268 H245 0.950 . S
C268 C267 1.383 . S
C268 C269 1.395 . S
C269 H246 0.950 . S
C269 C268 1.395 . S
C269 C270 1.288 . S
C270 C269 1.288 . S
C270 C271 1.392 . S
C271 H247 0.951 . S
C271 C270 1.392 . S
C271 C272 1.392 . S
C272 H248 0.949 . S
C272 C267 1.382 . S
C272 C271 1.392 . S
C273 C274 1.376 . S
C273 C278 1.386 . S
C273 C279 1.483 . S
C274 H249 0.949 . S
C274 C273 1.376 . S
C274 C275 1.397 . S
C275 H250 0.950 . S
C275 C274 1.397 . S
C275 C276 1.391 . S
C276 C275 1.391 . S
C276 C277 1.405 . S
C277 H251 0.950 . S
C277 C276 1.405 . S
C277 C278 1.367 . S
C278 H252 0.950 . S
C278 C273 1.386 . S
C278 C277 1.367 . S
C279 C273 1.483 . S
C279 C280 1.382 . S
C279 C281 1.403 . S
C280 H253 0.950 . S
C280 C266 1.411 . S
C280 C279 1.382 . S
C281 C265 1.411 . S
C281 C279 1.403 . S
C281 C282 1.489 . S
C282 C281 1.489 . S
C282 C283 1.383 . S
C282 C287 1.382 . S
C283 H254 0.950 . S
C283 C282 1.383 . S
C283 C284 1.395 . S
C284 H255 0.950 . S
C284 C283 1.395 . S
C284 C285 1.288 . S
C285 C284 1.288 . S
C285 C286 1.392 . S
C286 H256 0.951 . S
C286 C285 1.392 . S
C286 C287 1.392 . S
C287 H257 0.949 . S
C287 C282 1.382 . S
C287 C286 1.392 . S
H288 C307 0.949 . S
H289 C308 0.950 . S
H290 C310 0.950 . S
H291 C311 0.950 . S
H292 C313 0.950 . S
H293 C316 0.950 . S
H294 C317 0.950 . S
H295 C319 0.951 . S
H296 C320 0.949 . S
H297 C322 0.949 . S
H298 C323 0.950 . S
H299 C325 0.950 . S
H300 C326 0.950 . S
H301 C328 0.950 . S
H302 C331 0.950 . S
H303 C332 0.950 . S
H304 C334 0.951 . S
H305 C335 0.949 . S
C306 C307 1.376 . S
C306 C311 1.386 . S
C306 C312 1.483 . S
C307 H288 0.949 . S
C307 C306 1.376 . S
C307 C308 1.397 . S
C308 H289 0.950 . S
C308 C307 1.397 . S
C308 C309 1.391 . S
C309 C308 1.391 . S
C309 C310 1.405 . S
C310 H290 0.950 . S
C310 C309 1.405 . S
C310 C311 1.367 . S
C311 H291 0.950 . S
C311 C306 1.386 . S
C311 C310 1.367 . S
C312 C306 1.483 . S
C312 C313 1.382 . S
C312 C314 1.403 . S
C313 H292 0.950 . S
C313 C312 1.382 . S
C313 C329 1.411 . S
C314 C312 1.403 . S
C314 C315 1.489 . S
C314 C328 1.411 . S
C315 C314 1.489 . S
C315 C316 1.383 . S
C315 C320 1.382 . S
C316 H293 0.950 . S
C316 C315 1.383 . S
C316 C317 1.395 . S
C317 H294 0.950 . S
C317 C316 1.395 . S
C317 C318 1.288 . S
C318 C317 1.288 . S
C318 C319 1.392 . S
C319 H295 0.951 . S
C319 C318 1.392 . S
C319 C320 1.392 . S
C320 H296 0.949 . S
C320 C315 1.382 . S
C320 C319 1.392 . S
C321 C322 1.376 . S
C321 C326 1.386 . S
C321 C327 1.483 . S
C322 H297 0.949 . S
C322 C321 1.376 . S
C322 C323 1.397 . S
C323 H298 0.950 . S
C323 C322 1.397 . S
C323 C324 1.391 . S
C324 C323 1.391 . S
C324 C325 1.405 . S
C325 H299 0.950 . S
C325 C324 1.405 . S
C325 C326 1.367 . S
C326 H300 0.950 . S
C326 C321 1.386 . S
C326 C325 1.367 . S
C327 C321 1.483 . S
C327 C328 1.382 . S
C327 C329 1.403 . S
C328 H301 0.950 . S
C328 C314 1.411 . S
C328 C327 1.382 . S
C329 C313 1.411 . S
C329 C327 1.403 . S
C329 C330 1.489 . S
C330 C329 1.489 . S
C330 C331 1.383 . S
C330 C335 1.382 . S
C331 H302 0.950 . S
C331 C330 1.383 . S
C331 C332 1.395 . S
C332 H303 0.950 . S
C332 C331 1.395 . S
C332 C333 1.288 . S
C333 C332 1.288 . S
C333 C334 1.392 . S
C334 H304 0.951 . S
C334 C333 1.392 . S
C334 C335 1.392 . S
C335 H305 0.949 . S
C335 C330 1.382 . S
C335 C334 1.392 . S
H336 C355 0.949 . S
H337 C356 0.950 . S
H338 C358 0.950 . S
H339 C359 0.950 . S
H340 C361 0.950 . S
H341 C364 0.950 . S
H342 C365 0.950 . S
H343 C367 0.951 . S
H344 C368 0.949 . S
H345 C370 0.949 . S
H346 C371 0.950 . S
H347 C373 0.950 . S
H348 C374 0.950 . S
H349 C376 0.950 . S
H350 C379 0.950 . S
H351 C380 0.950 . S
H352 C382 0.951 . S
H353 C383 0.949 . S
C354 C355 1.376 . S
C354 C359 1.386 . S
C354 C360 1.483 . S
C355 H336 0.949 . S
C355 C354 1.376 . S
C355 C356 1.397 . S
C356 H337 0.950 . S
C356 C355 1.397 . S
C356 C357 1.391 . S
C357 C356 1.391 . S
C357 C358 1.405 . S
C358 H338 0.950 . S
C358 C357 1.405 . S
C358 C359 1.367 . S
C359 H339 0.950 . S
C359 C354 1.386 . S
C359 C358 1.367 . S
C360 C354 1.483 . S
C360 C361 1.382 . S
C360 C362 1.403 . S
C361 H340 0.950 . S
C361 C360 1.382 . S
C361 C377 1.411 . S
C362 C360 1.403 . S
C362 C363 1.489 . S
C362 C376 1.411 . S
C363 C362 1.489 . S
C363 C364 1.383 . S
C363 C368 1.382 . S
C364 H341 0.950 . S
C364 C363 1.383 . S
C364 C365 1.395 . S
C365 H342 0.950 . S
C365 C364 1.395 . S
C365 C366 1.288 . S
C366 C365 1.288 . S
C366 C367 1.392 . S
C367 H343 0.951 . S
C367 C366 1.392 . S
C367 C368 1.392 . S
C368 H344 0.949 . S
C368 C363 1.382 . S
C368 C367 1.392 . S
C369 C370 1.376 . S
C369 C374 1.386 . S
C369 C375 1.483 . S
C370 H345 0.949 . S
C370 C369 1.376 . S
C370 C371 1.397 . S
C371 H346 0.950 . S
C371 C370 1.397 . S
C371 C372 1.391 . S
C372 C371 1.391 . S
C372 C373 1.405 . S
C373 H347 0.950 . S
C373 C372 1.405 . S
C373 C374 1.367 . S
C374 H348 0.950 . S
C374 C369 1.386 . S
C374 C373 1.367 . S
C375 C369 1.483 . S
C375 C376 1.382 . S
C375 C377 1.403 . S
C376 H349 0.950 . S
C376 C362 1.411 . S
C376 C375 1.382 . S
C377 C361 1.411 . S
C377 C375 1.403 . S
C377 C378 1.489 . S
C378 C377 1.489 . S
C378 C379 1.383 . S
C378 C383 1.382 . S
C379 H350 0.950 . S
C379 C378 1.383 . S
C379 C380 1.395 . S
C380 H351 0.950 . S
C380 C379 1.395 . S
C380 C381 1.288 . S
C381 C380 1.288 . S
C381 C382 1.392 . S
C382 H352 0.951 . S
C382 C381 1.392 . S
C382 C383 1.392 . S
C383 H353 0.949 . S
C383 C378 1.382 . S
C383 C382 1.392 . S
C384 O386 1.247 . S
C384 O388 1.258 . S
C385 O392 1.247 . S
C385 O393 1.258 . S
O386 C384 1.247 . S
O386 Zn387 2.032 1_655 S
Zn387 O386 2.032 1_455 S
Zn387 O391 2.031 . S
Zn387 O393 2.031 . S
Zn387 O394 2.032 1_455 S
O388 C384 1.258 . S
O388 Zn389 2.024 1_655 S
Zn389 O388 2.024 1_455 S
Zn389 O390 2.039 . S
Zn389 O392 2.039 . S
Zn389 O395 2.024 1_455 S
O390 Zn389 2.039 . S
O390 C396 1.247 . S
O391 Zn387 2.031 . S
O391 C396 1.258 . S
O392 C385 1.247 . S
O392 Zn389 2.039 . S
O393 C385 1.258 . S
O393 Zn387 2.031 . S
O394 Zn387 2.032 1_655 S
O394 C397 1.247 . S
O395 Zn389 2.024 1_655 S
O395 C397 1.258 . S
C396 O390 1.247 . S
C396 O391 1.258 . S
C397 O394 1.247 . S
C397 O395 1.258 . S
C398 O400 1.247 . S
C398 O402 1.258 . S
C399 O406 1.247 . S
C399 O407 1.258 . S
O400 C398 1.247 . S
O400 Zn401 2.039 . S
Zn401 O400 2.039 . S
Zn401 O405 2.024 1_545 S
Zn401 O407 2.024 1_545 S
Zn401 O408 2.039 . S
O402 C398 1.258 . S
O402 Zn403 2.039 1_545 S
Zn403 O402 2.039 1_565 S
Zn403 O404 2.024 . S
Zn403 O406 2.024 . S
Zn403 O409 2.039 1_565 S
O404 Zn403 2.024 . S
O404 C410 1.247 . S
O405 Zn401 2.024 1_565 S
O405 C410 1.258 . S
O406 C399 1.247 . S
O406 Zn403 2.024 . S
O407 C399 1.258 . S
O407 Zn401 2.024 1_565 S
O408 Zn401 2.039 . S
O408 C411 1.247 . S
O409 Zn403 2.039 1_545 S
O409 C411 1.258 . S
C410 O404 1.247 . S
C410 O405 1.258 . S
C411 O408 1.247 . S
C411 O409 1.258 . S
C412 O414 1.247 . S
C412 O416 1.258 . S
C413 O420 1.247 . S
C413 O421 1.258 . S
O414 C412 1.247 . S
O414 Zn415 2.025 . S
Zn415 O414 2.025 . S
Zn415 O419 2.038 1_655 S
Zn415 O421 2.038 1_655 S
Zn415 O422 2.025 . S
O416 C412 1.258 . S
O416 Zn417 2.025 1_655 S
Zn417 O416 2.025 1_455 S
Zn417 O418 2.038 . S
Zn417 O420 2.038 . S
Zn417 O423 2.025 1_455 S
O418 Zn417 2.038 . S
O418 C424 1.247 . S
O419 Zn415 2.038 1_455 S
O419 C424 1.258 . S
O420 C413 1.247 . S
O420 Zn417 2.038 . S
O421 C413 1.258 . S
O421 Zn415 2.038 1_455 S
O422 Zn415 2.025 . S
O422 C425 1.247 . S
O423 Zn417 2.025 1_655 S
O423 C425 1.258 . S
C424 O418 1.247 . S
C424 O419 1.258 . S
C425 O422 1.247 . S
C425 O423 1.258 . S
C426 O428 1.247 . S
C426 O430 1.258 . S
C427 O434 1.247 . S
C427 O435 1.258 . S
O428 C426 1.247 . S
O428 Zn429 2.039 . S
Zn429 O428 2.039 . S
Zn429 O433 2.024 1_545 S
Zn429 O435 2.024 1_545 S
Zn429 O436 2.039 . S
O430 C426 1.258 . S
O430 Zn431 2.032 . S
Zn431 O430 2.032 . S
Zn431 O432 2.031 1_545 S
Zn431 O434 2.031 1_545 S
Zn431 O437 2.032 . S
O432 Zn431 2.031 1_565 S
O432 C438 1.247 . S
O433 Zn429 2.024 1_565 S
O433 C438 1.258 . S
O434 C427 1.247 . S
O434 Zn431 2.031 1_565 S
O435 C427 1.258 . S
O435 Zn429 2.024 1_565 S
O436 Zn429 2.039 . S
O436 C439 1.247 . S
O437 Zn431 2.032 . S
O437 C439 1.258 . S
C438 O432 1.247 . S
C438 O433 1.258 . S
C439 O436 1.247 . S
C439 O437 1.258 . S
C440 O442 1.247 . S
C440 O444 1.258 . S
C441 O448 1.247 . S
C441 O449 1.258 . S
O442 C440 1.247 . S
O442 Zn443 2.028 . S
Zn443 O442 2.028 . S
Zn443 O447 2.035 . S
Zn443 O449 2.035 1_554 S
Zn443 O450 2.028 1_554 S
O444 C440 1.258 . S
O444 Zn445 2.035 . S
Zn445 O444 2.035 . S
Zn445 O446 2.028 . S
Zn445 O448 2.028 1_554 S
Zn445 O451 2.035 1_554 S
O446 Zn445 2.028 . S
O446 C452 1.247 . S
O447 Zn443 2.035 . S
O447 C452 1.258 . S
O448 C441 1.247 . S
O448 Zn445 2.028 1_556 S
O449 C441 1.258 . S
O449 Zn443 2.035 1_556 S
O450 Zn443 2.028 1_556 S
O450 C453 1.247 . S
O451 Zn445 2.035 1_556 S
O451 C453 1.258 . S
C452 O446 1.247 . S
C452 O447 1.258 . S
C453 O450 1.247 . S
C453 O451 1.258 . S
C454 O456 1.247 . S
C454 O458 1.258 . S
C455 O462 1.247 . S
C455 O463 1.258 . S
O456 C454 1.247 . S
O456 Zn457 2.028 . S
Zn457 O456 2.028 . S
Zn457 O461 2.035 . S
Zn457 O463 2.035 1_554 S
Zn457 O464 2.028 1_554 S
O458 C454 1.258 . S
O458 Zn459 2.035 . S
Zn459 O458 2.035 . S
Zn459 O460 2.028 . S
Zn459 O462 2.028 1_554 S
Zn459 O465 2.035 1_554 S
O460 Zn459 2.028 . S
O460 C466 1.247 . S
O461 Zn457 2.035 . S
O461 C466 1.258 . S
O462 C455 1.247 . S
O462 Zn459 2.028 1_556 S
O463 C455 1.258 . S
O463 Zn457 2.035 1_556 S
O464 Zn457 2.028 1_556 S
O464 C467 1.247 . S
O465 Zn459 2.035 1_556 S
O465 C467 1.258 . S
C466 O460 1.247 . S
C466 O461 1.258 . S
C467 O464 1.247 . S
C467 O465 1.258 . S
C468 O470 1.247 . S
C468 O472 1.258 . S
C469 O476 1.247 . S
C469 O477 1.258 . S
O470 C468 1.247 . S
O470 Zn471 2.028 1_556 S
Zn471 O470 2.028 1_554 S
Zn471 O475 2.035 1_554 S
Zn471 O477 2.035 . S
Zn471 O478 2.028 . S
O472 C468 1.258 . S
O472 Zn473 2.035 1_556 S
Zn473 O472 2.035 1_554 S
Zn473 O474 2.028 1_554 S
Zn473 O476 2.028 . S
Zn473 O479 2.035 . S
O474 Zn473 2.028 1_556 S
O474 C480 1.247 . S
O475 Zn471 2.035 1_556 S
O475 C480 1.258 . S
O476 C469 1.247 . S
O476 Zn473 2.028 . S
O477 C469 1.258 . S
O477 Zn471 2.035 . S
O478 Zn471 2.028 . S
O478 C481 1.247 . S
O479 Zn473 2.035 . S
O479 C481 1.258 . S
C480 O474 1.247 . S
C480 O475 1.258 . S
C481 O478 1.247 . S
C481 O479 1.258 . S
C482 O484 1.247 . S
C482 O486 1.258 . S
C483 O490 1.247 . S
C483 O491 1.258 . S
O484 C482 1.247 . S
O484 Zn485 2.028 . S
Zn485 O484 2.028 . S
Zn485 O489 2.035 . S
Zn485 O491 2.035 1_554 S
Zn485 O492 2.028 1_554 S
O486 C482 1.258 . S
O486 Zn487 2.035 . S
Zn487 O486 2.035 . S
Zn487 O488 2.028 . S
Zn487 O490 2.028 1_554 S
Zn487 O493 2.035 1_554 S
O488 Zn487 2.028 . S
O488 C494 1.247 . S
O489 Zn485 2.035 . S
O489 C494 1.258 . S
O490 C483 1.247 . S
O490 Zn487 2.028 1_556 S
O491 C483 1.258 . S
O491 Zn485 2.035 1_556 S
O492 Zn485 2.028 1_556 S
O492 C495 1.247 . S
O493 Zn487 2.035 1_556 S
O493 C495 1.258 . S
C494 O488 1.247 . S
C494 O489 1.258 . S
C495 O492 1.247 . S
C495 O493 1.258 . S
C496 C497 1.391 . S
C496 C498 1.394 . S
C496 H512 0.931 . S
C497 C496 1.391 . S
C497 C501 1.376 . S
C498 C496 1.394 . S
C498 C499 1.369 . S
C498 C502 1.531 . S
C499 C498 1.369 . S
C499 C500 1.410 . S
C499 C507 1.503 . S
C500 C499 1.410 . S
C500 C501 1.392 . S
C500 C503 1.511 . S
C501 C497 1.376 . S
C501 C500 1.392 . S
C501 H513 0.929 . S
C502 C498 1.531 . S
C502 H514 0.960 . S
C502 H515 0.962 . S
C502 H516 0.960 . S
C503 C500 1.511 . S
C503 H517 0.961 . S
C503 H518 0.961 . S
C503 H519 0.961 . S
C504 C505 1.370 . S
C504 C506 1.363 . S
C504 H520 0.931 . S
C505 C504 1.370 . S
C505 C509 1.408 . S
C506 C504 1.363 . S
C506 C507 1.370 . S
C506 C510 1.524 . S
C507 C499 1.503 . S
C507 C506 1.370 . S
C507 C508 1.403 . S
C508 C507 1.403 . S
C508 C509 1.404 . S
C508 C511 1.539 . S
C509 C505 1.408 . S
C509 C508 1.404 . S
C509 H521 0.930 . S
C510 C506 1.524 . S
C510 H522 0.956 . S
C510 H523 0.961 . S
C510 H524 0.961 . S
C511 C508 1.539 . S
C511 H525 0.958 . S
C511 H526 0.961 . S
C511 H527 0.960 . S
H512 C496 0.931 . S
H513 C501 0.929 . S
H514 C502 0.960 . S
H515 C502 0.962 . S
H516 C502 0.960 . S
H517 C503 0.961 . S
H518 C503 0.961 . S
H519 C503 0.961 . S
H520 C504 0.931 . S
H521 C509 0.930 . S
H522 C510 0.956 . S
H523 C510 0.961 . S
H524 C510 0.961 . S
H525 C511 0.958 . S
H526 C511 0.961 . S
H527 C511 0.960 . S
C528 C529 1.391 . S
C528 C530 1.394 . S
C528 H544 0.931 . S
C529 C528 1.391 . S
C529 C533 1.376 . S
C530 C528 1.394 . S
C530 C531 1.369 . S
C530 C534 1.531 . S
C531 C530 1.369 . S
C531 C532 1.410 . S
C531 C539 1.503 . S
C532 C531 1.410 . S
C532 C533 1.392 . S
C532 C535 1.511 . S
C533 C529 1.376 . S
C533 C532 1.392 . S
C533 H545 0.929 . S
C534 C530 1.531 . S
C534 H546 0.960 . S
C534 H547 0.962 . S
C534 H548 0.960 . S
C535 C532 1.511 . S
C535 H549 0.961 . S
C535 H550 0.961 . S
C535 H551 0.961 . S
C536 C537 1.370 . S
C536 C538 1.363 . S
C536 H552 0.931 . S
C537 C536 1.370 . S
C537 C541 1.408 . S
C538 C536 1.363 . S
C538 C539 1.370 . S
C538 C542 1.524 . S
C539 C531 1.503 . S
C539 C538 1.370 . S
C539 C540 1.403 . S
C540 C539 1.403 . S
C540 C541 1.404 . S
C540 C543 1.539 . S
C541 C537 1.408 . S
C541 C540 1.404 . S
C541 H553 0.930 . S
C542 C538 1.524 . S
C542 H554 0.956 . S
C542 H555 0.961 . S
C542 H556 0.961 . S
C543 C540 1.539 . S
C543 H557 0.958 . S
C543 H558 0.961 . S
C543 H559 0.960 . S
H544 C528 0.931 . S
H545 C533 0.929 . S
H546 C534 0.960 . S
H547 C534 0.962 . S
H548 C534 0.960 . S
H549 C535 0.961 . S
H550 C535 0.961 . S
H551 C535 0.961 . S
H552 C536 0.931 . S
H553 C541 0.930 . S
H554 C542 0.956 . S
H555 C542 0.961 . S
H556 C542 0.961 . S
H557 C543 0.958 . S
H558 C543 0.961 . S
H559 C543 0.960 . S
C560 C561 1.391 . S
C560 C562 1.394 . S
C560 H576 0.931 . S
C561 C560 1.391 . S
C561 C565 1.376 . S
C562 C560 1.394 . S
C562 C563 1.369 . S
C562 C566 1.531 . S
C563 C562 1.369 . S
C563 C564 1.410 . S
C563 C571 1.503 . S
C564 C563 1.410 . S
C564 C565 1.392 . S
C564 C567 1.511 . S
C565 C561 1.376 . S
C565 C564 1.392 . S
C565 H577 0.929 . S
C566 C562 1.531 . S
C566 H578 0.960 . S
C566 H579 0.962 . S
C566 H580 0.960 . S
C567 C564 1.511 . S
C567 H581 0.961 . S
C567 H582 0.961 . S
C567 H583 0.961 . S
C568 C569 1.370 . S
C568 C570 1.363 . S
C568 H584 0.931 . S
C569 C568 1.370 . S
C569 C573 1.408 . S
C570 C568 1.363 . S
C570 C571 1.370 . S
C570 C574 1.524 . S
C571 C563 1.503 . S
C571 C570 1.370 . S
C571 C572 1.403 . S
C572 C571 1.403 . S
C572 C573 1.404 . S
C572 C575 1.539 . S
C573 C569 1.408 . S
C573 C572 1.404 . S
C573 H585 0.930 . S
C574 C570 1.524 . S
C574 H586 0.956 . S
C574 H587 0.961 . S
C574 H588 0.961 . S
C575 C572 1.539 . S
C575 H589 0.958 . S
C575 H590 0.961 . S
C575 H591 0.960 . S
H576 C560 0.931 . S
H577 C565 0.929 . S
H578 C566 0.960 . S
H579 C566 0.962 . S
H580 C566 0.960 . S
H581 C567 0.961 . S
H582 C567 0.961 . S
H583 C567 0.961 . S
H584 C568 0.931 . S
H585 C573 0.930 . S
H586 C574 0.956 . S
H587 C574 0.961 . S
H588 C574 0.961 . S
H589 C575 0.958 . S
H590 C575 0.961 . S
H591 C575 0.960 . S
C592 C593 1.391 . S
C592 C594 1.394 . S
C592 H608 0.931 . S
C593 C592 1.391 . S
C593 C597 1.376 . S
C594 C592 1.394 . S
C594 C595 1.369 . S
C594 C598 1.531 . S
C595 C594 1.369 . S
C595 C596 1.410 . S
C595 C603 1.503 . S
C596 C595 1.410 . S
C596 C597 1.392 . S
C596 C599 1.511 . S
C597 C593 1.376 . S
C597 C596 1.392 . S
C597 H609 0.929 . S
C598 C594 1.531 . S
C598 H610 0.960 . S
C598 H611 0.962 . S
C598 H612 0.960 . S
C599 C596 1.511 . S
C599 H613 0.961 . S
C599 H614 0.961 . S
C599 H615 0.961 . S
C600 C601 1.370 . S
C600 C602 1.363 . S
C600 H616 0.931 . S
C601 C600 1.370 . S
C601 C605 1.408 . S
C602 C600 1.363 . S
C602 C603 1.370 . S
C602 C606 1.524 . S
C603 C595 1.503 . S
C603 C602 1.370 . S
C603 C604 1.403 . S
C604 C603 1.403 . S
C604 C605 1.404 . S
C604 C607 1.539 . S
C605 C601 1.408 . S
C605 C604 1.404 . S
C605 H617 0.930 . S
C606 C602 1.524 . S
C606 H618 0.956 . S
C606 H619 0.961 . S
C606 H620 0.961 . S
C607 C604 1.539 . S
C607 H621 0.958 . S
C607 H622 0.961 . S
C607 H623 0.960 . S
H608 C592 0.931 . S
H609 C597 0.929 . S
H610 C598 0.960 . S
H611 C598 0.962 . S
H612 C598 0.960 . S
H613 C599 0.961 . S
H614 C599 0.961 . S
H615 C599 0.961 . S
H616 C600 0.931 . S
H617 C605 0.930 . S
H618 C606 0.956 . S
H619 C606 0.961 . S
H620 C606 0.961 . S
H621 C607 0.958 . S
H622 C607 0.961 . S
H623 C607 0.960 . S
C624 C625 1.391 . S
C624 C626 1.394 . S
C624 H640 0.931 . S
C625 C624 1.391 . S
C625 C629 1.376 . S
C626 C624 1.394 . S
C626 C627 1.369 . S
C626 C630 1.531 . S
C627 C626 1.369 . S
C627 C628 1.410 . S
C627 C635 1.503 . S
C628 C627 1.410 . S
C628 C629 1.392 . S
C628 C631 1.511 . S
C629 C625 1.376 . S
C629 C628 1.392 . S
C629 H641 0.929 . S
C630 C626 1.531 . S
C630 H642 0.960 . S
C630 H643 0.962 . S
C630 H644 0.960 . S
C631 C628 1.511 . S
C631 H645 0.961 . S
C631 H646 0.961 . S
C631 H647 0.961 . S
C632 C633 1.370 . S
C632 C634 1.363 . S
C632 H648 0.931 . S
C633 C632 1.370 . S
C633 C637 1.408 . S
C634 C632 1.363 . S
C634 C635 1.370 . S
C634 C638 1.524 . S
C635 C627 1.503 . S
C635 C634 1.370 . S
C635 C636 1.403 . S
C636 C635 1.403 . S
C636 C637 1.404 . S
C636 C639 1.539 . S
C637 C633 1.408 . S
C637 C636 1.404 . S
C637 H649 0.930 . S
C638 C634 1.524 . S
C638 H650 0.956 . S
C638 H651 0.961 . S
C638 H652 0.961 . S
C639 C636 1.539 . S
C639 H653 0.958 . S
C639 H654 0.961 . S
C639 H655 0.960 . S
H640 C624 0.931 . S
H641 C629 0.929 . S
H642 C630 0.960 . S
H643 C630 0.962 . S
H644 C630 0.960 . S
H645 C631 0.961 . S
H646 C631 0.961 . S
H647 C631 0.961 . S
H648 C632 0.931 . S
H649 C637 0.930 . S
H650 C638 0.956 . S
H651 C638 0.961 . S
H652 C638 0.961 . S
H653 C639 0.958 . S
H654 C639 0.961 . S
H655 C639 0.960 . S
C656 C657 1.391 . S
C656 C658 1.394 . S
C656 H672 0.931 . S
C657 C656 1.391 . S
C657 C661 1.376 . S
C658 C656 1.394 . S
C658 C659 1.369 . S
C658 C662 1.531 . S
C659 C658 1.369 . S
C659 C660 1.410 . S
C659 C667 1.503 . S
C660 C659 1.410 . S
C660 C661 1.392 . S
C660 C663 1.511 . S
C661 C657 1.376 . S
C661 C660 1.392 . S
C661 H673 0.929 . S
C662 C658 1.531 . S
C662 H674 0.960 . S
C662 H675 0.962 . S
C662 H676 0.960 . S
C663 C660 1.511 . S
C663 H677 0.961 . S
C663 H678 0.961 . S
C663 H679 0.961 . S
C664 C665 1.370 . S
C664 C666 1.363 . S
C664 H680 0.931 . S
C665 C664 1.370 . S
C665 C669 1.408 . S
C666 C664 1.363 . S
C666 C667 1.370 . S
C666 C670 1.524 . S
C667 C659 1.503 . S
C667 C666 1.370 . S
C667 C668 1.403 . S
C668 C667 1.403 . S
C668 C669 1.404 . S
C668 C671 1.539 . S
C669 C665 1.408 . S
C669 C668 1.404 . S
C669 H681 0.930 . S
C670 C666 1.524 . S
C670 H682 0.956 . S
C670 H683 0.961 . S
C670 H684 0.961 . S
C671 C668 1.539 . S
C671 H685 0.958 . S
C671 H686 0.961 . S
C671 H687 0.960 . S
H672 C656 0.931 . S
H673 C661 0.929 . S
H674 C662 0.960 . S
H675 C662 0.962 . S
H676 C662 0.960 . S
H677 C663 0.961 . S
H678 C663 0.961 . S
H679 C663 0.961 . S
H680 C664 0.931 . S
H681 C669 0.930 . S
H682 C670 0.956 . S
H683 C670 0.961 . S
H684 C670 0.961 . S
H685 C671 0.958 . S
H686 C671 0.961 . S
H687 C671 0.960 . S
C688 C689 1.391 . S
C688 C690 1.394 . S
C688 H704 0.931 . S
C689 C688 1.391 . S
C689 C693 1.376 . S
C690 C688 1.394 . S
C690 C691 1.369 . S
C690 C694 1.531 . S
C691 C690 1.369 . S
C691 C692 1.410 . S
C691 C699 1.503 . S
C692 C691 1.410 . S
C692 C693 1.392 . S
C692 C695 1.511 . S
C693 C689 1.376 . S
C693 C692 1.392 . S
C693 H705 0.929 . S
C694 C690 1.531 . S
C694 H706 0.960 . S
C694 H707 0.962 . S
C694 H708 0.960 . S
C695 C692 1.511 . S
C695 H709 0.961 . S
C695 H710 0.961 . S
C695 H711 0.961 . S
C696 C697 1.370 . S
C696 C698 1.363 . S
C696 H712 0.931 . S
C697 C696 1.370 . S
C697 C701 1.408 . S
C698 C696 1.363 . S
C698 C699 1.370 . S
C698 C702 1.524 . S
C699 C691 1.503 . S
C699 C698 1.370 . S
C699 C700 1.403 . S
C700 C699 1.403 . S
C700 C701 1.404 . S
C700 C703 1.539 . S
C701 C697 1.408 . S
C701 C700 1.404 . S
C701 H713 0.930 . S
C702 C698 1.524 . S
C702 H714 0.956 . S
C702 H715 0.961 . S
C702 H716 0.961 . S
C703 C700 1.539 . S
C703 H717 0.958 . S
C703 H718 0.961 . S
C703 H719 0.960 . S
H704 C688 0.931 . S
H705 C693 0.929 . S
H706 C694 0.960 . S
H707 C694 0.962 . S
H708 C694 0.960 . S
H709 C695 0.961 . S
H710 C695 0.961 . S
H711 C695 0.961 . S
H712 C696 0.931 . S
H713 C701 0.930 . S
H714 C702 0.956 . S
H715 C702 0.961 . S
H716 C702 0.961 . S
H717 C703 0.958 . S
H718 C703 0.961 . S
H719 C703 0.960 . S
C720 C721 1.391 . S
C720 C722 1.394 . S
C720 H736 0.931 . S
C721 C720 1.391 . S
C721 C725 1.376 . S
C722 C720 1.394 . S
C722 C723 1.369 . S
C722 C726 1.531 . S
C723 C722 1.369 . S
C723 C724 1.410 . S
C723 C731 1.503 . S
C724 C723 1.410 . S
C724 C725 1.392 . S
C724 C727 1.511 . S
C725 C721 1.376 . S
C725 C724 1.392 . S
C725 H737 0.929 . S
C726 C722 1.531 . S
C726 H738 0.960 . S
C726 H739 0.962 . S
C726 H740 0.960 . S
C727 C724 1.511 . S
C727 H741 0.961 . S
C727 H742 0.961 . S
C727 H743 0.961 . S
C728 C729 1.370 . S
C728 C730 1.363 . S
C728 H744 0.931 . S
C729 C728 1.370 . S
C729 C733 1.408 . S
C730 C728 1.363 . S
C730 C731 1.370 . S
C730 C734 1.524 . S
C731 C723 1.503 . S
C731 C730 1.370 . S
C731 C732 1.403 . S
C732 C731 1.403 . S
C732 C733 1.404 . S
C732 C735 1.539 . S
C733 C729 1.408 . S
C733 C732 1.404 . S
C733 H745 0.930 . S
C734 C730 1.524 . S
C734 H746 0.956 . S
C734 H747 0.961 . S
C734 H748 0.961 . S
C735 C732 1.539 . S
C735 H749 0.958 . S
C735 H750 0.961 . S
C735 H751 0.960 . S
H736 C720 0.931 . S
H737 C725 0.929 . S
H738 C726 0.960 . S
H739 C726 0.962 . S
H740 C726 0.960 . S
H741 C727 0.961 . S
H742 C727 0.961 . S
H743 C727 0.961 . S
H744 C728 0.931 . S
H745 C733 0.930 . S
H746 C734 0.956 . S
H747 C734 0.961 . S
H748 C734 0.961 . S
H749 C735 0.958 . S
H750 C735 0.961 . S
H751 C735 0.960 . S
C752 C753 1.391 . S
C752 C754 1.394 . S
C752 H768 0.931 . S
C753 C752 1.391 . S
C753 C757 1.376 . S
C754 C752 1.394 . S
C754 C755 1.369 . S
C754 C758 1.531 . S
C755 C754 1.369 . S
C755 C756 1.410 . S
C755 C763 1.503 . S
C756 C755 1.410 . S
C756 C757 1.392 . S
C756 C759 1.511 . S
C757 C753 1.376 . S
C757 C756 1.392 . S
C757 H769 0.929 . S
C758 C754 1.531 . S
C758 H770 0.960 . S
C758 H771 0.962 . S
C758 H772 0.960 . S
C759 C756 1.511 . S
C759 H773 0.961 . S
C759 H774 0.961 . S
C759 H775 0.961 . S
C760 C761 1.370 . S
C760 C762 1.363 . S
C760 H776 0.931 . S
C761 C760 1.370 . S
C761 C765 1.408 . S
C762 C760 1.363 . S
C762 C763 1.370 . S
C762 C766 1.524 . S
C763 C755 1.503 . S
C763 C762 1.370 . S
C763 C764 1.403 . S
C764 C763 1.403 . S
C764 C765 1.404 . S
C764 C767 1.539 . S
C765 C761 1.408 . S
C765 C764 1.404 . S
C765 H777 0.930 . S
C766 C762 1.524 . S
C766 H778 0.956 . S
C766 H779 0.961 . S
C766 H780 0.961 . S
C767 C764 1.539 . S
C767 H781 0.958 . S
C767 H782 0.961 . S
C767 H783 0.960 . S
H768 C752 0.931 . S
H769 C757 0.929 . S
H770 C758 0.960 . S
H771 C758 0.962 . S
H772 C758 0.960 . S
H773 C759 0.961 . S
H774 C759 0.961 . S
H775 C759 0.961 . S
H776 C760 0.931 . S
H777 C765 0.930 . S
H778 C766 0.956 . S
H779 C766 0.961 . S
H780 C766 0.961 . S
H781 C767 0.958 . S
H782 C767 0.961 . S
H783 C767 0.960 . S
C784 C785 1.391 . S
C784 C786 1.394 . S
C784 H800 0.931 . S
C785 C784 1.391 . S
C785 C789 1.376 . S
C786 C784 1.394 . S
C786 C787 1.369 . S
C786 C790 1.531 . S
C787 C786 1.369 . S
C787 C788 1.410 . S
C787 C795 1.503 . S
C788 C787 1.410 . S
C788 C789 1.392 . S
C788 C791 1.511 . S
C789 C785 1.376 . S
C789 C788 1.392 . S
C789 H801 0.929 . S
C790 C786 1.531 . S
C790 H802 0.960 . S
C790 H803 0.962 . S
C790 H804 0.960 . S
C791 C788 1.511 . S
C791 H805 0.961 . S
C791 H806 0.961 . S
C791 H807 0.961 . S
C792 C793 1.370 . S
C792 C794 1.363 . S
C792 H808 0.931 . S
C793 C792 1.370 . S
C793 C797 1.408 . S
C794 C792 1.363 . S
C794 C795 1.370 . S
C794 C798 1.524 . S
C795 C787 1.503 . S
C795 C794 1.370 . S
C795 C796 1.403 . S
C796 C795 1.403 . S
C796 C797 1.404 . S
C796 C799 1.539 . S
C797 C793 1.408 . S
C797 C796 1.404 . S
C797 H809 0.930 . S
C798 C794 1.524 . S
C798 H810 0.956 . S
C798 H811 0.961 . S
C798 H812 0.961 . S
C799 C796 1.539 . S
C799 H813 0.958 . S
C799 H814 0.961 . S
C799 H815 0.960 . S
H800 C784 0.931 . S
H801 C789 0.929 . S
H802 C790 0.960 . S
H803 C790 0.962 . S
H804 C790 0.960 . S
H805 C791 0.961 . S
H806 C791 0.961 . S
H807 C791 0.961 . S
H808 C792 0.931 . S
H809 C797 0.930 . S
H810 C798 0.956 . S
H811 C798 0.961 . S
H812 C798 0.961 . S
H813 C799 0.958 . S
H814 C799 0.961 . S
H815 C799 0.960 . S
C816 C817 1.391 . S
C816 C818 1.394 . S
C816 H832 0.931 . S
C817 C816 1.391 . S
C817 C821 1.376 . S
C818 C816 1.394 . S
C818 C819 1.369 . S
C818 C822 1.531 . S
C819 C818 1.369 . S
C819 C820 1.410 . S
C819 C827 1.503 . S
C820 C819 1.410 . S
C820 C821 1.392 . S
C820 C823 1.511 . S
C821 C817 1.376 . S
C821 C820 1.392 . S
C821 H833 0.929 . S
C822 C818 1.531 . S
C822 H834 0.960 . S
C822 H835 0.962 . S
C822 H836 0.960 . S
C823 C820 1.511 . S
C823 H837 0.961 . S
C823 H838 0.961 . S
C823 H839 0.961 . S
C824 C825 1.370 . S
C824 C826 1.363 . S
C824 H840 0.931 . S
C825 C824 1.370 . S
C825 C829 1.408 . S
C826 C824 1.363 . S
C826 C827 1.370 . S
C826 C830 1.524 . S
C827 C819 1.503 . S
C827 C826 1.370 . S
C827 C828 1.403 . S
C828 C827 1.403 . S
C828 C829 1.404 . S
C828 C831 1.539 . S
C829 C825 1.408 . S
C829 C828 1.404 . S
C829 H841 0.930 . S
C830 C826 1.524 . S
C830 H842 0.956 . S
C830 H843 0.961 . S
C830 H844 0.961 . S
C831 C828 1.539 . S
C831 H845 0.958 . S
C831 H846 0.961 . S
C831 H847 0.960 . S
H832 C816 0.931 . S
H833 C821 0.929 . S
H834 C822 0.960 . S
H835 C822 0.962 . S
H836 C822 0.960 . S
H837 C823 0.961 . S
H838 C823 0.961 . S
H839 C823 0.961 . S
H840 C824 0.931 . S
H841 C829 0.930 . S
H842 C830 0.956 . S
H843 C830 0.961 . S
H844 C830 0.961 . S
H845 C831 0.958 . S
H846 C831 0.961 . S
H847 C831 0.960 . S
C848 C849 1.391 . S
C848 C850 1.394 . S
C848 H864 0.931 . S
C849 C848 1.391 . S
C849 C853 1.376 . S
C850 C848 1.394 . S
C850 C851 1.369 . S
C850 C854 1.531 . S
C851 C850 1.369 . S
C851 C852 1.410 . S
C851 C859 1.503 . S
C852 C851 1.410 . S
C852 C853 1.392 . S
C852 C855 1.511 . S
C853 C849 1.376 . S
C853 C852 1.392 . S
C853 H865 0.929 . S
C854 C850 1.531 . S
C854 H866 0.960 . S
C854 H867 0.962 . S
C854 H868 0.960 . S
C855 C852 1.511 . S
C855 H869 0.961 . S
C855 H870 0.961 . S
C855 H871 0.961 . S
C856 C857 1.370 . S
C856 C858 1.363 . S
C856 H872 0.931 . S
C857 C856 1.370 . S
C857 C861 1.408 . S
C858 C856 1.363 . S
C858 C859 1.370 . S
C858 C862 1.524 . S
C859 C851 1.503 . S
C859 C858 1.370 . S
C859 C860 1.403 . S
C860 C859 1.403 . S
C860 C861 1.404 . S
C860 C863 1.539 . S
C861 C857 1.408 . S
C861 C860 1.404 . S
C861 H873 0.930 . S
C862 C858 1.524 . S
C862 H874 0.956 . S
C862 H875 0.961 . S
C862 H876 0.961 . S
C863 C860 1.539 . S
C863 H877 0.958 . S
C863 H878 0.961 . S
C863 H879 0.960 . S
H864 C848 0.931 . S
H865 C853 0.929 . S
H866 C854 0.960 . S
H867 C854 0.962 . S
H868 C854 0.960 . S
H869 C855 0.961 . S
H870 C855 0.961 . S
H871 C855 0.961 . S
H872 C856 0.931 . S
H873 C861 0.930 . S
H874 C862 0.956 . S
H875 C862 0.961 . S
H876 C862 0.961 . S
H877 C863 0.958 . S
H878 C863 0.961 . S
H879 C863 0.960 . S
C880 C881 1.391 . S
C880 C882 1.394 . S
C880 H896 0.931 . S
C881 C880 1.391 . S
C881 C885 1.376 . S
C882 C880 1.394 . S
C882 C883 1.369 . S
C882 C886 1.531 . S
C883 C882 1.369 . S
C883 C884 1.410 . S
C883 C891 1.503 . S
C884 C883 1.410 . S
C884 C885 1.392 . S
C884 C887 1.511 . S
C885 C881 1.376 . S
C885 C884 1.392 . S
C885 H897 0.929 . S
C886 C882 1.531 . S
C886 H898 0.960 . S
C886 H899 0.962 . S
C886 H900 0.960 . S
C887 C884 1.511 . S
C887 H901 0.961 . S
C887 H902 0.961 . S
C887 H903 0.961 . S
C888 C889 1.370 . S
C888 C890 1.363 . S
C888 H904 0.931 . S
C889 C888 1.370 . S
C889 C893 1.408 . S
C890 C888 1.363 . S
C890 C891 1.370 . S
C890 C894 1.524 . S
C891 C883 1.503 . S
C891 C890 1.370 . S
C891 C892 1.403 . S
C892 C891 1.403 . S
C892 C893 1.404 . S
C892 C895 1.539 . S
C893 C889 1.408 . S
C893 C892 1.404 . S
C893 H905 0.930 . S
C894 C890 1.524 . S
C894 H906 0.956 . S
C894 H907 0.961 . S
C894 H908 0.961 . S
C895 C892 1.539 . S
C895 H909 0.958 . S
C895 H910 0.961 . S
C895 H911 0.960 . S
H896 C880 0.931 . S
H897 C885 0.929 . S
H898 C886 0.960 . S
H899 C886 0.962 . S
H900 C886 0.960 . S
H901 C887 0.961 . S
H902 C887 0.961 . S
H903 C887 0.961 . S
H904 C888 0.931 . S
H905 C893 0.930 . S
H906 C894 0.956 . S
H907 C894 0.961 . S
H908 C894 0.961 . S
H909 C895 0.958 . S
H910 C895 0.961 . S
H911 C895 0.960 . S
C912 C913 1.391 . S
C912 C914 1.394 . S
C912 H928 0.931 . S
C913 C912 1.391 . S
C913 C917 1.376 . S
C914 C912 1.394 . S
C914 C915 1.369 . S
C914 C918 1.531 . S
C915 C914 1.369 . S
C915 C916 1.410 . S
C915 C923 1.503 . S
C916 C915 1.410 . S
C916 C917 1.392 . S
C916 C919 1.511 . S
C917 C913 1.376 . S
C917 C916 1.392 . S
C917 H929 0.929 . S
C918 C914 1.531 . S
C918 H930 0.960 . S
C918 H931 0.962 . S
C918 H932 0.960 . S
C919 C916 1.511 . S
C919 H933 0.961 . S
C919 H934 0.961 . S
C919 H935 0.961 . S
C920 C921 1.370 . S
C920 C922 1.363 . S
C920 H936 0.931 . S
C921 C920 1.370 . S
C921 C925 1.408 . S
C922 C920 1.363 . S
C922 C923 1.370 . S
C922 C926 1.524 . S
C923 C915 1.503 . S
C923 C922 1.370 . S
C923 C924 1.403 . S
C924 C923 1.403 . S
C924 C925 1.404 . S
C924 C927 1.539 . S
C925 C921 1.408 . S
C925 C924 1.404 . S
C925 H937 0.930 . S
C926 C922 1.524 . S
C926 H938 0.956 . S
C926 H939 0.961 . S
C926 H940 0.961 . S
C927 C924 1.539 . S
C927 H941 0.958 . S
C927 H942 0.961 . S
C927 H943 0.960 . S
H928 C912 0.931 . S
H929 C917 0.929 . S
H930 C918 0.960 . S
H931 C918 0.962 . S
H932 C918 0.960 . S
H933 C919 0.961 . S
H934 C919 0.961 . S
H935 C919 0.961 . S
H936 C920 0.931 . S
H937 C925 0.930 . S
H938 C926 0.956 . S
H939 C926 0.961 . S
H940 C926 0.961 . S
H941 C927 0.958 . S
H942 C927 0.961 . S
H943 C927 0.960 . S
C944 C945 1.391 . S
C944 C946 1.394 . S
C944 H960 0.931 . S
C945 C944 1.391 . S
C945 C949 1.376 . S
C946 C944 1.394 . S
C946 C947 1.369 . S
C946 C950 1.531 . S
C947 C946 1.369 . S
C947 C948 1.410 . S
C947 C955 1.503 . S
C948 C947 1.410 . S
C948 C949 1.392 . S
C948 C951 1.511 . S
C949 C945 1.376 . S
C949 C948 1.392 . S
C949 H961 0.929 . S
C950 C946 1.531 . S
C950 H962 0.960 . S
C950 H963 0.962 . S
C950 H964 0.960 . S
C951 C948 1.511 . S
C951 H965 0.961 . S
C951 H966 0.961 . S
C951 H967 0.961 . S
C952 C953 1.370 . S
C952 C954 1.363 . S
C952 H968 0.931 . S
C953 C952 1.370 . S
C953 C957 1.408 . S
C954 C952 1.363 . S
C954 C955 1.370 . S
C954 C958 1.524 . S
C955 C947 1.503 . S
C955 C954 1.370 . S
C955 C956 1.403 . S
C956 C955 1.403 . S
C956 C957 1.404 . S
C956 C959 1.539 . S
C957 C953 1.408 . S
C957 C956 1.404 . S
C957 H969 0.930 . S
C958 C954 1.524 . S
C958 H970 0.956 . S
C958 H971 0.961 . S
C958 H972 0.961 . S
C959 C956 1.539 . S
C959 H973 0.958 . S
C959 H974 0.961 . S
C959 H975 0.960 . S
H960 C944 0.931 . S
H961 C949 0.929 . S
H962 C950 0.960 . S
H963 C950 0.962 . S
H964 C950 0.960 . S
H965 C951 0.961 . S
H966 C951 0.961 . S
H967 C951 0.961 . S
H968 C952 0.931 . S
H969 C957 0.930 . S
H970 C958 0.956 . S
H971 C958 0.961 . S
H972 C958 0.961 . S
H973 C959 0.958 . S
H974 C959 0.961 . S
H975 C959 0.960 . S
C976 C977 1.391 . S
C976 C978 1.394 . S
C976 H992 0.931 . S
C977 C976 1.391 . S
C977 C981 1.376 . S
C978 C976 1.394 . S
C978 C979 1.369 . S
C978 C982 1.531 . S
C979 C978 1.369 . S
C979 C980 1.410 . S
C979 C987 1.503 . S
C980 C979 1.410 . S
C980 C981 1.392 . S
C980 C983 1.511 . S
C981 C977 1.376 . S
C981 C980 1.392 . S
C981 H993 0.929 . S
C982 C978 1.531 . S
C982 H994 0.960 . S
C982 H995 0.962 . S
C982 H996 0.960 . S
C983 C980 1.511 . S
C983 H997 0.961 . S
C983 H998 0.961 . S
C983 H999 0.961 . S
C984 C985 1.370 . S
C984 C986 1.363 . S
C984 H1000 0.931 . S
C985 C984 1.370 . S
C985 C989 1.408 . S
C986 C984 1.363 . S
C986 C987 1.370 . S
C986 C990 1.524 . S
C987 C979 1.503 . S
C987 C986 1.370 . S
C987 C988 1.403 . S
C988 C987 1.403 . S
C988 C989 1.404 . S
C988 C991 1.539 . S
C989 C985 1.408 . S
C989 C988 1.404 . S
C989 H1001 0.930 . S
C990 C986 1.524 . S
C990 H1002 0.956 . S
C990 H1003 0.961 . S
C990 H1004 0.961 . S
C991 C988 1.539 . S
C991 H1005 0.958 . S
C991 H1006 0.961 . S
C991 H1007 0.960 . S
H992 C976 0.931 . S
H993 C981 0.929 . S
H994 C982 0.960 . S
H995 C982 0.962 . S
H996 C982 0.960 . S
H997 C983 0.961 . S
H998 C983 0.961 . S
H999 C983 0.961 . S
H1000 C984 0.931 . S
H1001 C989 0.930 . S
H1002 C990 0.956 . S
H1003 C990 0.961 . S
H1004 C990 0.961 . S
H1005 C991 0.958 . S
H1006 C991 0.961 . S
H1007 C991 0.960 . S
C1008 C1009 1.391 . S
C1008 C1010 1.394 . S
C1008 H1024 0.931 . S
C1009 C1008 1.391 . S
C1009 C1013 1.376 . S
C1010 C1008 1.394 . S
C1010 C1011 1.369 . S
C1010 C1014 1.531 . S
C1011 C1010 1.369 . S
C1011 C1012 1.410 . S
C1011 C1019 1.503 . S
C1012 C1011 1.410 . S
C1012 C1013 1.392 . S
C1012 C1015 1.511 . S
C1013 C1009 1.376 . S
C1013 C1012 1.392 . S
C1013 H1025 0.929 . S
C1014 C1010 1.531 . S
C1014 H1026 0.960 . S
C1014 H1027 0.962 . S
C1014 H1028 0.960 . S
C1015 C1012 1.511 . S
C1015 H1029 0.961 . S
C1015 H1030 0.961 . S
C1015 H1031 0.961 . S
C1016 C1017 1.370 . S
C1016 C1018 1.363 . S
C1016 H1032 0.931 . S
C1017 C1016 1.370 . S
C1017 C1021 1.408 . S
C1018 C1016 1.363 . S
C1018 C1019 1.370 . S
C1018 C1022 1.524 . S
C1019 C1011 1.503 . S
C1019 C1018 1.370 . S
C1019 C1020 1.403 . S
C1020 C1019 1.403 . S
C1020 C1021 1.404 . S
C1020 C1023 1.539 . S
C1021 C1017 1.408 . S
C1021 C1020 1.404 . S
C1021 H1033 0.930 . S
C1022 C1018 1.524 . S
C1022 H1034 0.956 . S
C1022 H1035 0.961 . S
C1022 H1036 0.961 . S
C1023 C1020 1.539 . S
C1023 H1037 0.958 . S
C1023 H1038 0.961 . S
C1023 H1039 0.960 . S
H1024 C1008 0.931 . S
H1025 C1013 0.929 . S
H1026 C1014 0.960 . S
H1027 C1014 0.962 . S
H1028 C1014 0.960 . S
H1029 C1015 0.961 . S
H1030 C1015 0.961 . S
H1031 C1015 0.961 . S
H1032 C1016 0.931 . S
H1033 C1021 0.930 . S
H1034 C1022 0.956 . S
H1035 C1022 0.961 . S
H1036 C1022 0.961 . S
H1037 C1023 0.958 . S
H1038 C1023 0.961 . S
H1039 C1023 0.960 . S
C1040 C1041 1.391 . S
C1040 C1042 1.394 . S
C1040 H1056 0.931 . S
C1041 C1040 1.391 . S
C1041 C1045 1.376 . S
C1042 C1040 1.394 . S
C1042 C1043 1.369 . S
C1042 C1046 1.531 . S
C1043 C1042 1.369 . S
C1043 C1044 1.410 . S
C1043 C1051 1.503 . S
C1044 C1043 1.410 . S
C1044 C1045 1.392 . S
C1044 C1047 1.511 . S
C1045 C1041 1.376 . S
C1045 C1044 1.392 . S
C1045 H1057 0.929 . S
C1046 C1042 1.531 . S
C1046 H1058 0.960 . S
C1046 H1059 0.962 . S
C1046 H1060 0.960 . S
C1047 C1044 1.511 . S
C1047 H1061 0.961 . S
C1047 H1062 0.961 . S
C1047 H1063 0.961 . S
C1048 C1049 1.370 . S
C1048 C1050 1.363 . S
C1048 H1064 0.931 . S
C1049 C1048 1.370 . S
C1049 C1053 1.408 . S
C1050 C1048 1.363 . S
C1050 C1051 1.370 . S
C1050 C1054 1.524 . S
C1051 C1043 1.503 . S
C1051 C1050 1.370 . S
C1051 C1052 1.403 . S
C1052 C1051 1.403 . S
C1052 C1053 1.404 . S
C1052 C1055 1.539 . S
C1053 C1049 1.408 . S
C1053 C1052 1.404 . S
C1053 H1065 0.930 . S
C1054 C1050 1.524 . S
C1054 H1066 0.956 . S
C1054 H1067 0.961 . S
C1054 H1068 0.961 . S
C1055 C1052 1.539 . S
C1055 H1069 0.958 . S
C1055 H1070 0.961 . S
C1055 H1071 0.960 . S
H1056 C1040 0.931 . S
H1057 C1045 0.929 . S
H1058 C1046 0.960 . S
H1059 C1046 0.962 . S
H1060 C1046 0.960 . S
H1061 C1047 0.961 . S
H1062 C1047 0.961 . S
H1063 C1047 0.961 . S
H1064 C1048 0.931 . S
H1065 C1053 0.930 . S
H1066 C1054 0.956 . S
H1067 C1054 0.961 . S
H1068 C1054 0.961 . S
H1069 C1055 0.958 . S
H1070 C1055 0.961 . S
H1071 C1055 0.960 . S
C1072 C1073 1.391 . S
C1072 C1074 1.394 . S
C1072 H1088 0.931 . S
C1073 C1072 1.391 . S
C1073 C1077 1.376 . S
C1074 C1072 1.394 . S
C1074 C1075 1.369 . S
C1074 C1078 1.531 . S
C1075 C1074 1.369 . S
C1075 C1076 1.410 . S
C1075 C1083 1.503 . S
C1076 C1075 1.410 . S
C1076 C1077 1.392 . S
C1076 C1079 1.511 . S
C1077 C1073 1.376 . S
C1077 C1076 1.392 . S
C1077 H1089 0.929 . S
C1078 C1074 1.531 . S
C1078 H1090 0.960 . S
C1078 H1091 0.962 . S
C1078 H1092 0.960 . S
C1079 C1076 1.511 . S
C1079 H1093 0.961 . S
C1079 H1094 0.961 . S
C1079 H1095 0.961 . S
C1080 C1081 1.370 . S
C1080 C1082 1.363 . S
C1080 H1096 0.931 . S
C1081 C1080 1.370 . S
C1081 C1085 1.408 . S
C1082 C1080 1.363 . S
C1082 C1083 1.370 . S
C1082 C1086 1.524 . S
C1083 C1075 1.503 . S
C1083 C1082 1.370 . S
C1083 C1084 1.403 . S
C1084 C1083 1.403 . S
C1084 C1085 1.404 . S
C1084 C1087 1.539 . S
C1085 C1081 1.408 . S
C1085 C1084 1.404 . S
C1085 H1097 0.930 . S
C1086 C1082 1.524 . S
C1086 H1098 0.956 . S
C1086 H1099 0.961 . S
C1086 H1100 0.961 . S
C1087 C1084 1.539 . S
C1087 H1101 0.958 . S
C1087 H1102 0.961 . S
C1087 H1103 0.960 . S
H1088 C1072 0.931 . S
H1089 C1077 0.929 . S
H1090 C1078 0.960 . S
H1091 C1078 0.962 . S
H1092 C1078 0.960 . S
H1093 C1079 0.961 . S
H1094 C1079 0.961 . S
H1095 C1079 0.961 . S
H1096 C1080 0.931 . S
H1097 C1085 0.930 . S
H1098 C1086 0.956 . S
H1099 C1086 0.961 . S
H1100 C1086 0.961 . S
H1101 C1087 0.958 . S
H1102 C1087 0.961 . S
H1103 C1087 0.960 . S
C1104 C1105 1.391 . S
C1104 C1106 1.394 . S
C1104 H1120 0.931 . S
C1105 C1104 1.391 . S
C1105 C1109 1.376 . S
C1106 C1104 1.394 . S
C1106 C1107 1.369 . S
C1106 C1110 1.531 . S
C1107 C1106 1.369 . S
C1107 C1108 1.410 . S
C1107 C1115 1.503 . S
C1108 C1107 1.410 . S
C1108 C1109 1.392 . S
C1108 C1111 1.511 . S
C1109 C1105 1.376 . S
C1109 C1108 1.392 . S
C1109 H1121 0.929 . S
C1110 C1106 1.531 . S
C1110 H1122 0.960 . S
C1110 H1123 0.962 . S
C1110 H1124 0.960 . S
C1111 C1108 1.511 . S
C1111 H1125 0.961 . S
C1111 H1126 0.961 . S
C1111 H1127 0.961 . S
C1112 C1113 1.370 . S
C1112 C1114 1.363 . S
C1112 H1128 0.931 . S
C1113 C1112 1.370 . S
C1113 C1117 1.408 . S
C1114 C1112 1.363 . S
C1114 C1115 1.370 . S
C1114 C1118 1.524 . S
C1115 C1107 1.503 . S
C1115 C1114 1.370 . S
C1115 C1116 1.403 . S
C1116 C1115 1.403 . S
C1116 C1117 1.404 . S
C1116 C1119 1.539 . S
C1117 C1113 1.408 . S
C1117 C1116 1.404 . S
C1117 H1129 0.930 . S
C1118 C1114 1.524 . S
C1118 H1130 0.956 . S
C1118 H1131 0.961 . S
C1118 H1132 0.961 . S
C1119 C1116 1.539 . S
C1119 H1133 0.958 . S
C1119 H1134 0.961 . S
C1119 H1135 0.960 . S
H1120 C1104 0.931 . S
H1121 C1109 0.929 . S
H1122 C1110 0.960 . S
H1123 C1110 0.962 . S
H1124 C1110 0.960 . S
H1125 C1111 0.961 . S
H1126 C1111 0.961 . S
H1127 C1111 0.961 . S
H1128 C1112 0.931 . S
H1129 C1117 0.930 . S
H1130 C1118 0.956 . S
H1131 C1118 0.961 . S
H1132 C1118 0.961 . S
H1133 C1119 0.958 . S
H1134 C1119 0.961 . S
H1135 C1119 0.960 . S
C1136 C1137 1.391 . S
C1136 C1138 1.394 . S
C1136 H1152 0.931 . S
C1137 C1136 1.391 . S
C1137 C1141 1.376 . S
C1138 C1136 1.394 . S
C1138 C1139 1.369 . S
C1138 C1142 1.531 . S
C1139 C1138 1.369 . S
C1139 C1140 1.410 . S
C1139 C1147 1.503 . S
C1140 C1139 1.410 . S
C1140 C1141 1.392 . S
C1140 C1143 1.511 . S
C1141 C1137 1.376 . S
C1141 C1140 1.392 . S
C1141 H1153 0.929 . S
C1142 C1138 1.531 . S
C1142 H1154 0.960 . S
C1142 H1155 0.962 . S
C1142 H1156 0.960 . S
C1143 C1140 1.511 . S
C1143 H1157 0.961 . S
C1143 H1158 0.961 . S
C1143 H1159 0.961 . S
C1144 C1145 1.370 . S
C1144 C1146 1.363 . S
C1144 H1160 0.931 . S
C1145 C1144 1.370 . S
C1145 C1149 1.408 . S
C1146 C1144 1.363 . S
C1146 C1147 1.370 . S
C1146 C1150 1.524 . S
C1147 C1139 1.503 . S
C1147 C1146 1.370 . S
C1147 C1148 1.403 . S
C1148 C1147 1.403 . S
C1148 C1149 1.404 . S
C1148 C1151 1.539 . S
C1149 C1145 1.408 . S
C1149 C1148 1.404 . S
C1149 H1161 0.930 . S
C1150 C1146 1.524 . S
C1150 H1162 0.956 . S
C1150 H1163 0.961 . S
C1150 H1164 0.961 . S
C1151 C1148 1.539 . S
C1151 H1165 0.958 . S
C1151 H1166 0.961 . S
C1151 H1167 0.960 . S
H1152 C1136 0.931 . S
H1153 C1141 0.929 . S
H1154 C1142 0.960 . S
H1155 C1142 0.962 . S
H1156 C1142 0.960 . S
H1157 C1143 0.961 . S
H1158 C1143 0.961 . S
H1159 C1143 0.961 . S
H1160 C1144 0.931 . S
H1161 C1149 0.930 . S
H1162 C1150 0.956 . S
H1163 C1150 0.961 . S
H1164 C1150 0.961 . S
H1165 C1151 0.958 . S
H1166 C1151 0.961 . S
H1167 C1151 0.960 . S
C1168 C1169 1.391 . S
C1168 C1170 1.394 . S
C1168 H1184 0.931 . S
C1169 C1168 1.391 . S
C1169 C1173 1.376 . S
C1170 C1168 1.394 . S
C1170 C1171 1.369 . S
C1170 C1174 1.531 . S
C1171 C1170 1.369 . S
C1171 C1172 1.410 . S
C1171 C1179 1.503 . S
C1172 C1171 1.410 . S
C1172 C1173 1.392 . S
C1172 C1175 1.511 . S
C1173 C1169 1.376 . S
C1173 C1172 1.392 . S
C1173 H1185 0.929 . S
C1174 C1170 1.531 . S
C1174 H1186 0.960 . S
C1174 H1187 0.962 . S
C1174 H1188 0.960 . S
C1175 C1172 1.511 . S
C1175 H1189 0.961 . S
C1175 H1190 0.961 . S
C1175 H1191 0.961 . S
C1176 C1177 1.370 . S
C1176 C1178 1.363 . S
C1176 H1192 0.931 . S
C1177 C1176 1.370 . S
C1177 C1181 1.408 . S
C1178 C1176 1.363 . S
C1178 C1179 1.370 . S
C1178 C1182 1.524 . S
C1179 C1171 1.503 . S
C1179 C1178 1.370 . S
C1179 C1180 1.403 . S
C1180 C1179 1.403 . S
C1180 C1181 1.404 . S
C1180 C1183 1.539 . S
C1181 C1177 1.408 . S
C1181 C1180 1.404 . S
C1181 H1193 0.930 . S
C1182 C1178 1.524 . S
C1182 H1194 0.956 . S
C1182 H1195 0.961 . S
C1182 H1196 0.961 . S
C1183 C1180 1.539 . S
C1183 H1197 0.958 . S
C1183 H1198 0.961 . S
C1183 H1199 0.960 . S
H1184 C1168 0.931 . S
H1185 C1173 0.929 . S
H1186 C1174 0.960 . S
H1187 C1174 0.962 . S
H1188 C1174 0.960 . S
H1189 C1175 0.961 . S
H1190 C1175 0.961 . S
H1191 C1175 0.961 . S
H1192 C1176 0.931 . S
H1193 C1181 0.930 . S
H1194 C1182 0.956 . S
H1195 C1182 0.961 . S
H1196 C1182 0.961 . S
H1197 C1183 0.958 . S
H1198 C1183 0.961 . S
H1199 C1183 0.960 . S
C1200 C1201 1.391 . S
C1200 C1202 1.394 . S
C1200 H1216 0.931 . S
C1201 C1200 1.391 . S
C1201 C1205 1.376 . S
C1202 C1200 1.394 . S
C1202 C1203 1.369 . S
C1202 C1206 1.531 . S
C1203 C1202 1.369 . S
C1203 C1204 1.410 . S
C1203 C1211 1.503 . S
C1204 C1203 1.410 . S
C1204 C1205 1.392 . S
C1204 C1207 1.511 . S
C1205 C1201 1.376 . S
C1205 C1204 1.392 . S
C1205 H1217 0.929 . S
C1206 C1202 1.531 . S
C1206 H1218 0.960 . S
C1206 H1219 0.962 . S
C1206 H1220 0.960 . S
C1207 C1204 1.511 . S
C1207 H1221 0.961 . S
C1207 H1222 0.961 . S
C1207 H1223 0.961 . S
C1208 C1209 1.370 . S
C1208 C1210 1.363 . S
C1208 H1224 0.931 . S
C1209 C1208 1.370 . S
C1209 C1213 1.408 . S
C1210 C1208 1.363 . S
C1210 C1211 1.370 . S
C1210 C1214 1.524 . S
C1211 C1203 1.503 . S
C1211 C1210 1.370 . S
C1211 C1212 1.403 . S
C1212 C1211 1.403 . S
C1212 C1213 1.404 . S
C1212 C1215 1.539 . S
C1213 C1209 1.408 . S
C1213 C1212 1.404 . S
C1213 H1225 0.930 . S
C1214 C1210 1.524 . S
C1214 H1226 0.956 . S
C1214 H1227 0.961 . S
C1214 H1228 0.961 . S
C1215 C1212 1.539 . S
C1215 H1229 0.958 . S
C1215 H1230 0.961 . S
C1215 H1231 0.960 . S
H1216 C1200 0.931 . S
H1217 C1205 0.929 . S
H1218 C1206 0.960 . S
H1219 C1206 0.962 . S
H1220 C1206 0.960 . S
H1221 C1207 0.961 . S
H1222 C1207 0.961 . S
H1223 C1207 0.961 . S
H1224 C1208 0.931 . S
H1225 C1213 0.930 . S
H1226 C1214 0.956 . S
H1227 C1214 0.961 . S
H1228 C1214 0.961 . S
H1229 C1215 0.958 . S
H1230 C1215 0.961 . S
H1231 C1215 0.960 . S
C1232 C1233 1.391 . S
C1232 C1234 1.394 . S
C1232 H1248 0.931 . S
C1233 C1232 1.391 . S
C1233 C1237 1.376 . S
C1234 C1232 1.394 . S
C1234 C1235 1.369 . S
C1234 C1238 1.531 . S
C1235 C1234 1.369 . S
C1235 C1236 1.410 . S
C1235 C1243 1.503 . S
C1236 C1235 1.410 . S
C1236 C1237 1.392 . S
C1236 C1239 1.511 . S
C1237 C1233 1.376 . S
C1237 C1236 1.392 . S
C1237 H1249 0.929 . S
C1238 C1234 1.531 . S
C1238 H1250 0.960 . S
C1238 H1251 0.962 . S
C1238 H1252 0.960 . S
C1239 C1236 1.511 . S
C1239 H1253 0.961 . S
C1239 H1254 0.961 . S
C1239 H1255 0.961 . S
C1240 C1241 1.370 . S
C1240 C1242 1.363 . S
C1240 H1256 0.931 . S
C1241 C1240 1.370 . S
C1241 C1245 1.408 . S
C1242 C1240 1.363 . S
C1242 C1243 1.370 . S
C1242 C1246 1.524 . S
C1243 C1235 1.503 . S
C1243 C1242 1.370 . S
C1243 C1244 1.403 . S
C1244 C1243 1.403 . S
C1244 C1245 1.404 . S
C1244 C1247 1.539 . S
C1245 C1241 1.408 . S
C1245 C1244 1.404 . S
C1245 H1257 0.930 . S
C1246 C1242 1.524 . S
C1246 H1258 0.956 . S
C1246 H1259 0.961 . S
C1246 H1260 0.961 . S
C1247 C1244 1.539 . S
C1247 H1261 0.958 . S
C1247 H1262 0.961 . S
C1247 H1263 0.960 . S
H1248 C1232 0.931 . S
H1249 C1237 0.929 . S
H1250 C1238 0.960 . S
H1251 C1238 0.962 . S
H1252 C1238 0.960 . S
H1253 C1239 0.961 . S
H1254 C1239 0.961 . S
H1255 C1239 0.961 . S
H1256 C1240 0.931 . S
H1257 C1245 0.930 . S
H1258 C1246 0.956 . S
H1259 C1246 0.961 . S
H1260 C1246 0.961 . S
H1261 C1247 0.958 . S
H1262 C1247 0.961 . S
H1263 C1247 0.960 . S
C1264 C1265 1.391 . S
C1264 C1266 1.394 . S
C1264 H1280 0.931 . S
C1265 C1264 1.391 . S
C1265 C1269 1.376 . S
C1266 C1264 1.394 . S
C1266 C1267 1.369 . S
C1266 C1270 1.531 . S
C1267 C1266 1.369 . S
C1267 C1268 1.410 . S
C1267 C1275 1.503 . S
C1268 C1267 1.410 . S
C1268 C1269 1.392 . S
C1268 C1271 1.511 . S
C1269 C1265 1.376 . S
C1269 C1268 1.392 . S
C1269 H1281 0.929 . S
C1270 C1266 1.531 . S
C1270 H1282 0.960 . S
C1270 H1283 0.962 . S
C1270 H1284 0.960 . S
C1271 C1268 1.511 . S
C1271 H1285 0.961 . S
C1271 H1286 0.961 . S
C1271 H1287 0.961 . S
C1272 C1273 1.370 . S
C1272 C1274 1.363 . S
C1272 H1288 0.931 . S
C1273 C1272 1.370 . S
C1273 C1277 1.408 . S
C1274 C1272 1.363 . S
C1274 C1275 1.370 . S
C1274 C1278 1.524 . S
C1275 C1267 1.503 . S
C1275 C1274 1.370 . S
C1275 C1276 1.403 . S
C1276 C1275 1.403 . S
C1276 C1277 1.404 . S
C1276 C1279 1.539 . S
C1277 C1273 1.408 . S
C1277 C1276 1.404 . S
C1277 H1289 0.930 . S
C1278 C1274 1.524 . S
C1278 H1290 0.956 . S
C1278 H1291 0.961 . S
C1278 H1292 0.961 . S
C1279 C1276 1.539 . S
C1279 H1293 0.958 . S
C1279 H1294 0.961 . S
C1279 H1295 0.960 . S
H1280 C1264 0.931 . S
H1281 C1269 0.929 . S
H1282 C1270 0.960 . S
H1283 C1270 0.962 . S
H1284 C1270 0.960 . S
H1285 C1271 0.961 . S
H1286 C1271 0.961 . S
H1287 C1271 0.961 . S
H1288 C1272 0.931 . S
H1289 C1277 0.930 . S
H1290 C1278 0.956 . S
H1291 C1278 0.961 . S
H1292 C1278 0.961 . S
H1293 C1279 0.958 . S
H1294 C1279 0.961 . S
H1295 C1279 0.960 . S
C1296 C1297 1.391 . S
C1296 C1298 1.394 . S
C1296 H1312 0.931 . S
C1297 C1296 1.391 . S
C1297 C1301 1.376 . S
C1298 C1296 1.394 . S
C1298 C1299 1.369 . S
C1298 C1302 1.531 . S
C1299 C1298 1.369 . S
C1299 C1300 1.410 . S
C1299 C1307 1.503 . S
C1300 C1299 1.410 . S
C1300 C1301 1.392 . S
C1300 C1303 1.511 . S
C1301 C1297 1.376 . S
C1301 C1300 1.392 . S
C1301 H1313 0.929 . S
C1302 C1298 1.531 . S
C1302 H1314 0.960 . S
C1302 H1315 0.962 . S
C1302 H1316 0.960 . S
C1303 C1300 1.511 . S
C1303 H1317 0.961 . S
C1303 H1318 0.961 . S
C1303 H1319 0.961 . S
C1304 C1305 1.370 . S
C1304 C1306 1.363 . S
C1304 H1320 0.931 . S
C1305 C1304 1.370 . S
C1305 C1309 1.408 . S
C1306 C1304 1.363 . S
C1306 C1307 1.370 . S
C1306 C1310 1.524 . S
C1307 C1299 1.503 . S
C1307 C1306 1.370 . S
C1307 C1308 1.403 . S
C1308 C1307 1.403 . S
C1308 C1309 1.404 . S
C1308 C1311 1.539 . S
C1309 C1305 1.408 . S
C1309 C1308 1.404 . S
C1309 H1321 0.930 . S
C1310 C1306 1.524 . S
C1310 H1322 0.956 . S
C1310 H1323 0.961 . S
C1310 H1324 0.961 . S
C1311 C1308 1.539 . S
C1311 H1325 0.958 . S
C1311 H1326 0.961 . S
C1311 H1327 0.960 . S
H1312 C1296 0.931 . S
H1313 C1301 0.929 . S
H1314 C1302 0.960 . S
H1315 C1302 0.962 . S
H1316 C1302 0.960 . S
H1317 C1303 0.961 . S
H1318 C1303 0.961 . S
H1319 C1303 0.961 . S
H1320 C1304 0.931 . S
H1321 C1309 0.930 . S
H1322 C1310 0.956 . S
H1323 C1310 0.961 . S
H1324 C1310 0.961 . S
H1325 C1311 0.958 . S
H1326 C1311 0.961 . S
H1327 C1311 0.960 . S
C1328 C1329 1.391 . S
C1328 C1330 1.394 . S
C1328 H1344 0.931 . S
C1329 C1328 1.391 . S
C1329 C1333 1.376 . S
C1330 C1328 1.394 . S
C1330 C1331 1.369 . S
C1330 C1334 1.531 . S
C1331 C1330 1.369 . S
C1331 C1332 1.410 . S
C1331 C1339 1.503 . S
C1332 C1331 1.410 . S
C1332 C1333 1.392 . S
C1332 C1335 1.511 . S
C1333 C1329 1.376 . S
C1333 C1332 1.392 . S
C1333 H1345 0.929 . S
C1334 C1330 1.531 . S
C1334 H1346 0.960 . S
C1334 H1347 0.962 . S
C1334 H1348 0.960 . S
C1335 C1332 1.511 . S
C1335 H1349 0.961 . S
C1335 H1350 0.961 . S
C1335 H1351 0.961 . S
C1336 C1337 1.370 . S
C1336 C1338 1.363 . S
C1336 H1352 0.931 . S
C1337 C1336 1.370 . S
C1337 C1341 1.408 . S
C1338 C1336 1.363 . S
C1338 C1339 1.370 . S
C1338 C1342 1.524 . S
C1339 C1331 1.503 . S
C1339 C1338 1.370 . S
C1339 C1340 1.403 . S
C1340 C1339 1.403 . S
C1340 C1341 1.404 . S
C1340 C1343 1.539 . S
C1341 C1337 1.408 . S
C1341 C1340 1.404 . S
C1341 H1353 0.930 . S
C1342 C1338 1.524 . S
C1342 H1354 0.956 . S
C1342 H1355 0.961 . S
C1342 H1356 0.961 . S
C1343 C1340 1.539 . S
C1343 H1357 0.958 . S
C1343 H1358 0.961 . S
C1343 H1359 0.960 . S
H1344 C1328 0.931 . S
H1345 C1333 0.929 . S
H1346 C1334 0.960 . S
H1347 C1334 0.962 . S
H1348 C1334 0.960 . S
H1349 C1335 0.961 . S
H1350 C1335 0.961 . S
H1351 C1335 0.961 . S
H1352 C1336 0.931 . S
H1353 C1341 0.930 . S
H1354 C1342 0.956 . S
H1355 C1342 0.961 . S
H1356 C1342 0.961 . S
H1357 C1343 0.958 . S
H1358 C1343 0.961 . S
H1359 C1343 0.960 . S
C1360 C1361 1.391 . S
C1360 C1362 1.394 . S
C1360 H1376 0.931 . S
C1361 C1360 1.391 . S
C1361 C1365 1.376 . S
C1362 C1360 1.394 . S
C1362 C1363 1.369 . S
C1362 C1366 1.531 . S
C1363 C1362 1.369 . S
C1363 C1364 1.410 . S
C1363 C1371 1.503 . S
C1364 C1363 1.410 . S
C1364 C1365 1.392 . S
C1364 C1367 1.511 . S
C1365 C1361 1.376 . S
C1365 C1364 1.392 . S
C1365 H1377 0.929 . S
C1366 C1362 1.531 . S
C1366 H1378 0.960 . S
C1366 H1379 0.962 . S
C1366 H1380 0.960 . S
C1367 C1364 1.511 . S
C1367 H1381 0.961 . S
C1367 H1382 0.961 . S
C1367 H1383 0.961 . S
C1368 C1369 1.370 . S
C1368 C1370 1.363 . S
C1368 H1384 0.931 . S
C1369 C1368 1.370 . S
C1369 C1373 1.408 . S
C1370 C1368 1.363 . S
C1370 C1371 1.370 . S
C1370 C1374 1.524 . S
C1371 C1363 1.503 . S
C1371 C1370 1.370 . S
C1371 C1372 1.403 . S
C1372 C1371 1.403 . S
C1372 C1373 1.404 . S
C1372 C1375 1.539 . S
C1373 C1369 1.408 . S
C1373 C1372 1.404 . S
C1373 H1385 0.930 . S
C1374 C1370 1.524 . S
C1374 H1386 0.956 . S
C1374 H1387 0.961 . S
C1374 H1388 0.961 . S
C1375 C1372 1.539 . S
C1375 H1389 0.958 . S
C1375 H1390 0.961 . S
C1375 H1391 0.960 . S
H1376 C1360 0.931 . S
H1377 C1365 0.929 . S
H1378 C1366 0.960 . S
H1379 C1366 0.962 . S
H1380 C1366 0.960 . S
H1381 C1367 0.961 . S
H1382 C1367 0.961 . S
H1383 C1367 0.961 . S
H1384 C1368 0.931 . S
H1385 C1373 0.930 . S
H1386 C1374 0.956 . S
H1387 C1374 0.961 . S
H1388 C1374 0.961 . S
H1389 C1375 0.958 . S
H1390 C1375 0.961 . S
H1391 C1375 0.960 . S
C1392 C1393 1.391 . S
C1392 C1394 1.394 . S
C1392 H1408 0.931 . S
C1393 C1392 1.391 . S
C1393 C1397 1.376 . S
C1394 C1392 1.394 . S
C1394 C1395 1.369 . S
C1394 C1398 1.531 . S
C1395 C1394 1.369 . S
C1395 C1396 1.410 . S
C1395 C1403 1.503 . S
C1396 C1395 1.410 . S
C1396 C1397 1.392 . S
C1396 C1399 1.511 . S
C1397 C1393 1.376 . S
C1397 C1396 1.392 . S
C1397 H1409 0.929 . S
C1398 C1394 1.531 . S
C1398 H1410 0.960 . S
C1398 H1411 0.962 . S
C1398 H1412 0.960 . S
C1399 C1396 1.511 . S
C1399 H1413 0.961 . S
C1399 H1414 0.961 . S
C1399 H1415 0.961 . S
C1400 C1401 1.370 . S
C1400 C1402 1.363 . S
C1400 H1416 0.931 . S
C1401 C1400 1.370 . S
C1401 C1405 1.408 . S
C1402 C1400 1.363 . S
C1402 C1403 1.370 . S
C1402 C1406 1.524 . S
C1403 C1395 1.503 . S
C1403 C1402 1.370 . S
C1403 C1404 1.403 . S
C1404 C1403 1.403 . S
C1404 C1405 1.404 . S
C1404 C1407 1.539 . S
C1405 C1401 1.408 . S
C1405 C1404 1.404 . S
C1405 H1417 0.930 . S
C1406 C1402 1.524 . S
C1406 H1418 0.956 . S
C1406 H1419 0.961 . S
C1406 H1420 0.961 . S
C1407 C1404 1.539 . S
C1407 H1421 0.958 . S
C1407 H1422 0.961 . S
C1407 H1423 0.960 . S
H1408 C1392 0.931 . S
H1409 C1397 0.929 . S
H1410 C1398 0.960 . S
H1411 C1398 0.962 . S
H1412 C1398 0.960 . S
H1413 C1399 0.961 . S
H1414 C1399 0.961 . S
H1415 C1399 0.961 . S
H1416 C1400 0.931 . S
H1417 C1405 0.930 . S
H1418 C1406 0.956 . S
H1419 C1406 0.961 . S
H1420 C1406 0.961 . S
H1421 C1407 0.958 . S
H1422 C1407 0.961 . S
H1423 C1407 0.960 . S
C1424 C1425 1.391 . S
C1424 C1426 1.394 . S
C1424 H1440 0.931 . S
C1425 C1424 1.391 . S
C1425 C1429 1.376 . S
C1426 C1424 1.394 . S
C1426 C1427 1.369 . S
C1426 C1430 1.531 . S
C1427 C1426 1.369 . S
C1427 C1428 1.410 . S
C1427 C1435 1.503 . S
C1428 C1427 1.410 . S
C1428 C1429 1.392 . S
C1428 C1431 1.511 . S
C1429 C1425 1.376 . S
C1429 C1428 1.392 . S
C1429 H1441 0.929 . S
C1430 C1426 1.531 . S
C1430 H1442 0.960 . S
C1430 H1443 0.962 . S
C1430 H1444 0.960 . S
C1431 C1428 1.511 . S
C1431 H1445 0.961 . S
C1431 H1446 0.961 . S
C1431 H1447 0.961 . S
C1432 C1433 1.370 . S
C1432 C1434 1.363 . S
C1432 H1448 0.931 . S
C1433 C1432 1.370 . S
C1433 C1437 1.408 . S
C1434 C1432 1.363 . S
C1434 C1435 1.370 . S
C1434 C1438 1.524 . S
C1435 C1427 1.503 . S
C1435 C1434 1.370 . S
C1435 C1436 1.403 . S
C1436 C1435 1.403 . S
C1436 C1437 1.404 . S
C1436 C1439 1.539 . S
C1437 C1433 1.408 . S
C1437 C1436 1.404 . S
C1437 H1449 0.930 . S
C1438 C1434 1.524 . S
C1438 H1450 0.956 . S
C1438 H1451 0.961 . S
C1438 H1452 0.961 . S
C1439 C1436 1.539 . S
C1439 H1453 0.958 . S
C1439 H1454 0.961 . S
C1439 H1455 0.960 . S
H1440 C1424 0.931 . S
H1441 C1429 0.929 . S
H1442 C1430 0.960 . S
H1443 C1430 0.962 . S
H1444 C1430 0.960 . S
H1445 C1431 0.961 . S
H1446 C1431 0.961 . S
H1447 C1431 0.961 . S
H1448 C1432 0.931 . S
H1449 C1437 0.930 . S
H1450 C1438 0.956 . S
H1451 C1438 0.961 . S
H1452 C1438 0.961 . S
H1453 C1439 0.958 . S
H1454 C1439 0.961 . S
H1455 C1439 0.960 . S
C1456 C1457 1.391 . S
C1456 C1458 1.394 . S
C1456 H1472 0.931 . S
C1457 C1456 1.391 . S
C1457 C1461 1.376 . S
C1458 C1456 1.394 . S
C1458 C1459 1.369 . S
C1458 C1462 1.531 . S
C1459 C1458 1.369 . S
C1459 C1460 1.410 . S
C1459 C1467 1.503 . S
C1460 C1459 1.410 . S
C1460 C1461 1.392 . S
C1460 C1463 1.511 . S
C1461 C1457 1.376 . S
C1461 C1460 1.392 . S
C1461 H1473 0.929 . S
C1462 C1458 1.531 . S
C1462 H1474 0.960 . S
C1462 H1475 0.962 . S
C1462 H1476 0.960 . S
C1463 C1460 1.511 . S
C1463 H1477 0.961 . S
C1463 H1478 0.961 . S
C1463 H1479 0.961 . S
C1464 C1465 1.370 . S
C1464 C1466 1.363 . S
C1464 H1480 0.931 . S
C1465 C1464 1.370 . S
C1465 C1469 1.408 . S
C1466 C1464 1.363 . S
C1466 C1467 1.370 . S
C1466 C1470 1.524 . S
C1467 C1459 1.503 . S
C1467 C1466 1.370 . S
C1467 C1468 1.403 . S
C1468 C1467 1.403 . S
C1468 C1469 1.404 . S
C1468 C1471 1.539 . S
C1469 C1465 1.408 . S
C1469 C1468 1.404 . S
C1469 H1481 0.930 . S
C1470 C1466 1.524 . S
C1470 H1482 0.956 . S
C1470 H1483 0.961 . S
C1470 H1484 0.961 . S
C1471 C1468 1.539 . S
C1471 H1485 0.958 . S
C1471 H1486 0.961 . S
C1471 H1487 0.960 . S
H1472 C1456 0.931 . S
H1473 C1461 0.929 . S
H1474 C1462 0.960 . S
H1475 C1462 0.962 . S
H1476 C1462 0.960 . S
H1477 C1463 0.961 . S
H1478 C1463 0.961 . S
H1479 C1463 0.961 . S
H1480 C1464 0.931 . S
H1481 C1469 0.930 . S
H1482 C1470 0.956 . S
H1483 C1470 0.961 . S
H1484 C1470 0.961 . S
H1485 C1471 0.958 . S
H1486 C1471 0.961 . S
H1487 C1471 0.960 . S
C1488 C1489 1.391 . S
C1488 C1490 1.394 . S
C1488 H1504 0.931 . S
C1489 C1488 1.391 . S
C1489 C1493 1.376 . S
C1490 C1488 1.394 . S
C1490 C1491 1.369 . S
C1490 C1494 1.531 . S
C1491 C1490 1.369 . S
C1491 C1492 1.410 . S
C1491 C1499 1.503 . S
C1492 C1491 1.410 . S
C1492 C1493 1.392 . S
C1492 C1495 1.511 . S
C1493 C1489 1.376 . S
C1493 C1492 1.392 . S
C1493 H1505 0.929 . S
C1494 C1490 1.531 . S
C1494 H1506 0.960 . S
C1494 H1507 0.962 . S
C1494 H1508 0.960 . S
C1495 C1492 1.511 . S
C1495 H1509 0.961 . S
C1495 H1510 0.961 . S
C1495 H1511 0.961 . S
C1496 C1497 1.370 . S
C1496 C1498 1.363 . S
C1496 H1512 0.931 . S
C1497 C1496 1.370 . S
C1497 C1501 1.408 . S
C1498 C1496 1.363 . S
C1498 C1499 1.370 . S
C1498 C1502 1.524 . S
C1499 C1491 1.503 . S
C1499 C1498 1.370 . S
C1499 C1500 1.403 . S
C1500 C1499 1.403 . S
C1500 C1501 1.404 . S
C1500 C1503 1.539 . S
C1501 C1497 1.408 . S
C1501 C1500 1.404 . S
C1501 H1513 0.930 . S
C1502 C1498 1.524 . S
C1502 H1514 0.956 . S
C1502 H1515 0.961 . S
C1502 H1516 0.961 . S
C1503 C1500 1.539 . S
C1503 H1517 0.958 . S
C1503 H1518 0.961 . S
C1503 H1519 0.960 . S
H1504 C1488 0.931 . S
H1505 C1493 0.929 . S
H1506 C1494 0.960 . S
H1507 C1494 0.962 . S
H1508 C1494 0.960 . S
H1509 C1495 0.961 . S
H1510 C1495 0.961 . S
H1511 C1495 0.961 . S
H1512 C1496 0.931 . S
H1513 C1501 0.930 . S
H1514 C1502 0.956 . S
H1515 C1502 0.961 . S
H1516 C1502 0.961 . S
H1517 C1503 0.958 . S
H1518 C1503 0.961 . S
H1519 C1503 0.960 . S
C505 C385 1.502 . S
C497 C36 1.495 . S
C537 C411 1.502 . S
C529 C93 1.483 . S
C569 C425 1.498 . S
C561 C132 1.502 . S
C601 C427 1.502 . S
C593 C174 1.500 . S
C625 C213 1.493 . S
C633 C424 1.499 . S
C665 C426 1.502 . S
C657 C285 1.482 . S
C697 C384 1.500 . S
C689 C324 1.496 . S
C729 C410 1.498 . S
C721 C366 1.484 . S
C761 C412 1.502 . S
C753 C357 1.499 . S
C793 C438 1.497 . S
C785 C222 1.503 . S
C825 C396 1.502 . S
C817 C276 1.502 . S
C857 C398 1.501 . S
C849 C333 1.500 . S
C889 C397 1.500 . S
C881 C84 1.493 . S
C921 C399 1.498 . S
C913 C141 1.484 . S
C953 C413 1.501 . S
C945 C165 1.492 . S
C985 C439 1.499 . S
C977 C45 1.487 . S
C1017 C441 1.498 . S
C1009 C372 1.504 . S
C1041 C237 1.482 . S
C1049 C467 1.505 . S
C1073 C261 1.499 . S
C1081 C480 1.501 . S
C1105 C318 1.502 . S
C1113 C483 1.505 . S
C1137 C69 1.494 . S
C1145 C481 1.499 . S
C1169 C126 1.499 . S
C1177 C482 1.498 . S
C1201 C180 1.494 . S
C1209 C440 1.499 . S
C1241 C466 1.502 . S
C1233 C30 1.499 . S
C1273 C469 1.501 . S
C1265 C21 1.498 . S
C1297 C78 1.500 . S
C1305 C494 1.495 . S
C1329 C117 1.498 . S
C1337 C452 1.495 . S
C1361 C189 1.498 . S
C1369 C454 1.498 . S
C1401 C453 1.499 . S
C1393 C228 1.495 . S
C1433 C455 1.500 . S
C1425 C270 1.495 . S
C1457 C309 1.501 . S
C1465 C468 1.501 . S
C1497 C495 1.500 . S
C1489 C381 1.499 . S
