# Generated by pormake.
# Topology wbl, (4,4)-cn, num edge types: 1
# Building blocks:
#     Node 0, Type 0, BuildingBlock: NAWXER_clean_linker_0, # of connection points: 4
#     Node 1, Type 0, BuildingBlock: NAWXER_clean_linker_0, # of connection points: 4
#     Node 2, Type 0, BuildingBlock: NAWXER_clean_linker_0, # of connection points: 4
#     Node 3, Type 0, BuildingBlock: NAWXER_clean_linker_0, # of connection points: 4
#     Node 4, Type 0, BuildingBlock: NAWXER_clean_linker_0, # of connection points: 4
#     Node 5, Type 0, BuildingBlock: NAWXER_clean_linker_0, # of connection points: 4
#     Node 6, Type 0, BuildingBlock: NAWXER_clean_linker_0, # of connection points: 4
#     Node 7, Type 0, BuildingBlock: NAWXER_clean_linker_0, # of connection points: 4
#     Node 8, Type 1, BuildingBlock: NAHDIM_clean_sbu_0, # of connection points: 4
#     Node 9, Type 1, BuildingBlock: NAHDIM_clean_sbu_0, # of connection points: 4
#     Node 10, Type 1, BuildingBlock: NAHDIM_clean_sbu_0, # of connection points: 4
#     Node 11, Type 1, BuildingBlock: NAHDIM_clean_sbu_0, # of connection points: 4
#     Node 12, Type 1, BuildingBlock: NAHDIM_clean_sbu_0, # of connection points: 4
#     Node 13, Type 1, BuildingBlock: NAHDIM_clean_sbu_0, # of connection points: 4
#     Node 14, Type 1, BuildingBlock: NAHDIM_clean_sbu_0, # of connection points: 4
#     Node 15, Type 1, BuildingBlock: NAHDIM_clean_sbu_0, # of connection points: 4
#     Edge 16, Type (0, 1), BuildingBlock: XUDNAN_clean_linker_2, # of connection points: 2
#     Edge 17, Type (0, 1), BuildingBlock: XUDNAN_clean_linker_2, # of connection points: 2
#     Edge 18, Type (0, 1), BuildingBlock: XUDNAN_clean_linker_2, # of connection points: 2
#     Edge 19, Type (0, 1), BuildingBlock: XUDNAN_clean_linker_2, # of connection points: 2
#     Edge 20, Type (0, 1), BuildingBlock: XUDNAN_clean_linker_2, # of connection points: 2
#     Edge 21, Type (0, 1), BuildingBlock: XUDNAN_clean_linker_2, # of connection points: 2
#     Edge 22, Type (0, 1), BuildingBlock: XUDNAN_clean_linker_2, # of connection points: 2
#     Edge 23, Type (0, 1), BuildingBlock: XUDNAN_clean_linker_2, # of connection points: 2
#     Edge 24, Type (0, 1), BuildingBlock: XUDNAN_clean_linker_2, # of connection points: 2
#     Edge 25, Type (0, 1), BuildingBlock: XUDNAN_clean_linker_2, # of connection points: 2
#     Edge 26, Type (0, 1), BuildingBlock: XUDNAN_clean_linker_2, # of connection points: 2
#     Edge 27, Type (0, 1), BuildingBlock: XUDNAN_clean_linker_2, # of connection points: 2
#     Edge 28, Type (0, 1), BuildingBlock: XUDNAN_clean_linker_2, # of connection points: 2
#     Edge 29, Type (0, 1), BuildingBlock: XUDNAN_clean_linker_2, # of connection points: 2
#     Edge 30, Type (0, 1), BuildingBlock: XUDNAN_clean_linker_2, # of connection points: 2
#     Edge 31, Type (0, 1), BuildingBlock: XUDNAN_clean_linker_2, # of connection points: 2
#     Edge 32, Type (0, 1), BuildingBlock: XUDNAN_clean_linker_2, # of connection points: 2
#     Edge 33, Type (0, 1), BuildingBlock: XUDNAN_clean_linker_2, # of connection points: 2
#     Edge 34, Type (0, 1), BuildingBlock: XUDNAN_clean_linker_2, # of connection points: 2
#     Edge 35, Type (0, 1), BuildingBlock: XUDNAN_clean_linker_2, # of connection points: 2
#     Edge 36, Type (0, 1), BuildingBlock: XUDNAN_clean_linker_2, # of connection points: 2
#     Edge 37, Type (0, 1), BuildingBlock: XUDNAN_clean_linker_2, # of connection points: 2
#     Edge 38, Type (0, 1), BuildingBlock: XUDNAN_clean_linker_2, # of connection points: 2
#     Edge 39, Type (0, 1), BuildingBlock: XUDNAN_clean_linker_2, # of connection points: 2
#     Edge 40, Type (0, 1), BuildingBlock: XUDNAN_clean_linker_2, # of connection points: 2
#     Edge 41, Type (0, 1), BuildingBlock: XUDNAN_clean_linker_2, # of connection points: 2
#     Edge 42, Type (0, 1), BuildingBlock: XUDNAN_clean_linker_2, # of connection points: 2
#     Edge 43, Type (0, 1), BuildingBlock: XUDNAN_clean_linker_2, # of connection points: 2
#     Edge 44, Type (0, 1), BuildingBlock: XUDNAN_clean_linker_2, # of connection points: 2
#     Edge 45, Type (0, 1), BuildingBlock: XUDNAN_clean_linker_2, # of connection points: 2
#     Edge 46, Type (0, 1), BuildingBlock: XUDNAN_clean_linker_2, # of connection points: 2
#     Edge 47, Type (0, 1), BuildingBlock: XUDNAN_clean_linker_2, # of connection points: 2
# Relax obj value: 0.156
# Max RMSD: 0.154
# Mean RMSD: 0.137
data_MOF--net-wbl--node1-NAHDIM_clean_sbu_0--node2-NAWXER_clean_linker_0--edge1-XUDNAN_clean_linker_2
_symmetry_space_group_name_H-M    P1
_symmetry_Int_Tables_number       1
_symmetry_cell_setting            triclinic
loop_
_symmetry_equiv_pos_as_xyz
'x, y, z'
_cell_length_a     46.060468
_cell_length_b     44.537248
_cell_length_c     76.382474
_cell_angle_alpha  89.988549
_cell_angle_beta   90.02103
_cell_angle_gamma 90.01453
loop_
_atom_site_label
_atom_site_type_symbol
_atom_site_fract_x
_atom_site_fract_y
_atom_site_fract_z
_atom_type_partial_charge
C0 C 0.05583 0.93487 0.3776 0.0
C1 C 0.07716 0.94901 0.38784 0.0
C2 C 0.03727 0.95188 0.36706 0.0
C3 C 0.03963 0.98331 0.36668 0.0
C4 C 0.07935 0.98049 0.38752 0.0
C5 C 0.06052 0.99751 0.37716 0.0
C6 C 0.02004 0.00147 0.35561 0.0
C7 C 0.08292 0.95693 0.31977 0.0
C8 C 0.07057 0.9347 0.30904 0.0
C9 C 0.06533 0.97691 0.32895 0.0
C10 C 0.035 0.97493 0.32774 0.0
C11 C 0.04017 0.93291 0.30767 0.0
C12 C 0.02252 0.95308 0.31685 0.0
C13 C 0.01651 0.99621 0.33751 0.0
C14 C 0.94106 0.10078 0.31549 0.0
C15 C 0.92368 0.08611 0.30306 0.0
C16 C 0.95998 0.08437 0.32611 0.0
C17 C 0.96107 0.05286 0.32494 0.0
C18 C 0.92553 0.05478 0.30141 0.0
C19 C 0.94402 0.0383 0.31228 0.0
C20 C 0.98086 0.03497 0.33617 0.0
C21 C 0.92134 0.08207 0.37437 0.0
C22 C 0.93573 0.10493 0.38362 0.0
C23 C 0.93716 0.06117 0.36462 0.0
C24 C 0.96759 0.06268 0.36414 0.0
C25 C 0.96616 0.10644 0.38305 0.0
C26 C 0.98198 0.08524 0.37356 0.0
C27 C 0.98463 0.04032 0.35428 0.0
H28 H 0.05373 0.91064 0.3776 0.0
H29 H 0.02098 0.94051 0.35927 0.0
H30 H 0.09539 0.99194 0.39546 0.0
H31 H 0.06253 0.02175 0.37714 0.0
H32 H 0.10625 0.95871 0.32123 0.0
H33 H 0.07547 0.99402 0.33697 0.0
H34 H 0.0301 0.91616 0.29938 0.0
H35 H -0.00086 0.95141 0.31561 0.0
H36 H 0.94035 0.12499 0.31678 0.0
H37 H 0.97392 0.09643 0.33509 0.0
H38 H 0.91228 0.04298 0.29192 0.0
H39 H 0.94476 0.0141 0.31091 0.0
H40 H 0.89787 0.08048 0.37464 0.0
H41 H 0.9257 0.04366 0.3576 0.0
H42 H 0.97773 0.12366 0.39024 0.0
H43 H 0.00547 0.0866 0.37342 0.0
N44 N 0.00415 0.02348 0.36329 0.0
N45 N 0.99692 0.01298 0.32849 0.0
C46 C 0.92923 0.4387 0.62904 0.0
C47 C 0.93969 0.41421 0.63872 0.0
C48 C 0.94827 0.45618 0.61913 0.0
C49 C 0.9781 0.44968 0.61899 0.0
C50 C 0.96947 0.40746 0.63839 0.0
C51 C 0.98862 0.42536 0.62877 0.0
C52 C 0.9983 0.46907 0.60915 0.0
C53 C 0.9567 0.40853 0.57107 0.0
C54 C 0.93563 0.42228 0.56044 0.0
C55 C 0.97616 0.4258 0.5807 0.0
C56 C 0.97482 0.45726 0.58016 0.0
C57 C 0.93472 0.45383 0.55954 0.0
C58 C 0.95437 0.47121 0.56924 0.0
C59 C 0.99479 0.47512 0.59118 0.0
C60 C 0.09679 0.55602 0.57477 0.0
C61 C 0.08255 0.5761 0.56348 0.0
C62 C 0.08095 0.53485 0.58434 0.0
C63 C 0.0505 0.53388 0.58311 0.0
C64 C 0.05218 0.57483 0.56207 0.0
C65 C 0.03634 0.55393 0.57178 0.0
C66 C 0.03313 0.51108 0.5926 0.0
C67 C 0.0755 0.55881 0.64015 0.0
C68 C 0.09668 0.54029 0.64796 0.0
C69 C 0.05727 0.54755 0.62702 0.0
C70 C 0.05983 0.51759 0.62161 0.0
C71 C 0.10016 0.51083 0.64163 0.0
C72 C 0.08163 0.49949 0.6288 0.0
C73 C 0.0376 0.50364 0.6104 0.0
H74 H 0.90634 0.44427 0.62915 0.0
H75 H 0.93981 0.47511 0.61183 0.0
H76 H 0.97796 0.38878 0.6459 0.0
H77 H 0.0116 0.42015 0.62887 0.0
H78 H 0.9578 0.38432 0.57226 0.0
H79 H 0.99217 0.41452 0.58875 0.0
H80 H 0.9189 0.46504 0.55134 0.0
H81 H 0.95319 0.49547 0.56852 0.0
H82 H 0.12024 0.55621 0.57587 0.0
H83 H 0.09264 0.51883 0.59231 0.0
H84 H 0.04063 0.5902 0.55356 0.0
H85 H 0.01292 0.5535 0.57046 0.0
H86 H 0.07196 0.5815 0.64476 0.0
H87 H 0.04025 0.56169 0.62175 0.0
H88 H 0.1167 0.49615 0.64694 0.0
H89 H 0.08385 0.47627 0.62477 0.0
N90 N 0.01983 0.48314 0.61803 0.0
N91 N 0.01197 0.49626 0.5836 0.0
C92 C 0.52748 0.40466 0.87274 0.0
C93 C 0.54298 0.41383 0.88767 0.0
C94 C 0.51581 0.42588 0.86127 0.0
C95 C 0.51964 0.45671 0.86439 0.0
C96 C 0.54681 0.44471 0.89077 0.0
C97 C 0.53507 0.46593 0.87929 0.0
C98 C 0.50598 0.47936 0.85284 0.0
C99 C 0.57491 0.43668 0.82008 0.0
C100 C 0.56436 0.41911 0.80619 0.0
C101 C 0.5563 0.45552 0.82937 0.0
C102 C 0.52676 0.45709 0.82499 0.0
C103 C 0.53475 0.42052 0.80186 0.0
C104 C 0.51614 0.43965 0.81108 0.0
C105 C 0.50737 0.47799 0.83439 0.0
C106 C 0.44515 0.59166 0.81244 0.0
C107 C 0.42956 0.58022 0.79811 0.0
C108 C 0.46046 0.57234 0.82352 0.0
C109 C 0.45982 0.54114 0.82073 0.0
C110 C 0.42981 0.54914 0.79497 0.0
C111 C 0.44482 0.52982 0.80616 0.0
C112 C 0.47553 0.5201 0.8324 0.0
C113 C 0.41008 0.56458 0.8685 0.0
C114 C 0.42324 0.58324 0.88111 0.0
C115 C 0.42685 0.54514 0.85829 0.0
C116 C 0.45704 0.5439 0.86055 0.0
C117 C 0.45363 0.58227 0.883 0.0
C118 C 0.47028 0.56254 0.87298 0.0
C119 C 0.47478 0.5219 0.85087 0.0
H120 H 0.52429 0.38105 0.86995 0.0
H121 H 0.50331 0.41815 0.85014 0.0
H122 H 0.55828 0.45248 0.90229 0.0
H123 H 0.53797 0.4896 0.88208 0.0
H124 H 0.59761 0.43587 0.82377 0.0
H125 H 0.56511 0.46922 0.83982 0.0
H126 H 0.52616 0.40737 0.79111 0.0
H127 H 0.49344 0.44078 0.80741 0.0
H128 H 0.44565 0.61558 0.815 0.0
H129 H 0.47289 0.58187 0.83419 0.0
H130 H 0.41777 0.53967 0.7841 0.0
H131 H 0.44426 0.5059 0.8036 0.0
H132 H 0.38674 0.56426 0.86686 0.0
H133 H 0.41617 0.53051 0.84896 0.0
H134 H 0.46464 0.59668 0.89229 0.0
H135 H 0.49358 0.56184 0.87491 0.0
N136 N 0.49 0.50147 0.86036 0.0
N137 N 0.49187 0.49818 0.82488 0.0
C138 C 0.43775 0.91438 0.07105 0.0
C139 C 0.42061 0.92927 0.05853 0.0
C140 C 0.4596 0.92968 0.08001 0.0
C141 C 0.46446 0.96032 0.07684 0.0
C142 C 0.42611 0.9597 0.05496 0.0
C143 C 0.44792 0.97507 0.06402 0.0
C144 C 0.48707 0.97689 0.08662 0.0
C145 C 0.41943 0.95075 0.12639 0.0
C146 C 0.42958 0.93014 0.13895 0.0
C147 C 0.43885 0.96545 0.11525 0.0
C148 C 0.46876 0.9597 0.11639 0.0
C149 C 0.4596 0.92457 0.14005 0.0
C150 C 0.47899 0.93939 0.12898 0.0
C151 C 0.48964 0.97565 0.10503 0.0
C152 C 0.57249 0.07392 0.12202 0.0
C153 C 0.58879 0.06029 0.13543 0.0
C154 C 0.55432 0.05672 0.11134 0.0
C155 C 0.55222 0.02556 0.11379 0.0
C156 C 0.58699 0.02897 0.1376 0.0
C157 C 0.5687 0.01184 0.12699 0.0
C158 C 0.53112 0.00754 0.10369 0.0
C159 C 0.59913 0.03922 0.06644 0.0
C160 C 0.58873 0.0572 0.0527 0.0
C161 C 0.57986 0.0228 0.07681 0.0
C162 C 0.54976 0.02473 0.07394 0.0
C163 C 0.55875 0.05803 0.04933 0.0
C164 C 0.53946 0.04193 0.05985 0.0
C165 C 0.52888 0.00846 0.08524 0.0
H166 H 0.43454 0.89073 0.07376 0.0
H167 H 0.47275 0.91752 0.08938 0.0
H168 H 0.41325 0.97173 0.04538 0.0
H169 H 0.45154 0.99864 0.06124 0.0
H170 H 0.39654 0.956 0.1254 0.0
H171 H 0.43054 0.98161 0.10591 0.0
H172 H 0.46816 0.90854 0.14938 0.0
H173 H 0.50201 0.93476 0.13011 0.0
H174 H 0.57293 0.09803 0.12017 0.0
H175 H 0.54123 0.0679 0.10152 0.0
H176 H 0.59954 0.01769 0.14763 0.0
H177 H 0.56727 0.98784 0.12915 0.0
H178 H 0.62219 0.03786 0.06914 0.0
H179 H 0.58852 0.0087 0.08711 0.0
H180 H 0.55013 0.07189 0.03889 0.0
H181 H 0.51639 0.04349 0.05722 0.0
N182 N 0.50673 0.99331 0.07743 0.0
N183 N 0.5116 0.99093 0.11283 0.0
C184 C 0.05037 0.5839 0.89 0.0
C185 C 0.07134 0.56996 0.87942 0.0
C186 C 0.0312 0.56659 0.89998 0.0
C187 C 0.03255 0.53511 0.89934 0.0
C188 C 0.07263 0.53846 0.87883 0.0
C189 C 0.05316 0.52118 0.88857 0.0
C190 C 0.01218 0.51657 0.90961 0.0
C191 C 0.07651 0.55543 0.94695 0.0
C192 C 0.06444 0.57658 0.95852 0.0
C193 C 0.05867 0.53657 0.93714 0.0
C194 C 0.02838 0.53864 0.93855 0.0
C195 C 0.03408 0.57829 0.96014 0.0
C196 C 0.0162 0.55926 0.95033 0.0
C197 C 0.00948 0.51898 0.92795 0.0
C198 C 0.93303 0.41279 0.94494 0.0
C199 C 0.91714 0.42513 0.95888 0.0
C200 C 0.95124 0.43093 0.93484 0.0
C201 C 0.95324 0.46191 0.93818 0.0
C202 C 0.91986 0.45589 0.96257 0.0
C203 C 0.93774 0.4741 0.95232 0.0
C204 C 0.9725 0.4815 0.92764 0.0
C205 C 0.90653 0.44694 0.889 0.0
C206 C 0.91808 0.42957 0.87529 0.0
C207 C 0.92487 0.46279 0.90027 0.0
C208 C 0.95513 0.46132 0.89818 0.0
C209 C 0.94839 0.42797 0.87331 0.0
C210 C 0.9667 0.44384 0.88458 0.0
C211 C 0.97471 0.47969 0.90919 0.0
H212 H 0.04898 0.60815 0.89065 0.0
H213 H 0.01518 0.57774 0.90806 0.0
H214 H 0.0884 0.52722 0.8706 0.0
H215 H 0.05438 0.49691 0.88784 0.0
H216 H 0.09981 0.55376 0.94527 0.0
H217 H 0.06857 0.52036 0.92841 0.0
H218 H 0.02421 0.59418 0.96907 0.0
H219 H 0.99285 0.56096 0.95172 0.0
H220 H 0.93166 0.38904 0.94201 0.0
H221 H 0.96389 0.42063 0.92452 0.0
H222 H 0.90772 0.46597 0.9732 0.0
H223 H 0.93921 0.49783 0.95531 0.0
H224 H 0.88329 0.4485 0.89093 0.0
H225 H 0.91535 0.47671 0.91038 0.0
H226 H 0.95795 0.41519 0.86272 0.0
H227 H 0.98997 0.44268 0.88259 0.0
N228 N 0.99473 0.49706 0.90093 0.0
N229 N 0.98977 0.50136 0.93628 0.0
C230 C 0.42727 0.56271 0.12648 0.0
C231 C 0.43926 0.58608 0.11649 0.0
C232 C 0.44493 0.5455 0.13746 0.0
C233 C 0.47487 0.55116 0.13837 0.0
C234 C 0.4692 0.59179 0.11748 0.0
C235 C 0.48696 0.57416 0.12817 0.0
C236 C 0.49371 0.53265 0.14961 0.0
C237 C 0.44548 0.59705 0.18375 0.0
C238 C 0.42668 0.58302 0.19573 0.0
C239 C 0.46649 0.58042 0.17486 0.0
C240 C 0.46887 0.54934 0.17758 0.0
C241 C 0.42962 0.55205 0.19879 0.0
C242 C 0.4506 0.53539 0.18983 0.0
C243 C 0.49053 0.53127 0.16793 0.0
C244 C 0.58941 0.44589 0.18799 0.0
C245 C 0.57717 0.43544 0.2038 0.0
C246 C 0.57437 0.46594 0.1772 0.0
C247 C 0.54572 0.47449 0.18114 0.0
C248 C 0.54956 0.44658 0.20848 0.0
C249 C 0.53391 0.46513 0.19719 0.0
C250 C 0.52804 0.4942 0.16943 0.0
C251 C 0.56136 0.42388 0.13128 0.0
C252 C 0.58073 0.43556 0.11876 0.0
C253 C 0.54533 0.44314 0.14203 0.0
C254 C 0.54861 0.47437 0.14054 0.0
C255 C 0.58401 0.46688 0.11743 0.0
C256 C 0.56792 0.48607 0.12812 0.0
C257 C 0.53047 0.49505 0.15091 0.0
H258 H 0.40421 0.55797 0.12589 0.0
H259 H 0.43532 0.52761 0.14513 0.0
H260 H 0.4789 0.60958 0.10977 0.0
H261 H 0.51006 0.57867 0.12866 0.0
H262 H 0.44424 0.62101 0.18143 0.0
H263 H 0.48101 0.59191 0.16594 0.0
H264 H 0.4154 0.5406 0.2079 0.0
H265 H 0.45221 0.51147 0.19223 0.0
H266 H 0.61049 0.43858 0.18354 0.0
H267 H 0.58544 0.47452 0.16578 0.0
H268 H 0.53952 0.44115 0.22085 0.0
H269 H 0.51233 0.47207 0.2011 0.0
H270 H 0.55796 0.39991 0.13245 0.0
H271 H 0.53002 0.43369 0.15128 0.0
H272 H 0.599 0.47662 0.1081 0.0
H273 H 0.57057 0.51013 0.12669 0.0
N274 N 0.51351 0.51455 0.14181 0.0
N275 N 0.50784 0.51224 0.17709 0.0
C276 C 0.44323 0.89643 0.3922 0.0
C277 C 0.42276 0.90783 0.38027 0.0
C278 C 0.46169 0.91583 0.40133 0.0
C279 C 0.45974 0.94704 0.39889 0.0
C280 C 0.42091 0.93906 0.37783 0.0
C281 C 0.43928 0.95843 0.387 0.0
C282 C 0.47988 0.96794 0.40785 0.0
C283 C 0.42447 0.93047 0.4506 0.0
C284 C 0.4387 0.90742 0.45975 0.0
C285 C 0.44003 0.94963 0.43965 0.0
C286 C 0.47013 0.94629 0.4378 0.0
C287 C 0.46889 0.90415 0.45799 0.0
C288 C 0.4846 0.9238 0.44726 0.0
C289 C 0.48615 0.9664 0.42592 0.0
C290 C 0.54591 0.08348 0.43913 0.0
C291 C 0.57094 0.07491 0.44844 0.0
C292 C 0.52835 0.0619 0.43115 0.0
C293 C 0.53548 0.03133 0.43228 0.0
C294 C 0.57747 0.04413 0.44998 0.0
C295 C 0.55974 0.02253 0.44209 0.0
C296 C 0.51766 0.00857 0.42322 0.0
C297 C 0.56509 0.06112 0.3818 0.0
C298 C 0.5468 0.07624 0.36997 0.0
C299 C 0.55382 0.03955 0.39324 0.0
C300 C 0.52396 0.03303 0.39326 0.0
C301 C 0.51705 0.06915 0.36979 0.0
C302 C 0.50579 0.04776 0.38128 0.0
C303 C 0.51144 0.0101 0.40511 0.0
H304 H 0.44555 0.87246 0.39412 0.0
H305 H 0.47793 0.90635 0.40995 0.0
H306 H 0.40517 0.94857 0.36887 0.0
H307 H 0.43745 0.9824 0.38482 0.0
H308 H 0.40116 0.93324 0.45163 0.0
H309 H 0.42855 0.96704 0.43254 0.0
H310 H 0.48027 0.88652 0.46495 0.0
H311 H 0.50788 0.92104 0.446 0.0
H312 H 0.53985 0.10689 0.438 0.0
H313 H 0.50928 0.06909 0.42398 0.0
H314 H 0.59672 0.0367 0.45686 0.0
H315 H 0.56547 0.99901 0.44319 0.0
H316 H 0.58809 0.06608 0.38232 0.0
H317 H 0.56849 0.02784 0.40196 0.0
H318 H 0.50244 0.07983 0.36059 0.0
H319 H 0.48276 0.04282 0.38086 0.0
N320 N 0.49269 0.9898 0.39818 0.0
N321 N 0.50489 0.98667 0.43296 0.0
C322 C 0.07979 0.95841 0.62794 0.0
C323 C 0.07276 0.94082 0.61328 0.0
C324 C 0.05814 0.96766 0.63953 0.0
C325 C 0.02906 0.9595 0.63667 0.0
C326 C 0.04374 0.93221 0.6106 0.0
C327 C 0.02203 0.94174 0.62211 0.0
C328 C 0.0058 0.97164 0.64798 0.0
C329 C 0.05213 0.90495 0.68095 0.0
C330 C 0.06644 0.91625 0.69582 0.0
C331 C 0.0332 0.92302 0.6714 0.0
C332 C 0.02851 0.95304 0.67625 0.0
C333 C 0.06171 0.94629 0.70073 0.0
C334 C 0.04275 0.96447 0.69109 0.0
C335 C 0.00747 0.97174 0.66644 0.0
C336 C 0.89976 0.04143 0.68783 0.0
C337 C 0.91309 0.06144 0.6996 0.0
C338 C 0.91655 0.02209 0.67755 0.0
C339 C 0.94699 0.0227 0.67868 0.0
C340 C 0.9435 0.06105 0.7012 0.0
C341 C 0.96021 0.0419 0.69087 0.0
C342 C 0.96561 0.00327 0.66769 0.0
C343 C 0.92215 0.05687 0.62153 0.0
C344 C 0.89986 0.03879 0.61454 0.0
C345 C 0.94164 0.04516 0.63384 0.0
C346 C 0.93919 0.01523 0.63928 0.0
C347 C 0.89666 0.00929 0.62088 0.0
C348 C 0.91641 0.99751 0.63291 0.0
C349 C 0.96262 0.00092 0.64934 0.0
H350 H 0.102 0.96527 0.63034 0.0
H351 H 0.06404 0.98192 0.65046 0.0
H352 H 0.03769 0.91894 0.59928 0.0
H353 H -0.00031 0.93548 0.61955 0.0
H354 H 0.05551 0.88203 0.67668 0.0
H355 H 0.02184 0.91327 0.66037 0.0
H356 H 0.07216 0.95554 0.71223 0.0
H357 H 0.03918 0.98744 0.69521 0.0
H358 H 0.87639 0.04113 0.68628 0.0
H359 H 0.90567 0.00661 0.66883 0.0
H360 H 0.95445 0.07567 0.71041 0.0
H361 H 0.98363 0.04247 0.69221 0.0
H362 H 0.92556 0.07954 0.61684 0.0
H363 H 0.95946 0.05895 0.63843 0.0
H364 H 0.8794 0.99492 0.61615 0.0
H365 H 0.91437 0.97426 0.63692 0.0
N366 N 0.98307 0.98565 0.64017 0.0
N367 N 0.98776 0.9882 0.67557 0.0
C368 C 0.23531 0.67931 0.00209 0.0
O369 O 0.25585 0.65892 0.00256 0.0
O370 O 0.30623 0.6982 0.02241 0.0
Zn371 Zn 0.28542 0.71574 0.00141 0.0
O372 O 0.30153 0.69911 0.9789 0.0
C373 C 0.29153 0.77282 0.01703 0.0
O374 O 0.28225 0.7572 0.03052 0.0
O375 O 0.24249 0.70685 0.00204 0.0
C376 C 0.32828 0.69316 0.97679 0.0
O377 O 0.34656 0.69805 0.98969 0.0
C378 C 0.31667 0.67196 0.02423 0.0
O379 O 0.31373 0.65221 0.01159 0.0
O380 O 0.29312 0.76008 0.00219 0.0
C381 C 0.23821 0.8297 0.26126 0.0
O382 O 0.2583 0.85004 0.2583 0.0
O383 O 0.30099 0.81816 0.23592 0.0
Zn384 Zn 0.28806 0.79529 0.25733 0.0
O385 O 0.30943 0.81091 0.2784 0.0
C386 C 0.29874 0.74096 0.23855 0.0
O387 O 0.29052 0.75789 0.22536 0.0
O388 O 0.24545 0.80217 0.26121 0.0
C389 C 0.30671 0.79819 0.29321 0.0
O390 O 0.28983 0.77452 0.29457 0.0
C391 C 0.32664 0.82845 0.23477 0.0
O392 O 0.34466 0.82461 0.24792 0.0
O393 O 0.29804 0.75173 0.25395 0.0
C394 C 0.27113 0.81652 0.51227 0.0
O395 O 0.25839 0.83372 0.52391 0.0
O396 O 0.19554 0.82533 0.52233 0.0
Zn397 Zn 0.21186 0.80063 0.50255 0.0
O398 O 0.19943 0.82048 0.48013 0.0
C399 C 0.19591 0.74568 0.51885 0.0
O400 O 0.20941 0.75853 0.53203 0.0
O401 O 0.25575 0.79957 0.5026 0.0
C402 C 0.17284 0.82303 0.47598 0.0
O403 O 0.15297 0.81106 0.48616 0.0
C404 C 0.19595 0.85384 0.52173 0.0
O405 O 0.20838 0.86729 0.50837 0.0
O406 O 0.19486 0.75924 0.50423 0.0
C407 C 0.26826 0.69043 0.74855 0.0
O408 O 0.25597 0.68693 0.73316 0.0
O409 O 0.19459 0.67385 0.74164 0.0
Zn410 Zn 0.20939 0.70204 0.76027 0.0
O411 O 0.19452 0.68747 0.78359 0.0
C412 C 0.17153 0.74697 0.74747 0.0
O413 O 0.15657 0.72267 0.74376 0.0
O414 O 0.25281 0.69858 0.76147 0.0
C415 C 0.16821 0.68775 0.78858 0.0
O416 O 0.14835 0.69978 0.77843 0.0
C417 C 0.19479 0.64575 0.74447 0.0
O418 O 0.2052 0.63571 0.75938 0.0
O419 O 0.19603 0.74424 0.75497 0.0
C420 C 0.72974 0.1829 0.50483 0.0
O421 O 0.73836 0.16815 0.51878 0.0
O422 O 0.80062 0.17646 0.52331 0.0
Zn423 Zn 0.78931 0.20529 0.50409 0.0
O424 O 0.81282 0.19434 0.4828 0.0
C425 C 0.82625 0.25249 0.51371 0.0
O426 O 0.84476 0.23044 0.51122 0.0
O427 O 0.74721 0.20084 0.49731 0.0
C428 C 0.82079 0.21309 0.47122 0.0
O429 O 0.81372 0.24151 0.47292 0.0
C430 C 0.80314 0.14879 0.51954 0.0
O431 O 0.79715 0.13992 0.50353 0.0
O432 O 0.79934 0.24742 0.51151 0.0
C433 C 0.73583 0.32332 0.75656 0.0
O434 O 0.75608 0.34399 0.75542 0.0
O435 O 0.8023 0.30537 0.73161 0.0
Zn436 Zn 0.78654 0.28966 0.75448 0.0
O437 O 0.80382 0.3134 0.77443 0.0
C438 C 0.82333 0.24044 0.75037 0.0
O439 O 0.84064 0.26314 0.74692 0.0
O440 O 0.74327 0.29587 0.75574 0.0
C441 C 0.82292 0.30572 0.78557 0.0
O442 O 0.83432 0.27872 0.78489 0.0
C443 C 0.81414 0.33095 0.72978 0.0
O444 O 0.81482 0.34963 0.74308 0.0
O445 O 0.79748 0.24588 0.75526 0.0
C446 C 0.7557 0.30729 0.00542 0.0
O447 O 0.74608 0.30389 0.02149 0.0
O448 O 0.68351 0.30338 0.01956 0.0
Zn449 Zn 0.69805 0.28723 0.99657 0.0
O450 O 0.67283 0.30383 0.97738 0.0
C451 C 0.69839 0.22806 0.01111 0.0
O452 O 0.70822 0.24268 0.02483 0.0
O453 O 0.73924 0.30053 0.99265 0.0
C454 C 0.6473 0.2936 0.97532 0.0
O455 O 0.63816 0.27189 0.98558 0.0
C456 C 0.67355 0.32988 0.02077 0.0
O457 O 0.67302 0.34703 0.00677 0.0
O458 O 0.69397 0.24236 0.99697 0.0
C459 C 0.75864 0.19293 0.25257 0.0
O460 O 0.74901 0.19417 0.2364 0.0
O461 O 0.68771 0.18998 0.23692 0.0
Zn462 Zn 0.69907 0.20699 0.26039 0.0
O463 O 0.67498 0.18697 0.27911 0.0
C464 C 0.69461 0.27031 0.24933 0.0
O465 O 0.71305 0.26357 0.23681 0.0
O466 O 0.74142 0.1991 0.26507 0.0
C467 C 0.64885 0.19559 0.28093 0.0
O468 O 0.6387 0.2166 0.27052 0.0
C469 C 0.67773 0.16349 0.23554 0.0
O470 O 0.67502 0.1469 0.24967 0.0
O471 O 0.68818 0.25062 0.26071 0.0
H472 H 0.11991 0.94809 0.29089 0.0
H473 H 0.06466 0.87358 0.30594 0.0
H474 H 0.09954 0.83809 0.29253 0.0
H475 H 0.14627 0.91586 0.24927 0.0
H476 H 0.18213 0.9312 0.25234 0.0
H477 H 0.151 0.95055 0.2611 0.0
H478 H 0.17436 0.94965 0.29199 0.0
H479 H 0.20545 0.93025 0.28337 0.0
H480 H 0.18534 0.91425 0.30133 0.0
H481 H 0.1434 0.81066 0.28034 0.0
H482 H 0.19173 0.79392 0.2701 0.0
H483 H 0.21759 0.88694 0.26337 0.0
C484 C 0.11497 0.92432 0.29118 0.0
C485 C 0.08964 0.91354 0.29946 0.0
C486 C 0.08381 0.88231 0.29948 0.0
C487 C 0.10352 0.86201 0.29194 0.0
C488 C 0.12871 0.8734 0.28429 0.0
C489 C 0.13429 0.90388 0.28373 0.0
C490 C 0.16369 0.91044 0.27582 0.0
C491 C 0.16057 0.92805 0.25861 0.0
C492 C 0.18336 0.92712 0.28891 0.0
C493 C 0.17428 0.87884 0.27254 0.0
C494 C 0.15375 0.85773 0.2773 0.0
C495 C 0.15946 0.82702 0.27634 0.0
C496 C 0.18698 0.81772 0.27054 0.0
C497 C 0.20841 0.83911 0.26589 0.0
C498 C 0.20165 0.86999 0.26669 0.0
H499 H 0.12564 0.61358 0.575 0.0
H500 H 0.07668 0.58893 0.52866 0.0
H501 H 0.10297 0.62747 0.51159 0.0
H502 H 0.12485 0.69166 0.56739 0.0
H503 H 0.161 0.6982 0.57559 0.0
H504 H 0.14006 0.66709 0.58376 0.0
H505 H 0.18137 0.63047 0.57512 0.0
H506 H 0.20246 0.66151 0.56692 0.0
H507 H 0.19445 0.63005 0.55288 0.0
H508 H 0.13289 0.67013 0.49997 0.0
H509 H 0.16296 0.71516 0.49484 0.0
H510 H 0.19203 0.71227 0.54891 0.0
C511 C 0.12085 0.61597 0.56119 0.0
C512 C 0.09925 0.59826 0.5531 0.0
C513 C 0.09307 0.60243 0.5351 0.0
C514 C 0.108 0.6241 0.52529 0.0
C515 C 0.12899 0.64141 0.5337 0.0
C516 C 0.13539 0.63764 0.55124 0.0
C517 C 0.15765 0.66034 0.55738 0.0
C518 C 0.14513 0.68051 0.57188 0.0
C519 C 0.18565 0.64465 0.56342 0.0
C520 C 0.16247 0.67772 0.5406 0.0
C521 C 0.14597 0.66626 0.52705 0.0
C522 C 0.14607 0.67919 0.51044 0.0
C523 C 0.16323 0.70476 0.50766 0.0
C524 C 0.17989 0.71724 0.52146 0.0
C525 C 0.17969 0.70321 0.53806 0.0
H526 H 0.39177 0.62369 0.80871 0.0
H527 H 0.42681 0.5811 0.76227 0.0
H528 H 0.3934 0.61091 0.74381 0.0
H529 H 0.32045 0.62146 0.79591 0.0
H530 H 0.31018 0.65705 0.80527 0.0
H531 H 0.33999 0.63631 0.81445 0.0
H532 H 0.37381 0.68225 0.81013 0.0
H533 H 0.344 0.70322 0.80094 0.0
H534 H 0.37723 0.69895 0.78873 0.0
H535 H 0.35243 0.64067 0.73088 0.0
H536 H 0.306 0.66622 0.72462 0.0
H537 H 0.29782 0.68924 0.77962 0.0
C538 C 0.39304 0.62139 0.79462 0.0
C539 C 0.41199 0.60034 0.78688 0.0
C540 C 0.4124 0.59715 0.76843 0.0
C541 C 0.39369 0.61413 0.75786 0.0
C542 C 0.37479 0.63426 0.76594 0.0
C543 C 0.3744 0.63801 0.78391 0.0
C544 C 0.34998 0.65858 0.78952 0.0
C545 C 0.32891 0.64237 0.80201 0.0
C546 C 0.36198 0.68747 0.79782 0.0
C547 C 0.336 0.66491 0.77198 0.0
C548 C 0.35093 0.65117 0.75849 0.0
C549 C 0.34083 0.65196 0.74129 0.0
C550 C 0.31441 0.66652 0.73786 0.0
C551 C 0.29828 0.67981 0.75161 0.0
C552 C 0.30975 0.67963 0.76877 0.0
H553 H 0.38118 0.89012 0.07244 0.0
H554 H 0.40817 0.9306 0.02342 0.0
H555 H 0.37246 0.8993 0.00754 0.0
H556 H 0.37563 0.81755 0.05702 0.0
H557 H 0.34439 0.80749 0.06996 0.0
H558 H 0.36877 0.83617 0.07757 0.0
H559 H 0.32583 0.87359 0.07991 0.0
H560 H 0.30125 0.84495 0.07226 0.0
H561 H 0.3033 0.88048 0.06102 0.0
H562 H 0.33879 0.85879 0.99675 0.0
H563 H 0.30982 0.81279 0.992 0.0
H564 H 0.30458 0.79953 0.0482 0.0
C565 C 0.37929 0.89269 0.05838 0.0
C566 C 0.3974 0.91276 0.04914 0.0
C567 C 0.39424 0.91561 0.03077 0.0
C568 C 0.37405 0.89791 0.02165 0.0
C569 C 0.35698 0.87782 0.03114 0.0
C570 C 0.35924 0.87534 0.04913 0.0
C571 C 0.34016 0.85045 0.05614 0.0
C572 C 0.35833 0.82651 0.06572 0.0
C573 C 0.31621 0.86314 0.06803 0.0
C574 C 0.32768 0.83846 0.03921 0.0
C575 C 0.33732 0.85475 0.02494 0.0
C576 C 0.33065 0.84623 0.00784 0.0
C577 C 0.31423 0.82005 0.00527 0.0
C578 C 0.30476 0.8027 0.01973 0.0
C579 C 0.31101 0.81257 0.03689 0.0
H580 H 0.11461 0.56207 0.97559 0.0
H581 H 0.05821 0.63724 0.96354 0.0
H582 H 0.09351 0.67191 0.97723 0.0
H583 H 0.144 0.592 0.01753 0.0
H584 H 0.1796 0.57706 0.01308 0.0
H585 H 0.14781 0.55801 0.00493 0.0
H586 H 0.1685 0.56069 0.9734 0.0
H587 H 0.20022 0.57974 0.98142 0.0
H588 H 0.17858 0.59664 0.9644 0.0
H589 H 0.13805 0.69879 0.98864 0.0
H590 H 0.18755 0.7153 0.99673 0.0
H591 H 0.2143 0.62215 0.00103 0.0
C592 C 0.10946 0.58578 0.97608 0.0
C593 C 0.0837 0.597 0.96852 0.0
C594 C 0.07767 0.62814 0.96946 0.0
C595 C 0.09761 0.64799 0.97719 0.0
C596 C 0.12325 0.63624 0.98408 0.0
C597 C 0.12904 0.60578 0.98373 0.0
C598 C 0.1591 0.59896 0.9906 0.0
C599 C 0.15752 0.58041 0.00754 0.0
C600 C 0.17768 0.58309 0.97662 0.0
C601 C 0.16986 0.63043 0.99415 0.0
C602 C 0.14878 0.65165 0.99061 0.0
C603 C 0.15456 0.68234 0.99175 0.0
C604 C 0.18274 0.69151 0.99633 0.0
C605 C 0.20478 0.67002 0.99954 0.0
C606 C 0.19791 0.63916 0.9988 0.0
H607 H 0.39131 0.62657 0.18214 0.0
H608 H 0.41198 0.58006 0.23048 0.0
H609 H 0.37692 0.61205 0.24635 0.0
H610 H 0.38763 0.69848 0.20007 0.0
H611 H 0.35805 0.71106 0.18647 0.0
H612 H 0.38215 0.68224 0.1787 0.0
H613 H 0.33824 0.64689 0.17355 0.0
H614 H 0.31396 0.67565 0.18137 0.0
H615 H 0.31372 0.63898 0.19136 0.0
H616 H 0.34358 0.65262 0.25739 0.0
H617 H 0.31461 0.69842 0.2627 0.0
H618 H 0.3156 0.71786 0.20701 0.0
C619 C 0.3883 0.62295 0.19604 0.0
C620 C 0.40434 0.60082 0.20509 0.0
C621 C 0.39965 0.59664 0.22326 0.0
C622 C 0.37982 0.61473 0.23237 0.0
C623 C 0.36469 0.63666 0.22309 0.0
C624 C 0.36858 0.6407 0.2053 0.0
C625 C 0.35105 0.66699 0.19856 0.0
C626 C 0.37091 0.69111 0.19049 0.0
C627 C 0.32786 0.65649 0.18543 0.0
C628 C 0.33739 0.67774 0.21543 0.0
C629 C 0.34527 0.6598 0.22942 0.0
C630 C 0.3369 0.66656 0.2465 0.0
C631 C 0.32048 0.69263 0.24939 0.0
C632 C 0.31268 0.7116 0.23526 0.0
C633 C 0.32079 0.7036 0.21806 0.0
H634 H 0.40034 0.9217 0.4855 0.0
H635 H 0.43741 0.84626 0.4576 0.0
H636 H 0.40235 0.81212 0.47204 0.0
H637 H 0.38185 0.87923 0.52694 0.0
H638 H 0.34889 0.90052 0.52972 0.0
H639 H 0.38017 0.91769 0.51965 0.0
H640 H 0.34905 0.93137 0.49252 0.0
H641 H 0.31784 0.91418 0.50241 0.0
H642 H 0.32978 0.90209 0.48108 0.0
H643 H 0.35741 0.78868 0.48476 0.0
H644 H 0.30844 0.77724 0.49629 0.0
H645 H 0.30257 0.86742 0.51733 0.0
C646 C 0.40158 0.89783 0.48289 0.0
C647 C 0.42151 0.88644 0.47056 0.0
C648 C 0.42247 0.85523 0.46721 0.0
C649 C 0.40264 0.83575 0.47533 0.0
C650 C 0.38252 0.84785 0.48702 0.0
C651 C 0.38226 0.87812 0.49105 0.0
C652 C 0.35694 0.88603 0.50278 0.0
C653 C 0.36761 0.89648 0.52085 0.0
C654 C 0.33725 0.9098 0.49417 0.0
C655 C 0.34203 0.85584 0.50394 0.0
C656 C 0.35722 0.83399 0.49492 0.0
C657 C 0.34578 0.80533 0.49232 0.0
C658 C 0.31794 0.79905 0.49885 0.0
C659 C 0.30201 0.82128 0.50795 0.0
C660 C 0.31463 0.8497 0.51091 0.0
H661 H 0.05685 0.85762 0.70461 0.0
H662 H 0.11956 0.92966 0.71041 0.0
H663 H 0.15253 0.895 0.72615 0.0
H664 H 0.0703 0.82096 0.74639 0.0
H665 H 0.06587 0.7839 0.7373 0.0
H666 H 0.0465 0.81517 0.72795 0.0
H667 H 0.06852 0.80311 0.69751 0.0
H668 H 0.08797 0.77187 0.70676 0.0
H669 H 0.10741 0.80081 0.69515 0.0
H670 H 0.17987 0.85096 0.73966 0.0
H671 H 0.19894 0.80182 0.74957 0.0
H672 H 0.11816 0.75939 0.73388 0.0
C673 C 0.07749 0.8662 0.70919 0.0
C674 C 0.08568 0.89632 0.70622 0.0
C675 C 0.11271 0.90673 0.71269 0.0
C676 C 0.13161 0.88719 0.72158 0.0
C677 C 0.12303 0.85742 0.72395 0.0
C678 C 0.09653 0.84708 0.71798 0.0
C679 C 0.0928 0.8139 0.72141 0.0
C680 C 0.06736 0.80816 0.73402 0.0
C681 C 0.08896 0.7964 0.70418 0.0
C682 C 0.12158 0.80694 0.72996 0.0
C683 C 0.13869 0.8323 0.7315 0.0
C684 C 0.16655 0.83102 0.73862 0.0
C685 C 0.1772 0.80303 0.7442 0.0
C686 C 0.16006 0.77677 0.74248 0.0
C687 C 0.13184 0.779 0.7354 0.0
H688 H 0.61699 0.43517 0.79301 0.0
H689 H 0.5575 0.36001 0.79684 0.0
H690 H 0.5935 0.32743 0.78195 0.0
H691 H 0.64782 0.41539 0.75016 0.0
H692 H 0.68361 0.4279 0.75634 0.0
H693 H 0.65202 0.44549 0.76574 0.0
H694 H 0.67134 0.43377 0.7969 0.0
H695 H 0.70291 0.41617 0.78761 0.0
H696 H 0.6802 0.39558 0.80262 0.0
H697 H 0.6385 0.30218 0.76936 0.0
H698 H 0.6876 0.28702 0.75953 0.0
H699 H 0.71619 0.37963 0.76363 0.0
C700 C 0.61144 0.41191 0.79057 0.0
C701 C 0.5846 0.39999 0.79609 0.0
C702 C 0.57794 0.36955 0.79257 0.0
C703 C 0.59824 0.35092 0.78416 0.0
C704 C 0.62482 0.3633 0.77918 0.0
C705 C 0.63126 0.3932 0.78213 0.0
C706 C 0.6617 0.40088 0.77631 0.0
C707 C 0.66124 0.42377 0.76124 0.0
C708 C 0.68011 0.41225 0.79178 0.0
C709 C 0.67179 0.37044 0.77009 0.0
C710 C 0.65026 0.34901 0.77172 0.0
C711 C 0.65537 0.31888 0.76778 0.0
C712 C 0.68331 0.31047 0.76223 0.0
C713 C 0.70568 0.33215 0.76072 0.0
C714 C 0.69952 0.36252 0.76444 0.0
H715 H 0.63064 0.09449 0.06542 0.0
H716 H 0.59105 0.06398 0.01709 0.0
H717 H 0.62099 0.10017 0.00043 0.0
H718 H 0.62953 0.16949 0.05544 0.0
H719 H 0.66361 0.1788 0.0657 0.0
H720 H 0.64302 0.14716 0.07338 0.0
H721 H 0.68738 0.11241 0.06841 0.0
H722 H 0.70821 0.14405 0.06072 0.0
H723 H 0.70439 0.11115 0.04717 0.0
H724 H 0.65051 0.1435 0.9896 0.0
H725 H 0.67565 0.1919 0.98551 0.0
H726 H 0.69582 0.19432 0.04102 0.0
C727 C 0.62901 0.09477 0.05127 0.0
C728 C 0.60882 0.07631 0.04248 0.0
C729 C 0.60648 0.07797 0.02403 0.0
C730 C 0.62353 0.09827 0.01447 0.0
C731 C 0.64282 0.11665 0.02358 0.0
C732 C 0.6457 0.11503 0.04158 0.0
C733 C 0.6655 0.13947 0.04844 0.0
C734 C 0.64944 0.15993 0.0615 0.0
C735 C 0.69301 0.12595 0.05667 0.0
C736 C 0.67243 0.15581 0.03158 0.0
C737 C 0.65961 0.14197 0.01735 0.0
C738 C 0.66106 0.15426 0.0006 0.0
C739 C 0.67537 0.1818 0.99841 0.0
C740 C 0.68779 0.19687 0.01294 0.0
C741 C 0.68692 0.18319 0.02961 0.0
H742 H 0.8824 0.1259 0.31385 0.0
H743 H 0.91878 0.08444 0.26745 0.0
H744 H 0.88328 0.11173 0.24902 0.0
H745 H 0.80962 0.11971 0.30072 0.0
H746 H 0.79821 0.15483 0.31021 0.0
H747 H 0.82852 0.13484 0.31942 0.0
H748 H 0.86094 0.18196 0.31555 0.0
H749 H 0.83068 0.2021 0.30628 0.0
H750 H 0.8642 0.19904 0.29424 0.0
H751 H 0.84239 0.14143 0.23594 0.0
H752 H 0.79677 0.16807 0.22924 0.0
H753 H 0.78595 0.18868 0.28442 0.0
C754 C 0.88319 0.12309 0.29978 0.0
C755 C 0.90339 0.1034 0.29198 0.0
C756 C 0.90342 0.09954 0.27359 0.0
C757 C 0.8835 0.11505 0.26305 0.0
C758 C 0.86365 0.13416 0.27115 0.0
C759 C 0.86322 0.13808 0.28911 0.0
C760 C 0.83813 0.15783 0.29469 0.0
C761 C 0.8174 0.14077 0.30698 0.0
C762 C 0.84916 0.18696 0.30319 0.0
C763 C 0.82418 0.16395 0.2771 0.0
C764 C 0.83952 0.15054 0.26367 0.0
C765 C 0.83029 0.1522 0.24633 0.0
C766 C 0.80435 0.16743 0.24266 0.0
C767 C 0.78776 0.18046 0.2563 0.0
C768 C 0.79818 0.17909 0.27369 0.0
H769 H 0.9463 0.37012 0.54271 0.0
H770 H 0.87685 0.43116 0.55699 0.0
H771 H 0.84097 0.39607 0.54421 0.0
H772 H 0.91378 0.3417 0.50181 0.0
H773 H 0.927 0.30419 0.50567 0.0
H774 H 0.94711 0.33602 0.51374 0.0
H775 H 0.94531 0.31379 0.54509 0.0
H776 H 0.92503 0.28207 0.53718 0.0
H777 H 0.91065 0.30472 0.5547 0.0
H778 H 0.81243 0.35153 0.53255 0.0
H779 H 0.79399 0.30221 0.52255 0.0
H780 H 0.88261 0.27051 0.51695 0.0
C781 C 0.92358 0.37632 0.54297 0.0
C782 C 0.91437 0.40336 0.55085 0.0
C783 C 0.88444 0.41074 0.55081 0.0
C784 C 0.8639 0.39088 0.54366 0.0
C785 C 0.87371 0.36391 0.53651 0.0
C786 C 0.9029 0.35678 0.536 0.0
C787 C 0.90785 0.32563 0.52873 0.0
C788 C 0.92494 0.32698 0.51146 0.0
C789 C 0.9231 0.30537 0.54224 0.0
C790 C 0.87683 0.31591 0.52569 0.0
C791 C 0.8574 0.33834 0.53004 0.0
C792 C 0.82748 0.33394 0.52893 0.0
C793 C 0.81721 0.30585 0.52328 0.0
C794 C 0.83685 0.2825 0.51898 0.0
C795 C 0.867 0.28787 0.5201 0.0
H796 H 0.60085 0.07283 0.47966 0.0
H797 H 0.58654 0.1289 0.43394 0.0
H798 H 0.62143 0.1659 0.44545 0.0
H799 H 0.6123 0.13386 0.51148 0.0
H800 H 0.64057 0.1137 0.5228 0.0
H801 H 0.61171 0.09339 0.51212 0.0
H802 H 0.64956 0.06329 0.49417 0.0
H803 H 0.67846 0.08338 0.50483 0.0
H804 H 0.67607 0.08324 0.48127 0.0
H805 H 0.66124 0.19433 0.46032 0.0
H806 H 0.70399 0.21134 0.47709 0.0
H807 H 0.6931 0.13639 0.51285 0.0
C808 C 0.60486 0.09298 0.47211 0.0
C809 C 0.5907 0.098 0.45594 0.0
C810 C 0.59658 0.12477 0.44653 0.0
C811 C 0.61646 0.14592 0.45293 0.0
C812 C 0.63028 0.14006 0.46879 0.0
C813 C 0.62473 0.11426 0.47826 0.0
C814 C 0.64411 0.11223 0.49424 0.0
C815 C 0.62609 0.11337 0.51116 0.0
C816 C 0.66318 0.08386 0.49357 0.0
C817 C 0.66201 0.14047 0.49198 0.0
C818 C 0.65343 0.15642 0.47734 0.0
C819 C 0.66792 0.18227 0.47194 0.0
C820 C 0.6922 0.19173 0.48155 0.0
C821 C 0.70182 0.17529 0.49633 0.0
C822 C 0.68606 0.14972 0.50178 0.0
H823 H 0.9263 0.12023 0.70603 0.0
H824 H 0.86023 0.05277 0.71576 0.0
H825 H 0.83093 0.0905 0.73169 0.0
H826 H 0.92021 0.1583 0.74817 0.0
H827 H 0.92624 0.19481 0.73865 0.0
H828 H 0.94232 0.16202 0.72882 0.0
H829 H 0.91798 0.17524 0.69918 0.0
H830 H 0.90187 0.20803 0.7089 0.0
H831 H 0.8792 0.1805 0.69829 0.0
H832 H 0.80788 0.13688 0.74532 0.0
H833 H 0.7929 0.18773 0.7548 0.0
H834 H 0.87535 0.22328 0.73668 0.0
C835 C 0.90596 0.11312 0.7118 0.0
C836 C 0.89565 0.08347 0.70972 0.0
C837 C 0.86848 0.07543 0.71707 0.0
C838 C 0.8518 0.09663 0.72625 0.0
C839 C 0.86269 0.12569 0.72803 0.0
C840 C 0.8892 0.13385 0.72102 0.0
C841 C 0.89563 0.16671 0.72405 0.0
C842 C 0.9227 0.17068 0.73561 0.0
C843 C 0.89884 0.1836 0.70657 0.0
C844 C 0.86839 0.17597 0.73363 0.0
C845 C 0.84966 0.15206 0.73592 0.0
C846 C 0.82252 0.1557 0.74374 0.0
C847 C 0.8142 0.18464 0.7491 0.0
C848 C 0.83298 0.20946 0.74655 0.0
C849 C 0.86056 0.20479 0.73898 0.0
H850 H 0.87622 0.38603 0.94669 0.0
H851 H 0.91299 0.42202 0.99456 0.0
H852 H 0.87814 0.39202 0.01194 0.0
H853 H 0.80361 0.38879 0.96036 0.0
H854 H 0.79285 0.35464 0.94948 0.0
H855 H 0.82253 0.37648 0.94099 0.0
H856 H 0.85614 0.3299 0.94274 0.0
H857 H 0.82651 0.30787 0.95126 0.0
H858 H 0.86012 0.31032 0.96326 0.0
H859 H 0.83766 0.36023 0.02393 0.0
H860 H 0.79295 0.33127 0.02964 0.0
H861 H 0.78217 0.31697 0.97378 0.0
C862 C 0.87728 0.38709 0.96084 0.0
C863 C 0.89736 0.40609 0.96934 0.0
C864 C 0.89768 0.40757 0.98785 0.0
C865 C 0.87813 0.3905 0.9978 0.0
C866 C 0.8584 0.37217 0.98901 0.0
C867 C 0.85778 0.37044 0.97095 0.0
C868 C 0.83308 0.35079 0.96466 0.0
C869 C 0.81176 0.36876 0.9532 0.0
C870 C 0.84467 0.32307 0.95491 0.0
C871 C 0.81957 0.34217 0.98199 0.0
C872 C 0.83472 0.35437 0.9959 0.0
C873 C 0.82574 0.35037 0.01316 0.0
C874 C 0.80032 0.33386 0.01627 0.0
C875 C 0.78405 0.32184 0.00216 0.0
C876 C 0.79417 0.32573 0.98485 0.0
H877 H 0.63611 0.41904 0.20412 0.0
H878 H 0.55338 0.39739 0.22895 0.0
H879 H 0.57758 0.3598 0.24672 0.0
H880 H 0.65411 0.34333 0.19822 0.0
H881 H 0.69261 0.34865 0.20115 0.0
H882 H 0.67062 0.3789 0.19293 0.0
H883 H 0.68902 0.41318 0.21801 0.0
H884 H 0.71093 0.38288 0.2264 0.0
H885 H 0.68492 0.40119 0.24042 0.0
H886 H 0.60916 0.32209 0.26078 0.0
H887 H 0.6438 0.28133 0.26641 0.0
H888 H 0.70405 0.32085 0.2292 0.0
C889 C 0.62265 0.40673 0.21319 0.0
C890 C 0.59247 0.41265 0.2151 0.0
C891 C 0.57658 0.39521 0.22745 0.0
C892 C 0.59015 0.37326 0.23768 0.0
C893 C 0.61959 0.36805 0.23523 0.0
C894 C 0.63555 0.38378 0.22302 0.0
C895 C 0.66577 0.37061 0.22109 0.0
C896 C 0.67107 0.35972 0.20224 0.0
C897 C 0.68903 0.39332 0.22682 0.0
C898 C 0.6639 0.34454 0.23381 0.0
C899 C 0.63737 0.34422 0.24224 0.0
C900 C 0.63005 0.32209 0.2543 0.0
C901 C 0.64997 0.29902 0.25742 0.0
C902 C 0.67663 0.29776 0.24816 0.0
C903 C 0.6839 0.32125 0.2365 0.0
H904 H 0.06254 0.90431 0.4108 0.0
H905 H 0.13618 0.9536 0.39015 0.0
H906 H 0.16914 0.92452 0.40931 0.0
H907 H 0.08707 0.90235 0.45478 0.0
H908 H 0.07338 0.86519 0.45919 0.0
H909 H 0.05595 0.88837 0.443 0.0
H910 H 0.06294 0.84657 0.41978 0.0
H911 H 0.08042 0.82323 0.43591 0.0
H912 H 0.09879 0.83194 0.41571 0.0
H913 H 0.19376 0.89101 0.43116 0.0
H914 H 0.20823 0.85739 0.4553 0.0
H915 H 0.11823 0.83082 0.46226 0.0
C916 C 0.08566 0.90864 0.41016 0.0
C917 C 0.09693 0.93104 0.39897 0.0
C918 C 0.12719 0.93658 0.39871 0.0
C919 C 0.14604 0.92008 0.40945 0.0
C920 C 0.13422 0.89826 0.42041 0.0
C921 C 0.10473 0.8926 0.42091 0.0
C922 C 0.09742 0.86908 0.43454 0.0
C923 C 0.07727 0.88203 0.44872 0.0
C924 C 0.08411 0.84104 0.42597 0.0
C925 C 0.12739 0.8626 0.44176 0.0
C926 C 0.14834 0.87942 0.43329 0.0
C927 C 0.17756 0.87765 0.43785 0.0
C928 C 0.18556 0.85845 0.45157 0.0
C929 C 0.16437 0.84146 0.46068 0.0
C930 C 0.13496 0.84345 0.45555 0.0
H931 H 0.11827 0.59712 0.65489 0.0
H932 H 0.11243 0.50715 0.67667 0.0
H933 H 0.1391 0.52387 0.70276 0.0
H934 H 0.18963 0.61563 0.67188 0.0
H935 H 0.18016 0.65399 0.67679 0.0
H936 H 0.16232 0.63461 0.65909 0.0
H937 H 0.11226 0.64619 0.67301 0.0
H938 H 0.12994 0.66561 0.69073 0.0
H939 H 0.10536 0.63512 0.69533 0.0
H940 H 0.16497 0.55023 0.72692 0.0
H941 H 0.18716 0.58521 0.74807 0.0
H942 H 0.17436 0.65871 0.71147 0.0
C943 C 0.12258 0.58089 0.66511 0.0
C944 C 0.11355 0.55064 0.66348 0.0
C945 C 0.11977 0.53022 0.67726 0.0
C946 C 0.13474 0.53954 0.69225 0.0
C947 C 0.14322 0.56944 0.69342 0.0
C948 C 0.1373 0.58988 0.68029 0.0
C949 C 0.14779 0.62101 0.68522 0.0
C950 C 0.17138 0.63194 0.67249 0.0
C951 C 0.12232 0.64329 0.68613 0.0
C952 C 0.16028 0.61484 0.70323 0.0
C953 C 0.1576 0.58489 0.70762 0.0
C954 C 0.16726 0.57374 0.72364 0.0
C955 C 0.17985 0.5938 0.73556 0.0
C956 C 0.1825 0.6247 0.73145 0.0
C957 C 0.17267 0.63522 0.71501 0.0
H958 H 0.43241 0.59636 0.91586 0.0
H959 H 0.37334 0.61429 0.87275 0.0
H960 H 0.34276 0.64472 0.89245 0.0
H961 H 0.38005 0.59054 0.94941 0.0
H962 H 0.40184 0.6093 0.96568 0.0
H963 H 0.41911 0.58903 0.94816 0.0
H964 H 0.44777 0.63683 0.93942 0.0
H965 H 0.43068 0.65725 0.95697 0.0
H966 H 0.42833 0.67107 0.93484 0.0
H967 H 0.31748 0.67136 0.91732 0.0
H968 H 0.30086 0.69431 0.94502 0.0
H969 H 0.37841 0.66171 0.97111 0.0
C970 C 0.41337 0.60708 0.91039 0.0
C971 C 0.40534 0.60276 0.89269 0.0
C972 C 0.37978 0.61676 0.8863 0.0
C973 C 0.36236 0.63429 0.89737 0.0
C974 C 0.37092 0.63791 0.91473 0.0
C975 C 0.39598 0.62493 0.92116 0.0
C976 C 0.40043 0.63226 0.94032 0.0
C977 C 0.40034 0.60357 0.95155 0.0
C978 C 0.42846 0.65044 0.94304 0.0
C979 C 0.37378 0.65121 0.94374 0.0
C980 C 0.35694 0.65407 0.92885 0.0
C981 C 0.33064 0.66952 0.92901 0.0
C982 C 0.32135 0.6824 0.9448 0.0
C983 C 0.33847 0.67999 0.96015 0.0
C984 C 0.36507 0.66429 0.95952 0.0
H985 H 0.4374 0.91759 0.17384 0.0
H986 H 0.37534 0.9078 0.1314 0.0
H987 H 0.34143 0.88227 0.15155 0.0
H988 H 0.4249 0.84528 0.19288 0.0
H989 H 0.42931 0.85835 0.21505 0.0
H990 H 0.44802 0.877 0.19745 0.0
H991 H 0.42485 0.92763 0.20666 0.0
H992 H 0.40599 0.90911 0.22427 0.0
H993 H 0.38591 0.93054 0.20832 0.0
H994 H 0.31459 0.85712 0.17634 0.0
H995 H 0.29744 0.83315 0.20361 0.0
H996 H 0.37804 0.85795 0.22934 0.0
C997 C 0.41679 0.9099 0.1687 0.0
C998 C 0.40905 0.91479 0.15101 0.0
C999 C 0.38162 0.90474 0.14495 0.0
C1000 C 0.36227 0.89007 0.15627 0.0
C1001 C 0.37069 0.88556 0.17359 0.0
C1002 C 0.39734 0.8951 0.17976 0.0
C1003 C 0.40146 0.88693 0.19883 0.0
C1004 C 0.42746 0.86562 0.20118 0.0
C1005 C 0.40474 0.91524 0.21019 0.0
C1006 C 0.37302 0.87111 0.20242 0.0
C1007 C 0.35548 0.87071 0.18774 0.0
C1008 C 0.32814 0.8573 0.18791 0.0
C1009 C 0.31859 0.84379 0.20347 0.0
C1010 C 0.33641 0.84364 0.2186 0.0
C1011 C 0.36392 0.85762 0.218 0.0
H1012 H 0.05753 0.61513 0.85668 0.0
H1013 H 0.1303 0.56491 0.87763 0.0
H1014 H 0.16377 0.59313 0.85835 0.0
H1015 H 0.0813 0.61463 0.81307 0.0
H1016 H 0.06848 0.65184 0.80792 0.0
H1017 H 0.05079 0.63022 0.82472 0.0
H1018 H 0.05935 0.67325 0.84698 0.0
H1019 H 0.07707 0.69506 0.83021 0.0
H1020 H 0.09565 0.68718 0.85047 0.0
H1021 H 0.18872 0.62456 0.83574 0.0
H1022 H 0.20334 0.65505 0.81029 0.0
H1023 H 0.11398 0.68384 0.80338 0.0
C1024 C 0.0806 0.61058 0.85743 0.0
C1025 C 0.09149 0.58811 0.86869 0.0
C1026 C 0.12165 0.58211 0.86906 0.0
C1027 C 0.14078 0.5981 0.85825 0.0
C1028 C 0.12932 0.61989 0.84712 0.0
C1029 C 0.09993 0.6261 0.84659 0.0
C1030 C 0.09294 0.64889 0.83249 0.0
C1031 C 0.07216 0.63559 0.81874 0.0
C1032 C 0.08052 0.67781 0.84052 0.0
C1033 C 0.12291 0.65411 0.82494 0.0
C1034 C 0.14363 0.63751 0.83375 0.0
C1035 C 0.17273 0.63783 0.82882 0.0
C1036 C 0.18081 0.65525 0.81434 0.0
C1037 C 0.15981 0.67187 0.80483 0.0
C1038 C 0.13057 0.67152 0.81041 0.0
H1039 H 0.40408 0.56612 0.0902 0.0
H1040 H 0.43327 0.64693 0.11646 0.0
H1041 H 0.40294 0.6777 0.09656 0.0
H1042 H 0.40593 0.59684 0.04715 0.0
H1043 H 0.37436 0.57673 0.03958 0.0
H1044 H 0.39661 0.56108 0.05668 0.0
H1045 H 0.35157 0.55714 0.07688 0.0
H1046 H 0.32916 0.57279 0.05983 0.0
H1047 H 0.33008 0.59017 0.08114 0.0
H1048 H 0.36982 0.69941 0.07375 0.0
H1049 H 0.33894 0.71118 0.04826 0.0
H1050 H 0.33341 0.61622 0.0358 0.0
C1051 C 0.40373 0.59028 0.09184 0.0
C1052 C 0.42067 0.60431 0.10488 0.0
C1053 C 0.42031 0.63594 0.10651 0.0
C1054 C 0.40312 0.65349 0.09534 0.0
C1055 C 0.38673 0.63901 0.08253 0.0
C1056 C 0.38708 0.60815 0.08061 0.0
C1057 C 0.36884 0.59831 0.06514 0.0
C1058 C 0.38756 0.5823 0.05132 0.0
C1059 C 0.3434 0.57843 0.07111 0.0
C1060 C 0.35827 0.62848 0.05859 0.0
C1061 C 0.36853 0.65161 0.06895 0.0
C1062 C 0.36166 0.68149 0.06554 0.0
C1063 C 0.34406 0.68793 0.05105 0.0
C1064 C 0.33384 0.66462 0.04001 0.0
C1065 C 0.34098 0.63452 0.04395 0.0
H1066 H 0.40901 0.91146 0.34543 0.0
H1067 H 0.39404 0.85766 0.39194 0.0
H1068 H 0.36285 0.82339 0.37473 0.0
H1069 H 0.3368 0.90535 0.32783 0.0
H1070 H 0.34899 0.90341 0.30543 0.0
H1071 H 0.3702 0.92341 0.32144 0.0
H1072 H 0.41505 0.89082 0.31377 0.0
H1073 H 0.39396 0.87068 0.29776 0.0
H1074 H 0.41233 0.85049 0.31496 0.0
H1075 H 0.33287 0.79533 0.35236 0.0
H1076 H 0.30693 0.77534 0.32655 0.0
H1077 H 0.34166 0.84794 0.29489 0.0
C1078 C 0.39897 0.89263 0.35205 0.0
C1079 C 0.40389 0.88726 0.37004 0.0
C1080 C 0.39077 0.86204 0.37813 0.0
C1081 C 0.37292 0.84256 0.36849 0.0
C1082 C 0.36851 0.84858 0.35078 0.0
C1083 C 0.38119 0.87299 0.34264 0.0
C1084 C 0.37315 0.87442 0.32345 0.0
C1085 C 0.35628 0.90336 0.3193 0.0
C1086 C 0.40024 0.87141 0.3118 0.0
C1087 C 0.35388 0.84702 0.32205 0.0
C1088 C 0.35143 0.83241 0.33794 0.0
C1089 C 0.33466 0.80658 0.33984 0.0
C1090 C 0.32 0.7954 0.32511 0.0
C1091 C 0.32227 0.81004 0.30869 0.0
C1092 C 0.33949 0.83618 0.30723 0.0
H1093 H 0.08282 0.88571 0.59847 0.0
H1094 H 0.1134 0.97784 0.59877 0.0
H1095 H 0.14973 0.96519 0.57614 0.0
H1096 H 0.15383 0.85103 0.59222 0.0
H1097 H 0.13986 0.82188 0.57818 0.0
H1098 H 0.11704 0.83798 0.59488 0.0
H1099 H 0.07849 0.85134 0.5714 0.0
H1100 H 0.10119 0.83532 0.55465 0.0
H1101 H 0.08894 0.87361 0.55272 0.0
H1102 H 0.18024 0.94337 0.55206 0.0
H1103 H 0.20469 0.91316 0.52928 0.0
H1104 H 0.15542 0.83484 0.54547 0.0
C1105 C 0.09726 0.90315 0.5938 0.0
C1106 C 0.09539 0.93273 0.60035 0.0
C1107 C 0.11474 0.95496 0.59404 0.0
C1108 C 0.13533 0.94802 0.58115 0.0
C1109 C 0.13647 0.91869 0.57487 0.0
C1110 C 0.11815 0.89654 0.58108 0.0
C1111 C 0.12365 0.86687 0.572 0.0
C1112 C 0.13423 0.84303 0.5851 0.0
C1113 C 0.09645 0.85617 0.56211 0.0
C1114 C 0.14759 0.87593 0.5595 0.0
C1115 C 0.15462 0.90593 0.56133 0.0
C1116 C 0.17517 0.91977 0.55064 0.0
C1117 C 0.18886 0.90247 0.53772 0.0
C1118 C 0.1821 0.87165 0.53571 0.0
C1119 C 0.16133 0.85826 0.54686 0.0
H1120 H 0.59611 0.41345 0.90402 0.0
H1121 H 0.51548 0.36348 0.89985 0.0
H1122 H 0.53394 0.32644 0.92118 0.0
H1123 H 0.64358 0.34924 0.90825 0.0
H1124 H 0.66722 0.36734 0.92382 0.0
H1125 H 0.64795 0.38946 0.90786 0.0
H1126 H 0.62552 0.42158 0.93271 0.0
H1127 H 0.64473 0.39958 0.94874 0.0
H1128 H 0.60583 0.40329 0.9501 0.0
H1129 H 0.56045 0.29589 0.94373 0.0
H1130 H 0.59353 0.27346 0.96556 0.0
H1131 H 0.65686 0.34339 0.95495 0.0
C1132 C 0.58231 0.39475 0.90763 0.0
C1133 C 0.55438 0.39129 0.90023 0.0
C1134 C 0.5371 0.36635 0.90516 0.0
C1135 C 0.54733 0.34529 0.91733 0.0
C1136 C 0.57491 0.34944 0.92441 0.0
C1137 C 0.5922 0.37349 0.91971 0.0
C1138 C 0.62089 0.37292 0.92939 0.0
C1139 C 0.64641 0.36953 0.91656 0.0
C1140 C 0.62443 0.40101 0.94092 0.0
C1141 C 0.61693 0.34493 0.94037 0.0
C1142 C 0.59027 0.33171 0.9373 0.0
C1143 C 0.58145 0.30595 0.94618 0.0
C1144 C 0.60038 0.29341 0.95857 0.0
C1145 C 0.62782 0.3066 0.96192 0.0
C1146 C 0.63613 0.33263 0.9526 0.0
H1147 H 0.5945 0.05303 0.1709 0.0
H1148 H 0.62235 0.10977 0.12782 0.0
H1149 H 0.64918 0.14192 0.14866 0.0
H1150 H 0.58366 0.11053 0.20186 0.0
H1151 H 0.59716 0.08914 0.22017 0.0
H1152 H 0.581 0.07014 0.20179 0.0
H1153 H 0.62763 0.03824 0.19791 0.0
H1154 H 0.6439 0.05704 0.21634 0.0
H1155 H 0.66218 0.05681 0.19548 0.0
H1156 H 0.67118 0.16908 0.17453 0.0
H1157 H 0.68766 0.18828 0.20322 0.0
H1158 H 0.64668 0.11235 0.22893 0.0
C1159 C 0.60669 0.07185 0.16574 0.0
C1160 C 0.60633 0.07881 0.14769 0.0
C1161 C 0.62202 0.10414 0.14161 0.0
C1162 C 0.63747 0.12243 0.15333 0.0
C1163 C 0.63714 0.11499 0.17105 0.0
C1164 C 0.6223 0.09018 0.1772 0.0
C1165 C 0.62487 0.08732 0.19688 0.0
C1166 C 0.59489 0.08942 0.20569 0.0
C1167 C 0.64059 0.05812 0.20195 0.0
C1168 C 0.64326 0.11459 0.20089 0.0
C1169 C 0.65012 0.13029 0.18585 0.0
C1170 C 0.66613 0.15683 0.18638 0.0
C1171 C 0.67533 0.16759 0.20274 0.0
C1172 C 0.66856 0.15174 0.2183 0.0
C1173 C 0.65244 0.12484 0.21727 0.0
H1174 H 0.89514 0.09246 0.40857 0.0
H1175 H 0.93972 0.16612 0.383 0.0
H1176 H 0.91345 0.20236 0.40182 0.0
H1177 H 0.82562 0.12983 0.41499 0.0
H1178 H 0.81992 0.1132 0.43623 0.0
H1179 H 0.84073 0.09346 0.41992 0.0
H1180 H 0.88389 0.08941 0.44158 0.0
H1181 H 0.86326 0.1092 0.45793 0.0
H1182 H 0.89839 0.12305 0.45138 0.0
H1183 H 0.88279 0.2303 0.42382 0.0
H1184 H 0.85202 0.24775 0.44832 0.0
H1185 H 0.82933 0.15534 0.46018 0.0
C1186 C 0.89898 0.11626 0.40678 0.0
C1187 C 0.91917 0.12666 0.39429 0.0
C1188 C 0.92425 0.15786 0.39254 0.0
C1189 C 0.90939 0.17853 0.4031 0.0
C1190 C 0.88975 0.16754 0.41542 0.0
C1191 C 0.88465 0.13712 0.41736 0.0
C1192 C 0.86373 0.13101 0.43221 0.0
C1193 C 0.83585 0.11599 0.42542 0.0
C1194 C 0.87819 0.11205 0.44663 0.0
C1195 C 0.85797 0.16272 0.43838 0.0
C1196 C 0.87291 0.18351 0.42842 0.0
C1197 C 0.87097 0.21423 0.43171 0.0
C1198 C 0.85343 0.22392 0.44563 0.0
C1199 C 0.83838 0.20291 0.45618 0.0
C1200 C 0.84068 0.17196 0.4524 0.0
H1201 H 0.9049 0.43478 0.66486 0.0
H1202 H 0.93031 0.35376 0.63747 0.0
H1203 H 0.89756 0.32387 0.65645 0.0
H1204 H 0.9044 0.4022 0.70707 0.0
H1205 H 0.87391 0.42372 0.71489 0.0
H1206 H 0.89703 0.43884 0.69807 0.0
H1207 H 0.85235 0.44619 0.67788 0.0
H1208 H 0.82906 0.43103 0.69465 0.0
H1209 H 0.82918 0.41461 0.67308 0.0
H1210 H 0.86294 0.30301 0.67882 0.0
H1211 H 0.83248 0.29173 0.70458 0.0
H1212 H 0.83198 0.38628 0.7184 0.0
C1213 C 0.90315 0.4108 0.66274 0.0
C1214 C 0.9197 0.39643 0.64967 0.0
C1215 C 0.91759 0.365 0.64743 0.0
C1216 C 0.89901 0.34796 0.65807 0.0
C1217 C 0.88301 0.36278 0.67093 0.0
C1218 C 0.88512 0.39345 0.67342 0.0
C1219 C 0.86737 0.4036 0.689 0.0
C1220 C 0.88685 0.41792 0.70309 0.0
C1221 C 0.84304 0.42513 0.6833 0.0
C1222 C 0.85519 0.3738 0.69504 0.0
C1223 C 0.86406 0.35061 0.68427 0.0
C1224 C 0.85581 0.32099 0.68733 0.0
C1225 C 0.83843 0.31483 0.70196 0.0
C1226 C 0.8299 0.33815 0.71348 0.0
C1227 C 0.83819 0.36801 0.70983 0.0
H1228 H 0.59839 0.07453 0.35178 0.0
H1229 H 0.52186 0.12959 0.36026 0.0
H1230 H 0.53999 0.16622 0.33867 0.0
H1231 H 0.64918 0.13689 0.34714 0.0
H1232 H 0.67026 0.11818 0.33052 0.0
H1233 H 0.65147 0.09648 0.34689 0.0
H1234 H 0.62513 0.06666 0.32246 0.0
H1235 H 0.64371 0.08836 0.30603 0.0
H1236 H 0.60461 0.08668 0.3061 0.0
H1237 H 0.56517 0.19566 0.31531 0.0
H1238 H 0.59693 0.21727 0.29257 0.0
H1239 H 0.65817 0.1443 0.30014 0.0
C1240 C 0.58564 0.09451 0.34932 0.0
C1241 C 0.55858 0.09905 0.35767 0.0
C1242 C 0.54239 0.12532 0.35383 0.0
C1243 C 0.55259 0.14637 0.34167 0.0
C1244 C 0.57914 0.141 0.33355 0.0
C1245 C 0.59557 0.11586 0.3373 0.0
C1246 C 0.62325 0.11533 0.32658 0.0
C1247 C 0.65013 0.11682 0.3385 0.0
C1248 C 0.62421 0.08762 0.31458 0.0
C1249 C 0.61965 0.14397 0.31612 0.0
C1250 C 0.59401 0.15837 0.32032 0.0
C1251 C 0.58542 0.18474 0.312 0.0
C1252 C 0.60357 0.19677 0.29906 0.0
C1253 C 0.63007 0.18254 0.29464 0.0
C1254 C 0.63818 0.15584 0.30335 0.0
H1255 H 0.87843 0.096 0.60863 0.0
H1256 H 0.88108 0.00632 0.58626 0.0
H1257 H 0.8534 0.02411 0.56081 0.0
H1258 H 0.80624 0.11671 0.59261 0.0
H1259 H 0.81668 0.15487 0.58788 0.0
H1260 H 0.83434 0.1346 0.60531 0.0
H1261 H 0.88439 0.14505 0.59109 0.0
H1262 H 0.86692 0.16532 0.57363 0.0
H1263 H 0.89054 0.13421 0.56865 0.0
H1264 H 0.82843 0.0518 0.53686 0.0
H1265 H 0.8081 0.08803 0.51577 0.0
H1266 H 0.82273 0.16028 0.55293 0.0
C1267 C 0.87308 0.08003 0.59844 0.0
C1268 C 0.88168 0.04959 0.59968 0.0
C1269 C 0.87414 0.02953 0.58597 0.0
C1270 C 0.85855 0.03946 0.57134 0.0
C1271 C 0.85068 0.06957 0.57049 0.0
C1272 C 0.85765 0.08961 0.58364 0.0
C1273 C 0.84793 0.12114 0.57898 0.0
C1274 C 0.82493 0.13249 0.59197 0.0
C1275 C 0.874 0.14269 0.57803 0.0
C1276 C 0.8349 0.11571 0.56104 0.0
C1277 C 0.83652 0.08575 0.55648 0.0
C1278 C 0.82682 0.07531 0.54032 0.0
C1279 C 0.81535 0.09609 0.52841 0.0
C1280 C 0.81375 0.12699 0.53269 0.0
C1281 C 0.82344 0.13679 0.54931 0.0
H1282 H 0.92374 0.37302 0.86119 0.0
H1283 H 0.86874 0.45216 0.86032 0.0
H1284 H 0.83747 0.42816 0.83815 0.0
H1285 H 0.9213 0.3586 0.81541 0.0
H1286 H 0.92057 0.31831 0.81765 0.0
H1287 H 0.93777 0.34096 0.8342 0.0
H1288 H 0.90494 0.31696 0.85793 0.0
H1289 H 0.88765 0.29418 0.84145 0.0
H1290 H 0.86605 0.31807 0.85534 0.0
H1291 H 0.81379 0.397 0.81504 0.0
H1292 H 0.79825 0.36002 0.79296 0.0
H1293 H 0.86852 0.30083 0.80873 0.0
C1294 C 0.90509 0.38527 0.85636 0.0
C1295 C 0.89861 0.41442 0.86256 0.0
C1296 C 0.87387 0.42962 0.85599 0.0
C1297 C 0.85607 0.41626 0.84332 0.0
C1298 C 0.86322 0.38764 0.83739 0.0
C1299 C 0.88703 0.37223 0.84374 0.0
C1300 C 0.8902 0.34196 0.83488 0.0
C1301 C 0.91918 0.33985 0.82494 0.0
C1302 C 0.88701 0.31627 0.8482 0.0
C1303 C 0.86466 0.34295 0.82239 0.0
C1304 C 0.84939 0.3695 0.8241 0.0
C1305 C 0.82543 0.37603 0.81366 0.0
C1306 C 0.81683 0.35488 0.80113 0.0
C1307 C 0.83211 0.32746 0.79914 0.0
C1308 C 0.85626 0.32145 0.81001 0.0
H1309 H 0.5909 0.44376 0.08373 0.0
H1310 H 0.60654 0.38145 0.12643 0.0
H1311 H 0.63235 0.34758 0.10606 0.0
H1312 H 0.57858 0.3893 0.05053 0.0
H1313 H 0.59676 0.41045 0.03366 0.0
H1314 H 0.57971 0.42972 0.05164 0.0
H1315 H 0.62833 0.45632 0.05887 0.0
H1316 H 0.64552 0.43718 0.04087 0.0
H1317 H 0.66045 0.43409 0.06262 0.0
H1318 H 0.65592 0.32029 0.08079 0.0
H1319 H 0.67567 0.30187 0.05271 0.0
H1320 H 0.64554 0.38305 0.02699 0.0
C1321 C 0.60007 0.4232 0.0889 0.0
C1322 C 0.59673 0.4153 0.10671 0.0
C1323 C 0.60855 0.38784 0.1128 0.0
C1324 C 0.62339 0.36855 0.10136 0.0
C1325 C 0.62626 0.37709 0.08389 0.0
C1326 C 0.61499 0.40381 0.07771 0.0
C1327 C 0.62082 0.40774 0.05836 0.0
C1328 C 0.59227 0.40939 0.04794 0.0
C1329 C 0.63992 0.43548 0.05499 0.0
C1330 C 0.63709 0.37899 0.05456 0.0
C1331 C 0.64 0.36158 0.06944 0.0
C1332 C 0.65385 0.33378 0.06907 0.0
C1333 C 0.66497 0.32351 0.05306 0.0
C1334 C 0.66221 0.34105 0.03766 0.0
C1335 C 0.64815 0.36917 0.03852 0.0
loop_
_geom_bond_atom_site_label_1
_geom_bond_atom_site_label_2
_geom_bond_distance
_geom_bond_site_symmetry_2
_ccdc_geom_bond_type
C0 C1 1.384 . S
C0 C2 1.384 . S
C0 H28 0.931 . S
C1 C0 1.384 . S
C1 C4 1.382 . S
C2 C0 1.384 . S
C2 C3 1.381 . S
C2 H29 0.930 . S
C3 C2 1.381 . S
C3 C5 1.381 . S
C3 C6 1.487 . S
C4 C1 1.382 . S
C4 C5 1.387 . S
C4 H30 0.930 . S
C5 C3 1.381 . S
C5 C4 1.387 . S
C5 H31 0.931 1_565 S
C6 C3 1.487 . S
C6 C13 1.399 . S
C6 N44 1.343 1_565 S
C7 C8 1.384 . S
C7 C9 1.384 . S
C7 H32 0.931 . S
C8 C7 1.384 . S
C8 C11 1.382 . S
C9 C7 1.384 . S
C9 C10 1.381 . S
C9 H33 0.930 . S
C10 C9 1.381 . S
C10 C12 1.381 . S
C10 C13 1.487 . S
C11 C8 1.382 . S
C11 C12 1.387 . S
C11 H34 0.930 . S
C12 C10 1.381 . S
C12 C11 1.387 . S
C12 H35 0.931 . S
C13 C6 1.399 . S
C13 C10 1.487 . S
C13 N45 1.343 1_455 S
C14 C15 1.384 . S
C14 C16 1.384 . S
C14 H36 0.931 . S
C15 C14 1.384 . S
C15 C18 1.382 . S
C16 C14 1.384 . S
C16 C17 1.381 . S
C16 H37 0.930 . S
C17 C16 1.381 . S
C17 C19 1.381 . S
C17 C20 1.487 . S
C18 C15 1.382 . S
C18 C19 1.387 . S
C18 H38 0.930 . S
C19 C17 1.381 . S
C19 C18 1.387 . S
C19 H39 0.931 1_545 S
C20 C17 1.487 . S
C20 C27 1.399 . S
C20 N45 1.343 1_545 S
C21 C22 1.384 . S
C21 C23 1.384 . S
C21 H40 0.931 . S
C22 C21 1.384 . S
C22 C25 1.382 . S
C23 C21 1.384 . S
C23 C24 1.381 . S
C23 H41 0.930 . S
C24 C23 1.381 . S
C24 C26 1.381 . S
C24 C27 1.487 . S
C25 C22 1.382 . S
C25 C26 1.387 . S
C25 H42 0.930 . S
C26 C24 1.381 . S
C26 C25 1.387 . S
C26 H43 0.931 . S
C27 C20 1.399 . S
C27 C24 1.487 . S
C27 N44 1.343 1_655 S
H28 C0 0.931 . S
H29 C2 0.930 . S
H30 C4 0.930 . S
H31 C5 0.931 1_545 S
H32 C7 0.931 . S
H33 C9 0.930 . S
H34 C11 0.930 . S
H35 C12 0.931 . S
H36 C14 0.931 . S
H37 C16 0.930 . S
H38 C18 0.930 . S
H39 C19 0.931 1_565 S
H40 C21 0.931 . S
H41 C23 0.930 . S
H42 C25 0.930 . S
H43 C26 0.931 . S
N44 C6 1.343 1_545 S
N44 C27 1.343 1_455 S
N45 C13 1.343 1_655 S
N45 C20 1.343 1_565 S
C46 C47 1.384 . S
C46 C48 1.384 . S
C46 H74 0.931 . S
C47 C46 1.384 . S
C47 C50 1.382 . S
C48 C46 1.384 . S
C48 C49 1.381 . S
C48 H75 0.930 . S
C49 C48 1.381 . S
C49 C51 1.381 . S
C49 C52 1.487 . S
C50 C47 1.382 . S
C50 C51 1.387 . S
C50 H76 0.930 . S
C51 C49 1.381 . S
C51 C50 1.387 . S
C51 H77 0.931 1_655 S
C52 C49 1.487 . S
C52 C59 1.399 . S
C52 N90 1.343 1_655 S
C53 C54 1.384 . S
C53 C55 1.384 . S
C53 H78 0.931 . S
C54 C53 1.384 . S
C54 C57 1.382 . S
C55 C53 1.384 . S
C55 C56 1.381 . S
C55 H79 0.930 . S
C56 C55 1.381 . S
C56 C58 1.381 . S
C56 C59 1.487 . S
C57 C54 1.382 . S
C57 C58 1.387 . S
C57 H80 0.930 . S
C58 C56 1.381 . S
C58 C57 1.387 . S
C58 H81 0.931 . S
C59 C52 1.399 . S
C59 C56 1.487 . S
C59 N91 1.343 . S
C60 C61 1.384 . S
C60 C62 1.384 . S
C60 H82 0.931 . S
C61 C60 1.384 . S
C61 C64 1.382 . S
C62 C60 1.384 . S
C62 C63 1.381 . S
C62 H83 0.930 . S
C63 C62 1.381 . S
C63 C65 1.381 . S
C63 C66 1.487 . S
C64 C61 1.382 . S
C64 C65 1.387 . S
C64 H84 0.930 . S
C65 C63 1.381 . S
C65 C64 1.387 . S
C65 H85 0.931 1_455 S
C66 C63 1.487 . S
C66 C73 1.399 . S
C66 N91 1.343 1_455 S
C67 C68 1.384 . S
C67 C69 1.384 . S
C67 H86 0.931 . S
C68 C67 1.384 . S
C68 C71 1.382 . S
C69 C67 1.384 . S
C69 C70 1.381 . S
C69 H87 0.930 . S
C70 C69 1.381 . S
C70 C72 1.381 . S
C70 C73 1.487 . S
C71 C68 1.382 . S
C71 C72 1.387 . S
C71 H88 0.930 . S
C72 C70 1.381 . S
C72 C71 1.387 . S
C72 H89 0.931 . S
C73 C66 1.399 . S
C73 C70 1.487 . S
C73 N90 1.343 . S
H74 C46 0.931 . S
H75 C48 0.930 . S
H76 C50 0.930 . S
H77 C51 0.931 1_455 S
H78 C53 0.931 . S
H79 C55 0.930 . S
H80 C57 0.930 . S
H81 C58 0.931 . S
H82 C60 0.931 . S
H83 C62 0.930 . S
H84 C64 0.930 . S
H85 C65 0.931 1_655 S
H86 C67 0.931 . S
H87 C69 0.930 . S
H88 C71 0.930 . S
H89 C72 0.931 . S
N90 C52 1.343 1_455 S
N90 C73 1.343 . S
N91 C59 1.343 . S
N91 C66 1.343 1_655 S
C92 C93 1.384 . S
C92 C94 1.384 . S
C92 H120 0.931 . S
C93 C92 1.384 . S
C93 C96 1.382 . S
C94 C92 1.384 . S
C94 C95 1.381 . S
C94 H121 0.930 . S
C95 C94 1.381 . S
C95 C97 1.381 . S
C95 C98 1.487 . S
C96 C93 1.382 . S
C96 C97 1.387 . S
C96 H122 0.930 . S
C97 C95 1.381 . S
C97 C96 1.387 . S
C97 H123 0.931 . S
C98 C95 1.487 . S
C98 C105 1.399 . S
C98 N136 1.343 . S
C99 C100 1.384 . S
C99 C101 1.384 . S
C99 H124 0.931 . S
C100 C99 1.384 . S
C100 C103 1.382 . S
C101 C99 1.384 . S
C101 C102 1.381 . S
C101 H125 0.930 . S
C102 C101 1.381 . S
C102 C104 1.381 . S
C102 C105 1.487 . S
C103 C100 1.382 . S
C103 C104 1.387 . S
C103 H126 0.930 . S
C104 C102 1.381 . S
C104 C103 1.387 . S
C104 H127 0.931 . S
C105 C98 1.399 . S
C105 C102 1.487 . S
C105 N137 1.343 . S
C106 C107 1.384 . S
C106 C108 1.384 . S
C106 H128 0.931 . S
C107 C106 1.384 . S
C107 C110 1.382 . S
C108 C106 1.384 . S
C108 C109 1.381 . S
C108 H129 0.930 . S
C109 C108 1.381 . S
C109 C111 1.381 . S
C109 C112 1.487 . S
C110 C107 1.382 . S
C110 C111 1.387 . S
C110 H130 0.930 . S
C111 C109 1.381 . S
C111 C110 1.387 . S
C111 H131 0.931 . S
C112 C109 1.487 . S
C112 C119 1.399 . S
C112 N137 1.343 . S
C113 C114 1.384 . S
C113 C115 1.384 . S
C113 H132 0.931 . S
C114 C113 1.384 . S
C114 C117 1.382 . S
C115 C113 1.384 . S
C115 C116 1.381 . S
C115 H133 0.930 . S
C116 C115 1.381 . S
C116 C118 1.381 . S
C116 C119 1.487 . S
C117 C114 1.382 . S
C117 C118 1.387 . S
C117 H134 0.930 . S
C118 C116 1.381 . S
C118 C117 1.387 . S
C118 H135 0.931 . S
C119 C112 1.399 . S
C119 C116 1.487 . S
C119 N136 1.343 . S
H120 C92 0.931 . S
H121 C94 0.930 . S
H122 C96 0.930 . S
H123 C97 0.931 . S
H124 C99 0.931 . S
H125 C101 0.930 . S
H126 C103 0.930 . S
H127 C104 0.931 . S
H128 C106 0.931 . S
H129 C108 0.930 . S
H130 C110 0.930 . S
H131 C111 0.931 . S
H132 C113 0.931 . S
H133 C115 0.930 . S
H134 C117 0.930 . S
H135 C118 0.931 . S
N136 C98 1.343 . S
N136 C119 1.343 . S
N137 C105 1.343 . S
N137 C112 1.343 . S
C138 C139 1.384 . S
C138 C140 1.384 . S
C138 H166 0.931 . S
C139 C138 1.384 . S
C139 C142 1.382 . S
C140 C138 1.384 . S
C140 C141 1.381 . S
C140 H167 0.930 . S
C141 C140 1.381 . S
C141 C143 1.381 . S
C141 C144 1.487 . S
C142 C139 1.382 . S
C142 C143 1.387 . S
C142 H168 0.930 . S
C143 C141 1.381 . S
C143 C142 1.387 . S
C143 H169 0.931 . S
C144 C141 1.487 . S
C144 C151 1.399 . S
C144 N182 1.343 1_565 S
C145 C146 1.384 . S
C145 C147 1.384 . S
C145 H170 0.931 . S
C146 C145 1.384 . S
C146 C149 1.382 . S
C147 C145 1.384 . S
C147 C148 1.381 . S
C147 H171 0.930 . S
C148 C147 1.381 . S
C148 C150 1.381 . S
C148 C151 1.487 . S
C149 C146 1.382 . S
C149 C150 1.387 . S
C149 H172 0.930 . S
C150 C148 1.381 . S
C150 C149 1.387 . S
C150 H173 0.931 . S
C151 C144 1.399 . S
C151 C148 1.487 . S
C151 N183 1.343 . S
C152 C153 1.384 . S
C152 C154 1.384 . S
C152 H174 0.931 . S
C153 C152 1.384 . S
C153 C156 1.382 . S
C154 C152 1.384 . S
C154 C155 1.381 . S
C154 H175 0.930 . S
C155 C154 1.381 . S
C155 C157 1.381 . S
C155 C158 1.487 . S
C156 C153 1.382 . S
C156 C157 1.387 . S
C156 H176 0.930 . S
C157 C155 1.381 . S
C157 C156 1.387 . S
C157 H177 0.931 . S
C158 C155 1.487 . S
C158 C165 1.399 . S
C158 N183 1.343 1_545 S
C159 C160 1.384 . S
C159 C161 1.384 . S
C159 H178 0.931 . S
C160 C159 1.384 . S
C160 C163 1.382 . S
C161 C159 1.384 . S
C161 C162 1.381 . S
C161 H179 0.930 . S
C162 C161 1.381 . S
C162 C164 1.381 . S
C162 C165 1.487 . S
C163 C160 1.382 . S
C163 C164 1.387 . S
C163 H180 0.930 . S
C164 C162 1.381 . S
C164 C163 1.387 . S
C164 H181 0.931 . S
C165 C158 1.399 . S
C165 C162 1.487 . S
C165 N182 1.343 . S
H166 C138 0.931 . S
H167 C140 0.930 . S
H168 C142 0.930 . S
H169 C143 0.931 . S
H170 C145 0.931 . S
H171 C147 0.930 . S
H172 C149 0.930 . S
H173 C150 0.931 . S
H174 C152 0.931 . S
H175 C154 0.930 . S
H176 C156 0.930 . S
H177 C157 0.931 . S
H178 C159 0.931 . S
H179 C161 0.930 . S
H180 C163 0.930 . S
H181 C164 0.931 . S
N182 C144 1.343 1_545 S
N182 C165 1.343 . S
N183 C151 1.343 . S
N183 C158 1.343 1_565 S
C184 C185 1.384 . S
C184 C186 1.384 . S
C184 H212 0.931 . S
C185 C184 1.384 . S
C185 C188 1.382 . S
C186 C184 1.384 . S
C186 C187 1.381 . S
C186 H213 0.930 . S
C187 C186 1.381 . S
C187 C189 1.381 . S
C187 C190 1.487 . S
C188 C185 1.382 . S
C188 C189 1.387 . S
C188 H214 0.930 . S
C189 C187 1.381 . S
C189 C188 1.387 . S
C189 H215 0.931 . S
C190 C187 1.487 . S
C190 C197 1.399 . S
C190 N228 1.343 . S
C191 C192 1.384 . S
C191 C193 1.384 . S
C191 H216 0.931 . S
C192 C191 1.384 . S
C192 C195 1.382 . S
C193 C191 1.384 . S
C193 C194 1.381 . S
C193 H217 0.930 . S
C194 C193 1.381 . S
C194 C196 1.381 . S
C194 C197 1.487 . S
C195 C192 1.382 . S
C195 C196 1.387 . S
C195 H218 0.930 . S
C196 C194 1.381 . S
C196 C195 1.387 . S
C196 H219 0.931 . S
C197 C190 1.399 . S
C197 C194 1.487 . S
C197 N229 1.343 1_455 S
C198 C199 1.384 . S
C198 C200 1.384 . S
C198 H220 0.931 . S
C199 C198 1.384 . S
C199 C202 1.382 . S
C200 C198 1.384 . S
C200 C201 1.381 . S
C200 H221 0.930 . S
C201 C200 1.381 . S
C201 C203 1.381 . S
C201 C204 1.487 . S
C202 C199 1.382 . S
C202 C203 1.387 . S
C202 H222 0.930 . S
C203 C201 1.381 . S
C203 C202 1.387 . S
C203 H223 0.931 . S
C204 C201 1.487 . S
C204 C211 1.399 . S
C204 N229 1.343 . S
C205 C206 1.384 . S
C205 C207 1.384 . S
C205 H224 0.931 . S
C206 C205 1.384 . S
C206 C209 1.382 . S
C207 C205 1.384 . S
C207 C208 1.381 . S
C207 H225 0.930 . S
C208 C207 1.381 . S
C208 C210 1.381 . S
C208 C211 1.487 . S
C209 C206 1.382 . S
C209 C210 1.387 . S
C209 H226 0.930 . S
C210 C208 1.381 . S
C210 C209 1.387 . S
C210 H227 0.931 . S
C211 C204 1.399 . S
C211 C208 1.487 . S
C211 N228 1.343 1_655 S
H212 C184 0.931 . S
H213 C186 0.930 . S
H214 C188 0.930 . S
H215 C189 0.931 . S
H216 C191 0.931 . S
H217 C193 0.930 . S
H218 C195 0.930 . S
H219 C196 0.931 . S
H220 C198 0.931 . S
H221 C200 0.930 . S
H222 C202 0.930 . S
H223 C203 0.931 . S
H224 C205 0.931 . S
H225 C207 0.930 . S
H226 C209 0.930 . S
H227 C210 0.931 . S
N228 C190 1.343 . S
N228 C211 1.343 1_455 S
N229 C197 1.343 1_655 S
N229 C204 1.343 . S
C230 C231 1.384 . S
C230 C232 1.384 . S
C230 H258 0.931 . S
C231 C230 1.384 . S
C231 C234 1.382 . S
C232 C230 1.384 . S
C232 C233 1.381 . S
C232 H259 0.930 . S
C233 C232 1.381 . S
C233 C235 1.381 . S
C233 C236 1.487 . S
C234 C231 1.382 . S
C234 C235 1.387 . S
C234 H260 0.930 . S
C235 C233 1.381 . S
C235 C234 1.387 . S
C235 H261 0.931 . S
C236 C233 1.487 . S
C236 C243 1.399 . S
C236 N274 1.343 . S
C237 C238 1.384 . S
C237 C239 1.384 . S
C237 H262 0.931 . S
C238 C237 1.384 . S
C238 C241 1.382 . S
C239 C237 1.384 . S
C239 C240 1.381 . S
C239 H263 0.930 . S
C240 C239 1.381 . S
C240 C242 1.381 . S
C240 C243 1.487 . S
C241 C238 1.382 . S
C241 C242 1.387 . S
C241 H264 0.930 . S
C242 C240 1.381 . S
C242 C241 1.387 . S
C242 H265 0.931 . S
C243 C236 1.399 . S
C243 C240 1.487 . S
C243 N275 1.343 . S
C244 C245 1.384 . S
C244 C246 1.384 . S
C244 H266 0.931 . S
C245 C244 1.384 . S
C245 C248 1.382 . S
C246 C244 1.384 . S
C246 C247 1.381 . S
C246 H267 0.930 . S
C247 C246 1.381 . S
C247 C249 1.381 . S
C247 C250 1.487 . S
C248 C245 1.382 . S
C248 C249 1.387 . S
C248 H268 0.930 . S
C249 C247 1.381 . S
C249 C248 1.387 . S
C249 H269 0.931 . S
C250 C247 1.487 . S
C250 C257 1.399 . S
C250 N275 1.343 . S
C251 C252 1.384 . S
C251 C253 1.384 . S
C251 H270 0.931 . S
C252 C251 1.384 . S
C252 C255 1.382 . S
C253 C251 1.384 . S
C253 C254 1.381 . S
C253 H271 0.930 . S
C254 C253 1.381 . S
C254 C256 1.381 . S
C254 C257 1.487 . S
C255 C252 1.382 . S
C255 C256 1.387 . S
C255 H272 0.930 . S
C256 C254 1.381 . S
C256 C255 1.387 . S
C256 H273 0.931 . S
C257 C250 1.399 . S
C257 C254 1.487 . S
C257 N274 1.343 . S
H258 C230 0.931 . S
H259 C232 0.930 . S
H260 C234 0.930 . S
H261 C235 0.931 . S
H262 C237 0.931 . S
H263 C239 0.930 . S
H264 C241 0.930 . S
H265 C242 0.931 . S
H266 C244 0.931 . S
H267 C246 0.930 . S
H268 C248 0.930 . S
H269 C249 0.931 . S
H270 C251 0.931 . S
H271 C253 0.930 . S
H272 C255 0.930 . S
H273 C256 0.931 . S
N274 C236 1.343 . S
N274 C257 1.343 . S
N275 C243 1.343 . S
N275 C250 1.343 . S
C276 C277 1.384 . S
C276 C278 1.384 . S
C276 H304 0.931 . S
C277 C276 1.384 . S
C277 C280 1.382 . S
C278 C276 1.384 . S
C278 C279 1.381 . S
C278 H305 0.930 . S
C279 C278 1.381 . S
C279 C281 1.381 . S
C279 C282 1.487 . S
C280 C277 1.382 . S
C280 C281 1.387 . S
C280 H306 0.930 . S
C281 C279 1.381 . S
C281 C280 1.387 . S
C281 H307 0.931 1_565 S
C282 C279 1.487 . S
C282 C289 1.399 . S
C282 N320 1.343 1_565 S
C283 C284 1.384 . S
C283 C285 1.384 . S
C283 H308 0.931 . S
C284 C283 1.384 . S
C284 C287 1.382 . S
C285 C283 1.384 . S
C285 C286 1.381 . S
C285 H309 0.930 . S
C286 C285 1.381 . S
C286 C288 1.381 . S
C286 C289 1.487 . S
C287 C284 1.382 . S
C287 C288 1.387 . S
C287 H310 0.930 . S
C288 C286 1.381 . S
C288 C287 1.387 . S
C288 H311 0.931 . S
C289 C282 1.399 . S
C289 C286 1.487 . S
C289 N321 1.343 . S
C290 C291 1.384 . S
C290 C292 1.384 . S
C290 H312 0.931 . S
C291 C290 1.384 . S
C291 C294 1.382 . S
C292 C290 1.384 . S
C292 C293 1.381 . S
C292 H313 0.930 . S
C293 C292 1.381 . S
C293 C295 1.381 . S
C293 C296 1.487 . S
C294 C291 1.382 . S
C294 C295 1.387 . S
C294 H314 0.930 . S
C295 C293 1.381 . S
C295 C294 1.387 . S
C295 H315 0.931 1_545 S
C296 C293 1.487 . S
C296 C303 1.399 . S
C296 N321 1.343 1_545 S
C297 C298 1.384 . S
C297 C299 1.384 . S
C297 H316 0.931 . S
C298 C297 1.384 . S
C298 C301 1.382 . S
C299 C297 1.384 . S
C299 C300 1.381 . S
C299 H317 0.930 . S
C300 C299 1.381 . S
C300 C302 1.381 . S
C300 C303 1.487 . S
C301 C298 1.382 . S
C301 C302 1.387 . S
C301 H318 0.930 . S
C302 C300 1.381 . S
C302 C301 1.387 . S
C302 H319 0.931 . S
C303 C296 1.399 . S
C303 C300 1.487 . S
C303 N320 1.343 . S
H304 C276 0.931 . S
H305 C278 0.930 . S
H306 C280 0.930 . S
H307 C281 0.931 1_545 S
H308 C283 0.931 . S
H309 C285 0.930 . S
H310 C287 0.930 . S
H311 C288 0.931 . S
H312 C290 0.931 . S
H313 C292 0.930 . S
H314 C294 0.930 . S
H315 C295 0.931 1_565 S
H316 C297 0.931 . S
H317 C299 0.930 . S
H318 C301 0.930 . S
H319 C302 0.931 . S
N320 C282 1.343 1_545 S
N320 C303 1.343 . S
N321 C289 1.343 . S
N321 C296 1.343 1_565 S
C322 C323 1.384 . S
C322 C324 1.384 . S
C322 H350 0.931 . S
C323 C322 1.384 . S
C323 C326 1.382 . S
C324 C322 1.384 . S
C324 C325 1.381 . S
C324 H351 0.930 . S
C325 C324 1.381 . S
C325 C327 1.381 . S
C325 C328 1.487 . S
C326 C323 1.382 . S
C326 C327 1.387 . S
C326 H352 0.930 . S
C327 C325 1.381 . S
C327 C326 1.387 . S
C327 H353 0.931 1_455 S
C328 C325 1.487 . S
C328 C335 1.399 . S
C328 N366 1.343 1_455 S
C329 C330 1.384 . S
C329 C331 1.384 . S
C329 H354 0.931 . S
C330 C329 1.384 . S
C330 C333 1.382 . S
C331 C329 1.384 . S
C331 C332 1.381 . S
C331 H355 0.930 . S
C332 C331 1.381 . S
C332 C334 1.381 . S
C332 C335 1.487 . S
C333 C330 1.382 . S
C333 C334 1.387 . S
C333 H356 0.930 . S
C334 C332 1.381 . S
C334 C333 1.387 . S
C334 H357 0.931 . S
C335 C328 1.399 . S
C335 C332 1.487 . S
C335 N367 1.343 1_565 S
C336 C337 1.384 . S
C336 C338 1.384 . S
C336 H358 0.931 . S
C337 C336 1.384 . S
C337 C340 1.382 . S
C338 C336 1.384 . S
C338 C339 1.381 . S
C338 H359 0.930 . S
C339 C338 1.381 . S
C339 C341 1.381 . S
C339 C342 1.487 . S
C340 C337 1.382 . S
C340 C341 1.387 . S
C340 H360 0.930 . S
C341 C339 1.381 . S
C341 C340 1.387 . S
C341 H361 0.931 1_655 S
C342 C339 1.487 . S
C342 C349 1.399 . S
C342 N367 1.343 1_655 S
C343 C344 1.384 . S
C343 C345 1.384 . S
C343 H362 0.931 . S
C344 C343 1.384 . S
C344 C347 1.382 . S
C345 C343 1.384 . S
C345 C346 1.381 . S
C345 H363 0.930 . S
C346 C345 1.381 . S
C346 C348 1.381 . S
C346 C349 1.487 . S
C347 C344 1.382 . S
C347 C348 1.387 . S
C347 H364 0.930 . S
C348 C346 1.381 . S
C348 C347 1.387 . S
C348 H365 0.931 . S
C349 C342 1.399 . S
C349 C346 1.487 . S
C349 N366 1.343 1_545 S
H350 C322 0.931 . S
H351 C324 0.930 . S
H352 C326 0.930 . S
H353 C327 0.931 1_655 S
H354 C329 0.931 . S
H355 C331 0.930 . S
H356 C333 0.930 . S
H357 C334 0.931 . S
H358 C336 0.931 . S
H359 C338 0.930 . S
H360 C340 0.930 . S
H361 C341 0.931 1_455 S
H362 C343 0.931 . S
H363 C345 0.930 . S
H364 C347 0.930 . S
H365 C348 0.931 . S
N366 C328 1.343 1_655 S
N366 C349 1.343 1_565 S
N367 C335 1.343 1_545 S
N367 C342 1.343 1_455 S
C368 O369 1.178 . S
C368 O375 1.181 1_554 S
O369 C368 1.178 . S
O370 Zn371 1.899 . S
O370 C378 1.284 . S
Zn371 O370 1.899 . S
Zn371 O372 2.032 1_554 S
Zn371 O375 2.073 1_554 S
Zn371 O380 1.977 . S
O372 Zn371 2.032 1_556 S
O372 C376 1.278 . S
C373 O374 1.203 . S
C373 O380 1.267 . S
O374 C373 1.203 . S
O375 C368 1.181 1_556 S
O375 Zn371 2.073 1_556 S
C376 O372 1.278 . S
C376 O377 1.211 . S
O377 C376 1.211 . S
C378 O370 1.284 . S
C378 O379 1.273 . S
O379 C378 1.273 . S
O380 Zn371 1.977 . S
O380 C373 1.267 . S
C381 O382 1.160 . S
C381 O388 1.185 . S
O382 C381 1.160 . S
O383 Zn384 1.899 . S
O383 C391 1.284 . S
Zn384 O383 1.899 . S
Zn384 O385 2.032 . S
Zn384 O388 2.086 . S
Zn384 O393 1.977 . S
O385 Zn384 2.032 . S
O385 C389 1.278 . S
C386 O387 1.203 . S
C386 O393 1.267 . S
O387 C386 1.203 . S
O388 C381 1.185 . S
O388 Zn384 2.086 . S
C389 O385 1.278 . S
C389 O390 1.211 . S
O390 C389 1.211 . S
C391 O383 1.284 . S
C391 O392 1.273 . S
O392 C391 1.273 . S
O393 Zn384 1.977 . S
O393 C386 1.267 . S
C394 O395 1.160 . S
C394 O401 1.185 . S
O395 C394 1.160 . S
O396 Zn397 1.899 . S
O396 C404 1.284 . S
Zn397 O396 1.899 . S
Zn397 O398 2.032 . S
Zn397 O401 2.086 . S
Zn397 O406 1.977 . S
O398 Zn397 2.032 . S
O398 C402 1.278 . S
C399 O400 1.203 . S
C399 O406 1.267 . S
O400 C399 1.203 . S
O401 C394 1.185 . S
O401 Zn397 2.086 . S
C402 O398 1.278 . S
C402 O403 1.211 . S
O403 C402 1.211 . S
C404 O396 1.284 . S
C404 O405 1.273 . S
O405 C404 1.273 . S
O406 Zn397 1.977 . S
O406 C399 1.267 . S
C407 O408 1.160 . S
C407 O414 1.185 . S
O408 C407 1.160 . S
O409 Zn410 1.899 . S
O409 C417 1.284 . S
Zn410 O409 1.899 . S
Zn410 O411 2.032 . S
Zn410 O414 2.086 . S
Zn410 O419 1.977 . S
O411 Zn410 2.032 . S
O411 C415 1.278 . S
C412 O413 1.203 . S
C412 O419 1.267 . S
O413 C412 1.203 . S
O414 C407 1.185 . S
O414 Zn410 2.086 . S
C415 O411 1.278 . S
C415 O416 1.211 . S
O416 C415 1.211 . S
C417 O409 1.284 . S
C417 O418 1.273 . S
O418 C417 1.273 . S
O419 Zn410 1.977 . S
O419 C412 1.267 . S
C420 O421 1.160 . S
C420 O427 1.185 . S
O421 C420 1.160 . S
O422 Zn423 1.899 . S
O422 C430 1.284 . S
Zn423 O422 1.899 . S
Zn423 O424 2.032 . S
Zn423 O427 2.086 . S
Zn423 O432 1.977 . S
O424 Zn423 2.032 . S
O424 C428 1.278 . S
C425 O426 1.203 . S
C425 O432 1.267 . S
O426 C425 1.203 . S
O427 C420 1.185 . S
O427 Zn423 2.086 . S
C428 O424 1.278 . S
C428 O429 1.211 . S
O429 C428 1.211 . S
C430 O422 1.284 . S
C430 O431 1.273 . S
O431 C430 1.273 . S
O432 Zn423 1.977 . S
O432 C425 1.267 . S
C433 O434 1.160 . S
C433 O440 1.185 . S
O434 C433 1.160 . S
O435 Zn436 1.899 . S
O435 C443 1.284 . S
Zn436 O435 1.899 . S
Zn436 O437 2.032 . S
Zn436 O440 2.086 . S
Zn436 O445 1.977 . S
O437 Zn436 2.032 . S
O437 C441 1.278 . S
C438 O439 1.203 . S
C438 O445 1.267 . S
O439 C438 1.203 . S
O440 C433 1.185 . S
O440 Zn436 2.086 . S
C441 O437 1.278 . S
C441 O442 1.211 . S
O442 C441 1.211 . S
C443 O435 1.284 . S
C443 O444 1.273 . S
O444 C443 1.273 . S
O445 Zn436 1.977 . S
O445 C438 1.267 . S
C446 O447 1.178 . S
C446 O453 1.181 1_554 S
O447 C446 1.178 . S
O448 Zn449 1.899 . S
O448 C456 1.284 . S
Zn449 O448 1.899 . S
Zn449 O450 2.032 1_554 S
Zn449 O453 2.073 1_554 S
Zn449 O458 1.977 . S
O450 Zn449 2.032 1_556 S
O450 C454 1.278 . S
C451 O452 1.203 . S
C451 O458 1.267 . S
O452 C451 1.203 . S
O453 C446 1.181 1_556 S
O453 Zn449 2.073 1_556 S
C454 O450 1.278 . S
C454 O455 1.211 . S
O455 C454 1.211 . S
C456 O448 1.284 . S
C456 O457 1.273 . S
O457 C456 1.273 . S
O458 Zn449 1.977 . S
O458 C451 1.267 . S
C459 O460 1.160 . S
C459 O466 1.185 . S
O460 C459 1.160 . S
O461 Zn462 1.899 . S
O461 C469 1.284 . S
Zn462 O461 1.899 . S
Zn462 O463 2.032 . S
Zn462 O466 2.086 . S
Zn462 O471 1.977 . S
O463 Zn462 2.032 . S
O463 C467 1.278 . S
C464 O465 1.203 . S
C464 O471 1.267 . S
O465 C464 1.203 . S
O466 C459 1.185 . S
O466 Zn462 2.086 . S
C467 O463 1.278 . S
C467 O468 1.211 . S
O468 C467 1.211 . S
C469 O461 1.284 . S
C469 O470 1.273 . S
O470 C469 1.273 . S
O471 Zn462 1.977 . S
O471 C464 1.267 . S
H472 C484 0.930 . S
H473 C486 0.930 . S
H474 C487 0.930 . S
H475 C491 0.959 . S
H476 C491 0.959 . S
H477 C491 0.961 . S
H478 C492 0.960 . S
H479 C492 0.961 . S
H480 C492 0.959 . S
H481 C495 0.929 . S
H482 C496 0.931 . S
H483 C498 0.930 . S
C484 H472 0.930 . S
C484 C485 1.399 . S
C484 C489 1.399 . S
C485 C484 1.399 . S
C485 C486 1.376 . S
C486 H473 0.930 . S
C486 C485 1.376 . S
C486 C487 1.388 . S
C487 H474 0.930 . S
C487 C486 1.388 . S
C487 C488 1.390 . S
C488 C487 1.390 . S
C488 C489 1.394 . S
C488 C494 1.465 . S
C489 C484 1.399 . S
C489 C488 1.394 . S
C489 C490 1.516 . S
C490 C489 1.516 . S
C490 C491 1.502 . S
C490 C492 1.561 . S
C490 C493 1.526 . S
C491 H475 0.959 . S
C491 H476 0.959 . S
C491 H477 0.961 . S
C491 C490 1.502 . S
C492 H478 0.960 . S
C492 H479 0.961 . S
C492 H480 0.959 . S
C492 C490 1.561 . S
C493 C490 1.526 . S
C493 C494 1.396 . S
C493 C498 1.390 . S
C494 C488 1.465 . S
C494 C493 1.396 . S
C494 C495 1.399 . S
C495 H481 0.929 . S
C495 C494 1.399 . S
C495 C496 1.385 . S
C496 H482 0.931 . S
C496 C495 1.385 . S
C496 C497 1.389 . S
C497 C496 1.389 . S
C497 C498 1.387 . S
C498 H483 0.930 . S
C498 C493 1.390 . S
C498 C497 1.387 . S
H499 C511 0.930 . S
H500 C513 0.930 . S
H501 C514 0.930 . S
H502 C518 0.959 . S
H503 C518 0.959 . S
H504 C518 0.961 . S
H505 C519 0.960 . S
H506 C519 0.961 . S
H507 C519 0.959 . S
H508 C522 0.929 . S
H509 C523 0.931 . S
H510 C525 0.930 . S
C511 H499 0.930 . S
C511 C512 1.399 . S
C511 C516 1.399 . S
C512 C511 1.399 . S
C512 C513 1.376 . S
C513 H500 0.930 . S
C513 C512 1.376 . S
C513 C514 1.388 . S
C514 H501 0.930 . S
C514 C513 1.388 . S
C514 C515 1.390 . S
C515 C514 1.390 . S
C515 C516 1.394 . S
C515 C521 1.465 . S
C516 C511 1.399 . S
C516 C515 1.394 . S
C516 C517 1.516 . S
C517 C516 1.516 . S
C517 C518 1.502 . S
C517 C519 1.561 . S
C517 C520 1.526 . S
C518 H502 0.959 . S
C518 H503 0.959 . S
C518 H504 0.961 . S
C518 C517 1.502 . S
C519 H505 0.960 . S
C519 H506 0.961 . S
C519 H507 0.959 . S
C519 C517 1.561 . S
C520 C517 1.526 . S
C520 C521 1.396 . S
C520 C525 1.390 . S
C521 C515 1.465 . S
C521 C520 1.396 . S
C521 C522 1.399 . S
C522 H508 0.929 . S
C522 C521 1.399 . S
C522 C523 1.385 . S
C523 H509 0.931 . S
C523 C522 1.385 . S
C523 C524 1.389 . S
C524 C523 1.389 . S
C524 C525 1.387 . S
C525 H510 0.930 . S
C525 C520 1.390 . S
C525 C524 1.387 . S
H526 C538 0.930 . S
H527 C540 0.930 . S
H528 C541 0.930 . S
H529 C545 0.959 . S
H530 C545 0.959 . S
H531 C545 0.961 . S
H532 C546 0.960 . S
H533 C546 0.961 . S
H534 C546 0.959 . S
H535 C549 0.929 . S
H536 C550 0.931 . S
H537 C552 0.930 . S
C538 H526 0.930 . S
C538 C539 1.399 . S
C538 C543 1.399 . S
C539 C538 1.399 . S
C539 C540 1.376 . S
C540 H527 0.930 . S
C540 C539 1.376 . S
C540 C541 1.388 . S
C541 H528 0.930 . S
C541 C540 1.388 . S
C541 C542 1.390 . S
C542 C541 1.390 . S
C542 C543 1.394 . S
C542 C548 1.465 . S
C543 C538 1.399 . S
C543 C542 1.394 . S
C543 C544 1.516 . S
C544 C543 1.516 . S
C544 C545 1.502 . S
C544 C546 1.561 . S
C544 C547 1.526 . S
C545 H529 0.959 . S
C545 H530 0.959 . S
C545 H531 0.961 . S
C545 C544 1.502 . S
C546 H532 0.960 . S
C546 H533 0.961 . S
C546 H534 0.959 . S
C546 C544 1.561 . S
C547 C544 1.526 . S
C547 C548 1.396 . S
C547 C552 1.390 . S
C548 C542 1.465 . S
C548 C547 1.396 . S
C548 C549 1.399 . S
C549 H535 0.929 . S
C549 C548 1.399 . S
C549 C550 1.385 . S
C550 H536 0.931 . S
C550 C549 1.385 . S
C550 C551 1.389 . S
C551 C550 1.389 . S
C551 C552 1.387 . S
C552 H537 0.930 . S
C552 C547 1.390 . S
C552 C551 1.387 . S
H553 C565 0.930 . S
H554 C567 0.930 . S
H555 C568 0.930 1_556 S
H556 C572 0.959 . S
H557 C572 0.959 . S
H558 C572 0.961 . S
H559 C573 0.960 . S
H560 C573 0.961 . S
H561 C573 0.959 . S
H562 C576 0.929 . S
H563 C577 0.931 . S
H564 C579 0.930 . S
C565 H553 0.930 . S
C565 C566 1.399 . S
C565 C570 1.399 . S
C566 C565 1.399 . S
C566 C567 1.376 . S
C567 H554 0.930 . S
C567 C566 1.376 . S
C567 C568 1.388 . S
C568 H555 0.930 1_554 S
C568 C567 1.388 . S
C568 C569 1.390 . S
C569 C568 1.390 . S
C569 C570 1.394 . S
C569 C575 1.465 . S
C570 C565 1.399 . S
C570 C569 1.394 . S
C570 C571 1.516 . S
C571 C570 1.516 . S
C571 C572 1.502 . S
C571 C573 1.561 . S
C571 C574 1.526 . S
C572 H556 0.959 . S
C572 H557 0.959 . S
C572 H558 0.961 . S
C572 C571 1.502 . S
C573 H559 0.960 . S
C573 H560 0.961 . S
C573 H561 0.959 . S
C573 C571 1.561 . S
C574 C571 1.526 . S
C574 C575 1.396 . S
C574 C579 1.390 . S
C575 C569 1.465 . S
C575 C574 1.396 . S
C575 C576 1.399 1_554 S
C576 H562 0.929 . S
C576 C575 1.399 1_556 S
C576 C577 1.385 . S
C577 H563 0.931 . S
C577 C576 1.385 . S
C577 C578 1.389 1_556 S
C578 C577 1.389 1_554 S
C578 C579 1.387 . S
C579 H564 0.930 . S
C579 C574 1.390 . S
C579 C578 1.387 . S
H580 C592 0.930 . S
H581 C594 0.930 . S
H582 C595 0.930 . S
H583 C599 0.959 . S
H584 C599 0.959 . S
H585 C599 0.961 . S
H586 C600 0.960 . S
H587 C600 0.961 . S
H588 C600 0.959 . S
H589 C603 0.929 . S
H590 C604 0.931 . S
H591 C606 0.930 . S
C592 H580 0.930 . S
C592 C593 1.399 . S
C592 C597 1.399 . S
C593 C592 1.399 . S
C593 C594 1.376 . S
C594 H581 0.930 . S
C594 C593 1.376 . S
C594 C595 1.388 . S
C595 H582 0.930 . S
C595 C594 1.388 . S
C595 C596 1.390 . S
C596 C595 1.390 . S
C596 C597 1.394 . S
C596 C602 1.465 . S
C597 C592 1.399 . S
C597 C596 1.394 . S
C597 C598 1.516 1_556 S
C598 C597 1.516 1_554 S
C598 C599 1.502 . S
C598 C600 1.561 . S
C598 C601 1.526 1_554 S
C599 H583 0.959 . S
C599 H584 0.959 . S
C599 H585 0.961 . S
C599 C598 1.502 . S
C600 H586 0.960 . S
C600 H587 0.961 . S
C600 H588 0.959 . S
C600 C598 1.561 . S
C601 C598 1.526 1_556 S
C601 C602 1.396 . S
C601 C606 1.390 1_556 S
C602 C596 1.465 . S
C602 C601 1.396 . S
C602 C603 1.399 . S
C603 H589 0.929 . S
C603 C602 1.399 . S
C603 C604 1.385 . S
C604 H590 0.931 . S
C604 C603 1.385 . S
C604 C605 1.389 . S
C605 C604 1.389 . S
C605 C606 1.387 1_556 S
C606 H591 0.930 . S
C606 C601 1.390 1_554 S
C606 C605 1.387 1_554 S
H607 C619 0.930 . S
H608 C621 0.930 . S
H609 C622 0.930 . S
H610 C626 0.959 . S
H611 C626 0.959 . S
H612 C626 0.961 . S
H613 C627 0.960 . S
H614 C627 0.961 . S
H615 C627 0.959 . S
H616 C630 0.929 . S
H617 C631 0.931 . S
H618 C633 0.930 . S
C619 H607 0.930 . S
C619 C620 1.399 . S
C619 C624 1.399 . S
C620 C619 1.399 . S
C620 C621 1.376 . S
C621 H608 0.930 . S
C621 C620 1.376 . S
C621 C622 1.388 . S
C622 H609 0.930 . S
C622 C621 1.388 . S
C622 C623 1.390 . S
C623 C622 1.390 . S
C623 C624 1.394 . S
C623 C629 1.465 . S
C624 C619 1.399 . S
C624 C623 1.394 . S
C624 C625 1.516 . S
C625 C624 1.516 . S
C625 C626 1.502 . S
C625 C627 1.561 . S
C625 C628 1.526 . S
C626 H610 0.959 . S
C626 H611 0.959 . S
C626 H612 0.961 . S
C626 C625 1.502 . S
C627 H613 0.960 . S
C627 H614 0.961 . S
C627 H615 0.959 . S
C627 C625 1.561 . S
C628 C625 1.526 . S
C628 C629 1.396 . S
C628 C633 1.390 . S
C629 C623 1.465 . S
C629 C628 1.396 . S
C629 C630 1.399 . S
C630 H616 0.929 . S
C630 C629 1.399 . S
C630 C631 1.385 . S
C631 H617 0.931 . S
C631 C630 1.385 . S
C631 C632 1.389 . S
C632 C631 1.389 . S
C632 C633 1.387 . S
C633 H618 0.930 . S
C633 C628 1.390 . S
C633 C632 1.387 . S
H634 C646 0.930 . S
H635 C648 0.930 . S
H636 C649 0.930 . S
H637 C653 0.959 . S
H638 C653 0.959 . S
H639 C653 0.961 . S
H640 C654 0.960 . S
H641 C654 0.961 . S
H642 C654 0.959 . S
H643 C657 0.929 . S
H644 C658 0.931 . S
H645 C660 0.930 . S
C646 H634 0.930 . S
C646 C647 1.399 . S
C646 C651 1.399 . S
C647 C646 1.399 . S
C647 C648 1.376 . S
C648 H635 0.930 . S
C648 C647 1.376 . S
C648 C649 1.388 . S
C649 H636 0.930 . S
C649 C648 1.388 . S
C649 C650 1.390 . S
C650 C649 1.390 . S
C650 C651 1.394 . S
C650 C656 1.465 . S
C651 C646 1.399 . S
C651 C650 1.394 . S
C651 C652 1.516 . S
C652 C651 1.516 . S
C652 C653 1.502 . S
C652 C654 1.561 . S
C652 C655 1.526 . S
C653 H637 0.959 . S
C653 H638 0.959 . S
C653 H639 0.961 . S
C653 C652 1.502 . S
C654 H640 0.960 . S
C654 H641 0.961 . S
C654 H642 0.959 . S
C654 C652 1.561 . S
C655 C652 1.526 . S
C655 C656 1.396 . S
C655 C660 1.390 . S
C656 C650 1.465 . S
C656 C655 1.396 . S
C656 C657 1.399 . S
C657 H643 0.929 . S
C657 C656 1.399 . S
C657 C658 1.385 . S
C658 H644 0.931 . S
C658 C657 1.385 . S
C658 C659 1.389 . S
C659 C658 1.389 . S
C659 C660 1.387 . S
C660 H645 0.930 . S
C660 C655 1.390 . S
C660 C659 1.387 . S
H661 C673 0.930 . S
H662 C675 0.930 . S
H663 C676 0.930 . S
H664 C680 0.959 . S
H665 C680 0.959 . S
H666 C680 0.961 . S
H667 C681 0.960 . S
H668 C681 0.961 . S
H669 C681 0.959 . S
H670 C684 0.929 . S
H671 C685 0.931 . S
H672 C687 0.930 . S
C673 H661 0.930 . S
C673 C674 1.399 . S
C673 C678 1.399 . S
C674 C673 1.399 . S
C674 C675 1.376 . S
C675 H662 0.930 . S
C675 C674 1.376 . S
C675 C676 1.388 . S
C676 H663 0.930 . S
C676 C675 1.388 . S
C676 C677 1.390 . S
C677 C676 1.390 . S
C677 C678 1.394 . S
C677 C683 1.465 . S
C678 C673 1.399 . S
C678 C677 1.394 . S
C678 C679 1.516 . S
C679 C678 1.516 . S
C679 C680 1.502 . S
C679 C681 1.561 . S
C679 C682 1.526 . S
C680 H664 0.959 . S
C680 H665 0.959 . S
C680 H666 0.961 . S
C680 C679 1.502 . S
C681 H667 0.960 . S
C681 H668 0.961 . S
C681 H669 0.959 . S
C681 C679 1.561 . S
C682 C679 1.526 . S
C682 C683 1.396 . S
C682 C687 1.390 . S
C683 C677 1.465 . S
C683 C682 1.396 . S
C683 C684 1.399 . S
C684 H670 0.929 . S
C684 C683 1.399 . S
C684 C685 1.385 . S
C685 H671 0.931 . S
C685 C684 1.385 . S
C685 C686 1.389 . S
C686 C685 1.389 . S
C686 C687 1.387 . S
C687 H672 0.930 . S
C687 C682 1.390 . S
C687 C686 1.387 . S
H688 C700 0.930 . S
H689 C702 0.930 . S
H690 C703 0.930 . S
H691 C707 0.959 . S
H692 C707 0.959 . S
H693 C707 0.961 . S
H694 C708 0.960 . S
H695 C708 0.961 . S
H696 C708 0.959 . S
H697 C711 0.929 . S
H698 C712 0.931 . S
H699 C714 0.930 . S
C700 H688 0.930 . S
C700 C701 1.399 . S
C700 C705 1.399 . S
C701 C700 1.399 . S
C701 C702 1.376 . S
C702 H689 0.930 . S
C702 C701 1.376 . S
C702 C703 1.388 . S
C703 H690 0.930 . S
C703 C702 1.388 . S
C703 C704 1.390 . S
C704 C703 1.390 . S
C704 C705 1.394 . S
C704 C710 1.465 . S
C705 C700 1.399 . S
C705 C704 1.394 . S
C705 C706 1.516 . S
C706 C705 1.516 . S
C706 C707 1.502 . S
C706 C708 1.561 . S
C706 C709 1.526 . S
C707 H691 0.959 . S
C707 H692 0.959 . S
C707 H693 0.961 . S
C707 C706 1.502 . S
C708 H694 0.960 . S
C708 H695 0.961 . S
C708 H696 0.959 . S
C708 C706 1.561 . S
C709 C706 1.526 . S
C709 C710 1.396 . S
C709 C714 1.390 . S
C710 C704 1.465 . S
C710 C709 1.396 . S
C710 C711 1.399 . S
C711 H697 0.929 . S
C711 C710 1.399 . S
C711 C712 1.385 . S
C712 H698 0.931 . S
C712 C711 1.385 . S
C712 C713 1.389 . S
C713 C712 1.389 . S
C713 C714 1.387 . S
C714 H699 0.930 . S
C714 C709 1.390 . S
C714 C713 1.387 . S
H715 C727 0.930 . S
H716 C729 0.930 . S
H717 C730 0.930 . S
H718 C734 0.959 . S
H719 C734 0.959 . S
H720 C734 0.961 . S
H721 C735 0.960 . S
H722 C735 0.961 . S
H723 C735 0.959 . S
H724 C738 0.936 . S
H725 C739 0.897 1_556 S
H726 C741 0.930 . S
C727 H715 0.930 . S
C727 C728 1.399 . S
C727 C732 1.399 . S
C728 C727 1.399 . S
C728 C729 1.376 . S
C729 H716 0.930 . S
C729 C728 1.376 . S
C729 C730 1.388 . S
C730 H717 0.930 . S
C730 C729 1.388 . S
C730 C731 1.390 . S
C731 C730 1.390 . S
C731 C732 1.394 . S
C731 C737 1.465 . S
C732 C727 1.399 . S
C732 C731 1.394 . S
C732 C733 1.516 . S
C733 C732 1.516 . S
C733 C734 1.502 . S
C733 C735 1.561 . S
C733 C736 1.526 . S
C734 H718 0.959 . S
C734 H719 0.959 . S
C734 H720 0.961 . S
C734 C733 1.502 . S
C735 H721 0.960 . S
C735 H722 0.961 . S
C735 H723 0.959 . S
C735 C733 1.561 . S
C736 C733 1.526 . S
C736 C737 1.396 . S
C736 C741 1.390 . S
C737 C731 1.465 . S
C737 C736 1.396 . S
C737 C738 1.399 . S
C738 H724 0.936 . S
C738 C737 1.399 . S
C738 C739 1.385 . S
C739 H725 0.897 1_554 S
C739 C738 1.385 . S
C739 C740 1.389 . S
C740 C739 1.389 . S
C740 C741 1.387 . S
C741 H726 0.930 . S
C741 C736 1.390 . S
C741 C740 1.387 . S
H742 C754 0.930 . S
H743 C756 0.930 . S
H744 C757 0.930 . S
H745 C761 0.959 . S
H746 C761 0.959 . S
H747 C761 0.961 . S
H748 C762 0.960 . S
H749 C762 0.961 . S
H750 C762 0.959 . S
H751 C765 0.929 . S
H752 C766 0.931 . S
H753 C768 0.930 . S
C754 H742 0.930 . S
C754 C755 1.399 . S
C754 C759 1.399 . S
C755 C754 1.399 . S
C755 C756 1.376 . S
C756 H743 0.930 . S
C756 C755 1.376 . S
C756 C757 1.388 . S
C757 H744 0.930 . S
C757 C756 1.388 . S
C757 C758 1.390 . S
C758 C757 1.390 . S
C758 C759 1.394 . S
C758 C764 1.465 . S
C759 C754 1.399 . S
C759 C758 1.394 . S
C759 C760 1.516 . S
C760 C759 1.516 . S
C760 C761 1.502 . S
C760 C762 1.561 . S
C760 C763 1.526 . S
C761 H745 0.959 . S
C761 H746 0.959 . S
C761 H747 0.961 . S
C761 C760 1.502 . S
C762 H748 0.960 . S
C762 H749 0.961 . S
C762 H750 0.959 . S
C762 C760 1.561 . S
C763 C760 1.526 . S
C763 C764 1.396 . S
C763 C768 1.390 . S
C764 C758 1.465 . S
C764 C763 1.396 . S
C764 C765 1.399 . S
C765 H751 0.929 . S
C765 C764 1.399 . S
C765 C766 1.385 . S
C766 H752 0.931 . S
C766 C765 1.385 . S
C766 C767 1.389 . S
C767 C766 1.389 . S
C767 C768 1.387 . S
C768 H753 0.930 . S
C768 C763 1.390 . S
C768 C767 1.387 . S
H769 C781 0.930 . S
H770 C783 0.930 . S
H771 C784 0.930 . S
H772 C788 0.959 . S
H773 C788 0.959 . S
H774 C788 0.961 . S
H775 C789 0.960 . S
H776 C789 0.961 . S
H777 C789 0.959 . S
H778 C792 0.929 . S
H779 C793 0.931 . S
H780 C795 0.930 . S
C781 H769 0.930 . S
C781 C782 1.399 . S
C781 C786 1.399 . S
C782 C781 1.399 . S
C782 C783 1.376 . S
C783 H770 0.930 . S
C783 C782 1.376 . S
C783 C784 1.388 . S
C784 H771 0.930 . S
C784 C783 1.388 . S
C784 C785 1.390 . S
C785 C784 1.390 . S
C785 C786 1.394 . S
C785 C791 1.465 . S
C786 C781 1.399 . S
C786 C785 1.394 . S
C786 C787 1.516 . S
C787 C786 1.516 . S
C787 C788 1.502 . S
C787 C789 1.561 . S
C787 C790 1.526 . S
C788 H772 0.959 . S
C788 H773 0.959 . S
C788 H774 0.961 . S
C788 C787 1.502 . S
C789 H775 0.960 . S
C789 H776 0.961 . S
C789 H777 0.959 . S
C789 C787 1.561 . S
C790 C787 1.526 . S
C790 C791 1.396 . S
C790 C795 1.390 . S
C791 C785 1.465 . S
C791 C790 1.396 . S
C791 C792 1.399 . S
C792 H778 0.929 . S
C792 C791 1.399 . S
C792 C793 1.385 . S
C793 H779 0.931 . S
C793 C792 1.385 . S
C793 C794 1.389 . S
C794 C793 1.389 . S
C794 C795 1.387 . S
C795 H780 0.930 . S
C795 C790 1.390 . S
C795 C794 1.387 . S
H796 C808 0.930 . S
H797 C810 0.930 . S
H798 C811 0.930 . S
H799 C815 0.959 . S
H800 C815 0.959 . S
H801 C815 0.961 . S
H802 C816 0.960 . S
H803 C816 0.961 . S
H804 C816 0.959 . S
H805 C819 0.929 . S
H806 C820 0.931 . S
H807 C822 0.930 . S
C808 H796 0.930 . S
C808 C809 1.399 . S
C808 C813 1.399 . S
C809 C808 1.399 . S
C809 C810 1.376 . S
C810 H797 0.930 . S
C810 C809 1.376 . S
C810 C811 1.388 . S
C811 H798 0.930 . S
C811 C810 1.388 . S
C811 C812 1.390 . S
C812 C811 1.390 . S
C812 C813 1.394 . S
C812 C818 1.465 . S
C813 C808 1.399 . S
C813 C812 1.394 . S
C813 C814 1.516 . S
C814 C813 1.516 . S
C814 C815 1.502 . S
C814 C816 1.561 . S
C814 C817 1.526 . S
C815 H799 0.959 . S
C815 H800 0.959 . S
C815 H801 0.961 . S
C815 C814 1.502 . S
C816 H802 0.960 . S
C816 H803 0.961 . S
C816 H804 0.959 . S
C816 C814 1.561 . S
C817 C814 1.526 . S
C817 C818 1.396 . S
C817 C822 1.390 . S
C818 C812 1.465 . S
C818 C817 1.396 . S
C818 C819 1.399 . S
C819 H805 0.929 . S
C819 C818 1.399 . S
C819 C820 1.385 . S
C820 H806 0.931 . S
C820 C819 1.385 . S
C820 C821 1.389 . S
C821 C820 1.389 . S
C821 C822 1.387 . S
C822 H807 0.930 . S
C822 C817 1.390 . S
C822 C821 1.387 . S
H823 C835 0.930 . S
H824 C837 0.930 . S
H825 C838 0.930 . S
H826 C842 0.959 . S
H827 C842 0.959 . S
H828 C842 0.961 . S
H829 C843 0.960 . S
H830 C843 0.961 . S
H831 C843 0.959 . S
H832 C846 0.929 . S
H833 C847 0.931 . S
H834 C849 0.930 . S
C835 H823 0.930 . S
C835 C836 1.399 . S
C835 C840 1.399 . S
C836 C835 1.399 . S
C836 C837 1.376 . S
C837 H824 0.930 . S
C837 C836 1.376 . S
C837 C838 1.388 . S
C838 H825 0.930 . S
C838 C837 1.388 . S
C838 C839 1.390 . S
C839 C838 1.390 . S
C839 C840 1.394 . S
C839 C845 1.465 . S
C840 C835 1.399 . S
C840 C839 1.394 . S
C840 C841 1.516 . S
C841 C840 1.516 . S
C841 C842 1.502 . S
C841 C843 1.561 . S
C841 C844 1.526 . S
C842 H826 0.959 . S
C842 H827 0.959 . S
C842 H828 0.961 . S
C842 C841 1.502 . S
C843 H829 0.960 . S
C843 H830 0.961 . S
C843 H831 0.959 . S
C843 C841 1.561 . S
C844 C841 1.526 . S
C844 C845 1.396 . S
C844 C849 1.390 . S
C845 C839 1.465 . S
C845 C844 1.396 . S
C845 C846 1.399 . S
C846 H832 0.929 . S
C846 C845 1.399 . S
C846 C847 1.385 . S
C847 H833 0.931 . S
C847 C846 1.385 . S
C847 C848 1.389 . S
C848 C847 1.389 . S
C848 C849 1.387 . S
C849 H834 0.930 . S
C849 C844 1.390 . S
C849 C848 1.387 . S
H850 C862 0.930 . S
H851 C864 0.930 . S
H852 C865 0.892 1_554 S
H853 C869 0.959 . S
H854 C869 0.959 . S
H855 C869 0.961 . S
H856 C870 0.960 . S
H857 C870 0.961 . S
H858 C870 0.959 . S
H859 C873 0.929 . S
H860 C874 0.931 . S
H861 C876 0.930 . S
C862 H850 0.930 . S
C862 C863 1.399 . S
C862 C867 1.399 . S
C863 C862 1.399 . S
C863 C864 1.376 . S
C864 H851 0.930 . S
C864 C863 1.376 . S
C864 C865 1.406 . S
C865 H852 0.892 1_556 S
C865 C864 1.406 . S
C865 C866 1.412 . S
C866 C865 1.412 . S
C866 C867 1.394 . S
C866 C872 1.465 . S
C867 C862 1.399 . S
C867 C866 1.394 . S
C867 C868 1.516 . S
C868 C867 1.516 . S
C868 C869 1.502 . S
C868 C870 1.561 . S
C868 C871 1.526 . S
C869 H853 0.959 . S
C869 H854 0.959 . S
C869 H855 0.961 . S
C869 C868 1.502 . S
C870 H856 0.960 . S
C870 H857 0.961 . S
C870 H858 0.959 . S
C870 C868 1.561 . S
C871 C868 1.526 . S
C871 C872 1.396 . S
C871 C876 1.390 . S
C872 C866 1.465 . S
C872 C871 1.396 . S
C872 C873 1.399 1_556 S
C873 H859 0.929 . S
C873 C872 1.399 1_554 S
C873 C874 1.385 . S
C874 H860 0.931 . S
C874 C873 1.385 . S
C874 C875 1.389 1_554 S
C875 C874 1.389 1_556 S
C875 C876 1.387 . S
C876 H861 0.930 . S
C876 C871 1.390 . S
C876 C875 1.387 . S
H877 C889 0.930 . S
H878 C891 0.930 . S
H879 C892 0.930 . S
H880 C896 0.959 . S
H881 C896 0.959 . S
H882 C896 0.961 . S
H883 C897 0.960 . S
H884 C897 0.961 . S
H885 C897 0.959 . S
H886 C900 0.929 . S
H887 C901 0.931 . S
H888 C903 0.930 . S
C889 H877 0.930 . S
C889 C890 1.399 . S
C889 C894 1.399 . S
C890 C889 1.399 . S
C890 C891 1.376 . S
C891 H878 0.930 . S
C891 C890 1.376 . S
C891 C892 1.388 . S
C892 H879 0.930 . S
C892 C891 1.388 . S
C892 C893 1.390 . S
C893 C892 1.390 . S
C893 C894 1.394 . S
C893 C899 1.465 . S
C894 C889 1.399 . S
C894 C893 1.394 . S
C894 C895 1.516 . S
C895 C894 1.516 . S
C895 C896 1.502 . S
C895 C897 1.561 . S
C895 C898 1.526 . S
C896 H880 0.959 . S
C896 H881 0.959 . S
C896 H882 0.961 . S
C896 C895 1.502 . S
C897 H883 0.960 . S
C897 H884 0.961 . S
C897 H885 0.959 . S
C897 C895 1.561 . S
C898 C895 1.526 . S
C898 C899 1.396 . S
C898 C903 1.390 . S
C899 C893 1.465 . S
C899 C898 1.396 . S
C899 C900 1.399 . S
C900 H886 0.929 . S
C900 C899 1.399 . S
C900 C901 1.385 . S
C901 H887 0.931 . S
C901 C900 1.385 . S
C901 C902 1.389 . S
C902 C901 1.389 . S
C902 C903 1.387 . S
C903 H888 0.930 . S
C903 C898 1.390 . S
C903 C902 1.387 . S
H904 C916 0.930 . S
H905 C918 0.930 . S
H906 C919 0.930 . S
H907 C923 0.959 . S
H908 C923 0.959 . S
H909 C923 0.961 . S
H910 C924 0.960 . S
H911 C924 0.961 . S
H912 C924 0.959 . S
H913 C927 0.929 . S
H914 C928 0.931 . S
H915 C930 0.930 . S
C916 H904 0.930 . S
C916 C917 1.399 . S
C916 C921 1.399 . S
C917 C916 1.399 . S
C917 C918 1.376 . S
C918 H905 0.930 . S
C918 C917 1.376 . S
C918 C919 1.388 . S
C919 H906 0.930 . S
C919 C918 1.388 . S
C919 C920 1.390 . S
C920 C919 1.390 . S
C920 C921 1.394 . S
C920 C926 1.465 . S
C921 C916 1.399 . S
C921 C920 1.394 . S
C921 C922 1.516 . S
C922 C921 1.516 . S
C922 C923 1.502 . S
C922 C924 1.561 . S
C922 C925 1.526 . S
C923 H907 0.959 . S
C923 H908 0.959 . S
C923 H909 0.961 . S
C923 C922 1.502 . S
C924 H910 0.960 . S
C924 H911 0.961 . S
C924 H912 0.959 . S
C924 C922 1.561 . S
C925 C922 1.526 . S
C925 C926 1.396 . S
C925 C930 1.390 . S
C926 C920 1.465 . S
C926 C925 1.396 . S
C926 C927 1.399 . S
C927 H913 0.929 . S
C927 C926 1.399 . S
C927 C928 1.385 . S
C928 H914 0.931 . S
C928 C927 1.385 . S
C928 C929 1.389 . S
C929 C928 1.389 . S
C929 C930 1.387 . S
C930 H915 0.930 . S
C930 C925 1.390 . S
C930 C929 1.387 . S
H931 C943 0.930 . S
H932 C945 0.930 . S
H933 C946 0.930 . S
H934 C950 0.959 . S
H935 C950 0.959 . S
H936 C950 0.961 . S
H937 C951 0.960 . S
H938 C951 0.961 . S
H939 C951 0.959 . S
H940 C954 0.929 . S
H941 C955 0.931 . S
H942 C957 0.930 . S
C943 H931 0.930 . S
C943 C944 1.399 . S
C943 C948 1.399 . S
C944 C943 1.399 . S
C944 C945 1.376 . S
C945 H932 0.930 . S
C945 C944 1.376 . S
C945 C946 1.388 . S
C946 H933 0.930 . S
C946 C945 1.388 . S
C946 C947 1.390 . S
C947 C946 1.390 . S
C947 C948 1.394 . S
C947 C953 1.465 . S
C948 C943 1.399 . S
C948 C947 1.394 . S
C948 C949 1.516 . S
C949 C948 1.516 . S
C949 C950 1.502 . S
C949 C951 1.561 . S
C949 C952 1.526 . S
C950 H934 0.959 . S
C950 H935 0.959 . S
C950 H936 0.961 . S
C950 C949 1.502 . S
C951 H937 0.960 . S
C951 H938 0.961 . S
C951 H939 0.959 . S
C951 C949 1.561 . S
C952 C949 1.526 . S
C952 C953 1.396 . S
C952 C957 1.390 . S
C953 C947 1.465 . S
C953 C952 1.396 . S
C953 C954 1.399 . S
C954 H940 0.929 . S
C954 C953 1.399 . S
C954 C955 1.385 . S
C955 H941 0.931 . S
C955 C954 1.385 . S
C955 C956 1.389 . S
C956 C955 1.389 . S
C956 C957 1.387 . S
C957 H942 0.930 . S
C957 C952 1.390 . S
C957 C956 1.387 . S
H958 C970 0.930 . S
H959 C972 0.930 . S
H960 C973 0.930 . S
H961 C977 0.959 . S
H962 C977 0.959 . S
H963 C977 0.961 . S
H964 C978 0.960 . S
H965 C978 0.961 . S
H966 C978 0.959 . S
H967 C981 0.929 . S
H968 C982 0.931 . S
H969 C984 0.930 . S
C970 H958 0.930 . S
C970 C971 1.399 . S
C970 C975 1.399 . S
C971 C970 1.399 . S
C971 C972 1.376 . S
C972 H959 0.930 . S
C972 C971 1.376 . S
C972 C973 1.388 . S
C973 H960 0.930 . S
C973 C972 1.388 . S
C973 C974 1.390 . S
C974 C973 1.390 . S
C974 C975 1.394 . S
C974 C980 1.465 . S
C975 C970 1.399 . S
C975 C974 1.394 . S
C975 C976 1.516 . S
C976 C975 1.516 . S
C976 C977 1.502 . S
C976 C978 1.561 . S
C976 C979 1.526 . S
C977 H961 0.959 . S
C977 H962 0.959 . S
C977 H963 0.961 . S
C977 C976 1.502 . S
C978 H964 0.960 . S
C978 H965 0.961 . S
C978 H966 0.959 . S
C978 C976 1.561 . S
C979 C976 1.526 . S
C979 C980 1.396 . S
C979 C984 1.390 . S
C980 C974 1.465 . S
C980 C979 1.396 . S
C980 C981 1.399 . S
C981 H967 0.929 . S
C981 C980 1.399 . S
C981 C982 1.385 . S
C982 H968 0.931 . S
C982 C981 1.385 . S
C982 C983 1.389 . S
C983 C982 1.389 . S
C983 C984 1.387 . S
C984 H969 0.930 . S
C984 C979 1.390 . S
C984 C983 1.387 . S
H985 C997 0.930 . S
H986 C999 0.930 . S
H987 C1000 0.930 . S
H988 C1004 0.959 . S
H989 C1004 0.959 . S
H990 C1004 0.961 . S
H991 C1005 0.960 . S
H992 C1005 0.961 . S
H993 C1005 0.959 . S
H994 C1008 0.929 . S
H995 C1009 0.931 . S
H996 C1011 0.930 . S
C997 H985 0.930 . S
C997 C998 1.399 . S
C997 C1002 1.399 . S
C998 C997 1.399 . S
C998 C999 1.376 . S
C999 H986 0.930 . S
C999 C998 1.376 . S
C999 C1000 1.388 . S
C1000 H987 0.930 . S
C1000 C999 1.388 . S
C1000 C1001 1.390 . S
C1001 C1000 1.390 . S
C1001 C1002 1.394 . S
C1001 C1007 1.465 . S
C1002 C997 1.399 . S
C1002 C1001 1.394 . S
C1002 C1003 1.516 . S
C1003 C1002 1.516 . S
C1003 C1004 1.502 . S
C1003 C1005 1.561 . S
C1003 C1006 1.526 . S
C1004 H988 0.959 . S
C1004 H989 0.959 . S
C1004 H990 0.961 . S
C1004 C1003 1.502 . S
C1005 H991 0.960 . S
C1005 H992 0.961 . S
C1005 H993 0.959 . S
C1005 C1003 1.561 . S
C1006 C1003 1.526 . S
C1006 C1007 1.396 . S
C1006 C1011 1.390 . S
C1007 C1001 1.465 . S
C1007 C1006 1.396 . S
C1007 C1008 1.399 . S
C1008 H994 0.929 . S
C1008 C1007 1.399 . S
C1008 C1009 1.385 . S
C1009 H995 0.931 . S
C1009 C1008 1.385 . S
C1009 C1010 1.389 . S
C1010 C1009 1.389 . S
C1010 C1011 1.387 . S
C1011 H996 0.930 . S
C1011 C1006 1.390 . S
C1011 C1010 1.387 . S
H1012 C1024 0.930 . S
H1013 C1026 0.930 . S
H1014 C1027 0.930 . S
H1015 C1031 0.959 . S
H1016 C1031 0.959 . S
H1017 C1031 0.961 . S
H1018 C1032 0.960 . S
H1019 C1032 0.961 . S
H1020 C1032 0.959 . S
H1021 C1035 0.929 . S
H1022 C1036 0.931 . S
H1023 C1038 0.930 . S
C1024 H1012 0.930 . S
C1024 C1025 1.399 . S
C1024 C1029 1.399 . S
C1025 C1024 1.399 . S
C1025 C1026 1.376 . S
C1026 H1013 0.930 . S
C1026 C1025 1.376 . S
C1026 C1027 1.388 . S
C1027 H1014 0.930 . S
C1027 C1026 1.388 . S
C1027 C1028 1.390 . S
C1028 C1027 1.390 . S
C1028 C1029 1.394 . S
C1028 C1034 1.465 . S
C1029 C1024 1.399 . S
C1029 C1028 1.394 . S
C1029 C1030 1.516 . S
C1030 C1029 1.516 . S
C1030 C1031 1.502 . S
C1030 C1032 1.561 . S
C1030 C1033 1.526 . S
C1031 H1015 0.959 . S
C1031 H1016 0.959 . S
C1031 H1017 0.961 . S
C1031 C1030 1.502 . S
C1032 H1018 0.960 . S
C1032 H1019 0.961 . S
C1032 H1020 0.959 . S
C1032 C1030 1.561 . S
C1033 C1030 1.526 . S
C1033 C1034 1.396 . S
C1033 C1038 1.390 . S
C1034 C1028 1.465 . S
C1034 C1033 1.396 . S
C1034 C1035 1.399 . S
C1035 H1021 0.929 . S
C1035 C1034 1.399 . S
C1035 C1036 1.385 . S
C1036 H1022 0.931 . S
C1036 C1035 1.385 . S
C1036 C1037 1.389 . S
C1037 C1036 1.389 . S
C1037 C1038 1.387 . S
C1038 H1023 0.930 . S
C1038 C1033 1.390 . S
C1038 C1037 1.387 . S
H1039 C1051 0.930 . S
H1040 C1053 0.930 . S
H1041 C1054 0.930 . S
H1042 C1058 0.959 . S
H1043 C1058 0.959 . S
H1044 C1058 0.961 . S
H1045 C1059 0.960 . S
H1046 C1059 0.961 . S
H1047 C1059 0.959 . S
H1048 C1062 0.929 . S
H1049 C1063 0.931 . S
H1050 C1065 0.930 . S
C1051 H1039 0.930 . S
C1051 C1052 1.399 . S
C1051 C1056 1.399 . S
C1052 C1051 1.399 . S
C1052 C1053 1.376 . S
C1053 H1040 0.930 . S
C1053 C1052 1.376 . S
C1053 C1054 1.388 . S
C1054 H1041 0.930 . S
C1054 C1053 1.388 . S
C1054 C1055 1.390 . S
C1055 C1054 1.390 . S
C1055 C1056 1.394 . S
C1055 C1061 1.465 . S
C1056 C1051 1.399 . S
C1056 C1055 1.394 . S
C1056 C1057 1.516 . S
C1057 C1056 1.516 . S
C1057 C1058 1.502 . S
C1057 C1059 1.561 . S
C1057 C1060 1.526 . S
C1058 H1042 0.959 . S
C1058 H1043 0.959 . S
C1058 H1044 0.961 . S
C1058 C1057 1.502 . S
C1059 H1045 0.960 . S
C1059 H1046 0.961 . S
C1059 H1047 0.959 . S
C1059 C1057 1.561 . S
C1060 C1057 1.526 . S
C1060 C1061 1.396 . S
C1060 C1065 1.390 . S
C1061 C1055 1.465 . S
C1061 C1060 1.396 . S
C1061 C1062 1.399 . S
C1062 H1048 0.929 . S
C1062 C1061 1.399 . S
C1062 C1063 1.385 . S
C1063 H1049 0.931 . S
C1063 C1062 1.385 . S
C1063 C1064 1.389 . S
C1064 C1063 1.389 . S
C1064 C1065 1.387 . S
C1065 H1050 0.930 . S
C1065 C1060 1.390 . S
C1065 C1064 1.387 . S
H1066 C1078 0.930 . S
H1067 C1080 0.930 . S
H1068 C1081 0.930 . S
H1069 C1085 0.959 . S
H1070 C1085 0.959 . S
H1071 C1085 0.961 . S
H1072 C1086 0.960 . S
H1073 C1086 0.961 . S
H1074 C1086 0.959 . S
H1075 C1089 0.929 . S
H1076 C1090 0.931 . S
H1077 C1092 0.930 . S
C1078 H1066 0.930 . S
C1078 C1079 1.399 . S
C1078 C1083 1.399 . S
C1079 C1078 1.399 . S
C1079 C1080 1.376 . S
C1080 H1067 0.930 . S
C1080 C1079 1.376 . S
C1080 C1081 1.388 . S
C1081 H1068 0.930 . S
C1081 C1080 1.388 . S
C1081 C1082 1.390 . S
C1082 C1081 1.390 . S
C1082 C1083 1.394 . S
C1082 C1088 1.465 . S
C1083 C1078 1.399 . S
C1083 C1082 1.394 . S
C1083 C1084 1.516 . S
C1084 C1083 1.516 . S
C1084 C1085 1.502 . S
C1084 C1086 1.561 . S
C1084 C1087 1.526 . S
C1085 H1069 0.959 . S
C1085 H1070 0.959 . S
C1085 H1071 0.961 . S
C1085 C1084 1.502 . S
C1086 H1072 0.960 . S
C1086 H1073 0.961 . S
C1086 H1074 0.959 . S
C1086 C1084 1.561 . S
C1087 C1084 1.526 . S
C1087 C1088 1.396 . S
C1087 C1092 1.390 . S
C1088 C1082 1.465 . S
C1088 C1087 1.396 . S
C1088 C1089 1.399 . S
C1089 H1075 0.929 . S
C1089 C1088 1.399 . S
C1089 C1090 1.385 . S
C1090 H1076 0.931 . S
C1090 C1089 1.385 . S
C1090 C1091 1.389 . S
C1091 C1090 1.389 . S
C1091 C1092 1.387 . S
C1092 H1077 0.930 . S
C1092 C1087 1.390 . S
C1092 C1091 1.387 . S
H1093 C1105 0.930 . S
H1094 C1107 0.930 . S
H1095 C1108 0.930 . S
H1096 C1112 0.959 . S
H1097 C1112 0.959 . S
H1098 C1112 0.961 . S
H1099 C1113 0.960 . S
H1100 C1113 0.961 . S
H1101 C1113 0.959 . S
H1102 C1116 0.929 . S
H1103 C1117 0.931 . S
H1104 C1119 0.930 . S
C1105 H1093 0.930 . S
C1105 C1106 1.399 . S
C1105 C1110 1.399 . S
C1106 C1105 1.399 . S
C1106 C1107 1.376 . S
C1107 H1094 0.930 . S
C1107 C1106 1.376 . S
C1107 C1108 1.388 . S
C1108 H1095 0.930 . S
C1108 C1107 1.388 . S
C1108 C1109 1.390 . S
C1109 C1108 1.390 . S
C1109 C1110 1.394 . S
C1109 C1115 1.465 . S
C1110 C1105 1.399 . S
C1110 C1109 1.394 . S
C1110 C1111 1.516 . S
C1111 C1110 1.516 . S
C1111 C1112 1.502 . S
C1111 C1113 1.561 . S
C1111 C1114 1.526 . S
C1112 H1096 0.959 . S
C1112 H1097 0.959 . S
C1112 H1098 0.961 . S
C1112 C1111 1.502 . S
C1113 H1099 0.960 . S
C1113 H1100 0.961 . S
C1113 H1101 0.959 . S
C1113 C1111 1.561 . S
C1114 C1111 1.526 . S
C1114 C1115 1.396 . S
C1114 C1119 1.390 . S
C1115 C1109 1.465 . S
C1115 C1114 1.396 . S
C1115 C1116 1.399 . S
C1116 H1102 0.929 . S
C1116 C1115 1.399 . S
C1116 C1117 1.385 . S
C1117 H1103 0.931 . S
C1117 C1116 1.385 . S
C1117 C1118 1.389 . S
C1118 C1117 1.389 . S
C1118 C1119 1.387 . S
C1119 H1104 0.930 . S
C1119 C1114 1.390 . S
C1119 C1118 1.387 . S
H1120 C1132 0.930 . S
H1121 C1134 0.930 . S
H1122 C1135 0.930 . S
H1123 C1139 0.959 . S
H1124 C1139 0.959 . S
H1125 C1139 0.961 . S
H1126 C1140 0.960 . S
H1127 C1140 0.961 . S
H1128 C1140 0.959 . S
H1129 C1143 0.929 . S
H1130 C1144 0.931 . S
H1131 C1146 0.930 . S
C1132 H1120 0.930 . S
C1132 C1133 1.399 . S
C1132 C1137 1.399 . S
C1133 C1132 1.399 . S
C1133 C1134 1.376 . S
C1134 H1121 0.930 . S
C1134 C1133 1.376 . S
C1134 C1135 1.388 . S
C1135 H1122 0.930 . S
C1135 C1134 1.388 . S
C1135 C1136 1.390 . S
C1136 C1135 1.390 . S
C1136 C1137 1.394 . S
C1136 C1142 1.465 . S
C1137 C1132 1.399 . S
C1137 C1136 1.394 . S
C1137 C1138 1.516 . S
C1138 C1137 1.516 . S
C1138 C1139 1.502 . S
C1138 C1140 1.561 . S
C1138 C1141 1.526 . S
C1139 H1123 0.959 . S
C1139 H1124 0.959 . S
C1139 H1125 0.961 . S
C1139 C1138 1.502 . S
C1140 H1126 0.960 . S
C1140 H1127 0.961 . S
C1140 H1128 0.959 . S
C1140 C1138 1.561 . S
C1141 C1138 1.526 . S
C1141 C1142 1.396 . S
C1141 C1146 1.390 . S
C1142 C1136 1.465 . S
C1142 C1141 1.396 . S
C1142 C1143 1.399 . S
C1143 H1129 0.929 . S
C1143 C1142 1.399 . S
C1143 C1144 1.385 . S
C1144 H1130 0.931 . S
C1144 C1143 1.385 . S
C1144 C1145 1.389 . S
C1145 C1144 1.389 . S
C1145 C1146 1.387 . S
C1146 H1131 0.930 . S
C1146 C1141 1.390 . S
C1146 C1145 1.387 . S
H1147 C1159 0.930 . S
H1148 C1161 0.930 . S
H1149 C1162 0.930 . S
H1150 C1166 0.959 . S
H1151 C1166 0.959 . S
H1152 C1166 0.961 . S
H1153 C1167 0.960 . S
H1154 C1167 0.961 . S
H1155 C1167 0.959 . S
H1156 C1170 0.929 . S
H1157 C1171 0.931 . S
H1158 C1173 0.930 . S
C1159 H1147 0.930 . S
C1159 C1160 1.399 . S
C1159 C1164 1.399 . S
C1160 C1159 1.399 . S
C1160 C1161 1.376 . S
C1161 H1148 0.930 . S
C1161 C1160 1.376 . S
C1161 C1162 1.388 . S
C1162 H1149 0.930 . S
C1162 C1161 1.388 . S
C1162 C1163 1.390 . S
C1163 C1162 1.390 . S
C1163 C1164 1.394 . S
C1163 C1169 1.465 . S
C1164 C1159 1.399 . S
C1164 C1163 1.394 . S
C1164 C1165 1.516 . S
C1165 C1164 1.516 . S
C1165 C1166 1.502 . S
C1165 C1167 1.561 . S
C1165 C1168 1.526 . S
C1166 H1150 0.959 . S
C1166 H1151 0.959 . S
C1166 H1152 0.961 . S
C1166 C1165 1.502 . S
C1167 H1153 0.960 . S
C1167 H1154 0.961 . S
C1167 H1155 0.959 . S
C1167 C1165 1.561 . S
C1168 C1165 1.526 . S
C1168 C1169 1.396 . S
C1168 C1173 1.390 . S
C1169 C1163 1.465 . S
C1169 C1168 1.396 . S
C1169 C1170 1.399 . S
C1170 H1156 0.929 . S
C1170 C1169 1.399 . S
C1170 C1171 1.385 . S
C1171 H1157 0.931 . S
C1171 C1170 1.385 . S
C1171 C1172 1.389 . S
C1172 C1171 1.389 . S
C1172 C1173 1.387 . S
C1173 H1158 0.930 . S
C1173 C1168 1.390 . S
C1173 C1172 1.387 . S
H1174 C1186 0.930 . S
H1175 C1188 0.930 . S
H1176 C1189 0.930 . S
H1177 C1193 0.959 . S
H1178 C1193 0.959 . S
H1179 C1193 0.961 . S
H1180 C1194 0.960 . S
H1181 C1194 0.961 . S
H1182 C1194 0.959 . S
H1183 C1197 0.929 . S
H1184 C1198 0.931 . S
H1185 C1200 0.930 . S
C1186 H1174 0.930 . S
C1186 C1187 1.399 . S
C1186 C1191 1.399 . S
C1187 C1186 1.399 . S
C1187 C1188 1.376 . S
C1188 H1175 0.930 . S
C1188 C1187 1.376 . S
C1188 C1189 1.388 . S
C1189 H1176 0.930 . S
C1189 C1188 1.388 . S
C1189 C1190 1.390 . S
C1190 C1189 1.390 . S
C1190 C1191 1.394 . S
C1190 C1196 1.465 . S
C1191 C1186 1.399 . S
C1191 C1190 1.394 . S
C1191 C1192 1.516 . S
C1192 C1191 1.516 . S
C1192 C1193 1.502 . S
C1192 C1194 1.561 . S
C1192 C1195 1.526 . S
C1193 H1177 0.959 . S
C1193 H1178 0.959 . S
C1193 H1179 0.961 . S
C1193 C1192 1.502 . S
C1194 H1180 0.960 . S
C1194 H1181 0.961 . S
C1194 H1182 0.959 . S
C1194 C1192 1.561 . S
C1195 C1192 1.526 . S
C1195 C1196 1.396 . S
C1195 C1200 1.390 . S
C1196 C1190 1.465 . S
C1196 C1195 1.396 . S
C1196 C1197 1.399 . S
C1197 H1183 0.929 . S
C1197 C1196 1.399 . S
C1197 C1198 1.385 . S
C1198 H1184 0.931 . S
C1198 C1197 1.385 . S
C1198 C1199 1.389 . S
C1199 C1198 1.389 . S
C1199 C1200 1.387 . S
C1200 H1185 0.930 . S
C1200 C1195 1.390 . S
C1200 C1199 1.387 . S
H1201 C1213 0.930 . S
H1202 C1215 0.930 . S
H1203 C1216 0.930 . S
H1204 C1220 0.959 . S
H1205 C1220 0.959 . S
H1206 C1220 0.961 . S
H1207 C1221 0.960 . S
H1208 C1221 0.961 . S
H1209 C1221 0.959 . S
H1210 C1224 0.929 . S
H1211 C1225 0.931 . S
H1212 C1227 0.930 . S
C1213 H1201 0.930 . S
C1213 C1214 1.399 . S
C1213 C1218 1.399 . S
C1214 C1213 1.399 . S
C1214 C1215 1.376 . S
C1215 H1202 0.930 . S
C1215 C1214 1.376 . S
C1215 C1216 1.388 . S
C1216 H1203 0.930 . S
C1216 C1215 1.388 . S
C1216 C1217 1.390 . S
C1217 C1216 1.390 . S
C1217 C1218 1.394 . S
C1217 C1223 1.465 . S
C1218 C1213 1.399 . S
C1218 C1217 1.394 . S
C1218 C1219 1.516 . S
C1219 C1218 1.516 . S
C1219 C1220 1.502 . S
C1219 C1221 1.561 . S
C1219 C1222 1.526 . S
C1220 H1204 0.959 . S
C1220 H1205 0.959 . S
C1220 H1206 0.961 . S
C1220 C1219 1.502 . S
C1221 H1207 0.960 . S
C1221 H1208 0.961 . S
C1221 H1209 0.959 . S
C1221 C1219 1.561 . S
C1222 C1219 1.526 . S
C1222 C1223 1.396 . S
C1222 C1227 1.390 . S
C1223 C1217 1.465 . S
C1223 C1222 1.396 . S
C1223 C1224 1.399 . S
C1224 H1210 0.929 . S
C1224 C1223 1.399 . S
C1224 C1225 1.385 . S
C1225 H1211 0.931 . S
C1225 C1224 1.385 . S
C1225 C1226 1.389 . S
C1226 C1225 1.389 . S
C1226 C1227 1.387 . S
C1227 H1212 0.930 . S
C1227 C1222 1.390 . S
C1227 C1226 1.387 . S
H1228 C1240 0.930 . S
H1229 C1242 0.930 . S
H1230 C1243 0.930 . S
H1231 C1247 0.959 . S
H1232 C1247 0.959 . S
H1233 C1247 0.961 . S
H1234 C1248 0.960 . S
H1235 C1248 0.961 . S
H1236 C1248 0.959 . S
H1237 C1251 0.929 . S
H1238 C1252 0.931 . S
H1239 C1254 0.930 . S
C1240 H1228 0.930 . S
C1240 C1241 1.399 . S
C1240 C1245 1.399 . S
C1241 C1240 1.399 . S
C1241 C1242 1.376 . S
C1242 H1229 0.930 . S
C1242 C1241 1.376 . S
C1242 C1243 1.388 . S
C1243 H1230 0.930 . S
C1243 C1242 1.388 . S
C1243 C1244 1.390 . S
C1244 C1243 1.390 . S
C1244 C1245 1.394 . S
C1244 C1250 1.465 . S
C1245 C1240 1.399 . S
C1245 C1244 1.394 . S
C1245 C1246 1.516 . S
C1246 C1245 1.516 . S
C1246 C1247 1.502 . S
C1246 C1248 1.561 . S
C1246 C1249 1.526 . S
C1247 H1231 0.959 . S
C1247 H1232 0.959 . S
C1247 H1233 0.961 . S
C1247 C1246 1.502 . S
C1248 H1234 0.960 . S
C1248 H1235 0.961 . S
C1248 H1236 0.959 . S
C1248 C1246 1.561 . S
C1249 C1246 1.526 . S
C1249 C1250 1.396 . S
C1249 C1254 1.390 . S
C1250 C1244 1.465 . S
C1250 C1249 1.396 . S
C1250 C1251 1.399 . S
C1251 H1237 0.929 . S
C1251 C1250 1.399 . S
C1251 C1252 1.385 . S
C1252 H1238 0.931 . S
C1252 C1251 1.385 . S
C1252 C1253 1.389 . S
C1253 C1252 1.389 . S
C1253 C1254 1.387 . S
C1254 H1239 0.930 . S
C1254 C1249 1.390 . S
C1254 C1253 1.387 . S
H1255 C1267 0.930 . S
H1256 C1269 0.930 . S
H1257 C1270 0.930 . S
H1258 C1274 0.959 . S
H1259 C1274 0.959 . S
H1260 C1274 0.961 . S
H1261 C1275 0.960 . S
H1262 C1275 0.961 . S
H1263 C1275 0.959 . S
H1264 C1278 0.929 . S
H1265 C1279 0.931 . S
H1266 C1281 0.930 . S
C1267 H1255 0.930 . S
C1267 C1268 1.399 . S
C1267 C1272 1.399 . S
C1268 C1267 1.399 . S
C1268 C1269 1.376 . S
C1269 H1256 0.930 . S
C1269 C1268 1.376 . S
C1269 C1270 1.388 . S
C1270 H1257 0.930 . S
C1270 C1269 1.388 . S
C1270 C1271 1.390 . S
C1271 C1270 1.390 . S
C1271 C1272 1.394 . S
C1271 C1277 1.465 . S
C1272 C1267 1.399 . S
C1272 C1271 1.394 . S
C1272 C1273 1.516 . S
C1273 C1272 1.516 . S
C1273 C1274 1.502 . S
C1273 C1275 1.561 . S
C1273 C1276 1.526 . S
C1274 H1258 0.959 . S
C1274 H1259 0.959 . S
C1274 H1260 0.961 . S
C1274 C1273 1.502 . S
C1275 H1261 0.960 . S
C1275 H1262 0.961 . S
C1275 H1263 0.959 . S
C1275 C1273 1.561 . S
C1276 C1273 1.526 . S
C1276 C1277 1.396 . S
C1276 C1281 1.390 . S
C1277 C1271 1.465 . S
C1277 C1276 1.396 . S
C1277 C1278 1.399 . S
C1278 H1264 0.929 . S
C1278 C1277 1.399 . S
C1278 C1279 1.385 . S
C1279 H1265 0.931 . S
C1279 C1278 1.385 . S
C1279 C1280 1.389 . S
C1280 C1279 1.389 . S
C1280 C1281 1.387 . S
C1281 H1266 0.930 . S
C1281 C1276 1.390 . S
C1281 C1280 1.387 . S
H1282 C1294 0.930 . S
H1283 C1296 0.930 . S
H1284 C1297 0.930 . S
H1285 C1301 0.959 . S
H1286 C1301 0.959 . S
H1287 C1301 0.961 . S
H1288 C1302 0.960 . S
H1289 C1302 0.961 . S
H1290 C1302 0.959 . S
H1291 C1305 0.929 . S
H1292 C1306 0.931 . S
H1293 C1308 0.930 . S
C1294 H1282 0.930 . S
C1294 C1295 1.399 . S
C1294 C1299 1.399 . S
C1295 C1294 1.399 . S
C1295 C1296 1.376 . S
C1296 H1283 0.930 . S
C1296 C1295 1.376 . S
C1296 C1297 1.388 . S
C1297 H1284 0.930 . S
C1297 C1296 1.388 . S
C1297 C1298 1.390 . S
C1298 C1297 1.390 . S
C1298 C1299 1.394 . S
C1298 C1304 1.465 . S
C1299 C1294 1.399 . S
C1299 C1298 1.394 . S
C1299 C1300 1.516 . S
C1300 C1299 1.516 . S
C1300 C1301 1.502 . S
C1300 C1302 1.561 . S
C1300 C1303 1.526 . S
C1301 H1285 0.959 . S
C1301 H1286 0.959 . S
C1301 H1287 0.961 . S
C1301 C1300 1.502 . S
C1302 H1288 0.960 . S
C1302 H1289 0.961 . S
C1302 H1290 0.959 . S
C1302 C1300 1.561 . S
C1303 C1300 1.526 . S
C1303 C1304 1.396 . S
C1303 C1308 1.390 . S
C1304 C1298 1.465 . S
C1304 C1303 1.396 . S
C1304 C1305 1.399 . S
C1305 H1291 0.929 . S
C1305 C1304 1.399 . S
C1305 C1306 1.385 . S
C1306 H1292 0.931 . S
C1306 C1305 1.385 . S
C1306 C1307 1.389 . S
C1307 C1306 1.389 . S
C1307 C1308 1.387 . S
C1308 H1293 0.930 . S
C1308 C1303 1.390 . S
C1308 C1307 1.387 . S
H1309 C1321 0.930 . S
H1310 C1323 0.930 . S
H1311 C1324 0.930 . S
H1312 C1328 0.959 . S
H1313 C1328 0.959 . S
H1314 C1328 0.961 . S
H1315 C1329 0.960 . S
H1316 C1329 0.961 . S
H1317 C1329 0.959 . S
H1318 C1332 0.929 . S
H1319 C1333 0.931 . S
H1320 C1335 0.930 . S
C1321 H1309 0.930 . S
C1321 C1322 1.399 . S
C1321 C1326 1.399 . S
C1322 C1321 1.399 . S
C1322 C1323 1.376 . S
C1323 H1310 0.930 . S
C1323 C1322 1.376 . S
C1323 C1324 1.388 . S
C1324 H1311 0.930 . S
C1324 C1323 1.388 . S
C1324 C1325 1.390 . S
C1325 C1324 1.390 . S
C1325 C1326 1.394 . S
C1325 C1331 1.465 . S
C1326 C1321 1.399 . S
C1326 C1325 1.394 . S
C1326 C1327 1.516 . S
C1327 C1326 1.516 . S
C1327 C1328 1.502 . S
C1327 C1329 1.561 . S
C1327 C1330 1.526 . S
C1328 H1312 0.959 . S
C1328 H1313 0.959 . S
C1328 H1314 0.961 . S
C1328 C1327 1.502 . S
C1329 H1315 0.960 . S
C1329 H1316 0.961 . S
C1329 H1317 0.959 . S
C1329 C1327 1.561 . S
C1330 C1327 1.526 . S
C1330 C1331 1.396 . S
C1330 C1335 1.390 . S
C1331 C1325 1.465 . S
C1331 C1330 1.396 . S
C1331 C1332 1.399 . S
C1332 H1318 0.929 . S
C1332 C1331 1.399 . S
C1332 C1333 1.385 . S
C1333 H1319 0.931 . S
C1333 C1332 1.385 . S
C1333 C1334 1.389 . S
C1334 C1333 1.389 . S
C1334 C1335 1.387 . S
C1335 H1320 0.930 . S
C1335 C1330 1.390 . S
C1335 C1334 1.387 . S
C497 C381 1.307 . S
C485 C8 1.317 . S
C524 C399 1.331 . S
C512 C61 1.366 . S
C551 C407 1.293 . S
C539 C107 1.374 . S
C566 C139 1.374 . S
C578 C373 1.317 . S
C593 C192 1.312 . S
C605 C368 1.296 1_556 S
C620 C238 1.373 . S
C632 C386 1.314 . S
C659 C394 1.356 . S
C647 C284 1.319 . S
C686 C412 1.248 . S
C674 C330 1.318 . S
C701 C100 1.345 . S
C713 C433 1.335 . S
C740 C451 1.265 . S
C728 C160 1.365 . S
C755 C15 1.376 . S
C767 C459 1.286 . S
C794 C425 1.252 . S
C782 C54 1.316 . S
C809 C291 1.312 . S
C821 C420 1.307 . S
C836 C337 1.370 . S
C848 C438 1.325 . S
C875 C446 1.282 1_556 S
C863 C199 1.376 . S
C890 C245 1.334 . S
C902 C464 1.236 . S
C929 C402 1.498 . S
C917 C1 1.493 . S
C956 C417 1.440 . S
C944 C68 1.461 . S
C971 C114 1.490 . S
C983 C376 1.496 . S
C998 C146 1.494 . S
C1010 C391 1.480 . S
C1025 C185 1.496 . S
C1037 C415 1.497 . S
C1064 C378 1.445 . S
C1052 C231 1.502 . S
C1091 C389 1.486 . S
C1079 C277 1.480 . S
C1118 C404 1.456 . S
C1106 C323 1.465 . S
C1145 C454 1.485 . S
C1133 C93 1.465 . S
C1172 C469 1.471 . S
C1160 C153 1.488 . S
C1187 C22 1.451 . S
C1199 C428 1.481 . S
C1226 C443 1.453 . S
C1214 C47 1.504 . S
C1253 C467 1.484 . S
C1241 C298 1.456 . S
C1268 C344 1.460 . S
C1280 C430 1.444 . S
C1307 C441 1.498 . S
C1295 C206 1.499 . S
C1334 C456 1.471 . S
C1322 C252 1.491 . S
