# Generated by pormake.
# Topology sqc, (4,8)-cn, num edge types: 1
# Building blocks:
#     Node 0, Type 0, BuildingBlock: AZAVOO_clean_linker_0, # of connection points: 4
#     Node 1, Type 0, BuildingBlock: AZAVOO_clean_linker_0, # of connection points: 4
#     Node 2, Type 0, BuildingBlock: AZAVOO_clean_linker_0, # of connection points: 4
#     Node 3, Type 0, BuildingBlock: AZAVOO_clean_linker_0, # of connection points: 4
#     Node 4, Type 0, BuildingBlock: AZAVOO_clean_linker_0, # of connection points: 4
#     Node 5, Type 0, BuildingBlock: AZAVOO_clean_linker_0, # of connection points: 4
#     Node 6, Type 0, BuildingBlock: AZAVOO_clean_linker_0, # of connection points: 4
#     Node 7, Type 0, BuildingBlock: AZAVOO_clean_linker_0, # of connection points: 4
#     Node 8, Type 1, BuildingBlock: VETTIZ_charged_sbu_0, # of connection points: 8
#     Node 9, Type 1, BuildingBlock: VETTIZ_charged_sbu_0, # of connection points: 8
#     Node 10, Type 1, BuildingBlock: VETTIZ_charged_sbu_0, # of connection points: 8
#     Node 11, Type 1, BuildingBlock: VETTIZ_charged_sbu_0, # of connection points: 8
#     Edge 12, Type (0, 1), BuildingBlock: OJICUG_clean_linker_0, # of connection points: 2
#     Edge 13, Type (0, 1), BuildingBlock: OJICUG_clean_linker_0, # of connection points: 2
#     Edge 14, Type (0, 1), BuildingBlock: OJICUG_clean_linker_0, # of connection points: 2
#     Edge 15, Type (0, 1), BuildingBlock: OJICUG_clean_linker_0, # of connection points: 2
#     Edge 16, Type (0, 1), BuildingBlock: OJICUG_clean_linker_0, # of connection points: 2
#     Edge 17, Type (0, 1), BuildingBlock: OJICUG_clean_linker_0, # of connection points: 2
#     Edge 18, Type (0, 1), BuildingBlock: OJICUG_clean_linker_0, # of connection points: 2
#     Edge 19, Type (0, 1), BuildingBlock: OJICUG_clean_linker_0, # of connection points: 2
#     Edge 20, Type (0, 1), BuildingBlock: OJICUG_clean_linker_0, # of connection points: 2
#     Edge 21, Type (0, 1), BuildingBlock: OJICUG_clean_linker_0, # of connection points: 2
#     Edge 22, Type (0, 1), BuildingBlock: OJICUG_clean_linker_0, # of connection points: 2
#     Edge 23, Type (0, 1), BuildingBlock: OJICUG_clean_linker_0, # of connection points: 2
#     Edge 24, Type (0, 1), BuildingBlock: OJICUG_clean_linker_0, # of connection points: 2
#     Edge 25, Type (0, 1), BuildingBlock: OJICUG_clean_linker_0, # of connection points: 2
#     Edge 26, Type (0, 1), BuildingBlock: OJICUG_clean_linker_0, # of connection points: 2
#     Edge 27, Type (0, 1), BuildingBlock: OJICUG_clean_linker_0, # of connection points: 2
#     Edge 28, Type (0, 1), BuildingBlock: OJICUG_clean_linker_0, # of connection points: 2
#     Edge 29, Type (0, 1), BuildingBlock: OJICUG_clean_linker_0, # of connection points: 2
#     Edge 30, Type (0, 1), BuildingBlock: OJICUG_clean_linker_0, # of connection points: 2
#     Edge 31, Type (0, 1), BuildingBlock: OJICUG_clean_linker_0, # of connection points: 2
#     Edge 32, Type (0, 1), BuildingBlock: OJICUG_clean_linker_0, # of connection points: 2
#     Edge 33, Type (0, 1), BuildingBlock: OJICUG_clean_linker_0, # of connection points: 2
#     Edge 34, Type (0, 1), BuildingBlock: OJICUG_clean_linker_0, # of connection points: 2
#     Edge 35, Type (0, 1), BuildingBlock: OJICUG_clean_linker_0, # of connection points: 2
#     Edge 36, Type (0, 1), BuildingBlock: OJICUG_clean_linker_0, # of connection points: 2
#     Edge 37, Type (0, 1), BuildingBlock: OJICUG_clean_linker_0, # of connection points: 2
#     Edge 38, Type (0, 1), BuildingBlock: OJICUG_clean_linker_0, # of connection points: 2
#     Edge 39, Type (0, 1), BuildingBlock: OJICUG_clean_linker_0, # of connection points: 2
#     Edge 40, Type (0, 1), BuildingBlock: OJICUG_clean_linker_0, # of connection points: 2
#     Edge 41, Type (0, 1), BuildingBlock: OJICUG_clean_linker_0, # of connection points: 2
#     Edge 42, Type (0, 1), BuildingBlock: OJICUG_clean_linker_0, # of connection points: 2
#     Edge 43, Type (0, 1), BuildingBlock: OJICUG_clean_linker_0, # of connection points: 2
# Relax obj value: 0.176
# Max RMSD: 0.299
# Mean RMSD: 0.234
data_MOF--net-sqc--node1-VETTIZ_charged_sbu_0--node2-AZAVOO_clean_linker_0--edge1-OJICUG_clean_linker_0
_symmetry_space_group_name_H-M    P1
_symmetry_Int_Tables_number       1
_symmetry_cell_setting            triclinic
loop_
_symmetry_equiv_pos_as_xyz
'x, y, z'
_cell_length_a     20.66604
_cell_length_b     20.792967
_cell_length_c     70.945224
_cell_angle_alpha  90.769775
_cell_angle_beta   89.856521
_cell_angle_gamma 90.455471
loop_
_atom_site_label
_atom_site_type_symbol
_atom_site_fract_x
_atom_site_fract_y
_atom_site_fract_z
_atom_type_partial_charge
H0 H 0.10654 0.21528 0.65211 0.0
H1 H 0.639 0.91338 0.50178 0.0
H2 H 0.1541 0.1751 0.54523 0.0
H3 H 0.25097 0.20256 0.56342 0.0
H4 H 0.27969 1.00116 0.57478 0.0
H5 H 0.18193 0.97437 0.55676 0.0
H6 H 0.02764 0.18395 0.57342 0.0
H7 H 0.05422 0.2152 0.60591 0.0
H8 H 0.11802 0.02164 0.61653 0.0
H9 H 0.09016 0.99065 0.58411 0.0
H10 H 0.89137 0.15378 0.55439 0.0
H11 H 0.80235 0.16314 0.57698 0.0
H12 H 0.85824 0.98373 0.60199 0.0
H13 H 0.94641 0.97353 0.57877 0.0
H14 H 0.87323 0.12804 0.51985 0.0
H15 H 0.76215 0.10416 0.50989 0.0
H16 H 0.79314 0.90243 0.5205 0.0
H17 H 0.9035 0.92732 0.53092 0.0
H18 H 0.98358 0.13155 0.49409 0.0
H19 H 0.90593 0.11786 0.46835 0.0
H20 H 0.921 0.91167 0.47315 0.0
H21 H 0.99808 0.92596 0.49886 0.0
H22 H 0.14172 0.11111 0.49684 0.0
H23 H 0.23831 0.07757 0.47886 0.0
H24 H 0.23278 0.89372 0.50646 0.0
H25 H 0.13668 0.92714 0.52409 0.0
O26 O 0.09577 0.20155 0.63941 0.0
O27 O 0.12873 0.10149 0.64413 0.0
O28 O 0.66505 0.02942 0.50388 0.0
O29 O 0.68209 0.92434 0.50613 0.0
C30 C 0.09368 0.05932 0.54338 0.0
C31 C 0.0428 0.06689 0.55659 0.0
C32 C 0.97812 0.0573 0.55092 0.0
C33 C 0.96396 0.04338 0.5319 0.0
C34 C 0.01452 0.03817 0.51848 0.0
C35 C 0.07961 0.04262 0.52441 0.0
C36 C 0.16111 0.07276 0.54961 0.0
C37 C 0.18274 0.13673 0.55104 0.0
C38 C 0.23817 0.15231 0.56146 0.0
C39 C 0.27279 0.1041 0.57072 0.0
C40 C 0.2537 0.03947 0.568 0.0
C41 C 0.1983 0.02395 0.55752 0.0
C42 C 0.05738 0.0852 0.57643 0.0
C43 C 0.04708 0.14835 0.58282 0.0
C44 C 0.06247 0.16612 0.60135 0.0
C45 C 0.08854 0.12108 0.61377 0.0
C46 C 0.0982 0.05759 0.60731 0.0
C47 C 0.08246 0.03978 0.58882 0.0
C48 C 0.92478 0.06271 0.56484 0.0
C49 C 0.88361 0.11585 0.56448 0.0
C50 C 0.83266 0.12089 0.5773 0.0
C51 C 0.8228 0.07347 0.59097 0.0
C52 C 0.86448 0.02046 0.59144 0.0
C53 C 0.91488 0.01485 0.57833 0.0
C54 C 0.89609 0.02944 0.5262 0.0
C55 C 0.85562 0.07887 0.52021 0.0
C56 C 0.79232 0.06504 0.51448 0.0
C57 C 0.76881 1.00131 0.51435 0.0
C58 C 0.8097 0.95197 0.52038 0.0
C59 C 0.87266 0.96602 0.52637 0.0
C60 C 0.99643 0.02972 0.49838 0.0
C61 C 0.9731 0.08346 0.4888 0.0
C62 C 0.92795 0.0756 0.47428 0.0
C63 C 0.90639 0.01378 0.46893 0.0
C64 C 0.93677 0.96001 0.47682 0.0
C65 C 0.98143 0.96796 0.49147 0.0
C66 C 0.13264 0.02159 0.51179 0.0
C67 C 0.16091 0.06331 0.49871 0.0
C68 C 0.21584 0.04412 0.4885 0.0
C69 C 0.24331 0.98338 0.49148 0.0
C70 C 0.21317 0.94111 0.5041 0.0
C71 C 0.15822 0.95998 0.51409 0.0
C72 C 0.1056 0.1405 0.63336 0.0
C73 C 0.70216 0.98615 0.50783 0.0
H74 H 0.50674 0.6277 0.69139 0.0
H75 H 0.3021 0.17759 0.8334 0.0
H76 H 0.25455 0.62497 0.77906 0.0
H77 H 0.27494 0.5377 0.75654 0.0
H78 H 0.47362 0.53043 0.77505 0.0
H79 H 0.45258 0.61799 0.79757 0.0
H80 H 0.32419 0.7027 0.75103 0.0
H81 H 0.38348 0.67047 0.72254 0.0
H82 H 0.56405 0.71272 0.7508 0.0
H83 H 0.50441 0.743 0.77943 0.0
H84 H 0.31052 0.84155 0.7567 0.0
H85 H 0.33859 0.9315 0.73665 0.0
H86 H 0.50285 0.97661 0.77235 0.0
H87 H 0.47328 0.88608 0.79261 0.0
H88 H 0.22921 0.89631 0.792 0.0
H89 H 0.20337 0.00942 0.79811 0.0
H90 H 0.38026 0.0313 0.83009 0.0
H91 H 0.40535 0.91807 0.82388 0.0
H92 H 0.17749 0.80925 0.82138 0.0
H93 H 0.13673 0.90259 0.83872 0.0
H94 H 0.32179 0.92113 0.86681 0.0
H95 H 0.35904 0.82589 0.85052 0.0
H96 H 0.21061 0.63598 0.81355 0.0
H97 H 0.19073 0.54515 0.83448 0.0
H98 H 0.3655 0.59293 0.86516 0.0
H99 H 0.38411 0.68429 0.84434 0.0
O100 O 0.48407 0.63995 0.70283 0.0
O101 O 0.57172 0.68563 0.7155 0.0
O102 O 0.22348 0.12057 0.81289 0.0
O103 O 0.3122 0.13346 0.83025 0.0
C104 C 0.34724 0.69667 0.79666 0.0
C105 C 0.37418 0.74361 0.78469 0.0
C106 C 0.36701 0.80904 0.78906 0.0
C107 C 0.33168 0.82908 0.80493 0.0
C108 C 0.30654 0.78332 0.81764 0.0
C109 C 0.31538 0.7164 0.81364 0.0
C110 C 0.35175 0.62799 0.79021 0.0
C111 C 0.3015 0.60216 0.77907 0.0
C112 C 0.31364 0.55266 0.76591 0.0
C113 C 0.37646 0.52789 0.76356 0.0
C114 C 0.42504 0.54929 0.77612 0.0
C115 C 0.41268 0.59841 0.78938 0.0
C116 C 0.41007 0.72463 0.76731 0.0
C117 C 0.37659 0.70435 0.7511 0.0
C118 C 0.41053 0.68609 0.73485 0.0
C119 C 0.47848 0.68914 0.73446 0.0
C120 C 0.51176 0.70989 0.75071 0.0
C121 C 0.47785 0.72734 0.76702 0.0
C122 C 0.3903 0.85762 0.77585 0.0
C123 C 0.3533 0.8701 0.75991 0.0
C124 C 0.36951 0.92136 0.74853 0.0
C125 C 0.42316 0.96069 0.75293 0.0
C126 C 0.46091 0.94734 0.76881 0.0
C127 C 0.44461 0.89563 0.78021 0.0
C128 C 0.31859 0.89894 0.80774 0.0
C129 C 0.26243 0.9258 0.80023 0.0
C130 C 0.2478 0.99033 0.80376 0.0
C131 C 0.28952 0.02928 0.81473 0.0
C132 C 0.34691 1.0026 0.82169 0.0
C133 C 0.36145 0.93803 0.81814 0.0
C134 C 0.27163 0.80994 0.83454 0.0
C135 C 0.20758 0.83094 0.83225 0.0
C136 C 0.18519 0.88648 0.84173 0.0
C137 C 0.22634 0.92281 0.85377 0.0
C138 C 0.28751 0.89617 0.85782 0.0
C139 C 0.30914 0.84002 0.84863 0.0
C140 C 0.29826 0.66711 0.82761 0.0
C141 C 0.24408 0.62716 0.82493 0.0
C142 C 0.23351 0.57468 0.83671 0.0
C143 C 0.27719 0.56107 0.85132 0.0
C144 C 0.33093 0.60203 0.85409 0.0
C145 C 0.34136 0.65451 0.84231 0.0
C146 C 0.51445 0.67147 0.71708 0.0
C147 C 0.27294 0.09715 0.81914 0.0
H148 H 0.49605 0.84682 0.1526 0.0
H149 H 0.93603 0.2765 0.02074 0.0
H150 H 0.44264 0.9634 0.05687 0.0
H151 H 0.34214 0.9269 0.07165 0.0
H152 H 0.2972 0.12375 0.08673 0.0
H153 H 0.3999 0.15871 0.07317 0.0
H154 H 0.57691 0.94694 0.07952 0.0
H155 H 0.55206 0.88855 0.1084 0.0
H156 H 0.45981 0.05829 0.13149 0.0
H157 H 0.48588 0.11638 0.10262 0.0
H158 H 0.70767 0.9995 0.06359 0.0
H159 H 0.79207 0.97622 0.08653 0.0
H160 H 0.71631 0.12356 0.12379 0.0
H161 H 0.63239 0.14743 0.10051 0.0
H162 H 0.71312 0.04467 0.02878 0.0
H163 H 0.81871 0.08064 0.01711 0.0
H164 H 0.79417 0.26244 0.04649 0.0
H165 H 0.68897 0.22546 0.05825 0.0
H166 H 0.59028 0.05037 0.00482 0.0
H167 H 0.66855 0.07021 0.97974 0.0
H168 H 0.69235 0.26582 5e-05 0.0
H169 H 0.61189 0.24611 0.02447 0.0
H170 H 0.46626 0.04909 0.00976 0.0
H171 H 0.36656 0.06934 0.99264 0.0
H172 H 0.32944 0.23335 0.02932 0.0
H173 H 0.43243 0.21603 0.04485 0.0
O174 O 0.50592 0.87102 0.14138 0.0
O175 O 0.45849 0.95935 0.15254 0.0
O176 O 0.90879 0.16384 0.01229 0.0
O177 O 0.89638 0.25962 0.0261 0.0
C178 C 0.49618 0.08358 0.05854 0.0
C179 C 0.547 0.07019 0.0712 0.0
C180 C 0.61138 0.08735 0.0667 0.0
C181 C 0.6257 0.11453 0.04908 0.0
C182 C 0.57564 0.1259 0.03592 0.0
C183 C 0.51044 0.11287 0.041 0.0
C184 C 0.42861 0.06394 0.06367 0.0
C185 C 0.41025 0.99877 0.06297 0.0
C186 C 0.35238 0.97801 0.0714 0.0
C187 C 0.31115 0.02212 0.08062 0.0
C188 C 0.3279 0.08798 0.08012 0.0
C189 C 0.38627 0.10844 0.07201 0.0
C190 C 0.53304 0.03576 0.08899 0.0
C191 C 0.55167 0.97149 0.09089 0.0
C192 C 0.53725 0.93823 0.10737 0.0
C193 C 0.50379 0.9687 0.12224 0.0
C194 C 0.48554 0.03336 0.1203 0.0
C195 C 0.50024 0.06662 0.10383 0.0
C196 C 0.66423 0.07542 0.08033 0.0
C197 C 0.71016 0.02772 0.07651 0.0
C198 C 0.75846 0.0147 0.0896 0.0
C199 C 0.76116 0.04861 0.10686 0.0
C200 C 0.71544 0.09688 0.11058 0.0
C201 C 0.66752 0.1104 0.09736 0.0
C202 C 0.69355 0.13248 0.04435 0.0
C203 C 0.73126 0.09173 0.03297 0.0
C204 C 0.79134 0.11257 0.02623 0.0
C205 C 0.81456 0.17472 0.0307 0.0
C206 C 0.77761 0.21444 0.04271 0.0
C207 C 0.71774 0.19331 0.04956 0.0
C208 C 0.59506 0.14662 0.01662 0.0
C209 C 0.60931 0.09866 0.00315 0.0
C210 C 0.6557 0.10969 0.98909 0.0
C211 C 0.68914 0.16892 0.98823 0.0
C212 C 0.66832 0.21943 0.0002 0.0
C213 C 0.62138 0.20848 0.01414 0.0
C214 C 0.45637 0.13088 0.02858 0.0
C215 C 0.43737 0.09043 0.01366 0.0
C216 C 0.37932 0.10141 0.0042 0.0
C217 C 0.338 0.15193 0.00988 0.0
C218 C 0.35917 0.19401 0.02436 0.0
C219 C 0.41809 0.18397 0.03342 0.0
C220 C 0.48794 0.933 0.13966 0.0
C221 C 0.8762 0.19873 0.0225 0.0
H222 H 0.0871 0.23933 0.18655 0.0
H223 H 0.3963 0.70636 0.33915 0.0
H224 H 0.1575 0.18893 0.28859 0.0
H225 H 0.13965 0.08558 0.27248 0.0
H226 H 0.34665 0.06265 0.26671 0.0
H227 H 0.36352 0.16743 0.28221 0.0
H228 H 0.13817 0.32569 0.26385 0.0
H229 H 0.09966 0.29899 0.23213 0.0
H230 H 0.28515 0.21464 0.21884 0.0
H231 H 0.32388 0.24381 0.2504 0.0
H232 H 0.1602 0.44586 0.28179 0.0
H233 H 0.13909 0.52766 0.2582 0.0
H234 H 0.32247 0.48659 0.23152 0.0
H235 H 0.34366 0.40491 0.25543 0.0
H236 H 0.19383 0.4652 0.31732 0.0
H237 H 0.21185 0.57339 0.33043 0.0
H238 H 0.41428 0.56131 0.31529 0.0
H239 H 0.39536 0.45338 0.30211 0.0
H240 H 0.21309 0.36254 0.34383 0.0
H241 H 0.23831 0.42692 0.37211 0.0
H242 H 0.44203 0.41338 0.35903 0.0
H243 H 0.4164 0.35107 0.33062 0.0
H244 H 0.21698 0.18612 0.33018 0.0
H245 H 0.25335 0.10108 0.35134 0.0
H246 H 0.45221 0.15304 0.33968 0.0
H247 H 0.41544 0.23726 0.31862 0.0
O248 O 0.10395 0.25086 0.19886 0.0
O249 O 0.2003 0.20853 0.19266 0.0
O250 O 0.28199 0.67071 0.33964 0.0
O251 O 0.38727 0.66489 0.33335 0.0
C252 C 0.27075 0.25372 0.29177 0.0
C253 C 0.25674 0.30296 0.27879 0.0
C254 C 0.26473 0.36812 0.2842 0.0
C255 C 0.28391 0.38379 0.30273 0.0
C256 C 0.29683 0.3344 0.31568 0.0
C257 C 0.29256 0.26941 0.31007 0.0
C258 C 0.26152 0.18581 0.28608 0.0
C259 C 0.19878 0.16084 0.2841 0.0
C260 C 0.18886 0.10159 0.27511 0.0
C261 C 0.24185 0.06647 0.26813 0.0
C262 C 0.30498 0.08924 0.2717 0.0
C263 C 0.31474 0.14868 0.28062 0.0
C264 C 0.23371 0.28641 0.25947 0.0
C265 C 0.17065 0.30201 0.25401 0.0
C266 C 0.14868 0.28647 0.2359 0.0
C267 C 0.18921 0.25437 0.22297 0.0
C268 C 0.25258 0.23914 0.22847 0.0
C269 C 0.27473 0.25542 0.24652 0.0
C270 C 0.25357 0.41979 0.27036 0.0
C271 C 0.19608 0.45497 0.27097 0.0
C272 C 0.18381 0.50115 0.25737 0.0
C273 C 0.22885 0.51319 0.2429 0.0
C274 C 0.28704 0.4786 0.24254 0.0
C275 C 0.29912 0.43198 0.25612 0.0
C276 C 0.29318 0.45194 0.30863 0.0
C277 C 0.24172 0.48658 0.31654 0.0
C278 C 0.25226 0.54815 0.32412 0.0
C279 C 0.3146 0.57593 0.32397 0.0
C280 C 0.36573 0.54137 0.31565 0.0
C281 C 0.35503 0.47991 0.30802 0.0
C282 C 0.31303 0.35228 0.33529 0.0
C283 C 0.26325 0.37104 0.34759 0.0
C284 C 0.27759 0.40781 0.36365 0.0
C285 C 0.34195 0.425 0.36764 0.0
C286 C 0.39208 0.3999 0.35639 0.0
C287 C 0.37762 0.36419 0.34018 0.0
C288 C 0.3136 0.21824 0.32305 0.0
C289 C 0.26832 0.1791 0.33229 0.0
C290 C 0.2892 0.13055 0.34431 0.0
C291 C 0.3557 0.12069 0.34733 0.0
C292 C 0.4007 0.16018 0.33798 0.0
C293 C 0.37982 0.20822 0.32591 0.0
C294 C 0.16512 0.23653 0.2039 0.0
C295 C 0.32666 0.64009 0.33275 0.0
H296 H 0.0103 0.11687 0.20694 0.0
H297 H 0.82507 0.69387 0.35897 0.0
H298 H 0.77208 0.16486 0.28729 0.0
H299 H 0.78924 0.07491 0.26585 0.0
H300 H 0.98681 0.06148 0.28545 0.0
H301 H 0.96597 0.14647 0.30849 0.0
H302 H 0.84257 0.24813 0.26136 0.0
H303 H 0.89722 0.19546 0.23482 0.0
H304 H 0.07783 0.20659 0.26517 0.0
H305 H 0.02315 0.261 0.29147 0.0
H306 H 0.83286 0.3656 0.26725 0.0
H307 H 0.85263 0.45501 0.24633 0.0
H308 H 0.99798 0.52972 0.28484 0.0
H309 H 0.98179 0.43595 0.3048 0.0
H310 H 0.76332 0.43892 0.30356 0.0
H311 H 0.73883 0.54943 0.31335 0.0
H312 H 0.89928 0.5466 0.35234 0.0
H313 H 0.92339 0.43618 0.34232 0.0
H314 H 0.69889 0.33751 0.32722 0.0
H315 H 0.64517 0.42102 0.34524 0.0
H316 H 0.80549 0.42749 0.38437 0.0
H317 H 0.86049 0.34552 0.36531 0.0
H318 H 0.71755 0.18713 0.31526 0.0
H319 H 0.67208 0.09198 0.32947 0.0
H320 H 0.81857 0.10252 0.37307 0.0
H321 H 0.86838 0.19384 0.35695 0.0
O322 O 0.99059 0.1419 0.21699 0.0
O323 O 0.08007 0.14189 0.23433 0.0
O324 O 0.75473 0.651 0.33357 0.0
O325 O 0.83536 0.65123 0.35427 0.0
C326 C 0.86486 0.22954 0.30707 0.0
C327 C 0.89373 0.27778 0.2958 0.0
C328 C 0.88782 0.34306 0.30091 0.0
C329 C 0.85528 0.36045 0.31769 0.0
C330 C 0.82635 0.31267 0.32914 0.0
C331 C 0.83064 0.24692 0.32374 0.0
C332 C 0.86723 0.16187 0.29984 0.0
C333 C 0.81746 0.13944 0.28799 0.0
C334 C 0.82845 0.08927 0.27511 0.0
C335 C 0.89033 0.06193 0.2732 0.0
C336 C 0.93834 0.08058 0.28634 0.0
C337 C 0.92644 0.12925 0.29972 0.0
C338 C 0.92897 0.25886 0.27829 0.0
C339 C 0.8944 0.2412 0.262 0.0
C340 C 0.92563 0.21049 0.24692 0.0
C341 C 0.99193 0.19646 0.24795 0.0
C342 C 0.02687 0.21684 0.26396 0.0
C343 C 0.99582 0.24839 0.27893 0.0
C344 C 0.90651 0.39372 0.28739 0.0
C345 C 0.87064 0.39999 0.27081 0.0
C346 C 0.88096 0.45223 0.2591 0.0
C347 C 0.92591 0.50072 0.26404 0.0
C348 C 0.96324 0.49331 0.28046 0.0
C349 C 0.95394 0.4399 0.29196 0.0
C350 C 0.84489 0.42963 0.32231 0.0
C351 C 0.79359 0.46263 0.31403 0.0
C352 C 0.77956 0.5256 0.31971 0.0
C353 C 0.81684 0.5567 0.33374 0.0
C354 C 0.86948 0.52401 0.34156 0.0
C355 C 0.88351 0.46106 0.33584 0.0
C356 C 0.78378 0.33521 0.34484 0.0
C357 C 0.72096 0.35436 0.34024 0.0
C358 C 0.69048 0.40319 0.3506 0.0
C359 C 0.72139 0.43304 0.36618 0.0
C360 C 0.78083 0.40753 0.37217 0.0
C361 C 0.81173 0.35912 0.36158 0.0
C362 C 0.79716 0.19641 0.33475 0.0
C363 C 0.74028 0.16835 0.32774 0.0
C364 C 0.71354 0.1142 0.33625 0.0
C365 C 0.74113 0.08832 0.35265 0.0
C366 C 0.79648 0.11926 0.36025 0.0
C367 C 0.82458 0.17235 0.35125 0.0
C368 C 0.02382 0.15872 0.2327 0.0
C369 C 0.80036 0.62252 0.34043 0.0
H370 H 0.57869 0.91995 0.69184 0.0
H371 H 0.77174 0.38165 0.83285 0.0
H372 H 0.86155 0.91414 0.76725 0.0
H373 H 0.83632 1.00005 0.74554 0.0
H374 H 0.65515 0.0316 0.77452 0.0
H375 H 0.68162 0.9459 0.79652 0.0
H376 H 0.77704 0.83975 0.74528 0.0
H377 H 0.70936 0.87293 0.71894 0.0
H378 H 0.53952 0.85225 0.75392 0.0
H379 H 0.60781 0.82235 0.78052 0.0
H380 H 0.78014 0.71029 0.75189 0.0
H381 H 0.7405 0.62162 0.73265 0.0
H382 H 0.59196 0.58176 0.7741 0.0
H383 H 0.63261 0.67256 0.79351 0.0
H384 H 0.85898 0.63829 0.78299 0.0
H385 H 0.86916 0.52342 0.78942 0.0
H386 H 0.7217 0.54008 0.83254 0.0
H387 H 0.71217 0.65494 0.82596 0.0
H388 H 0.94323 0.7306 0.80397 0.0
H389 H 0.99164 0.63662 0.81856 0.0
H390 H 0.84635 0.64385 0.86232 0.0
H391 H 0.79744 0.73628 0.84736 0.0
H392 H 0.90378 0.93282 0.79873 0.0
H393 H 0.92394 0.02838 0.81752 0.0
H394 H 0.81841 0.94249 0.8639 0.0
H395 H 0.78915 0.85287 0.84356 0.0
O396 O 0.60481 0.90714 0.70243 0.0
O397 O 0.51879 0.88004 0.71956 0.0
O398 O 0.84175 0.42016 0.807 0.0
O399 O 0.76766 0.4266 0.82972 0.0
C400 C 0.77661 0.85664 0.79099 0.0
C401 C 0.73877 0.8107 0.78105 0.0
C402 C 0.74022 0.74588 0.78611 0.0
C403 C 0.78088 0.72506 0.80056 0.0
C404 C 0.81976 0.76967 0.81075 0.0
C405 C 0.81587 0.83666 0.80645 0.0
C406 C 0.77437 0.92415 0.78391 0.0
C407 C 0.81836 0.94222 0.76975 0.0
C408 C 0.80314 0.99084 0.75704 0.0
C409 C 0.74305 0.02215 0.75799 0.0
C410 C 0.70139 0.00781 0.77315 0.0
C411 C 0.71716 0.95978 0.78606 0.0
C412 C 0.69746 0.82999 0.76492 0.0
C413 C 0.72527 0.8436 0.74734 0.0
C414 C 0.68649 0.86222 0.7323 0.0
C415 C 0.61901 0.86595 0.73445 0.0
C416 C 0.59133 0.851 0.75198 0.0
C417 C 0.63018 0.83345 0.76711 0.0
C418 C 0.70875 0.69768 0.77387 0.0
C419 C 0.73786 0.68368 0.75655 0.0
C420 C 0.71497 0.63312 0.7456 0.0
C421 C 0.66272 0.59539 0.75186 0.0
C422 C 0.63235 0.61032 0.76908 0.0
C423 C 0.65515 0.66188 0.78004 0.0
C424 C 0.78549 0.65487 0.80419 0.0
C425 C 0.8289 0.6169 0.79379 0.0
C426 C 0.83458 0.55138 0.79749 0.0
C427 C 0.79645 0.52262 0.81157 0.0
C428 C 0.75193 0.56072 0.82166 0.0
C429 C 0.74639 0.62627 0.81795 0.0
C430 C 0.86654 0.74156 0.82451 0.0
C431 C 0.92401 0.71444 0.81733 0.0
C432 C 0.95103 0.65945 0.82553 0.0
C433 C 0.92155 0.63052 0.84125 0.0
C434 C 0.86924 0.66301 0.84983 0.0
C435 C 0.84227 0.71775 0.84161 0.0
C436 C 0.84341 0.8862 0.81946 0.0
C437 C 0.88385 0.93536 0.81281 0.0
C438 C 0.89638 0.99006 0.82391 0.0
C439 C 0.87189 0.99547 0.84247 0.0
C440 C 0.83596 0.94298 0.84955 0.0
C441 C 0.82081 0.8899 0.83807 0.0
C442 C 0.57766 0.88476 0.71842 0.0
C443 C 0.80341 0.45337 0.81587 0.0
H444 H 0.39881 0.29955 0.94986 0.0
H445 H 0.93828 0.55769 0.09246 0.0
H446 H 0.39435 0.58809 0.03174 0.0
H447 H 0.30835 0.56664 0.00891 0.0
H448 H 0.30194 0.36793 0.02586 0.0
H449 H 0.3877 0.39006 0.04883 0.0
H450 H 0.47298 0.50394 0.00321 0.0
H451 H 0.4393 0.43322 0.9771 0.0
H452 H 0.49113 0.26757 0.0098 0.0
H453 H 0.52288 0.33868 0.03603 0.0
H454 H 0.61534 0.54928 0.01198 0.0
H455 H 0.70631 0.52926 0.991 0.0
H456 H 0.74785 0.35401 0.02083 0.0
H457 H 0.65755 0.37663 0.04243 0.0
H458 H 0.67244 0.61702 0.04257 0.0
H459 H 0.78515 0.64274 0.05032 0.0
H460 H 0.78795 0.48395 0.08906 0.0
H461 H 0.67516 0.4589 0.08117 0.0
H462 H 0.57393 0.67893 0.06461 0.0
H463 H 0.66295 0.73289 0.08093 0.0
H464 H 0.66295 0.58217 0.1223 0.0
H465 H 0.57613 0.52706 0.1052 0.0
H466 H 0.43597 0.66068 0.06789 0.0
H467 H 0.3402 0.69655 0.08552 0.0
H468 H 0.30951 0.50298 0.10528 0.0
H469 H 0.40543 0.4678 0.08774 0.0
O470 O 0.41416 0.3267 0.96011 0.0
O471 O 0.44353 0.24323 0.97731 0.0
O472 O 0.89082 0.62766 0.06834 0.0
O473 O 0.89437 0.54737 0.0887 0.0
C474 C 0.46526 0.4973 0.04892 0.0
C475 C 0.51502 0.4689 0.038 0.0
C476 C 0.57989 0.48246 0.04221 0.0
C477 C 0.59619 0.52303 0.05747 0.0
C478 C 0.5471 0.55193 0.06859 0.0
C479 C 0.4811 0.53792 0.06454 0.0
C480 C 0.39771 0.49061 0.04189 0.0
C481 C 0.37205 0.54076 0.03126 0.0
C482 C 0.32338 0.52817 0.01801 0.0
C483 C 0.2997 0.46516 0.0152 0.0
C484 C 0.32034 0.41664 0.0274 0.0
C485 C 0.36847 0.42946 0.04079 0.0
C486 C 0.49946 0.42635 0.02157 0.0
C487 C 0.47694 0.45235 0.0047 0.0
C488 C 0.45785 0.41184 0.98981 0.0
C489 C 0.46191 0.34466 0.99147 0.0
C490 C 0.48672 0.319 0.00818 0.0
C491 C 0.50522 0.3595 0.02312 0.0
C492 C 0.63046 0.46438 0.02859 0.0
C493 C 0.64375 0.50621 0.0138 0.0
C494 C 0.69546 0.49441 0.00179 0.0
C495 C 0.73417 0.43991 0.00421 0.0
C496 C 0.71932 0.39681 0.01877 0.0
C497 C 0.66771 0.40919 0.03098 0.0
C498 C 0.66566 0.53653 0.06146 0.0
C499 C 0.69769 0.58766 0.05263 0.0
C500 C 0.76198 0.60227 0.05711 0.0
C501 C 0.79547 0.56559 0.07039 0.0
C502 C 0.76355 0.5133 0.07882 0.0
C503 C 0.6992 0.49882 0.07434 0.0
C504 C 0.56857 0.59847 0.08352 0.0
C505 C 0.5906 0.65936 0.0778 0.0
C506 C 0.64267 0.68979 0.08705 0.0
C507 C 0.67275 0.66053 0.10249 0.0
C508 C 0.64337 0.60478 0.10992 0.0
C509 C 0.59195 0.57401 0.10051 0.0
C510 C 0.42815 0.56191 0.07677 0.0
C511 C 0.40908 0.62636 0.07626 0.0
C512 C 0.35379 0.64641 0.08608 0.0
C513 C 0.31684 0.60234 0.09663 0.0
C514 C 0.33694 0.53804 0.09733 0.0
C515 C 0.39186 0.518 0.08741 0.0
C516 C 0.43957 0.30162 0.9759 0.0
C517 C 0.86311 0.58217 0.07566 0.0
H518 H 0.95963 0.28267 0.64045 0.0
H519 H 0.45466 0.72989 0.53768 0.0
H520 H 0.94949 0.39798 0.54766 0.0
H521 H 0.85212 0.36458 0.56467 0.0
H522 H 0.80778 0.56373 0.57648 0.0
H523 H 0.90579 0.59666 0.55953 0.0
H524 H 0.07124 0.38262 0.57084 0.0
H525 H 0.03349 0.32422 0.5985 0.0
H526 H 0.94764 0.49861 0.62061 0.0
H527 H 0.98639 0.55671 0.59292 0.0
H528 H 0.19884 0.42957 0.55957 0.0
H529 H 0.2879 0.41129 0.58141 0.0
H530 H 0.23137 0.57881 0.61399 0.0
H531 H 0.14231 0.59722 0.59176 0.0
H532 H 0.23539 0.49395 0.52927 0.0
H533 H 0.34723 0.53183 0.526 0.0
H534 H 0.29247 0.71663 0.54946 0.0
H535 H 0.1812 0.67732 0.5532 0.0
H536 H 0.13832 0.50792 0.49845 0.0
H537 H 0.22822 0.55149 0.48003 0.0
H538 H 0.18905 0.74108 0.50258 0.0
H539 H 0.09939 0.69705 0.52096 0.0
H540 H 0.94955 0.45478 0.5132 0.0
H541 H 0.85632 0.4698 0.49237 0.0
H542 H 0.89097 0.67462 0.49354 0.0
H543 H 0.98134 0.66006 0.5153 0.0
O544 O 0.97524 0.30717 0.62984 0.0
O545 O 0.93098 0.39788 0.64046 0.0
O546 O 0.43771 0.61609 0.52838 0.0
O547 O 0.41124 0.71309 0.53934 0.0
C548 C 1.00331 0.51812 0.54821 0.0
C549 C 0.05005 0.50749 0.56239 0.0
C550 C 0.11433 0.52795 0.55984 0.0
C551 C 0.13237 0.55998 0.54332 0.0
C552 C 0.08679 0.56963 0.52874 0.0
C553 C 0.0217 0.54802 0.53103 0.0
C554 C 0.93488 0.4998 0.55235 0.0
C555 C 0.91723 0.43451 0.55319 0.0
C556 C 0.86155 0.41549 0.56298 0.0
C557 C 0.82264 0.46148 0.57217 0.0
C558 C 0.83721 0.52714 0.56975 0.0
C559 C 0.89276 0.54612 0.55986 0.0
C560 C 0.03159 0.47379 0.57994 0.0
C561 C 0.04503 0.40826 0.58181 0.0
C562 C 0.02312 0.37495 0.59758 0.0
C563 C 0.98739 0.40663 0.61176 0.0
C564 C 0.97499 0.47273 0.60995 0.0
C565 C 0.99716 0.50605 0.59419 0.0
C566 C 0.16421 0.51446 0.57418 0.0
C567 C 0.20571 0.46225 0.57143 0.0
C568 C 0.25699 0.45249 0.58375 0.0
C569 C 0.26726 0.49442 0.59918 0.0
C570 C 0.22478 0.54614 0.60212 0.0
C571 C 0.17378 0.55635 0.58959 0.0
C572 C 0.20031 0.58312 0.54132 0.0
C573 C 0.24781 0.54246 0.53378 0.0
C574 C 0.31158 0.56424 0.53193 0.0
C575 C 0.3287 0.62747 0.53733 0.0
C576 C 0.28091 0.66781 0.54507 0.0
C577 C 0.21735 0.64558 0.5472 0.0
C578 C 0.11187 0.59908 0.51111 0.0
C579 C 0.1464 0.55947 0.49852 0.0
C580 C 0.19893 0.58427 0.48835 0.0
C581 C 0.2171 0.64939 0.49033 0.0
C582 C 0.17664 0.69065 0.5008 0.0
C583 C 0.12439 0.66567 0.5111 0.0
C584 C 0.97248 0.55635 0.51594 0.0
C585 C 0.93726 0.50296 0.50893 0.0
C586 C 0.88416 0.51141 0.49701 0.0
C587 C 0.8667 0.57326 0.49137 0.0
C588 C 0.90394 0.62633 0.49757 0.0
C589 C 0.95591 0.61804 0.50989 0.0
C590 C 0.96279 0.37057 0.62825 0.0
C591 C 0.39589 0.65157 0.53476 0.0
Fe592 Fe 0.05317 0.80712 0.19589 0.0
O593 O 0.09628 0.8507 0.17437 0.0
Fe594 Fe 0.89394 0.79171 0.18183 0.0
Fe595 Fe 0.18951 0.83903 0.17001 0.0
O596 O 0.98638 0.78244 0.17692 0.0
O597 O 0.98596 0.78162 0.17502 0.0
O598 O 0.09536 0.85072 0.17237 0.0
Fe599 Fe 0.03002 0.82276 0.1529 0.0
C600 C 0.17257 0.88348 0.21025 0.0
O601 O 0.09989 0.72349 0.18962 0.0
O602 O 0.19944 0.76224 0.18848 0.0
O603 O 0.95133 0.78723 0.13605 0.0
O604 O 0.88332 0.73716 0.15758 0.0
O605 O 0.91049 0.71826 0.20047 0.0
O606 O 1.00131 0.75562 0.21605 0.0
O607 O 0.18174 0.77531 0.14806 0.0
O608 O 0.07961 0.73845 0.14685 0.0
C609 C 0.95205 0.71682 0.21417 0.0
O610 O 0.97987 0.90718 0.15704 0.0
O611 O 0.8817 0.8696 0.1648 0.0
O612 O 0.12806 0.84035 0.21348 0.0
O613 O 0.1954 0.89658 0.19367 0.0
C614 C 0.15993 0.71679 0.19224 0.0
C615 C 0.1397 0.73404 0.14285 0.0
C616 C 0.14093 0.9072 0.13495 0.0
O617 O 0.17675 0.90884 0.15002 0.0
O618 O 0.08865 0.87158 0.13263 0.0
C619 C 0.90177 0.75045 0.14054 0.0
O620 O 0.90542 0.85333 0.20483 0.0
O621 O 0.00658 0.89029 0.20323 0.0
C622 C 0.91852 0.91289 0.15799 0.0
C623 C 0.94934 0.8935 0.20963 0.0
Fe624 Fe 0.5933 0.81037 0.46622 0.0
O625 O 0.59302 0.79287 0.43875 0.0
Fe626 Fe 0.55629 0.86397 0.42109 0.0
Fe627 Fe 0.54719 0.71736 0.42717 0.0
O628 O 0.59274 0.79895 0.43857 0.0
O629 O 0.5073 0.78907 0.41016 0.0
O630 O 0.50813 0.78257 0.41025 0.0
Fe631 Fe 0.50264 0.7712 0.38289 0.0
C632 C 0.64258 0.67446 0.4584 0.0
O633 O 0.51621 0.74838 0.47243 0.0
O634 O 0.46942 0.73023 0.44465 0.0
O635 O 0.4451 0.85262 0.38393 0.0
O636 O 0.50915 0.92255 0.40149 0.0
O637 O 0.47974 0.88162 0.4389 0.0
O638 O 0.52917 0.88578 0.46665 0.0
O639 O 0.49192 0.64712 0.41332 0.0
O640 O 0.43546 0.70152 0.3905 0.0
C641 C 0.4803 0.89621 0.45633 0.0
O642 O 0.57504 0.83612 0.37621 0.0
O643 O 0.63152 0.84962 0.40247 0.0
O644 O 0.65164 0.73126 0.46566 0.0
O645 O 0.59686 0.65845 0.44649 0.0
C646 C 0.46699 0.7334 0.46245 0.0
C647 C 0.44576 0.65157 0.40096 0.0
C648 C 0.61302 0.67617 0.39231 0.0
O649 O 0.62294 0.69983 0.40873 0.0
O650 O 0.56628 0.69499 0.38214 0.0
C651 C 0.46214 0.91013 0.38966 0.0
O652 O 0.61661 0.93297 0.43466 0.0
O653 O 0.6631 0.87675 0.45912 0.0
C654 C 0.62386 0.85928 0.38497 0.0
C655 C 0.66171 0.9236 0.4472 0.0
Fe656 Fe 0.55101 0.27494 0.69197 0.0
O657 O 0.60401 0.31233 0.67127 0.0
Fe658 Fe 0.40193 0.24897 0.67203 0.0
Fe659 Fe 0.69847 0.30468 0.67132 0.0
O660 O 0.49643 0.24024 0.67104 0.0
O661 O 0.49623 0.24079 0.66914 0.0
O662 O 0.60392 0.31263 0.66937 0.0
Fe663 Fe 0.54936 0.27803 0.64822 0.0
C664 C 0.65261 0.36729 0.70738 0.0
O665 O 0.60516 0.19229 0.69202 0.0
O666 O 0.70151 0.23875 0.69316 0.0
O667 O 0.48305 0.23652 0.62899 0.0
O668 O 0.40322 0.19187 0.64779 0.0
O669 O 0.4136 0.1787 0.69142 0.0
O670 O 0.48965 0.22746 0.71079 0.0
O671 O 0.70332 0.23064 0.65216 0.0
O672 O 0.60261 0.19454 0.64634 0.0
C673 C 0.44836 0.18187 0.70663 0.0
O674 O 0.49609 0.36182 0.64814 0.0
O675 O 0.39599 0.32533 0.65441 0.0
O676 O 0.61353 0.31987 0.71115 0.0
O677 O 0.68716 0.37238 0.69213 0.0
C678 C 0.66336 0.19308 0.69774 0.0
C679 C 0.664 0.18868 0.64557 0.0
C680 C 0.66538 0.35802 0.63213 0.0
O681 O 0.69511 0.36486 0.64819 0.0
O682 O 0.61448 0.3216 0.6292 0.0
C683 C 0.43224 0.19997 0.63167 0.0
O684 O 0.4009 0.31214 0.69522 0.0
O685 O 0.49736 0.35774 0.69368 0.0
C686 C 0.43469 0.36801 0.64823 0.0
C687 C 0.43999 0.35708 0.70007 0.0
Fe688 Fe 0.04142 0.29638 0.94477 0.0
O689 O 0.07576 0.23322 0.92605 0.0
Fe690 Fe 0.03586 0.43921 0.92207 0.0
Fe691 Fe 0.05246 0.14178 0.92787 0.0
O692 O 0.01959 0.34686 0.9221 0.0
O693 O 0.01909 0.34587 0.92 0.0
O694 O 0.07712 0.23305 0.924 0.0
Fe695 Fe 0.05778 0.28499 0.90083 0.0
C696 C 0.10836 0.18553 0.9655 0.0
O697 O 0.95068 0.25681 0.94356 0.0
O698 O 0.97443 0.15423 0.94645 0.0
O699 O 0.02996 0.35383 0.87976 0.0
O700 O 0.98405 0.43687 0.89743 0.0
O701 O 0.95941 0.43901 0.94063 0.0
O702 O 0.99936 0.3669 0.96175 0.0
O703 O 0.99012 0.13947 0.90566 0.0
O704 O 0.96905 0.24022 0.89706 0.0
C705 C 0.95774 0.40955 0.95663 0.0
O706 O 0.14707 0.33137 0.90222 0.0
O707 O 0.11603 0.43439 0.90543 0.0
O708 O 0.07176 0.23611 0.96654 0.0
O709 O 0.11155 0.14716 0.95101 0.0
C710 C 0.9348 0.20054 0.94831 0.0
C711 C 0.95769 0.1799 0.89643 0.0
C712 C 0.12922 0.15321 0.89094 0.0
O713 O 0.12341 0.13058 0.90786 0.0
O714 O 0.10259 0.2069 0.88495 0.0
C715 C 0.99725 0.40789 0.88159 0.0
O716 O 0.09482 0.43956 0.94571 0.0
O717 O 0.13076 0.3398 0.9469 0.0
C718 C 0.15733 0.39194 0.90077 0.0
C719 C 0.13562 0.39883 0.95155 0.0
C720 C 0.31385 0.96996 0.46276 0.0
C721 C 0.30503 0.9647 0.48232 0.0
H722 H 0.37624 0.95192 0.43908 0.0
C723 C 0.35526 0.93978 0.49326 0.0
H724 H 0.27571 0.98881 0.45402 0.0
C725 C 0.41281 0.91957 0.48484 0.0
C726 C 0.42124 0.92302 0.46521 0.0
H727 H 0.34993 0.93574 0.5084 0.0
H728 H 0.45001 0.89958 0.4937 0.0
C729 C 0.37125 0.94873 0.45425 0.0
C730 C 0.45266 0.07677 0.74942 0.0
C731 C 0.43726 0.0167 0.74119 0.0
H732 H 0.46796 0.1775 0.74476 0.0
C733 C 0.42965 0.01134 0.72162 0.0
H734 H 0.45851 0.08209 0.76453 0.0
C735 C 0.43326 0.06548 0.71056 0.0
C736 C 0.44556 0.12598 0.71881 0.0
H737 H 0.41932 0.96539 0.71486 0.0
H738 H 0.42639 0.05985 0.69549 0.0
C739 C 0.4573 0.13126 0.73822 0.0
C740 C 0.24448 0.22088 -0.00067 0.0
C741 C 0.27315 0.15985 0.00087 0.0
H742 H 0.16724 0.27619 0.98783 0.0
C743 C 0.23959 0.10618 0.99333 0.0
H744 H 0.26801 0.26355 0.00495 0.0
C745 C 0.18289 0.11402 0.98299 0.0
C746 C 0.15703 0.17546 0.98038 0.0
H747 H 0.25779 0.05792 0.99494 0.0
H748 H 0.16063 0.07211 0.97639 0.0
C749 C 0.1865 0.22836 0.98946 0.0
C750 C 0.26573 0.00958 0.23786 0.0
C751 C 0.23085 0.01207 0.25486 0.0
H752 H 0.27516 0.96676 0.21054 0.0
C753 C 0.18095 0.96708 0.25789 0.0
H754 H 0.30383 0.04418 0.23497 0.0
C755 C 0.16419 0.92254 0.24378 0.0
C756 C 0.19651 0.92285 0.2263 0.0
H757 H 0.1536 0.96768 0.27094 0.0
H758 H 0.12418 0.88985 0.24629 0.0
C759 C 0.24878 0.9655 0.22375 0.0
C760 C 0.32037 0.09276 0.6029 0.0
C761 C 0.32219 0.12205 0.58516 0.0
H762 H 0.35418 0.09376 0.63133 0.0
C763 C 0.36647 0.1728 0.58226 0.0
H764 H 0.28629 0.05423 0.60575 0.0
C765 C 0.40573 0.19568 0.59704 0.0
C766 C 0.40081 0.16877 0.61508 0.0
H767 H 0.36927 0.19613 0.56872 0.0
H768 H 0.43719 0.23666 0.5946 0.0
C769 C 0.35902 0.11587 0.61765 0.0
C770 C 0.15993 0.02713 0.85267 0.0
C771 C 0.20689 0.98843 0.86156 0.0
H772 H 0.09939 0.11111 0.85448 0.0
C773 C 0.23546 0.01358 0.87812 0.0
H774 H 0.13796 0.01175 0.83953 0.0
C775 C 0.21569 0.07227 0.88601 0.0
C776 C 0.16497 0.10788 0.87813 0.0
H777 H 0.27102 0.98676 0.88583 0.0
H778 H 0.23681 0.08733 0.89934 0.0
C779 C 0.13887 0.08568 0.86093 0.0
C780 C 0.24322 0.02976 0.11006 0.0
C781 C 0.256 0.99899 0.09267 0.0
H782 H 0.19495 0.0258 0.13671 0.0
C783 C 0.22019 0.94279 0.08807 0.0
H784 H 0.26998 0.07236 0.11441 0.0
C785 C 0.17664 0.91575 0.10111 0.0
C786 C 0.16818 0.94431 0.11901 0.0
H787 H 0.22782 0.91811 0.07473 0.0
H788 H 0.15361 0.87006 0.09775 0.0
C789 C 0.20001 1.0029 0.12298 0.0
C790 C 0.35055 0.00654 0.35851 0.0
C791 C 0.37865 0.06823 0.35965 0.0
H792 H 0.35437 0.90844 0.36711 0.0
C793 C 0.43114 0.07855 0.37193 0.0
H794 H 0.31037 0.99687 0.34909 0.0
C795 C 0.45643 0.0279 0.38231 0.0
C796 C 0.43014 0.96547 0.38056 0.0
H797 H 0.45333 0.12574 0.37333 0.0
H798 H 0.49806 0.03738 0.3912 0.0
C799 C 0.37608 0.95574 0.36879 0.0
C800 C 0.71099 0.10419 0.60108 0.0
C801 C 0.77357 0.084 0.60582 0.0
H802 H 0.6249 0.15157 0.61056 0.0
C803 C 0.79237 0.08462 0.62481 0.0
H804 H 0.69538 0.10369 0.58651 0.0
C805 C 0.75233 0.11225 0.6385 0.0
C806 C 0.6926 0.13865 0.63342 0.0
H807 H 0.84043 0.06955 0.62881 0.0
H808 H 0.77047 0.11813 0.65275 0.0
C809 C 0.67042 0.13086 0.61485 0.0
C810 C 0.74979 0.98612 0.37201 0.0
C811 C 0.71221 0.02934 0.36147 0.0
H812 H 0.75143 0.89869 0.38801 0.0
C813 C 0.64607 0.01486 0.359 0.0
H814 H 0.80097 0.99453 0.37416 0.0
C815 C 0.6192 0.95837 0.36596 0.0
C816 C 0.65646 0.91556 0.37645 0.0
H817 H 0.61405 0.04733 0.35185 0.0
H818 H 0.56817 0.94934 0.36359 0.0
C819 C 0.72184 0.93046 0.37974 0.0
C820 C 0.78489 0.01576 0.13984 0.0
C821 C 0.80739 0.02856 0.12157 0.0
H822 H 0.8037 0.96968 0.16603 0.0
C823 C 0.8719 0.01416 0.11691 0.0
H824 H 0.73535 0.02605 0.14381 0.0
C825 C 0.91141 0.98255 0.12975 0.0
C826 C 0.88656 0.96402 0.14732 0.0
H827 H 0.89061 0.02418 0.10296 0.0
H828 H 0.95924 0.96768 0.12527 0.0
C829 C 0.82401 0.98347 0.15256 0.0
C830 C 0.84654 0.06853 0.87053 0.0
C831 C 0.88514 0.0541 0.85455 0.0
H832 H 0.83945 0.12092 0.89676 0.0
C833 C 0.93882 0.09452 0.85094 0.0
H834 H 0.80291 0.04159 0.87357 0.0
C835 C 0.95596 0.14378 0.86355 0.0
C836 C 0.92192 0.15223 0.88047 0.0
H837 H 0.9709 0.08612 0.83914 0.0
H838 H 1.00011 0.17078 0.86103 0.0
C839 C 0.86589 0.11575 0.88363 0.0
C840 C 0.83853 0.95408 0.44507 0.0
C841 C 0.84505 0.00471 0.45824 0.0
H842 H 0.77316 0.8903 0.43056 0.0
C843 C 0.78924 0.03868 0.46382 0.0
H844 H 0.88054 0.92742 0.44037 0.0
C845 C 0.72768 0.01717 0.45825 0.0
C846 C 0.7213 0.96243 0.44669 0.0
H847 H 0.79255 0.07795 0.47395 0.0
H848 H 0.68524 0.0396 0.46435 0.0
C849 C 0.77714 0.93327 0.43931 0.0
C850 C 0.95405 0.97119 0.25803 0.0
C851 C 0.90586 0.01852 0.25676 0.0
H852 H 1.00586 0.89544 0.24392 0.0
C853 C 0.87386 0.02545 0.23933 0.0
H854 H 0.97938 0.96327 0.27111 0.0
C855 C 0.88805 0.98508 0.22394 0.0
C856 C 0.93614 0.93843 0.22537 0.0
H857 H 0.83816 0.06253 0.23738 0.0
H858 H 0.86196 0.99075 0.21084 0.0
C859 C 0.96939 0.93213 0.24245 0.0
C860 C 0.76728 0.23491 0.96861 0.0
C861 C 0.74962 0.17569 0.97658 0.0
H862 H 0.83836 0.289 0.95347 0.0
C863 C 0.79284 0.1238 0.97448 0.0
H864 H 0.73551 0.27596 0.96971 0.0
C865 C 0.85208 0.13116 0.96499 0.0
C866 C 0.87012 0.19071 0.95736 0.0
H867 H 0.78213 0.07775 0.98075 0.0
H868 H 0.88438 0.09048 0.96403 0.0
C869 C 0.82651 0.2423 0.95917 0.0
C870 C 0.65897 0.06294 0.73527 0.0
C871 C 0.72242 0.06584 0.74251 0.0
H872 H 0.59089 0.09934 0.71535 0.0
C873 C 0.76667 0.10895 0.73427 0.0
H874 H 0.62383 0.02941 0.74095 0.0
C875 C 0.74791 0.14871 0.71947 0.0
C876 C 0.68434 0.14646 0.71236 0.0
H877 H 0.8158 0.11275 0.73947 0.0
H878 H 0.78326 0.18195 0.71378 0.0
C879 C 0.64024 0.10258 0.72039 0.0
C880 C 0.84976 0.40842 -0.00046 0.0
C881 C 0.79129 0.4303 0.99199 0.0
H882 H 0.94892 0.3856 0.99429 0.0
C883 C 0.78862 0.44637 0.97284 0.0
H884 H 0.8536 0.39654 0.01431 0.0
C885 C 0.84354 0.44203 0.96155 0.0
C886 C 0.90196 0.42029 0.9691 0.0
H887 H 0.7439 0.46203 0.9665 0.0
H888 H 0.83965 0.454 0.94679 0.0
C889 C 0.90455 0.40306 0.98816 0.0
C890 C 0.9923 0.59017 0.24992 0.0
C891 C 0.93218 0.55915 0.25227 0.0
H892 H 0.04553 0.66508 0.23632 0.0
C893 C 0.87778 0.5839 0.243 0.0
H894 H 0.03522 0.57264 0.25676 0.0
C895 C 0.88399 0.63592 0.23092 0.0
C896 C 0.94443 0.66551 0.22817 0.0
H897 H 0.83013 0.563 0.24497 0.0
H898 H 0.84141 0.6528 0.22368 0.0
C899 C 0.99825 0.64314 0.23814 0.0
C900 C 0.74623 0.56754 0.48736 0.0
C901 C 0.80753 0.58379 0.48008 0.0
H902 H 0.64362 0.58327 0.48575 0.0
C903 C 0.81138 0.61796 0.4632 0.0
H904 H 0.74217 0.54168 0.50047 0.0
C905 C 0.75519 0.63983 0.45454 0.0
C906 C 0.69421 0.62879 0.46273 0.0
H907 H 0.85805 0.63106 0.45734 0.0
H908 H 0.7598 0.67061 0.44238 0.0
C909 C 0.68987 0.5906 0.47885 0.0
C910 C 0.64604 0.54044 0.72122 0.0
C911 C 0.64556 0.53746 0.74093 0.0
H912 H 0.65083 0.48834 0.6953 0.0
C913 C 0.64064 0.47749 0.74976 0.0
H914 H 0.6488 0.58607 0.71409 0.0
C915 C 0.64146 0.42099 0.7389 0.0
C916 C 0.6485 0.42463 0.71929 0.0
H917 H 0.64041 0.47415 0.76498 0.0
H918 H 0.63972 0.37486 0.7458 0.0
C919 C 0.64839 0.48456 0.71051 0.0
C920 C 0.78286 0.64043 0.11659 0.0
C921 C 0.73698 0.68429 0.10982 0.0
H922 H 0.87269 0.62715 0.13104 0.0
C923 C 0.75362 0.75026 0.11011 0.0
H924 H 0.77342 0.58917 0.11608 0.0
C925 C 0.81228 0.77172 0.1181 0.0
C926 C 0.85559 0.72782 0.12598 0.0
H927 H 0.71996 0.78577 0.10512 0.0
H928 H 0.82127 0.82299 0.11951 0.0
C929 C 0.8409 0.66194 0.12471 0.0
C930 C 0.62718 0.50458 0.37461 0.0
C931 C 0.69426 0.49357 0.37483 0.0
H932 H 0.55024 0.57076 0.37937 0.0
C933 C 0.73497 0.54319 0.38199 0.0
H934 H 0.59359 0.46764 0.36986 0.0
C935 C 0.70926 0.60231 0.38823 0.0
C936 C 0.64261 0.61371 0.38692 0.0
H937 H 0.78696 0.53749 0.38217 0.0
H938 H 0.7416 0.63978 0.3934 0.0
C939 C 0.60204 0.56391 0.38023 0.0
C940 C 0.77352 0.4701 0.60438 0.0
C941 C 0.7738 0.4408 0.58641 0.0
H942 H 0.73867 0.46743 0.63276 0.0
C943 C 0.73234 0.38782 0.58306 0.0
H944 H 0.80555 0.51026 0.60757 0.0
C945 C 0.69345 0.36325 0.59759 0.0
C946 C 0.69612 0.39054 0.61583 0.0
H947 H 0.73143 0.36423 0.56936 0.0
H948 H 0.66413 0.32078 0.5948 0.0
C949 C 0.73544 0.44518 0.61889 0.0
C950 C 0.89518 0.52088 0.85457 0.0
C951 C 0.94188 0.5652 0.84806 0.0
H952 H 0.87628 0.43339 0.86936 0.0
C953 C 0.00742 0.54678 0.84871 0.0
H954 H 0.84416 0.53199 0.85391 0.0
C955 C 0.02572 0.48875 0.85723 0.0
C956 C 0.97901 0.44728 0.86512 0.0
H957 H 0.045 0.57915 0.84383 0.0
H958 H 0.07674 0.47947 0.85927 0.0
C959 C 0.91345 0.4631 0.86298 0.0
C960 C 0.21539 0.66772 0.09959 0.0
C961 C 0.25921 0.62425 0.10747 0.0
H962 H 0.13916 0.73503 0.10489 0.0
C963 C 0.25089 0.60637 0.12638 0.0
H964 H 0.22 0.68171 0.08499 0.0
C965 C 0.20401 0.63628 0.13765 0.0
C966 C 0.16403 0.68368 0.13013 0.0
H967 H 0.28401 0.57328 0.13289 0.0
H968 H 0.20314 0.62681 0.15264 0.0
C969 C 0.16812 0.69714 0.11084 0.0
C970 C 0.27084 0.51601 0.88389 0.0
C971 C 0.26404 0.50688 0.86433 0.0
H972 H 0.2439 0.48314 0.91129 0.0
C973 C 0.23775 0.44832 0.85755 0.0
H974 H 0.29077 0.56043 0.88962 0.0
C975 C 0.21192 0.40336 0.87008 0.0
C976 C 0.21154 0.41664 0.88952 0.0
H977 H 0.23312 0.43924 0.84255 0.0
H978 H 0.18547 0.36224 0.86444 0.0
C979 C 0.24471 0.4713 0.89636 0.0
C980 C 0.38046 0.46076 0.60668 0.0
C981 C 0.3188 0.48001 0.61292 0.0
H982 H 0.46792 0.41155 0.61355 0.0
C983 C 0.30353 0.4759 0.63215 0.0
H984 H 0.39364 0.46424 0.59194 0.0
C985 C 0.34596 0.44593 0.64446 0.0
C986 C 0.40455 0.42038 0.63777 0.0
H987 H 0.2564 0.49028 0.63734 0.0
H988 H 0.33042 0.43758 0.65883 0.0
C989 C 0.42334 0.43148 0.61908 0.0
C990 C 0.4083 0.47594 0.39313 0.0
C991 C 0.35652 0.47932 0.38049 0.0
H992 H 0.47639 0.52824 0.41002 0.0
C993 C 0.32705 0.53882 0.37731 0.0
H994 H 0.4317 0.43047 0.39573 0.0
C995 C 0.35318 0.59503 0.38516 0.0
C996 C 0.40871 0.59242 0.39648 0.0
H997 H 0.28733 0.54264 0.36746 0.0
H998 H 0.3323 0.64071 0.3814 0.0
C999 C 0.43378 0.53203 0.40126 0.0
C1000 C 0.27159 0.39445 0.98737 0.0
C1001 C 0.25841 0.4491 -0.00138 0.0
H1002 H 0.2442 0.33632 0.96346 0.0
C1003 C 0.20736 0.4893 0.99343 0.0
H1004 H 0.31182 0.36357 0.99067 0.0
C1005 C 0.16907 0.47409 0.97773 0.0
C1006 C 0.18089 0.41826 0.96685 0.0
H1007 H 0.19614 0.53187 0.00174 0.0
H1008 H 0.12894 0.50522 0.97448 0.0
C1009 C 0.23332 0.37922 0.97166 0.0
C1010 C 0.45043 0.49209 0.73701 0.0
C1011 C 0.39231 0.48415 0.74719 0.0
H1012 H 0.51008 0.45993 0.71406 0.0
C1013 C 0.34871 0.43584 0.7411 0.0
H1014 H 0.48461 0.52972 0.7409 0.0
C1015 C 0.3633 0.39591 0.72556 0.0
C1016 C 0.42188 0.40318 0.71557 0.0
H1017 H 0.3036 0.42805 0.74856 0.0
H1018 H 0.32902 0.3585 0.72159 0.0
C1019 C 0.46488 0.45232 0.72144 0.0
C1020 C 0.28857 0.73183 0.47447 0.0
C1021 C 0.28153 0.67228 0.48345 0.0
H1022 H 0.35324 0.79734 0.46057 0.0
C1023 C 0.3373 0.63528 0.48651 0.0
H1024 H 0.24674 0.76144 0.47186 0.0
C1025 C 0.39845 0.65712 0.48076 0.0
C1026 C 0.40494 0.71566 0.47138 0.0
H1027 H 0.33378 0.58932 0.49341 0.0
H1028 H 0.44028 0.62711 0.483 0.0
C1029 C 0.34952 0.75268 0.46819 0.0
C1030 C 0.15253 0.56303 0.2201 0.0
C1031 C 0.2143 0.5614 0.22826 0.0
H1032 H 0.08764 0.61198 0.20198 0.0
C1033 C 0.26065 0.6076 0.22289 0.0
H1034 H 0.11614 0.5274 0.22368 0.0
C1035 C 0.2443 0.65659 0.21041 0.0
C1036 C 0.18138 0.65999 0.20298 0.0
H1037 H 0.30869 0.60751 0.22896 0.0
H1038 H 0.28013 0.69314 0.20719 0.0
C1039 C 0.13639 0.61142 0.20755 0.0
loop_
_geom_bond_atom_site_label_1
_geom_bond_atom_site_label_2
_geom_bond_distance
_geom_bond_site_symmetry_2
_ccdc_geom_bond_type
H0 O26 0.856 . S
H1 O29 0.854 . S
H2 C37 0.930 . S
H3 C38 0.930 . S
H4 C40 0.930 1_565 S
H5 C41 0.930 1_565 S
H6 C43 0.931 . S
H7 C44 0.930 . S
H8 C46 0.930 . S
H9 C47 0.929 . S
H10 C49 0.930 . S
H11 C50 0.931 . S
H12 C52 0.930 . S
H13 C53 0.915 1_565 S
H14 C55 0.931 . S
H15 C56 0.930 . S
H16 C58 0.930 . S
H17 C59 0.932 . S
H18 C61 0.930 1_445 S
H19 C62 0.929 . S
H20 C64 0.931 . S
H21 C65 0.930 . S
H22 C67 0.929 . S
H23 C68 0.931 1_545 S
H24 C70 0.930 . S
H25 C71 0.929 . S
O26 H0 0.856 . S
O26 C72 1.300 . S
O27 C72 1.209 . S
O28 C73 1.199 . S
O29 H1 0.854 . S
O29 C73 1.297 . S
C30 C31 1.404 . S
C30 C35 1.397 . S
C30 C36 1.492 . S
C31 C30 1.404 . S
C31 C32 1.396 1_455 S
C31 C42 1.492 . S
C32 C31 1.396 1_655 S
C32 C33 1.397 . S
C32 C48 1.509 . S
C33 C32 1.397 . S
C33 C34 1.412 1_545 S
C33 C54 1.483 1_545 S
C34 C33 1.412 1_565 S
C34 C35 1.388 1_665 S
C34 C60 1.490 . S
C35 C30 1.397 . S
C35 C34 1.388 1_445 S
C35 C66 1.519 1_545 S
C36 C30 1.492 . S
C36 C37 1.363 . S
C36 C41 1.390 . S
C37 H2 0.930 . S
C37 C36 1.363 . S
C37 C38 1.372 . S
C38 H3 0.930 . S
C38 C37 1.372 . S
C38 C39 1.383 . S
C39 C38 1.383 . S
C39 C40 1.395 . S
C40 H4 0.930 1_545 S
C40 C39 1.395 . S
C40 C41 1.362 . S
C41 H5 0.930 1_545 S
C41 C36 1.390 . S
C41 C40 1.362 . S
C42 C31 1.492 . S
C42 C43 1.377 . S
C42 C47 1.397 . S
C43 H6 0.931 . S
C43 C42 1.377 . S
C43 C44 1.376 . S
C44 H7 0.930 . S
C44 C43 1.376 . S
C44 C45 1.376 . S
C45 C44 1.376 . S
C45 C46 1.378 . S
C45 C72 1.486 . S
C46 H8 0.930 . S
C46 C45 1.378 . S
C46 C47 1.376 . S
C47 H9 0.929 . S
C47 C42 1.397 . S
C47 C46 1.376 . S
C48 C32 1.509 . S
C48 C49 1.391 . S
C48 C53 1.386 . S
C49 H10 0.930 . S
C49 C48 1.391 . S
C49 C50 1.375 . S
C50 H11 0.931 . S
C50 C49 1.375 . S
C50 C51 1.375 . S
C51 C50 1.375 . S
C51 C52 1.361 . S
C52 H12 0.930 . S
C52 C51 1.361 . S
C52 C53 1.399 . S
C53 H13 0.915 1_545 S
C53 C48 1.386 . S
C53 C52 1.399 . S
C54 C33 1.483 1_565 S
C54 C55 1.390 1_565 S
C54 C59 1.365 . S
C55 H14 0.931 . S
C55 C54 1.390 1_545 S
C55 C56 1.372 . S
C56 H15 0.930 . S
C56 C55 1.372 . S
C56 C57 1.397 1_545 S
C57 C56 1.397 1_565 S
C57 C58 1.390 . S
C57 C73 1.476 . S
C58 H16 0.930 . S
C58 C57 1.390 . S
C58 C59 1.366 . S
C59 H17 0.932 . S
C59 C54 1.365 . S
C59 C58 1.366 . S
C60 C34 1.490 . S
C60 C61 1.380 . S
C60 C65 1.386 . S
C61 H18 0.930 1_665 S
C61 C60 1.380 . S
C61 C62 1.381 . S
C62 H19 0.929 . S
C62 C61 1.381 . S
C62 C63 1.371 . S
C63 C62 1.371 . S
C63 C64 1.380 . S
C64 H20 0.931 . S
C64 C63 1.380 . S
C64 C65 1.387 . S
C65 H21 0.930 . S
C65 C60 1.386 . S
C65 C64 1.387 . S
C66 C35 1.519 1_565 S
C66 C67 1.377 1_565 S
C66 C71 1.361 . S
C67 H22 0.929 . S
C67 C66 1.377 1_545 S
C67 C68 1.386 1_545 S
C68 H23 0.931 1_565 S
C68 C67 1.386 1_565 S
C68 C69 1.363 . S
C69 C68 1.363 . S
C69 C70 1.385 . S
C70 H24 0.930 . S
C70 C69 1.385 . S
C70 C71 1.396 . S
C71 H25 0.929 . S
C71 C66 1.361 . S
C71 C70 1.396 . S
C72 O26 1.300 . S
C72 O27 1.209 . S
C72 C45 1.486 . S
C73 O28 1.199 . S
C73 O29 1.297 . S
C73 C57 1.476 . S
H74 O100 0.856 . S
H75 O103 0.854 . S
H76 C111 0.930 . S
H77 C112 0.930 . S
H78 C114 0.930 . S
H79 C115 0.930 . S
H80 C117 0.931 . S
H81 C118 0.930 . S
H82 C120 0.930 . S
H83 C121 0.929 . S
H84 C123 0.930 . S
H85 C124 0.931 . S
H86 C126 0.930 . S
H87 C127 0.929 . S
H88 C129 0.931 . S
H89 C130 0.930 . S
H90 C132 0.930 . S
H91 C133 0.932 . S
H92 C135 0.930 . S
H93 C136 0.929 . S
H94 C138 0.931 . S
H95 C139 0.930 . S
H96 C141 0.929 . S
H97 C142 0.931 . S
H98 C144 0.930 . S
H99 C145 0.929 . S
O100 H74 0.856 . S
O100 C146 1.300 . S
O101 C146 1.209 . S
O102 C147 1.199 . S
O103 H75 0.854 . S
O103 C147 1.297 . S
C104 C105 1.404 . S
C104 C109 1.397 . S
C104 C110 1.492 . S
C105 C104 1.404 . S
C105 C106 1.396 . S
C105 C116 1.492 . S
C106 C105 1.396 . S
C106 C107 1.397 . S
C106 C122 1.509 . S
C107 C106 1.397 . S
C107 C108 1.412 . S
C107 C128 1.485 . S
C108 C107 1.412 . S
C108 C109 1.388 . S
C108 C134 1.490 . S
C109 C104 1.397 . S
C109 C108 1.388 . S
C109 C140 1.519 . S
C110 C104 1.492 . S
C110 C111 1.363 . S
C110 C115 1.390 . S
C111 H76 0.930 . S
C111 C110 1.363 . S
C111 C112 1.372 . S
C112 H77 0.930 . S
C112 C111 1.372 . S
C112 C113 1.383 . S
C113 C112 1.383 . S
C113 C114 1.395 . S
C114 H78 0.930 . S
C114 C113 1.395 . S
C114 C115 1.362 . S
C115 H79 0.930 . S
C115 C110 1.390 . S
C115 C114 1.362 . S
C116 C105 1.492 . S
C116 C117 1.377 . S
C116 C121 1.397 . S
C117 H80 0.931 . S
C117 C116 1.377 . S
C117 C118 1.376 . S
C118 H81 0.930 . S
C118 C117 1.376 . S
C118 C119 1.376 . S
C119 C118 1.376 . S
C119 C120 1.378 . S
C119 C146 1.486 . S
C120 H82 0.930 . S
C120 C119 1.378 . S
C120 C121 1.376 . S
C121 H83 0.929 . S
C121 C116 1.397 . S
C121 C120 1.376 . S
C122 C106 1.509 . S
C122 C123 1.391 . S
C122 C127 1.386 . S
C123 H84 0.930 . S
C123 C122 1.391 . S
C123 C124 1.375 1_565 S
C124 H85 0.931 . S
C124 C123 1.375 1_545 S
C124 C125 1.375 . S
C125 C124 1.375 . S
C125 C126 1.361 1_545 S
C126 H86 0.930 . S
C126 C125 1.361 1_565 S
C126 C127 1.399 . S
C127 H87 0.929 . S
C127 C122 1.386 . S
C127 C126 1.399 . S
C128 C107 1.485 . S
C128 C129 1.394 . S
C128 C133 1.360 . S
C129 H88 0.931 . S
C129 C128 1.394 . S
C129 C130 1.372 1_565 S
C130 H89 0.930 . S
C130 C129 1.372 1_545 S
C130 C131 1.397 . S
C131 C130 1.397 . S
C131 C132 1.390 . S
C131 C147 1.476 . S
C132 H90 0.930 . S
C132 C131 1.390 . S
C132 C133 1.366 1_545 S
C133 H91 0.932 . S
C133 C128 1.360 . S
C133 C132 1.366 1_565 S
C134 C108 1.490 . S
C134 C135 1.380 . S
C134 C139 1.386 . S
C135 H92 0.930 . S
C135 C134 1.380 . S
C135 C136 1.381 . S
C136 H93 0.929 . S
C136 C135 1.381 . S
C136 C137 1.371 . S
C137 C136 1.371 . S
C137 C138 1.380 . S
C138 H94 0.931 . S
C138 C137 1.380 . S
C138 C139 1.387 . S
C139 H95 0.930 . S
C139 C134 1.386 . S
C139 C138 1.387 . S
C140 C109 1.519 . S
C140 C141 1.377 . S
C140 C145 1.361 . S
C141 H96 0.929 . S
C141 C140 1.377 . S
C141 C142 1.386 . S
C142 H97 0.931 . S
C142 C141 1.386 . S
C142 C143 1.363 . S
C143 C142 1.363 . S
C143 C144 1.385 . S
C144 H98 0.930 . S
C144 C143 1.385 . S
C144 C145 1.396 . S
C145 H99 0.929 . S
C145 C140 1.361 . S
C145 C144 1.396 . S
C146 O100 1.300 . S
C146 O101 1.209 . S
C146 C119 1.486 . S
C147 O102 1.199 . S
C147 O103 1.297 . S
C147 C131 1.476 . S
H148 O174 0.856 . S
H149 O177 0.854 . S
H150 C185 0.930 . S
H151 C186 0.930 . S
H152 C188 0.930 . S
H153 C189 0.930 . S
H154 C191 0.931 . S
H155 C192 0.930 . S
H156 C194 0.930 1_545 S
H157 C195 0.929 . S
H158 C197 0.930 . S
H159 C198 0.931 . S
H160 C200 0.930 . S
H161 C201 0.929 . S
H162 C203 0.931 . S
H163 C204 0.930 . S
H164 C206 0.930 . S
H165 C207 0.932 . S
H166 C209 0.930 . S
H167 C210 0.929 . S
H168 C212 0.931 . S
H169 C213 0.930 . S
H170 C215 0.929 . S
H171 C216 0.931 . S
H172 C218 0.930 . S
H173 C219 0.929 . S
O174 H148 0.856 . S
O174 C220 1.300 . S
O175 C220 1.209 . S
O176 C221 1.199 . S
O177 H149 0.854 . S
O177 C221 1.297 . S
C178 C179 1.404 . S
C178 C183 1.397 . S
C178 C184 1.492 . S
C179 C178 1.404 . S
C179 C180 1.396 . S
C179 C190 1.492 1_545 S
C180 C179 1.396 . S
C180 C181 1.397 . S
C180 C196 1.509 . S
C181 C180 1.397 . S
C181 C182 1.412 . S
C181 C202 1.485 . S
C182 C181 1.412 . S
C182 C183 1.388 . S
C182 C208 1.490 . S
C183 C178 1.397 . S
C183 C182 1.388 . S
C183 C214 1.519 . S
C184 C178 1.492 . S
C184 C185 1.363 1_545 S
C184 C189 1.390 . S
C185 H150 0.930 . S
C185 C184 1.363 1_565 S
C185 C186 1.372 . S
C186 H151 0.930 . S
C186 C185 1.372 . S
C186 C187 1.383 . S
C187 C186 1.383 . S
C187 C188 1.395 1_565 S
C188 H152 0.930 . S
C188 C187 1.395 1_545 S
C188 C189 1.362 . S
C189 H153 0.930 . S
C189 C184 1.390 . S
C189 C188 1.362 . S
C190 C179 1.492 1_565 S
C190 C191 1.377 . S
C190 C195 1.397 1_565 S
C191 H154 0.931 . S
C191 C190 1.377 . S
C191 C192 1.376 . S
C192 H155 0.930 . S
C192 C191 1.376 . S
C192 C193 1.376 . S
C193 C192 1.376 . S
C193 C194 1.378 . S
C193 C220 1.486 . S
C194 H156 0.930 1_565 S
C194 C193 1.378 . S
C194 C195 1.376 1_565 S
C195 H157 0.929 . S
C195 C190 1.397 1_545 S
C195 C194 1.376 1_545 S
C196 C180 1.509 . S
C196 C197 1.391 1_545 S
C196 C201 1.386 . S
C197 H158 0.930 . S
C197 C196 1.391 1_565 S
C197 C198 1.375 . S
C198 H159 0.931 . S
C198 C197 1.375 . S
C198 C199 1.375 . S
C199 C198 1.375 . S
C199 C200 1.361 1_565 S
C200 H160 0.930 . S
C200 C199 1.361 1_545 S
C200 C201 1.399 . S
C201 H161 0.929 . S
C201 C196 1.386 . S
C201 C200 1.399 . S
C202 C181 1.485 . S
C202 C203 1.394 . S
C202 C207 1.360 . S
C203 H162 0.931 . S
C203 C202 1.394 . S
C203 C204 1.372 . S
C204 H163 0.930 . S
C204 C203 1.372 . S
C204 C205 1.397 . S
C205 C204 1.397 . S
C205 C206 1.390 . S
C205 C221 1.476 . S
C206 H164 0.930 . S
C206 C205 1.390 . S
C206 C207 1.366 . S
C207 H165 0.932 . S
C207 C202 1.360 . S
C207 C206 1.366 . S
C208 C182 1.490 . S
C208 C209 1.380 . S
C208 C213 1.386 . S
C209 H166 0.930 . S
C209 C208 1.380 . S
C209 C210 1.381 1_554 S
C210 H167 0.929 . S
C210 C209 1.381 1_556 S
C210 C211 1.371 . S
C211 C210 1.371 . S
C211 C212 1.380 1_556 S
C212 H168 0.931 . S
C212 C211 1.380 1_554 S
C212 C213 1.387 . S
C213 H169 0.930 . S
C213 C208 1.386 . S
C213 C212 1.387 . S
C214 C183 1.519 . S
C214 C215 1.377 . S
C214 C219 1.361 . S
C215 H170 0.929 . S
C215 C214 1.377 . S
C215 C216 1.386 . S
C216 H171 0.931 . S
C216 C215 1.386 . S
C216 C217 1.363 . S
C217 C216 1.363 . S
C217 C218 1.385 . S
C218 H172 0.930 . S
C218 C217 1.385 . S
C218 C219 1.396 . S
C219 H173 0.929 . S
C219 C214 1.361 . S
C219 C218 1.396 . S
C220 O174 1.300 . S
C220 O175 1.209 . S
C220 C193 1.486 . S
C221 O176 1.199 . S
C221 O177 1.297 . S
C221 C205 1.476 . S
H222 O248 0.856 . S
H223 O251 0.854 . S
H224 C259 0.930 . S
H225 C260 0.930 . S
H226 C262 0.930 . S
H227 C263 0.930 . S
H228 C265 0.931 . S
H229 C266 0.930 . S
H230 C268 0.930 . S
H231 C269 0.929 . S
H232 C271 0.930 . S
H233 C272 0.931 . S
H234 C274 0.930 . S
H235 C275 0.929 . S
H236 C277 0.931 . S
H237 C278 0.930 . S
H238 C280 0.930 . S
H239 C281 0.932 . S
H240 C283 0.930 . S
H241 C284 0.929 . S
H242 C286 0.931 . S
H243 C287 0.930 . S
H244 C289 0.929 . S
H245 C290 0.931 . S
H246 C292 0.930 . S
H247 C293 0.929 . S
O248 H222 0.856 . S
O248 C294 1.300 . S
O249 C294 1.209 . S
O250 C295 1.199 . S
O251 H223 0.854 . S
O251 C295 1.297 . S
C252 C253 1.404 . S
C252 C257 1.397 . S
C252 C258 1.492 . S
C253 C252 1.404 . S
C253 C254 1.396 . S
C253 C264 1.492 . S
C254 C253 1.396 . S
C254 C255 1.397 . S
C254 C270 1.509 . S
C255 C254 1.397 . S
C255 C256 1.412 . S
C255 C276 1.485 . S
C256 C255 1.412 . S
C256 C257 1.388 . S
C256 C282 1.490 . S
C257 C252 1.397 . S
C257 C256 1.388 . S
C257 C288 1.519 . S
C258 C252 1.492 . S
C258 C259 1.363 . S
C258 C263 1.390 . S
C259 H224 0.930 . S
C259 C258 1.363 . S
C259 C260 1.372 . S
C260 H225 0.930 . S
C260 C259 1.372 . S
C260 C261 1.383 . S
C261 C260 1.383 . S
C261 C262 1.395 . S
C262 H226 0.930 . S
C262 C261 1.395 . S
C262 C263 1.362 . S
C263 H227 0.930 . S
C263 C258 1.390 . S
C263 C262 1.362 . S
C264 C253 1.492 . S
C264 C265 1.377 . S
C264 C269 1.397 . S
C265 H228 0.931 . S
C265 C264 1.377 . S
C265 C266 1.376 . S
C266 H229 0.930 . S
C266 C265 1.376 . S
C266 C267 1.376 . S
C267 C266 1.376 . S
C267 C268 1.378 . S
C267 C294 1.486 . S
C268 H230 0.930 . S
C268 C267 1.378 . S
C268 C269 1.376 . S
C269 H231 0.929 . S
C269 C264 1.397 . S
C269 C268 1.376 . S
C270 C254 1.509 . S
C270 C271 1.391 . S
C270 C275 1.386 . S
C271 H232 0.930 . S
C271 C270 1.391 . S
C271 C272 1.375 . S
C272 H233 0.931 . S
C272 C271 1.375 . S
C272 C273 1.375 . S
C273 C272 1.375 . S
C273 C274 1.361 . S
C274 H234 0.930 . S
C274 C273 1.361 . S
C274 C275 1.399 . S
C275 H235 0.929 . S
C275 C270 1.386 . S
C275 C274 1.399 . S
C276 C255 1.485 . S
C276 C277 1.394 . S
C276 C281 1.360 . S
C277 H236 0.931 . S
C277 C276 1.394 . S
C277 C278 1.372 . S
C278 H237 0.930 . S
C278 C277 1.372 . S
C278 C279 1.397 . S
C279 C278 1.397 . S
C279 C280 1.390 . S
C279 C295 1.476 . S
C280 H238 0.930 . S
C280 C279 1.390 . S
C280 C281 1.366 . S
C281 H239 0.932 . S
C281 C276 1.360 . S
C281 C280 1.366 . S
C282 C256 1.490 . S
C282 C283 1.380 . S
C282 C287 1.386 . S
C283 H240 0.930 . S
C283 C282 1.380 . S
C283 C284 1.381 . S
C284 H241 0.929 . S
C284 C283 1.381 . S
C284 C285 1.371 . S
C285 C284 1.371 . S
C285 C286 1.380 . S
C286 H242 0.931 . S
C286 C285 1.380 . S
C286 C287 1.387 . S
C287 H243 0.930 . S
C287 C282 1.386 . S
C287 C286 1.387 . S
C288 C257 1.519 . S
C288 C289 1.377 . S
C288 C293 1.361 . S
C289 H244 0.929 . S
C289 C288 1.377 . S
C289 C290 1.386 . S
C290 H245 0.931 . S
C290 C289 1.386 . S
C290 C291 1.363 . S
C291 C290 1.363 . S
C291 C292 1.385 . S
C292 H246 0.930 . S
C292 C291 1.385 . S
C292 C293 1.396 . S
C293 H247 0.929 . S
C293 C288 1.361 . S
C293 C292 1.396 . S
C294 O248 1.300 . S
C294 O249 1.209 . S
C294 C267 1.486 . S
C295 O250 1.199 . S
C295 O251 1.297 . S
C295 C279 1.476 . S
H296 O322 0.856 . S
H297 O325 0.854 . S
H298 C333 0.930 . S
H299 C334 0.930 . S
H300 C336 0.930 . S
H301 C337 0.930 . S
H302 C339 0.931 . S
H303 C340 0.930 . S
H304 C342 0.930 . S
H305 C343 0.929 . S
H306 C345 0.930 . S
H307 C346 0.931 . S
H308 C348 0.930 . S
H309 C349 0.929 . S
H310 C351 0.931 . S
H311 C352 0.930 . S
H312 C354 0.930 . S
H313 C355 0.932 . S
H314 C357 0.930 . S
H315 C358 0.929 . S
H316 C360 0.931 . S
H317 C361 0.930 . S
H318 C363 0.929 . S
H319 C364 0.931 . S
H320 C366 0.930 . S
H321 C367 0.929 . S
O322 H296 0.856 . S
O322 C368 1.300 . S
O323 C368 1.209 1_455 S
O324 C369 1.199 . S
O325 H297 0.854 . S
O325 C369 1.297 . S
C326 C327 1.404 . S
C326 C331 1.397 . S
C326 C332 1.492 . S
C327 C326 1.404 . S
C327 C328 1.396 . S
C327 C338 1.492 . S
C328 C327 1.396 . S
C328 C329 1.397 . S
C328 C344 1.509 . S
C329 C328 1.397 . S
C329 C330 1.412 . S
C329 C350 1.485 . S
C330 C329 1.412 . S
C330 C331 1.388 . S
C330 C356 1.490 . S
C331 C326 1.397 . S
C331 C330 1.388 . S
C331 C362 1.519 . S
C332 C326 1.492 . S
C332 C333 1.363 . S
C332 C337 1.390 . S
C333 H298 0.930 . S
C333 C332 1.363 . S
C333 C334 1.372 . S
C334 H299 0.930 . S
C334 C333 1.372 . S
C334 C335 1.383 . S
C335 C334 1.383 . S
C335 C336 1.395 . S
C336 H300 0.930 . S
C336 C335 1.395 . S
C336 C337 1.362 . S
C337 H301 0.930 . S
C337 C332 1.390 . S
C337 C336 1.362 . S
C338 C327 1.492 . S
C338 C339 1.377 . S
C338 C343 1.397 . S
C339 H302 0.931 . S
C339 C338 1.377 . S
C339 C340 1.376 . S
C340 H303 0.930 . S
C340 C339 1.376 . S
C340 C341 1.376 . S
C341 C340 1.376 . S
C341 C342 1.378 . S
C341 C368 1.486 . S
C342 H304 0.930 . S
C342 C341 1.378 . S
C342 C343 1.376 . S
C343 H305 0.929 . S
C343 C338 1.397 . S
C343 C342 1.376 . S
C344 C328 1.509 . S
C344 C345 1.391 . S
C344 C349 1.386 . S
C345 H306 0.930 . S
C345 C344 1.391 . S
C345 C346 1.375 . S
C346 H307 0.931 . S
C346 C345 1.375 . S
C346 C347 1.375 . S
C347 C346 1.375 . S
C347 C348 1.361 . S
C348 H308 0.930 . S
C348 C347 1.361 . S
C348 C349 1.399 . S
C349 H309 0.929 . S
C349 C344 1.386 . S
C349 C348 1.399 . S
C350 C329 1.485 . S
C350 C351 1.394 . S
C350 C355 1.360 . S
C351 H310 0.931 . S
C351 C350 1.394 . S
C351 C352 1.372 . S
C352 H311 0.930 . S
C352 C351 1.372 . S
C352 C353 1.397 . S
C353 C352 1.397 . S
C353 C354 1.390 . S
C353 C369 1.476 . S
C354 H312 0.930 . S
C354 C353 1.390 . S
C354 C355 1.366 . S
C355 H313 0.932 . S
C355 C350 1.360 . S
C355 C354 1.366 . S
C356 C330 1.490 . S
C356 C357 1.380 . S
C356 C361 1.386 . S
C357 H314 0.930 . S
C357 C356 1.380 . S
C357 C358 1.381 . S
C358 H315 0.929 . S
C358 C357 1.381 . S
C358 C359 1.371 . S
C359 C358 1.371 . S
C359 C360 1.380 . S
C360 H316 0.931 . S
C360 C359 1.380 . S
C360 C361 1.387 . S
C361 H317 0.930 . S
C361 C356 1.386 . S
C361 C360 1.387 . S
C362 C331 1.519 . S
C362 C363 1.377 . S
C362 C367 1.361 . S
C363 H318 0.929 . S
C363 C362 1.377 . S
C363 C364 1.386 . S
C364 H319 0.931 . S
C364 C363 1.386 . S
C364 C365 1.363 . S
C365 C364 1.363 . S
C365 C366 1.385 . S
C366 H320 0.930 . S
C366 C365 1.385 . S
C366 C367 1.396 . S
C367 H321 0.929 . S
C367 C362 1.361 . S
C367 C366 1.396 . S
C368 O322 1.300 . S
C368 O323 1.209 1_655 S
C368 C341 1.486 . S
C369 O324 1.199 . S
C369 O325 1.297 . S
C369 C353 1.476 . S
H370 O396 0.856 . S
H371 O399 0.854 . S
H372 C407 0.930 . S
H373 C408 0.930 . S
H374 C410 0.930 1_545 S
H375 C411 0.930 . S
H376 C413 0.931 . S
H377 C414 0.930 . S
H378 C416 0.930 . S
H379 C417 0.929 . S
H380 C419 0.930 . S
H381 C420 0.931 . S
H382 C422 0.930 . S
H383 C423 0.929 . S
H384 C425 0.931 . S
H385 C426 0.930 . S
H386 C428 0.930 . S
H387 C429 0.932 . S
H388 C431 0.930 . S
H389 C432 0.929 1_455 S
H390 C434 0.931 . S
H391 C435 0.930 . S
H392 C437 0.929 . S
H393 C438 0.931 . S
H394 C440 0.930 . S
H395 C441 0.929 . S
O396 H370 0.856 . S
O396 C442 1.300 . S
O397 C442 1.209 . S
O398 C443 1.199 . S
O399 H371 0.854 . S
O399 C443 1.297 . S
C400 C401 1.404 . S
C400 C405 1.397 . S
C400 C406 1.492 . S
C401 C400 1.404 . S
C401 C402 1.396 . S
C401 C412 1.492 . S
C402 C401 1.396 . S
C402 C403 1.397 . S
C402 C418 1.509 . S
C403 C402 1.397 . S
C403 C404 1.412 . S
C403 C424 1.485 . S
C404 C403 1.412 . S
C404 C405 1.388 . S
C404 C430 1.490 . S
C405 C400 1.397 . S
C405 C404 1.388 . S
C405 C436 1.519 . S
C406 C400 1.492 . S
C406 C407 1.363 . S
C406 C411 1.390 . S
C407 H372 0.930 . S
C407 C406 1.363 . S
C407 C408 1.372 . S
C408 H373 0.930 . S
C408 C407 1.372 . S
C408 C409 1.383 1_565 S
C409 C408 1.383 1_545 S
C409 C410 1.395 1_545 S
C410 H374 0.930 1_565 S
C410 C409 1.395 1_565 S
C410 C411 1.362 . S
C411 H375 0.930 . S
C411 C406 1.390 . S
C411 C410 1.362 . S
C412 C401 1.492 . S
C412 C413 1.377 . S
C412 C417 1.397 . S
C413 H376 0.931 . S
C413 C412 1.377 . S
C413 C414 1.376 . S
C414 H377 0.930 . S
C414 C413 1.376 . S
C414 C415 1.376 . S
C415 C414 1.376 . S
C415 C416 1.378 . S
C415 C442 1.486 . S
C416 H378 0.930 . S
C416 C415 1.378 . S
C416 C417 1.376 . S
C417 H379 0.929 . S
C417 C412 1.397 . S
C417 C416 1.376 . S
C418 C402 1.509 . S
C418 C419 1.391 . S
C418 C423 1.386 . S
C419 H380 0.930 . S
C419 C418 1.391 . S
C419 C420 1.375 . S
C420 H381 0.931 . S
C420 C419 1.375 . S
C420 C421 1.375 . S
C421 C420 1.375 . S
C421 C422 1.361 . S
C422 H382 0.930 . S
C422 C421 1.361 . S
C422 C423 1.399 . S
C423 H383 0.929 . S
C423 C418 1.386 . S
C423 C422 1.399 . S
C424 C403 1.485 . S
C424 C425 1.394 . S
C424 C429 1.360 . S
C425 H384 0.931 . S
C425 C424 1.394 . S
C425 C426 1.372 . S
C426 H385 0.930 . S
C426 C425 1.372 . S
C426 C427 1.397 . S
C427 C426 1.397 . S
C427 C428 1.390 . S
C427 C443 1.476 . S
C428 H386 0.930 . S
C428 C427 1.390 . S
C428 C429 1.366 . S
C429 H387 0.932 . S
C429 C424 1.360 . S
C429 C428 1.366 . S
C430 C404 1.490 . S
C430 C431 1.380 . S
C430 C435 1.386 . S
C431 H388 0.930 . S
C431 C430 1.380 . S
C431 C432 1.381 . S
C432 H389 0.929 1_655 S
C432 C431 1.381 . S
C432 C433 1.371 . S
C433 C432 1.371 . S
C433 C434 1.380 . S
C434 H390 0.931 . S
C434 C433 1.380 . S
C434 C435 1.387 . S
C435 H391 0.930 . S
C435 C430 1.386 . S
C435 C434 1.387 . S
C436 C405 1.519 . S
C436 C437 1.377 . S
C436 C441 1.361 . S
C437 H392 0.929 . S
C437 C436 1.377 . S
C437 C438 1.386 . S
C438 H393 0.931 . S
C438 C437 1.386 . S
C438 C439 1.363 . S
C439 C438 1.363 . S
C439 C440 1.385 . S
C440 H394 0.930 . S
C440 C439 1.385 . S
C440 C441 1.396 . S
C441 H395 0.929 . S
C441 C436 1.361 . S
C441 C440 1.396 . S
C442 O396 1.300 . S
C442 O397 1.209 . S
C442 C415 1.486 . S
C443 O398 1.199 . S
C443 O399 1.297 . S
C443 C427 1.476 . S
H444 O470 0.856 . S
H445 O473 0.854 . S
H446 C481 0.930 . S
H447 C482 0.930 . S
H448 C484 0.930 . S
H449 C485 0.930 . S
H450 C487 0.931 . S
H451 C488 0.930 . S
H452 C490 0.930 . S
H453 C491 0.929 . S
H454 C493 0.930 . S
H455 C494 0.931 . S
H456 C496 0.930 . S
H457 C497 0.929 . S
H458 C499 0.931 . S
H459 C500 0.930 . S
H460 C502 0.930 . S
H461 C503 0.932 . S
H462 C505 0.930 . S
H463 C506 0.929 . S
H464 C508 0.931 . S
H465 C509 0.930 . S
H466 C511 0.929 . S
H467 C512 0.931 . S
H468 C514 0.930 . S
H469 C515 0.929 . S
O470 H444 0.856 . S
O470 C516 1.300 . S
O471 C516 1.209 . S
O472 C517 1.199 . S
O473 H445 0.854 . S
O473 C517 1.297 . S
C474 C475 1.404 . S
C474 C479 1.397 . S
C474 C480 1.492 . S
C475 C474 1.404 . S
C475 C476 1.396 . S
C475 C486 1.492 . S
C476 C475 1.396 . S
C476 C477 1.397 . S
C476 C492 1.509 . S
C477 C476 1.397 . S
C477 C478 1.412 . S
C477 C498 1.485 . S
C478 C477 1.412 . S
C478 C479 1.388 . S
C478 C504 1.490 . S
C479 C474 1.397 . S
C479 C478 1.388 . S
C479 C510 1.519 . S
C480 C474 1.492 . S
C480 C481 1.363 . S
C480 C485 1.390 . S
C481 H446 0.930 . S
C481 C480 1.363 . S
C481 C482 1.372 . S
C482 H447 0.930 . S
C482 C481 1.372 . S
C482 C483 1.383 . S
C483 C482 1.383 . S
C483 C484 1.395 . S
C484 H448 0.930 . S
C484 C483 1.395 . S
C484 C485 1.362 . S
C485 H449 0.930 . S
C485 C480 1.390 . S
C485 C484 1.362 . S
C486 C475 1.492 . S
C486 C487 1.377 1_554 S
C486 C491 1.397 . S
C487 H450 0.931 . S
C487 C486 1.377 1_556 S
C487 C488 1.376 . S
C488 H451 0.930 . S
C488 C487 1.376 . S
C488 C489 1.376 . S
C489 C488 1.376 . S
C489 C490 1.378 . S
C489 C516 1.486 . S
C490 H452 0.930 . S
C490 C489 1.378 . S
C490 C491 1.376 1_556 S
C491 H453 0.929 . S
C491 C486 1.397 . S
C491 C490 1.376 1_554 S
C492 C476 1.509 . S
C492 C493 1.391 . S
C492 C497 1.386 . S
C493 H454 0.930 . S
C493 C492 1.391 . S
C493 C494 1.375 1_554 S
C494 H455 0.931 . S
C494 C493 1.375 1_556 S
C494 C495 1.375 . S
C495 C494 1.375 . S
C495 C496 1.361 1_556 S
C496 H456 0.930 . S
C496 C495 1.361 1_554 S
C496 C497 1.399 . S
C497 H457 0.929 . S
C497 C492 1.386 . S
C497 C496 1.399 . S
C498 C477 1.485 . S
C498 C499 1.394 . S
C498 C503 1.360 . S
C499 H458 0.931 . S
C499 C498 1.394 . S
C499 C500 1.372 . S
C500 H459 0.930 . S
C500 C499 1.372 . S
C500 C501 1.397 . S
C501 C500 1.397 . S
C501 C502 1.390 . S
C501 C517 1.476 . S
C502 H460 0.930 . S
C502 C501 1.390 . S
C502 C503 1.366 . S
C503 H461 0.932 . S
C503 C498 1.360 . S
C503 C502 1.366 . S
C504 C478 1.490 . S
C504 C505 1.380 . S
C504 C509 1.386 . S
C505 H462 0.930 . S
C505 C504 1.380 . S
C505 C506 1.381 . S
C506 H463 0.929 . S
C506 C505 1.381 . S
C506 C507 1.371 . S
C507 C506 1.371 . S
C507 C508 1.380 . S
C508 H464 0.931 . S
C508 C507 1.380 . S
C508 C509 1.387 . S
C509 H465 0.930 . S
C509 C504 1.386 . S
C509 C508 1.387 . S
C510 C479 1.519 . S
C510 C511 1.377 . S
C510 C515 1.361 . S
C511 H466 0.929 . S
C511 C510 1.377 . S
C511 C512 1.386 . S
C512 H467 0.931 . S
C512 C511 1.386 . S
C512 C513 1.363 . S
C513 C512 1.363 . S
C513 C514 1.385 . S
C514 H468 0.930 . S
C514 C513 1.385 . S
C514 C515 1.396 . S
C515 H469 0.929 . S
C515 C510 1.361 . S
C515 C514 1.396 . S
C516 O470 1.300 . S
C516 O471 1.209 . S
C516 C489 1.486 . S
C517 O472 1.199 . S
C517 O473 1.297 . S
C517 C501 1.476 . S
H518 O544 0.856 . S
H519 O547 0.854 . S
H520 C555 0.930 . S
H521 C556 0.930 . S
H522 C558 0.930 . S
H523 C559 0.930 . S
H524 C561 0.931 . S
H525 C562 0.930 . S
H526 C564 0.930 . S
H527 C565 0.929 1_655 S
H528 C567 0.930 . S
H529 C568 0.931 . S
H530 C570 0.930 . S
H531 C571 0.929 . S
H532 C573 0.931 . S
H533 C574 0.930 . S
H534 C576 0.930 . S
H535 C577 0.932 . S
H536 C579 0.930 . S
H537 C580 0.929 . S
H538 C582 0.931 . S
H539 C583 0.930 . S
H540 C585 0.929 . S
H541 C586 0.931 . S
H542 C588 0.930 . S
H543 C589 0.929 1_455 S
O544 H518 0.856 . S
O544 C590 1.300 . S
O545 C590 1.209 . S
O546 C591 1.199 . S
O547 H519 0.854 . S
O547 C591 1.297 . S
C548 C549 1.404 . S
C548 C553 1.397 . S
C548 C554 1.492 1_455 S
C549 C548 1.404 . S
C549 C550 1.396 . S
C549 C560 1.492 . S
C550 C549 1.396 . S
C550 C551 1.397 . S
C550 C566 1.509 . S
C551 C550 1.397 . S
C551 C552 1.412 . S
C551 C572 1.485 . S
C552 C551 1.412 . S
C552 C553 1.388 . S
C552 C578 1.490 . S
C553 C548 1.397 . S
C553 C552 1.388 . S
C553 C584 1.519 1_455 S
C554 C548 1.492 1_655 S
C554 C555 1.363 . S
C554 C559 1.390 . S
C555 H520 0.930 . S
C555 C554 1.363 . S
C555 C556 1.372 . S
C556 H521 0.930 . S
C556 C555 1.372 . S
C556 C557 1.383 . S
C557 C556 1.383 . S
C557 C558 1.395 . S
C558 H522 0.930 . S
C558 C557 1.395 . S
C558 C559 1.362 . S
C559 H523 0.930 . S
C559 C554 1.390 . S
C559 C558 1.362 . S
C560 C549 1.492 . S
C560 C561 1.377 . S
C560 C565 1.397 . S
C561 H524 0.931 . S
C561 C560 1.377 . S
C561 C562 1.376 . S
C562 H525 0.930 . S
C562 C561 1.376 . S
C562 C563 1.378 . S
C563 C562 1.378 . S
C563 C564 1.377 1_455 S
C563 C590 1.485 1_455 S
C564 H526 0.930 . S
C564 C563 1.377 1_655 S
C564 C565 1.376 1_655 S
C565 H527 0.929 1_455 S
C565 C560 1.397 . S
C565 C564 1.376 1_455 S
C566 C550 1.509 . S
C566 C567 1.391 . S
C566 C571 1.386 . S
C567 H528 0.930 . S
C567 C566 1.391 . S
C567 C568 1.375 . S
C568 H529 0.931 . S
C568 C567 1.375 . S
C568 C569 1.375 . S
C569 C568 1.375 . S
C569 C570 1.361 . S
C570 H530 0.930 . S
C570 C569 1.361 . S
C570 C571 1.399 . S
C571 H531 0.929 . S
C571 C566 1.386 . S
C571 C570 1.399 . S
C572 C551 1.485 . S
C572 C573 1.394 . S
C572 C577 1.360 . S
C573 H532 0.931 . S
C573 C572 1.394 . S
C573 C574 1.372 . S
C574 H533 0.930 . S
C574 C573 1.372 . S
C574 C575 1.397 . S
C575 C574 1.397 . S
C575 C576 1.390 . S
C575 C591 1.476 . S
C576 H534 0.930 . S
C576 C575 1.390 . S
C576 C577 1.366 . S
C577 H535 0.932 . S
C577 C572 1.360 . S
C577 C576 1.366 . S
C578 C552 1.490 . S
C578 C579 1.380 . S
C578 C583 1.386 . S
C579 H536 0.930 . S
C579 C578 1.380 . S
C579 C580 1.381 . S
C580 H537 0.929 . S
C580 C579 1.381 . S
C580 C581 1.371 . S
C581 C580 1.371 . S
C581 C582 1.380 . S
C582 H538 0.931 . S
C582 C581 1.380 . S
C582 C583 1.387 . S
C583 H539 0.930 . S
C583 C578 1.386 . S
C583 C582 1.387 . S
C584 C553 1.519 1_655 S
C584 C585 1.377 . S
C584 C589 1.361 . S
C585 H540 0.929 . S
C585 C584 1.377 . S
C585 C586 1.386 . S
C586 H541 0.931 . S
C586 C585 1.386 . S
C586 C587 1.363 . S
C587 C586 1.363 . S
C587 C588 1.385 . S
C588 H542 0.930 . S
C588 C587 1.385 . S
C588 C589 1.396 . S
C589 H543 0.929 1_655 S
C589 C584 1.361 . S
C589 C588 1.396 . S
C590 O544 1.300 . S
C590 O545 1.209 . S
C590 C563 1.485 1_655 S
C591 O546 1.199 . S
C591 O547 1.297 . S
C591 C575 1.476 . S
Fe592 O593 1.886 . S
Fe592 O596 1.715 1_455 S
Fe592 O601 2.077 . S
Fe592 O606 1.935 1_455 S
Fe592 O612 2.077 . S
Fe592 O621 1.935 1_455 S
O593 Fe592 1.886 . S
O593 Fe595 1.715 . S
Fe594 O596 1.886 . S
Fe594 O597 1.715 . S
Fe594 O604 1.935 . S
Fe594 O605 2.077 . S
Fe594 O611 1.935 . S
Fe594 O620 2.077 . S
Fe595 O593 1.715 . S
Fe595 O598 1.886 . S
Fe595 O602 1.935 . S
Fe595 O607 2.077 . S
Fe595 O613 1.935 . S
Fe595 O617 2.077 . S
O596 Fe592 1.715 1_655 S
O596 Fe594 1.886 . S
O597 Fe594 1.715 . S
O597 Fe599 1.886 1_655 S
O598 Fe595 1.886 . S
O598 Fe599 1.715 . S
Fe599 O597 1.886 1_455 S
Fe599 O598 1.715 . S
Fe599 O603 2.077 1_455 S
Fe599 O608 1.935 . S
Fe599 O610 2.077 1_455 S
Fe599 O618 1.935 . S
C600 O612 1.381 . S
C600 O613 1.421 . S
O601 Fe592 2.077 . S
O601 C614 1.381 . S
O602 Fe595 1.935 . S
O602 C614 1.421 . S
O603 Fe599 2.077 1_655 S
O603 C619 1.381 . S
O604 Fe594 1.935 . S
O604 C619 1.421 . S
O605 Fe594 2.077 . S
O605 C609 1.381 . S
O606 Fe592 1.935 1_655 S
O606 C609 1.421 . S
O607 Fe595 2.077 . S
O607 C615 1.381 . S
O608 Fe599 1.935 . S
O608 C615 1.421 . S
C609 O605 1.381 . S
C609 O606 1.421 . S
O610 Fe599 2.077 1_655 S
O610 C622 1.381 . S
O611 Fe594 1.935 . S
O611 C622 1.421 . S
O612 Fe592 2.077 . S
O612 C600 1.381 . S
O613 Fe595 1.935 . S
O613 C600 1.421 . S
C614 O601 1.381 . S
C614 O602 1.421 . S
C615 O607 1.381 . S
C615 O608 1.421 . S
C616 O617 1.381 . S
C616 O618 1.421 . S
O617 Fe595 2.077 . S
O617 C616 1.381 . S
O618 Fe599 1.935 . S
O618 C616 1.421 . S
C619 O603 1.381 . S
C619 O604 1.421 . S
O620 Fe594 2.077 . S
O620 C623 1.381 . S
O621 Fe592 1.935 1_655 S
O621 C623 1.421 . S
C622 O610 1.381 . S
C622 O611 1.421 . S
C623 O620 1.381 . S
C623 O621 1.421 . S
Fe624 O625 1.886 . S
Fe624 O628 1.715 . S
Fe624 O633 2.077 . S
Fe624 O638 1.935 . S
Fe624 O644 2.077 . S
Fe624 O653 1.935 . S
O625 Fe624 1.886 . S
O625 Fe627 1.715 . S
Fe626 O628 1.886 . S
Fe626 O629 1.715 . S
Fe626 O636 1.935 . S
Fe626 O637 2.077 . S
Fe626 O643 1.935 . S
Fe626 O652 2.077 . S
Fe627 O625 1.715 . S
Fe627 O630 1.886 . S
Fe627 O634 1.935 . S
Fe627 O639 2.077 . S
Fe627 O645 1.935 . S
Fe627 O649 2.077 . S
O628 Fe624 1.715 . S
O628 Fe626 1.886 . S
O629 Fe626 1.715 . S
O629 Fe631 1.886 . S
O630 Fe627 1.886 . S
O630 Fe631 1.715 . S
Fe631 O629 1.886 . S
Fe631 O630 1.715 . S
Fe631 O635 2.077 . S
Fe631 O640 1.935 . S
Fe631 O642 2.077 . S
Fe631 O650 1.935 . S
C632 O644 1.381 . S
C632 O645 1.421 . S
O633 Fe624 2.077 . S
O633 C646 1.381 . S
O634 Fe627 1.935 . S
O634 C646 1.421 . S
O635 Fe631 2.077 . S
O635 C651 1.381 . S
O636 Fe626 1.935 . S
O636 C651 1.421 . S
O637 Fe626 2.077 . S
O637 C641 1.381 . S
O638 Fe624 1.935 . S
O638 C641 1.421 . S
O639 Fe627 2.077 . S
O639 C647 1.381 . S
O640 Fe631 1.935 . S
O640 C647 1.421 . S
C641 O637 1.381 . S
C641 O638 1.421 . S
O642 Fe631 2.077 . S
O642 C654 1.381 . S
O643 Fe626 1.935 . S
O643 C654 1.421 . S
O644 Fe624 2.077 . S
O644 C632 1.381 . S
O645 Fe627 1.935 . S
O645 C632 1.421 . S
C646 O633 1.381 . S
C646 O634 1.421 . S
C647 O639 1.381 . S
C647 O640 1.421 . S
C648 O649 1.381 . S
C648 O650 1.421 . S
O649 Fe627 2.077 . S
O649 C648 1.381 . S
O650 Fe631 1.935 . S
O650 C648 1.421 . S
C651 O635 1.381 . S
C651 O636 1.421 . S
O652 Fe626 2.077 . S
O652 C655 1.381 . S
O653 Fe624 1.935 . S
O653 C655 1.421 . S
C654 O642 1.381 . S
C654 O643 1.421 . S
C655 O652 1.381 . S
C655 O653 1.421 . S
Fe656 O657 1.886 . S
Fe656 O660 1.715 . S
Fe656 O665 2.077 . S
Fe656 O670 1.935 . S
Fe656 O676 2.077 . S
Fe656 O685 1.935 . S
O657 Fe656 1.886 . S
O657 Fe659 1.715 . S
Fe658 O660 1.886 . S
Fe658 O661 1.715 . S
Fe658 O668 1.935 . S
Fe658 O669 2.077 . S
Fe658 O675 1.935 . S
Fe658 O684 2.077 . S
Fe659 O657 1.715 . S
Fe659 O662 1.886 . S
Fe659 O666 1.935 . S
Fe659 O671 2.077 . S
Fe659 O677 1.935 . S
Fe659 O681 2.077 . S
O660 Fe656 1.715 . S
O660 Fe658 1.886 . S
O661 Fe658 1.715 . S
O661 Fe663 1.886 . S
O662 Fe659 1.886 . S
O662 Fe663 1.715 . S
Fe663 O661 1.886 . S
Fe663 O662 1.715 . S
Fe663 O667 2.077 . S
Fe663 O672 1.935 . S
Fe663 O674 2.077 . S
Fe663 O682 1.935 . S
C664 O676 1.381 . S
C664 O677 1.421 . S
O665 Fe656 2.077 . S
O665 C678 1.381 . S
O666 Fe659 1.935 . S
O666 C678 1.421 . S
O667 Fe663 2.077 . S
O667 C683 1.381 . S
O668 Fe658 1.935 . S
O668 C683 1.421 . S
O669 Fe658 2.077 . S
O669 C673 1.381 . S
O670 Fe656 1.935 . S
O670 C673 1.421 . S
O671 Fe659 2.077 . S
O671 C679 1.381 . S
O672 Fe663 1.935 . S
O672 C679 1.421 . S
C673 O669 1.381 . S
C673 O670 1.421 . S
O674 Fe663 2.077 . S
O674 C686 1.381 . S
O675 Fe658 1.935 . S
O675 C686 1.421 . S
O676 Fe656 2.077 . S
O676 C664 1.381 . S
O677 Fe659 1.935 . S
O677 C664 1.421 . S
C678 O665 1.381 . S
C678 O666 1.421 . S
C679 O671 1.381 . S
C679 O672 1.421 . S
C680 O681 1.381 . S
C680 O682 1.421 . S
O681 Fe659 2.077 . S
O681 C680 1.381 . S
O682 Fe663 1.935 . S
O682 C680 1.421 . S
C683 O667 1.381 . S
C683 O668 1.421 . S
O684 Fe658 2.077 . S
O684 C687 1.381 . S
O685 Fe656 1.935 . S
O685 C687 1.421 . S
C686 O674 1.381 . S
C686 O675 1.421 . S
C687 O684 1.381 . S
C687 O685 1.421 . S
Fe688 O689 1.886 . S
Fe688 O692 1.715 . S
Fe688 O697 2.077 1_455 S
Fe688 O702 1.935 1_455 S
Fe688 O708 2.077 . S
Fe688 O717 1.935 . S
O689 Fe688 1.886 . S
O689 Fe691 1.715 . S
Fe690 O692 1.886 . S
Fe690 O693 1.715 . S
Fe690 O700 1.935 1_455 S
Fe690 O701 2.077 1_455 S
Fe690 O707 1.935 . S
Fe690 O716 2.077 . S
Fe691 O689 1.715 . S
Fe691 O694 1.886 . S
Fe691 O698 1.935 1_455 S
Fe691 O703 2.077 1_455 S
Fe691 O709 1.935 . S
Fe691 O713 2.077 . S
O692 Fe688 1.715 . S
O692 Fe690 1.886 . S
O693 Fe690 1.715 . S
O693 Fe695 1.886 . S
O694 Fe691 1.886 . S
O694 Fe695 1.715 . S
Fe695 O693 1.886 . S
Fe695 O694 1.715 . S
Fe695 O699 2.077 1_455 S
Fe695 O704 1.935 1_455 S
Fe695 O706 2.077 . S
Fe695 O714 1.935 . S
C696 O708 1.381 . S
C696 O709 1.421 . S
O697 Fe688 2.077 1_655 S
O697 C710 1.381 . S
O698 Fe691 1.935 1_655 S
O698 C710 1.421 . S
O699 Fe695 2.077 1_655 S
O699 C715 1.381 . S
O700 Fe690 1.935 1_655 S
O700 C715 1.421 . S
O701 Fe690 2.077 1_655 S
O701 C705 1.381 . S
O702 Fe688 1.935 1_655 S
O702 C705 1.421 . S
O703 Fe691 2.077 1_655 S
O703 C711 1.381 . S
O704 Fe695 1.935 1_655 S
O704 C711 1.421 . S
C705 O701 1.381 . S
C705 O702 1.421 . S
O706 Fe695 2.077 . S
O706 C718 1.381 . S
O707 Fe690 1.935 . S
O707 C718 1.421 . S
O708 Fe688 2.077 . S
O708 C696 1.381 . S
O709 Fe691 1.935 . S
O709 C696 1.421 . S
C710 O697 1.381 . S
C710 O698 1.421 . S
C711 O703 1.381 . S
C711 O704 1.421 . S
C712 O713 1.381 . S
C712 O714 1.421 . S
O713 Fe691 2.077 . S
O713 C712 1.381 . S
O714 Fe695 1.935 . S
O714 C712 1.421 . S
C715 O699 1.381 . S
C715 O700 1.421 . S
O716 Fe690 2.077 . S
O716 C719 1.381 . S
O717 Fe688 1.935 . S
O717 C719 1.421 . S
C718 O706 1.381 . S
C718 O707 1.421 . S
C719 O716 1.381 . S
C719 O717 1.421 . S
C720 C721 1.387 . S
C720 H724 0.950 . S
C720 C729 1.390 . S
C721 C720 1.387 . S
C721 C723 1.387 . S
H722 C729 0.950 . S
C723 C721 1.387 . S
C723 C725 1.390 . S
C723 H727 0.950 . S
H724 C720 0.950 . S
C725 C723 1.390 . S
C725 C726 1.387 . S
C725 H728 0.950 . S
C726 C725 1.387 . S
C726 C729 1.387 . S
H727 C723 0.950 . S
H728 C725 0.950 . S
C729 C720 1.390 . S
C729 H722 0.950 . S
C729 C726 1.387 . S
C730 C731 1.387 . S
C730 H734 0.950 . S
C730 C739 1.390 . S
C731 C730 1.387 . S
C731 C733 1.387 . S
H732 C739 0.950 . S
C733 C731 1.387 . S
C733 C735 1.390 . S
C733 H737 0.950 . S
H734 C730 0.950 . S
C735 C733 1.390 . S
C735 C736 1.387 . S
C735 H738 0.950 . S
C736 C735 1.387 . S
C736 C739 1.387 . S
H737 C733 0.950 . S
H738 C735 0.950 . S
C739 C730 1.390 . S
C739 H732 0.950 . S
C739 C736 1.387 . S
C740 C741 1.383 1_556 S
C740 H744 0.950 . S
C740 C749 1.390 . S
C741 C740 1.383 1_554 S
C741 C743 1.383 1_554 S
H742 C749 0.950 . S
C743 C741 1.383 1_556 S
C743 C745 1.390 . S
C743 H747 0.950 . S
H744 C740 0.950 . S
C745 C743 1.390 . S
C745 C746 1.387 . S
C745 H748 0.950 . S
C746 C745 1.387 . S
C746 C749 1.387 . S
H747 C743 0.950 . S
H748 C745 0.950 . S
C749 C740 1.390 . S
C749 H742 0.950 . S
C749 C746 1.387 . S
C750 C751 1.387 . S
C750 H754 0.950 . S
C750 C759 1.390 1_545 S
C751 C750 1.387 . S
C751 C753 1.387 1_545 S
H752 C759 0.945 1_545 S
C753 C751 1.387 1_565 S
C753 C755 1.390 . S
C753 H757 0.950 . S
H754 C750 0.950 . S
C755 C753 1.390 . S
C755 C756 1.387 . S
C755 H758 0.950 . S
C756 C755 1.387 . S
C756 C759 1.387 . S
H757 C753 0.950 . S
H758 C755 0.950 . S
C759 C750 1.390 1_565 S
C759 H752 0.945 1_565 S
C759 C756 1.387 . S
C760 C761 1.387 . S
C760 H764 0.950 . S
C760 C769 1.390 . S
C761 C760 1.387 . S
C761 C763 1.387 . S
H762 C769 0.950 . S
C763 C761 1.387 . S
C763 C765 1.390 . S
C763 H767 0.950 . S
H764 C760 0.950 . S
C765 C763 1.390 . S
C765 C766 1.387 . S
C765 H768 0.950 . S
C766 C765 1.387 . S
C766 C769 1.387 . S
H767 C763 0.950 . S
H768 C765 0.950 . S
C769 C760 1.390 . S
C769 H762 0.950 . S
C769 C766 1.387 . S
C770 C771 1.387 1_545 S
C770 H774 0.950 . S
C770 C779 1.390 . S
C771 C770 1.387 1_565 S
C771 C773 1.387 . S
H772 C779 0.950 . S
C773 C771 1.387 . S
C773 C775 1.390 1_565 S
C773 H777 0.950 . S
H774 C770 0.950 . S
C775 C773 1.390 1_545 S
C775 C776 1.387 . S
C775 H778 0.950 . S
C776 C775 1.387 . S
C776 C779 1.387 . S
H777 C773 0.950 . S
H778 C775 0.950 . S
C779 C770 1.390 . S
C779 H772 0.950 . S
C779 C776 1.387 . S
C780 C781 1.387 1_545 S
C780 H784 0.950 . S
C780 C789 1.390 . S
C781 C780 1.387 1_565 S
C781 C783 1.387 . S
H782 C789 0.950 . S
C783 C781 1.387 . S
C783 C785 1.390 . S
C783 H787 0.950 . S
H784 C780 0.950 . S
C785 C783 1.390 . S
C785 C786 1.387 . S
C785 H788 0.950 . S
C786 C785 1.387 . S
C786 C789 1.387 1_565 S
H787 C783 0.950 . S
H788 C785 0.950 . S
C789 C780 1.390 . S
C789 H782 0.950 . S
C789 C786 1.387 1_545 S
C790 C791 1.387 . S
C790 H794 0.950 . S
C790 C799 1.390 1_545 S
C791 C790 1.387 . S
C791 C793 1.387 . S
H792 C799 0.950 . S
C793 C791 1.387 . S
C793 C795 1.390 1_545 S
C793 H797 0.950 . S
H794 C790 0.950 . S
C795 C793 1.390 1_565 S
C795 C796 1.387 . S
C795 H798 0.950 . S
C796 C795 1.387 . S
C796 C799 1.387 . S
H797 C793 0.950 . S
H798 C795 0.950 . S
C799 C790 1.390 1_565 S
C799 H792 0.950 . S
C799 C796 1.387 . S
C800 C801 1.387 . S
C800 H804 0.950 . S
C800 C809 1.390 . S
C801 C800 1.387 . S
C801 C803 1.387 . S
H802 C809 0.950 . S
C803 C801 1.387 . S
C803 C805 1.390 . S
C803 H807 0.950 . S
H804 C800 0.950 . S
C805 C803 1.390 . S
C805 C806 1.387 . S
C805 H808 0.950 . S
C806 C805 1.387 . S
C806 C809 1.387 . S
H807 C803 0.950 . S
H808 C805 0.950 . S
C809 C800 1.390 . S
C809 H802 0.950 . S
C809 C806 1.387 . S
C810 C811 1.387 . S
C810 H814 0.950 . S
C810 C819 1.390 1_545 S
C811 C810 1.387 . S
C811 C813 1.387 . S
H812 C819 0.950 . S
C813 C811 1.387 . S
C813 C815 1.390 1_545 S
C813 H817 0.950 . S
H814 C810 0.950 . S
C815 C813 1.390 1_565 S
C815 C816 1.387 . S
C815 H818 0.950 . S
C816 C815 1.387 . S
C816 C819 1.387 . S
H817 C813 0.950 . S
H818 C815 0.950 . S
C819 C810 1.390 1_565 S
C819 H812 0.950 . S
C819 C816 1.387 . S
C820 C821 1.387 . S
C820 H824 0.950 1_565 S
C820 C829 1.390 . S
C821 C820 1.387 . S
C821 C823 1.387 . S
H822 C829 0.950 . S
C823 C821 1.387 . S
C823 C825 1.390 . S
C823 H827 0.950 . S
H824 C820 0.950 1_545 S
C825 C823 1.390 . S
C825 C826 1.387 . S
C825 H828 0.950 . S
C826 C825 1.387 . S
C826 C829 1.387 . S
H827 C823 0.950 . S
H828 C825 0.950 . S
C829 C820 1.390 . S
C829 H822 0.950 . S
C829 C826 1.387 . S
C830 C831 1.387 . S
C830 H834 0.950 . S
C830 C839 1.390 . S
C831 C830 1.387 . S
C831 C833 1.387 . S
H832 C839 0.950 . S
C833 C831 1.387 . S
C833 C835 1.390 . S
C833 H837 0.950 . S
H834 C830 0.950 . S
C835 C833 1.390 . S
C835 C836 1.387 . S
C835 H838 0.950 1_655 S
C836 C835 1.387 . S
C836 C839 1.387 . S
H837 C833 0.950 . S
H838 C835 0.950 1_455 S
C839 C830 1.390 . S
C839 H832 0.950 . S
C839 C836 1.387 . S
C840 C841 1.387 . S
C840 H844 0.950 . S
C840 C849 1.390 . S
C841 C840 1.387 . S
C841 C843 1.387 . S
H842 C849 0.950 . S
C843 C841 1.387 . S
C843 C845 1.390 . S
C843 H847 0.950 . S
H844 C840 0.950 . S
C845 C843 1.390 . S
C845 C846 1.387 . S
C845 H848 0.950 . S
C846 C845 1.387 . S
C846 C849 1.387 . S
H847 C843 0.950 . S
H848 C845 0.950 . S
C849 C840 1.390 . S
C849 H842 0.950 . S
C849 C846 1.387 . S
C850 C851 1.387 1_565 S
C850 H854 0.950 . S
C850 C859 1.390 . S
C851 C850 1.387 1_545 S
C851 C853 1.387 . S
H852 C859 0.950 . S
C853 C851 1.387 . S
C853 C855 1.390 1_545 S
C853 H857 0.950 . S
H854 C850 0.950 . S
C855 C853 1.390 1_565 S
C855 C856 1.387 . S
C855 H858 0.950 1_565 S
C856 C855 1.387 . S
C856 C859 1.387 . S
H857 C853 0.950 . S
H858 C855 0.950 1_545 S
C859 C850 1.390 . S
C859 H852 0.950 . S
C859 C856 1.387 . S
C860 C861 1.387 . S
C860 H864 0.950 . S
C860 C869 1.390 . S
C861 C860 1.387 . S
C861 C863 1.387 . S
H862 C869 0.950 . S
C863 C861 1.387 . S
C863 C865 1.390 . S
C863 H867 0.950 . S
H864 C860 0.950 . S
C865 C863 1.390 . S
C865 C866 1.387 . S
C865 H868 0.950 . S
C866 C865 1.387 . S
C866 C869 1.387 . S
H867 C863 0.950 . S
H868 C865 0.950 . S
C869 C860 1.390 . S
C869 H862 0.950 . S
C869 C866 1.387 . S
C870 C871 1.387 . S
C870 H874 0.941 1_545 S
C870 C879 1.390 . S
C871 C870 1.387 . S
C871 C873 1.387 . S
H872 C879 0.950 . S
C873 C871 1.387 . S
C873 C875 1.390 . S
C873 H877 0.950 . S
H874 C870 0.941 1_565 S
C875 C873 1.390 . S
C875 C876 1.387 . S
C875 H878 0.950 . S
C876 C875 1.387 . S
C876 C879 1.387 . S
H877 C873 0.950 . S
H878 C875 0.950 . S
C879 C870 1.390 . S
C879 H872 0.950 . S
C879 C876 1.387 . S
C880 C881 1.387 . S
C880 H884 0.950 1_556 S
C880 C889 1.390 . S
C881 C880 1.387 . S
C881 C883 1.387 . S
H882 C889 0.950 . S
C883 C881 1.387 . S
C883 C885 1.390 . S
C883 H887 0.950 . S
H884 C880 0.950 1_554 S
C885 C883 1.390 . S
C885 C886 1.387 . S
C885 H888 0.950 . S
C886 C885 1.387 . S
C886 C889 1.387 . S
H887 C883 0.950 . S
H888 C885 0.950 . S
C889 C880 1.390 . S
C889 H882 0.950 . S
C889 C886 1.387 . S
C890 C891 1.387 . S
C890 H894 0.950 1_655 S
C890 C899 1.390 . S
C891 C890 1.387 . S
C891 C893 1.387 . S
H892 C899 0.950 1_455 S
C893 C891 1.387 . S
C893 C895 1.390 . S
C893 H897 0.950 . S
H894 C890 0.950 1_455 S
C895 C893 1.390 . S
C895 C896 1.387 . S
C895 H898 0.950 . S
C896 C895 1.387 . S
C896 C899 1.387 . S
H897 C893 0.950 . S
H898 C895 0.950 . S
C899 C890 1.390 . S
C899 H892 0.950 1_655 S
C899 C896 1.387 . S
C900 C901 1.387 . S
C900 H904 0.950 . S
C900 C909 1.390 . S
C901 C900 1.387 . S
C901 C903 1.387 . S
H902 C909 0.950 . S
C903 C901 1.387 . S
C903 C905 1.390 . S
C903 H907 0.950 . S
H904 C900 0.950 . S
C905 C903 1.390 . S
C905 C906 1.387 . S
C905 H908 0.950 . S
C906 C905 1.387 . S
C906 C909 1.387 . S
H907 C903 0.950 . S
H908 C905 0.950 . S
C909 C900 1.390 . S
C909 H902 0.950 . S
C909 C906 1.387 . S
C910 C911 1.387 . S
C910 H914 0.950 . S
C910 C919 1.390 . S
C911 C910 1.387 . S
C911 C913 1.387 . S
H912 C919 0.950 . S
C913 C911 1.387 . S
C913 C915 1.390 . S
C913 H917 0.950 . S
H914 C910 0.950 . S
C915 C913 1.390 . S
C915 C916 1.387 . S
C915 H918 0.950 . S
C916 C915 1.387 . S
C916 C919 1.387 . S
H917 C913 0.950 . S
H918 C915 0.950 . S
C919 C910 1.390 . S
C919 H912 0.950 . S
C919 C916 1.387 . S
C920 C921 1.387 . S
C920 H924 0.950 . S
C920 C929 1.390 . S
C921 C920 1.387 . S
C921 C923 1.387 . S
H922 C929 0.950 . S
C923 C921 1.387 . S
C923 C925 1.390 . S
C923 H927 0.950 . S
H924 C920 0.950 . S
C925 C923 1.390 . S
C925 C926 1.387 . S
C925 H928 0.950 . S
C926 C925 1.387 . S
C926 C929 1.387 . S
H927 C923 0.950 . S
H928 C925 0.950 . S
C929 C920 1.390 . S
C929 H922 0.950 . S
C929 C926 1.387 . S
C930 C931 1.387 . S
C930 H934 0.950 . S
C930 C939 1.390 . S
C931 C930 1.387 . S
C931 C933 1.387 . S
H932 C939 0.950 . S
C933 C931 1.387 . S
C933 C935 1.390 . S
C933 H937 0.950 . S
H934 C930 0.950 . S
C935 C933 1.390 . S
C935 C936 1.387 . S
C935 H938 0.950 . S
C936 C935 1.387 . S
C936 C939 1.387 . S
H937 C933 0.950 . S
H938 C935 0.950 . S
C939 C930 1.390 . S
C939 H932 0.950 . S
C939 C936 1.387 . S
C940 C941 1.387 . S
C940 H944 0.950 . S
C940 C949 1.390 . S
C941 C940 1.387 . S
C941 C943 1.387 . S
H942 C949 0.950 . S
C943 C941 1.387 . S
C943 C945 1.390 . S
C943 H947 0.950 . S
H944 C940 0.950 . S
C945 C943 1.390 . S
C945 C946 1.387 . S
C945 H948 0.950 . S
C946 C945 1.387 . S
C946 C949 1.387 . S
H947 C943 0.950 . S
H948 C945 0.950 . S
C949 C940 1.390 . S
C949 H942 0.950 . S
C949 C946 1.387 . S
C950 C951 1.387 . S
C950 H954 0.950 . S
C950 C959 1.390 . S
C951 C950 1.387 . S
C951 C953 1.387 . S
H952 C959 0.950 . S
C953 C951 1.387 . S
C953 C955 1.390 . S
C953 H957 0.950 . S
H954 C950 0.950 . S
C955 C953 1.390 . S
C955 C956 1.387 . S
C955 H958 0.950 . S
C956 C955 1.387 . S
C956 C959 1.387 . S
H957 C953 0.950 . S
H958 C955 0.950 . S
C959 C950 1.390 . S
C959 H952 0.950 . S
C959 C956 1.387 . S
C960 C961 1.387 . S
C960 H964 0.950 . S
C960 C969 1.390 . S
C961 C960 1.387 . S
C961 C963 1.387 . S
H962 C969 0.950 . S
C963 C961 1.387 . S
C963 C965 1.390 . S
C963 H967 0.950 . S
H964 C960 0.950 . S
C965 C963 1.390 . S
C965 C966 1.387 . S
C965 H968 0.950 . S
C966 C965 1.387 . S
C966 C969 1.387 . S
H967 C963 0.950 . S
H968 C965 0.950 . S
C969 C960 1.390 . S
C969 H962 0.950 . S
C969 C966 1.387 . S
C970 C971 1.387 . S
C970 H974 0.950 . S
C970 C979 1.390 . S
C971 C970 1.387 . S
C971 C973 1.387 . S
H972 C979 0.950 . S
C973 C971 1.387 . S
C973 C975 1.390 . S
C973 H977 0.950 . S
H974 C970 0.950 . S
C975 C973 1.390 . S
C975 C976 1.387 . S
C975 H978 0.950 . S
C976 C975 1.387 . S
C976 C979 1.387 . S
H977 C973 0.950 . S
H978 C975 0.950 . S
C979 C970 1.390 . S
C979 H972 0.950 . S
C979 C976 1.387 . S
C980 C981 1.387 . S
C980 H984 0.950 . S
C980 C989 1.390 . S
C981 C980 1.387 . S
C981 C983 1.387 . S
H982 C989 0.950 . S
C983 C981 1.387 . S
C983 C985 1.390 . S
C983 H987 0.950 . S
H984 C980 0.950 . S
C985 C983 1.390 . S
C985 C986 1.387 . S
C985 H988 0.950 . S
C986 C985 1.387 . S
C986 C989 1.387 . S
H987 C983 0.950 . S
H988 C985 0.950 . S
C989 C980 1.390 . S
C989 H982 0.950 . S
C989 C986 1.387 . S
C990 C991 1.387 . S
C990 H994 0.950 . S
C990 C999 1.390 . S
C991 C990 1.387 . S
C991 C993 1.387 . S
H992 C999 0.950 . S
C993 C991 1.387 . S
C993 C995 1.390 . S
C993 H997 0.950 . S
H994 C990 0.950 . S
C995 C993 1.390 . S
C995 C996 1.387 . S
C995 H998 0.950 . S
C996 C995 1.387 . S
C996 C999 1.387 . S
H997 C993 0.950 . S
H998 C995 0.950 . S
C999 C990 1.390 . S
C999 H992 0.950 . S
C999 C996 1.387 . S
C1000 C1001 1.387 . S
C1000 H1004 0.950 . S
C1000 C1009 1.390 1_554 S
C1001 C1000 1.387 . S
C1001 C1003 1.387 1_554 S
H1002 C1009 0.950 . S
C1003 C1001 1.387 1_556 S
C1003 C1005 1.390 . S
C1003 H1007 0.950 . S
H1004 C1000 0.950 . S
C1005 C1003 1.390 . S
C1005 C1006 1.387 . S
C1005 H1008 0.950 . S
C1006 C1005 1.387 . S
C1006 C1009 1.387 . S
H1007 C1003 0.950 . S
H1008 C1005 0.950 . S
C1009 C1000 1.390 1_556 S
C1009 H1002 0.950 . S
C1009 C1006 1.387 . S
C1010 C1011 1.387 . S
C1010 H1014 0.950 . S
C1010 C1019 1.390 . S
C1011 C1010 1.387 . S
C1011 C1013 1.387 . S
H1012 C1019 0.950 . S
C1013 C1011 1.387 . S
C1013 C1015 1.390 . S
C1013 H1017 0.950 . S
H1014 C1010 0.950 . S
C1015 C1013 1.390 . S
C1015 C1016 1.387 . S
C1015 H1018 0.950 . S
C1016 C1015 1.387 . S
C1016 C1019 1.387 . S
H1017 C1013 0.950 . S
H1018 C1015 0.950 . S
C1019 C1010 1.390 . S
C1019 H1012 0.950 . S
C1019 C1016 1.387 . S
C1020 C1021 1.387 . S
C1020 H1024 0.950 . S
C1020 C1029 1.390 . S
C1021 C1020 1.387 . S
C1021 C1023 1.387 . S
H1022 C1029 0.950 . S
C1023 C1021 1.387 . S
C1023 C1025 1.390 . S
C1023 H1027 0.950 . S
H1024 C1020 0.950 . S
C1025 C1023 1.390 . S
C1025 C1026 1.387 . S
C1025 H1028 0.950 . S
C1026 C1025 1.387 . S
C1026 C1029 1.387 . S
H1027 C1023 0.950 . S
H1028 C1025 0.950 . S
C1029 C1020 1.390 . S
C1029 H1022 0.950 . S
C1029 C1026 1.387 . S
C1030 C1031 1.387 . S
C1030 H1034 0.950 . S
C1030 C1039 1.390 . S
C1031 C1030 1.387 . S
C1031 C1033 1.387 . S
H1032 C1039 0.950 . S
C1033 C1031 1.387 . S
C1033 C1035 1.390 . S
C1033 H1037 0.950 . S
H1034 C1030 0.950 . S
C1035 C1033 1.390 . S
C1035 C1036 1.387 . S
C1035 H1038 0.950 . S
C1036 C1035 1.387 . S
C1036 C1039 1.387 . S
H1037 C1033 0.950 . S
H1038 C1035 0.950 . S
C1039 C1030 1.390 . S
C1039 H1032 0.950 . S
C1039 C1036 1.387 . S
C726 C641 1.921 . S
C721 C69 1.946 . S
C731 C125 0.926 . S
C736 C673 0.927 . S
C741 C217 1.958 . S
C746 C696 1.972 . S
C756 C600 1.633 . S
C751 C261 1.555 . S
C766 C683 1.731 . S
C761 C39 1.724 . S
C776 C712 1.922 . S
C771 C137 1.999 . S
C786 C616 1.755 . S
C781 C187 1.777 . S
C796 C651 1.893 . S
C791 C291 2.144 . S
C801 C51 0.860 . S
C806 C679 0.838 . S
C811 C365 2.021 . S
C816 C654 1.771 . S
C821 C199 0.893 . S
C826 C622 0.849 . S
C836 C711 1.557 . S
C831 C439 1.781 1_545 S
C846 C655 2.103 . S
C841 C63 1.878 . S
C851 C335 1.537 . S
C856 C623 1.592 . S
C861 C211 1.838 . S
C866 C710 2.075 . S
C876 C678 1.848 . S
C871 C409 1.773 . S
C881 C495 0.972 . S
C886 C705 0.970 . S
C891 C347 1.070 . S
C896 C609 1.066 . S
C901 C587 1.911 . S
C906 C632 1.930 . S
C911 C421 0.899 . S
C916 C664 0.908 . S
C926 C619 1.765 . S
C921 C507 1.878 . S
C931 C359 1.737 . S
C936 C648 1.675 . S
C941 C557 1.735 . S
C946 C680 1.714 . S
C956 C715 1.856 . S
C951 C433 1.982 . S
C961 C513 1.851 . S
C966 C615 1.684 . S
C971 C143 1.810 . S
C976 C718 1.583 . S
C981 C569 0.873 . S
C986 C686 0.843 . S
C996 C647 1.599 . S
C991 C285 1.668 . S
C1006 C719 1.682 . S
C1001 C483 1.640 . S
C1016 C687 1.832 . S
C1011 C113 1.780 . S
C1026 C646 2.106 . S
C1021 C581 1.861 . S
C1036 C614 1.119 . S
C1031 C273 1.108 . S
