# Generated by pormake.
# Topology anh, (6,3)-cn, num edge types: 1
# Building blocks:
#     Node 0, Type 0, BuildingBlock: PAMTUU_clean_sbu_0, # of connection points: 6
#     Node 1, Type 0, BuildingBlock: PAMTUU_clean_sbu_0, # of connection points: 6
#     Node 2, Type 0, BuildingBlock: PAMTUU_clean_sbu_0, # of connection points: 6
#     Node 3, Type 1, BuildingBlock: BETDIP_clean_linker_0, # of connection points: 3
#     Node 4, Type 1, BuildingBlock: BETDIP_clean_linker_0, # of connection points: 3
#     Node 5, Type 1, BuildingBlock: BETDIP_clean_linker_0, # of connection points: 3
#     Node 6, Type 1, BuildingBlock: BETDIP_clean_linker_0, # of connection points: 3
#     Node 7, Type 1, BuildingBlock: BETDIP_clean_linker_0, # of connection points: 3
#     Node 8, Type 1, BuildingBlock: BETDIP_clean_linker_0, # of connection points: 3
#     Edge 9, Type (0, 1), BuildingBlock: ZUJKAS_clean_linker_0, # of connection points: 2
#     Edge 10, Type (0, 1), BuildingBlock: ZUJKAS_clean_linker_0, # of connection points: 2
#     Edge 11, Type (0, 1), BuildingBlock: ZUJKAS_clean_linker_0, # of connection points: 2
#     Edge 12, Type (0, 1), BuildingBlock: ZUJKAS_clean_linker_0, # of connection points: 2
#     Edge 13, Type (0, 1), BuildingBlock: ZUJKAS_clean_linker_0, # of connection points: 2
#     Edge 14, Type (0, 1), BuildingBlock: ZUJKAS_clean_linker_0, # of connection points: 2
#     Edge 15, Type (0, 1), BuildingBlock: ZUJKAS_clean_linker_0, # of connection points: 2
#     Edge 16, Type (0, 1), BuildingBlock: ZUJKAS_clean_linker_0, # of connection points: 2
#     Edge 17, Type (0, 1), BuildingBlock: ZUJKAS_clean_linker_0, # of connection points: 2
#     Edge 18, Type (0, 1), BuildingBlock: ZUJKAS_clean_linker_0, # of connection points: 2
#     Edge 19, Type (0, 1), BuildingBlock: ZUJKAS_clean_linker_0, # of connection points: 2
#     Edge 20, Type (0, 1), BuildingBlock: ZUJKAS_clean_linker_0, # of connection points: 2
#     Edge 21, Type (0, 1), BuildingBlock: ZUJKAS_clean_linker_0, # of connection points: 2
#     Edge 22, Type (0, 1), BuildingBlock: ZUJKAS_clean_linker_0, # of connection points: 2
#     Edge 23, Type (0, 1), BuildingBlock: ZUJKAS_clean_linker_0, # of connection points: 2
#     Edge 24, Type (0, 1), BuildingBlock: ZUJKAS_clean_linker_0, # of connection points: 2
#     Edge 25, Type (0, 1), BuildingBlock: ZUJKAS_clean_linker_0, # of connection points: 2
#     Edge 26, Type (0, 1), BuildingBlock: ZUJKAS_clean_linker_0, # of connection points: 2
# Relax obj value: 0.180
# Max RMSD: 0.167
# Mean RMSD: 0.113
data_MOF--net-anh--node1-PAMTUU_clean_sbu_0--node2-BETDIP_clean_linker_0--edge1-ZUJKAS_clean_linker_0
_symmetry_space_group_name_H-M    P1
_symmetry_Int_Tables_number       1
_symmetry_cell_setting            triclinic
loop_
_symmetry_equiv_pos_as_xyz
'x, y, z'
_cell_length_a     40.577319
_cell_length_b     40.528976
_cell_length_c     64.593142
_cell_angle_alpha  96.351636
_cell_angle_beta   91.068441
_cell_angle_gamma 119.81662
loop_
_atom_site_label
_atom_site_type_symbol
_atom_site_fract_x
_atom_site_fract_y
_atom_site_fract_z
_atom_type_partial_charge
Tb0 Tb 0.09854 0.65489 0.16118 0.0
Tb1 Tb 0.14331 0.60865 0.16062 0.0
C2 C 0.11809 0.62501 0.1196 0.0
C3 C 1.01753 0.67158 0.16066 0.0
C4 C 0.93701 0.62959 0.15712 0.0
C5 C 0.95712 0.65267 0.14187 0.0
C6 C 0.99684 0.67367 0.14376 0.0
C7 C 0.9978 0.65025 0.1765 0.0
C8 C 0.95792 0.62982 0.17486 0.0
C9 C 1.05865 0.68641 0.15949 0.0
O10 O 1.05118 0.59344 0.15671 0.0
O11 O 0.08412 0.5644 0.16625 0.0
O12 O 0.15291 0.63821 0.19205 0.0
O13 O 0.09676 0.63779 0.19203 0.0
O14 O 0.17835 0.59142 0.14524 0.0
O15 O 0.15644 0.57155 0.17445 0.0
O16 O 0.19001 0.66922 0.15936 0.0
O17 O 0.15896 0.7024 0.16871 0.0
O18 O 0.12067 0.65533 0.13068 0.0
O19 O 0.11681 0.59761 0.12911 0.0
C20 C 1.05108 0.56266 0.16209 0.0
O21 O 0.07883 0.68973 0.1764 0.0
O22 O 0.06671 0.67072 0.14316 0.0
C23 C 0.12558 0.63885 0.20216 0.0
C24 C 0.21618 0.57831 0.16744 0.0
C25 C 0.28726 0.58471 0.17702 0.0
C26 C 0.2532 0.5506 0.17882 0.0
C27 C 0.218 0.54745 0.17403 0.0
C28 C 0.25 0.61321 0.16674 0.0
C29 C 0.28532 0.61633 0.17143 0.0
C30 C 0.17889 0.57232 0.16011 0.0
C31 C 0.19111 0.70243 0.16494 0.0
H32 H 0.94249 0.65295 0.12778 0.0
H33 H 1.01148 0.68963 0.13126 0.0
H34 H 1.01307 0.64795 0.18969 0.0
H35 H 0.9436 0.61322 0.18719 0.0
H36 H 0.25368 0.52555 0.18279 0.0
H37 H 0.19217 0.52034 0.17469 0.0
H38 H 0.24917 0.63756 0.16189 0.0
H39 H 0.31111 0.64306 0.17008 0.0
Tb40 Tb 0.53979 0.08638 0.48735 0.0
Tb41 Tb 0.62965 0.13295 0.5004 0.0
C42 C 0.59813 0.11321 0.45332 0.0
C43 C 0.44334 1.00774 0.48389 0.0
C44 C 0.40694 0.93164 0.49269 0.0
C45 C 0.40312 0.93952 0.4724 0.0
C46 C 0.42118 0.9773 0.46804 0.0
C47 C 0.44536 0.99998 0.50443 0.0
C48 C 0.42721 0.96225 0.5088 0.0
C49 C 0.4693 0.04608 0.47832 0.0
O50 O 0.55372 1.0392 0.48713 0.0
O51 O 0.61668 0.07266 0.50005 0.0
O52 O 0.60109 0.13247 0.52877 0.0
O53 O 0.54693 0.07587 0.51856 0.0
O54 O 0.68539 0.17364 0.49514 0.0
O55 O 0.6741 0.14425 0.52232 0.0
O56 O 0.6167 0.17957 0.49695 0.0
O57 O 0.55154 0.14633 0.49678 0.0
O58 O 0.56654 0.11033 0.45978 0.0
O59 O 0.62403 0.11487 0.46661 0.0
C60 C 0.58506 1.03951 0.49391 0.0
O61 O 0.48469 0.07425 0.49379 0.0
O62 O 0.49433 0.04718 0.46556 0.0
C63 C 0.57088 0.10187 0.53338 0.0
C64 C 0.7208 0.20931 0.52666 0.0
C65 C 0.76516 0.2841 0.54799 0.0
C66 C 0.72635 0.2694 0.54217 0.0
C67 C 0.70424 0.23214 0.53167 0.0
C68 C 0.75871 0.22284 0.53367 0.0
C69 C 0.78075 0.25995 0.54434 0.0
C70 C 0.69918 0.17235 0.51324 0.0
C71 C 0.58404 0.1795 0.49778 0.0
H72 H 0.38702 0.91638 0.45976 0.0
H73 H 0.41945 0.98262 0.45209 0.0
H74 H 0.46249 1.02287 0.51696 0.0
H75 H 0.43067 0.95699 0.52456 0.0
H76 H 0.71368 0.28741 0.54476 0.0
H77 H 0.67472 0.22179 0.52664 0.0
H78 H 0.77175 0.2054 0.53005 0.0
H79 H 0.81075 0.27068 0.54832 0.0
Tb80 Tb 0.61953 0.56412 0.82169 0.0
Tb81 Tb 0.66449 0.65533 0.83249 0.0
C82 C 0.64046 0.61494 0.78612 0.0
C83 C 0.5903 0.46186 0.82271 0.0
C84 C 0.59305 0.39982 0.83663 0.0
C85 C 0.59002 0.4018 0.81513 0.0
C86 C 0.58849 0.43249 0.80825 0.0
C87 C 0.59523 0.46093 0.84423 0.0
C88 C 0.59629 0.42997 0.85112 0.0
C89 C 0.58496 0.49196 0.81513 0.0
O90 O 0.68057 0.57959 0.81976 0.0
O91 O 0.7113 0.64195 0.83601 0.0
O92 O 0.63988 0.63113 0.86073 0.0
O93 O 0.64436 0.57777 0.85341 0.0
O94 O 0.68276 0.70935 0.8232 0.0
O95 O 0.69667 0.70443 0.85463 0.0
O96 O 0.60426 0.64173 0.82731 0.0
O97 O 0.57352 0.57746 0.82979 0.0
O98 O 0.61348 0.58487 0.79321 0.0
O99 O 0.66843 0.64254 0.79901 0.0
C100 C 0.71241 0.61077 0.82837 0.0
O101 O 0.5761 0.51171 0.82889 0.0
O102 O 0.61009 0.51362 0.8031 0.0
C103 C 0.64202 0.60258 0.86703 0.0
C104 C 0.67676 0.74873 0.84994 0.0
C105 C 0.63273 0.78468 0.85476 0.0
C106 C 0.67102 0.80545 0.85003 0.0
C107 C 0.69273 0.78743 0.8474 0.0
C108 C 0.63994 0.72901 0.85657 0.0
C109 C 0.61803 0.74668 0.85884 0.0
C110 C 0.69505 0.72694 0.84222 0.0
C111 C 0.57236 0.60953 0.8292 0.0
H112 H 0.58691 0.37865 0.80361 0.0
H113 H 0.58472 0.43269 0.79162 0.0
H114 H 0.59717 0.48351 0.85576 0.0
H115 H 0.59878 0.42914 0.86776 0.0
H116 H 0.68359 0.83504 0.84727 0.0
H117 H 0.72113 0.80305 0.84226 0.0
H118 H 0.62711 0.69904 0.85863 0.0
H119 H 0.58868 0.72949 0.86228 0.0
H120 H 0.58928 0.10239 0.16866 0.0
H121 H 0.6567 0.16508 0.22716 0.0
H122 H 0.55079 0.06002 0.22716 0.0
H123 H 0.70712 0.18296 0.20621 0.0
C124 C 0.69749 0.19354 0.19408 0.0
C125 C 0.5937 0.10514 0.18548 0.0
C126 C 0.56489 0.0761 0.1966 0.0
C127 C 0.62824 0.13795 0.19634 0.0
C128 C 0.6323 0.14047 0.21834 0.0
C129 C 0.60445 0.11287 0.22944 0.0
C130 C 0.57163 0.08134 0.21845 0.0
N131 N 0.65749 0.16883 0.18578 0.0
H132 H 0.58715 0.57966 0.50042 0.0
H133 H 0.5976 0.6489 0.55897 0.0
H134 H 0.5971 0.54273 0.55923 0.0
H135 H 0.55813 0.66345 0.53915 0.0
C136 C 0.57589 0.67303 0.52625 0.0
C137 C 0.58984 0.58425 0.51733 0.0
C138 C 0.59144 0.55589 0.52855 0.0
C139 C 0.59127 0.61839 0.5282 0.0
C140 C 0.59549 0.62341 0.55027 0.0
C141 C 0.59746 0.59635 0.56146 0.0
C142 C 0.59517 0.56315 0.55048 0.0
N143 N 0.59 0.64797 0.51742 0.0
H144 H 0.10872 0.60911 0.83375 0.0
H145 H 0.16985 0.61438 0.89092 0.0
H146 H 1.06429 0.61355 0.89375 0.0
H147 H 0.18526 0.57523 0.86834 0.0
C148 C 0.19802 0.59528 0.85711 0.0
C149 C 0.11102 0.61047 0.85058 0.0
C150 C 0.0807 0.61026 0.86236 0.0
C151 C 0.14371 0.61098 0.86074 0.0
C152 C 0.14541 0.6126 0.88269 0.0
C153 C 0.11712 0.61373 0.89447 0.0
C154 C 0.08566 0.6127 0.88426 0.0
N155 N 0.17511 0.61105 0.84962 0.0
H156 H 0.14097 0.52009 0.46354 0.0
H157 H 0.0731 0.50038 0.407 0.0
H158 H 0.18876 0.59356 0.41601 0.0
H159 H 1.02531 0.48315 0.4297 0.0
C160 C 1.03578 0.47895 0.44419 0.0
C161 C 0.13887 0.52761 0.44818 0.0
C162 C 0.16972 0.55942 0.44135 0.0
C163 C 0.10375 0.50757 0.43634 0.0
C164 C 0.10009 0.51665 0.4164 0.0
C165 C 0.13137 0.54675 0.4086 0.0
C166 C 0.16583 0.5683 0.4213 0.0
N167 N 0.07193 0.48164 0.44611 0.0
H168 H 0.42522 0.9866 0.79224 0.0
H169 H 0.42866 0.94275 0.72914 0.0
H170 H 0.49448 0.06389 0.7502 0.0
H171 H 0.40177 0.88481 0.74145 0.0
C172 C 0.39932 0.89009 0.75804 0.0
C173 C 0.4355 0.99191 0.77691 0.0
C174 C 0.46221 1.0292 0.77339 0.0
C175 C 0.42337 0.96069 0.76115 0.0
C176 C 0.43767 0.96674 0.74138 0.0
C177 C 0.46384 1.00406 0.73743 0.0
C178 C 0.47547 1.03497 0.75345 0.0
N179 N 0.39847 0.92352 0.76631 0.0
H180 H 0.49799 0.40758 0.10842 0.0
H181 H 0.55751 0.41171 0.05372 0.0
H182 H 0.54613 0.50859 0.07747 0.0
H183 H 0.54152 0.33025 0.07186 0.0
C184 C 0.54894 0.358 0.08035 0.0
C185 C 0.51423 0.42341 0.09625 0.0
C186 C 0.52119 0.46075 0.09509 0.0
C187 C 0.52794 0.40609 0.08163 0.0
C188 C 0.54779 0.42566 0.0653 0.0
C189 C 0.55397 0.46249 0.06348 0.0
C190 C 0.54134 0.48012 0.07873 0.0
N191 N 0.52036 0.36824 0.08293 0.0
H192 H 0.31336 0.55618 0.2058 0.0
H193 H 0.36725 0.54496 0.20311 0.0
H194 H 0.39651 0.60126 0.14786 0.0
H195 H 0.34333 0.61279 0.15057 0.0
H196 H 0.36915 0.49963 0.17121 0.0
H197 H 0.5008 0.6395 0.1748 0.0
H198 H 0.45721 0.63519 0.18397 0.0
H199 H 0.46564 0.63739 0.15669 0.0
C200 C 0.33198 0.56705 0.19342 0.0
C201 C 0.32404 0.58523 0.17834 0.0
C202 C 0.36282 0.56077 0.19196 0.0
C203 C 0.38624 0.57264 0.17543 0.0
C204 C 0.37964 0.59283 0.16112 0.0
H205 H 0.48747 0.50223 0.08675 0.0
H206 H 0.46107 0.53123 0.11125 0.0
C207 C 0.34903 0.59929 0.16264 0.0
C208 C 0.41304 0.55845 0.17082 0.0
H209 H 0.49984 0.58581 0.15225 0.0
C210 C 0.3982 0.51854 0.16775 0.0
C211 C 0.45098 0.58308 0.16637 0.0
C212 C 0.46962 0.62618 0.17087 0.0
C213 C 0.41901 0.50255 0.15853 0.0
C214 C 0.45553 0.52715 0.15233 0.0
C215 C 0.47161 0.56706 0.15689 0.0
C216 C 0.47465 0.51194 0.13835 0.0
C217 C 0.40073 0.45945 0.15395 0.0
C218 C 0.49124 0.49173 0.1456 0.0
C219 C 0.50674 0.4753 0.13162 0.0
C220 C 0.50577 0.47886 0.11021 0.0
C221 C 0.48939 0.49953 0.10316 0.0
C222 C 0.47416 0.51604 0.11712 0.0
H223 H 0.37135 0.44433 0.15898 0.0
H224 H 0.39962 0.45065 0.13693 0.0
H225 H 0.41819 0.45002 0.16218 0.0
H226 H 0.49185 0.48838 0.16199 0.0
H227 H 0.51954 0.45991 0.13755 0.0
H228 H 0.82331 0.32179 0.57925 0.0
H229 H 0.87975 0.38456 0.57807 0.0
H230 H 0.82313 0.40164 0.52654 0.0
H231 H 0.76688 0.34039 0.52828 0.0
H232 H 0.91071 0.38106 0.54493 0.0
H233 H 0.89914 0.50986 0.54511 0.0
H234 H 0.86527 0.46953 0.55726 0.0
H235 H 0.85795 0.47153 0.52984 0.0
C236 C 0.82232 0.34006 0.5685 0.0
C237 C 0.79122 0.32591 0.55349 0.0
C238 C 0.8545 0.37601 0.56788 0.0
C239 C 0.85614 0.39769 0.55196 0.0
C240 C 0.82278 0.38602 0.53917 0.0
H241 H 0.96198 0.46103 0.44558 0.0
H242 H 0.92589 0.45217 0.47658 0.0
C243 C 0.79044 0.35051 0.54005 0.0
C244 C 0.89335 0.42336 0.54412 0.0
H245 H 0.93449 0.49853 0.516 0.0
C246 C 0.91679 0.40764 0.53936 0.0
C247 C 0.90151 0.45801 0.53674 0.0
C248 C 0.87969 0.47825 0.54276 0.0
C249 C 0.94492 0.42277 0.52543 0.0
C250 C 0.95041 0.45516 0.51638 0.0
C251 C 0.92973 0.47329 0.52272 0.0
C252 C 0.97383 0.46707 0.49848 0.0
C253 C 0.96595 0.40172 0.51904 0.0
C254 C 1.01277 0.47919 0.50066 0.0
C255 C 1.03302 0.48322 0.483 0.0
C256 C 1.01476 0.4759 0.46293 0.0
C257 C 0.97643 0.46623 0.46088 0.0
C258 C 0.956 0.46161 0.47855 0.0
H259 H 0.95373 0.37358 0.52497 0.0
H260 H 0.96528 0.39664 0.50174 0.0
H261 H 0.99619 0.4194 0.52542 0.0
H262 H 1.02713 0.48413 0.51594 0.0
H263 H 1.06287 0.49172 0.48513 0.0
H264 H 0.63336 0.82989 0.8262 0.0
H265 H 0.58514 0.84661 0.81849 0.0
H266 H 0.52252 0.78895 0.86882 0.0
H267 H 0.57182 0.77337 0.87746 0.0
H268 H 0.48125 0.76424 0.82664 0.0
H269 H 0.5545 0.92162 0.85083 0.0
H270 H 0.58301 0.90583 0.83666 0.0
H271 H 0.56882 0.89103 0.86179 0.0
C272 C 0.61027 0.82195 0.83625 0.0
C273 C 0.60666 0.80022 0.8525 0.0
C274 C 0.58251 0.83133 0.83167 0.0
C275 C 0.55045 0.81908 0.84313 0.0
C276 C 0.54719 0.79865 0.85984 0.0
H277 H 0.39842 0.89645 0.80068 0.0
H278 H 0.42631 0.87267 0.82468 0.0
C279 C 0.5753 0.78964 0.86465 0.0
C280 C 0.5191 0.82482 0.83611 0.0
H281 H 0.50201 0.89515 0.82449 0.0
C282 C 0.48526 0.79277 0.82657 0.0
C283 C 0.52435 0.86198 0.83626 0.0
C284 C 0.5595 0.89711 0.84711 0.0
C285 C 0.45766 0.79721 0.81581 0.0
C286 C 0.46445 0.83463 0.81447 0.0
C287 C 0.49698 0.86645 0.82537 0.0
C288 C 0.4406 0.84206 0.80027 0.0
C289 C 0.4221 0.76195 0.80546 0.0
C290 C 0.43849 0.83184 0.77858 0.0
C291 C 0.42266 0.8455 0.76479 0.0
C292 C 0.40907 0.86983 0.77251 0.0
C293 C 0.409 0.87801 0.79424 0.0
C294 C 0.42481 0.86437 0.808 0.0
H295 H 0.41523 0.73662 0.81343 0.0
H296 H 0.39728 0.76651 0.80542 0.0
H297 H 0.42676 0.75531 0.78901 0.0
H298 H 0.45119 0.81529 0.77227 0.0
H299 H 0.4231 0.8389 0.74811 0.0
H300 H 0.89411 0.55787 0.1692 0.0
H301 H 0.82689 0.51212 0.15983 0.0
H302 H 0.81794 0.59286 0.12519 0.0
H303 H 0.8838 0.64049 0.13658 0.0
H304 H 0.75675 0.5573 0.14152 0.0
H305 H 0.78834 0.44663 0.10567 0.0
H306 H 0.80257 0.45892 0.13312 0.0
H307 H 0.8255 0.49449 0.11582 0.0
C308 C 0.87774 0.56654 0.16013 0.0
C309 C 0.89497 0.60299 0.1534 0.0
C310 C 0.83932 0.53981 0.15434 0.0
C311 C 0.81761 0.54828 0.14102 0.0
C312 C 0.83415 0.58523 0.13517 0.0
H313 H 0.61501 0.37607 0.06263 0.0
H314 H 0.68007 0.42294 0.07763 0.0
C315 C 0.87215 0.6124 0.1415 0.0
C316 C 0.77794 0.51881 0.13286 0.0
H317 H 0.72302 0.42714 0.10798 0.0
C318 C 0.74949 0.52892 0.13408 0.0
C319 C 0.76841 0.4819 0.12277 0.0
C320 C 0.7979 0.46999 0.11905 0.0
C321 C 0.71206 0.50352 0.12538 0.0
C322 C 0.70211 0.46597 0.11625 0.0
C323 C 0.73046 0.45573 0.11516 0.0
C324 C 0.66275 0.43716 0.1073 0.0
C325 C 0.68422 0.51802 0.12536 0.0
C326 C 0.63141 0.42892 0.11904 0.0
C327 C 0.5944 0.40325 0.11021 0.0
C328 C 0.58818 0.38417 0.0898 0.0
C329 C 0.61937 0.39068 0.07839 0.0
C330 C 0.65641 0.41736 0.08698 0.0
H331 H 0.6992 0.54977 0.12611 0.0
H332 H 0.66386 0.50516 0.11116 0.0
H333 H 0.6679 0.51057 0.13936 0.0
H334 H 0.63549 0.44244 0.13502 0.0
H335 H 0.57063 0.39799 0.1194 0.0
H336 H 0.36687 0.89825 0.52534 0.0
H337 H 0.33715 0.83046 0.53021 0.0
H338 H 0.3822 0.80742 0.47393 0.0
H339 H 0.41257 0.87494 0.4693 0.0
H340 H 0.28297 0.77668 0.50139 0.0
H341 H 0.39581 0.74024 0.5112 0.0
H342 H 0.4051 0.78906 0.5159 0.0
H343 H 0.40351 0.76714 0.48978 0.0
C344 C 0.37114 0.87882 0.51432 0.0
C345 C 0.39144 0.8916 0.49675 0.0
C346 C 0.35435 0.84024 0.51717 0.0
C347 C 0.35805 0.81407 0.50264 0.0
C348 C 0.3798 0.82725 0.48564 0.0
H349 H 0.24455 0.60346 0.43296 0.0
H350 H 0.29317 0.66147 0.45469 0.0
C351 C 0.39646 0.86568 0.48276 0.0
C352 C 0.33365 0.77232 0.50271 0.0
H353 H 0.33481 0.68838 0.49365 0.0
C354 C 0.29415 0.75722 0.50039 0.0
C355 C 0.34845 0.74718 0.50136 0.0
C356 C 0.39058 0.76182 0.50492 0.0
C357 C 0.26914 0.7179 0.49463 0.0
C358 C 0.28413 0.69286 0.49179 0.0
C359 C 0.32344 0.70763 0.4958 0.0
C360 C 0.26008 0.65288 0.48153 0.0
C361 C 0.22735 0.70421 0.48978 0.0
C362 C 0.22658 0.62753 0.48994 0.0
C363 C 0.19808 0.59517 0.4773 0.0
C364 C 0.20318 0.58702 0.45619 0.0
C365 C 0.23907 0.60961 0.44886 0.0
C366 C 0.26717 0.64252 0.46137 0.0
H367 H 0.22188 0.72839 0.48924 0.0
H368 H 0.21647 0.68537 0.47451 0.0
H369 H 0.21076 0.68747 0.50209 0.0
H370 H 0.22104 0.6346 0.50568 0.0
H371 H 0.17101 0.57868 0.48367 0.0
H372 H 0.54568 0.35871 0.86482 0.0
H373 H 0.52594 0.29248 0.86945 0.0
H374 H 0.60867 0.29396 0.82803 0.0
H375 H 0.62862 0.36016 0.82343 0.0
H376 H 0.49602 0.24156 0.83218 0.0
H377 H 0.609 0.22606 0.87123 0.0
H378 H 0.60687 0.26983 0.87529 0.0
H379 H 0.62656 0.25926 0.85249 0.0
C380 C 0.56076 0.34545 0.85743 0.0
C381 C 0.58837 0.36429 0.84358 0.0
C382 C 0.54947 0.30764 0.8601 0.0
C383 C 0.56602 0.28846 0.84921 0.0
C384 C 0.59602 0.30847 0.83689 0.0
H385 H 0.53448 0.091 0.781 0.0
H386 H 0.55579 0.14958 0.80512 0.0
C387 C 0.6071 0.34612 0.83407 0.0
C388 C 0.54661 0.24612 0.84654 0.0
H389 H 0.56415 0.17211 0.84604 0.0
C390 C 0.5103 0.226 0.83573 0.0
C391 C 0.56556 0.22623 0.85114 0.0
C392 C 0.60404 0.24642 0.86336 0.0
C393 C 0.49393 0.18719 0.82752 0.0
C394 C 0.51392 0.16763 0.83098 0.0
C395 C 0.54887 0.18709 0.84336 0.0
C396 C 0.50216 0.12949 0.81912 0.0
C397 C 0.45715 0.16877 0.81361 0.0
C398 C 0.46534 0.09804 0.81947 0.0
C399 C 0.45247 0.0649 0.80501 0.0
C400 C 0.47662 0.0623 0.79036 0.0
C401 C 0.51459 0.09254 0.79146 0.0
C402 C 0.52708 0.12587 0.80554 0.0
H403 H 0.44971 0.19021 0.8093 0.0
H404 H 0.45907 0.15287 0.79898 0.0
H405 H 0.4335 0.1482 0.82196 0.0
H406 H 0.44599 0.09978 0.83026 0.0
H407 H 0.42314 1.04213 0.80477 0.0
H408 H 0.52352 0.96436 0.49357 0.0
H409 H 0.52389 0.90494 0.49766 0.0
H410 H 0.6465 0.9668 0.50036 0.0
H411 H 0.64613 1.02627 0.49758 0.0
H412 H 0.53799 0.85651 0.47986 0.0
H413 H 0.64644 0.9153 0.54673 0.0
H414 H 0.62761 0.94319 0.53722 0.0
H415 H 0.66607 0.9405 0.52499 0.0
C416 C 0.55075 0.9656 0.49517 0.0
C417 C 0.58482 1.00135 0.49535 0.0
C418 C 0.551 0.93099 0.49754 0.0
C419 C 0.5853 0.92985 0.5001 0.0
C420 C 0.61924 0.96548 0.49953 0.0
H421 H 0.63416 0.73399 0.50698 0.0
H422 H 0.63735 0.7945 0.50005 0.0
C423 C 0.61902 1.00015 0.49757 0.0
C424 C 0.5854 0.89191 0.50283 0.0
H425 H 0.63069 0.85364 0.52957 0.0
C426 C 0.55838 0.85646 0.49091 0.0
C427 C 0.61138 0.88966 0.51722 0.0
C428 C 0.63919 0.92407 0.53241 0.0
C429 C 0.55703 0.82077 0.49262 0.0
C430 C 0.58347 0.81884 0.50662 0.0
C431 C 0.61056 0.85407 0.51849 0.0
C432 C 0.58173 0.78055 0.51003 0.0
C433 C 0.52712 0.78503 0.47905 0.0
C434 C 0.54973 0.75114 0.51802 0.0
C435 C 0.54812 0.71663 0.52217 0.0
C436 C 0.57795 0.7087 0.51823 0.0
C437 C 0.60994 0.73773 0.50985 0.0
C438 C 0.61191 0.77296 0.50606 0.0
H439 H 0.5153 0.79192 0.4656 0.0
H440 H 0.53899 0.76671 0.47301 0.0
H441 H 0.50332 0.76818 0.48851 0.0
H442 H 0.52598 0.75525 0.52169 0.0
H443 H 0.52316 0.69599 0.52896 0.0
H444 H 0.78128 0.66225 0.85222 0.0
H445 H 0.84087 0.66079 0.85561 0.0
H446 H 0.7922 0.55865 0.81044 0.0
H447 H 0.73205 0.55892 0.80801 0.0
H448 H 0.89651 0.66904 0.83651 0.0
H449 H 0.83296 0.51723 0.84752 0.0
H450 H 0.81525 0.52118 0.82289 0.0
H451 H 0.80466 0.54002 0.84692 0.0
C452 C 0.78289 0.63914 0.84305 0.0
C453 C 0.75054 0.6105 0.82994 0.0
C454 C 0.81766 0.63833 0.84498 0.0
C455 C 0.82244 0.60897 0.83382 0.0
C456 C 0.79036 0.58102 0.8202 0.0
H457 H 1.00755 0.56522 0.87367 0.0
H458 H 0.94967 0.56717 0.86652 0.0
C459 C 0.75538 0.58145 0.81855 0.0
C460 C 0.86052 0.60815 0.83625 0.0
H461 H 0.89799 0.54864 0.84067 0.0
C462 C 0.89638 0.64246 0.8375 0.0
C463 C 0.86239 0.57419 0.83801 0.0
C464 C 0.82681 0.53619 0.839 0.0
C465 C 0.93231 0.6438 0.84021 0.0
C466 C 0.93414 0.60958 0.84106 0.0
C467 C 0.89825 0.57533 0.83987 0.0
C468 C 0.9719 0.60846 0.84462 0.0
C469 C 0.96799 0.68269 0.84301 0.0
C470 C 1.00582 0.62999 0.83459 0.0
C471 C 1.04038 0.62943 0.83911 0.0
C472 C 1.04279 0.6068 0.85366 0.0
C473 C 1.00821 0.58374 0.86262 0.0
C474 C 0.97421 0.58469 0.85837 0.0
H475 H 0.96186 0.70592 0.84847 0.0
H476 H 0.9895 0.68407 0.85448 0.0
H477 H 0.98038 0.6885 0.82777 0.0
H478 H 1.00596 0.64763 0.82318 0.0
H479 H 0.06558 0.64779 0.83166 0.0
H480 H 0.26485 0.71683 0.15714 0.0
H481 H 0.32571 0.77796 0.16071 0.0
H482 H 0.2676 0.83872 0.18086 0.0
H483 H 0.20699 0.77781 0.17753 0.0
H484 H 0.35743 0.84291 0.14338 0.0
H485 H 0.35181 0.89033 0.22594 0.0
H486 H 0.31864 0.84248 0.21335 0.0
H487 H 0.31117 0.88185 0.20984 0.0
C488 C 0.26472 0.74305 0.16245 0.0
C489 C 0.22974 0.74106 0.16712 0.0
C490 C 0.30015 0.77865 0.16448 0.0
C491 C 0.30301 0.8145 0.17157 0.0
C492 C 0.26793 0.81249 0.17597 0.0
H493 H 0.49102 0.06106 0.20064 0.0
H494 H 0.43054 1.00006 0.19375 0.0
C495 C 0.2325 0.77697 0.17385 0.0
C496 C 0.34188 0.85331 0.17403 0.0
H497 H 0.39985 0.93672 0.20791 0.0
C498 C 0.36648 0.86311 0.15764 0.0
C499 C 0.35534 0.88113 0.19241 0.0
C500 C 0.33312 0.87337 0.21147 0.0
C501 C 0.40198 0.89879 0.15878 0.0
C502 C 0.41546 0.92667 0.17719 0.0
C503 C 0.39088 0.91667 0.1936 0.0
C504 C 0.45398 0.96599 0.17981 0.0
C505 C 0.4239 0.90662 0.13962 0.0
C506 C 0.48941 0.96976 0.1743 0.0
C507 C 0.52465 1.00567 0.17791 0.0
C508 C 0.5267 1.04005 0.18726 0.0
C509 C 0.49135 1.03627 0.19267 0.0
C510 C 0.45621 1.00058 0.18899 0.0
H511 H 0.40495 0.88988 0.1252 0.0
H512 H 0.43849 0.93755 0.13783 0.0
H513 H 0.44566 0.89783 0.141 0.0
H514 H 0.49041 0.94448 0.16795 0.0
H515 H 0.55077 1.00601 0.17433 0.0
H516 H 0.64539 0.25492 0.50068 0.0
H517 H 0.64573 0.31606 0.50415 0.0
H518 H 0.52333 0.25469 0.50277 0.0
H519 H 0.52297 0.19362 0.49965 0.0
H520 H 0.62177 0.35191 0.48178 0.0
H521 H 0.5409 0.33122 0.55151 0.0
H522 H 0.55796 0.29933 0.54213 0.0
H523 H 0.51457 0.29365 0.53025 0.0
C524 C 0.61834 0.25409 0.5012 0.0
C525 C 0.58414 0.21811 0.49995 0.0
C526 C 0.61856 0.28969 0.50319 0.0
C527 C 0.58465 0.29161 0.50425 0.0
C528 C 0.55041 0.25558 0.50272 0.0
H529 H 0.5289 0.48198 0.5202 0.0
H530 H 0.52757 0.42033 0.5136 0.0
C531 C 0.55017 0.21996 0.50071 0.0
C532 C 0.5852 0.33066 0.50653 0.0
H533 H 0.55117 0.38396 0.53436 0.0
C534 C 0.60634 0.35863 0.49343 0.0
C535 C 0.56537 0.34109 0.52156 0.0
C536 C 0.54374 0.31497 0.53731 0.0
C537 C 0.60744 0.39476 0.4945 0.0
C538 C 0.58762 0.40521 0.50955 0.0
C539 C 0.5665 0.37722 0.52265 0.0
C540 C 0.58839 0.4444 0.51206 0.0
C541 C 0.62903 0.42082 0.47873 0.0
C542 C 0.62269 0.48035 0.51341 0.0
C543 C 0.62329 0.51612 0.51687 0.0
C544 C 0.58967 0.51822 0.51904 0.0
C545 C 0.5554 0.48238 0.51769 0.0
C546 C 0.55475 0.44659 0.51422 0.0
H547 H 0.63129 0.4044 0.46441 0.0
H548 H 0.61515 0.4369 0.47412 0.0
H549 H 0.65842 0.44172 0.48564 0.0
H550 H 0.64964 0.48108 0.51272 0.0
H551 H 0.65062 0.54245 0.51885 0.0
H552 H 0.55638 0.66906 0.82676 0.0
H553 H 0.49608 0.66913 0.83006 0.0
H554 H 0.43976 0.55021 0.83903 0.0
H555 H 0.49987 0.55008 0.83582 0.0
H556 H 0.42468 0.63203 0.80884 0.0
H557 H 0.40322 0.58939 0.88787 0.0
H558 H 0.4476 0.60378 0.87623 0.0
H559 H 0.40794 0.55572 0.8695 0.0
C560 C 0.5313 0.64273 0.82947 0.0
C561 C 0.53421 0.60956 0.83103 0.0
C562 C 0.49623 0.64279 0.83134 0.0
C563 C 0.46205 0.60987 0.83522 0.0
C564 C 0.46491 0.57664 0.83658 0.0
H565 H 0.22403 0.54577 0.8604 0.0
H566 H 0.28529 0.55091 0.85426 0.0
C567 C 0.49986 0.57649 0.83455 0.0
C568 C 0.42397 0.61013 0.83775 0.0
H569 H 0.35103 0.58825 0.87016 0.0
C570 C 0.40883 0.62253 0.82236 0.0
C571 C 0.40202 0.59807 0.85526 0.0
C572 C 0.4161 0.58635 0.87327 0.0
C573 C 0.37306 0.62175 0.82352 0.0
C574 C 0.35084 0.6093 0.841 0.0
C575 C 0.36655 0.59762 0.85652 0.0
C576 C 0.31111 0.60637 0.84336 0.0
C577 C 0.35885 0.63289 0.80532 0.0
C578 C 0.30239 0.63524 0.83924 0.0
C579 C 0.26583 0.6318 0.84241 0.0
C580 C 0.23627 0.59954 0.85019 0.0
C581 C 0.24516 0.57102 0.85421 0.0
C582 C 0.28106 0.57416 0.85082 0.0
H583 H 0.37228 0.63024 0.79087 0.0
H584 H 0.32745 0.61479 0.80212 0.0
H585 H 0.36632 0.66333 0.80897 0.0
H586 H 0.32423 0.66135 0.83415 0.0
H587 H 0.26136 0.65515 0.83953 0.0
H588 H 1.03853 0.49364 0.17481 0.0
H589 H 0.97874 0.4347 0.17837 0.0
H590 H 0.91502 0.48574 0.15793 0.0
H591 H 0.97487 0.54469 0.15421 0.0
H592 H 0.92107 0.41443 0.20191 0.0
H593 H 0.85306 0.38544 0.12207 0.0
H594 H 0.9023 0.42168 0.12902 0.0
H595 H 0.86481 0.43152 0.13559 0.0
C596 C 1.01195 0.49259 0.17085 0.0
C597 C 1.01286 0.52508 0.16394 0.0
C598 C 0.97709 0.45824 0.17298 0.0
C599 C 0.94071 0.4538 0.1681 0.0
C600 C 0.94157 0.48643 0.16134 0.0
H601 H 0.69795 0.25394 0.1738 0.0
H602 H 0.75401 0.31555 0.16776 0.0
C603 C 0.9765 0.52095 0.15932 0.0
C604 C 0.90287 0.41603 0.17079 0.0
H605 H 0.81481 0.34555 0.14627 0.0
C606 C 0.89816 0.3996 0.18953 0.0
C607 C 0.87133 0.39541 0.15518 0.0
C608 C 0.87308 0.40912 0.13426 0.0
C609 C 0.86439 0.36514 0.19315 0.0
C610 C 0.83324 0.34377 0.17734 0.0
C611 C 0.83767 0.36048 0.15866 0.0
C612 C 0.79715 0.30426 0.17985 0.0
C613 C 0.86225 0.35309 0.21458 0.0
C614 C 0.80057 0.27494 0.18794 0.0
C615 C 0.76837 0.23975 0.19152 0.0
C616 C 0.7302 0.23049 0.18673 0.0
C617 C 0.72624 0.25881 0.17765 0.0
C618 C 0.75889 0.2947 0.17427 0.0
H619 H 0.87976 0.37821 0.22666 0.0
H620 H 0.83251 0.33831 0.21907 0.0
H621 H 0.87381 0.3334 0.21472 0.0
H622 H 0.82858 0.2791 0.1917 0.0
H623 H 0.77362 0.21946 0.19844 0.0
H624 H 0.1127 0.67291 0.09467 0.0
H625 H 0.11309 0.66943 0.05665 0.0
H626 H 0.12496 0.56908 0.0538 0.0
H627 H 0.12357 0.57179 0.0918 0.0
H628 H 0.16677 0.67509 0.03147 0.0
H629 H 1.03806 0.53178 0.00998 0.0
H630 H 1.05009 0.55693 0.03627 0.0
H631 H 0.07333 0.53098 0.02673 0.0
C632 C 0.11513 0.6499 0.08597 0.0
C633 C 0.11786 0.62248 0.09637 0.0
C634 C 0.11541 0.64798 0.06417 0.0
C635 C 0.11842 0.61862 0.05216 0.0
C636 C 0.12157 0.59143 0.06253 0.0
H637 H 0.13515 0.57146 0.91798 0.0
H638 H 0.13724 0.57316 0.95613 0.0
C639 C 0.12102 0.59316 0.08435 0.0
C640 C 0.11933 0.6173 0.02893 0.0
H641 H 0.07559 0.56021 0.98235 0.0
C642 C 0.14671 0.64997 0.02077 0.0
C643 C 0.09323 0.58455 0.01482 0.0
C644 C 1.06178 0.54921 0.02235 0.0
C645 C 0.14889 0.65071 -0.00092 0.0
C646 C 0.12283 0.61802 0.98502 0.0
C647 C 0.09569 0.58521 0.99311 0.0
C648 C 0.1226 0.61771 0.96189 0.0
C649 C 0.17942 0.68636 0.99133 0.0
C650 C 0.11355 0.64206 0.95237 0.0
C651 C 0.11226 0.6411 0.9306 0.0
C652 C 0.12004 0.61576 0.91778 0.0
C653 C 0.12941 0.59159 0.92737 0.0
C654 C 0.13039 0.59237 0.94917 0.0
H655 H 0.20256 0.70521 0.00378 0.0
H656 H 0.19206 0.67878 0.97782 0.0
H657 H 0.16656 0.70294 0.98608 0.0
H658 H 0.10697 0.66153 0.96179 0.0
H659 H 0.1052 0.66028 0.92378 0.0
H660 H 0.54756 0.10544 0.42203 0.0
H661 H 0.55589 0.10858 0.38497 0.0
H662 H 0.67009 0.12881 0.39537 0.0
H663 H 0.66171 0.12501 0.4328 0.0
H664 H 0.60603 0.1675 0.36558 0.0
H665 H 0.62742 0.04271 0.34652 0.0
H666 H 0.61013 0.05142 0.37087 0.0
H667 H 0.65997 0.07877 0.36705 0.0
C668 C 0.57452 0.11041 0.41656 0.0
C669 C 0.60395 0.11488 0.43057 0.0
C670 C 0.57923 0.11224 0.39524 0.0
C671 C 0.61344 0.11851 0.38715 0.0
C672 C 0.64308 0.12316 0.40105 0.0
H673 H 0.66824 0.13213 0.25517 0.0
H674 H 0.67402 0.13641 0.29347 0.0
C675 C 0.63834 0.1212 0.42252 0.0
C676 C 0.61773 0.12102 0.36429 0.0
H677 H 0.63095 0.07792 0.31904 0.0
C678 C 0.61165 0.14796 0.35547 0.0
C679 C 0.62525 0.09573 0.35095 0.0
C680 C 0.63077 0.06528 0.35922 0.0
C681 C 0.61228 0.14995 0.33384 0.0
C682 C 0.61868 0.12396 0.32044 0.0
C683 C 0.62599 0.09782 0.32927 0.0
C684 C 0.61572 0.12214 0.29717 0.0
C685 C 0.60604 0.17993 0.3255 0.0
C686 C 0.58104 0.11251 0.28641 0.0
C687 C 0.57767 0.11004 0.26459 0.0
C688 C 0.60889 0.11705 0.25286 0.0
C689 C 0.64373 0.12691 0.26367 0.0
C690 C 0.64701 0.12913 0.28557 0.0
H691 H 0.61236 0.20407 0.33791 0.0
H692 H 0.62412 0.19162 0.3125 0.0
H693 H 0.57576 0.16665 0.31943 0.0
H694 H 0.55631 0.10645 0.29489 0.0
H695 H 0.55049 0.1027 0.25687 0.0
H696 H 0.68695 0.67472 0.76458 0.0
H697 H 0.68154 0.67741 0.72689 0.0
H698 H 0.58499 0.56237 0.71815 0.0
H699 H 0.58969 0.55966 0.75547 0.0
H700 H 0.6853 0.6329 0.69244 0.0
H701 H 0.54243 0.61859 0.6896 0.0
H702 H 0.57068 0.62914 0.71389 0.0
H703 H 0.54299 0.58048 0.701 0.0
C704 C 0.66451 0.65005 0.75463 0.0
C705 C 0.63858 0.61712 0.76321 0.0
C706 C 0.66144 0.65162 0.73306 0.0
C707 C 0.63228 0.62041 0.71964 0.0
C708 C 0.60704 0.58728 0.72815 0.0
H709 H 0.55971 0.54434 0.58842 0.0
H710 H 0.57003 0.55338 0.62657 0.0
C711 C 0.60998 0.58572 0.74959 0.0
C712 C 0.62836 0.62173 0.69669 0.0
H713 H 0.5638 0.6069 0.65673 0.0
C714 C 0.65892 0.62775 0.68468 0.0
C715 C 0.59396 0.61512 0.68645 0.0
C716 C 0.5608 0.61086 0.69843 0.0
C717 C 0.65545 0.62565 0.66273 0.0
C718 C 0.62061 0.61775 0.65247 0.0
C719 C 0.59042 0.61272 0.66453 0.0
C720 C 0.61434 0.61299 0.6292 0.0
C721 C 0.6886 0.63046 0.65059 0.0
C722 C 0.63531 0.64366 0.61787 0.0
C723 C 0.6294 0.63858 0.59597 0.0
C724 C 0.60244 0.60266 0.58489 0.0
C725 C 0.58104 0.57224 0.59636 0.0
C726 C 0.5868 0.57741 0.61822 0.0
H727 H 0.71052 0.62883 0.66028 0.0
H728 H 0.67871 0.60812 0.63668 0.0
H729 H 0.70224 0.65893 0.64502 0.0
H730 H 0.65631 0.67157 0.62597 0.0
H731 H 0.64652 0.66258 0.58767 0.0
H732 H 0.6179 0.14317 0.56923 0.0
H733 H 0.60645 0.12761 0.6051 0.0
H734 H 0.49661 1.02978 0.5827 0.0
H735 H 0.50788 0.04446 0.54722 0.0
H736 H 0.5478 0.12039 0.62968 0.0
H737 H 0.54529 0.98201 0.61491 0.0
H738 H 0.56361 1.01714 0.59701 0.0
H739 H 0.51309 0.98475 0.59671 0.0
C740 C 0.59131 0.11843 0.57201 0.0
C741 C 0.56392 0.09495 0.55533 0.0
C742 C 0.58486 0.10953 0.59246 0.0
C743 C 0.55107 0.07698 0.59645 0.0
C744 C 0.52333 0.05437 0.57991 0.0
H745 H 0.42513 0.97314 0.69859 0.0
H746 H 0.44969 0.99099 0.66472 0.0
C747 C 0.52975 0.06308 0.5596 0.0
C748 C 0.54383 0.06665 0.61785 0.0
H749 H 0.51738 0.99174 0.64581 0.0
C750 C 0.54176 0.09254 0.63334 0.0
C751 C 0.536 1.03026 0.62257 0.0
C752 C 0.53999 1.00211 0.60697 0.0
C753 C 0.5303 0.08228 0.65314 0.0
C754 C 0.52101 0.04534 0.65752 0.0
C755 C 0.5242 1.01989 0.64228 0.0
C756 C 0.50711 1.03241 0.67775 0.0
C757 C 0.52686 0.11043 0.66901 0.0
C758 C 0.53163 0.04895 0.6961 0.0
C759 C 0.51782 1.03859 0.71537 0.0
C760 C 0.47916 1.01157 0.71667 0.0
C761 C 0.45504 0.99386 0.69812 0.0
C762 C 0.46896 1.00417 0.6788 0.0
H763 H 0.52906 0.13524 0.66203 0.0
H764 H 0.49925 0.09603 0.6761 0.0
H765 H 0.55003 0.12155 0.68174 0.0
H766 H 0.56132 0.07032 0.69553 0.0
H767 H 0.53734 0.05217 0.72934 0.0
H768 H 0.65251 0.55022 0.88464 0.0
H769 H 0.64346 0.53556 0.92035 0.0
H770 H 0.6168 0.62549 0.93565 0.0
H771 H 0.6256 0.64038 0.8996 0.0
H772 H 0.67878 0.58263 0.95966 0.0
H773 H 0.5223 0.52611 0.9497 0.0
H774 H 0.55102 0.53414 0.92777 0.0
H775 H 0.55287 0.57408 0.94395 0.0
C776 C 0.64495 0.56715 0.89557 0.0
C777 C 0.63944 0.5963 0.88922 0.0
C778 C 0.63994 0.55878 0.91602 0.0
C779 C 0.62913 0.57917 0.93056 0.0
C780 C 0.62476 0.60915 0.92455 0.0
H781 H 0.60662 0.53818 0.06186 0.0
H782 H 0.6274 0.56984 0.03054 0.0
C783 C 0.62992 0.6177 0.904 0.0
C784 C 0.62073 0.56732 0.9516 0.0
H785 H 0.54711 0.52142 0.98168 0.0
C786 C 0.65011 0.56968 0.96464 0.0
C787 C 0.58319 0.55 0.95785 0.0
C788 C 0.55035 0.54557 0.9441 0.0
C789 C 0.64278 0.55448 0.98365 0.0
C790 C 0.60515 0.53674 0.98975 0.0
C791 C 0.57595 0.53513 0.97692 0.0
C792 C 0.59486 0.5177 0.0088 0.0
C793 C 0.67495 0.55611 -0.00334 0.0
C794 C 0.56979 0.47795 0.00693 0.0
C795 C 0.55776 0.45986 0.02472 0.0
C796 C 0.57038 0.48123 0.04478 0.0
C797 C 0.59623 0.52098 0.04662 0.0
C798 C 0.60833 0.53906 0.02877 0.0
H799 H 0.7007 0.56447 0.98796 0.0
H800 H 0.68283 0.57759 0.0108 0.0
H801 H 0.66595 0.52785 0.00189 0.0
H802 H 0.559 0.461 0.99163 0.0
H803 H 0.5374 0.42935 0.02273 0.0
H804 H 0.18062 0.64013 0.22775 0.0
H805 H 0.1774 0.62909 0.26421 0.0
H806 H 0.06763 0.6216 0.26461 0.0
H807 H 0.07029 0.63219 0.22792 0.0
H808 H 0.16794 0.66876 0.3006 0.0
H809 H 1.04762 0.51837 0.28166 0.0
H810 H 0.07534 0.54567 0.26184 0.0
H811 H 1.04013 0.55501 0.27305 0.0
C812 C 0.15589 0.63648 0.23559 0.0
C813 C 0.12552 0.63667 0.22486 0.0
C814 C 0.15415 0.63022 0.25645 0.0
C815 C 0.12202 0.6239 0.26695 0.0
C816 C 0.09237 0.62574 0.25662 0.0
H817 H 0.07189 0.55139 0.39109 0.0
H818 H 0.0677 0.5719 0.35732 0.0
C819 C 0.09406 0.63202 0.23571 0.0
C820 C 0.11932 0.61402 0.28845 0.0
H821 H 0.07204 0.54008 0.31686 0.0
C822 C 0.14681 0.64075 0.30422 0.0
C823 C 0.09162 0.57746 0.29308 0.0
C824 C 1.06211 0.54726 0.27654 0.0
C825 C 0.14776 0.63167 0.32447 0.0
C826 C 0.12091 0.59466 0.3289 0.0
C827 C 0.0926 0.56838 0.31334 0.0
C828 C 0.12313 0.58194 0.34921 0.0
C829 C 0.17759 0.66168 0.34092 0.0
C830 C 0.15527 0.57996 0.35553 0.0
C831 C 0.15763 0.56799 0.37467 0.0
C832 C 0.12777 0.55759 0.38781 0.0
C833 C 0.09519 0.55883 0.38122 0.0
C834 C 0.09286 0.57079 0.36203 0.0
H835 H 0.18847 0.69112 0.3369 0.0
H836 H 0.16606 0.66009 0.35647 0.0
H837 H 0.20205 0.65669 0.3421 0.0
H838 H 0.17852 0.58752 0.3456 0.0
H839 H 0.1828 0.56673 0.37915 0.0
loop_
_geom_bond_atom_site_label_1
_geom_bond_atom_site_label_2
_geom_bond_distance
_geom_bond_site_symmetry_2
_ccdc_geom_bond_type
Tb0 C9 2.764 1_455 S
Tb0 O10 2.325 . S
Tb0 O13 2.303 . S
Tb0 O17 2.322 . S
Tb0 O18 2.349 . S
Tb0 O21 2.415 1_455 S
Tb0 O22 2.399 1_455 S
Tb1 O11 2.322 . S
Tb1 O12 2.349 . S
Tb1 O14 2.415 . S
Tb1 O15 2.399 . S
Tb1 O16 2.325 . S
Tb1 O19 2.303 . S
Tb1 C30 2.764 . S
C2 O18 1.261 . S
C2 O19 1.257 . S
C3 C6 1.358 . S
C3 C7 1.332 . S
C3 C9 1.504 . S
C4 C5 1.373 . S
C4 C8 1.308 . S
C5 C4 1.373 . S
C5 C6 1.429 . S
C5 H32 0.932 . S
C6 C3 1.358 . S
C6 C5 1.429 . S
C6 H33 0.930 . S
C7 C3 1.332 . S
C7 C8 1.394 . S
C7 H34 0.932 . S
C8 C4 1.308 . S
C8 C7 1.394 . S
C8 H35 0.929 . S
C9 Tb0 2.764 1_655 S
C9 C3 1.504 . S
C9 O21 1.239 . S
C9 O22 1.263 . S
O10 Tb0 2.325 . S
O10 C20 1.236 . S
O11 Tb1 2.322 . S
O11 C20 1.257 . S
O12 Tb1 2.349 . S
O12 C23 1.261 . S
O13 Tb0 2.303 . S
O13 C23 1.257 . S
O14 Tb1 2.415 . S
O14 C30 1.239 . S
O15 Tb1 2.399 . S
O15 C30 1.263 . S
O16 Tb1 2.325 . S
O16 C31 1.236 . S
O17 Tb0 2.322 . S
O17 C31 1.257 . S
O18 Tb0 2.349 . S
O18 C2 1.261 . S
O19 Tb1 2.303 . S
O19 C2 1.257 . S
C20 O10 1.236 . S
C20 O11 1.257 . S
O21 Tb0 2.415 1_655 S
O21 C9 1.239 . S
O22 Tb0 2.399 1_655 S
O22 C9 1.263 . S
C23 O12 1.261 . S
C23 O13 1.257 . S
C24 C27 1.358 . S
C24 C28 1.332 . S
C24 C30 1.504 . S
C25 C26 1.373 . S
C25 C29 1.308 . S
C26 C25 1.373 . S
C26 C27 1.429 . S
C26 H36 0.932 . S
C27 C24 1.358 . S
C27 C26 1.429 . S
C27 H37 0.930 . S
C28 C24 1.332 . S
C28 C29 1.394 . S
C28 H38 0.932 . S
C29 C25 1.308 . S
C29 C28 1.394 . S
C29 H39 0.929 . S
C30 Tb1 2.764 . S
C30 O14 1.239 . S
C30 O15 1.263 . S
C30 C24 1.504 . S
C31 O16 1.236 . S
C31 O17 1.257 . S
H32 C5 0.932 . S
H33 C6 0.930 . S
H34 C7 0.932 . S
H35 C8 0.929 . S
H36 C26 0.932 . S
H37 C27 0.930 . S
H38 C28 0.932 . S
H39 C29 0.929 . S
Tb40 C49 2.764 1_545 S
Tb40 O50 2.325 1_545 S
Tb40 O53 2.303 . S
Tb40 O57 2.322 . S
Tb40 O58 2.349 . S
Tb40 O61 2.415 1_545 S
Tb40 O62 2.399 1_545 S
Tb41 O51 2.322 . S
Tb41 O52 2.349 . S
Tb41 O54 2.415 . S
Tb41 O55 2.399 . S
Tb41 O56 2.325 . S
Tb41 O59 2.303 . S
Tb41 C70 2.764 . S
C42 O58 1.261 . S
C42 O59 1.257 . S
C43 C46 1.358 . S
C43 C47 1.332 . S
C43 C49 1.504 . S
C44 C45 1.373 . S
C44 C48 1.308 . S
C45 C44 1.373 . S
C45 C46 1.429 . S
C45 H72 0.932 . S
C46 C43 1.358 . S
C46 C45 1.429 . S
C46 H73 0.930 . S
C47 C43 1.332 . S
C47 C48 1.394 . S
C47 H74 0.932 . S
C48 C44 1.308 . S
C48 C47 1.394 . S
C48 H75 0.929 . S
C49 Tb40 2.764 1_565 S
C49 C43 1.504 . S
C49 O61 1.239 . S
C49 O62 1.263 . S
O50 Tb40 2.325 1_565 S
O50 C60 1.236 . S
O51 Tb41 2.322 . S
O51 C60 1.257 1_545 S
O52 Tb41 2.349 . S
O52 C63 1.261 . S
O53 Tb40 2.303 . S
O53 C63 1.257 . S
O54 Tb41 2.415 . S
O54 C70 1.239 . S
O55 Tb41 2.399 . S
O55 C70 1.263 . S
O56 Tb41 2.325 . S
O56 C71 1.236 . S
O57 Tb40 2.322 . S
O57 C71 1.257 . S
O58 Tb40 2.349 . S
O58 C42 1.261 . S
O59 Tb41 2.303 . S
O59 C42 1.257 . S
C60 O50 1.236 . S
C60 O51 1.257 1_565 S
O61 Tb40 2.415 1_565 S
O61 C49 1.239 . S
O62 Tb40 2.399 1_565 S
O62 C49 1.263 . S
C63 O52 1.261 . S
C63 O53 1.257 . S
C64 C67 1.358 . S
C64 C68 1.332 . S
C64 C70 1.504 . S
C65 C66 1.373 . S
C65 C69 1.308 . S
C66 C65 1.373 . S
C66 C67 1.429 . S
C66 H76 0.932 . S
C67 C64 1.358 . S
C67 C66 1.429 . S
C67 H77 0.930 . S
C68 C64 1.332 . S
C68 C69 1.394 . S
C68 H78 0.932 . S
C69 C65 1.308 . S
C69 C68 1.394 . S
C69 H79 0.929 . S
C70 Tb41 2.764 . S
C70 O54 1.239 . S
C70 O55 1.263 . S
C70 C64 1.504 . S
C71 O56 1.236 . S
C71 O57 1.257 . S
H72 C45 0.932 . S
H73 C46 0.930 . S
H74 C47 0.932 . S
H75 C48 0.929 . S
H76 C66 0.932 . S
H77 C67 0.930 . S
H78 C68 0.932 . S
H79 C69 0.929 . S
Tb80 C89 2.764 . S
Tb80 O90 2.325 . S
Tb80 O93 2.303 . S
Tb80 O97 2.322 . S
Tb80 O98 2.349 . S
Tb80 O101 2.415 . S
Tb80 O102 2.399 . S
Tb81 O91 2.322 . S
Tb81 O92 2.349 . S
Tb81 O94 2.415 . S
Tb81 O95 2.399 . S
Tb81 O96 2.325 . S
Tb81 O99 2.303 . S
Tb81 C110 2.764 . S
C82 O98 1.261 . S
C82 O99 1.257 . S
C83 C86 1.358 . S
C83 C87 1.332 . S
C83 C89 1.504 . S
C84 C85 1.373 . S
C84 C88 1.308 . S
C85 C84 1.373 . S
C85 C86 1.429 . S
C85 H112 0.932 . S
C86 C83 1.358 . S
C86 C85 1.429 . S
C86 H113 0.930 . S
C87 C83 1.332 . S
C87 C88 1.394 . S
C87 H114 0.932 . S
C88 C84 1.308 . S
C88 C87 1.394 . S
C88 H115 0.929 . S
C89 Tb80 2.764 . S
C89 C83 1.504 . S
C89 O101 1.239 . S
C89 O102 1.263 . S
O90 Tb80 2.325 . S
O90 C100 1.236 . S
O91 Tb81 2.322 . S
O91 C100 1.257 . S
O92 Tb81 2.349 . S
O92 C103 1.261 . S
O93 Tb80 2.303 . S
O93 C103 1.257 . S
O94 Tb81 2.415 . S
O94 C110 1.239 . S
O95 Tb81 2.399 . S
O95 C110 1.263 . S
O96 Tb81 2.325 . S
O96 C111 1.236 . S
O97 Tb80 2.322 . S
O97 C111 1.257 . S
O98 Tb80 2.349 . S
O98 C82 1.261 . S
O99 Tb81 2.303 . S
O99 C82 1.257 . S
C100 O90 1.236 . S
C100 O91 1.257 . S
O101 Tb80 2.415 . S
O101 C89 1.239 . S
O102 Tb80 2.399 . S
O102 C89 1.263 . S
C103 O92 1.261 . S
C103 O93 1.257 . S
C104 C107 1.358 . S
C104 C108 1.332 . S
C104 C110 1.504 . S
C105 C106 1.373 . S
C105 C109 1.308 . S
C106 C105 1.373 . S
C106 C107 1.429 . S
C106 H116 0.932 . S
C107 C104 1.358 . S
C107 C106 1.429 . S
C107 H117 0.930 . S
C108 C104 1.332 . S
C108 C109 1.394 . S
C108 H118 0.932 . S
C109 C105 1.308 . S
C109 C108 1.394 . S
C109 H119 0.929 . S
C110 Tb81 2.764 . S
C110 O94 1.239 . S
C110 O95 1.263 . S
C110 C104 1.504 . S
C111 O96 1.236 . S
C111 O97 1.257 . S
H112 C85 0.932 . S
H113 C86 0.930 . S
H114 C87 0.932 . S
H115 C88 0.929 . S
H116 C106 0.932 . S
H117 C107 0.930 . S
H118 C108 0.932 . S
H119 C109 0.929 . S
H120 C125 0.930 . S
H121 C128 0.930 . S
H122 C130 0.930 . S
H123 C124 1.016 . S
C124 H123 1.016 . S
C124 N131 1.286 . S
C125 H120 0.930 . S
C125 C126 1.397 . S
C125 C127 1.361 . S
C126 C125 1.397 . S
C126 C130 1.390 . S
C127 C125 1.361 . S
C127 C128 1.393 . S
C127 N131 1.413 . S
C128 H121 0.930 . S
C128 C127 1.393 . S
C128 C129 1.399 . S
C129 C128 1.399 . S
C129 C130 1.381 . S
C130 H122 0.930 . S
C130 C126 1.390 . S
C130 C129 1.381 . S
N131 C124 1.286 . S
N131 C127 1.413 . S
H132 C137 0.930 . S
H133 C140 0.930 . S
H134 C142 0.930 . S
H135 C136 1.016 . S
C136 H135 1.016 . S
C136 N143 1.286 . S
C137 H132 0.930 . S
C137 C138 1.397 . S
C137 C139 1.361 . S
C138 C137 1.397 . S
C138 C142 1.390 . S
C139 C137 1.361 . S
C139 C140 1.393 . S
C139 N143 1.413 . S
C140 H133 0.930 . S
C140 C139 1.393 . S
C140 C141 1.399 . S
C141 C140 1.399 . S
C141 C142 1.381 . S
C142 H134 0.930 . S
C142 C138 1.390 . S
C142 C141 1.381 . S
N143 C136 1.286 . S
N143 C139 1.413 . S
H144 C149 0.930 . S
H145 C152 0.930 . S
H146 C154 0.930 . S
H147 C148 1.016 . S
C148 H147 1.016 . S
C148 N155 1.286 . S
C149 H144 0.930 . S
C149 C150 1.397 . S
C149 C151 1.361 . S
C150 C149 1.397 . S
C150 C154 1.390 . S
C151 C149 1.361 . S
C151 C152 1.393 . S
C151 N155 1.413 . S
C152 H145 0.930 . S
C152 C151 1.393 . S
C152 C153 1.399 . S
C153 C152 1.399 . S
C153 C154 1.381 . S
C154 H146 0.930 . S
C154 C150 1.390 . S
C154 C153 1.381 . S
N155 C148 1.286 . S
N155 C151 1.413 . S
H156 C161 0.930 . S
H157 C164 0.930 . S
H158 C166 0.930 . S
H159 C160 1.016 . S
C160 H159 1.016 . S
C160 N167 1.286 . S
C161 H156 0.930 . S
C161 C162 1.397 . S
C161 C163 1.361 1_455 S
C162 C161 1.397 . S
C162 C166 1.390 . S
C163 C161 1.361 1_655 S
C163 C164 1.393 . S
C163 N167 1.413 . S
C164 H157 0.930 . S
C164 C163 1.393 . S
C164 C165 1.399 1_655 S
C165 C164 1.399 1_455 S
C165 C166 1.381 . S
C166 H158 0.930 . S
C166 C162 1.390 . S
C166 C165 1.381 . S
N167 C160 1.286 . S
N167 C163 1.413 . S
H168 C173 0.930 . S
H169 C176 0.928 1_565 S
H170 C178 0.930 . S
H171 C172 1.016 . S
C172 H171 1.016 . S
C172 N179 1.286 . S
C173 H168 0.930 . S
C173 C174 1.397 . S
C173 C175 1.361 . S
C174 C173 1.397 . S
C174 C178 1.390 . S
C175 C173 1.361 . S
C175 C176 1.393 . S
C175 N179 1.413 1_545 S
C176 H169 0.928 1_545 S
C176 C175 1.393 . S
C176 C177 1.401 . S
C177 C176 1.401 . S
C177 C178 1.381 . S
C178 H170 0.930 . S
C178 C174 1.390 . S
C178 C177 1.381 . S
N179 C172 1.286 . S
N179 C175 1.413 1_565 S
H180 C185 0.930 . S
H181 C188 0.930 . S
H182 C190 0.930 . S
H183 C184 1.016 . S
C184 H183 1.016 . S
C184 N191 1.286 . S
C185 H180 0.930 . S
C185 C186 1.397 . S
C185 C187 1.361 . S
C186 C185 1.397 . S
C186 C190 1.390 . S
C187 C185 1.361 . S
C187 C188 1.393 . S
C187 N191 1.413 . S
C188 H181 0.930 . S
C188 C187 1.393 . S
C188 C189 1.399 . S
C189 C188 1.399 . S
C189 C190 1.381 . S
C190 H182 0.930 . S
C190 C186 1.390 . S
C190 C189 1.381 . S
N191 C184 1.286 . S
N191 C187 1.413 . S
H192 C200 0.929 . S
H193 C202 0.930 . S
H194 C204 0.930 . S
H195 C207 0.929 . S
H196 C210 0.930 . S
H197 C212 0.960 . S
H198 C212 0.960 . S
H199 C212 0.960 . S
C200 H192 0.929 . S
C200 C201 1.377 . S
C200 C202 1.384 . S
C201 C200 1.377 . S
C201 C207 1.390 . S
C202 H193 0.930 . S
C202 C200 1.384 . S
C202 C203 1.372 . S
C203 C202 1.372 . S
C203 C204 1.400 . S
C203 C208 1.490 . S
C204 H194 0.930 . S
C204 C203 1.400 . S
C204 C207 1.386 . S
H205 C221 0.930 . S
H206 C222 0.931 . S
C207 H195 0.929 . S
C207 C201 1.390 . S
C207 C204 1.386 . S
C208 C203 1.490 . S
C208 C210 1.395 . S
C208 C211 1.403 . S
H209 C215 0.930 . S
C210 H196 0.930 . S
C210 C208 1.395 . S
C210 C213 1.403 . S
C211 C208 1.403 . S
C211 C212 1.524 . S
C211 C215 1.400 . S
C212 H197 0.960 . S
C212 H198 0.960 . S
C212 H199 0.960 . S
C212 C211 1.524 . S
C213 C210 1.403 . S
C213 C214 1.392 . S
C213 C217 1.495 . S
C214 C213 1.392 . S
C214 C215 1.385 . S
C214 C216 1.478 . S
C215 H209 0.930 . S
C215 C211 1.400 . S
C215 C214 1.385 . S
C216 C214 1.478 . S
C216 C218 1.381 . S
C216 C222 1.383 . S
C217 C213 1.495 . S
C217 H223 0.959 . S
C217 H224 0.961 . S
C217 H225 0.960 . S
C218 C216 1.381 . S
C218 C219 1.394 . S
C218 H226 0.930 . S
C219 C218 1.394 . S
C219 C220 1.383 . S
C219 H227 0.929 . S
C220 C219 1.383 . S
C220 C221 1.377 . S
C221 H205 0.930 . S
C221 C220 1.377 . S
C221 C222 1.379 . S
C222 H206 0.931 . S
C222 C216 1.383 . S
C222 C221 1.379 . S
H223 C217 0.959 . S
H224 C217 0.961 . S
H225 C217 0.960 . S
H226 C218 0.930 . S
H227 C219 0.929 . S
H228 C236 0.929 . S
H229 C238 0.930 . S
H230 C240 0.930 . S
H231 C243 0.929 . S
H232 C246 0.930 . S
H233 C248 0.960 . S
H234 C248 0.960 . S
H235 C248 0.960 . S
C236 H228 0.929 . S
C236 C237 1.377 . S
C236 C238 1.384 . S
C237 C236 1.377 . S
C237 C243 1.390 . S
C238 H229 0.930 . S
C238 C236 1.384 . S
C238 C239 1.372 . S
C239 C238 1.372 . S
C239 C240 1.400 . S
C239 C244 1.490 . S
C240 H230 0.930 . S
C240 C239 1.400 . S
C240 C243 1.386 . S
H241 C257 0.930 . S
H242 C258 0.931 . S
C243 H231 0.929 . S
C243 C237 1.390 . S
C243 C240 1.386 . S
C244 C239 1.490 . S
C244 C246 1.395 . S
C244 C247 1.403 . S
H245 C251 0.930 . S
C246 H232 0.930 . S
C246 C244 1.395 . S
C246 C249 1.403 . S
C247 C244 1.403 . S
C247 C248 1.524 . S
C247 C251 1.400 . S
C248 H233 0.960 . S
C248 H234 0.960 . S
C248 H235 0.960 . S
C248 C247 1.524 . S
C249 C246 1.403 . S
C249 C250 1.392 . S
C249 C253 1.495 . S
C250 C249 1.392 . S
C250 C251 1.385 . S
C250 C252 1.478 . S
C251 H245 0.930 . S
C251 C247 1.400 . S
C251 C250 1.385 . S
C252 C250 1.478 . S
C252 C254 1.381 . S
C252 C258 1.383 . S
C253 C249 1.495 . S
C253 H259 0.959 . S
C253 H260 0.961 . S
C253 H261 0.960 . S
C254 C252 1.381 . S
C254 C255 1.394 . S
C254 H262 0.930 . S
C255 C254 1.394 . S
C255 C256 1.383 . S
C255 H263 0.929 . S
C256 C255 1.383 . S
C256 C257 1.377 . S
C257 H241 0.930 . S
C257 C256 1.377 . S
C257 C258 1.379 . S
C258 H242 0.931 . S
C258 C252 1.383 . S
C258 C257 1.379 . S
H259 C253 0.959 . S
H260 C253 0.961 . S
H261 C253 0.960 . S
H262 C254 0.930 . S
H263 C255 0.929 . S
H264 C272 0.929 . S
H265 C274 0.930 . S
H266 C276 0.930 . S
H267 C279 0.929 . S
H268 C282 0.930 . S
H269 C284 0.960 . S
H270 C284 0.960 . S
H271 C284 0.960 . S
C272 H264 0.929 . S
C272 C273 1.377 . S
C272 C274 1.384 . S
C273 C272 1.377 . S
C273 C279 1.390 . S
C274 H265 0.930 . S
C274 C272 1.384 . S
C274 C275 1.372 . S
C275 C274 1.372 . S
C275 C276 1.400 . S
C275 C280 1.490 . S
C276 H266 0.930 . S
C276 C275 1.400 . S
C276 C279 1.386 . S
H277 C293 0.930 . S
H278 C294 0.931 . S
C279 H267 0.929 . S
C279 C273 1.390 . S
C279 C276 1.386 . S
C280 C275 1.490 . S
C280 C282 1.395 . S
C280 C283 1.403 . S
H281 C287 0.930 . S
C282 H268 0.930 . S
C282 C280 1.395 . S
C282 C285 1.403 . S
C283 C280 1.403 . S
C283 C284 1.524 . S
C283 C287 1.400 . S
C284 H269 0.960 . S
C284 H270 0.960 . S
C284 H271 0.960 . S
C284 C283 1.524 . S
C285 C282 1.403 . S
C285 C286 1.392 . S
C285 C289 1.495 . S
C286 C285 1.392 . S
C286 C287 1.385 . S
C286 C288 1.478 . S
C287 H281 0.930 . S
C287 C283 1.400 . S
C287 C286 1.385 . S
C288 C286 1.478 . S
C288 C290 1.381 . S
C288 C294 1.383 . S
C289 C285 1.495 . S
C289 H295 0.959 . S
C289 H296 0.961 . S
C289 H297 0.960 . S
C290 C288 1.381 . S
C290 C291 1.394 . S
C290 H298 0.930 . S
C291 C290 1.394 . S
C291 C292 1.383 . S
C291 H299 0.929 . S
C292 C291 1.383 . S
C292 C293 1.377 . S
C293 H277 0.930 . S
C293 C292 1.377 . S
C293 C294 1.379 . S
C294 H278 0.931 . S
C294 C288 1.383 . S
C294 C293 1.379 . S
H295 C289 0.959 . S
H296 C289 0.961 . S
H297 C289 0.960 . S
H298 C290 0.930 . S
H299 C291 0.929 . S
H300 C308 0.929 . S
H301 C310 0.930 . S
H302 C312 0.930 . S
H303 C315 0.929 . S
H304 C318 0.930 . S
H305 C320 0.960 . S
H306 C320 0.960 . S
H307 C320 0.960 . S
C308 H300 0.929 . S
C308 C309 1.377 . S
C308 C310 1.384 . S
C309 C308 1.377 . S
C309 C315 1.390 . S
C310 H301 0.930 . S
C310 C308 1.384 . S
C310 C311 1.372 . S
C311 C310 1.372 . S
C311 C312 1.400 . S
C311 C316 1.490 . S
C312 H302 0.930 . S
C312 C311 1.400 . S
C312 C315 1.386 . S
H313 C329 0.930 . S
H314 C330 0.931 . S
C315 H303 0.929 . S
C315 C309 1.390 . S
C315 C312 1.386 . S
C316 C311 1.490 . S
C316 C318 1.395 . S
C316 C319 1.403 . S
H317 C323 0.930 . S
C318 H304 0.930 . S
C318 C316 1.395 . S
C318 C321 1.403 . S
C319 C316 1.403 . S
C319 C320 1.524 . S
C319 C323 1.400 . S
C320 H305 0.960 . S
C320 H306 0.960 . S
C320 H307 0.960 . S
C320 C319 1.524 . S
C321 C318 1.403 . S
C321 C322 1.392 . S
C321 C325 1.495 . S
C322 C321 1.392 . S
C322 C323 1.385 . S
C322 C324 1.478 . S
C323 H317 0.930 . S
C323 C319 1.400 . S
C323 C322 1.385 . S
C324 C322 1.478 . S
C324 C326 1.381 . S
C324 C330 1.383 . S
C325 C321 1.495 . S
C325 H331 0.959 . S
C325 H332 0.961 . S
C325 H333 0.960 . S
C326 C324 1.381 . S
C326 C327 1.394 . S
C326 H334 0.930 . S
C327 C326 1.394 . S
C327 C328 1.383 . S
C327 H335 0.929 . S
C328 C327 1.383 . S
C328 C329 1.377 . S
C329 H313 0.930 . S
C329 C328 1.377 . S
C329 C330 1.379 . S
C330 H314 0.931 . S
C330 C324 1.383 . S
C330 C329 1.379 . S
H331 C325 0.959 . S
H332 C325 0.961 . S
H333 C325 0.960 . S
H334 C326 0.930 . S
H335 C327 0.929 . S
H336 C344 0.929 . S
H337 C346 0.930 . S
H338 C348 0.930 . S
H339 C351 0.929 . S
H340 C354 0.930 . S
H341 C356 0.960 . S
H342 C356 0.960 . S
H343 C356 0.960 . S
C344 H336 0.929 . S
C344 C345 1.377 . S
C344 C346 1.384 . S
C345 C344 1.377 . S
C345 C351 1.390 . S
C346 H337 0.930 . S
C346 C344 1.384 . S
C346 C347 1.372 . S
C347 C346 1.372 . S
C347 C348 1.400 . S
C347 C352 1.490 . S
C348 H338 0.930 . S
C348 C347 1.400 . S
C348 C351 1.386 . S
H349 C365 0.930 . S
H350 C366 0.931 . S
C351 H339 0.929 . S
C351 C345 1.390 . S
C351 C348 1.386 . S
C352 C347 1.490 . S
C352 C354 1.395 . S
C352 C355 1.403 . S
H353 C359 0.930 . S
C354 H340 0.930 . S
C354 C352 1.395 . S
C354 C357 1.403 . S
C355 C352 1.403 . S
C355 C356 1.524 . S
C355 C359 1.400 . S
C356 H341 0.960 . S
C356 H342 0.960 . S
C356 H343 0.960 . S
C356 C355 1.524 . S
C357 C354 1.403 . S
C357 C358 1.392 . S
C357 C361 1.495 . S
C358 C357 1.392 . S
C358 C359 1.385 . S
C358 C360 1.478 . S
C359 H353 0.930 . S
C359 C355 1.400 . S
C359 C358 1.385 . S
C360 C358 1.478 . S
C360 C362 1.381 . S
C360 C366 1.383 . S
C361 C357 1.495 . S
C361 H367 0.959 . S
C361 H368 0.961 . S
C361 H369 0.960 . S
C362 C360 1.381 . S
C362 C363 1.394 . S
C362 H370 0.930 . S
C363 C362 1.394 . S
C363 C364 1.383 . S
C363 H371 0.929 . S
C364 C363 1.383 . S
C364 C365 1.377 . S
C365 H349 0.930 . S
C365 C364 1.377 . S
C365 C366 1.379 . S
C366 H350 0.931 . S
C366 C360 1.383 . S
C366 C365 1.379 . S
H367 C361 0.959 . S
H368 C361 0.961 . S
H369 C361 0.960 . S
H370 C362 0.930 . S
H371 C363 0.929 . S
H372 C380 0.929 . S
H373 C382 0.930 . S
H374 C384 0.930 . S
H375 C387 0.929 . S
H376 C390 0.930 . S
H377 C392 0.960 . S
H378 C392 0.960 . S
H379 C392 0.960 . S
C380 H372 0.929 . S
C380 C381 1.377 . S
C380 C382 1.384 . S
C381 C380 1.377 . S
C381 C387 1.390 . S
C382 H373 0.930 . S
C382 C380 1.384 . S
C382 C383 1.372 . S
C383 C382 1.372 . S
C383 C384 1.400 . S
C383 C388 1.490 . S
C384 H374 0.930 . S
C384 C383 1.400 . S
C384 C387 1.386 . S
H385 C401 0.930 . S
H386 C402 0.931 . S
C387 H375 0.929 . S
C387 C381 1.390 . S
C387 C384 1.386 . S
C388 C383 1.490 . S
C388 C390 1.395 . S
C388 C391 1.403 . S
H389 C395 0.930 . S
C390 H376 0.930 . S
C390 C388 1.395 . S
C390 C393 1.403 . S
C391 C388 1.403 . S
C391 C392 1.524 . S
C391 C395 1.400 . S
C392 H377 0.960 . S
C392 H378 0.960 . S
C392 H379 0.960 . S
C392 C391 1.524 . S
C393 C390 1.403 . S
C393 C394 1.392 . S
C393 C397 1.495 . S
C394 C393 1.392 . S
C394 C395 1.385 . S
C394 C396 1.478 . S
C395 H389 0.930 . S
C395 C391 1.400 . S
C395 C394 1.385 . S
C396 C394 1.478 . S
C396 C398 1.381 . S
C396 C402 1.383 . S
C397 C393 1.495 . S
C397 H403 0.959 . S
C397 H404 0.961 . S
C397 H405 0.960 . S
C398 C396 1.381 . S
C398 C399 1.394 . S
C398 H406 0.930 . S
C399 C398 1.394 . S
C399 C400 1.383 . S
C399 H407 0.929 . S
C400 C399 1.383 . S
C400 C401 1.377 . S
C401 H385 0.930 . S
C401 C400 1.377 . S
C401 C402 1.379 . S
C402 H386 0.931 . S
C402 C396 1.383 . S
C402 C401 1.379 . S
H403 C397 0.959 . S
H404 C397 0.961 . S
H405 C397 0.960 . S
H406 C398 0.930 . S
H407 C399 0.929 . S
H408 C416 0.929 . S
H409 C418 0.930 . S
H410 C420 0.930 . S
H411 C423 0.929 . S
H412 C426 0.930 . S
H413 C428 0.960 . S
H414 C428 0.960 . S
H415 C428 0.960 . S
C416 H408 0.929 . S
C416 C417 1.377 . S
C416 C418 1.384 . S
C417 C416 1.377 . S
C417 C423 1.390 . S
C418 H409 0.930 . S
C418 C416 1.384 . S
C418 C419 1.372 . S
C419 C418 1.372 . S
C419 C420 1.400 . S
C419 C424 1.490 . S
C420 H410 0.930 . S
C420 C419 1.400 . S
C420 C423 1.386 . S
H421 C437 0.930 . S
H422 C438 0.931 . S
C423 H411 0.929 . S
C423 C417 1.390 . S
C423 C420 1.386 . S
C424 C419 1.490 . S
C424 C426 1.395 . S
C424 C427 1.403 . S
H425 C431 0.930 . S
C426 H412 0.930 . S
C426 C424 1.395 . S
C426 C429 1.403 . S
C427 C424 1.403 . S
C427 C428 1.524 . S
C427 C431 1.400 . S
C428 H413 0.960 . S
C428 H414 0.960 . S
C428 H415 0.960 . S
C428 C427 1.524 . S
C429 C426 1.403 . S
C429 C430 1.392 . S
C429 C433 1.495 . S
C430 C429 1.392 . S
C430 C431 1.385 . S
C430 C432 1.478 . S
C431 H425 0.930 . S
C431 C427 1.400 . S
C431 C430 1.385 . S
C432 C430 1.478 . S
C432 C434 1.381 . S
C432 C438 1.383 . S
C433 C429 1.495 . S
C433 H439 0.959 . S
C433 H440 0.961 . S
C433 H441 0.960 . S
C434 C432 1.381 . S
C434 C435 1.394 . S
C434 H442 0.930 . S
C435 C434 1.394 . S
C435 C436 1.383 . S
C435 H443 0.929 . S
C436 C435 1.383 . S
C436 C437 1.377 . S
C437 H421 0.930 . S
C437 C436 1.377 . S
C437 C438 1.379 . S
C438 H422 0.931 . S
C438 C432 1.383 . S
C438 C437 1.379 . S
H439 C433 0.959 . S
H440 C433 0.961 . S
H441 C433 0.960 . S
H442 C434 0.930 . S
H443 C435 0.929 . S
H444 C452 0.929 . S
H445 C454 0.930 . S
H446 C456 0.930 . S
H447 C459 0.929 . S
H448 C462 0.930 . S
H449 C464 0.960 . S
H450 C464 0.960 . S
H451 C464 0.960 . S
C452 H444 0.929 . S
C452 C453 1.377 . S
C452 C454 1.384 . S
C453 C452 1.377 . S
C453 C459 1.390 . S
C454 H445 0.930 . S
C454 C452 1.384 . S
C454 C455 1.372 . S
C455 C454 1.372 . S
C455 C456 1.400 . S
C455 C460 1.490 . S
C456 H446 0.930 . S
C456 C455 1.400 . S
C456 C459 1.386 . S
H457 C473 0.930 . S
H458 C474 0.931 . S
C459 H447 0.929 . S
C459 C453 1.390 . S
C459 C456 1.386 . S
C460 C455 1.490 . S
C460 C462 1.395 . S
C460 C463 1.403 . S
H461 C467 0.930 . S
C462 H448 0.930 . S
C462 C460 1.395 . S
C462 C465 1.403 . S
C463 C460 1.403 . S
C463 C464 1.524 . S
C463 C467 1.400 . S
C464 H449 0.960 . S
C464 H450 0.960 . S
C464 H451 0.960 . S
C464 C463 1.524 . S
C465 C462 1.403 . S
C465 C466 1.392 . S
C465 C469 1.495 . S
C466 C465 1.392 . S
C466 C467 1.385 . S
C466 C468 1.478 . S
C467 H461 0.930 . S
C467 C463 1.400 . S
C467 C466 1.385 . S
C468 C466 1.478 . S
C468 C470 1.381 . S
C468 C474 1.383 . S
C469 C465 1.495 . S
C469 H475 0.959 . S
C469 H476 0.961 . S
C469 H477 0.960 . S
C470 C468 1.381 . S
C470 C471 1.394 . S
C470 H478 0.930 . S
C471 C470 1.394 . S
C471 C472 1.383 . S
C471 H479 0.929 . S
C472 C471 1.383 . S
C472 C473 1.377 . S
C473 H457 0.930 . S
C473 C472 1.377 . S
C473 C474 1.379 . S
C474 H458 0.931 . S
C474 C468 1.383 . S
C474 C473 1.379 . S
H475 C469 0.959 . S
H476 C469 0.961 . S
H477 C469 0.960 . S
H478 C470 0.930 . S
H479 C471 0.929 . S
H480 C488 0.929 . S
H481 C490 0.930 . S
H482 C492 0.930 . S
H483 C495 0.929 . S
H484 C498 0.930 . S
H485 C500 0.960 . S
H486 C500 0.960 . S
H487 C500 0.960 . S
C488 H480 0.929 . S
C488 C489 1.377 . S
C488 C490 1.384 . S
C489 C488 1.377 . S
C489 C495 1.390 . S
C490 H481 0.930 . S
C490 C488 1.384 . S
C490 C491 1.372 . S
C491 C490 1.372 . S
C491 C492 1.400 . S
C491 C496 1.490 . S
C492 H482 0.930 . S
C492 C491 1.400 . S
C492 C495 1.386 . S
H493 C509 0.930 . S
H494 C510 0.931 . S
C495 H483 0.929 . S
C495 C489 1.390 . S
C495 C492 1.386 . S
C496 C491 1.490 . S
C496 C498 1.395 . S
C496 C499 1.403 . S
H497 C503 0.930 . S
C498 H484 0.930 . S
C498 C496 1.395 . S
C498 C501 1.403 . S
C499 C496 1.403 . S
C499 C500 1.524 . S
C499 C503 1.400 . S
C500 H485 0.960 . S
C500 H486 0.960 . S
C500 H487 0.960 . S
C500 C499 1.524 . S
C501 C498 1.403 . S
C501 C502 1.392 . S
C501 C505 1.495 . S
C502 C501 1.392 . S
C502 C503 1.385 . S
C502 C504 1.478 . S
C503 H497 0.930 . S
C503 C499 1.400 . S
C503 C502 1.385 . S
C504 C502 1.478 . S
C504 C506 1.381 . S
C504 C510 1.383 . S
C505 C501 1.495 . S
C505 H511 0.959 . S
C505 H512 0.961 . S
C505 H513 0.960 . S
C506 C504 1.381 . S
C506 C507 1.394 . S
C506 H514 0.930 . S
C507 C506 1.394 . S
C507 C508 1.383 . S
C507 H515 0.929 . S
C508 C507 1.383 . S
C508 C509 1.377 . S
C509 H493 0.930 . S
C509 C508 1.377 . S
C509 C510 1.379 . S
C510 H494 0.931 . S
C510 C504 1.383 . S
C510 C509 1.379 . S
H511 C505 0.959 . S
H512 C505 0.961 . S
H513 C505 0.960 . S
H514 C506 0.930 . S
H515 C507 0.929 . S
H516 C524 0.929 . S
H517 C526 0.930 . S
H518 C528 0.930 . S
H519 C531 0.929 . S
H520 C534 0.930 . S
H521 C536 0.960 . S
H522 C536 0.960 . S
H523 C536 0.960 . S
C524 H516 0.929 . S
C524 C525 1.377 . S
C524 C526 1.384 . S
C525 C524 1.377 . S
C525 C531 1.390 . S
C526 H517 0.930 . S
C526 C524 1.384 . S
C526 C527 1.372 . S
C527 C526 1.372 . S
C527 C528 1.400 . S
C527 C532 1.490 . S
C528 H518 0.930 . S
C528 C527 1.400 . S
C528 C531 1.386 . S
H529 C545 0.930 . S
H530 C546 0.931 . S
C531 H519 0.929 . S
C531 C525 1.390 . S
C531 C528 1.386 . S
C532 C527 1.490 . S
C532 C534 1.395 . S
C532 C535 1.403 . S
H533 C539 0.930 . S
C534 H520 0.930 . S
C534 C532 1.395 . S
C534 C537 1.403 . S
C535 C532 1.403 . S
C535 C536 1.524 . S
C535 C539 1.400 . S
C536 H521 0.960 . S
C536 H522 0.960 . S
C536 H523 0.960 . S
C536 C535 1.524 . S
C537 C534 1.403 . S
C537 C538 1.392 . S
C537 C541 1.495 . S
C538 C537 1.392 . S
C538 C539 1.385 . S
C538 C540 1.478 . S
C539 H533 0.930 . S
C539 C535 1.400 . S
C539 C538 1.385 . S
C540 C538 1.478 . S
C540 C542 1.381 . S
C540 C546 1.383 . S
C541 C537 1.495 . S
C541 H547 0.959 . S
C541 H548 0.961 . S
C541 H549 0.960 . S
C542 C540 1.381 . S
C542 C543 1.394 . S
C542 H550 0.930 . S
C543 C542 1.394 . S
C543 C544 1.383 . S
C543 H551 0.929 . S
C544 C543 1.383 . S
C544 C545 1.377 . S
C545 H529 0.930 . S
C545 C544 1.377 . S
C545 C546 1.379 . S
C546 H530 0.931 . S
C546 C540 1.383 . S
C546 C545 1.379 . S
H547 C541 0.959 . S
H548 C541 0.961 . S
H549 C541 0.960 . S
H550 C542 0.930 . S
H551 C543 0.929 . S
H552 C560 0.929 . S
H553 C562 0.930 . S
H554 C564 0.930 . S
H555 C567 0.929 . S
H556 C570 0.930 . S
H557 C572 0.960 . S
H558 C572 0.960 . S
H559 C572 0.960 . S
C560 H552 0.929 . S
C560 C561 1.377 . S
C560 C562 1.384 . S
C561 C560 1.377 . S
C561 C567 1.390 . S
C562 H553 0.930 . S
C562 C560 1.384 . S
C562 C563 1.372 . S
C563 C562 1.372 . S
C563 C564 1.400 . S
C563 C568 1.490 . S
C564 H554 0.930 . S
C564 C563 1.400 . S
C564 C567 1.386 . S
H565 C581 0.930 . S
H566 C582 0.931 . S
C567 H555 0.929 . S
C567 C561 1.390 . S
C567 C564 1.386 . S
C568 C563 1.490 . S
C568 C570 1.395 . S
C568 C571 1.403 . S
H569 C575 0.930 . S
C570 H556 0.930 . S
C570 C568 1.395 . S
C570 C573 1.403 . S
C571 C568 1.403 . S
C571 C572 1.524 . S
C571 C575 1.400 . S
C572 H557 0.960 . S
C572 H558 0.960 . S
C572 H559 0.960 . S
C572 C571 1.524 . S
C573 C570 1.403 . S
C573 C574 1.392 . S
C573 C577 1.495 . S
C574 C573 1.392 . S
C574 C575 1.385 . S
C574 C576 1.478 . S
C575 H569 0.930 . S
C575 C571 1.400 . S
C575 C574 1.385 . S
C576 C574 1.478 . S
C576 C578 1.381 . S
C576 C582 1.383 . S
C577 C573 1.495 . S
C577 H583 0.959 . S
C577 H584 0.961 . S
C577 H585 0.960 . S
C578 C576 1.381 . S
C578 C579 1.394 . S
C578 H586 0.930 . S
C579 C578 1.394 . S
C579 C580 1.383 . S
C579 H587 0.929 . S
C580 C579 1.383 . S
C580 C581 1.377 . S
C581 H565 0.930 . S
C581 C580 1.377 . S
C581 C582 1.379 . S
C582 H566 0.931 . S
C582 C576 1.383 . S
C582 C581 1.379 . S
H583 C577 0.959 . S
H584 C577 0.961 . S
H585 C577 0.960 . S
H586 C578 0.930 . S
H587 C579 0.929 . S
H588 C596 0.929 . S
H589 C598 0.930 . S
H590 C600 0.930 . S
H591 C603 0.929 . S
H592 C606 0.930 . S
H593 C608 0.960 . S
H594 C608 0.960 . S
H595 C608 0.960 . S
C596 H588 0.929 . S
C596 C597 1.377 . S
C596 C598 1.384 . S
C597 C596 1.377 . S
C597 C603 1.390 . S
C598 H589 0.930 . S
C598 C596 1.384 . S
C598 C599 1.372 . S
C599 C598 1.372 . S
C599 C600 1.400 . S
C599 C604 1.490 . S
C600 H590 0.930 . S
C600 C599 1.400 . S
C600 C603 1.386 . S
H601 C617 0.930 . S
H602 C618 0.931 . S
C603 H591 0.929 . S
C603 C597 1.390 . S
C603 C600 1.386 . S
C604 C599 1.490 . S
C604 C606 1.395 . S
C604 C607 1.403 . S
H605 C611 0.930 . S
C606 H592 0.930 . S
C606 C604 1.395 . S
C606 C609 1.403 . S
C607 C604 1.403 . S
C607 C608 1.524 . S
C607 C611 1.400 . S
C608 H593 0.960 . S
C608 H594 0.960 . S
C608 H595 0.960 . S
C608 C607 1.524 . S
C609 C606 1.403 . S
C609 C610 1.392 . S
C609 C613 1.495 . S
C610 C609 1.392 . S
C610 C611 1.385 . S
C610 C612 1.478 . S
C611 H605 0.930 . S
C611 C607 1.400 . S
C611 C610 1.385 . S
C612 C610 1.478 . S
C612 C614 1.381 . S
C612 C618 1.383 . S
C613 C609 1.495 . S
C613 H619 0.959 . S
C613 H620 0.961 . S
C613 H621 0.960 . S
C614 C612 1.381 . S
C614 C615 1.394 . S
C614 H622 0.930 . S
C615 C614 1.394 . S
C615 C616 1.383 . S
C615 H623 0.929 . S
C616 C615 1.383 . S
C616 C617 1.377 . S
C617 H601 0.930 . S
C617 C616 1.377 . S
C617 C618 1.379 . S
C618 H602 0.931 . S
C618 C612 1.383 . S
C618 C617 1.379 . S
H619 C613 0.959 . S
H620 C613 0.961 . S
H621 C613 0.960 . S
H622 C614 0.930 . S
H623 C615 0.929 . S
H624 C632 0.929 . S
H625 C634 0.930 . S
H626 C636 0.930 . S
H627 C639 0.929 . S
H628 C642 0.930 . S
H629 C644 0.960 . S
H630 C644 0.960 . S
H631 C644 0.960 . S
C632 H624 0.929 . S
C632 C633 1.377 . S
C632 C634 1.384 . S
C633 C632 1.377 . S
C633 C639 1.390 . S
C634 H625 0.930 . S
C634 C632 1.384 . S
C634 C635 1.372 . S
C635 C634 1.372 . S
C635 C636 1.400 . S
C635 C640 1.490 . S
C636 H626 0.930 . S
C636 C635 1.400 . S
C636 C639 1.386 . S
H637 C653 0.930 . S
H638 C654 0.931 . S
C639 H627 0.929 . S
C639 C633 1.390 . S
C639 C636 1.386 . S
C640 C635 1.490 . S
C640 C642 1.395 . S
C640 C643 1.403 . S
H641 C647 0.930 1_556 S
C642 H628 0.930 . S
C642 C640 1.395 . S
C642 C645 1.403 . S
C643 C640 1.403 . S
C643 C644 1.524 . S
C643 C647 1.400 . S
C644 H629 0.960 . S
C644 H630 0.960 . S
C644 H631 0.960 . S
C644 C643 1.524 . S
C645 C642 1.403 . S
C645 C646 1.392 1_554 S
C645 C649 1.495 . S
C646 C645 1.392 1_556 S
C646 C647 1.385 1_556 S
C646 C648 1.478 . S
C647 H641 0.930 1_554 S
C647 C643 1.400 . S
C647 C646 1.385 1_554 S
C648 C646 1.478 . S
C648 C650 1.381 . S
C648 C654 1.383 . S
C649 C645 1.495 . S
C649 H655 0.959 . S
C649 H656 0.961 1_554 S
C649 H657 0.960 1_554 S
C650 C648 1.381 . S
C650 C651 1.394 . S
C650 H658 0.930 . S
C651 C650 1.394 . S
C651 C652 1.383 . S
C651 H659 0.929 . S
C652 C651 1.383 . S
C652 C653 1.377 . S
C653 H637 0.930 . S
C653 C652 1.377 . S
C653 C654 1.379 . S
C654 H638 0.931 . S
C654 C648 1.383 . S
C654 C653 1.379 . S
H655 C649 0.959 . S
H656 C649 0.961 1_556 S
H657 C649 0.960 1_556 S
H658 C650 0.930 . S
H659 C651 0.929 . S
H660 C668 0.929 . S
H661 C670 0.930 . S
H662 C672 0.930 . S
H663 C675 0.929 . S
H664 C678 0.930 . S
H665 C680 0.960 . S
H666 C680 0.960 . S
H667 C680 0.960 . S
C668 H660 0.929 . S
C668 C669 1.377 . S
C668 C670 1.384 . S
C669 C668 1.377 . S
C669 C675 1.390 . S
C670 H661 0.930 . S
C670 C668 1.384 . S
C670 C671 1.372 . S
C671 C670 1.372 . S
C671 C672 1.400 . S
C671 C676 1.490 . S
C672 H662 0.930 . S
C672 C671 1.400 . S
C672 C675 1.386 . S
H673 C689 0.930 . S
H674 C690 0.931 . S
C675 H663 0.929 . S
C675 C669 1.390 . S
C675 C672 1.386 . S
C676 C671 1.490 . S
C676 C678 1.395 . S
C676 C679 1.403 . S
H677 C683 0.930 . S
C678 H664 0.930 . S
C678 C676 1.395 . S
C678 C681 1.403 . S
C679 C676 1.403 . S
C679 C680 1.524 . S
C679 C683 1.400 . S
C680 H665 0.960 . S
C680 H666 0.960 . S
C680 H667 0.960 . S
C680 C679 1.524 . S
C681 C678 1.403 . S
C681 C682 1.392 . S
C681 C685 1.495 . S
C682 C681 1.392 . S
C682 C683 1.385 . S
C682 C684 1.478 . S
C683 H677 0.930 . S
C683 C679 1.400 . S
C683 C682 1.385 . S
C684 C682 1.478 . S
C684 C686 1.381 . S
C684 C690 1.383 . S
C685 C681 1.495 . S
C685 H691 0.959 . S
C685 H692 0.961 . S
C685 H693 0.960 . S
C686 C684 1.381 . S
C686 C687 1.394 . S
C686 H694 0.930 . S
C687 C686 1.394 . S
C687 C688 1.383 . S
C687 H695 0.929 . S
C688 C687 1.383 . S
C688 C689 1.377 . S
C689 H673 0.930 . S
C689 C688 1.377 . S
C689 C690 1.379 . S
C690 H674 0.931 . S
C690 C684 1.383 . S
C690 C689 1.379 . S
H691 C685 0.959 . S
H692 C685 0.961 . S
H693 C685 0.960 . S
H694 C686 0.930 . S
H695 C687 0.929 . S
H696 C704 0.929 . S
H697 C706 0.930 . S
H698 C708 0.930 . S
H699 C711 0.929 . S
H700 C714 0.930 . S
H701 C716 0.960 . S
H702 C716 0.960 . S
H703 C716 0.960 . S
C704 H696 0.929 . S
C704 C705 1.377 . S
C704 C706 1.384 . S
C705 C704 1.377 . S
C705 C711 1.390 . S
C706 H697 0.930 . S
C706 C704 1.384 . S
C706 C707 1.372 . S
C707 C706 1.372 . S
C707 C708 1.400 . S
C707 C712 1.490 . S
C708 H698 0.930 . S
C708 C707 1.400 . S
C708 C711 1.386 . S
H709 C725 0.930 . S
H710 C726 0.931 . S
C711 H699 0.929 . S
C711 C705 1.390 . S
C711 C708 1.386 . S
C712 C707 1.490 . S
C712 C714 1.395 . S
C712 C715 1.403 . S
H713 C719 0.930 . S
C714 H700 0.930 . S
C714 C712 1.395 . S
C714 C717 1.403 . S
C715 C712 1.403 . S
C715 C716 1.524 . S
C715 C719 1.400 . S
C716 H701 0.960 . S
C716 H702 0.960 . S
C716 H703 0.960 . S
C716 C715 1.524 . S
C717 C714 1.403 . S
C717 C718 1.392 . S
C717 C721 1.495 . S
C718 C717 1.392 . S
C718 C719 1.385 . S
C718 C720 1.478 . S
C719 H713 0.930 . S
C719 C715 1.400 . S
C719 C718 1.385 . S
C720 C718 1.478 . S
C720 C722 1.381 . S
C720 C726 1.383 . S
C721 C717 1.495 . S
C721 H727 0.959 . S
C721 H728 0.961 . S
C721 H729 0.960 . S
C722 C720 1.381 . S
C722 C723 1.394 . S
C722 H730 0.930 . S
C723 C722 1.394 . S
C723 C724 1.383 . S
C723 H731 0.929 . S
C724 C723 1.383 . S
C724 C725 1.377 . S
C725 H709 0.930 . S
C725 C724 1.377 . S
C725 C726 1.379 . S
C726 H710 0.931 . S
C726 C720 1.383 . S
C726 C725 1.379 . S
H727 C721 0.959 . S
H728 C721 0.961 . S
H729 C721 0.960 . S
H730 C722 0.930 . S
H731 C723 0.929 . S
H732 C740 0.929 . S
H733 C742 0.930 . S
H734 C744 0.930 . S
H735 C747 0.929 . S
H736 C750 0.930 . S
H737 C752 0.960 . S
H738 C752 0.960 . S
H739 C752 0.960 . S
C740 H732 0.929 . S
C740 C741 1.377 . S
C740 C742 1.384 . S
C741 C740 1.377 . S
C741 C747 1.390 . S
C742 H733 0.930 . S
C742 C740 1.384 . S
C742 C743 1.372 . S
C743 C742 1.372 . S
C743 C744 1.400 . S
C743 C748 1.490 . S
C744 H734 0.930 . S
C744 C743 1.400 . S
C744 C747 1.386 . S
H745 C761 0.930 . S
H746 C762 0.931 . S
C747 H735 0.929 . S
C747 C741 1.390 . S
C747 C744 1.386 . S
C748 C743 1.490 . S
C748 C750 1.395 . S
C748 C751 1.403 . S
H749 C755 0.930 1_565 S
C750 H736 0.930 . S
C750 C748 1.395 . S
C750 C753 1.403 . S
C751 C748 1.403 . S
C751 C752 1.524 1_545 S
C751 C755 1.400 . S
C752 H737 0.960 . S
C752 H738 0.960 . S
C752 H739 0.960 . S
C752 C751 1.524 1_565 S
C753 C750 1.403 . S
C753 C754 1.392 . S
C753 C757 1.495 . S
C754 C753 1.392 . S
C754 C755 1.385 . S
C754 C756 1.478 . S
C755 H749 0.930 1_545 S
C755 C751 1.400 . S
C755 C754 1.385 . S
C756 C754 1.478 . S
C756 C758 1.381 . S
C756 C762 1.383 . S
C757 C753 1.495 . S
C757 H763 0.959 . S
C757 H764 0.961 . S
C757 H765 0.960 . S
C758 C756 1.381 . S
C758 C759 1.394 . S
C758 H766 0.930 . S
C759 C758 1.394 . S
C759 C760 1.383 . S
C759 H767 0.929 . S
C760 C759 1.383 . S
C760 C761 1.377 . S
C761 H745 0.930 . S
C761 C760 1.377 . S
C761 C762 1.379 . S
C762 H746 0.931 . S
C762 C756 1.383 . S
C762 C761 1.379 . S
H763 C757 0.959 . S
H764 C757 0.961 . S
H765 C757 0.960 . S
H766 C758 0.930 . S
H767 C759 0.929 . S
H768 C776 0.929 . S
H769 C778 0.930 . S
H770 C780 0.930 . S
H771 C783 0.929 . S
H772 C786 0.930 . S
H773 C788 0.960 . S
H774 C788 0.960 . S
H775 C788 0.960 . S
C776 H768 0.929 . S
C776 C777 1.377 . S
C776 C778 1.384 . S
C777 C776 1.377 . S
C777 C783 1.390 . S
C778 H769 0.930 . S
C778 C776 1.384 . S
C778 C779 1.372 . S
C779 C778 1.372 . S
C779 C780 1.400 . S
C779 C784 1.490 . S
C780 H770 0.930 . S
C780 C779 1.400 . S
C780 C783 1.386 . S
H781 C797 0.930 . S
H782 C798 0.931 . S
C783 H771 0.929 . S
C783 C777 1.390 . S
C783 C780 1.386 . S
C784 C779 1.490 . S
C784 C786 1.395 . S
C784 C787 1.403 . S
H785 C791 0.929 . S
C786 H772 0.930 . S
C786 C784 1.395 . S
C786 C789 1.403 . S
C787 C784 1.403 . S
C787 C788 1.524 . S
C787 C791 1.400 . S
C788 H773 0.960 . S
C788 H774 0.960 . S
C788 H775 0.960 . S
C788 C787 1.524 . S
C789 C786 1.403 . S
C789 C790 1.392 1_556 S
C789 C793 1.495 1_556 S
C790 C789 1.392 1_554 S
C790 C791 1.385 1_554 S
C790 C792 1.478 . S
C791 H785 0.929 . S
C791 C787 1.400 . S
C791 C790 1.385 1_556 S
C792 C790 1.478 . S
C792 C794 1.381 . S
C792 C798 1.383 . S
C793 C789 1.495 1_554 S
C793 H799 0.959 1_554 S
C793 H800 0.961 . S
C793 H801 0.960 . S
C794 C792 1.381 . S
C794 C795 1.394 . S
C794 H802 0.930 . S
C795 C794 1.394 . S
C795 C796 1.383 . S
C795 H803 0.929 . S
C796 C795 1.383 . S
C796 C797 1.377 . S
C797 H781 0.930 . S
C797 C796 1.377 . S
C797 C798 1.379 . S
C798 H782 0.931 . S
C798 C792 1.383 . S
C798 C797 1.379 . S
H799 C793 0.959 1_556 S
H800 C793 0.961 . S
H801 C793 0.960 . S
H802 C794 0.930 . S
H803 C795 0.929 . S
H804 C812 0.929 . S
H805 C814 0.930 . S
H806 C816 0.930 1_655 S
H807 C819 0.929 . S
H808 C822 0.930 . S
H809 C824 0.960 1_655 S
H810 C824 0.960 . S
H811 C824 0.960 1_655 S
C812 H804 0.929 . S
C812 C813 1.377 . S
C812 C814 1.384 . S
C813 C812 1.377 . S
C813 C819 1.390 . S
C814 H805 0.930 . S
C814 C812 1.384 . S
C814 C815 1.372 . S
C815 C814 1.372 . S
C815 C816 1.400 . S
C815 C820 1.490 . S
C816 H806 0.930 1_455 S
C816 C815 1.400 . S
C816 C819 1.386 . S
H817 C833 0.930 . S
H818 C834 0.931 . S
C819 H807 0.929 . S
C819 C813 1.390 . S
C819 C816 1.386 . S
C820 C815 1.490 . S
C820 C822 1.395 . S
C820 C823 1.403 . S
H821 C827 0.930 . S
C822 H808 0.930 . S
C822 C820 1.395 . S
C822 C825 1.403 . S
C823 C820 1.403 . S
C823 C824 1.524 . S
C823 C827 1.400 . S
C824 H809 0.960 1_455 S
C824 H810 0.960 . S
C824 H811 0.960 1_455 S
C824 C823 1.524 . S
C825 C822 1.403 . S
C825 C826 1.392 . S
C825 C829 1.495 . S
C826 C825 1.392 . S
C826 C827 1.385 . S
C826 C828 1.478 . S
C827 H821 0.930 . S
C827 C823 1.400 . S
C827 C826 1.385 . S
C828 C826 1.478 . S
C828 C830 1.381 . S
C828 C834 1.383 1_455 S
C829 C825 1.495 . S
C829 H835 0.959 . S
C829 H836 0.961 . S
C829 H837 0.960 . S
C830 C828 1.381 . S
C830 C831 1.394 . S
C830 H838 0.930 . S
C831 C830 1.394 . S
C831 C832 1.383 . S
C831 H839 0.929 . S
C832 C831 1.383 . S
C832 C833 1.377 1_455 S
C833 H817 0.930 . S
C833 C832 1.377 1_655 S
C833 C834 1.379 . S
C834 H818 0.931 . S
C834 C828 1.383 1_655 S
C834 C833 1.379 . S
H835 C829 0.959 . S
H836 C829 0.961 . S
H837 C829 0.960 . S
H838 C830 0.930 . S
H839 C831 0.929 . S
C201 C25 0.581 . S
C220 C186 0.618 . S
C237 C65 0.255 . S
C256 C160 0.287 . S
C273 C105 0.252 . S
C292 C172 0.261 . S
C309 C4 0.364 . S
C328 C184 0.508 . S
C364 C162 0.124 . S
C345 C44 0.178 . S
C400 C174 0.210 . S
C381 C84 0.147 . S
C417 C60 2.987 . S
C436 C136 2.915 . S
C453 C100 3.381 . S
C472 C150 3.346 1_655 S
C489 C31 2.932 . S
C508 C126 2.891 1_565 S
C544 C138 2.898 . S
C525 C71 2.930 . S
C580 C148 2.501 . S
C561 C111 2.576 . S
C597 C20 2.986 1_655 S
C616 C124 2.895 . S
C652 C153 1.770 . S
C633 C2 1.697 . S
C669 C42 1.735 . S
C688 C129 1.748 . S
C705 C82 1.704 . S
C724 C141 1.707 . S
C760 C177 1.227 . S
C741 C63 1.215 . S
C796 C189 1.257 . S
C777 C103 1.238 . S
C813 C23 1.195 . S
C832 C165 1.201 . S
