# Generated by pormake.
# Topology pts, (4,4)-cn, num edge types: 1
# Building blocks:
#     Node 0, Type 0, BuildingBlock: MUDLON_clean_linker_0, # of connection points: 4
#     Node 1, Type 0, BuildingBlock: MUDLON_clean_linker_0, # of connection points: 4
#     Node 2, Type 1, BuildingBlock: QUQFOY_clean_sbu_1, # of connection points: 4
#     Node 3, Type 1, BuildingBlock: QUQFOY_clean_sbu_1, # of connection points: 4
#     Edge 4, Type (0, 1), BuildingBlock: UVAHIK_clean_linker_0, # of connection points: 2
#     Edge 5, Type (0, 1), BuildingBlock: UVAHIK_clean_linker_0, # of connection points: 2
#     Edge 6, Type (0, 1), BuildingBlock: UVAHIK_clean_linker_0, # of connection points: 2
#     Edge 7, Type (0, 1), BuildingBlock: UVAHIK_clean_linker_0, # of connection points: 2
#     Edge 8, Type (0, 1), BuildingBlock: UVAHIK_clean_linker_0, # of connection points: 2
#     Edge 9, Type (0, 1), BuildingBlock: UVAHIK_clean_linker_0, # of connection points: 2
#     Edge 10, Type (0, 1), BuildingBlock: UVAHIK_clean_linker_0, # of connection points: 2
#     Edge 11, Type (0, 1), BuildingBlock: UVAHIK_clean_linker_0, # of connection points: 2
# Relax obj value: 0.108
# Max RMSD: 0.274
# Mean RMSD: 0.181
data_MOF--net-pts--node1-QUQFOY_clean_sbu_1--node2-MUDLON_clean_linker_0--edge1-UVAHIK_clean_linker_0
_symmetry_space_group_name_H-M    P1
_symmetry_Int_Tables_number       1
_symmetry_cell_setting            triclinic
loop_
_symmetry_equiv_pos_as_xyz
'x, y, z'
_cell_length_a     39.416269
_cell_length_b     42.863795
_cell_length_c     57.759203
_cell_angle_alpha  89.9326
_cell_angle_beta   90.042208
_cell_angle_gamma 89.919909
loop_
_atom_site_label
_atom_site_type_symbol
_atom_site_fract_x
_atom_site_fract_y
_atom_site_fract_z
_atom_type_partial_charge
H0 H 0.65524 0.09281 0.0213 0.0
N1 N 0.6145 0.0508 0.00227 0.0
H2 H 0.69098 0.08682 0.05562 0.0
H3 H 0.61477 1.0005 0.03247 0.0
H4 H 0.64871 0.99508 0.06706 0.0
H5 H 0.65625 1.0008 -0.00596 0.0
H6 H 0.69321 0.99368 0.96065 0.0
H7 H 0.61886 0.08695 0.96507 0.0
H8 H 0.65496 0.07951 0.93104 0.0
H9 H 0.55777 0.08366 0.00651 0.0
H10 H 0.59463 0.99043 -0.00554 0.0
H11 H 0.49942 0.06483 0.00437 0.0
H12 H 0.53696 0.97082 -0.00568 0.0
H13 H 0.33562 0.01612 0.01166 0.0
H14 H 0.30122 0.02107 0.04645 0.0
H15 H 0.34024 0.93285 0.07126 0.0
H16 H 0.37393 0.92762 0.03581 0.0
H17 H 0.33986 0.92434 0.97867 0.0
H18 H 0.30568 0.93091 0.94368 0.0
H19 H 0.33823 0.02703 0.93896 0.0
H20 H 0.3712 0.02045 0.97447 0.0
H21 H 0.40079 0.01869 0.02386 0.0
H22 H 0.45826 0.03809 0.02397 0.0
H23 H 0.48688 0.96679 0.97466 0.0
N24 N 0.37695 0.96696 0.00024 0.0
H25 H 0.42957 0.9457 0.97633 0.0
C26 C 0.63209 0.04741 0.02412 0.0
C27 C 0.65348 0.07157 0.03141 0.0
C28 C 0.67376 0.06813 0.05111 0.0
C29 C 0.67288 0.04037 0.06411 0.0
C30 C 0.65055 0.01655 0.05725 0.0
C31 C 0.63064 0.01985 0.0374 0.0
C32 C 0.63509 0.04475 0.98215 0.0
C33 C 0.65573 0.01805 0.98037 0.0
C34 C 0.67669 0.01387 0.96112 0.0
C35 C 0.67724 0.03613 0.9432 0.0
C36 C 0.65566 0.06222 0.94472 0.0
C37 C 0.63489 0.06646 0.96404 0.0
C38 C 0.58051 0.03853 0.00103 0.0
C39 C 0.55318 0.05904 0.00373 0.0
C40 C 0.51985 0.04809 0.0027 0.0
C41 C 0.51314 0.01612 -0.00059 0.0
C42 C 0.54079 0.99564 -0.0035 0.0
C43 C 0.57403 0.00678 -0.0031 0.0
C44 C 0.35708 0.97117 0.021 0.0
C45 C 0.33667 0.99773 0.02446 0.0
C46 C 0.31728 1.00072 0.04455 0.0
C47 C 0.31795 0.97734 0.06165 0.0
C48 C 0.33879 0.95107 0.05829 0.0
C49 C 0.35815 0.94808 0.03815 0.0
C50 C 0.35818 0.97169 0.97907 0.0
C51 C 0.33963 0.94674 0.96997 0.0
C52 C 0.32035 0.95054 0.94989 0.0
C53 C 0.31936 0.97947 0.93837 0.0
C54 C 0.33815 0.00452 0.94749 0.0
C55 C 0.35725 1.00073 0.9677 0.0
C56 C 0.41075 0.98007 0.00036 0.0
C57 C 0.4193 0.0068 0.01328 0.0
C58 C 0.45243 0.0183 0.01305 0.0
C59 C 0.47762 0.00409 -0.00063 0.0
C60 C 0.46864 0.97797 0.98593 0.0
C61 C 0.43575 0.96597 0.98667 0.0
H62 H 0.97452 0.64882 0.51412 0.0
N63 N 0.03196 0.61558 0.50379 0.0
H64 H 0.9675 0.68489 0.54619 0.0
H65 H 0.07265 0.62173 0.54029 0.0
H66 H 0.06521 0.65689 0.57331 0.0
H67 H 0.08024 0.65225 0.48713 0.0
H68 H 0.07485 0.69141 0.45645 0.0
H69 H 0.97748 0.62239 0.47468 0.0
H70 H 0.97184 0.66157 0.44396 0.0
H71 H 0.97266 0.59087 0.52167 0.0
H72 H 0.06183 0.56892 0.48159 0.0
H73 H 0.95508 0.53679 0.52007 0.0
H74 H 0.04307 0.51491 0.47835 0.0
H75 H 0.90661 0.35562 0.51317 0.0
H76 H 0.90879 0.31863 0.54539 0.0
H77 H 0.00762 0.35384 0.56435 0.0
H78 H 0.00566 0.38996 0.532 0.0
H79 H 0.01604 0.35969 0.49404 0.0
H80 H 0.0297 0.32147 0.46424 0.0
H81 H 0.93543 0.34251 0.42937 0.0
H82 H 0.92185 0.38093 0.4594 0.0
H83 H 0.91632 0.44188 0.49848 0.0
H84 H 0.93296 0.49675 0.4981 0.0
H85 H 0.03854 0.46889 0.49873 0.0
N86 N 0.95622 0.39205 0.49811 0.0
H87 H 0.02151 0.41456 0.49731 0.0
C88 C 0.02442 0.63276 0.52467 0.0
C89 C 0.99431 0.65014 0.52706 0.0
C90 C 0.9902 0.67067 0.5456 0.0
C91 C 0.01595 0.67414 0.56227 0.0
C92 C 0.04517 0.65533 0.56054 0.0
C93 C 0.04935 0.63496 0.54186 0.0
C94 C 0.02944 0.63442 0.48315 0.0
C95 C 0.05679 0.65375 0.4774 0.0
C96 C 0.05354 0.67624 0.46007 0.0
C97 C 0.0228 0.67975 0.44802 0.0
C98 C 0.99588 0.65927 0.4529 0.0
C99 C -0.00091 0.63686 0.47042 0.0
C100 C 0.01916 0.58406 0.50206 0.0
C101 C 0.98844 0.57458 0.51231 0.0
C102 C 0.9781 0.54341 0.51114 0.0
C103 C 0.99768 0.52108 0.49921 0.0
C104 C 0.02769 0.53101 0.48826 0.0
C105 C 0.03835 0.56201 0.48986 0.0
C106 C 0.95578 0.37565 0.51998 0.0
C107 C 0.92834 0.35586 0.52467 0.0
C108 C 0.92966 0.33474 0.54309 0.0
C109 C 0.95859 0.333 0.55728 0.0
C110 C 0.98524 0.35417 0.55346 0.0
C111 C 0.98394 0.37521 0.53499 0.0
C112 C 0.96768 0.37317 0.47898 0.0
C113 C 0.99856 0.35666 0.47979 0.0
C114 C 0.00627 0.33458 0.46282 0.0
C115 C 0.98347 0.32878 0.44462 0.0
C116 C 0.95358 0.3466 0.44312 0.0
C117 C 0.94576 0.36851 0.46022 0.0
C118 C 0.96747 0.42407 0.49823 0.0
C119 C 0.94303 0.44778 0.49845 0.0
C120 C 0.95268 0.47916 0.49843 0.0
C121 C 0.98721 0.48758 0.49855 0.0
C122 C 0.01171 0.4636 0.49826 0.0
C123 C 0.00198 0.43225 0.49779 0.0
O124 O 0.95027 0.97869 0.23756 0.0
Cd125 Cd 0.99489 0.96917 0.25477 0.0
Cd126 Cd -0.0007 0.03421 0.25568 0.0
O127 O 0.95381 0.03003 0.23825 0.0
O128 O 0.99172 0.924 0.26236 0.0
O129 O 0.99593 0.96071 0.28908 0.0
C130 C 0.99349 0.93147 0.28392 0.0
C131 C 0.0015 0.07327 0.28383 0.0
C132 C 0.9382 0.00532 0.23246 0.0
C133 C 0.05545 0.99861 0.23182 0.0
O134 O 0.04373 0.02494 0.23804 0.0
O135 O 0.03968 0.97363 0.23672 0.0
O136 O 0.00179 0.07972 0.26206 0.0
O137 O 0.00021 0.04424 0.28981 0.0
O138 O 0.95626 0.03371 0.76654 0.0
Cd139 Cd -0.00074 0.03919 0.74682 0.0
Cd140 Cd 0.99603 0.97317 0.74772 0.0
O141 O 0.95264 0.98234 0.76663 0.0
O142 O -0.0003 0.08476 0.74029 0.0
O143 O 0.99513 0.04924 0.71278 0.0
C144 C 0.99632 0.0783 0.71865 0.0
C145 C 0.99389 0.93209 0.72115 0.0
C146 C 0.94118 0.00886 0.77263 0.0
C147 C 0.05823 0.00489 0.76784 0.0
O148 O 0.04258 0.97972 0.76333 0.0
O149 O 0.04542 0.03114 0.76249 0.0
O150 O 0.99493 0.92718 0.74314 0.0
O151 O 0.99347 0.96069 0.71406 0.0
C152 C 0.27865 0.95383 0.09105 0.0
C153 C 0.29614 0.98 0.08253 0.0
C154 C 0.25649 0.95668 0.10979 0.0
C155 C 0.20294 0.01441 0.13895 0.0
H156 H 0.19563 0.95081 0.18648 0.0
C157 C 0.10529 0.02437 0.21277 0.0
C158 C 0.08704 0.99709 0.21799 0.0
C159 C 0.13394 0.02312 0.19857 0.0
C160 C 0.19722 0.96867 0.17325 0.0
H161 H 0.30512 0.02943 0.08771 0.0
H162 H 0.26618 0.03442 0.12032 0.0
H163 H 0.24033 0.94702 0.15738 0.0
H164 H 0.08518 0.94697 0.21281 0.0
H165 H 0.13472 0.9449 0.18778 0.0
H166 H 0.1594 0.03567 0.15436 0.0
C167 C 0.26933 0.01179 0.11227 0.0
C168 C 0.22284 0.96651 0.15661 0.0
C169 C 0.29158 0.00893 0.09357 0.0
C170 C 0.09862 0.96844 0.20916 0.0
C171 C 0.1272 0.96721 0.19492 0.0
C172 C 0.17728 0.01652 0.15552 0.0
C173 C 0.25124 0.98577 0.12041 0.0
C174 C 0.22572 0.98916 0.13911 0.0
C175 C 0.14497 0.99458 0.18922 0.0
C176 C 0.17384 0.99347 0.1727 0.0
H177 H 0.2812 0.9313 0.08276 0.0
H178 H 0.24258 0.93628 0.11544 0.0
H179 H 0.20419 0.032 0.1255 0.0
H180 H 0.09722 0.0468 0.21941 0.0
H181 H 0.14736 0.04456 0.1948 0.0
C182 C 0.93431 0.29818 0.58826 0.0
C183 C 0.9621 0.30765 0.57473 0.0
C184 C 0.93735 0.27308 0.60362 0.0
C185 C 0.98981 0.20306 0.61518 0.0
H186 H 0.94861 0.20697 0.67602 0.0
C187 C 0.98689 0.09726 0.67794 0.0
C188 C 0.99307 0.10371 0.70141 0.0
C189 C 0.98256 0.12165 0.66204 0.0
C190 C 0.96044 0.20557 0.65914 0.0
H191 H 0.01487 0.29796 0.56673 0.0
H192 H 0.02038 0.25486 0.5939 0.0
H193 H 0.94254 0.25094 0.64957 0.0
H194 H 0.00017 0.14079 0.72651 0.0
H195 H 0.99312 0.18305 0.69886 0.0
H196 H 0.00841 0.15798 0.62499 0.0
C197 C 0.99611 0.26657 0.59245 0.0
C198 C 0.95662 0.23064 0.64387 0.0
C199 C 0.99307 0.29163 0.57712 0.0
C200 C 0.99526 0.13497 0.70858 0.0
C201 C 0.99096 0.15925 0.69274 0.0
C202 C 0.99361 0.17796 0.63045 0.0
C203 C 0.96823 0.25683 0.60577 0.0
C204 C 0.97147 0.22979 0.62178 0.0
C205 C 0.9843 0.15293 0.66932 0.0
C206 C 0.97921 0.17903 0.65268 0.0
H207 H 0.91016 0.31014 0.58694 0.0
H208 H 0.91531 0.26604 0.61351 0.0
H209 H 0.00118 0.20147 0.59816 0.0
H210 H 0.98497 0.07342 0.67189 0.0
H211 H 0.97721 0.116 0.64413 0.0
C212 C 0.71152 0.00626 0.08774 0.0
C213 C 0.6964 0.03558 0.08398 0.0
C214 C 0.73483 1.00192 0.10565 0.0
C215 C 0.76798 0.03759 0.1598 0.0
H216 H 0.84648 0.98613 0.14624 0.0
C217 C 0.89132 0.03671 0.21449 0.0
C218 C 0.9067 0.00759 0.21858 0.0
C219 C 0.86312 0.03913 0.19991 0.0
C220 C 0.8245 1.00024 0.15039 0.0
H221 H 0.69342 0.08313 0.09667 0.0
H222 H 0.73513 0.07588 0.12734 0.0
H223 H 0.80239 0.99253 0.11715 0.0
H224 H 0.9038 0.95804 0.21112 0.0
H225 H 0.85474 0.96238 0.18556 0.0
H226 H 0.79095 0.04596 0.19288 0.0
C227 C 0.72847 0.05606 0.11667 0.0
C228 C 0.79914 0.00388 0.13374 0.0
C229 C 0.70488 0.06034 0.09885 0.0
C230 C 0.89265 0.98084 0.2083 0.0
C231 C 0.86466 0.98332 0.19357 0.0
C232 C 0.79357 0.03416 0.1764 0.0
C233 C 0.744 0.02686 0.12014 0.0
C234 C 0.77055 0.02261 0.1382 0.0
C235 C 0.84992 0.01253 0.18897 0.0
C236 C 0.82208 0.01546 0.17184 0.0
H237 H 0.70604 0.98672 0.07649 0.0
H238 H 0.74583 0.97898 0.10803 0.0
H239 H 0.7461 0.05182 0.16395 0.0
H240 H 0.90143 0.05777 0.2222 0.0
H241 H 0.8524 0.06198 0.19655 0.0
C242 C 0.98186 0.70621 0.59049 0.0
C243 C 0.01331 0.69878 0.58035 0.0
C244 C 0.97907 0.73104 0.60607 0.0
C245 C 0.02852 0.77995 0.64585 0.0
H246 H 0.9555 0.8398 0.63775 0.0
C247 C -0.0007 0.87506 0.71321 0.0
C248 C 0.99417 0.90551 0.70483 0.0
C249 C 0.0009 0.84982 0.69801 0.0
C250 C 0.97608 0.82334 0.64014 0.0
H251 H 0.0665 0.71178 0.57885 0.0
H252 H 0.0617 0.75443 0.60643 0.0
H253 H 0.95988 0.79504 0.61163 0.0
H254 H 0.98611 0.93329 0.67391 0.0
H255 H 0.98862 0.88892 0.64725 0.0
H256 H 0.04481 0.80821 0.67429 0.0
C257 C 0.03926 0.74094 0.60236 0.0
C258 C 0.9784 0.79759 0.62536 0.0
C259 C 0.04201 0.71635 0.58663 0.0
C260 C 0.99011 0.91011 0.68089 0.0
C261 C 0.9914 0.88473 0.66565 0.0
C262 C 0.026 0.80548 0.66076 0.0
C263 C 0.00771 0.74878 0.61204 0.0
C264 C 0.00471 0.77569 0.62804 0.0
C265 C 0.99715 0.85438 0.67408 0.0
C266 C -0.0002 0.82746 0.65805 0.0
H267 H 0.95933 0.69291 0.58636 0.0
H268 H 0.95452 0.73628 0.61354 0.0
H269 H 0.04895 0.76337 0.6484 0.0
H270 H 0.00249 0.87066 0.73155 0.0
H271 H 0.00493 0.82666 0.70503 0.0
C272 C 0.29507 0.95936 0.90102 0.0
C273 C 0.29802 0.98356 0.91733 0.0
C274 C 0.27311 0.96226 0.88215 0.0
C275 C 0.22562 0.01854 0.84649 0.0
H276 H 0.1628 0.95001 0.83785 0.0
C277 C 0.10302 0.03001 0.79229 0.0
C278 C 0.09064 0.00354 0.78073 0.0
C279 C 0.13166 0.02788 0.80648 0.0
C280 C 0.18053 0.96913 0.83962 0.0
H281 H 0.28068 0.03015 0.92616 0.0
H282 H 0.24283 0.03535 0.89295 0.0
H283 H 0.2072 0.94585 0.86691 0.0
H284 H 0.09977 0.9545 0.77388 0.0
H285 H 0.15032 0.951 0.79797 0.0
H286 H 0.19901 0.04185 0.81916 0.0
C287 C 0.25766 0.01419 0.89481 0.0
C288 C 0.20593 0.96675 0.85637 0.0
C289 C 0.2794 0.0112 0.91381 0.0
C290 C 0.10843 0.97525 0.78279 0.0
C291 C 0.13731 0.97321 0.79673 0.0
C292 C 0.2004 0.02081 0.82951 0.0
C293 C 0.25387 0.98953 0.87903 0.0
C294 C 0.22847 0.99154 0.86016 0.0
C295 C 0.14882 0.9993 0.80922 0.0
C296 C 0.17727 0.99626 0.82605 0.0
H297 H 0.30958 0.93803 0.90289 0.0
H298 H 0.27101 0.94306 0.87006 0.0
H299 H 0.24291 0.03788 0.84892 0.0
H300 H 0.08981 0.05214 0.79112 0.0
H301 H 0.13949 0.04839 0.81601 0.0
C302 C -0.00031 0.27333 0.43663 0.0
C303 C 0.98963 0.30274 0.42825 0.0
C304 C 0.00346 0.24813 0.42153 0.0
C305 C 0.01715 0.22783 0.36049 0.0
H306 H 0.97435 0.14944 0.37688 0.0
C307 C -0.00098 0.12983 0.29389 0.0
C308 C 0.00226 0.09867 0.30115 0.0
C309 C -0.0006 0.1541 0.30994 0.0
C310 C 0.98695 0.17096 0.37218 0.0
H311 H 0.97637 0.32899 0.39746 0.0
H312 H 0.98316 0.28491 0.37098 0.0
H313 H 0.97213 0.19318 0.40381 0.0
H314 H 0.0087 0.06853 0.33099 0.0
H315 H 0.01011 0.11108 0.35912 0.0
H316 H 0.03226 0.20573 0.32899 0.0
C317 C 0.98814 0.28141 0.38925 0.0
C318 C 0.98558 0.19605 0.38759 0.0
C319 C 0.98403 0.30656 0.4044 0.0
C320 C 0.00603 0.0923 0.32487 0.0
C321 C 0.00666 0.11669 0.34099 0.0
C322 C 0.0188 0.20269 0.34517 0.0
C323 C 0.99754 0.25186 0.39771 0.0
C324 C 0.00034 0.22485 0.38179 0.0
C325 C 0.00333 0.14791 0.3337 0.0
C326 C 0.00334 0.17404 0.35067 0.0
H327 H 0.00381 0.26958 0.45497 0.0
H328 H 0.01097 0.22568 0.4285 0.0
H329 H 0.02919 0.24961 0.35572 0.0
H330 H 0.99582 0.13556 0.27574 0.0
H331 H 0.99603 0.17774 0.3037 0.0
C332 C 0.70837 0.00353 0.91382 0.0
C333 C 0.70135 0.0329 0.92356 0.0
C334 C 0.73252 1.00047 0.89624 0.0
C335 C 0.80725 0.04086 0.87212 0.0
H336 H 0.79515 0.98456 0.82025 0.0
C337 C 0.89934 0.04027 0.79536 0.0
C338 C 0.91088 0.011 0.7877 0.0
C339 C 0.87227 0.04245 0.81081 0.0
C340 C 0.79895 1.00019 0.83475 0.0
H341 H 0.71407 0.08212 0.92221 0.0
H342 H 0.75522 0.07693 0.89117 0.0
H343 H 0.75035 0.98946 0.84931 0.0
H344 H 0.90221 0.96108 0.78973 0.0
H345 H 0.85482 0.96498 0.81684 0.0
H346 H 0.85569 0.05168 0.8576 0.0
C347 C 0.74251 0.05615 0.89736 0.0
C348 C 0.77335 1.00297 0.85139 0.0
C349 C 0.71852 0.05919 0.91496 0.0
C350 C 0.894 0.98398 0.79532 0.0
C351 C 0.86677 0.9862 0.81076 0.0
C352 C 0.83268 0.03818 0.85548 0.0
C353 C 0.75015 0.02672 0.88799 0.0
C354 C 0.77717 0.02346 0.87023 0.0
C355 C 0.856 0.01545 0.81894 0.0
C356 C 0.82878 0.01793 0.83656 0.0
H357 H 0.69531 0.98285 0.91984 0.0
H358 H 0.73795 0.97743 0.88951 0.0
H359 H 0.81139 0.0563 0.88667 0.0
H360 H 0.91156 0.06159 0.78974 0.0
H361 H 0.86417 0.06535 0.81652 0.0
C362 C 0.003 0.70135 0.40983 0.0
C363 C 0.0183 0.70598 0.43151 0.0
C364 C -0.00108 0.72633 0.39444 0.0
C365 C 0.031 0.80628 0.38251 0.0
H366 H 0.95084 0.81188 0.34377 0.0
C367 C 0.00221 0.91378 0.32496 0.0
C368 C 0.99333 0.90694 0.30196 0.0
C369 C 0.00367 0.89 0.34157 0.0
C370 C 0.97341 0.81053 0.35444 0.0
H371 H 0.04027 0.74051 0.45443 0.0
H372 H 0.03262 0.78408 0.4279 0.0
H373 H 0.95658 0.76874 0.3711 0.0
H374 H 0.97818 0.87001 0.27847 0.0
H375 H 0.98047 0.82873 0.30744 0.0
H376 H 0.0476 0.84828 0.36592 0.0
C377 C 0.02465 0.76109 0.42239 0.0
C378 C 0.97681 0.78574 0.37002 0.0
C379 C 0.029 0.73612 0.43763 0.0
C380 C 0.98519 0.87604 0.29603 0.0
C381 C 0.98629 0.8524 0.31265 0.0
C382 C 0.02743 0.83121 0.36708 0.0
C383 C 0.00974 0.75653 0.40053 0.0
C384 C 0.00576 0.78318 0.38416 0.0
C385 C 0.99587 0.85904 0.33554 0.0
C386 C -0.00127 0.83348 0.35277 0.0
H387 H 0.9947 0.67832 0.40462 0.0
H388 H 0.98778 0.72183 0.37764 0.0
H389 H 0.05391 0.80483 0.39281 0.0
H390 H 0.00861 0.93736 0.33005 0.0
H391 H 0.01089 0.89581 0.35914 0.0
loop_
_geom_bond_atom_site_label_1
_geom_bond_atom_site_label_2
_geom_bond_distance
_geom_bond_site_symmetry_2
_ccdc_geom_bond_type
H0 C27 0.929 . S
N1 C26 1.433 . S
N1 C32 1.435 1_554 S
N1 C38 1.423 . S
H2 C28 0.930 . S
H3 C31 0.931 . S
H4 C30 0.929 . S
H5 C33 0.902 1_554 S
H6 C34 0.932 . S
H7 C37 0.929 . S
H8 C36 0.931 . S
H9 C39 0.929 . S
H10 C43 0.932 1_565 S
H11 C40 0.931 . S
H12 C42 0.929 1_565 S
H13 C45 0.929 . S
H14 C46 0.930 . S
H15 C48 0.929 . S
H16 C49 0.931 . S
H17 C51 0.902 1_554 S
H18 C52 0.932 . S
H19 C54 0.931 . S
H20 C55 0.929 . S
H21 C57 0.929 . S
H22 C58 0.931 . S
H23 C60 0.929 1_565 S
N24 C44 1.433 . S
N24 C50 1.435 1_554 S
N24 C56 1.423 . S
H25 C61 0.932 1_565 S
C26 N1 1.433 . S
C26 C27 1.363 . S
C26 C31 1.370 1_545 S
C27 H0 0.929 . S
C27 C26 1.363 . S
C27 C28 1.385 . S
C28 H2 0.930 . S
C28 C27 1.385 . S
C28 C29 1.357 . S
C29 C28 1.357 . S
C29 C30 1.406 1_545 S
C30 H4 0.929 . S
C30 C29 1.406 1_565 S
C30 C31 1.391 . S
C31 H3 0.931 . S
C31 C26 1.370 1_565 S
C31 C30 1.391 . S
C32 N1 1.435 1_556 S
C32 C33 1.358 1_545 S
C32 C37 1.371 . S
C33 H5 0.902 1_556 S
C33 C32 1.358 1_565 S
C33 C34 1.405 . S
C34 H6 0.932 . S
C34 C33 1.405 . S
C34 C35 1.383 1_565 S
C35 C34 1.383 1_545 S
C35 C36 1.393 . S
C36 H8 0.931 . S
C36 C35 1.393 . S
C36 C37 1.382 . S
C37 H7 0.929 . S
C37 C32 1.371 . S
C37 C36 1.382 . S
C38 N1 1.423 . S
C38 C39 1.362 . S
C38 C43 1.388 1_554 S
C39 H9 0.929 . S
C39 C38 1.362 . S
C39 C40 1.376 . S
C40 H11 0.931 . S
C40 C39 1.376 . S
C40 C41 1.408 . S
C41 C40 1.408 . S
C41 C42 1.336 1_554 S
C41 C59 1.472 . S
C42 H12 0.929 1_545 S
C42 C41 1.336 1_556 S
C42 C43 1.443 . S
C43 H10 0.932 1_545 S
C43 C38 1.388 1_556 S
C43 C42 1.443 . S
C44 N24 1.433 . S
C44 C45 1.363 . S
C44 C49 1.370 1_545 S
C45 H13 0.929 . S
C45 C44 1.363 . S
C45 C46 1.385 . S
C46 H14 0.930 . S
C46 C45 1.385 . S
C46 C47 1.357 . S
C47 C46 1.357 . S
C47 C48 1.406 1_545 S
C48 H15 0.929 . S
C48 C47 1.406 1_565 S
C48 C49 1.391 . S
C49 H16 0.931 . S
C49 C44 1.370 1_565 S
C49 C48 1.391 . S
C50 N24 1.435 1_556 S
C50 C51 1.358 1_545 S
C50 C55 1.371 . S
C51 H17 0.902 1_556 S
C51 C50 1.358 1_565 S
C51 C52 1.405 . S
C52 H18 0.932 . S
C52 C51 1.405 . S
C52 C53 1.383 1_565 S
C53 C52 1.383 1_545 S
C53 C54 1.393 . S
C54 H19 0.931 . S
C54 C53 1.393 . S
C54 C55 1.382 . S
C55 H20 0.929 . S
C55 C50 1.371 . S
C55 C54 1.382 . S
C56 N24 1.423 . S
C56 C57 1.362 . S
C56 C61 1.388 1_554 S
C57 H21 0.929 . S
C57 C56 1.362 . S
C57 C58 1.376 . S
C58 H22 0.931 . S
C58 C57 1.376 . S
C58 C59 1.408 . S
C59 C41 1.472 . S
C59 C58 1.408 . S
C59 C60 1.336 1_554 S
C60 H23 0.929 1_545 S
C60 C59 1.336 1_556 S
C60 C61 1.443 . S
C61 H25 0.932 1_545 S
C61 C56 1.388 1_556 S
C61 C60 1.443 . S
H62 C89 0.929 . S
N63 C88 1.433 . S
N63 C94 1.435 . S
N63 C100 1.423 . S
H64 C90 0.930 . S
H65 C93 0.931 . S
H66 C92 0.929 . S
H67 C95 0.930 . S
H68 C96 0.932 . S
H69 C99 0.929 . S
H70 C98 0.931 . S
H71 C101 0.929 . S
H72 C105 0.932 1_455 S
H73 C102 0.931 . S
H74 C104 0.929 1_455 S
H75 C107 0.929 . S
H76 C108 0.930 . S
H77 C110 0.929 . S
H78 C111 0.931 . S
H79 C113 0.930 . S
H80 C114 0.932 . S
H81 C116 0.931 . S
H82 C117 0.929 . S
H83 C119 0.929 . S
H84 C120 0.931 . S
H85 C122 0.929 1_455 S
N86 C106 1.433 . S
N86 C112 1.435 . S
N86 C118 1.423 . S
H87 C123 0.932 1_455 S
C88 N63 1.433 . S
C88 C89 1.363 . S
C88 C93 1.370 1_655 S
C89 H62 0.929 . S
C89 C88 1.363 . S
C89 C90 1.385 . S
C90 H64 0.930 . S
C90 C89 1.385 . S
C90 C91 1.357 . S
C91 C90 1.357 . S
C91 C92 1.406 1_655 S
C92 H66 0.929 . S
C92 C91 1.406 1_455 S
C92 C93 1.391 . S
C93 H65 0.931 . S
C93 C88 1.370 1_455 S
C93 C92 1.391 . S
C94 N63 1.435 . S
C94 C95 1.358 1_655 S
C94 C99 1.371 . S
C95 H67 0.930 . S
C95 C94 1.358 1_455 S
C95 C96 1.405 . S
C96 H68 0.932 . S
C96 C95 1.405 . S
C96 C97 1.383 1_455 S
C97 C96 1.383 1_655 S
C97 C98 1.393 . S
C98 H70 0.931 . S
C98 C97 1.393 . S
C98 C99 1.382 . S
C99 H69 0.929 . S
C99 C94 1.371 . S
C99 C98 1.382 . S
C100 N63 1.423 . S
C100 C101 1.362 . S
C100 C105 1.388 . S
C101 H71 0.929 . S
C101 C100 1.362 . S
C101 C102 1.376 . S
C102 H73 0.931 . S
C102 C101 1.376 . S
C102 C103 1.396 . S
C103 C102 1.396 . S
C103 C104 1.348 . S
C103 C121 1.472 . S
C104 H74 0.929 1_655 S
C104 C103 1.348 . S
C104 C105 1.443 . S
C105 H72 0.932 1_655 S
C105 C100 1.388 . S
C105 C104 1.443 . S
C106 N86 1.433 . S
C106 C107 1.363 . S
C106 C111 1.370 1_655 S
C107 H75 0.929 . S
C107 C106 1.363 . S
C107 C108 1.385 . S
C108 H76 0.930 . S
C108 C107 1.385 . S
C108 C109 1.357 . S
C109 C108 1.357 . S
C109 C110 1.406 1_655 S
C110 H77 0.929 . S
C110 C109 1.406 1_455 S
C110 C111 1.391 . S
C111 H78 0.931 . S
C111 C106 1.370 1_455 S
C111 C110 1.391 . S
C112 N86 1.435 . S
C112 C113 1.358 1_655 S
C112 C117 1.371 . S
C113 H79 0.930 . S
C113 C112 1.358 1_455 S
C113 C114 1.405 . S
C114 H80 0.932 . S
C114 C113 1.405 . S
C114 C115 1.383 1_455 S
C115 C114 1.383 1_655 S
C115 C116 1.393 . S
C116 H81 0.931 . S
C116 C115 1.393 . S
C116 C117 1.382 . S
C117 H82 0.929 . S
C117 C112 1.371 . S
C117 C116 1.382 . S
C118 N86 1.423 . S
C118 C119 1.362 . S
C118 C123 1.388 . S
C119 H83 0.929 . S
C119 C118 1.362 . S
C119 C120 1.376 . S
C120 H84 0.931 . S
C120 C119 1.376 . S
C120 C121 1.396 . S
C121 C103 1.472 . S
C121 C120 1.396 . S
C121 C122 1.348 . S
C122 H85 0.929 1_655 S
C122 C121 1.348 . S
C122 C123 1.443 . S
C123 H87 0.932 1_655 S
C123 C118 1.388 . S
C123 C122 1.443 . S
O124 Cd125 2.223 1_655 S
O124 C132 1.315 . S
Cd125 O124 2.223 1_455 S
Cd125 O128 2.297 1_455 S
Cd125 O129 2.439 1_455 S
Cd125 O135 2.240 1_565 S
Cd126 O127 2.240 1_545 S
Cd126 O134 2.223 1_655 S
Cd126 O136 2.297 1_655 S
Cd126 O137 2.439 1_655 S
O127 Cd126 2.240 1_565 S
O127 C132 1.279 . S
O128 Cd125 2.297 1_655 S
O128 C130 1.247 . S
O129 Cd125 2.439 1_655 S
O129 C130 1.208 . S
C130 O128 1.247 . S
C130 O129 1.208 . S
C131 O136 1.247 . S
C131 O137 1.208 . S
C132 O124 1.315 . S
C132 O127 1.279 . S
C133 O134 1.315 . S
C133 O135 1.279 . S
O134 Cd126 2.223 1_455 S
O134 C133 1.315 . S
O135 Cd125 2.240 1_545 S
O135 C133 1.279 . S
O136 Cd126 2.297 1_455 S
O136 C131 1.247 . S
O137 Cd126 2.439 1_455 S
O137 C131 1.208 . S
O138 Cd139 2.223 1_655 S
O138 C146 1.315 . S
Cd139 O138 2.223 1_455 S
Cd139 O142 2.297 1_455 S
Cd139 O143 2.439 1_455 S
Cd139 O149 2.240 1_545 S
Cd140 O141 2.240 1_565 S
Cd140 O148 2.223 1_655 S
Cd140 O150 2.297 1_655 S
Cd140 O151 2.439 1_655 S
O141 Cd140 2.240 1_545 S
O141 C146 1.279 . S
O142 Cd139 2.297 1_655 S
O142 C144 1.247 . S
O143 Cd139 2.439 1_655 S
O143 C144 1.208 . S
C144 O142 1.247 . S
C144 O143 1.208 . S
C145 O150 1.247 . S
C145 O151 1.208 . S
C146 O138 1.315 . S
C146 O141 1.279 . S
C147 O148 1.315 . S
C147 O149 1.279 . S
O148 Cd140 2.223 1_455 S
O148 C147 1.315 . S
O149 Cd139 2.240 1_565 S
O149 C147 1.279 . S
O150 Cd140 2.297 1_455 S
O150 C145 1.247 . S
O151 Cd140 2.439 1_455 S
O151 C145 1.208 . S
C152 C153 1.349 1_565 S
C152 C154 1.327 . S
C152 H177 0.950 . S
C153 C152 1.349 1_545 S
C153 C169 1.349 . S
C154 C152 1.327 . S
C154 C173 1.429 1_565 S
C154 H178 0.950 . S
C155 C172 1.574 . S
C155 C174 1.368 . S
C155 H179 0.949 . S
H156 C160 0.949 . S
C157 C158 1.349 . S
C157 C159 1.327 . S
C157 H180 0.950 . S
C158 C157 1.349 . S
C158 C170 1.349 1_545 S
C159 C157 1.327 . S
C159 C175 1.429 . S
C159 H181 0.950 . S
C160 H156 0.949 . S
C160 C168 1.574 . S
C160 C176 1.368 1_565 S
H161 C169 0.950 . S
H162 C167 0.950 . S
H163 C168 0.949 . S
H164 C170 0.950 . S
H165 C171 0.950 . S
H166 C172 0.949 . S
C167 H162 0.950 . S
C167 C169 1.327 . S
C167 C173 1.429 . S
C168 C160 1.574 . S
C168 H163 0.949 . S
C168 C174 1.368 1_565 S
C169 C153 1.349 . S
C169 H161 0.950 . S
C169 C167 1.327 . S
C170 C158 1.349 1_565 S
C170 H164 0.950 . S
C170 C171 1.327 . S
C171 H165 0.950 . S
C171 C170 1.327 . S
C171 C175 1.429 1_565 S
C172 C155 1.574 . S
C172 H166 0.949 . S
C172 C176 1.368 . S
C173 C154 1.429 1_545 S
C173 C167 1.429 . S
C173 C174 1.523 . S
C174 C155 1.368 . S
C174 C168 1.368 1_545 S
C174 C173 1.523 . S
C175 C159 1.429 . S
C175 C171 1.429 1_545 S
C175 C176 1.523 . S
C176 C160 1.368 1_545 S
C176 C172 1.368 . S
C176 C175 1.523 . S
H177 C152 0.950 . S
H178 C154 0.950 . S
H179 C155 0.949 . S
H180 C157 0.950 . S
H181 C159 0.950 . S
C182 C183 1.349 . S
C182 C184 1.327 . S
C182 H207 0.950 . S
C183 C182 1.349 . S
C183 C199 1.349 1_655 S
C184 C182 1.327 . S
C184 C203 1.429 . S
C184 H208 0.950 . S
C185 C202 1.574 . S
C185 C204 1.368 1_455 S
C185 H209 0.949 . S
H186 C190 0.949 . S
C187 C188 1.349 . S
C187 C189 1.327 1_655 S
C187 H210 0.950 1_655 S
C188 C187 1.349 . S
C188 C200 1.349 . S
C189 C187 1.327 1_455 S
C189 C205 1.428 1_455 S
C189 H211 0.950 . S
C190 H186 0.949 . S
C190 C198 1.574 . S
C190 C206 1.368 . S
H191 C199 0.950 . S
H192 C197 0.950 . S
H193 C198 0.949 . S
H194 C200 0.950 . S
H195 C201 0.950 . S
H196 C202 0.949 . S
C197 H192 0.950 . S
C197 C199 1.327 . S
C197 C203 1.429 1_455 S
C198 C190 1.574 . S
C198 H193 0.949 . S
C198 C204 1.368 . S
C199 C183 1.349 1_455 S
C199 H191 0.950 . S
C199 C197 1.327 . S
C200 C188 1.349 . S
C200 H194 0.950 . S
C200 C201 1.327 . S
C201 H195 0.950 . S
C201 C200 1.327 . S
C201 C205 1.429 . S
C202 C185 1.574 . S
C202 H196 0.949 . S
C202 C206 1.368 1_455 S
C203 C184 1.429 . S
C203 C197 1.429 1_655 S
C203 C204 1.523 . S
C204 C185 1.368 1_655 S
C204 C198 1.368 . S
C204 C203 1.523 . S
C205 C189 1.428 1_655 S
C205 C201 1.429 . S
C205 C206 1.523 . S
C206 C190 1.368 . S
C206 C202 1.368 1_655 S
C206 C205 1.523 . S
H207 C182 0.950 . S
H208 C184 0.950 . S
H209 C185 0.949 . S
H210 C187 0.950 1_455 S
H211 C189 0.950 . S
C212 C213 1.349 . S
C212 C214 1.327 . S
C212 H237 0.950 . S
C213 C212 1.349 . S
C213 C229 1.349 1_565 S
C214 C212 1.327 . S
C214 C233 1.429 . S
C214 H238 0.950 . S
C215 C232 1.574 . S
C215 C234 1.368 1_545 S
C215 H239 0.949 . S
H216 C220 0.949 . S
C217 C218 1.349 1_545 S
C217 C219 1.327 . S
C217 H240 0.950 . S
C218 C217 1.349 1_565 S
C218 C230 1.349 . S
C219 C217 1.327 . S
C219 C235 1.429 1_545 S
C219 H241 0.950 . S
C220 H216 0.949 . S
C220 C228 1.574 . S
C220 C236 1.368 . S
H221 C229 0.950 . S
H222 C227 0.950 . S
H223 C228 0.949 . S
H224 C230 0.950 . S
H225 C231 0.950 . S
H226 C232 0.949 . S
C227 H222 0.950 . S
C227 C229 1.327 . S
C227 C233 1.429 1_545 S
C228 C220 1.574 . S
C228 H223 0.949 . S
C228 C234 1.368 . S
C229 C213 1.349 1_545 S
C229 H221 0.950 . S
C229 C227 1.327 . S
C230 C218 1.349 . S
C230 H224 0.950 . S
C230 C231 1.327 . S
C231 H225 0.950 . S
C231 C230 1.327 . S
C231 C235 1.429 . S
C232 C215 1.574 . S
C232 H226 0.949 . S
C232 C236 1.368 1_545 S
C233 C214 1.429 . S
C233 C227 1.429 1_565 S
C233 C234 1.523 . S
C234 C215 1.368 1_565 S
C234 C228 1.368 . S
C234 C233 1.523 . S
C235 C219 1.429 1_565 S
C235 C231 1.429 . S
C235 C236 1.523 . S
C236 C220 1.368 . S
C236 C232 1.368 1_565 S
C236 C235 1.523 . S
H237 C212 0.950 . S
H238 C214 0.950 . S
H239 C215 0.949 . S
H240 C217 0.950 . S
H241 C219 0.950 . S
C242 C243 1.349 1_655 S
C242 C244 1.327 . S
C242 H267 0.950 . S
C243 C242 1.349 1_455 S
C243 C259 1.349 . S
C244 C242 1.327 . S
C244 C263 1.429 1_655 S
C244 H268 0.950 . S
C245 C262 1.574 . S
C245 C264 1.368 . S
C245 H269 0.949 . S
H246 C250 0.949 . S
C247 C248 1.349 . S
C247 C249 1.327 . S
C247 H270 0.950 . S
C248 C247 1.349 . S
C248 C260 1.358 . S
C249 C247 1.327 . S
C249 C265 1.429 . S
C249 H271 0.950 . S
C250 H246 0.949 . S
C250 C258 1.574 . S
C250 C266 1.368 1_655 S
H251 C259 0.950 . S
H252 C257 0.950 . S
H253 C258 0.949 . S
H254 C260 0.942 1_655 S
H255 C261 0.950 . S
H256 C262 0.949 . S
C257 H252 0.950 . S
C257 C259 1.327 . S
C257 C263 1.429 . S
C258 C250 1.574 . S
C258 H253 0.949 . S
C258 C264 1.368 1_655 S
C259 C243 1.349 . S
C259 H251 0.950 . S
C259 C257 1.327 . S
C260 C248 1.358 . S
C260 H254 0.942 1_455 S
C260 C261 1.326 1_455 S
C261 H255 0.950 . S
C261 C260 1.326 1_655 S
C261 C265 1.429 1_655 S
C262 C245 1.574 . S
C262 H256 0.949 . S
C262 C266 1.368 . S
C263 C244 1.429 1_455 S
C263 C257 1.429 . S
C263 C264 1.523 . S
C264 C245 1.368 . S
C264 C258 1.368 1_455 S
C264 C263 1.523 . S
C265 C249 1.429 . S
C265 C261 1.429 1_455 S
C265 C266 1.523 . S
C266 C250 1.368 1_455 S
C266 C262 1.368 . S
C266 C265 1.523 . S
H267 C242 0.950 . S
H268 C244 0.950 . S
H269 C245 0.949 . S
H270 C247 0.950 . S
H271 C249 0.950 . S
C272 C273 1.374 . S
C272 C274 1.327 . S
C272 H297 0.950 . S
C273 C272 1.374 . S
C273 C289 1.326 1_565 S
C274 C272 1.327 . S
C274 C293 1.429 . S
C274 H298 0.950 . S
C275 C292 1.574 . S
C275 C294 1.368 1_545 S
C275 H299 0.949 . S
H276 C280 0.949 . S
C277 C278 1.349 1_545 S
C277 C279 1.327 . S
C277 H300 0.950 . S
C278 C277 1.349 1_565 S
C278 C290 1.349 . S
C279 C277 1.327 . S
C279 C295 1.429 1_545 S
C279 H301 0.950 . S
C280 H276 0.949 . S
C280 C288 1.574 . S
C280 C296 1.368 . S
H281 C289 0.950 . S
H282 C287 0.950 . S
H283 C288 0.949 . S
H284 C290 0.950 . S
H285 C291 0.950 . S
H286 C292 0.949 . S
C287 H282 0.950 . S
C287 C289 1.327 . S
C287 C293 1.429 1_545 S
C288 C280 1.574 . S
C288 H283 0.949 . S
C288 C294 1.368 . S
C289 C273 1.326 1_545 S
C289 H281 0.950 . S
C289 C287 1.327 . S
C290 C278 1.349 . S
C290 H284 0.950 . S
C290 C291 1.327 . S
C291 H285 0.950 . S
C291 C290 1.327 . S
C291 C295 1.429 . S
C292 C275 1.574 . S
C292 H286 0.949 . S
C292 C296 1.368 1_545 S
C293 C274 1.429 . S
C293 C287 1.429 1_565 S
C293 C294 1.523 . S
C294 C275 1.368 1_565 S
C294 C288 1.368 . S
C294 C293 1.523 . S
C295 C279 1.429 1_565 S
C295 C291 1.429 . S
C295 C296 1.523 . S
C296 C280 1.368 . S
C296 C292 1.368 1_565 S
C296 C295 1.523 . S
H297 C272 0.950 . S
H298 C274 0.950 . S
H299 C275 0.949 . S
H300 C277 0.950 . S
H301 C279 0.950 . S
C302 C303 1.349 1_655 S
C302 C304 1.327 . S
C302 H327 0.950 . S
C303 C302 1.349 1_455 S
C303 C319 1.349 . S
C304 C302 1.327 . S
C304 C323 1.429 1_655 S
C304 H328 0.950 . S
C305 C322 1.574 . S
C305 C324 1.368 . S
C305 H329 0.949 . S
H306 C310 0.949 . S
C307 C308 1.349 . S
C307 C309 1.327 . S
C307 H330 0.950 . S
C308 C307 1.349 . S
C308 C320 1.349 . S
C309 C307 1.327 . S
C309 C325 1.429 . S
C309 H331 0.950 . S
C310 H306 0.949 . S
C310 C318 1.574 . S
C310 C326 1.368 1_655 S
H311 C319 0.950 . S
H312 C317 0.950 . S
H313 C318 0.949 . S
H314 C320 0.950 1_655 S
H315 C321 0.950 1_655 S
H316 C322 0.949 . S
C317 H312 0.950 . S
C317 C319 1.327 . S
C317 C323 1.429 . S
C318 C310 1.574 . S
C318 H313 0.949 . S
C318 C324 1.368 1_655 S
C319 C303 1.349 . S
C319 H311 0.950 . S
C319 C317 1.327 . S
C320 C308 1.349 . S
C320 H314 0.950 1_455 S
C320 C321 1.327 . S
C321 H315 0.950 1_455 S
C321 C320 1.327 . S
C321 C325 1.429 . S
C322 C305 1.574 . S
C322 H316 0.949 . S
C322 C326 1.368 . S
C323 C304 1.429 1_455 S
C323 C317 1.429 . S
C323 C324 1.523 . S
C324 C305 1.368 . S
C324 C318 1.368 1_455 S
C324 C323 1.523 . S
C325 C309 1.429 . S
C325 C321 1.429 . S
C325 C326 1.523 . S
C326 C310 1.368 1_455 S
C326 C322 1.368 . S
C326 C325 1.523 . S
H327 C302 0.950 . S
H328 C304 0.950 . S
H329 C305 0.949 . S
H330 C307 0.950 . S
H331 C309 0.950 . S
C332 C333 1.349 1_565 S
C332 C334 1.327 . S
C332 H357 0.950 . S
C333 C332 1.349 1_545 S
C333 C349 1.349 . S
C334 C332 1.327 . S
C334 C353 1.429 1_565 S
C334 H358 0.950 . S
C335 C352 1.574 . S
C335 C354 1.368 . S
C335 H359 0.949 . S
H336 C340 0.949 . S
C337 C338 1.349 . S
C337 C339 1.327 . S
C337 H360 0.950 . S
C338 C337 1.349 . S
C338 C350 1.349 1_545 S
C339 C337 1.327 . S
C339 C355 1.429 . S
C339 H361 0.950 . S
C340 H336 0.949 . S
C340 C348 1.574 . S
C340 C356 1.368 1_565 S
H341 C349 0.950 . S
H342 C347 0.950 . S
H343 C348 0.949 . S
H344 C350 0.950 . S
H345 C351 0.950 . S
H346 C352 0.949 . S
C347 H342 0.950 . S
C347 C349 1.327 . S
C347 C353 1.429 . S
C348 C340 1.574 . S
C348 H343 0.949 . S
C348 C354 1.368 1_565 S
C349 C333 1.349 . S
C349 H341 0.950 . S
C349 C347 1.327 . S
C350 C338 1.349 1_565 S
C350 H344 0.950 . S
C350 C351 1.327 . S
C351 H345 0.950 . S
C351 C350 1.327 . S
C351 C355 1.429 1_565 S
C352 C335 1.574 . S
C352 H346 0.949 . S
C352 C356 1.368 . S
C353 C334 1.429 1_545 S
C353 C347 1.429 . S
C353 C354 1.523 . S
C354 C335 1.368 . S
C354 C348 1.368 1_545 S
C354 C353 1.523 . S
C355 C339 1.429 . S
C355 C351 1.429 1_545 S
C355 C356 1.523 . S
C356 C340 1.368 1_545 S
C356 C352 1.368 . S
C356 C355 1.523 . S
H357 C332 0.950 . S
H358 C334 0.950 . S
H359 C335 0.949 . S
H360 C337 0.950 . S
H361 C339 0.950 . S
C362 C363 1.349 . S
C362 C364 1.327 . S
C362 H387 0.950 . S
C363 C362 1.349 . S
C363 C379 1.349 1_655 S
C364 C362 1.327 . S
C364 C383 1.429 . S
C364 H388 0.950 . S
C365 C382 1.574 . S
C365 C384 1.368 1_455 S
C365 H389 0.949 . S
H366 C370 0.949 . S
C367 C368 1.349 . S
C367 C369 1.327 . S
C367 H390 0.950 1_655 S
C368 C367 1.349 . S
C368 C380 1.349 . S
C369 C367 1.327 . S
C369 C385 1.429 . S
C369 H391 0.950 1_655 S
C370 H366 0.949 . S
C370 C378 1.574 . S
C370 C386 1.368 . S
H371 C379 0.950 . S
H372 C377 0.950 . S
H373 C378 0.949 . S
H374 C380 0.950 . S
H375 C381 0.950 . S
H376 C382 0.949 . S
C377 H372 0.950 . S
C377 C379 1.327 . S
C377 C383 1.429 1_455 S
C378 C370 1.574 . S
C378 H373 0.949 . S
C378 C384 1.368 . S
C379 C363 1.349 1_455 S
C379 H371 0.950 . S
C379 C377 1.327 . S
C380 C368 1.349 . S
C380 H374 0.950 . S
C380 C381 1.327 . S
C381 H375 0.950 . S
C381 C380 1.327 . S
C381 C385 1.429 . S
C382 C365 1.574 . S
C382 H376 0.949 . S
C382 C386 1.368 1_455 S
C383 C364 1.429 . S
C383 C377 1.429 1_655 S
C383 C384 1.523 . S
C384 C365 1.368 1_655 S
C384 C378 1.368 . S
C384 C383 1.523 . S
C385 C369 1.429 . S
C385 C381 1.429 . S
C385 C386 1.523 . S
C386 C370 1.368 . S
C386 C382 1.368 1_655 S
C386 C385 1.523 . S
H387 C362 0.950 . S
H388 C364 0.950 . S
H389 C365 0.949 . S
H390 C367 0.950 1_455 S
H391 C369 0.950 1_455 S
C158 C133 1.861 . S
C153 C47 1.762 . S
C188 C144 1.795 . S
C183 C109 1.751 . S
C218 C132 1.861 . S
C213 C29 1.775 1_565 S
C248 C145 1.794 . S
C243 C91 1.762 1_455 S
C278 C147 1.565 . S
C273 C53 1.552 1_565 S
C308 C131 1.425 . S
C303 C115 1.466 1_455 S
C338 C146 1.565 . S
C333 C35 1.555 . S
C363 C97 1.461 . S
C368 C130 1.425 . S
