# Generated by pormake.
# Topology pyr, (3,6)-cn, num edge types: 1
# Building blocks:
#     Node 0, Type 0, BuildingBlock: INOVEN_clean_linker_0, # of connection points: 3
#     Node 1, Type 0, BuildingBlock: INOVEN_clean_linker_0, # of connection points: 3
#     Node 2, Type 0, BuildingBlock: INOVEN_clean_linker_0, # of connection points: 3
#     Node 3, Type 0, BuildingBlock: INOVEN_clean_linker_0, # of connection points: 3
#     Node 4, Type 0, BuildingBlock: INOVEN_clean_linker_0, # of connection points: 3
#     Node 5, Type 0, BuildingBlock: INOVEN_clean_linker_0, # of connection points: 3
#     Node 6, Type 0, BuildingBlock: INOVEN_clean_linker_0, # of connection points: 3
#     Node 7, Type 0, BuildingBlock: INOVEN_clean_linker_0, # of connection points: 3
#     Node 8, Type 1, BuildingBlock: JUFBIX_clean_sbu_0, # of connection points: 6
#     Node 9, Type 1, BuildingBlock: JUFBIX_clean_sbu_0, # of connection points: 6
#     Node 10, Type 1, BuildingBlock: JUFBIX_clean_sbu_0, # of connection points: 6
#     Node 11, Type 1, BuildingBlock: JUFBIX_clean_sbu_0, # of connection points: 6
#     Edge 12, Type (0, 1), BuildingBlock: KIFKEQ_clean_linker_1, # of connection points: 2
#     Edge 13, Type (0, 1), BuildingBlock: KIFKEQ_clean_linker_1, # of connection points: 2
#     Edge 14, Type (0, 1), BuildingBlock: KIFKEQ_clean_linker_1, # of connection points: 2
#     Edge 15, Type (0, 1), BuildingBlock: KIFKEQ_clean_linker_1, # of connection points: 2
#     Edge 16, Type (0, 1), BuildingBlock: KIFKEQ_clean_linker_1, # of connection points: 2
#     Edge 17, Type (0, 1), BuildingBlock: KIFKEQ_clean_linker_1, # of connection points: 2
#     Edge 18, Type (0, 1), BuildingBlock: KIFKEQ_clean_linker_1, # of connection points: 2
#     Edge 19, Type (0, 1), BuildingBlock: KIFKEQ_clean_linker_1, # of connection points: 2
#     Edge 20, Type (0, 1), BuildingBlock: KIFKEQ_clean_linker_1, # of connection points: 2
#     Edge 21, Type (0, 1), BuildingBlock: KIFKEQ_clean_linker_1, # of connection points: 2
#     Edge 22, Type (0, 1), BuildingBlock: KIFKEQ_clean_linker_1, # of connection points: 2
#     Edge 23, Type (0, 1), BuildingBlock: KIFKEQ_clean_linker_1, # of connection points: 2
#     Edge 24, Type (0, 1), BuildingBlock: KIFKEQ_clean_linker_1, # of connection points: 2
#     Edge 25, Type (0, 1), BuildingBlock: KIFKEQ_clean_linker_1, # of connection points: 2
#     Edge 26, Type (0, 1), BuildingBlock: KIFKEQ_clean_linker_1, # of connection points: 2
#     Edge 27, Type (0, 1), BuildingBlock: KIFKEQ_clean_linker_1, # of connection points: 2
#     Edge 28, Type (0, 1), BuildingBlock: KIFKEQ_clean_linker_1, # of connection points: 2
#     Edge 29, Type (0, 1), BuildingBlock: KIFKEQ_clean_linker_1, # of connection points: 2
#     Edge 30, Type (0, 1), BuildingBlock: KIFKEQ_clean_linker_1, # of connection points: 2
#     Edge 31, Type (0, 1), BuildingBlock: KIFKEQ_clean_linker_1, # of connection points: 2
#     Edge 32, Type (0, 1), BuildingBlock: KIFKEQ_clean_linker_1, # of connection points: 2
#     Edge 33, Type (0, 1), BuildingBlock: KIFKEQ_clean_linker_1, # of connection points: 2
#     Edge 34, Type (0, 1), BuildingBlock: KIFKEQ_clean_linker_1, # of connection points: 2
#     Edge 35, Type (0, 1), BuildingBlock: KIFKEQ_clean_linker_1, # of connection points: 2
# Relax obj value: 0.121
# Max RMSD: 0.199
# Mean RMSD: 0.124
data_MOF--net-pyr--node1-JUFBIX_clean_sbu_0--node2-INOVEN_clean_linker_0--edge1-KIFKEQ_clean_linker_1
_symmetry_space_group_name_H-M    P1
_symmetry_Int_Tables_number       1
_symmetry_cell_setting            triclinic
loop_
_symmetry_equiv_pos_as_xyz
'x, y, z'
_cell_length_a     36.852371
_cell_length_b     35.307982
_cell_length_c     38.746313
_cell_angle_alpha  84.427629
_cell_angle_beta   88.997785
_cell_angle_gamma 96.317466
loop_
_atom_site_label
_atom_site_type_symbol
_atom_site_fract_x
_atom_site_fract_y
_atom_site_fract_z
_atom_type_partial_charge
H0 H 0.15767 0.22748 0.25046 0.0
H1 H 0.23762 0.14719 0.2501 0.0
H2 H 0.23737 0.23913 0.16743 0.0
N3 N 0.1768 0.2678 0.19241 0.0
N4 N 0.18752 0.28923 0.16565 0.0
C5 C 0.18069 0.21672 0.23844 0.0
C6 C 0.1955 0.18457 0.25473 0.0
C7 C 0.19502 0.23619 0.20702 0.0
C8 C 0.22596 0.2236 0.1913 0.0
C9 C 0.24233 0.19145 0.20659 0.0
C10 C 0.22651 0.17236 0.23844 0.0
H11 H 0.41806 0.82504 0.68451 0.0
H12 H 0.50556 0.83751 0.75674 0.0
H13 H 0.42953 0.92157 0.74363 0.0
N14 N 0.38801 0.88599 0.69782 0.0
N15 N 0.36958 0.9077 0.71238 0.0
C16 C 0.4327 0.8407 0.70366 0.0
C17 C 0.46323 0.82686 0.71965 0.0
C18 C 0.42022 0.87427 0.71265 0.0
C19 C 0.43933 0.89545 0.73653 0.0
C20 C 0.47043 0.88272 0.75207 0.0
C21 C 0.48221 0.84807 0.74395 0.0
H22 H 0.66177 0.36522 0.87332 0.0
H23 H 0.74157 0.37307 0.9529 0.0
H24 H 0.75363 0.45179 0.86027 0.0
N25 N 0.69167 0.42158 0.83074 0.0
N26 N 0.70407 0.45125 0.81231 0.0
C27 C 0.68662 0.37892 0.88336 0.0
C28 C 0.69886 0.36558 0.91591 0.0
C29 C 0.70595 0.40983 0.86328 0.0
C30 C 0.73842 0.4278 0.87568 0.0
C31 C 0.7517 0.41404 0.90779 0.0
C32 C 0.73185 0.38292 0.92772 0.0
H33 H 0.92298 0.61995 0.46734 0.0
H34 H 0.94624 0.71613 0.52636 0.0
H35 H 0.02488 0.69152 0.45058 0.0
N36 N 0.98117 0.63253 0.42754 0.0
N37 N 1.005 0.64462 0.4047 0.0
C38 C 0.942 0.64303 0.47514 0.0
C39 C 0.931 0.66635 0.49973 0.0
C40 C 0.97541 0.65215 0.45703 0.0
C41 C 0.99931 0.68378 0.46509 0.0
C42 C 0.98938 0.70649 0.49085 0.0
C43 C 0.95518 0.69743 0.5081 0.0
H44 H 0.85006 0.95713 0.8489 0.0
H45 H 0.92161 0.86818 0.8556 0.0
H46 H 0.83963 0.87065 0.93585 0.0
N47 N 0.81134 0.93455 0.90681 0.0
N48 N 0.78637 0.91766 0.92699 0.0
C49 C 0.85893 0.93142 0.86205 0.0
C50 C 0.8881 0.91453 0.8475 0.0
C51 C 0.84081 0.91573 0.8936 0.0
C52 C 0.85303 0.88268 0.91153 0.0
C53 C 0.88264 0.86533 0.89821 0.0
C54 C 0.89937 0.88151 0.86612 0.0
H55 H 0.60969 0.2114 0.3906 0.0
H56 H 0.69005 0.13192 0.40214 0.0
H57 H 0.70751 0.23913 0.44621 0.0
N58 N 0.64567 0.26422 0.42719 0.0
N59 N 0.61334 0.27117 0.42501 0.0
C60 C 0.63488 0.20309 0.40141 0.0
C61 C 0.64743 0.16869 0.39365 0.0
C62 C 0.65638 0.22822 0.42093 0.0
C63 C 0.69039 0.21898 0.43244 0.0
C64 C 0.70276 0.18447 0.42524 0.0
C65 C 0.68058 0.15896 0.4071 0.0
H66 H 0.3959 0.7521 0.2306 0.0
H67 H 0.32024 0.74032 0.14808 0.0
H68 H 0.30621 0.66271 0.24145 0.0
N69 N 0.36747 0.69465 0.27203 0.0
N70 N 0.35672 0.66439 0.29037 0.0
C71 C 0.37215 0.7372 0.2197 0.0
C72 C 0.36065 0.74994 0.18677 0.0
C73 C 0.35322 0.70572 0.23932 0.0
C74 C 0.32148 0.6868 0.22623 0.0
C75 C 0.30963 0.69942 0.19313 0.0
C76 C 0.32947 0.73068 0.17353 0.0
H77 H 0.05531 0.38632 0.6515 0.0
H78 H 0.13058 0.39299 0.56421 0.0
H79 H 0.14647 0.47384 0.63957 0.0
N80 N 0.09001 0.44367 0.68135 0.0
N81 N 0.11515 0.45789 0.69886 0.0
C82 C 0.07796 0.40138 0.63571 0.0
C83 C 0.09003 0.38608 0.60589 0.0
C84 C 0.09812 0.43322 0.64783 0.0
C85 C 0.12965 0.4507 0.62918 0.0
C86 C 0.14179 0.43588 0.59939 0.0
C87 C 0.12079 0.40489 0.58694 0.0
Co88 Co 1.01643 0.04362 0.53861 0.0
C89 C 0.04936 0.97643 0.53469 0.0
Co90 Co 0.07011 0.0439 0.56191 0.0
C91 C 0.95328 0.06908 0.50585 0.0
C92 C 0.94614 0.00877 0.52126 0.0
N93 N 0.97063 0.04022 0.52048 0.0
N94 N 0.91887 0.05696 0.49772 0.0
C95 C 0.91426 0.01898 0.5071 0.0
H96 H 0.96541 0.09855 0.50173 0.0
H97 H 0.95074 0.98048 0.53244 0.0
C98 C 0.03725 0.11089 0.5662 0.0
N99 N 0.116 0.04816 0.57965 0.0
C100 C 0.13308 0.02173 0.59846 0.0
C101 C 0.14113 0.07903 0.57358 0.0
N102 N 0.16804 0.03482 0.6039 0.0
C103 C 0.17324 0.07085 0.58838 0.0
C104 C 0.07254 0.07123 0.48984 0.0
O105 O 1.01145 0.09417 0.55019 0.0
O106 O 0.06508 0.09381 0.57325 0.0
O107 O 0.09154 0.06446 0.51645 0.0
O108 O 0.0379 0.06435 0.49341 0.0
O109 O 0.07507 0.99323 0.55087 0.0
H110 H 0.13668 0.10542 0.55844 0.0
H111 H 0.12069 0.99293 0.6066 0.0
O112 O 0.02168 0.99364 0.52702 0.0
O113 O 0.99493 0.02269 0.5839 0.0
O114 O 0.04863 0.02357 0.60715 0.0
C115 C 1.01397 0.01638 0.61062 0.0
H116 H 0.88917 1.00031 0.50527 0.0
H117 H 0.19862 0.0896 0.5873 0.0
Co118 Co 0.50478 0.06519 0.03587 0.0
C119 C 0.49079 1.00083 0.08242 0.0
Co120 Co 0.53544 0.0688 0.0837 0.0
C121 C 0.49235 0.05427 0.9645 0.0
C122 C 0.44233 0.05577 0.99289 0.0
N123 N 0.47895 0.0613 0.99557 0.0
N124 N 0.46577 0.04297 0.94312 0.0
C125 C 0.43416 0.04439 0.9607 0.0
H126 H 0.52106 0.05349 0.95876 0.0
H127 H 0.42283 0.0564 1.01394 0.0
C128 C 0.54996 0.13293 0.03665 0.0
N129 N 0.56107 0.07144 0.12382 0.0
C130 C 0.54773 0.06782 0.15675 0.0
C131 C 0.59773 0.07549 0.12651 0.0
N132 N 0.57465 0.06883 0.17973 0.0
C133 C 0.60615 0.07369 0.16094 0.0
C134 C 0.57416 0.03677 0.03192 0.0
O135 O 0.52717 0.11438 0.01851 0.0
O136 O 0.55711 0.11839 0.06673 0.0
O137 O 0.57586 0.04676 0.06256 0.0
O138 O 0.5451 0.04162 1.01555 0.0
O139 O 0.51389 0.019 0.10047 0.0
H140 H 0.61716 0.07968 0.10487 0.0
H141 H 0.51892 0.06421 0.16385 0.0
O142 O 0.48265 0.01621 0.05306 0.0
O143 O 0.46482 0.08823 0.0569 0.0
O144 O 0.49479 0.09095 0.10484 0.0
C145 C 0.46599 0.09665 0.08818 0.0
H146 H 0.40721 0.03487 0.95205 0.0
H147 H 0.63324 0.07691 0.17141 0.0
Co148 Co 0.55975 0.58068 0.53864 0.0
C149 C 0.49816 0.58894 0.50003 0.0
Co150 Co 0.51117 0.54341 0.56019 0.0
C151 C 0.63547 0.60633 0.52388 0.0
C152 C 0.60164 0.65127 0.5125 0.0
N153 N 0.6003 0.61352 0.52279 0.0
N154 N 0.65873 0.63821 0.51537 0.0
C155 C 0.6376 0.66659 0.50808 0.0
H156 H 0.64391 0.5787 0.53277 0.0
H157 H 0.57805 0.66695 0.51 0.0
C158 C 0.57237 0.53487 0.59891 0.0
N159 N 0.47064 0.51063 0.57601 0.0
C160 C 0.43546 0.51784 0.57545 0.0
C161 C 0.46937 0.47258 0.58485 0.0
N162 N 0.41234 0.48567 0.58275 0.0
C163 C 0.43346 0.45709 0.58876 0.0
C164 C 0.55273 0.51185 0.51194 0.0
O165 O 0.58689 0.56079 0.57628 0.0
O166 O 0.53901 0.52218 0.59638 0.0
O167 O 0.524 0.50681 0.5311 0.0
O168 O 0.57388 0.5428 0.51152 0.0
O169 O 0.48358 0.56475 0.52401 0.0
H170 H 0.49296 0.45682 0.58629 0.0
H171 H 0.42688 0.54563 0.56737 0.0
O172 O 0.53207 0.60029 0.50102 0.0
O173 O 0.54565 0.61822 0.56611 0.0
O174 O 0.49862 0.58016 0.58921 0.0
C175 C 0.51857 0.61203 0.58737 0.0
H176 H 0.64747 0.69639 0.50094 0.0
H177 H 0.42356 0.42704 0.59421 0.0
Co178 Co 0.0444 0.57673 0.01862 0.0
C179 C 0.97477 0.53731 1.0167 0.0
Co180 Co 1.01157 0.57513 0.06674 0.0
C181 C 0.07044 0.55302 0.95435 0.0
C182 C 0.09178 0.61031 0.96222 0.0
N183 N 0.0707 0.57935 0.97737 0.0
N184 N 0.09028 0.56644 0.92519 0.0
C185 C 0.10385 0.60249 0.93023 0.0
H186 H 0.05533 0.52485 0.95873 0.0
H187 H 0.09688 0.63736 0.97319 0.0
C188 C 0.08126 0.61371 0.0695 0.0
N189 N 0.98565 0.57348 0.10813 0.0
C190 C 0.99975 0.56973 0.13999 0.0
C191 C 0.95073 0.57984 0.11353 0.0
N192 N 0.97539 0.57435 0.16521 0.0
C193 C 0.94433 0.58041 0.14862 0.0
C194 C 0.05559 0.5138 0.0656 0.0
O195 O 0.08436 0.60551 0.03847 0.0
O196 O 0.05106 0.60424 0.08587 0.0
O197 O 0.03234 0.52835 0.08363 0.0
O198 O 0.06446 0.53008 0.03533 0.0
O199 O 0.97213 0.54594 0.04764 0.0
H200 H 0.93172 0.58544 0.0932 0.0
H201 H 0.02784 0.56486 0.14435 0.0
O202 O 1.00439 0.5476 0.99932 0.0
O203 O 0.02417 0.62338 1.00187 0.0
O204 O 0.99106 0.62195 0.0494 0.0
C205 C 1.00054 0.63807 0.01919 0.0
H206 H 0.12002 0.62252 0.91158 0.0
H207 H 0.91934 0.58692 0.16065 0.0
H208 H 0.22767 0.14817 0.31173 0.0
H209 H 0.12242 0.17445 0.27538 0.0
H210 H 0.19894 0.11926 0.36671 0.0
H211 H 0.09438 0.14865 0.33067 0.0
H212 H 0.04262 0.07548 0.42492 0.0
H213 H 0.07215 0.09875 0.36902 0.0
H214 H 0.17358 0.12671 0.42003 0.0
H215 H 0.14418 0.10146 0.47566 0.0
C216 C 0.19844 0.1479 0.31522 0.0
C217 C 0.17787 0.16444 0.28852 0.0
C218 C 0.1818 0.13169 0.34732 0.0
C219 C 0.14387 0.13145 0.35417 0.0
C220 C 0.12339 0.1474 0.32712 0.0
C221 C 0.13987 0.16313 0.29509 0.0
C222 C 0.07125 0.08656 0.42427 0.0
C223 C 0.09074 0.08649 0.45521 0.0
C224 C 0.0884 0.10035 0.39191 0.0
C225 C 0.12573 0.11527 0.38909 0.0
C226 C 0.14514 0.11512 0.42026 0.0
C227 C 0.12807 0.10082 0.45257 0.0
H228 H 0.47838 0.85692 0.81939 0.0
H229 H 0.49763 0.95772 0.74627 0.0
H230 H 0.48456 0.89714 0.86738 0.0
H231 H 0.50347 0.99802 0.79408 0.0
H232 H 0.52059 0.05734 0.89479 0.0
H233 H 0.53391 0.01671 0.84931 0.0
H234 H 0.43682 0.94028 0.88077 0.0
H235 H 0.42391 0.98026 0.92611 0.0
C236 C 0.48558 0.88751 0.81368 0.0
C237 C 0.48721 0.90443 0.77937 0.0
C238 C 0.48865 0.91053 0.84103 0.0
C239 C 0.49358 0.95065 0.83428 0.0
C240 C 0.49958 0.96719 0.79997 0.0
C241 C 0.49631 0.94419 0.77266 0.0
C242 C 0.50209 0.03194 0.89171 0.0
C243 C 0.47108 0.02211 0.91374 0.0
C244 C 0.50979 0.0087 0.8659 0.0
C245 C 0.48681 0.97501 0.86209 0.0
C246 C 0.45548 0.96563 0.8837 0.0
C247 C 0.44764 0.98897 0.90918 0.0
H248 H 0.65571 0.4066 0.77733 0.0
H249 H 0.7166 0.51851 0.77419 0.0
H250 H 0.62632 0.42594 0.72385 0.0
H251 H 0.68613 0.53871 0.72079 0.0
H252 H 0.64531 0.55196 0.60981 0.0
H253 H 0.67954 0.53047 0.66001 0.0
H254 H 0.58102 0.46614 0.70598 0.0
H255 H 0.54723 0.48658 0.65553 0.0
C256 C 0.66274 0.43548 0.76518 0.0
C257 C 0.68819 0.46139 0.78002 0.0
C258 C 0.64572 0.44665 0.73458 0.0
C259 C 0.65343 0.48405 0.71821 0.0
C260 C 0.67972 0.50959 0.73256 0.0
C261 C 0.69704 0.49823 0.76313 0.0
C262 C 0.63106 0.53301 0.63057 0.0
C263 C 0.59356 0.52087 0.62865 0.0
C264 C 0.65063 0.52091 0.65944 0.0
C265 C 0.6331 0.49653 0.68705 0.0
C266 C 0.59561 0.48434 0.68495 0.0
C267 C 0.57613 0.49623 0.65606 0.0
H268 H 0.96748 0.57776 0.38932 0.0
H269 H 0.04643 0.67179 0.34941 0.0
H270 H 0.96399 0.55468 0.33208 0.0
H271 H 0.04235 0.64949 0.29165 0.0
H272 H 0.04133 0.59152 0.194 0.0
H273 H 0.05283 0.60137 0.2541 0.0
H274 H 0.93733 0.57676 0.27879 0.0
H275 H 0.92597 0.56493 0.21894 0.0
C276 C 0.98451 0.59319 0.36834 0.0
C277 C 1.00714 0.62684 0.37352 0.0
C278 C 0.98229 0.58014 0.33548 0.0
C279 C 1.00242 0.60054 0.30712 0.0
C280 C 0.02665 0.63287 0.31291 0.0
C281 C 0.02903 0.64574 0.34588 0.0
C282 C 0.01839 0.58729 0.21226 0.0
C283 C 0.98258 0.57753 0.20139 0.0
C284 C 0.02502 0.59342 0.24676 0.0
C285 C 0.99604 0.59011 0.27128 0.0
C286 C 0.9604 0.57917 0.26071 0.0
C287 C 0.95378 0.57287 0.22622 0.0
H288 H 0.2614 0.19501 0.13625 0.0
H289 H 0.29984 0.15606 0.23669 0.0
H290 H 0.31457 0.1746 0.10866 0.0
H291 H 0.35185 0.13329 0.20892 0.0
H292 H 0.4606 0.12246 0.15319 0.0
H293 H 0.40843 0.14555 0.18097 0.0
H294 H 0.34474 0.12609 0.09056 0.0
H295 H 0.39738 0.1045 0.06252 0.0
C296 C 0.28105 0.18217 0.15274 0.0
C297 C 0.27549 0.17769 0.18919 0.0
C298 C 0.31172 0.16969 0.13662 0.0
C299 C 0.33838 0.1518 0.15606 0.0
C300 C 0.33278 0.14722 0.19252 0.0
C301 C 0.30218 0.15991 0.20866 0.0
C302 C 0.43554 0.12329 0.13909 0.0
C303 C 0.43376 0.1116 0.10529 0.0
C304 C 0.40515 0.13634 0.15527 0.0
C305 C 0.37145 0.13803 0.1385 0.0
C306 C 0.36985 0.12623 0.10461 0.0
C307 C 0.4003 0.11345 0.08837 0.0
H308 H 0.34716 0.90183 0.64652 0.0
H309 H 0.32157 0.94369 0.74406 0.0
H310 H 0.29504 0.92977 0.62049 0.0
H311 H 0.26886 0.97137 0.71808 0.0
H312 H 0.1592 0.98371 0.66065 0.0
H313 H 0.20657 0.94819 0.68812 0.0
H314 H 0.28516 1.00251 0.60965 0.0
H315 H 0.23813 0.03796 0.58256 0.0
C316 C 0.33002 0.91655 0.66248 0.0
C317 C 0.33808 0.92087 0.6973 0.0
C318 C 0.30036 0.93253 0.64761 0.0
C319 C 0.27818 0.95258 0.66741 0.0
C320 C 0.28549 0.95569 0.70249 0.0
C321 C 0.31551 0.94016 0.71723 0.0
C322 C 0.18661 0.98775 0.64936 0.0
C323 C 0.1953 0.01358 0.61976 0.0
C324 C 0.21356 0.96768 0.66503 0.0
C325 C 0.24923 0.97268 0.65077 0.0
C326 C 0.2577 0.99804 0.62086 0.0
C327 C 0.231 0.01852 0.60563 0.0
H328 H 0.81165 0.38001 0.92811 0.0
H329 H 0.76838 0.48913 0.91787 0.0
H330 H 0.86709 0.40968 0.95333 0.0
H331 H 0.82344 0.51861 0.94385 0.0
H332 H 0.90319 0.53399 0.03652 0.0
H333 H 0.85009 0.5047 1.00797 0.0
H334 H 0.92112 0.46674 0.93187 0.0
H335 H 0.9745 0.49691 0.95988 0.0
C336 C 0.81417 0.41036 0.93116 0.0
C337 C 0.78594 0.4324 0.9211 0.0
C338 C 0.84581 0.42728 0.94542 0.0
C339 C 0.84931 0.46631 0.95056 0.0
C340 C 0.8212 0.48841 0.94024 0.0
C341 C 0.78992 0.47167 0.92527 0.0
C342 C 0.90753 0.51925 1.0138 0.0
C343 C 0.94298 0.51766 1.00045 0.0
C344 C 0.87715 0.50277 0.99737 0.0
C345 C 0.88166 0.48369 0.96773 0.0
C346 C 0.91706 0.4813 0.95475 0.0
C347 C 0.94749 0.49855 0.97074 0.0
H348 H 0.88794 0.60149 0.52622 0.0
H349 H 0.88611 0.72236 0.49708 0.0
H350 H 0.82163 0.59401 0.53543 0.0
H351 H 0.8202 0.71496 0.50478 0.0
H352 H 0.70214 0.69705 0.53755 0.0
H353 H 0.76843 0.70301 0.54137 0.0
H354 H 0.76985 0.5933 0.50068 0.0
H355 H 0.7034 0.58695 0.49847 0.0
C356 C 0.87334 0.62649 0.52228 0.0
C357 C 0.89211 0.6625 0.51114 0.0
C358 C 0.83536 0.62222 0.52718 0.0
C359 C 0.81536 0.65379 0.52048 0.0
C360 C 0.83453 0.69006 0.51077 0.0
C361 C 0.87244 0.69438 0.50634 0.0
C362 C 0.71677 0.67433 0.5294 0.0
C363 C 0.69782 0.64172 0.51739 0.0
C364 C 0.75475 0.67767 0.53157 0.0
C365 C 0.7747 0.64873 0.5212 0.0
C366 C 0.7555 0.61587 0.50954 0.0
C367 C 0.71746 0.61229 0.50794 0.0
H368 H 0.12071 0.30726 0.18733 0.0
H369 H 0.20923 0.34197 0.11305 0.0
H370 H 0.08819 0.35981 0.16288 0.0
H371 H 0.17765 0.39562 0.08917 0.0
H372 H 0.10065 0.47088 0.03203 0.0
H373 H 0.13092 0.41653 0.05579 0.0
H374 H 0.08292 0.4251 0.15686 0.0
H375 H 0.05159 0.47856 0.13259 0.0
C376 C 0.13344 0.32632 0.16588 0.0
C377 C 0.16782 0.32027 0.15215 0.0
C378 C 0.1148 0.35688 0.15185 0.0
C379 C 0.12987 0.38269 0.12372 0.0
C380 C 0.16438 0.37644 0.11025 0.0
C381 C 0.18284 0.34572 0.12413 0.0
C382 C 0.09633 0.46108 0.05931 0.0
C383 C 0.07338 0.4794 0.08019 0.0
C384 C 0.1141 0.42985 0.07318 0.0
C385 C 0.10995 0.41582 0.10862 0.0
C386 C 0.08673 0.43414 0.12942 0.0
C387 C 0.06873 0.4652 0.11546 0.0
H388 H 0.62483 0.35538 0.92626 0.0
H389 H 0.72281 0.30414 0.95415 0.0
H390 H 0.58783 0.30119 0.9579 0.0
H391 H 0.68565 0.25001 0.9862 0.0
H392 H 0.60751 0.17439 0.06417 0.0
H393 H 0.64315 0.2327 0.0377 0.0
H394 H 0.57338 0.23259 0.94928 0.0
H395 H 0.5376 0.17456 0.97572 0.0
C396 C 0.63848 0.3325 0.9391 0.0
C397 C 0.67676 0.33382 0.93734 0.0
C398 C 0.61727 0.30153 0.95728 0.0
C399 C 0.63383 0.27127 0.9743 0.0
C400 C 0.67215 0.27312 0.97357 0.0
C401 C 0.69342 0.30409 0.95523 0.0
C402 C 0.59954 0.18704 0.03925 0.0
C403 C 0.56974 0.16985 0.02201 0.0
C404 C 0.62011 0.22026 0.02402 0.0
C405 C 0.6111 0.23712 0.99141 0.0
C406 C 0.58075 0.22046 0.97461 0.0
C407 C 0.56035 0.18713 0.98969 0.0
H408 H 0.01993 0.76162 0.44147 0.0
H409 H 1.00761 0.73431 0.55242 0.0
H410 H 0.04455 0.82697 0.45004 0.0
H411 H 0.03179 0.79993 0.56097 0.0
H412 H 0.08908 0.92103 0.56425 0.0
H413 H 0.08495 0.8537 0.55211 0.0
H414 H 1.008 0.87638 0.47196 0.0
H415 H 1.01181 0.9429 0.48416 0.0
C416 C 0.02357 0.76922 0.46771 0.0
C417 C 1.01157 0.74298 0.49629 0.0
C418 C 0.03738 0.80671 0.47259 0.0
C419 C 0.03968 0.8186 0.50614 0.0
C420 C 0.0305 0.79152 0.53482 0.0
C421 C 1.01642 0.75408 0.52994 0.0
C422 C 0.07178 0.91162 0.5437 0.0
C423 C 0.05055 0.93705 0.52532 0.0
C424 C 0.06936 0.87318 0.53684 0.0
C425 C 0.04627 0.85989 0.51101 0.0
C426 C 0.02641 0.88587 0.49168 0.0
C427 C 0.02835 0.92391 0.49888 0.0
H428 H 0.41995 0.76047 0.71412 0.0
H429 H 0.53217 0.8112 0.7036 0.0
H430 H 0.43574 0.70562 0.6863 0.0
H431 H 0.54864 0.75505 0.67728 0.0
H432 H 0.54756 0.6866 0.58199 0.0
H433 H 0.53759 0.7345 0.62102 0.0
H434 H 0.4665 0.65014 0.68622 0.0
H435 H 0.47542 0.60248 0.64625 0.0
C436 C 0.44822 0.75938 0.70651 0.0
C437 C 0.47471 0.79039 0.71019 0.0
C438 C 0.45738 0.72773 0.69091 0.0
C439 C 0.49335 0.72624 0.67902 0.0
C440 C 0.52049 0.75582 0.68545 0.0
C441 C 0.51122 0.78772 0.70088 0.0
C442 C 0.52977 0.67829 0.60466 0.0
C443 C 0.51192 0.64096 0.6109 0.0
C444 C 0.52445 0.70561 0.62731 0.0
C445 C 0.50146 0.69609 0.65691 0.0
C446 C 0.48408 0.65849 0.66345 0.0
C447 C 0.4891 0.63123 0.64054 0.0
H448 H 0.85883 0.95166 0.78947 0.0
H449 H 0.96068 0.91532 0.82603 0.0
H450 H 0.88872 0.97696 0.73424 0.0
H451 H 0.98979 0.93796 0.77015 0.0
H452 H 0.04464 0.00977 0.67523 0.0
H453 H 1.01497 0.98753 0.7314 0.0
H454 H 0.9121 0.96539 0.68119 0.0
H455 H 0.94169 0.98927 0.62537 0.0
C456 C 0.8876 0.94894 0.78599 0.0
C457 C 0.90684 0.93095 0.81298 0.0
C458 C 0.90484 0.96306 0.7537 0.0
C459 C 0.94209 0.95966 0.74677 0.0
C460 C 0.96134 0.9419 0.77388 0.0
C461 C 0.94421 0.92811 0.80621 0.0
C462 C 1.01567 1.00017 0.67612 0.0
C463 C 0.9958 1.00151 0.64535 0.0
C464 C 0.99845 0.98702 0.70861 0.0
C465 C 0.96065 0.97425 0.71171 0.0
C466 C 0.94093 0.97544 0.68071 0.0
C467 C 0.9581 0.98895 0.64829 0.0
H468 H 0.68045 0.13689 0.34248 0.0
H469 H 0.57359 0.14932 0.38498 0.0
H470 H 0.65287 0.10142 0.29799 0.0
H471 H 0.54544 0.11385 0.33884 0.0
H472 H 0.53435 0.11317 0.21368 0.0
H473 H 0.54361 0.12851 0.27341 0.0
H474 H 0.61673 0.04097 0.28799 0.0
H475 H 0.60855 0.02718 0.22787 0.0
C476 C 0.65095 0.1311 0.34296 0.0
C477 C 0.62924 0.14537 0.36776 0.0
C478 C 0.63508 0.11062 0.31734 0.0
C479 C 0.59697 0.10409 0.31538 0.0
C480 C 0.57493 0.11822 0.34005 0.0
C481 C 0.59099 0.13863 0.36622 0.0
C482 C 0.55128 0.0964 0.23024 0.0
C483 C 0.57145 0.06968 0.21643 0.0
C484 C 0.55645 0.10498 0.26439 0.0
C485 C 0.58156 0.08651 0.28498 0.0
C486 C 0.59783 0.05619 0.27237 0.0
C487 C 0.59322 0.04825 0.23814 0.0
H488 H 0.34743 0.5974 0.32949 0.0
H489 H 0.40477 0.71128 0.32365 0.0
H490 H 0.38072 0.57925 0.3818 0.0
H491 H 0.43715 0.69377 0.37579 0.0
H492 H 0.52099 0.63623 0.44172 0.0
H493 H 0.48484 0.65472 0.39207 0.0
H494 H 0.38875 0.59003 0.44241 0.0
H495 H 0.42505 0.57083 0.49171 0.0
C496 C 0.36677 0.61856 0.33971 0.0
C497 C 0.37372 0.6554 0.32237 0.0
C498 C 0.38575 0.60833 0.36961 0.0
C499 C 0.41195 0.63498 0.38275 0.0
C500 C 0.41784 0.6723 0.36597 0.0
C501 C 0.39905 0.6824 0.33615 0.0
C502 C 0.49213 0.62612 0.44228 0.0
C503 C 0.47595 0.60208 0.47067 0.0
C504 C 0.47133 0.63683 0.41387 0.0
C505 C 0.43384 0.62386 0.41325 0.0
C506 C 0.41761 0.60012 0.44183 0.0
C507 C 0.43842 0.58936 0.47021 0.0
H508 H 0.05065 0.46605 0.73172 0.0
H509 H 0.16755 0.47589 0.74118 0.0
H510 H 0.04445 0.49045 0.78837 0.0
H511 H 0.16173 0.49858 0.79828 0.0
H512 H 0.14365 0.58299 0.87536 0.0
H513 H 0.14785 0.55493 0.82107 0.0
H514 H 0.05055 0.47762 0.85009 0.0
H515 H 0.04504 0.50745 0.90374 0.0
C516 C 0.07492 0.47295 0.74624 0.0
C517 C 0.10973 0.46943 0.73237 0.0
C518 C 0.07144 0.4867 0.77872 0.0
C519 C 0.10264 0.49682 0.7978 0.0
C520 C 0.13719 0.49195 0.78405 0.0
C521 C 0.1406 0.47873 0.75157 0.0
C522 C 0.12292 0.56027 0.87017 0.0
C523 C 0.09392 0.54774 0.89401 0.0
C524 C 0.12561 0.54373 0.83913 0.0
C525 C 0.09961 0.51384 0.8312 0.0
C526 C 0.07083 0.50085 0.8552 0.0
C527 C 0.06798 0.51764 0.88625 0.0
H528 H 0.78442 0.99427 0.93435 0.0
H529 H 0.72127 0.88369 0.95076 0.0
H530 H 0.73364 0.02366 0.95946 0.0
H531 H 0.67007 0.91307 0.9745 0.0
H532 H 0.57342 0.99095 0.97789 0.0
H533 H 0.62458 0.96326 0.9521 0.0
H534 H 0.69835 0.01847 0.02164 0.0
H535 H 0.64702 0.04498 0.04836 0.0
C536 C 0.75961 0.97625 0.94293 0.0
C537 C 0.75692 0.93644 0.94029 0.0
C538 C 0.73046 0.99309 0.95752 0.0
C539 C 0.69739 0.9709 0.969 0.0
C540 C 0.69476 0.93126 0.9658 0.0
C541 C 0.72419 0.91434 0.95222 0.0
C542 C 0.60049 0.99718 0.98782 0.0
C543 C 0.60572 0.02021 1.0155 0.0
C544 C 0.62994 0.98119 0.973 0.0
C545 C 0.66592 0.98857 0.98458 0.0
C546 C 0.67125 0.01223 1.01178 0.0
C547 C 0.64165 0.02732 0.02728 0.0
H548 H 0.73499 0.18551 0.48825 0.0
H549 H 0.75348 0.16295 0.38217 0.0
H550 H 0.79217 0.15959 0.50431 0.0
H551 H 0.81022 0.13715 0.3981 0.0
H552 H 0.8651 0.03739 0.45467 0.0
H553 H 0.81637 0.07535 0.43557 0.0
H554 H 0.86209 0.16713 0.49319 0.0
H555 H 0.91081 0.12885 0.51255 0.0
C556 C 0.75173 0.17584 0.46834 0.0
C557 C 0.7397 0.17538 0.43422 0.0
C558 C 0.78432 0.1611 0.47744 0.0
C559 C 0.80507 0.14586 0.45246 0.0
C560 C 0.79427 0.14808 0.41789 0.0
C561 C 0.76191 0.16278 0.40884 0.0
C562 C 0.86475 0.0657 0.46309 0.0
C563 C 0.89158 0.08025 0.48497 0.0
C564 C 0.83715 0.08753 0.45198 0.0
C565 C 0.83573 0.12418 0.46285 0.0
C566 C 0.86269 0.13894 0.48453 0.0
C567 C 0.89061 0.11721 0.49532 0.0
H568 H 0.30356 0.66129 0.13571 0.0
H569 H 0.24001 0.69993 0.21707 0.0
H570 H 0.24771 0.64077 0.1065 0.0
H571 H 0.18393 0.68156 0.18718 0.0
H572 H 0.0879 0.61509 0.13926 0.0
H573 H 0.1426 0.63247 0.17068 0.0
H574 H 0.2022 0.66606 0.07337 0.0
H575 H 0.14765 0.64651 0.04195 0.0
C576 C 0.27742 0.66492 0.14744 0.0
C577 C 0.27582 0.68166 0.17872 0.0
C578 C 0.24542 0.65381 0.13049 0.0
C579 C 0.2111 0.65999 0.14407 0.0
C580 C 0.20967 0.67586 0.17603 0.0
C581 C 0.24173 0.68636 0.19327 0.0
C582 C 0.11259 0.62654 0.12452 0.0
C583 C 0.11344 0.62937 0.08805 0.0
C584 C 0.14407 0.63664 0.14262 0.0
C585 C 0.17715 0.65042 0.12473 0.0
C586 C 0.17756 0.65462 0.08815 0.0
C587 C 0.14616 0.64389 0.07004 0.0
H588 H 0.19162 0.38717 0.58889 0.0
H589 H 0.17894 0.50766 0.58401 0.0
H590 H 0.25673 0.40209 0.57982 0.0
H591 H 0.24485 0.52313 0.57335 0.0
H592 H 0.36519 0.52993 0.60787 0.0
H593 H 0.29859 0.52096 0.60503 0.0
H594 H 0.30631 0.42567 0.54391 0.0
H595 H 0.37244 0.43354 0.54898 0.0
C596 C 0.20268 0.41702 0.5845 0.0
C597 C 0.18014 0.44628 0.5869 0.0
C598 C 0.24023 0.42567 0.57927 0.0
C599 C 0.25633 0.46389 0.57587 0.0
C600 C 0.23351 0.49335 0.57647 0.0
C601 C 0.19577 0.48459 0.58222 0.0
C602 C 0.35232 0.5072 0.59388 0.0
C603 C 0.3735 0.48187 0.57931 0.0
C604 C 0.31428 0.50223 0.59185 0.0
C605 C 0.29684 0.47228 0.57452 0.0
C606 C 0.31855 0.44832 0.55835 0.0
C607 C 0.35641 0.45276 0.56114 0.0
H608 H 0.90614 0.80219 0.87149 0.0
H609 H 0.89189 0.84899 0.96895 0.0
H610 H 0.9335 0.74898 0.90116 0.0
H611 H 0.91957 0.79547 0.9989 0.0
H612 H 0.94546 0.67519 0.04618 0.0
H613 H 0.91568 0.72851 0.01844 0.0
H614 H 0.98692 0.73236 0.92823 0.0
H615 H 1.01592 0.67892 0.95558 0.0
C616 C 0.90901 0.80142 0.8993 0.0
C617 C 0.89692 0.83066 0.91748 0.0
C618 C 0.92495 0.77063 0.91649 0.0
C619 C 0.92958 0.7676 0.9527 0.0
C620 C 0.9165 0.79624 0.97112 0.0
C621 C 0.90046 0.82715 0.95384 0.0
C622 C 0.9549 0.68751 0.02048 0.0
C623 C 0.98327 0.67233 1.00331 0.0
C624 C 0.93781 0.71838 1.00448 0.0
C625 C 0.94836 0.73512 0.97066 0.0
C626 C 0.97715 0.72015 0.95386 0.0
C627 C 0.99418 0.68944 0.9698 0.0
H628 H 0.43449 0.76825 0.17866 0.0
H629 H 0.33167 0.80946 0.15096 0.0
H630 H 0.46712 0.82777 0.15129 0.0
H631 H 0.36435 0.86878 0.12333 0.0
H632 H 0.50415 0.95808 0.14251 0.0
H633 H 0.47341 0.89557 0.16481 0.0
H634 H 0.40699 0.8943 0.07407 0.0
H635 H 0.43739 0.95696 0.05185 0.0
C636 C 0.41889 0.78998 0.16663 0.0
C637 C 0.38052 0.78432 0.16715 0.0
C638 C 0.43756 0.824 0.151 0.0
C639 C 0.41825 0.85295 0.13543 0.0
C640 C 0.37995 0.84677 0.13485 0.0
C641 C 0.36125 0.81279 0.1506 0.0
C642 C 0.4831 0.94441 0.12726 0.0
C643 C 0.47311 0.96249 0.0955 0.0
C644 C 0.46567 0.90852 0.13992 0.0
C645 C 0.43784 0.89012 0.12113 0.0
C646 C 0.42812 0.90802 0.08922 0.0
C647 C 0.44564 0.94381 0.07647 0.0
H648 H 0.13124 0.33016 0.5925 0.0
H649 H 0.01879 0.35171 0.60531 0.0
H650 H 0.11167 0.26417 0.58455 0.0
H651 H 0.99899 0.28392 0.5981 0.0
H652 H 0.99618 0.16643 0.53865 0.0
H653 H 1.00311 0.2343 0.54964 0.0
H654 H 0.08216 0.21042 0.62744 0.0
H655 H 0.07593 0.14361 0.6162 0.0
C656 C 0.10218 0.32099 0.59302 0.0
C657 C 0.07651 0.34643 0.59902 0.0
C658 C 0.09102 0.28291 0.58897 0.0
C659 C 0.05388 0.26889 0.59115 0.0
C660 C 0.02782 0.29419 0.59635 0.0
C661 C 0.03911 0.33275 0.60058 0.0
C662 C 1.01449 0.17572 0.55851 0.0
C663 C 0.03616 0.15005 0.57603 0.0
C664 C 1.0183 0.21439 0.56487 0.0
C665 C 0.04364 0.22754 0.58892 0.0
C666 C 0.06296 0.20111 0.60828 0.0
C667 C 0.05943 0.16288 0.60178 0.0
H668 H 0.65508 0.33898 0.41135 0.0
H669 H 0.54985 0.28555 0.45074 0.0
H670 H 0.63917 0.40112 0.42494 0.0
H671 H 0.53444 0.34692 0.46707 0.0
H672 H 0.50547 0.46282 0.48061 0.0
H673 H 0.51932 0.40748 0.45204 0.0
H674 H 0.63399 0.43461 0.47235 0.0
H675 H 0.62002 0.49148 0.49835 0.0
C676 C 0.62855 0.34073 0.42317 0.0
C677 C 0.60367 0.30775 0.43062 0.0
C678 C 0.61946 0.37622 0.4312 0.0
C679 C 0.58569 0.37923 0.44765 0.0
C680 C 0.56046 0.34611 0.45395 0.0
C681 C 0.56924 0.31084 0.44496 0.0
C682 C 0.53367 0.45712 0.47828 0.0
C683 C 0.56173 0.48105 0.49168 0.0
C684 C 0.54164 0.42524 0.46224 0.0
C685 C 0.57774 0.41598 0.46028 0.0
C686 C 0.60592 0.44094 0.47277 0.0
C687 C 0.598 0.47346 0.48791 0.0
loop_
_geom_bond_atom_site_label_1
_geom_bond_atom_site_label_2
_geom_bond_distance
_geom_bond_site_symmetry_2
_ccdc_geom_bond_type
H0 C5 0.929 . S
H1 C10 0.931 . S
H2 C8 0.930 . S
N3 N4 1.234 . S
N3 C7 1.453 . S
N4 N3 1.234 . S
C5 H0 0.929 . S
C5 C6 1.373 . S
C5 C7 1.368 . S
C6 C5 1.373 . S
C6 C10 1.397 . S
C7 N3 1.453 . S
C7 C5 1.368 . S
C7 C8 1.373 . S
C8 H2 0.930 . S
C8 C7 1.373 . S
C8 C9 1.371 . S
C9 C8 1.371 . S
C9 C10 1.383 . S
C10 H1 0.931 . S
C10 C6 1.397 . S
C10 C9 1.383 . S
H11 C16 0.929 . S
H12 C21 0.931 . S
H13 C19 0.930 . S
N14 N15 1.234 . S
N14 C18 1.453 . S
N15 N14 1.234 . S
C16 H11 0.929 . S
C16 C17 1.373 . S
C16 C18 1.368 . S
C17 C16 1.373 . S
C17 C21 1.397 . S
C18 N14 1.453 . S
C18 C16 1.368 . S
C18 C19 1.373 . S
C19 H13 0.930 . S
C19 C18 1.373 . S
C19 C20 1.371 . S
C20 C19 1.371 . S
C20 C21 1.383 . S
C21 H12 0.931 . S
C21 C17 1.397 . S
C21 C20 1.383 . S
H22 C27 0.929 . S
H23 C32 0.931 . S
H24 C30 0.930 . S
N25 N26 1.234 . S
N25 C29 1.453 . S
N26 N25 1.234 . S
C27 H22 0.929 . S
C27 C28 1.373 . S
C27 C29 1.368 . S
C28 C27 1.373 . S
C28 C32 1.397 . S
C29 N25 1.453 . S
C29 C27 1.368 . S
C29 C30 1.373 . S
C30 H24 0.930 . S
C30 C29 1.373 . S
C30 C31 1.371 . S
C31 C30 1.371 . S
C31 C32 1.383 . S
C32 H23 0.931 . S
C32 C28 1.397 . S
C32 C31 1.383 . S
H33 C38 0.929 . S
H34 C43 0.931 . S
H35 C41 0.930 . S
N36 N37 1.234 . S
N36 C40 1.453 . S
N37 N36 1.234 . S
C38 H33 0.929 . S
C38 C39 1.373 . S
C38 C40 1.368 . S
C39 C38 1.373 . S
C39 C43 1.397 . S
C40 N36 1.453 . S
C40 C38 1.368 . S
C40 C41 1.373 . S
C41 H35 0.930 . S
C41 C40 1.373 . S
C41 C42 1.371 . S
C42 C41 1.371 . S
C42 C43 1.383 . S
C43 H34 0.931 . S
C43 C39 1.397 . S
C43 C42 1.383 . S
H44 C49 0.929 . S
H45 C54 0.931 . S
H46 C52 0.930 . S
N47 N48 1.234 . S
N47 C51 1.453 . S
N48 N47 1.234 . S
C49 H44 0.929 . S
C49 C50 1.373 . S
C49 C51 1.368 . S
C50 C49 1.373 . S
C50 C54 1.397 . S
C51 N47 1.453 . S
C51 C49 1.368 . S
C51 C52 1.373 . S
C52 H46 0.930 . S
C52 C51 1.373 . S
C52 C53 1.371 . S
C53 C52 1.371 . S
C53 C54 1.383 . S
C54 H45 0.931 . S
C54 C50 1.397 . S
C54 C53 1.383 . S
H55 C60 0.929 . S
H56 C65 0.931 . S
H57 C63 0.930 . S
N58 N59 1.234 . S
N58 C62 1.453 . S
N59 N58 1.234 . S
C60 H55 0.929 . S
C60 C61 1.373 . S
C60 C62 1.368 . S
C61 C60 1.373 . S
C61 C65 1.397 . S
C62 N58 1.453 . S
C62 C60 1.368 . S
C62 C63 1.373 . S
C63 H57 0.930 . S
C63 C62 1.373 . S
C63 C64 1.371 . S
C64 C63 1.371 . S
C64 C65 1.383 . S
C65 H56 0.931 . S
C65 C61 1.397 . S
C65 C64 1.383 . S
H66 C71 0.929 . S
H67 C76 0.931 . S
H68 C74 0.930 . S
N69 N70 1.234 . S
N69 C73 1.453 . S
N70 N69 1.234 . S
C71 H66 0.929 . S
C71 C72 1.373 . S
C71 C73 1.368 . S
C72 C71 1.373 . S
C72 C76 1.397 . S
C73 N69 1.453 . S
C73 C71 1.368 . S
C73 C74 1.373 . S
C74 H68 0.930 . S
C74 C73 1.373 . S
C74 C75 1.371 . S
C75 C74 1.371 . S
C75 C76 1.383 . S
C76 H67 0.931 . S
C76 C72 1.397 . S
C76 C75 1.383 . S
H77 C82 0.929 . S
H78 C87 0.931 . S
H79 C85 0.930 . S
N80 N81 1.234 . S
N80 C84 1.453 . S
N81 N80 1.234 . S
C82 H77 0.929 . S
C82 C83 1.373 . S
C82 C84 1.368 . S
C83 C82 1.373 . S
C83 C87 1.397 . S
C84 N80 1.453 . S
C84 C82 1.368 . S
C84 C85 1.373 . S
C85 H79 0.930 . S
C85 C84 1.373 . S
C85 C86 1.371 . S
C86 C85 1.371 . S
C86 C87 1.383 . S
C87 H78 0.931 . S
C87 C83 1.397 . S
C87 C86 1.383 . S
Co88 N93 2.057 . S
Co88 O105 2.021 . S
Co88 O108 2.062 . S
Co88 O112 2.117 1_545 S
Co88 O113 2.020 . S
C89 O109 1.259 1_655 S
C89 O112 1.258 . S
Co90 N99 2.057 . S
Co90 O106 2.117 . S
Co90 O107 2.020 . S
Co90 O109 2.021 1_545 S
Co90 O114 2.062 . S
C91 N93 1.316 . S
C91 N94 1.347 . S
C91 H96 0.931 . S
C92 N93 1.375 . S
C92 C95 1.350 . S
C92 H97 0.930 1_545 S
N93 Co88 2.057 . S
N93 C91 1.316 . S
N93 C92 1.375 . S
N94 C91 1.347 . S
N94 C95 1.373 . S
C95 C92 1.350 . S
C95 N94 1.373 . S
C95 H116 0.931 . S
H96 C91 0.931 . S
H97 C92 0.930 1_565 S
C98 O105 1.259 1_455 S
C98 O106 1.258 . S
N99 Co90 2.057 . S
N99 C100 1.316 1_545 S
N99 C101 1.375 . S
C100 N99 1.316 1_565 S
C100 N102 1.347 1_565 S
C100 H111 0.931 . S
C101 N99 1.375 . S
C101 C103 1.350 . S
C101 H110 0.930 . S
N102 C100 1.347 1_545 S
N102 C103 1.373 . S
C103 C101 1.350 . S
C103 N102 1.373 . S
C103 H117 0.931 . S
C104 O107 1.256 . S
C104 O108 1.255 1_455 S
O105 Co88 2.021 . S
O105 C98 1.259 1_655 S
O106 Co90 2.117 . S
O106 C98 1.258 . S
O107 Co90 2.020 . S
O107 C104 1.256 . S
O108 Co88 2.062 . S
O108 C104 1.255 1_655 S
O109 C89 1.259 1_455 S
O109 Co90 2.021 1_565 S
H110 C101 0.930 . S
H111 C100 0.931 . S
O112 Co88 2.117 1_565 S
O112 C89 1.258 . S
O113 Co88 2.020 . S
O113 C115 1.256 . S
O114 Co90 2.062 . S
O114 C115 1.255 1_455 S
C115 O113 1.256 . S
C115 O114 1.255 1_655 S
H116 C95 0.931 . S
H117 C103 0.931 . S
Co118 N123 2.057 1_554 S
Co118 O135 2.021 1_554 S
Co118 O138 2.062 . S
Co118 O142 2.117 1_545 S
Co118 O143 2.020 . S
C119 O139 1.259 . S
C119 O142 1.258 . S
Co120 N129 2.057 . S
Co120 O136 2.117 . S
Co120 O137 2.020 . S
Co120 O139 2.021 1_545 S
Co120 O144 2.062 . S
C121 N123 1.316 . S
C121 N124 1.347 1_545 S
C121 H126 0.931 . S
C122 N123 1.375 1_565 S
C122 C125 1.350 . S
C122 H127 0.930 . S
N123 Co118 2.057 1_556 S
N123 C121 1.316 . S
N123 C122 1.375 1_545 S
N124 C121 1.347 1_565 S
N124 C125 1.373 . S
C125 C122 1.350 . S
C125 N124 1.373 . S
C125 H146 0.931 . S
H126 C121 0.931 . S
H127 C122 0.930 . S
C128 O135 1.259 1_554 S
C128 O136 1.258 . S
N129 Co120 2.057 . S
N129 C130 1.316 . S
N129 C131 1.375 . S
C130 N129 1.316 . S
C130 N132 1.347 . S
C130 H141 0.931 . S
C131 N129 1.375 . S
C131 C133 1.350 . S
C131 H140 0.930 . S
N132 C130 1.347 . S
N132 C133 1.373 . S
C133 C131 1.350 . S
C133 N132 1.373 . S
C133 H147 0.931 . S
C134 O137 1.256 . S
C134 O138 1.255 . S
O135 Co118 2.021 1_556 S
O135 C128 1.259 1_556 S
O136 Co120 2.117 . S
O136 C128 1.258 . S
O137 Co120 2.020 . S
O137 C134 1.256 . S
O138 Co118 2.062 . S
O138 C134 1.255 . S
O139 C119 1.259 . S
O139 Co120 2.021 1_565 S
H140 C131 0.930 . S
H141 C130 0.931 . S
O142 Co118 2.117 1_565 S
O142 C119 1.258 . S
O143 Co118 2.020 . S
O143 C145 1.256 . S
O144 Co120 2.062 . S
O144 C145 1.255 . S
C145 O143 1.256 . S
C145 O144 1.255 . S
H146 C125 0.931 . S
H147 C133 0.931 . S
Co148 N153 2.057 . S
Co148 O165 2.021 . S
Co148 O168 2.062 . S
Co148 O172 2.117 . S
Co148 O173 2.020 . S
C149 O169 1.259 . S
C149 O172 1.258 . S
Co150 N159 2.057 . S
Co150 O166 2.117 . S
Co150 O167 2.020 . S
Co150 O169 2.021 . S
Co150 O174 2.062 . S
C151 N153 1.316 . S
C151 N154 1.347 . S
C151 H156 0.931 . S
C152 N153 1.375 . S
C152 C155 1.350 . S
C152 H157 0.930 . S
N153 Co148 2.057 . S
N153 C151 1.316 . S
N153 C152 1.375 . S
N154 C151 1.347 . S
N154 C155 1.373 . S
C155 C152 1.350 . S
C155 N154 1.373 . S
C155 H176 0.931 . S
H156 C151 0.931 . S
H157 C152 0.930 . S
C158 O165 1.259 . S
C158 O166 1.258 . S
N159 Co150 2.057 . S
N159 C160 1.316 . S
N159 C161 1.375 . S
C160 N159 1.316 . S
C160 N162 1.347 . S
C160 H171 0.931 . S
C161 N159 1.375 . S
C161 C163 1.350 . S
C161 H170 0.930 . S
N162 C160 1.347 . S
N162 C163 1.373 . S
C163 C161 1.350 . S
C163 N162 1.373 . S
C163 H177 0.931 . S
C164 O167 1.256 . S
C164 O168 1.255 . S
O165 Co148 2.021 . S
O165 C158 1.259 . S
O166 Co150 2.117 . S
O166 C158 1.258 . S
O167 Co150 2.020 . S
O167 C164 1.256 . S
O168 Co148 2.062 . S
O168 C164 1.255 . S
O169 C149 1.259 . S
O169 Co150 2.021 . S
H170 C161 0.930 . S
H171 C160 0.931 . S
O172 Co148 2.117 . S
O172 C149 1.258 . S
O173 Co148 2.020 . S
O173 C175 1.256 . S
O174 Co150 2.062 . S
O174 C175 1.255 . S
C175 O173 1.256 . S
C175 O174 1.255 . S
H176 C155 0.931 . S
H177 C163 0.931 . S
Co178 N183 2.057 . S
Co178 O195 2.021 1_556 S
Co178 O198 2.062 1_556 S
Co178 O202 2.117 1_455 S
Co178 O203 2.020 . S
C179 O199 1.259 . S
C179 O202 1.258 1_554 S
Co180 N189 2.057 . S
Co180 O196 2.117 . S
Co180 O197 2.020 . S
Co180 O199 2.021 1_455 S
Co180 O204 2.062 . S
C181 N183 1.316 . S
C181 N184 1.347 . S
C181 H186 0.931 . S
C182 N183 1.375 . S
C182 C185 1.350 . S
C182 H187 0.930 1_455 S
N183 Co178 2.057 . S
N183 C181 1.316 . S
N183 C182 1.375 . S
N184 C181 1.347 . S
N184 C185 1.373 . S
C185 C182 1.350 . S
C185 N184 1.373 . S
C185 H206 0.931 . S
H186 C181 0.931 . S
H187 C182 0.930 1_655 S
C188 O195 1.259 . S
C188 O196 1.258 . S
N189 Co180 2.057 . S
N189 C190 1.316 1_455 S
N189 C191 1.375 . S
C190 N189 1.316 1_655 S
C190 N192 1.347 . S
C190 H201 0.931 . S
C191 N189 1.375 . S
C191 C193 1.350 . S
C191 H200 0.930 . S
N192 C190 1.347 . S
N192 C193 1.373 1_655 S
C193 C191 1.350 . S
C193 N192 1.373 1_455 S
C193 H207 0.931 . S
C194 O197 1.256 . S
C194 O198 1.255 . S
O195 Co178 2.021 1_554 S
O195 C188 1.259 . S
O196 Co180 2.117 . S
O196 C188 1.258 . S
O197 Co180 2.020 . S
O197 C194 1.256 . S
O198 Co178 2.062 1_554 S
O198 C194 1.255 . S
O199 C179 1.259 . S
O199 Co180 2.021 1_655 S
H200 C191 0.930 . S
H201 C190 0.931 . S
O202 Co178 2.117 1_655 S
O202 C179 1.258 1_556 S
O203 Co178 2.020 . S
O203 C205 1.256 1_556 S
O204 Co180 2.062 . S
O204 C205 1.255 . S
C205 O203 1.256 1_554 S
C205 O204 1.255 . S
H206 C185 0.931 . S
H207 C193 0.931 . S
H208 C216 0.950 . S
H209 C221 0.950 . S
H210 C218 0.950 . S
H211 C220 0.950 . S
H212 C222 0.950 1_655 S
H213 C224 0.950 . S
H214 C226 0.950 . S
H215 C227 0.950 . S
C216 H208 0.950 . S
C216 C217 1.386 . S
C216 C218 1.391 . S
C217 C216 1.386 . S
C217 C221 1.393 . S
C218 H210 0.950 . S
C218 C216 1.391 . S
C218 C219 1.400 . S
C219 C218 1.400 . S
C219 C220 1.398 . S
C219 C225 1.491 . S
C220 H211 0.950 . S
C220 C219 1.398 . S
C220 C221 1.391 . S
C221 H209 0.950 . S
C221 C217 1.393 . S
C221 C220 1.391 . S
C222 H212 0.950 1_455 S
C222 C223 1.386 . S
C222 C224 1.391 . S
C223 C222 1.386 . S
C223 C227 1.393 . S
C224 H213 0.950 . S
C224 C222 1.391 . S
C224 C225 1.400 . S
C225 C219 1.491 . S
C225 C224 1.400 . S
C225 C226 1.398 . S
C226 H214 0.950 . S
C226 C225 1.398 . S
C226 C227 1.391 . S
C227 H215 0.950 . S
C227 C223 1.393 . S
C227 C226 1.391 . S
H228 C236 0.950 . S
H229 C241 0.950 . S
H230 C238 0.950 . S
H231 C240 0.950 . S
H232 C242 0.955 . S
H233 C244 0.948 1_545 S
H234 C246 0.950 . S
H235 C247 0.950 . S
C236 H228 0.950 . S
C236 C237 1.386 . S
C236 C238 1.391 . S
C237 C236 1.386 . S
C237 C241 1.393 . S
C238 H230 0.950 . S
C238 C236 1.391 . S
C238 C239 1.400 . S
C239 C238 1.400 . S
C239 C240 1.398 . S
C239 C245 1.491 . S
C240 H231 0.950 . S
C240 C239 1.398 . S
C240 C241 1.391 . S
C241 H229 0.950 . S
C241 C237 1.393 . S
C241 C240 1.391 . S
C242 H232 0.955 . S
C242 C243 1.383 1_545 S
C242 C244 1.388 1_545 S
C243 C242 1.383 1_565 S
C243 C247 1.393 . S
C244 H233 0.948 1_565 S
C244 C242 1.388 1_565 S
C244 C245 1.400 . S
C245 C239 1.491 . S
C245 C244 1.400 . S
C245 C246 1.398 . S
C246 H234 0.950 . S
C246 C245 1.398 . S
C246 C247 1.391 . S
C247 H235 0.950 . S
C247 C243 1.393 . S
C247 C246 1.391 . S
H248 C256 0.950 . S
H249 C261 0.950 . S
H250 C258 0.950 . S
H251 C260 0.950 . S
H252 C262 0.950 . S
H253 C264 0.950 . S
H254 C266 0.950 . S
H255 C267 0.950 . S
C256 H248 0.950 . S
C256 C257 1.386 . S
C256 C258 1.391 . S
C257 C256 1.386 . S
C257 C261 1.393 . S
C258 H250 0.950 . S
C258 C256 1.391 . S
C258 C259 1.400 . S
C259 C258 1.400 . S
C259 C260 1.398 . S
C259 C265 1.491 . S
C260 H251 0.950 . S
C260 C259 1.398 . S
C260 C261 1.391 . S
C261 H249 0.950 . S
C261 C257 1.393 . S
C261 C260 1.391 . S
C262 H252 0.950 . S
C262 C263 1.386 . S
C262 C264 1.391 . S
C263 C262 1.386 . S
C263 C267 1.393 . S
C264 H253 0.950 . S
C264 C262 1.391 . S
C264 C265 1.400 . S
C265 C259 1.491 . S
C265 C264 1.400 . S
C265 C266 1.398 . S
C266 H254 0.950 . S
C266 C265 1.398 . S
C266 C267 1.391 . S
C267 H255 0.950 . S
C267 C263 1.393 . S
C267 C266 1.391 . S
H268 C276 0.950 . S
H269 C281 0.934 1_455 S
H270 C278 0.950 . S
H271 C280 0.950 1_455 S
H272 C282 0.950 1_455 S
H273 C284 0.950 1_455 S
H274 C286 0.950 . S
H275 C287 0.950 . S
C276 H268 0.950 . S
C276 C277 1.386 . S
C276 C278 1.391 . S
C277 C276 1.386 . S
C277 C281 1.393 . S
C278 H270 0.950 . S
C278 C276 1.391 . S
C278 C279 1.400 . S
C279 C278 1.400 . S
C279 C280 1.398 . S
C279 C285 1.491 . S
C280 H271 0.950 1_655 S
C280 C279 1.398 . S
C280 C281 1.391 . S
C281 H269 0.934 1_655 S
C281 C277 1.393 . S
C281 C280 1.391 . S
C282 H272 0.950 1_655 S
C282 C283 1.386 . S
C282 C284 1.391 . S
C283 C282 1.386 . S
C283 C287 1.393 . S
C284 H273 0.950 1_655 S
C284 C282 1.391 . S
C284 C285 1.400 . S
C285 C279 1.491 . S
C285 C284 1.400 . S
C285 C286 1.398 . S
C286 H274 0.950 . S
C286 C285 1.398 . S
C286 C287 1.391 . S
C287 H275 0.950 . S
C287 C283 1.393 . S
C287 C286 1.391 . S
H288 C296 0.950 . S
H289 C301 0.950 . S
H290 C298 0.950 . S
H291 C300 0.950 . S
H292 C302 0.950 . S
H293 C304 0.950 . S
H294 C306 0.950 . S
H295 C307 0.950 . S
C296 H288 0.950 . S
C296 C297 1.386 . S
C296 C298 1.391 . S
C297 C296 1.386 . S
C297 C301 1.393 . S
C298 H290 0.950 . S
C298 C296 1.391 . S
C298 C299 1.400 . S
C299 C298 1.400 . S
C299 C300 1.398 . S
C299 C305 1.491 . S
C300 H291 0.950 . S
C300 C299 1.398 . S
C300 C301 1.391 . S
C301 H289 0.950 . S
C301 C297 1.393 . S
C301 C300 1.391 . S
C302 H292 0.950 . S
C302 C303 1.386 . S
C302 C304 1.391 . S
C303 C302 1.386 . S
C303 C307 1.393 . S
C304 H293 0.950 . S
C304 C302 1.391 . S
C304 C305 1.400 . S
C305 C299 1.491 . S
C305 C304 1.400 . S
C305 C306 1.398 . S
C306 H294 0.950 . S
C306 C305 1.398 . S
C306 C307 1.391 . S
C307 H295 0.950 . S
C307 C303 1.393 . S
C307 C306 1.391 . S
H308 C316 0.950 . S
H309 C321 0.950 . S
H310 C318 0.950 . S
H311 C320 0.950 . S
H312 C322 0.950 . S
H313 C324 0.950 . S
H314 C326 0.950 . S
H315 C327 0.950 . S
C316 H308 0.950 . S
C316 C317 1.386 . S
C316 C318 1.391 . S
C317 C316 1.386 . S
C317 C321 1.393 . S
C318 H310 0.950 . S
C318 C316 1.391 . S
C318 C319 1.400 . S
C319 C318 1.400 . S
C319 C320 1.398 . S
C319 C325 1.491 . S
C320 H311 0.950 . S
C320 C319 1.398 . S
C320 C321 1.391 . S
C321 H309 0.950 . S
C321 C317 1.393 . S
C321 C320 1.391 . S
C322 H312 0.950 . S
C322 C323 1.386 . S
C322 C324 1.391 . S
C323 C322 1.386 . S
C323 C327 1.393 . S
C324 H313 0.950 . S
C324 C322 1.391 . S
C324 C325 1.400 . S
C325 C319 1.491 . S
C325 C324 1.400 . S
C325 C326 1.398 . S
C326 H314 0.950 . S
C326 C325 1.398 . S
C326 C327 1.391 . S
C327 H315 0.950 . S
C327 C323 1.393 . S
C327 C326 1.391 . S
H328 C336 0.950 . S
H329 C341 0.950 . S
H330 C338 0.950 . S
H331 C340 0.950 . S
H332 C342 0.950 1_554 S
H333 C344 0.950 . S
H334 C346 0.950 . S
H335 C347 0.950 . S
C336 H328 0.950 . S
C336 C337 1.386 . S
C336 C338 1.391 . S
C337 C336 1.386 . S
C337 C341 1.393 . S
C338 H330 0.950 . S
C338 C336 1.391 . S
C338 C339 1.400 . S
C339 C338 1.400 . S
C339 C340 1.398 . S
C339 C345 1.491 . S
C340 H331 0.950 . S
C340 C339 1.398 . S
C340 C341 1.391 . S
C341 H329 0.950 . S
C341 C337 1.393 . S
C341 C340 1.391 . S
C342 H332 0.950 1_556 S
C342 C343 1.386 . S
C342 C344 1.391 . S
C343 C342 1.386 . S
C343 C347 1.393 . S
C344 H333 0.950 . S
C344 C342 1.391 . S
C344 C345 1.400 . S
C345 C339 1.491 . S
C345 C344 1.400 . S
C345 C346 1.398 . S
C346 H334 0.950 . S
C346 C345 1.398 . S
C346 C347 1.391 . S
C347 H335 0.950 . S
C347 C343 1.393 . S
C347 C346 1.391 . S
H348 C356 0.950 . S
H349 C361 0.950 . S
H350 C358 0.950 . S
H351 C360 0.950 . S
H352 C362 0.950 . S
H353 C364 0.950 . S
H354 C366 0.950 . S
H355 C367 0.950 . S
C356 H348 0.950 . S
C356 C357 1.386 . S
C356 C358 1.391 . S
C357 C356 1.386 . S
C357 C361 1.393 . S
C358 H350 0.950 . S
C358 C356 1.391 . S
C358 C359 1.400 . S
C359 C358 1.400 . S
C359 C360 1.398 . S
C359 C365 1.491 . S
C360 H351 0.950 . S
C360 C359 1.398 . S
C360 C361 1.391 . S
C361 H349 0.950 . S
C361 C357 1.393 . S
C361 C360 1.391 . S
C362 H352 0.950 . S
C362 C363 1.386 . S
C362 C364 1.391 . S
C363 C362 1.386 . S
C363 C367 1.393 . S
C364 H353 0.950 . S
C364 C362 1.391 . S
C364 C365 1.400 . S
C365 C359 1.491 . S
C365 C364 1.400 . S
C365 C366 1.398 . S
C366 H354 0.950 . S
C366 C365 1.398 . S
C366 C367 1.391 . S
C367 H355 0.950 . S
C367 C363 1.393 . S
C367 C366 1.391 . S
H368 C376 0.950 . S
H369 C381 0.950 . S
H370 C378 0.950 . S
H371 C380 0.950 . S
H372 C382 0.950 . S
H373 C384 0.950 . S
H374 C386 0.950 . S
H375 C387 0.950 . S
C376 H368 0.950 . S
C376 C377 1.386 . S
C376 C378 1.391 . S
C377 C376 1.386 . S
C377 C381 1.393 . S
C378 H370 0.950 . S
C378 C376 1.391 . S
C378 C379 1.400 . S
C379 C378 1.400 . S
C379 C380 1.398 . S
C379 C385 1.491 . S
C380 H371 0.950 . S
C380 C379 1.398 . S
C380 C381 1.391 . S
C381 H369 0.950 . S
C381 C377 1.393 . S
C381 C380 1.391 . S
C382 H372 0.950 . S
C382 C383 1.386 . S
C382 C384 1.391 . S
C383 C382 1.386 . S
C383 C387 1.393 . S
C384 H373 0.950 . S
C384 C382 1.391 . S
C384 C385 1.400 . S
C385 C379 1.491 . S
C385 C384 1.400 . S
C385 C386 1.398 . S
C386 H374 0.950 . S
C386 C385 1.398 . S
C386 C387 1.391 . S
C387 H375 0.950 . S
C387 C383 1.393 . S
C387 C386 1.391 . S
H388 C396 0.950 . S
H389 C401 0.950 . S
H390 C398 0.950 . S
H391 C400 0.950 . S
H392 C402 0.950 . S
H393 C404 0.950 . S
H394 C406 0.950 . S
H395 C407 0.950 . S
C396 H388 0.950 . S
C396 C397 1.386 . S
C396 C398 1.391 . S
C397 C396 1.386 . S
C397 C401 1.393 . S
C398 H390 0.950 . S
C398 C396 1.391 . S
C398 C399 1.400 . S
C399 C398 1.400 . S
C399 C400 1.398 . S
C399 C405 1.491 . S
C400 H391 0.950 . S
C400 C399 1.398 . S
C400 C401 1.391 . S
C401 H389 0.950 . S
C401 C397 1.393 . S
C401 C400 1.391 . S
C402 H392 0.950 . S
C402 C403 1.386 . S
C402 C404 1.391 . S
C403 C402 1.386 . S
C403 C407 1.393 1_554 S
C404 H393 0.950 . S
C404 C402 1.391 . S
C404 C405 1.400 1_554 S
C405 C399 1.491 . S
C405 C404 1.400 1_556 S
C405 C406 1.398 . S
C406 H394 0.950 . S
C406 C405 1.398 . S
C406 C407 1.391 . S
C407 H395 0.950 . S
C407 C403 1.393 1_556 S
C407 C406 1.391 . S
H408 C416 0.950 . S
H409 C421 0.950 . S
H410 C418 0.950 . S
H411 C420 0.950 1_455 S
H412 C422 0.950 . S
H413 C424 0.950 1_455 S
H414 C426 0.950 . S
H415 C427 0.950 . S
C416 H408 0.950 . S
C416 C417 1.386 . S
C416 C418 1.391 . S
C417 C416 1.386 . S
C417 C421 1.393 . S
C418 H410 0.950 . S
C418 C416 1.391 . S
C418 C419 1.400 . S
C419 C418 1.400 . S
C419 C420 1.398 . S
C419 C425 1.491 . S
C420 H411 0.950 1_655 S
C420 C419 1.398 . S
C420 C421 1.391 . S
C421 H409 0.950 . S
C421 C417 1.393 . S
C421 C420 1.391 . S
C422 H412 0.950 . S
C422 C423 1.386 1_455 S
C422 C424 1.391 1_455 S
C423 C422 1.386 1_655 S
C423 C427 1.393 . S
C424 H413 0.950 1_655 S
C424 C422 1.391 1_655 S
C424 C425 1.400 . S
C425 C419 1.491 . S
C425 C424 1.400 . S
C425 C426 1.398 . S
C426 H414 0.950 . S
C426 C425 1.398 . S
C426 C427 1.391 . S
C427 H415 0.950 . S
C427 C423 1.393 . S
C427 C426 1.391 . S
H428 C436 0.950 . S
H429 C441 0.950 . S
H430 C438 0.950 . S
H431 C440 0.950 . S
H432 C442 0.950 . S
H433 C444 0.950 . S
H434 C446 0.950 . S
H435 C447 0.950 . S
C436 H428 0.950 . S
C436 C437 1.386 . S
C436 C438 1.391 . S
C437 C436 1.386 . S
C437 C441 1.393 . S
C438 H430 0.950 . S
C438 C436 1.391 . S
C438 C439 1.400 . S
C439 C438 1.400 . S
C439 C440 1.398 . S
C439 C445 1.491 . S
C440 H431 0.950 . S
C440 C439 1.398 . S
C440 C441 1.391 . S
C441 H429 0.950 . S
C441 C437 1.393 . S
C441 C440 1.391 . S
C442 H432 0.950 . S
C442 C443 1.386 . S
C442 C444 1.391 . S
C443 C442 1.386 . S
C443 C447 1.393 . S
C444 H433 0.950 . S
C444 C442 1.391 . S
C444 C445 1.400 . S
C445 C439 1.491 . S
C445 C444 1.400 . S
C445 C446 1.398 . S
C446 H434 0.950 . S
C446 C445 1.398 . S
C446 C447 1.391 . S
C447 H435 0.950 . S
C447 C443 1.393 . S
C447 C446 1.391 . S
H448 C456 0.950 . S
H449 C461 0.950 . S
H450 C458 0.950 . S
H451 C460 0.958 1_545 S
H452 C462 0.950 . S
H453 C464 0.950 1_455 S
H454 C466 0.950 . S
H455 C467 0.950 . S
C456 H448 0.950 . S
C456 C457 1.386 . S
C456 C458 1.391 . S
C457 C456 1.386 . S
C457 C461 1.393 . S
C458 H450 0.950 . S
C458 C456 1.391 . S
C458 C459 1.400 . S
C459 C458 1.400 . S
C459 C460 1.398 . S
C459 C465 1.491 . S
C460 H451 0.958 1_565 S
C460 C459 1.398 . S
C460 C461 1.391 . S
C461 H449 0.950 . S
C461 C457 1.393 . S
C461 C460 1.391 . S
C462 H452 0.950 . S
C462 C463 1.386 1_445 S
C462 C464 1.391 1_455 S
C463 C462 1.386 1_665 S
C463 C467 1.393 . S
C464 H453 0.950 1_655 S
C464 C462 1.391 1_655 S
C464 C465 1.400 1_545 S
C465 C459 1.491 . S
C465 C464 1.400 1_565 S
C465 C466 1.398 . S
C466 H454 0.950 . S
C466 C465 1.398 . S
C466 C467 1.391 . S
C467 H455 0.950 . S
C467 C463 1.393 . S
C467 C466 1.391 . S
H468 C476 0.950 . S
H469 C481 0.950 . S
H470 C478 0.950 . S
H471 C480 0.950 . S
H472 C482 0.950 . S
H473 C484 0.950 . S
H474 C486 0.950 . S
H475 C487 0.950 . S
C476 H468 0.950 . S
C476 C477 1.386 . S
C476 C478 1.391 . S
C477 C476 1.386 . S
C477 C481 1.393 . S
C478 H470 0.950 . S
C478 C476 1.391 . S
C478 C479 1.400 . S
C479 C478 1.400 . S
C479 C480 1.398 . S
C479 C485 1.491 . S
C480 H471 0.950 . S
C480 C479 1.398 . S
C480 C481 1.391 . S
C481 H469 0.950 . S
C481 C477 1.393 . S
C481 C480 1.391 . S
C482 H472 0.950 . S
C482 C483 1.386 . S
C482 C484 1.391 . S
C483 C482 1.386 . S
C483 C487 1.393 . S
C484 H473 0.950 . S
C484 C482 1.391 . S
C484 C485 1.400 . S
C485 C479 1.491 . S
C485 C484 1.400 . S
C485 C486 1.398 . S
C486 H474 0.950 . S
C486 C485 1.398 . S
C486 C487 1.391 . S
C487 H475 0.950 . S
C487 C483 1.393 . S
C487 C486 1.391 . S
H488 C496 0.950 . S
H489 C501 0.950 . S
H490 C498 0.950 . S
H491 C500 0.950 . S
H492 C502 0.950 . S
H493 C504 0.950 . S
H494 C506 0.950 . S
H495 C507 0.950 . S
C496 H488 0.950 . S
C496 C497 1.386 . S
C496 C498 1.391 . S
C497 C496 1.386 . S
C497 C501 1.393 . S
C498 H490 0.950 . S
C498 C496 1.391 . S
C498 C499 1.400 . S
C499 C498 1.400 . S
C499 C500 1.398 . S
C499 C505 1.491 . S
C500 H491 0.950 . S
C500 C499 1.398 . S
C500 C501 1.391 . S
C501 H489 0.950 . S
C501 C497 1.393 . S
C501 C500 1.391 . S
C502 H492 0.950 . S
C502 C503 1.386 . S
C502 C504 1.391 . S
C503 C502 1.386 . S
C503 C507 1.393 . S
C504 H493 0.950 . S
C504 C502 1.391 . S
C504 C505 1.400 . S
C505 C499 1.491 . S
C505 C504 1.400 . S
C505 C506 1.398 . S
C506 H494 0.950 . S
C506 C505 1.398 . S
C506 C507 1.391 . S
C507 H495 0.950 . S
C507 C503 1.393 . S
C507 C506 1.391 . S
H508 C516 0.950 . S
H509 C521 0.950 . S
H510 C518 0.950 . S
H511 C520 0.950 . S
H512 C522 0.950 . S
H513 C524 0.950 . S
H514 C526 0.950 . S
H515 C527 0.950 . S
C516 H508 0.950 . S
C516 C517 1.386 . S
C516 C518 1.391 . S
C517 C516 1.386 . S
C517 C521 1.393 . S
C518 H510 0.950 . S
C518 C516 1.391 . S
C518 C519 1.400 . S
C519 C518 1.400 . S
C519 C520 1.398 . S
C519 C525 1.491 . S
C520 H511 0.950 . S
C520 C519 1.398 . S
C520 C521 1.391 . S
C521 H509 0.950 . S
C521 C517 1.393 . S
C521 C520 1.391 . S
C522 H512 0.950 . S
C522 C523 1.386 . S
C522 C524 1.391 . S
C523 C522 1.386 . S
C523 C527 1.393 . S
C524 H513 0.950 . S
C524 C522 1.391 . S
C524 C525 1.400 . S
C525 C519 1.491 . S
C525 C524 1.400 . S
C525 C526 1.398 . S
C526 H514 0.950 . S
C526 C525 1.398 . S
C526 C527 1.391 . S
C527 H515 0.950 . S
C527 C523 1.393 . S
C527 C526 1.391 . S
H528 C536 0.950 . S
H529 C541 0.950 . S
H530 C538 0.950 . S
H531 C540 0.950 . S
H532 C542 0.950 . S
H533 C544 0.950 . S
H534 C546 0.950 . S
H535 C547 0.950 . S
C536 H528 0.950 . S
C536 C537 1.386 1_545 S
C536 C538 1.391 . S
C537 C536 1.386 1_565 S
C537 C541 1.393 . S
C538 H530 0.950 . S
C538 C536 1.391 . S
C538 C539 1.400 1_545 S
C539 C538 1.400 1_565 S
C539 C540 1.398 . S
C539 C545 1.491 . S
C540 H531 0.950 . S
C540 C539 1.398 . S
C540 C541 1.391 . S
C541 H529 0.950 . S
C541 C537 1.393 . S
C541 C540 1.391 . S
C542 H532 0.950 . S
C542 C543 1.386 1_565 S
C542 C544 1.391 1_554 S
C543 C542 1.386 1_545 S
C543 C547 1.393 . S
C544 H533 0.950 . S
C544 C542 1.391 1_556 S
C544 C545 1.400 . S
C545 C539 1.491 . S
C545 C544 1.400 . S
C545 C546 1.398 1_566 S
C546 H534 0.950 . S
C546 C545 1.398 1_544 S
C546 C547 1.391 . S
C547 H535 0.950 . S
C547 C543 1.393 . S
C547 C546 1.391 . S
H548 C556 0.950 . S
H549 C561 0.950 . S
H550 C558 0.950 . S
H551 C560 0.950 . S
H552 C562 0.950 . S
H553 C564 0.950 . S
H554 C566 0.950 . S
H555 C567 0.950 . S
C556 H548 0.950 . S
C556 C557 1.386 . S
C556 C558 1.391 . S
C557 C556 1.386 . S
C557 C561 1.393 . S
C558 H550 0.950 . S
C558 C556 1.391 . S
C558 C559 1.400 . S
C559 C558 1.400 . S
C559 C560 1.398 . S
C559 C565 1.491 . S
C560 H551 0.950 . S
C560 C559 1.398 . S
C560 C561 1.391 . S
C561 H549 0.950 . S
C561 C557 1.393 . S
C561 C560 1.391 . S
C562 H552 0.950 . S
C562 C563 1.386 . S
C562 C564 1.391 . S
C563 C562 1.386 . S
C563 C567 1.393 . S
C564 H553 0.950 . S
C564 C562 1.391 . S
C564 C565 1.400 . S
C565 C559 1.491 . S
C565 C564 1.400 . S
C565 C566 1.398 . S
C566 H554 0.950 . S
C566 C565 1.398 . S
C566 C567 1.391 . S
C567 H555 0.950 . S
C567 C563 1.393 . S
C567 C566 1.391 . S
H568 C576 0.950 . S
H569 C581 0.950 . S
H570 C578 0.950 . S
H571 C580 0.950 . S
H572 C582 0.950 . S
H573 C584 0.950 . S
H574 C586 0.950 . S
H575 C587 0.950 . S
C576 H568 0.950 . S
C576 C577 1.386 . S
C576 C578 1.391 . S
C577 C576 1.386 . S
C577 C581 1.393 . S
C578 H570 0.950 . S
C578 C576 1.391 . S
C578 C579 1.400 . S
C579 C578 1.400 . S
C579 C580 1.398 . S
C579 C585 1.491 . S
C580 H571 0.950 . S
C580 C579 1.398 . S
C580 C581 1.391 . S
C581 H569 0.950 . S
C581 C577 1.393 . S
C581 C580 1.391 . S
C582 H572 0.950 . S
C582 C583 1.386 . S
C582 C584 1.391 . S
C583 C582 1.386 . S
C583 C587 1.393 . S
C584 H573 0.950 . S
C584 C582 1.391 . S
C584 C585 1.400 . S
C585 C579 1.491 . S
C585 C584 1.400 . S
C585 C586 1.398 . S
C586 H574 0.950 . S
C586 C585 1.398 . S
C586 C587 1.391 . S
C587 H575 0.950 . S
C587 C583 1.393 . S
C587 C586 1.391 . S
H588 C596 0.950 . S
H589 C601 0.950 . S
H590 C598 0.950 . S
H591 C600 0.950 . S
H592 C602 0.950 . S
H593 C604 0.950 . S
H594 C606 0.950 . S
H595 C607 0.950 . S
C596 H588 0.950 . S
C596 C597 1.386 . S
C596 C598 1.391 . S
C597 C596 1.386 . S
C597 C601 1.393 . S
C598 H590 0.950 . S
C598 C596 1.391 . S
C598 C599 1.400 . S
C599 C598 1.400 . S
C599 C600 1.398 . S
C599 C605 1.491 . S
C600 H591 0.950 . S
C600 C599 1.398 . S
C600 C601 1.391 . S
C601 H589 0.950 . S
C601 C597 1.393 . S
C601 C600 1.391 . S
C602 H592 0.950 . S
C602 C603 1.386 . S
C602 C604 1.391 . S
C603 C602 1.386 . S
C603 C607 1.393 . S
C604 H593 0.950 . S
C604 C602 1.391 . S
C604 C605 1.400 . S
C605 C599 1.491 . S
C605 C604 1.400 . S
C605 C606 1.398 . S
C606 H594 0.950 . S
C606 C605 1.398 . S
C606 C607 1.391 . S
C607 H595 0.950 . S
C607 C603 1.393 . S
C607 C606 1.391 . S
H608 C616 0.950 . S
H609 C621 0.950 . S
H610 C618 0.950 . S
H611 C620 0.950 . S
H612 C622 0.950 . S
H613 C624 0.956 1_554 S
H614 C626 0.950 . S
H615 C627 0.950 . S
C616 H608 0.950 . S
C616 C617 1.386 . S
C616 C618 1.391 . S
C617 C616 1.386 . S
C617 C621 1.393 . S
C618 H610 0.950 . S
C618 C616 1.391 . S
C618 C619 1.400 . S
C619 C618 1.400 . S
C619 C620 1.398 . S
C619 C625 1.491 . S
C620 H611 0.950 . S
C620 C619 1.398 . S
C620 C621 1.391 . S
C621 H609 0.950 . S
C621 C617 1.393 . S
C621 C620 1.391 . S
C622 H612 0.950 . S
C622 C623 1.386 1_454 S
C622 C624 1.401 1_554 S
C623 C622 1.386 1_656 S
C623 C627 1.393 . S
C624 H613 0.956 1_556 S
C624 C622 1.401 1_556 S
C624 C625 1.385 1_455 S
C625 C619 1.491 . S
C625 C624 1.385 1_655 S
C625 C626 1.398 . S
C626 H614 0.950 . S
C626 C625 1.398 . S
C626 C627 1.391 . S
C627 H615 0.950 . S
C627 C623 1.393 . S
C627 C626 1.391 . S
H628 C636 0.950 . S
H629 C641 0.950 . S
H630 C638 0.950 . S
H631 C640 0.950 . S
H632 C642 0.950 . S
H633 C644 0.950 . S
H634 C646 0.950 . S
H635 C647 0.950 . S
C636 H628 0.950 . S
C636 C637 1.386 . S
C636 C638 1.391 . S
C637 C636 1.386 . S
C637 C641 1.393 . S
C638 H630 0.950 . S
C638 C636 1.391 . S
C638 C639 1.400 . S
C639 C638 1.400 . S
C639 C640 1.398 . S
C639 C645 1.491 . S
C640 H631 0.950 . S
C640 C639 1.398 . S
C640 C641 1.391 . S
C641 H629 0.950 . S
C641 C637 1.393 . S
C641 C640 1.391 . S
C642 H632 0.950 . S
C642 C643 1.386 . S
C642 C644 1.391 . S
C643 C642 1.386 . S
C643 C647 1.393 . S
C644 H633 0.950 . S
C644 C642 1.391 . S
C644 C645 1.400 . S
C645 C639 1.491 . S
C645 C644 1.400 . S
C645 C646 1.398 . S
C646 H634 0.950 . S
C646 C645 1.398 . S
C646 C647 1.391 . S
C647 H635 0.950 . S
C647 C643 1.393 . S
C647 C646 1.391 . S
H648 C656 0.950 . S
H649 C661 0.950 . S
H650 C658 0.950 . S
H651 C660 0.950 . S
H652 C662 0.950 1_655 S
H653 C664 0.950 . S
H654 C666 0.950 . S
H655 C667 0.950 . S
C656 H648 0.950 . S
C656 C657 1.386 . S
C656 C658 1.391 . S
C657 C656 1.386 . S
C657 C661 1.393 . S
C658 H650 0.950 . S
C658 C656 1.391 . S
C658 C659 1.400 . S
C659 C658 1.400 . S
C659 C660 1.398 . S
C659 C665 1.491 . S
C660 H651 0.950 . S
C660 C659 1.398 . S
C660 C661 1.391 . S
C661 H649 0.950 . S
C661 C657 1.393 . S
C661 C660 1.391 . S
C662 H652 0.950 1_455 S
C662 C663 1.386 . S
C662 C664 1.391 . S
C663 C662 1.386 . S
C663 C667 1.393 . S
C664 H653 0.950 . S
C664 C662 1.391 . S
C664 C665 1.400 . S
C665 C659 1.491 . S
C665 C664 1.400 . S
C665 C666 1.398 . S
C666 H654 0.950 . S
C666 C665 1.398 . S
C666 C667 1.391 . S
C667 H655 0.950 . S
C667 C663 1.393 . S
C667 C666 1.391 . S
H668 C676 0.950 . S
H669 C681 0.950 . S
H670 C678 0.950 . S
H671 C680 0.950 . S
H672 C682 0.950 . S
H673 C684 0.950 . S
H674 C686 0.950 . S
H675 C687 0.950 . S
C676 H668 0.950 . S
C676 C677 1.386 . S
C676 C678 1.391 . S
C677 C676 1.386 . S
C677 C681 1.393 . S
C678 H670 0.950 . S
C678 C676 1.391 . S
C678 C679 1.400 . S
C679 C678 1.400 . S
C679 C680 1.398 . S
C679 C685 1.491 . S
C680 H671 0.950 . S
C680 C679 1.398 . S
C680 C681 1.391 . S
C681 H669 0.950 . S
C681 C677 1.393 . S
C681 C680 1.391 . S
C682 H672 0.950 . S
C682 C683 1.386 . S
C682 C684 1.391 . S
C683 C682 1.386 . S
C683 C687 1.393 . S
C684 H673 0.950 . S
C684 C682 1.391 . S
C684 C685 1.400 . S
C685 C679 1.491 . S
C685 C684 1.400 . S
C685 C686 1.398 . S
C686 H674 0.950 . S
C686 C685 1.398 . S
C686 C687 1.391 . S
C687 H675 0.950 . S
C687 C683 1.393 . S
C687 C686 1.391 . S
C217 C6 2.293 . S
C223 C104 2.305 . S
C237 C20 1.380 . S
C243 N124 1.368 . S
C263 C158 1.582 . S
C257 N26 1.572 . S
C277 N37 1.138 . S
C283 N192 1.109 . S
C303 C145 2.746 . S
C297 C9 2.731 . S
C323 N102 0.917 1_565 S
C317 N15 0.943 . S
C343 C179 1.823 1_556 S
C337 C31 1.811 . S
C363 N154 0.907 . S
C357 C39 0.939 . S
C377 N4 1.809 . S
C383 C194 1.830 . S
C403 C128 1.763 . S
C397 C28 1.732 . S
C417 C42 1.144 . S
C423 C89 1.156 . S
C437 C17 1.570 . S
C443 C175 1.578 . S
C463 C115 2.433 1_565 S
C457 C50 2.427 . S
C477 C61 1.179 . S
C483 N132 1.146 . S
C497 N70 1.874 . S
C503 C149 1.878 . S
C517 N81 0.990 . S
C523 N184 0.961 . S
C537 N48 2.120 . S
C543 C134 2.142 . S
C563 N94 1.489 . S
C557 C64 1.489 . S
C583 C188 1.859 . S
C577 C75 1.838 . S
C603 N162 0.923 . S
C597 C86 0.942 . S
C617 C53 2.049 . S
C623 C205 2.060 1_656 S
C643 C119 1.408 . S
C637 C72 1.406 . S
C663 C98 1.477 . S
C657 C83 1.468 . S
C677 N59 1.415 . S
C683 C164 1.423 . S
