# Generated by pormake.
# Topology pyr, (3,6)-cn, num edge types: 1
# Building blocks:
#     Node 0, Type 0, BuildingBlock: BETDAH_clean_linker_0, # of connection points: 3
#     Node 1, Type 0, BuildingBlock: BETDAH_clean_linker_0, # of connection points: 3
#     Node 2, Type 0, BuildingBlock: BETDAH_clean_linker_0, # of connection points: 3
#     Node 3, Type 0, BuildingBlock: BETDAH_clean_linker_0, # of connection points: 3
#     Node 4, Type 0, BuildingBlock: BETDAH_clean_linker_0, # of connection points: 3
#     Node 5, Type 0, BuildingBlock: BETDAH_clean_linker_0, # of connection points: 3
#     Node 6, Type 0, BuildingBlock: BETDAH_clean_linker_0, # of connection points: 3
#     Node 7, Type 0, BuildingBlock: BETDAH_clean_linker_0, # of connection points: 3
#     Node 8, Type 1, BuildingBlock: GEDQOX_clean_sbu_0, # of connection points: 6
#     Node 9, Type 1, BuildingBlock: GEDQOX_clean_sbu_0, # of connection points: 6
#     Node 10, Type 1, BuildingBlock: GEDQOX_clean_sbu_0, # of connection points: 6
#     Node 11, Type 1, BuildingBlock: GEDQOX_clean_sbu_0, # of connection points: 6
#     Edge 12, Type (0, 1), BuildingBlock: XUDNAN_clean_linker_2, # of connection points: 2
#     Edge 13, Type (0, 1), BuildingBlock: XUDNAN_clean_linker_2, # of connection points: 2
#     Edge 14, Type (0, 1), BuildingBlock: XUDNAN_clean_linker_2, # of connection points: 2
#     Edge 15, Type (0, 1), BuildingBlock: XUDNAN_clean_linker_2, # of connection points: 2
#     Edge 16, Type (0, 1), BuildingBlock: XUDNAN_clean_linker_2, # of connection points: 2
#     Edge 17, Type (0, 1), BuildingBlock: XUDNAN_clean_linker_2, # of connection points: 2
#     Edge 18, Type (0, 1), BuildingBlock: XUDNAN_clean_linker_2, # of connection points: 2
#     Edge 19, Type (0, 1), BuildingBlock: XUDNAN_clean_linker_2, # of connection points: 2
#     Edge 20, Type (0, 1), BuildingBlock: XUDNAN_clean_linker_2, # of connection points: 2
#     Edge 21, Type (0, 1), BuildingBlock: XUDNAN_clean_linker_2, # of connection points: 2
#     Edge 22, Type (0, 1), BuildingBlock: XUDNAN_clean_linker_2, # of connection points: 2
#     Edge 23, Type (0, 1), BuildingBlock: XUDNAN_clean_linker_2, # of connection points: 2
#     Edge 24, Type (0, 1), BuildingBlock: XUDNAN_clean_linker_2, # of connection points: 2
#     Edge 25, Type (0, 1), BuildingBlock: XUDNAN_clean_linker_2, # of connection points: 2
#     Edge 26, Type (0, 1), BuildingBlock: XUDNAN_clean_linker_2, # of connection points: 2
#     Edge 27, Type (0, 1), BuildingBlock: XUDNAN_clean_linker_2, # of connection points: 2
#     Edge 28, Type (0, 1), BuildingBlock: XUDNAN_clean_linker_2, # of connection points: 2
#     Edge 29, Type (0, 1), BuildingBlock: XUDNAN_clean_linker_2, # of connection points: 2
#     Edge 30, Type (0, 1), BuildingBlock: XUDNAN_clean_linker_2, # of connection points: 2
#     Edge 31, Type (0, 1), BuildingBlock: XUDNAN_clean_linker_2, # of connection points: 2
#     Edge 32, Type (0, 1), BuildingBlock: XUDNAN_clean_linker_2, # of connection points: 2
#     Edge 33, Type (0, 1), BuildingBlock: XUDNAN_clean_linker_2, # of connection points: 2
#     Edge 34, Type (0, 1), BuildingBlock: XUDNAN_clean_linker_2, # of connection points: 2
#     Edge 35, Type (0, 1), BuildingBlock: XUDNAN_clean_linker_2, # of connection points: 2
# Relax obj value: 0.196
# Max RMSD: 0.206
# Mean RMSD: 0.150
data_MOF--net-pyr--node1-GEDQOX_clean_sbu_0--node2-BETDAH_clean_linker_0--edge1-XUDNAN_clean_linker_2
_symmetry_space_group_name_H-M    P1
_symmetry_Int_Tables_number       1
_symmetry_cell_setting            triclinic
loop_
_symmetry_equiv_pos_as_xyz
'x, y, z'
_cell_length_a     38.71016
_cell_length_b     39.285451
_cell_length_c     36.706883
_cell_angle_alpha  89.420993
_cell_angle_beta   93.507422
_cell_angle_gamma 94.588123
loop_
_atom_site_label
_atom_site_type_symbol
_atom_site_fract_x
_atom_site_fract_y
_atom_site_fract_z
_atom_type_partial_charge
H0 H 0.25028 0.14303 0.24356 0.0
H1 H 0.24777 0.21544 0.15424 0.0
H2 H 0.16891 0.21244 0.23352 0.0
C3 C 0.23847 0.16386 0.22957 0.0
C4 C 0.20735 0.17545 0.24412 0.0
C5 C 0.25474 0.17754 0.19733 0.0
C6 C 0.23769 0.20531 0.17934 0.0
C7 C 0.20738 0.21996 0.19265 0.0
C8 C 0.19298 0.20392 0.22481 0.0
N9 N 0.18561 0.24125 0.16802 0.0
C10 C 0.18037 0.27745 0.1619 0.0
H11 H 0.48603 0.82707 0.79835 0.0
H12 H 0.37767 0.83365 0.81608 0.0
H13 H 0.40894 0.74818 0.75905 0.0
C14 C 0.45931 0.81648 0.79518 0.0
C15 C 0.45111 0.78521 0.7767 0.0
C16 C 0.43281 0.83421 0.8094 0.0
C17 C 0.39816 0.82051 0.80487 0.0
C18 C 0.38994 0.78916 0.78734 0.0
C19 C 0.41626 0.77175 0.77364 0.0
N20 N 0.35534 0.7744 0.78321 0.0
C21 C 0.3274 0.79376 0.77528 0.0
H22 H 0.79583 0.3623 0.87022 0.0
H23 H 0.8575 0.40996 0.78714 0.0
H24 H 0.76142 0.35295 0.75661 0.0
C25 C 0.80025 0.36712 0.8417 0.0
C26 C 0.77553 0.35402 0.81465 0.0
C27 C 0.82973 0.38777 0.83224 0.0
C28 C 0.83476 0.39446 0.79517 0.0
C29 C 0.80987 0.38258 0.7682 0.0
C30 C 0.78028 0.36243 0.77788 0.0
N31 N 0.81407 0.3925 0.73151 0.0
C32 C 0.78975 0.41159 0.7133 0.0
H33 H 0.80622 0.88773 0.36529 0.0
H34 H 0.85017 0.91041 0.26203 0.0
H35 H 0.75243 0.85088 0.2658 0.0
C36 C 0.80417 0.88697 0.33572 0.0
C37 C 0.77573 0.86832 0.31799 0.0
C38 C 0.83118 0.90247 0.31596 0.0
C39 C 0.82939 0.89911 0.27781 0.0
C40 C 0.80073 0.88095 0.25978 0.0
C41 C 0.77393 0.86575 0.27984 0.0
N42 N 0.8001 0.87544 0.22178 0.0
C43 C 0.82268 0.85363 0.20841 0.0
H44 H 0.94048 0.85762 0.84214 0.0
H45 H 0.86357 0.84669 0.92323 0.0
H46 H 0.85927 0.92883 0.84617 0.0
C47 C 0.91781 0.86603 0.85413 0.0
C48 C 0.90235 0.89618 0.83855 0.0
C49 C 0.90525 0.84741 0.88583 0.0
C50 C 0.87508 0.86026 0.90067 0.0
C51 C 0.85808 0.88975 0.8879 0.0
C52 C 0.87221 0.90708 0.85662 0.0
N53 N 0.82792 0.8991 0.90862 0.0
C54 C 0.80096 0.92304 0.91111 0.0
H55 H 0.72011 0.21462 0.32379 0.0
H56 H 0.69132 0.29559 0.391 0.0
H57 H 0.62194 0.25729 0.30228 0.0
C58 C 0.70129 0.2321 0.33075 0.0
C59 C 0.66971 0.23234 0.30975 0.0
C60 C 0.70926 0.25442 0.36033 0.0
C61 C 0.68548 0.27823 0.36832 0.0
C62 C 0.65414 0.27947 0.34691 0.0
C63 C 0.64659 0.25663 0.31783 0.0
N64 N 0.62951 0.30335 0.35335 0.0
C65 C 0.6273 0.32102 0.38571 0.0
H66 H 0.30021 0.71212 0.2035 0.0
H67 H 0.31246 0.60551 0.22269 0.0
H68 H 0.37401 0.68112 0.28742 0.0
C69 C 0.31203 0.69211 0.2192 0.0
C70 C 0.33797 0.70072 0.24675 0.0
C71 C 0.30287 0.65788 0.21008 0.0
C72 C 0.31945 0.63211 0.22927 0.0
C73 C 0.34439 0.64018 0.25769 0.0
C74 C 0.35385 0.6746 0.26629 0.0
N75 N 0.36001 0.61303 0.27631 0.0
C76 C 0.3759 0.61566 0.31121 0.0
H77 H 0.24398 0.22717 0.72653 0.0
H78 H 0.28622 0.27137 0.82775 0.0
H79 H 0.22896 0.17304 0.82761 0.0
C80 C 0.24848 0.22542 0.75591 0.0
C81 C 0.2347 0.19659 0.77456 0.0
C82 C 0.26687 0.25259 0.77488 0.0
C83 C 0.27203 0.25049 0.81294 0.0
C84 C 0.25811 0.22194 0.83207 0.0
C85 C 0.24 0.19484 0.81274 0.0
N86 N 0.2603 0.22097 0.87078 0.0
C87 C 0.25916 0.25047 0.8911 0.0
Nd88 Nd 0.06901 1.01216 0.53952 0.0
Nd89 Nd 1.02719 0.06864 0.54008 0.0
C90 C 0.09654 0.95274 0.54064 0.0
C91 C 0.11168 0.93239 0.57037 0.0
C92 C 0.13677 0.91006 0.56304 0.0
C93 C 0.1555 0.89487 0.59172 0.0
C94 C 0.14944 0.90187 0.62823 0.0
C95 C 0.12317 0.92318 0.63536 0.0
C96 C 0.10457 0.93845 0.60668 0.0
C97 C 0.09818 0.06384 0.58468 0.0
C98 C 1.01299 1.01064 0.60778 0.0
C99 C 0.99887 0.12782 0.54327 0.0
C100 C 0.97767 0.14983 0.52002 0.0
C101 C 0.96906 0.18101 0.53373 0.0
C102 C 0.94409 0.19953 0.51498 0.0
C103 C 0.92714 0.18705 0.48222 0.0
C104 C 0.93712 0.1565 0.46772 0.0
C105 C 0.96214 0.13803 0.48648 0.0
C106 C 0.9961 0.01675 0.49691 0.0
C107 C 0.08467 0.06915 0.47224 0.0
O108 O 0.06302 0.95547 0.54017 0.0
O109 O 0.11413 0.98177 0.53456 0.0
O110 O 0.11575 0.0472 0.56297 0.0
O111 O 0.06684 0.05288 0.58213 0.0
O112 O 1.03204 0.99195 0.58767 0.0
O113 O 1.01045 0.04302 0.59675 0.0
O114 O 1.03123 0.12557 0.53576 0.0
O115 O 0.9833 0.0984 0.55172 0.0
O116 O 0.97976 0.03486 0.51834 0.0
O117 O 1.02782 0.02686 0.49777 0.0
O118 O 0.06507 0.08806 0.49177 0.0
O119 O 0.08713 0.03693 0.48356 0.0
H120 H 0.14293 0.90553 0.53518 0.0
H121 H 0.17587 0.87897 0.58524 0.0
H122 H 0.11756 0.92875 0.66313 0.0
H123 H 0.08557 0.95597 0.61292 0.0
H124 H 0.98051 0.1903 0.55979 0.0
H125 H 0.93684 0.22272 0.52713 0.0
H126 H 0.92498 0.14643 0.44229 0.0
H127 H 0.96834 0.11387 0.47558 0.0
Nd128 Nd 0.52602 0.03085 0.07205 0.0
Nd129 Nd 0.53102 0.07319 0.03006 0.0
C130 C 0.51674 0.97404 0.11133 0.0
C131 C 0.49435 0.95712 0.13822 0.0
C132 C 0.50988 0.94217 0.16927 0.0
C133 C 0.48972 0.92225 0.19295 0.0
C134 C 0.45361 0.9167 0.18585 0.0
C135 C 0.43789 0.93324 0.15572 0.0
C136 C 0.45808 0.95333 0.13213 0.0
C137 C 0.47329 0.07567 0.09237 0.0
C138 C 0.49064 1.0112 0.99533 0.0
C139 C 0.53633 0.13196 0.99326 0.0
C140 C 0.56007 0.15246 0.96997 0.0
C141 C 0.58892 0.17247 0.98539 0.0
C142 C 0.60954 0.19386 0.96342 0.0
C143 C 0.60175 0.19582 0.92557 0.0
C144 C 0.57323 0.17536 0.91011 0.0
C145 C 0.55256 0.15402 0.93209 0.0
C146 C 0.5852 0.03099 1.00875 0.0
C147 C 0.57625 0.08652 0.10422 0.0
O148 O 0.50351 0.97762 0.07814 0.0
O149 O 0.53706 1.00041 0.12227 0.0
O150 O 0.49832 0.06418 0.11275 0.0
O151 O 0.47869 0.06596 0.05976 0.0
O152 O 0.51222 0.99954 0.02005 0.0
O153 O 0.48603 0.04359 0.99742 0.0
O154 O 0.54576 0.12886 0.0277 0.0
O155 O 0.52096 0.1038 0.97977 0.0
O156 O 0.56207 0.04515 0.98813 0.0
O157 O 0.5784 0.03799 0.04188 0.0
O158 O 0.55451 0.10169 0.08215 0.0
O159 O 0.57578 0.05366 0.10092 0.0
H160 H 0.53781 0.94494 0.17454 0.0
H161 H 0.50255 0.9103 0.21621 0.0
H162 H 0.41021 0.92924 0.14921 0.0
H163 H 0.44544 0.96477 0.10843 0.0
H164 H 0.59522 0.17221 1.01455 0.0
H165 H 0.63099 0.20964 0.9763 0.0
H166 H 0.56676 0.17596 0.88099 0.0
H167 H 0.53032 0.13913 0.91948 0.0
Nd168 Nd 0.52399 0.54486 0.59854 0.0
Nd169 Nd 0.58822 0.57988 0.56554 0.0
C170 C 0.46149 0.52896 0.62204 0.0
C171 C 0.4382 0.50096 0.63501 0.0
C172 C 0.40352 0.50684 0.6393 0.0
C173 C 0.38059 0.48086 0.65196 0.0
C174 C 0.39206 0.44853 0.66053 0.0
C175 C 0.427 0.44274 0.65623 0.0
C176 C 0.44996 0.46883 0.64345 0.0
C177 C 0.5851 0.52756 0.63204 0.0
C178 C 0.55065 0.62383 0.62172 0.0
C179 C 0.64749 0.60166 0.53805 0.0
C180 C 0.65856 0.63176 0.51585 0.0
C181 C 0.67797 0.65985 0.53233 0.0
C182 C 0.68626 0.68937 0.51209 0.0
C183 C 0.67554 0.69129 0.47489 0.0
C184 C 0.657 0.66286 0.45816 0.0
C185 C 0.6486 0.63341 0.47839 0.0
C186 C 0.5263 0.59474 0.53011 0.0
C187 C 0.56525 0.49859 0.54784 0.0
O188 O 0.48857 0.53864 0.6436 0.0
O189 O 0.46826 0.52854 0.58761 0.0
O190 O 0.5573 0.5067 0.62896 0.0
O191 O 0.57914 0.55707 0.62068 0.0
O192 O 0.52407 0.60104 0.61557 0.0
O193 O 0.58099 0.6202 0.60843 0.0
O194 O 0.62521 0.57892 0.52211 0.0
O195 O 0.64055 0.60749 0.57177 0.0
O196 O 0.55341 0.61629 0.53347 0.0
O197 O 0.53345 0.56611 0.54274 0.0
O198 O 0.59105 0.52271 0.55236 0.0
O199 O 0.53417 0.5024 0.55955 0.0
H200 H 0.39418 0.53164 0.633 0.0
H201 H 0.35398 0.48621 0.65547 0.0
H202 H 0.43644 0.41796 0.66228 0.0
H203 H 0.47675 0.46399 0.64015 0.0
H204 H 0.68631 0.65919 0.56103 0.0
H205 H 0.70115 0.71068 0.52555 0.0
H206 H 0.64827 0.66365 0.42958 0.0
H207 H 0.63373 0.61221 0.46472 0.0
Nd208 Nd 1.02553 0.56037 0.05251 0.0
Nd209 Nd 0.06894 0.56461 0.9916 0.0
C210 C 0.9726 0.56245 0.09423 0.0
C211 C 0.95448 0.59103 0.10774 0.0
C212 C 0.95374 0.59591 0.14548 0.0
C213 C 0.94165 0.62557 0.159 0.0
C214 C 0.92986 0.65083 0.13499 0.0
C215 C 0.92903 0.6452 0.0972 0.0
C216 C 0.94135 0.61562 0.08367 0.0
C217 C 0.08863 0.59373 0.07019 0.0
C218 C 1.01785 0.62881 0.99179 0.0
C219 C 0.12039 0.55808 0.94886 0.0
C220 C 0.13898 0.52718 0.94493 0.0
C221 C 0.12236 0.49529 0.95356 0.0
C222 C 0.14038 0.46601 0.95423 0.0
C223 C 0.17539 0.46784 0.94596 0.0
C224 C 0.19186 0.49956 0.93614 0.0
C225 C 0.1738 0.52917 0.93597 0.0
C226 C 1.00612 0.52907 0.97632 0.0
C227 C 0.07803 0.49773 0.05349 0.0
O228 O 0.96877 0.55603 0.0592 0.0
O229 O 1.00463 0.56112 0.10728 0.0
O230 O 0.0726 0.57261 0.09188 0.0
O231 O 0.07101 0.5981 0.04062 0.0
O232 O 1.00603 0.6103 0.02017 0.0
O233 O 0.04517 0.61778 0.97616 0.0
O234 O 0.12495 0.57254 0.98085 0.0
O235 O 0.0878 0.55543 0.93696 0.0
O236 O 1.01974 0.55225 0.95503 0.0
O237 O 1.02531 0.52539 1.00486 0.0
O238 O 0.09154 0.51806 0.0274 0.0
O239 O 0.04839 0.50648 0.06613 0.0
H240 H 0.96375 0.57732 0.16455 0.0
H241 H 0.94209 0.62903 0.18827 0.0
H242 H 0.92028 0.66433 0.07806 0.0
H243 H 0.94171 0.61269 0.0544 0.0
H244 H 0.09548 0.49306 0.96055 0.0
H245 H 0.12689 0.44185 0.96133 0.0
H246 H 0.21887 0.50157 0.92966 0.0
H247 H 0.18715 0.5536 0.92959 0.0
H248 H 0.16272 0.19675 0.3017 0.0
H249 H 0.2087 0.10681 0.26522 0.0
H250 H 0.18457 0.0741 0.31606 0.0
H251 H 0.17491 0.17861 0.40108 0.0
H252 H 0.13391 0.19285 0.41284 0.0
H253 H 0.15481 0.21073 0.3736 0.0
H254 H 0.09972 0.19374 0.33284 0.0
H255 H 0.07867 0.17582 0.37197 0.0
H256 H 0.08186 0.14992 0.33225 0.0
H257 H 0.15471 0.04808 0.3733 0.0
H258 H 0.12316 0.03274 0.4279 0.0
H259 H 0.09225 0.13621 0.4331 0.0
C260 C 0.16791 0.17015 0.30408 0.0
C261 C 0.18949 0.15577 0.27771 0.0
C262 C 0.19416 0.12032 0.28384 0.0
C263 C 0.17986 0.10081 0.31324 0.0
C264 C 0.15967 0.11569 0.33837 0.0
C265 C 0.15349 0.14972 0.33414 0.0
C266 C 0.13046 0.15887 0.36565 0.0
C267 C 0.14965 0.18696 0.38972 0.0
C268 C 0.09561 0.17029 0.34973 0.0
C269 C 0.12472 0.12498 0.38796 0.0
C270 C 0.14208 0.10056 0.37127 0.0
C271 C 0.1412 0.06739 0.38611 0.0
C272 C 0.12275 0.05874 0.41794 0.0
C273 C 0.10412 0.08237 0.43684 0.0
C274 C 0.10557 0.11655 0.42066 0.0
H275 H 0.47891 0.84621 0.86844 0.0
H276 H 0.40285 0.89433 0.79804 0.0
H277 H 0.40992 0.94572 0.83706 0.0
H278 H 0.45067 0.87523 0.9511 0.0
H279 H 0.49336 0.88183 0.9736 0.0
H280 H 0.48507 0.8503 0.93823 0.0
H281 H 0.53513 0.87921 0.90227 0.0
H282 H 0.54388 0.91058 0.93779 0.0
H283 H 0.53535 0.92405 0.89125 0.0
H284 H 0.42351 0.99106 0.88581 0.0
H285 H 0.44319 0.02658 0.93977 0.0
H286 H 0.50835 0.94747 0.9792 0.0
C287 C 0.46446 0.86794 0.86079 0.0
C288 C 0.44063 0.86653 0.83004 0.0
C289 C 0.42138 0.89506 0.82142 0.0
C290 C 0.42521 0.9243 0.84342 0.0
C291 C 0.44826 0.92459 0.87412 0.0
C292 C 0.46767 0.8972 0.88273 0.0
C293 C 0.4892 0.90318 0.91828 0.0
C294 C 0.47894 0.87602 0.94699 0.0
C295 C 0.5282 0.90433 0.91201 0.0
C296 C 0.47864 0.93799 0.92847 0.0
C297 C 0.45522 0.95011 0.90258 0.0
C298 C 0.44189 0.98182 0.90624 0.0
C299 C 0.45308 1.00178 0.93701 0.0
C300 C 0.47708 0.98975 0.96382 0.0
C301 C 0.48975 0.95734 0.95938 0.0
H302 H 0.72132 0.39495 0.69868 0.0
H303 H 0.80201 0.47764 0.69463 0.0
H304 H 0.75823 0.51708 0.67254 0.0
H305 H 0.66994 0.42015 0.61718 0.0
H306 H 0.62915 0.40757 0.63654 0.0
H307 H 0.66719 0.3859 0.65021 0.0
H308 H 0.65892 0.39975 0.71792 0.0
H309 H 0.62104 0.42167 0.70441 0.0
H310 H 0.65648 0.44351 0.7312 0.0
H311 H 0.70514 0.54769 0.65331 0.0
H312 H 0.64686 0.56687 0.63642 0.0
H313 H 0.60123 0.46382 0.65302 0.0
C314 C 0.72964 0.42126 0.69254 0.0
C315 C 0.76471 0.43354 0.69777 0.0
C316 C 0.77506 0.46804 0.69025 0.0
C317 C 0.75044 0.49051 0.67784 0.0
C318 C 0.71578 0.47782 0.67318 0.0
C319 C 0.70541 0.44395 0.68006 0.0
C320 C 0.66654 0.43693 0.67361 0.0
C321 C 0.6577 0.41111 0.64253 0.0
C322 C 0.64977 0.42475 0.70889 0.0
C323 C 0.6566 0.47218 0.66246 0.0
C324 C 0.68533 0.49543 0.66229 0.0
C325 C 0.68247 0.52969 0.6532 0.0
C326 C 0.64933 0.54037 0.64375 0.0
C327 C 0.6197 0.51682 0.64352 0.0
C328 C 0.62348 0.48239 0.65309 0.0
H329 H 0.81064 0.80557 0.15598 0.0
H330 H 0.88547 0.84503 0.24078 0.0
H331 H 0.92281 0.7983 0.22938 0.0
H332 H 0.81685 0.71861 0.17623 0.0
H333 H 0.81272 0.70438 0.12952 0.0
H334 H 0.79348 0.74249 0.14198 0.0
H335 H 0.82753 0.77718 0.09345 0.0
H336 H 0.84668 0.73908 0.08061 0.0
H337 H 0.87409 0.77661 0.09418 0.0
H338 H 0.94935 0.74518 0.21201 0.0
H339 H 0.96506 0.69036 0.18799 0.0
H340 H 0.87289 0.68539 0.11416 0.0
C341 C 0.83529 0.80462 0.17148 0.0
C342 C 0.84578 0.82876 0.19883 0.0
C343 C 0.87758 0.82674 0.21936 0.0
C344 C 0.89878 0.80035 0.21312 0.0
C345 C 0.88761 0.77644 0.18624 0.0
C346 C 0.85676 0.77847 0.1655 0.0
C347 C 0.85008 0.74871 0.13942 0.0
C348 C 0.81628 0.72729 0.14728 0.0
C349 C 0.84958 0.76115 0.09955 0.0
C350 C 0.88164 0.72931 0.14918 0.0
C351 C 0.90297 0.74579 0.17618 0.0
C352 C 0.933 0.73216 0.19067 0.0
C353 C 0.94154 0.70091 0.17709 0.0
C354 C 0.92014 0.68365 0.1493 0.0
C355 C 0.8899 0.69821 0.13513 0.0
H356 H 0.28322 0.16699 0.12448 0.0
H357 H 0.30938 0.15272 0.23994 0.0
H358 H 0.36237 0.12704 0.22505 0.0
H359 H 0.31772 0.08671 0.09402 0.0
H360 H 0.3356 0.10451 0.05314 0.0
H361 H 0.29894 0.12247 0.07153 0.0
H362 H 0.33266 0.18168 0.074 0.0
H363 H 0.3694 0.16388 0.05557 0.0
H364 H 0.37471 0.18672 0.09814 0.0
H365 H 0.41589 0.10175 0.1986 0.0
H366 H 0.46193 0.08007 0.16465 0.0
H367 H 0.40769 0.10683 0.06273 0.0
C368 C 0.29997 0.15866 0.14693 0.0
C369 C 0.28964 0.16245 0.18436 0.0
C370 C 0.31407 0.15036 0.21137 0.0
C371 C 0.34526 0.13556 0.20299 0.0
C372 C 0.35405 0.13189 0.16668 0.0
C373 C 0.33207 0.14312 0.13881 0.0
C374 C 0.34855 0.13548 0.10202 0.0
C375 C 0.32371 0.11084 0.07877 0.0
C376 C 0.3568 0.16893 0.08117 0.0
C377 C 0.38285 0.11839 0.11351 0.0
C378 C 0.38505 0.11695 0.15127 0.0
C379 C 0.41382 0.10294 0.16909 0.0
C380 C 0.44054 0.09035 0.14894 0.0
C381 C 0.44047 0.09056 0.10993 0.0
C382 C 0.4101 0.10528 0.0922 0.0
H383 H 0.28004 0.77577 0.72116 0.0
H384 H 0.3118 0.85493 0.80027 0.0
H385 H 0.26521 0.8897 0.77452 0.0
H386 H 0.26433 0.83005 0.64733 0.0
H387 H 0.22728 0.80452 0.62753 0.0
H388 H 0.2602 0.78452 0.65486 0.0
H389 H 0.21363 0.75848 0.69715 0.0
H390 H 0.18047 0.77832 0.66982 0.0
H391 H 0.18573 0.78612 0.71822 0.0
H392 H 0.21866 0.91737 0.73659 0.0
H393 H 0.17656 0.93662 0.68915 0.0
H394 H 0.17488 0.83863 0.63518 0.0
C395 C 0.27655 0.80014 0.73343 0.0
C396 C 0.29877 0.81282 0.76278 0.0
C397 C 0.29442 0.84493 0.77796 0.0
C398 C 0.26812 0.8647 0.76355 0.0
C399 C 0.24664 0.8517 0.73416 0.0
C400 C 0.25052 0.82008 0.71936 0.0
C401 C 0.22574 0.81293 0.68635 0.0
C402 C 0.24558 0.80772 0.652 0.0
C403 C 0.19986 0.78214 0.69332 0.0
C404 C 0.2079 0.84581 0.68422 0.0
C405 C 0.22 0.86768 0.71225 0.0
C406 C 0.20859 0.90025 0.71486 0.0
C407 C 0.18451 0.91088 0.68787 0.0
C408 C 0.1722 0.88905 0.65853 0.0
C409 C 0.1838 0.85594 0.65716 0.0
H410 H 0.86024 0.45299 0.83267 0.0
H411 H 0.85448 0.35942 0.8967 0.0
H412 H 0.89565 0.38703 0.94378 0.0
H413 H 0.95044 0.47266 0.84877 0.0
H414 H 0.94726 0.51814 0.85042 0.0
H415 H 0.91531 0.4917 0.82372 0.0
H416 H 0.86646 0.51538 0.85904 0.0
H417 H 0.89834 0.54177 0.88603 0.0
H418 H 0.86809 0.51232 0.90814 0.0
H419 H 0.93987 0.42464 0.98251 0.0
H420 H 0.98501 0.46783 1.00772 0.0
H421 H 0.96226 0.53518 0.91656 0.0
C422 C 0.86771 0.43813 0.85646 0.0
C423 C 0.85422 0.40398 0.86091 0.0
C424 C 0.86423 0.38574 0.89285 0.0
C425 C 0.88762 0.40118 0.91969 0.0
C426 C 0.90063 0.43486 0.91419 0.0
C427 C 0.89102 0.45302 0.88327 0.0
C428 C 0.9098 0.48823 0.88279 0.0
C429 C 0.93202 0.49294 0.84946 0.0
C430 C 0.88413 0.51606 0.88409 0.0
C431 C 0.93209 0.48689 0.91792 0.0
C432 C 0.92618 0.45612 0.93599 0.0
C433 C 0.94456 0.44887 0.96867 0.0
C434 C 0.97005 0.47351 0.9828 0.0
C435 C 0.97703 0.50468 0.96396 0.0
C436 C 0.9574 0.51154 0.9315 0.0
H437 H 0.75498 0.80058 0.31239 0.0
H438 H 0.74183 0.8911 0.37502 0.0
H439 H 0.70914 0.8557 0.4194 0.0
H440 H 0.66955 0.75313 0.33154 0.0
H441 H 0.68898 0.71293 0.3346 0.0
H442 H 0.70569 0.74606 0.30459 0.0
H443 H 0.76698 0.743 0.33643 0.0
H444 H 0.75046 0.71033 0.36686 0.0
H445 H 0.77294 0.74898 0.38512 0.0
H446 H 0.68558 0.81 0.46104 0.0
H447 H 0.67014 0.75729 0.4957 0.0
H448 H 0.69954 0.69653 0.40623 0.0
C449 C 0.74394 0.81306 0.33462 0.0
C450 C 0.75046 0.84853 0.34016 0.0
C451 C 0.73682 0.86393 0.3703 0.0
C452 C 0.71822 0.84406 0.39554 0.0
C453 C 0.71341 0.80891 0.3901 0.0
C454 C 0.72551 0.79356 0.36015 0.0
C455 C 0.71994 0.75504 0.36254 0.0
C456 C 0.69452 0.74097 0.33147 0.0
C457 C 0.75464 0.73838 0.36276 0.0
C458 C 0.70398 0.75109 0.39909 0.0
C459 C 0.70006 0.78245 0.41436 0.0
C460 C 0.688 0.78529 0.44911 0.0
C461 C 0.67964 0.75526 0.46872 0.0
C462 C 0.68357 0.72287 0.45359 0.0
C463 C 0.69565 0.72091 0.4182 0.0
H464 H 0.11635 0.31151 0.16118 0.0
H465 H 0.22057 0.32521 0.124 0.0
H466 H 0.20632 0.37962 0.09421 0.0
H467 H 0.07229 0.34765 0.07975 0.0
H468 H 0.04124 0.36887 0.10414 0.0
H469 H 0.05923 0.3312 0.12327 0.0
H470 H 0.0798 0.3643 0.18192 0.0
H471 H 0.06177 0.40204 0.163 0.0
H472 H 0.10688 0.40361 0.17877 0.0
H473 H 0.17969 0.43546 0.06595 0.0
H474 H 0.14564 0.48274 0.04361 0.0
H475 H 0.05708 0.43792 0.09886 0.0
C476 C 0.13653 0.32603 0.1472 0.0
C477 C 0.1705 0.31273 0.14619 0.0
C478 C 0.19485 0.3336 0.12646 0.0
C479 C 0.18672 0.3651 0.10901 0.0
C480 C 0.15352 0.37727 0.11059 0.0
C481 C 0.12873 0.35828 0.12946 0.0
C482 C 0.09487 0.3774 0.12666 0.0
C483 C 0.06513 0.35493 0.10732 0.0
C484 C 0.08524 0.38742 0.16487 0.0
C485 C 0.10422 0.40985 0.10341 0.0
C486 C 0.13835 0.40898 0.09442 0.0
C487 C 0.15296 0.43566 0.07294 0.0
C488 C 0.13299 0.46308 0.06018 0.0
C489 C 0.09777 0.46584 0.06865 0.0
C490 C 0.08362 0.43799 0.09118 0.0
H491 H 0.77319 0.30269 0.86575 0.0
H492 H 0.70804 0.35568 0.78714 0.0
H493 H 0.65675 0.31928 0.80508 0.0
H494 H 0.72867 0.21882 0.85404 0.0
H495 H 0.73371 0.20795 0.90179 0.0
H496 H 0.7654 0.23728 0.88168 0.0
H497 H 0.75602 0.28267 0.93012 0.0
H498 H 0.72434 0.25349 0.9504 0.0
H499 H 0.71285 0.29521 0.9356 0.0
H500 H 0.61232 0.27839 0.83326 0.0
H501 H 0.57802 0.23652 0.86982 0.0
H502 H 0.67252 0.21033 0.92975 0.0
C503 C 0.74812 0.30676 0.85239 0.0
C504 C 0.74464 0.332 0.82499 0.0
C505 C 0.71142 0.3362 0.80785 0.0
C506 C 0.68213 0.31576 0.81797 0.0
C507 C 0.68651 0.29123 0.84519 0.0
C508 C 0.71868 0.28665 0.86214 0.0
C509 C 0.71633 0.259 0.89109 0.0
C510 C 0.73727 0.22898 0.88156 0.0
C511 C 0.72807 0.27347 0.92904 0.0
C512 C 0.67772 0.24896 0.88809 0.0
C513 C 0.66099 0.26772 0.86136 0.0
C514 C 0.62518 0.26336 0.85408 0.0
C515 C 0.60595 0.23936 0.87484 0.0
C516 C 0.62256 0.22001 0.90259 0.0
C517 C 0.65898 0.22487 0.90898 0.0
H518 H 0.83105 0.94524 0.37411 0.0
H519 H 0.90033 0.89937 0.30372 0.0
H520 H 0.95088 0.92445 0.34173 0.0
H521 H 0.8851 0.02342 0.39427 0.0
H522 H 0.87308 0.02417 0.44091 0.0
H523 H 0.84306 1.00505 0.40613 0.0
H524 H 0.83864 0.94873 0.44364 0.0
H525 H 0.86892 0.96753 0.47833 0.0
H526 H 0.87761 0.92831 0.45684 0.0
H527 H 0.9938 0.95243 0.39013 0.0
H528 H 1.02495 0.98257 0.44301 0.0
H529 H 0.92637 1.00689 0.48213 0.0
C530 C 0.85685 0.94058 0.3665 0.0
C531 C 0.86175 0.92035 0.33596 0.0
C532 C 0.89596 0.91519 0.32672 0.0
C533 C 0.9248 0.9291 0.34831 0.0
C534 C 0.9189 0.94807 0.37892 0.0
C535 C 0.88572 0.95396 0.38779 0.0
C536 C 0.88602 0.97405 0.42269 0.0
C537 C 0.87093 1.00873 0.41556 0.0
C538 C 0.86666 0.95341 0.4521 0.0
C539 C 0.92458 0.97835 0.4324 0.0
C540 C 0.94325 0.9634 0.40682 0.0
C541 C 0.97941 0.96428 0.41025 0.0
C542 C 0.99686 0.9813 0.44036 0.0
C543 C 0.97802 0.99693 0.46658 0.0
C544 C 0.94146 0.99507 0.46258 0.0
H545 H 0.45555 0.71606 0.77294 0.0
H546 H 0.50609 0.81247 0.73823 0.0
H547 H 0.54263 0.78119 0.69911 0.0
H548 H 0.52938 0.66262 0.76806 0.0
H549 H 0.5015 0.62701 0.75003 0.0
H550 H 0.48495 0.65663 0.78048 0.0
H551 H 0.43515 0.66724 0.73223 0.0
H552 H 0.4517 0.638 0.70155 0.0
H553 H 0.44561 0.68118 0.68699 0.0
H554 H 0.56943 0.73838 0.65826 0.0
H555 H 0.58175 0.68957 0.61973 0.0
H556 H 0.50846 0.62355 0.67786 0.0
C557 C 0.47461 0.73075 0.75757 0.0
C558 C 0.47776 0.76684 0.75869 0.0
C559 C 0.50343 0.78483 0.73835 0.0
C560 C 0.52418 0.76724 0.71583 0.0
C561 C 0.51896 0.73168 0.71395 0.0
C562 C 0.49479 0.71374 0.7345 0.0
C563 C 0.49102 0.67623 0.72498 0.0
C564 C 0.50241 0.65434 0.75785 0.0
C565 C 0.45367 0.66503 0.71058 0.0
C566 C 0.51618 0.67581 0.69515 0.0
C567 C 0.53273 0.70776 0.68954 0.0
C568 C 0.55668 0.71327 0.66265 0.0
C569 C 0.56353 0.68548 0.64089 0.0
C570 C 0.54581 0.65296 0.64563 0.0
C571 C 0.52217 0.64822 0.67336 0.0
H572 H 0.94591 0.87841 0.77871 0.0
H573 H 0.89656 0.96496 0.81869 0.0
H574 H 0.91744 0.99947 0.76753 0.0
H575 H 1.02348 0.92961 0.74654 0.0
H576 H 1.0269 0.90453 0.70626 0.0
H577 H 1.0079 0.88511 0.74586 0.0
H578 H 0.95249 0.86585 0.70658 0.0
H579 H 0.97134 0.8852 0.66688 0.0
H580 H 0.92991 0.89707 0.6802 0.0
H581 H 0.94451 0.0278 0.70931 0.0
H582 H 0.9739 0.04514 0.65369 0.0
H583 H 1.00942 0.94369 0.64626 0.0
C584 C 0.93929 0.90463 0.77711 0.0
C585 C 0.91787 0.91741 0.80463 0.0
C586 C 0.91119 0.95252 0.79932 0.0
C587 C 0.92358 0.97311 0.7697 0.0
C588 C 0.94376 0.95972 0.74353 0.0
C589 C 0.95177 0.92613 0.74694 0.0
C590 C 0.97436 0.91858 0.71454 0.0
C591 C 1.0103 0.90885 0.72917 0.0
C592 C 0.95594 0.88995 0.69064 0.0
C593 C 0.97769 0.95283 0.69258 0.0
C594 C 0.95964 0.97611 0.71021 0.0
C595 C 0.95855 1.00935 0.69576 0.0
C596 C 0.97572 0.0192 0.66338 0.0
C597 C 0.99486 0.99669 0.6436 0.0
C598 C 0.99547 0.96248 0.65938 0.0
H599 H 0.63279 0.23967 0.24314 0.0
H600 H 0.68498 0.16532 0.31043 0.0
H601 H 0.67066 0.12206 0.26293 0.0
H602 H 0.56169 0.18122 0.21179 0.0
H603 H 0.55785 0.1995 0.16662 0.0
H604 H 0.57456 0.22579 0.20462 0.0
H605 H 0.6302 0.24283 0.17076 0.0
H606 H 0.61374 0.2164 0.13272 0.0
H607 H 0.65552 0.20995 0.15502 0.0
H608 H 0.64971 0.08614 0.20955 0.0
H609 H 0.61991 0.05861 0.15507 0.0
H610 H 0.57821 0.15458 0.12295 0.0
C611 C 0.64119 0.21432 0.24801 0.0
C612 C 0.66065 0.20633 0.28053 0.0
C613 C 0.67104 0.17266 0.28549 0.0
C614 C 0.66282 0.1477 0.2587 0.0
C615 C 0.64384 0.15651 0.22707 0.0
C616 C 0.63286 0.18886 0.22165 0.0
C617 C 0.61116 0.19092 0.18592 0.0
C618 C 0.57412 0.19988 0.19265 0.0
C619 C 0.62871 0.21655 0.15955 0.0
C620 C 0.6114 0.15456 0.1724 0.0
C621 C 0.63079 0.13533 0.19645 0.0
C622 C 0.63451 0.10093 0.19045 0.0
C623 C 0.61749 0.08553 0.15936 0.0
C624 C 0.59673 0.10441 0.13471 0.0
C625 C 0.59405 0.13953 0.14116 0.0
H626 H 0.43614 0.64814 0.3395 0.0
H627 H 0.34872 0.57799 0.36501 0.0
H628 H 0.37549 0.56947 0.42704 0.0
H629 H 0.50052 0.60264 0.38376 0.0
H630 H 0.52732 0.63936 0.40085 0.0
H631 H 0.49965 0.643 0.36002 0.0
H632 H 0.47053 0.69252 0.38884 0.0
H633 H 0.49822 0.68907 0.4298 0.0
H634 H 0.45172 0.68615 0.43237 0.0
H635 H 0.41452 0.56285 0.48231 0.0
H636 H 0.46258 0.56051 0.52924 0.0
H637 H 0.52409 0.63711 0.47031 0.0
C638 C 0.42247 0.63164 0.35861 0.0
C639 C 0.39041 0.61384 0.34812 0.0
C640 C 0.37323 0.59195 0.37309 0.0
C641 C 0.3882 0.58702 0.40825 0.0
C642 C 0.42016 0.60447 0.41787 0.0
C643 C 0.43702 0.62661 0.39399 0.0
C644 C 0.47211 0.64052 0.41057 0.0
C645 C 0.50163 0.63078 0.38742 0.0
C646 C 0.47319 0.67938 0.41571 0.0
C647 C 0.47272 0.62195 0.447 0.0
C648 C 0.44242 0.6014 0.4506 0.0
C649 C 0.43804 0.57943 0.48025 0.0
C650 C 0.46546 0.5782 0.50678 0.0
C651 C 0.49665 0.59901 0.50378 0.0
C652 C 0.5001 0.62158 0.47377 0.0
H653 H 0.26358 0.31386 0.86183 0.0
H654 H 0.24109 0.2569 0.96036 0.0
H655 H 0.2241 0.3096 0.98875 0.0
H656 H 0.29596 0.39649 0.90753 0.0
H657 H 0.27618 0.42127 0.87154 0.0
H658 H 0.29171 0.38054 0.86146 0.0
H659 H 0.2309 0.36014 0.83282 0.0
H660 H 0.21507 0.40056 0.84295 0.0
H661 H 0.19347 0.36162 0.85954 0.0
H662 H 0.20179 0.36562 1.00248 0.0
H663 H 0.17667 0.4214 1.00138 0.0
H664 H 0.21479 0.4427 0.89432 0.0
C665 C 0.25619 0.31282 0.8898 0.0
C666 C 0.2541 0.28178 0.90937 0.0
C667 C 0.2433 0.28082 0.9454 0.0
C668 C 0.23368 0.31055 0.96164 0.0
C669 C 0.23534 0.34084 0.94139 0.0
C670 C 0.24667 0.34228 0.90636 0.0
C671 C 0.24307 0.37718 0.88925 0.0
C672 C 0.27886 0.39492 0.88203 0.0
C673 C 0.2192 0.3747 0.85408 0.0
C674 C 0.22647 0.39473 0.91948 0.0
C675 C 0.22268 0.37344 0.94949 0.0
C676 C 0.20531 0.38276 0.9795 0.0
C677 C 0.19104 0.41442 0.97862 0.0
C678 C 0.19421 0.43643 0.94802 0.0
C679 C 0.21277 0.42669 0.91841 0.0
H680 H 0.76911 0.93064 0.97989 0.0
H681 H 0.75681 0.9595 0.86596 0.0
H682 H 0.70436 0.98836 0.87912 0.0
H683 H 0.67551 0.91543 0.99518 0.0
H684 H 0.67851 0.9328 0.04063 0.0
H685 H 0.7154 0.91452 0.0231 0.0
H686 H 0.75299 0.97062 0.03638 0.0
H687 H 0.71621 0.98905 0.05396 0.0
H688 H 0.73899 1.01018 1.01763 0.0
H689 H 0.64973 1.01458 0.90471 0.0
H690 H 0.60243 0.03515 0.93773 0.0
H691 H 0.64567 0.99264 0.03839 0.0
C692 C 0.75566 0.94321 0.95751 0.0
C693 C 0.76888 0.94222 0.92116 0.0
C694 C 0.74891 0.95927 0.89376 0.0
C695 C 0.71842 0.97598 0.90121 0.0
C696 C 0.70638 0.97641 0.93678 0.0
C697 C 0.72458 0.96046 0.96469 0.0
C698 C 0.70556 0.9649 1.00055 0.0
C699 C 0.69302 0.92982 1.01579 0.0
C700 C 0.72989 0.98486 0.02883 0.0
C701 C 0.67396 0.9857 0.98873 0.0
C702 C 0.67527 0.99177 0.95155 0.0
C703 C 0.64918 1.00977 0.93376 0.0
C704 C 0.62171 0.02166 0.95336 0.0
C705 C 0.61846 0.01674 0.99175 0.0
C706 C 0.64601 0.99799 1.00945 0.0
H707 H 0.7383 0.19655 0.38478 0.0
H708 H 0.75568 0.30701 0.38547 0.0
H709 H 0.81337 0.30227 0.41752 0.0
H710 H 0.78148 0.18121 0.47329 0.0
H711 H 0.79903 0.14292 0.45839 0.0
H712 H 0.75862 0.15556 0.43766 0.0
H713 H 0.78386 0.15426 0.37393 0.0
H714 H 0.82445 0.14195 0.39449 0.0
H715 H 0.82369 0.17945 0.36583 0.0
H716 H 0.8708 0.28469 0.44688 0.0
H717 H 0.92141 0.25615 0.47319 0.0
H718 H 0.86548 0.15741 0.45231 0.0
C719 C 0.75417 0.21981 0.39172 0.0
C720 C 0.74254 0.25218 0.38247 0.0
C721 C 0.76392 0.28196 0.39256 0.0
C722 C 0.7968 0.27949 0.41054 0.0
C723 C 0.80777 0.24707 0.41838 0.0
C724 C 0.78689 0.21779 0.40952 0.0
C725 C 0.80472 0.18597 0.42026 0.0
C726 C 0.78478 0.1652 0.44912 0.0
C727 C 0.80946 0.16414 0.38662 0.0
C728 C 0.83917 0.2018 0.4362 0.0
C729 C 0.84049 0.23706 0.43502 0.0
C730 C 0.86991 0.2571 0.4481 0.0
C731 C 0.89851 0.24066 0.46307 0.0
C732 C 0.89756 0.20451 0.46474 0.0
C733 C 0.86738 0.18504 0.45094 0.0
H734 H 0.23864 0.68195 0.19946 0.0
H735 H 0.30689 0.61318 0.15421 0.0
H736 H 0.26103 0.59547 0.10685 0.0
H737 H 0.16405 0.62724 0.19072 0.0
H738 H 0.13481 0.65971 0.17918 0.0
H739 H 0.17453 0.67053 0.20597 0.0
H740 H 0.19199 0.71742 0.15885 0.0
H741 H 0.15226 0.70659 0.13177 0.0
H742 H 0.19348 0.70623 0.11149 0.0
H743 H 0.20614 0.58 0.06991 0.0
H744 H 0.14533 0.56652 0.04725 0.0
H745 H 0.11253 0.64594 0.11499 0.0
C746 C 0.24416 0.66381 0.17897 0.0
C747 C 0.27626 0.649 0.18028 0.0
C748 C 0.28235 0.62468 0.1537 0.0
C749 C 0.2566 0.61472 0.12655 0.0
C750 C 0.22501 0.62944 0.12631 0.0
C751 C 0.21867 0.65347 0.15182 0.0
C752 C 0.18141 0.66279 0.14781 0.0
C753 C 0.1626 0.65456 0.183 0.0
C754 C 0.1797 0.7005 0.13682 0.0
C755 C 0.16745 0.63938 0.1169 0.0
C756 C 0.19322 0.6208 0.10445 0.0
C757 C 0.186 0.5952 0.07846 0.0
C758 C 0.15148 0.588 0.06533 0.0
C759 C 0.12484 0.60653 0.07792 0.0
C760 C 0.13289 0.63262 0.1038 0.0
H761 H 0.33017 0.28928 0.78368 0.0
H762 H 0.23104 0.28636 0.72126 0.0
H763 H 0.25195 0.33693 0.68612 0.0
H764 H 0.34379 0.38241 0.78808 0.0
H765 H 0.38997 0.38255 0.784 0.0
H766 H 0.36672 0.34682 0.80518 0.0
H767 H 0.39029 0.30576 0.75953 0.0
H768 H 0.41346 0.34132 0.73806 0.0
H769 H 0.38316 0.3131 0.71119 0.0
H770 H 0.28409 0.38609 0.6563 0.0
H771 H 0.32543 0.43156 0.63407 0.0
H772 H 0.40323 0.40342 0.71676 0.0
C773 C 0.31275 0.29956 0.76292 0.0
C774 C 0.27912 0.28376 0.75494 0.0
C775 C 0.25715 0.29773 0.72735 0.0
C776 C 0.26867 0.32656 0.70744 0.0
C777 C 0.30213 0.34121 0.71562 0.0
C778 C 0.32381 0.32836 0.7428 0.0
C779 C 0.35883 0.34856 0.74559 0.0
C780 C 0.36519 0.36613 0.78293 0.0
C781 C 0.38815 0.32582 0.73814 0.0
C782 C 0.35365 0.37432 0.71522 0.0
C783 C 0.32067 0.36977 0.69848 0.0
C784 C 0.30991 0.39012 0.66935 0.0
C785 C 0.33352 0.4159 0.65701 0.0
C786 C 0.36747 0.42103 0.67375 0.0
C787 C 0.37755 0.39989 0.70323 0.0
H788 H 0.94932 0.79376 0.86106 0.0
H789 H 0.90442 0.82668 0.95909 0.0
H790 H 0.92528 0.77757 0.99207 0.0
H791 H 0.9347 0.70056 0.87732 0.0
H792 H 0.9759 0.68975 0.86232 0.0
H793 H 0.95663 0.72715 0.84419 0.0
H794 H 1.01214 0.76442 0.86438 0.0
H795 H 1.03159 0.7271 0.88251 0.0
H796 H 1.0285 0.76343 0.91139 0.0
H797 H 0.94976 0.72114 1.01742 0.0
H798 H 0.9787 0.66867 0.03202 0.0
H799 H 1.01522 0.6689 0.92271 0.0
C800 C 0.94369 0.79097 0.88948 0.0
C801 C 0.92281 0.81561 0.9057 0.0
C802 C 0.91788 0.80918 0.94366 0.0
C803 C 0.93041 0.78074 0.96353 0.0
C804 C 0.94957 0.75712 0.94675 0.0
C805 C 0.95682 0.76212 0.91056 0.0
C806 C 0.97936 0.73279 0.90012 0.0
C807 C 0.96054 0.71129 0.86912 0.0
C808 C 1.01502 0.74782 0.8889 0.0
C809 C 0.98336 0.71079 0.93568 0.0
C810 C 0.96544 0.72554 0.96203 0.0
C811 C 0.96398 0.70997 0.99668 0.0
C812 C 0.9808 0.67941 1.0049 0.0
C813 C 1.00034 0.66295 0.97947 0.0
C814 C 1.00131 0.67981 0.94385 0.0
H815 H 0.40487 0.72739 0.24691 0.0
H816 H 0.29969 0.75549 0.25517 0.0
H817 H 0.32042 0.81654 0.25114 0.0
H818 H 0.45111 0.80496 0.29487 0.0
H819 H 0.48527 0.80641 0.26351 0.0
H820 H 0.46358 0.76597 0.27582 0.0
H821 H 0.44859 0.75282 0.20736 0.0
H822 H 0.46988 0.79314 0.19489 0.0
H823 H 0.42516 0.78259 0.17974 0.0
H824 H 0.35063 0.87301 0.23544 0.0
H825 H 0.38758 0.91998 0.20896 0.0
H826 H 0.47251 0.8543 0.20915 0.0
C827 C 0.38652 0.7465 0.24958 0.0
C828 C 0.35083 0.73693 0.25189 0.0
C829 C 0.32722 0.76248 0.25371 0.0
C830 C 0.33879 0.79716 0.25161 0.0
C831 C 0.37404 0.80578 0.24782 0.0
C832 C 0.39762 0.78114 0.24713 0.0
C833 C 0.43305 0.7965 0.23762 0.0
C834 C 0.45983 0.79327 0.26989 0.0
C835 C 0.44482 0.78031 0.20284 0.0
C836 C 0.42531 0.83329 0.23124 0.0
C837 C 0.39138 0.83835 0.23805 0.0
C838 C 0.37744 0.86953 0.23072 0.0
C839 C 0.39852 0.89597 0.21541 0.0
C840 C 0.43302 0.89092 0.2072 0.0
C841 C 0.44663 0.85936 0.21608 0.0
H842 H 0.24617 0.16658 0.70974 0.0
H843 H 0.17084 0.16928 0.79226 0.0
H844 H 0.12847 0.13353 0.75326 0.0
H845 H 0.18828 0.17523 0.63441 0.0
H846 H 0.20789 0.14676 0.60505 0.0
H847 H 0.2339 0.16908 0.64094 0.0
H848 H 0.253 0.11172 0.66757 0.0
H849 H 0.22747 0.08918 0.63138 0.0
H850 H 0.22047 0.0783 0.67833 0.0
H851 H 0.09227 0.10419 0.70268 0.0
H852 H 0.06618 0.07682 0.64634 0.0
H853 H 0.16523 0.09171 0.59667 0.0
C854 C 0.22098 0.15903 0.71986 0.0
C855 C 0.21178 0.1705 0.75407 0.0
C856 C 0.17858 0.16027 0.76642 0.0
C857 C 0.15428 0.14022 0.74434 0.0
C858 C 0.16376 0.13039 0.71022 0.0
C859 C 0.19649 0.13891 0.69826 0.0
C860 C 0.19958 0.12623 0.65982 0.0
C861 C 0.2079 0.15611 0.63352 0.0
C862 C 0.22674 0.09978 0.65926 0.0
C863 C 0.16321 0.10988 0.65175 0.0
C864 C 0.14298 0.11271 0.68118 0.0
C865 C 0.10797 0.10129 0.67968 0.0
C866 C 0.09336 0.086 0.64746 0.0
C867 C 0.11382 0.08199 0.6173 0.0
C868 C 0.14915 0.09419 0.61948 0.0
H869 H 0.6562 0.38277 0.40991 0.0
H870 H 0.57611 0.30246 0.4296 0.0
H871 H 0.55353 0.33783 0.47686 0.0
H872 H 0.67002 0.4123 0.50667 0.0
H873 H 0.67681 0.45645 0.49318 0.0
H874 H 0.68887 0.4233 0.46398 0.0
H875 H 0.65047 0.44677 0.41067 0.0
H876 H 0.63805 0.47971 0.43977 0.0
H877 H 0.60517 0.4512 0.41672 0.0
H878 H 0.53572 0.38434 0.51656 0.0
H879 H 0.52603 0.43733 0.5488 0.0
H880 H 0.61873 0.48721 0.50481 0.0
C881 C 0.63455 0.37241 0.42502 0.0
C882 C 0.61806 0.33985 0.4168 0.0
C883 C 0.58928 0.32722 0.43616 0.0
C884 C 0.57627 0.34715 0.46291 0.0
C885 C 0.59256 0.37955 0.47003 0.0
C886 C 0.62138 0.39197 0.45203 0.0
C887 C 0.63291 0.42829 0.46354 0.0
C888 C 0.66931 0.43018 0.48301 0.0
C889 C 0.63155 0.45293 0.43072 0.0
C890 C 0.60547 0.43469 0.4899 0.0
C891 C 0.58254 0.40621 0.49337 0.0
C892 C 0.55383 0.40663 0.5145 0.0
C893 C 0.54844 0.43692 0.53258 0.0
C894 C 0.57169 0.46639 0.52955 0.0
C895 C 0.60072 0.465 0.50812 0.0
loop_
_geom_bond_atom_site_label_1
_geom_bond_atom_site_label_2
_geom_bond_distance
_geom_bond_site_symmetry_2
_ccdc_geom_bond_type
H0 C3 0.929 . S
H1 C6 0.929 . S
H2 C8 0.930 . S
C3 H0 0.929 . S
C3 C4 1.398 . S
C3 C5 1.396 . S
C4 C3 1.398 . S
C4 C8 1.407 . S
C5 C3 1.396 . S
C5 C6 1.394 . S
C6 H1 0.929 . S
C6 C5 1.394 . S
C6 C7 1.382 . S
C7 C6 1.382 . S
C7 C8 1.392 . S
C7 N9 1.420 . S
C8 H2 0.930 . S
C8 C4 1.407 . S
C8 C7 1.392 . S
N9 C7 1.420 . S
N9 C10 1.244 . S
C10 N9 1.244 . S
H11 C14 0.929 . S
H12 C17 0.929 . S
H13 C19 0.930 . S
C14 H11 0.929 . S
C14 C15 1.398 . S
C14 C16 1.396 . S
C15 C14 1.398 . S
C15 C19 1.407 . S
C16 C14 1.396 . S
C16 C17 1.394 . S
C17 H12 0.929 . S
C17 C16 1.394 . S
C17 C18 1.382 . S
C18 C17 1.382 . S
C18 C19 1.392 . S
C18 N20 1.420 . S
C19 H13 0.930 . S
C19 C15 1.407 . S
C19 C18 1.392 . S
N20 C18 1.420 . S
N20 C21 1.244 . S
C21 N20 1.244 . S
H22 C25 0.929 . S
H23 C28 0.929 . S
H24 C30 0.930 . S
C25 H22 0.929 . S
C25 C26 1.398 . S
C25 C27 1.396 . S
C26 C25 1.398 . S
C26 C30 1.407 . S
C27 C25 1.396 . S
C27 C28 1.394 . S
C28 H23 0.929 . S
C28 C27 1.394 . S
C28 C29 1.382 . S
C29 C28 1.382 . S
C29 C30 1.392 . S
C29 N31 1.420 . S
C30 H24 0.930 . S
C30 C26 1.407 . S
C30 C29 1.392 . S
N31 C29 1.420 . S
N31 C32 1.244 . S
C32 N31 1.244 . S
H33 C36 0.929 . S
H34 C39 0.929 . S
H35 C41 0.930 . S
C36 H33 0.929 . S
C36 C37 1.398 . S
C36 C38 1.396 . S
C37 C36 1.398 . S
C37 C41 1.407 . S
C38 C36 1.396 . S
C38 C39 1.394 . S
C39 H34 0.929 . S
C39 C38 1.394 . S
C39 C40 1.382 . S
C40 C39 1.382 . S
C40 C41 1.392 . S
C40 N42 1.420 . S
C41 H35 0.930 . S
C41 C37 1.407 . S
C41 C40 1.392 . S
N42 C40 1.420 . S
N42 C43 1.244 . S
C43 N42 1.244 . S
H44 C47 0.929 . S
H45 C50 0.929 . S
H46 C52 0.930 . S
C47 H44 0.929 . S
C47 C48 1.398 . S
C47 C49 1.396 . S
C48 C47 1.398 . S
C48 C52 1.407 . S
C49 C47 1.396 . S
C49 C50 1.394 . S
C50 H45 0.929 . S
C50 C49 1.394 . S
C50 C51 1.382 . S
C51 C50 1.382 . S
C51 C52 1.392 . S
C51 N53 1.420 . S
C52 H46 0.930 . S
C52 C48 1.407 . S
C52 C51 1.392 . S
N53 C51 1.420 . S
N53 C54 1.244 . S
C54 N53 1.244 . S
H55 C58 0.929 . S
H56 C61 0.929 . S
H57 C63 0.930 . S
C58 H55 0.929 . S
C58 C59 1.398 . S
C58 C60 1.396 . S
C59 C58 1.398 . S
C59 C63 1.407 . S
C60 C58 1.396 . S
C60 C61 1.394 . S
C61 H56 0.929 . S
C61 C60 1.394 . S
C61 C62 1.382 . S
C62 C61 1.382 . S
C62 C63 1.392 . S
C62 N64 1.420 . S
C63 H57 0.930 . S
C63 C59 1.407 . S
C63 C62 1.392 . S
N64 C62 1.420 . S
N64 C65 1.244 . S
C65 N64 1.244 . S
H66 C69 0.929 . S
H67 C72 0.929 . S
H68 C74 0.930 . S
C69 H66 0.929 . S
C69 C70 1.398 . S
C69 C71 1.396 . S
C70 C69 1.398 . S
C70 C74 1.407 . S
C71 C69 1.396 . S
C71 C72 1.394 . S
C72 H67 0.929 . S
C72 C71 1.394 . S
C72 C73 1.382 . S
C73 C72 1.382 . S
C73 C74 1.392 . S
C73 N75 1.420 . S
C74 H68 0.930 . S
C74 C70 1.407 . S
C74 C73 1.392 . S
N75 C73 1.420 . S
N75 C76 1.244 . S
C76 N75 1.244 . S
H77 C80 0.929 . S
H78 C83 0.929 . S
H79 C85 0.930 . S
C80 H77 0.929 . S
C80 C81 1.398 . S
C80 C82 1.396 . S
C81 C80 1.398 . S
C81 C85 1.407 . S
C82 C80 1.396 . S
C82 C83 1.394 . S
C83 H78 0.929 . S
C83 C82 1.394 . S
C83 C84 1.382 . S
C84 C83 1.382 . S
C84 C85 1.392 . S
C84 N86 1.420 . S
C85 H79 0.930 . S
C85 C81 1.407 . S
C85 C84 1.392 . S
N86 C84 1.420 . S
N86 C87 1.244 . S
C87 N86 1.244 . S
Nd88 C90 2.826 1_545 S
Nd88 O108 2.487 1_545 S
Nd88 O109 2.486 1_545 S
Nd88 O110 2.498 . S
Nd88 O111 2.694 . S
Nd88 O112 2.409 1_545 S
Nd88 O117 2.412 1_445 S
Nd88 O119 2.432 . S
Nd89 C99 2.836 . S
Nd89 O111 2.414 1_655 S
Nd89 O113 2.424 . S
Nd89 O114 2.500 . S
Nd89 O115 2.492 . S
Nd89 O116 2.487 1_545 S
Nd89 O117 2.682 1_545 S
Nd89 O118 2.410 . S
C90 Nd88 2.826 1_565 S
C90 C91 1.498 . S
C90 O108 1.258 . S
C90 O109 1.239 . S
C91 C90 1.498 . S
C91 C92 1.366 . S
C91 C96 1.407 . S
C92 C91 1.366 . S
C92 C93 1.392 . S
C92 H120 0.930 . S
C93 C92 1.392 . S
C93 C94 1.398 . S
C93 H121 0.929 . S
C94 C93 1.398 . S
C94 C95 1.352 . S
C95 C94 1.352 . S
C95 C96 1.384 . S
C95 H122 0.930 . S
C96 C91 1.407 . S
C96 C95 1.384 . S
C96 H123 0.929 . S
C97 O110 1.241 . S
C97 O111 1.273 . S
C98 O112 1.251 1_655 S
C98 O113 1.268 1_565 S
C99 Nd89 2.836 . S
C99 C100 1.498 . S
C99 O114 1.258 . S
C99 O115 1.239 . S
C100 C99 1.498 . S
C100 C101 1.366 . S
C100 C105 1.407 . S
C101 C100 1.366 . S
C101 C102 1.392 . S
C101 H124 0.930 . S
C102 C101 1.392 . S
C102 C103 1.398 . S
C102 H125 0.929 . S
C103 C102 1.398 . S
C103 C104 1.352 . S
C104 C103 1.352 . S
C104 C105 1.384 . S
C104 H126 0.930 . S
C105 C100 1.407 . S
C105 C104 1.384 . S
C105 H127 0.929 . S
C106 O116 1.241 . S
C106 O117 1.273 . S
C107 O118 1.251 1_455 S
C107 O119 1.268 . S
O108 Nd88 2.487 1_565 S
O108 C90 1.258 . S
O109 Nd88 2.486 1_565 S
O109 C90 1.239 . S
O110 Nd88 2.498 . S
O110 C97 1.241 . S
O111 Nd88 2.694 . S
O111 Nd89 2.414 1_455 S
O111 C97 1.273 . S
O112 Nd88 2.409 1_565 S
O112 C98 1.251 1_455 S
O113 Nd89 2.424 . S
O113 C98 1.268 1_545 S
O114 Nd89 2.500 . S
O114 C99 1.258 . S
O115 Nd89 2.492 . S
O115 C99 1.239 . S
O116 Nd89 2.487 1_565 S
O116 C106 1.241 . S
O117 Nd88 2.412 1_665 S
O117 Nd89 2.682 1_565 S
O117 C106 1.273 . S
O118 Nd89 2.410 . S
O118 C107 1.251 1_655 S
O119 Nd88 2.432 . S
O119 C107 1.268 . S
H120 C92 0.930 . S
H121 C93 0.929 . S
H122 C95 0.930 . S
H123 C96 0.929 . S
H124 C101 0.930 . S
H125 C102 0.929 . S
H126 C104 0.930 . S
H127 C105 0.929 . S
Nd128 C130 2.836 . S
Nd128 O148 2.500 . S
Nd128 O149 2.492 . S
Nd128 O150 2.487 1_565 S
Nd128 O151 2.682 1_565 S
Nd128 O152 2.410 . S
Nd128 O157 2.414 1_565 S
Nd128 O159 2.424 1_565 S
Nd129 C139 2.836 1_554 S
Nd129 O151 2.414 . S
Nd129 O153 2.424 1_544 S
Nd129 O154 2.500 . S
Nd129 O155 2.492 1_554 S
Nd129 O156 2.487 . S
Nd129 O157 2.682 . S
Nd129 O158 2.410 . S
C130 Nd128 2.836 . S
C130 C131 1.498 . S
C130 O148 1.258 . S
C130 O149 1.239 . S
C131 C130 1.498 . S
C131 C132 1.366 . S
C131 C136 1.407 . S
C132 C131 1.366 . S
C132 C133 1.392 . S
C132 H160 0.930 . S
C133 C132 1.392 . S
C133 C134 1.398 . S
C133 H161 0.929 . S
C134 C133 1.398 . S
C134 C135 1.352 . S
C135 C134 1.352 . S
C135 C136 1.384 . S
C135 H162 0.930 . S
C136 C131 1.407 . S
C136 C135 1.384 . S
C136 H163 0.929 . S
C137 O150 1.241 . S
C137 O151 1.273 . S
C138 O152 1.251 . S
C138 O153 1.268 1_554 S
C139 Nd129 2.836 1_556 S
C139 C140 1.498 . S
C139 O154 1.258 1_556 S
C139 O155 1.239 . S
C140 C139 1.498 . S
C140 C141 1.366 1_556 S
C140 C145 1.407 . S
C141 C140 1.366 1_554 S
C141 C142 1.392 1_554 S
C141 H164 0.930 . S
C142 C141 1.392 1_556 S
C142 C143 1.398 . S
C142 H165 0.929 1_556 S
C143 C142 1.398 . S
C143 C144 1.352 . S
C144 C143 1.352 . S
C144 C145 1.384 . S
C144 H166 0.930 . S
C145 C140 1.407 . S
C145 C144 1.384 . S
C145 H167 0.929 . S
C146 O156 1.241 . S
C146 O157 1.273 . S
C147 O158 1.251 . S
C147 O159 1.268 . S
O148 Nd128 2.500 . S
O148 C130 1.258 . S
O149 Nd128 2.492 . S
O149 C130 1.239 . S
O150 Nd128 2.487 1_545 S
O150 C137 1.241 . S
O151 Nd128 2.682 1_545 S
O151 Nd129 2.414 . S
O151 C137 1.273 . S
O152 Nd128 2.410 . S
O152 C138 1.251 . S
O153 Nd129 2.424 1_566 S
O153 C138 1.268 1_556 S
O154 Nd129 2.500 . S
O154 C139 1.258 1_554 S
O155 Nd129 2.492 1_556 S
O155 C139 1.239 . S
O156 Nd129 2.487 . S
O156 C146 1.241 . S
O157 Nd128 2.414 1_545 S
O157 Nd129 2.682 . S
O157 C146 1.273 . S
O158 Nd129 2.410 . S
O158 C147 1.251 . S
O159 Nd128 2.424 1_545 S
O159 C147 1.268 . S
H160 C132 0.930 . S
H161 C133 0.929 . S
H162 C135 0.930 . S
H163 C136 0.929 . S
H164 C141 0.930 . S
H165 C142 0.929 1_554 S
H166 C144 0.930 . S
H167 C145 0.929 . S
Nd168 C170 2.836 . S
Nd168 O188 2.500 . S
Nd168 O189 2.492 . S
Nd168 O190 2.487 . S
Nd168 O191 2.682 . S
Nd168 O192 2.410 . S
Nd168 O197 2.414 . S
Nd168 O199 2.424 . S
Nd169 C179 2.836 . S
Nd169 O191 2.414 . S
Nd169 O193 2.424 . S
Nd169 O194 2.500 . S
Nd169 O195 2.492 . S
Nd169 O196 2.487 . S
Nd169 O197 2.682 . S
Nd169 O198 2.410 . S
C170 Nd168 2.836 . S
C170 C171 1.498 . S
C170 O188 1.258 . S
C170 O189 1.239 . S
C171 C170 1.498 . S
C171 C172 1.366 . S
C171 C176 1.407 . S
C172 C171 1.366 . S
C172 C173 1.392 . S
C172 H200 0.930 . S
C173 C172 1.392 . S
C173 C174 1.398 . S
C173 H201 0.929 . S
C174 C173 1.398 . S
C174 C175 1.352 . S
C175 C174 1.352 . S
C175 C176 1.384 . S
C175 H202 0.930 . S
C176 C171 1.407 . S
C176 C175 1.384 . S
C176 H203 0.929 . S
C177 O190 1.241 . S
C177 O191 1.273 . S
C178 O192 1.251 . S
C178 O193 1.268 . S
C179 Nd169 2.836 . S
C179 C180 1.498 . S
C179 O194 1.258 . S
C179 O195 1.239 . S
C180 C179 1.498 . S
C180 C181 1.366 . S
C180 C185 1.407 . S
C181 C180 1.366 . S
C181 C182 1.392 . S
C181 H204 0.930 . S
C182 C181 1.392 . S
C182 C183 1.398 . S
C182 H205 0.929 . S
C183 C182 1.398 . S
C183 C184 1.352 . S
C184 C183 1.352 . S
C184 C185 1.384 . S
C184 H206 0.930 . S
C185 C180 1.407 . S
C185 C184 1.384 . S
C185 H207 0.929 . S
C186 O196 1.241 . S
C186 O197 1.273 . S
C187 O198 1.251 . S
C187 O199 1.268 . S
O188 Nd168 2.500 . S
O188 C170 1.258 . S
O189 Nd168 2.492 . S
O189 C170 1.239 . S
O190 Nd168 2.487 . S
O190 C177 1.241 . S
O191 Nd168 2.682 . S
O191 Nd169 2.414 . S
O191 C177 1.273 . S
O192 Nd168 2.410 . S
O192 C178 1.251 . S
O193 Nd169 2.424 . S
O193 C178 1.268 . S
O194 Nd169 2.500 . S
O194 C179 1.258 . S
O195 Nd169 2.492 . S
O195 C179 1.239 . S
O196 Nd169 2.487 . S
O196 C186 1.241 . S
O197 Nd168 2.414 . S
O197 Nd169 2.682 . S
O197 C186 1.273 . S
O198 Nd169 2.410 . S
O198 C187 1.251 . S
O199 Nd168 2.424 . S
O199 C187 1.268 . S
H200 C172 0.930 . S
H201 C173 0.929 . S
H202 C175 0.930 . S
H203 C176 0.929 . S
H204 C181 0.930 . S
H205 C182 0.929 . S
H206 C184 0.930 . S
H207 C185 0.929 . S
Nd208 C210 2.836 1_455 S
Nd208 O228 2.500 1_455 S
Nd208 O229 2.492 . S
Nd208 O230 2.487 . S
Nd208 O231 2.682 . S
Nd208 O232 2.410 . S
Nd208 O237 2.413 1_455 S
Nd208 O239 2.424 . S
Nd209 C219 2.836 . S
Nd209 O231 2.414 1_556 S
Nd209 O233 2.424 . S
Nd209 O234 2.500 . S
Nd209 O235 2.492 . S
Nd209 O236 2.487 1_455 S
Nd209 O237 2.682 1_456 S
Nd209 O238 2.410 . S
C210 Nd208 2.836 1_655 S
C210 C211 1.498 . S
C210 O228 1.258 . S
C210 O229 1.239 1_655 S
C211 C210 1.498 . S
C211 C212 1.366 . S
C211 C216 1.407 . S
C212 C211 1.366 . S
C212 C213 1.392 . S
C212 H240 0.930 . S
C213 C212 1.392 . S
C213 C214 1.398 . S
C213 H241 0.929 . S
C214 C213 1.398 . S
C214 C215 1.352 . S
C215 C214 1.352 . S
C215 C216 1.384 . S
C215 H242 0.930 . S
C216 C211 1.407 . S
C216 C215 1.384 . S
C216 H243 0.929 1_655 S
C217 O230 1.241 . S
C217 O231 1.273 . S
C218 O232 1.251 1_556 S
C218 O233 1.268 . S
C219 Nd209 2.836 . S
C219 C220 1.498 . S
C219 O234 1.258 . S
C219 O235 1.239 . S
C220 C219 1.498 . S
C220 C221 1.366 . S
C220 C225 1.407 . S
C221 C220 1.366 . S
C221 C222 1.392 . S
C221 H244 0.930 . S
C222 C221 1.392 . S
C222 C223 1.398 . S
C222 H245 0.929 . S
C223 C222 1.398 . S
C223 C224 1.352 . S
C224 C223 1.352 . S
C224 C225 1.384 . S
C224 H246 0.930 . S
C225 C220 1.407 . S
C225 C224 1.384 . S
C225 H247 0.929 . S
C226 O236 1.241 . S
C226 O237 1.273 1_556 S
C227 O238 1.251 1_554 S
C227 O239 1.268 . S
O228 Nd208 2.500 1_655 S
O228 C210 1.258 . S
O229 Nd208 2.492 . S
O229 C210 1.239 1_455 S
O230 Nd208 2.487 . S
O230 C217 1.241 . S
O231 Nd208 2.682 . S
O231 Nd209 2.414 1_554 S
O231 C217 1.273 . S
O232 Nd208 2.410 . S
O232 C218 1.251 1_554 S
O233 Nd209 2.424 . S
O233 C218 1.268 . S
O234 Nd209 2.500 . S
O234 C219 1.258 . S
O235 Nd209 2.492 . S
O235 C219 1.239 . S
O236 Nd209 2.487 1_655 S
O236 C226 1.241 . S
O237 Nd208 2.413 1_655 S
O237 Nd209 2.682 1_654 S
O237 C226 1.273 1_554 S
O238 Nd209 2.410 . S
O238 C227 1.251 1_556 S
O239 Nd208 2.424 . S
O239 C227 1.268 . S
H240 C212 0.930 . S
H241 C213 0.929 . S
H242 C215 0.930 . S
H243 C216 0.929 1_455 S
H244 C221 0.930 . S
H245 C222 0.929 . S
H246 C224 0.930 . S
H247 C225 0.929 . S
H248 C260 0.930 . S
H249 C262 0.930 . S
H250 C263 0.930 . S
H251 C267 0.959 . S
H252 C267 0.959 . S
H253 C267 0.961 . S
H254 C268 0.960 . S
H255 C268 0.961 . S
H256 C268 0.959 . S
H257 C271 0.929 . S
H258 C272 0.931 . S
H259 C274 0.930 . S
C260 H248 0.930 . S
C260 C261 1.399 . S
C260 C265 1.399 . S
C261 C260 1.399 . S
C261 C262 1.376 . S
C262 H249 0.930 . S
C262 C261 1.376 . S
C262 C263 1.388 . S
C263 H250 0.930 . S
C263 C262 1.388 . S
C263 C264 1.390 . S
C264 C263 1.390 . S
C264 C265 1.394 . S
C264 C270 1.465 . S
C265 C260 1.399 . S
C265 C264 1.394 . S
C265 C266 1.516 . S
C266 C265 1.516 . S
C266 C267 1.502 . S
C266 C268 1.561 . S
C266 C269 1.526 . S
C267 H251 0.959 . S
C267 H252 0.959 . S
C267 H253 0.961 . S
C267 C266 1.502 . S
C268 H254 0.960 . S
C268 H255 0.961 . S
C268 H256 0.959 . S
C268 C266 1.561 . S
C269 C266 1.526 . S
C269 C270 1.396 . S
C269 C274 1.390 . S
C270 C264 1.465 . S
C270 C269 1.396 . S
C270 C271 1.399 . S
C271 H257 0.929 . S
C271 C270 1.399 . S
C271 C272 1.385 . S
C272 H258 0.931 . S
C272 C271 1.385 . S
C272 C273 1.389 . S
C273 C272 1.389 . S
C273 C274 1.387 . S
C274 H259 0.930 . S
C274 C269 1.390 . S
C274 C273 1.387 . S
H275 C287 0.930 . S
H276 C289 0.930 . S
H277 C290 0.930 . S
H278 C294 0.959 . S
H279 C294 0.959 . S
H280 C294 0.961 . S
H281 C295 0.960 . S
H282 C295 0.961 . S
H283 C295 0.959 . S
H284 C298 0.929 . S
H285 C299 0.931 . S
H286 C301 0.930 . S
C287 H275 0.930 . S
C287 C288 1.399 . S
C287 C292 1.399 . S
C288 C287 1.399 . S
C288 C289 1.376 . S
C289 H276 0.930 . S
C289 C288 1.376 . S
C289 C290 1.388 . S
C290 H277 0.930 . S
C290 C289 1.388 . S
C290 C291 1.390 . S
C291 C290 1.390 . S
C291 C292 1.394 . S
C291 C297 1.465 . S
C292 C287 1.399 . S
C292 C291 1.394 . S
C292 C293 1.516 . S
C293 C292 1.516 . S
C293 C294 1.502 . S
C293 C295 1.561 . S
C293 C296 1.526 . S
C294 H278 0.959 . S
C294 H279 0.959 . S
C294 H280 0.961 . S
C294 C293 1.502 . S
C295 H281 0.960 . S
C295 H282 0.961 . S
C295 H283 0.959 . S
C295 C293 1.561 . S
C296 C293 1.526 . S
C296 C297 1.396 . S
C296 C301 1.390 . S
C297 C291 1.465 . S
C297 C296 1.396 . S
C297 C298 1.399 . S
C298 H284 0.929 . S
C298 C297 1.399 . S
C298 C299 1.385 . S
C299 H285 0.931 . S
C299 C298 1.385 . S
C299 C300 1.389 . S
C300 C299 1.389 . S
C300 C301 1.387 . S
C301 H286 0.930 . S
C301 C296 1.390 . S
C301 C300 1.387 . S
H302 C314 0.930 . S
H303 C316 0.930 . S
H304 C317 0.930 . S
H305 C321 0.959 . S
H306 C321 0.959 . S
H307 C321 0.961 . S
H308 C322 0.960 . S
H309 C322 0.961 . S
H310 C322 0.959 . S
H311 C325 0.929 . S
H312 C326 0.931 . S
H313 C328 0.930 . S
C314 H302 0.930 . S
C314 C315 1.399 . S
C314 C319 1.399 . S
C315 C314 1.399 . S
C315 C316 1.376 . S
C316 H303 0.930 . S
C316 C315 1.376 . S
C316 C317 1.388 . S
C317 H304 0.930 . S
C317 C316 1.388 . S
C317 C318 1.390 . S
C318 C317 1.390 . S
C318 C319 1.394 . S
C318 C324 1.465 . S
C319 C314 1.399 . S
C319 C318 1.394 . S
C319 C320 1.516 . S
C320 C319 1.516 . S
C320 C321 1.502 . S
C320 C322 1.561 . S
C320 C323 1.526 . S
C321 H305 0.959 . S
C321 H306 0.959 . S
C321 H307 0.961 . S
C321 C320 1.502 . S
C322 H308 0.960 . S
C322 H309 0.961 . S
C322 H310 0.959 . S
C322 C320 1.561 . S
C323 C320 1.526 . S
C323 C324 1.396 . S
C323 C328 1.390 . S
C324 C318 1.465 . S
C324 C323 1.396 . S
C324 C325 1.399 . S
C325 H311 0.929 . S
C325 C324 1.399 . S
C325 C326 1.385 . S
C326 H312 0.931 . S
C326 C325 1.385 . S
C326 C327 1.389 . S
C327 C326 1.389 . S
C327 C328 1.387 . S
C328 H313 0.930 . S
C328 C323 1.390 . S
C328 C327 1.387 . S
H329 C341 0.930 . S
H330 C343 0.930 . S
H331 C344 0.930 . S
H332 C348 0.959 . S
H333 C348 0.959 . S
H334 C348 0.961 . S
H335 C349 0.960 . S
H336 C349 0.961 . S
H337 C349 0.959 . S
H338 C352 0.929 . S
H339 C353 0.931 . S
H340 C355 0.930 . S
C341 H329 0.930 . S
C341 C342 1.399 . S
C341 C346 1.399 . S
C342 C341 1.399 . S
C342 C343 1.376 . S
C343 H330 0.930 . S
C343 C342 1.376 . S
C343 C344 1.388 . S
C344 H331 0.930 . S
C344 C343 1.388 . S
C344 C345 1.390 . S
C345 C344 1.390 . S
C345 C346 1.394 . S
C345 C351 1.465 . S
C346 C341 1.399 . S
C346 C345 1.394 . S
C346 C347 1.516 . S
C347 C346 1.516 . S
C347 C348 1.502 . S
C347 C349 1.561 . S
C347 C350 1.526 . S
C348 H332 0.959 . S
C348 H333 0.959 . S
C348 H334 0.961 . S
C348 C347 1.502 . S
C349 H335 0.960 . S
C349 H336 0.961 . S
C349 H337 0.959 . S
C349 C347 1.561 . S
C350 C347 1.526 . S
C350 C351 1.396 . S
C350 C355 1.390 . S
C351 C345 1.465 . S
C351 C350 1.396 . S
C351 C352 1.399 . S
C352 H338 0.929 . S
C352 C351 1.399 . S
C352 C353 1.385 . S
C353 H339 0.931 . S
C353 C352 1.385 . S
C353 C354 1.389 . S
C354 C353 1.389 . S
C354 C355 1.387 . S
C355 H340 0.930 . S
C355 C350 1.390 . S
C355 C354 1.387 . S
H356 C368 0.930 . S
H357 C370 0.930 . S
H358 C371 0.930 . S
H359 C375 0.959 . S
H360 C375 0.959 . S
H361 C375 0.961 . S
H362 C376 0.960 . S
H363 C376 0.961 . S
H364 C376 0.959 . S
H365 C379 0.929 . S
H366 C380 0.931 . S
H367 C382 0.930 . S
C368 H356 0.930 . S
C368 C369 1.399 . S
C368 C373 1.399 . S
C369 C368 1.399 . S
C369 C370 1.376 . S
C370 H357 0.930 . S
C370 C369 1.376 . S
C370 C371 1.388 . S
C371 H358 0.930 . S
C371 C370 1.388 . S
C371 C372 1.390 . S
C372 C371 1.390 . S
C372 C373 1.394 . S
C372 C378 1.465 . S
C373 C368 1.399 . S
C373 C372 1.394 . S
C373 C374 1.516 . S
C374 C373 1.516 . S
C374 C375 1.502 . S
C374 C376 1.561 . S
C374 C377 1.526 . S
C375 H359 0.959 . S
C375 H360 0.959 . S
C375 H361 0.961 . S
C375 C374 1.502 . S
C376 H362 0.960 . S
C376 H363 0.961 . S
C376 H364 0.959 . S
C376 C374 1.561 . S
C377 C374 1.526 . S
C377 C378 1.396 . S
C377 C382 1.390 . S
C378 C372 1.465 . S
C378 C377 1.396 . S
C378 C379 1.399 . S
C379 H365 0.929 . S
C379 C378 1.399 . S
C379 C380 1.385 . S
C380 H366 0.931 . S
C380 C379 1.385 . S
C380 C381 1.389 . S
C381 C380 1.389 . S
C381 C382 1.387 . S
C382 H367 0.930 . S
C382 C377 1.390 . S
C382 C381 1.387 . S
H383 C395 0.930 . S
H384 C397 0.930 . S
H385 C398 0.930 . S
H386 C402 0.959 . S
H387 C402 0.959 . S
H388 C402 0.961 . S
H389 C403 0.960 . S
H390 C403 0.961 . S
H391 C403 0.959 . S
H392 C406 0.929 . S
H393 C407 0.931 . S
H394 C409 0.930 . S
C395 H383 0.930 . S
C395 C396 1.399 . S
C395 C400 1.399 . S
C396 C395 1.399 . S
C396 C397 1.376 . S
C397 H384 0.930 . S
C397 C396 1.376 . S
C397 C398 1.388 . S
C398 H385 0.930 . S
C398 C397 1.388 . S
C398 C399 1.390 . S
C399 C398 1.390 . S
C399 C400 1.394 . S
C399 C405 1.465 . S
C400 C395 1.399 . S
C400 C399 1.394 . S
C400 C401 1.516 . S
C401 C400 1.516 . S
C401 C402 1.502 . S
C401 C403 1.561 . S
C401 C404 1.526 . S
C402 H386 0.959 . S
C402 H387 0.959 . S
C402 H388 0.961 . S
C402 C401 1.502 . S
C403 H389 0.960 . S
C403 H390 0.961 . S
C403 H391 0.959 . S
C403 C401 1.561 . S
C404 C401 1.526 . S
C404 C405 1.396 . S
C404 C409 1.390 . S
C405 C399 1.465 . S
C405 C404 1.396 . S
C405 C406 1.399 . S
C406 H392 0.929 . S
C406 C405 1.399 . S
C406 C407 1.385 . S
C407 H393 0.931 . S
C407 C406 1.385 . S
C407 C408 1.389 . S
C408 C407 1.389 . S
C408 C409 1.387 . S
C409 H394 0.930 . S
C409 C404 1.390 . S
C409 C408 1.387 . S
H410 C422 0.930 . S
H411 C424 0.930 . S
H412 C425 0.930 . S
H413 C429 0.959 . S
H414 C429 0.959 . S
H415 C429 0.961 . S
H416 C430 0.960 . S
H417 C430 0.961 . S
H418 C430 0.959 . S
H419 C433 0.929 . S
H420 C434 0.931 . S
H421 C436 0.930 . S
C422 H410 0.930 . S
C422 C423 1.399 . S
C422 C427 1.399 . S
C423 C422 1.399 . S
C423 C424 1.376 . S
C424 H411 0.930 . S
C424 C423 1.376 . S
C424 C425 1.388 . S
C425 H412 0.930 . S
C425 C424 1.388 . S
C425 C426 1.390 . S
C426 C425 1.390 . S
C426 C427 1.394 . S
C426 C432 1.465 . S
C427 C422 1.399 . S
C427 C426 1.394 . S
C427 C428 1.516 . S
C428 C427 1.516 . S
C428 C429 1.502 . S
C428 C430 1.561 . S
C428 C431 1.526 . S
C429 H413 0.959 . S
C429 H414 0.959 . S
C429 H415 0.961 . S
C429 C428 1.502 . S
C430 H416 0.960 . S
C430 H417 0.961 . S
C430 H418 0.959 . S
C430 C428 1.561 . S
C431 C428 1.526 . S
C431 C432 1.396 . S
C431 C436 1.390 . S
C432 C426 1.465 . S
C432 C431 1.396 . S
C432 C433 1.399 . S
C433 H419 0.929 . S
C433 C432 1.399 . S
C433 C434 1.385 . S
C434 H420 0.931 . S
C434 C433 1.385 . S
C434 C435 1.389 . S
C435 C434 1.389 . S
C435 C436 1.387 . S
C436 H421 0.930 . S
C436 C431 1.390 . S
C436 C435 1.387 . S
H437 C449 0.930 . S
H438 C451 0.930 . S
H439 C452 0.930 . S
H440 C456 0.959 . S
H441 C456 0.959 . S
H442 C456 0.961 . S
H443 C457 0.960 . S
H444 C457 0.961 . S
H445 C457 0.959 . S
H446 C460 0.929 . S
H447 C461 0.931 . S
H448 C463 0.930 . S
C449 H437 0.930 . S
C449 C450 1.399 . S
C449 C454 1.399 . S
C450 C449 1.399 . S
C450 C451 1.376 . S
C451 H438 0.930 . S
C451 C450 1.376 . S
C451 C452 1.388 . S
C452 H439 0.930 . S
C452 C451 1.388 . S
C452 C453 1.390 . S
C453 C452 1.390 . S
C453 C454 1.394 . S
C453 C459 1.465 . S
C454 C449 1.399 . S
C454 C453 1.394 . S
C454 C455 1.516 . S
C455 C454 1.516 . S
C455 C456 1.502 . S
C455 C457 1.561 . S
C455 C458 1.526 . S
C456 H440 0.959 . S
C456 H441 0.959 . S
C456 H442 0.961 . S
C456 C455 1.502 . S
C457 H443 0.960 . S
C457 H444 0.961 . S
C457 H445 0.959 . S
C457 C455 1.561 . S
C458 C455 1.526 . S
C458 C459 1.396 . S
C458 C463 1.390 . S
C459 C453 1.465 . S
C459 C458 1.396 . S
C459 C460 1.399 . S
C460 H446 0.929 . S
C460 C459 1.399 . S
C460 C461 1.385 . S
C461 H447 0.931 . S
C461 C460 1.385 . S
C461 C462 1.389 . S
C462 C461 1.389 . S
C462 C463 1.387 . S
C463 H448 0.930 . S
C463 C458 1.390 . S
C463 C462 1.387 . S
H464 C476 0.930 . S
H465 C478 0.930 . S
H466 C479 0.930 . S
H467 C483 0.959 1_556 S
H468 C483 0.959 1_556 S
H469 C483 0.961 . S
H470 C484 0.960 . S
H471 C484 0.961 . S
H472 C484 0.959 . S
H473 C487 0.929 . S
H474 C488 0.931 . S
H475 C490 0.930 . S
C476 H464 0.930 . S
C476 C477 1.399 . S
C476 C481 1.399 . S
C477 C476 1.399 . S
C477 C478 1.376 . S
C478 H465 0.930 . S
C478 C477 1.376 . S
C478 C479 1.388 . S
C479 H466 0.930 . S
C479 C478 1.388 . S
C479 C480 1.390 . S
C480 C479 1.390 . S
C480 C481 1.394 . S
C480 C486 1.465 . S
C481 C476 1.399 . S
C481 C480 1.394 . S
C481 C482 1.516 . S
C482 C481 1.516 . S
C482 C483 1.502 . S
C482 C484 1.561 . S
C482 C485 1.526 . S
C483 H467 0.959 1_554 S
C483 H468 0.959 1_554 S
C483 H469 0.961 . S
C483 C482 1.502 . S
C484 H470 0.960 . S
C484 H471 0.961 . S
C484 H472 0.959 . S
C484 C482 1.561 . S
C485 C482 1.526 . S
C485 C486 1.396 . S
C485 C490 1.390 . S
C486 C480 1.465 . S
C486 C485 1.396 . S
C486 C487 1.399 . S
C487 H473 0.929 . S
C487 C486 1.399 . S
C487 C488 1.385 . S
C488 H474 0.931 . S
C488 C487 1.385 . S
C488 C489 1.389 . S
C489 C488 1.389 . S
C489 C490 1.387 . S
C490 H475 0.930 . S
C490 C485 1.390 . S
C490 C489 1.387 . S
H491 C503 0.930 . S
H492 C505 0.930 . S
H493 C506 0.930 . S
H494 C510 0.959 . S
H495 C510 0.959 . S
H496 C510 0.961 . S
H497 C511 0.960 . S
H498 C511 0.961 . S
H499 C511 0.959 1_556 S
H500 C514 0.929 . S
H501 C515 0.931 . S
H502 C517 0.930 . S
C503 H491 0.930 . S
C503 C504 1.399 . S
C503 C508 1.399 . S
C504 C503 1.399 . S
C504 C505 1.376 . S
C505 H492 0.930 . S
C505 C504 1.376 . S
C505 C506 1.388 . S
C506 H493 0.930 . S
C506 C505 1.388 . S
C506 C507 1.390 . S
C507 C506 1.390 . S
C507 C508 1.394 . S
C507 C513 1.465 . S
C508 C503 1.399 . S
C508 C507 1.394 . S
C508 C509 1.516 . S
C509 C508 1.516 . S
C509 C510 1.502 . S
C509 C511 1.561 1_556 S
C509 C512 1.526 . S
C510 H494 0.959 . S
C510 H495 0.959 . S
C510 H496 0.961 . S
C510 C509 1.502 . S
C511 H497 0.960 . S
C511 H498 0.961 . S
C511 H499 0.959 1_554 S
C511 C509 1.561 1_554 S
C512 C509 1.526 . S
C512 C513 1.396 . S
C512 C517 1.390 . S
C513 C507 1.465 . S
C513 C512 1.396 . S
C513 C514 1.399 . S
C514 H500 0.929 . S
C514 C513 1.399 . S
C514 C515 1.385 . S
C515 H501 0.931 . S
C515 C514 1.385 . S
C515 C516 1.389 . S
C516 C515 1.389 . S
C516 C517 1.387 . S
C517 H502 0.930 . S
C517 C512 1.390 . S
C517 C516 1.387 . S
H518 C530 0.930 . S
H519 C532 0.930 . S
H520 C533 0.930 . S
H521 C537 0.959 . S
H522 C537 0.959 . S
H523 C537 0.961 . S
H524 C538 0.960 . S
H525 C538 0.961 . S
H526 C538 0.959 . S
H527 C541 0.929 . S
H528 C542 0.931 . S
H529 C544 0.930 . S
C530 H518 0.930 . S
C530 C531 1.399 . S
C530 C535 1.399 . S
C531 C530 1.399 . S
C531 C532 1.376 . S
C532 H519 0.930 . S
C532 C531 1.376 . S
C532 C533 1.388 . S
C533 H520 0.930 . S
C533 C532 1.388 . S
C533 C534 1.390 . S
C534 C533 1.390 . S
C534 C535 1.394 . S
C534 C540 1.465 . S
C535 C530 1.399 . S
C535 C534 1.394 . S
C535 C536 1.516 . S
C536 C535 1.516 . S
C536 C537 1.502 . S
C536 C538 1.561 . S
C536 C539 1.526 . S
C537 H521 0.959 . S
C537 H522 0.959 . S
C537 H523 0.961 . S
C537 C536 1.502 . S
C538 H524 0.960 . S
C538 H525 0.961 . S
C538 H526 0.959 . S
C538 C536 1.561 . S
C539 C536 1.526 . S
C539 C540 1.396 . S
C539 C544 1.390 . S
C540 C534 1.465 . S
C540 C539 1.396 . S
C540 C541 1.399 . S
C541 H527 0.929 . S
C541 C540 1.399 . S
C541 C542 1.385 . S
C542 H528 0.931 . S
C542 C541 1.385 . S
C542 C543 1.389 . S
C543 C542 1.389 . S
C543 C544 1.387 . S
C544 H529 0.930 . S
C544 C539 1.390 . S
C544 C543 1.387 . S
H545 C557 0.930 . S
H546 C559 0.930 . S
H547 C560 0.930 . S
H548 C564 0.959 . S
H549 C564 0.959 . S
H550 C564 0.961 . S
H551 C565 0.960 . S
H552 C565 0.961 . S
H553 C565 0.959 . S
H554 C568 0.929 . S
H555 C569 0.931 . S
H556 C571 0.930 . S
C557 H545 0.930 . S
C557 C558 1.399 . S
C557 C562 1.399 . S
C558 C557 1.399 . S
C558 C559 1.376 . S
C559 H546 0.930 . S
C559 C558 1.376 . S
C559 C560 1.388 . S
C560 H547 0.930 . S
C560 C559 1.388 . S
C560 C561 1.390 . S
C561 C560 1.390 . S
C561 C562 1.394 . S
C561 C567 1.465 . S
C562 C557 1.399 . S
C562 C561 1.394 . S
C562 C563 1.516 . S
C563 C562 1.516 . S
C563 C564 1.502 . S
C563 C565 1.561 . S
C563 C566 1.526 . S
C564 H548 0.959 . S
C564 H549 0.959 . S
C564 H550 0.961 . S
C564 C563 1.502 . S
C565 H551 0.960 . S
C565 H552 0.961 . S
C565 H553 0.959 . S
C565 C563 1.561 . S
C566 C563 1.526 . S
C566 C567 1.396 . S
C566 C571 1.390 . S
C567 C561 1.465 . S
C567 C566 1.396 . S
C567 C568 1.399 . S
C568 H554 0.929 . S
C568 C567 1.399 . S
C568 C569 1.385 . S
C569 H555 0.931 . S
C569 C568 1.385 . S
C569 C570 1.389 . S
C570 C569 1.389 . S
C570 C571 1.387 . S
C571 H556 0.930 . S
C571 C566 1.390 . S
C571 C570 1.387 . S
H572 C584 0.930 . S
H573 C586 0.930 . S
H574 C587 0.930 . S
H575 C591 0.959 . S
H576 C591 0.959 . S
H577 C591 0.961 . S
H578 C592 0.960 . S
H579 C592 0.961 . S
H580 C592 0.959 . S
H581 C595 0.942 . S
H582 C596 0.931 1_545 S
H583 C598 0.930 . S
C584 H572 0.930 . S
C584 C585 1.399 . S
C584 C589 1.399 . S
C585 C584 1.399 . S
C585 C586 1.376 . S
C586 H573 0.930 . S
C586 C585 1.376 . S
C586 C587 1.388 . S
C587 H574 0.930 . S
C587 C586 1.388 . S
C587 C588 1.390 . S
C588 C587 1.390 . S
C588 C589 1.394 . S
C588 C594 1.465 . S
C589 C584 1.399 . S
C589 C588 1.394 . S
C589 C590 1.516 . S
C590 C589 1.516 . S
C590 C591 1.502 . S
C590 C592 1.561 . S
C590 C593 1.526 . S
C591 H575 0.959 . S
C591 H576 0.959 . S
C591 H577 0.961 . S
C591 C590 1.502 . S
C592 H578 0.960 . S
C592 H579 0.961 . S
C592 H580 0.959 . S
C592 C590 1.561 . S
C593 C590 1.526 . S
C593 C594 1.396 . S
C593 C598 1.390 . S
C594 C588 1.465 . S
C594 C593 1.396 . S
C594 C595 1.399 . S
C595 H581 0.942 . S
C595 C594 1.399 . S
C595 C596 1.385 . S
C596 H582 0.931 1_565 S
C596 C595 1.385 . S
C596 C597 1.389 . S
C597 C596 1.389 . S
C597 C598 1.387 . S
C598 H583 0.930 . S
C598 C593 1.390 . S
C598 C597 1.387 . S
H599 C611 0.930 . S
H600 C613 0.930 . S
H601 C614 0.930 . S
H602 C618 0.959 . S
H603 C618 0.959 . S
H604 C618 0.961 . S
H605 C619 0.960 . S
H606 C619 0.961 . S
H607 C619 0.959 . S
H608 C622 0.929 . S
H609 C623 0.931 . S
H610 C625 0.930 . S
C611 H599 0.930 . S
C611 C612 1.399 . S
C611 C616 1.399 . S
C612 C611 1.399 . S
C612 C613 1.376 . S
C613 H600 0.930 . S
C613 C612 1.376 . S
C613 C614 1.388 . S
C614 H601 0.930 . S
C614 C613 1.388 . S
C614 C615 1.390 . S
C615 C614 1.390 . S
C615 C616 1.394 . S
C615 C621 1.465 . S
C616 C611 1.399 . S
C616 C615 1.394 . S
C616 C617 1.516 . S
C617 C616 1.516 . S
C617 C618 1.502 . S
C617 C619 1.561 . S
C617 C620 1.526 . S
C618 H602 0.959 . S
C618 H603 0.959 . S
C618 H604 0.961 . S
C618 C617 1.502 . S
C619 H605 0.960 . S
C619 H606 0.961 . S
C619 H607 0.959 . S
C619 C617 1.561 . S
C620 C617 1.526 . S
C620 C621 1.396 . S
C620 C625 1.390 . S
C621 C615 1.465 . S
C621 C620 1.396 . S
C621 C622 1.399 . S
C622 H608 0.929 . S
C622 C621 1.399 . S
C622 C623 1.385 . S
C623 H609 0.931 . S
C623 C622 1.385 . S
C623 C624 1.389 . S
C624 C623 1.389 . S
C624 C625 1.387 . S
C625 H610 0.930 . S
C625 C620 1.390 . S
C625 C624 1.387 . S
H626 C638 0.930 . S
H627 C640 0.930 . S
H628 C641 0.930 . S
H629 C645 0.959 . S
H630 C645 0.959 . S
H631 C645 0.961 . S
H632 C646 0.960 . S
H633 C646 0.961 . S
H634 C646 0.959 . S
H635 C649 0.929 . S
H636 C650 0.931 . S
H637 C652 0.930 . S
C638 H626 0.930 . S
C638 C639 1.399 . S
C638 C643 1.399 . S
C639 C638 1.399 . S
C639 C640 1.376 . S
C640 H627 0.930 . S
C640 C639 1.376 . S
C640 C641 1.388 . S
C641 H628 0.930 . S
C641 C640 1.388 . S
C641 C642 1.390 . S
C642 C641 1.390 . S
C642 C643 1.394 . S
C642 C648 1.465 . S
C643 C638 1.399 . S
C643 C642 1.394 . S
C643 C644 1.516 . S
C644 C643 1.516 . S
C644 C645 1.502 . S
C644 C646 1.561 . S
C644 C647 1.526 . S
C645 H629 0.959 . S
C645 H630 0.959 . S
C645 H631 0.961 . S
C645 C644 1.502 . S
C646 H632 0.960 . S
C646 H633 0.961 . S
C646 H634 0.959 . S
C646 C644 1.561 . S
C647 C644 1.526 . S
C647 C648 1.396 . S
C647 C652 1.390 . S
C648 C642 1.465 . S
C648 C647 1.396 . S
C648 C649 1.399 . S
C649 H635 0.929 . S
C649 C648 1.399 . S
C649 C650 1.385 . S
C650 H636 0.931 . S
C650 C649 1.385 . S
C650 C651 1.389 . S
C651 C650 1.389 . S
C651 C652 1.387 . S
C652 H637 0.930 . S
C652 C647 1.390 . S
C652 C651 1.387 . S
H653 C665 0.930 . S
H654 C667 0.930 . S
H655 C668 0.930 . S
H656 C672 0.959 . S
H657 C672 0.959 . S
H658 C672 0.961 . S
H659 C673 0.960 . S
H660 C673 0.961 . S
H661 C673 0.959 . S
H662 C676 0.929 . S
H663 C677 0.931 . S
H664 C679 0.930 . S
C665 H653 0.930 . S
C665 C666 1.399 . S
C665 C670 1.399 . S
C666 C665 1.399 . S
C666 C667 1.376 . S
C667 H654 0.930 . S
C667 C666 1.376 . S
C667 C668 1.388 . S
C668 H655 0.930 . S
C668 C667 1.388 . S
C668 C669 1.390 . S
C669 C668 1.390 . S
C669 C670 1.394 . S
C669 C675 1.465 . S
C670 C665 1.399 . S
C670 C669 1.394 . S
C670 C671 1.516 . S
C671 C670 1.516 . S
C671 C672 1.502 . S
C671 C673 1.561 . S
C671 C674 1.526 . S
C672 H656 0.959 . S
C672 H657 0.959 . S
C672 H658 0.961 . S
C672 C671 1.502 . S
C673 H659 0.960 . S
C673 H660 0.961 . S
C673 H661 0.959 . S
C673 C671 1.561 . S
C674 C671 1.526 . S
C674 C675 1.396 . S
C674 C679 1.390 . S
C675 C669 1.465 . S
C675 C674 1.396 . S
C675 C676 1.399 . S
C676 H662 0.929 . S
C676 C675 1.399 . S
C676 C677 1.385 . S
C677 H663 0.931 . S
C677 C676 1.385 . S
C677 C678 1.389 . S
C678 C677 1.389 . S
C678 C679 1.387 . S
C679 H664 0.930 . S
C679 C674 1.390 . S
C679 C678 1.387 . S
H680 C692 0.946 . S
H681 C694 0.930 . S
H682 C695 0.930 . S
H683 C699 0.959 . S
H684 C699 0.959 . S
H685 C699 0.961 . S
H686 C700 0.960 . S
H687 C700 0.961 1_545 S
H688 C700 0.959 1_545 S
H689 C703 0.929 . S
H690 C704 0.931 . S
H691 C706 0.930 . S
C692 H680 0.946 . S
C692 C693 1.399 . S
C692 C697 1.399 . S
C693 C692 1.399 . S
C693 C694 1.376 . S
C694 H681 0.930 . S
C694 C693 1.376 . S
C694 C695 1.388 . S
C695 H682 0.930 . S
C695 C694 1.388 . S
C695 C696 1.390 . S
C696 C695 1.390 . S
C696 C697 1.394 . S
C696 C702 1.465 . S
C697 C692 1.399 . S
C697 C696 1.394 . S
C697 C698 1.516 1_556 S
C698 C697 1.516 1_554 S
C698 C699 1.502 . S
C698 C700 1.561 . S
C698 C701 1.526 . S
C699 H683 0.959 . S
C699 H684 0.959 . S
C699 H685 0.961 . S
C699 C698 1.502 . S
C700 H686 0.960 . S
C700 H687 0.961 1_565 S
C700 H688 0.959 1_565 S
C700 C698 1.561 . S
C701 C698 1.526 . S
C701 C702 1.396 1_554 S
C701 C706 1.390 . S
C702 C696 1.465 . S
C702 C701 1.396 1_556 S
C702 C703 1.399 . S
C703 H689 0.929 . S
C703 C702 1.399 . S
C703 C704 1.385 . S
C704 H690 0.931 . S
C704 C703 1.385 . S
C704 C705 1.389 1_556 S
C705 C704 1.389 1_554 S
C705 C706 1.387 . S
C706 H691 0.930 . S
C706 C701 1.390 . S
C706 C705 1.387 . S
H707 C719 0.930 . S
H708 C721 0.930 . S
H709 C722 0.930 . S
H710 C726 0.959 . S
H711 C726 0.959 . S
H712 C726 0.961 . S
H713 C727 0.960 . S
H714 C727 0.961 . S
H715 C727 0.959 . S
H716 C730 0.929 . S
H717 C731 0.931 . S
H718 C733 0.930 . S
C719 H707 0.930 . S
C719 C720 1.399 . S
C719 C724 1.399 . S
C720 C719 1.399 . S
C720 C721 1.376 . S
C721 H708 0.930 . S
C721 C720 1.376 . S
C721 C722 1.388 . S
C722 H709 0.930 . S
C722 C721 1.388 . S
C722 C723 1.390 . S
C723 C722 1.390 . S
C723 C724 1.394 . S
C723 C729 1.465 . S
C724 C719 1.399 . S
C724 C723 1.394 . S
C724 C725 1.516 . S
C725 C724 1.516 . S
C725 C726 1.502 . S
C725 C727 1.561 . S
C725 C728 1.526 . S
C726 H710 0.959 . S
C726 H711 0.959 . S
C726 H712 0.961 . S
C726 C725 1.502 . S
C727 H713 0.960 . S
C727 H714 0.961 . S
C727 H715 0.959 . S
C727 C725 1.561 . S
C728 C725 1.526 . S
C728 C729 1.396 . S
C728 C733 1.390 . S
C729 C723 1.465 . S
C729 C728 1.396 . S
C729 C730 1.399 . S
C730 H716 0.929 . S
C730 C729 1.399 . S
C730 C731 1.385 . S
C731 H717 0.931 . S
C731 C730 1.385 . S
C731 C732 1.389 . S
C732 C731 1.389 . S
C732 C733 1.387 . S
C733 H718 0.930 . S
C733 C728 1.390 . S
C733 C732 1.387 . S
H734 C746 0.930 . S
H735 C748 0.930 . S
H736 C749 0.930 . S
H737 C753 0.959 . S
H738 C753 0.959 . S
H739 C753 0.961 . S
H740 C754 0.960 . S
H741 C754 0.961 . S
H742 C754 0.959 . S
H743 C757 0.929 . S
H744 C758 0.931 . S
H745 C760 0.930 . S
C746 H734 0.930 . S
C746 C747 1.399 . S
C746 C751 1.399 . S
C747 C746 1.399 . S
C747 C748 1.376 . S
C748 H735 0.930 . S
C748 C747 1.376 . S
C748 C749 1.388 . S
C749 H736 0.930 . S
C749 C748 1.388 . S
C749 C750 1.390 . S
C750 C749 1.390 . S
C750 C751 1.394 . S
C750 C756 1.465 . S
C751 C746 1.399 . S
C751 C750 1.394 . S
C751 C752 1.516 . S
C752 C751 1.516 . S
C752 C753 1.502 . S
C752 C754 1.561 . S
C752 C755 1.526 . S
C753 H737 0.959 . S
C753 H738 0.959 . S
C753 H739 0.961 . S
C753 C752 1.502 . S
C754 H740 0.960 . S
C754 H741 0.961 . S
C754 H742 0.959 . S
C754 C752 1.561 . S
C755 C752 1.526 . S
C755 C756 1.396 . S
C755 C760 1.390 . S
C756 C750 1.465 . S
C756 C755 1.396 . S
C756 C757 1.399 . S
C757 H743 0.929 . S
C757 C756 1.399 . S
C757 C758 1.385 . S
C758 H744 0.931 . S
C758 C757 1.385 . S
C758 C759 1.389 . S
C759 C758 1.389 . S
C759 C760 1.387 . S
C760 H745 0.930 . S
C760 C755 1.390 . S
C760 C759 1.387 . S
H761 C773 0.930 . S
H762 C775 0.930 . S
H763 C776 0.930 . S
H764 C780 0.959 . S
H765 C780 0.959 . S
H766 C780 0.961 . S
H767 C781 0.960 . S
H768 C781 0.961 . S
H769 C781 0.959 . S
H770 C784 0.929 . S
H771 C785 0.931 . S
H772 C787 0.930 . S
C773 H761 0.930 . S
C773 C774 1.399 . S
C773 C778 1.399 . S
C774 C773 1.399 . S
C774 C775 1.376 . S
C775 H762 0.930 . S
C775 C774 1.376 . S
C775 C776 1.388 . S
C776 H763 0.930 . S
C776 C775 1.388 . S
C776 C777 1.390 . S
C777 C776 1.390 . S
C777 C778 1.394 . S
C777 C783 1.465 . S
C778 C773 1.399 . S
C778 C777 1.394 . S
C778 C779 1.516 . S
C779 C778 1.516 . S
C779 C780 1.502 . S
C779 C781 1.561 . S
C779 C782 1.526 . S
C780 H764 0.959 . S
C780 H765 0.959 . S
C780 H766 0.961 . S
C780 C779 1.502 . S
C781 H767 0.960 . S
C781 H768 0.961 . S
C781 H769 0.959 . S
C781 C779 1.561 . S
C782 C779 1.526 . S
C782 C783 1.396 . S
C782 C787 1.390 . S
C783 C777 1.465 . S
C783 C782 1.396 . S
C783 C784 1.399 . S
C784 H770 0.929 . S
C784 C783 1.399 . S
C784 C785 1.385 . S
C785 H771 0.931 . S
C785 C784 1.385 . S
C785 C786 1.389 . S
C786 C785 1.389 . S
C786 C787 1.387 . S
C787 H772 0.930 . S
C787 C782 1.390 . S
C787 C786 1.387 . S
H788 C800 0.930 . S
H789 C802 0.930 . S
H790 C803 0.930 . S
H791 C807 0.959 . S
H792 C807 0.959 . S
H793 C807 0.961 . S
H794 C808 0.960 . S
H795 C808 0.961 . S
H796 C808 0.959 . S
H797 C811 0.929 . S
H798 C812 0.931 1_455 S
H799 C814 0.930 . S
C800 H788 0.930 . S
C800 C801 1.399 . S
C800 C805 1.399 . S
C801 C800 1.399 . S
C801 C802 1.376 . S
C802 H789 0.930 . S
C802 C801 1.376 . S
C802 C803 1.388 . S
C803 H790 0.930 . S
C803 C802 1.388 . S
C803 C804 1.390 . S
C804 C803 1.390 . S
C804 C805 1.394 . S
C804 C810 1.465 . S
C805 C800 1.399 . S
C805 C804 1.394 . S
C805 C806 1.516 . S
C806 C805 1.516 . S
C806 C807 1.502 . S
C806 C808 1.561 . S
C806 C809 1.526 . S
C807 H791 0.959 . S
C807 H792 0.959 . S
C807 H793 0.961 . S
C807 C806 1.502 . S
C808 H794 0.960 . S
C808 H795 0.961 . S
C808 H796 0.959 . S
C808 C806 1.561 . S
C809 C806 1.526 . S
C809 C810 1.396 . S
C809 C814 1.390 . S
C810 C804 1.465 . S
C810 C809 1.396 . S
C810 C811 1.399 1_556 S
C811 H797 0.929 . S
C811 C810 1.399 1_554 S
C811 C812 1.385 . S
C812 H798 0.931 1_655 S
C812 C811 1.385 . S
C812 C813 1.389 1_554 S
C813 C812 1.389 1_556 S
C813 C814 1.387 . S
C814 H799 0.930 . S
C814 C809 1.390 . S
C814 C813 1.387 . S
H815 C827 0.930 . S
H816 C829 0.930 . S
H817 C830 0.930 . S
H818 C834 0.959 . S
H819 C834 0.959 . S
H820 C834 0.961 . S
H821 C835 0.960 . S
H822 C835 0.961 . S
H823 C835 0.959 . S
H824 C838 0.929 . S
H825 C839 0.931 . S
H826 C841 0.930 . S
C827 H815 0.930 . S
C827 C828 1.399 . S
C827 C832 1.399 . S
C828 C827 1.399 . S
C828 C829 1.376 . S
C829 H816 0.930 . S
C829 C828 1.376 . S
C829 C830 1.388 . S
C830 H817 0.930 . S
C830 C829 1.388 . S
C830 C831 1.390 . S
C831 C830 1.390 . S
C831 C832 1.394 . S
C831 C837 1.465 . S
C832 C827 1.399 . S
C832 C831 1.394 . S
C832 C833 1.516 . S
C833 C832 1.516 . S
C833 C834 1.502 . S
C833 C835 1.561 . S
C833 C836 1.526 . S
C834 H818 0.959 . S
C834 H819 0.959 . S
C834 H820 0.961 . S
C834 C833 1.502 . S
C835 H821 0.960 . S
C835 H822 0.961 . S
C835 H823 0.959 . S
C835 C833 1.561 . S
C836 C833 1.526 . S
C836 C837 1.396 . S
C836 C841 1.390 . S
C837 C831 1.465 . S
C837 C836 1.396 . S
C837 C838 1.399 . S
C838 H824 0.929 . S
C838 C837 1.399 . S
C838 C839 1.385 . S
C839 H825 0.931 . S
C839 C838 1.385 . S
C839 C840 1.389 . S
C840 C839 1.389 . S
C840 C841 1.387 . S
C841 H826 0.930 . S
C841 C836 1.390 . S
C841 C840 1.387 . S
H842 C854 0.930 . S
H843 C856 0.930 . S
H844 C857 0.930 . S
H845 C861 0.959 . S
H846 C861 0.959 . S
H847 C861 0.961 . S
H848 C862 0.960 . S
H849 C862 0.961 . S
H850 C862 0.959 . S
H851 C865 0.929 . S
H852 C866 0.931 . S
H853 C868 0.930 . S
C854 H842 0.930 . S
C854 C855 1.399 . S
C854 C859 1.399 . S
C855 C854 1.399 . S
C855 C856 1.376 . S
C856 H843 0.930 . S
C856 C855 1.376 . S
C856 C857 1.388 . S
C857 H844 0.930 . S
C857 C856 1.388 . S
C857 C858 1.390 . S
C858 C857 1.390 . S
C858 C859 1.394 . S
C858 C864 1.465 . S
C859 C854 1.399 . S
C859 C858 1.394 . S
C859 C860 1.516 . S
C860 C859 1.516 . S
C860 C861 1.502 . S
C860 C862 1.561 . S
C860 C863 1.526 . S
C861 H845 0.959 . S
C861 H846 0.959 . S
C861 H847 0.961 . S
C861 C860 1.502 . S
C862 H848 0.960 . S
C862 H849 0.961 . S
C862 H850 0.959 . S
C862 C860 1.561 . S
C863 C860 1.526 . S
C863 C864 1.396 . S
C863 C868 1.390 . S
C864 C858 1.465 . S
C864 C863 1.396 . S
C864 C865 1.399 . S
C865 H851 0.929 . S
C865 C864 1.399 . S
C865 C866 1.385 . S
C866 H852 0.931 . S
C866 C865 1.385 . S
C866 C867 1.389 . S
C867 C866 1.389 . S
C867 C868 1.387 . S
C868 H853 0.930 . S
C868 C863 1.390 . S
C868 C867 1.387 . S
H869 C881 0.930 . S
H870 C883 0.930 . S
H871 C884 0.930 . S
H872 C888 0.959 . S
H873 C888 0.959 . S
H874 C888 0.961 . S
H875 C889 0.960 . S
H876 C889 0.961 . S
H877 C889 0.959 . S
H878 C892 0.929 . S
H879 C893 0.931 . S
H880 C895 0.930 . S
C881 H869 0.930 . S
C881 C882 1.399 . S
C881 C886 1.399 . S
C882 C881 1.399 . S
C882 C883 1.376 . S
C883 H870 0.930 . S
C883 C882 1.376 . S
C883 C884 1.388 . S
C884 H871 0.930 . S
C884 C883 1.388 . S
C884 C885 1.390 . S
C885 C884 1.390 . S
C885 C886 1.394 . S
C885 C891 1.465 . S
C886 C881 1.399 . S
C886 C885 1.394 . S
C886 C887 1.516 . S
C887 C886 1.516 . S
C887 C888 1.502 . S
C887 C889 1.561 . S
C887 C890 1.526 . S
C888 H872 0.959 . S
C888 H873 0.959 . S
C888 H874 0.961 . S
C888 C887 1.502 . S
C889 H875 0.960 . S
C889 H876 0.961 . S
C889 H877 0.959 . S
C889 C887 1.561 . S
C890 C887 1.526 . S
C890 C891 1.396 . S
C890 C895 1.390 . S
C891 C885 1.465 . S
C891 C890 1.396 . S
C891 C892 1.399 . S
C892 H878 0.929 . S
C892 C891 1.399 . S
C892 C893 1.385 . S
C893 H879 0.931 . S
C893 C892 1.385 . S
C893 C894 1.389 . S
C894 C893 1.389 . S
C894 C895 1.387 . S
C895 H880 0.930 . S
C895 C890 1.390 . S
C895 C894 1.387 . S
C261 C4 3.073 . S
C273 C107 3.024 . S
C288 C16 2.393 . S
C300 C138 2.457 1_556 S
C327 C177 0.919 . S
C315 C32 0.935 . S
C342 C43 0.461 . S
C354 C214 0.383 . S
C381 C137 3.258 . S
C369 C5 3.332 . S
C408 C94 1.171 . S
C396 C21 1.154 . S
C435 C226 1.225 . S
C423 C27 1.204 . S
C462 C183 0.930 . S
C450 C37 0.989 . S
C477 C10 2.436 . S
C489 C227 2.440 . S
C516 C143 1.442 . S
C504 C26 1.438 . S
C531 C38 0.216 . S
C543 C106 0.490 . S
C558 C15 2.406 . S
C570 C178 2.456 . S
C597 C98 3.043 . S
C585 C48 3.094 . S
C612 C59 2.142 . S
C624 C147 2.216 . S
C639 C76 1.222 . S
C651 C186 1.231 . S
C666 C87 0.390 . S
C678 C223 0.435 . S
C693 C54 2.758 . S
C705 C146 2.640 1_565 S
C732 C103 1.671 . S
C720 C60 1.650 . S
C759 C217 1.246 . S
C747 C71 1.314 . S
C786 C174 0.951 . S
C774 C82 1.053 . S
C801 C49 2.561 . S
C813 C218 2.578 1_655 S
C840 C134 1.236 . S
C828 C70 1.277 . S
C867 C97 0.686 . S
C855 C81 0.516 . S
C882 C65 2.243 . S
C894 C187 2.306 . S
