# Generated by pormake.
# Topology apo, (3,6)-cn, num edge types: 1
# Building blocks:
#     Node 0, Type 0, BuildingBlock: MIDCAF_clean_linker_0, # of connection points: 3
#     Node 1, Type 0, BuildingBlock: MIDCAF_clean_linker_0, # of connection points: 3
#     Node 2, Type 0, BuildingBlock: MIDCAF_clean_linker_0, # of connection points: 3
#     Node 3, Type 0, BuildingBlock: MIDCAF_clean_linker_0, # of connection points: 3
#     Node 4, Type 0, BuildingBlock: MIDCAF_clean_linker_0, # of connection points: 3
#     Node 5, Type 0, BuildingBlock: MIDCAF_clean_linker_0, # of connection points: 3
#     Node 6, Type 0, BuildingBlock: MIDCAF_clean_linker_0, # of connection points: 3
#     Node 7, Type 0, BuildingBlock: MIDCAF_clean_linker_0, # of connection points: 3
#     Node 8, Type 1, BuildingBlock: KUMJIN_clean_sbu_1, # of connection points: 6
#     Node 9, Type 1, BuildingBlock: KUMJIN_clean_sbu_1, # of connection points: 6
#     Node 10, Type 1, BuildingBlock: KUMJIN_clean_sbu_1, # of connection points: 6
#     Node 11, Type 1, BuildingBlock: KUMJIN_clean_sbu_1, # of connection points: 6
#     Edge 12, Type (0, 1), BuildingBlock: EZIPEK_clean_linker_0, # of connection points: 2
#     Edge 13, Type (0, 1), BuildingBlock: EZIPEK_clean_linker_0, # of connection points: 2
#     Edge 14, Type (0, 1), BuildingBlock: EZIPEK_clean_linker_0, # of connection points: 2
#     Edge 15, Type (0, 1), BuildingBlock: EZIPEK_clean_linker_0, # of connection points: 2
#     Edge 16, Type (0, 1), BuildingBlock: EZIPEK_clean_linker_0, # of connection points: 2
#     Edge 17, Type (0, 1), BuildingBlock: EZIPEK_clean_linker_0, # of connection points: 2
#     Edge 18, Type (0, 1), BuildingBlock: EZIPEK_clean_linker_0, # of connection points: 2
#     Edge 19, Type (0, 1), BuildingBlock: EZIPEK_clean_linker_0, # of connection points: 2
#     Edge 20, Type (0, 1), BuildingBlock: EZIPEK_clean_linker_0, # of connection points: 2
#     Edge 21, Type (0, 1), BuildingBlock: EZIPEK_clean_linker_0, # of connection points: 2
#     Edge 22, Type (0, 1), BuildingBlock: EZIPEK_clean_linker_0, # of connection points: 2
#     Edge 23, Type (0, 1), BuildingBlock: EZIPEK_clean_linker_0, # of connection points: 2
#     Edge 24, Type (0, 1), BuildingBlock: EZIPEK_clean_linker_0, # of connection points: 2
#     Edge 25, Type (0, 1), BuildingBlock: EZIPEK_clean_linker_0, # of connection points: 2
#     Edge 26, Type (0, 1), BuildingBlock: EZIPEK_clean_linker_0, # of connection points: 2
#     Edge 27, Type (0, 1), BuildingBlock: EZIPEK_clean_linker_0, # of connection points: 2
#     Edge 28, Type (0, 1), BuildingBlock: EZIPEK_clean_linker_0, # of connection points: 2
#     Edge 29, Type (0, 1), BuildingBlock: EZIPEK_clean_linker_0, # of connection points: 2
#     Edge 30, Type (0, 1), BuildingBlock: EZIPEK_clean_linker_0, # of connection points: 2
#     Edge 31, Type (0, 1), BuildingBlock: EZIPEK_clean_linker_0, # of connection points: 2
#     Edge 32, Type (0, 1), BuildingBlock: EZIPEK_clean_linker_0, # of connection points: 2
#     Edge 33, Type (0, 1), BuildingBlock: EZIPEK_clean_linker_0, # of connection points: 2
#     Edge 34, Type (0, 1), BuildingBlock: EZIPEK_clean_linker_0, # of connection points: 2
#     Edge 35, Type (0, 1), BuildingBlock: EZIPEK_clean_linker_0, # of connection points: 2
# Relax obj value: 0.008
# Max RMSD: 0.109
# Mean RMSD: 0.085
data_MOF--net-apo--node1-KUMJIN_clean_sbu_1--node2-MIDCAF_clean_linker_0--edge1-EZIPEK_clean_linker_0
_symmetry_space_group_name_H-M    P1
_symmetry_Int_Tables_number       1
_symmetry_cell_setting            triclinic
loop_
_symmetry_equiv_pos_as_xyz
'x, y, z'
_cell_length_a     22.869501
_cell_length_b     40.281496
_cell_length_c     51.45124
_cell_angle_alpha  90.007227
_cell_angle_beta   90.047917
_cell_angle_gamma 90.204169
loop_
_atom_site_label
_atom_site_type_symbol
_atom_site_fract_x
_atom_site_fract_y
_atom_site_fract_z
_atom_type_partial_charge
C0 C 0.27921 0.39859 0.50797 0.0
C1 C 0.26408 0.36821 0.52025 0.0
C2 C 0.26621 0.33961 0.50424 0.0
C3 C 0.27014 0.34206 0.4772 0.0
H4 H 0.16135 0.31105 0.41075 0.0
H5 H 0.10868 0.27043 0.38399 0.0
H6 H 0.21909 0.29435 0.31868 0.0
H7 H 0.27071 0.33582 0.34503 0.0
H8 H 0.29844 0.41676 0.34512 0.0
H9 H 0.34057 0.46412 0.32216 0.0
H10 H 0.3985 0.5059 0.39486 0.0
H11 H 0.35628 0.45852 0.41832 0.0
H12 H 0.29276 0.42517 0.4723 0.0
H13 H 0.2879 0.42084 0.51903 0.0
H14 H 0.26591 0.31481 0.51203 0.0
H15 H 0.26862 0.31947 0.46577 0.0
N16 N 0.25095 0.35098 0.42191 0.0
N17 N 0.27366 0.37953 0.38356 0.0
N18 N 0.29992 0.40233 0.42392 0.0
C19 C 0.24949 0.35284 0.39556 0.0
C20 C 0.29881 0.40445 0.39748 0.0
C21 C 0.27641 0.37548 0.43626 0.0
C22 C 0.22009 0.32671 0.37998 0.0
C23 C 0.17467 0.30753 0.39075 0.0
C24 C 0.14447 0.28437 0.37549 0.0
C25 C 0.16 0.27942 0.34937 0.0
C26 C 0.20637 0.29788 0.33878 0.0
C27 C 0.23572 0.32156 0.35385 0.0
C28 C 0.32402 0.43364 0.38369 0.0
C29 C 0.31997 0.43594 0.3564 0.0
C30 C 0.3439 0.46303 0.34315 0.0
C31 C 0.37246 0.48837 0.35685 0.0
C32 C 0.37642 0.4865 0.38403 0.0
C33 C 0.35234 0.45937 0.39736 0.0
C34 C 0.27686 0.37299 0.46509 0.0
C35 C 0.28413 0.40108 0.48086 0.0
C36 C 0.22439 0.09574 1.00471 0.0
C37 C 0.22767 0.12615 0.01793 0.0
C38 C 0.23546 0.15553 1.00361 0.0
C39 C 0.24077 0.15438 0.97648 0.0
H40 H 0.3505 0.19133 0.91132 0.0
H41 H 0.4021 0.23325 0.88534 0.0
H42 H 0.30716 0.20201 0.81713 0.0
H43 H 0.25642 0.15964 0.84267 0.0
H44 H 0.22084 0.08123 0.84277 0.0
H45 H 0.17625 0.0341 0.82006 0.0
H46 H 0.11587 0.99442 0.89304 0.0
H47 H 0.16026 0.04125 0.91611 0.0
H48 H 0.22574 0.07072 0.96808 0.0
H49 H 0.21838 0.0728 0.0154 0.0
H50 H 0.23779 0.17926 0.01346 0.0
H51 H 0.24683 0.17739 0.96591 0.0
N52 N 0.26702 0.14714 0.92066 0.0
N53 N 0.24621 0.11899 0.88175 0.0
N54 N 0.21764 0.09595 0.92155 0.0
C55 C 0.26995 0.14554 0.89426 0.0
C56 C 0.22005 0.09405 0.89521 0.0
C57 C 0.24077 0.12238 0.93443 0.0
C58 C 0.29941 0.17206 0.87907 0.0
C59 C 0.34036 0.19348 0.89083 0.0
C60 C 0.36995 0.21739 0.87603 0.0
C61 C 0.35833 0.22069 0.84935 0.0
C62 C 0.31675 0.19979 0.83768 0.0
C63 C 0.28788 0.17558 0.85233 0.0
C64 C 0.19408 0.0652 0.88133 0.0
C65 C 0.19824 0.06251 0.85409 0.0
C66 C 0.1729 0.03561 0.84103 0.0
C67 C 0.14292 0.01098 0.85496 0.0
C68 C 0.13898 0.01329 0.88206 0.0
C69 C 0.16437 0.04012 0.89516 0.0
C70 C 0.23704 0.1239 0.96319 0.0
C71 C 0.22859 0.09463 0.97765 0.0
C72 C 0.81203 0.09377 0.51316 0.0
C73 C 0.81567 0.12451 0.50041 0.0
C74 C 0.81414 0.15384 0.51513 0.0
C75 C 0.80631 0.15247 0.54206 0.0
H76 H 0.7066 0.2024 0.59877 0.0
H77 H 0.65482 0.24763 0.62067 0.0
H78 H 0.67307 0.19713 0.69402 0.0
H79 H 0.72456 0.15177 0.67256 0.0
H80 H 0.74647 0.0745 0.67079 0.0
H81 H 0.77723 0.02872 0.69867 0.0
H82 H 0.89661 0.99546 0.63944 0.0
H83 H 0.86574 0.04115 0.61108 0.0
H84 H 0.80143 0.0683 0.5494 0.0
H85 H 0.81314 0.07087 0.50212 0.0
H86 H 0.81716 0.17779 0.50564 0.0
H87 H 0.80381 0.17552 0.55283 0.0
N88 N 0.76266 0.14651 0.59506 0.0
N89 N 0.7626 0.11748 0.63446 0.0
N90 N 0.80187 0.0927 0.59716 0.0
C91 C 0.74933 0.14521 0.62077 0.0
C92 C 0.78888 0.09118 0.62293 0.0
C93 C 0.78885 0.12036 0.58311 0.0
C94 C 0.71965 0.17331 0.63385 0.0
C95 C 0.69986 0.20089 0.61957 0.0
C96 C 0.67025 0.22674 0.63199 0.0
C97 C 0.66023 0.22547 0.65885 0.0
C98 C 0.68047 0.19835 0.67324 0.0
C99 C 0.70984 0.17248 0.66087 0.0
C100 C 0.80408 0.0617 0.63875 0.0
C101 C 0.77897 0.05736 0.66351 0.0
C102 C 0.79624 0.03116 0.67948 0.0
C103 C 0.83933 0.00897 0.67112 0.0
C104 C 0.86326 0.01246 0.64615 0.0
C105 C 0.84556 0.03854 0.63001 0.0
C106 C 0.80114 0.12172 0.55484 0.0
C107 C 0.80534 0.09236 0.54017 0.0
C108 C 0.6454 0.39451 0.01121 0.0
C109 C 0.65313 0.36387 0.99869 0.0
C110 C 0.67449 0.33685 0.01296 0.0
C111 C 0.68769 0.34028 0.03936 0.0
H112 H 0.80286 0.3021 0.0999 0.0
H113 H 0.85359 0.25871 0.12483 0.0
H114 H 0.77108 0.29323 0.19507 0.0
H115 H 0.7218 0.33686 0.17068 0.0
H116 H 0.72471 0.42112 0.16872 0.0
H117 H 0.69326 0.46792 0.19521 0.0
H118 H 0.5836 0.50228 0.1327 0.0
H119 H 0.61519 0.45535 0.10565 0.0
H120 H 0.65148 0.42184 0.04688 0.0
H121 H 0.62915 0.41569 1.00047 0.0
H122 H 0.68084 0.31302 1.00363 0.0
H123 H 0.70387 0.31879 0.04973 0.0
N124 N 0.71954 0.34862 0.09322 0.0
N125 N 0.71512 0.3786 0.13213 0.0
N126 N 0.67744 0.40184 0.09388 0.0
C127 C 0.73062 0.35074 0.1191 0.0
C128 C 0.68885 0.40432 0.11981 0.0
C129 C 0.69276 0.37399 0.08043 0.0
C130 C 0.75868 0.32307 0.13336 0.0
C131 C 0.79529 0.30024 0.12063 0.0
C132 C 0.82424 0.27548 0.13479 0.0
C133 C 0.81599 0.27281 0.16176 0.0
C134 C 0.77806 0.29492 0.17429 0.0
C135 C 0.7501 0.31992 0.1603 0.0
C136 C 0.67216 0.43423 0.13502 0.0
C137 C 0.69413 0.43863 0.16039 0.0
C138 C 0.67642 0.46545 0.17562 0.0
C139 C 0.63611 0.48845 0.16593 0.0
C140 C 0.61491 0.48476 0.14046 0.0
C141 C 0.633 0.45794 0.12506 0.0
C142 C 0.67951 0.37082 0.05218 0.0
C143 C 0.65819 0.39793 0.03774 0.0
C144 C 0.70038 0.60524 0.51088 0.0
C145 C 0.73024 0.62952 0.49651 0.0
C146 C 0.76199 0.65416 0.50976 0.0
C147 C 0.76454 0.65423 0.53699 0.0
H148 H 0.83058 0.70722 0.60205 0.0
H149 H 0.88725 0.74658 0.62619 0.0
H150 H 0.85453 0.69128 0.6967 0.0
H151 H 0.79664 0.65249 0.67246 0.0
H152 H 0.74397 0.58261 0.6701 0.0
H153 H 0.69986 0.53745 0.69498 0.0
H154 H 0.59019 0.51241 0.62965 0.0
H155 H 0.6348 0.55739 0.60423 0.0
H156 H 0.67975 0.58589 0.54847 0.0
H157 H 0.67563 0.58603 0.501 0.0
H158 H 0.78535 0.67311 0.49898 0.0
H159 H 0.78995 0.67339 0.54658 0.0
N160 N 0.77116 0.65213 0.59368 0.0
N161 N 0.75079 0.62506 0.63299 0.0
N162 N 0.71418 0.60341 0.594 0.0
C163 C 0.77652 0.65054 0.62005 0.0
C164 C 0.71955 0.60147 0.62026 0.0
C165 C 0.73993 0.6286 0.58048 0.0
C166 C 0.8115 0.67542 0.63485 0.0
C167 C 0.83757 0.70275 0.62258 0.0
C168 C 0.87254 0.72505 0.63668 0.0
C169 C 0.88574 0.71975 0.66333 0.0
C170 C 0.85356 0.69432 0.67584 0.0
C171 C 0.81842 0.6722 0.66186 0.0
C172 C 0.69284 0.57373 0.63512 0.0
C173 C 0.71048 0.56758 0.66091 0.0
C174 C 0.68545 0.54174 0.6752 0.0
C175 C 0.6418 0.52172 0.66416 0.0
C176 C 0.62393 0.52765 0.63845 0.0
C177 C 0.6495 0.55331 0.62398 0.0
C178 C 0.73542 0.62959 0.55155 0.0
C179 C 0.70291 0.60524 0.53807 0.0
C180 C 0.78501 0.89891 1.00819 0.0
C181 C 0.7567 0.87291 0.99504 0.0
C182 C 0.7264 0.84882 0.00949 0.0
C183 C 0.72387 0.85091 0.03665 0.0
H184 H 0.71905 0.79308 0.11345 0.0
H185 H 0.67708 0.75021 0.14187 0.0
H186 H 0.59454 0.82613 0.18803 0.0
H187 H 0.63897 0.86904 0.16054 0.0
H188 H 0.72532 0.93985 0.1626 0.0
H189 H 0.77201 0.98507 0.18684 0.0
H190 H 0.90514 0.99291 0.12785 0.0
H191 H 0.85757 0.94837 0.10302 0.0
H192 H 0.80427 0.9217 0.04479 0.0
H193 H 0.8087 0.91771 0.99739 0.0
H194 H 0.70429 0.82855 0.99969 0.0
H195 H 0.69961 0.83207 0.04714 0.0
N196 N 0.71844 0.85665 0.093 0.0
N197 N 0.73273 0.88795 0.13099 0.0
N198 N 0.76873 0.90758 0.09115 0.0
C199 C 0.71136 0.86037 0.11911 0.0
C200 C 0.76194 0.91151 0.11724 0.0
C201 C 0.74649 0.88041 0.07878 0.0
C202 C 0.68228 0.83434 0.13483 0.0
C203 C 0.69174 0.80055 0.1296 0.0
C204 C 0.66799 0.77609 0.14587 0.0
C205 C 0.63286 0.78493 0.16718 0.0
C206 C 0.62184 0.8187 0.17186 0.0
C207 C 0.64712 0.84317 0.15612 0.0
C208 C 0.78785 0.94047 0.13091 0.0
C209 C 0.76419 0.95142 0.15463 0.0
C210 C 0.79071 0.97729 0.16849 0.0
C211 C 0.84215 0.99225 0.1592 0.0
C212 C 0.86538 0.98175 0.13531 0.0
C213 C 0.83811 0.95635 0.12115 0.0
C214 C 0.75145 0.87724 0.04997 0.0
C215 C 0.78237 0.9011 0.03534 0.0
C216 C 0.169 0.9147 0.50261 0.0
C217 C 0.20457 0.8952 0.51918 0.0
C218 C 0.22901 0.86642 0.50771 0.0
C219 C 0.22967 0.86196 0.48071 0.0
H220 H 0.24825 0.79124 0.40719 0.0
H221 H 0.29861 0.74783 0.38212 0.0
H222 H 0.38813 0.82323 0.33769 0.0
H223 H 0.33617 0.86638 0.36175 0.0
H224 H 0.23249 0.92087 0.34393 0.0
H225 H 0.19849 0.96515 0.31553 0.0
H226 H 0.08626 0.00152 0.37636 0.0
H227 H 0.12054 0.95721 0.40538 0.0
H228 H 0.14458 0.92739 0.4637 0.0
H229 H 0.13997 0.93347 0.51002 0.0
H230 H 0.24797 0.84684 0.51923 0.0
H231 H 0.25229 0.84064 0.47284 0.0
N232 N 0.24165 0.85815 0.42455 0.0
N233 N 0.23271 0.88341 0.38369 0.0
N234 N 0.18951 0.9081 0.42007 0.0
C235 C 0.25306 0.85829 0.39861 0.0
C236 C 0.20051 0.90825 0.39409 0.0
C237 C 0.2101 0.8832 0.43549 0.0
C238 C 0.28826 0.83204 0.38628 0.0
C239 C 0.27921 0.79841 0.39227 0.0
C240 C 0.30773 0.77369 0.37794 0.0
C241 C 0.34683 0.78235 0.35795 0.0
C242 C 0.35789 0.81602 0.35289 0.0
C243 C 0.32827 0.84059 0.36666 0.0
C244 C 0.17925 0.93539 0.37704 0.0
C245 C 0.20044 0.93812 0.35142 0.0
C246 C 0.1811 0.96342 0.33507 0.0
C247 C 0.13979 0.98642 0.34383 0.0
C248 C 0.11812 0.98386 0.36929 0.0
C249 C 0.13788 0.95862 0.38583 0.0
C250 C 0.20259 0.88499 0.46421 0.0
C251 C 0.16965 0.91043 0.47561 0.0
C252 C 0.36522 0.61109 1.00419 0.0
C253 C 0.33708 0.63613 0.01834 0.0
C254 C 0.30189 0.65909 1.00519 0.0
C255 C 0.29417 0.65684 0.97828 0.0
H256 H 0.27776 0.71618 0.90295 0.0
H257 H 0.23135 0.75906 0.87602 0.0
H258 H 0.14814 0.68297 0.82986 0.0
H259 H 0.19622 0.6402 0.85589 0.0
H260 H 0.30143 0.58282 0.84523 0.0
H261 H 0.33852 0.5356 0.82074 0.0
H262 H 0.41354 0.49497 0.89062 0.0
H263 H 0.37689 0.5424 0.91561 0.0
H264 H 0.37886 0.58875 0.96693 0.0
H265 H 0.39268 0.59321 0.01406 0.0
H266 H 0.27998 0.67864 0.01584 0.0
H267 H 0.26617 0.67478 0.9688 0.0
N268 N 0.28253 0.65246 0.92217 0.0
N269 N 0.28788 0.62079 0.88404 0.0
N270 N 0.3278 0.60015 0.9227 0.0
C271 C 0.27093 0.64883 0.8964 0.0
C272 C 0.31658 0.59641 0.8969 0.0
C273 C 0.31065 0.62804 0.93554 0.0
C274 C 0.2405 0.67493 0.8815 0.0
C275 C 0.24944 0.70869 0.88709 0.0
C276 C 0.2233 0.73313 0.87166 0.0
C277 C 0.18651 0.72416 0.85087 0.0
C278 C 0.17671 0.69042 0.84564 0.0
C279 C 0.20403 0.66606 0.86058 0.0
C280 C 0.33642 0.56661 0.88247 0.0
C281 C 0.32548 0.56386 0.85559 0.0
C282 C 0.34648 0.53686 0.84148 0.0
C283 C 0.37855 0.51199 0.85394 0.0
C284 C 0.38862 0.51404 0.88079 0.0
C285 C 0.36773 0.54116 0.89498 0.0
C286 C 0.32119 0.63136 0.96397 0.0
C287 C 0.35712 0.6086 0.97727 0.0
Eu288 Eu 0.07082 0.14458 0.2296 0.0
C289 C 0.81956 0.09129 0.26594 0.0
N290 N 0.84059 0.12254 0.26189 0.0
C291 C 0.75404 0.13672 0.23815 0.0
C292 C 0.76519 0.08136 0.25555 0.0
C293 C 0.8079 0.14556 0.24905 0.0
C294 C 0.73283 0.1044 0.24118 0.0
C295 C 0.8304 0.03724 0.28634 0.0
C296 C 0.85217 0.06933 0.28099 0.0
C297 C 0.77679 0.02711 0.27557 0.0
C298 C 0.7444 0.04904 0.26016 0.0
Eu299 Eu 0.93266 0.13442 0.2806 0.0
N300 N 0.90454 0.07954 0.29081 0.0
C301 C 0.86292 0.01638 0.30257 0.0
C302 C 0.9348 0.05996 0.30774 0.0
C303 C 0.91504 0.02793 0.31351 0.0
H304 H 0.82283 0.17087 0.24734 0.0
H305 H 0.93973 0.0123 0.32662 0.0
H306 H 0.18401 0.12341 0.26712 0.0
H307 H 0.03221 0.26072 0.17668 0.0
H308 H 0.97368 0.06907 0.31727 0.0
H309 H 0.84766 0.99157 0.30714 0.0
H310 H 0.01821 0.20157 0.18659 0.0
H311 H 0.72868 0.15493 0.2276 0.0
H312 H 0.75968 0.00244 0.27928 0.0
H313 H 0.70283 0.04094 0.25222 0.0
H314 H 0.26712 0.15092 0.28956 0.0
H315 H 0.6909 0.0977 0.23284 0.0
H316 H 0.10827 0.2931 0.19971 0.0
N317 N 0.15232 0.16823 0.2507 0.0
C318 C 0.16232 0.20095 0.24607 0.0
C319 C 0.23772 0.16531 0.27757 0.0
C320 C 0.20935 0.21758 0.2582 0.0
C321 C 0.1908 0.14985 0.26497 0.0
C322 C 0.24652 0.19943 0.2745 0.0
N323 N 0.08113 0.20096 0.21721 0.0
C324 C 0.04957 0.21562 0.19781 0.0
C325 C 0.13684 0.25143 0.22302 0.0
C326 C 0.12603 0.21768 0.22879 0.0
C327 C 0.10153 0.2672 0.20458 0.0
C328 C 0.05833 0.24907 0.19165 0.0
H329 H 0.28299 0.21136 0.28424 0.0
H330 H 0.25399 0.26477 0.2627 0.0
H331 H 0.19076 0.29435 0.23181 0.0
O332 O 0.10592 0.14804 0.18966 0.0
O333 O 0.07547 0.16286 0.27162 0.0
O334 O 0.98408 0.18269 0.27972 0.0
O335 O 0.14042 0.11152 0.21698 0.0
O336 O 0.97974 0.16202 0.21674 0.0
O337 O 0.92867 0.17851 0.25356 0.0
O338 O 0.93572 0.1353 0.32317 0.0
O339 O 0.92817 0.10086 0.24482 0.0
O340 O 0.00615 0.1061 0.21581 0.0
O341 O 0.86367 0.15832 0.30302 0.0
O342 O 0.02085 0.11179 0.29088 0.0
O343 O 0.07032 0.09731 0.25332 0.0
C344 C 0.04084 0.18465 0.28253 0.0
C345 C 0.1846 0.11176 0.17407 0.0
C346 C 0.21981 0.1087 0.12928 0.0
C347 C 0.26117 0.08497 0.13697 0.0
C348 C 0.22662 0.08807 0.18127 0.0
C349 C 0.2647 0.07491 0.16283 0.0
C350 C 0.1819 0.12241 0.14799 0.0
C351 C 0.93994 0.18043 0.22852 0.0
C352 C 0.14286 0.12409 0.19374 0.0
C353 C 0.21848 0.25149 0.25333 0.0
C354 C 0.18247 0.26833 0.23573 0.0
C355 C 0.95633 0.09287 0.22333 0.0
C356 C 0.84327 0.133 0.34357 0.0
C357 C 0.81274 0.12026 0.38792 0.0
C358 C 0.76676 0.10079 0.37806 0.0
C359 C 0.79597 0.11413 0.33418 0.0
C360 C 0.85121 0.13625 0.37057 0.0
C361 C 0.75839 0.09788 0.35133 0.0
C362 C 0.05475 0.09161 0.27751 0.0
C363 C 0.88456 0.14912 0.32544 0.0
H364 H 0.29068 0.07418 0.12286 0.0
H365 H 0.22989 0.07949 0.20117 0.0
H366 H 0.29676 0.05661 0.16858 0.0
H367 H 0.14978 0.14064 0.14208 0.0
H368 H 0.73678 0.0883 0.39114 0.0
H369 H 0.78763 0.11208 0.31361 0.0
H370 H 0.88689 0.15124 0.37809 0.0
H371 H 0.72233 0.08323 0.34386 0.0
Eu372 Eu 0.42665 0.37075 0.735 0.0
C373 C 0.71325 0.34428 0.75191 0.0
N374 N 0.66523 0.32777 0.76057 0.0
C375 C 0.71352 0.27558 0.75472 0.0
C376 C 0.76351 0.32677 0.74399 0.0
C377 C 0.66486 0.29395 0.7625 0.0
C378 C 0.763 0.29204 0.74533 0.0
C379 C 0.76229 0.39648 0.74269 0.0
C380 C 0.7123 0.37879 0.75103 0.0
C381 C 0.812 0.37909 0.73439 0.0
C382 C 0.81257 0.34434 0.73498 0.0
Eu383 Eu 0.5841 0.3604 0.77207 0.0
N384 N 0.66332 0.39506 0.7589 0.0
C385 C 0.76134 0.4312 0.74336 0.0
C386 C 0.66382 0.42892 0.76114 0.0
C387 C 0.71209 0.44746 0.75289 0.0
H388 H 0.62686 0.28118 0.77009 0.0
H389 H 0.71117 0.4743 0.75381 0.0
H390 H 0.35653 0.44237 0.7469 0.0
H391 H 0.34981 0.24257 0.74572 0.0
H392 H 0.62573 0.44182 0.76785 0.0
H393 H 0.79877 0.44564 0.73704 0.0
H394 H 0.41851 0.28714 0.73321 0.0
H395 H 0.71288 0.24877 0.75601 0.0
H396 H 0.85055 0.3923 0.72775 0.0
H397 H 0.85141 0.3313 0.72868 0.0
H398 H 0.26378 0.46093 0.76668 0.0
H399 H 0.80065 0.27773 0.7393 0.0
H400 H 0.25653 0.25678 0.76724 0.0
N401 N 0.33796 0.39102 0.75216 0.0
C402 C 0.29903 0.36784 0.76056 0.0
C403 C 0.27315 0.4347 0.76507 0.0
C404 C 0.24537 0.37736 0.77177 0.0
C405 C 0.32567 0.42411 0.75399 0.0
C406 C 0.23291 0.41124 0.77409 0.0
N407 N 0.36442 0.32599 0.74666 0.0
C408 C 0.37709 0.29356 0.74155 0.0
C409 C 0.2722 0.3098 0.76553 0.0
C410 C 0.31244 0.33443 0.75762 0.0
C411 C 0.28616 0.27642 0.76133 0.0
C412 C 0.33862 0.2683 0.74907 0.0
H413 H 0.19226 0.41954 0.78267 0.0
H414 H 0.16451 0.35976 0.78895 0.0
H415 H 0.18789 0.30064 0.78338 0.0
O416 O 0.41819 0.3538 0.6947 0.0
O417 O 0.43153 0.33982 0.77256 0.0
O418 O 0.52354 0.31655 0.77507 0.0
O419 O 0.37013 0.39668 0.70746 0.0
O420 O 0.50259 0.34557 0.71401 0.0
O421 O 0.55496 0.31844 0.74555 0.0
O422 O 0.57586 0.37851 0.81199 0.0
O423 O 0.58078 0.39511 0.73696 0.0
O424 O 0.48641 0.41523 0.73159 0.0
O425 O 0.64309 0.34308 0.80262 0.0
O426 O 0.51151 0.39002 0.79178 0.0
O427 O 0.44941 0.41381 0.76144 0.0
C428 C 0.46858 0.31794 0.78216 0.0
C429 C 0.32777 0.36462 0.67394 0.0
C430 C 0.27515 0.35824 0.63287 0.0
C431 C 0.22654 0.34611 0.64664 0.0
C432 C 0.27886 0.35215 0.68722 0.0
C433 C 0.22863 0.34289 0.67362 0.0
C434 C 0.32609 0.36726 0.64663 0.0
C435 C 0.53866 0.32202 0.72123 0.0
C436 C 0.3796 0.37612 0.68845 0.0
C437 C 0.20581 0.35289 0.78019 0.0
C438 C 0.21915 0.31922 0.77705 0.0
C439 C 0.54286 0.41609 0.72695 0.0
C440 C 0.6003 0.33945 0.84422 0.0
C441 C 0.59813 0.33279 0.89137 0.0
C442 C 0.56894 0.30231 0.88823 0.0
C443 C 0.57167 0.30876 0.84149 0.0
C444 C 0.61321 0.35152 0.86924 0.0
C445 C 0.55567 0.29046 0.86341 0.0
C446 C 0.47213 0.4121 0.78491 0.0
C447 C 0.61629 0.35899 0.82109 0.0
H448 H 0.18691 0.33911 0.63644 0.0
H449 H 0.27914 0.34997 0.7081 0.0
H450 H 0.19099 0.33346 0.68405 0.0
H451 H 0.36365 0.37687 0.63618 0.0
H452 H 0.55678 0.28764 0.90504 0.0
H453 H 0.56192 0.29891 0.82242 0.0
H454 H 0.63538 0.37518 0.87152 0.0
H455 H 0.53325 0.26692 0.86113 0.0
Eu456 Eu 0.07108 0.87683 0.7383 0.0
C457 C 0.82401 0.80952 0.76509 0.0
N458 N 0.84173 0.84164 0.76334 0.0
C459 C 0.75971 0.85432 0.73616 0.0
C460 C 0.77427 0.79821 0.75146 0.0
C461 C 0.80933 0.86434 0.75003 0.0
C462 C 0.7425 0.82101 0.7366 0.0
C463 C 0.83682 0.75485 0.78384 0.0
C464 C 0.85512 0.78815 0.78099 0.0
C465 C 0.78853 0.74314 0.7696 0.0
C466 C 0.75732 0.76477 0.75346 0.0
Eu467 Eu 0.92744 0.85644 0.7861 0.0
N468 N 0.90169 0.80022 0.7945 0.0
C469 C 0.86675 0.73449 0.80136 0.0
C470 C 0.9286 0.78097 0.81282 0.0
C471 C 0.91227 0.74777 0.81619 0.0
H472 H 0.82186 0.89018 0.74999 0.0
H473 H 0.93446 0.73253 0.83041 0.0
H474 H 0.19003 0.83211 0.75693 0.0
H475 H 0.05925 0.01008 0.7215 0.0
H476 H 0.96234 0.79107 0.82522 0.0
H477 H 0.85403 0.70879 0.8041 0.0
H478 H 0.03169 0.95093 0.71586 0.0
H479 H 0.73471 0.8723 0.7252 0.0
H480 H 0.77424 0.71756 0.77136 0.0
H481 H 0.7195 0.75554 0.74297 0.0
H482 H 0.28342 0.84163 0.77962 0.0
H483 H 0.704 0.81331 0.72586 0.0
H484 H 0.14515 0.02493 0.74852 0.0
N485 N 0.16502 0.88305 0.75767 0.0
C486 C 0.18263 0.9147 0.76264 0.0
C487 C 0.25517 0.86239 0.77523 0.0
C488 C 0.23639 0.92134 0.7751 0.0
C489 C 0.2017 0.85708 0.76266 0.0
C490 C 0.2722 0.89461 0.78186 0.0
N491 N 0.0984 0.9333 0.74082 0.0
C492 C 0.06831 0.95749 0.72807 0.0
C493 C 0.16634 0.97382 0.75745 0.0
C494 C 0.14827 0.94064 0.75395 0.0
C495 C 0.13276 0.9991 0.74629 0.0
C496 C 0.08422 0.99083 0.73105 0.0
H497 H 0.31375 0.89865 0.79151 0.0
H498 H 0.29386 0.95992 0.78984 0.0
H499 H 0.23238 0.00592 0.7744 0.0
O500 O 0.06296 0.88577 0.69641 0.0
O501 O 0.04101 0.91361 0.76868 0.0
O502 O 0.00882 0.88124 0.80237 0.0
O503 O 0.13751 0.85948 0.71102 0.0
O504 O 0.97903 0.89046 0.72573 0.0
O505 O 0.92678 0.90432 0.76266 0.0
O506 O 0.90351 0.85187 0.82695 0.0
O507 O 0.92891 0.83452 0.74503 0.0
O508 O 0.02727 0.82638 0.73834 0.0
O509 O 0.86442 0.89057 0.80394 0.0
O510 O 0.01005 0.82897 0.79683 0.0
O511 O 0.08778 0.83533 0.76761 0.0
C512 C 0.0373 0.90711 0.79352 0.0
C513 C 0.15224 0.89334 0.67424 0.0
C514 C 0.19025 0.90852 0.63152 0.0
C515 C 0.22725 0.93194 0.64336 0.0
C516 C 0.1899 0.91679 0.68564 0.0
C517 C 0.22695 0.93605 0.67026 0.0
C518 C 0.15232 0.88929 0.64703 0.0
C519 C 0.9402 0.9087 0.73796 0.0
C520 C 0.11348 0.87302 0.69074 0.0
C521 C 0.2532 0.95437 0.77991 0.0
C522 C 0.21816 0.98057 0.77115 0.0
C523 C 0.97245 0.82049 0.73243 0.0
C524 C 0.81114 0.87002 0.84055 0.0
C525 C 0.75975 0.8655 0.88204 0.0
C526 C 0.70897 0.85571 0.86869 0.0
C527 C 0.76015 0.86004 0.8275 0.0
C528 C 0.81067 0.87277 0.86782 0.0
C529 C 0.70925 0.85308 0.84156 0.0
C530 C 0.06328 0.8223 0.78859 0.0
C531 C 0.86628 0.87606 0.82657 0.0
H532 H 0.25666 0.94694 0.63171 0.0
H533 H 0.19111 0.92003 0.70645 0.0
H534 H 0.25581 0.95406 0.67925 0.0
H535 H 0.12364 0.87116 0.63801 0.0
H536 H 0.6693 0.84998 0.87929 0.0
H537 H 0.75979 0.85738 0.80655 0.0
H538 H 0.85013 0.88014 0.87804 0.0
H539 H 0.67 0.84536 0.83143 0.0
Eu540 Eu 0.42979 0.6325 0.24099 0.0
C541 C 0.69546 0.67896 0.26825 0.0
N542 N 0.66815 0.64981 0.26276 0.0
C543 C 0.74184 0.63662 0.23135 0.0
C544 C 0.74633 0.68863 0.25471 0.0
C545 C 0.69179 0.62801 0.24544 0.0
C546 C 0.76882 0.66727 0.23575 0.0
C547 C 0.70268 0.72814 0.2952 0.0
C548 C 0.67363 0.69852 0.28812 0.0
C549 C 0.75215 0.7385 0.28117 0.0
C550 C 0.77384 0.71883 0.26092 0.0
Eu551 Eu 0.58186 0.63797 0.2862 0.0
N552 N 0.62549 0.68796 0.30122 0.0
C553 C 0.68192 0.7461 0.31654 0.0
C554 C 0.60751 0.70427 0.32309 0.0
C555 C 0.63469 0.73381 0.33079 0.0
H556 H 0.67192 0.60403 0.2424 0.0
H557 H 0.61948 0.74693 0.34784 0.0
H558 H 0.32378 0.67735 0.272 0.0
H559 H 0.416 0.5058 0.20462 0.0
H560 H 0.57218 0.69452 0.33477 0.0
H561 H 0.70306 0.76895 0.3226 0.0
H562 H 0.45393 0.56332 0.20714 0.0
H563 H 0.75974 0.61953 0.21723 0.0
H564 H 0.7746 0.76137 0.28614 0.0
H565 H 0.81267 0.72682 0.25059 0.0
H566 H 0.23381 0.66657 0.29666 0.0
H567 H 0.80778 0.67382 0.22491 0.0
H568 H 0.33024 0.48931 0.23105 0.0
N569 N 0.33913 0.62629 0.26322 0.0
C570 C 0.31603 0.5951 0.2634 0.0
C571 C 0.25695 0.64616 0.28772 0.0
C572 C 0.2638 0.58798 0.27691 0.0
C573 C 0.30875 0.65204 0.27403 0.0
C574 C 0.23491 0.6139 0.28957 0.0
N575 N 0.39267 0.57826 0.23572 0.0
C576 C 0.41734 0.55603 0.21908 0.0
C577 C 0.31972 0.53809 0.24812 0.0
C578 C 0.34331 0.57044 0.24907 0.0
C579 C 0.34705 0.51444 0.23234 0.0
C580 C 0.39552 0.52362 0.21743 0.0
H581 H 0.1947 0.60945 0.30016 0.0
H582 H 0.20174 0.54947 0.28744 0.0
H583 H 0.2508 0.50577 0.26226 0.0
O584 O 0.42207 0.63077 0.19802 0.0
O585 O 0.44993 0.58957 0.26816 0.0
O586 O 0.49402 0.6193 0.3001 0.0
O587 O 0.36241 0.66076 0.22123 0.0
O588 O 0.51584 0.61369 0.22482 0.0
O589 O 0.56903 0.59311 0.25964 0.0
O590 O 0.59402 0.6289 0.32769 0.0
O591 O 0.58327 0.66333 0.24664 0.0
O592 O 0.4871 0.67875 0.24091 0.0
O593 O 0.647 0.60232 0.30023 0.0
O594 O 0.51406 0.67634 0.29745 0.0
O595 O 0.42629 0.66953 0.27438 0.0
C596 C 0.46912 0.592 0.29207 0.0
C597 C 0.34765 0.66341 0.17467 0.0
C598 C 0.33134 0.66357 0.12773 0.0
C599 C 0.29066 0.68924 0.13073 0.0
C600 C 0.30647 0.68909 0.17714 0.0
C601 C 0.27828 0.70186 0.15531 0.0
C602 C 0.35991 0.65055 0.14976 0.0
C603 C 0.55175 0.59188 0.23515 0.0
C604 C 0.37839 0.6514 0.19816 0.0
C605 C 0.24136 0.55547 0.27688 0.0
C606 C 0.26926 0.53058 0.26252 0.0
C607 C 0.54281 0.68107 0.23495 0.0
C608 C 0.69054 0.61835 0.34057 0.0
C609 C 0.73385 0.62753 0.38348 0.0
C610 C 0.78554 0.63853 0.37154 0.0
C611 C 0.74261 0.62961 0.32901 0.0
C612 C 0.68647 0.61731 0.36789 0.0
C613 C 0.7898 0.63952 0.34446 0.0
C614 C 0.45885 0.6835 0.29261 0.0
C615 C 0.6389 0.60973 0.32461 0.0
H616 H 0.26828 0.69942 0.11397 0.0
H617 H 0.29631 0.69961 0.19597 0.0
H618 H 0.2468 0.72167 0.15746 0.0
H619 H 0.39147 0.63077 0.14744 0.0
H620 H 0.82245 0.6465 0.38322 0.0
H621 H 0.74672 0.63109 0.30808 0.0
H622 H 0.6463 0.60903 0.37705 0.0
H623 H 0.82971 0.64823 0.33541 0.0
C624 C 0.14039 0.04654 0.33062 0.0
C625 C 0.1206 0.01359 0.32626 0.0
C626 C 0.07569 0.03103 0.28528 0.0
C627 C 0.08547 0.06472 0.29202 0.0
N628 N 0.13314 0.10485 0.31957 0.0
N629 N 0.0627 0.97501 0.30114 0.0
C630 C 0.11952 0.07255 0.31435 0.0
C631 C 0.08655 0.00595 0.30401 0.0
N632 N 0.18093 0.0527 0.34961 0.0
N633 N 0.05827 0.02268 0.26077 0.0
H634 H 0.06895 0.95599 0.31462 0.0
H635 H 0.03222 0.96927 0.28674 0.0
H636 H 0.05267 0.04009 0.24604 0.0
H637 H 0.05568 0.99822 0.25427 0.0
H638 H 0.2018 0.07545 0.35219 0.0
H639 H 0.19745 0.03424 0.36175 0.0
H640 H 0.15128 0.11298 0.33701 0.0
H641 H 0.12509 0.12382 0.30635 0.0
C642 C 0.46284 0.48735 0.82978 0.0
C643 C 0.40414 0.48467 0.8384 0.0
C644 C 0.39308 0.43184 0.8152 0.0
C645 C 0.45046 0.43562 0.80508 0.0
N646 N 0.54567 0.46077 0.80952 0.0
N647 N 0.31145 0.4561 0.83848 0.0
C648 C 0.48708 0.46159 0.81436 0.0
C649 C 0.36884 0.45723 0.83105 0.0
N650 N 0.49454 0.51537 0.83528 0.0
N651 N 0.36343 0.40284 0.81116 0.0
H652 H 0.29298 0.47336 0.85114 0.0
H653 H 0.28113 0.43929 0.83099 0.0
H654 H 0.38056 0.38358 0.80013 0.0
H655 H 0.32449 0.39654 0.8204 0.0
H656 H 0.53462 0.52095 0.82673 0.0
H657 H 0.47896 0.53451 0.84701 0.0
H658 H 0.57596 0.47694 0.81782 0.0
H659 H 0.56493 0.44149 0.79936 0.0
C660 C 0.62507 0.46103 0.67322 0.0
C661 C 0.61461 0.49469 0.67976 0.0
C662 C 0.5598 0.47695 0.71832 0.0
C663 C 0.56585 0.44337 0.71044 0.0
N664 N 0.59079 0.40438 0.67668 0.0
N665 N 0.56197 0.53479 0.70547 0.0
C666 C 0.59478 0.43563 0.68684 0.0
C667 C 0.57898 0.5027 0.70144 0.0
N668 N 0.6652 0.45321 0.65456 0.0
N669 N 0.53784 0.48432 0.74232 0.0
H670 H 0.57445 0.55429 0.69332 0.0
H671 H 0.53112 0.54158 0.71935 0.0
H672 H 0.52367 0.46622 0.75532 0.0
H673 H 0.53858 0.50811 0.75025 0.0
H674 H 0.67896 0.42899 0.65102 0.0
H675 H 0.68879 0.47109 0.64426 0.0
H676 H 0.60663 0.39808 0.65836 0.0
H677 H 0.56572 0.38575 0.68527 0.0
C678 C 0.89667 0.00898 0.19971 0.0
C679 C 0.87314 0.0178 0.17517 0.0
C680 C 0.91473 0.07371 0.17997 0.0
C681 C 0.92985 0.06663 0.20629 0.0
N682 N 0.93173 0.02706 0.24162 0.0
N683 N 0.85076 0.06047 0.1439 0.0
C684 C 0.91932 0.03418 0.21632 0.0
C685 C 0.87985 0.05066 0.16579 0.0
N686 N 0.90013 0.97626 0.20666 0.0
N687 N 0.9341 0.102 0.1681 0.0
H688 H 0.82373 0.04461 0.13324 0.0
H689 H 0.8488 0.08513 0.13784 0.0
H690 H 0.95804 0.12046 0.17743 0.0
H691 H 0.92997 0.10604 0.14817 0.0
H692 H 0.92271 0.96793 0.22297 0.0
H693 H 0.88574 0.95696 0.19472 0.0
H694 H 0.91859 0.00523 0.25079 0.0
H695 H 0.95255 0.04371 0.25397 0.0
C696 C 0.89779 0.99284 0.71035 0.0
C697 C 0.86177 0.98323 0.68918 0.0
C698 C 0.87426 0.92464 0.70077 0.0
C699 C 0.90855 0.93431 0.72262 0.0
N700 N 0.94352 0.97788 0.751 0.0
N701 N 0.80599 0.94106 0.66701 0.0
C702 C 0.91666 0.96851 0.72845 0.0
C703 C 0.84722 0.94939 0.68517 0.0
N704 N 0.91691 0.02497 0.71232 0.0
N705 N 0.86766 0.89177 0.69485 0.0
H706 H 0.78536 0.95859 0.65526 0.0
H707 H 0.78858 0.91729 0.66499 0.0
H708 H 0.88201 0.87279 0.70699 0.0
H709 H 0.85017 0.8832 0.6774 0.0
H710 H 0.94876 0.03272 0.72548 0.0
H711 H 0.90489 0.04356 0.69929 0.0
H712 H 0.94378 0.00217 0.75793 0.0
H713 H 0.96305 0.96111 0.76359 0.0
C714 C 0.57601 0.507 0.204 0.0
C715 C 0.61406 0.51529 0.18323 0.0
C716 C 0.60976 0.57408 0.1958 0.0
C717 C 0.57552 0.56538 0.2179 0.0
N718 N 0.53263 0.52272 0.24497 0.0
N719 N 0.6748 0.55556 0.16149 0.0
C720 C 0.56116 0.53154 0.2227 0.0
C721 C 0.63289 0.54856 0.17964 0.0
N722 N 0.55167 0.47595 0.20515 0.0
N723 N 0.6204 0.60673 0.19021 0.0
H724 H 0.69249 0.53758 0.14924 0.0
H725 H 0.69549 0.57853 0.1599 0.0
H726 H 0.60892 0.62611 0.20257 0.0
H727 H 0.63815 0.61482 0.17268 0.0
H728 H 0.51834 0.46946 0.21797 0.0
H729 H 0.56079 0.45737 0.19164 0.0
H730 H 0.52798 0.49825 0.25119 0.0
H731 H 0.51616 0.5399 0.25808 0.0
C732 C 0.367 0.54577 0.33787 0.0
C733 C 0.39965 0.51645 0.34246 0.0
C734 C 0.48195 0.53918 0.31741 0.0
C735 C 0.44775 0.56748 0.31143 0.0
N736 N 0.36691 0.60273 0.32266 0.0
N737 N 0.4866 0.48384 0.33607 0.0
C738 C 0.39281 0.57224 0.32359 0.0
C739 C 0.457 0.51291 0.33228 0.0
N740 N 0.31032 0.54767 0.34617 0.0
N741 N 0.5393 0.53838 0.31002 0.0
H742 H 0.47079 0.46466 0.34776 0.0
H743 H 0.52532 0.47776 0.32664 0.0
H744 H 0.55904 0.55776 0.29991 0.0
H745 H 0.5688 0.52016 0.31566 0.0
H746 H 0.28171 0.5664 0.34056 0.0
H747 H 0.29041 0.52919 0.35732 0.0
H748 H 0.33006 0.60904 0.33341 0.0
H749 H 0.38554 0.62289 0.313 0.0
C750 C 0.05568 0.98638 0.83248 0.0
C751 C 0.11435 0.98301 0.84106 0.0
C752 C 0.11879 0.92701 0.82238 0.0
C753 C 0.06168 0.93144 0.81225 0.0
N754 N 0.96931 0.95953 0.81481 0.0
N755 N 0.2035 0.95149 0.84364 0.0
C756 C 0.02821 0.95953 0.81931 0.0
C757 C 0.14621 0.95349 0.83614 0.0
N758 N 0.02699 0.01576 0.8361 0.0
N759 N 0.14571 0.89699 0.81967 0.0
H760 H 0.22449 0.97009 0.85429 0.0
H761 H 0.23149 0.93244 0.83817 0.0
H762 H 0.12724 0.87749 0.80918 0.0
H763 H 0.18436 0.89049 0.829 0.0
H764 H 0.98702 0.02135 0.82749 0.0
H765 H 0.04492 0.03565 0.8464 0.0
H766 H 0.94101 0.97769 0.82168 0.0
H767 H 0.94769 0.93951 0.80625 0.0
C768 C 0.16958 0.11623 0.05865 0.0
C769 C 0.22256 0.12672 0.04682 0.0
C770 C 0.26602 0.13456 0.08997 0.0
C771 C 0.21701 0.11854 0.10138 0.0
N772 N 0.12416 0.09052 0.09609 0.0
N773 N 0.32428 0.1422 0.05118 0.0
C774 C 0.16893 0.10869 0.08565 0.0
C775 C 0.27154 0.13527 0.06246 0.0
N776 N 0.11968 0.11389 0.04413 0.0
N777 N 0.30706 0.14933 0.10549 0.0
H778 H 0.33072 0.14238 0.03113 0.0
H779 H 0.36287 0.14493 0.06175 0.0
H780 H 0.30379 0.14961 0.12572 0.0
H781 H 0.34086 0.16408 0.09829 0.0
H782 H 0.0786 0.10946 0.05216 0.0
H783 H 0.11848 0.11971 0.02437 0.0
H784 H 0.09147 0.07947 0.0849 0.0
H785 H 0.1221 0.08407 0.11569 0.0
C786 C 0.24806 0.39494 0.56543 0.0
C787 C 0.25257 0.36611 0.54958 0.0
C788 C 0.2639 0.33234 0.5888 0.0
C789 C 0.27095 0.36142 0.60402 0.0
N790 N 0.26783 0.42127 0.60687 0.0
N791 N 0.21167 0.31097 0.552 0.0
C792 C 0.26262 0.39304 0.59235 0.0
C793 C 0.24588 0.33525 0.56257 0.0
N794 N 0.21985 0.42222 0.55601 0.0
N795 N 0.27417 0.30176 0.59923 0.0
H796 H 0.18618 0.3154 0.53552 0.0
H797 H 0.20137 0.28904 0.56179 0.0
H798 H 0.28838 0.29842 0.61833 0.0
H799 H 0.27356 0.28018 0.58801 0.0
H800 H 0.2101 0.44299 0.56724 0.0
H801 H 0.19845 0.42179 0.53808 0.0
H802 H 0.2689 0.44491 0.59866 0.0
H803 H 0.27486 0.42104 0.62689 0.0
C804 C 0.68526 0.35459 0.95253 0.0
C805 C 0.63918 0.35967 0.97055 0.0
C806 C 0.56764 0.35433 0.93516 0.0
C807 C 0.61308 0.34459 0.91804 0.0
N808 N 0.71477 0.33137 0.91115 0.0
N809 N 0.53574 0.36047 0.9798 0.0
C810 C 0.67193 0.34384 0.92685 0.0
C811 C 0.58008 0.35874 0.96206 0.0
N812 N 0.74176 0.36066 0.95986 0.0
N813 N 0.51278 0.35995 0.92559 0.0
H814 H 0.5429 0.36358 0.99967 0.0
H815 H 0.49206 0.35613 0.97514 0.0
H816 H 0.50231 0.35719 0.90596 0.0
H817 H 0.47922 0.37029 0.93656 0.0
H818 H 0.77671 0.36069 0.9469 0.0
H819 H 0.75305 0.36879 0.97846 0.0
H820 H 0.75714 0.32665 0.91756 0.0
H821 H 0.70696 0.32313 0.89225 0.0
C822 C 0.86711 0.11327 0.458 0.0
C823 C 0.81783 0.12592 0.47149 0.0
C824 C 0.77332 0.14181 0.43 0.0
C825 C 0.81812 0.1247 0.41653 0.0
N826 N 0.90458 0.09056 0.4177 0.0
N827 N 0.71918 0.14723 0.47008 0.0
C828 C 0.8645 0.1096 0.4305 0.0
C829 C 0.76968 0.13904 0.45744 0.0
N830 N 0.91681 0.10546 0.47139 0.0
N831 N 0.73473 0.16116 0.41657 0.0
H832 H 0.71373 0.14468 0.4901 0.0
H833 H 0.68072 0.1535 0.46043 0.0
H834 H 0.73666 0.16417 0.39644 0.0
H835 H 0.70479 0.1768 0.4256 0.0
H836 H 0.95603 0.09926 0.46236 0.0
H837 H 0.92045 0.10822 0.49149 0.0
H838 H 0.93541 0.07595 0.4272 0.0
H839 H 0.90416 0.08722 0.3976 0.0
C840 C 0.7244 0.89385 0.95114 0.0
C841 C 0.75801 0.87118 0.96605 0.0
C842 C 0.78927 0.84325 0.92595 0.0
C843 C 0.75975 0.86766 0.91101 0.0
N844 N 0.70763 0.91953 0.90916 0.0
N845 N 0.83029 0.82781 0.96773 0.0
C846 C 0.72965 0.89393 0.92356 0.0
C847 C 0.79269 0.84684 0.95346 0.0
N848 N 0.68588 0.91458 0.9633 0.0
N849 N 0.81232 0.81599 0.91394 0.0
H850 H 0.83399 0.82971 0.98788 0.0
H851 H 0.86135 0.81222 0.95945 0.0
H852 H 0.8107 0.81244 0.89387 0.0
H853 H 0.82863 0.79558 0.92398 0.0
H854 H 0.65553 0.92905 0.95338 0.0
H855 H 0.68067 0.91525 0.98343 0.0
H856 H 0.69091 0.94116 0.91732 0.0
H857 H 0.71069 0.92049 0.88894 0.0
C858 C 0.69451 0.65127 0.45334 0.0
C859 C 0.72958 0.62853 0.4675 0.0
C860 C 0.76002 0.60221 0.42662 0.0
C861 C 0.72981 0.62702 0.41242 0.0
N862 N 0.67419 0.67777 0.41194 0.0
N863 N 0.80225 0.58529 0.46778 0.0
C864 C 0.69845 0.65224 0.4257 0.0
C865 C 0.76404 0.60472 0.45417 0.0
N866 N 0.65628 0.67134 0.46631 0.0
N867 N 0.78364 0.57574 0.41377 0.0
H868 H 0.8064 0.58631 0.48795 0.0
H869 H 0.83327 0.57014 0.45898 0.0
H870 H 0.78155 0.57309 0.39362 0.0
H871 H 0.80072 0.55503 0.42315 0.0
H872 H 0.62496 0.68585 0.45706 0.0
H873 H 0.65256 0.67148 0.48652 0.0
H874 H 0.65655 0.69884 0.42059 0.0
H875 H 0.67555 0.67917 0.39171 0.0
C876 C 0.38488 0.66051 0.0581 0.0
C877 C 0.3433 0.63831 0.04709 0.0
C878 C 0.30186 0.62736 0.09026 0.0
C879 C 0.34199 0.65047 0.10112 0.0
N880 N 0.4291 0.68372 0.09715 0.0
N881 N 0.27034 0.59559 0.05258 0.0
C882 C 0.38615 0.66521 0.08556 0.0
C883 C 0.30455 0.61999 0.06322 0.0
N884 N 0.42162 0.67793 0.04213 0.0
N885 N 0.25962 0.61359 0.10573 0.0
H886 H 0.26993 0.59025 0.03275 0.0
H887 H 0.24535 0.57902 0.06344 0.0
H888 H 0.25848 0.61707 0.12582 0.0
H889 H 0.22436 0.59986 0.09873 0.0
H890 H 0.44841 0.69729 0.04835 0.0
H891 H 0.42353 0.67399 0.02211 0.0
H892 H 0.46566 0.69288 0.08747 0.0
H893 H 0.43056 0.68786 0.11716 0.0
C894 C 0.18396 0.93072 0.56002 0.0
C895 C 0.21127 0.90286 0.54825 0.0
C896 C 0.23164 0.88085 0.59188 0.0
C897 C 0.19313 0.90458 0.60278 0.0
N898 N 0.12998 0.95181 0.5968 0.0
N899 N 0.2982 0.87094 0.55654 0.0
C900 C 0.1683 0.92935 0.58669 0.0
C901 C 0.24573 0.88275 0.56501 0.0
N902 N 0.18368 0.96055 0.54748 0.0
N903 N 0.25561 0.85674 0.60715 0.0
H904 H 0.31581 0.87822 0.53871 0.0
H905 H 0.32779 0.85868 0.56856 0.0
H906 H 0.24774 0.85502 0.62707 0.0
H907 H 0.27945 0.83701 0.59949 0.0
H908 H 0.16901 0.98242 0.55608 0.0
H909 H 0.20688 0.96419 0.53024 0.0
H910 H 0.10698 0.96852 0.5852 0.0
H911 H 0.11753 0.95169 0.61631 0.0
C912 C 0.12676 0.22119 0.33895 0.0
C913 C 0.12669 0.25551 0.33288 0.0
C914 C 0.06884 0.24382 0.29373 0.0
C915 C 0.06618 0.20975 0.3007 0.0
N916 N 0.07415 0.16947 0.33504 0.0
N917 N 0.08495 0.30045 0.30809 0.0
C918 C 0.08982 0.19938 0.3248 0.0
C919 C 0.09383 0.26716 0.31132 0.0
N920 N 0.16343 0.20905 0.35761 0.0
N921 N 0.04902 0.25379 0.27003 0.0
H922 H 0.10139 0.31825 0.3209 0.0
H923 H 0.05655 0.31024 0.29426 0.0
H924 H 0.03222 0.23709 0.25655 0.0
H925 H 0.0544 0.27775 0.2628 0.0
H926 H 0.16892 0.1837 0.36086 0.0
H927 H 0.19244 0.22402 0.36803 0.0
H928 H 0.0855 0.16214 0.35381 0.0
H929 H 0.04446 0.15376 0.32584 0.0
C930 C 0.42935 0.23465 0.81363 0.0
C931 C 0.39044 0.24554 0.83332 0.0
C932 C 0.41559 0.30313 0.82316 0.0
C933 C 0.4457 0.29254 0.80057 0.0
N934 N 0.47709 0.24734 0.7729 0.0
N935 N 0.33978 0.29068 0.85435 0.0
C936 C 0.45198 0.25802 0.79548 0.0
C937 C 0.3817 0.27996 0.83745 0.0
N938 N 0.44599 0.20211 0.8127 0.0
N939 N 0.42216 0.33492 0.83188 0.0
H940 H 0.31323 0.27454 0.86496 0.0
H941 H 0.32783 0.31555 0.85594 0.0
H942 H 0.45054 0.35175 0.82303 0.0
H943 H 0.40532 0.34316 0.84955 0.0
H944 H 0.47893 0.19344 0.80051 0.0
H945 H 0.43107 0.18438 0.82592 0.0
H946 H 0.47623 0.22264 0.76692 0.0
H947 H 0.49424 0.26326 0.75892 0.0
C948 C 0.65819 0.28057 0.68144 0.0
C949 C 0.62763 0.25237 0.67202 0.0
C950 C 0.53556 0.27466 0.68889 0.0
C951 C 0.56711 0.30073 0.70111 0.0
N952 N 0.65277 0.33537 0.70044 0.0
N953 N 0.53823 0.22106 0.66744 0.0
C954 C 0.62698 0.30563 0.69497 0.0
C955 C 0.56647 0.24911 0.67576 0.0
N956 N 0.71754 0.28261 0.67851 0.0
N957 N 0.47603 0.27563 0.68818 0.0
H958 H 0.55882 0.20247 0.65673 0.0
H959 H 0.49543 0.21508 0.67253 0.0
H960 H 0.45293 0.29598 0.69489 0.0
H961 H 0.4501 0.25888 0.6779 0.0
H962 H 0.74349 0.30047 0.68756 0.0
H963 H 0.74173 0.26511 0.66818 0.0
H964 H 0.69366 0.34255 0.69353 0.0
H965 H 0.63078 0.35417 0.71011 0.0
C966 C 0.88895 0.26008 0.19649 0.0
C967 C 0.84901 0.24822 0.1776 0.0
C968 C 0.86688 0.19113 0.19242 0.0
C969 C 0.90383 0.20358 0.21247 0.0
N970 N 0.92816 0.25108 0.2392 0.0
N971 N 0.79163 0.203 0.16033 0.0
C972 C 0.90854 0.23838 0.21622 0.0
C973 C 0.83579 0.21379 0.17618 0.0
N974 N 0.90892 0.29207 0.19545 0.0
N975 N 0.85966 0.1577 0.18962 0.0
H976 H 0.76788 0.21888 0.14834 0.0
H977 H 0.77544 0.17883 0.16037 0.0
H978 H 0.87592 0.14076 0.20307 0.0
H979 H 0.83897 0.14671 0.17377 0.0
H980 H 0.9425 0.30083 0.20737 0.0
H981 H 0.89649 0.30865 0.1809 0.0
H982 H 0.92833 0.27641 0.24332 0.0
H983 H 0.93588 0.23639 0.25541 0.0
C984 C 0.94422 0.73388 0.70475 0.0
C985 C 0.92682 0.74214 0.67901 0.0
C986 C 0.95623 0.79958 0.68679 0.0
C987 C 0.9595 0.79312 0.71388 0.0
N988 N 0.96607 0.75284 0.74846 0.0
N989 N 0.97115 0.77445 0.64499 0.0
C990 C 0.95679 0.75978 0.72282 0.0
C991 C 0.94783 0.77281 0.66932 0.0
N992 N 0.95682 0.70164 0.71059 0.0
N993 N 0.96176 0.83106 0.67744 0.0
H994 H 0.97886 0.75296 0.63419 0.0
H995 H 0.99168 0.79565 0.63772 0.0
H996 H 0.97037 0.85127 0.68936 0.0
H997 H 0.95402 0.837 0.658 0.0
H998 H 0.97471 0.69403 0.72822 0.0
H999 H 0.95622 0.68316 0.69635 0.0
H1000 H 0.9577 0.72968 0.75668 0.0
H1001 H 0.97985 0.77076 0.76175 0.0
C1002 C 0.56966 0.73415 0.17445 0.0
C1003 C 0.60777 0.75885 0.18466 0.0
C1004 C 0.59186 0.73629 0.22837 0.0
C1005 C 0.56231 0.70856 0.21763 0.0
N1006 N 0.53004 0.67881 0.1795 0.0
N1007 N 0.66436 0.77902 0.22119 0.0
C1008 C 0.55301 0.70685 0.19038 0.0
C1009 C 0.62146 0.75874 0.21162 0.0
N1010 N 0.54754 0.73731 0.14989 0.0
N1011 N 0.58946 0.7421 0.25447 0.0
H1012 H 0.68906 0.79484 0.20946 0.0
H1013 H 0.67937 0.77752 0.24029 0.0
H1014 H 0.56533 0.7271 0.26705 0.0
H1015 H 0.60587 0.76367 0.26301 0.0
H1016 H 0.51515 0.72172 0.14246 0.0
H1017 H 0.55696 0.75753 0.13793 0.0
H1018 H 0.52776 0.67489 0.15951 0.0
H1019 H 0.5184 0.65823 0.19051 0.0
C1020 C 0.41328 0.73291 0.35257 0.0
C1021 C 0.37465 0.75642 0.34145 0.0
C1022 C 0.3977 0.73499 0.29809 0.0
C1023 C 0.43048 0.70884 0.30943 0.0
N1024 N 0.45592 0.67847 0.34846 0.0
N1025 N 0.31904 0.77416 0.30403 0.0
C1026 C 0.43458 0.70651 0.33698 0.0
C1027 C 0.3635 0.75576 0.31431 0.0
N1028 N 0.43127 0.73626 0.37777 0.0
N1029 N 0.4011 0.74111 0.27202 0.0
H1030 H 0.29153 0.78884 0.31535 0.0
H1031 H 0.30564 0.77202 0.28473 0.0
H1032 H 0.42816 0.72776 0.25959 0.0
H1033 H 0.38222 0.76182 0.26331 0.0
H1034 H 0.46408 0.72165 0.3859 0.0
H1035 H 0.41777 0.75568 0.38972 0.0
H1036 H 0.45435 0.67446 0.36846 0.0
H1037 H 0.46925 0.65773 0.33801 0.0
C1038 C 0.16696 0.75187 0.80774 0.0
C1039 C 0.15692 0.75 0.83491 0.0
C1040 C 0.09499 0.79915 0.83207 0.0
C1041 C 0.09751 0.79798 0.80438 0.0
N1042 N 0.12538 0.76648 0.76621 0.0
N1043 N 0.09895 0.7672 0.87171 0.0
C1044 C 0.13079 0.77255 0.79222 0.0
C1045 C 0.11728 0.77226 0.84674 0.0
N1046 N 0.21165 0.73443 0.79672 0.0
N1047 N 0.0737 0.82639 0.84467 0.0
H1048 H 0.11251 0.74711 0.88296 0.0
H1049 H 0.06543 0.78094 0.88018 0.0
H1050 H 0.06007 0.8477 0.83513 0.0
H1051 H 0.07631 0.82932 0.86476 0.0
H1052 H 0.22405 0.73746 0.77737 0.0
H1053 H 0.24007 0.71965 0.80753 0.0
H1054 H 0.14488 0.74621 0.75713 0.0
H1055 H 0.09607 0.77899 0.75428 0.0
loop_
_geom_bond_atom_site_label_1
_geom_bond_atom_site_label_2
_geom_bond_distance
_geom_bond_site_symmetry_2
_ccdc_geom_bond_type
C0 C1 1.384 . S
C0 H13 0.947 . S
C0 C35 1.382 . S
C1 C0 1.384 . S
C1 C2 1.378 . S
C2 C1 1.378 . S
C2 C3 1.378 . S
C2 H14 0.952 . S
C3 C2 1.378 . S
C3 H15 0.950 . S
C3 C34 1.383 . S
H4 C23 0.947 . S
H5 C24 0.946 . S
H6 C26 0.953 . S
H7 C27 0.945 . S
H8 C29 0.952 . S
H9 C30 0.949 . S
H10 C32 0.950 . S
H11 C33 0.948 . S
H12 C35 0.951 . S
H13 C0 0.947 . S
H14 C2 0.952 . S
H15 C3 0.950 . S
N16 C19 1.382 . S
N16 C21 1.363 . S
N17 C19 1.371 . S
N17 C20 1.372 . S
N18 C20 1.361 . S
N18 C21 1.377 . S
C19 N16 1.382 . S
C19 N17 1.371 . S
C19 C22 1.480 . S
C20 N17 1.372 . S
C20 N18 1.361 . S
C20 C28 1.457 . S
C21 N16 1.363 . S
C21 N18 1.377 . S
C21 C34 1.479 . S
C22 C19 1.480 . S
C22 C23 1.383 . S
C22 C27 1.385 . S
C23 H4 0.947 . S
C23 C22 1.383 . S
C23 C24 1.388 . S
C24 H5 0.946 . S
C24 C23 1.388 . S
C24 C25 1.384 . S
C25 C24 1.384 . S
C25 C26 1.377 . S
C26 H6 0.953 . S
C26 C25 1.377 . S
C26 C27 1.369 . S
C27 H7 0.945 . S
C27 C22 1.385 . S
C27 C26 1.369 . S
C28 C20 1.457 . S
C28 C29 1.372 . S
C28 C33 1.364 . S
C29 H8 0.952 . S
C29 C28 1.372 . S
C29 C30 1.389 . S
C30 H9 0.949 . S
C30 C29 1.389 . S
C30 C31 1.387 . S
C31 C30 1.387 . S
C31 C32 1.372 . S
C32 H10 0.950 . S
C32 C31 1.372 . S
C32 C33 1.379 . S
C33 H11 0.948 . S
C33 C28 1.364 . S
C33 C32 1.379 . S
C34 C3 1.383 . S
C34 C21 1.479 . S
C34 C35 1.398 . S
C35 C0 1.382 . S
C35 H12 0.951 . S
C35 C34 1.398 . S
C36 C37 1.384 1_556 S
C36 H49 0.947 . S
C36 C71 1.382 . S
C37 C36 1.384 1_554 S
C37 C38 1.378 1_554 S
C38 C37 1.378 1_556 S
C38 C39 1.378 . S
C38 H50 0.942 1_556 S
C39 C38 1.378 . S
C39 H51 0.950 . S
C39 C70 1.383 . S
H40 C59 0.947 . S
H41 C60 0.946 . S
H42 C62 0.953 . S
H43 C63 0.945 . S
H44 C65 0.952 . S
H45 C66 0.949 . S
H46 C68 0.950 1_565 S
H47 C69 0.948 . S
H48 C71 0.951 . S
H49 C36 0.947 . S
H50 C38 0.942 1_554 S
H51 C39 0.950 . S
N52 C55 1.382 . S
N52 C57 1.363 . S
N53 C55 1.371 . S
N53 C56 1.372 . S
N54 C56 1.361 . S
N54 C57 1.377 . S
C55 N52 1.382 . S
C55 N53 1.371 . S
C55 C58 1.480 . S
C56 N53 1.372 . S
C56 N54 1.361 . S
C56 C64 1.457 . S
C57 N52 1.363 . S
C57 N54 1.377 . S
C57 C70 1.479 . S
C58 C55 1.480 . S
C58 C59 1.383 . S
C58 C63 1.385 . S
C59 H40 0.947 . S
C59 C58 1.383 . S
C59 C60 1.388 . S
C60 H41 0.946 . S
C60 C59 1.388 . S
C60 C61 1.384 . S
C61 C60 1.384 . S
C61 C62 1.377 . S
C62 H42 0.953 . S
C62 C61 1.377 . S
C62 C63 1.369 . S
C63 H43 0.945 . S
C63 C58 1.385 . S
C63 C62 1.369 . S
C64 C56 1.457 . S
C64 C65 1.372 . S
C64 C69 1.364 . S
C65 H44 0.952 . S
C65 C64 1.372 . S
C65 C66 1.389 . S
C66 H45 0.949 . S
C66 C65 1.389 . S
C66 C67 1.387 . S
C67 C66 1.387 . S
C67 C68 1.372 . S
C68 H46 0.950 1_545 S
C68 C67 1.372 . S
C68 C69 1.379 . S
C69 H47 0.948 . S
C69 C64 1.364 . S
C69 C68 1.379 . S
C70 C39 1.383 . S
C70 C57 1.479 . S
C70 C71 1.398 . S
C71 C36 1.382 . S
C71 H48 0.951 . S
C71 C70 1.398 . S
C72 C73 1.384 . S
C72 H85 0.947 . S
C72 C107 1.382 . S
C73 C72 1.384 . S
C73 C74 1.378 . S
C74 C73 1.378 . S
C74 C75 1.378 . S
C74 H86 0.952 . S
C75 C74 1.378 . S
C75 H87 0.950 . S
C75 C106 1.383 . S
H76 C95 0.947 . S
H77 C96 0.946 . S
H78 C98 0.953 . S
H79 C99 0.945 . S
H80 C101 0.952 . S
H81 C102 0.949 . S
H82 C104 0.950 1_565 S
H83 C105 0.948 . S
H84 C107 0.951 . S
H85 C72 0.947 . S
H86 C74 0.952 . S
H87 C75 0.950 . S
N88 C91 1.382 . S
N88 C93 1.363 . S
N89 C91 1.371 . S
N89 C92 1.372 . S
N90 C92 1.361 . S
N90 C93 1.377 . S
C91 N88 1.382 . S
C91 N89 1.371 . S
C91 C94 1.480 . S
C92 N89 1.372 . S
C92 N90 1.361 . S
C92 C100 1.457 . S
C93 N88 1.363 . S
C93 N90 1.377 . S
C93 C106 1.479 . S
C94 C91 1.480 . S
C94 C95 1.383 . S
C94 C99 1.385 . S
C95 H76 0.947 . S
C95 C94 1.383 . S
C95 C96 1.388 . S
C96 H77 0.946 . S
C96 C95 1.388 . S
C96 C97 1.384 . S
C97 C96 1.384 . S
C97 C98 1.377 . S
C98 H78 0.953 . S
C98 C97 1.377 . S
C98 C99 1.369 . S
C99 H79 0.945 . S
C99 C94 1.385 . S
C99 C98 1.369 . S
C100 C92 1.457 . S
C100 C101 1.372 . S
C100 C105 1.364 . S
C101 H80 0.952 . S
C101 C100 1.372 . S
C101 C102 1.389 . S
C102 H81 0.949 . S
C102 C101 1.389 . S
C102 C103 1.387 . S
C103 C102 1.387 . S
C103 C104 1.372 . S
C104 H82 0.950 1_545 S
C104 C103 1.372 . S
C104 C105 1.379 . S
C105 H83 0.948 . S
C105 C100 1.364 . S
C105 C104 1.379 . S
C106 C75 1.383 . S
C106 C93 1.479 . S
C106 C107 1.398 . S
C107 C72 1.382 . S
C107 H84 0.951 . S
C107 C106 1.398 . S
C108 C109 1.374 1_554 S
C108 H121 0.947 . S
C108 C143 1.382 . S
C109 C108 1.374 1_556 S
C109 C110 1.370 1_556 S
C110 C109 1.370 1_554 S
C110 C111 1.378 . S
C110 H122 0.952 . S
C111 C110 1.378 . S
C111 H123 0.950 . S
C111 C142 1.383 . S
H112 C131 0.947 . S
H113 C132 0.946 . S
H114 C134 0.953 . S
H115 C135 0.945 . S
H116 C137 0.952 . S
H117 C138 0.949 . S
H118 C140 0.950 . S
H119 C141 0.948 . S
H120 C143 0.951 . S
H121 C108 0.947 . S
H122 C110 0.952 . S
H123 C111 0.950 . S
N124 C127 1.382 . S
N124 C129 1.363 . S
N125 C127 1.371 . S
N125 C128 1.372 . S
N126 C128 1.361 . S
N126 C129 1.377 . S
C127 N124 1.382 . S
C127 N125 1.371 . S
C127 C130 1.480 . S
C128 N125 1.372 . S
C128 N126 1.361 . S
C128 C136 1.457 . S
C129 N124 1.363 . S
C129 N126 1.377 . S
C129 C142 1.479 . S
C130 C127 1.480 . S
C130 C131 1.383 . S
C130 C135 1.385 . S
C131 H112 0.947 . S
C131 C130 1.383 . S
C131 C132 1.388 . S
C132 H113 0.946 . S
C132 C131 1.388 . S
C132 C133 1.384 . S
C133 C132 1.384 . S
C133 C134 1.377 . S
C134 H114 0.953 . S
C134 C133 1.377 . S
C134 C135 1.369 . S
C135 H115 0.945 . S
C135 C130 1.385 . S
C135 C134 1.369 . S
C136 C128 1.457 . S
C136 C137 1.372 . S
C136 C141 1.364 . S
C137 H116 0.952 . S
C137 C136 1.372 . S
C137 C138 1.389 . S
C138 H117 0.949 . S
C138 C137 1.389 . S
C138 C139 1.387 . S
C139 C138 1.387 . S
C139 C140 1.372 . S
C140 H118 0.950 . S
C140 C139 1.372 . S
C140 C141 1.379 . S
C141 H119 0.948 . S
C141 C136 1.364 . S
C141 C140 1.379 . S
C142 C111 1.383 . S
C142 C129 1.479 . S
C142 C143 1.398 . S
C143 C108 1.382 . S
C143 H120 0.951 . S
C143 C142 1.398 . S
C144 C145 1.384 . S
C144 H157 0.947 . S
C144 C179 1.382 . S
C145 C144 1.384 . S
C145 C146 1.378 . S
C146 C145 1.378 . S
C146 C147 1.378 . S
C146 H158 0.952 . S
C147 C146 1.378 . S
C147 H159 0.950 . S
C147 C178 1.383 . S
H148 C167 0.947 . S
H149 C168 0.946 . S
H150 C170 0.953 . S
H151 C171 0.945 . S
H152 C173 0.952 . S
H153 C174 0.949 . S
H154 C176 0.950 . S
H155 C177 0.948 . S
H156 C179 0.951 . S
H157 C144 0.947 . S
H158 C146 0.952 . S
H159 C147 0.950 . S
N160 C163 1.382 . S
N160 C165 1.363 . S
N161 C163 1.371 . S
N161 C164 1.372 . S
N162 C164 1.361 . S
N162 C165 1.377 . S
C163 N160 1.382 . S
C163 N161 1.371 . S
C163 C166 1.480 . S
C164 N161 1.372 . S
C164 N162 1.361 . S
C164 C172 1.457 . S
C165 N160 1.363 . S
C165 N162 1.377 . S
C165 C178 1.479 . S
C166 C163 1.480 . S
C166 C167 1.383 . S
C166 C171 1.385 . S
C167 H148 0.947 . S
C167 C166 1.383 . S
C167 C168 1.388 . S
C168 H149 0.946 . S
C168 C167 1.388 . S
C168 C169 1.384 . S
C169 C168 1.384 . S
C169 C170 1.377 . S
C170 H150 0.953 . S
C170 C169 1.377 . S
C170 C171 1.369 . S
C171 H151 0.945 . S
C171 C166 1.385 . S
C171 C170 1.369 . S
C172 C164 1.457 . S
C172 C173 1.372 . S
C172 C177 1.364 . S
C173 H152 0.952 . S
C173 C172 1.372 . S
C173 C174 1.389 . S
C174 H153 0.949 . S
C174 C173 1.389 . S
C174 C175 1.387 . S
C175 C174 1.387 . S
C175 C176 1.372 . S
C176 H154 0.950 . S
C176 C175 1.372 . S
C176 C177 1.379 . S
C177 H155 0.948 . S
C177 C172 1.364 . S
C177 C176 1.379 . S
C178 C147 1.383 . S
C178 C165 1.479 . S
C178 C179 1.398 . S
C179 C144 1.382 . S
C179 H156 0.951 . S
C179 C178 1.398 . S
C180 C181 1.384 1_554 S
C180 H193 0.947 . S
C180 C215 1.382 . S
C181 C180 1.384 1_556 S
C181 C182 1.378 1_556 S
C182 C181 1.378 1_554 S
C182 C183 1.378 . S
C182 H194 0.952 1_554 S
C183 C182 1.378 . S
C183 H195 0.950 . S
C183 C214 1.383 . S
H184 C203 0.947 . S
H185 C204 0.946 . S
H186 C206 0.953 . S
H187 C207 0.945 . S
H188 C209 0.952 . S
H189 C210 0.949 . S
H190 C212 0.950 1_545 S
H191 C213 0.948 . S
H192 C215 0.951 . S
H193 C180 0.947 . S
H194 C182 0.952 1_556 S
H195 C183 0.950 . S
N196 C199 1.382 . S
N196 C201 1.363 . S
N197 C199 1.371 . S
N197 C200 1.372 . S
N198 C200 1.361 . S
N198 C201 1.377 . S
C199 N196 1.382 . S
C199 N197 1.371 . S
C199 C202 1.480 . S
C200 N197 1.372 . S
C200 N198 1.361 . S
C200 C208 1.457 . S
C201 N196 1.363 . S
C201 N198 1.377 . S
C201 C214 1.479 . S
C202 C199 1.480 . S
C202 C203 1.383 . S
C202 C207 1.385 . S
C203 H184 0.947 . S
C203 C202 1.383 . S
C203 C204 1.388 . S
C204 H185 0.946 . S
C204 C203 1.388 . S
C204 C205 1.384 . S
C205 C204 1.384 . S
C205 C206 1.377 . S
C206 H186 0.953 . S
C206 C205 1.377 . S
C206 C207 1.369 . S
C207 H187 0.945 . S
C207 C202 1.385 . S
C207 C206 1.369 . S
C208 C200 1.457 . S
C208 C209 1.372 . S
C208 C213 1.364 . S
C209 H188 0.952 . S
C209 C208 1.372 . S
C209 C210 1.389 . S
C210 H189 0.949 . S
C210 C209 1.389 . S
C210 C211 1.387 . S
C211 C210 1.387 . S
C211 C212 1.372 . S
C212 H190 0.950 1_565 S
C212 C211 1.372 . S
C212 C213 1.379 . S
C213 H191 0.948 . S
C213 C208 1.364 . S
C213 C212 1.379 . S
C214 C183 1.383 . S
C214 C201 1.479 . S
C214 C215 1.398 . S
C215 C180 1.382 . S
C215 H192 0.951 . S
C215 C214 1.398 . S
C216 C217 1.384 . S
C216 H229 0.947 . S
C216 C251 1.382 . S
C217 C216 1.384 . S
C217 C218 1.378 . S
C218 C217 1.378 . S
C218 C219 1.378 . S
C218 H230 0.952 . S
C219 C218 1.378 . S
C219 H231 0.950 . S
C219 C250 1.383 . S
H220 C239 0.947 . S
H221 C240 0.946 . S
H222 C242 0.953 . S
H223 C243 0.945 . S
H224 C245 0.952 . S
H225 C246 0.949 . S
H226 C248 0.950 1_545 S
H227 C249 0.948 . S
H228 C251 0.951 . S
H229 C216 0.947 . S
H230 C218 0.952 . S
H231 C219 0.950 . S
N232 C235 1.382 . S
N232 C237 1.363 . S
N233 C235 1.371 . S
N233 C236 1.372 . S
N234 C236 1.361 . S
N234 C237 1.377 . S
C235 N232 1.382 . S
C235 N233 1.371 . S
C235 C238 1.480 . S
C236 N233 1.372 . S
C236 N234 1.361 . S
C236 C244 1.457 . S
C237 N232 1.363 . S
C237 N234 1.377 . S
C237 C250 1.479 . S
C238 C235 1.480 . S
C238 C239 1.383 . S
C238 C243 1.385 . S
C239 H220 0.947 . S
C239 C238 1.383 . S
C239 C240 1.388 . S
C240 H221 0.946 . S
C240 C239 1.388 . S
C240 C241 1.384 . S
C241 C240 1.384 . S
C241 C242 1.377 . S
C242 H222 0.953 . S
C242 C241 1.377 . S
C242 C243 1.369 . S
C243 H223 0.945 . S
C243 C238 1.385 . S
C243 C242 1.369 . S
C244 C236 1.457 . S
C244 C245 1.372 . S
C244 C249 1.364 . S
C245 H224 0.952 . S
C245 C244 1.372 . S
C245 C246 1.389 . S
C246 H225 0.949 . S
C246 C245 1.389 . S
C246 C247 1.387 . S
C247 C246 1.387 . S
C247 C248 1.372 . S
C248 H226 0.950 1_565 S
C248 C247 1.372 . S
C248 C249 1.379 . S
C249 H227 0.948 . S
C249 C244 1.364 . S
C249 C248 1.379 . S
C250 C219 1.383 . S
C250 C237 1.479 . S
C250 C251 1.398 . S
C251 C216 1.382 . S
C251 H228 0.951 . S
C251 C250 1.398 . S
C252 C253 1.384 1_556 S
C252 H265 0.947 . S
C252 C287 1.382 . S
C253 C252 1.384 1_554 S
C253 C254 1.378 1_554 S
C254 C253 1.378 1_556 S
C254 C255 1.378 . S
C254 H266 0.962 . S
C255 C254 1.378 . S
C255 H267 0.950 . S
C255 C286 1.383 . S
H256 C275 0.947 . S
H257 C276 0.946 . S
H258 C278 0.953 . S
H259 C279 0.945 . S
H260 C281 0.952 . S
H261 C282 0.949 . S
H262 C284 0.950 . S
H263 C285 0.948 . S
H264 C287 0.951 . S
H265 C252 0.947 . S
H266 C254 0.962 . S
H267 C255 0.950 . S
N268 C271 1.382 . S
N268 C273 1.363 . S
N269 C271 1.371 . S
N269 C272 1.372 . S
N270 C272 1.361 . S
N270 C273 1.377 . S
C271 N268 1.382 . S
C271 N269 1.371 . S
C271 C274 1.480 . S
C272 N269 1.372 . S
C272 N270 1.361 . S
C272 C280 1.457 . S
C273 N268 1.363 . S
C273 N270 1.377 . S
C273 C286 1.479 . S
C274 C271 1.480 . S
C274 C275 1.383 . S
C274 C279 1.385 . S
C275 H256 0.947 . S
C275 C274 1.383 . S
C275 C276 1.388 . S
C276 H257 0.946 . S
C276 C275 1.388 . S
C276 C277 1.384 . S
C277 C276 1.384 . S
C277 C278 1.377 . S
C278 H258 0.953 . S
C278 C277 1.377 . S
C278 C279 1.369 . S
C279 H259 0.945 . S
C279 C274 1.385 . S
C279 C278 1.369 . S
C280 C272 1.457 . S
C280 C281 1.372 . S
C280 C285 1.364 . S
C281 H260 0.952 . S
C281 C280 1.372 . S
C281 C282 1.389 . S
C282 H261 0.949 . S
C282 C281 1.389 . S
C282 C283 1.387 . S
C283 C282 1.387 . S
C283 C284 1.372 . S
C284 H262 0.950 . S
C284 C283 1.372 . S
C284 C285 1.379 . S
C285 H263 0.948 . S
C285 C280 1.364 . S
C285 C284 1.379 . S
C286 C255 1.383 . S
C286 C273 1.479 . S
C286 C287 1.398 . S
C287 C252 1.382 . S
C287 H264 0.951 . S
C287 C286 1.398 . S
Eu288 N317 2.600 . S
Eu288 N323 2.562 . S
Eu288 O332 2.462 . S
Eu288 O333 2.373 . S
Eu288 O335 2.432 . S
Eu288 O336 2.291 1_455 S
Eu288 O340 2.349 . S
Eu288 O343 2.372 . S
Eu288 C352 2.787 . S
C289 N290 1.365 . S
C289 C292 1.405 . S
C289 C296 1.448 . S
N290 C289 1.365 . S
N290 C293 1.319 . S
N290 Eu299 2.600 . S
C291 C293 1.397 . S
C291 C294 1.367 . S
C291 H311 0.931 . S
C292 C289 1.405 . S
C292 C294 1.403 . S
C292 C298 1.439 . S
C293 N290 1.319 . S
C293 C291 1.397 . S
C293 H304 0.930 . S
C294 C291 1.367 . S
C294 C292 1.403 . S
C294 H315 0.929 . S
C295 C296 1.430 . S
C295 C297 1.387 . S
C295 C301 1.404 . S
C296 C289 1.448 . S
C296 C295 1.430 . S
C296 N300 1.351 . S
C297 C295 1.387 . S
C297 C298 1.374 . S
C297 H312 0.931 . S
C298 C292 1.439 . S
C298 C297 1.374 . S
C298 H313 0.931 . S
Eu299 N290 2.600 . S
Eu299 N300 2.562 . S
Eu299 O334 2.335 1_655 S
Eu299 O337 2.372 . S
Eu299 O338 2.462 . S
Eu299 O339 2.373 . S
Eu299 O341 2.432 . S
Eu299 O342 2.291 1_655 S
Eu299 C363 2.787 . S
N300 C296 1.351 . S
N300 Eu299 2.562 . S
N300 C302 1.325 . S
C301 C295 1.404 . S
C301 C303 1.366 . S
C301 H309 0.930 . S
C302 N300 1.325 . S
C302 C303 1.416 . S
C302 H308 0.929 . S
C303 C301 1.366 . S
C303 C302 1.416 . S
C303 H305 0.930 . S
H304 C293 0.930 . S
H305 C303 0.930 . S
H306 C321 0.930 . S
H307 C328 0.930 . S
H308 C302 0.929 . S
H309 C301 0.930 . S
H310 C324 0.929 . S
H311 C291 0.931 . S
H312 C297 0.931 . S
H313 C298 0.931 . S
H314 C319 0.931 . S
H315 C294 0.929 . S
H316 C327 0.930 . S
N317 Eu288 2.600 . S
N317 C318 1.365 . S
N317 C321 1.319 . S
C318 N317 1.365 . S
C318 C320 1.405 . S
C318 C326 1.448 . S
C319 H314 0.931 . S
C319 C321 1.397 . S
C319 C322 1.367 . S
C320 C318 1.405 . S
C320 C322 1.403 . S
C320 C353 1.439 . S
C321 H306 0.930 . S
C321 N317 1.319 . S
C321 C319 1.397 . S
C322 C319 1.367 . S
C322 C320 1.403 . S
C322 H329 0.929 . S
N323 Eu288 2.562 . S
N323 C324 1.325 . S
N323 C326 1.351 . S
C324 H310 0.929 . S
C324 N323 1.325 . S
C324 C328 1.416 . S
C325 C326 1.430 . S
C325 C327 1.404 . S
C325 C354 1.387 . S
C326 C318 1.448 . S
C326 N323 1.351 . S
C326 C325 1.430 . S
C327 H316 0.930 . S
C327 C325 1.404 . S
C327 C328 1.366 . S
C328 H307 0.930 . S
C328 C324 1.416 . S
C328 C327 1.366 . S
H329 C322 0.929 . S
H330 C353 0.931 . S
H331 C354 0.931 . S
O332 Eu288 2.462 . S
O332 C352 1.252 . S
O333 Eu288 2.373 . S
O333 C344 1.249 . S
O334 Eu299 2.335 1_455 S
O334 C344 1.264 . S
O335 Eu288 2.432 . S
O335 C352 1.268 . S
O336 Eu288 2.291 1_655 S
O336 C351 1.255 . S
O337 Eu299 2.372 . S
O337 C351 1.257 . S
O338 Eu299 2.462 . S
O338 C363 1.252 . S
O339 Eu299 2.373 . S
O339 C355 1.249 . S
O340 Eu288 2.349 . S
O340 C355 1.246 1_455 S
O341 Eu299 2.432 . S
O341 C363 1.268 . S
O342 Eu299 2.291 1_455 S
O342 C362 1.255 . S
O343 Eu288 2.372 . S
O343 C362 1.257 . S
C344 O333 1.249 . S
C344 O334 1.264 . S
C345 C348 1.382 . S
C345 C350 1.390 . S
C345 C352 1.506 . S
C346 C347 1.398 . S
C346 C350 1.392 . S
C347 C346 1.398 . S
C347 C349 1.372 . S
C347 H364 0.931 . S
C348 C345 1.382 . S
C348 C349 1.390 . S
C348 H365 0.931 . S
C349 C347 1.372 . S
C349 C348 1.390 . S
C349 H366 0.929 . S
C350 C345 1.390 . S
C350 C346 1.392 . S
C350 H367 0.930 . S
C351 O336 1.255 . S
C351 O337 1.257 . S
C352 Eu288 2.787 . S
C352 O332 1.252 . S
C352 O335 1.268 . S
C352 C345 1.506 . S
C353 C320 1.439 . S
C353 H330 0.931 . S
C353 C354 1.374 . S
C354 C325 1.387 . S
C354 H331 0.931 . S
C354 C353 1.374 . S
C355 O339 1.249 . S
C355 O340 1.246 1_655 S
C356 C359 1.382 . S
C356 C360 1.390 . S
C356 C363 1.506 . S
C357 C358 1.398 . S
C357 C360 1.392 . S
C358 C357 1.398 . S
C358 C361 1.372 . S
C358 H368 0.931 . S
C359 C356 1.382 . S
C359 C361 1.390 . S
C359 H369 0.931 . S
C360 C356 1.390 . S
C360 C357 1.392 . S
C360 H370 0.930 . S
C361 C358 1.372 . S
C361 C359 1.390 . S
C361 H371 0.929 . S
C362 O342 1.255 . S
C362 O343 1.257 . S
C363 Eu299 2.787 . S
C363 O338 1.252 . S
C363 O341 1.268 . S
C363 C356 1.506 . S
H364 C347 0.931 . S
H365 C348 0.931 . S
H366 C349 0.929 . S
H367 C350 0.930 . S
H368 C358 0.931 . S
H369 C359 0.931 . S
H370 C360 0.930 . S
H371 C361 0.929 . S
Eu372 N401 2.600 . S
Eu372 N407 2.562 . S
Eu372 O416 2.462 . S
Eu372 O417 2.373 . S
Eu372 O419 2.432 . S
Eu372 O420 2.291 . S
Eu372 O424 2.335 . S
Eu372 O427 2.372 . S
Eu372 C436 2.787 . S
C373 N374 1.365 . S
C373 C376 1.405 . S
C373 C380 1.448 . S
N374 C373 1.365 . S
N374 C377 1.319 . S
N374 Eu383 2.600 . S
C375 C377 1.397 . S
C375 C378 1.367 . S
C375 H395 0.931 . S
C376 C373 1.405 . S
C376 C378 1.403 . S
C376 C382 1.439 . S
C377 N374 1.319 . S
C377 C375 1.397 . S
C377 H388 0.930 . S
C378 C375 1.367 . S
C378 C376 1.403 . S
C378 H399 0.929 . S
C379 C380 1.430 . S
C379 C381 1.387 . S
C379 C385 1.404 . S
C380 C373 1.448 . S
C380 C379 1.430 . S
C380 N384 1.351 . S
C381 C379 1.387 . S
C381 C382 1.374 . S
C381 H396 0.931 . S
C382 C376 1.439 . S
C382 C381 1.374 . S
C382 H397 0.931 . S
Eu383 N374 2.600 . S
Eu383 N384 2.562 . S
Eu383 O418 2.335 . S
Eu383 O421 2.372 . S
Eu383 O422 2.462 . S
Eu383 O423 2.373 . S
Eu383 O425 2.432 . S
Eu383 O426 2.291 . S
Eu383 C447 2.787 . S
N384 C380 1.351 . S
N384 Eu383 2.562 . S
N384 C386 1.325 . S
C385 C379 1.404 . S
C385 C387 1.366 . S
C385 H393 0.930 . S
C386 N384 1.325 . S
C386 C387 1.416 . S
C386 H392 0.929 . S
C387 C385 1.366 . S
C387 C386 1.416 . S
C387 H389 0.930 . S
H388 C377 0.930 . S
H389 C387 0.930 . S
H390 C405 0.930 . S
H391 C412 0.930 . S
H392 C386 0.929 . S
H393 C385 0.930 . S
H394 C408 0.929 . S
H395 C375 0.931 . S
H396 C381 0.931 . S
H397 C382 0.931 . S
H398 C403 0.931 . S
H399 C378 0.929 . S
H400 C411 0.930 . S
N401 Eu372 2.600 . S
N401 C402 1.365 . S
N401 C405 1.319 . S
C402 N401 1.365 . S
C402 C404 1.405 . S
C402 C410 1.448 . S
C403 H398 0.931 . S
C403 C405 1.397 . S
C403 C406 1.367 . S
C404 C402 1.405 . S
C404 C406 1.403 . S
C404 C437 1.439 . S
C405 H390 0.930 . S
C405 N401 1.319 . S
C405 C403 1.397 . S
C406 C403 1.367 . S
C406 C404 1.403 . S
C406 H413 0.929 . S
N407 Eu372 2.562 . S
N407 C408 1.325 . S
N407 C410 1.351 . S
C408 H394 0.929 . S
C408 N407 1.325 . S
C408 C412 1.416 . S
C409 C410 1.430 . S
C409 C411 1.404 . S
C409 C438 1.387 . S
C410 C402 1.448 . S
C410 N407 1.351 . S
C410 C409 1.430 . S
C411 H400 0.930 . S
C411 C409 1.404 . S
C411 C412 1.366 . S
C412 H391 0.930 . S
C412 C408 1.416 . S
C412 C411 1.366 . S
H413 C406 0.929 . S
H414 C437 0.931 . S
H415 C438 0.931 . S
O416 Eu372 2.462 . S
O416 C436 1.252 . S
O417 Eu372 2.373 . S
O417 C428 1.249 . S
O418 Eu383 2.335 . S
O418 C428 1.264 . S
O419 Eu372 2.432 . S
O419 C436 1.268 . S
O420 Eu372 2.291 . S
O420 C435 1.255 . S
O421 Eu383 2.372 . S
O421 C435 1.257 . S
O422 Eu383 2.462 . S
O422 C447 1.252 . S
O423 Eu383 2.373 . S
O423 C439 1.249 . S
O424 Eu372 2.335 . S
O424 C439 1.264 . S
O425 Eu383 2.432 . S
O425 C447 1.268 . S
O426 Eu383 2.291 . S
O426 C446 1.255 . S
O427 Eu372 2.372 . S
O427 C446 1.257 . S
C428 O417 1.249 . S
C428 O418 1.264 . S
C429 C432 1.382 . S
C429 C434 1.390 . S
C429 C436 1.506 . S
C430 C431 1.398 . S
C430 C434 1.392 . S
C431 C430 1.398 . S
C431 C433 1.372 . S
C431 H448 0.931 . S
C432 C429 1.382 . S
C432 C433 1.390 . S
C432 H449 0.931 . S
C433 C431 1.372 . S
C433 C432 1.390 . S
C433 H450 0.929 . S
C434 C429 1.390 . S
C434 C430 1.392 . S
C434 H451 0.930 . S
C435 O420 1.255 . S
C435 O421 1.257 . S
C436 Eu372 2.787 . S
C436 O416 1.252 . S
C436 O419 1.268 . S
C436 C429 1.506 . S
C437 C404 1.439 . S
C437 H414 0.931 . S
C437 C438 1.374 . S
C438 C409 1.387 . S
C438 H415 0.931 . S
C438 C437 1.374 . S
C439 O423 1.249 . S
C439 O424 1.264 . S
C440 C443 1.382 . S
C440 C444 1.390 . S
C440 C447 1.506 . S
C441 C442 1.398 . S
C441 C444 1.392 . S
C442 C441 1.398 . S
C442 C445 1.372 . S
C442 H452 0.931 . S
C443 C440 1.382 . S
C443 C445 1.390 . S
C443 H453 0.931 . S
C444 C440 1.390 . S
C444 C441 1.392 . S
C444 H454 0.930 . S
C445 C442 1.372 . S
C445 C443 1.390 . S
C445 H455 0.929 . S
C446 O426 1.255 . S
C446 O427 1.257 . S
C447 Eu383 2.787 . S
C447 O422 1.252 . S
C447 O425 1.268 . S
C447 C440 1.506 . S
H448 C431 0.931 . S
H449 C432 0.931 . S
H450 C433 0.929 . S
H451 C434 0.930 . S
H452 C442 0.931 . S
H453 C443 0.931 . S
H454 C444 0.930 . S
H455 C445 0.929 . S
Eu456 N485 2.600 . S
Eu456 N491 2.562 . S
Eu456 O500 2.462 . S
Eu456 O501 2.373 . S
Eu456 O503 2.432 . S
Eu456 O504 2.291 . S
Eu456 O508 2.335 . S
Eu456 O511 2.372 . S
Eu456 C520 2.787 . S
C457 N458 1.365 . S
C457 C460 1.405 . S
C457 C464 1.448 . S
N458 C457 1.365 . S
N458 C461 1.319 . S
N458 Eu467 2.600 . S
C459 C461 1.397 . S
C459 C462 1.367 . S
C459 H479 0.931 . S
C460 C457 1.405 . S
C460 C462 1.403 . S
C460 C466 1.439 . S
C461 N458 1.319 . S
C461 C459 1.397 . S
C461 H472 0.930 . S
C462 C459 1.367 . S
C462 C460 1.403 . S
C462 H483 0.929 . S
C463 C464 1.430 . S
C463 C465 1.387 . S
C463 C469 1.404 . S
C464 C457 1.448 . S
C464 C463 1.430 . S
C464 N468 1.351 . S
C465 C463 1.387 . S
C465 C466 1.374 . S
C465 H480 0.931 . S
C466 C460 1.439 . S
C466 C465 1.374 . S
C466 H481 0.931 . S
Eu467 N458 2.600 . S
Eu467 N468 2.562 . S
Eu467 O502 2.335 1_655 S
Eu467 O505 2.372 . S
Eu467 O506 2.462 . S
Eu467 O507 2.373 . S
Eu467 O509 2.432 . S
Eu467 O510 2.291 1_655 S
Eu467 C531 2.787 . S
N468 C464 1.351 . S
N468 Eu467 2.562 . S
N468 C470 1.325 . S
C469 C463 1.404 . S
C469 C471 1.366 . S
C469 H477 0.930 . S
C470 N468 1.325 . S
C470 C471 1.416 . S
C470 H476 0.929 . S
C471 C469 1.366 . S
C471 C470 1.416 . S
C471 H473 0.930 . S
H472 C461 0.930 . S
H473 C471 0.930 . S
H474 C489 0.930 . S
H475 C496 0.930 . S
H476 C470 0.929 . S
H477 C469 0.930 . S
H478 C492 0.929 . S
H479 C459 0.931 . S
H480 C465 0.931 . S
H481 C466 0.931 . S
H482 C487 0.931 . S
H483 C462 0.929 . S
H484 C495 0.930 . S
N485 Eu456 2.600 . S
N485 C486 1.365 . S
N485 C489 1.319 . S
C486 N485 1.365 . S
C486 C488 1.405 . S
C486 C494 1.448 . S
C487 H482 0.931 . S
C487 C489 1.397 . S
C487 C490 1.367 . S
C488 C486 1.405 . S
C488 C490 1.403 . S
C488 C521 1.439 . S
C489 H474 0.930 . S
C489 N485 1.319 . S
C489 C487 1.397 . S
C490 C487 1.367 . S
C490 C488 1.403 . S
C490 H497 0.929 . S
N491 Eu456 2.562 . S
N491 C492 1.325 . S
N491 C494 1.351 . S
C492 H478 0.929 . S
C492 N491 1.325 . S
C492 C496 1.416 . S
C493 C494 1.430 . S
C493 C495 1.404 . S
C493 C522 1.387 . S
C494 C486 1.448 . S
C494 N491 1.351 . S
C494 C493 1.430 . S
C495 H484 0.930 . S
C495 C493 1.404 . S
C495 C496 1.366 . S
C496 H475 0.930 . S
C496 C492 1.416 . S
C496 C495 1.366 . S
H497 C490 0.929 . S
H498 C521 0.931 . S
H499 C522 0.931 . S
O500 Eu456 2.462 . S
O500 C520 1.252 . S
O501 Eu456 2.373 . S
O501 C512 1.249 . S
O502 Eu467 2.335 1_455 S
O502 C512 1.264 . S
O503 Eu456 2.432 . S
O503 C520 1.268 . S
O504 Eu456 2.291 . S
O504 C519 1.255 1_455 S
O505 Eu467 2.372 . S
O505 C519 1.257 . S
O506 Eu467 2.462 . S
O506 C531 1.252 . S
O507 Eu467 2.373 . S
O507 C523 1.249 . S
O508 Eu456 2.335 . S
O508 C523 1.264 1_455 S
O509 Eu467 2.432 . S
O509 C531 1.268 . S
O510 Eu467 2.291 1_455 S
O510 C530 1.255 . S
O511 Eu456 2.372 . S
O511 C530 1.257 . S
C512 O501 1.249 . S
C512 O502 1.264 . S
C513 C516 1.382 . S
C513 C518 1.390 . S
C513 C520 1.506 . S
C514 C515 1.398 . S
C514 C518 1.392 . S
C515 C514 1.398 . S
C515 C517 1.372 . S
C515 H532 0.931 . S
C516 C513 1.382 . S
C516 C517 1.390 . S
C516 H533 0.931 . S
C517 C515 1.372 . S
C517 C516 1.390 . S
C517 H534 0.929 . S
C518 C513 1.390 . S
C518 C514 1.392 . S
C518 H535 0.930 . S
C519 O504 1.255 1_655 S
C519 O505 1.257 . S
C520 Eu456 2.787 . S
C520 O500 1.252 . S
C520 O503 1.268 . S
C520 C513 1.506 . S
C521 C488 1.439 . S
C521 H498 0.931 . S
C521 C522 1.374 . S
C522 C493 1.387 . S
C522 H499 0.931 . S
C522 C521 1.374 . S
C523 O507 1.249 . S
C523 O508 1.264 1_655 S
C524 C527 1.382 . S
C524 C528 1.390 . S
C524 C531 1.506 . S
C525 C526 1.398 . S
C525 C528 1.392 . S
C526 C525 1.398 . S
C526 C529 1.372 . S
C526 H536 0.931 . S
C527 C524 1.382 . S
C527 C529 1.390 . S
C527 H537 0.931 . S
C528 C524 1.390 . S
C528 C525 1.392 . S
C528 H538 0.930 . S
C529 C526 1.372 . S
C529 C527 1.390 . S
C529 H539 0.929 . S
C530 O510 1.255 . S
C530 O511 1.257 . S
C531 Eu467 2.787 . S
C531 O506 1.252 . S
C531 O509 1.268 . S
C531 C524 1.506 . S
H532 C515 0.931 . S
H533 C516 0.931 . S
H534 C517 0.929 . S
H535 C518 0.930 . S
H536 C526 0.931 . S
H537 C527 0.931 . S
H538 C528 0.930 . S
H539 C529 0.929 . S
Eu540 N569 2.600 . S
Eu540 N575 2.562 . S
Eu540 O584 2.462 . S
Eu540 O585 2.373 . S
Eu540 O587 2.432 . S
Eu540 O588 2.291 . S
Eu540 O592 2.335 . S
Eu540 O595 2.372 . S
Eu540 C604 2.787 . S
C541 N542 1.365 . S
C541 C544 1.405 . S
C541 C548 1.448 . S
N542 C541 1.365 . S
N542 C545 1.319 . S
N542 Eu551 2.600 . S
C543 C545 1.397 . S
C543 C546 1.367 . S
C543 H563 0.931 . S
C544 C541 1.405 . S
C544 C546 1.403 . S
C544 C550 1.439 . S
C545 N542 1.319 . S
C545 C543 1.397 . S
C545 H556 0.930 . S
C546 C543 1.367 . S
C546 C544 1.403 . S
C546 H567 0.929 . S
C547 C548 1.430 . S
C547 C549 1.387 . S
C547 C553 1.404 . S
C548 C541 1.448 . S
C548 C547 1.430 . S
C548 N552 1.351 . S
C549 C547 1.387 . S
C549 C550 1.374 . S
C549 H564 0.931 . S
C550 C544 1.439 . S
C550 C549 1.374 . S
C550 H565 0.931 . S
Eu551 N542 2.600 . S
Eu551 N552 2.562 . S
Eu551 O586 2.335 . S
Eu551 O589 2.372 . S
Eu551 O590 2.462 . S
Eu551 O591 2.373 . S
Eu551 O593 2.432 . S
Eu551 O594 2.291 . S
Eu551 C615 2.787 . S
N552 C548 1.351 . S
N552 Eu551 2.562 . S
N552 C554 1.325 . S
C553 C547 1.404 . S
C553 C555 1.366 . S
C553 H561 0.930 . S
C554 N552 1.325 . S
C554 C555 1.416 . S
C554 H560 0.929 . S
C555 C553 1.366 . S
C555 C554 1.416 . S
C555 H557 0.930 . S
H556 C545 0.930 . S
H557 C555 0.930 . S
H558 C573 0.930 . S
H559 C580 0.930 . S
H560 C554 0.929 . S
H561 C553 0.930 . S
H562 C576 0.929 . S
H563 C543 0.931 . S
H564 C549 0.931 . S
H565 C550 0.931 . S
H566 C571 0.931 . S
H567 C546 0.929 . S
H568 C579 0.930 . S
N569 Eu540 2.600 . S
N569 C570 1.365 . S
N569 C573 1.319 . S
C570 N569 1.365 . S
C570 C572 1.405 . S
C570 C578 1.448 . S
C571 H566 0.931 . S
C571 C573 1.397 . S
C571 C574 1.367 . S
C572 C570 1.405 . S
C572 C574 1.403 . S
C572 C605 1.439 . S
C573 H558 0.930 . S
C573 N569 1.319 . S
C573 C571 1.397 . S
C574 C571 1.367 . S
C574 C572 1.403 . S
C574 H581 0.929 . S
N575 Eu540 2.562 . S
N575 C576 1.325 . S
N575 C578 1.351 . S
C576 H562 0.929 . S
C576 N575 1.325 . S
C576 C580 1.416 . S
C577 C578 1.430 . S
C577 C579 1.404 . S
C577 C606 1.387 . S
C578 C570 1.448 . S
C578 N575 1.351 . S
C578 C577 1.430 . S
C579 H568 0.930 . S
C579 C577 1.404 . S
C579 C580 1.366 . S
C580 H559 0.930 . S
C580 C576 1.416 . S
C580 C579 1.366 . S
H581 C574 0.929 . S
H582 C605 0.931 . S
H583 C606 0.931 . S
O584 Eu540 2.462 . S
O584 C604 1.252 . S
O585 Eu540 2.373 . S
O585 C596 1.249 . S
O586 Eu551 2.335 . S
O586 C596 1.264 . S
O587 Eu540 2.432 . S
O587 C604 1.268 . S
O588 Eu540 2.291 . S
O588 C603 1.255 . S
O589 Eu551 2.372 . S
O589 C603 1.257 . S
O590 Eu551 2.462 . S
O590 C615 1.252 . S
O591 Eu551 2.373 . S
O591 C607 1.249 . S
O592 Eu540 2.335 . S
O592 C607 1.264 . S
O593 Eu551 2.432 . S
O593 C615 1.268 . S
O594 Eu551 2.291 . S
O594 C614 1.255 . S
O595 Eu540 2.372 . S
O595 C614 1.257 . S
C596 O585 1.249 . S
C596 O586 1.264 . S
C597 C600 1.382 . S
C597 C602 1.390 . S
C597 C604 1.506 . S
C598 C599 1.398 . S
C598 C602 1.392 . S
C599 C598 1.398 . S
C599 C601 1.372 . S
C599 H616 0.931 . S
C600 C597 1.382 . S
C600 C601 1.390 . S
C600 H617 0.931 . S
C601 C599 1.372 . S
C601 C600 1.390 . S
C601 H618 0.929 . S
C602 C597 1.390 . S
C602 C598 1.392 . S
C602 H619 0.930 . S
C603 O588 1.255 . S
C603 O589 1.257 . S
C604 Eu540 2.787 . S
C604 O584 1.252 . S
C604 O587 1.268 . S
C604 C597 1.506 . S
C605 C572 1.439 . S
C605 H582 0.931 . S
C605 C606 1.374 . S
C606 C577 1.387 . S
C606 H583 0.931 . S
C606 C605 1.374 . S
C607 O591 1.249 . S
C607 O592 1.264 . S
C608 C611 1.382 . S
C608 C612 1.390 . S
C608 C615 1.506 . S
C609 C610 1.398 . S
C609 C612 1.392 . S
C610 C609 1.398 . S
C610 C613 1.372 . S
C610 H620 0.931 . S
C611 C608 1.382 . S
C611 C613 1.390 . S
C611 H621 0.931 . S
C612 C608 1.390 . S
C612 C609 1.392 . S
C612 H622 0.930 . S
C613 C610 1.372 . S
C613 C611 1.390 . S
C613 H623 0.929 . S
C614 O594 1.255 . S
C614 O595 1.257 . S
C615 Eu551 2.787 . S
C615 O590 1.252 . S
C615 O593 1.268 . S
C615 C608 1.506 . S
H616 C599 0.931 . S
H617 C600 0.931 . S
H618 C601 0.929 . S
H619 C602 0.930 . S
H620 C610 0.931 . S
H621 C611 0.931 . S
H622 C612 0.930 . S
H623 C613 0.929 . S
C624 C625 1.363 . S
C624 C630 1.379 . S
C624 N632 1.356 . S
C625 C624 1.363 . S
C625 C631 1.363 . S
C626 C627 1.363 . S
C626 C631 1.379 . S
C626 N633 1.356 1_455 S
C627 C626 1.363 . S
C627 C630 1.363 . S
N628 C630 1.356 . S
N628 H640 0.984 . S
N628 H641 0.985 . S
N629 C631 1.356 1_565 S
N629 H634 0.984 . S
N629 H635 0.985 . S
C630 C624 1.379 . S
C630 C627 1.363 . S
C630 N628 1.356 . S
C631 C625 1.363 . S
C631 C626 1.379 . S
C631 N629 1.356 1_545 S
N632 C624 1.356 . S
N632 H638 0.984 . S
N632 H639 0.984 . S
N633 C626 1.356 1_655 S
N633 H636 0.984 . S
N633 H637 0.985 . S
H634 N629 0.984 . S
H635 N629 0.985 . S
H636 N633 0.984 . S
H637 N633 0.985 . S
H638 N632 0.984 . S
H639 N632 0.984 . S
H640 N628 0.984 . S
H641 N628 0.985 . S
C642 C643 1.363 . S
C642 C648 1.379 . S
C642 N650 1.356 . S
C643 C642 1.363 . S
C643 C649 1.363 . S
C644 C645 1.363 . S
C644 C649 1.379 . S
C644 N651 1.356 . S
C645 C644 1.363 . S
C645 C648 1.363 . S
N646 C648 1.356 . S
N646 H658 0.984 . S
N646 H659 0.985 . S
N647 C649 1.356 . S
N647 H652 0.984 . S
N647 H653 0.985 . S
C648 C642 1.379 . S
C648 C645 1.363 . S
C648 N646 1.356 . S
C649 C643 1.363 . S
C649 C644 1.379 . S
C649 N647 1.356 . S
N650 C642 1.356 . S
N650 H656 0.984 . S
N650 H657 0.984 . S
N651 C644 1.356 . S
N651 H654 0.984 . S
N651 H655 0.985 . S
H652 N647 0.984 . S
H653 N647 0.985 . S
H654 N651 0.984 . S
H655 N651 0.985 . S
H656 N650 0.984 . S
H657 N650 0.984 . S
H658 N646 0.984 . S
H659 N646 0.985 . S
C660 C661 1.363 . S
C660 C666 1.379 . S
C660 N668 1.356 . S
C661 C660 1.363 . S
C661 C667 1.363 . S
C662 C663 1.363 . S
C662 C667 1.379 . S
C662 N669 1.356 . S
C663 C662 1.363 . S
C663 C666 1.363 . S
N664 C666 1.356 . S
N664 H676 0.984 . S
N664 H677 0.985 . S
N665 C667 1.356 . S
N665 H670 0.984 . S
N665 H671 0.985 . S
C666 C660 1.379 . S
C666 C663 1.363 . S
C666 N664 1.356 . S
C667 C661 1.363 . S
C667 C662 1.379 . S
C667 N665 1.356 . S
N668 C660 1.356 . S
N668 H674 0.984 . S
N668 H675 0.984 . S
N669 C662 1.356 . S
N669 H672 0.984 . S
N669 H673 0.985 . S
H670 N665 0.984 . S
H671 N665 0.985 . S
H672 N669 0.984 . S
H673 N669 0.985 . S
H674 N668 0.984 . S
H675 N668 0.984 . S
H676 N664 0.984 . S
H677 N664 0.985 . S
C678 C679 1.363 . S
C678 C684 1.379 . S
C678 N686 1.356 1_545 S
C679 C678 1.363 . S
C679 C685 1.363 . S
C680 C681 1.363 . S
C680 C685 1.379 . S
C680 N687 1.356 . S
C681 C680 1.363 . S
C681 C684 1.363 . S
N682 C684 1.356 . S
N682 H694 0.984 . S
N682 H695 0.985 . S
N683 C685 1.356 . S
N683 H688 0.984 . S
N683 H689 0.985 . S
C684 C678 1.379 . S
C684 C681 1.363 . S
C684 N682 1.356 . S
C685 C679 1.363 . S
C685 C680 1.379 . S
C685 N683 1.356 . S
N686 C678 1.356 1_565 S
N686 H692 0.984 . S
N686 H693 0.984 . S
N687 C680 1.356 . S
N687 H690 0.984 . S
N687 H691 0.985 . S
H688 N683 0.984 . S
H689 N683 0.985 . S
H690 N687 0.984 . S
H691 N687 0.985 . S
H692 N686 0.984 . S
H693 N686 0.984 . S
H694 N682 0.984 . S
H695 N682 0.985 . S
C696 C697 1.363 . S
C696 C702 1.379 . S
C696 N704 1.356 1_565 S
C697 C696 1.363 . S
C697 C703 1.363 . S
C698 C699 1.363 . S
C698 C703 1.379 . S
C698 N705 1.356 . S
C699 C698 1.363 . S
C699 C702 1.363 . S
N700 C702 1.356 . S
N700 H712 0.984 1_655 S
N700 H713 0.985 1_655 S
N701 C703 1.356 . S
N701 H706 0.984 . S
N701 H707 0.985 . S
C702 C696 1.379 . S
C702 C699 1.363 . S
C702 N700 1.356 . S
C703 C697 1.363 . S
C703 C698 1.379 . S
C703 N701 1.356 . S
N704 C696 1.356 1_545 S
N704 H710 0.984 . S
N704 H711 0.984 . S
N705 C698 1.356 . S
N705 H708 0.984 . S
N705 H709 0.985 . S
H706 N701 0.984 . S
H707 N701 0.985 . S
H708 N705 0.984 . S
H709 N705 0.985 . S
H710 N704 0.984 . S
H711 N704 0.984 . S
H712 N700 0.984 1_455 S
H713 N700 0.985 1_455 S
C714 C715 1.363 . S
C714 C720 1.379 . S
C714 N722 1.356 . S
C715 C714 1.363 . S
C715 C721 1.363 . S
C716 C717 1.363 . S
C716 C721 1.379 . S
C716 N723 1.356 . S
C717 C716 1.363 . S
C717 C720 1.363 . S
N718 C720 1.356 . S
N718 H730 0.984 . S
N718 H731 0.985 . S
N719 C721 1.356 . S
N719 H724 0.984 . S
N719 H725 0.985 . S
C720 C714 1.379 . S
C720 C717 1.363 . S
C720 N718 1.356 . S
C721 C715 1.363 . S
C721 C716 1.379 . S
C721 N719 1.356 . S
N722 C714 1.356 . S
N722 H728 0.984 . S
N722 H729 0.984 . S
N723 C716 1.356 . S
N723 H726 0.984 . S
N723 H727 0.985 . S
H724 N719 0.984 . S
H725 N719 0.985 . S
H726 N723 0.984 . S
H727 N723 0.985 . S
H728 N722 0.984 . S
H729 N722 0.984 . S
H730 N718 0.984 . S
H731 N718 0.985 . S
C732 C733 1.363 . S
C732 C738 1.379 . S
C732 N740 1.356 . S
C733 C732 1.363 . S
C733 C739 1.363 . S
C734 C735 1.363 . S
C734 C739 1.379 . S
C734 N741 1.356 . S
C735 C734 1.363 . S
C735 C738 1.363 . S
N736 C738 1.356 . S
N736 H748 0.984 . S
N736 H749 0.985 . S
N737 C739 1.356 . S
N737 H742 0.984 . S
N737 H743 0.985 . S
C738 C732 1.379 . S
C738 C735 1.363 . S
C738 N736 1.356 . S
C739 C733 1.363 . S
C739 C734 1.379 . S
C739 N737 1.356 . S
N740 C732 1.356 . S
N740 H746 0.984 . S
N740 H747 0.984 . S
N741 C734 1.356 . S
N741 H744 0.984 . S
N741 H745 0.985 . S
H742 N737 0.984 . S
H743 N737 0.985 . S
H744 N741 0.984 . S
H745 N741 0.985 . S
H746 N740 0.984 . S
H747 N740 0.984 . S
H748 N736 0.984 . S
H749 N736 0.985 . S
C750 C751 1.363 . S
C750 C756 1.379 . S
C750 N758 1.356 1_565 S
C751 C750 1.363 . S
C751 C757 1.363 . S
C752 C753 1.363 . S
C752 C757 1.379 . S
C752 N759 1.356 . S
C753 C752 1.363 . S
C753 C756 1.363 . S
N754 C756 1.356 . S
N754 H766 0.984 . S
N754 H767 0.985 . S
N755 C757 1.356 . S
N755 H760 0.984 . S
N755 H761 0.985 . S
C756 C750 1.379 . S
C756 C753 1.363 . S
C756 N754 1.356 . S
C757 C751 1.363 . S
C757 C752 1.379 . S
C757 N755 1.356 . S
N758 C750 1.356 1_545 S
N758 H764 0.984 . S
N758 H765 0.984 . S
N759 C752 1.356 . S
N759 H762 0.984 . S
N759 H763 0.985 . S
H760 N755 0.984 . S
H761 N755 0.985 . S
H762 N759 0.984 . S
H763 N759 0.985 . S
H764 N758 0.984 . S
H765 N758 0.984 . S
H766 N754 0.984 . S
H767 N754 0.985 . S
C768 C769 1.363 . S
C768 C774 1.379 . S
C768 N776 1.356 . S
C769 C768 1.363 . S
C769 C775 1.363 . S
C770 C771 1.363 . S
C770 C775 1.379 . S
C770 N777 1.356 . S
C771 C770 1.363 . S
C771 C774 1.363 . S
N772 C774 1.356 . S
N772 H784 0.984 . S
N772 H785 0.985 . S
N773 C775 1.356 . S
N773 H778 0.984 . S
N773 H779 0.985 . S
C774 C768 1.379 . S
C774 C771 1.363 . S
C774 N772 1.356 . S
C775 C769 1.363 . S
C775 C770 1.379 . S
C775 N773 1.356 . S
N776 C768 1.356 . S
N776 H782 0.984 . S
N776 H783 0.984 . S
N777 C770 1.356 . S
N777 H780 0.984 . S
N777 H781 0.985 . S
H778 N773 0.984 . S
H779 N773 0.985 . S
H780 N777 0.984 . S
H781 N777 0.985 . S
H782 N776 0.984 . S
H783 N776 0.984 . S
H784 N772 0.984 . S
H785 N772 0.985 . S
C786 C787 1.363 . S
C786 C792 1.379 . S
C786 N794 1.356 . S
C787 C786 1.363 . S
C787 C793 1.363 . S
C788 C789 1.363 . S
C788 C793 1.379 . S
C788 N795 1.356 . S
C789 C788 1.363 . S
C789 C792 1.363 . S
N790 C792 1.356 . S
N790 H802 0.984 . S
N790 H803 0.985 . S
N791 C793 1.356 . S
N791 H796 0.984 . S
N791 H797 0.985 . S
C792 C786 1.379 . S
C792 C789 1.363 . S
C792 N790 1.356 . S
C793 C787 1.363 . S
C793 C788 1.379 . S
C793 N791 1.356 . S
N794 C786 1.356 . S
N794 H800 0.984 . S
N794 H801 0.984 . S
N795 C788 1.356 . S
N795 H798 0.984 . S
N795 H799 0.985 . S
H796 N791 0.984 . S
H797 N791 0.985 . S
H798 N795 0.984 . S
H799 N795 0.985 . S
H800 N794 0.984 . S
H801 N794 0.984 . S
H802 N790 0.984 . S
H803 N790 0.985 . S
C804 C805 1.363 . S
C804 C810 1.379 . S
C804 N812 1.356 . S
C805 C804 1.363 . S
C805 C811 1.363 . S
C806 C807 1.363 . S
C806 C811 1.379 . S
C806 N813 1.356 . S
C807 C806 1.363 . S
C807 C810 1.363 . S
N808 C810 1.356 . S
N808 H820 0.984 . S
N808 H821 0.985 . S
N809 C811 1.356 . S
N809 H814 0.984 . S
N809 H815 0.985 . S
C810 C804 1.379 . S
C810 C807 1.363 . S
C810 N808 1.356 . S
C811 C805 1.363 . S
C811 C806 1.379 . S
C811 N809 1.356 . S
N812 C804 1.356 . S
N812 H818 0.984 . S
N812 H819 0.984 . S
N813 C806 1.356 . S
N813 H816 0.984 . S
N813 H817 0.985 . S
H814 N809 0.984 . S
H815 N809 0.985 . S
H816 N813 0.984 . S
H817 N813 0.985 . S
H818 N812 0.984 . S
H819 N812 0.984 . S
H820 N808 0.984 . S
H821 N808 0.985 . S
C822 C823 1.363 . S
C822 C828 1.379 . S
C822 N830 1.356 . S
C823 C822 1.363 . S
C823 C829 1.363 . S
C824 C825 1.363 . S
C824 C829 1.379 . S
C824 N831 1.356 . S
C825 C824 1.363 . S
C825 C828 1.363 . S
N826 C828 1.356 . S
N826 H838 0.984 . S
N826 H839 0.985 . S
N827 C829 1.356 . S
N827 H832 0.984 . S
N827 H833 0.985 . S
C828 C822 1.379 . S
C828 C825 1.363 . S
C828 N826 1.356 . S
C829 C823 1.363 . S
C829 C824 1.379 . S
C829 N827 1.356 . S
N830 C822 1.356 . S
N830 H836 0.984 . S
N830 H837 0.984 . S
N831 C824 1.356 . S
N831 H834 0.984 . S
N831 H835 0.985 . S
H832 N827 0.984 . S
H833 N827 0.985 . S
H834 N831 0.984 . S
H835 N831 0.985 . S
H836 N830 0.984 . S
H837 N830 0.984 . S
H838 N826 0.984 . S
H839 N826 0.985 . S
C840 C841 1.363 . S
C840 C846 1.379 . S
C840 N848 1.356 . S
C841 C840 1.363 . S
C841 C847 1.363 . S
C842 C843 1.363 . S
C842 C847 1.379 . S
C842 N849 1.356 . S
C843 C842 1.363 . S
C843 C846 1.363 . S
N844 C846 1.356 . S
N844 H856 0.984 . S
N844 H857 0.985 . S
N845 C847 1.356 . S
N845 H850 0.984 1_556 S
N845 H851 0.985 . S
C846 C840 1.379 . S
C846 C843 1.363 . S
C846 N844 1.356 . S
C847 C841 1.363 . S
C847 C842 1.379 . S
C847 N845 1.356 . S
N848 C840 1.356 . S
N848 H854 0.984 . S
N848 H855 0.984 . S
N849 C842 1.356 . S
N849 H852 0.984 . S
N849 H853 0.985 . S
H850 N845 0.984 1_554 S
H851 N845 0.985 . S
H852 N849 0.984 . S
H853 N849 0.985 . S
H854 N848 0.984 . S
H855 N848 0.984 . S
H856 N844 0.984 . S
H857 N844 0.985 . S
C858 C859 1.363 . S
C858 C864 1.379 . S
C858 N866 1.356 . S
C859 C858 1.363 . S
C859 C865 1.363 . S
C860 C861 1.363 . S
C860 C865 1.379 . S
C860 N867 1.356 . S
C861 C860 1.363 . S
C861 C864 1.363 . S
N862 C864 1.356 . S
N862 H874 0.984 . S
N862 H875 0.985 . S
N863 C865 1.356 . S
N863 H868 0.984 . S
N863 H869 0.985 . S
C864 C858 1.379 . S
C864 C861 1.363 . S
C864 N862 1.356 . S
C865 C859 1.363 . S
C865 C860 1.379 . S
C865 N863 1.356 . S
N866 C858 1.356 . S
N866 H872 0.984 . S
N866 H873 0.984 . S
N867 C860 1.356 . S
N867 H870 0.984 . S
N867 H871 0.985 . S
H868 N863 0.984 . S
H869 N863 0.985 . S
H870 N867 0.984 . S
H871 N867 0.985 . S
H872 N866 0.984 . S
H873 N866 0.984 . S
H874 N862 0.984 . S
H875 N862 0.985 . S
C876 C877 1.363 . S
C876 C882 1.379 . S
C876 N884 1.356 . S
C877 C876 1.363 . S
C877 C883 1.363 . S
C878 C879 1.363 . S
C878 C883 1.379 . S
C878 N885 1.356 . S
C879 C878 1.363 . S
C879 C882 1.363 . S
N880 C882 1.356 . S
N880 H892 0.984 . S
N880 H893 0.985 . S
N881 C883 1.356 . S
N881 H886 0.984 . S
N881 H887 0.985 . S
C882 C876 1.379 . S
C882 C879 1.363 . S
C882 N880 1.356 . S
C883 C877 1.363 . S
C883 C878 1.379 . S
C883 N881 1.356 . S
N884 C876 1.356 . S
N884 H890 0.984 . S
N884 H891 0.984 1_554 S
N885 C878 1.356 . S
N885 H888 0.984 . S
N885 H889 0.985 . S
H886 N881 0.984 . S
H887 N881 0.985 . S
H888 N885 0.984 . S
H889 N885 0.985 . S
H890 N884 0.984 . S
H891 N884 0.984 1_556 S
H892 N880 0.984 . S
H893 N880 0.985 . S
C894 C895 1.363 . S
C894 C900 1.379 . S
C894 N902 1.356 . S
C895 C894 1.363 . S
C895 C901 1.363 . S
C896 C897 1.363 . S
C896 C901 1.379 . S
C896 N903 1.356 . S
C897 C896 1.363 . S
C897 C900 1.363 . S
N898 C900 1.356 . S
N898 H910 0.984 . S
N898 H911 0.985 . S
N899 C901 1.356 . S
N899 H904 0.984 . S
N899 H905 0.985 . S
C900 C894 1.379 . S
C900 C897 1.363 . S
C900 N898 1.356 . S
C901 C895 1.363 . S
C901 C896 1.379 . S
C901 N899 1.356 . S
N902 C894 1.356 . S
N902 H908 0.984 . S
N902 H909 0.984 . S
N903 C896 1.356 . S
N903 H906 0.984 . S
N903 H907 0.985 . S
H904 N899 0.984 . S
H905 N899 0.985 . S
H906 N903 0.984 . S
H907 N903 0.985 . S
H908 N902 0.984 . S
H909 N902 0.984 . S
H910 N898 0.984 . S
H911 N898 0.985 . S
C912 C913 1.363 . S
C912 C918 1.379 . S
C912 N920 1.356 . S
C913 C912 1.363 . S
C913 C919 1.363 . S
C914 C915 1.363 . S
C914 C919 1.379 . S
C914 N921 1.356 . S
C915 C914 1.363 . S
C915 C918 1.363 . S
N916 C918 1.356 . S
N916 H928 0.984 . S
N916 H929 0.985 . S
N917 C919 1.356 . S
N917 H922 0.984 . S
N917 H923 0.985 . S
C918 C912 1.379 . S
C918 C915 1.363 . S
C918 N916 1.356 . S
C919 C913 1.363 . S
C919 C914 1.379 . S
C919 N917 1.356 . S
N920 C912 1.356 . S
N920 H926 0.984 . S
N920 H927 0.984 . S
N921 C914 1.356 . S
N921 H924 0.984 . S
N921 H925 0.985 . S
H922 N917 0.984 . S
H923 N917 0.985 . S
H924 N921 0.984 . S
H925 N921 0.985 . S
H926 N920 0.984 . S
H927 N920 0.984 . S
H928 N916 0.984 . S
H929 N916 0.985 . S
C930 C931 1.363 . S
C930 C936 1.379 . S
C930 N938 1.356 . S
C931 C930 1.363 . S
C931 C937 1.363 . S
C932 C933 1.363 . S
C932 C937 1.379 . S
C932 N939 1.356 . S
C933 C932 1.363 . S
C933 C936 1.363 . S
N934 C936 1.356 . S
N934 H946 0.984 . S
N934 H947 0.985 . S
N935 C937 1.356 . S
N935 H940 0.984 . S
N935 H941 0.985 . S
C936 C930 1.379 . S
C936 C933 1.363 . S
C936 N934 1.356 . S
C937 C931 1.363 . S
C937 C932 1.379 . S
C937 N935 1.356 . S
N938 C930 1.356 . S
N938 H944 0.984 . S
N938 H945 0.984 . S
N939 C932 1.356 . S
N939 H942 0.984 . S
N939 H943 0.985 . S
H940 N935 0.984 . S
H941 N935 0.985 . S
H942 N939 0.984 . S
H943 N939 0.985 . S
H944 N938 0.984 . S
H945 N938 0.984 . S
H946 N934 0.984 . S
H947 N934 0.985 . S
C948 C949 1.363 . S
C948 C954 1.379 . S
C948 N956 1.356 . S
C949 C948 1.363 . S
C949 C955 1.363 . S
C950 C951 1.363 . S
C950 C955 1.379 . S
C950 N957 1.356 . S
C951 C950 1.363 . S
C951 C954 1.363 . S
N952 C954 1.356 . S
N952 H964 0.984 . S
N952 H965 0.985 . S
N953 C955 1.356 . S
N953 H958 0.984 . S
N953 H959 0.985 . S
C954 C948 1.379 . S
C954 C951 1.363 . S
C954 N952 1.356 . S
C955 C949 1.363 . S
C955 C950 1.379 . S
C955 N953 1.356 . S
N956 C948 1.356 . S
N956 H962 0.984 . S
N956 H963 0.984 . S
N957 C950 1.356 . S
N957 H960 0.984 . S
N957 H961 0.985 . S
H958 N953 0.984 . S
H959 N953 0.985 . S
H960 N957 0.984 . S
H961 N957 0.985 . S
H962 N956 0.984 . S
H963 N956 0.984 . S
H964 N952 0.984 . S
H965 N952 0.985 . S
C966 C967 1.363 . S
C966 C972 1.379 . S
C966 N974 1.356 . S
C967 C966 1.363 . S
C967 C973 1.363 . S
C968 C969 1.363 . S
C968 C973 1.379 . S
C968 N975 1.356 . S
C969 C968 1.363 . S
C969 C972 1.363 . S
N970 C972 1.356 . S
N970 H982 0.984 1_655 S
N970 H983 0.985 . S
N971 C973 1.356 . S
N971 H976 0.984 . S
N971 H977 0.985 . S
C972 C966 1.379 . S
C972 C969 1.363 . S
C972 N970 1.356 . S
C973 C967 1.363 . S
C973 C968 1.379 . S
C973 N971 1.356 . S
N974 C966 1.356 . S
N974 H980 0.984 . S
N974 H981 0.984 . S
N975 C968 1.356 . S
N975 H978 0.984 . S
N975 H979 0.985 . S
H976 N971 0.984 . S
H977 N971 0.985 . S
H978 N975 0.984 . S
H979 N975 0.985 . S
H980 N974 0.984 . S
H981 N974 0.984 . S
H982 N970 0.984 1_455 S
H983 N970 0.985 . S
C984 C985 1.363 . S
C984 C990 1.379 . S
C984 N992 1.356 . S
C985 C984 1.363 . S
C985 C991 1.363 . S
C986 C987 1.363 . S
C986 C991 1.379 . S
C986 N993 1.356 . S
C987 C986 1.363 . S
C987 C990 1.363 . S
N988 C990 1.356 . S
N988 H1000 0.984 . S
N988 H1001 0.985 . S
N989 C991 1.356 . S
N989 H994 0.984 . S
N989 H995 0.985 . S
C990 C984 1.379 . S
C990 C987 1.363 . S
C990 N988 1.356 . S
C991 C985 1.363 . S
C991 C986 1.379 . S
C991 N989 1.356 . S
N992 C984 1.356 . S
N992 H998 0.984 . S
N992 H999 0.984 . S
N993 C986 1.356 . S
N993 H996 0.984 . S
N993 H997 0.985 . S
H994 N989 0.984 . S
H995 N989 0.985 . S
H996 N993 0.984 . S
H997 N993 0.985 . S
H998 N992 0.984 . S
H999 N992 0.984 . S
H1000 N988 0.984 . S
H1001 N988 0.985 . S
C1002 C1003 1.363 . S
C1002 C1008 1.379 . S
C1002 N1010 1.356 . S
C1003 C1002 1.363 . S
C1003 C1009 1.363 . S
C1004 C1005 1.363 . S
C1004 C1009 1.379 . S
C1004 N1011 1.356 . S
C1005 C1004 1.363 . S
C1005 C1008 1.363 . S
N1006 C1008 1.356 . S
N1006 H1018 0.984 . S
N1006 H1019 0.985 . S
N1007 C1009 1.356 . S
N1007 H1012 0.984 . S
N1007 H1013 0.985 . S
C1008 C1002 1.379 . S
C1008 C1005 1.363 . S
C1008 N1006 1.356 . S
C1009 C1003 1.363 . S
C1009 C1004 1.379 . S
C1009 N1007 1.356 . S
N1010 C1002 1.356 . S
N1010 H1016 0.984 . S
N1010 H1017 0.984 . S
N1011 C1004 1.356 . S
N1011 H1014 0.984 . S
N1011 H1015 0.985 . S
H1012 N1007 0.984 . S
H1013 N1007 0.985 . S
H1014 N1011 0.984 . S
H1015 N1011 0.985 . S
H1016 N1010 0.984 . S
H1017 N1010 0.984 . S
H1018 N1006 0.984 . S
H1019 N1006 0.985 . S
C1020 C1021 1.363 . S
C1020 C1026 1.379 . S
C1020 N1028 1.356 . S
C1021 C1020 1.363 . S
C1021 C1027 1.363 . S
C1022 C1023 1.363 . S
C1022 C1027 1.379 . S
C1022 N1029 1.356 . S
C1023 C1022 1.363 . S
C1023 C1026 1.363 . S
N1024 C1026 1.356 . S
N1024 H1036 0.984 . S
N1024 H1037 0.985 . S
N1025 C1027 1.356 . S
N1025 H1030 0.984 . S
N1025 H1031 0.985 . S
C1026 C1020 1.379 . S
C1026 C1023 1.363 . S
C1026 N1024 1.356 . S
C1027 C1021 1.363 . S
C1027 C1022 1.379 . S
C1027 N1025 1.356 . S
N1028 C1020 1.356 . S
N1028 H1034 0.984 . S
N1028 H1035 0.984 . S
N1029 C1022 1.356 . S
N1029 H1032 0.984 . S
N1029 H1033 0.985 . S
H1030 N1025 0.984 . S
H1031 N1025 0.985 . S
H1032 N1029 0.984 . S
H1033 N1029 0.985 . S
H1034 N1028 0.984 . S
H1035 N1028 0.984 . S
H1036 N1024 0.984 . S
H1037 N1024 0.985 . S
C1038 C1039 1.363 . S
C1038 C1044 1.379 . S
C1038 N1046 1.356 . S
C1039 C1038 1.363 . S
C1039 C1045 1.363 . S
C1040 C1041 1.363 . S
C1040 C1045 1.379 . S
C1040 N1047 1.356 . S
C1041 C1040 1.363 . S
C1041 C1044 1.363 . S
N1042 C1044 1.356 . S
N1042 H1054 0.984 . S
N1042 H1055 0.985 . S
N1043 C1045 1.356 . S
N1043 H1048 0.984 . S
N1043 H1049 0.985 . S
C1044 C1038 1.379 . S
C1044 C1041 1.363 . S
C1044 N1042 1.356 . S
C1045 C1039 1.363 . S
C1045 C1040 1.379 . S
C1045 N1043 1.356 . S
N1046 C1038 1.356 . S
N1046 H1052 0.984 . S
N1046 H1053 0.984 . S
N1047 C1040 1.356 . S
N1047 H1050 0.984 . S
N1047 H1051 0.985 . S
H1048 N1043 0.984 . S
H1049 N1043 0.985 . S
H1050 N1047 0.984 . S
H1051 N1047 0.985 . S
H1052 N1046 0.984 . S
H1053 N1046 0.984 . S
H1054 N1042 0.984 . S
H1055 N1042 0.985 . S
C625 C247 1.489 1_545 S
C627 C362 1.472 . S
C645 C446 1.471 . S
C643 C283 1.488 . S
C663 C439 1.478 . S
C661 C175 1.487 . S
C679 C211 1.486 1_545 S
C681 C355 1.477 . S
C699 C519 1.472 . S
C697 C103 1.472 1_565 S
C717 C603 1.471 . S
C715 C139 1.471 . S
C733 C31 1.466 . S
C735 C596 1.478 . S
C751 C67 1.466 1_565 S
C753 C512 1.477 . S
C771 C346 1.323 . S
C769 C37 1.509 . S
C789 C430 1.323 . S
C787 C1 1.510 . S
C807 C441 1.400 . S
C805 C109 1.542 . S
C825 C357 1.401 . S
C823 C73 1.525 . S
C843 C525 1.323 . S
C841 C181 1.527 . S
C859 C145 1.528 . S
C861 C609 1.323 . S
C879 C598 1.400 . S
C877 C253 1.540 . S
C895 C217 1.541 . S
C897 C514 1.401 . S
C915 C344 1.575 . S
C913 C25 1.541 . S
C933 C428 1.574 . S
C931 C61 1.541 . S
C949 C97 1.535 . S
C951 C435 1.563 . S
C969 C351 1.562 . S
C967 C133 1.535 . S
C987 C523 1.575 . S
C985 C169 1.567 . S
C1003 C205 1.566 . S
C1005 C607 1.574 . S
C1021 C241 1.557 . S
C1023 C614 1.563 . S
C1039 C277 1.557 . S
C1041 C530 1.562 . S
