# Generated by pormake.
# Topology zzz, (3,6)-cn, num edge types: 1
# Building blocks:
#     Node 0, Type 0, BuildingBlock: PAMTOO_clean_linker_0, # of connection points: 3
#     Node 1, Type 0, BuildingBlock: PAMTOO_clean_linker_0, # of connection points: 3
#     Node 2, Type 0, BuildingBlock: PAMTOO_clean_linker_0, # of connection points: 3
#     Node 3, Type 0, BuildingBlock: PAMTOO_clean_linker_0, # of connection points: 3
#     Node 4, Type 0, BuildingBlock: PAMTOO_clean_linker_0, # of connection points: 3
#     Node 5, Type 0, BuildingBlock: PAMTOO_clean_linker_0, # of connection points: 3
#     Node 6, Type 0, BuildingBlock: PAMTOO_clean_linker_0, # of connection points: 3
#     Node 7, Type 0, BuildingBlock: PAMTOO_clean_linker_0, # of connection points: 3
#     Node 8, Type 1, BuildingBlock: PAMTOO_clean_sbu_0, # of connection points: 6
#     Node 9, Type 1, BuildingBlock: PAMTOO_clean_sbu_0, # of connection points: 6
#     Node 10, Type 1, BuildingBlock: PAMTOO_clean_sbu_0, # of connection points: 6
#     Node 11, Type 1, BuildingBlock: PAMTOO_clean_sbu_0, # of connection points: 6
#     Edge 12, Type (0, 1), BuildingBlock: KIFKEQ_clean_linker_1, # of connection points: 2
#     Edge 13, Type (0, 1), BuildingBlock: KIFKEQ_clean_linker_1, # of connection points: 2
#     Edge 14, Type (0, 1), BuildingBlock: KIFKEQ_clean_linker_1, # of connection points: 2
#     Edge 15, Type (0, 1), BuildingBlock: KIFKEQ_clean_linker_1, # of connection points: 2
#     Edge 16, Type (0, 1), BuildingBlock: KIFKEQ_clean_linker_1, # of connection points: 2
#     Edge 17, Type (0, 1), BuildingBlock: KIFKEQ_clean_linker_1, # of connection points: 2
#     Edge 18, Type (0, 1), BuildingBlock: KIFKEQ_clean_linker_1, # of connection points: 2
#     Edge 19, Type (0, 1), BuildingBlock: KIFKEQ_clean_linker_1, # of connection points: 2
#     Edge 20, Type (0, 1), BuildingBlock: KIFKEQ_clean_linker_1, # of connection points: 2
#     Edge 21, Type (0, 1), BuildingBlock: KIFKEQ_clean_linker_1, # of connection points: 2
#     Edge 22, Type (0, 1), BuildingBlock: KIFKEQ_clean_linker_1, # of connection points: 2
#     Edge 23, Type (0, 1), BuildingBlock: KIFKEQ_clean_linker_1, # of connection points: 2
#     Edge 24, Type (0, 1), BuildingBlock: KIFKEQ_clean_linker_1, # of connection points: 2
#     Edge 25, Type (0, 1), BuildingBlock: KIFKEQ_clean_linker_1, # of connection points: 2
#     Edge 26, Type (0, 1), BuildingBlock: KIFKEQ_clean_linker_1, # of connection points: 2
#     Edge 27, Type (0, 1), BuildingBlock: KIFKEQ_clean_linker_1, # of connection points: 2
#     Edge 28, Type (0, 1), BuildingBlock: KIFKEQ_clean_linker_1, # of connection points: 2
#     Edge 29, Type (0, 1), BuildingBlock: KIFKEQ_clean_linker_1, # of connection points: 2
#     Edge 30, Type (0, 1), BuildingBlock: KIFKEQ_clean_linker_1, # of connection points: 2
#     Edge 31, Type (0, 1), BuildingBlock: KIFKEQ_clean_linker_1, # of connection points: 2
#     Edge 32, Type (0, 1), BuildingBlock: KIFKEQ_clean_linker_1, # of connection points: 2
#     Edge 33, Type (0, 1), BuildingBlock: KIFKEQ_clean_linker_1, # of connection points: 2
#     Edge 34, Type (0, 1), BuildingBlock: KIFKEQ_clean_linker_1, # of connection points: 2
#     Edge 35, Type (0, 1), BuildingBlock: KIFKEQ_clean_linker_1, # of connection points: 2
# Relax obj value: 0.214
# Max RMSD: 0.237
# Mean RMSD: 0.124
data_MOF--net-zzz--node1-PAMTOO_clean_sbu_0--node2-PAMTOO_clean_linker_0--edge1-KIFKEQ_clean_linker_1
_symmetry_space_group_name_H-M    P1
_symmetry_Int_Tables_number       1
_symmetry_cell_setting            triclinic
loop_
_symmetry_equiv_pos_as_xyz
'x, y, z'
_cell_length_a     57.955381
_cell_length_b     50.029963
_cell_length_c     15.890217
_cell_angle_alpha  91.734113
_cell_angle_beta   79.486549
_cell_angle_gamma 86.098705
loop_
_atom_site_label
_atom_site_type_symbol
_atom_site_fract_x
_atom_site_fract_y
_atom_site_fract_z
_atom_type_partial_charge
H0 H 0.85202 0.46266 0.47896 0.0
H1 H 0.79492 0.48621 0.35298 0.0
H2 H 0.81055 0.53738 0.55425 0.0
H3 H 0.75237 0.54583 0.51691 0.0
C4 C 0.75901 0.52897 0.46968 0.0
O5 O 0.78277 0.53126 0.43908 0.0
H6 H 0.75617 0.51022 0.5051 0.0
C7 C 0.83703 0.47646 0.47524 0.0
C8 C 0.83294 0.50029 0.52696 0.0
C9 C 0.82343 0.47121 0.41288 0.0
C10 C 0.8051 0.48976 0.40254 0.0
C11 C 0.80009 0.5133 0.45409 0.0
C12 C 0.8141 0.51875 0.51611 0.0
H13 H 0.9793 0.80837 0.39998 0.0
H14 H 0.98626 0.7243 0.33158 0.0
H15 H 1.00529 0.75222 0.56704 0.0
H16 H 0.02879 0.68258 0.47794 0.0
C17 C 0.02232 0.69526 0.4297 0.0
O18 O 1.00155 0.70942 0.46857 0.0
H19 H 0.03618 0.70925 0.40815 0.0
C20 C 0.98308 0.7879 0.41695 0.0
C21 C 0.99169 0.78319 0.49256 0.0
C22 C 0.98123 0.76692 0.35872 0.0
C23 C 0.98733 0.74056 0.37701 0.0
C24 C 0.99589 0.7352 0.45213 0.0
C25 C 0.99842 0.7565 0.50954 0.0
H26 H 0.71273 0.03901 0.31653 0.0
H27 H 0.78326 0.04451 0.17896 0.0
H28 H 0.77072 0.99688 0.40264 0.0
H29 H 0.80689 0.98978 0.17076 0.0
C30 C 0.8164 0.99434 0.22379 0.0
O31 O 0.80382 0.01452 0.27912 0.0
H32 H 0.81743 0.97574 0.25984 0.0
C33 C 0.73152 0.03399 0.30976 0.0
C34 C 0.73955 0.01703 0.36819 0.0
C35 C 0.74698 0.04399 0.24168 0.0
C36 C 0.77119 0.03684 0.2314 0.0
C37 C 0.78002 0.01991 0.28892 0.0
C38 C 0.76408 0.00984 0.35775 0.0
H39 H 0.51055 0.67813 0.30043 0.0
H40 H 0.50736 0.74491 0.13757 0.0
H41 H 0.54268 0.75017 0.35351 0.0
H42 H 0.51622 0.80423 0.31452 0.0
C43 C 0.51531 0.79848 0.24711 0.0
O44 O 0.53072 0.77606 0.2214 0.0
H45 H 0.49695 0.79361 0.24497 0.0
C46 C 0.5143 0.69858 0.28528 0.0
C47 C 0.52734 0.71256 0.33538 0.0
C48 C 0.50679 0.70998 0.21453 0.0
C49 C 0.51268 0.73601 0.19303 0.0
C50 C 0.52527 0.75084 0.24361 0.0
C51 C 0.53265 0.73903 0.31518 0.0
H52 H 0.2045 0.46009 0.0899 0.0
H53 H 0.26603 0.4714 0.19865 0.0
H54 H 0.24944 0.52202 1.00065 0.0
H55 H 0.30868 0.51499 0.02032 0.0
C56 C 0.30255 0.50369 0.07832 0.0
O57 O 0.27906 0.51188 0.10896 0.0
H58 H 0.30466 0.48197 0.05874 0.0
C59 C 0.22089 0.46941 0.08916 0.0
C60 C 0.22576 0.49067 0.03499 0.0
C61 C 0.23484 0.4627 0.15022 0.0
C62 C 0.25523 0.47615 0.15151 0.0
C63 C 0.26086 0.49723 0.0973 0.0
C64 C 0.2459 0.50479 0.03933 0.0
H65 H 0.97998 0.22836 0.21984 0.0
H66 H 0.99306 0.30082 0.3495 0.0
H67 H 0.04081 0.27048 0.12136 0.0
H68 H 0.06547 0.31308 0.24695 0.0
C69 C 0.04849 0.31046 0.29009 0.0
O70 O 0.03103 0.30979 0.24116 0.0
H71 H 0.05056 0.29108 0.32178 0.0
C72 C 0.99026 0.24561 0.22217 0.0
C73 C 1.01078 0.2472 0.16076 0.0
C74 C 0.98377 0.26464 0.29051 0.0
C75 C 0.99773 0.28613 0.2965 0.0
C76 C 1.01813 0.28843 0.23526 0.0
C77 C 0.02487 0.26878 0.1679 0.0
H78 H 0.33879 0.97904 0.24476 0.0
H79 H 0.26922 0.98952 0.39608 0.0
H80 H 0.28582 0.03079 0.16026 0.0
H81 H 0.23745 0.98556 0.27091 0.0
C82 C 0.23314 0.00762 0.27222 0.0
O83 O 0.25155 0.02131 0.29344 0.0
H84 H 0.23111 0.01287 0.20635 0.0
C85 C 0.32076 0.98763 0.25281 0.0
C86 C 0.31462 1.00543 0.19298 0.0
C87 C 0.30464 0.98188 0.3256 0.0
C88 C 0.2816 0.99364 0.33897 0.0
C89 C 0.27435 0.01066 0.27863 0.0
C90 C 0.29107 0.01702 0.20579 0.0
H91 H 0.52167 0.3388 0.32349 0.0
H92 H 0.52599 0.26562 0.45576 0.0
H93 H 0.51855 0.2633 0.19019 0.0
H94 H 0.4948 0.21457 0.29603 0.0
C95 C 0.50263 0.21981 0.35267 0.0
O96 O 0.52226 0.23389 0.3257 0.0
H97 H 0.48893 0.23255 0.39753 0.0
C98 C 0.52133 0.31712 0.32344 0.0
C99 C 0.51985 0.30295 0.24764 0.0
C100 C 0.52357 0.30395 0.39809 0.0
C101 C 0.52386 0.27594 0.39839 0.0
C102 C 0.52141 0.26114 0.3243 0.0
C103 C 0.51948 0.2747 0.24834 0.0
Dy104 Dy 1.01415 0.02836 0.6986 0.0
Dy105 Dy 0.03856 1.00527 0.85367 0.0
C106 C 0.07139 0.01766 0.67064 0.0
O107 O 0.02283 0.9847 0.66361 0.0
O108 O 0.02171 0.97127 0.80004 0.0
O109 O 1.014 0.05418 0.59272 0.0
O110 O 0.98498 0.02942 0.63026 0.0
O111 O 1.00059 0.01451 0.91696 0.0
O112 O 0.98354 0.01796 0.79812 0.0
O113 O 0.04412 0.04899 0.85935 0.0
O114 O 1.01437 0.06338 0.7903 0.0
O115 O 0.04277 1.0039 0.98607 0.0
O116 O 0.06282 0.97526 0.89073 0.0
C117 C 0.02123 0.96574 0.71926 0.0
O118 O 0.05285 0.02841 0.64342 0.0
O119 O 0.06949 0.00651 0.74536 0.0
C120 C 0.97599 0.0731 0.58823 0.0
C121 C 0.94712 0.12039 0.58114 0.0
C122 C 0.96459 0.11972 0.63223 0.0
C123 C 0.97873 0.0963 0.63611 0.0
C124 C 0.95766 0.07302 0.54173 0.0
C125 C 0.94322 0.09643 0.53863 0.0
C126 C 0.99263 0.04937 0.58508 0.0
C127 C 0.98176 0.01597 0.88137 0.0
C128 C 0.0299 0.06827 0.83872 0.0
C129 C 0.04368 0.95784 0.01622 0.0
C130 C 0.02021 0.91104 0.05452 0.0
C131 C 1.00761 0.93624 0.06501 0.0
C132 C 0.0192 0.95941 0.04589 0.0
C133 C 0.05647 0.93281 0.01047 0.0
C134 C 0.04482 0.90957 0.02928 0.0
C135 C 0.0546 0.9805 0.97196 0.0
H136 H 0.96848 0.13767 0.66506 0.0
H137 H 0.99253 0.09669 0.67362 0.0
H138 H 0.95498 0.05512 0.50571 0.0
H139 H 0.92963 0.09601 0.50009 0.0
H140 H 0.98863 0.93798 0.08426 0.0
H141 H 1.00873 0.97832 0.04952 0.0
H142 H 0.07528 0.93107 0.98646 0.0
H143 H 0.05501 0.8904 0.02243 0.0
Dy144 Dy 0.52223 0.98789 0.70531 0.0
Dy145 Dy 0.53444 0.02574 0.85842 0.0
C146 C 0.52361 0.0509 0.6863 0.0
O147 O 0.56016 0.99555 0.65825 0.0
O148 O 0.56974 0.00805 0.78682 0.0
O149 O 0.51672 0.98049 0.57584 0.0
O150 O 0.51359 0.94878 0.66563 0.0
O151 O 0.52508 0.9868 0.91722 0.0
O152 O 0.53708 0.96067 0.79544 0.0
O153 O 0.49462 0.02985 0.88374 0.0
O154 O 0.48772 0.99468 0.79726 0.0
O155 O 0.54983 0.02995 0.97126 0.0
O156 O 0.53509 0.06509 0.91802 0.0
C157 C 0.57602 1.00095 0.70482 0.0
O158 O 0.51149 0.03018 0.67579 0.0
O159 O 0.53788 0.05029 0.74163 0.0
C160 C 0.48624 0.95177 0.5753 0.0
C161 C 0.44049 0.94076 0.55563 0.0
C162 C 0.44425 0.96398 0.60178 0.0
C163 C 0.46691 0.96942 0.61148 0.0
C164 C 0.48268 0.92852 0.52949 0.0
C165 C 0.45996 0.92308 0.51937 0.0
C166 C 0.50968 0.95664 0.59188 0.0
C167 C 0.53137 0.96307 0.87932 0.0
C168 C 0.48011 0.0136 0.85731 0.0
C169 C 0.57058 0.06827 0.96864 0.0
C170 C 0.61649 0.08273 0.97164 0.0
C171 C 0.61088 0.07181 0.89609 0.0
C172 C 0.58805 0.0648 0.89449 0.0
C173 C 0.57574 0.08051 0.04268 0.0
C174 C 0.59853 0.08788 0.04405 0.0
C175 C 0.54816 0.05607 0.97121 0.0
H176 H 0.42973 0.97827 0.62903 0.0
H177 H 0.46934 0.9874 0.6476 0.0
H178 H 0.49742 0.9145 0.50228 0.0
H179 H 0.45759 0.90499 0.48374 0.0
H180 H 0.62436 0.06769 0.83943 0.0
H181 H 0.58431 0.05546 0.83658 0.0
H182 H 0.56249 0.08318 0.10054 0.0
H183 H 0.60246 0.09595 0.10344 0.0
Dy184 Dy 0.55189 0.51379 0.83438 0.0
Dy185 Dy 0.50286 0.50406 0.74024 0.0
C186 C 0.51927 0.46303 0.8806 0.0
O187 O 0.55915 0.47557 0.75463 0.0
O188 O 0.53791 0.492 0.66064 0.0
O189 O 0.58983 0.51721 0.82713 0.0
O190 O 0.56524 0.52075 0.95033 0.0
O191 O 0.51264 0.54547 0.7093 0.0
O192 O 0.55132 0.54425 0.73109 0.0
O193 O 0.48919 0.53554 0.84298 0.0
O194 O 0.52216 0.54113 0.90526 0.0
O195 O 0.46652 0.49654 0.73508 0.0
O196 O 0.49277 0.49541 0.61845 0.0
C197 C 0.5513 0.47249 0.6832 0.0
O198 O 0.53594 0.47809 0.89626 0.0
O199 O 0.50558 0.46884 0.82465 0.0
C200 C 0.6065 0.52452 0.95902 0.0
C201 C 0.64305 0.52858 0.05649 0.0
C202 C 0.61917 0.53268 0.09564 0.0
C203 C 0.60123 0.53065 0.0478 0.0
C204 C 0.63032 0.52081 0.91917 0.0
C205 C 0.64835 0.52275 0.96727 0.0
C206 C 0.58707 0.52044 0.91065 0.0
C207 C 0.53319 0.5559 0.70208 0.0
C208 C 0.50004 0.54702 0.89891 0.0
C209 C 0.45223 0.50202 0.60171 0.0
C210 C 0.41731 0.50901 0.49678 0.0
C211 C 0.44107 0.51323 0.46487 0.0
C212 C 0.45826 0.5097 0.51639 0.0
C213 C 0.4284 0.49874 0.63459 0.0
C214 C 0.41121 0.50226 0.58312 0.0
C215 C 0.4707 0.49317 0.65164 0.0
H216 H 0.61421 0.53679 0.16409 0.0
H217 H 0.58313 0.53349 0.08103 0.0
H218 H 0.63504 0.51596 0.85104 0.0
H219 H 0.66647 0.51973 0.9344 0.0
H220 H 0.44665 0.51812 0.39871 0.0
H221 H 0.47645 0.51198 0.48808 0.0
H222 H 0.42312 0.49247 0.6995 0.0
H223 H 0.39313 0.49925 0.61085 0.0
Dy224 Dy 0.02919 0.53219 0.76303 0.0
Dy225 Dy 1.0133 0.49252 0.91845 0.0
C226 C 0.02854 0.46848 0.72408 0.0
O227 O 0.9898 0.53683 0.78629 0.0
O228 O 0.98282 0.49659 0.84797 0.0
O229 O 0.02674 0.54741 0.63869 0.0
O230 O 0.05273 0.56133 0.70796 0.0
O231 O 1.00532 0.53337 0.98235 0.0
O232 O 0.02451 0.55971 0.87984 0.0
O233 O 0.0488 0.50571 0.93199 0.0
O234 O 0.06195 0.50997 0.79007 0.0
O235 O 0.98954 0.48259 0.03179 0.0
O236 O 0.02112 0.45673 0.98406 0.0
C237 C 0.97589 0.51743 0.80745 0.0
O238 O 0.02706 0.49278 0.6959 0.0
O239 O 0.02707 0.4642 0.80593 0.0
C240 C 0.0663 0.54502 0.56632 0.0
C241 C 0.10269 0.50695 0.49043 0.0
C242 C 0.07979 0.50498 0.47497 0.0
C243 C 0.06174 0.52391 0.51237 0.0
C244 C 0.08973 0.54863 0.57312 0.0
C245 C 0.10773 0.52962 0.53616 0.0
C246 C 0.04709 0.55761 0.63281 0.0
C247 C 1.01353 0.55635 0.95845 0.0
C248 C 0.06632 0.50732 0.86764 0.0
C249 C 0.9873 0.43677 0.05254 0.0
C250 C 0.95143 0.40118 0.08615 0.0
C251 C 0.96137 0.41207 0.15316 0.0
C252 C 0.97912 0.42964 0.13633 0.0
C253 C 0.97924 0.42419 0.98445 0.0
C254 C 0.9616 0.40625 1.00109 0.0
C255 C 1.00142 0.45996 0.0393 0.0
H256 H 0.07551 0.48792 0.43873 0.0
H257 H 0.04393 0.52059 0.50492 0.0
H258 H 0.09387 0.5648 0.61346 0.0
H259 H 0.12545 0.5321 0.54636 0.0
H260 H 0.95413 0.4092 0.21969 0.0
H261 H 0.9852 0.4392 0.18954 0.0
H262 H 0.98555 0.42944 0.91902 0.0
H263 H 0.95492 0.39781 0.9476 0.0
H264 H 0.189 0.01638 0.23476 0.0
H265 H 0.22411 0.01038 0.45077 0.0
H266 H 0.15095 0.01954 0.33045 0.0
H267 H 0.18587 0.01452 0.54819 0.0
H268 H 0.1136 0.99252 0.69344 0.0
H269 H 0.15221 0.99223 0.60138 0.0
H270 H 0.1227 0.04434 0.43002 0.0
H271 H 0.08402 0.04378 0.52055 0.0
C272 C 0.1886 0.0165 0.30319 0.0
C273 C 0.20978 0.01383 0.33479 0.0
C274 C 0.16662 0.01835 0.35863 0.0
C275 C 0.16487 0.01745 0.44822 0.0
C276 C 0.18617 0.01504 0.47997 0.0
C277 C 0.20824 0.01306 0.42412 0.0
C278 C 0.1153 1.00395 0.63613 0.0
C279 C 0.09539 0.01804 0.61482 0.0
C280 C 0.13766 1.00397 0.58321 0.0
C281 C 0.14102 0.01822 0.5071 0.0
C282 C 0.12109 0.03263 0.48667 0.0
C283 C 0.09873 0.03246 0.53926 0.0
H284 H 0.50654 0.16705 0.29255 0.0
H285 H 0.51211 0.21569 0.51533 0.0
H286 H 0.5125 0.12641 0.37017 0.0
H287 H 0.51762 0.17516 0.59418 0.0
H288 H 0.54641 0.09707 0.69186 0.0
H289 H 0.54328 0.13694 0.60929 0.0
H290 H 0.49265 0.1006 0.48233 0.0
H291 H 0.49617 0.06039 0.56396 0.0
C292 C 0.50921 0.16903 0.3581 0.0
C293 C 0.50878 0.19461 0.3979 0.0
C294 C 0.5124 0.1457 0.40307 0.0
C295 C 0.51534 0.14724 0.4892 0.0
C296 C 0.51564 0.17295 0.52795 0.0
C297 C 0.51243 0.19627 0.48289 0.0
C298 C 0.5346 0.09747 0.64628 0.0
C299 C 0.52153 0.07532 0.63499 0.0
C300 C 0.5327 0.12054 0.59903 0.0
C301 C 0.51767 0.12228 0.53871 0.0
C302 C 0.50467 0.10004 0.5271 0.0
C303 C 0.50656 0.07694 0.57451 0.0
H304 H 0.29243 0.49852 0.25509 0.0
H305 H 0.34817 0.51733 0.05141 0.0
H306 H 0.31897 0.50148 0.35758 0.0
H307 H 0.37489 0.5199 0.15313 0.0
H308 H 0.41307 0.54382 0.36771 0.0
H309 H 0.3848 0.54462 0.27118 0.0
H310 H 0.35232 0.47784 0.3979 0.0
H311 H 0.38053 0.47703 0.49417 0.0
C312 C 0.31027 0.50358 0.23222 0.0
C313 C 0.31796 0.50823 0.14501 0.0
C314 C 0.32564 0.50505 0.291 0.0
C315 C 0.34925 0.51097 0.26427 0.0
C316 C 0.35682 0.51578 0.177 0.0
C317 C 0.34147 0.51428 0.11838 0.0
C318 C 0.39998 0.52922 0.37497 0.0
C319 C 0.39927 0.51037 0.43939 0.0
C320 C 0.38368 0.52967 0.31932 0.0
C321 C 0.36611 0.51128 0.32609 0.0
C322 C 0.36523 0.49266 0.39118 0.0
C323 C 0.38151 0.49221 0.44677 0.0
H324 H 0.05984 0.31211 0.4496 0.0
H325 H 0.02752 0.36134 0.2786 0.0
H326 H 0.0553 0.34985 0.55354 0.0
H327 H 0.02209 0.39897 0.38368 0.0
H328 H 0.03874 0.46883 0.5487 0.0
H329 H 0.04298 0.43096 0.44588 0.0
H330 H 0.02807 0.3774 0.65407 0.0
H331 H 0.02467 0.41524 0.75691 0.0
C332 C 0.0513 0.3309 0.43506 0.0
C333 C 0.04352 0.3335 0.35676 0.0
C334 C 0.04862 0.35258 0.4948 0.0
C335 C 0.03818 0.37761 0.47776 0.0
C336 C 0.03042 0.38018 0.39908 0.0
C337 C 0.03325 0.35849 0.33909 0.0
C338 C 0.03645 0.44897 0.57267 0.0
C339 C 0.03145 0.44517 0.66136 0.0
C340 C 0.03869 0.42718 0.51347 0.0
C341 C 0.03579 0.40093 0.54112 0.0
C342 C 0.03079 0.39717 0.62997 0.0
C343 C 0.02873 0.41896 0.6892 0.0
H344 H 0.85936 0.97395 0.25585 0.0
H345 H 0.82946 0.03055 0.09927 0.0
H346 H 0.89878 0.98044 0.17733 0.0
H347 H 0.86897 0.03771 0.02138 0.0
H348 H 0.93867 0.01916 0.83111 0.0
H349 H 0.89975 0.01626 0.91766 0.0
H350 H 0.93073 0.0079 0.14369 0.0
H351 H 0.96983 0.01023 0.05637 0.0
C352 C 0.86125 0.98825 0.20567 0.0
C353 C 0.84115 1.00173 0.18401 0.0
C354 C 0.88398 0.99205 0.16038 0.0
C355 C 0.88743 0.00946 0.09167 0.0
C356 C 0.86727 0.02371 0.07239 0.0
C357 C 0.84453 0.01991 0.11781 0.0
C358 C 0.93729 0.01676 0.89931 0.0
C359 C 0.95769 0.01491 0.93608 0.0
C360 C 0.91476 0.01531 0.9495 0.0
C361 C 0.91169 0.01191 0.03858 0.0
C362 C 0.93213 0.0102 0.07548 0.0
C363 C 0.9547 0.01169 0.02518 0.0
H364 H 0.49799 0.84999 0.28325 0.0
H365 H 0.54318 0.80101 0.08329 0.0
H366 H 0.50264 0.88887 0.19517 0.0
H367 H 0.54886 0.84025 0.99569 0.0
H368 H 0.53404 0.91003 0.82475 0.0
H369 H 0.53154 0.87053 0.91138 0.0
H370 H 0.52705 0.9213 0.13959 0.0
H371 H 0.52852 0.9607 0.05319 0.0
C372 C 0.50935 0.84769 0.22087 0.0
C373 C 0.52055 0.82245 0.19146 0.0
C374 C 0.51217 0.8701 0.17015 0.0
C375 C 0.52638 0.86815 0.08782 0.0
C376 C 0.53761 0.84276 0.05816 0.0
C377 C 0.53459 0.82019 0.10893 0.0
C378 C 0.53261 0.91275 0.89343 0.0
C379 C 0.53136 0.93869 0.93174 0.0
C380 C 0.53131 0.88997 0.94341 0.0
C381 C 0.52892 0.89237 0.03334 0.0
C382 C 0.5283 0.91838 0.0711 0.0
C383 C 0.52933 0.94113 0.02126 0.0
H384 H 0.74716 0.48647 0.37587 0.0
H385 H 0.73906 0.57273 0.40093 0.0
H386 H 0.72086 0.48701 0.27157 0.0
H387 H 0.71313 0.57355 0.29533 0.0
H388 H 0.6448 0.56325 0.19286 0.0
H389 H 0.67408 0.5635 0.28477 0.0
H390 H 0.71451 0.49774 0.13122 0.0
H391 H 0.68464 0.49681 0.04103 0.0
C392 C 0.73999 0.50559 0.35804 0.0
C393 C 0.74493 0.52953 0.39754 0.0
C394 C 0.72494 0.50596 0.29787 0.0
C395 C 0.71448 0.53032 0.27514 0.0
C396 C 0.72033 0.55434 0.31221 0.0
C397 C 0.73538 0.55394 0.37231 0.0
C398 C 0.65985 0.5487 0.17867 0.0
C399 C 0.66209 0.52988 0.10932 0.0
C400 C 0.6769 0.54907 0.23105 0.0
C401 C 0.69686 0.53063 0.21607 0.0
C402 C 0.69933 0.51209 0.14579 0.0
C403 C 0.68226 0.51176 0.09318 0.0
H404 H 0.98611 0.66279 0.4223 0.0
H405 H 0.05074 0.686 0.27198 0.0
H406 H 0.9816 0.63143 0.30647 0.0
H407 H 0.04688 0.65404 0.15725 0.0
H408 H 0.02629 0.60804 0.93633 0.0
H409 H 0.02627 0.64309 0.04647 0.0
H410 H 0.99783 0.58968 0.24122 0.0
H411 H 0.99713 0.55511 0.13129 0.0
C412 C 0.99925 0.66132 0.36404 0.0
C413 C 0.01857 0.67719 0.35566 0.0
C414 C 0.99682 0.64314 0.29782 0.0
C415 C 1.01387 0.64003 0.2219 0.0
C416 C 0.03313 0.65612 0.21367 0.0
C417 C 0.03545 0.67439 0.27969 0.0
C418 C 0.01977 0.60387 1.00256 0.0
C419 C 1.01173 0.57863 0.02452 0.0
C420 C 0.01993 0.62395 0.06602 0.0
C421 C 1.01218 0.61934 0.15336 0.0
C422 C 1.00363 0.59428 0.17491 0.0
C423 C 1.00334 0.57429 0.11152 0.0
H424 H 0.93868 0.25434 0.28032 0.0
H425 H 0.98621 0.2605 0.45838 0.0
H426 H 0.91471 0.22596 0.37769 0.0
H427 H 0.96279 0.23181 0.55461 0.0
H428 H 0.93366 0.1656 0.6879 0.0
H429 H 0.92953 0.2114 0.6408 0.0
H430 H 0.9315 0.18043 0.38261 0.0
H431 H 0.93632 0.13538 0.42817 0.0
C432 C 0.94332 0.25069 0.34223 0.0
C433 C 0.96459 0.25888 0.36108 0.0
C434 C 0.92966 0.23437 0.39785 0.0
C435 C 0.93734 0.22577 0.47224 0.0
C436 C 0.95639 0.23783 0.4976 0.0
C437 C 0.96993 0.25433 0.44226 0.0
C438 C 0.93263 0.1686 0.62145 0.0
C439 C 0.93622 0.14674 0.56131 0.0
C440 C 0.93006 0.19486 0.59473 0.0
C441 C 0.93072 0.19964 0.50768 0.0
C442 C 0.93083 0.17764 0.45031 0.0
C443 C 0.93365 0.15152 0.47669 0.0
H444 H 0.32103 0.92953 0.31002 0.0
H445 H 0.31003 0.99911 0.48313 0.0
H446 H 0.34995 0.90956 0.38832 0.0
H447 H 0.33947 0.97991 0.55969 0.0
H448 H 0.42792 0.92414 0.40671 0.0
H449 H 0.38863 0.92488 0.37456 0.0
H450 H 0.35915 0.94812 0.63861 0.0
H451 H 0.39884 0.94753 0.67067 0.0
C452 C 0.32406 0.93993 0.36737 0.0
C453 C 0.31358 0.96585 0.39056 0.0
C454 C 0.3408 0.92871 0.41158 0.0
C455 C 0.34758 0.9435 0.47851 0.0
C456 C 0.33473 0.96791 0.5085 0.0
C457 C 0.31778 0.97897 0.46481 0.0
C458 C 0.41307 0.92856 0.4586 0.0
C459 C 0.4165 0.93621 0.54082 0.0
C460 C 0.39042 0.92887 0.44032 0.0
C461 C 0.37065 0.93677 0.50396 0.0
C462 C 0.37401 0.94235 0.58792 0.0
C463 C 0.39672 0.94209 0.60615 0.0
H464 H 0.56438 0.30942 0.45584 0.0
H465 H 0.49105 0.33758 0.49933 0.0
H466 H 0.57303 0.34902 0.53634 0.0
H467 H 0.49953 0.37695 0.57982 0.0
H468 H 0.57086 0.42478 0.72994 0.0
H469 H 0.56389 0.37949 0.68136 0.0
H470 H 0.52371 0.41359 0.50206 0.0
H471 H 0.53065 0.45842 0.54942 0.0
C472 C 0.54998 0.32338 0.48658 0.0
C473 C 0.52706 0.32055 0.4722 0.0
C474 C 0.55494 0.34609 0.5319 0.0
C475 C 0.53701 0.36622 0.56249 0.0
C476 C 0.51371 0.36187 0.55567 0.0
C477 C 0.50878 0.33924 0.51074 0.0
C478 C 0.56078 0.42256 0.67947 0.0
C479 C 0.55099 0.44525 0.64451 0.0
C480 C 0.55675 0.39667 0.65201 0.0
C481 C 0.54273 0.39316 0.58978 0.0
C482 C 0.53403 0.41578 0.55194 0.0
C483 C 0.53821 0.44148 0.57859 0.0
H484 H 0.2351 0.4743 0.31896 0.0
H485 H 0.20995 0.41746 0.15316 0.0
H486 H 0.2019 0.4687 0.42961 0.0
H487 H 0.17599 0.41208 0.26532 0.0
H488 H 0.113 0.48059 0.334 0.0
H489 H 0.1476 0.45104 0.27759 0.0
H490 H 0.16866 0.45384 0.52501 0.0
H491 H 0.13389 0.48389 0.58116 0.0
C492 C 0.22328 0.4593 0.30752 0.0
C493 C 0.2243 0.44766 0.22516 0.0
C494 C 0.20397 0.45607 0.37178 0.0
C495 C 0.18553 0.44124 0.35409 0.0
C496 C 0.18948 0.4246 0.27919 0.0
C497 C 0.20895 0.42769 0.21493 0.0
C498 C 0.12465 0.47427 0.37696 0.0
C499 C 0.12127 0.48523 0.46088 0.0
C500 C 0.1444 0.45698 0.34506 0.0
C501 C 0.16116 0.45031 0.39658 0.0
C502 C 0.1563 0.45893 0.4834 0.0
C503 C 0.13658 0.47637 0.51516 0.0
H504 H 0.94219 0.79235 0.31603 0.0
H505 H 1.01253 0.75933 0.21099 0.0
H506 H 0.94465 0.82432 0.20249 0.0
H507 H 1.01566 0.79189 0.10059 0.0
H508 H 0.02679 0.86418 0.95666 0.0
H509 H 1.00896 0.82204 0.99226 0.0
H510 H 0.96765 0.86087 0.22339 0.0
H511 H 0.98515 0.90246 0.18734 0.0
C512 C 0.95764 0.79096 0.26563 0.0
C513 C 0.97743 0.77406 0.27297 0.0
C514 C 0.95922 0.80946 0.20124 0.0
C515 C 0.9808 0.8116 0.14554 0.0
C516 C 0.99887 0.79116 0.14317 0.0
C517 C 0.9971 0.77234 0.20656 0.0
C518 C 1.01367 0.8636 0.01451 0.0
C519 C 1.00767 0.88638 0.07026 0.0
C520 C 1.00331 0.8396 0.0344 0.0
C521 C 0.98688 0.83795 0.11066 0.0
C522 C 0.97982 0.86135 0.16312 0.0
C523 C 0.99007 0.88526 0.14308 0.0
H524 H 0.75482 0.03721 0.06701 0.0
H525 H 0.71566 0.08747 0.27743 0.0
H526 H 0.72887 0.05497 0.9735 0.0
H527 H 0.689 0.10397 0.18709 0.0
H528 H 0.63605 0.12515 0.03763 0.0
H529 H 0.67491 0.1247 0.07688 0.0
H530 H 0.69087 0.04379 0.96771 0.0
H531 H 0.65283 0.04502 0.92514 0.0
C532 C 0.74113 0.0527 0.09243 0.0
C533 C 0.73682 0.06052 0.17977 0.0
C534 C 0.72603 0.06263 0.03931 0.0
C535 C 0.70624 0.08025 0.07311 0.0
C536 C 0.70388 0.09046 0.15802 0.0
C537 C 0.71909 0.08081 0.21048 0.0
C538 C 0.64825 0.10764 0.02008 0.0
C539 C 0.64137 0.08501 0.97941 0.0
C540 C 0.67047 0.10727 0.04283 0.0
C541 C 0.686 0.08398 0.02741 0.0
C542 C 0.67971 0.06224 0.98018 0.0
C543 C 0.65772 0.06283 0.95605 0.0
H544 H 0.51688 0.7006 0.04077 0.0
H545 H 0.46956 0.6804 0.26867 0.0
H546 H 0.50515 0.66255 0.96235 0.0
H547 H 0.45818 0.64213 0.19075 0.0
H548 H 0.47951 0.59103 0.83911 0.0
H549 H 0.47217 0.63562 0.91174 0.0
H550 H 0.48872 0.60171 0.14221 0.0
H551 H 0.49673 0.5576 0.06891 0.0
C552 C 0.50326 0.68874 0.07306 0.0
C553 C 0.49448 0.6931 0.16112 0.0
C554 C 0.49654 0.66693 0.02824 0.0
C555 C 0.48104 0.64918 0.07106 0.0
C556 C 0.47034 0.65534 0.15659 0.0
C557 C 0.47688 0.6772 0.20105 0.0
C558 C 0.48058 0.59303 0.90636 0.0
C559 C 0.48848 0.57099 0.94899 0.0
C560 C 0.47659 0.61852 0.94752 0.0
C561 C 0.47988 0.62209 0.03245 0.0
C562 C 0.48575 0.59951 0.07706 0.0
C563 C 0.49032 0.57426 0.03533 0.0
H564 H 0.83136 0.41811 0.44386 0.0
H565 H 0.83319 0.47346 0.24056 0.0
H566 H 0.85398 0.384 0.34334 0.0
H567 H 0.85694 0.4409 0.14182 0.0
H568 H 0.91518 0.40435 0.9943 0.0
H569 H 0.87404 0.40586 0.05795 0.0
H570 H 0.89254 0.37736 0.29307 0.0
H571 H 0.93326 0.37211 0.22503 0.0
C572 C 0.83624 0.4227 0.37705 0.0
C573 C 0.83108 0.44851 0.35007 0.0
C574 C 0.84941 0.40328 0.31932 0.0
C575 C 0.85849 0.40974 0.23446 0.0
C576 C 0.85065 0.43464 0.20594 0.0
C577 C 0.83702 0.4537 0.26303 0.0
C578 C 0.91055 0.39694 0.05796 0.0
C579 C 0.92783 0.39018 0.10712 0.0
C580 C 0.88672 0.39837 0.09546 0.0
C581 C 0.87991 0.39445 0.18365 0.0
C582 C 0.89679 0.38201 0.22629 0.0
C583 C 0.9205 0.37937 0.18745 0.0
H584 H 0.9827 0.22613 0.06013 0.0
H585 H 0.05317 0.21744 0.1127 0.0
H586 H 0.98969 0.18429 0.9752 0.0
H587 H 0.06073 0.17565 0.02407 0.0
H588 H 0.05181 0.08526 0.96833 0.0
H589 H 0.05003 0.13039 0.03296 0.0
H590 H 1.00837 0.15984 0.85109 0.0
H591 H 1.00942 0.11469 0.78911 0.0
C592 C 0.99996 0.21554 0.0516 0.0
C593 C 1.01732 0.22507 0.09366 0.0
C594 C 1.00407 0.19149 1.00229 0.0
C595 C 0.02576 0.17621 0.99284 0.0
C596 C 0.04366 0.18655 0.03094 0.0
C597 C 0.03949 0.21074 0.08068 0.0
C598 C 0.0424 0.1014 0.94176 0.0
C599 C 0.03052 0.09615 0.87399 0.0
C600 C 0.04152 0.12743 0.97851 0.0
C601 C 0.02889 0.14899 0.94803 0.0
C602 C 1.01783 0.14381 0.8779 0.0
C603 C 0.01852 0.1178 0.84187 0.0
H604 H 0.33682 0.05219 0.16561 0.0
H605 H 0.3383 0.97103 0.06598 0.0
H606 H 0.37569 0.05688 0.0777 0.0
H607 H 0.37712 0.97505 0.98061 0.0
H608 H 0.444 0.98952 0.80204 0.0
H609 H 0.40265 0.99124 0.86792 0.0
H610 H 0.41587 0.04372 0.07197 0.0
H611 H 0.4573 0.04278 1.00349 0.0
C612 C 0.34506 0.03567 0.12246 0.0
C613 C 0.33409 0.01145 0.1214 0.0
C614 C 0.36768 0.03809 0.07327 0.0
C615 C 0.38011 0.01628 0.02181 0.0
C616 C 0.36839 0.99257 0.01771 0.0
C617 C 0.34588 0.99022 0.06658 0.0
C618 C 0.43817 1.00162 0.86068 0.0
C619 C 0.45432 0.01589 0.89722 0.0
C620 C 0.41424 1.00248 0.89919 0.0
C621 C 0.40546 0.01741 0.97655 0.0
C622 C 0.42156 0.0322 0.01214 0.0
C623 C 0.44553 0.03153 0.973 0.0
H624 H 0.5561 0.33019 0.17435 0.0
H625 H 0.48556 0.31387 0.15048 0.0
H626 H 0.55521 0.36678 0.07954 0.0
H627 H 0.48489 0.34982 0.04883 0.0
H628 H 0.48069 0.43798 0.96212 0.0
H629 H 0.48101 0.39574 0.0365 0.0
H630 H 0.55654 0.38478 0.95284 0.0
H631 H 0.55611 0.42779 0.88738 0.0
C632 C 0.54071 0.33374 0.14526 0.0
C633 C 0.52105 0.31887 0.1692 0.0
C634 C 0.54011 0.35492 0.09017 0.0
C635 C 0.51992 0.36182 0.05518 0.0
C636 C 0.50066 0.34572 0.07506 0.0
C637 C 0.50117 0.32462 0.13193 0.0
C638 C 0.49728 0.42643 0.96035 0.0
C639 C 0.51841 0.43646 0.92039 0.0
C640 C 0.49753 0.40198 1.00233 0.0
C641 C 0.5189 0.38656 1.00309 0.0
C642 C 0.53976 0.39615 0.95785 0.0
C643 C 0.53955 0.42086 0.91902 0.0
H644 H 0.21334 0.46515 0.89749 0.0
H645 H 0.19423 0.53424 0.07067 0.0
H646 H 0.17557 0.47138 0.84937 0.0
H647 H 0.15629 0.54043 0.02362 0.0
H648 H 0.08098 0.51327 0.0212 0.0
H649 H 0.12109 0.5133 0.04818 0.0
H650 H 0.14826 0.50076 0.77739 0.0
H651 H 0.10793 0.50103 0.75001 0.0
C652 C 0.20145 0.48237 0.92254 0.0
C653 C 0.20705 0.49959 0.98638 0.0
C654 C 0.17968 0.48582 0.89558 0.0
C655 C 0.16266 0.50623 0.93323 0.0
C656 C 0.16882 0.52433 0.99377 0.0
C657 C 0.19075 0.5211 0.01972 0.0
C658 C 0.09544 0.51054 0.96717 0.0
C659 C 0.09106 0.50702 0.8834 0.0
C660 C 0.11852 0.51081 0.98265 0.0
C661 C 0.13804 0.50722 0.91502 0.0
C662 C 0.13371 0.50354 0.83112 0.0
C663 C 0.11055 0.50371 0.81543 0.0
H664 H 0.02987 0.79422 0.5662 0.0
H665 H 0.96052 0.82655 0.54207 0.0
H666 H 0.0374 0.83767 0.62862 0.0
H667 H 0.96834 0.86979 0.60123 0.0
H668 H 1.00642 0.94866 0.57398 0.0
H669 H 0.9989 0.90309 0.53238 0.0
H670 H 0.02069 0.87363 0.76018 0.0
H671 H 0.02783 0.91941 0.80312 0.0
C672 C 1.01605 0.8103 0.5761 0.0
C673 C 0.99471 0.80696 0.54796 0.0
C674 C 0.02042 0.83523 0.61121 0.0
C675 C 1.00363 0.85729 0.61796 0.0
C676 C 0.98179 0.85336 0.59517 0.0
C677 C 0.97732 0.82852 0.5615 0.0
C678 C 1.0097 0.93252 0.61517 0.0
C679 C 1.01767 0.93778 0.69198 0.0
C680 C 1.00528 0.90641 0.59153 0.0
C681 C 1.00911 0.88479 0.64321 0.0
C682 C 1.01764 0.88986 0.71898 0.0
C683 C 0.02163 0.91611 0.74358 0.0
H684 H 0.72038 0.0427 0.52132 0.0
H685 H 0.71476 0.97268 0.36455 0.0
H686 H 0.68184 0.03659 0.60809 0.0
H687 H 0.67635 0.96601 0.45183 0.0
H688 H 0.61423 0.0131 0.77682 0.0
H689 H 0.6555 0.0129 0.70761 0.0
H690 H 0.63744 0.98642 0.46835 0.0
H691 H 0.59635 0.98623 0.53779 0.0
C692 C 0.7114 0.0252 0.50806 0.0
C693 C 0.72106 0.00773 0.43745 0.0
C694 C 0.68907 0.02178 0.5574 0.0
C695 C 0.6755 1.00095 0.53699 0.0
C696 C 0.68587 0.98259 0.46918 0.0
C697 C 0.70822 0.98601 0.42004 0.0
C698 C 0.61902 0.00703 0.70955 0.0
C699 C 0.60166 0.99968 0.66334 0.0
C700 C 0.64283 0.00705 0.66949 0.0
C701 C 0.6502 0.99958 0.5818 0.0
C702 C 0.63282 0.99185 0.5361 0.0
C703 C 0.60904 0.99193 0.57604 0.0
H704 H 0.50559 0.71359 0.50253 0.0
H705 H 0.56473 0.67603 0.3247 0.0
H706 H 0.50967 0.67825 0.60319 0.0
H707 H 0.56874 0.64036 0.4241 0.0
H708 H 0.57349 0.58102 0.63677 0.0
H709 H 0.57599 0.62325 0.56171 0.0
H710 H 0.50019 0.6321 0.59614 0.0
H711 H 0.49769 0.59059 0.67062 0.0
C712 C 0.52014 0.69843 0.48674 0.0
C713 C 0.53514 0.6979 0.40656 0.0
C714 C 0.52225 0.67784 0.54363 0.0
C715 C 0.5393 0.65605 0.52141 0.0
C716 C 0.55551 0.65678 0.444 0.0
C717 C 0.55336 0.67737 0.38712 0.0
C718 C 0.55738 0.59213 0.62885 0.0
C719 C 0.53541 0.58212 0.65941 0.0
C720 C 0.55881 0.61633 0.58559 0.0
C721 C 0.53828 0.63134 0.57304 0.0
C722 C 0.51639 0.62154 0.6056 0.0
C723 C 0.51498 0.59738 0.64773 0.0
H724 H 0.85213 0.54793 0.55978 0.0
H725 H 0.85275 0.46505 0.62734 0.0
H726 H 0.8841 0.55451 0.63789 0.0
H727 H 0.88546 0.47093 0.69964 0.0
H728 H 0.9383 0.48767 0.86378 0.0
H729 H 0.9015 0.48649 0.81083 0.0
H730 H 0.92433 0.54625 0.62914 0.0
H731 H 0.9605 0.54834 0.68563 0.0
C732 C 0.85883 0.53117 0.59211 0.0
C733 C 0.84985 0.50587 0.58602 0.0
C734 C 0.87756 0.53479 0.63592 0.0
C735 C 0.88799 0.5132 0.67481 0.0
C736 C 0.87812 0.48828 0.6719 0.0
C737 C 0.85934 0.48477 0.62908 0.0
C738 C 0.93536 0.50079 0.81318 0.0
C739 C 0.95254 0.51806 0.77918 0.0
C740 C 0.9142 0.49997 0.78193 0.0
C741 C 0.90963 0.51604 0.71431 0.0
C742 C 0.9267 0.53378 0.68183 0.0
C743 C 0.94768 0.53489 0.71407 0.0
loop_
_geom_bond_atom_site_label_1
_geom_bond_atom_site_label_2
_geom_bond_distance
_geom_bond_site_symmetry_2
_ccdc_geom_bond_type
H0 C7 0.929 . S
H1 C10 0.930 . S
H2 C12 0.929 . S
H3 C4 0.969 . S
C4 H3 0.969 . S
C4 O5 1.550 . S
C4 H6 0.973 . S
O5 C4 1.550 . S
O5 C11 1.412 . S
H6 C4 0.973 . S
C7 H0 0.929 . S
C7 C8 1.400 . S
C7 C9 1.364 . S
C8 C7 1.400 . S
C8 C12 1.377 . S
C9 C7 1.364 . S
C9 C10 1.374 . S
C10 H1 0.930 . S
C10 C9 1.374 . S
C10 C11 1.383 . S
C11 O5 1.412 . S
C11 C10 1.383 . S
C11 C12 1.394 . S
C12 H2 0.929 . S
C12 C8 1.377 . S
C12 C11 1.394 . S
H13 C20 0.929 . S
H14 C23 0.930 . S
H15 C25 0.929 . S
H16 C17 0.969 1_455 S
C17 H16 0.969 1_655 S
C17 O18 1.550 . S
C17 H19 0.973 . S
O18 C17 1.550 . S
O18 C24 1.412 . S
H19 C17 0.973 . S
C20 H13 0.929 . S
C20 C21 1.400 . S
C20 C22 1.364 . S
C21 C20 1.400 . S
C21 C25 1.377 . S
C22 C20 1.364 . S
C22 C23 1.374 . S
C23 H14 0.930 . S
C23 C22 1.374 . S
C23 C24 1.383 . S
C24 O18 1.412 . S
C24 C23 1.383 . S
C24 C25 1.394 . S
C25 H15 0.929 . S
C25 C21 1.377 . S
C25 C24 1.394 . S
H26 C33 0.928 1_565 S
H27 C36 0.930 . S
H28 C38 0.929 1_565 S
H29 C30 0.969 . S
C30 H29 0.969 . S
C30 O31 1.550 1_545 S
C30 H32 0.973 1_545 S
O31 C30 1.550 1_565 S
O31 C37 1.407 1_565 S
H32 C30 0.973 1_565 S
C33 H26 0.928 1_545 S
C33 C34 1.399 . S
C33 C35 1.364 . S
C34 C33 1.399 . S
C34 C38 1.378 . S
C35 C33 1.364 . S
C35 C36 1.375 1_545 S
C36 H27 0.930 . S
C36 C35 1.375 1_565 S
C36 C37 1.382 1_565 S
C37 O31 1.407 1_545 S
C37 C36 1.382 1_545 S
C37 C38 1.392 . S
C38 H28 0.929 1_545 S
C38 C34 1.378 . S
C38 C37 1.392 . S
H39 C46 0.929 . S
H40 C49 0.930 . S
H41 C51 0.929 . S
H42 C43 0.969 . S
C43 H42 0.969 . S
C43 O44 1.550 . S
C43 H45 0.973 . S
O44 C43 1.550 . S
O44 C50 1.412 . S
H45 C43 0.973 . S
C46 H39 0.929 . S
C46 C47 1.400 . S
C46 C48 1.364 . S
C47 C46 1.400 . S
C47 C51 1.377 . S
C48 C46 1.364 . S
C48 C49 1.374 . S
C49 H40 0.930 . S
C49 C48 1.374 . S
C49 C50 1.383 . S
C50 O44 1.412 . S
C50 C49 1.383 . S
C50 C51 1.394 . S
C51 H41 0.929 . S
C51 C47 1.377 . S
C51 C50 1.394 . S
H52 C59 0.929 . S
H53 C62 0.930 . S
H54 C64 0.929 . S
H55 C56 0.969 . S
C56 H55 0.969 . S
C56 O57 1.550 1_554 S
C56 H58 0.973 . S
O57 C56 1.550 1_556 S
O57 C63 1.412 . S
H58 C56 0.973 . S
C59 H52 0.929 . S
C59 C60 1.400 . S
C59 C61 1.364 1_556 S
C60 C59 1.400 . S
C60 C64 1.377 . S
C61 C59 1.364 1_554 S
C61 C62 1.374 . S
C62 H53 0.930 . S
C62 C61 1.374 . S
C62 C63 1.383 1_554 S
C63 O57 1.412 . S
C63 C62 1.383 1_556 S
C63 C64 1.394 . S
C64 H54 0.929 . S
C64 C60 1.377 . S
C64 C63 1.394 . S
H65 C72 0.929 . S
H66 C75 0.930 . S
H67 C77 0.929 1_556 S
H68 C69 0.969 . S
C69 H68 0.969 . S
C69 O70 1.550 . S
C69 H71 0.973 . S
O70 C69 1.550 . S
O70 C76 1.412 . S
H71 C69 0.973 . S
C72 H65 0.929 . S
C72 C73 1.400 . S
C72 C74 1.364 . S
C73 C72 1.400 . S
C73 C77 1.377 . S
C74 C72 1.364 . S
C74 C75 1.374 . S
C75 H66 0.930 . S
C75 C74 1.374 . S
C75 C76 1.383 . S
C76 O70 1.412 . S
C76 C75 1.383 . S
C76 C77 1.394 . S
C77 H67 0.929 1_554 S
C77 C73 1.377 . S
C77 C76 1.394 . S
H78 C85 0.929 1_565 S
H79 C88 0.927 . S
H80 C90 0.928 1_565 S
H81 C82 0.969 . S
C82 H81 0.969 . S
C82 O83 1.550 1_545 S
C82 H84 0.973 1_545 S
O83 C82 1.550 1_565 S
O83 C89 1.399 1_565 S
H84 C82 0.973 1_565 S
C85 H78 0.929 1_545 S
C85 C86 1.400 . S
C85 C87 1.364 . S
C86 C85 1.400 . S
C86 C90 1.376 . S
C87 C85 1.364 . S
C87 C88 1.374 1_545 S
C88 H79 0.927 . S
C88 C87 1.374 1_565 S
C88 C89 1.383 1_565 S
C89 O83 1.399 1_545 S
C89 C88 1.383 1_545 S
C89 C90 1.396 . S
C90 H80 0.928 1_545 S
C90 C86 1.376 . S
C90 C89 1.396 . S
H91 C98 0.929 . S
H92 C101 0.930 . S
H93 C103 0.929 . S
H94 C95 0.969 . S
C95 H94 0.969 . S
C95 O96 1.550 . S
C95 H97 0.973 . S
O96 C95 1.550 . S
O96 C102 1.412 . S
H97 C95 0.973 . S
C98 H91 0.929 . S
C98 C99 1.400 . S
C98 C100 1.364 . S
C99 C98 1.400 . S
C99 C103 1.377 . S
C100 C98 1.364 . S
C100 C101 1.374 . S
C101 H92 0.930 . S
C101 C100 1.374 . S
C101 C102 1.383 . S
C102 O96 1.412 . S
C102 C101 1.383 . S
C102 C103 1.394 . S
C103 H93 0.929 . S
C103 C99 1.377 . S
C103 C102 1.394 . S
Dy104 O107 2.307 1_545 S
Dy104 O109 2.395 1_655 S
Dy104 O110 2.379 . S
Dy104 O112 2.339 . S
Dy104 O114 2.298 . S
Dy104 O118 2.275 1_655 S
Dy104 C126 2.738 . S
Dy105 O108 2.298 . S
Dy105 O111 2.275 1_455 S
Dy105 O113 2.307 1_565 S
Dy105 O115 2.395 1_455 S
Dy105 O116 2.379 . S
Dy105 O119 2.339 . S
Dy105 C135 2.738 . S
C106 O118 1.254 1_565 S
C106 O119 1.257 . S
O107 Dy104 2.307 1_565 S
O107 C117 1.266 . S
O108 Dy105 2.298 . S
O108 C117 1.236 1_455 S
O109 Dy104 2.395 1_455 S
O109 C126 1.255 1_455 S
O110 Dy104 2.379 . S
O110 C126 1.249 . S
O111 Dy105 2.275 1_655 S
O111 C127 1.254 1_565 S
O112 Dy104 2.339 . S
O112 C127 1.257 . S
O113 Dy105 2.307 1_545 S
O113 C128 1.266 . S
O114 Dy104 2.298 . S
O114 C128 1.236 1_655 S
O115 Dy105 2.395 1_655 S
O115 C135 1.255 1_655 S
O116 Dy105 2.379 . S
O116 C135 1.249 . S
C117 O107 1.266 . S
C117 O108 1.236 1_655 S
O118 Dy104 2.275 1_455 S
O118 C106 1.254 1_545 S
O119 Dy105 2.339 . S
O119 C106 1.257 . S
C120 C123 1.344 1_655 S
C120 C124 1.328 . S
C120 C126 1.516 . S
C121 C122 1.304 1_655 S
C121 C125 1.323 . S
C122 C121 1.304 1_455 S
C122 C123 1.371 . S
C122 H136 0.930 . S
C123 C120 1.344 1_455 S
C123 C122 1.371 . S
C123 H137 0.931 . S
C124 C120 1.328 . S
C124 C125 1.433 . S
C124 H138 0.931 . S
C125 C121 1.323 . S
C125 C124 1.433 . S
C125 H139 0.933 . S
C126 Dy104 2.738 . S
C126 O109 1.255 1_655 S
C126 O110 1.249 . S
C126 C120 1.516 . S
C127 O111 1.254 1_545 S
C127 O112 1.257 . S
C128 O113 1.266 . S
C128 O114 1.236 1_455 S
C129 C132 1.344 1_455 S
C129 C133 1.328 . S
C129 C135 1.516 1_554 S
C130 C131 1.304 1_455 S
C130 C134 1.323 . S
C131 C130 1.304 1_655 S
C131 C132 1.371 . S
C131 H140 0.930 . S
C132 C129 1.344 1_655 S
C132 C131 1.371 . S
C132 H141 0.931 . S
C133 C129 1.328 . S
C133 C134 1.433 . S
C133 H142 0.931 . S
C134 C130 1.323 . S
C134 C133 1.433 . S
C134 H143 0.933 . S
C135 Dy105 2.738 . S
C135 O115 1.255 1_455 S
C135 O116 1.249 . S
C135 C129 1.516 1_556 S
H136 C122 0.930 . S
H137 C123 0.931 . S
H138 C124 0.931 . S
H139 C125 0.933 . S
H140 C131 0.930 . S
H141 C132 0.931 . S
H142 C133 0.931 . S
H143 C134 0.933 . S
Dy144 O147 2.307 . S
Dy144 O149 2.395 1_565 S
Dy144 O150 2.379 . S
Dy144 O152 2.339 . S
Dy144 O154 2.298 . S
Dy144 O158 2.275 1_565 S
Dy144 C166 2.738 . S
Dy145 O148 2.298 . S
Dy145 O151 2.275 1_545 S
Dy145 O153 2.307 . S
Dy145 O155 2.395 1_545 S
Dy145 O156 2.379 . S
Dy145 O159 2.339 . S
Dy145 C175 2.738 . S
C146 O158 1.254 . S
C146 O159 1.257 . S
O147 Dy144 2.307 . S
O147 C157 1.266 . S
O148 Dy145 2.298 . S
O148 C157 1.236 1_545 S
O149 Dy144 2.395 1_545 S
O149 C166 1.255 1_545 S
O150 Dy144 2.379 . S
O150 C166 1.249 . S
O151 Dy145 2.275 1_565 S
O151 C167 1.254 . S
O152 Dy144 2.339 . S
O152 C167 1.257 . S
O153 Dy145 2.307 . S
O153 C168 1.266 . S
O154 Dy144 2.298 . S
O154 C168 1.236 1_565 S
O155 Dy145 2.395 1_565 S
O155 C175 1.255 1_565 S
O156 Dy145 2.379 . S
O156 C175 1.249 . S
C157 O147 1.266 . S
C157 O148 1.236 1_565 S
O158 Dy144 2.275 1_545 S
O158 C146 1.254 . S
O159 Dy145 2.339 . S
O159 C146 1.257 . S
C160 C163 1.344 1_565 S
C160 C164 1.328 . S
C160 C166 1.516 . S
C161 C162 1.304 1_565 S
C161 C165 1.323 . S
C162 C161 1.304 1_545 S
C162 C163 1.371 . S
C162 H176 0.930 . S
C163 C160 1.344 1_545 S
C163 C162 1.371 . S
C163 H177 0.931 . S
C164 C160 1.328 . S
C164 C165 1.433 . S
C164 H178 0.931 . S
C165 C161 1.323 . S
C165 C164 1.433 . S
C165 H179 0.933 . S
C166 Dy144 2.738 . S
C166 O149 1.255 1_565 S
C166 O150 1.249 . S
C166 C160 1.516 . S
C167 O151 1.254 . S
C167 O152 1.257 . S
C168 O153 1.266 . S
C168 O154 1.236 1_545 S
C169 C172 1.346 1_545 S
C169 C173 1.328 1_556 S
C169 C175 1.516 . S
C170 C171 1.304 1_545 S
C170 C174 1.323 . S
C171 C170 1.304 1_565 S
C171 C172 1.363 1_554 S
C171 H180 0.930 . S
C172 C169 1.346 1_565 S
C172 C171 1.363 1_556 S
C172 H181 0.937 . S
C173 C169 1.328 1_554 S
C173 C174 1.433 . S
C173 H182 0.931 . S
C174 C170 1.323 . S
C174 C173 1.433 . S
C174 H183 0.933 . S
C175 Dy145 2.738 . S
C175 O155 1.255 1_545 S
C175 O156 1.249 . S
C175 C169 1.516 . S
H176 C162 0.930 . S
H177 C163 0.931 . S
H178 C164 0.931 . S
H179 C165 0.933 . S
H180 C171 0.930 . S
H181 C172 0.937 . S
H182 C173 0.931 . S
H183 C174 0.933 . S
Dy184 O187 2.307 . S
Dy184 O189 2.395 . S
Dy184 O190 2.379 . S
Dy184 O192 2.339 . S
Dy184 O194 2.298 . S
Dy184 O198 2.275 . S
Dy184 C206 2.738 . S
Dy185 O188 2.298 . S
Dy185 O191 2.275 . S
Dy185 O193 2.307 . S
Dy185 O195 2.395 . S
Dy185 O196 2.379 . S
Dy185 O199 2.339 . S
Dy185 C215 2.738 . S
C186 O198 1.254 . S
C186 O199 1.257 . S
O187 Dy184 2.307 . S
O187 C197 1.266 . S
O188 Dy185 2.298 . S
O188 C197 1.236 . S
O189 Dy184 2.395 . S
O189 C206 1.255 . S
O190 Dy184 2.379 . S
O190 C206 1.249 . S
O191 Dy185 2.275 . S
O191 C207 1.254 . S
O192 Dy184 2.339 . S
O192 C207 1.257 . S
O193 Dy185 2.307 . S
O193 C208 1.266 . S
O194 Dy184 2.298 . S
O194 C208 1.236 . S
O195 Dy185 2.395 . S
O195 C215 1.255 . S
O196 Dy185 2.379 . S
O196 C215 1.249 . S
C197 O187 1.266 . S
C197 O188 1.236 . S
O198 Dy184 2.275 . S
O198 C186 1.254 . S
O199 Dy185 2.339 . S
O199 C186 1.257 . S
C200 C203 1.344 1_556 S
C200 C204 1.328 . S
C200 C206 1.516 . S
C201 C202 1.304 . S
C201 C205 1.323 1_554 S
C202 C201 1.304 . S
C202 C203 1.371 . S
C202 H216 0.930 . S
C203 C200 1.344 1_554 S
C203 C202 1.371 . S
C203 H217 0.931 . S
C204 C200 1.328 . S
C204 C205 1.433 . S
C204 H218 0.931 . S
C205 C201 1.323 1_556 S
C205 C204 1.433 . S
C205 H219 0.933 . S
C206 Dy184 2.738 . S
C206 O189 1.255 . S
C206 O190 1.249 . S
C206 C200 1.516 . S
C207 O191 1.254 . S
C207 O192 1.257 . S
C208 O193 1.266 . S
C208 O194 1.236 . S
C209 C212 1.344 . S
C209 C213 1.328 . S
C209 C215 1.516 . S
C210 C211 1.304 . S
C210 C214 1.323 . S
C211 C210 1.304 . S
C211 C212 1.371 . S
C211 H220 0.930 . S
C212 C209 1.344 . S
C212 C211 1.371 . S
C212 H221 0.931 . S
C213 C209 1.328 . S
C213 C214 1.433 . S
C213 H222 0.931 . S
C214 C210 1.323 . S
C214 C213 1.433 . S
C214 H223 0.933 . S
C215 Dy185 2.738 . S
C215 O195 1.255 . S
C215 O196 1.249 . S
C215 C209 1.516 . S
H216 C202 0.930 . S
H217 C203 0.931 . S
H218 C204 0.931 . S
H219 C205 0.933 . S
H220 C211 0.930 . S
H221 C212 0.931 . S
H222 C213 0.931 . S
H223 C214 0.933 . S
Dy224 O227 2.307 1_455 S
Dy224 O229 2.395 . S
Dy224 O230 2.379 . S
Dy224 O232 2.339 . S
Dy224 O234 2.298 . S
Dy224 O238 2.275 . S
Dy224 C246 2.738 . S
Dy225 O228 2.298 . S
Dy225 O231 2.275 . S
Dy225 O233 2.307 1_655 S
Dy225 O235 2.395 . S
Dy225 O236 2.379 . S
Dy225 O239 2.339 . S
Dy225 C255 2.738 . S
C226 O238 1.254 . S
C226 O239 1.257 1_455 S
O227 Dy224 2.307 1_655 S
O227 C237 1.266 . S
O228 Dy225 2.298 . S
O228 C237 1.236 . S
O229 Dy224 2.395 . S
O229 C246 1.255 . S
O230 Dy224 2.379 . S
O230 C246 1.249 . S
O231 Dy225 2.275 . S
O231 C247 1.254 1_655 S
O232 Dy224 2.339 . S
O232 C247 1.257 . S
O233 Dy225 2.307 1_455 S
O233 C248 1.266 . S
O234 Dy224 2.298 . S
O234 C248 1.236 . S
O235 Dy225 2.395 . S
O235 C255 1.255 . S
O236 Dy225 2.379 . S
O236 C255 1.249 . S
C237 O227 1.266 . S
C237 O228 1.236 . S
O238 Dy224 2.275 . S
O238 C226 1.254 . S
O239 Dy225 2.339 . S
O239 C226 1.257 1_655 S
C240 C243 1.344 . S
C240 C244 1.328 . S
C240 C246 1.516 . S
C241 C242 1.304 . S
C241 C245 1.323 . S
C242 C241 1.304 . S
C242 C243 1.371 . S
C242 H256 0.930 . S
C243 C240 1.344 . S
C243 C242 1.371 . S
C243 H257 0.931 . S
C244 C240 1.328 . S
C244 C245 1.433 . S
C244 H258 0.931 . S
C245 C241 1.323 . S
C245 C244 1.433 . S
C245 H259 0.933 . S
C246 Dy224 2.738 . S
C246 O229 1.255 . S
C246 O230 1.249 . S
C246 C240 1.516 . S
C247 O231 1.254 1_455 S
C247 O232 1.257 . S
C248 O233 1.266 . S
C248 O234 1.236 . S
C249 C252 1.344 . S
C249 C253 1.328 . S
C249 C255 1.516 1_554 S
C250 C251 1.304 . S
C250 C254 1.323 . S
C251 C250 1.304 . S
C251 C252 1.371 . S
C251 H260 0.930 . S
C252 C249 1.344 . S
C252 C251 1.371 . S
C252 H261 0.931 . S
C253 C249 1.328 . S
C253 C254 1.433 . S
C253 H262 0.931 . S
C254 C250 1.323 . S
C254 C253 1.433 . S
C254 H263 0.933 . S
C255 Dy225 2.738 . S
C255 O235 1.255 . S
C255 O236 1.249 . S
C255 C249 1.516 1_556 S
H256 C242 0.930 . S
H257 C243 0.931 . S
H258 C244 0.931 . S
H259 C245 0.933 . S
H260 C251 0.930 . S
H261 C252 0.931 . S
H262 C253 0.931 . S
H263 C254 0.933 . S
H264 C272 0.950 . S
H265 C277 0.950 . S
H266 C274 0.950 . S
H267 C276 0.950 . S
H268 C278 0.950 . S
H269 C280 0.950 . S
H270 C282 0.950 . S
H271 C283 0.950 . S
C272 H264 0.950 . S
C272 C273 1.392 . S
C272 C274 1.391 . S
C273 C272 1.392 . S
C273 C277 1.390 1_565 S
C274 H266 0.950 . S
C274 C272 1.391 . S
C274 C275 1.401 1_565 S
C275 C274 1.401 1_545 S
C275 C276 1.398 . S
C275 C281 1.491 . S
C276 H267 0.950 . S
C276 C275 1.398 . S
C276 C277 1.391 . S
C277 H265 0.950 . S
C277 C273 1.390 1_545 S
C277 C276 1.391 . S
C278 H268 0.950 . S
C278 C279 1.386 . S
C278 C280 1.391 . S
C279 C278 1.386 . S
C279 C283 1.393 1_545 S
C280 H269 0.950 . S
C280 C278 1.391 . S
C280 C281 1.400 . S
C281 C275 1.491 . S
C281 C280 1.400 . S
C281 C282 1.398 1_545 S
C282 H270 0.950 . S
C282 C281 1.398 1_565 S
C282 C283 1.391 . S
C283 H271 0.950 . S
C283 C279 1.393 1_565 S
C283 C282 1.391 . S
H284 C292 0.950 . S
H285 C297 0.950 . S
H286 C294 0.950 . S
H287 C296 0.950 . S
H288 C298 0.950 . S
H289 C300 0.950 . S
H290 C302 0.950 . S
H291 C303 0.950 . S
C292 H284 0.950 . S
C292 C293 1.386 . S
C292 C294 1.391 . S
C293 C292 1.386 . S
C293 C297 1.393 . S
C294 H286 0.950 . S
C294 C292 1.391 . S
C294 C295 1.400 . S
C295 C294 1.400 . S
C295 C296 1.398 . S
C295 C301 1.491 . S
C296 H287 0.950 . S
C296 C295 1.398 . S
C296 C297 1.391 . S
C297 H285 0.950 . S
C297 C293 1.393 . S
C297 C296 1.391 . S
C298 H288 0.950 . S
C298 C299 1.386 . S
C298 C300 1.391 . S
C299 C298 1.386 . S
C299 C303 1.393 . S
C300 H289 0.950 . S
C300 C298 1.391 . S
C300 C301 1.400 . S
C301 C295 1.491 . S
C301 C300 1.400 . S
C301 C302 1.398 . S
C302 H290 0.950 . S
C302 C301 1.398 . S
C302 C303 1.391 . S
C303 H291 0.950 . S
C303 C299 1.393 . S
C303 C302 1.391 . S
H304 C312 0.950 . S
H305 C317 0.950 . S
H306 C314 0.950 . S
H307 C316 0.950 . S
H308 C318 0.950 . S
H309 C320 0.950 . S
H310 C322 0.950 . S
H311 C323 0.950 . S
C312 H304 0.950 . S
C312 C313 1.386 . S
C312 C314 1.391 . S
C313 C312 1.386 . S
C313 C317 1.393 . S
C314 H306 0.950 . S
C314 C312 1.391 . S
C314 C315 1.400 . S
C315 C314 1.400 . S
C315 C316 1.398 . S
C315 C321 1.491 . S
C316 H307 0.950 . S
C316 C315 1.398 . S
C316 C317 1.391 . S
C317 H305 0.950 . S
C317 C313 1.393 . S
C317 C316 1.391 . S
C318 H308 0.950 . S
C318 C319 1.386 . S
C318 C320 1.391 . S
C319 C318 1.386 . S
C319 C323 1.393 . S
C320 H309 0.950 . S
C320 C318 1.391 . S
C320 C321 1.400 . S
C321 C315 1.491 . S
C321 C320 1.400 . S
C321 C322 1.398 . S
C322 H310 0.950 . S
C322 C321 1.398 . S
C322 C323 1.391 . S
C323 H311 0.950 . S
C323 C319 1.393 . S
C323 C322 1.391 . S
H324 C332 0.950 . S
H325 C337 0.950 . S
H326 C334 0.950 . S
H327 C336 0.950 . S
H328 C338 0.950 . S
H329 C340 0.950 . S
H330 C342 0.950 . S
H331 C343 0.950 . S
C332 H324 0.950 . S
C332 C333 1.386 . S
C332 C334 1.391 . S
C333 C332 1.386 . S
C333 C337 1.393 1_455 S
C334 H326 0.950 . S
C334 C332 1.391 . S
C334 C335 1.400 . S
C335 C334 1.400 . S
C335 C336 1.398 1_455 S
C335 C341 1.491 . S
C336 H327 0.950 . S
C336 C335 1.398 1_655 S
C336 C337 1.391 . S
C337 H325 0.950 . S
C337 C333 1.393 1_655 S
C337 C336 1.391 . S
C338 H328 0.950 . S
C338 C339 1.386 1_655 S
C338 C340 1.391 . S
C339 C338 1.386 1_455 S
C339 C343 1.393 . S
C340 H329 0.950 . S
C340 C338 1.391 . S
C340 C341 1.400 1_655 S
C341 C335 1.491 . S
C341 C340 1.400 1_455 S
C341 C342 1.398 . S
C342 H330 0.950 . S
C342 C341 1.398 . S
C342 C343 1.391 . S
C343 H331 0.950 . S
C343 C339 1.393 . S
C343 C342 1.391 . S
H344 C352 0.950 . S
H345 C357 0.950 . S
H346 C354 0.950 . S
H347 C356 0.950 . S
H348 C358 0.950 . S
H349 C360 0.950 . S
H350 C362 0.950 . S
H351 C363 0.950 . S
C352 H344 0.950 . S
C352 C353 1.401 . S
C352 C354 1.391 . S
C353 C352 1.401 . S
C353 C357 1.376 1_565 S
C354 H346 0.950 . S
C354 C352 1.391 . S
C354 C355 1.418 . S
C355 C354 1.418 . S
C355 C356 1.384 1_565 S
C355 C361 1.488 . S
C356 H347 0.950 . S
C356 C355 1.384 1_545 S
C356 C357 1.391 . S
C357 H345 0.950 . S
C357 C353 1.376 1_545 S
C357 C356 1.391 . S
C358 H348 0.950 . S
C358 C359 1.384 1_545 S
C358 C360 1.391 . S
C359 C358 1.384 1_565 S
C359 C363 1.395 1_556 S
C360 H349 0.950 . S
C360 C358 1.391 . S
C360 C361 1.399 1_546 S
C361 C355 1.488 . S
C361 C360 1.399 1_564 S
C361 C362 1.400 . S
C362 H350 0.950 . S
C362 C361 1.400 . S
C362 C363 1.391 . S
C363 H351 0.950 . S
C363 C359 1.395 1_554 S
C363 C362 1.391 . S
H364 C372 0.950 . S
H365 C377 0.950 . S
H366 C374 0.950 . S
H367 C376 0.950 . S
H368 C378 0.950 . S
H369 C380 0.950 . S
H370 C382 0.950 1_554 S
H371 C383 0.950 . S
C372 H364 0.950 . S
C372 C373 1.386 . S
C372 C374 1.391 . S
C373 C372 1.386 . S
C373 C377 1.393 . S
C374 H366 0.950 . S
C374 C372 1.391 . S
C374 C375 1.400 . S
C375 C374 1.400 . S
C375 C376 1.398 1_554 S
C375 C381 1.491 1_554 S
C376 H367 0.950 . S
C376 C375 1.398 1_556 S
C376 C377 1.391 1_556 S
C377 H365 0.950 . S
C377 C373 1.393 . S
C377 C376 1.391 1_554 S
C378 H368 0.950 . S
C378 C379 1.386 . S
C378 C380 1.391 . S
C379 C378 1.386 . S
C379 C383 1.393 . S
C380 H369 0.950 . S
C380 C378 1.391 . S
C380 C381 1.400 . S
C381 C375 1.491 1_556 S
C381 C380 1.400 . S
C381 C382 1.398 . S
C382 H370 0.950 1_556 S
C382 C381 1.398 . S
C382 C383 1.391 . S
C383 H371 0.950 . S
C383 C379 1.393 . S
C383 C382 1.391 . S
H384 C392 0.950 . S
H385 C397 0.950 . S
H386 C394 0.950 . S
H387 C396 0.950 . S
H388 C398 0.950 . S
H389 C400 0.950 . S
H390 C402 0.950 . S
H391 C403 0.950 . S
C392 H384 0.950 . S
C392 C393 1.386 . S
C392 C394 1.391 . S
C393 C392 1.386 . S
C393 C397 1.393 . S
C394 H386 0.950 . S
C394 C392 1.391 . S
C394 C395 1.400 . S
C395 C394 1.400 . S
C395 C396 1.398 . S
C395 C401 1.491 . S
C396 H387 0.950 . S
C396 C395 1.398 . S
C396 C397 1.391 . S
C397 H385 0.950 . S
C397 C393 1.393 . S
C397 C396 1.391 . S
C398 H388 0.950 . S
C398 C399 1.386 . S
C398 C400 1.391 . S
C399 C398 1.386 . S
C399 C403 1.393 . S
C400 H389 0.950 . S
C400 C398 1.391 . S
C400 C401 1.400 . S
C401 C395 1.491 . S
C401 C400 1.400 . S
C401 C402 1.398 . S
C402 H390 0.950 . S
C402 C401 1.398 . S
C402 C403 1.391 . S
C403 H391 0.950 . S
C403 C399 1.393 . S
C403 C402 1.391 . S
H404 C412 0.950 . S
H405 C417 0.950 . S
H406 C414 0.950 . S
H407 C416 0.950 . S
H408 C418 0.950 . S
H409 C420 0.950 . S
H410 C422 0.950 . S
H411 C423 0.947 1_556 S
C412 H404 0.950 . S
C412 C413 1.386 . S
C412 C414 1.391 . S
C413 C412 1.386 . S
C413 C417 1.393 1_655 S
C414 H406 0.950 . S
C414 C412 1.391 . S
C414 C415 1.400 . S
C415 C414 1.400 . S
C415 C416 1.398 1_655 S
C415 C421 1.491 . S
C416 H407 0.950 . S
C416 C415 1.398 1_455 S
C416 C417 1.391 . S
C417 H405 0.950 . S
C417 C413 1.393 1_455 S
C417 C416 1.391 . S
C418 H408 0.950 . S
C418 C419 1.386 1_455 S
C418 C420 1.391 1_556 S
C419 C418 1.386 1_655 S
C419 C423 1.393 1_556 S
C420 H409 0.950 . S
C420 C418 1.391 1_554 S
C420 C421 1.400 1_455 S
C421 C415 1.491 . S
C421 C420 1.400 1_655 S
C421 C422 1.398 . S
C422 H410 0.950 . S
C422 C421 1.398 . S
C422 C423 1.391 . S
C423 H411 0.947 1_554 S
C423 C419 1.393 1_554 S
C423 C422 1.391 . S
H424 C432 0.950 1_655 S
H425 C437 0.950 . S
H426 C434 0.950 . S
H427 C436 0.950 . S
H428 C438 0.963 . S
H429 C440 0.980 . S
H430 C442 0.950 . S
H431 C443 0.950 . S
C432 H424 0.950 1_455 S
C432 C433 1.386 . S
C432 C434 1.391 1_455 S
C433 C432 1.386 . S
C433 C437 1.393 . S
C434 H426 0.950 . S
C434 C432 1.391 1_655 S
C434 C435 1.400 1_655 S
C435 C434 1.400 1_455 S
C435 C436 1.398 . S
C435 C441 1.491 1_455 S
C436 H427 0.950 . S
C436 C435 1.398 . S
C436 C437 1.391 . S
C437 H425 0.950 . S
C437 C433 1.393 . S
C437 C436 1.391 . S
C438 H428 0.963 . S
C438 C439 1.386 . S
C438 C440 1.383 1_655 S
C439 C438 1.386 . S
C439 C443 1.393 . S
C440 H429 0.980 . S
C440 C438 1.383 1_455 S
C440 C441 1.382 1_455 S
C441 C435 1.491 1_655 S
C441 C440 1.382 1_655 S
C441 C442 1.398 . S
C442 H430 0.950 . S
C442 C441 1.398 . S
C442 C443 1.391 . S
C443 H431 0.950 . S
C443 C439 1.393 . S
C443 C442 1.391 . S
H444 C452 0.950 . S
H445 C457 0.950 . S
H446 C454 0.950 . S
H447 C456 0.950 . S
H448 C458 0.950 . S
H449 C460 0.950 . S
H450 C462 0.950 . S
H451 C463 0.950 . S
C452 H444 0.950 . S
C452 C453 1.395 . S
C452 C454 1.391 . S
C453 C452 1.395 . S
C453 C457 1.388 1_565 S
C454 H446 0.950 . S
C454 C452 1.391 . S
C454 C455 1.400 . S
C455 C454 1.400 . S
C455 C456 1.398 . S
C455 C461 1.491 . S
C456 H447 0.950 . S
C456 C455 1.398 . S
C456 C457 1.391 1_565 S
C457 H445 0.950 . S
C457 C453 1.388 1_545 S
C457 C456 1.391 1_545 S
C458 H448 0.950 . S
C458 C459 1.386 . S
C458 C460 1.391 . S
C459 C458 1.386 . S
C459 C463 1.393 . S
C460 H449 0.950 . S
C460 C458 1.391 . S
C460 C461 1.400 . S
C461 C455 1.491 . S
C461 C460 1.400 . S
C461 C462 1.398 . S
C462 H450 0.950 . S
C462 C461 1.398 . S
C462 C463 1.391 . S
C463 H451 0.950 . S
C463 C459 1.393 . S
C463 C462 1.391 . S
H464 C472 0.950 . S
H465 C477 0.950 . S
H466 C474 0.950 . S
H467 C476 0.950 . S
H468 C478 0.950 . S
H469 C480 0.950 . S
H470 C482 0.950 . S
H471 C483 0.950 . S
C472 H464 0.950 . S
C472 C473 1.386 . S
C472 C474 1.391 . S
C473 C472 1.386 . S
C473 C477 1.393 . S
C474 H466 0.950 . S
C474 C472 1.391 . S
C474 C475 1.400 . S
C475 C474 1.400 . S
C475 C476 1.398 . S
C475 C481 1.491 . S
C476 H467 0.950 . S
C476 C475 1.398 . S
C476 C477 1.391 . S
C477 H465 0.950 . S
C477 C473 1.393 . S
C477 C476 1.391 . S
C478 H468 0.950 . S
C478 C479 1.386 . S
C478 C480 1.391 . S
C479 C478 1.386 . S
C479 C483 1.393 . S
C480 H469 0.950 . S
C480 C478 1.391 . S
C480 C481 1.400 . S
C481 C475 1.491 . S
C481 C480 1.400 . S
C481 C482 1.398 . S
C482 H470 0.950 . S
C482 C481 1.398 . S
C482 C483 1.391 . S
C483 H471 0.950 . S
C483 C479 1.393 . S
C483 C482 1.391 . S
H484 C492 0.950 . S
H485 C497 0.950 . S
H486 C494 0.950 . S
H487 C496 0.950 . S
H488 C498 0.950 . S
H489 C500 0.950 . S
H490 C502 0.950 . S
H491 C503 0.950 . S
C492 H484 0.950 . S
C492 C493 1.386 . S
C492 C494 1.391 . S
C493 C492 1.386 . S
C493 C497 1.393 . S
C494 H486 0.950 . S
C494 C492 1.391 . S
C494 C495 1.400 . S
C495 C494 1.400 . S
C495 C496 1.398 . S
C495 C501 1.491 . S
C496 H487 0.950 . S
C496 C495 1.398 . S
C496 C497 1.391 . S
C497 H485 0.950 . S
C497 C493 1.393 . S
C497 C496 1.391 . S
C498 H488 0.950 . S
C498 C499 1.386 . S
C498 C500 1.391 . S
C499 C498 1.386 . S
C499 C503 1.393 . S
C500 H489 0.950 . S
C500 C498 1.391 . S
C500 C501 1.400 . S
C501 C495 1.491 . S
C501 C500 1.400 . S
C501 C502 1.398 . S
C502 H490 0.950 . S
C502 C501 1.398 . S
C502 C503 1.391 . S
C503 H491 0.950 . S
C503 C499 1.393 . S
C503 C502 1.391 . S
H504 C512 0.950 . S
H505 C517 0.950 . S
H506 C514 0.950 . S
H507 C516 0.950 . S
H508 C518 0.950 . S
H509 C520 0.950 . S
H510 C522 0.950 . S
H511 C523 0.950 . S
C512 H504 0.950 . S
C512 C513 1.386 . S
C512 C514 1.391 . S
C513 C512 1.386 . S
C513 C517 1.393 1_655 S
C514 H506 0.950 . S
C514 C512 1.391 . S
C514 C515 1.400 1_655 S
C515 C514 1.400 1_455 S
C515 C516 1.398 . S
C515 C521 1.491 . S
C516 H507 0.950 . S
C516 C515 1.398 . S
C516 C517 1.391 . S
C517 H505 0.950 . S
C517 C513 1.393 1_455 S
C517 C516 1.391 . S
C518 H508 0.950 . S
C518 C519 1.386 . S
C518 C520 1.391 . S
C519 C518 1.386 . S
C519 C523 1.393 1_455 S
C520 H509 0.950 . S
C520 C518 1.391 . S
C520 C521 1.400 . S
C521 C515 1.491 . S
C521 C520 1.400 . S
C521 C522 1.398 1_455 S
C522 H510 0.950 . S
C522 C521 1.398 1_655 S
C522 C523 1.391 . S
C523 H511 0.950 . S
C523 C519 1.393 1_655 S
C523 C522 1.391 . S
H524 C532 0.950 . S
H525 C537 0.950 . S
H526 C534 0.950 . S
H527 C536 0.950 . S
H528 C538 0.950 . S
H529 C540 0.950 . S
H530 C542 0.950 . S
H531 C543 0.954 . S
C532 H524 0.950 . S
C532 C533 1.370 1_565 S
C532 C534 1.391 . S
C533 C532 1.370 1_545 S
C533 C537 1.411 . S
C534 H526 0.950 . S
C534 C532 1.391 . S
C534 C535 1.400 1_565 S
C535 C534 1.400 1_545 S
C535 C536 1.398 . S
C535 C541 1.491 . S
C536 H527 0.950 . S
C536 C535 1.398 . S
C536 C537 1.391 . S
C537 H525 0.950 . S
C537 C533 1.411 . S
C537 C536 1.391 . S
C538 H528 0.950 . S
C538 C539 1.386 . S
C538 C540 1.391 . S
C539 C538 1.386 . S
C539 C543 1.387 1_545 S
C540 H529 0.950 . S
C540 C538 1.391 . S
C540 C541 1.400 . S
C541 C535 1.491 . S
C541 C540 1.400 . S
C541 C542 1.398 1_545 S
C542 H530 0.950 . S
C542 C541 1.398 1_565 S
C542 C543 1.391 . S
C543 H531 0.954 . S
C543 C539 1.387 1_565 S
C543 C542 1.391 . S
H544 C552 0.950 . S
H545 C557 0.950 . S
H546 C554 0.950 . S
H547 C556 0.950 . S
H548 C558 0.950 . S
H549 C560 0.950 1_554 S
H550 C562 0.950 . S
H551 C563 0.950 . S
C552 H544 0.950 . S
C552 C553 1.386 . S
C552 C554 1.391 . S
C553 C552 1.386 . S
C553 C557 1.393 . S
C554 H546 0.950 . S
C554 C552 1.391 . S
C554 C555 1.400 . S
C555 C554 1.400 . S
C555 C556 1.398 . S
C555 C561 1.491 1_554 S
C556 H547 0.950 . S
C556 C555 1.398 . S
C556 C557 1.391 . S
C557 H545 0.950 . S
C557 C553 1.393 . S
C557 C556 1.391 . S
C558 H548 0.950 . S
C558 C559 1.386 . S
C558 C560 1.391 . S
C559 C558 1.386 . S
C559 C563 1.393 . S
C560 H549 0.950 1_556 S
C560 C558 1.391 . S
C560 C561 1.400 . S
C561 C555 1.491 1_556 S
C561 C560 1.400 . S
C561 C562 1.398 . S
C562 H550 0.950 . S
C562 C561 1.398 . S
C562 C563 1.391 . S
C563 H551 0.950 . S
C563 C559 1.393 . S
C563 C562 1.391 . S
H564 C572 0.950 . S
H565 C577 0.950 . S
H566 C574 0.950 . S
H567 C576 0.950 . S
H568 C578 0.950 . S
H569 C580 0.950 . S
H570 C582 0.950 . S
H571 C583 0.950 . S
C572 H564 0.950 . S
C572 C573 1.386 . S
C572 C574 1.391 . S
C573 C572 1.386 . S
C573 C577 1.393 . S
C574 H566 0.950 . S
C574 C572 1.391 . S
C574 C575 1.400 . S
C575 C574 1.400 . S
C575 C576 1.398 . S
C575 C581 1.491 . S
C576 H567 0.950 . S
C576 C575 1.398 . S
C576 C577 1.391 . S
C577 H565 0.950 . S
C577 C573 1.393 . S
C577 C576 1.391 . S
C578 H568 0.950 . S
C578 C579 1.386 . S
C578 C580 1.391 . S
C579 C578 1.386 . S
C579 C583 1.393 . S
C580 H569 0.950 . S
C580 C578 1.391 . S
C580 C581 1.400 . S
C581 C575 1.491 . S
C581 C580 1.400 . S
C581 C582 1.398 . S
C582 H570 0.950 . S
C582 C581 1.398 . S
C582 C583 1.391 . S
C583 H571 0.950 . S
C583 C579 1.393 . S
C583 C582 1.391 . S
H584 C592 0.950 . S
H585 C597 0.950 . S
H586 C594 0.950 . S
H587 C596 0.950 1_554 S
H588 C598 0.950 . S
H589 C600 0.950 . S
H590 C602 0.950 . S
H591 C603 0.950 . S
C592 H584 0.950 . S
C592 C593 1.386 1_655 S
C592 C594 1.391 . S
C593 C592 1.386 1_455 S
C593 C597 1.393 1_556 S
C594 H586 0.950 . S
C594 C592 1.391 . S
C594 C595 1.400 1_655 S
C595 C594 1.400 1_455 S
C595 C596 1.398 . S
C595 C601 1.491 . S
C596 H587 0.950 1_556 S
C596 C595 1.398 . S
C596 C597 1.391 1_556 S
C597 H585 0.950 . S
C597 C593 1.393 1_554 S
C597 C596 1.391 1_554 S
C598 H588 0.950 . S
C598 C599 1.386 . S
C598 C600 1.391 . S
C599 C598 1.386 . S
C599 C603 1.393 1_455 S
C600 H589 0.950 . S
C600 C598 1.391 . S
C600 C601 1.400 . S
C601 C595 1.491 . S
C601 C600 1.400 . S
C601 C602 1.398 1_455 S
C602 H590 0.950 . S
C602 C601 1.398 1_655 S
C602 C603 1.391 . S
C603 H591 0.950 . S
C603 C599 1.393 1_655 S
C603 C602 1.391 . S
H604 C612 0.950 . S
H605 C617 0.950 . S
H606 C614 0.950 . S
H607 C616 0.950 . S
H608 C618 0.950 . S
H609 C620 0.950 . S
H610 C622 0.950 . S
H611 C623 0.950 1_554 S
C612 H604 0.950 . S
C612 C613 1.396 . S
C612 C614 1.391 . S
C613 C612 1.396 . S
C613 C617 1.385 1_544 S
C614 H606 0.950 . S
C614 C612 1.391 . S
C614 C615 1.400 . S
C615 C614 1.400 . S
C615 C616 1.398 1_544 S
C615 C621 1.491 1_554 S
C616 H607 0.950 . S
C616 C615 1.398 1_566 S
C616 C617 1.391 . S
C617 H605 0.950 . S
C617 C613 1.385 1_566 S
C617 C616 1.391 . S
C618 H608 0.950 . S
C618 C619 1.386 1_565 S
C618 C620 1.391 . S
C619 C618 1.386 1_545 S
C619 C623 1.393 . S
C620 H609 0.950 . S
C620 C618 1.391 . S
C620 C621 1.400 1_565 S
C621 C615 1.491 1_556 S
C621 C620 1.400 1_545 S
C621 C622 1.398 1_556 S
C622 H610 0.950 . S
C622 C621 1.398 1_554 S
C622 C623 1.391 1_554 S
C623 H611 0.950 1_556 S
C623 C619 1.393 . S
C623 C622 1.391 1_556 S
H624 C632 0.950 . S
H625 C637 0.950 . S
H626 C634 0.950 . S
H627 C636 0.950 . S
H628 C638 0.950 . S
H629 C640 0.950 . S
H630 C642 0.950 . S
H631 C643 0.950 . S
C632 H624 0.950 . S
C632 C633 1.386 . S
C632 C634 1.391 . S
C633 C632 1.386 . S
C633 C637 1.393 . S
C634 H626 0.950 . S
C634 C632 1.391 . S
C634 C635 1.400 . S
C635 C634 1.400 . S
C635 C636 1.398 . S
C635 C641 1.491 . S
C636 H627 0.950 . S
C636 C635 1.398 . S
C636 C637 1.391 . S
C637 H625 0.950 . S
C637 C633 1.393 . S
C637 C636 1.391 . S
C638 H628 0.950 . S
C638 C639 1.386 . S
C638 C640 1.391 . S
C639 C638 1.386 . S
C639 C643 1.393 1_556 S
C640 H629 0.950 . S
C640 C638 1.391 . S
C640 C641 1.400 1_556 S
C641 C635 1.491 . S
C641 C640 1.400 1_554 S
C641 C642 1.398 . S
C642 H630 0.950 . S
C642 C641 1.398 . S
C642 C643 1.391 . S
C643 H631 0.950 . S
C643 C639 1.393 1_554 S
C643 C642 1.391 . S
H644 C652 0.950 . S
H645 C657 0.950 . S
H646 C654 0.950 . S
H647 C656 0.950 . S
H648 C658 0.950 . S
H649 C660 0.950 . S
H650 C662 0.950 . S
H651 C663 0.950 . S
C652 H644 0.950 . S
C652 C653 1.386 . S
C652 C654 1.391 . S
C653 C652 1.386 . S
C653 C657 1.393 . S
C654 H646 0.950 . S
C654 C652 1.391 . S
C654 C655 1.400 . S
C655 C654 1.400 . S
C655 C656 1.398 . S
C655 C661 1.491 . S
C656 H647 0.950 . S
C656 C655 1.398 . S
C656 C657 1.391 . S
C657 H645 0.950 . S
C657 C653 1.393 . S
C657 C656 1.391 . S
C658 H648 0.950 . S
C658 C659 1.386 . S
C658 C660 1.391 . S
C659 C658 1.386 . S
C659 C663 1.393 . S
C660 H649 0.950 . S
C660 C658 1.391 . S
C660 C661 1.400 . S
C661 C655 1.491 . S
C661 C660 1.400 . S
C661 C662 1.398 . S
C662 H650 0.950 . S
C662 C661 1.398 . S
C662 C663 1.391 . S
C663 H651 0.950 . S
C663 C659 1.393 . S
C663 C662 1.391 . S
H664 C672 0.950 . S
H665 C677 0.950 . S
H666 C674 0.950 . S
H667 C676 0.950 . S
H668 C678 0.950 . S
H669 C680 0.950 . S
H670 C682 0.950 . S
H671 C683 0.950 . S
C672 H664 0.950 . S
C672 C673 1.386 1_455 S
C672 C674 1.391 . S
C673 C672 1.386 1_655 S
C673 C677 1.393 . S
C674 H666 0.950 . S
C674 C672 1.391 . S
C674 C675 1.400 1_455 S
C675 C674 1.400 1_655 S
C675 C676 1.398 . S
C675 C681 1.491 . S
C676 H667 0.950 . S
C676 C675 1.398 . S
C676 C677 1.391 . S
C677 H665 0.950 . S
C677 C673 1.393 . S
C677 C676 1.391 . S
C678 H668 0.950 . S
C678 C679 1.386 . S
C678 C680 1.391 . S
C679 C678 1.386 . S
C679 C683 1.393 1_655 S
C680 H669 0.950 . S
C680 C678 1.391 . S
C680 C681 1.400 . S
C681 C675 1.491 . S
C681 C680 1.400 . S
C681 C682 1.398 1_655 S
C682 H670 0.950 . S
C682 C681 1.398 1_455 S
C682 C683 1.391 . S
C683 H671 0.950 . S
C683 C679 1.393 1_455 S
C683 C682 1.391 . S
H684 C692 0.950 . S
H685 C697 0.950 . S
H686 C694 0.950 . S
H687 C696 0.950 . S
H688 C698 0.950 . S
H689 C700 0.950 . S
H690 C702 0.950 . S
H691 C703 0.950 . S
C692 H684 0.950 . S
C692 C693 1.386 1_545 S
C692 C694 1.391 . S
C693 C692 1.386 1_565 S
C693 C697 1.393 . S
C694 H686 0.950 . S
C694 C692 1.391 . S
C694 C695 1.400 1_545 S
C695 C694 1.400 1_565 S
C695 C696 1.398 . S
C695 C701 1.491 . S
C696 H687 0.950 . S
C696 C695 1.398 . S
C696 C697 1.391 . S
C697 H685 0.950 . S
C697 C693 1.393 . S
C697 C696 1.391 . S
C698 H688 0.950 . S
C698 C699 1.386 . S
C698 C700 1.391 . S
C699 C698 1.386 . S
C699 C703 1.393 1_565 S
C700 H689 0.950 . S
C700 C698 1.391 . S
C700 C701 1.400 . S
C701 C695 1.491 . S
C701 C700 1.400 . S
C701 C702 1.398 1_565 S
C702 H690 0.950 . S
C702 C701 1.398 1_545 S
C702 C703 1.391 . S
C703 H691 0.950 . S
C703 C699 1.393 1_545 S
C703 C702 1.391 . S
H704 C712 0.950 . S
H705 C717 0.950 . S
H706 C714 0.950 . S
H707 C716 0.950 . S
H708 C718 0.950 . S
H709 C720 0.950 . S
H710 C722 0.950 . S
H711 C723 0.950 . S
C712 H704 0.950 . S
C712 C713 1.386 . S
C712 C714 1.391 . S
C713 C712 1.386 . S
C713 C717 1.393 . S
C714 H706 0.950 . S
C714 C712 1.391 . S
C714 C715 1.400 . S
C715 C714 1.400 . S
C715 C716 1.398 . S
C715 C721 1.491 . S
C716 H707 0.950 . S
C716 C715 1.398 . S
C716 C717 1.391 . S
C717 H705 0.950 . S
C717 C713 1.393 . S
C717 C716 1.391 . S
C718 H708 0.950 . S
C718 C719 1.386 . S
C718 C720 1.391 . S
C719 C718 1.386 . S
C719 C723 1.393 . S
C720 H709 0.950 . S
C720 C718 1.391 . S
C720 C721 1.400 . S
C721 C715 1.491 . S
C721 C720 1.400 . S
C721 C722 1.398 . S
C722 H710 0.950 . S
C722 C721 1.398 . S
C722 C723 1.391 . S
C723 H711 0.950 . S
C723 C719 1.393 . S
C723 C722 1.391 . S
H724 C732 0.950 . S
H725 C737 0.950 . S
H726 C734 0.950 . S
H727 C736 0.950 . S
H728 C738 0.950 . S
H729 C740 0.950 . S
H730 C742 0.950 . S
H731 C743 0.950 . S
C732 H724 0.950 . S
C732 C733 1.386 . S
C732 C734 1.391 . S
C733 C732 1.386 . S
C733 C737 1.393 . S
C734 H726 0.950 . S
C734 C732 1.391 . S
C734 C735 1.400 . S
C735 C734 1.400 . S
C735 C736 1.398 . S
C735 C741 1.491 . S
C736 H727 0.950 . S
C736 C735 1.398 . S
C736 C737 1.391 . S
C737 H725 0.950 . S
C737 C733 1.393 . S
C737 C736 1.391 . S
C738 H728 0.950 . S
C738 C739 1.386 . S
C738 C740 1.391 . S
C739 C738 1.386 . S
C739 C743 1.393 . S
C740 H729 0.950 . S
C740 C738 1.391 . S
C740 C741 1.400 . S
C741 C735 1.491 . S
C741 C740 1.400 . S
C741 C742 1.398 . S
C742 H730 0.950 . S
C742 C741 1.398 . S
C742 C743 1.391 . S
C743 H731 0.950 . S
C743 C739 1.393 . S
C743 C742 1.391 . S
C273 C82 1.845 1_565 S
C279 C106 2.037 1_545 S
C299 C146 2.048 . S
C293 C95 1.922 . S
C319 C210 1.891 . S
C313 C56 1.651 . S
C339 C226 1.630 . S
C333 C69 1.364 . S
C359 C127 2.029 1_565 S
C353 C30 1.843 1_565 S
C373 C43 1.907 . S
C379 C167 2.045 . S
C393 C4 1.611 . S
C399 C201 1.892 . S
C413 C17 1.309 . S
C419 C247 1.623 1_655 S
C439 C121 0.465 . S
C433 C74 0.435 . S
C459 C161 0.703 . S
C453 C87 0.710 1_565 S
C479 C197 0.725 . S
C473 C100 0.723 . S
C493 C61 0.560 . S
C499 C241 0.600 . S
C513 C22 0.401 . S
C519 C130 0.422 . S
C539 C170 0.706 . S
C533 C35 0.700 . S
C559 C208 0.688 . S
C553 C48 0.687 . S
C573 C9 0.581 . S
C579 C250 0.593 . S
C593 C73 1.825 1_556 S
C599 C128 2.005 . S
C613 C86 1.862 . S
C619 C168 2.027 . S
C639 C186 1.609 . S
C633 C99 1.599 . S
C659 C248 2.400 . S
C653 C60 2.162 . S
C673 C21 1.798 . S
C679 C117 2.013 . S
C699 C157 2.018 . S
C693 C34 1.854 1_565 S
C719 C207 1.615 . S
C713 C47 1.594 . S
C733 C8 2.177 . S
C739 C237 2.409 . S
