# Generated by pormake.
# Topology ctn, (3,4)-cn, num edge types: 1
# Building blocks:
#     Node 0, Type 0, BuildingBlock: MIDCAF_clean_linker_0, # of connection points: 3
#     Node 1, Type 0, BuildingBlock: MIDCAF_clean_linker_0, # of connection points: 3
#     Node 2, Type 0, BuildingBlock: MIDCAF_clean_linker_0, # of connection points: 3
#     Node 3, Type 0, BuildingBlock: MIDCAF_clean_linker_0, # of connection points: 3
#     Node 4, Type 0, BuildingBlock: MIDCAF_clean_linker_0, # of connection points: 3
#     Node 5, Type 0, BuildingBlock: MIDCAF_clean_linker_0, # of connection points: 3
#     Node 6, Type 0, BuildingBlock: MIDCAF_clean_linker_0, # of connection points: 3
#     Node 7, Type 0, BuildingBlock: MIDCAF_clean_linker_0, # of connection points: 3
#     Node 8, Type 0, BuildingBlock: MIDCAF_clean_linker_0, # of connection points: 3
#     Node 9, Type 0, BuildingBlock: MIDCAF_clean_linker_0, # of connection points: 3
#     Node 10, Type 0, BuildingBlock: MIDCAF_clean_linker_0, # of connection points: 3
#     Node 11, Type 0, BuildingBlock: MIDCAF_clean_linker_0, # of connection points: 3
#     Node 12, Type 0, BuildingBlock: MIDCAF_clean_linker_0, # of connection points: 3
#     Node 13, Type 0, BuildingBlock: MIDCAF_clean_linker_0, # of connection points: 3
#     Node 14, Type 0, BuildingBlock: MIDCAF_clean_linker_0, # of connection points: 3
#     Node 15, Type 0, BuildingBlock: MIDCAF_clean_linker_0, # of connection points: 3
#     Node 16, Type 1, BuildingBlock: KUFVIS_clean_sbu_0, # of connection points: 4
#     Node 17, Type 1, BuildingBlock: KUFVIS_clean_sbu_0, # of connection points: 4
#     Node 18, Type 1, BuildingBlock: KUFVIS_clean_sbu_0, # of connection points: 4
#     Node 19, Type 1, BuildingBlock: KUFVIS_clean_sbu_0, # of connection points: 4
#     Node 20, Type 1, BuildingBlock: KUFVIS_clean_sbu_0, # of connection points: 4
#     Node 21, Type 1, BuildingBlock: KUFVIS_clean_sbu_0, # of connection points: 4
#     Node 22, Type 1, BuildingBlock: KUFVIS_clean_sbu_0, # of connection points: 4
#     Node 23, Type 1, BuildingBlock: KUFVIS_clean_sbu_0, # of connection points: 4
#     Node 24, Type 1, BuildingBlock: KUFVIS_clean_sbu_0, # of connection points: 4
#     Node 25, Type 1, BuildingBlock: KUFVIS_clean_sbu_0, # of connection points: 4
#     Node 26, Type 1, BuildingBlock: KUFVIS_clean_sbu_0, # of connection points: 4
#     Node 27, Type 1, BuildingBlock: KUFVIS_clean_sbu_0, # of connection points: 4
#     Edge 28, Type (0, 1), BuildingBlock: AJUNOK_clean_linker_0, # of connection points: 2
#     Edge 29, Type (0, 1), BuildingBlock: AJUNOK_clean_linker_0, # of connection points: 2
#     Edge 30, Type (0, 1), BuildingBlock: AJUNOK_clean_linker_0, # of connection points: 2
#     Edge 31, Type (0, 1), BuildingBlock: AJUNOK_clean_linker_0, # of connection points: 2
#     Edge 32, Type (0, 1), BuildingBlock: AJUNOK_clean_linker_0, # of connection points: 2
#     Edge 33, Type (0, 1), BuildingBlock: AJUNOK_clean_linker_0, # of connection points: 2
#     Edge 34, Type (0, 1), BuildingBlock: AJUNOK_clean_linker_0, # of connection points: 2
#     Edge 35, Type (0, 1), BuildingBlock: AJUNOK_clean_linker_0, # of connection points: 2
#     Edge 36, Type (0, 1), BuildingBlock: AJUNOK_clean_linker_0, # of connection points: 2
#     Edge 37, Type (0, 1), BuildingBlock: AJUNOK_clean_linker_0, # of connection points: 2
#     Edge 38, Type (0, 1), BuildingBlock: AJUNOK_clean_linker_0, # of connection points: 2
#     Edge 39, Type (0, 1), BuildingBlock: AJUNOK_clean_linker_0, # of connection points: 2
#     Edge 40, Type (0, 1), BuildingBlock: AJUNOK_clean_linker_0, # of connection points: 2
#     Edge 41, Type (0, 1), BuildingBlock: AJUNOK_clean_linker_0, # of connection points: 2
#     Edge 42, Type (0, 1), BuildingBlock: AJUNOK_clean_linker_0, # of connection points: 2
#     Edge 43, Type (0, 1), BuildingBlock: AJUNOK_clean_linker_0, # of connection points: 2
#     Edge 44, Type (0, 1), BuildingBlock: AJUNOK_clean_linker_0, # of connection points: 2
#     Edge 45, Type (0, 1), BuildingBlock: AJUNOK_clean_linker_0, # of connection points: 2
#     Edge 46, Type (0, 1), BuildingBlock: AJUNOK_clean_linker_0, # of connection points: 2
#     Edge 47, Type (0, 1), BuildingBlock: AJUNOK_clean_linker_0, # of connection points: 2
#     Edge 48, Type (0, 1), BuildingBlock: AJUNOK_clean_linker_0, # of connection points: 2
#     Edge 49, Type (0, 1), BuildingBlock: AJUNOK_clean_linker_0, # of connection points: 2
#     Edge 50, Type (0, 1), BuildingBlock: AJUNOK_clean_linker_0, # of connection points: 2
#     Edge 51, Type (0, 1), BuildingBlock: AJUNOK_clean_linker_0, # of connection points: 2
#     Edge 52, Type (0, 1), BuildingBlock: AJUNOK_clean_linker_0, # of connection points: 2
#     Edge 53, Type (0, 1), BuildingBlock: AJUNOK_clean_linker_0, # of connection points: 2
#     Edge 54, Type (0, 1), BuildingBlock: AJUNOK_clean_linker_0, # of connection points: 2
#     Edge 55, Type (0, 1), BuildingBlock: AJUNOK_clean_linker_0, # of connection points: 2
#     Edge 56, Type (0, 1), BuildingBlock: AJUNOK_clean_linker_0, # of connection points: 2
#     Edge 57, Type (0, 1), BuildingBlock: AJUNOK_clean_linker_0, # of connection points: 2
#     Edge 58, Type (0, 1), BuildingBlock: AJUNOK_clean_linker_0, # of connection points: 2
#     Edge 59, Type (0, 1), BuildingBlock: AJUNOK_clean_linker_0, # of connection points: 2
#     Edge 60, Type (0, 1), BuildingBlock: AJUNOK_clean_linker_0, # of connection points: 2
#     Edge 61, Type (0, 1), BuildingBlock: AJUNOK_clean_linker_0, # of connection points: 2
#     Edge 62, Type (0, 1), BuildingBlock: AJUNOK_clean_linker_0, # of connection points: 2
#     Edge 63, Type (0, 1), BuildingBlock: AJUNOK_clean_linker_0, # of connection points: 2
#     Edge 64, Type (0, 1), BuildingBlock: AJUNOK_clean_linker_0, # of connection points: 2
#     Edge 65, Type (0, 1), BuildingBlock: AJUNOK_clean_linker_0, # of connection points: 2
#     Edge 66, Type (0, 1), BuildingBlock: AJUNOK_clean_linker_0, # of connection points: 2
#     Edge 67, Type (0, 1), BuildingBlock: AJUNOK_clean_linker_0, # of connection points: 2
#     Edge 68, Type (0, 1), BuildingBlock: AJUNOK_clean_linker_0, # of connection points: 2
#     Edge 69, Type (0, 1), BuildingBlock: AJUNOK_clean_linker_0, # of connection points: 2
#     Edge 70, Type (0, 1), BuildingBlock: AJUNOK_clean_linker_0, # of connection points: 2
#     Edge 71, Type (0, 1), BuildingBlock: AJUNOK_clean_linker_0, # of connection points: 2
#     Edge 72, Type (0, 1), BuildingBlock: AJUNOK_clean_linker_0, # of connection points: 2
#     Edge 73, Type (0, 1), BuildingBlock: AJUNOK_clean_linker_0, # of connection points: 2
#     Edge 74, Type (0, 1), BuildingBlock: AJUNOK_clean_linker_0, # of connection points: 2
#     Edge 75, Type (0, 1), BuildingBlock: AJUNOK_clean_linker_0, # of connection points: 2
# Relax obj value: 0.012
# Max RMSD: 0.062
# Mean RMSD: 0.029
data_MOF--net-ctn--node1-KUFVIS_clean_sbu_0--node2-MIDCAF_clean_linker_0--edge1-AJUNOK_clean_linker_0
_symmetry_space_group_name_H-M    P1
_symmetry_Int_Tables_number       1
_symmetry_cell_setting            triclinic
loop_
_symmetry_equiv_pos_as_xyz
'x, y, z'
_cell_length_a     51.605892
_cell_length_b     51.464187
_cell_length_c     51.736268
_cell_angle_alpha  91.003028
_cell_angle_beta   90.226904
_cell_angle_gamma 91.617134
loop_
_atom_site_label
_atom_site_type_symbol
_atom_site_fract_x
_atom_site_fract_y
_atom_site_fract_z
_atom_type_partial_charge
C0 C 0.99097 0.05041 0.12685 0.0
C1 C 0.9882 0.02459 0.13514 0.0
C2 C 1.00245 1.00529 0.12246 0.0
C3 C 0.01867 0.01158 0.10172 0.0
H4 H 0.08435 0.98715 0.06147 0.0
H5 H 0.12042 0.96002 0.04915 0.0
H6 H 0.14943 0.02017 0.99889 0.0
H7 H 0.11298 0.04705 0.01051 0.0
H8 H 0.07963 0.10084 1.00552 0.0
H9 H 0.0686 0.13724 0.97841 0.0
H10 H 0.98842 0.12852 1.00124 0.0
H11 H 0.99975 0.09311 0.02946 0.0
H12 H 0.00825 0.07665 0.09984 0.0
H13 H 0.98107 0.06595 0.13672 0.0
H14 H 1.00075 0.98521 0.1283 0.0
H15 H 0.02918 0.99622 0.0922 0.0
N16 N 0.05776 0.02917 0.06413 0.0
N17 N 0.06781 0.05686 0.02979 0.0
N18 N 0.03198 0.06504 0.05618 0.0
C19 C 0.07324 0.03557 0.04385 0.0
C20 C 0.04711 0.07157 0.03573 0.0
C21 C 0.03725 0.04396 0.07055 0.0
C22 C 0.09558 0.01927 0.03687 0.0
C23 C 0.09837 0.99464 0.04776 0.0
C24 C 0.11909 0.97908 0.04076 0.0
C25 C 0.13761 0.98778 0.02278 0.0
C26 C 0.13512 0.01259 0.01226 0.0
C27 C 0.11429 0.02808 0.01909 0.0
C28 C 0.04056 0.094 0.01957 0.0
C29 C 0.05966 0.10673 1.00477 0.0
C30 C 0.05327 0.12746 0.98902 0.0
C31 C 0.02749 0.13551 0.98716 0.0
C32 C 0.00847 0.12294 1.00225 0.0
C33 C 0.01496 0.10257 0.01839 0.0
C34 C 0.02072 0.03726 0.09296 0.0
C35 C 0.00674 0.0566 0.10581 0.0
C36 C 0.2701 0.62013 0.22846 0.0
C37 C 0.24511 0.62126 0.2178 0.0
C38 C 0.23925 0.64198 0.20167 0.0
C39 C 0.25787 0.6616 0.19687 0.0
H40 H 0.27056 0.73141 0.15908 0.0
H41 H 0.26274 0.7655 0.12802 0.0
H42 H 0.34374 0.78845 0.13046 0.0
H43 H 0.35178 0.75445 0.16184 0.0
H44 H 0.38552 0.73434 0.21072 0.0
H45 H 0.42155 0.74018 0.24111 0.0
H46 H 0.38608 0.68337 0.29125 0.0
H47 H 0.3504 0.67686 0.26064 0.0
H48 H 0.30761 0.63831 0.23259 0.0
H49 H 0.27535 0.60403 0.24043 0.0
H50 H 0.22009 0.64328 0.19322 0.0
H51 H 0.25262 0.67755 0.1847 0.0
N52 N 0.29847 0.70042 0.186 0.0
N53 N 0.33809 0.72112 0.19745 0.0
N54 N 0.32399 0.68367 0.21902 0.0
C55 C 0.31637 0.71994 0.18246 0.0
C56 C 0.342 0.70309 0.21586 0.0
C57 C 0.30226 0.68208 0.20412 0.0
C58 C 0.3118 0.74022 0.16305 0.0
C59 C 0.28677 0.74363 0.15303 0.0
C60 C 0.28222 0.76324 0.13536 0.0
C61 C 0.30261 0.77967 0.12712 0.0
C62 C 0.32772 0.77603 0.13664 0.0
C63 C 0.33224 0.75663 0.15463 0.0
C64 C 0.36486 0.70536 0.23333 0.0
C65 C 0.38542 0.72297 0.22815 0.0
C66 C 0.40601 0.72643 0.24562 0.0
C67 C 0.40632 0.71265 0.26884 0.0
C68 C 0.38634 0.69429 0.27354 0.0
C69 C 0.36585 0.69065 0.25599 0.0
C70 C 0.28269 0.66087 0.20817 0.0
C71 C 0.28862 0.63975 0.22383 0.0
C72 C 0.00802 0.39457 1.00252 0.0
C73 C 0.99064 0.38796 0.98236 0.0
C74 C 0.97014 0.40455 0.97726 0.0
C75 C 0.96678 0.42704 0.99224 0.0
H76 H 0.92982 0.49995 0.99331 0.0
H77 H 0.89375 0.52815 0.98425 0.0
H78 H 0.89397 0.55419 0.06408 0.0
H79 H 0.93074 0.52704 0.07284 0.0
H80 H 0.99691 0.52841 0.09299 0.0
H81 H 0.02319 0.53722 0.13145 0.0
H82 H 0.04357 0.45644 0.13334 0.0
H83 H 0.01822 0.44785 0.09396 0.0
H84 H 0.01809 0.42134 0.03334 0.0
H85 H 0.0238 0.38197 0.00706 0.0
H86 H 0.95651 0.39995 0.96175 0.0
H87 H 0.95055 0.43913 0.98786 0.0
N88 N 0.95978 0.47303 0.02397 0.0
N89 N 0.96988 0.49832 0.06096 0.0
N90 N 0.99385 0.46135 0.05125 0.0
C91 C 0.95496 0.49387 0.03956 0.0
C92 C 0.98938 0.48223 0.06692 0.0
C93 C 0.97919 0.45665 0.02966 0.0
C94 C 0.93317 0.51115 0.03382 0.0
C95 C 0.92218 0.51171 0.00892 0.0
C96 C 0.90134 0.52774 1.00377 0.0
C97 C 0.89064 0.54317 0.02353 0.0
C98 C 0.90181 0.54272 0.04835 0.0
C99 C 0.92287 0.52705 0.05339 0.0
C100 C 1.00536 0.48739 0.09044 0.0
C101 C 0.00691 0.51247 0.10164 0.0
C102 C 0.02179 0.51748 0.12388 0.0
C103 C 0.03504 0.49742 0.13588 0.0
C104 C 0.03362 0.47234 0.12459 0.0
C105 C 0.01907 0.46741 0.10204 0.0
C106 C 0.98374 0.43344 0.01289 0.0
C107 C 1.00459 0.41705 0.01767 0.0
C108 C 0.73102 0.76736 0.12249 0.0
C109 C 0.71175 0.74826 0.11705 0.0
C110 C 0.68942 0.74719 0.13249 0.0
C111 C 0.68652 0.76482 0.15313 0.0
H112 H 0.63883 0.78392 0.21642 0.0
H113 H 0.605 0.77806 0.24892 0.0
H114 H 0.64768 0.82928 0.30161 0.0
H115 H 0.68156 0.83528 0.26931 0.0
H116 H 0.75293 0.84452 0.24555 0.0
H117 H 0.78511 0.87928 0.25268 0.0
H118 H 0.76059 0.91553 0.18215 0.0
H119 H 0.72992 0.87908 0.17407 0.0
H120 H 0.74342 0.79949 0.14658 0.0
H121 H 0.74838 0.76863 0.11081 0.0
H122 H 0.67441 0.73242 0.12887 0.0
H123 H 0.66918 0.76332 0.1648 0.0
N124 N 0.6846 0.79835 0.19909 0.0
N125 N 0.70124 0.83388 0.22356 0.0
N126 N 0.72074 0.82241 0.18427 0.0
C127 C 0.68338 0.81417 0.22041 0.0
C128 C 0.7197 0.83822 0.20545 0.0
C129 C 0.70339 0.80223 0.18102 0.0
C130 C 0.66292 0.81013 0.24016 0.0
C131 C 0.64105 0.79395 0.2349 0.0
C132 C 0.62157 0.79075 0.25341 0.0
C133 C 0.62364 0.80348 0.27762 0.0
C134 C 0.64561 0.81933 0.28306 0.0
C135 C 0.66495 0.82277 0.26449 0.0
C136 C 0.73905 0.85937 0.20939 0.0
C137 C 0.75459 0.85994 0.2316 0.0
C138 C 0.7728 0.88013 0.23579 0.0
C139 C 0.77512 0.90083 0.21839 0.0
C140 C 0.75951 0.89999 0.19597 0.0
C141 C 0.74186 0.87925 0.19135 0.0
C142 C 0.70583 0.784 0.15862 0.0
C143 C 0.72805 0.78512 0.14293 0.0
C144 C 0.03397 0.91465 0.55423 0.0
C145 C 0.01963 0.89266 0.54519 0.0
C146 C 0.00908 0.89292 0.52007 0.0
C147 C 0.01287 0.9146 0.50439 0.0
H148 H 0.98796 0.94925 0.43643 0.0
H149 H 0.96366 0.95513 0.39645 0.0
H150 H 0.99741 0.03223 0.38935 0.0
H151 H 0.02212 0.0265 0.42929 0.0
H152 H 0.08137 0.03112 0.453 0.0
H153 H 0.12098 0.05686 0.45939 0.0
H154 H 0.13257 0.02168 0.53349 0.0
H155 H 0.09269 0.99563 0.52721 0.0
H156 H 0.04947 0.95258 0.54598 0.0
H157 H 0.04218 0.91521 0.57354 0.0
H158 H 0.99853 0.87609 0.5122 0.0
H159 H 1.00482 0.91399 0.48501 0.0
N160 N 0.01807 0.9628 0.47516 0.0
N161 N 0.04447 0.9988 0.46433 0.0
N162 N 0.05413 0.97471 0.50099 0.0
C163 C 0.02343 0.98304 0.45927 0.0
C164 C 0.05997 0.99475 0.48509 0.0
C165 C 0.03323 0.95864 0.49619 0.0
C166 C 0.00721 0.9873 0.43602 0.0
C167 C 0.9901 0.96758 0.42657 0.0
C168 C 0.97619 0.97089 0.40368 0.0
C169 C 0.97883 0.99407 0.38989 0.0
C170 C 0.99507 0.01422 0.39973 0.0
C171 C 0.00928 0.01081 0.42249 0.0
C172 C 0.08372 0.01122 0.48958 0.0
C173 C 0.09221 0.02886 0.47075 0.0
C174 C 0.11509 0.04361 0.47434 0.0
C175 C 0.13005 0.04132 0.49689 0.0
C176 C 0.12144 0.02397 0.51592 0.0
C177 C 0.0986 0.009 0.51226 0.0
C178 C 0.02773 0.93631 0.51327 0.0
C179 C 0.0381 0.93612 0.53843 0.0
C180 C 0.22856 0.7489 0.90402 0.0
C181 C 0.214 0.77152 0.90554 0.0
C182 C 0.19586 0.77614 0.88595 0.0
C183 C 0.19259 0.75866 0.86512 0.0
H184 H 0.14048 0.73369 0.80762 0.0
H185 H 0.10512 0.7388 0.7769 0.0
H186 H 0.14493 0.69191 0.72065 0.0
H187 H 0.18052 0.68651 0.7514 0.0
H188 H 0.23409 0.65929 0.7697 0.0
H189 H 0.26772 0.62741 0.76274 0.0
H190 H 0.28687 0.63086 0.84395 0.0
H191 H 0.25347 0.66302 0.8511 0.0
H192 H 0.23719 0.7144 0.88251 0.0
H193 H 0.24263 0.74479 0.91889 0.0
H194 H 0.18477 0.79369 0.88627 0.0
H195 H 0.17877 0.76311 0.85014 0.0
N196 N 0.18626 0.72161 0.8226 0.0
N197 N 0.20244 0.68748 0.79731 0.0
N198 N 0.22277 0.69962 0.83653 0.0
C199 C 0.1846 0.70614 0.80106 0.0
C200 C 0.22152 0.68402 0.81507 0.0
C201 C 0.2053 0.71855 0.84039 0.0
C202 C 0.16336 0.70957 0.78207 0.0
C203 C 0.14183 0.72445 0.78873 0.0
C204 C 0.12148 0.72731 0.77121 0.0
C205 C 0.12226 0.71556 0.74655 0.0
C206 C 0.14392 0.70112 0.7396 0.0
C207 C 0.16419 0.69797 0.75725 0.0
C208 C 0.24115 0.66384 0.81094 0.0
C209 C 0.24535 0.65323 0.78613 0.0
C210 C 0.26466 0.63508 0.78209 0.0
C211 C 0.27992 0.62691 0.80281 0.0
C212 C 0.27534 0.63692 0.8277 0.0
C213 C 0.2563 0.65539 0.83171 0.0
C214 C 0.20757 0.73627 0.86329 0.0
C215 C 0.22541 0.73148 0.88315 0.0
C216 C 0.0154 0.62537 0.5207 0.0
C217 C 0.99606 0.63407 0.5376 0.0
C218 C 0.97255 0.61971 0.53885 0.0
C219 C 0.96849 0.59718 0.52382 0.0
H220 H 0.90747 0.53811 0.47618 0.0
H221 H 0.86937 0.5098 0.48324 0.0
H222 H 0.91926 0.44966 0.51012 0.0
H223 H 0.95724 0.47736 0.50079 0.0
H224 H 0.9836 0.50455 0.4154 0.0
H225 H 0.01011 0.4973 0.37701 0.0
H226 H 0.0721 0.54442 0.41106 0.0
H227 H 0.04552 0.55224 0.44939 0.0
H228 H 0.02658 0.59669 0.49267 0.0
H229 H 0.03368 0.63608 0.51916 0.0
H230 H 0.95728 0.62562 0.55171 0.0
H231 H 0.95011 0.58668 0.52552 0.0
N232 N 0.96222 0.54854 0.49606 0.0
N233 N 0.97445 0.51973 0.46295 0.0
N234 N 0.99984 0.55741 0.47209 0.0
C235 C 0.9579 0.52627 0.48215 0.0
C236 C 0.99544 0.53531 0.45768 0.0
C237 C 0.98328 0.56416 0.49134 0.0
C238 C 0.93507 0.5096 0.48757 0.0
C239 C 0.9101 0.51873 0.48341 0.0
C240 C 0.88835 0.50257 0.48768 0.0
C241 C 0.89115 0.47717 0.49681 0.0
C242 C 0.9163 0.46863 0.50209 0.0
C243 C 0.93807 0.48452 0.49703 0.0
C244 C 0.01241 0.52906 0.43546 0.0
C245 C 1.003 0.51311 0.41492 0.0
C246 C 0.01811 0.50895 0.39292 0.0
C247 C 0.04313 0.52015 0.39126 0.0
C248 C 0.05294 0.53534 0.41208 0.0
C249 C 0.03766 0.53993 0.4339 0.0
C250 C 0.98779 0.58839 0.50695 0.0
C251 C 0.01127 0.60285 0.50543 0.0
C252 C 0.8946 0.78465 0.76618 0.0
C253 C 0.90029 0.80277 0.74685 0.0
C254 C 0.88585 0.82551 0.74591 0.0
C255 C 0.8659 0.82979 0.76368 0.0
H256 H 0.79216 0.86433 0.77106 0.0
H257 H 0.75873 0.89611 0.76371 0.0
H258 H 0.73388 0.88934 0.84286 0.0
H259 H 0.76716 0.8574 0.85038 0.0
H260 H 0.78324 0.80618 0.88051 0.0
H261 H 0.77568 0.7745 0.91435 0.0
H262 H 0.83533 0.72663 0.88236 0.0
H263 H 0.84298 0.75814 0.84831 0.0
H264 H 0.87102 0.77439 0.79842 0.0
H265 H 0.90512 0.76678 0.76727 0.0
H266 H 0.89006 0.84007 0.73155 0.0
H267 H 0.8551 0.84746 0.76238 0.0
N268 N 0.82158 0.83472 0.7984 0.0
N269 N 0.79981 0.82217 0.83615 0.0
N270 N 0.83631 0.79978 0.82241 0.0
C271 C 0.80195 0.83812 0.81554 0.0
C272 C 0.81689 0.80292 0.83972 0.0
C273 C 0.83893 0.81563 0.80178 0.0
C274 C 0.7824 0.85828 0.81132 0.0
C275 C 0.77972 0.86969 0.78698 0.0
C276 C 0.76051 0.88778 0.78271 0.0
C277 C 0.74382 0.89516 0.80274 0.0
C278 C 0.74666 0.88411 0.82716 0.0
C279 C 0.76565 0.86575 0.83138 0.0
C280 C 0.81365 0.78472 0.86153 0.0
C281 C 0.795 0.78908 0.88078 0.0
C282 C 0.7908 0.77105 0.90034 0.0
C283 C 0.8051 0.74825 0.90109 0.0
C284 C 0.8241 0.7441 0.88224 0.0
C285 C 0.82845 0.7622 0.86276 0.0
C286 C 0.86015 0.81153 0.78293 0.0
C287 C 0.87489 0.78899 0.784 0.0
C288 C 0.40115 0.28931 0.27376 0.0
C289 C 0.40203 0.30189 0.24994 0.0
C290 C 0.38533 0.32242 0.24555 0.0
C291 C 0.36689 0.32915 0.26417 0.0
H292 H 0.30954 0.38402 0.28664 0.0
H293 H 0.27723 0.41702 0.27921 0.0
H294 H 0.22368 0.37652 0.32924 0.0
H295 H 0.25579 0.34357 0.33688 0.0
H296 H 0.27438 0.29798 0.36947 0.0
H297 H 0.26606 0.26669 0.40318 0.0
H298 H 0.34459 0.24046 0.39691 0.0
H299 H 0.35276 0.2713 0.36226 0.0
H300 H 0.38226 0.28522 0.3101 0.0
H301 H 0.41397 0.27348 0.27756 0.0
H302 H 0.38564 0.33229 0.22722 0.0
H303 H 0.3535 0.34431 0.25979 0.0
N304 N 0.32573 0.33854 0.30149 0.0
N305 N 0.30145 0.32447 0.33712 0.0
N306 N 0.33954 0.30344 0.32593 0.0
C307 C 0.30481 0.34106 0.3172 0.0
C308 C 0.31875 0.30569 0.34172 0.0
C309 C 0.34321 0.31973 0.30574 0.0
C310 C 0.28535 0.36116 0.31244 0.0
C311 C 0.29091 0.38213 0.2961 0.0
C312 C 0.2725 0.40111 0.29196 0.0
C313 C 0.2481 0.39936 0.30385 0.0
C314 C 0.24238 0.3783 0.3199 0.0
C315 C 0.26086 0.35951 0.32431 0.0
C316 C 0.31423 0.28717 0.36303 0.0
C317 C 0.28997 0.28565 0.37523 0.0
C318 C 0.28521 0.26773 0.39469 0.0
C319 C 0.30462 0.25097 0.40271 0.0
C320 C 0.32906 0.25272 0.39085 0.0
C321 C 0.33377 0.27053 0.3711 0.0
C322 C 0.36492 0.31544 0.28747 0.0
C323 C 0.38288 0.29602 0.29233 0.0
C324 C 0.508 0.89484 0.49592 0.0
C325 C 0.48818 0.8852 0.47946 0.0
C326 C 0.46559 0.8995 0.47671 0.0
C327 C 0.46248 0.92263 0.49076 0.0
H328 H 0.42588 0.99741 0.49025 0.0
H329 H 0.38967 0.0257 0.48208 0.0
H330 H 0.39119 0.05093 0.56216 0.0
H331 H 0.42809 0.02367 0.57003 0.0
H332 H 0.48058 0.01591 0.60135 0.0
H333 H 0.50791 0.02455 0.63922 0.0
H334 H 0.56188 0.96791 0.61164 0.0
H335 H 0.5343 0.95867 0.57405 0.0
H336 H 0.52017 0.92449 0.52329 0.0
H337 H 0.52559 0.88413 0.49831 0.0
H338 H 0.45014 0.89255 0.46391 0.0
H339 H 0.44456 0.93284 0.48852 0.0
N340 N 0.45715 0.97083 0.51993 0.0
N341 N 0.46786 0.99628 0.55668 0.0
N342 N 0.493 0.96058 0.54549 0.0
C343 C 0.45226 0.99142 0.53583 0.0
C344 C 0.48834 0.98106 0.56161 0.0
C345 C 0.47746 0.95525 0.52466 0.0
C346 C 0.42991 0.00822 0.53081 0.0
C347 C 0.41844 0.00895 0.50613 0.0
C348 C 0.39752 0.02504 0.50149 0.0
C349 C 0.38723 0.04039 0.52154 0.0
C350 C 0.39873 0.03957 0.54621 0.0
C351 C 0.41986 0.02384 0.55074 0.0
C352 C 0.50513 0.9865 0.5846 0.0
C353 C 0.49822 1.0052 0.60332 0.0
C354 C 0.51391 0.01022 0.62504 0.0
C355 C 0.5369 0.99671 0.62858 0.0
C356 C 0.54396 0.97819 0.60979 0.0
C357 C 0.52821 0.97305 0.58813 0.0
C358 C 0.48181 0.93188 0.50811 0.0
C359 C 0.50478 0.91787 0.51026 0.0
C360 C 0.23496 0.26498 0.6289 0.0
C361 C 0.21547 0.24597 0.6239 0.0
C362 C 0.19352 0.24502 0.63986 0.0
C363 C 0.1909 0.26305 0.66017 0.0
H364 H 0.14234 0.28395 0.721 0.0
H365 H 0.10876 0.27832 0.75379 0.0
H366 H 0.14555 0.33883 0.80088 0.0
H367 H 0.17915 0.34465 0.76829 0.0
H368 H 0.21554 0.38571 0.73556 0.0
H369 H 0.24669 0.4217 0.7416 0.0
H370 H 0.30065 0.38303 0.6915 0.0
H371 H 0.26918 0.34713 0.68475 0.0
H372 H 0.24761 0.29766 0.6522 0.0
H373 H 0.25207 0.26613 0.61685 0.0
H374 H 0.17839 0.23029 0.63664 0.0
H375 H 0.17363 0.26186 0.67197 0.0
N376 N 0.18735 0.29974 0.70325 0.0
N377 N 0.20163 0.33818 0.72443 0.0
N378 N 0.22408 0.32274 0.68827 0.0
C379 C 0.18455 0.31767 0.7226 0.0
C380 C 0.22138 0.34093 0.70734 0.0
C381 C 0.2071 0.30212 0.68601 0.0
C382 C 0.16358 0.31467 0.74199 0.0
C383 C 0.1433 0.29612 0.73828 0.0
C384 C 0.12399 0.29296 0.75697 0.0
C385 C 0.12472 0.30803 0.77988 0.0
C386 C 0.14472 0.32678 0.7835 0.0
C387 C 0.16388 0.33015 0.76473 0.0
C388 C 0.23996 0.36333 0.70992 0.0
C389 C 0.234 0.38481 0.72575 0.0
C390 C 0.25189 0.40542 0.72932 0.0
C391 C 0.2763 0.40489 0.71746 0.0
C392 C 0.28199 0.3839 0.70091 0.0
C393 C 0.26398 0.36332 0.69713 0.0
C394 C 0.21015 0.28248 0.66491 0.0
C395 C 0.2323 0.28311 0.6491 0.0
C396 C 0.7742 0.11563 0.72823 0.0
C397 C 0.74985 0.11542 0.71601 0.0
C398 C 0.74424 0.13541 0.69889 0.0
C399 C 0.76229 0.15572 0.69481 0.0
H400 H 0.78682 0.21246 0.64101 0.0
H401 H 0.77969 0.24467 0.60782 0.0
H402 H 0.8321 0.29872 0.6475 0.0
H403 H 0.83953 0.26652 0.68079 0.0
H404 H 0.88279 0.23799 0.71743 0.0
H405 H 0.91836 0.24414 0.74826 0.0
H406 H 0.88733 0.181 0.7936 0.0
H407 H 0.85205 0.17429 0.76255 0.0
H408 H 0.81059 0.13564 0.73436 0.0
H409 H 0.77934 0.1001 0.74098 0.0
H410 H 0.72564 0.1357 0.68917 0.0
H411 H 0.75712 0.17112 0.68192 0.0
N412 N 0.80133 0.19656 0.68616 0.0
N413 N 0.83845 0.22009 0.70043 0.0
N414 N 0.82549 0.18175 0.72114 0.0
C415 C 0.81801 0.21731 0.68384 0.0
C416 C 0.84236 0.20235 0.71912 0.0
C417 C 0.80494 0.17868 0.70477 0.0
C418 C 0.81381 0.23684 0.66357 0.0
C419 C 0.79691 0.23116 0.64271 0.0
C420 C 0.79293 0.24951 0.6236 0.0
C421 C 0.80555 0.27402 0.62504 0.0
C422 C 0.82223 0.2799 0.64596 0.0
C423 C 0.8265 0.26142 0.66493 0.0
C424 C 0.86447 0.20564 0.73744 0.0
C425 C 0.88359 0.22525 0.73384 0.0
C426 C 0.90399 0.2288 0.7515 0.0
C427 C 0.90577 0.21289 0.7732 0.0
C428 C 0.88683 0.19315 0.77674 0.0
C429 C 0.86647 0.18949 0.75901 0.0
C430 C 0.78632 0.15644 0.70779 0.0
C431 C 0.79216 0.13596 0.72431 0.0
C432 C 0.48343 0.54393 0.61983 0.0
C433 C 0.49133 0.52543 0.63768 0.0
C434 C 0.51471 0.51274 0.63339 0.0
C435 C 0.52998 0.51859 0.61185 0.0
H436 H 0.60189 0.5051 0.57742 0.0
H437 H 0.6396 0.47919 0.56774 0.0
H438 H 0.63515 0.50116 0.48768 0.0
H439 H 0.59823 0.52803 0.49757 0.0
H440 H 0.56684 0.58088 0.48656 0.0
H441 H 0.55505 0.61633 0.45858 0.0
H442 H 0.4967 0.63951 0.51319 0.0
H443 H 0.50793 0.60372 0.54099 0.0
H444 H 0.4919 0.56416 0.585 0.0
H445 H 0.4652 0.55359 0.62226 0.0
H446 H 0.52131 0.49842 0.64684 0.0
H447 H 0.54792 0.50846 0.60923 0.0
N448 N 0.55957 0.52934 0.56553 0.0
N449 N 0.5669 0.5536 0.52815 0.0
N450 N 0.53151 0.56259 0.55483 0.0
C451 C 0.57398 0.53433 0.54415 0.0
C452 C 0.54575 0.56794 0.53342 0.0
C453 C 0.53821 0.54328 0.57096 0.0
C454 C 0.59707 0.51874 0.53829 0.0
C455 C 0.60906 0.50456 0.55777 0.0
C456 C 0.63066 0.48964 0.55222 0.0
C457 C 0.64065 0.48831 0.52699 0.0
C458 C 0.62852 0.50235 0.50748 0.0
C459 C 0.60717 0.5176 0.51311 0.0
C460 C 0.53844 0.58941 0.51617 0.0
C461 C 0.55151 0.59351 0.4927 0.0
C462 C 0.54489 0.61397 0.4767 0.0
C463 C 0.5252 0.63097 0.48386 0.0
C464 C 0.51192 0.62672 0.50713 0.0
C465 C 0.51845 0.6062 0.52309 0.0
C466 C 0.52219 0.53725 0.59404 0.0
C467 C 0.49871 0.54986 0.59835 0.0
C468 C 0.54407 0.39847 0.04374 0.0
C469 C 0.51908 0.3869 0.04396 0.0
C470 C 0.49986 0.3971 0.02797 0.0
C471 C 0.50569 0.41805 0.01181 0.0
H472 H 0.4775 0.46272 0.94845 0.0
H473 H 0.45158 0.47194 0.91003 0.0
H474 H 0.51702 0.51317 0.87703 0.0
H475 H 0.5429 0.50439 0.91526 0.0
H476 H 0.58943 0.52068 0.9502 0.0
H477 H 0.62803 0.54751 0.95793 0.0
H478 H 0.63793 0.51265 0.03248 0.0
H479 H 0.59899 0.48557 0.02482 0.0
H480 H 0.56938 0.4277 0.02816 0.0
H481 H 0.55942 0.39097 0.05558 0.0
H482 H 0.48025 0.38908 0.0281 0.0
H483 H 0.49048 0.42538 0.99968 0.0
N484 N 0.52177 0.45727 0.97404 0.0
N485 N 0.55096 0.49071 0.96217 0.0
N486 N 0.55968 0.46581 0.99844 0.0
C487 C 0.52855 0.47684 0.95779 0.0
C488 C 0.56656 0.48547 0.98248 0.0
C489 C 0.53737 0.45156 0.99438 0.0
C490 C 0.51231 0.48277 0.93498 0.0
C491 C 0.48632 0.4739 0.9331 0.0
C492 C 0.47142 0.47934 0.91124 0.0
C493 C 0.48231 0.49344 0.89075 0.0
C494 C 0.50818 0.50238 0.89264 0.0
C495 C 0.52294 0.49731 0.91459 0.0
C496 C 0.59076 0.5012 0.98706 0.0
C497 C 0.59964 0.51878 0.96837 0.0
C498 C 0.62186 0.5343 0.97282 0.0
C499 C 0.63562 0.53308 0.99624 0.0
C500 C 0.62726 0.51488 0.01463 0.0
C501 C 0.60506 0.49913 0.01011 0.0
C502 C 0.53076 0.42952 0.01158 0.0
C503 C 0.54981 0.41954 0.02789 0.0
C504 C 0.72978 0.25118 0.40039 0.0
C505 C 0.7148 0.27353 0.40194 0.0
C506 C 0.6967 0.27795 0.38226 0.0
C507 C 0.6938 0.26047 0.36137 0.0
H508 H 0.63969 0.23138 0.30704 0.0
H509 H 0.60361 0.2359 0.27702 0.0
H510 H 0.64377 0.19101 0.2194 0.0
H511 H 0.68006 0.18614 0.24949 0.0
H512 H 0.71952 0.14152 0.281 0.0
H513 H 0.75166 0.10784 0.27566 0.0
H514 H 0.80258 0.14888 0.32968 0.0
H515 H 0.77054 0.18256 0.33529 0.0
H516 H 0.73904 0.21689 0.37888 0.0
H517 H 0.7438 0.2472 0.41535 0.0
H518 H 0.68529 0.29529 0.38262 0.0
H519 H 0.67991 0.26466 0.34637 0.0
N520 N 0.68694 0.22214 0.31994 0.0
N521 N 0.70272 0.18724 0.2954 0.0
N522 N 0.7246 0.20164 0.33308 0.0
C523 C 0.68473 0.20579 0.29909 0.0
C524 C 0.72275 0.18506 0.31238 0.0
C525 C 0.70679 0.22021 0.33702 0.0
C526 C 0.6628 0.20831 0.28073 0.0
C527 C 0.64094 0.22241 0.288 0.0
C528 C 0.62019 0.22494 0.27089 0.0
C529 C 0.62093 0.21368 0.24603 0.0
C530 C 0.64282 0.19986 0.23852 0.0
C531 C 0.66348 0.19699 0.25578 0.0
C532 C 0.74236 0.16475 0.30864 0.0
C533 C 0.73754 0.14342 0.29176 0.0
C534 C 0.75584 0.12403 0.28883 0.0
C535 C 0.77944 0.12569 0.30248 0.0
C536 C 0.78449 0.14714 0.31902 0.0
C537 C 0.76607 0.16636 0.32223 0.0
C538 C 0.70913 0.23831 0.3596 0.0
C539 C 0.72703 0.23381 0.37946 0.0
C540 C 0.51885 0.12369 0.01691 0.0
C541 C 0.50047 0.13158 0.03527 0.0
C542 C 0.47707 0.11708 0.03705 0.0
C543 C 0.47253 0.09478 0.02184 0.0
H544 H 0.41685 0.03934 1.00496 0.0
H545 H 0.37729 0.01345 0.01246 0.0
H546 H 0.41033 0.94806 0.97263 0.0
H547 H 0.44997 0.97403 0.96455 0.0
H548 H 0.4966 0.99101 0.9215 0.0
H549 H 0.52118 0.98459 0.88146 0.0
H550 H 0.55799 0.06024 0.89223 0.0
H551 H 0.534 0.06679 0.93209 0.0
H552 H 0.52886 0.09579 0.98763 0.0
H553 H 0.53667 0.13489 0.01421 0.0
H554 H 0.46215 0.1228 0.05037 0.0
H555 H 0.45431 0.08413 0.02411 0.0
N556 N 0.46522 0.04683 0.9931 0.0
N557 N 0.47598 0.01906 0.95859 0.0
N558 N 0.5017 0.05648 0.96792 0.0
C559 C 0.46008 0.02502 0.97863 0.0
C560 C 0.49683 0.03479 0.95306 0.0
C561 C 0.48604 0.06259 0.98803 0.0
C562 C 0.43659 0.00876 0.98408 0.0
C563 C 0.41586 0.01938 0.99794 0.0
C564 C 0.39319 1.00463 1.00226 0.0
C565 C 0.39097 0.97881 0.9933 0.0
C566 C 0.41179 0.9679 0.97996 0.0
C567 C 0.43435 0.98281 0.9752 0.0
C568 C 0.51311 0.02952 0.93 0.0
C569 C 0.51013 0.00618 0.9155 0.0
C570 C 0.52422 1.0024 0.89266 0.0
C571 C 0.54123 0.02202 0.88384 0.0
C572 C 0.54483 0.04492 0.89866 0.0
C573 C 0.53106 0.04859 0.92152 0.0
C574 C 0.4911 0.0865 1.00395 0.0
C575 C 0.51423 0.10139 1.00145 0.0
Mn576 Mn 0.2578 0.87683 0.01498 0.0
Mn577 Mn 0.25642 0.89729 0.95331 0.0
C578 C 0.23737 0.85169 0.98307 0.0
C579 C 0.27615 0.85429 0.04897 0.0
C580 C 0.22216 0.91918 0.99535 0.0
O581 O 0.2872 0.90417 0.01453 0.0
O582 O 0.28486 0.91594 0.97273 0.0
C583 C 0.30659 0.87673 0.93593 0.0
N584 N 0.2804 0.87795 0.93313 0.0
C585 C 0.28074 0.84899 0.89611 0.0
C586 C 0.30774 0.84756 0.89849 0.0
C587 C 0.3207 0.86145 0.91852 0.0
C588 C 0.26772 0.86462 0.91396 0.0
H589 H 0.31663 0.88729 0.95135 0.0
C590 C 0.2952 0.91739 0.9953 0.0
O591 O 0.26033 0.87305 0.05305 0.0
O592 O 0.2823 0.84942 0.02509 0.0
N593 N 0.23009 0.88047 0.9323 0.0
C594 C 0.20387 0.8827 0.93359 0.0
C595 C 0.18799 0.86955 0.91524 0.0
C596 C 0.1992 0.85426 0.89575 0.0
C597 C 0.22622 0.8523 0.89478 0.0
C598 C 0.24109 0.86609 0.91341 0.0
H599 H 0.19512 0.89419 0.94867 0.0
O600 O 0.23083 0.84906 0.0071 0.0
O601 O 0.25531 0.86918 0.97846 0.0
O602 O 0.23064 0.90503 0.01332 0.0
O603 O 0.23061 0.91796 0.97222 0.0
C604 C 0.23896 0.83682 0.87633 0.0
C605 C 0.26619 0.83512 0.87703 0.0
H606 H 0.31868 0.83569 0.88519 0.0
H607 H 0.34151 0.86034 0.92057 0.0
H608 H 0.16714 0.87103 0.91622 0.0
H609 H 0.18687 0.84395 0.88178 0.0
H610 H 0.22796 0.82583 0.86176 0.0
H611 H 0.27573 0.82285 0.86298 0.0
Mn612 Mn 0.14565 0.50735 0.26054 0.0
Mn613 Mn 0.12001 0.567 0.26006 0.0
C614 C 0.16744 0.54141 0.24083 0.0
C615 C 0.17172 0.47624 0.27903 0.0
C616 C 0.10106 0.52259 0.22506 0.0
O617 O 0.11884 0.50539 0.28944 0.0
O618 O 0.10379 0.54616 0.288 0.0
C619 C 0.1399 0.58723 0.31048 0.0
N620 N 0.13837 0.58919 0.2843 0.0
C621 C 0.16489 0.62843 0.28517 0.0
C622 C 0.16657 0.62694 0.31216 0.0
C623 C 0.15409 0.60621 0.32485 0.0
C624 C 0.15036 0.60902 0.27189 0.0
H625 H 0.13037 0.57132 0.32033 0.0
C626 C 0.1043 0.52343 0.29771 0.0
O627 O 0.15312 0.46969 0.26302 0.0
O628 O 0.17425 0.5007 0.28527 0.0
N629 N 0.13439 0.58915 0.23411 0.0
C630 C 0.13095 0.58769 0.20799 0.0
C631 C 0.14252 0.6068 0.1924 0.0
C632 C 0.15739 0.62724 0.20382 0.0
C633 C 0.16039 0.6285 0.23076 0.0
C634 C 0.14821 0.60904 0.24533 0.0
H635 H 0.11957 0.57201 0.19911 0.0
O636 O 0.1721 0.51758 0.23416 0.0
O637 O 0.15 0.5445 0.25858 0.0
O638 O 0.11711 0.50601 0.23284 0.0
O639 O 0.10026 0.5458 0.2341 0.0
C640 C 0.17513 0.64821 0.24371 0.0
C641 C 0.17738 0.64817 0.2709 0.0
H642 H 0.17762 0.64145 0.3233 0.0
H643 H 0.15544 0.60484 0.34566 0.0
H644 H 0.14009 0.60571 0.17162 0.0
H645 H 0.16646 0.64182 0.19171 0.0
H646 H 0.18493 0.66341 0.23294 0.0
H647 H 0.18888 0.66334 0.28063 0.0
Mn648 Mn 0.76144 0.63014 0.0113 0.0
Mn649 Mn 0.70856 0.6522 0.98082 0.0
C650 C 0.72283 0.60595 0.01143 0.0
C651 C 0.79992 0.60717 0.01097 0.0
C652 C 0.72795 0.67368 0.03268 0.0
O653 O 0.77652 0.6584 0.98804 0.0
O654 O 0.74033 0.66885 0.96626 0.0
C655 C 0.71732 0.62959 0.92869 0.0
N656 N 0.7019 0.63249 0.94977 0.0
C657 C 0.66722 0.60739 0.92943 0.0
C658 C 0.68266 0.60428 0.9074 0.0
C659 C 0.70788 0.6153 0.9071 0.0
C660 C 0.67778 0.6216 0.95044 0.0
H661 H 0.73663 0.63817 0.92835 0.0
C662 C 0.76474 0.67085 0.97062 0.0
O663 O 0.79581 0.62537 0.02803 0.0
O664 O 0.78201 0.60288 0.99362 0.0
N665 N 0.67629 0.63769 0.9927 0.0
C666 C 0.66438 0.64142 0.01587 0.0
C667 C 0.63926 0.63103 0.01963 0.0
C668 C 0.6265 0.61723 0.99943 0.0
C669 C 0.63904 0.61389 0.97566 0.0
C670 C 0.66413 0.62455 0.9731 0.0
H671 H 0.67405 0.65206 0.03145 0.0
O672 O 0.74049 0.60223 0.02881 0.0
O673 O 0.72839 0.62346 0.99439 0.0
O674 O 0.74652 0.65806 0.03523 0.0
O675 O 0.71322 0.67352 0.01279 0.0
C676 C 0.62764 0.60037 0.95443 0.0
C677 C 0.6418 0.5969 0.9314 0.0
H678 H 0.67539 0.59337 0.89067 0.0
H679 H 0.71995 0.61289 0.89022 0.0
H680 H 0.62974 0.63367 0.03806 0.0
H681 H 0.60714 0.6092 1.00241 0.0
H682 H 0.60814 0.59216 0.95574 0.0
H683 H 0.63301 0.58599 0.91539 0.0
Mn684 Mn 0.87839 0.01423 0.25909 0.0
Mn685 Mn 0.90037 0.95319 0.25418 0.0
C686 C 0.85398 0.98168 0.23809 0.0
C687 C 0.85451 0.0464 0.27967 0.0
C688 C 0.92045 0.99731 0.22117 0.0
O689 O 0.90654 0.01408 0.28725 0.0
O690 O 0.91827 0.97237 0.28287 0.0
C691 C 0.88002 0.9335 0.30379 0.0
N692 N 0.88128 0.93164 0.27753 0.0
C693 C 0.85289 0.89374 0.27677 0.0
C694 C 0.85138 0.89517 0.30381 0.0
C695 C 0.86493 0.9152 0.31736 0.0
C696 C 0.86808 0.91263 0.26429 0.0
H697 H 0.89041 0.94886 0.3143 0.0
C698 C 0.92007 0.99481 0.29395 0.0
O699 O 0.87304 0.05223 0.26371 0.0
O700 O 0.85106 0.022 0.28494 0.0
N701 N 0.88421 0.93236 0.22732 0.0
C702 C 0.8875 0.93386 0.20126 0.0
C703 C 0.87517 0.91524 0.18488 0.0
C704 C 0.85981 0.89517 0.19547 0.0
C705 C 0.85699 0.89383 0.22237 0.0
C706 C 0.86984 0.91285 0.23772 0.0
H707 H 0.89941 0.94915 0.19301 0.0
O708 O 0.8503 1.00588 0.23299 0.0
O709 O 0.87191 0.97742 0.25497 0.0
O710 O 0.90576 0.01452 0.23063 0.0
O711 O 0.92061 0.97389 0.22894 0.0
C712 C 0.84187 0.87442 0.23453 0.0
C713 C 0.83979 0.87441 0.26172 0.0
H714 H 0.83978 0.88109 0.31435 0.0
H715 H 0.86377 0.91651 0.33822 0.0
H716 H 0.87749 0.91638 0.16415 0.0
H717 H 0.85021 0.88093 0.18278 0.0
H718 H 0.8316 0.85953 0.22316 0.0
H719 H 0.82794 0.85951 0.27084 0.0
Mn720 Mn 0.26076 0.13155 0.51152 0.0
Mn721 Mn 0.20834 0.15725 0.48327 0.0
C722 C 0.22123 0.10907 0.51121 0.0
C723 C 0.29821 0.10696 0.51055 0.0
C724 C 0.22788 0.17448 0.53614 0.0
O725 O 0.27711 0.15946 0.48875 0.0
O726 O 0.2406 0.1755 0.47192 0.0
C727 C 0.21949 0.1405 0.42951 0.0
N728 N 0.20315 0.14099 0.45011 0.0
C729 C 0.16956 0.11811 0.42583 0.0
C730 C 0.18596 0.11748 0.4043 0.0
C731 C 0.21111 0.12857 0.40621 0.0
C732 C 0.17913 0.12992 0.44864 0.0
H733 H 0.23874 0.14922 0.43082 0.0
C734 C 0.26525 0.1753 0.47452 0.0
O735 O 0.29483 0.12495 0.52799 0.0
O736 O 0.28011 0.1037 0.4932 0.0
N737 N 0.17549 0.14175 0.49207 0.0
C738 C 0.16217 0.14378 0.51467 0.0
C739 C 0.13682 0.13327 0.51614 0.0
C740 C 0.12525 0.12125 0.49424 0.0
C741 C 0.13914 0.11989 0.47104 0.0
C742 C 0.1644 0.1305 0.4708 0.0
H743 H 0.1709 0.15317 0.5315 0.0
O744 O 0.23869 0.1042 0.52845 0.0
O745 O 0.22736 0.12687 0.49461 0.0
O746 O 0.24729 0.15964 0.53642 0.0
O747 O 0.21182 0.1748 0.51734 0.0
C748 C 0.12883 0.10858 0.44809 0.0
C749 C 0.14412 0.10742 0.42558 0.0
H750 H 0.17951 0.10843 0.38625 0.0
H751 H 0.22392 0.12808 0.38971 0.0
H752 H 0.12621 0.13449 0.5341 0.0
H753 H 0.10569 0.11317 0.49544 0.0
H754 H 0.1092 0.10057 0.44759 0.0
H755 H 0.1361 0.09831 0.40818 0.0
Mn756 Mn 0.38061 0.51618 0.76066 0.0
Mn757 Mn 0.40265 0.455 0.75731 0.0
C758 C 0.3566 0.48334 0.73991 0.0
C759 C 0.35691 0.54972 0.77912 0.0
C760 C 0.4237 0.4984 0.72404 0.0
O761 O 0.40736 0.51633 0.78988 0.0
O762 O 0.42083 0.47505 0.7855 0.0
C763 C 0.38346 0.43606 0.80768 0.0
N764 N 0.38397 0.43392 0.78141 0.0
C765 C 0.35593 0.39575 0.78186 0.0
C766 C 0.35526 0.39746 0.80893 0.0
C767 C 0.36901 0.41775 0.82188 0.0
C768 C 0.37072 0.41452 0.76875 0.0
H769 H 0.39402 0.45159 0.81775 0.0
C770 C 0.42137 0.49748 0.79672 0.0
O771 O 0.37611 0.55425 0.76361 0.0
O772 O 0.35239 0.52562 0.78518 0.0
N773 N 0.3862 0.43349 0.73113 0.0
C774 C 0.38881 0.43462 0.70496 0.0
C775 C 0.37603 0.41582 0.68915 0.0
C776 C 0.36084 0.39599 0.70039 0.0
C777 C 0.35862 0.39509 0.72736 0.0
C778 C 0.37196 0.41425 0.74214 0.0
H779 H 0.40044 0.44982 0.69621 0.0
O780 O 0.35358 0.5074 0.73374 0.0
O781 O 0.37395 0.47924 0.7575 0.0
O782 O 0.40924 0.51574 0.73351 0.0
O783 O 0.42274 0.47482 0.73133 0.0
C784 C 0.34362 0.37602 0.74015 0.0
C785 C 0.34225 0.37636 0.76738 0.0
H786 H 0.34406 0.38344 0.81995 0.0
H787 H 0.36847 0.41928 0.84276 0.0
H788 H 0.37783 0.41664 0.66835 0.0
H789 H 0.35093 0.3816 0.68811 0.0
H790 H 0.33297 0.36105 0.72922 0.0
H791 H 0.33054 0.36168 0.77698 0.0
Mn792 Mn 0.75777 0.37348 0.51587 0.0
Mn793 Mn 0.75609 0.39833 0.45596 0.0
C794 C 0.7365 0.35081 0.48268 0.0
C795 C 0.77753 0.34838 0.54711 0.0
C796 C 0.72451 0.41884 0.50099 0.0
O797 O 0.78705 0.40111 0.51662 0.0
O798 O 0.78753 0.4124 0.47445 0.0
C799 C 0.80229 0.3753 0.4319 0.0
N800 N 0.7762 0.3784 0.43224 0.0
C801 C 0.7706 0.35206 0.39359 0.0
C802 C 0.79742 0.34844 0.39298 0.0
C803 C 0.81333 0.36014 0.41222 0.0
C804 C 0.76073 0.36746 0.41365 0.0
H805 H 0.81456 0.38444 0.44645 0.0
C806 C 0.7969 0.41327 0.49749 0.0
O807 O 0.76176 0.36662 0.55344 0.0
O808 O 0.78265 0.34554 0.52271 0.0
N809 N 0.72665 0.38545 0.43644 0.0
C810 C 0.70103 0.38974 0.44048 0.0
C811 C 0.68246 0.37888 0.42324 0.0
C812 C 0.69039 0.36377 0.40199 0.0
C813 C 0.71686 0.35974 0.39813 0.0
C814 C 0.73449 0.37119 0.41586 0.0
H815 H 0.69475 0.40125 0.45681 0.0
O816 O 0.73067 0.34615 0.50657 0.0
O817 O 0.7543 0.36867 0.47912 0.0
O818 O 0.73045 0.40145 0.51701 0.0
O819 O 0.73408 0.42018 0.47832 0.0
C820 C 0.72639 0.34446 0.3776 0.0
C821 C 0.75324 0.3406 0.37534 0.0
H822 H 0.80598 0.33665 0.3779 0.0
H823 H 0.83406 0.35752 0.41187 0.0
H824 H 0.66206 0.38202 0.4264 0.0
H825 H 0.67599 0.3552 0.38889 0.0
H826 H 0.71321 0.33534 0.36361 0.0
H827 H 0.7603 0.32853 0.35967 0.0
Mn828 Mn 0.64502 1.00441 0.75607 0.0
Mn829 Mn 0.62328 0.06558 0.75303 0.0
C830 C 0.67009 0.03699 0.73735 0.0
C831 C 0.66792 0.97178 0.77613 0.0
C832 C 0.60391 0.02179 0.71744 0.0
O833 O 0.61625 1.00426 0.78317 0.0
O834 O 0.60414 0.04584 0.7799 0.0
C835 C 0.64052 0.08521 0.80462 0.0
N836 N 0.64096 0.08704 0.77839 0.0
C837 C 0.66859 0.12548 0.78092 0.0
C838 C 0.66831 0.12408 0.80796 0.0
C839 C 0.65429 0.10381 0.81985 0.0
C840 C 0.65448 0.10641 0.76675 0.0
H841 H 0.62972 0.06971 0.81386 0.0
C842 C 0.60222 0.02329 0.78999 0.0
O843 O 0.65004 0.96637 0.759 0.0
O844 O 0.67153 0.9961 0.78258 0.0
N845 N 0.64055 0.08685 0.72806 0.0
C846 C 0.63878 0.08547 0.70178 0.0
C847 C 0.65185 0.10426 0.68695 0.0
C848 C 0.66646 0.12435 0.69928 0.0
C849 C 0.6678 0.12551 0.72634 0.0
C850 C 0.65419 0.10636 0.74011 0.0
H851 H 0.62759 0.07009 0.69219 0.0
O852 O 0.67364 0.01281 0.73124 0.0
O853 O 0.65186 0.04137 0.75395 0.0
O854 O 0.61811 1.00441 0.72686 0.0
O855 O 0.60433 0.04529 0.7258 0.0
C856 C 0.68216 0.14487 0.7402 0.0
C857 C 0.68257 0.14484 0.76747 0.0
H858 H 0.67897 0.13833 0.81978 0.0
H859 H 0.65408 0.10253 0.8407 0.0
H860 H 0.65071 0.10324 0.66606 0.0
H861 H 0.67655 0.13877 0.68776 0.0
H862 H 0.69304 0.15982 0.73007 0.0
H863 H 0.69378 0.15975 0.7779 0.0
Mn864 Mn 0.01383 0.25812 0.87796 0.0
Mn865 Mn 0.95271 0.25023 0.90009 0.0
C866 C 0.98265 0.23612 0.85308 0.0
C867 C 0.04603 0.28064 0.85525 0.0
C868 C 0.99772 0.21926 0.91942 0.0
O869 O 0.01199 0.28594 0.90667 0.0
O870 O 0.9701 0.28038 0.91808 0.0
C871 C 0.93038 0.29861 0.88077 0.0
N872 N 0.93006 0.27217 0.88165 0.0
C873 C 0.8927 0.26884 0.85366 0.0
C874 C 0.89255 0.29604 0.85257 0.0
C875 C 0.9115 0.31098 0.86615 0.0
C876 C 0.91191 0.25761 0.86866 0.0
H877 H 0.94496 0.31018 0.89109 0.0
C878 C 0.99217 0.29243 0.91986 0.0
O879 O 0.05165 0.26442 0.87321 0.0
O880 O 0.02163 0.28483 0.85142 0.0
N881 N 0.93382 0.2219 0.88365 0.0
C882 C 0.93754 0.19589 0.88554 0.0
C883 C 0.92066 0.17824 0.87245 0.0
C884 C 0.9001 0.18748 0.85764 0.0
C885 C 0.89654 0.21432 0.85615 0.0
C886 C 0.91385 0.23098 0.86978 0.0
H887 H 0.95336 0.18867 0.89679 0.0
O888 O 0.00706 0.23199 0.84934 0.0
O889 O 0.97736 0.2526 0.87144 0.0
O890 O 0.01463 0.22921 0.90443 0.0
O891 O 0.97419 0.22625 0.92007 0.0
C892 C 0.87678 0.2252 0.8413 0.0
C893 C 0.87488 0.25244 0.84003 0.0
H894 H 0.87813 0.30565 0.84119 0.0
H895 H 0.91159 0.33198 0.8653 0.0
H896 H 0.92358 0.15755 0.87363 0.0
H897 H 0.8873 0.1738 0.84735 0.0
H898 H 0.86315 0.2128 0.8305 0.0
H899 H 0.85984 0.26057 0.82824 0.0
Mn900 Mn 0.51225 0.75588 0.37629 0.0
Mn901 Mn 0.45106 0.74709 0.39778 0.0
C902 C 0.48131 0.73396 0.35097 0.0
C903 C 0.54417 0.77833 0.3531 0.0
C904 C 0.49606 0.71605 0.4171 0.0
O905 O 0.51015 0.78367 0.40494 0.0
O906 O 0.46873 0.77627 0.41714 0.0
C907 C 0.42897 0.79668 0.38128 0.0
N908 N 0.42881 0.77021 0.3803 0.0
C909 C 0.39158 0.76866 0.35209 0.0
C910 C 0.39128 0.7959 0.35291 0.0
C911 C 0.4101 0.80996 0.36752 0.0
C912 C 0.4108 0.75649 0.36629 0.0
H913 H 0.44335 0.8076 0.39251 0.0
C914 C 0.49048 0.78887 0.41894 0.0
O915 O 0.55009 0.76242 0.37125 0.0
O916 O 0.51973 0.78253 0.34971 0.0
N917 N 0.43191 0.71978 0.38 0.0
C918 C 0.43497 0.69361 0.38111 0.0
C919 C 0.41784 0.67678 0.3673 0.0
C920 C 0.3977 0.687 0.35261 0.0
C921 C 0.39483 0.71399 0.3519 0.0
C922 C 0.4124 0.7298 0.36617 0.0
H923 H 0.45042 0.68564 0.39233 0.0
O924 O 0.50574 0.72971 0.34762 0.0
O925 O 0.47584 0.75024 0.36944 0.0
O926 O 0.51316 0.72715 0.40309 0.0
O927 O 0.47219 0.72196 0.41659 0.0
C928 C 0.37533 0.72582 0.33748 0.0
C929 C 0.37372 0.75314 0.33755 0.0
H930 H 0.37682 0.80622 0.34223 0.0
H931 H 0.41006 0.83099 0.36815 0.0
H932 H 0.42019 0.65597 0.36793 0.0
H933 H 0.38461 0.67395 0.34189 0.0
H934 H 0.36152 0.7141 0.32619 0.0
H935 H 0.35873 0.76201 0.32628 0.0
Mn936 Mn 0.01406 0.76115 0.63136 0.0
Mn937 Mn 0.98404 0.70802 0.65617 0.0
C938 C 0.01296 0.72218 0.6082 0.0
C939 C 0.01319 0.79965 0.60813 0.0
C940 C 0.03672 0.7287 0.67452 0.0
O941 O 0.99161 0.77633 0.66005 0.0
O942 O 0.97032 0.73979 0.67281 0.0
C943 C 0.93087 0.71552 0.63653 0.0
N944 N 0.95221 0.70066 0.63818 0.0
C945 C 0.93113 0.66574 0.61392 0.0
C946 C 0.90886 0.68062 0.61207 0.0
C947 C 0.90879 0.70567 0.6233 0.0
C948 C 0.95261 0.67668 0.62714 0.0
H949 H 0.93068 0.7347 0.64531 0.0
C950 C 0.9747 0.7644 0.67376 0.0
O951 O 0.03113 0.79556 0.62511 0.0
O952 O 0.99545 0.78148 0.60489 0.0
N953 N 0.99529 0.67581 0.64171 0.0
C954 C 0.0184 0.6641 0.64502 0.0
C955 C 0.02184 0.63909 0.63452 0.0
C956 C 1.00137 0.62622 0.62114 0.0
C957 C 0.97762 0.63848 0.6184 0.0
C958 C 0.97538 0.66347 0.62913 0.0
H959 H 0.03411 0.67378 0.65554 0.0
O960 O 0.03037 0.74006 0.60319 0.0
O961 O 0.99661 0.72775 0.62637 0.0
O962 O 0.03903 0.74686 0.65817 0.0
O963 O 0.01675 0.71357 0.67576 0.0
C964 C 0.95606 0.62686 0.60551 0.0
C965 C 0.93289 0.64055 0.60309 0.0
H966 H 0.89177 0.67305 0.60195 0.0
H967 H 0.89172 0.71732 0.62187 0.0
H968 H 0.0402 0.62972 0.63682 0.0
H969 H 1.00409 0.60693 0.61306 0.0
H970 H 0.95717 0.60747 0.59717 0.0
H971 H 0.91657 0.63153 0.59282 0.0
Mn972 Mn 0.51052 0.25722 0.13171 0.0
Mn973 Mn 0.48466 0.20091 0.15385 0.0
C974 C 0.51373 0.21896 0.1075 0.0
C975 C 0.50748 0.29591 0.10894 0.0
C976 C 0.53466 0.22569 0.17473 0.0
O977 O 0.48556 0.26945 0.15997 0.0
O978 O 0.46747 0.23075 0.17037 0.0
C979 C 0.43197 0.20421 0.13152 0.0
N980 N 0.45428 0.19105 0.13447 0.0
C981 C 0.4369 0.15431 0.11008 0.0
C982 C 0.41359 0.16732 0.10704 0.0
C983 C 0.4112 0.19246 0.11763 0.0
C984 C 0.45701 0.16713 0.12382 0.0
H985 H 0.43007 0.2235 0.13969 0.0
C986 C 0.46903 0.25556 0.17242 0.0
O987 O 0.52464 0.29321 0.12702 0.0
O988 O 0.49143 0.2764 0.10467 0.0
N989 N 0.49937 0.17023 0.13939 0.0
C990 C 0.52346 0.16079 0.14323 0.0
C991 C 0.52938 0.1362 0.13303 0.0
C992 C 0.51035 0.1214 0.11945 0.0
C993 C 0.48555 0.13133 0.11618 0.0
C994 C 0.48085 0.15604 0.12656 0.0
H995 H 0.53806 0.17192 0.15396 0.0
O996 O 0.52975 0.23839 0.10366 0.0
O997 O 0.49638 0.22257 0.12517 0.0
O998 O 0.5358 0.24453 0.15908 0.0
O999 O 0.51604 0.20884 0.17485 0.0
C1000 C 0.46529 0.11765 0.10312 0.0
C1001 C 0.44101 0.12919 0.09994 0.0
H1002 H 0.39749 0.15826 0.09646 0.0
H1003 H 0.39335 0.2027 0.11521 0.0
H1004 H 0.54853 0.12863 0.13574 0.0
H1005 H 0.51498 0.10243 0.11163 0.0
H1006 H 0.46828 0.0984 0.09506 0.0
H1007 H 0.42573 0.11867 0.08942 0.0
C1008 C 0.24489 0.7989 0.93235 0.0
C1009 C 0.21915 0.79109 0.92651 0.0
C1010 C 0.25046 0.81843 0.95085 0.0
C1011 C 0.23054 0.83103 0.96403 0.0
H1012 H 0.26088 0.7904 0.92202 0.0
H1013 H 0.27056 0.82397 0.95461 0.0
S1014 S 0.16019 0.81604 0.95817 0.0
N1015 N 0.17362 0.79614 0.93704 0.0
N1016 N 0.18434 0.83298 0.97193 0.0
C1017 C 0.20484 0.82266 0.95943 0.0
C1018 C 0.19907 0.80281 0.94045 0.0
C1019 C 0.04809 0.52822 0.34414 0.0
C1020 C 0.05808 0.51793 0.36697 0.0
C1021 C 0.06285 0.52897 0.32147 0.0
C1022 C 0.0879 0.51888 0.32065 0.0
H1023 H 0.02911 0.53671 0.34409 0.0
H1024 H 0.05482 0.53801 0.30458 0.0
S1025 S 0.12227 0.48848 0.37491 0.0
N1026 N 0.09411 0.49667 0.38727 0.0
N1027 N 0.12168 0.4974 0.34439 0.0
C1028 C 0.09768 0.50752 0.34305 0.0
C1029 C 0.08284 0.50727 0.36631 0.0
C1030 C 0.79235 0.70236 0.91119 0.0
C1031 C 0.79853 0.7278 0.92006 0.0
C1032 C 0.78274 0.68343 0.92809 0.0
C1033 C 0.77951 0.68916 0.95449 0.0
H1034 H 0.79371 0.69739 0.89081 0.0
H1035 H 0.77699 0.66445 0.9203 0.0
S1036 S 0.79469 0.75199 0.98785 0.0
N1037 N 0.80212 0.7572 0.9573 0.0
N1038 N 0.78426 0.72138 0.98907 0.0
C1039 C 0.78674 0.71404 0.96387 0.0
C1040 C 0.79621 0.73345 0.94664 0.0
C1041 C 0.94713 0.01508 0.36023 0.0
C1042 C 0.9659 0.99629 0.36443 0.0
C1043 C 0.93314 0.0155 0.3368 0.0
C1044 C 0.93763 0.99722 0.31682 0.0
H1045 H 0.94255 0.02886 0.37549 0.0
H1046 H 0.918 0.02948 0.33481 0.0
S1047 S 0.98785 0.94676 0.31722 0.0
N1048 N 0.99021 0.96089 0.34604 0.0
N1049 N 0.96458 0.96178 0.30203 0.0
C1050 C 0.95761 0.97942 0.32041 0.0
C1051 C 0.97155 0.97892 0.34421 0.0
C1052 C 0.24048 0.21303 0.59878 0.0
C1053 C 0.21793 0.22746 0.60175 0.0
C1054 C 0.24337 0.19577 0.57775 0.0
C1055 C 0.22394 0.19247 0.55863 0.0
H1056 H 0.25598 0.21499 0.61292 0.0
H1057 H 0.26116 0.18516 0.5764 0.0
S1058 S 0.16133 0.22661 0.55737 0.0
N1059 N 0.17602 0.23782 0.58384 0.0
N1060 N 0.18125 0.20565 0.54425 0.0
C1061 C 0.20126 0.20698 0.56144 0.0
C1062 C 0.1983 0.22436 0.58299 0.0
C1063 C 0.46908 0.49294 0.66635 0.0
C1064 C 0.47496 0.51903 0.66046 0.0
C1065 C 0.4529 0.48646 0.68715 0.0
C1066 C 0.44188 0.50581 0.70292 0.0
H1067 H 0.4766 0.47738 0.65445 0.0
H1068 H 0.44864 0.46608 0.69054 0.0
S1069 S 0.45346 0.57711 0.69709 0.0
N1070 N 0.47014 0.5643 0.67314 0.0
N1071 N 0.43957 0.55232 0.71201 0.0
C1072 C 0.44822 0.53202 0.69759 0.0
C1073 C 0.46475 0.53857 0.67644 0.0
C1074 C 0.79122 0.31801 0.61203 0.0
C1075 C 0.80076 0.29358 0.60499 0.0
C1076 C 0.78446 0.33594 0.59319 0.0
C1077 C 0.78736 0.33025 0.56664 0.0
H1078 H 0.78815 0.32294 0.63221 0.0
H1079 H 0.77647 0.35421 0.5995 0.0
S1080 S 0.8136 0.26958 0.53845 0.0
N1081 N 0.81416 0.26508 0.56996 0.0
N1082 N 0.80183 0.29875 0.53449 0.0
C1083 C 0.7979 0.30623 0.55946 0.0
C1084 C 0.80446 0.28789 0.57865 0.0
C1085 C 0.55985 0.02835 0.65882 0.0
C1086 C 0.5537 1.00244 0.65157 0.0
C1087 C 0.57584 0.03435 0.6802 0.0
C1088 C 0.58648 0.01467 0.69523 0.0
H1089 H 0.55254 0.0442 0.64764 0.0
H1090 H 0.58011 0.05465 0.68471 0.0
S1091 S 0.5746 0.94359 0.6855 0.0
N1092 N 0.55819 0.95691 0.66195 0.0
N1093 N 0.58854 0.96803 0.70189 0.0
C1094 C 0.58014 0.98861 0.68838 0.0
C1095 C 0.56374 0.98254 0.66664 0.0
C1096 C 0.93117 0.24367 0.80202 0.0
C1097 C 0.92639 0.21807 0.79288 0.0
C1098 C 0.94953 0.24917 0.82144 0.0
C1099 C 0.96364 0.22929 0.83263 0.0
H1100 H 0.92017 0.25954 0.79457 0.0
H1101 H 0.95251 0.26916 0.82798 0.0
S1102 S 0.96059 0.15954 0.81397 0.0
N1103 N 0.93879 0.17288 0.79527 0.0
N1104 N 0.97345 0.18348 0.83192 0.0
C1105 C 0.96002 0.20383 0.82301 0.0
C1106 C 0.94117 0.19812 0.80326 0.0
C1107 C 0.51038 0.85499 0.44846 0.0
C1108 C 0.49025 0.85963 0.46604 0.0
C1109 C 0.51106 0.83158 0.43403 0.0
C1110 C 0.4917 0.81192 0.43684 0.0
H1111 H 0.52515 0.86993 0.44516 0.0
H1112 H 0.52633 0.82932 0.41994 0.0
S1113 S 0.43701 0.81351 0.48346 0.0
N1114 N 0.4521 0.84199 0.48744 0.0
N1115 N 0.45335 0.79798 0.46091 0.0
C1116 C 0.47232 0.81595 0.45557 0.0
C1117 C 0.47159 0.83979 0.46999 0.0
C1118 C 0.07843 0.30426 0.79403 0.0
C1119 C 0.10495 0.30362 0.8002 0.0
C1120 C 0.05942 0.2983 0.81249 0.0
C1121 C 0.06627 0.29101 0.83766 0.0
H1122 H 0.07234 0.30904 0.77466 0.0
H1123 H 0.03925 0.29831 0.8066 0.0
S1124 S 0.13314 0.28754 0.86379 0.0
N1125 N 0.13714 0.29626 0.83347 0.0
N1126 N 0.1015 0.28474 0.8681 0.0
C1127 C 0.09274 0.29107 0.84428 0.0
C1128 C 0.11206 0.29746 0.82557 0.0
C1129 C 0.49221 0.65744 0.46114 0.0
C1130 C 0.51833 0.65299 0.46705 0.0
C1131 C 0.48523 0.67792 0.4452 0.0
C1132 C 0.50409 0.69483 0.43444 0.0
H1133 H 0.477 0.64475 0.46861 0.0
H1134 H 0.46485 0.68025 0.44108 0.0
S1135 S 0.5752 0.69266 0.44569 0.0
N1136 N 0.56306 0.66802 0.46217 0.0
N1137 N 0.55015 0.70628 0.43201 0.0
C1138 C 0.53032 0.69078 0.44055 0.0
C1139 C 0.53738 0.66995 0.45685 0.0
C1140 C 0.9446 0.7871 0.73598 0.0
C1141 C 0.92095 0.79724 0.72763 0.0
C1142 C 0.9629 0.77807 0.71825 0.0
C1143 C 0.95844 0.7793 0.69155 0.0
H1144 H 0.94861 0.78526 0.75643 0.0
H1145 H 0.98017 0.76908 0.72548 0.0
S1146 S 0.90046 0.80467 0.65933 0.0
N1147 N 0.89455 0.80836 0.69052 0.0
N1148 N 0.92944 0.79197 0.65734 0.0
C1149 C 0.93561 0.79044 0.68281 0.0
C1150 C 0.91677 0.79938 0.70082 0.0
C1151 C 0.03871 0.86036 0.57505 0.0
C1152 C 0.01699 0.86915 0.56154 0.0
C1153 C 0.03712 0.83815 0.5903 0.0
C1154 C 0.01379 0.82356 0.5925 0.0
H1155 H 0.05731 0.87049 0.57351 0.0
H1156 H 0.0545 0.83212 0.60005 0.0
S1157 S 0.95075 0.83907 0.56258 0.0
N1158 N 0.97095 0.86224 0.55266 0.0
N1159 N 0.96816 0.82001 0.58074 0.0
C1160 C 0.99182 0.83217 0.57934 0.0
C1161 C 0.99337 0.85502 0.564 0.0
C1162 C 0.10459 0.72876 0.70368 0.0
C1163 C 0.10034 0.71825 0.72826 0.0
C1164 C 0.0839 0.73226 0.68648 0.0
C1165 C 0.05828 0.72492 0.69306 0.0
H1166 H 0.12398 0.73469 0.69789 0.0
H1167 H 0.08806 0.74056 0.66781 0.0
S1168 S 0.0372 0.69593 0.75506 0.0
N1169 N 0.06888 0.70025 0.75828 0.0
N1170 N 0.03002 0.70648 0.726 0.0
C1171 C 0.05392 0.71407 0.71753 0.0
C1172 C 0.07492 0.71085 0.73511 0.0
C1173 C 0.02422 0.66121 0.56805 0.0
C1174 C 1.00059 0.65752 0.55452 0.0
C1175 C 0.02832 0.68238 0.58523 0.0
C1176 C 0.00866 0.7001 0.59003 0.0
H1177 H 0.03947 0.64732 0.56582 0.0
H1178 H 0.04666 0.68444 0.59542 0.0
S1179 S 0.94529 0.70215 0.55642 0.0
N1180 N 0.95872 0.67573 0.54467 0.0
N1181 N 0.96623 0.71484 0.57765 0.0
C1182 C 0.9855 0.69744 0.57586 0.0
C1183 C 0.98145 0.67623 0.55805 0.0
C1184 C 0.8081 0.93418 0.20295 0.0
C1185 C 0.79399 0.9229 0.22346 0.0
C1186 C 0.82707 0.95386 0.20753 0.0
C1187 C 0.83323 0.96216 0.23281 0.0
H1188 H 0.8051 0.92727 0.18326 0.0
H1189 H 0.83767 0.96186 0.19134 0.0
S1190 S 0.79924 0.94304 0.29272 0.0
N1191 N 0.785 0.92515 0.26969 0.0
N1192 N 0.82196 0.96055 0.27819 0.0
C1193 C 0.8186 0.95216 0.2533 0.0
C1194 C 0.79876 0.93282 0.24867 0.0
C1195 C 0.82425 0.11207 0.29101 0.0
C1196 C 0.79899 0.10531 0.29905 0.0
C1197 C 0.84244 0.09293 0.28573 0.0
C1198 C 0.83619 0.06634 0.28871 0.0
H1199 H 0.8297 0.13226 0.28793 0.0
H1200 H 0.86137 0.09903 0.27872 0.0
S1201 S 0.77316 0.03877 0.31145 0.0
N1202 N 0.76903 0.07047 0.31121 0.0
N1203 N 0.80317 0.03446 0.30167 0.0
C1204 C 0.81129 0.05945 0.29785 0.0
C1205 C 0.79269 0.07893 0.30287 0.0
C1206 C 0.34361 0.97274 0.98461 0.0
C1207 C 0.36625 0.96387 0.99632 0.0
C1208 C 0.32038 0.95799 0.98526 0.0
C1209 C 0.3188 0.93417 0.99818 0.0
H1210 H 0.34411 0.99076 0.97408 0.0
H1211 H 0.30362 0.96505 0.97515 0.0
S1212 S 0.37237 0.9032 0.03309 0.0
N1213 N 0.38562 0.93033 0.02188 0.0
N1214 N 0.34171 0.90283 0.02371 0.0
C1215 C 0.34107 0.92561 0.01086 0.0
C1216 C 0.36488 0.94039 0.00973 0.0
C1217 C 0.20372 0.41166 0.28967 0.0
C1218 C 0.22841 0.41922 0.29918 0.0
C1219 C 0.18524 0.4302 0.28386 0.0
C1220 C 0.19061 0.45697 0.28774 0.0
H1221 H 0.19891 0.39129 0.28603 0.0
H1222 H 0.16673 0.42349 0.27593 0.0
S1223 S 0.25193 0.48656 0.31405 0.0
N1224 N 0.25693 0.455 0.31341 0.0
N1225 N 0.22224 0.48991 0.30284 0.0
C1226 C 0.21499 0.46468 0.2981 0.0
C1227 C 0.23388 0.44579 0.30369 0.0
C1228 C 0.15929 0.07032 0.52452 0.0
C1229 C 0.15428 0.05739 0.50069 0.0
C1230 C 0.18129 0.08671 0.52804 0.0
C1231 C 0.19857 0.0913 0.50764 0.0
H1232 H 0.14579 0.06828 0.54038 0.0
H1233 H 0.1843 0.09659 0.54652 0.0
S1234 S 0.19727 0.05855 0.44331 0.0
N1235 N 0.17074 0.04754 0.4577 0.0
N1236 N 0.21152 0.07899 0.4642 0.0
C1237 C 0.19464 0.07754 0.48425 0.0
C1238 C 0.17254 0.06055 0.48075 0.0
C1239 C 0.71678 0.08145 0.70138 0.0
C1240 C 0.73002 0.09484 0.72167 0.0
C1241 C 0.6976 0.06233 0.70645 0.0
C1242 C 0.6905 0.05666 0.73194 0.0
H1243 H 0.72136 0.08573 0.68146 0.0
H1244 H 0.6878 0.05242 0.69038 0.0
S1245 S 0.72077 0.08412 0.79183 0.0
N1246 N 0.73559 0.09974 0.76825 0.0
N1247 N 0.69966 0.0638 0.77759 0.0
C1248 C 0.7041 0.06918 0.75234 0.0
C1249 C 0.72376 0.08838 0.74725 0.0
C1250 C 0.36486 0.08277 0.52776 0.0
C1251 C 0.36475 0.05743 0.51701 0.0
C1252 C 0.34348 0.09877 0.52513 0.0
C1253 C 0.32118 0.09025 0.51135 0.0
H1254 H 0.38159 0.09034 0.53846 0.0
H1255 H 0.34442 0.11795 0.53409 0.0
S1256 S 0.31063 0.02548 0.4798 0.0
N1257 N 0.33999 0.02441 0.49246 0.0
N1258 N 0.3002 0.05479 0.48681 0.0
C1259 C 0.32093 0.06518 0.50003 0.0
C1260 C 0.3426 0.04872 0.503 0.0
C1261 C 0.66385 0.4463 0.53107 0.0
C1262 C 0.66302 0.4715 0.52096 0.0
C1263 C 0.68414 0.4297 0.52505 0.0
C1264 C 0.70431 0.43749 0.50843 0.0
H1265 H 0.64837 0.43906 0.54331 0.0
H1266 H 0.68359 0.41032 0.53292 0.0
S1267 S 0.71276 0.5023 0.47881 0.0
N1268 N 0.68544 0.50413 0.49516 0.0
N1269 N 0.72309 0.47262 0.48318 0.0
C1270 C 0.70406 0.46278 0.49858 0.0
C1271 C 0.68356 0.47983 0.50498 0.0
C1272 C 0.74499 0.30075 0.4296 0.0
C1273 C 0.7194 0.29289 0.4232 0.0
C1274 C 0.75015 0.31951 0.44894 0.0
C1275 C 0.72995 0.33135 0.4624 0.0
H1276 H 0.7612 0.29275 0.41922 0.0
H1277 H 0.77016 0.32497 0.45323 0.0
S1278 S 0.65979 0.31615 0.45498 0.0
N1279 N 0.67366 0.29724 0.43325 0.0
N1280 N 0.68362 0.33271 0.46971 0.0
C1281 C 0.70436 0.32309 0.45704 0.0
C1282 C 0.69901 0.30399 0.43722 0.0
C1283 C 0.57332 1.00137 0.85399 0.0
C1284 C 0.55415 0.01977 0.85843 0.0
C1285 C 0.58802 1.00162 0.83112 0.0
C1286 C 0.58393 0.02027 0.81198 0.0
H1287 H 0.57775 0.98747 0.86875 0.0
H1288 H 0.60344 0.98791 0.829 0.0
S1289 S 0.53303 0.07001 0.81314 0.0
N1290 N 0.52993 0.05521 0.84104 0.0
N1291 N 0.55699 0.05563 0.79804 0.0
C1292 C 0.56357 0.03766 0.81569 0.0
C1293 C 0.54884 0.03743 0.83892 0.0
C1294 C 0.28449 0.23922 0.44503 0.0
C1295 C 0.29875 0.23165 0.42313 0.0
C1296 C 0.27511 0.22089 0.46262 0.0
C1297 C 0.28014 0.19439 0.45934 0.0
H1298 H 0.27969 0.25939 0.44811 0.0
H1299 H 0.263 0.22736 0.47841 0.0
S1300 S 0.3172 0.16425 0.40615 0.0
N1301 N 0.3179 0.19558 0.39964 0.0
N1302 N 0.3009 0.16133 0.43341 0.0
C1303 C 0.2955 0.18659 0.43846 0.0
C1304 C 0.30473 0.2052 0.42021 0.0
C1305 C 0.47689 0.48743 0.84307 0.0
C1306 C 0.46741 0.49724 0.86662 0.0
C1307 C 0.46231 0.48871 0.82024 0.0
C1308 C 0.438 0.5004 0.81998 0.0
H1309 H 0.49528 0.47779 0.84249 0.0
H1310 H 0.46987 0.47993 0.80274 0.0
S1311 S 0.4053 0.53045 0.87626 0.0
N1312 N 0.43275 0.51992 0.88822 0.0
N1313 N 0.40552 0.52286 0.8451 0.0
C1314 C 0.42879 0.5113 0.84318 0.0
C1315 C 0.44343 0.50952 0.86657 0.0
C1316 C 0.73792 0.71486 0.09404 0.0
C1317 C 0.71525 0.72931 0.09546 0.0
C1318 C 0.74176 0.69691 0.0738 0.0
C1319 C 0.72321 0.6929 0.05393 0.0
H1320 H 0.75274 0.71728 0.10885 0.0
H1321 H 0.75955 0.68624 0.0737 0.0
S1322 S 0.66077 0.72687 0.04852 0.0
N1323 N 0.6742 0.73898 0.07529 0.0
N1324 N 0.6813 0.70558 0.03703 0.0
C1325 C 0.70049 0.70754 0.05509 0.0
C1326 C 0.69652 0.7256 0.0759 0.0
C1327 C 0.97846 1.00058 0.17613 0.0
C1328 C 0.97055 0.01781 0.15694 0.0
C1329 C 0.96217 0.99396 0.19682 0.0
C1330 C 0.9375 1.00463 0.19935 0.0
H1331 H 0.99752 0.99232 0.17533 0.0
H1332 H 0.96909 0.98067 0.21114 0.0
S1333 S 0.90646 0.04869 0.15323 0.0
N1334 N 0.93539 0.04374 0.14089 0.0
N1335 N 0.9053 0.03209 0.18023 0.0
C1336 C 0.92922 0.02166 0.18023 0.0
C1337 C 0.94559 0.02806 0.15895 0.0
C1338 C 0.31028 0.80089 0.08451 0.0
C1339 C 0.29752 0.80046 0.10846 0.0
C1340 C 0.30388 0.81897 0.06566 0.0
C1341 C 0.28475 0.83749 0.07024 0.0
H1342 H 0.32464 0.78657 0.07999 0.0
H1343 H 0.31361 0.81802 0.04717 0.0
S1344 S 0.24749 0.84575 0.13102 0.0
N1345 N 0.26619 0.82091 0.13648 0.0
N1346 N 0.2543 0.85511 0.10139 0.0
C1347 C 0.27273 0.83793 0.09465 0.0
C1348 C 0.27904 0.81933 0.11365 0.0
C1349 C 0.07581 0.49261 0.16193 0.0
C1350 C 0.05088 0.50282 0.15966 0.0
C1351 C 0.09162 0.49848 0.18351 0.0
C1352 C 0.08324 0.51504 0.20352 0.0
H1353 H 0.0835 0.48052 0.14659 0.0
H1354 H 0.11088 0.49064 0.1841 0.0
S1355 S 0.01862 0.54441 0.20856 0.0
N1356 N 0.01769 0.52828 0.18069 0.0
N1357 N 0.04778 0.54004 0.2207 0.0
C1358 C 0.05815 0.52482 0.20189 0.0
C1359 C 0.04189 0.51854 0.18012 0.0
C1360 C 0.43937 0.69791 0.3009 0.0
C1361 C 0.42658 0.71832 0.2888 0.0
C1362 C 0.45757 0.70295 0.32078 0.0
C1363 C 0.46289 0.72846 0.32965 0.0
H1364 H 0.43522 0.67792 0.295 0.0
H1365 H 0.46694 0.6868 0.32972 0.0
S1366 S 0.43682 0.78882 0.303 0.0
N1367 N 0.42192 0.76514 0.28634 0.0
N1368 N 0.45619 0.77443 0.32341 0.0
C1369 C 0.45106 0.74903 0.31715 0.0
C1370 C 0.43279 0.74399 0.29686 0.0
C1371 C 0.97066 0.34642 0.96535 0.0
C1372 C 0.99259 0.36308 0.96755 0.0
C1373 C 0.97116 0.3234 0.95062 0.0
C1374 C 0.9936 0.31597 0.93717 0.0
H1375 H 0.95282 0.35129 0.97504 0.0
H1376 H 0.95346 0.31162 0.94948 0.0
S1377 S 0.05658 0.35285 0.93724 0.0
N1378 N 0.03763 0.37059 0.9557 0.0
N1379 N 0.03873 0.32726 0.92776 0.0
C1380 C 0.01596 0.33227 0.93969 0.0
C1381 C 0.01542 0.35578 0.95493 0.0
C1382 C 0.6098 0.79093 0.32213 0.0
C1383 C 0.60322 0.79967 0.29743 0.0
C1384 C 0.59062 0.78516 0.34047 0.0
C1385 C 0.56416 0.78827 0.33492 0.0
H1386 H 0.62987 0.78761 0.32699 0.0
H1387 H 0.59658 0.77756 0.35889 0.0
S1388 S 0.53714 0.81311 0.27373 0.0
N1389 N 0.56875 0.81291 0.26889 0.0
N1390 N 0.53263 0.80237 0.3033 0.0
C1391 C 0.55747 0.79822 0.31066 0.0
C1392 C 0.57701 0.80379 0.29191 0.0
C1393 C 1.00291 0.1759 0.97784 0.0
C1394 C 0.02031 0.15685 0.96955 0.0
C1395 C 0.99556 0.19594 0.96151 0.0
C1396 C 1.00564 0.19799 0.9364 0.0
H1397 H 0.99505 0.17548 0.99721 0.0
H1398 H 0.98217 0.21017 0.96873 0.0
S1399 S 0.04994 0.15205 0.90437 0.0
N1400 N 0.04583 0.14042 0.93365 0.0
N1401 N 0.03281 0.17863 0.90346 0.0
C1402 C 0.02287 0.17906 0.92775 0.0
C1403 C 0.03002 0.1584 0.94419 0.0
C1404 C 0.4387 0.30545 0.21801 0.0
C1405 C 0.41797 0.29109 0.2288 0.0
C1406 C 0.45486 0.29416 0.19928 0.0
C1407 C 0.45072 0.26818 0.19069 0.0
H1408 H 0.44284 0.32523 0.22459 0.0
H1409 H 0.47105 0.30566 0.19199 0.0
S1410 S 0.39663 0.22377 0.21116 0.0
N1411 N 0.39271 0.25069 0.22828 0.0
N1412 N 0.4225 0.2294 0.19327 0.0
C1413 C 0.42918 0.25417 0.20074 0.0
C1414 C 0.41297 0.26564 0.21973 0.0
C1415 C 0.52321 0.36431 0.08635 0.0
C1416 C 0.51353 0.3642 0.06085 0.0
C1417 C 0.52044 0.34243 0.10198 0.0
C1418 C 0.5076 0.31956 0.09291 0.0
H1419 H 0.53339 0.38138 0.09423 0.0
H1420 H 0.52877 0.34336 0.12123 0.0
S1421 S 0.47846 0.30903 0.02772 0.0
N1422 N 0.49054 0.33907 0.02727 0.0
N1423 N 0.48467 0.29823 0.0569 0.0
C1424 C 0.49706 0.31939 0.06776 0.0
C1425 C 0.50016 0.34161 0.0517 0.0
C1426 C 0.60251 0.22792 0.20387 0.0
C1427 C 0.59877 0.21636 0.22804 0.0
C1428 C 0.5816 0.23128 0.18691 0.0
C1429 C 0.5563 0.22272 0.19332 0.0
H1430 H 0.62168 0.23472 0.1982 0.0
H1431 H 0.58537 0.24029 0.16849 0.0
S1432 S 0.53654 0.19092 0.25432 0.0
N1433 N 0.56809 0.1963 0.25758 0.0
N1434 N 0.52884 0.20217 0.22568 0.0
C1435 C 0.55243 0.21093 0.21741 0.0
C1436 C 0.57364 0.20789 0.23478 0.0
C1437 C 0.48479 0.17165 0.05799 0.0
C1438 C 0.50522 0.15478 0.05258 0.0
C1439 C 0.48788 0.1924 0.07571 0.0
C1440 C 0.51153 0.19725 0.08861 0.0
H1441 H 0.46612 0.16874 0.0486 0.0
H1442 H 0.47154 0.20466 0.07947 0.0
S1443 S 0.57148 0.16017 0.08099 0.0
N1444 N 0.55023 0.1449 0.06172 0.0
N1445 N 0.55617 0.18491 0.09398 0.0
C1446 C 0.53248 0.18153 0.08266 0.0
C1447 C 0.52927 0.15999 0.06498 0.0
C1448 C 0.30979 0.43797 0.70314 0.0
C1449 C 0.29619 0.42559 0.72327 0.0
C1450 C 0.32909 0.45715 0.70847 0.0
C1451 C 0.33589 0.46387 0.73406 0.0
H1452 H 0.30544 0.43282 0.68317 0.0
H1453 H 0.33922 0.46625 0.69255 0.0
S1454 S 0.3047 0.43918 0.79352 0.0
N1455 N 0.29005 0.42269 0.76975 0.0
N1456 N 0.32611 0.45874 0.77957 0.0
C1457 C 0.32192 0.45234 0.75426 0.0
C1458 C 0.30219 0.43309 0.74891 0.0
C1459 C 0.30063 0.58424 0.81072 0.0
C1460 C 0.30088 0.60829 0.79824 0.0
C1461 C 0.31934 0.56567 0.8051 0.0
C1462 C 0.33922 0.57068 0.7871 0.0
H1463 H 0.28537 0.57944 0.8243 0.0
H1464 H 0.31789 0.54707 0.81455 0.0
S1465 S 0.34952 0.63196 0.75105 0.0
N1466 N 0.32327 0.63688 0.7684 0.0
N1467 N 0.35868 0.60241 0.75802 0.0
C1468 C 0.34023 0.59522 0.77537 0.0
C1469 C 0.32098 0.6139 0.78086 0.0
C1470 C 0.84455 0.46931 0.50969 0.0
C1471 C 0.86789 0.45955 0.4998 0.0
C1472 C 0.82171 0.45381 0.51023 0.0
C1473 C 0.82154 0.42792 0.50128 0.0
H1474 H 0.84375 0.48927 0.51656 0.0
H1475 H 0.80392 0.46235 0.51687 0.0
S1476 S 0.87715 0.39221 0.47502 0.0
N1477 N 0.889 0.4218 0.48124 0.0
N1478 N 0.84651 0.39251 0.484 0.0
C1479 C 0.84479 0.41749 0.49259 0.0
C1480 C 0.8679 0.43331 0.49149 0.0
C1481 C 0.7055 0.90951 0.77755 0.0
C1482 C 0.72329 0.9141 0.79787 0.0
C1483 C 0.68681 0.92775 0.77155 0.0
C1484 C 0.68546 0.9515 0.78537 0.0
H1485 H 0.70622 0.89177 0.76602 0.0
H1486 H 0.67395 0.92354 0.75532 0.0
S1487 S 0.72716 0.97236 0.84102 0.0
N1488 N 0.7379 0.94354 0.83246 0.0
N1489 N 0.70304 0.97807 0.82103 0.0
C1490 C 0.70277 0.95602 0.80619 0.0
C1491 C 0.7216 0.93726 0.81248 0.0
C1492 C 0.67637 0.55592 0.98127 0.0
C1493 C 0.65845 0.55094 1.00119 0.0
C1494 C 0.69712 0.5738 0.9848 0.0
C1495 C 0.70076 0.58738 0.00835 0.0
H1496 H 0.67435 0.54599 0.96271 0.0
H1497 H 0.71039 0.57709 0.96894 0.0
S1498 S 0.66016 0.58144 0.06685 0.0
N1499 N 0.64602 0.56141 0.04548 0.0
N1500 N 0.68586 0.59408 0.05226 0.0
C1501 C 0.68376 0.58201 0.02874 0.0
C1502 C 0.66232 0.56413 0.02509 0.0
C1503 C 0.21098 0.58812 0.2039 0.0
C1504 C 0.2251 0.60104 0.22389 0.0
C1505 C 0.19233 0.5686 0.20937 0.0
C1506 C 0.18665 0.56208 0.235 0.0
H1507 H 0.21463 0.5929 0.18392 0.0
H1508 H 0.18199 0.55887 0.19354 0.0
S1509 S 0.2194 0.58849 0.29407 0.0
N1510 N 0.23283 0.60492 0.27023 0.0
N1511 N 0.19788 0.56825 0.28034 0.0
C1512 C 0.20096 0.57437 0.25506 0.0
C1513 C 0.22008 0.59396 0.24955 0.0
C1514 C 0.86716 0.58506 0.02907 0.0
C1515 C 0.86781 0.55963 0.01859 0.0
C1516 C 0.84536 0.60044 0.02609 0.0
C1517 C 0.82338 0.59117 0.01224 0.0
H1518 H 0.88363 0.59316 0.03982 0.0
H1519 H 0.84571 0.61972 0.03484 0.0
S1520 S 0.81474 0.52578 0.98146 0.0
N1521 N 0.84406 0.52568 0.99433 0.0
N1522 N 0.8035 0.55486 0.98802 0.0
C1523 C 0.82388 0.56598 1.00123 0.0
C1524 C 0.84597 0.55017 1.00455 0.0
C1525 C 0.17355 0.95812 0.03424 0.0
C1526 C 0.15947 0.97095 0.0152 0.0
C1527 C 0.19386 0.94175 0.02763 0.0
C1528 C 0.20107 0.9375 1.00167 0.0
H1529 H 0.16891 0.96083 0.05449 0.0
H1530 H 0.20396 0.93235 0.04314 0.0
S1531 S 0.16965 0.96603 0.94432 0.0
N1532 N 0.15357 0.97778 0.96922 0.0
N1533 N 0.19206 0.94762 0.95672 0.0
C1534 C 0.18719 0.95041 0.9824 0.0
C1535 C 0.16637 0.96696 0.98918 0.0
loop_
_geom_bond_atom_site_label_1
_geom_bond_atom_site_label_2
_geom_bond_distance
_geom_bond_site_symmetry_2
_ccdc_geom_bond_type
C0 C1 1.384 . S
C0 H13 0.947 . S
C0 C35 1.382 . S
C1 C0 1.384 . S
C1 C2 1.378 . S
C2 C1 1.378 . S
C2 C3 1.378 1_655 S
C2 H14 0.952 1_545 S
C3 C2 1.378 1_455 S
C3 H15 0.950 . S
C3 C34 1.383 . S
H4 C23 0.947 . S
H5 C24 0.946 . S
H6 C26 0.953 1_556 S
H7 C27 0.945 . S
H8 C29 0.952 . S
H9 C30 0.949 . S
H10 C32 0.950 1_655 S
H11 C33 0.948 . S
H12 C35 0.951 . S
H13 C0 0.947 . S
H14 C2 0.952 1_565 S
H15 C3 0.950 . S
N16 C19 1.382 . S
N16 C21 1.363 . S
N17 C19 1.371 . S
N17 C20 1.372 . S
N18 C20 1.361 . S
N18 C21 1.377 . S
C19 N16 1.382 . S
C19 N17 1.371 . S
C19 C22 1.480 . S
C20 N17 1.372 . S
C20 N18 1.361 . S
C20 C28 1.457 . S
C21 N16 1.363 . S
C21 N18 1.377 . S
C21 C34 1.479 . S
C22 C19 1.480 . S
C22 C23 1.383 1_545 S
C22 C27 1.385 . S
C23 H4 0.947 . S
C23 C22 1.383 1_565 S
C23 C24 1.388 . S
C24 H5 0.946 . S
C24 C23 1.388 . S
C24 C25 1.384 . S
C25 C24 1.384 . S
C25 C26 1.377 . S
C26 H6 0.953 1_554 S
C26 C25 1.377 . S
C26 C27 1.369 1_565 S
C27 H7 0.945 . S
C27 C22 1.385 . S
C27 C26 1.369 1_545 S
C28 C20 1.457 . S
C28 C29 1.372 1_554 S
C28 C33 1.364 . S
C29 H8 0.952 . S
C29 C28 1.372 1_556 S
C29 C30 1.389 . S
C30 H9 0.949 . S
C30 C29 1.389 . S
C30 C31 1.387 . S
C31 C30 1.387 . S
C31 C32 1.372 . S
C32 H10 0.950 1_455 S
C32 C31 1.372 . S
C32 C33 1.379 1_556 S
C33 H11 0.948 . S
C33 C28 1.364 . S
C33 C32 1.379 1_554 S
C34 C3 1.383 . S
C34 C21 1.479 . S
C34 C35 1.398 1_455 S
C35 C0 1.382 . S
C35 H12 0.951 . S
C35 C34 1.398 1_655 S
C36 C37 1.384 . S
C36 H49 0.947 . S
C36 C71 1.382 . S
C37 C36 1.384 . S
C37 C38 1.378 . S
C38 C37 1.378 . S
C38 C39 1.378 . S
C38 H50 0.952 . S
C39 C38 1.378 . S
C39 H51 0.950 . S
C39 C70 1.383 . S
H40 C59 0.947 . S
H41 C60 0.946 . S
H42 C62 0.953 . S
H43 C63 0.945 . S
H44 C65 0.952 . S
H45 C66 0.949 . S
H46 C68 0.950 . S
H47 C69 0.948 . S
H48 C71 0.951 . S
H49 C36 0.947 . S
H50 C38 0.952 . S
H51 C39 0.950 . S
N52 C55 1.382 . S
N52 C57 1.363 . S
N53 C55 1.371 . S
N53 C56 1.372 . S
N54 C56 1.361 . S
N54 C57 1.377 . S
C55 N52 1.382 . S
C55 N53 1.371 . S
C55 C58 1.480 . S
C56 N53 1.372 . S
C56 N54 1.361 . S
C56 C64 1.457 . S
C57 N52 1.363 . S
C57 N54 1.377 . S
C57 C70 1.479 . S
C58 C55 1.480 . S
C58 C59 1.383 . S
C58 C63 1.385 . S
C59 H40 0.947 . S
C59 C58 1.383 . S
C59 C60 1.388 . S
C60 H41 0.946 . S
C60 C59 1.388 . S
C60 C61 1.384 . S
C61 C60 1.384 . S
C61 C62 1.377 . S
C62 H42 0.953 . S
C62 C61 1.377 . S
C62 C63 1.369 . S
C63 H43 0.945 . S
C63 C58 1.385 . S
C63 C62 1.369 . S
C64 C56 1.457 . S
C64 C65 1.372 . S
C64 C69 1.364 . S
C65 H44 0.952 . S
C65 C64 1.372 . S
C65 C66 1.389 . S
C66 H45 0.949 . S
C66 C65 1.389 . S
C66 C67 1.387 . S
C67 C66 1.387 . S
C67 C68 1.372 . S
C68 H46 0.950 . S
C68 C67 1.372 . S
C68 C69 1.379 . S
C69 H47 0.948 . S
C69 C64 1.364 . S
C69 C68 1.379 . S
C70 C39 1.383 . S
C70 C57 1.479 . S
C70 C71 1.398 . S
C71 C36 1.382 . S
C71 H48 0.951 . S
C71 C70 1.398 . S
C72 C73 1.407 . S
C72 H85 0.918 1_655 S
C72 C107 1.390 1_556 S
C73 C72 1.407 . S
C73 C74 1.378 . S
C74 C73 1.378 . S
C74 C75 1.378 . S
C74 H86 0.952 . S
C75 C74 1.378 . S
C75 H87 0.950 . S
C75 C106 1.383 . S
H76 C95 0.947 1_556 S
H77 C96 0.946 1_556 S
H78 C98 0.953 . S
H79 C99 0.945 . S
H80 C101 0.989 . S
H81 C102 0.949 . S
H82 C104 0.950 . S
H83 C105 0.948 . S
H84 C107 0.951 1_455 S
H85 C72 0.918 1_455 S
H86 C74 0.952 . S
H87 C75 0.950 . S
N88 C91 1.382 . S
N88 C93 1.363 . S
N89 C91 1.371 . S
N89 C92 1.372 . S
N90 C92 1.361 . S
N90 C93 1.377 . S
C91 N88 1.382 . S
C91 N89 1.371 . S
C91 C94 1.480 . S
C92 N89 1.372 . S
C92 N90 1.361 . S
C92 C100 1.457 1_655 S
C93 N88 1.363 . S
C93 N90 1.377 . S
C93 C106 1.479 1_554 S
C94 C91 1.480 . S
C94 C95 1.383 . S
C94 C99 1.385 . S
C95 H76 0.947 1_554 S
C95 C94 1.383 . S
C95 C96 1.388 . S
C96 H77 0.946 1_554 S
C96 C95 1.388 . S
C96 C97 1.384 . S
C97 C96 1.384 . S
C97 C98 1.377 . S
C98 H78 0.953 . S
C98 C97 1.377 . S
C98 C99 1.369 . S
C99 H79 0.945 . S
C99 C94 1.385 . S
C99 C98 1.369 . S
C100 C92 1.457 1_455 S
C100 C101 1.359 1_455 S
C100 C105 1.364 . S
C101 H80 0.989 . S
C101 C100 1.359 1_655 S
C101 C102 1.364 1_655 S
C102 H81 0.949 . S
C102 C101 1.364 1_455 S
C102 C103 1.387 . S
C103 C102 1.387 . S
C103 C104 1.372 . S
C104 H82 0.950 . S
C104 C103 1.372 . S
C104 C105 1.379 . S
C105 H83 0.948 . S
C105 C100 1.364 . S
C105 C104 1.379 . S
C106 C75 1.383 . S
C106 C93 1.479 1_556 S
C106 C107 1.398 1_556 S
C107 C72 1.390 1_554 S
C107 H84 0.951 1_655 S
C107 C106 1.398 1_554 S
C108 C109 1.384 . S
C108 H121 0.947 . S
C108 C143 1.382 . S
C109 C108 1.384 . S
C109 C110 1.378 . S
C110 C109 1.378 . S
C110 C111 1.378 . S
C110 H122 0.952 . S
C111 C110 1.378 . S
C111 H123 0.950 . S
C111 C142 1.383 . S
H112 C131 0.947 . S
H113 C132 0.946 . S
H114 C134 0.953 . S
H115 C135 0.945 . S
H116 C137 0.952 . S
H117 C138 0.949 . S
H118 C140 0.950 . S
H119 C141 0.948 . S
H120 C143 0.951 . S
H121 C108 0.947 . S
H122 C110 0.952 . S
H123 C111 0.950 . S
N124 C127 1.382 . S
N124 C129 1.363 . S
N125 C127 1.371 . S
N125 C128 1.372 . S
N126 C128 1.361 . S
N126 C129 1.377 . S
C127 N124 1.382 . S
C127 N125 1.371 . S
C127 C130 1.480 . S
C128 N125 1.372 . S
C128 N126 1.361 . S
C128 C136 1.457 . S
C129 N124 1.363 . S
C129 N126 1.377 . S
C129 C142 1.479 . S
C130 C127 1.480 . S
C130 C131 1.383 . S
C130 C135 1.385 . S
C131 H112 0.947 . S
C131 C130 1.383 . S
C131 C132 1.388 . S
C132 H113 0.946 . S
C132 C131 1.388 . S
C132 C133 1.384 . S
C133 C132 1.384 . S
C133 C134 1.377 . S
C134 H114 0.953 . S
C134 C133 1.377 . S
C134 C135 1.369 . S
C135 H115 0.945 . S
C135 C130 1.385 . S
C135 C134 1.369 . S
C136 C128 1.457 . S
C136 C137 1.372 . S
C136 C141 1.364 . S
C137 H116 0.952 . S
C137 C136 1.372 . S
C137 C138 1.389 . S
C138 H117 0.949 . S
C138 C137 1.389 . S
C138 C139 1.387 . S
C139 C138 1.387 . S
C139 C140 1.372 . S
C140 H118 0.950 . S
C140 C139 1.372 . S
C140 C141 1.379 . S
C141 H119 0.948 . S
C141 C136 1.364 . S
C141 C140 1.379 . S
C142 C111 1.383 . S
C142 C129 1.479 . S
C142 C143 1.398 . S
C143 C108 1.382 . S
C143 H120 0.951 . S
C143 C142 1.398 . S
C144 C145 1.384 . S
C144 H157 0.947 . S
C144 C179 1.382 . S
C145 C144 1.384 . S
C145 C146 1.378 . S
C146 C145 1.378 . S
C146 C147 1.378 . S
C146 H158 0.952 1_455 S
C147 C146 1.378 . S
C147 H159 0.950 . S
C147 C178 1.383 . S
H148 C167 0.947 . S
H149 C168 0.946 . S
H150 C170 0.953 . S
H151 C171 0.945 1_545 S
H152 C173 0.952 . S
H153 C174 0.949 . S
H154 C176 0.950 . S
H155 C177 0.948 . S
H156 C179 0.951 . S
H157 C144 0.947 . S
H158 C146 0.952 1_655 S
H159 C147 0.950 . S
N160 C163 1.382 . S
N160 C165 1.363 . S
N161 C163 1.371 . S
N161 C164 1.372 . S
N162 C164 1.361 . S
N162 C165 1.377 . S
C163 N160 1.382 . S
C163 N161 1.371 . S
C163 C166 1.480 . S
C164 N161 1.372 . S
C164 N162 1.361 . S
C164 C172 1.457 1_565 S
C165 N160 1.363 . S
C165 N162 1.377 . S
C165 C178 1.479 . S
C166 C163 1.480 . S
C166 C167 1.383 1_455 S
C166 C171 1.385 . S
C167 H148 0.947 . S
C167 C166 1.383 1_655 S
C167 C168 1.388 . S
C168 H149 0.946 . S
C168 C167 1.388 . S
C168 C169 1.384 . S
C169 C168 1.384 . S
C169 C170 1.377 1_565 S
C170 H150 0.953 . S
C170 C169 1.377 1_545 S
C170 C171 1.369 1_645 S
C171 H151 0.945 1_565 S
C171 C166 1.385 . S
C171 C170 1.369 1_465 S
C172 C164 1.457 1_545 S
C172 C173 1.372 . S
C172 C177 1.364 1_545 S
C173 H152 0.952 . S
C173 C172 1.372 . S
C173 C174 1.389 . S
C174 H153 0.949 . S
C174 C173 1.389 . S
C174 C175 1.387 . S
C175 C174 1.387 . S
C175 C176 1.372 . S
C176 H154 0.950 . S
C176 C175 1.372 . S
C176 C177 1.379 1_545 S
C177 H155 0.948 . S
C177 C172 1.364 1_565 S
C177 C176 1.379 1_565 S
C178 C147 1.383 . S
C178 C165 1.479 . S
C178 C179 1.398 . S
C179 C144 1.382 . S
C179 H156 0.951 . S
C179 C178 1.398 . S
C180 C181 1.384 . S
C180 H193 0.947 . S
C180 C215 1.382 . S
C181 C180 1.384 . S
C181 C182 1.378 . S
C182 C181 1.378 . S
C182 C183 1.378 . S
C182 H194 0.952 . S
C183 C182 1.378 . S
C183 H195 0.950 . S
C183 C214 1.383 . S
H184 C203 0.947 . S
H185 C204 0.946 . S
H186 C206 0.953 . S
H187 C207 0.945 . S
H188 C209 0.952 . S
H189 C210 0.949 . S
H190 C212 0.950 . S
H191 C213 0.948 . S
H192 C215 0.951 . S
H193 C180 0.947 . S
H194 C182 0.952 . S
H195 C183 0.950 . S
N196 C199 1.382 . S
N196 C201 1.363 . S
N197 C199 1.371 . S
N197 C200 1.372 . S
N198 C200 1.361 . S
N198 C201 1.377 . S
C199 N196 1.382 . S
C199 N197 1.371 . S
C199 C202 1.480 . S
C200 N197 1.372 . S
C200 N198 1.361 . S
C200 C208 1.457 . S
C201 N196 1.363 . S
C201 N198 1.377 . S
C201 C214 1.479 . S
C202 C199 1.480 . S
C202 C203 1.383 . S
C202 C207 1.385 . S
C203 H184 0.947 . S
C203 C202 1.383 . S
C203 C204 1.388 . S
C204 H185 0.946 . S
C204 C203 1.388 . S
C204 C205 1.384 . S
C205 C204 1.384 . S
C205 C206 1.377 . S
C206 H186 0.953 . S
C206 C205 1.377 . S
C206 C207 1.369 . S
C207 H187 0.945 . S
C207 C202 1.385 . S
C207 C206 1.369 . S
C208 C200 1.457 . S
C208 C209 1.372 . S
C208 C213 1.364 . S
C209 H188 0.952 . S
C209 C208 1.372 . S
C209 C210 1.389 . S
C210 H189 0.949 . S
C210 C209 1.389 . S
C210 C211 1.387 . S
C211 C210 1.387 . S
C211 C212 1.372 . S
C212 H190 0.950 . S
C212 C211 1.372 . S
C212 C213 1.379 . S
C213 H191 0.948 . S
C213 C208 1.364 . S
C213 C212 1.379 . S
C214 C183 1.383 . S
C214 C201 1.479 . S
C214 C215 1.398 . S
C215 C180 1.382 . S
C215 H192 0.951 . S
C215 C214 1.398 . S
C216 C217 1.384 1_455 S
C216 H229 0.947 . S
C216 C251 1.382 . S
C217 C216 1.384 1_655 S
C217 C218 1.378 . S
C218 C217 1.378 . S
C218 C219 1.378 . S
C218 H230 0.952 . S
C219 C218 1.378 . S
C219 H231 0.950 . S
C219 C250 1.383 . S
H220 C239 0.947 . S
H221 C240 0.946 . S
H222 C242 0.953 . S
H223 C243 0.945 . S
H224 C245 0.952 1_655 S
H225 C246 0.949 . S
H226 C248 0.950 . S
H227 C249 0.948 . S
H228 C251 0.951 . S
H229 C216 0.947 . S
H230 C218 0.952 . S
H231 C219 0.950 . S
N232 C235 1.382 . S
N232 C237 1.363 . S
N233 C235 1.371 . S
N233 C236 1.372 . S
N234 C236 1.361 . S
N234 C237 1.377 . S
C235 N232 1.382 . S
C235 N233 1.371 . S
C235 C238 1.480 . S
C236 N233 1.372 . S
C236 N234 1.361 . S
C236 C244 1.457 1_655 S
C237 N232 1.363 . S
C237 N234 1.377 . S
C237 C250 1.479 . S
C238 C235 1.480 . S
C238 C239 1.383 . S
C238 C243 1.385 . S
C239 H220 0.947 . S
C239 C238 1.383 . S
C239 C240 1.388 . S
C240 H221 0.946 . S
C240 C239 1.388 . S
C240 C241 1.384 . S
C241 C240 1.384 . S
C241 C242 1.377 . S
C242 H222 0.953 . S
C242 C241 1.377 . S
C242 C243 1.369 . S
C243 H223 0.945 . S
C243 C238 1.385 . S
C243 C242 1.369 . S
C244 C236 1.457 1_455 S
C244 C245 1.372 . S
C244 C249 1.364 . S
C245 H224 0.952 1_455 S
C245 C244 1.372 . S
C245 C246 1.389 . S
C246 H225 0.949 . S
C246 C245 1.389 . S
C246 C247 1.387 . S
C247 C246 1.387 . S
C247 C248 1.372 . S
C248 H226 0.950 . S
C248 C247 1.372 . S
C248 C249 1.379 . S
C249 H227 0.948 . S
C249 C244 1.364 . S
C249 C248 1.379 . S
C250 C219 1.383 . S
C250 C237 1.479 . S
C250 C251 1.398 1_655 S
C251 C216 1.382 . S
C251 H228 0.951 . S
C251 C250 1.398 1_455 S
C252 C253 1.384 . S
C252 H265 0.947 . S
C252 C287 1.382 . S
C253 C252 1.384 . S
C253 C254 1.378 . S
C254 C253 1.378 . S
C254 C255 1.378 . S
C254 H266 0.952 . S
C255 C254 1.378 . S
C255 H267 0.950 . S
C255 C286 1.383 . S
H256 C275 0.947 . S
H257 C276 0.946 . S
H258 C278 0.953 . S
H259 C279 0.945 . S
H260 C281 0.952 . S
H261 C282 0.949 . S
H262 C284 0.950 . S
H263 C285 0.948 . S
H264 C287 0.951 . S
H265 C252 0.947 . S
H266 C254 0.952 . S
H267 C255 0.950 . S
N268 C271 1.382 . S
N268 C273 1.363 . S
N269 C271 1.371 . S
N269 C272 1.372 . S
N270 C272 1.361 . S
N270 C273 1.377 . S
C271 N268 1.382 . S
C271 N269 1.371 . S
C271 C274 1.480 . S
C272 N269 1.372 . S
C272 N270 1.361 . S
C272 C280 1.457 . S
C273 N268 1.363 . S
C273 N270 1.377 . S
C273 C286 1.479 . S
C274 C271 1.480 . S
C274 C275 1.383 . S
C274 C279 1.385 . S
C275 H256 0.947 . S
C275 C274 1.383 . S
C275 C276 1.388 . S
C276 H257 0.946 . S
C276 C275 1.388 . S
C276 C277 1.384 . S
C277 C276 1.384 . S
C277 C278 1.377 . S
C278 H258 0.953 . S
C278 C277 1.377 . S
C278 C279 1.369 . S
C279 H259 0.945 . S
C279 C274 1.385 . S
C279 C278 1.369 . S
C280 C272 1.457 . S
C280 C281 1.372 . S
C280 C285 1.364 . S
C281 H260 0.952 . S
C281 C280 1.372 . S
C281 C282 1.389 . S
C282 H261 0.949 . S
C282 C281 1.389 . S
C282 C283 1.387 . S
C283 C282 1.387 . S
C283 C284 1.372 . S
C284 H262 0.950 . S
C284 C283 1.372 . S
C284 C285 1.379 . S
C285 H263 0.948 . S
C285 C280 1.364 . S
C285 C284 1.379 . S
C286 C255 1.383 . S
C286 C273 1.479 . S
C286 C287 1.398 . S
C287 C252 1.382 . S
C287 H264 0.951 . S
C287 C286 1.398 . S
C288 C289 1.384 . S
C288 H301 0.947 . S
C288 C323 1.382 . S
C289 C288 1.384 . S
C289 C290 1.378 . S
C290 C289 1.378 . S
C290 C291 1.378 . S
C290 H302 0.952 . S
C291 C290 1.378 . S
C291 H303 0.950 . S
C291 C322 1.383 . S
H292 C311 0.947 . S
H293 C312 0.946 . S
H294 C314 0.953 . S
H295 C315 0.945 . S
H296 C317 0.952 . S
H297 C318 0.949 . S
H298 C320 0.950 . S
H299 C321 0.948 . S
H300 C323 0.951 . S
H301 C288 0.947 . S
H302 C290 0.952 . S
H303 C291 0.950 . S
N304 C307 1.382 . S
N304 C309 1.363 . S
N305 C307 1.371 . S
N305 C308 1.372 . S
N306 C308 1.361 . S
N306 C309 1.377 . S
C307 N304 1.382 . S
C307 N305 1.371 . S
C307 C310 1.480 . S
C308 N305 1.372 . S
C308 N306 1.361 . S
C308 C316 1.457 . S
C309 N304 1.363 . S
C309 N306 1.377 . S
C309 C322 1.479 . S
C310 C307 1.480 . S
C310 C311 1.383 . S
C310 C315 1.385 . S
C311 H292 0.947 . S
C311 C310 1.383 . S
C311 C312 1.388 . S
C312 H293 0.946 . S
C312 C311 1.388 . S
C312 C313 1.384 . S
C313 C312 1.384 . S
C313 C314 1.377 . S
C314 H294 0.953 . S
C314 C313 1.377 . S
C314 C315 1.369 . S
C315 H295 0.945 . S
C315 C310 1.385 . S
C315 C314 1.369 . S
C316 C308 1.457 . S
C316 C317 1.372 . S
C316 C321 1.364 . S
C317 H296 0.952 . S
C317 C316 1.372 . S
C317 C318 1.389 . S
C318 H297 0.949 . S
C318 C317 1.389 . S
C318 C319 1.387 . S
C319 C318 1.387 . S
C319 C320 1.372 . S
C320 H298 0.950 . S
C320 C319 1.372 . S
C320 C321 1.379 . S
C321 H299 0.948 . S
C321 C316 1.364 . S
C321 C320 1.379 . S
C322 C291 1.383 . S
C322 C309 1.479 . S
C322 C323 1.398 . S
C323 C288 1.382 . S
C323 H300 0.951 . S
C323 C322 1.398 . S
C324 C325 1.384 . S
C324 H337 0.947 . S
C324 C359 1.382 . S
C325 C324 1.384 . S
C325 C326 1.378 . S
C326 C325 1.378 . S
C326 C327 1.378 . S
C326 H338 0.952 . S
C327 C326 1.378 . S
C327 H339 0.950 . S
C327 C358 1.383 . S
H328 C347 0.959 . S
H329 C348 0.946 . S
H330 C350 0.953 . S
H331 C351 0.945 . S
H332 C353 0.952 1_545 S
H333 C354 0.927 1_545 S
H334 C356 0.950 . S
H335 C357 0.948 . S
H336 C359 0.951 . S
H337 C324 0.947 . S
H338 C326 0.952 . S
H339 C327 0.950 . S
N340 C343 1.382 . S
N340 C345 1.363 . S
N341 C343 1.371 . S
N341 C344 1.372 . S
N342 C344 1.361 . S
N342 C345 1.377 . S
C343 N340 1.382 . S
C343 N341 1.371 . S
C343 C346 1.480 1_565 S
C344 N341 1.372 . S
C344 N342 1.361 . S
C344 C352 1.457 . S
C345 N340 1.363 . S
C345 N342 1.377 . S
C345 C358 1.479 . S
C346 C343 1.480 1_545 S
C346 C347 1.380 1_545 S
C346 C351 1.385 . S
C347 H328 0.959 . S
C347 C346 1.380 1_565 S
C347 C348 1.379 1_565 S
C348 H329 0.946 . S
C348 C347 1.379 1_545 S
C348 C349 1.384 . S
C349 C348 1.384 . S
C349 C350 1.377 . S
C350 H330 0.953 . S
C350 C349 1.377 . S
C350 C351 1.369 . S
C351 H331 0.945 . S
C351 C346 1.385 . S
C351 C350 1.369 . S
C352 C344 1.457 . S
C352 C353 1.372 . S
C352 C357 1.364 . S
C353 H332 0.952 1_565 S
C353 C352 1.372 . S
C353 C354 1.391 . S
C354 H333 0.927 1_565 S
C354 C353 1.391 . S
C354 C355 1.407 . S
C355 C354 1.407 . S
C355 C356 1.372 . S
C356 H334 0.950 . S
C356 C355 1.372 . S
C356 C357 1.379 . S
C357 H335 0.948 . S
C357 C352 1.364 . S
C357 C356 1.379 . S
C358 C327 1.383 . S
C358 C345 1.479 . S
C358 C359 1.398 . S
C359 C324 1.382 . S
C359 H336 0.951 . S
C359 C358 1.398 . S
C360 C361 1.384 . S
C360 H373 0.947 . S
C360 C395 1.382 . S
C361 C360 1.384 . S
C361 C362 1.378 . S
C362 C361 1.378 . S
C362 C363 1.378 . S
C362 H374 0.952 . S
C363 C362 1.378 . S
C363 H375 0.950 . S
C363 C394 1.383 . S
H364 C383 0.947 . S
H365 C384 0.946 . S
H366 C386 0.953 . S
H367 C387 0.945 . S
H368 C389 0.952 . S
H369 C390 0.949 . S
H370 C392 0.950 . S
H371 C393 0.948 . S
H372 C395 0.951 . S
H373 C360 0.947 . S
H374 C362 0.952 . S
H375 C363 0.950 . S
N376 C379 1.382 . S
N376 C381 1.363 . S
N377 C379 1.371 . S
N377 C380 1.372 . S
N378 C380 1.361 . S
N378 C381 1.377 . S
C379 N376 1.382 . S
C379 N377 1.371 . S
C379 C382 1.480 . S
C380 N377 1.372 . S
C380 N378 1.361 . S
C380 C388 1.457 . S
C381 N376 1.363 . S
C381 N378 1.377 . S
C381 C394 1.479 . S
C382 C379 1.480 . S
C382 C383 1.383 . S
C382 C387 1.385 . S
C383 H364 0.947 . S
C383 C382 1.383 . S
C383 C384 1.388 . S
C384 H365 0.946 . S
C384 C383 1.388 . S
C384 C385 1.384 . S
C385 C384 1.384 . S
C385 C386 1.377 . S
C386 H366 0.953 . S
C386 C385 1.377 . S
C386 C387 1.369 . S
C387 H367 0.945 . S
C387 C382 1.385 . S
C387 C386 1.369 . S
C388 C380 1.457 . S
C388 C389 1.372 . S
C388 C393 1.364 . S
C389 H368 0.952 . S
C389 C388 1.372 . S
C389 C390 1.389 . S
C390 H369 0.949 . S
C390 C389 1.389 . S
C390 C391 1.387 . S
C391 C390 1.387 . S
C391 C392 1.372 . S
C392 H370 0.950 . S
C392 C391 1.372 . S
C392 C393 1.379 . S
C393 H371 0.948 . S
C393 C388 1.364 . S
C393 C392 1.379 . S
C394 C363 1.383 . S
C394 C381 1.479 . S
C394 C395 1.398 . S
C395 C360 1.382 . S
C395 H372 0.951 . S
C395 C394 1.398 . S
C396 C397 1.384 . S
C396 H409 0.947 . S
C396 C431 1.382 . S
C397 C396 1.384 . S
C397 C398 1.378 . S
C398 C397 1.378 . S
C398 C399 1.378 . S
C398 H410 0.952 . S
C399 C398 1.378 . S
C399 H411 0.950 . S
C399 C430 1.383 . S
H400 C419 0.947 . S
H401 C420 0.946 . S
H402 C422 0.953 . S
H403 C423 0.945 . S
H404 C425 0.952 . S
H405 C426 0.949 . S
H406 C428 0.950 . S
H407 C429 0.948 . S
H408 C431 0.951 . S
H409 C396 0.947 . S
H410 C398 0.952 . S
H411 C399 0.950 . S
N412 C415 1.382 . S
N412 C417 1.363 . S
N413 C415 1.371 . S
N413 C416 1.372 . S
N414 C416 1.361 . S
N414 C417 1.377 . S
C415 N412 1.382 . S
C415 N413 1.371 . S
C415 C418 1.480 . S
C416 N413 1.372 . S
C416 N414 1.361 . S
C416 C424 1.457 . S
C417 N412 1.363 . S
C417 N414 1.377 . S
C417 C430 1.479 . S
C418 C415 1.480 . S
C418 C419 1.383 . S
C418 C423 1.385 . S
C419 H400 0.947 . S
C419 C418 1.383 . S
C419 C420 1.388 . S
C420 H401 0.946 . S
C420 C419 1.388 . S
C420 C421 1.384 . S
C421 C420 1.384 . S
C421 C422 1.377 . S
C422 H402 0.953 . S
C422 C421 1.377 . S
C422 C423 1.369 . S
C423 H403 0.945 . S
C423 C418 1.385 . S
C423 C422 1.369 . S
C424 C416 1.457 . S
C424 C425 1.372 . S
C424 C429 1.364 . S
C425 H404 0.952 . S
C425 C424 1.372 . S
C425 C426 1.389 . S
C426 H405 0.949 . S
C426 C425 1.389 . S
C426 C427 1.387 . S
C427 C426 1.387 . S
C427 C428 1.372 . S
C428 H406 0.950 . S
C428 C427 1.372 . S
C428 C429 1.379 . S
C429 H407 0.948 . S
C429 C424 1.364 . S
C429 C428 1.379 . S
C430 C399 1.383 . S
C430 C417 1.479 . S
C430 C431 1.398 . S
C431 C396 1.382 . S
C431 H408 0.951 . S
C431 C430 1.398 . S
C432 C433 1.384 . S
C432 H445 0.947 . S
C432 C467 1.382 . S
C433 C432 1.384 . S
C433 C434 1.378 . S
C434 C433 1.378 . S
C434 C435 1.378 . S
C434 H446 0.952 . S
C435 C434 1.378 . S
C435 H447 0.950 . S
C435 C466 1.383 . S
H436 C455 0.947 . S
H437 C456 0.946 . S
H438 C458 0.953 . S
H439 C459 0.945 . S
H440 C461 0.952 . S
H441 C462 0.949 . S
H442 C464 0.950 . S
H443 C465 0.948 . S
H444 C467 0.951 . S
H445 C432 0.947 . S
H446 C434 0.952 . S
H447 C435 0.950 . S
N448 C451 1.382 . S
N448 C453 1.363 . S
N449 C451 1.371 . S
N449 C452 1.372 . S
N450 C452 1.361 . S
N450 C453 1.377 . S
C451 N448 1.382 . S
C451 N449 1.371 . S
C451 C454 1.480 . S
C452 N449 1.372 . S
C452 N450 1.361 . S
C452 C460 1.457 . S
C453 N448 1.363 . S
C453 N450 1.377 . S
C453 C466 1.479 . S
C454 C451 1.480 . S
C454 C455 1.383 . S
C454 C459 1.385 . S
C455 H436 0.947 . S
C455 C454 1.383 . S
C455 C456 1.388 . S
C456 H437 0.946 . S
C456 C455 1.388 . S
C456 C457 1.384 . S
C457 C456 1.384 . S
C457 C458 1.377 . S
C458 H438 0.953 . S
C458 C457 1.377 . S
C458 C459 1.369 . S
C459 H439 0.945 . S
C459 C454 1.385 . S
C459 C458 1.369 . S
C460 C452 1.457 . S
C460 C461 1.372 . S
C460 C465 1.364 . S
C461 H440 0.952 . S
C461 C460 1.372 . S
C461 C462 1.389 . S
C462 H441 0.949 . S
C462 C461 1.389 . S
C462 C463 1.387 . S
C463 C462 1.387 . S
C463 C464 1.372 . S
C464 H442 0.950 . S
C464 C463 1.372 . S
C464 C465 1.379 . S
C465 H443 0.948 . S
C465 C460 1.364 . S
C465 C464 1.379 . S
C466 C435 1.383 . S
C466 C453 1.479 . S
C466 C467 1.398 . S
C467 C432 1.382 . S
C467 H444 0.951 . S
C467 C466 1.398 . S
C468 C469 1.384 . S
C468 H481 0.947 . S
C468 C503 1.382 . S
C469 C468 1.384 . S
C469 C470 1.378 . S
C470 C469 1.378 . S
C470 C471 1.378 1_554 S
C470 H482 0.952 . S
C471 C470 1.378 1_556 S
C471 H483 0.950 . S
C471 C502 1.383 . S
H472 C491 0.947 . S
H473 C492 0.946 . S
H474 C494 0.953 . S
H475 C495 0.945 . S
H476 C497 0.952 . S
H477 C498 0.949 . S
H478 C500 0.950 1_554 S
H479 C501 0.955 . S
H480 C503 0.951 . S
H481 C468 0.947 . S
H482 C470 0.952 . S
H483 C471 0.950 . S
N484 C487 1.382 . S
N484 C489 1.363 . S
N485 C487 1.371 . S
N485 C488 1.372 . S
N486 C488 1.361 . S
N486 C489 1.377 . S
C487 N484 1.382 . S
C487 N485 1.371 . S
C487 C490 1.480 . S
C488 N485 1.372 . S
C488 N486 1.361 . S
C488 C496 1.457 . S
C489 N484 1.363 . S
C489 N486 1.377 . S
C489 C502 1.479 . S
C490 C487 1.480 . S
C490 C491 1.383 . S
C490 C495 1.385 . S
C491 H472 0.947 . S
C491 C490 1.383 . S
C491 C492 1.388 . S
C492 H473 0.946 . S
C492 C491 1.388 . S
C492 C493 1.384 . S
C493 C492 1.384 . S
C493 C494 1.377 . S
C494 H474 0.953 . S
C494 C493 1.377 . S
C494 C495 1.369 . S
C495 H475 0.945 . S
C495 C490 1.385 . S
C495 C494 1.369 . S
C496 C488 1.457 . S
C496 C497 1.372 . S
C496 C501 1.364 . S
C497 H476 0.952 . S
C497 C496 1.372 . S
C497 C498 1.389 . S
C498 H477 0.949 . S
C498 C497 1.389 . S
C498 C499 1.387 . S
C499 C498 1.387 . S
C499 C500 1.372 . S
C500 H478 0.950 1_556 S
C500 C499 1.372 . S
C500 C501 1.379 . S
C501 H479 0.955 . S
C501 C496 1.364 . S
C501 C500 1.379 . S
C502 C471 1.383 . S
C502 C489 1.479 . S
C502 C503 1.398 1_556 S
C503 C468 1.382 . S
C503 H480 0.951 . S
C503 C502 1.398 1_554 S
C504 C505 1.384 . S
C504 H517 0.947 . S
C504 C539 1.382 . S
C505 C504 1.384 . S
C505 C506 1.378 . S
C506 C505 1.378 . S
C506 C507 1.378 . S
C506 H518 0.952 . S
C507 C506 1.378 . S
C507 H519 0.950 . S
C507 C538 1.383 . S
H508 C527 0.947 . S
H509 C528 0.946 . S
H510 C530 0.953 . S
H511 C531 0.945 . S
H512 C533 0.952 . S
H513 C534 0.949 . S
H514 C536 0.950 . S
H515 C537 0.948 . S
H516 C539 0.951 . S
H517 C504 0.947 . S
H518 C506 0.952 . S
H519 C507 0.950 . S
N520 C523 1.382 . S
N520 C525 1.363 . S
N521 C523 1.371 . S
N521 C524 1.372 . S
N522 C524 1.361 . S
N522 C525 1.377 . S
C523 N520 1.382 . S
C523 N521 1.371 . S
C523 C526 1.480 . S
C524 N521 1.372 . S
C524 N522 1.361 . S
C524 C532 1.457 . S
C525 N520 1.363 . S
C525 N522 1.377 . S
C525 C538 1.479 . S
C526 C523 1.480 . S
C526 C527 1.383 . S
C526 C531 1.385 . S
C527 H508 0.947 . S
C527 C526 1.383 . S
C527 C528 1.388 . S
C528 H509 0.946 . S
C528 C527 1.388 . S
C528 C529 1.384 . S
C529 C528 1.384 . S
C529 C530 1.377 . S
C530 H510 0.953 . S
C530 C529 1.377 . S
C530 C531 1.369 . S
C531 H511 0.945 . S
C531 C526 1.385 . S
C531 C530 1.369 . S
C532 C524 1.457 . S
C532 C533 1.372 . S
C532 C537 1.364 . S
C533 H512 0.952 . S
C533 C532 1.372 . S
C533 C534 1.389 . S
C534 H513 0.949 . S
C534 C533 1.389 . S
C534 C535 1.387 . S
C535 C534 1.387 . S
C535 C536 1.372 . S
C536 H514 0.950 . S
C536 C535 1.372 . S
C536 C537 1.379 . S
C537 H515 0.948 . S
C537 C532 1.364 . S
C537 C536 1.379 . S
C538 C507 1.383 . S
C538 C525 1.479 . S
C538 C539 1.398 . S
C539 C504 1.382 . S
C539 H516 0.951 . S
C539 C538 1.398 . S
C540 C541 1.384 . S
C540 H553 0.947 . S
C540 C575 1.382 . S
C541 C540 1.384 . S
C541 C542 1.378 . S
C542 C541 1.378 . S
C542 C543 1.378 . S
C542 H554 0.952 . S
C543 C542 1.378 . S
C543 H555 0.950 . S
C543 C574 1.383 . S
H544 C563 0.947 . S
H545 C564 0.946 . S
H546 C566 0.953 . S
H547 C567 0.945 . S
H548 C569 0.952 1_565 S
H549 C570 0.949 1_565 S
H550 C572 0.950 . S
H551 C573 0.948 . S
H552 C575 0.951 1_556 S
H553 C540 0.947 . S
H554 C542 0.952 . S
H555 C543 0.950 . S
N556 C559 1.382 . S
N556 C561 1.363 . S
N557 C559 1.371 . S
N557 C560 1.372 . S
N558 C560 1.361 . S
N558 C561 1.377 . S
C559 N556 1.382 . S
C559 N557 1.371 . S
C559 C562 1.473 1_545 S
C560 N557 1.372 . S
C560 N558 1.361 . S
C560 C568 1.457 . S
C561 N556 1.363 . S
C561 N558 1.377 . S
C561 C574 1.479 1_556 S
C562 C559 1.473 1_565 S
C562 C563 1.381 1_566 S
C562 C567 1.394 . S
C563 H544 0.947 . S
C563 C562 1.381 1_544 S
C563 C564 1.388 1_545 S
C564 H545 0.946 . S
C564 C563 1.388 1_565 S
C564 C565 1.384 1_554 S
C565 C564 1.384 1_556 S
C565 C566 1.377 . S
C566 H546 0.953 . S
C566 C565 1.377 . S
C566 C567 1.369 . S
C567 H547 0.945 . S
C567 C562 1.394 . S
C567 C566 1.369 . S
C568 C560 1.457 . S
C568 C569 1.372 . S
C568 C573 1.364 . S
C569 H548 0.952 1_545 S
C569 C568 1.372 . S
C569 C570 1.389 . S
C570 H549 0.949 1_545 S
C570 C569 1.389 . S
C570 C571 1.387 . S
C571 C570 1.387 . S
C571 C572 1.372 . S
C572 H550 0.950 . S
C572 C571 1.372 . S
C572 C573 1.379 . S
C573 H551 0.948 . S
C573 C568 1.364 . S
C573 C572 1.379 . S
C574 C543 1.383 . S
C574 C561 1.479 1_554 S
C574 C575 1.398 . S
C575 C540 1.382 . S
C575 H552 0.951 1_554 S
C575 C574 1.398 . S
Mn576 O581 2.095 . S
Mn576 O591 2.162 . S
Mn576 O592 2.297 . S
Mn576 O600 2.385 1_554 S
Mn576 O601 2.209 1_554 S
Mn576 O602 2.094 . S
Mn577 O582 2.121 . S
Mn577 N584 2.257 . S
Mn577 N593 2.282 . S
Mn577 O601 2.215 . S
Mn577 O603 2.117 . S
C578 O600 1.234 . S
C578 O601 1.283 . S
C579 O591 1.281 . S
C579 O592 1.236 . S
C580 O602 1.240 . S
C580 O603 1.264 1_554 S
O581 Mn576 2.095 . S
O581 C590 1.273 . S
O582 Mn577 2.121 . S
O582 C590 1.228 1_556 S
C583 N584 1.326 . S
C583 C587 1.460 . S
C583 H589 0.929 . S
N584 Mn577 2.257 . S
N584 C583 1.326 . S
N584 C588 1.362 . S
C585 C586 1.258 . S
C585 C588 1.431 . S
C585 C605 1.449 . S
C586 C585 1.258 . S
C586 C587 1.477 . S
C586 H606 0.931 . S
C587 C583 1.460 . S
C587 C586 1.477 . S
C587 H607 0.930 . S
C588 N584 1.362 . S
C588 C585 1.431 . S
C588 C598 1.476 . S
H589 C583 0.929 . S
C590 O581 1.273 . S
C590 O582 1.228 1_554 S
O591 Mn576 2.162 . S
O591 C579 1.281 . S
O592 Mn576 2.297 . S
O592 C579 1.236 . S
N593 Mn577 2.282 . S
N593 C594 1.328 . S
N593 C598 1.318 . S
C594 N593 1.328 . S
C594 C595 1.457 . S
C594 H599 0.929 . S
C595 C594 1.457 . S
C595 C596 1.291 . S
C595 H608 0.931 . S
C596 C595 1.291 . S
C596 C597 1.373 . S
C596 H609 0.929 . S
C597 C596 1.373 . S
C597 C598 1.396 . S
C597 C604 1.403 . S
C598 C588 1.476 . S
C598 N593 1.318 . S
C598 C597 1.396 . S
H599 C594 0.929 . S
O600 Mn576 2.385 1_556 S
O600 C578 1.234 . S
O601 Mn576 2.209 1_556 S
O601 Mn577 2.215 . S
O601 C578 1.283 . S
O602 Mn576 2.094 . S
O602 C580 1.240 . S
O603 Mn577 2.117 . S
O603 C580 1.264 1_556 S
C604 C597 1.403 . S
C604 C605 1.399 . S
C604 H610 0.929 . S
C605 C585 1.449 . S
C605 C604 1.399 . S
C605 H611 0.930 . S
H606 C586 0.931 . S
H607 C587 0.930 . S
H608 C595 0.931 . S
H609 C596 0.929 . S
H610 C604 0.929 . S
H611 C605 0.930 . S
Mn612 O617 2.095 . S
Mn612 O627 2.162 . S
Mn612 O628 2.297 . S
Mn612 O636 2.385 . S
Mn612 O637 2.209 . S
Mn612 O638 2.094 . S
Mn613 O618 2.121 . S
Mn613 N620 2.257 . S
Mn613 N629 2.282 . S
Mn613 O637 2.215 . S
Mn613 O639 2.117 . S
C614 O636 1.234 . S
C614 O637 1.283 . S
C615 O627 1.281 . S
C615 O628 1.236 . S
C616 O638 1.240 . S
C616 O639 1.264 . S
O617 Mn612 2.095 . S
O617 C626 1.250 . S
O618 Mn613 2.121 . S
O618 C626 1.258 . S
C619 N620 1.326 . S
C619 C623 1.460 . S
C619 H625 0.929 . S
N620 Mn613 2.257 . S
N620 C619 1.326 . S
N620 C624 1.362 . S
C621 C622 1.258 . S
C621 C624 1.431 . S
C621 C641 1.449 . S
C622 C621 1.258 . S
C622 C623 1.477 . S
C622 H642 0.931 . S
C623 C619 1.460 . S
C623 C622 1.477 . S
C623 H643 0.930 . S
C624 N620 1.362 . S
C624 C621 1.431 . S
C624 C634 1.476 . S
H625 C619 0.929 . S
C626 O617 1.250 . S
C626 O618 1.258 . S
O627 Mn612 2.162 . S
O627 C615 1.281 . S
O628 Mn612 2.297 . S
O628 C615 1.236 . S
N629 Mn613 2.282 . S
N629 C630 1.328 . S
N629 C634 1.318 . S
C630 N629 1.328 . S
C630 C631 1.457 . S
C630 H635 0.929 . S
C631 C630 1.457 . S
C631 C632 1.291 . S
C631 H644 0.931 . S
C632 C631 1.291 . S
C632 C633 1.373 . S
C632 H645 0.929 . S
C633 C632 1.373 . S
C633 C634 1.396 . S
C633 C640 1.403 . S
C634 C624 1.476 . S
C634 N629 1.318 . S
C634 C633 1.396 . S
H635 C630 0.929 . S
O636 Mn612 2.385 . S
O636 C614 1.234 . S
O637 Mn612 2.209 . S
O637 Mn613 2.215 . S
O637 C614 1.283 . S
O638 Mn612 2.094 . S
O638 C616 1.240 . S
O639 Mn613 2.117 . S
O639 C616 1.264 . S
C640 C633 1.403 . S
C640 C641 1.399 . S
C640 H646 0.929 . S
C641 C621 1.449 . S
C641 C640 1.399 . S
C641 H647 0.930 . S
H642 C622 0.931 . S
H643 C623 0.930 . S
H644 C631 0.931 . S
H645 C632 0.929 . S
H646 C640 0.929 . S
H647 C641 0.930 . S
Mn648 O653 2.095 1_554 S
Mn648 O663 2.162 . S
Mn648 O664 2.297 1_554 S
Mn648 O672 2.385 . S
Mn648 O673 2.209 1_554 S
Mn648 O674 2.094 . S
Mn649 O654 2.121 . S
Mn649 N656 2.257 . S
Mn649 N665 2.282 . S
Mn649 O673 2.215 . S
Mn649 O675 2.117 1_556 S
C650 O672 1.224 1_556 S
C650 O673 1.290 . S
C651 O663 1.281 . S
C651 O664 1.236 1_554 S
C652 O674 1.240 . S
C652 O675 1.264 . S
O653 Mn648 2.095 1_556 S
O653 C662 1.250 . S
O654 Mn649 2.121 . S
O654 C662 1.258 . S
C655 N656 1.326 . S
C655 C659 1.460 . S
C655 H661 0.929 . S
N656 Mn649 2.257 . S
N656 C655 1.326 . S
N656 C660 1.362 . S
C657 C658 1.258 . S
C657 C660 1.431 . S
C657 C677 1.449 . S
C658 C657 1.258 . S
C658 C659 1.477 . S
C658 H678 0.931 . S
C659 C655 1.460 . S
C659 C658 1.477 . S
C659 H679 0.930 . S
C660 N656 1.362 . S
C660 C657 1.431 . S
C660 C670 1.476 . S
H661 C655 0.929 . S
C662 O653 1.250 . S
C662 O654 1.258 . S
O663 Mn648 2.162 . S
O663 C651 1.281 . S
O664 Mn648 2.297 1_556 S
O664 C651 1.236 1_556 S
N665 Mn649 2.282 . S
N665 C666 1.328 1_556 S
N665 C670 1.318 . S
C666 N665 1.328 1_554 S
C666 C667 1.457 . S
C666 H671 0.929 . S
C667 C666 1.457 . S
C667 C668 1.291 . S
C667 H680 0.931 . S
C668 C667 1.291 . S
C668 C669 1.373 1_554 S
C668 H681 0.929 . S
C669 C668 1.373 1_556 S
C669 C670 1.396 . S
C669 C676 1.403 . S
C670 C660 1.476 . S
C670 N665 1.318 . S
C670 C669 1.396 . S
H671 C666 0.929 . S
O672 Mn648 2.385 . S
O672 C650 1.224 1_554 S
O673 Mn648 2.209 1_556 S
O673 Mn649 2.215 . S
O673 C650 1.290 . S
O674 Mn648 2.094 . S
O674 C652 1.240 . S
O675 Mn649 2.117 1_554 S
O675 C652 1.264 . S
C676 C669 1.403 . S
C676 C677 1.399 . S
C676 H682 0.929 . S
C677 C657 1.449 . S
C677 C676 1.399 . S
C677 H683 0.930 . S
H678 C658 0.931 . S
H679 C659 0.930 . S
H680 C667 0.931 . S
H681 C668 0.929 . S
H682 C676 0.929 . S
H683 C677 0.930 . S
Mn684 O689 2.095 . S
Mn684 O699 2.162 . S
Mn684 O700 2.297 . S
Mn684 O708 2.385 1_545 S
Mn684 O709 2.209 1_545 S
Mn684 O710 2.094 . S
Mn685 O690 2.121 . S
Mn685 N692 2.257 . S
Mn685 N701 2.282 . S
Mn685 O709 2.215 . S
Mn685 O711 2.117 . S
C686 O708 1.234 . S
C686 O709 1.283 . S
C687 O699 1.281 . S
C687 O700 1.236 . S
C688 O710 1.240 . S
C688 O711 1.264 1_545 S
O689 Mn684 2.095 . S
O689 C698 1.250 1_545 S
O690 Mn685 2.121 . S
O690 C698 1.258 . S
C691 N692 1.326 . S
C691 C695 1.460 . S
C691 H697 0.929 . S
N692 Mn685 2.257 . S
N692 C691 1.326 . S
N692 C696 1.362 . S
C693 C694 1.258 . S
C693 C696 1.431 . S
C693 C713 1.449 . S
C694 C693 1.258 . S
C694 C695 1.477 . S
C694 H714 0.931 . S
C695 C691 1.460 . S
C695 C694 1.477 . S
C695 H715 0.930 . S
C696 N692 1.362 . S
C696 C693 1.431 . S
C696 C706 1.476 . S
H697 C691 0.929 . S
C698 O689 1.250 1_565 S
C698 O690 1.258 . S
O699 Mn684 2.162 . S
O699 C687 1.281 . S
O700 Mn684 2.297 . S
O700 C687 1.236 . S
N701 Mn685 2.282 . S
N701 C702 1.328 . S
N701 C706 1.318 . S
C702 N701 1.328 . S
C702 C703 1.457 . S
C702 H707 0.929 . S
C703 C702 1.457 . S
C703 C704 1.291 . S
C703 H716 0.931 . S
C704 C703 1.291 . S
C704 C705 1.373 . S
C704 H717 0.929 . S
C705 C704 1.373 . S
C705 C706 1.396 . S
C705 C712 1.403 . S
C706 C696 1.476 . S
C706 N701 1.318 . S
C706 C705 1.396 . S
H707 C702 0.929 . S
O708 Mn684 2.385 1_565 S
O708 C686 1.234 . S
O709 Mn684 2.209 1_565 S
O709 Mn685 2.215 . S
O709 C686 1.283 . S
O710 Mn684 2.094 . S
O710 C688 1.240 . S
O711 Mn685 2.117 . S
O711 C688 1.264 1_565 S
C712 C705 1.403 . S
C712 C713 1.399 . S
C712 H718 0.929 . S
C713 C693 1.449 . S
C713 C712 1.399 . S
C713 H719 0.930 . S
H714 C694 0.931 . S
H715 C695 0.930 . S
H716 C703 0.931 . S
H717 C704 0.929 . S
H718 C712 0.929 . S
H719 C713 0.930 . S
Mn720 O725 2.095 . S
Mn720 O735 2.162 . S
Mn720 O736 2.297 . S
Mn720 O744 2.385 . S
Mn720 O745 2.209 . S
Mn720 O746 2.094 . S
Mn721 O726 2.121 . S
Mn721 N728 2.257 . S
Mn721 N737 2.282 . S
Mn721 O745 2.215 . S
Mn721 O747 2.117 . S
C722 O744 1.234 . S
C722 O745 1.283 . S
C723 O735 1.281 . S
C723 O736 1.236 . S
C724 O746 1.240 . S
C724 O747 1.264 . S
O725 Mn720 2.095 . S
O725 C734 1.250 . S
O726 Mn721 2.121 . S
O726 C734 1.258 . S
C727 N728 1.326 . S
C727 C731 1.460 . S
C727 H733 0.929 . S
N728 Mn721 2.257 . S
N728 C727 1.326 . S
N728 C732 1.362 . S
C729 C730 1.258 . S
C729 C732 1.431 . S
C729 C749 1.449 . S
C730 C729 1.258 . S
C730 C731 1.477 . S
C730 H750 0.931 . S
C731 C727 1.460 . S
C731 C730 1.477 . S
C731 H751 0.930 . S
C732 N728 1.362 . S
C732 C729 1.431 . S
C732 C742 1.476 . S
H733 C727 0.929 . S
C734 O725 1.250 . S
C734 O726 1.258 . S
O735 Mn720 2.162 . S
O735 C723 1.281 . S
O736 Mn720 2.297 . S
O736 C723 1.236 . S
N737 Mn721 2.282 . S
N737 C738 1.328 . S
N737 C742 1.318 . S
C738 N737 1.328 . S
C738 C739 1.457 . S
C738 H743 0.929 . S
C739 C738 1.457 . S
C739 C740 1.291 . S
C739 H752 0.931 . S
C740 C739 1.291 . S
C740 C741 1.373 . S
C740 H753 0.929 . S
C741 C740 1.373 . S
C741 C742 1.396 . S
C741 C748 1.403 . S
C742 C732 1.476 . S
C742 N737 1.318 . S
C742 C741 1.396 . S
H743 C738 0.929 . S
O744 Mn720 2.385 . S
O744 C722 1.234 . S
O745 Mn720 2.209 . S
O745 Mn721 2.215 . S
O745 C722 1.283 . S
O746 Mn720 2.094 . S
O746 C724 1.240 . S
O747 Mn721 2.117 . S
O747 C724 1.264 . S
C748 C741 1.403 . S
C748 C749 1.399 . S
C748 H754 0.929 . S
C749 C729 1.449 . S
C749 C748 1.399 . S
C749 H755 0.930 . S
H750 C730 0.931 . S
H751 C731 0.930 . S
H752 C739 0.931 . S
H753 C740 0.929 . S
H754 C748 0.929 . S
H755 C749 0.930 . S
Mn756 O761 2.095 . S
Mn756 O771 2.162 . S
Mn756 O772 2.297 . S
Mn756 O780 2.385 . S
Mn756 O781 2.209 . S
Mn756 O782 2.094 . S
Mn757 O762 2.121 . S
Mn757 N764 2.257 . S
Mn757 N773 2.282 . S
Mn757 O781 2.215 . S
Mn757 O783 2.117 . S
C758 O780 1.234 . S
C758 O781 1.283 . S
C759 O771 1.281 . S
C759 O772 1.236 . S
C760 O782 1.240 . S
C760 O783 1.264 . S
O761 Mn756 2.095 . S
O761 C770 1.250 . S
O762 Mn757 2.121 . S
O762 C770 1.258 . S
C763 N764 1.326 . S
C763 C767 1.460 . S
C763 H769 0.929 . S
N764 Mn757 2.257 . S
N764 C763 1.326 . S
N764 C768 1.362 . S
C765 C766 1.258 . S
C765 C768 1.431 . S
C765 C785 1.449 . S
C766 C765 1.258 . S
C766 C767 1.477 . S
C766 H786 0.931 . S
C767 C763 1.460 . S
C767 C766 1.477 . S
C767 H787 0.930 . S
C768 N764 1.362 . S
C768 C765 1.431 . S
C768 C778 1.476 . S
H769 C763 0.929 . S
C770 O761 1.250 . S
C770 O762 1.258 . S
O771 Mn756 2.162 . S
O771 C759 1.281 . S
O772 Mn756 2.297 . S
O772 C759 1.236 . S
N773 Mn757 2.282 . S
N773 C774 1.328 . S
N773 C778 1.318 . S
C774 N773 1.328 . S
C774 C775 1.457 . S
C774 H779 0.929 . S
C775 C774 1.457 . S
C775 C776 1.291 . S
C775 H788 0.931 . S
C776 C775 1.291 . S
C776 C777 1.373 . S
C776 H789 0.929 . S
C777 C776 1.373 . S
C777 C778 1.396 . S
C777 C784 1.403 . S
C778 C768 1.476 . S
C778 N773 1.318 . S
C778 C777 1.396 . S
H779 C774 0.929 . S
O780 Mn756 2.385 . S
O780 C758 1.234 . S
O781 Mn756 2.209 . S
O781 Mn757 2.215 . S
O781 C758 1.283 . S
O782 Mn756 2.094 . S
O782 C760 1.240 . S
O783 Mn757 2.117 . S
O783 C760 1.264 . S
C784 C777 1.403 . S
C784 C785 1.399 . S
C784 H790 0.929 . S
C785 C765 1.449 . S
C785 C784 1.399 . S
C785 H791 0.930 . S
H786 C766 0.931 . S
H787 C767 0.930 . S
H788 C775 0.931 . S
H789 C776 0.929 . S
H790 C784 0.929 . S
H791 C785 0.930 . S
Mn792 O797 2.095 . S
Mn792 O807 2.162 . S
Mn792 O808 2.297 . S
Mn792 O816 2.385 . S
Mn792 O817 2.209 . S
Mn792 O818 2.094 . S
Mn793 O798 2.121 . S
Mn793 N800 2.257 . S
Mn793 N809 2.282 . S
Mn793 O817 2.215 . S
Mn793 O819 2.117 . S
C794 O816 1.234 . S
C794 O817 1.283 . S
C795 O807 1.281 . S
C795 O808 1.236 . S
C796 O818 1.240 . S
C796 O819 1.264 . S
O797 Mn792 2.095 . S
O797 C806 1.250 . S
O798 Mn793 2.121 . S
O798 C806 1.258 . S
C799 N800 1.326 . S
C799 C803 1.460 . S
C799 H805 0.929 . S
N800 Mn793 2.257 . S
N800 C799 1.326 . S
N800 C804 1.362 . S
C801 C802 1.258 . S
C801 C804 1.431 . S
C801 C821 1.449 . S
C802 C801 1.258 . S
C802 C803 1.477 . S
C802 H822 0.931 . S
C803 C799 1.460 . S
C803 C802 1.477 . S
C803 H823 0.930 . S
C804 N800 1.362 . S
C804 C801 1.431 . S
C804 C814 1.476 . S
H805 C799 0.929 . S
C806 O797 1.250 . S
C806 O798 1.258 . S
O807 Mn792 2.162 . S
O807 C795 1.281 . S
O808 Mn792 2.297 . S
O808 C795 1.236 . S
N809 Mn793 2.282 . S
N809 C810 1.328 . S
N809 C814 1.318 . S
C810 N809 1.328 . S
C810 C811 1.457 . S
C810 H815 0.929 . S
C811 C810 1.457 . S
C811 C812 1.291 . S
C811 H824 0.931 . S
C812 C811 1.291 . S
C812 C813 1.373 . S
C812 H825 0.929 . S
C813 C812 1.373 . S
C813 C814 1.396 . S
C813 C820 1.403 . S
C814 C804 1.476 . S
C814 N809 1.318 . S
C814 C813 1.396 . S
H815 C810 0.929 . S
O816 Mn792 2.385 . S
O816 C794 1.234 . S
O817 Mn792 2.209 . S
O817 Mn793 2.215 . S
O817 C794 1.283 . S
O818 Mn792 2.094 . S
O818 C796 1.240 . S
O819 Mn793 2.117 . S
O819 C796 1.264 . S
C820 C813 1.403 . S
C820 C821 1.399 . S
C820 H826 0.929 . S
C821 C801 1.449 . S
C821 C820 1.399 . S
C821 H827 0.930 . S
H822 C802 0.931 . S
H823 C803 0.930 . S
H824 C811 0.931 . S
H825 C812 0.929 . S
H826 C820 0.929 . S
H827 C821 0.930 . S
Mn828 O833 2.095 . S
Mn828 O843 2.162 . S
Mn828 O844 2.297 . S
Mn828 O852 2.385 1_565 S
Mn828 O853 2.209 1_565 S
Mn828 O854 2.094 . S
Mn829 O834 2.121 . S
Mn829 N836 2.257 . S
Mn829 N845 2.282 . S
Mn829 O853 2.215 . S
Mn829 O855 2.117 . S
C830 O852 1.234 . S
C830 O853 1.283 . S
C831 O843 1.281 . S
C831 O844 1.236 . S
C832 O854 1.219 1_545 S
C832 O855 1.291 . S
O833 Mn828 2.095 . S
O833 C842 1.250 1_565 S
O834 Mn829 2.121 . S
O834 C842 1.258 . S
C835 N836 1.326 . S
C835 C839 1.460 . S
C835 H841 0.929 . S
N836 Mn829 2.257 . S
N836 C835 1.326 . S
N836 C840 1.362 . S
C837 C838 1.258 . S
C837 C840 1.431 . S
C837 C857 1.449 . S
C838 C837 1.258 . S
C838 C839 1.477 . S
C838 H858 0.931 . S
C839 C835 1.460 . S
C839 C838 1.477 . S
C839 H859 0.930 . S
C840 N836 1.362 . S
C840 C837 1.431 . S
C840 C850 1.476 . S
H841 C835 0.929 . S
C842 O833 1.250 1_545 S
C842 O834 1.258 . S
O843 Mn828 2.162 . S
O843 C831 1.281 . S
O844 Mn828 2.297 . S
O844 C831 1.236 . S
N845 Mn829 2.282 . S
N845 C846 1.328 . S
N845 C850 1.318 . S
C846 N845 1.328 . S
C846 C847 1.457 . S
C846 H851 0.929 . S
C847 C846 1.457 . S
C847 C848 1.291 . S
C847 H860 0.931 . S
C848 C847 1.291 . S
C848 C849 1.373 . S
C848 H861 0.929 . S
C849 C848 1.373 . S
C849 C850 1.396 . S
C849 C856 1.403 . S
C850 C840 1.476 . S
C850 N845 1.318 . S
C850 C849 1.396 . S
H851 C846 0.929 . S
O852 Mn828 2.385 1_545 S
O852 C830 1.234 . S
O853 Mn828 2.209 1_545 S
O853 Mn829 2.215 . S
O853 C830 1.283 . S
O854 Mn828 2.094 . S
O854 C832 1.219 1_565 S
O855 Mn829 2.117 . S
O855 C832 1.291 . S
C856 C849 1.403 . S
C856 C857 1.399 . S
C856 H862 0.929 . S
C857 C837 1.449 . S
C857 C856 1.399 . S
C857 H863 0.930 . S
H858 C838 0.931 . S
H859 C839 0.930 . S
H860 C847 0.931 . S
H861 C848 0.929 . S
H862 C856 0.929 . S
H863 C857 0.930 . S
Mn864 O869 2.095 . S
Mn864 O879 2.162 . S
Mn864 O880 2.297 . S
Mn864 O888 2.385 1_455 S
Mn864 O889 2.209 1_455 S
Mn864 O890 2.094 . S
Mn865 O870 2.121 . S
Mn865 N872 2.257 . S
Mn865 N881 2.282 . S
Mn865 O889 2.215 . S
Mn865 O891 2.117 . S
C866 O888 1.234 . S
C866 O889 1.283 . S
C867 O879 1.281 . S
C867 O880 1.236 . S
C868 O890 1.240 . S
C868 O891 1.264 1_455 S
O869 Mn864 2.095 . S
O869 C878 1.250 1_455 S
O870 Mn865 2.121 . S
O870 C878 1.258 . S
C871 N872 1.326 . S
C871 C875 1.460 . S
C871 H877 0.929 . S
N872 Mn865 2.257 . S
N872 C871 1.326 . S
N872 C876 1.362 . S
C873 C874 1.258 . S
C873 C876 1.431 . S
C873 C893 1.449 . S
C874 C873 1.258 . S
C874 C875 1.477 . S
C874 H894 0.931 . S
C875 C871 1.460 . S
C875 C874 1.477 . S
C875 H895 0.930 . S
C876 N872 1.362 . S
C876 C873 1.431 . S
C876 C886 1.476 . S
H877 C871 0.929 . S
C878 O869 1.250 1_655 S
C878 O870 1.258 . S
O879 Mn864 2.162 . S
O879 C867 1.281 . S
O880 Mn864 2.297 . S
O880 C867 1.236 . S
N881 Mn865 2.282 . S
N881 C882 1.328 . S
N881 C886 1.318 . S
C882 N881 1.328 . S
C882 C883 1.457 . S
C882 H887 0.929 . S
C883 C882 1.457 . S
C883 C884 1.291 . S
C883 H896 0.931 . S
C884 C883 1.291 . S
C884 C885 1.373 . S
C884 H897 0.929 . S
C885 C884 1.373 . S
C885 C886 1.396 . S
C885 C892 1.403 . S
C886 C876 1.476 . S
C886 N881 1.318 . S
C886 C885 1.396 . S
H887 C882 0.929 . S
O888 Mn864 2.385 1_655 S
O888 C866 1.234 . S
O889 Mn864 2.209 1_655 S
O889 Mn865 2.215 . S
O889 C866 1.283 . S
O890 Mn864 2.094 . S
O890 C868 1.240 . S
O891 Mn865 2.117 . S
O891 C868 1.264 1_655 S
C892 C885 1.403 . S
C892 C893 1.399 . S
C892 H898 0.929 . S
C893 C873 1.449 . S
C893 C892 1.399 . S
C893 H899 0.930 . S
H894 C874 0.931 . S
H895 C875 0.930 . S
H896 C883 0.931 . S
H897 C884 0.929 . S
H898 C892 0.929 . S
H899 C893 0.930 . S
Mn900 O905 2.095 . S
Mn900 O915 2.162 . S
Mn900 O916 2.297 . S
Mn900 O924 2.385 . S
Mn900 O925 2.209 . S
Mn900 O926 2.094 . S
Mn901 O906 2.121 . S
Mn901 N908 2.257 . S
Mn901 N917 2.282 . S
Mn901 O925 2.215 . S
Mn901 O927 2.117 . S
C902 O924 1.234 . S
C902 O925 1.283 . S
C903 O915 1.281 . S
C903 O916 1.236 . S
C904 O926 1.240 . S
C904 O927 1.264 . S
O905 Mn900 2.095 . S
O905 C914 1.250 . S
O906 Mn901 2.121 . S
O906 C914 1.258 . S
C907 N908 1.326 . S
C907 C911 1.460 . S
C907 H913 0.929 . S
N908 Mn901 2.257 . S
N908 C907 1.326 . S
N908 C912 1.362 . S
C909 C910 1.258 . S
C909 C912 1.431 . S
C909 C929 1.449 . S
C910 C909 1.258 . S
C910 C911 1.477 . S
C910 H930 0.931 . S
C911 C907 1.460 . S
C911 C910 1.477 . S
C911 H931 0.930 . S
C912 N908 1.362 . S
C912 C909 1.431 . S
C912 C922 1.476 . S
H913 C907 0.929 . S
C914 O905 1.250 . S
C914 O906 1.258 . S
O915 Mn900 2.162 . S
O915 C903 1.281 . S
O916 Mn900 2.297 . S
O916 C903 1.236 . S
N917 Mn901 2.282 . S
N917 C918 1.328 . S
N917 C922 1.318 . S
C918 N917 1.328 . S
C918 C919 1.457 . S
C918 H923 0.929 . S
C919 C918 1.457 . S
C919 C920 1.291 . S
C919 H932 0.931 . S
C920 C919 1.291 . S
C920 C921 1.373 . S
C920 H933 0.929 . S
C921 C920 1.373 . S
C921 C922 1.396 . S
C921 C928 1.403 . S
C922 C912 1.476 . S
C922 N917 1.318 . S
C922 C921 1.396 . S
H923 C918 0.929 . S
O924 Mn900 2.385 . S
O924 C902 1.234 . S
O925 Mn900 2.209 . S
O925 Mn901 2.215 . S
O925 C902 1.283 . S
O926 Mn900 2.094 . S
O926 C904 1.240 . S
O927 Mn901 2.117 . S
O927 C904 1.264 . S
C928 C921 1.403 . S
C928 C929 1.399 . S
C928 H934 0.929 . S
C929 C909 1.449 . S
C929 C928 1.399 . S
C929 H935 0.930 . S
H930 C910 0.931 . S
H931 C911 0.930 . S
H932 C919 0.931 . S
H933 C920 0.929 . S
H934 C928 0.929 . S
H935 C929 0.930 . S
Mn936 O941 2.095 1_455 S
Mn936 O951 2.162 . S
Mn936 O952 2.297 1_455 S
Mn936 O960 2.385 . S
Mn936 O961 2.209 1_455 S
Mn936 O962 2.094 . S
Mn937 O942 2.121 . S
Mn937 N944 2.257 . S
Mn937 N953 2.282 1_655 S
Mn937 O961 2.215 . S
Mn937 O963 2.117 1_655 S
C938 O960 1.234 . S
C938 O961 1.283 1_455 S
C939 O951 1.281 . S
C939 O952 1.236 1_455 S
C940 O962 1.240 . S
C940 O963 1.264 . S
O941 Mn936 2.095 1_655 S
O941 C950 1.250 . S
O942 Mn937 2.121 . S
O942 C950 1.258 . S
C943 N944 1.326 . S
C943 C947 1.460 . S
C943 H949 0.929 . S
N944 Mn937 2.257 . S
N944 C943 1.326 . S
N944 C948 1.362 . S
C945 C946 1.258 . S
C945 C948 1.431 . S
C945 C965 1.449 . S
C946 C945 1.258 . S
C946 C947 1.477 . S
C946 H966 0.931 . S
C947 C943 1.460 . S
C947 C946 1.477 . S
C947 H967 0.930 . S
C948 N944 1.362 . S
C948 C945 1.431 . S
C948 C958 1.476 . S
H949 C943 0.929 . S
C950 O941 1.250 . S
C950 O942 1.258 . S
O951 Mn936 2.162 . S
O951 C939 1.281 . S
O952 Mn936 2.297 1_655 S
O952 C939 1.236 1_655 S
N953 Mn937 2.282 1_455 S
N953 C954 1.328 . S
N953 C958 1.318 1_455 S
C954 N953 1.328 . S
C954 C955 1.457 . S
C954 H959 0.929 . S
C955 C954 1.457 . S
C955 C956 1.291 . S
C955 H968 0.931 . S
C956 C955 1.291 . S
C956 C957 1.373 1_455 S
C956 H969 0.929 . S
C957 C956 1.373 1_655 S
C957 C958 1.396 . S
C957 C964 1.403 . S
C958 C948 1.476 . S
C958 N953 1.318 1_655 S
C958 C957 1.396 . S
H959 C954 0.929 . S
O960 Mn936 2.385 . S
O960 C938 1.234 . S
O961 Mn936 2.209 1_655 S
O961 Mn937 2.215 . S
O961 C938 1.283 1_655 S
O962 Mn936 2.094 . S
O962 C940 1.240 . S
O963 Mn937 2.117 1_455 S
O963 C940 1.264 . S
C964 C957 1.403 . S
C964 C965 1.399 . S
C964 H970 0.929 . S
C965 C945 1.449 . S
C965 C964 1.399 . S
C965 H971 0.930 . S
H966 C946 0.931 . S
H967 C947 0.930 . S
H968 C955 0.931 . S
H969 C956 0.929 . S
H970 C964 0.929 . S
H971 C965 0.930 . S
Mn972 O977 2.095 . S
Mn972 O987 2.162 . S
Mn972 O988 2.297 . S
Mn972 O996 2.385 . S
Mn972 O997 2.209 . S
Mn972 O998 2.094 . S
Mn973 O978 2.121 . S
Mn973 N980 2.257 . S
Mn973 N989 2.282 . S
Mn973 O997 2.215 . S
Mn973 O999 2.117 . S
C974 O996 1.234 . S
C974 O997 1.283 . S
C975 O987 1.281 . S
C975 O988 1.236 . S
C976 O998 1.240 . S
C976 O999 1.264 . S
O977 Mn972 2.095 . S
O977 C986 1.250 . S
O978 Mn973 2.121 . S
O978 C986 1.258 . S
C979 N980 1.326 . S
C979 C983 1.460 . S
C979 H985 0.929 . S
N980 Mn973 2.257 . S
N980 C979 1.326 . S
N980 C984 1.362 . S
C981 C982 1.258 . S
C981 C984 1.431 . S
C981 C1001 1.449 . S
C982 C981 1.258 . S
C982 C983 1.477 . S
C982 H1002 0.931 . S
C983 C979 1.460 . S
C983 C982 1.477 . S
C983 H1003 0.930 . S
C984 N980 1.362 . S
C984 C981 1.431 . S
C984 C994 1.476 . S
H985 C979 0.929 . S
C986 O977 1.250 . S
C986 O978 1.258 . S
O987 Mn972 2.162 . S
O987 C975 1.281 . S
O988 Mn972 2.297 . S
O988 C975 1.236 . S
N989 Mn973 2.282 . S
N989 C990 1.328 . S
N989 C994 1.318 . S
C990 N989 1.328 . S
C990 C991 1.457 . S
C990 H995 0.929 . S
C991 C990 1.457 . S
C991 C992 1.291 . S
C991 H1004 0.931 . S
C992 C991 1.291 . S
C992 C993 1.373 . S
C992 H1005 0.929 . S
C993 C992 1.373 . S
C993 C994 1.396 . S
C993 C1000 1.403 . S
C994 C984 1.476 . S
C994 N989 1.318 . S
C994 C993 1.396 . S
H995 C990 0.929 . S
O996 Mn972 2.385 . S
O996 C974 1.234 . S
O997 Mn972 2.209 . S
O997 Mn973 2.215 . S
O997 C974 1.283 . S
O998 Mn972 2.094 . S
O998 C976 1.240 . S
O999 Mn973 2.117 . S
O999 C976 1.264 . S
C1000 C993 1.403 . S
C1000 C1001 1.399 . S
C1000 H1006 0.929 . S
C1001 C981 1.449 . S
C1001 C1000 1.399 . S
C1001 H1007 0.930 . S
H1002 C982 0.931 . S
H1003 C983 0.930 . S
H1004 C991 0.931 . S
H1005 C992 0.929 . S
H1006 C1000 0.929 . S
H1007 C1001 0.930 . S
C1008 C1009 1.369 . S
C1008 C1010 1.419 . S
C1008 H1012 0.930 . S
C1009 C1008 1.369 . S
C1009 C1018 1.429 . S
C1010 C1008 1.419 . S
C1010 C1011 1.363 . S
C1010 H1013 0.929 . S
C1011 C1010 1.363 . S
C1011 C1017 1.428 . S
H1012 C1008 0.930 . S
H1013 C1010 0.929 . S
S1014 N1015 1.613 . S
S1014 N1016 1.610 . S
N1015 S1014 1.613 . S
N1015 C1018 1.350 . S
N1016 S1014 1.610 . S
N1016 C1017 1.351 . S
C1017 C1011 1.428 . S
C1017 N1016 1.351 . S
C1017 C1018 1.434 . S
C1018 C1009 1.429 . S
C1018 N1015 1.350 . S
C1018 C1017 1.434 . S
C1019 C1020 1.369 . S
C1019 C1021 1.419 . S
C1019 H1023 0.930 . S
C1020 C1019 1.369 . S
C1020 C1029 1.429 . S
C1021 C1019 1.419 . S
C1021 C1022 1.363 . S
C1021 H1024 0.929 . S
C1022 C1021 1.363 . S
C1022 C1028 1.428 . S
H1023 C1019 0.930 . S
H1024 C1021 0.929 . S
S1025 N1026 1.613 . S
S1025 N1027 1.610 . S
N1026 S1025 1.613 . S
N1026 C1029 1.350 . S
N1027 S1025 1.610 . S
N1027 C1028 1.351 . S
C1028 C1022 1.428 . S
C1028 N1027 1.351 . S
C1028 C1029 1.434 . S
C1029 C1020 1.429 . S
C1029 N1026 1.350 . S
C1029 C1028 1.434 . S
C1030 C1031 1.369 . S
C1030 C1032 1.419 . S
C1030 H1034 0.930 . S
C1031 C1030 1.369 . S
C1031 C1040 1.429 . S
C1032 C1030 1.419 . S
C1032 C1033 1.363 . S
C1032 H1035 0.929 . S
C1033 C1032 1.363 . S
C1033 C1039 1.428 . S
H1034 C1030 0.930 . S
H1035 C1032 0.929 . S
S1036 N1037 1.613 . S
S1036 N1038 1.610 . S
N1037 S1036 1.613 . S
N1037 C1040 1.350 . S
N1038 S1036 1.610 . S
N1038 C1039 1.351 . S
C1039 C1033 1.428 . S
C1039 N1038 1.351 . S
C1039 C1040 1.434 . S
C1040 C1031 1.429 . S
C1040 N1037 1.350 . S
C1040 C1039 1.434 . S
C1041 C1042 1.369 1_545 S
C1041 C1043 1.419 . S
C1041 H1045 0.930 . S
C1042 C1041 1.369 1_565 S
C1042 C1051 1.429 . S
C1043 C1041 1.419 . S
C1043 C1044 1.341 1_545 S
C1043 H1046 0.929 . S
C1044 C1043 1.341 1_565 S
C1044 C1050 1.456 . S
H1045 C1041 0.930 . S
H1046 C1043 0.929 . S
S1047 N1048 1.613 . S
S1047 N1049 1.610 . S
N1048 S1047 1.613 . S
N1048 C1051 1.350 . S
N1049 S1047 1.610 . S
N1049 C1050 1.351 . S
C1050 C1044 1.456 . S
C1050 N1049 1.351 . S
C1050 C1051 1.434 . S
C1051 C1042 1.429 . S
C1051 N1048 1.350 . S
C1051 C1050 1.434 . S
C1052 C1053 1.369 . S
C1052 C1054 1.419 . S
C1052 H1056 0.930 . S
C1053 C1052 1.369 . S
C1053 C1062 1.429 . S
C1054 C1052 1.419 . S
C1054 C1055 1.363 . S
C1054 H1057 0.929 . S
C1055 C1054 1.363 . S
C1055 C1061 1.428 . S
H1056 C1052 0.930 . S
H1057 C1054 0.929 . S
S1058 N1059 1.613 . S
S1058 N1060 1.610 . S
N1059 S1058 1.613 . S
N1059 C1062 1.350 . S
N1060 S1058 1.610 . S
N1060 C1061 1.351 . S
C1061 C1055 1.428 . S
C1061 N1060 1.351 . S
C1061 C1062 1.434 . S
C1062 C1053 1.429 . S
C1062 N1059 1.350 . S
C1062 C1061 1.434 . S
C1063 C1064 1.369 . S
C1063 C1065 1.419 . S
C1063 H1067 0.930 . S
C1064 C1063 1.369 . S
C1064 C1073 1.429 . S
C1065 C1063 1.419 . S
C1065 C1066 1.363 . S
C1065 H1068 0.929 . S
C1066 C1065 1.363 . S
C1066 C1072 1.428 . S
H1067 C1063 0.930 . S
H1068 C1065 0.929 . S
S1069 N1070 1.613 . S
S1069 N1071 1.610 . S
N1070 S1069 1.613 . S
N1070 C1073 1.350 . S
N1071 S1069 1.610 . S
N1071 C1072 1.351 . S
C1072 C1066 1.428 . S
C1072 N1071 1.351 . S
C1072 C1073 1.434 . S
C1073 C1064 1.429 . S
C1073 N1070 1.350 . S
C1073 C1072 1.434 . S
C1074 C1075 1.369 . S
C1074 C1076 1.419 . S
C1074 H1078 0.930 . S
C1075 C1074 1.369 . S
C1075 C1084 1.429 . S
C1076 C1074 1.419 . S
C1076 C1077 1.363 . S
C1076 H1079 0.929 . S
C1077 C1076 1.363 . S
C1077 C1083 1.428 . S
H1078 C1074 0.930 . S
H1079 C1076 0.929 . S
S1080 N1081 1.613 . S
S1080 N1082 1.610 . S
N1081 S1080 1.613 . S
N1081 C1084 1.350 . S
N1082 S1080 1.610 . S
N1082 C1083 1.351 . S
C1083 C1077 1.428 . S
C1083 N1082 1.351 . S
C1083 C1084 1.434 . S
C1084 C1075 1.429 . S
C1084 N1081 1.350 . S
C1084 C1083 1.434 . S
C1085 C1086 1.369 1_545 S
C1085 C1087 1.419 . S
C1085 H1089 0.930 . S
C1086 C1085 1.369 1_565 S
C1086 C1095 1.429 . S
C1087 C1085 1.419 . S
C1087 C1088 1.363 1_545 S
C1087 H1090 0.929 . S
C1088 C1087 1.363 1_565 S
C1088 C1094 1.428 . S
H1089 C1085 0.930 . S
H1090 C1087 0.929 . S
S1091 N1092 1.613 . S
S1091 N1093 1.610 . S
N1092 S1091 1.613 . S
N1092 C1095 1.350 . S
N1093 S1091 1.610 . S
N1093 C1094 1.351 . S
C1094 C1088 1.428 . S
C1094 N1093 1.351 . S
C1094 C1095 1.434 . S
C1095 C1086 1.429 . S
C1095 N1092 1.350 . S
C1095 C1094 1.434 . S
C1096 C1097 1.369 . S
C1096 C1098 1.419 . S
C1096 H1100 0.930 . S
C1097 C1096 1.369 . S
C1097 C1106 1.429 . S
C1098 C1096 1.419 . S
C1098 C1099 1.363 . S
C1098 H1101 0.929 . S
C1099 C1098 1.363 . S
C1099 C1105 1.428 . S
H1100 C1096 0.930 . S
H1101 C1098 0.929 . S
S1102 N1103 1.613 . S
S1102 N1104 1.610 . S
N1103 S1102 1.613 . S
N1103 C1106 1.350 . S
N1104 S1102 1.610 . S
N1104 C1105 1.351 . S
C1105 C1099 1.428 . S
C1105 N1104 1.351 . S
C1105 C1106 1.434 . S
C1106 C1097 1.429 . S
C1106 N1103 1.350 . S
C1106 C1105 1.434 . S
C1107 C1108 1.369 . S
C1107 C1109 1.419 . S
C1107 H1111 0.930 . S
C1108 C1107 1.369 . S
C1108 C1117 1.429 . S
C1109 C1107 1.419 . S
C1109 C1110 1.363 . S
C1109 H1112 0.929 . S
C1110 C1109 1.363 . S
C1110 C1116 1.428 . S
H1111 C1107 0.930 . S
H1112 C1109 0.929 . S
S1113 N1114 1.613 . S
S1113 N1115 1.610 . S
N1114 S1113 1.613 . S
N1114 C1117 1.350 . S
N1115 S1113 1.610 . S
N1115 C1116 1.351 . S
C1116 C1110 1.428 . S
C1116 N1115 1.351 . S
C1116 C1117 1.434 . S
C1117 C1108 1.429 . S
C1117 N1114 1.350 . S
C1117 C1116 1.434 . S
C1118 C1119 1.369 . S
C1118 C1120 1.419 . S
C1118 H1122 0.930 . S
C1119 C1118 1.369 . S
C1119 C1128 1.429 . S
C1120 C1118 1.419 . S
C1120 C1121 1.363 . S
C1120 H1123 0.929 . S
C1121 C1120 1.363 . S
C1121 C1127 1.428 . S
H1122 C1118 0.930 . S
H1123 C1120 0.929 . S
S1124 N1125 1.613 . S
S1124 N1126 1.610 . S
N1125 S1124 1.613 . S
N1125 C1128 1.350 . S
N1126 S1124 1.610 . S
N1126 C1127 1.351 . S
C1127 C1121 1.428 . S
C1127 N1126 1.351 . S
C1127 C1128 1.434 . S
C1128 C1119 1.429 . S
C1128 N1125 1.350 . S
C1128 C1127 1.434 . S
C1129 C1130 1.369 . S
C1129 C1131 1.419 . S
C1129 H1133 0.930 . S
C1130 C1129 1.369 . S
C1130 C1139 1.429 . S
C1131 C1129 1.419 . S
C1131 C1132 1.363 . S
C1131 H1134 0.929 . S
C1132 C1131 1.363 . S
C1132 C1138 1.428 . S
H1133 C1129 0.930 . S
H1134 C1131 0.929 . S
S1135 N1136 1.613 . S
S1135 N1137 1.610 . S
N1136 S1135 1.613 . S
N1136 C1139 1.350 . S
N1137 S1135 1.610 . S
N1137 C1138 1.351 . S
C1138 C1132 1.428 . S
C1138 N1137 1.351 . S
C1138 C1139 1.434 . S
C1139 C1130 1.429 . S
C1139 N1136 1.350 . S
C1139 C1138 1.434 . S
C1140 C1141 1.369 . S
C1140 C1142 1.419 . S
C1140 H1144 0.930 . S
C1141 C1140 1.369 . S
C1141 C1150 1.429 . S
C1142 C1140 1.419 . S
C1142 C1143 1.363 . S
C1142 H1145 0.929 . S
C1143 C1142 1.363 . S
C1143 C1149 1.428 . S
H1144 C1140 0.930 . S
H1145 C1142 0.929 . S
S1146 N1147 1.613 . S
S1146 N1148 1.610 . S
N1147 S1146 1.613 . S
N1147 C1150 1.350 . S
N1148 S1146 1.610 . S
N1148 C1149 1.351 . S
C1149 C1143 1.428 . S
C1149 N1148 1.351 . S
C1149 C1150 1.434 . S
C1150 C1141 1.429 . S
C1150 N1147 1.350 . S
C1150 C1149 1.434 . S
C1151 C1152 1.369 . S
C1151 C1153 1.419 . S
C1151 H1155 0.930 . S
C1152 C1151 1.369 . S
C1152 C1161 1.429 1_455 S
C1153 C1151 1.419 . S
C1153 C1154 1.363 . S
C1153 H1156 0.929 . S
C1154 C1153 1.363 . S
C1154 C1160 1.428 1_455 S
H1155 C1151 0.930 . S
H1156 C1153 0.929 . S
S1157 N1158 1.613 . S
S1157 N1159 1.610 . S
N1158 S1157 1.613 . S
N1158 C1161 1.350 . S
N1159 S1157 1.610 . S
N1159 C1160 1.351 . S
C1160 C1154 1.428 1_655 S
C1160 N1159 1.351 . S
C1160 C1161 1.434 . S
C1161 C1152 1.429 1_655 S
C1161 N1158 1.350 . S
C1161 C1160 1.434 . S
C1162 C1163 1.369 . S
C1162 C1164 1.419 . S
C1162 H1166 0.930 . S
C1163 C1162 1.369 . S
C1163 C1172 1.429 . S
C1164 C1162 1.419 . S
C1164 C1165 1.363 . S
C1164 H1167 0.929 . S
C1165 C1164 1.363 . S
C1165 C1171 1.428 . S
H1166 C1162 0.930 . S
H1167 C1164 0.929 . S
S1168 N1169 1.613 . S
S1168 N1170 1.610 . S
N1169 S1168 1.613 . S
N1169 C1172 1.350 . S
N1170 S1168 1.610 . S
N1170 C1171 1.351 . S
C1171 C1165 1.428 . S
C1171 N1170 1.351 . S
C1171 C1172 1.434 . S
C1172 C1163 1.429 . S
C1172 N1169 1.350 . S
C1172 C1171 1.434 . S
C1173 C1174 1.369 1_455 S
C1173 C1175 1.419 . S
C1173 H1177 0.930 . S
C1174 C1173 1.369 1_655 S
C1174 C1183 1.429 . S
C1175 C1173 1.419 . S
C1175 C1176 1.373 . S
C1175 H1178 0.929 . S
C1176 C1175 1.373 . S
C1176 C1182 1.418 1_455 S
H1177 C1173 0.930 . S
H1178 C1175 0.929 . S
S1179 N1180 1.613 . S
S1179 N1181 1.610 . S
N1180 S1179 1.613 . S
N1180 C1183 1.350 . S
N1181 S1179 1.610 . S
N1181 C1182 1.351 . S
C1182 C1176 1.418 1_655 S
C1182 N1181 1.351 . S
C1182 C1183 1.434 . S
C1183 C1174 1.429 . S
C1183 N1180 1.350 . S
C1183 C1182 1.434 . S
C1184 C1185 1.369 . S
C1184 C1186 1.419 . S
C1184 H1188 0.930 . S
C1185 C1184 1.369 . S
C1185 C1194 1.429 . S
C1186 C1184 1.419 . S
C1186 C1187 1.363 . S
C1186 H1189 0.929 . S
C1187 C1186 1.363 . S
C1187 C1193 1.428 . S
H1188 C1184 0.930 . S
H1189 C1186 0.929 . S
S1190 N1191 1.613 . S
S1190 N1192 1.610 . S
N1191 S1190 1.613 . S
N1191 C1194 1.350 . S
N1192 S1190 1.610 . S
N1192 C1193 1.351 . S
C1193 C1187 1.428 . S
C1193 N1192 1.351 . S
C1193 C1194 1.434 . S
C1194 C1185 1.429 . S
C1194 N1191 1.350 . S
C1194 C1193 1.434 . S
C1195 C1196 1.369 . S
C1195 C1197 1.419 . S
C1195 H1199 0.930 . S
C1196 C1195 1.369 . S
C1196 C1205 1.429 . S
C1197 C1195 1.419 . S
C1197 C1198 1.363 . S
C1197 H1200 0.929 . S
C1198 C1197 1.363 . S
C1198 C1204 1.428 . S
H1199 C1195 0.930 . S
H1200 C1197 0.929 . S
S1201 N1202 1.613 . S
S1201 N1203 1.610 . S
N1202 S1201 1.613 . S
N1202 C1205 1.350 . S
N1203 S1201 1.610 . S
N1203 C1204 1.351 . S
C1204 C1198 1.428 . S
C1204 N1203 1.351 . S
C1204 C1205 1.434 . S
C1205 C1196 1.429 . S
C1205 N1202 1.350 . S
C1205 C1204 1.434 . S
C1206 C1207 1.369 1_554 S
C1206 C1208 1.419 . S
C1206 H1210 0.930 . S
C1207 C1206 1.369 1_556 S
C1207 C1216 1.429 . S
C1208 C1206 1.419 . S
C1208 C1209 1.363 . S
C1208 H1211 0.929 . S
C1209 C1208 1.363 . S
C1209 C1215 1.428 1_554 S
H1210 C1206 0.930 . S
H1211 C1208 0.929 . S
S1212 N1213 1.613 . S
S1212 N1214 1.610 . S
N1213 S1212 1.613 . S
N1213 C1216 1.350 . S
N1214 S1212 1.610 . S
N1214 C1215 1.351 . S
C1215 C1209 1.428 1_556 S
C1215 N1214 1.351 . S
C1215 C1216 1.434 . S
C1216 C1207 1.429 . S
C1216 N1213 1.350 . S
C1216 C1215 1.434 . S
C1217 C1218 1.369 . S
C1217 C1219 1.419 . S
C1217 H1221 0.930 . S
C1218 C1217 1.369 . S
C1218 C1227 1.429 . S
C1219 C1217 1.419 . S
C1219 C1220 1.363 . S
C1219 H1222 0.929 . S
C1220 C1219 1.363 . S
C1220 C1226 1.428 . S
H1221 C1217 0.930 . S
H1222 C1219 0.929 . S
S1223 N1224 1.613 . S
S1223 N1225 1.610 . S
N1224 S1223 1.613 . S
N1224 C1227 1.350 . S
N1225 S1223 1.610 . S
N1225 C1226 1.351 . S
C1226 C1220 1.428 . S
C1226 N1225 1.351 . S
C1226 C1227 1.434 . S
C1227 C1218 1.429 . S
C1227 N1224 1.350 . S
C1227 C1226 1.434 . S
C1228 C1229 1.369 . S
C1228 C1230 1.419 . S
C1228 H1232 0.930 . S
C1229 C1228 1.369 . S
C1229 C1238 1.429 . S
C1230 C1228 1.419 . S
C1230 C1231 1.363 . S
C1230 H1233 0.929 . S
C1231 C1230 1.363 . S
C1231 C1237 1.428 . S
H1232 C1228 0.930 . S
H1233 C1230 0.929 . S
S1234 N1235 1.613 . S
S1234 N1236 1.610 . S
N1235 S1234 1.613 . S
N1235 C1238 1.350 . S
N1236 S1234 1.610 . S
N1236 C1237 1.351 . S
C1237 C1231 1.428 . S
C1237 N1236 1.351 . S
C1237 C1238 1.434 . S
C1238 C1229 1.429 . S
C1238 N1235 1.350 . S
C1238 C1237 1.434 . S
C1239 C1240 1.369 . S
C1239 C1241 1.419 . S
C1239 H1243 0.930 . S
C1240 C1239 1.369 . S
C1240 C1249 1.429 . S
C1241 C1239 1.419 . S
C1241 C1242 1.363 . S
C1241 H1244 0.929 . S
C1242 C1241 1.363 . S
C1242 C1248 1.428 . S
H1243 C1239 0.930 . S
H1244 C1241 0.929 . S
S1245 N1246 1.613 . S
S1245 N1247 1.610 . S
N1246 S1245 1.613 . S
N1246 C1249 1.350 . S
N1247 S1245 1.610 . S
N1247 C1248 1.351 . S
C1248 C1242 1.428 . S
C1248 N1247 1.351 . S
C1248 C1249 1.434 . S
C1249 C1240 1.429 . S
C1249 N1246 1.350 . S
C1249 C1248 1.434 . S
C1250 C1251 1.369 . S
C1250 C1252 1.419 . S
C1250 H1254 0.930 . S
C1251 C1250 1.369 . S
C1251 C1260 1.429 . S
C1252 C1250 1.419 . S
C1252 C1253 1.363 . S
C1252 H1255 0.929 . S
C1253 C1252 1.363 . S
C1253 C1259 1.428 . S
H1254 C1250 0.930 . S
H1255 C1252 0.929 . S
S1256 N1257 1.613 . S
S1256 N1258 1.610 . S
N1257 S1256 1.613 . S
N1257 C1260 1.350 . S
N1258 S1256 1.610 . S
N1258 C1259 1.351 . S
C1259 C1253 1.428 . S
C1259 N1258 1.351 . S
C1259 C1260 1.434 . S
C1260 C1251 1.429 . S
C1260 N1257 1.350 . S
C1260 C1259 1.434 . S
C1261 C1262 1.369 . S
C1261 C1263 1.419 . S
C1261 H1265 0.930 . S
C1262 C1261 1.369 . S
C1262 C1271 1.429 . S
C1263 C1261 1.419 . S
C1263 C1264 1.363 . S
C1263 H1266 0.929 . S
C1264 C1263 1.363 . S
C1264 C1270 1.428 . S
H1265 C1261 0.930 . S
H1266 C1263 0.929 . S
S1267 N1268 1.613 . S
S1267 N1269 1.610 . S
N1268 S1267 1.613 . S
N1268 C1271 1.350 . S
N1269 S1267 1.610 . S
N1269 C1270 1.351 . S
C1270 C1264 1.428 . S
C1270 N1269 1.351 . S
C1270 C1271 1.434 . S
C1271 C1262 1.429 . S
C1271 N1268 1.350 . S
C1271 C1270 1.434 . S
C1272 C1273 1.369 . S
C1272 C1274 1.419 . S
C1272 H1276 0.930 . S
C1273 C1272 1.369 . S
C1273 C1282 1.429 . S
C1274 C1272 1.419 . S
C1274 C1275 1.363 . S
C1274 H1277 0.929 . S
C1275 C1274 1.363 . S
C1275 C1281 1.428 . S
H1276 C1272 0.930 . S
H1277 C1274 0.929 . S
S1278 N1279 1.613 . S
S1278 N1280 1.610 . S
N1279 S1278 1.613 . S
N1279 C1282 1.350 . S
N1280 S1278 1.610 . S
N1280 C1281 1.351 . S
C1281 C1275 1.428 . S
C1281 N1280 1.351 . S
C1281 C1282 1.434 . S
C1282 C1273 1.429 . S
C1282 N1279 1.350 . S
C1282 C1281 1.434 . S
C1283 C1284 1.369 1_565 S
C1283 C1285 1.419 . S
C1283 H1287 0.930 . S
C1284 C1283 1.369 1_545 S
C1284 C1293 1.429 . S
C1285 C1283 1.419 . S
C1285 C1286 1.363 1_565 S
C1285 H1288 0.929 . S
C1286 C1285 1.363 1_545 S
C1286 C1292 1.428 . S
H1287 C1283 0.930 . S
H1288 C1285 0.929 . S
S1289 N1290 1.613 . S
S1289 N1291 1.610 . S
N1290 S1289 1.613 . S
N1290 C1293 1.350 . S
N1291 S1289 1.610 . S
N1291 C1292 1.351 . S
C1292 C1286 1.428 . S
C1292 N1291 1.351 . S
C1292 C1293 1.434 . S
C1293 C1284 1.429 . S
C1293 N1290 1.350 . S
C1293 C1292 1.434 . S
C1294 C1295 1.369 . S
C1294 C1296 1.419 . S
C1294 H1298 0.930 . S
C1295 C1294 1.369 . S
C1295 C1304 1.429 . S
C1296 C1294 1.419 . S
C1296 C1297 1.363 . S
C1296 H1299 0.929 . S
C1297 C1296 1.363 . S
C1297 C1303 1.428 . S
H1298 C1294 0.930 . S
H1299 C1296 0.929 . S
S1300 N1301 1.613 . S
S1300 N1302 1.610 . S
N1301 S1300 1.613 . S
N1301 C1304 1.350 . S
N1302 S1300 1.610 . S
N1302 C1303 1.351 . S
C1303 C1297 1.428 . S
C1303 N1302 1.351 . S
C1303 C1304 1.434 . S
C1304 C1295 1.429 . S
C1304 N1301 1.350 . S
C1304 C1303 1.434 . S
C1305 C1306 1.369 . S
C1305 C1307 1.419 . S
C1305 H1309 0.930 . S
C1306 C1305 1.369 . S
C1306 C1315 1.429 . S
C1307 C1305 1.419 . S
C1307 C1308 1.363 . S
C1307 H1310 0.929 . S
C1308 C1307 1.363 . S
C1308 C1314 1.428 . S
H1309 C1305 0.930 . S
H1310 C1307 0.929 . S
S1311 N1312 1.613 . S
S1311 N1313 1.610 . S
N1312 S1311 1.613 . S
N1312 C1315 1.350 . S
N1313 S1311 1.610 . S
N1313 C1314 1.351 . S
C1314 C1308 1.428 . S
C1314 N1313 1.351 . S
C1314 C1315 1.434 . S
C1315 C1306 1.429 . S
C1315 N1312 1.350 . S
C1315 C1314 1.434 . S
C1316 C1317 1.369 . S
C1316 C1318 1.419 . S
C1316 H1320 0.930 . S
C1317 C1316 1.369 . S
C1317 C1326 1.429 . S
C1318 C1316 1.419 . S
C1318 C1319 1.363 . S
C1318 H1321 0.929 . S
C1319 C1318 1.363 . S
C1319 C1325 1.428 . S
H1320 C1316 0.930 . S
H1321 C1318 0.929 . S
S1322 N1323 1.613 . S
S1322 N1324 1.610 . S
N1323 S1322 1.613 . S
N1323 C1326 1.350 . S
N1324 S1322 1.610 . S
N1324 C1325 1.351 . S
C1325 C1319 1.428 . S
C1325 N1324 1.351 . S
C1325 C1326 1.434 . S
C1326 C1317 1.429 . S
C1326 N1323 1.350 . S
C1326 C1325 1.434 . S
C1327 C1328 1.369 . S
C1327 C1329 1.419 . S
C1327 H1331 0.930 . S
C1328 C1327 1.369 . S
C1328 C1337 1.429 . S
C1329 C1327 1.419 . S
C1329 C1330 1.363 . S
C1329 H1332 0.929 1_545 S
C1330 C1329 1.363 . S
C1330 C1336 1.428 . S
H1331 C1327 0.930 . S
H1332 C1329 0.929 1_565 S
S1333 N1334 1.613 . S
S1333 N1335 1.610 . S
N1334 S1333 1.613 . S
N1334 C1337 1.350 . S
N1335 S1333 1.610 . S
N1335 C1336 1.351 . S
C1336 C1330 1.428 . S
C1336 N1335 1.351 . S
C1336 C1337 1.434 . S
C1337 C1328 1.429 . S
C1337 N1334 1.350 . S
C1337 C1336 1.434 . S
C1338 C1339 1.369 . S
C1338 C1340 1.419 . S
C1338 H1342 0.930 . S
C1339 C1338 1.369 . S
C1339 C1348 1.429 . S
C1340 C1338 1.419 . S
C1340 C1341 1.363 . S
C1340 H1343 0.929 . S
C1341 C1340 1.363 . S
C1341 C1347 1.428 . S
H1342 C1338 0.930 . S
H1343 C1340 0.929 . S
S1344 N1345 1.613 . S
S1344 N1346 1.610 . S
N1345 S1344 1.613 . S
N1345 C1348 1.350 . S
N1346 S1344 1.610 . S
N1346 C1347 1.351 . S
C1347 C1341 1.428 . S
C1347 N1346 1.351 . S
C1347 C1348 1.434 . S
C1348 C1339 1.429 . S
C1348 N1345 1.350 . S
C1348 C1347 1.434 . S
C1349 C1350 1.369 . S
C1349 C1351 1.419 . S
C1349 H1353 0.930 . S
C1350 C1349 1.369 . S
C1350 C1359 1.429 . S
C1351 C1349 1.419 . S
C1351 C1352 1.363 . S
C1351 H1354 0.929 . S
C1352 C1351 1.363 . S
C1352 C1358 1.428 . S
H1353 C1349 0.930 . S
H1354 C1351 0.929 . S
S1355 N1356 1.613 . S
S1355 N1357 1.610 . S
N1356 S1355 1.613 . S
N1356 C1359 1.350 . S
N1357 S1355 1.610 . S
N1357 C1358 1.351 . S
C1358 C1352 1.428 . S
C1358 N1357 1.351 . S
C1358 C1359 1.434 . S
C1359 C1350 1.429 . S
C1359 N1356 1.350 . S
C1359 C1358 1.434 . S
C1360 C1361 1.369 . S
C1360 C1362 1.419 . S
C1360 H1364 0.930 . S
C1361 C1360 1.369 . S
C1361 C1370 1.429 . S
C1362 C1360 1.419 . S
C1362 C1363 1.363 . S
C1362 H1365 0.929 . S
C1363 C1362 1.363 . S
C1363 C1369 1.428 . S
H1364 C1360 0.930 . S
H1365 C1362 0.929 . S
S1366 N1367 1.613 . S
S1366 N1368 1.610 . S
N1367 S1366 1.613 . S
N1367 C1370 1.350 . S
N1368 S1366 1.610 . S
N1368 C1369 1.351 . S
C1369 C1363 1.428 . S
C1369 N1368 1.351 . S
C1369 C1370 1.434 . S
C1370 C1361 1.429 . S
C1370 N1367 1.350 . S
C1370 C1369 1.434 . S
C1371 C1372 1.369 . S
C1371 C1373 1.419 . S
C1371 H1375 0.930 . S
C1372 C1371 1.369 . S
C1372 C1381 1.429 1_655 S
C1373 C1371 1.419 . S
C1373 C1374 1.363 . S
C1373 H1376 0.929 . S
C1374 C1373 1.363 . S
C1374 C1380 1.428 1_655 S
H1375 C1371 0.930 . S
H1376 C1373 0.929 . S
S1377 N1378 1.613 . S
S1377 N1379 1.610 . S
N1378 S1377 1.613 . S
N1378 C1381 1.350 . S
N1379 S1377 1.610 . S
N1379 C1380 1.351 . S
C1380 C1374 1.428 1_455 S
C1380 N1379 1.351 . S
C1380 C1381 1.434 . S
C1381 C1372 1.429 1_455 S
C1381 N1378 1.350 . S
C1381 C1380 1.434 . S
C1382 C1383 1.369 . S
C1382 C1384 1.419 . S
C1382 H1386 0.930 . S
C1383 C1382 1.369 . S
C1383 C1392 1.429 . S
C1384 C1382 1.419 . S
C1384 C1385 1.363 . S
C1384 H1387 0.929 . S
C1385 C1384 1.363 . S
C1385 C1391 1.428 . S
H1386 C1382 0.930 . S
H1387 C1384 0.929 . S
S1388 N1389 1.613 . S
S1388 N1390 1.610 . S
N1389 S1388 1.613 . S
N1389 C1392 1.350 . S
N1390 S1388 1.610 . S
N1390 C1391 1.351 . S
C1391 C1385 1.428 . S
C1391 N1390 1.351 . S
C1391 C1392 1.434 . S
C1392 C1383 1.429 . S
C1392 N1389 1.350 . S
C1392 C1391 1.434 . S
C1393 C1394 1.369 . S
C1393 C1395 1.419 . S
C1393 H1397 0.930 . S
C1394 C1393 1.369 . S
C1394 C1403 1.429 . S
C1395 C1393 1.419 . S
C1395 C1396 1.363 . S
C1395 H1398 0.929 . S
C1396 C1395 1.363 . S
C1396 C1402 1.428 . S
H1397 C1393 0.930 . S
H1398 C1395 0.929 . S
S1399 N1400 1.613 . S
S1399 N1401 1.610 . S
N1400 S1399 1.613 . S
N1400 C1403 1.350 . S
N1401 S1399 1.610 . S
N1401 C1402 1.351 . S
C1402 C1396 1.428 . S
C1402 N1401 1.351 . S
C1402 C1403 1.434 . S
C1403 C1394 1.429 . S
C1403 N1400 1.350 . S
C1403 C1402 1.434 . S
C1404 C1405 1.369 . S
C1404 C1406 1.419 . S
C1404 H1408 0.930 . S
C1405 C1404 1.369 . S
C1405 C1414 1.429 . S
C1406 C1404 1.419 . S
C1406 C1407 1.363 . S
C1406 H1409 0.929 . S
C1407 C1406 1.363 . S
C1407 C1413 1.428 . S
H1408 C1404 0.930 . S
H1409 C1406 0.929 . S
S1410 N1411 1.613 . S
S1410 N1412 1.610 . S
N1411 S1410 1.613 . S
N1411 C1414 1.350 . S
N1412 S1410 1.610 . S
N1412 C1413 1.351 . S
C1413 C1407 1.428 . S
C1413 N1412 1.351 . S
C1413 C1414 1.434 . S
C1414 C1405 1.429 . S
C1414 N1411 1.350 . S
C1414 C1413 1.434 . S
C1415 C1416 1.369 . S
C1415 C1417 1.419 . S
C1415 H1419 0.930 . S
C1416 C1415 1.369 . S
C1416 C1425 1.429 . S
C1417 C1415 1.419 . S
C1417 C1418 1.363 . S
C1417 H1420 0.929 . S
C1418 C1417 1.363 . S
C1418 C1424 1.428 . S
H1419 C1415 0.930 . S
H1420 C1417 0.929 . S
S1421 N1422 1.613 . S
S1421 N1423 1.610 . S
N1422 S1421 1.613 . S
N1422 C1425 1.350 . S
N1423 S1421 1.610 . S
N1423 C1424 1.351 . S
C1424 C1418 1.428 . S
C1424 N1423 1.351 . S
C1424 C1425 1.434 . S
C1425 C1416 1.429 . S
C1425 N1422 1.350 . S
C1425 C1424 1.434 . S
C1426 C1427 1.369 . S
C1426 C1428 1.419 . S
C1426 H1430 0.930 . S
C1427 C1426 1.369 . S
C1427 C1436 1.429 . S
C1428 C1426 1.419 . S
C1428 C1429 1.363 . S
C1428 H1431 0.929 . S
C1429 C1428 1.363 . S
C1429 C1435 1.428 . S
H1430 C1426 0.930 . S
H1431 C1428 0.929 . S
S1432 N1433 1.613 . S
S1432 N1434 1.610 . S
N1433 S1432 1.613 . S
N1433 C1436 1.350 . S
N1434 S1432 1.610 . S
N1434 C1435 1.351 . S
C1435 C1429 1.428 . S
C1435 N1434 1.351 . S
C1435 C1436 1.434 . S
C1436 C1427 1.429 . S
C1436 N1433 1.350 . S
C1436 C1435 1.434 . S
C1437 C1438 1.369 . S
C1437 C1439 1.419 . S
C1437 H1441 0.930 . S
C1438 C1437 1.369 . S
C1438 C1447 1.429 . S
C1439 C1437 1.419 . S
C1439 C1440 1.363 . S
C1439 H1442 0.929 . S
C1440 C1439 1.363 . S
C1440 C1446 1.428 . S
H1441 C1437 0.930 . S
H1442 C1439 0.929 . S
S1443 N1444 1.613 . S
S1443 N1445 1.610 . S
N1444 S1443 1.613 . S
N1444 C1447 1.350 . S
N1445 S1443 1.610 . S
N1445 C1446 1.351 . S
C1446 C1440 1.428 . S
C1446 N1445 1.351 . S
C1446 C1447 1.434 . S
C1447 C1438 1.429 . S
C1447 N1444 1.350 . S
C1447 C1446 1.434 . S
C1448 C1449 1.369 . S
C1448 C1450 1.419 . S
C1448 H1452 0.930 . S
C1449 C1448 1.369 . S
C1449 C1458 1.429 . S
C1450 C1448 1.419 . S
C1450 C1451 1.363 . S
C1450 H1453 0.929 . S
C1451 C1450 1.363 . S
C1451 C1457 1.428 . S
H1452 C1448 0.930 . S
H1453 C1450 0.929 . S
S1454 N1455 1.613 . S
S1454 N1456 1.610 . S
N1455 S1454 1.613 . S
N1455 C1458 1.350 . S
N1456 S1454 1.610 . S
N1456 C1457 1.351 . S
C1457 C1451 1.428 . S
C1457 N1456 1.351 . S
C1457 C1458 1.434 . S
C1458 C1449 1.429 . S
C1458 N1455 1.350 . S
C1458 C1457 1.434 . S
C1459 C1460 1.369 . S
C1459 C1461 1.419 . S
C1459 H1463 0.930 . S
C1460 C1459 1.369 . S
C1460 C1469 1.429 . S
C1461 C1459 1.419 . S
C1461 C1462 1.363 . S
C1461 H1464 0.929 . S
C1462 C1461 1.363 . S
C1462 C1468 1.428 . S
H1463 C1459 0.930 . S
H1464 C1461 0.929 . S
S1465 N1466 1.613 . S
S1465 N1467 1.610 . S
N1466 S1465 1.613 . S
N1466 C1469 1.350 . S
N1467 S1465 1.610 . S
N1467 C1468 1.351 . S
C1468 C1462 1.428 . S
C1468 N1467 1.351 . S
C1468 C1469 1.434 . S
C1469 C1460 1.429 . S
C1469 N1466 1.350 . S
C1469 C1468 1.434 . S
C1470 C1471 1.369 . S
C1470 C1472 1.419 . S
C1470 H1474 0.930 . S
C1471 C1470 1.369 . S
C1471 C1480 1.429 . S
C1472 C1470 1.419 . S
C1472 C1473 1.363 . S
C1472 H1475 0.929 . S
C1473 C1472 1.363 . S
C1473 C1479 1.428 . S
H1474 C1470 0.930 . S
H1475 C1472 0.929 . S
S1476 N1477 1.613 . S
S1476 N1478 1.610 . S
N1477 S1476 1.613 . S
N1477 C1480 1.350 . S
N1478 S1476 1.610 . S
N1478 C1479 1.351 . S
C1479 C1473 1.428 . S
C1479 N1478 1.351 . S
C1479 C1480 1.434 . S
C1480 C1471 1.429 . S
C1480 N1477 1.350 . S
C1480 C1479 1.434 . S
C1481 C1482 1.369 . S
C1481 C1483 1.419 . S
C1481 H1485 0.930 . S
C1482 C1481 1.369 . S
C1482 C1491 1.429 . S
C1483 C1481 1.419 . S
C1483 C1484 1.363 . S
C1483 H1486 0.929 . S
C1484 C1483 1.363 . S
C1484 C1490 1.428 . S
H1485 C1481 0.930 . S
H1486 C1483 0.929 . S
S1487 N1488 1.613 . S
S1487 N1489 1.610 . S
N1488 S1487 1.613 . S
N1488 C1491 1.350 . S
N1489 S1487 1.610 . S
N1489 C1490 1.351 . S
C1490 C1484 1.428 . S
C1490 N1489 1.351 . S
C1490 C1491 1.434 . S
C1491 C1482 1.429 . S
C1491 N1488 1.350 . S
C1491 C1490 1.434 . S
C1492 C1493 1.369 . S
C1492 C1494 1.419 . S
C1492 H1496 0.930 . S
C1493 C1492 1.369 . S
C1493 C1502 1.429 1_556 S
C1494 C1492 1.419 . S
C1494 C1495 1.363 . S
C1494 H1497 0.929 . S
C1495 C1494 1.363 . S
C1495 C1501 1.428 1_556 S
H1496 C1492 0.930 . S
H1497 C1494 0.929 . S
S1498 N1499 1.613 . S
S1498 N1500 1.610 . S
N1499 S1498 1.613 . S
N1499 C1502 1.350 . S
N1500 S1498 1.610 . S
N1500 C1501 1.351 . S
C1501 C1495 1.428 1_554 S
C1501 N1500 1.351 . S
C1501 C1502 1.434 . S
C1502 C1493 1.429 1_554 S
C1502 N1499 1.350 . S
C1502 C1501 1.434 . S
C1503 C1504 1.369 . S
C1503 C1505 1.419 . S
C1503 H1507 0.930 . S
C1504 C1503 1.369 . S
C1504 C1513 1.429 . S
C1505 C1503 1.419 . S
C1505 C1506 1.363 . S
C1505 H1508 0.929 . S
C1506 C1505 1.363 . S
C1506 C1512 1.428 . S
H1507 C1503 0.930 . S
H1508 C1505 0.929 . S
S1509 N1510 1.613 . S
S1509 N1511 1.610 . S
N1510 S1509 1.613 . S
N1510 C1513 1.350 . S
N1511 S1509 1.610 . S
N1511 C1512 1.351 . S
C1512 C1506 1.428 . S
C1512 N1511 1.351 . S
C1512 C1513 1.434 . S
C1513 C1504 1.429 . S
C1513 N1510 1.350 . S
C1513 C1512 1.434 . S
C1514 C1515 1.369 . S
C1514 C1516 1.419 . S
C1514 H1518 0.930 . S
C1515 C1514 1.369 . S
C1515 C1524 1.429 . S
C1516 C1514 1.419 . S
C1516 C1517 1.363 . S
C1516 H1519 0.930 1_554 S
C1517 C1516 1.363 . S
C1517 C1523 1.428 . S
H1518 C1514 0.930 . S
H1519 C1516 0.930 1_556 S
S1520 N1521 1.613 . S
S1520 N1522 1.610 . S
N1521 S1520 1.613 . S
N1521 C1524 1.350 . S
N1522 S1520 1.610 . S
N1522 C1523 1.351 . S
C1523 C1517 1.428 . S
C1523 N1522 1.351 . S
C1523 C1524 1.434 . S
C1524 C1515 1.429 . S
C1524 N1521 1.350 . S
C1524 C1523 1.434 . S
C1525 C1526 1.369 . S
C1525 C1527 1.419 . S
C1525 H1529 0.930 . S
C1526 C1525 1.369 . S
C1526 C1535 1.429 1_554 S
C1527 C1525 1.419 . S
C1527 C1528 1.363 . S
C1527 H1530 0.929 . S
C1528 C1527 1.363 . S
C1528 C1534 1.428 1_554 S
H1529 C1525 0.930 . S
H1530 C1527 0.929 . S
S1531 N1532 1.613 . S
S1531 N1533 1.610 . S
N1532 S1531 1.613 . S
N1532 C1535 1.350 . S
N1533 S1531 1.610 . S
N1533 C1534 1.351 . S
C1534 C1528 1.428 1_556 S
C1534 N1533 1.351 . S
C1534 C1535 1.434 . S
C1535 C1526 1.429 1_556 S
C1535 N1532 1.350 . S
C1535 C1534 1.434 . S
C1011 C578 1.470 . S
C1009 C181 1.497 . S
C1022 C626 1.604 . S
C1020 C247 1.652 . S
C1031 C283 1.480 . S
C1033 C662 1.410 . S
C1044 C698 1.552 . S
C1042 C169 1.588 . S
C1055 C724 1.510 . S
C1053 C361 1.519 . S
C1066 C760 1.566 . S
C1064 C433 1.556 . S
C1075 C421 1.531 . S
C1077 C795 1.533 . S
C1088 C832 1.593 1_565 S
C1086 C355 1.602 . S
C1097 C427 1.504 . S
C1099 C866 1.476 . S
C1110 C914 1.539 . S
C1108 C325 1.589 . S
C1119 C385 1.496 . S
C1121 C867 1.507 . S
C1132 C904 1.598 . S
C1130 C463 1.586 . S
C1141 C253 1.510 . S
C1143 C950 1.444 . S
C1152 C145 1.599 . S
C1154 C939 1.599 . S
C1163 C205 1.526 . S
C1165 C940 1.507 . S
C1174 C217 1.622 . S
C1176 C938 1.618 . S
C1185 C139 1.532 . S
C1187 C686 1.497 . S
C1196 C535 1.491 . S
C1198 C687 1.494 . S
C1209 C590 1.562 . S
C1207 C565 1.612 . S
C1220 C615 1.499 . S
C1218 C313 1.498 . S
C1229 C175 1.610 . S
C1231 C722 1.616 . S
C1242 C830 1.502 . S
C1240 C397 1.518 . S
C1253 C723 1.573 . S
C1251 C349 1.581 . S
C1264 C796 1.601 . S
C1262 C457 1.589 . S
C1275 C794 1.473 . S
C1273 C505 1.494 . S
C1284 C571 1.652 . S
C1286 C842 1.601 . S
C1295 C319 1.477 . S
C1297 C734 1.412 . S
C1308 C770 1.552 . S
C1306 C493 1.590 . S
C1317 C109 1.518 . S
C1319 C652 1.511 . S
C1330 C688 1.565 . S
C1328 C1 1.558 . S
C1341 C579 1.535 . S
C1339 C61 1.530 . S
C1352 C616 1.597 . S
C1350 C103 1.601 . S
C1361 C67 1.502 . S
C1363 C902 1.481 . S
C1372 C73 1.588 . S
C1374 C878 1.545 . S
C1383 C133 1.500 . S
C1385 C903 1.505 . S
C1394 C31 1.587 . S
C1396 C868 1.598 . S
C1407 C986 1.441 . S
C1405 C289 1.511 . S
C1418 C975 1.601 . S
C1416 C469 1.597 . S
C1429 C976 1.507 . S
C1427 C529 1.527 . S
C1438 C541 1.623 . S
C1440 C974 1.613 . S
C1449 C391 1.527 . S
C1451 C758 1.502 . S
C1462 C759 1.495 . S
C1460 C211 1.488 . S
C1473 C806 1.561 . S
C1471 C241 1.612 . S
C1484 C831 1.500 . S
C1482 C277 1.500 . S
C1493 C499 1.610 . S
C1495 C650 1.616 . S
C1506 C614 1.502 . S
C1504 C37 1.521 . S
C1515 C97 1.581 . S
C1517 C651 1.573 . S
C1528 C580 1.599 . S
C1526 C25 1.593 . S
