# Generated by pormake.
# Topology tsx, (6,3)-cn, num edge types: 1
# Building blocks:
#     Node 0, Type 0, BuildingBlock: JUFBIX_clean_sbu_0, # of connection points: 6
#     Node 1, Type 0, BuildingBlock: JUFBIX_clean_sbu_0, # of connection points: 6
#     Node 2, Type 1, BuildingBlock: BELTOD_clean_linker_0, # of connection points: 3
#     Node 3, Type 1, BuildingBlock: BELTOD_clean_linker_0, # of connection points: 3
#     Node 4, Type 1, BuildingBlock: BELTOD_clean_linker_0, # of connection points: 3
#     Node 5, Type 1, BuildingBlock: BELTOD_clean_linker_0, # of connection points: 3
#     Edge 6, Type (0, 1), BuildingBlock: XUDNAN_clean_linker_2, # of connection points: 2
#     Edge 7, Type (0, 1), BuildingBlock: XUDNAN_clean_linker_2, # of connection points: 2
#     Edge 8, Type (0, 1), BuildingBlock: XUDNAN_clean_linker_2, # of connection points: 2
#     Edge 9, Type (0, 1), BuildingBlock: XUDNAN_clean_linker_2, # of connection points: 2
#     Edge 10, Type (0, 1), BuildingBlock: XUDNAN_clean_linker_2, # of connection points: 2
#     Edge 11, Type (0, 1), BuildingBlock: XUDNAN_clean_linker_2, # of connection points: 2
#     Edge 12, Type (0, 1), BuildingBlock: XUDNAN_clean_linker_2, # of connection points: 2
#     Edge 13, Type (0, 1), BuildingBlock: XUDNAN_clean_linker_2, # of connection points: 2
#     Edge 14, Type (0, 1), BuildingBlock: XUDNAN_clean_linker_2, # of connection points: 2
#     Edge 15, Type (0, 1), BuildingBlock: XUDNAN_clean_linker_2, # of connection points: 2
#     Edge 16, Type (0, 1), BuildingBlock: XUDNAN_clean_linker_2, # of connection points: 2
#     Edge 17, Type (0, 1), BuildingBlock: XUDNAN_clean_linker_2, # of connection points: 2
# Relax obj value: 0.145
# Max RMSD: 0.160
# Mean RMSD: 0.126
data_MOF--net-tsx--node1-JUFBIX_clean_sbu_0--node2-BELTOD_clean_linker_0--edge1-XUDNAN_clean_linker_2
_symmetry_space_group_name_H-M    P1
_symmetry_Int_Tables_number       1
_symmetry_cell_setting            triclinic
loop_
_symmetry_equiv_pos_as_xyz
'x, y, z'
_cell_length_a     22.499302
_cell_length_b     26.571214
_cell_length_c     39.696427
_cell_angle_alpha  92.808033
_cell_angle_beta   89.675437
_cell_angle_gamma 98.927134
loop_
_atom_site_label
_atom_site_type_symbol
_atom_site_fract_x
_atom_site_fract_y
_atom_site_fract_z
_atom_type_partial_charge
Co0 Co 0.03826 0.97813 0.01104 0.0
C1 C 0.98603 0.00962 0.95342 0.0
Co2 Co 0.97698 0.03515 0.02104 0.0
C3 C 0.10324 0.89179 0.01626 0.0
C4 C 0.12607 0.93412 0.97223 0.0
N5 N 0.09111 0.93263 1.00001 0.0
N6 N 0.1438 0.8676 0.99938 0.0
C7 C 0.15814 0.89418 0.97169 0.0
H8 H 0.08231 0.87972 0.03976 0.0
H9 H 0.12834 0.96266 0.95354 0.0
C10 C 0.03039 0.00282 0.07841 0.0
N11 N 0.92303 0.08081 0.03186 0.0
C12 C 0.89719 0.11053 0.01135 0.0
C13 C 0.89823 0.08859 0.0624 0.0
N14 N 0.85773 0.13633 0.02794 0.0
C15 C 0.85861 0.12274 0.0601 0.0
C16 C 0.92163 0.93296 0.02109 0.0
O17 O 0.05618 0.97589 0.05736 0.0
O18 O 0.99471 0.03118 0.06773 0.0
O19 O 0.91252 0.97912 0.02404 0.0
O20 O 0.97459 0.92363 0.01536 0.0
O21 O 0.96109 0.03812 0.97389 0.0
H22 H 0.90673 0.06965 0.08496 0.0
H23 H 0.90666 0.11305 0.98469 0.0
O24 O 0.01975 0.98041 0.96492 0.0
O25 O 0.10156 0.03347 0.00667 0.0
O26 O 0.04212 0.09045 0.01799 0.0
C27 C 0.09414 0.07987 0.01069 0.0
H28 H 0.19056 0.88594 0.95275 0.0
H29 H 0.83081 0.13507 0.08027 0.0
Co30 Co 0.50708 0.50554 0.52332 0.0
C31 C 0.47041 0.51961 0.45822 0.0
Co32 Co 0.43013 0.54847 0.52152 0.0
C33 C 0.58059 0.42481 0.51175 0.0
C34 C 0.62272 0.48695 0.54394 0.0
N35 N 0.57241 0.47068 0.52577 0.0
N36 N 0.63407 0.41179 0.52061 0.0
C37 C 0.66058 0.45118 0.54076 0.0
H38 H 0.5474 0.40116 0.49588 0.0
H39 H 0.63126 0.52258 0.55878 0.0
C40 C 0.46636 0.53547 0.5866 0.0
N41 N 0.36512 0.58419 0.51998 0.0
C42 C 0.36343 0.62953 0.50634 0.0
C43 C 0.31056 0.57198 0.53421 0.0
N44 N 0.31019 0.64646 0.51158 0.0
C45 C 0.27677 0.60995 0.52905 0.0
C46 C 0.39692 0.44345 0.5227 0.0
O47 O 0.50547 0.5126 0.57169 0.0
O48 O 0.42794 0.55322 0.56917 0.0
O49 O 0.37691 0.48541 0.52077 0.0
O50 O 0.45325 0.44351 0.52478 0.0
O51 O 0.43311 0.54366 0.47386 0.0
H52 H 0.29657 0.53811 0.54805 0.0
H53 H 0.40152 0.65035 0.49368 0.0
O54 O 0.50768 0.49916 0.47501 0.0
O55 O 0.56044 0.56818 0.52175 0.0
O56 O 0.48437 0.61072 0.52232 0.0
C57 C 0.54072 0.61043 0.52203 0.0
H58 H 0.70462 0.45449 0.5522 0.0
H59 H 0.23125 0.61047 0.53777 0.0
P60 P 0.07031 0.09739 0.43775 0.0
H61 H 0.05061 0.19343 0.47133 0.0
H62 H 0.96068 0.22868 0.48687 0.0
H63 H 0.85114 0.08566 0.45628 0.0
H64 H 0.94259 0.05002 0.44078 0.0
H65 H 0.18789 0.09279 0.46672 0.0
H66 H 0.23439 0.02144 0.48367 0.0
H67 H 0.06274 0.92318 0.47573 0.0
H68 H 0.0158 0.99557 0.45889 0.0
H69 H 0.9813 0.10648 0.38459 0.0
H70 H 0.14068 0.03688 0.39526 0.0
O71 O 0.12419 0.1481 0.43643 0.0
H72 H 0.97306 0.07605 0.32558 0.0
H73 H 0.13476 0.0088 0.3361 0.0
C74 C 0.00357 0.11895 0.45489 0.0
C75 C 0.00762 0.16891 0.46874 0.0
C76 C 0.95585 0.18918 0.4777 0.0
C77 C 0.89859 0.16007 0.47276 0.0
C78 C 0.89461 0.10917 0.46016 0.0
C79 C 0.94681 0.08863 0.45156 0.0
C80 C 0.09818 0.04974 0.46157 0.0
C81 C 0.15951 0.0565 0.46969 0.0
C82 C 0.18633 0.01541 0.47911 0.0
C83 C 0.15254 0.9664 0.4803 0.0
C84 C 0.08998 0.96049 0.47508 0.0
C85 C 0.06304 0.00191 0.46553 0.0
C86 C 0.06037 0.07238 0.39479 0.0
C87 C 0.01401 0.08398 0.37448 0.0
C88 C 0.0099 0.06717 0.34047 0.0
C89 C 0.053 0.03953 0.32595 0.0
C90 C 0.09975 0.02867 0.34646 0.0
C91 C 0.10334 0.04494 0.38043 0.0
P92 P 0.08061 0.95268 0.5964 0.0
H93 H 0.04191 0.85171 0.56359 0.0
H94 H 0.94366 0.80594 0.54792 0.0
H95 H 0.86596 0.94291 0.57182 0.0
H96 H 0.96213 0.98453 0.59284 0.0
H97 H 0.2046 0.99186 0.5782 0.0
H98 H 0.25163 0.0717 0.55522 0.0
H99 H 0.07646 0.1186 0.54799 0.0
H100 H 0.03041 0.03833 0.56853 0.0
H101 H 0.04747 0.88832 0.65234 0.0
H102 H 0.07764 0.04964 0.63618 0.0
O103 O 0.12921 0.91117 0.59513 0.0
H104 H 0.01973 0.90586 0.71082 0.0
H105 H 0.05097 0.06753 0.69475 0.0
C106 C 0.01008 0.92229 0.57838 0.0
C107 C 0.00365 0.87188 0.56522 0.0
C108 C 0.94687 0.84576 0.55587 0.0
C109 C 0.89536 0.87008 0.55853 0.0
C110 C 0.90323 0.92168 0.57015 0.0
C111 C 0.95934 0.9467 0.58107 0.0
C112 C 0.11371 0.00857 0.57503 0.0
C113 C 0.17627 0.01899 0.57101 0.0
C114 C 0.20327 0.06518 0.55831 0.0
C115 C 0.16818 0.1023 0.54993 0.0
C116 C 0.10531 0.09099 0.55342 0.0
C117 C 0.0785 0.04459 0.56552 0.0
C118 C 0.06546 0.96757 0.64002 0.0
C119 C 0.04892 0.92757 0.66153 0.0
C120 C 0.03311 0.93768 0.69496 0.0
C121 C 0.03332 0.98815 0.70751 0.0
C122 C 0.04977 0.02823 0.68578 0.0
C123 C 0.06559 0.01801 0.65229 0.0
P124 P 0.55631 0.54956 0.9482 0.0
H125 H 0.55348 0.62614 0.0035 0.0
H126 H 0.47037 0.66289 0.02955 0.0
H127 H 0.34341 0.54772 0.97677 0.0
H128 H 0.42707 0.5103 0.95126 0.0
H129 H 0.66209 0.52585 0.98224 0.0
H130 H 0.69611 0.44599 0.99433 0.0
H131 H 0.53167 0.36197 0.95184 0.0
H132 H 0.49767 0.44284 0.93971 0.0
H133 H 0.46261 0.58999 0.91081 0.0
H134 H 0.60974 0.50775 0.8877 0.0
O135 O 0.61579 0.59537 0.95333 0.0
H136 H 0.43967 0.59077 0.85155 0.0
H137 H 0.59081 0.51274 0.82748 0.0
C138 C 0.4963 0.56654 0.97461 0.0
C139 C 0.50785 0.60789 0.99822 0.0
C140 C 0.46027 0.62872 0.01328 0.0
C141 C 0.4005 0.60865 0.00469 0.0
C142 C 0.38914 0.56421 0.9835 0.0
C143 C 0.43684 0.54279 0.96899 0.0
C144 C 0.57753 0.49025 0.95997 0.0
C145 C 0.63278 0.49041 0.97604 0.0
C146 C 0.65209 0.44463 0.9831 0.0
C147 C 0.61657 0.39771 0.97403 0.0
C148 C 0.56014 0.39762 0.95888 0.0
C149 C 0.54064 0.44367 0.95204 0.0
C150 C 0.53657 0.54704 0.904 0.0
C151 C 0.48963 0.5713 0.89306 0.0
C152 C 0.47741 0.57284 0.85873 0.0
C153 C 0.51366 0.55233 0.83421 0.0
C154 C 0.56104 0.52819 0.84534 0.0
C155 C 0.5722 0.5255 0.87988 0.0
P156 P 0.59076 0.45223 0.10246 0.0
H157 H 0.58358 0.34956 0.07137 0.0
H158 H 0.50373 0.29294 0.04144 0.0
H159 H 0.3921 0.41156 0.04704 0.0
H160 H 0.47329 0.46873 0.07696 0.0
H161 H 0.68347 0.48789 0.0541 0.0
H162 H 0.72089 0.57179 0.03349 0.0
H163 H 0.58511 0.63537 0.09198 0.0
H164 H 0.5466 0.55056 0.11134 0.0
H165 H 0.47656 0.41837 0.13821 0.0
H166 H 0.65155 0.50407 0.16176 0.0
O167 O 0.65136 0.4232 0.10373 0.0
H168 H 0.44534 0.43093 0.19654 0.0
H169 H 0.6205 0.51649 0.22048 0.0
C170 C 0.5343 0.41331 0.07651 0.0
C171 C 0.54247 0.36388 0.06571 0.0
C172 C 0.49669 0.33149 0.04844 0.0
C173 C 0.4414 0.34767 0.04198 0.0
C174 C 0.43398 0.39788 0.05192 0.0
C175 C 0.48035 0.43061 0.06884 0.0
C176 C 0.61316 0.5133 0.08474 0.0
C177 C 0.66137 0.51982 0.06215 0.0
C178 C 0.68301 0.56803 0.05062 0.0
C179 C 0.65692 0.61084 0.06154 0.0
C180 C 0.60635 0.60347 0.08287 0.0
C181 C 0.5845 0.55501 0.09422 0.0
C182 C 0.56634 0.46076 0.14547 0.0
C183 C 0.50828 0.44015 0.15577 0.0
C184 C 0.49039 0.44733 0.18924 0.0
C185 C 0.53042 0.47479 0.21311 0.0
C186 C 0.58883 0.49478 0.20277 0.0
C187 C 0.60648 0.48795 0.16921 0.0
H188 H 0.11854 0.1741 0.04415 0.0
H189 H 0.18802 0.07589 0.96809 0.0
H190 H 0.27938 0.13962 0.96289 0.0
H191 H 0.18407 0.29835 0.00969 0.0
H192 H 0.20223 0.32782 0.05098 0.0
H193 H 0.13827 0.27809 0.04543 0.0
H194 H 0.18097 0.22646 0.09076 0.0
H195 H 0.24484 0.27599 0.09647 0.0
H196 H 0.25607 0.21137 0.08596 0.0
H197 H 0.36625 0.20976 0.96894 0.0
H198 H 0.44596 0.2795 0.98846 0.0
H199 H 0.32337 0.33124 0.06252 0.0
C200 C 0.15243 0.16676 0.02585 0.0
C201 C 0.14609 0.1204 0.00624 0.0
C202 C 0.19204 0.11128 0.98326 0.0
C203 C 0.24391 0.14736 0.97999 0.0
C204 C 0.24948 0.19231 1.00007 0.0
C205 C 0.20522 0.20214 0.02269 0.0
C206 C 0.22538 0.25103 0.04369 0.0
C207 C 0.18508 0.2912 0.03704 0.0
C208 C 0.22692 0.24056 0.08145 0.0
C209 C 0.28826 0.26639 0.02984 0.0
C210 C 0.30075 0.2324 0.00429 0.0
C211 C 0.35688 0.23688 0.98873 0.0
C212 C 0.40195 0.27645 1.00009 0.0
C213 C 0.39091 0.3108 0.02697 0.0
C214 C 0.33282 0.30621 0.04148 0.0
H215 H 0.17331 0.79231 0.95753 0.0
H216 H 0.17357 0.84507 0.06248 0.0
H217 H 0.23031 0.77627 0.07731 0.0
H218 H 0.16063 0.6538 0.97267 0.0
H219 H 0.20921 0.64333 0.9376 0.0
H220 H 0.16222 0.69234 0.93644 0.0
H221 H 0.25614 0.75936 0.92553 0.0
H222 H 0.30328 0.71072 0.9267 0.0
H223 H 0.31864 0.76687 0.95453 0.0
H224 H 0.30099 0.71019 0.0786 0.0
H225 H 0.37299 0.64966 0.06678 0.0
H226 H 0.32144 0.63835 0.96138 0.0
C227 C 0.18438 0.78871 0.98372 0.0
C228 C 0.16928 0.82389 0.00889 0.0
C229 C 0.18428 0.81809 0.04292 0.0
C230 C 0.21659 0.77925 0.05149 0.0
C231 C 0.23236 0.74601 0.02581 0.0
C232 C 0.21577 0.74993 0.99267 0.0
C233 C 0.24102 0.71175 0.96937 0.0
C234 C 0.19023 0.673 0.95307 0.0
C235 C 0.28221 0.7388 0.94247 0.0
C236 C 0.27645 0.68693 0.9943 0.0
C237 C 0.27083 0.70691 0.02679 0.0
C238 C 0.30445 0.69336 0.05342 0.0
C239 C 0.34526 0.6591 0.04652 0.0
C240 C 0.35162 0.63854 0.01335 0.0
C241 C 0.31589 0.65208 0.98718 0.0
H242 H 0.93014 0.83316 0.03046 0.0
H243 H 0.80018 0.93646 0.02085 0.0
H244 H 0.71727 0.86471 0.02787 0.0
H245 H 0.84522 0.72318 0.98671 0.0
H246 H 0.86873 0.6788 0.01487 0.0
H247 H 0.91721 0.73785 0.00761 0.0
H248 H 0.92142 0.76057 0.0719 0.0
H249 H 0.87321 0.70153 0.07937 0.0
H250 H 0.85227 0.76117 0.09498 0.0
H251 H 0.64852 0.78061 0.03642 0.0
H252 H 0.60054 0.69317 0.04825 0.0
H253 H 0.77718 0.64758 0.05499 0.0
C254 C 0.88425 0.84073 0.02953 0.0
C255 C 0.87158 0.89035 0.02487 0.0
C256 C 0.81091 0.8987 0.02434 0.0
C257 C 0.76355 0.85818 0.02821 0.0
C258 C 0.77771 0.80969 0.03281 0.0
C259 C 0.83666 0.80099 0.03369 0.0
C260 C 0.84025 0.746 0.0404 0.0
C261 C 0.86958 0.71993 0.01062 0.0
C262 C 0.87375 0.74211 0.07364 0.0
C263 C 0.77407 0.72496 0.04318 0.0
C264 C 0.73857 0.76205 0.0385 0.0
C265 C 0.67598 0.75133 0.04019 0.0
C266 C 0.64913 0.70153 0.04711 0.0
C267 C 0.68484 0.66306 0.05245 0.0
C268 C 0.74818 0.67541 0.05033 0.0
H269 H 0.81911 0.2182 0.05952 0.0
H270 H 0.80874 0.12786 0.96518 0.0
H271 H 0.73926 0.18146 0.94242 0.0
H272 H 0.66356 0.24025 0.06166 0.0
H273 H 0.68239 0.30477 0.07886 0.0
H274 H 0.72903 0.25785 0.08816 0.0
H275 H 0.82229 0.3161 0.06524 0.0
H276 H 0.77574 0.36306 0.0561 0.0
H277 H 0.82025 0.33837 0.02314 0.0
H278 H 0.6705 0.24499 0.93017 0.0
H279 H 0.61696 0.31916 0.92702 0.0
H280 H 0.67409 0.36896 0.02905 0.0
C281 C 0.80181 0.20947 0.03418 0.0
C282 C 0.81912 0.16872 0.01414 0.0
C283 C 0.79647 0.15911 0.98084 0.0
C284 C 0.75655 0.18904 0.96785 0.0
C285 C 0.73996 0.2286 0.98842 0.0
C286 C 0.7624 0.23921 0.02075 0.0
C287 C 0.74001 0.28552 0.03706 0.0
C288 C 0.70146 0.27121 0.06828 0.0
C289 C 0.79271 0.32829 0.04588 0.0
C290 C 0.702 0.29967 0.00871 0.0
C291 C 0.70172 0.2659 0.98107 0.0
C292 C 0.67027 0.27157 0.95169 0.0
C293 C 0.63962 0.31357 0.95023 0.0
C294 C 0.64126 0.34966 0.97781 0.0
C295 C 0.67209 0.34196 0.00758 0.0
H296 H 0.65666 0.62814 0.49927 0.0
H297 H 0.52022 0.70069 0.55158 0.0
H298 H 0.59462 0.77837 0.56266 0.0
H299 H 0.77662 0.67456 0.55179 0.0
H300 H 0.83248 0.68553 0.51915 0.0
H301 H 0.76749 0.6374 0.51241 0.0
H302 H 0.74086 0.68016 0.45837 0.0
H303 H 0.80628 0.72821 0.46473 0.0
H304 H 0.73301 0.74674 0.46063 0.0
H305 H 0.68672 0.84073 0.57632 0.0
H306 H 0.78687 0.88932 0.58575 0.0
H307 H 0.8618 0.78262 0.51704 0.0
C308 C 0.6423 0.66082 0.51247 0.0
C309 C 0.58295 0.65862 0.52469 0.0
C310 C 0.56548 0.70189 0.54185 0.0
C311 C 0.6074 0.74606 0.54831 0.0
C312 C 0.66599 0.74664 0.53661 0.0
C313 C 0.68315 0.70569 0.51834 0.0
C314 C 0.74933 0.71584 0.50938 0.0
C315 C 0.78346 0.67597 0.52407 0.0
C316 C 0.75785 0.71787 0.47099 0.0
C317 C 0.76722 0.76796 0.52678 0.0
C318 C 0.7185 0.78483 0.54241 0.0
C319 C 0.72489 0.829 0.56313 0.0
C320 C 0.78257 0.85679 0.56801 0.0
C321 C 0.83358 0.84123 0.55159 0.0
C322 C 0.82487 0.79628 0.53026 0.0
H323 H 0.72227 0.37276 0.55271 0.0
H324 H 0.60292 0.34666 0.46594 0.0
H325 H 0.65 0.27187 0.44768 0.0
H326 H 0.85114 0.34762 0.50996 0.0
H327 H 0.88094 0.31766 0.54452 0.0
H328 H 0.83263 0.36476 0.55282 0.0
H329 H 0.76098 0.30017 0.58692 0.0
H330 H 0.80908 0.25272 0.57861 0.0
H331 H 0.7305 0.23897 0.56742 0.0
H332 H 0.71697 0.20411 0.4363 0.0
H333 H 0.79967 0.15276 0.43166 0.0
H334 H 0.87552 0.22497 0.52546 0.0
C335 C 0.70559 0.35147 0.5299 0.0
C336 C 0.65867 0.36604 0.51081 0.0
C337 C 0.63816 0.33621 0.48133 0.0
C338 C 0.66477 0.29361 0.47069 0.0
C339 C 0.71167 0.28106 0.48987 0.0
C340 C 0.73176 0.3092 0.51889 0.0
C341 C 0.78556 0.29034 0.53381 0.0
C342 C 0.84081 0.3326 0.53534 0.0
C343 C 0.77061 0.26929 0.56876 0.0
C344 C 0.7939 0.24808 0.5081 0.0
C345 C 0.75032 0.24266 0.48321 0.0
C346 C 0.7508 0.20763 0.4559 0.0
C347 C 0.79778 0.17838 0.45358 0.0
C348 C 0.84401 0.1847 0.47824 0.0
C349 C 0.84092 0.21925 0.50619 0.0
H350 H 0.4123 0.35544 0.55188 0.0
H351 H 0.28764 0.42245 0.49153 0.0
H352 H 0.21861 0.34023 0.48864 0.0
H353 H 0.38748 0.22841 0.51206 0.0
H354 H 0.39108 0.19716 0.55112 0.0
H355 H 0.43257 0.26013 0.54654 0.0
H356 H 0.38001 0.29347 0.59954 0.0
H357 H 0.33882 0.23056 0.60443 0.0
H358 H 0.29898 0.28402 0.6014 0.0
H359 H 0.16451 0.25059 0.49154 0.0
H360 H 0.12284 0.16307 0.50568 0.0
H361 H 0.27839 0.15753 0.56886 0.0
C362 C 0.37064 0.35259 0.53786 0.0
C363 C 0.35528 0.3949 0.52166 0.0
C364 C 0.30001 0.39029 0.5041 0.0
C365 C 0.26082 0.34376 0.50214 0.0
C366 C 0.27734 0.30264 0.51832 0.0
C367 C 0.33045 0.30682 0.53629 0.0
C368 C 0.33551 0.25797 0.55339 0.0
C369 C 0.38989 0.23454 0.53997 0.0
C370 C 0.33848 0.26707 0.59197 0.0
C371 C 0.27684 0.2257 0.54229 0.0
C372 C 0.2445 0.25189 0.52161 0.0
C373 C 0.18914 0.22992 0.50804 0.0
C374 C 0.16557 0.18023 0.51645 0.0
C375 C 0.1966 0.15319 0.53874 0.0
C376 C 0.25349 0.17639 0.55141 0.0
H377 H 0.21634 0.69294 0.53564 0.0
H378 H 0.36631 0.71024 0.46535 0.0
H379 H 0.34233 0.79358 0.45112 0.0
H380 H 0.11541 0.7506 0.48321 0.0
H381 H 0.08214 0.78105 0.51856 0.0
H382 H 0.11078 0.7222 0.52366 0.0
H383 H 0.18023 0.76486 0.57256 0.0
H384 H 0.14967 0.82272 0.56772 0.0
H385 H 0.22989 0.82355 0.56565 0.0
H386 H 0.30462 0.87539 0.44501 0.0
H387 H 0.25203 0.94985 0.44515 0.0
H388 H 0.1237 0.88047 0.51792 0.0
C389 C 0.24396 0.71371 0.51699 0.0
C390 C 0.29395 0.69453 0.50203 0.0
C391 C 0.32869 0.72387 0.47787 0.0
C392 C 0.31517 0.77138 0.46938 0.0
C393 C 0.26632 0.78918 0.4849 0.0
C394 C 0.23077 0.76117 0.50792 0.0
C395 C 0.18045 0.78927 0.52062 0.0
C396 C 0.11853 0.75896 0.51092 0.0
C397 C 0.18545 0.80081 0.55891 0.0
C398 C 0.19384 0.83772 0.50135 0.0
C399 C 0.24371 0.83663 0.48098 0.0
C400 C 0.26558 0.87676 0.46087 0.0
C401 C 0.23562 0.91912 0.46138 0.0
C402 C 0.18414 0.92136 0.48186 0.0
C403 C 0.16289 0.87986 0.50204 0.0
H404 H 0.00549 0.07027 0.12895 0.0
H405 H 0.07576 0.92824 0.11049 0.0
H406 H 0.08641 0.92086 0.17191 0.0
H407 H 0.10476 0.11714 0.19849 0.0
H408 H 0.04856 0.14654 0.22125 0.0
H409 H 0.04577 0.13995 0.17589 0.0
H410 H 0.93662 0.0918 0.17893 0.0
H411 H 0.93926 0.09786 0.22431 0.0
H412 H 0.92114 0.03573 0.20327 0.0
H413 H 0.08578 0.9275 0.23533 0.0
H414 H 0.08238 0.95109 0.29604 0.0
H415 H 0.01873 0.09173 0.27276 0.0
C416 C 0.02317 0.03763 0.13783 0.0
C417 C 0.03961 0.9997 0.115 0.0
C418 C 0.06307 0.95781 0.12756 0.0
C419 C 0.06901 0.95317 0.16238 0.0
C420 C 0.05188 0.99101 0.18422 0.0
C421 C 0.03015 0.03275 0.17244 0.0
C422 C 0.01661 0.06882 0.20119 0.0
C423 C 0.05631 0.12121 0.19907 0.0
C424 C 0.94941 0.07382 0.20196 0.0
C425 C 0.03381 0.0407 0.23102 0.0
C426 C 0.05354 0.99572 0.2207 0.0
C427 C 0.07107 0.96293 0.24371 0.0
C428 C 0.06931 0.97688 0.27818 0.0
C429 C 0.05084 0.02357 0.2894 0.0
C430 C 0.03243 0.05553 0.26528 0.0
H431 H 0.03468 0.95235 0.90506 0.0
H432 H 0.92475 0.07249 0.91811 0.0
H433 H 0.92242 0.07929 0.85606 0.0
H434 H 0.125 0.00671 0.83949 0.0
H435 H 0.12999 0.94653 0.81751 0.0
H436 H 0.11944 0.94933 0.8625 0.0
H437 H 0.02362 0.88145 0.85614 0.0
H438 H 0.03398 0.87821 0.8111 0.0
H439 H 0.9639 0.89218 0.82857 0.0
H440 H 0.93683 0.07483 0.79211 0.0
H441 H 0.96384 0.05803 0.73253 0.0
H442 H 0.06592 0.94219 0.76326 0.0
C443 C 0.00944 0.9798 0.89501 0.0
C444 C 0.97973 0.01184 0.91646 0.0
C445 C 0.94761 0.04739 0.90214 0.0
C446 C 0.94616 0.05156 0.86696 0.0
C447 C 0.97692 0.01983 0.84661 0.0
C448 C 0.00767 0.98449 0.86023 0.0
C449 C 0.03869 0.95581 0.83334 0.0
C450 C 0.10733 0.96519 0.83853 0.0
C451 C 0.01352 0.89852 0.83223 0.0
C452 C 0.02102 0.98066 0.80229 0.0
C453 C 0.98534 0.01745 0.81031 0.0
C454 C 0.96458 0.04599 0.7856 0.0
C455 C 0.9805 0.03643 0.75186 0.0
C456 C 0.01685 0.99867 0.74319 0.0
C457 C 0.03727 0.97069 0.76892 0.0
H458 H 0.50928 0.47877 0.63486 0.0
H459 H 0.42671 0.61377 0.62189 0.0
H460 H 0.43174 0.63303 0.68327 0.0
H461 H 0.42931 0.44367 0.71223 0.0
H462 H 0.49203 0.42044 0.73089 0.0
H463 H 0.48355 0.41768 0.68571 0.0
H464 H 0.59082 0.46853 0.68013 0.0
H465 H 0.59948 0.47171 0.72531 0.0
H466 H 0.60977 0.52951 0.70259 0.0
H467 H 0.4507 0.64067 0.74504 0.0
H468 H 0.47234 0.63195 0.80472 0.0
H469 H 0.53294 0.48698 0.77959 0.0
C470 C 0.49229 0.51232 0.64504 0.0
C471 C 0.46777 0.54491 0.62363 0.0
C472 C 0.4454 0.58818 0.63783 0.0
C473 C 0.44832 0.59959 0.67265 0.0
C474 C 0.47285 0.56691 0.69306 0.0
C475 C 0.49362 0.52374 0.67997 0.0
C476 C 0.51564 0.49413 0.7079 0.0
C477 C 0.47787 0.44082 0.70926 0.0
C478 C 0.58293 0.49079 0.70372 0.0
C479 C 0.50457 0.5278 0.7386 0.0
C480 C 0.4805 0.56979 0.72929 0.0
C481 C 0.46838 0.6074 0.75278 0.0
C482 C 0.48034 0.6017 0.78683 0.0
C483 C 0.50311 0.55809 0.79748 0.0
C484 C 0.51567 0.52087 0.77269 0.0
H485 H 0.55646 0.48994 0.41494 0.0
H486 H 0.38122 0.53929 0.41698 0.0
H487 H 0.37739 0.53215 0.3549 0.0
H488 H 0.61119 0.5584 0.3419 0.0
H489 H 0.65178 0.50934 0.32524 0.0
H490 H 0.64046 0.51693 0.37005 0.0
H491 H 0.59091 0.4223 0.37138 0.0
H492 H 0.60212 0.41438 0.32658 0.0
H493 H 0.5278 0.39901 0.3441 0.0
H494 H 0.3914 0.51897 0.29284 0.0
H495 H 0.42462 0.50391 0.23433 0.0
H496 H 0.59192 0.46532 0.27175 0.0
C497 C 0.51723 0.49906 0.4023 0.0
C498 C 0.46906 0.51505 0.42087 0.0
C499 C 0.41875 0.52707 0.40336 0.0
C500 C 0.41604 0.52303 0.36807 0.0
C501 C 0.4642 0.50731 0.35052 0.0
C502 C 0.51404 0.49579 0.36695 0.0
C503 C 0.56024 0.481 0.34188 0.0
C504 C 0.61941 0.51867 0.34496 0.0
C505 C 0.57087 0.42589 0.34625 0.0
C506 C 0.52838 0.4858 0.30888 0.0
C507 C 0.4729 0.50076 0.31451 0.0
C508 C 0.43478 0.50727 0.28808 0.0
C509 C 0.45389 0.49838 0.25495 0.0
C510 C 0.51077 0.48342 0.24846 0.0
C511 C 0.54843 0.47718 0.2759 0.0
loop_
_geom_bond_atom_site_label_1
_geom_bond_atom_site_label_2
_geom_bond_distance
_geom_bond_site_symmetry_2
_ccdc_geom_bond_type
Co0 N5 2.057 . S
Co0 O17 2.021 . S
Co0 O20 2.062 1_455 S
Co0 O24 2.117 1_554 S
Co0 O25 2.020 1_565 S
C1 O21 1.259 1_455 S
C1 O24 1.258 1_545 S
Co2 N11 2.057 . S
Co2 O18 2.117 . S
Co2 O19 2.020 1_545 S
Co2 O21 2.021 1_554 S
Co2 O26 2.062 1_655 S
C3 N5 1.316 . S
C3 N6 1.347 . S
C3 H8 0.931 . S
C4 N5 1.375 1_556 S
C4 C7 1.350 . S
C4 H9 0.930 . S
N5 Co0 2.057 . S
N5 C3 1.316 . S
N5 C4 1.375 1_554 S
N6 C3 1.347 . S
N6 C7 1.373 1_554 S
C7 C4 1.350 . S
C7 N6 1.373 1_556 S
C7 H28 0.931 . S
H8 C3 0.931 . S
H9 C4 0.930 . S
C10 O17 1.259 1_545 S
C10 O18 1.258 1_455 S
N11 Co2 2.057 . S
N11 C12 1.316 . S
N11 C13 1.375 . S
C12 N11 1.316 . S
C12 N14 1.347 . S
C12 H23 0.931 1_554 S
C13 N11 1.375 . S
C13 C15 1.350 . S
C13 H22 0.930 . S
N14 C12 1.347 . S
N14 C15 1.373 . S
C15 C13 1.350 . S
C15 N14 1.373 . S
C15 H29 0.931 . S
C16 O19 1.256 . S
C16 O20 1.255 . S
O17 Co0 2.021 . S
O17 C10 1.259 1_565 S
O18 Co2 2.117 . S
O18 C10 1.258 1_655 S
O19 Co2 2.020 1_565 S
O19 C16 1.256 . S
O20 Co0 2.062 1_655 S
O20 C16 1.255 . S
O21 C1 1.259 1_655 S
O21 Co2 2.021 1_556 S
H22 C13 0.930 . S
H23 C12 0.931 1_556 S
O24 Co0 2.117 1_556 S
O24 C1 1.258 1_565 S
O25 Co0 2.020 1_545 S
O25 C27 1.256 . S
O26 Co2 2.062 1_455 S
O26 C27 1.255 . S
C27 O25 1.256 . S
C27 O26 1.255 . S
H28 C7 0.931 . S
H29 C15 0.931 . S
Co30 N35 2.057 . S
Co30 O47 2.021 . S
Co30 O50 2.062 . S
Co30 O54 2.117 . S
Co30 O55 2.020 . S
C31 O51 1.259 . S
C31 O54 1.258 . S
Co32 N41 2.057 . S
Co32 O48 2.117 . S
Co32 O49 2.020 . S
Co32 O51 2.021 . S
Co32 O56 2.062 . S
C33 N35 1.316 . S
C33 N36 1.347 . S
C33 H38 0.931 . S
C34 N35 1.375 . S
C34 C37 1.350 . S
C34 H39 0.930 . S
N35 Co30 2.057 . S
N35 C33 1.316 . S
N35 C34 1.375 . S
N36 C33 1.347 . S
N36 C37 1.373 . S
C37 C34 1.350 . S
C37 N36 1.373 . S
C37 H58 0.931 . S
H38 C33 0.931 . S
H39 C34 0.930 . S
C40 O47 1.259 . S
C40 O48 1.258 . S
N41 Co32 2.057 . S
N41 C42 1.316 . S
N41 C43 1.375 . S
C42 N41 1.316 . S
C42 N44 1.347 . S
C42 H53 0.931 . S
C43 N41 1.375 . S
C43 C45 1.350 . S
C43 H52 0.930 . S
N44 C42 1.347 . S
N44 C45 1.373 . S
C45 C43 1.350 . S
C45 N44 1.373 . S
C45 H59 0.931 . S
C46 O49 1.256 . S
C46 O50 1.255 . S
O47 Co30 2.021 . S
O47 C40 1.259 . S
O48 Co32 2.117 . S
O48 C40 1.258 . S
O49 Co32 2.020 . S
O49 C46 1.256 . S
O50 Co30 2.062 . S
O50 C46 1.255 . S
O51 C31 1.259 . S
O51 Co32 2.021 . S
H52 C43 0.930 . S
H53 C42 0.931 . S
O54 Co30 2.117 . S
O54 C31 1.258 . S
O55 Co30 2.020 . S
O55 C57 1.256 . S
O56 Co32 2.062 . S
O56 C57 1.255 . S
C57 O55 1.256 . S
C57 O56 1.255 . S
H58 C37 0.931 . S
H59 C45 0.931 . S
P60 O71 1.490 . S
P60 C74 1.812 . S
P60 C80 1.803 1_545 S
P60 C86 1.819 . S
H61 C75 0.941 . S
H62 C76 0.939 . S
H63 C78 0.940 . S
H64 C79 0.940 . S
H65 C81 0.939 1_545 S
H66 C82 0.942 . S
H67 C84 0.940 . S
H68 C85 0.935 1_655 S
H69 C87 0.941 . S
H70 C91 0.939 . S
O71 P60 1.490 . S
H72 C88 0.939 . S
H73 C90 0.940 . S
C74 P60 1.812 . S
C74 C75 1.389 . S
C74 C79 1.391 1_455 S
C75 H61 0.941 . S
C75 C74 1.389 . S
C75 C76 1.397 1_455 S
C76 H62 0.939 . S
C76 C75 1.397 1_655 S
C76 C77 1.378 . S
C77 C76 1.378 . S
C77 C78 1.378 . S
C78 H63 0.940 . S
C78 C77 1.378 . S
C78 C79 1.396 . S
C79 H64 0.940 . S
C79 C74 1.391 1_655 S
C79 C78 1.396 . S
C80 P60 1.803 1_565 S
C80 C81 1.378 . S
C80 C85 1.400 . S
C81 H65 0.939 1_565 S
C81 C80 1.378 . S
C81 C82 1.361 . S
C82 H66 0.942 . S
C82 C81 1.361 . S
C82 C83 1.369 . S
C83 C82 1.369 . S
C83 C84 1.404 . S
C84 H67 0.940 . S
C84 C83 1.404 . S
C84 C85 1.389 . S
C85 H68 0.935 1_455 S
C85 C80 1.400 . S
C85 C84 1.389 . S
C86 P60 1.819 . S
C86 C87 1.391 . S
C86 C91 1.391 1_545 S
C87 H69 0.941 . S
C87 C86 1.391 . S
C87 C88 1.396 . S
C88 H72 0.939 . S
C88 C87 1.396 . S
C88 C89 1.397 . S
C89 C88 1.397 . S
C89 C90 1.385 1_545 S
C90 H73 0.940 . S
C90 C89 1.385 1_565 S
C90 C91 1.388 . S
C91 H70 0.939 . S
C91 C86 1.391 1_565 S
C91 C90 1.388 . S
P92 O103 1.490 . S
P92 C106 1.812 1_455 S
P92 C112 1.803 1_565 S
P92 C118 1.819 . S
H93 C107 0.935 1_455 S
H94 C108 0.939 . S
H95 C110 0.940 . S
H96 C111 0.940 . S
H97 C113 0.939 . S
H98 C114 0.942 . S
H99 C116 0.940 . S
H100 C117 0.939 . S
H101 C119 0.941 . S
H102 C123 0.939 . S
O103 P92 1.490 . S
H104 C120 0.939 . S
H105 C122 0.940 . S
C106 P92 1.812 1_655 S
C106 C107 1.390 . S
C106 C111 1.391 . S
C107 H93 0.935 1_655 S
C107 C106 1.390 . S
C107 C108 1.401 . S
C108 H94 0.939 . S
C108 C107 1.401 . S
C108 C109 1.378 . S
C109 C108 1.378 . S
C109 C110 1.378 . S
C110 H95 0.940 . S
C110 C109 1.378 . S
C110 C111 1.396 . S
C111 H96 0.940 . S
C111 C106 1.391 . S
C111 C110 1.396 . S
C112 P92 1.803 1_545 S
C112 C113 1.378 . S
C112 C117 1.400 . S
C113 H97 0.939 . S
C113 C112 1.378 . S
C113 C114 1.361 . S
C114 H98 0.942 . S
C114 C113 1.361 . S
C114 C115 1.369 . S
C115 C114 1.369 . S
C115 C116 1.404 . S
C116 H99 0.940 . S
C116 C115 1.404 . S
C116 C117 1.389 . S
C117 H100 0.939 . S
C117 C112 1.400 . S
C117 C116 1.389 . S
C118 P92 1.819 . S
C118 C119 1.391 . S
C118 C123 1.391 1_565 S
C119 H101 0.941 . S
C119 C118 1.391 . S
C119 C120 1.396 . S
C120 H104 0.939 . S
C120 C119 1.396 . S
C120 C121 1.397 1_565 S
C121 C120 1.397 1_545 S
C121 C122 1.385 . S
C122 H105 0.940 . S
C122 C121 1.385 . S
C122 C123 1.388 . S
C123 H102 0.939 . S
C123 C118 1.391 1_545 S
C123 C122 1.388 . S
P124 O135 1.490 . S
P124 C138 1.812 . S
P124 C144 1.803 . S
P124 C150 1.819 . S
H125 C139 0.941 . S
H126 C140 0.939 1_554 S
H127 C142 0.940 . S
H128 C143 0.940 . S
H129 C145 0.939 . S
H130 C146 0.942 . S
H131 C148 0.940 . S
H132 C149 0.939 . S
H133 C151 0.941 . S
H134 C155 0.939 . S
O135 P124 1.490 . S
H136 C152 0.939 . S
H137 C154 0.940 . S
C138 P124 1.812 . S
C138 C139 1.389 . S
C138 C143 1.391 . S
C139 H125 0.941 . S
C139 C138 1.389 . S
C139 C140 1.397 . S
C140 H126 0.939 1_556 S
C140 C139 1.397 . S
C140 C141 1.378 . S
C141 C140 1.378 . S
C141 C142 1.378 . S
C142 H127 0.940 . S
C142 C141 1.378 . S
C142 C143 1.396 . S
C143 H128 0.940 . S
C143 C138 1.391 . S
C143 C142 1.396 . S
C144 P124 1.803 . S
C144 C145 1.378 . S
C144 C149 1.400 . S
C145 H129 0.939 . S
C145 C144 1.378 . S
C145 C146 1.361 . S
C146 H130 0.942 . S
C146 C145 1.361 . S
C146 C147 1.369 . S
C147 C146 1.369 . S
C147 C148 1.404 . S
C148 H131 0.940 . S
C148 C147 1.404 . S
C148 C149 1.389 . S
C149 H132 0.939 . S
C149 C144 1.400 . S
C149 C148 1.389 . S
C150 P124 1.819 . S
C150 C151 1.391 . S
C150 C155 1.391 . S
C151 H133 0.941 . S
C151 C150 1.391 . S
C151 C152 1.396 . S
C152 H136 0.939 . S
C152 C151 1.396 . S
C152 C153 1.397 . S
C153 C152 1.397 . S
C153 C154 1.385 . S
C154 H137 0.940 . S
C154 C153 1.385 . S
C154 C155 1.388 . S
C155 H134 0.939 . S
C155 C150 1.391 . S
C155 C154 1.388 . S
P156 O167 1.490 . S
P156 C170 1.812 . S
P156 C176 1.803 . S
P156 C182 1.819 . S
H157 C171 0.941 . S
H158 C172 0.939 . S
H159 C174 0.940 . S
H160 C175 0.940 . S
H161 C177 0.939 . S
H162 C178 0.942 . S
H163 C180 0.940 . S
H164 C181 0.939 . S
H165 C183 0.941 . S
H166 C187 0.939 . S
O167 P156 1.490 . S
H168 C184 0.939 . S
H169 C186 0.940 . S
C170 P156 1.812 . S
C170 C171 1.389 . S
C170 C175 1.391 . S
C171 H157 0.941 . S
C171 C170 1.389 . S
C171 C172 1.397 . S
C172 H158 0.939 . S
C172 C171 1.397 . S
C172 C173 1.378 . S
C173 C172 1.378 . S
C173 C174 1.378 . S
C174 H159 0.940 . S
C174 C173 1.378 . S
C174 C175 1.396 . S
C175 H160 0.940 . S
C175 C170 1.391 . S
C175 C174 1.396 . S
C176 P156 1.803 . S
C176 C177 1.378 . S
C176 C181 1.400 . S
C177 H161 0.939 . S
C177 C176 1.378 . S
C177 C178 1.361 . S
C178 H162 0.942 . S
C178 C177 1.361 . S
C178 C179 1.369 . S
C179 C178 1.369 . S
C179 C180 1.404 . S
C180 H163 0.940 . S
C180 C179 1.404 . S
C180 C181 1.389 . S
C181 H164 0.939 . S
C181 C176 1.400 . S
C181 C180 1.389 . S
C182 P156 1.819 . S
C182 C183 1.391 . S
C182 C187 1.391 . S
C183 H165 0.941 . S
C183 C182 1.391 . S
C183 C184 1.396 . S
C184 H168 0.939 . S
C184 C183 1.396 . S
C184 C185 1.397 . S
C185 C184 1.397 . S
C185 C186 1.385 . S
C186 H169 0.940 . S
C186 C185 1.385 . S
C186 C187 1.388 . S
C187 H166 0.939 . S
C187 C182 1.391 . S
C187 C186 1.388 . S
H188 C200 0.930 . S
H189 C202 0.930 . S
H190 C203 0.930 . S
H191 C207 0.959 . S
H192 C207 0.959 . S
H193 C207 0.961 . S
H194 C208 0.960 . S
H195 C208 0.961 . S
H196 C208 0.959 . S
H197 C211 0.929 . S
H198 C212 0.931 1_556 S
H199 C214 0.930 . S
C200 H188 0.930 . S
C200 C201 1.399 . S
C200 C205 1.399 . S
C201 C200 1.399 . S
C201 C202 1.376 1_554 S
C202 H189 0.930 . S
C202 C201 1.376 1_556 S
C202 C203 1.388 . S
C203 H190 0.930 . S
C203 C202 1.388 . S
C203 C204 1.390 1_556 S
C204 C203 1.390 1_554 S
C204 C205 1.394 . S
C204 C210 1.465 . S
C205 C200 1.399 . S
C205 C204 1.394 . S
C205 C206 1.516 . S
C206 C205 1.516 . S
C206 C207 1.502 . S
C206 C208 1.561 . S
C206 C209 1.526 . S
C207 H191 0.959 . S
C207 H192 0.959 . S
C207 H193 0.961 . S
C207 C206 1.502 . S
C208 H194 0.960 . S
C208 H195 0.961 . S
C208 H196 0.959 . S
C208 C206 1.561 . S
C209 C206 1.526 . S
C209 C210 1.396 . S
C209 C214 1.390 . S
C210 C204 1.465 . S
C210 C209 1.396 . S
C210 C211 1.399 1_554 S
C211 H197 0.929 . S
C211 C210 1.399 1_556 S
C211 C212 1.385 1_556 S
C212 H198 0.931 1_554 S
C212 C211 1.385 1_554 S
C212 C213 1.389 . S
C213 C212 1.389 . S
C213 C214 1.387 . S
C214 H199 0.930 . S
C214 C209 1.390 . S
C214 C213 1.387 . S
H215 C227 0.930 . S
H216 C229 0.930 . S
H217 C230 0.930 . S
H218 C234 0.959 . S
H219 C234 0.959 . S
H220 C234 0.961 . S
H221 C235 0.960 . S
H222 C235 0.961 . S
H223 C235 0.959 . S
H224 C238 0.929 . S
H225 C239 0.931 . S
H226 C241 0.930 . S
C227 H215 0.930 . S
C227 C228 1.399 1_556 S
C227 C232 1.399 . S
C228 C227 1.399 1_554 S
C228 C229 1.376 . S
C229 H216 0.930 . S
C229 C228 1.376 . S
C229 C230 1.388 . S
C230 H217 0.930 . S
C230 C229 1.388 . S
C230 C231 1.390 . S
C231 C230 1.390 . S
C231 C232 1.394 1_554 S
C231 C237 1.465 . S
C232 C227 1.399 . S
C232 C231 1.394 1_556 S
C232 C233 1.516 . S
C233 C232 1.516 . S
C233 C234 1.502 . S
C233 C235 1.561 . S
C233 C236 1.526 . S
C234 H218 0.959 . S
C234 H219 0.959 . S
C234 H220 0.961 . S
C234 C233 1.502 . S
C235 H221 0.960 . S
C235 H222 0.961 . S
C235 H223 0.959 . S
C235 C233 1.561 . S
C236 C233 1.526 . S
C236 C237 1.396 1_556 S
C236 C241 1.390 . S
C237 C231 1.465 . S
C237 C236 1.396 1_554 S
C237 C238 1.399 . S
C238 H224 0.929 . S
C238 C237 1.399 . S
C238 C239 1.385 . S
C239 H225 0.931 . S
C239 C238 1.385 . S
C239 C240 1.389 1_554 S
C240 C239 1.389 1_556 S
C240 C241 1.387 . S
C241 H226 0.930 . S
C241 C236 1.390 . S
C241 C240 1.387 . S
H242 C254 0.930 . S
H243 C256 0.930 . S
H244 C257 0.930 . S
H245 C261 0.959 . S
H246 C261 0.959 . S
H247 C261 0.961 . S
H248 C262 0.960 . S
H249 C262 0.961 . S
H250 C262 0.959 . S
H251 C265 0.929 . S
H252 C266 0.931 1_556 S
H253 C268 0.930 . S
C254 H242 0.930 . S
C254 C255 1.399 . S
C254 C259 1.399 . S
C255 C254 1.399 . S
C255 C256 1.376 1_554 S
C256 H243 0.930 . S
C256 C255 1.376 1_556 S
C256 C257 1.388 . S
C257 H244 0.930 . S
C257 C256 1.388 . S
C257 C258 1.390 1_556 S
C258 C257 1.390 1_554 S
C258 C259 1.394 . S
C258 C264 1.465 . S
C259 C254 1.399 . S
C259 C258 1.394 . S
C259 C260 1.516 . S
C260 C259 1.516 . S
C260 C261 1.502 . S
C260 C262 1.561 . S
C260 C263 1.526 . S
C261 H245 0.959 . S
C261 H246 0.959 . S
C261 H247 0.961 . S
C261 C260 1.502 . S
C262 H248 0.960 . S
C262 H249 0.961 . S
C262 H250 0.959 . S
C262 C260 1.561 . S
C263 C260 1.526 . S
C263 C264 1.396 . S
C263 C268 1.390 . S
C264 C258 1.465 . S
C264 C263 1.396 . S
C264 C265 1.399 1_554 S
C265 H251 0.929 . S
C265 C264 1.399 1_556 S
C265 C266 1.385 1_556 S
C266 H252 0.931 1_554 S
C266 C265 1.385 1_554 S
C266 C267 1.389 . S
C267 C266 1.389 . S
C267 C268 1.387 . S
C268 H253 0.930 . S
C268 C263 1.390 . S
C268 C267 1.387 . S
H269 C281 0.930 . S
H270 C283 0.930 . S
H271 C284 0.930 . S
H272 C288 0.959 . S
H273 C288 0.959 . S
H274 C288 0.961 . S
H275 C289 0.960 . S
H276 C289 0.961 . S
H277 C289 0.959 . S
H278 C292 0.929 . S
H279 C293 0.931 . S
H280 C295 0.930 . S
C281 H269 0.930 . S
C281 C282 1.399 . S
C281 C286 1.399 . S
C282 C281 1.399 . S
C282 C283 1.376 1_554 S
C283 H270 0.930 . S
C283 C282 1.376 1_556 S
C283 C284 1.388 . S
C284 H271 0.930 . S
C284 C283 1.388 . S
C284 C285 1.390 . S
C285 C284 1.390 . S
C285 C286 1.394 1_556 S
C285 C291 1.465 . S
C286 C281 1.399 . S
C286 C285 1.394 1_554 S
C286 C287 1.516 . S
C287 C286 1.516 . S
C287 C288 1.502 . S
C287 C289 1.561 . S
C287 C290 1.526 . S
C288 H272 0.959 . S
C288 H273 0.959 . S
C288 H274 0.961 . S
C288 C287 1.502 . S
C289 H275 0.960 . S
C289 H276 0.961 . S
C289 H277 0.959 . S
C289 C287 1.561 . S
C290 C287 1.526 . S
C290 C291 1.396 1_554 S
C290 C295 1.390 . S
C291 C285 1.465 . S
C291 C290 1.396 1_556 S
C291 C292 1.399 . S
C292 H278 0.929 . S
C292 C291 1.399 . S
C292 C293 1.385 . S
C293 H279 0.931 . S
C293 C292 1.385 . S
C293 C294 1.389 . S
C294 C293 1.389 . S
C294 C295 1.387 1_556 S
C295 H280 0.930 . S
C295 C290 1.390 . S
C295 C294 1.387 1_554 S
H296 C308 0.930 . S
H297 C310 0.930 . S
H298 C311 0.930 . S
H299 C315 0.959 . S
H300 C315 0.959 . S
H301 C315 0.961 . S
H302 C316 0.960 . S
H303 C316 0.961 . S
H304 C316 0.959 . S
H305 C319 0.929 . S
H306 C320 0.931 . S
H307 C322 0.930 . S
C308 H296 0.930 . S
C308 C309 1.399 . S
C308 C313 1.399 . S
C309 C308 1.399 . S
C309 C310 1.376 . S
C310 H297 0.930 . S
C310 C309 1.376 . S
C310 C311 1.388 . S
C311 H298 0.930 . S
C311 C310 1.388 . S
C311 C312 1.390 . S
C312 C311 1.390 . S
C312 C313 1.394 . S
C312 C318 1.465 . S
C313 C308 1.399 . S
C313 C312 1.394 . S
C313 C314 1.516 . S
C314 C313 1.516 . S
C314 C315 1.502 . S
C314 C316 1.561 . S
C314 C317 1.526 . S
C315 H299 0.959 . S
C315 H300 0.959 . S
C315 H301 0.961 . S
C315 C314 1.502 . S
C316 H302 0.960 . S
C316 H303 0.961 . S
C316 H304 0.959 . S
C316 C314 1.561 . S
C317 C314 1.526 . S
C317 C318 1.396 . S
C317 C322 1.390 . S
C318 C312 1.465 . S
C318 C317 1.396 . S
C318 C319 1.399 . S
C319 H305 0.929 . S
C319 C318 1.399 . S
C319 C320 1.385 . S
C320 H306 0.931 . S
C320 C319 1.385 . S
C320 C321 1.389 . S
C321 C320 1.389 . S
C321 C322 1.387 . S
C322 H307 0.930 . S
C322 C317 1.390 . S
C322 C321 1.387 . S
H323 C335 0.930 . S
H324 C337 0.930 . S
H325 C338 0.930 . S
H326 C342 0.959 . S
H327 C342 0.959 . S
H328 C342 0.961 . S
H329 C343 0.960 . S
H330 C343 0.961 . S
H331 C343 0.959 . S
H332 C346 0.929 . S
H333 C347 0.931 . S
H334 C349 0.930 . S
C335 H323 0.930 . S
C335 C336 1.399 . S
C335 C340 1.399 . S
C336 C335 1.399 . S
C336 C337 1.376 . S
C337 H324 0.930 . S
C337 C336 1.376 . S
C337 C338 1.388 . S
C338 H325 0.930 . S
C338 C337 1.388 . S
C338 C339 1.390 . S
C339 C338 1.390 . S
C339 C340 1.394 . S
C339 C345 1.465 . S
C340 C335 1.399 . S
C340 C339 1.394 . S
C340 C341 1.516 . S
C341 C340 1.516 . S
C341 C342 1.502 . S
C341 C343 1.561 . S
C341 C344 1.526 . S
C342 H326 0.959 . S
C342 H327 0.959 . S
C342 H328 0.961 . S
C342 C341 1.502 . S
C343 H329 0.960 . S
C343 H330 0.961 . S
C343 H331 0.959 . S
C343 C341 1.561 . S
C344 C341 1.526 . S
C344 C345 1.396 . S
C344 C349 1.390 . S
C345 C339 1.465 . S
C345 C344 1.396 . S
C345 C346 1.399 . S
C346 H332 0.929 . S
C346 C345 1.399 . S
C346 C347 1.385 . S
C347 H333 0.931 . S
C347 C346 1.385 . S
C347 C348 1.389 . S
C348 C347 1.389 . S
C348 C349 1.387 . S
C349 H334 0.930 . S
C349 C344 1.390 . S
C349 C348 1.387 . S
H350 C362 0.930 . S
H351 C364 0.930 . S
H352 C365 0.930 . S
H353 C369 0.959 . S
H354 C369 0.959 . S
H355 C369 0.961 . S
H356 C370 0.960 . S
H357 C370 0.961 . S
H358 C370 0.959 . S
H359 C373 0.929 . S
H360 C374 0.931 . S
H361 C376 0.930 . S
C362 H350 0.930 . S
C362 C363 1.399 . S
C362 C367 1.399 . S
C363 C362 1.399 . S
C363 C364 1.376 . S
C364 H351 0.930 . S
C364 C363 1.376 . S
C364 C365 1.388 . S
C365 H352 0.930 . S
C365 C364 1.388 . S
C365 C366 1.390 . S
C366 C365 1.390 . S
C366 C367 1.394 . S
C366 C372 1.465 . S
C367 C362 1.399 . S
C367 C366 1.394 . S
C367 C368 1.516 . S
C368 C367 1.516 . S
C368 C369 1.502 . S
C368 C370 1.561 . S
C368 C371 1.526 . S
C369 H353 0.959 . S
C369 H354 0.959 . S
C369 H355 0.961 . S
C369 C368 1.502 . S
C370 H356 0.960 . S
C370 H357 0.961 . S
C370 H358 0.959 . S
C370 C368 1.561 . S
C371 C368 1.526 . S
C371 C372 1.396 . S
C371 C376 1.390 . S
C372 C366 1.465 . S
C372 C371 1.396 . S
C372 C373 1.399 . S
C373 H359 0.929 . S
C373 C372 1.399 . S
C373 C374 1.385 . S
C374 H360 0.931 . S
C374 C373 1.385 . S
C374 C375 1.389 . S
C375 C374 1.389 . S
C375 C376 1.387 . S
C376 H361 0.930 . S
C376 C371 1.390 . S
C376 C375 1.387 . S
H377 C389 0.930 . S
H378 C391 0.930 . S
H379 C392 0.930 . S
H380 C396 0.959 . S
H381 C396 0.959 . S
H382 C396 0.961 . S
H383 C397 0.960 . S
H384 C397 0.961 . S
H385 C397 0.959 . S
H386 C400 0.929 . S
H387 C401 0.931 . S
H388 C403 0.930 . S
C389 H377 0.930 . S
C389 C390 1.399 . S
C389 C394 1.399 . S
C390 C389 1.399 . S
C390 C391 1.376 . S
C391 H378 0.930 . S
C391 C390 1.376 . S
C391 C392 1.388 . S
C392 H379 0.930 . S
C392 C391 1.388 . S
C392 C393 1.390 . S
C393 C392 1.390 . S
C393 C394 1.394 . S
C393 C399 1.465 . S
C394 C389 1.399 . S
C394 C393 1.394 . S
C394 C395 1.516 . S
C395 C394 1.516 . S
C395 C396 1.502 . S
C395 C397 1.561 . S
C395 C398 1.526 . S
C396 H380 0.959 . S
C396 H381 0.959 . S
C396 H382 0.961 . S
C396 C395 1.502 . S
C397 H383 0.960 . S
C397 H384 0.961 . S
C397 H385 0.959 . S
C397 C395 1.561 . S
C398 C395 1.526 . S
C398 C399 1.396 . S
C398 C403 1.390 . S
C399 C393 1.465 . S
C399 C398 1.396 . S
C399 C400 1.399 . S
C400 H386 0.929 . S
C400 C399 1.399 . S
C400 C401 1.385 . S
C401 H387 0.931 . S
C401 C400 1.385 . S
C401 C402 1.389 . S
C402 C401 1.389 . S
C402 C403 1.387 . S
C403 H388 0.930 . S
C403 C398 1.390 . S
C403 C402 1.387 . S
H404 C416 0.930 . S
H405 C418 0.930 . S
H406 C419 0.930 . S
H407 C423 0.959 . S
H408 C423 0.959 . S
H409 C423 0.961 . S
H410 C424 0.960 . S
H411 C424 0.961 . S
H412 C424 0.959 . S
H413 C427 0.929 . S
H414 C428 0.931 . S
H415 C430 0.930 . S
C416 H404 0.930 . S
C416 C417 1.399 1_455 S
C416 C421 1.399 . S
C417 C416 1.399 1_655 S
C417 C418 1.376 1_545 S
C418 H405 0.930 . S
C418 C417 1.376 1_565 S
C418 C419 1.388 . S
C419 H406 0.930 . S
C419 C418 1.388 . S
C419 C420 1.390 . S
C420 C419 1.390 . S
C420 C421 1.394 1_665 S
C420 C426 1.465 . S
C421 C416 1.399 . S
C421 C420 1.394 1_445 S
C421 C422 1.516 . S
C422 C421 1.516 . S
C422 C423 1.502 . S
C422 C424 1.561 . S
C422 C425 1.526 . S
C423 H407 0.959 . S
C423 H408 0.959 . S
C423 H409 0.961 . S
C423 C422 1.502 . S
C424 H410 0.960 . S
C424 H411 0.961 . S
C424 H412 0.959 . S
C424 C422 1.561 . S
C425 C422 1.526 . S
C425 C426 1.396 1_445 S
C425 C430 1.390 . S
C426 C420 1.465 . S
C426 C425 1.396 1_665 S
C426 C427 1.399 . S
C427 H413 0.929 . S
C427 C426 1.399 . S
C427 C428 1.385 . S
C428 H414 0.931 . S
C428 C427 1.385 . S
C428 C429 1.398 . S
C429 C428 1.398 . S
C429 C430 1.378 1_665 S
C430 H415 0.930 . S
C430 C425 1.390 . S
C430 C429 1.378 1_445 S
H431 C443 0.930 . S
H432 C445 0.930 . S
H433 C446 0.930 . S
H434 C450 0.959 . S
H435 C450 0.959 . S
H436 C450 0.961 . S
H437 C451 0.960 . S
H438 C451 0.961 . S
H439 C451 0.959 . S
H440 C454 0.929 . S
H441 C455 0.931 . S
H442 C457 0.930 . S
C443 H431 0.930 . S
C443 C444 1.399 1_565 S
C443 C448 1.399 . S
C444 C443 1.399 1_545 S
C444 C445 1.376 1_455 S
C445 H432 0.930 . S
C445 C444 1.376 1_655 S
C445 C446 1.388 . S
C446 H433 0.930 . S
C446 C445 1.388 . S
C446 C447 1.390 . S
C447 C446 1.390 . S
C447 C448 1.394 1_645 S
C447 C453 1.465 . S
C448 C443 1.399 . S
C448 C447 1.394 1_465 S
C448 C449 1.516 . S
C449 C448 1.516 . S
C449 C450 1.502 . S
C449 C451 1.561 1_455 S
C449 C452 1.526 . S
C450 H434 0.959 . S
C450 H435 0.959 . S
C450 H436 0.961 . S
C450 C449 1.502 . S
C451 H437 0.960 . S
C451 H438 0.961 . S
C451 H439 0.959 . S
C451 C449 1.561 1_655 S
C452 C449 1.526 . S
C452 C453 1.396 1_465 S
C452 C457 1.390 . S
C453 C447 1.465 . S
C453 C452 1.396 1_645 S
C453 C454 1.399 . S
C454 H440 0.929 . S
C454 C453 1.399 . S
C454 C455 1.385 . S
C455 H441 0.931 . S
C455 C454 1.385 . S
C455 C456 1.389 1_655 S
C456 C455 1.389 1_455 S
C456 C457 1.387 1_545 S
C457 H442 0.930 . S
C457 C452 1.390 . S
C457 C456 1.387 1_565 S
H458 C470 0.930 . S
H459 C472 0.930 . S
H460 C473 0.930 . S
H461 C477 0.959 . S
H462 C477 0.959 . S
H463 C477 0.961 . S
H464 C478 0.960 . S
H465 C478 0.961 . S
H466 C478 0.959 . S
H467 C481 0.929 . S
H468 C482 0.931 . S
H469 C484 0.930 . S
C470 H458 0.930 . S
C470 C471 1.399 . S
C470 C475 1.399 . S
C471 C470 1.399 . S
C471 C472 1.376 . S
C472 H459 0.930 . S
C472 C471 1.376 . S
C472 C473 1.388 . S
C473 H460 0.930 . S
C473 C472 1.388 . S
C473 C474 1.390 . S
C474 C473 1.390 . S
C474 C475 1.394 . S
C474 C480 1.465 . S
C475 C470 1.399 . S
C475 C474 1.394 . S
C475 C476 1.516 . S
C476 C475 1.516 . S
C476 C477 1.502 . S
C476 C478 1.561 . S
C476 C479 1.526 . S
C477 H461 0.959 . S
C477 H462 0.959 . S
C477 H463 0.961 . S
C477 C476 1.502 . S
C478 H464 0.960 . S
C478 H465 0.961 . S
C478 H466 0.959 . S
C478 C476 1.561 . S
C479 C476 1.526 . S
C479 C480 1.396 . S
C479 C484 1.390 . S
C480 C474 1.465 . S
C480 C479 1.396 . S
C480 C481 1.399 . S
C481 H467 0.929 . S
C481 C480 1.399 . S
C481 C482 1.385 . S
C482 H468 0.931 . S
C482 C481 1.385 . S
C482 C483 1.389 . S
C483 C482 1.389 . S
C483 C484 1.387 . S
C484 H469 0.930 . S
C484 C479 1.390 . S
C484 C483 1.387 . S
H485 C497 0.930 . S
H486 C499 0.930 . S
H487 C500 0.930 . S
H488 C504 0.959 . S
H489 C504 0.959 . S
H490 C504 0.961 . S
H491 C505 0.960 . S
H492 C505 0.961 . S
H493 C505 0.959 . S
H494 C508 0.929 . S
H495 C509 0.931 . S
H496 C511 0.930 . S
C497 H485 0.930 . S
C497 C498 1.399 . S
C497 C502 1.399 . S
C498 C497 1.399 . S
C498 C499 1.376 . S
C499 H486 0.930 . S
C499 C498 1.376 . S
C499 C500 1.388 . S
C500 H487 0.930 . S
C500 C499 1.388 . S
C500 C501 1.390 . S
C501 C500 1.390 . S
C501 C502 1.394 . S
C501 C507 1.465 . S
C502 C497 1.399 . S
C502 C501 1.394 . S
C502 C503 1.516 . S
C503 C502 1.516 . S
C503 C504 1.502 . S
C503 C505 1.561 . S
C503 C506 1.526 . S
C504 H488 0.959 . S
C504 H489 0.959 . S
C504 H490 0.961 . S
C504 C503 1.502 . S
C505 H491 0.960 . S
C505 H492 0.961 . S
C505 H493 0.959 . S
C505 C503 1.561 . S
C506 C503 1.526 . S
C506 C507 1.396 . S
C506 C511 1.390 . S
C507 C501 1.465 . S
C507 C506 1.396 . S
C507 C508 1.399 . S
C508 H494 0.929 . S
C508 C507 1.399 . S
C508 C509 1.385 . S
C509 H495 0.931 . S
C509 C508 1.385 . S
C509 C510 1.389 . S
C510 C509 1.389 . S
C510 C511 1.387 . S
C511 H496 0.930 . S
C511 C506 1.390 . S
C511 C510 1.387 . S
C213 C173 1.411 . S
C201 C27 1.451 . S
C228 N6 1.378 . S
C240 C141 1.379 . S
C255 C16 1.441 . S
C267 C179 1.429 . S
C282 N14 1.407 . S
C294 C147 1.325 . S
C309 C57 1.440 . S
C321 C109 1.399 . S
C336 N36 1.334 . S
C348 C77 1.362 . S
C375 C115 1.430 . S
C363 C46 1.440 . S
C402 C83 1.329 . S
C390 N44 1.408 . S
C417 C10 1.400 1_655 S
C429 C89 1.394 1_665 S
C444 C1 1.514 . S
C456 C121 1.520 . S
C483 C153 1.333 . S
C471 C40 1.386 . S
C498 C31 1.532 . S
C510 C185 1.478 . S
