# Generated by pormake.
# Topology nom, (4,4)-cn, num edge types: 1
# Building blocks:
#     Node 0, Type 0, BuildingBlock: MUDLON_clean_linker_0, # of connection points: 4
#     Node 1, Type 0, BuildingBlock: MUDLON_clean_linker_0, # of connection points: 4
#     Node 2, Type 0, BuildingBlock: MUDLON_clean_linker_0, # of connection points: 4
#     Node 3, Type 0, BuildingBlock: MUDLON_clean_linker_0, # of connection points: 4
#     Node 4, Type 0, BuildingBlock: MUDLON_clean_linker_0, # of connection points: 4
#     Node 5, Type 0, BuildingBlock: MUDLON_clean_linker_0, # of connection points: 4
#     Node 6, Type 1, BuildingBlock: QUQFOY_clean_sbu_3, # of connection points: 4
#     Node 7, Type 1, BuildingBlock: QUQFOY_clean_sbu_3, # of connection points: 4
#     Node 8, Type 1, BuildingBlock: QUQFOY_clean_sbu_3, # of connection points: 4
#     Node 9, Type 1, BuildingBlock: QUQFOY_clean_sbu_3, # of connection points: 4
#     Node 10, Type 1, BuildingBlock: QUQFOY_clean_sbu_3, # of connection points: 4
#     Node 11, Type 1, BuildingBlock: QUQFOY_clean_sbu_3, # of connection points: 4
#     Edge 12, Type (0, 1), BuildingBlock: OJICUG_clean_linker_0, # of connection points: 2
#     Edge 13, Type (0, 1), BuildingBlock: OJICUG_clean_linker_0, # of connection points: 2
#     Edge 14, Type (0, 1), BuildingBlock: OJICUG_clean_linker_0, # of connection points: 2
#     Edge 15, Type (0, 1), BuildingBlock: OJICUG_clean_linker_0, # of connection points: 2
#     Edge 16, Type (0, 1), BuildingBlock: OJICUG_clean_linker_0, # of connection points: 2
#     Edge 17, Type (0, 1), BuildingBlock: OJICUG_clean_linker_0, # of connection points: 2
#     Edge 18, Type (0, 1), BuildingBlock: OJICUG_clean_linker_0, # of connection points: 2
#     Edge 19, Type (0, 1), BuildingBlock: OJICUG_clean_linker_0, # of connection points: 2
#     Edge 20, Type (0, 1), BuildingBlock: OJICUG_clean_linker_0, # of connection points: 2
#     Edge 21, Type (0, 1), BuildingBlock: OJICUG_clean_linker_0, # of connection points: 2
#     Edge 22, Type (0, 1), BuildingBlock: OJICUG_clean_linker_0, # of connection points: 2
#     Edge 23, Type (0, 1), BuildingBlock: OJICUG_clean_linker_0, # of connection points: 2
#     Edge 24, Type (0, 1), BuildingBlock: OJICUG_clean_linker_0, # of connection points: 2
#     Edge 25, Type (0, 1), BuildingBlock: OJICUG_clean_linker_0, # of connection points: 2
#     Edge 26, Type (0, 1), BuildingBlock: OJICUG_clean_linker_0, # of connection points: 2
#     Edge 27, Type (0, 1), BuildingBlock: OJICUG_clean_linker_0, # of connection points: 2
#     Edge 28, Type (0, 1), BuildingBlock: OJICUG_clean_linker_0, # of connection points: 2
#     Edge 29, Type (0, 1), BuildingBlock: OJICUG_clean_linker_0, # of connection points: 2
#     Edge 30, Type (0, 1), BuildingBlock: OJICUG_clean_linker_0, # of connection points: 2
#     Edge 31, Type (0, 1), BuildingBlock: OJICUG_clean_linker_0, # of connection points: 2
#     Edge 32, Type (0, 1), BuildingBlock: OJICUG_clean_linker_0, # of connection points: 2
#     Edge 33, Type (0, 1), BuildingBlock: OJICUG_clean_linker_0, # of connection points: 2
#     Edge 34, Type (0, 1), BuildingBlock: OJICUG_clean_linker_0, # of connection points: 2
#     Edge 35, Type (0, 1), BuildingBlock: OJICUG_clean_linker_0, # of connection points: 2
# Relax obj value: 0.008
# Max RMSD: 0.107
# Mean RMSD: 0.061
data_MOF--net-nom--node1-QUQFOY_clean_sbu_3--node2-MUDLON_clean_linker_0--edge1-OJICUG_clean_linker_0
_symmetry_space_group_name_H-M    P1
_symmetry_Int_Tables_number       1
_symmetry_cell_setting            triclinic
loop_
_symmetry_equiv_pos_as_xyz
'x, y, z'
_cell_length_a     48.242281
_cell_length_b     50.454009
_cell_length_c     48.731866
_cell_angle_alpha  90.446015
_cell_angle_beta   89.827931
_cell_angle_gamma 120.66837
loop_
_atom_site_label
_atom_site_type_symbol
_atom_site_fract_x
_atom_site_fract_y
_atom_site_fract_z
_atom_type_partial_charge
H0 H 0.15114 0.53967 0.28624 0.0
N1 N 0.10805 0.54124 0.31929 0.0
H2 H 0.18785 0.57975 0.25461 0.0
H3 H 0.10413 0.5914 0.30281 0.0
H4 H 0.14155 0.63201 0.27321 0.0
H5 H 0.1302 0.59686 0.34611 0.0
H6 H 0.1632 0.61434 0.38691 0.0
H7 H 0.12403 0.50865 0.35135 0.0
H8 H 0.15689 0.52603 0.39324 0.0
H9 H 0.06389 0.48992 0.29451 0.0
H10 H 0.07446 0.56552 0.34437 0.0
H11 H 0.00673 0.47212 0.28811 0.0
H12 H 0.01884 0.54957 0.33661 0.0
H13 H 0.84941 0.44485 0.25432 0.0
H14 H 0.82986 0.43322 0.2073 0.0
H15 H 0.89378 0.52884 0.18594 0.0
H16 H 0.91091 0.54051 0.23377 0.0
H17 H 0.86346 0.5347 0.2889 0.0
H18 H 0.8178 0.5201 0.31965 0.0
H19 H 0.81276 0.43356 0.33563 0.0
H20 H 0.85802 0.4482 0.30428 0.0
H21 H 0.92715 0.48275 0.2472 0.0
H22 H 0.97674 0.48701 0.26227 0.0
H23 H 0.96464 0.51687 0.34252 0.0
N24 N 0.89082 0.50212 0.27588 0.0
H25 H 0.91634 0.51537 0.32666 0.0
C26 C 0.12517 0.5625 0.29731 0.0
C27 C 0.14845 0.55942 0.28278 0.0
C28 C 0.16961 0.58255 0.26497 0.0
C29 C 0.16827 0.6096 0.26176 0.0
C30 C 0.14336 0.61157 0.27485 0.0
C31 C 0.12188 0.58819 0.29219 0.0
C32 C 0.12442 0.55115 0.34544 0.0
C33 C 0.13534 0.58088 0.35622 0.0
C34 C 0.15428 0.59095 0.37983 0.0
C35 C 0.1628 0.57165 0.39335 0.0
C36 C 0.15111 0.54163 0.38309 0.0
C37 C 0.1321 0.53154 0.35936 0.0
C38 C 0.07374 0.52919 0.31957 0.0
C39 C 0.05382 0.50248 0.3043 0.0
C40 C 0.02124 0.49258 0.30043 0.0
C41 C 0.00804 0.50961 0.31144 0.0
C42 C 0.02773 0.53546 0.32804 0.0
C43 C 0.06004 0.54493 0.33232 0.0
C44 C 0.88089 0.49385 0.24769 0.0
C45 C 0.85889 0.46335 0.23959 0.0
C46 C 0.84811 0.45666 0.21244 0.0
C47 C 0.85981 0.48013 0.19263 0.0
C48 C 0.88333 0.51027 0.20064 0.0
C49 C 0.89343 0.51703 0.22792 0.0
C50 C 0.86406 0.49265 0.2944 0.0
C51 C 0.85244 0.51263 0.29911 0.0
C52 C 0.82655 0.50431 0.31681 0.0
C53 C 0.81178 0.47573 0.33023 0.0
C54 C 0.82342 0.4556 0.32542 0.0
C55 C 0.84931 0.46395 0.30761 0.0
C56 C 0.91708 0.49846 0.28577 0.0
C57 C 0.93452 0.48984 0.26821 0.0
C58 C 0.96315 0.49201 0.277 0.0
C59 C 0.97508 0.50254 0.30363 0.0
C60 C 0.95673 0.50935 0.32166 0.0
C61 C 0.92862 0.50799 0.31268 0.0
H62 H 0.50225 0.8734 0.4704 0.0
N63 N 0.47771 0.90057 0.44099 0.0
H64 H 0.47273 0.82884 0.5004 0.0
H65 H 0.41684 0.87944 0.46121 0.0
H66 H 0.38694 0.83452 0.49003 0.0
H67 H 0.42926 0.90749 0.41997 0.0
H68 H 0.40047 0.88558 0.37695 0.0
H69 H 0.49112 0.87096 0.40302 0.0
H70 H 0.46375 0.85036 0.3592 0.0
H71 H 0.53681 0.9414 0.42567 0.0
H72 H 0.45355 0.93326 0.46658 0.0
H73 H 0.56409 -0.00259 0.42953 0.0
H74 H 0.48104 0.98926 0.4716 0.0
H75 H 0.64372 0.1696 0.49467 0.0
H76 H 0.64815 0.18508 0.54276 0.0
H77 H 0.54699 0.11823 0.55422 0.0
H78 H 0.54255 0.1043 0.50578 0.0
H79 H 0.54303 0.1424 0.47016 0.0
H80 H 0.54526 0.18748 0.4499 0.0
H81 H 0.63261 0.2083 0.40715 0.0
H82 H 0.63052 0.16337 0.4281 0.0
H83 H 0.61634 0.09311 0.46833 0.0
H84 H 0.58847 0.03729 0.46264 0.0
H85 H 0.49976 0.03589 0.44585 0.0
N86 N 0.59124 0.12888 0.46778 0.0
H87 H 0.5277 0.09166 0.45266 0.0
C88 C 0.46183 0.87959 0.46331 0.0
C89 C 0.47737 0.8656 0.47544 0.0
C90 C 0.46035 0.83996 0.49231 0.0
C91 C 0.42725 0.82766 0.49718 0.0
C92 C 0.41241 0.84337 0.48688 0.0
C93 C 0.42954 0.86915 0.47017 0.0
C94 C 0.46203 0.89036 0.41478 0.0
C95 C 0.43679 0.89493 0.40686 0.0
C96 C 0.42055 0.88263 0.38209 0.0
C97 C 0.42951 0.86586 0.36472 0.0
C98 C 0.45562 0.86243 0.37236 0.0
C99 C 0.47153 0.8744 0.39722 0.0
C100 C 0.49348 0.93318 0.44613 0.0
C101 C 0.5247 0.95179 0.43595 0.0
C102 C 0.54021 0.98377 0.43822 0.0
C103 C 0.52483 -0.00209 0.45098 0.0
C104 C 0.49345 0.97916 0.46135 0.0
C105 C 0.47781 0.94705 0.45882 0.0
C106 C 0.59308 0.13568 0.49671 0.0
C107 C 0.62264 0.15822 0.5077 0.0
C108 C 0.62509 0.16683 0.53524 0.0
C109 C 0.59795 0.15274 0.55253 0.0
C110 C 0.56831 0.12981 0.5415 0.0
C111 C 0.5658 0.12154 0.5138 0.0
C112 C 0.58688 0.1497 0.45076 0.0
C113 C 0.56206 0.15602 0.45573 0.0
C114 C 0.56335 0.18186 0.44407 0.0
C115 C 0.58944 0.20178 0.42728 0.0
C116 C 0.61253 0.19371 0.4204 0.0
C117 C 0.61124 0.16793 0.4321 0.0
C118 C 0.57435 0.09662 0.46066 0.0
C119 C 0.59098 0.08073 0.46301 0.0
C120 C 0.57497 0.04883 0.45972 0.0
C121 C 0.54182 0.03202 0.45377 0.0
C122 C 0.5252 0.04807 0.4508 0.0
C123 C 0.54128 0.08009 0.45432 0.0
H124 H 0.43971 0.57755 0.67665 0.0
N125 N 0.41014 0.51871 0.69653 0.0
H126 H 0.4214 0.59549 0.63821 0.0
H127 H 0.35998 0.48523 0.66423 0.0
H128 H 0.34061 0.50301 0.62643 0.0
H129 H 0.36129 0.49391 0.73117 0.0
H130 H 0.35772 0.51361 0.77626 0.0
H131 H 0.45727 0.57156 0.72088 0.0
H132 H 0.45384 0.59182 0.76605 0.0
H133 H 0.46958 0.55158 0.67238 0.0
H134 H 0.40479 0.46655 0.71326 0.0
H135 H 0.50747 0.53394 0.66468 0.0
H136 H 0.44349 0.44939 0.70744 0.0
H137 H 0.6216 0.46538 0.63428 0.0
H138 H 0.63094 0.45588 0.58698 0.0
H139 H 0.5296 0.41703 0.56934 0.0
H140 H 0.52028 0.42496 0.61678 0.0
H141 H 0.52517 0.38556 0.64983 0.0
H142 H 0.53194 0.34471 0.66883 0.0
H143 H 0.6107 0.41172 0.71896 0.0
H144 H 0.60379 0.45272 0.69968 0.0
H145 H 0.58112 0.50444 0.67198 0.0
H146 H 0.54484 0.52318 0.68413 0.0
H147 H 0.46332 0.43081 0.67363 0.0
N148 N 0.56558 0.44754 0.6584 0.0
H149 H 0.49972 0.41228 0.66335 0.0
C150 C 0.40114 0.52992 0.67317 0.0
C151 C 0.41835 0.56108 0.66554 0.0
C152 C 0.4077 0.57136 0.64363 0.0
C153 C 0.37951 0.55073 0.62914 0.0
C154 C 0.36275 0.51948 0.63669 0.0
C155 C 0.37357 0.50925 0.65841 0.0
C156 C 0.40931 0.53133 0.7228 0.0
C157 C 0.38155 0.51525 0.73876 0.0
C158 C 0.37969 0.52644 0.76448 0.0
C159 C 0.40562 0.55414 0.77469 0.0
C160 C 0.43349 0.57048 0.75858 0.0
C161 C 0.43545 0.55901 0.73283 0.0
C162 C 0.43397 0.50995 0.69286 0.0
C163 C 0.46356 0.52916 0.67986 0.0
C164 C 0.48547 0.51914 0.67579 0.0
C165 C 0.47853 0.49004 0.68521 0.0
C166 C 0.44938 0.47154 0.69922 0.0
C167 C 0.42731 0.48135 0.70278 0.0
C168 C 0.57045 0.44618 0.62928 0.0
C169 C 0.60155 0.45532 0.62003 0.0
C170 C 0.6068 0.44991 0.59291 0.0
C171 C 0.58097 0.4355 0.57425 0.0
C172 C 0.54997 0.42761 0.58323 0.0
C173 C 0.54467 0.4326 0.61048 0.0
C174 C 0.56413 0.42234 0.67337 0.0
C175 C 0.54313 0.39142 0.66562 0.0
C176 C 0.54703 0.368 0.67651 0.0
C177 C 0.57208 0.37509 0.69515 0.0
C178 C 0.59143 0.40567 0.70437 0.0
C179 C 0.58742 0.42905 0.69356 0.0
C180 C 0.54329 0.45713 0.66661 0.0
C181 C 0.5554 0.4883 0.67266 0.0
C182 C 0.53458 0.49897 0.67932 0.0
C183 C 0.50101 0.4786 0.6797 0.0
C184 C 0.48898 0.44717 0.67403 0.0
C185 C 0.50988 0.43649 0.66786 0.0
H186 H 0.1476 0.58939 0.77554 0.0
N187 N 0.1108 0.53168 0.7536 0.0
H188 H 0.18579 0.604 0.81342 0.0
H189 H 0.12433 0.49513 0.78188 0.0
H190 H 0.16351 0.50958 0.81899 0.0
H191 H 0.12356 0.50026 0.71731 0.0
H192 H 0.14864 0.51737 0.67229 0.0
H193 H 0.12759 0.58673 0.7299 0.0
H194 H 0.15284 0.60428 0.68467 0.0
H195 H 0.09224 0.57148 0.77242 0.0
H196 H 0.05747 0.47775 0.74695 0.0
H197 H 0.03771 0.55777 0.7859 0.0
H198 H 0.00255 0.46399 0.75899 0.0
H199 H 0.83996 0.48103 0.82391 0.0
H200 H 0.81755 0.47405 0.86993 0.0
H201 H 0.8925 0.4591 0.90052 0.0
H202 H 0.91365 0.4645 0.85459 0.0
H203 H 0.86324 0.41244 0.82469 0.0
H204 H 0.82319 0.36522 0.80166 0.0
H205 H 0.81709 0.41899 0.73596 0.0
H206 H 0.8577 0.46646 0.7591 0.0
H207 H 0.92913 0.52539 0.78532 0.0
H208 H 0.98416 0.54201 0.77025 0.0
H209 H 0.97298 0.45655 0.79992 0.0
N210 N 0.88636 0.47151 0.80698 0.0
H211 H 0.9183 0.43987 0.81372 0.0
C212 C 0.13304 0.54106 0.77611 0.0
C213 C 0.15061 0.5718 0.78518 0.0
C214 C 0.17266 0.58016 0.80672 0.0
C215 C 0.17772 0.55797 0.81934 0.0
C216 C 0.15981 0.52718 0.81019 0.0
C217 C 0.13764 0.51887 0.78886 0.0
C218 C 0.12392 0.54222 0.72679 0.0
C219 C 0.12966 0.52286 0.71012 0.0
C220 C 0.1438 0.53264 0.68442 0.0
C221 C 0.15257 0.56214 0.6749 0.0
C222 C 0.1465 0.58152 0.69157 0.0
C223 C 0.13208 0.57155 0.71734 0.0
C224 C 0.0788 0.52536 0.75915 0.0
C225 C 0.0728 0.54802 0.76947 0.0
C226 C 0.04152 0.54017 0.77696 0.0
C227 C 0.01579 0.50965 0.77394 0.0
C228 C 0.02189 0.4875 0.76233 0.0
C229 C 0.05312 0.49531 0.75518 0.0
C230 C 0.8783 0.47312 0.83534 0.0
C231 C 0.85188 0.4768 0.84067 0.0
C232 C 0.83917 0.47288 0.86708 0.0
C233 C 0.85296 0.46561 0.88901 0.0
C234 C 0.88072 0.46387 0.88402 0.0
C235 C 0.89312 0.4673 0.8575 0.0
C236 C 0.86353 0.44308 0.79348 0.0
C237 C 0.85373 0.41415 0.80514 0.0
C238 C 0.83088 0.38714 0.79194 0.0
C239 C 0.81714 0.3885 0.76703 0.0
C240 C 0.82722 0.41735 0.75523 0.0
C241 C 0.85035 0.44438 0.76833 0.0
C242 C 0.91952 0.48153 0.80069 0.0
C243 C 0.93879 0.51045 0.78868 0.0
C244 C 0.97018 0.51988 0.78015 0.0
C245 C 0.98289 0.50047 0.78362 0.0
C246 C 0.96375 0.47179 0.7963 0.0
C247 C 0.93239 0.46229 0.80449 0.0
H248 H 0.57103 0.15827 0.96564 0.0
N249 N 0.60576 0.12947 0.95693 0.0
H250 H 0.58945 0.20642 0.9903 0.0
H251 H 0.65825 0.15967 0.98749 0.0
H252 H 0.67794 0.20903 0.01093 0.0
H253 H 0.6541 0.14705 0.92194 0.0
H254 H 0.65462 0.15766 0.87293 0.0
H255 H 0.55531 0.1248 0.92721 0.0
H256 H 0.55552 0.13518 0.87831 0.0
H257 H 0.54415 0.10733 0.97644 0.0
H258 H 0.6142 0.08171 0.95517 0.0
H259 H 0.5036 0.0534 0.98304 0.0
H260 H 0.57342 0.02739 0.9611 0.0
H261 H 0.39073 0.91169 0.01496 0.0
H262 H 0.37681 0.89326 0.06235 0.0
H263 H 0.44987 0.86788 0.06098 0.0
H264 H 0.46357 0.88621 0.01432 0.0
H265 H 0.47766 0.89242 0.96687 0.0
H266 H 0.46366 0.84347 0.94537 0.0
H267 H 0.36614 0.82369 0.93339 0.0
H268 H 0.38004 0.87208 0.95648 0.0
H269 H 0.43044 0.95447 0.95834 0.0
H270 H 0.47285 0.00858 0.95396 0.0
H271 H 0.53994 0.98853 0.99384 0.0
N272 N 0.43424 0.90974 0.98271 0.0
H273 H 0.49794 0.93474 -0.0026 0.0
C274 C 0.61317 0.15503 0.97497 0.0
C275 C 0.59382 0.16846 0.97629 0.0
C276 C 0.60471 0.19645 0.9901 0.0
C277 C 0.63544 0.212 0.00237 0.0
C278 C 0.654 0.19769 0.00211 0.0
C279 C 0.64286 0.16948 0.98863 0.0
C280 C 0.60489 0.13534 0.9282 0.0
C281 C 0.63255 0.1444 0.91245 0.0
C282 C 0.63267 0.1502 0.88449 0.0
C283 C 0.60502 0.14709 0.87178 0.0
C284 C 0.57723 0.13797 0.88761 0.0
C285 C 0.5771 0.13205 0.91558 0.0
C286 C 0.58248 0.09868 0.96543 0.0
C287 C 0.55108 0.09027 0.97357 0.0
C288 C 0.52768 0.05924 0.97703 0.0
C289 C 0.53514 0.03602 0.97226 0.0
C290 C 0.56689 0.04463 0.96517 0.0
C291 C 0.59024 0.07564 0.96182 0.0
C292 C 0.42812 0.90045 0.01102 0.0
C293 C 0.40389 0.90244 0.02511 0.0
C294 C 0.39595 0.89186 0.05205 0.0
C295 C 0.41236 0.87924 0.06537 0.0
C296 C 0.43718 0.87798 0.05145 0.0
C297 C 0.44495 0.88838 0.02456 0.0
C298 C 0.4296 0.88566 0.96384 0.0
C299 C 0.45342 0.87791 0.95925 0.0
C300 C 0.44539 0.84983 0.94669 0.0
C301 C 0.41353 0.8292 0.93819 0.0
C302 C 0.39067 0.83856 0.94039 0.0
C303 C 0.39863 0.86638 0.95325 0.0
C304 C 0.46082 0.94045 0.97804 0.0
C305 C 0.45446 0.96177 0.96574 0.0
C306 C 0.4786 0.9927 0.96361 0.0
C307 C 0.50971 0.00296 0.97388 0.0
C308 C 0.51631 0.98138 0.98558 0.0
C309 C 0.49215 0.95043 0.98762 0.0
H310 H 0.55862 0.44015 0.16662 0.0
N311 N 0.58219 0.49736 0.18958 0.0
H312 H 0.58416 0.42634 0.13021 0.0
H313 H 0.63618 0.53457 0.16327 0.0
H314 H 0.66236 0.52105 0.12739 0.0
H315 H 0.62473 0.52479 0.22938 0.0
H316 H 0.62314 0.50556 0.27562 0.0
H317 H 0.53548 0.44191 0.20961 0.0
H318 H 0.53372 0.42217 0.25594 0.0
H319 H 0.52379 0.46179 0.16477 0.0
H320 H 0.58717 0.55096 0.20075 0.0
H321 H 0.48474 0.47747 0.15401 0.0
H322 H 0.5478 0.56653 0.19138 0.0
H323 H 0.36477 0.54717 0.12763 0.0
H324 H 0.35186 0.55734 0.08209 0.0
H325 H 0.44665 0.58053 0.05392 0.0
H326 H 0.45988 0.57189 0.09957 0.0
H327 H 0.46101 0.62059 0.12769 0.0
H328 H 0.45876 0.66542 0.14317 0.0
H329 H 0.39308 0.61147 0.20772 0.0
H330 H 0.39506 0.56613 0.1919 0.0
H331 H 0.40905 0.5062 0.1627 0.0
H332 H 0.44707 0.48933 0.17408 0.0
H333 H 0.52638 0.58002 0.15418 0.0
N334 N 0.42241 0.56141 0.14602 0.0
H335 H 0.48859 0.5968 0.14407 0.0
C336 C 0.59566 0.48848 0.16755 0.0
C337 C 0.58106 0.45793 0.15795 0.0
C338 C 0.59578 0.45005 0.13722 0.0
C339 C 0.62525 0.4726 0.12578 0.0
C340 C 0.63938 0.50319 0.1353 0.0
C341 C 0.62466 0.51098 0.15592 0.0
C342 C 0.58049 0.48471 0.2162 0.0
C343 C 0.60485 0.50239 0.23513 0.0
C344 C 0.60371 0.49147 0.2615 0.0
C345 C 0.57813 0.46248 0.26942 0.0
C346 C 0.55373 0.44455 0.25031 0.0
C347 C 0.55477 0.45572 0.22388 0.0
C348 C 0.55852 0.50552 0.18317 0.0
C349 C 0.52923 0.48473 0.17038 0.0
C350 C 0.50681 0.49366 0.16452 0.0
C351 C 0.51319 0.52337 0.17167 0.0
C352 C 0.54236 0.54376 0.18499 0.0
C353 C 0.5648 0.53491 0.19054 0.0
C354 C 0.41328 0.55899 0.11744 0.0
C355 C 0.3824 0.55356 0.1114 0.0
C356 C 0.3751 0.55944 0.08528 0.0
C357 C 0.39849 0.57044 0.06442 0.0
C358 C 0.4284 0.57299 0.06973 0.0
C359 C 0.43586 0.56758 0.09598 0.0
C360 C 0.42785 0.58972 0.15856 0.0
C361 C 0.4469 0.61844 0.14571 0.0
C362 C 0.44552 0.6441 0.15446 0.0
C363 C 0.42551 0.64171 0.1764 0.0
C364 C 0.40881 0.61387 0.19081 0.0
C365 C 0.4099 0.58802 0.18183 0.0
C366 C 0.44576 0.55267 0.15268 0.0
C367 C 0.43468 0.52238 0.16099 0.0
C368 C 0.45643 0.51276 0.16725 0.0
C369 C 0.48983 0.53333 0.16508 0.0
C370 C 0.50088 0.56371 0.15661 0.0
C371 C 0.47915 0.57336 0.15068 0.0
C372 C 0.70007 0.44394 0.39721 0.0
O373 O 0.69858 0.4653 0.40987 0.0
Cd374 Cd 0.65069 0.45811 0.43154 0.0
O375 O 0.67599 0.41648 0.39684 0.0
Cd376 Cd 0.62042 0.38511 0.41525 0.0
C377 C 0.6007 0.42744 0.37488 0.0
O378 O 0.63308 0.41303 0.45806 0.0
O379 O 0.58263 0.38024 0.45215 0.0
O380 O 0.636 0.347 0.42245 0.0
C381 C 0.60474 0.4002 0.46749 0.0
O382 O 0.6159 0.44938 0.39205 0.0
C383 C 0.61007 0.32412 0.41346 0.0
O384 O 0.59932 0.40172 0.37788 0.0
O385 O 0.58856 0.32951 0.40492 0.0
C386 C 0.31271 0.58546 0.5528 0.0
O387 O 0.29017 0.56367 0.53906 0.0
Cd388 Cd 0.24719 0.56709 0.51843 0.0
O389 O 0.31538 0.61193 0.5539 0.0
Cd390 Cd 0.2895 0.63926 0.53386 0.0
C391 C 0.22641 0.59568 0.57489 0.0
O392 O 0.2704 0.61151 0.49045 0.0
O393 O 0.24832 0.63742 0.50342 0.0
O394 O 0.34203 0.68078 0.51957 0.0
C395 C 0.25096 0.62072 0.48525 0.0
O396 O 0.21969 0.57404 0.55768 0.0
C397 C 0.3394 0.70244 0.53021 0.0
O398 O 0.25181 0.62203 0.57226 0.0
O399 O 0.31363 0.69471 0.54343 0.0
C400 C 0.71115 0.27524 0.7239 0.0
O401 O 0.71454 0.25278 0.71676 0.0
Cd402 Cd 0.66888 0.2049 0.70161 0.0
O403 O 0.68357 0.27283 0.72308 0.0
Cd404 Cd 0.62657 0.23789 0.71123 0.0
C405 C 0.62221 0.18785 0.75968 0.0
O406 O 0.64167 0.22085 0.67062 0.0
O407 O 0.59043 0.19956 0.67698 0.0
O408 O 0.63376 0.28758 0.70039 0.0
C409 C 0.6134 0.20239 0.66213 0.0
O410 O 0.6398 0.18212 0.74412 0.0
C411 C 0.60663 0.28217 0.70927 0.0
O412 O 0.6146 0.20762 0.75288 0.0
O413 O 0.58794 0.2555 0.71897 0.0
C414 C 0.28004 0.58587 0.89605 0.0
O415 O 0.2781 0.56353 0.90955 0.0
Cd416 Cd 0.32306 0.56518 0.93183 0.0
O417 O 0.30611 0.61198 0.89577 0.0
Cd418 Cd 0.36097 0.63936 0.91618 0.0
C419 C 0.37569 0.59278 0.87625 0.0
O420 O 0.34669 0.6109 0.95838 0.0
O421 O 0.3977 0.63908 0.95118 0.0
O422 O 0.35134 0.68069 0.92798 0.0
C423 C 0.37507 0.6204 0.9667 0.0
O424 O 0.35804 0.57144 0.89302 0.0
C425 C 0.37723 0.70231 0.91778 0.0
O426 O 0.38011 0.61983 0.87905 0.0
O427 O 0.39584 0.6947 0.90619 0.0
C428 C 0.70817 0.45112 0.05571 0.0
O429 O 0.73064 0.4749 0.04414 0.0
Cd430 Cd 0.7791 0.47881 0.02753 0.0
O431 O 0.70899 0.42626 0.05671 0.0
Cd432 Cd 0.74344 0.40596 0.03926 0.0
C433 C 0.79949 0.45324 0.08542 0.0
O434 O 0.76243 0.43601 -0.00267 0.0
O435 O 0.78727 0.4124 0.00916 0.0
O436 O 0.69618 0.35978 0.02143 0.0
C437 C 0.78331 0.42867 0.99169 0.0
O438 O 0.80436 0.47525 0.06968 0.0
C439 C 0.70154 0.34075 0.03375 0.0
O440 O 0.77828 0.42549 0.07961 0.0
O441 O 0.72593 0.35204 0.04954 0.0
C442 C 0.27375 0.72358 0.22023 0.0
O443 O 0.27001 0.74655 0.21726 0.0
Cd444 Cd 0.31536 0.79727 0.20785 0.0
O445 O 0.3015 0.72671 0.21774 0.0
Cd446 Cd 0.35707 0.76629 0.20721 0.0
C447 C 0.3642 0.81023 0.26262 0.0
O448 O 0.3449 0.79138 0.17059 0.0
O449 O 0.39464 0.81385 0.18378 0.0
O450 O 0.36463 0.72965 0.18046 0.0
C451 C 0.37397 0.81241 0.16686 0.0
O452 O 0.34697 0.81882 0.25017 0.0
C453 C 0.38557 0.72985 0.1963 0.0
O454 O 0.36955 0.7902 0.25198 0.0
O455 O 0.39379 0.74747 0.21717 0.0
C456 C 0.1888 0.65827 0.23419 0.0
C457 C 0.19469 0.63702 0.24771 0.0
H458 H 0.20918 0.70251 0.21513 0.0
C459 C 0.22671 0.6438 0.25018 0.0
H460 H 0.16447 0.65361 0.23137 0.0
C461 C 0.25214 0.67142 0.24032 0.0
C462 C 0.24632 0.69328 0.22817 0.0
H463 H 0.23245 0.6285 0.2609 0.0
H464 H 0.27651 0.67617 0.24331 0.0
C465 C 0.21439 0.68626 0.22478 0.0
C466 C 0.62579 0.25882 0.42383 0.0
C467 C 0.59494 0.23272 0.42032 0.0
H468 H 0.65466 0.30794 0.42441 0.0
C469 C 0.56933 0.23691 0.4127 0.0
H470 H 0.64595 0.2565 0.43016 0.0
C471 C 0.57435 0.26661 0.40947 0.0
C472 C 0.60499 0.29264 0.41408 0.0
H473 H 0.54533 0.21724 0.40973 0.0
H474 H 0.55406 0.26919 0.4042 0.0
C475 C 0.63073 0.28838 0.4208 0.0
C476 C 0.36718 0.58995 0.61055 0.0
C477 C 0.36636 0.56181 0.60739 0.0
H478 H 0.35119 0.61968 0.59558 0.0
C479 C 0.3507 0.54328 0.58431 0.0
H480 H 0.37873 0.60469 0.62818 0.0
C481 C 0.33449 0.55167 0.56584 0.0
C482 C 0.33388 0.57898 0.56983 0.0
H483 H 0.35026 0.52184 0.58086 0.0
H484 H 0.32166 0.5363 0.54885 0.0
C485 C 0.35125 0.59851 0.59188 0.0
C486 C 0.76253 0.35858 0.74581 0.0
C487 C 0.791 0.35995 0.7543 0.0
H488 H 0.71498 0.33073 0.72969 0.0
C489 C 0.7936 0.33353 0.7518 0.0
H490 H 0.75977 0.37852 0.74779 0.0
C491 C 0.76795 0.30608 0.74131 0.0
C492 C 0.73912 0.30451 0.73351 0.0
H493 H 0.81541 0.33409 0.75807 0.0
H494 H 0.77045 0.28597 0.73988 0.0
C495 C 0.73681 0.33113 0.73565 0.0
C496 C 0.37366 0.77251 0.93972 0.0
C497 C 0.40328 0.79689 0.93026 0.0
H498 H 0.34227 0.72387 0.94307 0.0
C499 C 0.42364 0.78981 0.91519 0.0
H500 H 0.35759 0.77692 0.95189 0.0
C501 C 0.41493 0.75907 0.91041 0.0
C502 C 0.38569 0.73485 0.9206 0.0
H503 H 0.44649 0.80799 0.90738 0.0
H504 H 0.43138 0.75432 0.89923 0.0
C505 C 0.36495 0.74195 0.93488 0.0
C506 C 0.65923 0.48456 0.08349 0.0
C507 C 0.64234 0.46435 0.10509 0.0
H508 H 0.69298 0.49606 0.05077 0.0
C509 C 0.64422 0.43759 0.10806 0.0
H510 H 0.6577 0.50499 0.08022 0.0
C511 C 0.66417 0.43223 0.09089 0.0
C512 C 0.68279 0.45363 0.07056 0.0
H513 H 0.63165 0.42163 0.12457 0.0
H514 H 0.66632 0.4122 0.09455 0.0
C515 C 0.67932 0.47934 0.0665 0.0
C516 C 0.41299 0.77272 0.50201 0.0
C517 C 0.40738 0.79657 0.50951 0.0
H518 H 0.39614 0.72452 0.50283 0.0
C519 C 0.38074 0.78951 0.52632 0.0
H520 H 0.43292 0.7771 0.48875 0.0
C521 C 0.35932 0.75907 0.5342 0.0
C522 C 0.36412 0.7351 0.52541 0.0
H523 H 0.37593 0.80737 0.53275 0.0
H524 H 0.3384 0.75419 0.54632 0.0
C525 C 0.39167 0.74241 0.5099 0.0
C526 C 0.61301 0.35919 0.69949 0.0
C527 C 0.58077 0.35162 0.70182 0.0
H528 H 0.6463 0.34317 0.6999 0.0
C529 C 0.55704 0.32112 0.70803 0.0
H530 H 0.63177 0.38235 0.69428 0.0
C531 C 0.56542 0.29852 0.71129 0.0
C532 C 0.59757 0.30601 0.70797 0.0
H533 H 0.53201 0.31469 0.70996 0.0
H534 H 0.54666 0.27508 0.71563 0.0
C535 C 0.62129 0.33664 0.70242 0.0
C536 C 0.23249 0.59453 0.83889 0.0
C537 C 0.20265 0.56693 0.84098 0.0
H538 H 0.28022 0.62232 0.85483 0.0
C539 C 0.19762 0.54705 0.86295 0.0
H540 H 0.23735 0.61023 0.82209 0.0
C541 C 0.22239 0.55376 0.88149 0.0
C542 C 0.25265 0.58069 0.87866 0.0
H543 H 0.17469 0.52595 0.86554 0.0
H544 H 0.21804 0.5375 0.89768 0.0
C545 C 0.25716 0.60141 0.85762 0.0
C546 C 0.67079 0.255 0.03534 0.0
C547 C 0.64942 0.24419 0.01287 0.0
H548 H 0.70398 0.29396 0.05966 0.0
C549 C 0.64347 0.26516 -0.00102 0.0
H550 H 0.67556 0.23947 0.04684 0.0
C551 C 0.65933 0.29622 0.00664 0.0
C552 C 0.68183 0.30723 0.02818 0.0
H553 H 0.62767 0.25799 0.9813 0.0
H554 H 0.65491 0.31182 0.99487 0.0
C555 C 0.68694 0.2862 0.04282 0.0
C556 C 0.42008 0.67828 0.20807 0.0
C557 C 0.41841 0.66653 0.18154 0.0
H558 H 0.41161 0.70835 0.23348 0.0
C559 C 0.40753 0.67697 0.15978 0.0
H560 H 0.42832 0.67044 0.22513 0.0
C561 C 0.39746 0.69804 0.16456 0.0
C562 C 0.39862 0.70949 0.19112 0.0
H563 H 0.40565 0.66794 0.13919 0.0
H564 H 0.38836 0.70506 0.14751 0.0
C565 C 0.41063 0.69994 0.21277 0.0
C566 C 0.75715 0.43685 0.34825 0.0
C567 C 0.784 0.46692 0.34879 0.0
H568 H 0.70964 0.40594 0.36315 0.0
C569 C 0.78368 0.48886 0.36653 0.0
H570 H 0.75651 0.41949 0.33462 0.0
C571 C 0.75673 0.4812 0.38272 0.0
C572 C 0.72951 0.45137 0.38162 0.0
H573 H 0.80423 0.51207 0.36781 0.0
H574 H 0.75712 0.49882 0.39583 0.0
C575 C 0.73021 0.42914 0.36452 0.0
C576 C 0.18211 0.60257 0.43699 0.0
C577 C 0.18484 0.58344 0.41737 0.0
H578 H 0.20097 0.62954 0.47361 0.0
C579 C 0.20964 0.57677 0.42025 0.0
H580 H 0.16304 0.60786 0.43557 0.0
C581 C 0.23129 0.58907 0.44218 0.0
C582 C 0.22865 0.60837 0.46164 0.0
H583 H 0.21274 0.56253 0.40526 0.0
H584 H 0.25017 0.58355 0.44381 0.0
C585 C 0.20382 0.61496 0.45883 0.0
C586 C 0.57544 0.16491 0.59425 0.0
C587 C 0.60055 0.16279 0.58164 0.0
H588 H 0.55968 0.1788 0.62985 0.0
C589 C 0.62885 0.17173 0.59668 0.0
H590 H 0.55345 0.1586 0.58322 0.0
C591 C 0.63262 0.18392 0.6231 0.0
C592 C 0.60795 0.18689 0.63529 0.0
H593 H 0.64835 0.16968 0.58795 0.0
H594 H 0.65504 0.19131 0.6339 0.0
C595 C 0.57903 0.17663 0.62093 0.0
C596 C 0.41013 0.59633 0.80541 0.0
C597 C 0.40284 0.56577 0.80193 0.0
H598 H 0.40732 0.62905 0.83181 0.0
C599 C 0.39019 0.54543 0.82412 0.0
H600 H 0.41986 0.61245 0.78857 0.0
C601 C 0.38306 0.55484 0.84877 0.0
C602 C 0.3883 0.5848 0.85177 0.0
H603 H 0.38489 0.52189 0.82213 0.0
H604 H 0.37227 0.53816 0.8651 0.0
C605 C 0.40286 0.60578 0.83013 0.0
C606 C 0.83623 0.43403 0.93208 0.0
C607 C 0.83712 0.45779 0.91642 0.0
H608 H 0.81872 0.40637 0.96819 0.0
C609 C 0.82116 0.47269 0.92647 0.0
H610 H 0.84767 0.42159 0.92483 0.0
C611 C 0.8039 0.46339 0.95104 0.0
C612 C 0.80264 0.43932 0.96633 0.0
H613 H 0.82178 0.49144 0.91528 0.0
H614 H 0.7915 0.47503 0.95803 0.0
C615 C 0.81939 0.42508 0.95686 0.0
C616 C 0.42559 0.86958 0.11257 0.0
C617 C 0.40237 0.8654 0.09295 0.0
H618 H 0.43479 0.85628 0.15151 0.0
C619 C 0.36959 0.84572 0.09896 0.0
H620 H 0.45102 0.88495 0.10863 0.0
C621 C 0.36029 0.82935 0.1235 0.0
C622 C 0.3836 0.83239 0.14252 0.0
H623 H 0.35117 0.84183 0.08414 0.0
H624 H 0.33488 0.81353 0.12713 0.0
C625 C 0.41629 0.85326 0.13714 0.0
C626 C 0.57304 0.42146 0.30132 0.0
C627 C 0.57789 0.45108 0.29737 0.0
H628 H 0.57622 0.39049 0.32916 0.0
C629 C 0.58563 0.47096 0.32006 0.0
H630 H 0.56706 0.40568 0.28415 0.0
C631 C 0.59084 0.46235 0.34576 0.0
C632 C 0.58853 0.43366 0.34933 0.0
H633 H 0.58887 0.49371 0.31768 0.0
H634 H 0.59822 0.47884 0.3625 0.0
C635 C 0.57835 0.41281 0.32709 0.0
C636 C 0.40585 0.8222 0.33086 0.0
C637 C 0.41136 0.85127 0.33905 0.0
H638 H 0.38667 0.78656 0.30045 0.0
C639 C 0.39966 0.86614 0.32245 0.0
H640 H 0.41369 0.80965 0.34347 0.0
C641 C 0.38346 0.8525 0.2979 0.0
C642 C 0.37902 0.82393 0.2894 0.0
H643 H 0.40368 0.88866 0.32804 0.0
H644 H 0.37527 0.86473 0.28524 0.0
C645 C 0.39011 0.80881 0.30626 0.0
C646 C 0.56296 0.39944 0.53354 0.0
C647 C 0.58616 0.42728 0.54606 0.0
H648 H 0.55055 0.36913 0.4988 0.0
C649 C 0.61498 0.4465 0.53191 0.0
H650 H 0.54072 0.38376 0.54397 0.0
C651 C 0.62087 0.43768 0.50636 0.0
C652 C 0.59786 0.40971 0.49413 0.0
H653 H 0.63313 0.46837 0.54058 0.0
H654 H 0.64347 0.45286 0.49614 0.0
C655 C 0.56865 0.39088 0.50774 0.0
C656 C 0.15871 0.55243 0.62549 0.0
C657 C 0.16913 0.57267 0.64811 0.0
H658 H 0.16838 0.54392 0.58463 0.0
C659 C 0.19694 0.60192 0.64551 0.0
H660 H 0.13704 0.52995 0.62672 0.0
C661 C 0.21496 0.61005 0.62126 0.0
C662 C 0.20547 0.58905 0.5992 0.0
H663 H 0.20562 0.61794 0.66266 0.0
H664 H 0.23697 0.63227 0.62025 0.0
C665 C 0.17666 0.5605 0.60134 0.0
C666 C 0.59324 0.17255 0.83328 0.0
C667 C 0.60576 0.15435 0.8423 0.0
H668 H 0.58839 0.19727 0.79999 0.0
C669 C 0.62069 0.14464 0.82322 0.0
H670 H 0.58172 0.18048 0.84755 0.0
C671 C 0.62454 0.15424 0.79599 0.0
C672 C 0.61363 0.17386 0.78727 0.0
H673 H 0.63003 0.13013 0.8295 0.0
H674 H 0.63711 0.14713 0.78205 0.0
C675 C 0.59716 0.18223 0.80603 0.0
C676 C 0.41788 0.60881 0.02611 0.0
C677 C 0.39283 0.58198 0.03828 0.0
H678 H 0.4319 0.64196 0.99398 0.0
C679 C 0.36202 0.56767 0.02627 0.0
H680 H 0.44176 0.62091 0.03508 0.0
C681 C 0.35625 0.58025 0.00308 0.0
C682 C 0.38125 0.60719 0.99118 0.0
H683 H 0.34227 0.54677 0.03482 0.0
H684 H 0.3322 0.56876 0.99441 0.0
C685 C 0.4122 0.62114 0.00271 0.0
C686 C 0.83531 0.44472 0.15156 0.0
C687 C 0.84634 0.47362 0.16421 0.0
H688 H 0.81165 0.41548 0.1168 0.0
C689 C 0.84307 0.49601 0.1499 0.0
H690 H 0.83795 0.42705 0.16158 0.0
C691 C 0.82893 0.48963 0.12394 0.0
C692 C 0.81698 0.46047 0.11181 0.0
H693 H 0.85044 0.51827 0.15902 0.0
H694 H 0.82627 0.50725 0.11382 0.0
C695 C 0.82046 0.4381 0.12578 0.0
loop_
_geom_bond_atom_site_label_1
_geom_bond_atom_site_label_2
_geom_bond_distance
_geom_bond_site_symmetry_2
_ccdc_geom_bond_type
H0 C27 0.929 . S
N1 C26 1.433 . S
N1 C32 1.435 . S
N1 C38 1.423 . S
H2 C28 0.930 . S
H3 C31 0.931 . S
H4 C30 0.929 . S
H5 C33 0.930 . S
H6 C34 0.932 . S
H7 C37 0.929 . S
H8 C36 0.931 . S
H9 C39 0.929 . S
H10 C43 0.932 . S
H11 C40 0.931 . S
H12 C42 0.929 . S
H13 C45 0.929 . S
H14 C46 0.930 . S
H15 C48 0.929 . S
H16 C49 0.931 . S
H17 C51 0.930 . S
H18 C52 0.932 . S
H19 C54 0.931 . S
H20 C55 0.929 . S
H21 C57 0.929 . S
H22 C58 0.931 . S
H23 C60 0.929 . S
N24 C44 1.433 . S
N24 C50 1.435 . S
N24 C56 1.423 . S
H25 C61 0.932 . S
C26 N1 1.433 . S
C26 C27 1.363 . S
C26 C31 1.370 . S
C27 H0 0.929 . S
C27 C26 1.363 . S
C27 C28 1.385 . S
C28 H2 0.930 . S
C28 C27 1.385 . S
C28 C29 1.357 . S
C29 C28 1.357 . S
C29 C30 1.406 . S
C30 H4 0.929 . S
C30 C29 1.406 . S
C30 C31 1.391 . S
C31 H3 0.931 . S
C31 C26 1.370 . S
C31 C30 1.391 . S
C32 N1 1.435 . S
C32 C33 1.358 . S
C32 C37 1.371 . S
C33 H5 0.930 . S
C33 C32 1.358 . S
C33 C34 1.405 . S
C34 H6 0.932 . S
C34 C33 1.405 . S
C34 C35 1.383 . S
C35 C34 1.383 . S
C35 C36 1.393 . S
C36 H8 0.931 . S
C36 C35 1.393 . S
C36 C37 1.382 . S
C37 H7 0.929 . S
C37 C32 1.371 . S
C37 C36 1.382 . S
C38 N1 1.423 . S
C38 C39 1.362 . S
C38 C43 1.388 . S
C39 H9 0.929 . S
C39 C38 1.362 . S
C39 C40 1.376 . S
C40 H11 0.931 . S
C40 C39 1.376 . S
C40 C41 1.396 . S
C41 C40 1.396 . S
C41 C42 1.348 . S
C41 C59 1.472 1_455 S
C42 H12 0.929 . S
C42 C41 1.348 . S
C42 C43 1.443 . S
C43 H10 0.932 . S
C43 C38 1.388 . S
C43 C42 1.443 . S
C44 N24 1.433 . S
C44 C45 1.363 . S
C44 C49 1.370 . S
C45 H13 0.929 . S
C45 C44 1.363 . S
C45 C46 1.385 . S
C46 H14 0.930 . S
C46 C45 1.385 . S
C46 C47 1.357 . S
C47 C46 1.357 . S
C47 C48 1.406 . S
C48 H15 0.929 . S
C48 C47 1.406 . S
C48 C49 1.391 . S
C49 H16 0.931 . S
C49 C44 1.370 . S
C49 C48 1.391 . S
C50 N24 1.435 . S
C50 C51 1.358 . S
C50 C55 1.371 . S
C51 H17 0.930 . S
C51 C50 1.358 . S
C51 C52 1.405 . S
C52 H18 0.932 . S
C52 C51 1.405 . S
C52 C53 1.383 . S
C53 C52 1.383 . S
C53 C54 1.393 . S
C54 H19 0.931 . S
C54 C53 1.393 . S
C54 C55 1.382 . S
C55 H20 0.929 . S
C55 C50 1.371 . S
C55 C54 1.382 . S
C56 N24 1.423 . S
C56 C57 1.362 . S
C56 C61 1.388 . S
C57 H21 0.929 . S
C57 C56 1.362 . S
C57 C58 1.376 . S
C58 H22 0.931 . S
C58 C57 1.376 . S
C58 C59 1.396 . S
C59 C41 1.472 1_655 S
C59 C58 1.396 . S
C59 C60 1.348 . S
C60 H23 0.929 . S
C60 C59 1.348 . S
C60 C61 1.443 . S
C61 H25 0.932 . S
C61 C56 1.388 . S
C61 C60 1.443 . S
H62 C89 0.929 . S
N63 C88 1.433 . S
N63 C94 1.435 . S
N63 C100 1.423 . S
H64 C90 0.930 . S
H65 C93 0.931 . S
H66 C92 0.929 . S
H67 C95 0.930 . S
H68 C96 0.932 . S
H69 C99 0.929 . S
H70 C98 0.931 . S
H71 C101 0.929 . S
H72 C105 0.932 . S
H73 C102 0.931 . S
H74 C104 0.929 1_545 S
H75 C107 0.929 . S
H76 C108 0.930 . S
H77 C110 0.929 . S
H78 C111 0.931 . S
H79 C113 0.930 . S
H80 C114 0.932 . S
H81 C116 0.931 . S
H82 C117 0.929 . S
H83 C119 0.929 . S
H84 C120 0.931 . S
H85 C122 0.929 . S
N86 C106 1.433 . S
N86 C112 1.435 . S
N86 C118 1.423 . S
H87 C123 0.932 . S
C88 N63 1.433 . S
C88 C89 1.363 . S
C88 C93 1.370 . S
C89 H62 0.929 . S
C89 C88 1.363 . S
C89 C90 1.385 . S
C90 H64 0.930 . S
C90 C89 1.385 . S
C90 C91 1.357 . S
C91 C90 1.357 . S
C91 C92 1.406 . S
C92 H66 0.929 . S
C92 C91 1.406 . S
C92 C93 1.391 . S
C93 H65 0.931 . S
C93 C88 1.370 . S
C93 C92 1.391 . S
C94 N63 1.435 . S
C94 C95 1.358 . S
C94 C99 1.371 . S
C95 H67 0.930 . S
C95 C94 1.358 . S
C95 C96 1.405 . S
C96 H68 0.932 . S
C96 C95 1.405 . S
C96 C97 1.383 . S
C97 C96 1.383 . S
C97 C98 1.393 . S
C98 H70 0.931 . S
C98 C97 1.393 . S
C98 C99 1.382 . S
C99 H69 0.929 . S
C99 C94 1.371 . S
C99 C98 1.382 . S
C100 N63 1.423 . S
C100 C101 1.362 . S
C100 C105 1.388 . S
C101 H71 0.929 . S
C101 C100 1.362 . S
C101 C102 1.376 . S
C102 H73 0.931 . S
C102 C101 1.376 . S
C102 C103 1.396 1_565 S
C103 C102 1.396 1_545 S
C103 C104 1.348 1_545 S
C103 C121 1.472 . S
C104 H74 0.929 1_565 S
C104 C103 1.348 1_565 S
C104 C105 1.443 . S
C105 H72 0.932 . S
C105 C100 1.388 . S
C105 C104 1.443 . S
C106 N86 1.433 . S
C106 C107 1.363 . S
C106 C111 1.370 . S
C107 H75 0.929 . S
C107 C106 1.363 . S
C107 C108 1.385 . S
C108 H76 0.930 . S
C108 C107 1.385 . S
C108 C109 1.357 . S
C109 C108 1.357 . S
C109 C110 1.406 . S
C110 H77 0.929 . S
C110 C109 1.406 . S
C110 C111 1.391 . S
C111 H78 0.931 . S
C111 C106 1.370 . S
C111 C110 1.391 . S
C112 N86 1.435 . S
C112 C113 1.358 . S
C112 C117 1.371 . S
C113 H79 0.930 . S
C113 C112 1.358 . S
C113 C114 1.405 . S
C114 H80 0.932 . S
C114 C113 1.405 . S
C114 C115 1.383 . S
C115 C114 1.383 . S
C115 C116 1.393 . S
C116 H81 0.931 . S
C116 C115 1.393 . S
C116 C117 1.382 . S
C117 H82 0.929 . S
C117 C112 1.371 . S
C117 C116 1.382 . S
C118 N86 1.423 . S
C118 C119 1.362 . S
C118 C123 1.388 . S
C119 H83 0.929 . S
C119 C118 1.362 . S
C119 C120 1.376 . S
C120 H84 0.931 . S
C120 C119 1.376 . S
C120 C121 1.396 . S
C121 C103 1.472 . S
C121 C120 1.396 . S
C121 C122 1.348 . S
C122 H85 0.929 . S
C122 C121 1.348 . S
C122 C123 1.443 . S
C123 H87 0.932 . S
C123 C118 1.388 . S
C123 C122 1.443 . S
H124 C151 0.929 . S
N125 C150 1.433 . S
N125 C156 1.435 . S
N125 C162 1.423 . S
H126 C152 0.930 . S
H127 C155 0.931 . S
H128 C154 0.929 . S
H129 C157 0.930 . S
H130 C158 0.932 . S
H131 C161 0.929 . S
H132 C160 0.931 . S
H133 C163 0.929 . S
H134 C167 0.932 . S
H135 C164 0.931 . S
H136 C166 0.929 . S
H137 C169 0.929 . S
H138 C170 0.930 . S
H139 C172 0.929 . S
H140 C173 0.931 . S
H141 C175 0.930 . S
H142 C176 0.932 . S
H143 C178 0.931 . S
H144 C179 0.929 . S
H145 C181 0.929 . S
H146 C182 0.931 . S
H147 C184 0.929 . S
N148 C168 1.433 . S
N148 C174 1.435 . S
N148 C180 1.423 . S
H149 C185 0.932 . S
C150 N125 1.433 . S
C150 C151 1.363 . S
C150 C155 1.370 . S
C151 H124 0.929 . S
C151 C150 1.363 . S
C151 C152 1.385 . S
C152 H126 0.930 . S
C152 C151 1.385 . S
C152 C153 1.357 . S
C153 C152 1.357 . S
C153 C154 1.406 . S
C154 H128 0.929 . S
C154 C153 1.406 . S
C154 C155 1.391 . S
C155 H127 0.931 . S
C155 C150 1.370 . S
C155 C154 1.391 . S
C156 N125 1.435 . S
C156 C157 1.358 . S
C156 C161 1.371 . S
C157 H129 0.930 . S
C157 C156 1.358 . S
C157 C158 1.405 . S
C158 H130 0.932 . S
C158 C157 1.405 . S
C158 C159 1.383 . S
C159 C158 1.383 . S
C159 C160 1.393 . S
C160 H132 0.931 . S
C160 C159 1.393 . S
C160 C161 1.382 . S
C161 H131 0.929 . S
C161 C156 1.371 . S
C161 C160 1.382 . S
C162 N125 1.423 . S
C162 C163 1.362 . S
C162 C167 1.388 . S
C163 H133 0.929 . S
C163 C162 1.362 . S
C163 C164 1.376 . S
C164 H135 0.931 . S
C164 C163 1.376 . S
C164 C165 1.396 . S
C165 C164 1.396 . S
C165 C166 1.348 . S
C165 C183 1.472 . S
C166 H136 0.929 . S
C166 C165 1.348 . S
C166 C167 1.443 . S
C167 H134 0.932 . S
C167 C162 1.388 . S
C167 C166 1.443 . S
C168 N148 1.433 . S
C168 C169 1.363 . S
C168 C173 1.370 . S
C169 H137 0.929 . S
C169 C168 1.363 . S
C169 C170 1.385 . S
C170 H138 0.930 . S
C170 C169 1.385 . S
C170 C171 1.357 . S
C171 C170 1.357 . S
C171 C172 1.406 . S
C172 H139 0.929 . S
C172 C171 1.406 . S
C172 C173 1.391 . S
C173 H140 0.931 . S
C173 C168 1.370 . S
C173 C172 1.391 . S
C174 N148 1.435 . S
C174 C175 1.358 . S
C174 C179 1.371 . S
C175 H141 0.930 . S
C175 C174 1.358 . S
C175 C176 1.405 . S
C176 H142 0.932 . S
C176 C175 1.405 . S
C176 C177 1.383 . S
C177 C176 1.383 . S
C177 C178 1.393 . S
C178 H143 0.931 . S
C178 C177 1.393 . S
C178 C179 1.382 . S
C179 H144 0.929 . S
C179 C174 1.371 . S
C179 C178 1.382 . S
C180 N148 1.423 . S
C180 C181 1.362 . S
C180 C185 1.388 . S
C181 H145 0.929 . S
C181 C180 1.362 . S
C181 C182 1.376 . S
C182 H146 0.931 . S
C182 C181 1.376 . S
C182 C183 1.396 . S
C183 C165 1.472 . S
C183 C182 1.396 . S
C183 C184 1.348 . S
C184 H147 0.929 . S
C184 C183 1.348 . S
C184 C185 1.443 . S
C185 H149 0.932 . S
C185 C180 1.388 . S
C185 C184 1.443 . S
H186 C213 0.929 . S
N187 C212 1.433 . S
N187 C218 1.435 . S
N187 C224 1.423 . S
H188 C214 0.930 . S
H189 C217 0.931 . S
H190 C216 0.929 . S
H191 C219 0.930 . S
H192 C220 0.932 . S
H193 C223 0.929 . S
H194 C222 0.931 . S
H195 C225 0.929 . S
H196 C229 0.932 . S
H197 C226 0.931 . S
H198 C228 0.929 . S
H199 C231 0.929 . S
H200 C232 0.930 . S
H201 C234 0.929 . S
H202 C235 0.931 . S
H203 C237 0.930 . S
H204 C238 0.932 . S
H205 C240 0.931 . S
H206 C241 0.929 . S
H207 C243 0.929 . S
H208 C244 0.931 . S
H209 C246 0.929 . S
N210 C230 1.433 . S
N210 C236 1.435 . S
N210 C242 1.423 . S
H211 C247 0.932 . S
C212 N187 1.433 . S
C212 C213 1.363 . S
C212 C217 1.370 . S
C213 H186 0.929 . S
C213 C212 1.363 . S
C213 C214 1.385 . S
C214 H188 0.930 . S
C214 C213 1.385 . S
C214 C215 1.357 . S
C215 C214 1.357 . S
C215 C216 1.406 . S
C216 H190 0.929 . S
C216 C215 1.406 . S
C216 C217 1.391 . S
C217 H189 0.931 . S
C217 C212 1.370 . S
C217 C216 1.391 . S
C218 N187 1.435 . S
C218 C219 1.358 . S
C218 C223 1.371 . S
C219 H191 0.930 . S
C219 C218 1.358 . S
C219 C220 1.405 . S
C220 H192 0.932 . S
C220 C219 1.405 . S
C220 C221 1.383 . S
C221 C220 1.383 . S
C221 C222 1.393 . S
C222 H194 0.931 . S
C222 C221 1.393 . S
C222 C223 1.382 . S
C223 H193 0.929 . S
C223 C218 1.371 . S
C223 C222 1.382 . S
C224 N187 1.423 . S
C224 C225 1.362 . S
C224 C229 1.388 . S
C225 H195 0.929 . S
C225 C224 1.362 . S
C225 C226 1.376 . S
C226 H197 0.931 . S
C226 C225 1.376 . S
C226 C227 1.396 . S
C227 C226 1.396 . S
C227 C228 1.348 . S
C227 C245 1.472 1_455 S
C228 H198 0.929 . S
C228 C227 1.348 . S
C228 C229 1.443 . S
C229 H196 0.932 . S
C229 C224 1.388 . S
C229 C228 1.443 . S
C230 N210 1.433 . S
C230 C231 1.363 . S
C230 C235 1.370 . S
C231 H199 0.929 . S
C231 C230 1.363 . S
C231 C232 1.385 . S
C232 H200 0.930 . S
C232 C231 1.385 . S
C232 C233 1.357 . S
C233 C232 1.357 . S
C233 C234 1.406 . S
C234 H201 0.929 . S
C234 C233 1.406 . S
C234 C235 1.391 . S
C235 H202 0.931 . S
C235 C230 1.370 . S
C235 C234 1.391 . S
C236 N210 1.435 . S
C236 C237 1.358 . S
C236 C241 1.371 . S
C237 H203 0.930 . S
C237 C236 1.358 . S
C237 C238 1.405 . S
C238 H204 0.932 . S
C238 C237 1.405 . S
C238 C239 1.383 . S
C239 C238 1.383 . S
C239 C240 1.393 . S
C240 H205 0.931 . S
C240 C239 1.393 . S
C240 C241 1.382 . S
C241 H206 0.929 . S
C241 C236 1.371 . S
C241 C240 1.382 . S
C242 N210 1.423 . S
C242 C243 1.362 . S
C242 C247 1.388 . S
C243 H207 0.929 . S
C243 C242 1.362 . S
C243 C244 1.376 . S
C244 H208 0.931 . S
C244 C243 1.376 . S
C244 C245 1.396 . S
C245 C227 1.472 1_655 S
C245 C244 1.396 . S
C245 C246 1.348 . S
C246 H209 0.929 . S
C246 C245 1.348 . S
C246 C247 1.443 . S
C247 H211 0.932 . S
C247 C242 1.388 . S
C247 C246 1.443 . S
H248 C275 0.929 . S
N249 C274 1.433 . S
N249 C280 1.435 . S
N249 C286 1.423 . S
H250 C276 0.930 . S
H251 C279 0.931 . S
H252 C278 0.929 . S
H253 C281 0.930 . S
H254 C282 0.932 . S
H255 C285 0.929 . S
H256 C284 0.931 . S
H257 C287 0.929 . S
H258 C291 0.932 . S
H259 C288 0.931 . S
H260 C290 0.929 . S
H261 C293 0.929 . S
H262 C294 0.930 . S
H263 C296 0.929 . S
H264 C297 0.931 . S
H265 C299 0.943 . S
H266 C300 0.932 . S
H267 C302 0.931 . S
H268 C303 0.929 . S
H269 C305 0.929 . S
H270 C306 0.932 1_554 S
H271 C308 0.929 . S
N272 C292 1.433 . S
N272 C298 1.435 1_554 S
N272 C304 1.423 1_554 S
H273 C309 0.932 . S
C274 N249 1.433 . S
C274 C275 1.363 . S
C274 C279 1.370 . S
C275 H248 0.929 . S
C275 C274 1.363 . S
C275 C276 1.385 . S
C276 H250 0.930 . S
C276 C275 1.385 . S
C276 C277 1.357 1_556 S
C277 C276 1.357 1_554 S
C277 C278 1.406 . S
C278 H252 0.929 . S
C278 C277 1.406 . S
C278 C279 1.391 1_554 S
C279 H251 0.931 . S
C279 C274 1.370 . S
C279 C278 1.391 1_556 S
C280 N249 1.435 . S
C280 C281 1.358 . S
C280 C285 1.371 . S
C281 H253 0.930 . S
C281 C280 1.358 . S
C281 C282 1.405 . S
C282 H254 0.932 . S
C282 C281 1.405 . S
C282 C283 1.383 . S
C283 C282 1.383 . S
C283 C284 1.393 . S
C284 H256 0.931 . S
C284 C283 1.393 . S
C284 C285 1.382 . S
C285 H255 0.929 . S
C285 C280 1.371 . S
C285 C284 1.382 . S
C286 N249 1.423 . S
C286 C287 1.362 . S
C286 C291 1.388 . S
C287 H257 0.929 . S
C287 C286 1.362 . S
C287 C288 1.376 . S
C288 H259 0.931 . S
C288 C287 1.376 . S
C288 C289 1.396 . S
C289 C288 1.396 . S
C289 C290 1.348 . S
C289 C307 1.472 1_545 S
C290 H260 0.929 . S
C290 C289 1.348 . S
C290 C291 1.443 . S
C291 H258 0.932 . S
C291 C286 1.388 . S
C291 C290 1.443 . S
C292 N272 1.433 . S
C292 C293 1.363 . S
C292 C297 1.370 . S
C293 H261 0.929 . S
C293 C292 1.363 . S
C293 C294 1.385 . S
C294 H262 0.930 . S
C294 C293 1.385 . S
C294 C295 1.357 . S
C295 C294 1.357 . S
C295 C296 1.406 . S
C296 H263 0.929 . S
C296 C295 1.406 . S
C296 C297 1.391 . S
C297 H264 0.931 . S
C297 C292 1.370 . S
C297 C296 1.391 . S
C298 N272 1.435 1_556 S
C298 C299 1.354 1_556 S
C298 C303 1.371 . S
C299 H265 0.943 . S
C299 C298 1.354 1_554 S
C299 C300 1.396 1_554 S
C300 H266 0.932 . S
C300 C299 1.396 1_556 S
C300 C301 1.383 . S
C301 C300 1.383 . S
C301 C302 1.393 . S
C302 H267 0.931 . S
C302 C301 1.393 . S
C302 C303 1.382 . S
C303 H268 0.929 . S
C303 C298 1.371 . S
C303 C302 1.382 . S
C304 N272 1.423 1_556 S
C304 C305 1.362 1_556 S
C304 C309 1.388 . S
C305 H269 0.929 . S
C305 C304 1.362 1_554 S
C305 C306 1.378 1_554 S
C306 H270 0.932 1_556 S
C306 C305 1.378 1_556 S
C306 C307 1.393 . S
C307 C289 1.472 1_565 S
C307 C306 1.393 . S
C307 C308 1.348 . S
C308 H271 0.929 . S
C308 C307 1.348 . S
C308 C309 1.443 . S
C309 H273 0.932 . S
C309 C304 1.388 . S
C309 C308 1.443 . S
H310 C337 0.929 . S
N311 C336 1.433 . S
N311 C342 1.435 . S
N311 C348 1.423 . S
H312 C338 0.930 . S
H313 C341 0.931 . S
H314 C340 0.929 . S
H315 C343 0.930 . S
H316 C344 0.932 . S
H317 C347 0.929 . S
H318 C346 0.931 . S
H319 C349 0.929 . S
H320 C353 0.932 . S
H321 C350 0.931 . S
H322 C352 0.929 . S
H323 C355 0.929 . S
H324 C356 0.930 . S
H325 C358 0.929 . S
H326 C359 0.931 . S
H327 C361 0.930 . S
H328 C362 0.932 . S
H329 C364 0.931 . S
H330 C365 0.929 . S
H331 C367 0.929 . S
H332 C368 0.931 . S
H333 C370 0.929 . S
N334 C354 1.433 . S
N334 C360 1.435 . S
N334 C366 1.423 . S
H335 C371 0.932 . S
C336 N311 1.433 . S
C336 C337 1.363 . S
C336 C341 1.370 . S
C337 H310 0.929 . S
C337 C336 1.363 . S
C337 C338 1.385 . S
C338 H312 0.930 . S
C338 C337 1.385 . S
C338 C339 1.357 . S
C339 C338 1.357 . S
C339 C340 1.406 . S
C340 H314 0.929 . S
C340 C339 1.406 . S
C340 C341 1.391 . S
C341 H313 0.931 . S
C341 C336 1.370 . S
C341 C340 1.391 . S
C342 N311 1.435 . S
C342 C343 1.358 . S
C342 C347 1.371 . S
C343 H315 0.930 . S
C343 C342 1.358 . S
C343 C344 1.405 . S
C344 H316 0.932 . S
C344 C343 1.405 . S
C344 C345 1.383 . S
C345 C344 1.383 . S
C345 C346 1.393 . S
C346 H318 0.931 . S
C346 C345 1.393 . S
C346 C347 1.382 . S
C347 H317 0.929 . S
C347 C342 1.371 . S
C347 C346 1.382 . S
C348 N311 1.423 . S
C348 C349 1.362 . S
C348 C353 1.388 . S
C349 H319 0.929 . S
C349 C348 1.362 . S
C349 C350 1.376 . S
C350 H321 0.931 . S
C350 C349 1.376 . S
C350 C351 1.396 . S
C351 C350 1.396 . S
C351 C352 1.348 . S
C351 C369 1.472 . S
C352 H322 0.929 . S
C352 C351 1.348 . S
C352 C353 1.443 . S
C353 H320 0.932 . S
C353 C348 1.388 . S
C353 C352 1.443 . S
C354 N334 1.433 . S
C354 C355 1.363 . S
C354 C359 1.370 . S
C355 H323 0.929 . S
C355 C354 1.363 . S
C355 C356 1.385 . S
C356 H324 0.930 . S
C356 C355 1.385 . S
C356 C357 1.357 . S
C357 C356 1.357 . S
C357 C358 1.406 . S
C358 H325 0.929 . S
C358 C357 1.406 . S
C358 C359 1.391 . S
C359 H326 0.931 . S
C359 C354 1.370 . S
C359 C358 1.391 . S
C360 N334 1.435 . S
C360 C361 1.358 . S
C360 C365 1.371 . S
C361 H327 0.930 . S
C361 C360 1.358 . S
C361 C362 1.405 . S
C362 H328 0.932 . S
C362 C361 1.405 . S
C362 C363 1.383 . S
C363 C362 1.383 . S
C363 C364 1.393 . S
C364 H329 0.931 . S
C364 C363 1.393 . S
C364 C365 1.382 . S
C365 H330 0.929 . S
C365 C360 1.371 . S
C365 C364 1.382 . S
C366 N334 1.423 . S
C366 C367 1.362 . S
C366 C371 1.388 . S
C367 H331 0.929 . S
C367 C366 1.362 . S
C367 C368 1.376 . S
C368 H332 0.931 . S
C368 C367 1.376 . S
C368 C369 1.396 . S
C369 C351 1.472 . S
C369 C368 1.396 . S
C369 C370 1.348 . S
C370 H333 0.929 . S
C370 C369 1.348 . S
C370 C371 1.443 . S
C371 H335 0.932 . S
C371 C366 1.388 . S
C371 C370 1.443 . S
C372 O373 1.306 . S
C372 O375 1.160 . S
O373 C372 1.306 . S
O373 Cd374 2.228 . S
Cd374 O373 2.228 . S
Cd374 O378 2.273 . S
Cd374 O382 2.277 . S
O375 C372 1.160 . S
O375 Cd376 2.203 . S
Cd376 O375 2.203 . S
Cd376 O378 2.411 . S
Cd376 O379 2.333 . S
Cd376 O380 2.352 . S
Cd376 O384 2.277 . S
Cd376 O385 2.356 . S
C377 O382 1.209 . S
C377 O384 1.226 . S
O378 Cd374 2.273 . S
O378 Cd376 2.411 . S
O378 C381 1.320 . S
O379 Cd376 2.333 . S
O379 C381 1.214 . S
O380 Cd376 2.352 . S
O380 C383 1.258 . S
C381 O378 1.320 . S
C381 O379 1.214 . S
O382 Cd374 2.277 . S
O382 C377 1.209 . S
C383 O380 1.258 . S
C383 O385 1.282 . S
O384 Cd376 2.277 . S
O384 C377 1.226 . S
O385 Cd376 2.356 . S
O385 C383 1.282 . S
C386 O387 1.306 . S
C386 O389 1.160 . S
O387 C386 1.306 . S
O387 Cd388 2.228 . S
Cd388 O387 2.228 . S
Cd388 O392 2.273 . S
Cd388 O396 2.277 . S
O389 C386 1.160 . S
O389 Cd390 2.203 . S
Cd390 O389 2.203 . S
Cd390 O392 2.411 . S
Cd390 O393 2.333 . S
Cd390 O394 2.352 . S
Cd390 O398 2.277 . S
Cd390 O399 2.356 . S
C391 O396 1.209 . S
C391 O398 1.226 . S
O392 Cd388 2.273 . S
O392 Cd390 2.411 . S
O392 C395 1.320 . S
O393 Cd390 2.333 . S
O393 C395 1.214 . S
O394 Cd390 2.352 . S
O394 C397 1.258 . S
C395 O392 1.320 . S
C395 O393 1.214 . S
O396 Cd388 2.277 . S
O396 C391 1.209 . S
C397 O394 1.258 . S
C397 O399 1.282 . S
O398 Cd390 2.277 . S
O398 C391 1.226 . S
O399 Cd390 2.356 . S
O399 C397 1.282 . S
C400 O401 1.306 . S
C400 O403 1.160 . S
O401 C400 1.306 . S
O401 Cd402 2.228 . S
Cd402 O401 2.228 . S
Cd402 O406 2.273 . S
Cd402 O410 2.277 . S
O403 C400 1.160 . S
O403 Cd404 2.203 . S
Cd404 O403 2.203 . S
Cd404 O406 2.411 . S
Cd404 O407 2.333 . S
Cd404 O408 2.352 . S
Cd404 O412 2.277 . S
Cd404 O413 2.356 . S
C405 O410 1.209 . S
C405 O412 1.226 . S
O406 Cd402 2.273 . S
O406 Cd404 2.411 . S
O406 C409 1.320 . S
O407 Cd404 2.333 . S
O407 C409 1.214 . S
O408 Cd404 2.352 . S
O408 C411 1.258 . S
C409 O406 1.320 . S
C409 O407 1.214 . S
O410 Cd402 2.277 . S
O410 C405 1.209 . S
C411 O408 1.258 . S
C411 O413 1.282 . S
O412 Cd404 2.277 . S
O412 C405 1.226 . S
O413 Cd404 2.356 . S
O413 C411 1.282 . S
C414 O415 1.306 . S
C414 O417 1.160 . S
O415 C414 1.306 . S
O415 Cd416 2.228 . S
Cd416 O415 2.228 . S
Cd416 O420 2.273 . S
Cd416 O424 2.277 . S
O417 C414 1.160 . S
O417 Cd418 2.203 . S
Cd418 O417 2.203 . S
Cd418 O420 2.411 . S
Cd418 O421 2.333 . S
Cd418 O422 2.352 . S
Cd418 O426 2.277 . S
Cd418 O427 2.356 . S
C419 O424 1.209 . S
C419 O426 1.226 . S
O420 Cd416 2.273 . S
O420 Cd418 2.411 . S
O420 C423 1.320 . S
O421 Cd418 2.333 . S
O421 C423 1.214 . S
O422 Cd418 2.352 . S
O422 C425 1.258 . S
C423 O420 1.320 . S
C423 O421 1.214 . S
O424 Cd416 2.277 . S
O424 C419 1.209 . S
C425 O422 1.258 . S
C425 O427 1.282 . S
O426 Cd418 2.277 . S
O426 C419 1.226 . S
O427 Cd418 2.356 . S
O427 C425 1.282 . S
C428 O429 1.306 . S
C428 O431 1.160 . S
O429 C428 1.306 . S
O429 Cd430 2.228 . S
Cd430 O429 2.228 . S
Cd430 O434 2.273 . S
Cd430 O438 2.277 . S
O431 C428 1.160 . S
O431 Cd432 2.203 . S
Cd432 O431 2.203 . S
Cd432 O434 2.411 . S
Cd432 O435 2.333 . S
Cd432 O436 2.352 . S
Cd432 O440 2.277 . S
Cd432 O441 2.356 . S
C433 O438 1.209 . S
C433 O440 1.226 . S
O434 Cd430 2.273 . S
O434 Cd432 2.411 . S
O434 C437 1.320 . S
O435 Cd432 2.333 . S
O435 C437 1.214 . S
O436 Cd432 2.352 . S
O436 C439 1.258 . S
C437 O434 1.320 . S
C437 O435 1.214 . S
O438 Cd430 2.277 . S
O438 C433 1.209 . S
C439 O436 1.258 . S
C439 O441 1.282 . S
O440 Cd432 2.277 . S
O440 C433 1.226 . S
O441 Cd432 2.356 . S
O441 C439 1.282 . S
C442 O443 1.306 . S
C442 O445 1.160 . S
O443 C442 1.306 . S
O443 Cd444 2.228 . S
Cd444 O443 2.228 . S
Cd444 O448 2.273 . S
Cd444 O452 2.277 . S
O445 C442 1.160 . S
O445 Cd446 2.203 . S
Cd446 O445 2.203 . S
Cd446 O448 2.411 . S
Cd446 O449 2.333 . S
Cd446 O450 2.352 . S
Cd446 O454 2.277 . S
Cd446 O455 2.356 . S
C447 O452 1.209 . S
C447 O454 1.226 . S
O448 Cd444 2.273 . S
O448 Cd446 2.411 . S
O448 C451 1.320 . S
O449 Cd446 2.333 . S
O449 C451 1.214 . S
O450 Cd446 2.352 . S
O450 C453 1.258 . S
C451 O448 1.320 . S
C451 O449 1.214 . S
O452 Cd444 2.277 . S
O452 C447 1.209 . S
C453 O450 1.258 . S
C453 O455 1.282 . S
O454 Cd446 2.277 . S
O454 C447 1.226 . S
O455 Cd446 2.356 . S
O455 C453 1.282 . S
C456 C457 1.387 . S
C456 H460 0.950 . S
C456 C465 1.390 . S
C457 C456 1.387 . S
C457 C459 1.387 . S
H458 C465 0.950 . S
C459 C457 1.387 . S
C459 C461 1.390 . S
C459 H463 0.950 . S
H460 C456 0.950 . S
C461 C459 1.390 . S
C461 C462 1.387 . S
C461 H464 0.950 . S
C462 C461 1.387 . S
C462 C465 1.387 . S
H463 C459 0.950 . S
H464 C461 0.950 . S
C465 C456 1.390 . S
C465 H458 0.950 . S
C465 C462 1.387 . S
C466 C467 1.387 . S
C466 H470 0.950 . S
C466 C475 1.390 . S
C467 C466 1.387 . S
C467 C469 1.387 . S
H468 C475 0.950 . S
C469 C467 1.387 . S
C469 C471 1.390 . S
C469 H473 0.950 . S
H470 C466 0.950 . S
C471 C469 1.390 . S
C471 C472 1.387 . S
C471 H474 0.950 . S
C472 C471 1.387 . S
C472 C475 1.387 . S
H473 C469 0.950 . S
H474 C471 0.950 . S
C475 C466 1.390 . S
C475 H468 0.950 . S
C475 C472 1.387 . S
C476 C477 1.387 . S
C476 H480 0.950 . S
C476 C485 1.390 . S
C477 C476 1.387 . S
C477 C479 1.387 . S
H478 C485 0.950 . S
C479 C477 1.387 . S
C479 C481 1.390 . S
C479 H483 0.950 . S
H480 C476 0.950 . S
C481 C479 1.390 . S
C481 C482 1.387 . S
C481 H484 0.950 . S
C482 C481 1.387 . S
C482 C485 1.387 . S
H483 C479 0.950 . S
H484 C481 0.950 . S
C485 C476 1.390 . S
C485 H478 0.950 . S
C485 C482 1.387 . S
C486 C487 1.387 . S
C486 H490 0.950 . S
C486 C495 1.390 . S
C487 C486 1.387 . S
C487 C489 1.387 . S
H488 C495 0.950 . S
C489 C487 1.387 . S
C489 C491 1.390 . S
C489 H493 0.950 . S
H490 C486 0.950 . S
C491 C489 1.390 . S
C491 C492 1.387 . S
C491 H494 0.950 . S
C492 C491 1.387 . S
C492 C495 1.387 . S
H493 C489 0.950 . S
H494 C491 0.950 . S
C495 C486 1.390 . S
C495 H488 0.950 . S
C495 C492 1.387 . S
C496 C497 1.387 . S
C496 H500 0.950 . S
C496 C505 1.390 . S
C497 C496 1.387 . S
C497 C499 1.387 . S
H498 C505 0.950 . S
C499 C497 1.387 . S
C499 C501 1.390 . S
C499 H503 0.950 . S
H500 C496 0.950 . S
C501 C499 1.390 . S
C501 C502 1.387 . S
C501 H504 0.950 . S
C502 C501 1.387 . S
C502 C505 1.387 . S
H503 C499 0.950 . S
H504 C501 0.950 . S
C505 C496 1.390 . S
C505 H498 0.950 . S
C505 C502 1.387 . S
C506 C507 1.387 . S
C506 H510 0.950 . S
C506 C515 1.390 . S
C507 C506 1.387 . S
C507 C509 1.387 . S
H508 C515 0.950 . S
C509 C507 1.387 . S
C509 C511 1.390 . S
C509 H513 0.950 . S
H510 C506 0.950 . S
C511 C509 1.390 . S
C511 C512 1.387 . S
C511 H514 0.950 . S
C512 C511 1.387 . S
C512 C515 1.387 . S
H513 C509 0.950 . S
H514 C511 0.950 . S
C515 C506 1.390 . S
C515 H508 0.950 . S
C515 C512 1.387 . S
C516 C517 1.387 . S
C516 H520 0.950 . S
C516 C525 1.390 . S
C517 C516 1.387 . S
C517 C519 1.387 . S
H518 C525 0.950 . S
C519 C517 1.387 . S
C519 C521 1.390 . S
C519 H523 0.950 . S
H520 C516 0.950 . S
C521 C519 1.390 . S
C521 C522 1.387 . S
C521 H524 0.950 . S
C522 C521 1.387 . S
C522 C525 1.387 . S
H523 C519 0.950 . S
H524 C521 0.950 . S
C525 C516 1.390 . S
C525 H518 0.950 . S
C525 C522 1.387 . S
C526 C527 1.387 . S
C526 H530 0.950 . S
C526 C535 1.390 . S
C527 C526 1.387 . S
C527 C529 1.387 . S
H528 C535 0.950 . S
C529 C527 1.387 . S
C529 C531 1.390 . S
C529 H533 0.950 . S
H530 C526 0.950 . S
C531 C529 1.390 . S
C531 C532 1.387 . S
C531 H534 0.950 . S
C532 C531 1.387 . S
C532 C535 1.387 . S
H533 C529 0.950 . S
H534 C531 0.950 . S
C535 C526 1.390 . S
C535 H528 0.950 . S
C535 C532 1.387 . S
C536 C537 1.387 . S
C536 H540 0.950 . S
C536 C545 1.390 . S
C537 C536 1.387 . S
C537 C539 1.387 . S
H538 C545 0.950 . S
C539 C537 1.387 . S
C539 C541 1.390 . S
C539 H543 0.950 . S
H540 C536 0.950 . S
C541 C539 1.390 . S
C541 C542 1.387 . S
C541 H544 0.950 . S
C542 C541 1.387 . S
C542 C545 1.387 . S
H543 C539 0.950 . S
H544 C541 0.950 . S
C545 C536 1.390 . S
C545 H538 0.950 . S
C545 C542 1.387 . S
C546 C547 1.387 . S
C546 H550 0.950 . S
C546 C555 1.390 . S
C547 C546 1.387 . S
C547 C549 1.387 . S
H548 C555 0.950 . S
C549 C547 1.387 . S
C549 C551 1.390 . S
C549 H553 0.977 . S
H550 C546 0.950 . S
C551 C549 1.390 . S
C551 C552 1.387 . S
C551 H554 0.950 . S
C552 C551 1.387 . S
C552 C555 1.387 . S
H553 C549 0.977 . S
H554 C551 0.950 . S
C555 C546 1.390 . S
C555 H548 0.950 . S
C555 C552 1.387 . S
C556 C557 1.387 . S
C556 H560 0.950 . S
C556 C565 1.390 . S
C557 C556 1.387 . S
C557 C559 1.387 . S
H558 C565 0.950 . S
C559 C557 1.387 . S
C559 C561 1.390 . S
C559 H563 0.950 . S
H560 C556 0.950 . S
C561 C559 1.390 . S
C561 C562 1.387 . S
C561 H564 0.950 . S
C562 C561 1.387 . S
C562 C565 1.387 . S
H563 C559 0.950 . S
H564 C561 0.950 . S
C565 C556 1.390 . S
C565 H558 0.950 . S
C565 C562 1.387 . S
C566 C567 1.387 . S
C566 H570 0.950 . S
C566 C575 1.390 . S
C567 C566 1.387 . S
C567 C569 1.387 . S
H568 C575 0.950 . S
C569 C567 1.387 . S
C569 C571 1.390 . S
C569 H573 0.950 . S
H570 C566 0.950 . S
C571 C569 1.390 . S
C571 C572 1.387 . S
C571 H574 0.950 . S
C572 C571 1.387 . S
C572 C575 1.387 . S
H573 C569 0.950 . S
H574 C571 0.950 . S
C575 C566 1.390 . S
C575 H568 0.950 . S
C575 C572 1.387 . S
C576 C577 1.387 . S
C576 H580 0.950 . S
C576 C585 1.390 . S
C577 C576 1.387 . S
C577 C579 1.387 . S
H578 C585 0.950 . S
C579 C577 1.387 . S
C579 C581 1.390 . S
C579 H583 0.950 . S
H580 C576 0.950 . S
C581 C579 1.390 . S
C581 C582 1.387 . S
C581 H584 0.950 . S
C582 C581 1.387 . S
C582 C585 1.387 . S
H583 C579 0.950 . S
H584 C581 0.950 . S
C585 C576 1.390 . S
C585 H578 0.950 . S
C585 C582 1.387 . S
C586 C587 1.387 . S
C586 H590 0.950 . S
C586 C595 1.390 . S
C587 C586 1.387 . S
C587 C589 1.387 . S
H588 C595 0.950 . S
C589 C587 1.387 . S
C589 C591 1.390 . S
C589 H593 0.950 . S
H590 C586 0.950 . S
C591 C589 1.390 . S
C591 C592 1.387 . S
C591 H594 0.950 . S
C592 C591 1.387 . S
C592 C595 1.387 . S
H593 C589 0.950 . S
H594 C591 0.950 . S
C595 C586 1.390 . S
C595 H588 0.950 . S
C595 C592 1.387 . S
C596 C597 1.387 . S
C596 H600 0.950 . S
C596 C605 1.390 . S
C597 C596 1.387 . S
C597 C599 1.387 . S
H598 C605 0.950 . S
C599 C597 1.387 . S
C599 C601 1.390 . S
C599 H603 0.950 . S
H600 C596 0.950 . S
C601 C599 1.390 . S
C601 C602 1.387 . S
C601 H604 0.950 . S
C602 C601 1.387 . S
C602 C605 1.387 . S
H603 C599 0.950 . S
H604 C601 0.950 . S
C605 C596 1.390 . S
C605 H598 0.950 . S
C605 C602 1.387 . S
C606 C607 1.387 . S
C606 H610 0.950 . S
C606 C615 1.390 . S
C607 C606 1.387 . S
C607 C609 1.387 . S
H608 C615 0.950 . S
C609 C607 1.387 . S
C609 C611 1.390 . S
C609 H613 0.950 . S
H610 C606 0.950 . S
C611 C609 1.390 . S
C611 C612 1.387 . S
C611 H614 0.950 1_556 S
C612 C611 1.387 . S
C612 C615 1.387 . S
H613 C609 0.950 . S
H614 C611 0.950 1_554 S
C615 C606 1.390 . S
C615 H608 0.950 . S
C615 C612 1.387 . S
C616 C617 1.387 . S
C616 H620 0.950 . S
C616 C625 1.390 . S
C617 C616 1.387 . S
C617 C619 1.387 . S
H618 C625 0.950 . S
C619 C617 1.387 . S
C619 C621 1.390 . S
C619 H623 0.950 . S
H620 C616 0.950 . S
C621 C619 1.390 . S
C621 C622 1.387 . S
C621 H624 0.950 . S
C622 C621 1.387 . S
C622 C625 1.387 . S
H623 C619 0.950 . S
H624 C621 0.950 . S
C625 C616 1.390 . S
C625 H618 0.950 . S
C625 C622 1.387 . S
C626 C627 1.387 . S
C626 H630 0.950 . S
C626 C635 1.390 . S
C627 C626 1.387 . S
C627 C629 1.387 . S
H628 C635 0.950 . S
C629 C627 1.387 . S
C629 C631 1.390 . S
C629 H633 0.950 . S
H630 C626 0.950 . S
C631 C629 1.390 . S
C631 C632 1.387 . S
C631 H634 0.950 . S
C632 C631 1.387 . S
C632 C635 1.387 . S
H633 C629 0.950 . S
H634 C631 0.950 . S
C635 C626 1.390 . S
C635 H628 0.950 . S
C635 C632 1.387 . S
C636 C637 1.387 . S
C636 H640 0.950 . S
C636 C645 1.390 . S
C637 C636 1.387 . S
C637 C639 1.387 . S
H638 C645 0.950 . S
C639 C637 1.387 . S
C639 C641 1.390 . S
C639 H643 0.950 . S
H640 C636 0.950 . S
C641 C639 1.390 . S
C641 C642 1.387 . S
C641 H644 0.950 . S
C642 C641 1.387 . S
C642 C645 1.387 . S
H643 C639 0.950 . S
H644 C641 0.950 . S
C645 C636 1.390 . S
C645 H638 0.950 . S
C645 C642 1.387 . S
C646 C647 1.387 . S
C646 H650 0.950 . S
C646 C655 1.390 . S
C647 C646 1.387 . S
C647 C649 1.387 . S
H648 C655 0.950 . S
C649 C647 1.387 . S
C649 C651 1.390 . S
C649 H653 0.950 . S
H650 C646 0.950 . S
C651 C649 1.390 . S
C651 C652 1.387 . S
C651 H654 0.950 . S
C652 C651 1.387 . S
C652 C655 1.387 . S
H653 C649 0.950 . S
H654 C651 0.950 . S
C655 C646 1.390 . S
C655 H648 0.950 . S
C655 C652 1.387 . S
C656 C657 1.387 . S
C656 H660 0.950 . S
C656 C665 1.390 . S
C657 C656 1.387 . S
C657 C659 1.387 . S
H658 C665 0.950 . S
C659 C657 1.387 . S
C659 C661 1.390 . S
C659 H663 0.950 . S
H660 C656 0.950 . S
C661 C659 1.390 . S
C661 C662 1.387 . S
C661 H664 0.950 . S
C662 C661 1.387 . S
C662 C665 1.387 . S
H663 C659 0.950 . S
H664 C661 0.950 . S
C665 C656 1.390 . S
C665 H658 0.950 . S
C665 C662 1.387 . S
C666 C667 1.387 . S
C666 H670 0.950 . S
C666 C675 1.390 . S
C667 C666 1.387 . S
C667 C669 1.387 . S
H668 C675 0.950 . S
C669 C667 1.387 . S
C669 C671 1.390 . S
C669 H673 0.950 . S
H670 C666 0.950 . S
C671 C669 1.390 . S
C671 C672 1.387 . S
C671 H674 0.950 . S
C672 C671 1.387 . S
C672 C675 1.387 . S
H673 C669 0.950 . S
H674 C671 0.950 . S
C675 C666 1.390 . S
C675 H668 0.950 . S
C675 C672 1.387 . S
C676 C677 1.387 1_554 S
C676 H680 0.950 . S
C676 C685 1.390 1_554 S
C677 C676 1.387 1_556 S
C677 C679 1.387 . S
H678 C685 0.950 . S
C679 C677 1.387 . S
C679 C681 1.390 . S
C679 H683 0.950 . S
H680 C676 0.950 . S
C681 C679 1.390 . S
C681 C682 1.387 . S
C681 H684 0.950 . S
C682 C681 1.387 . S
C682 C685 1.387 . S
H683 C679 0.950 . S
H684 C681 0.950 . S
C685 C676 1.390 1_556 S
C685 H678 0.950 . S
C685 C682 1.387 . S
C686 C687 1.387 . S
C686 H690 0.950 . S
C686 C695 1.390 . S
C687 C686 1.387 . S
C687 C689 1.387 . S
H688 C695 0.950 . S
C689 C687 1.387 . S
C689 C691 1.390 . S
C689 H693 0.950 . S
H690 C686 0.950 . S
C691 C689 1.390 . S
C691 C692 1.387 . S
C691 H694 0.950 . S
C692 C691 1.387 . S
C692 C695 1.387 . S
H693 C689 0.950 . S
H694 C691 0.950 . S
C695 C686 1.390 . S
C695 H688 0.950 . S
C695 C692 1.387 . S
C462 C442 1.693 . S
C457 C29 1.582 . S
C467 C115 1.590 . S
C472 C383 1.618 . S
C477 C153 1.551 . S
C482 C386 1.674 . S
C487 C239 1.574 . S
C492 C400 1.596 . S
C502 C425 1.649 . S
C497 C301 1.613 . S
C507 C339 1.781 . S
C512 C428 1.930 . S
C517 C91 1.551 . S
C522 C397 1.669 . S
C527 C177 1.565 . S
C532 C411 1.587 . S
C537 C215 1.548 . S
C542 C414 1.663 . S
C552 C439 1.911 . S
C547 C277 1.770 . S
C562 C453 1.628 . S
C557 C363 1.597 . S
C572 C372 1.558 . S
C567 C53 1.533 . S
C577 C35 1.550 . S
C582 C395 1.567 . S
C587 C109 1.388 . S
C592 C409 1.512 . S
C602 C419 1.488 . S
C597 C159 1.481 . S
C607 C233 1.570 . S
C612 C437 1.700 1_556 S
C622 C451 1.550 . S
C617 C295 1.390 . S
C632 C377 1.447 . S
C627 C345 1.442 . S
C642 C447 1.498 . S
C637 C97 1.491 . S
C647 C171 1.389 . S
C652 C381 1.524 . S
C662 C391 1.590 . S
C657 C221 1.560 . S
C667 C283 1.443 . S
C672 C405 1.449 . S
C677 C357 1.397 1_556 S
C682 C423 1.569 . S
C687 C47 1.590 . S
C692 C433 1.730 . S
