# Generated by pormake.
# Topology pyr, (3,6)-cn, num edge types: 1
# Building blocks:
#     Node 0, Type 0, BuildingBlock: VETTIZ_charged_linker_0, # of connection points: 3
#     Node 1, Type 0, BuildingBlock: VETTIZ_charged_linker_0, # of connection points: 3
#     Node 2, Type 0, BuildingBlock: VETTIZ_charged_linker_0, # of connection points: 3
#     Node 3, Type 0, BuildingBlock: VETTIZ_charged_linker_0, # of connection points: 3
#     Node 4, Type 0, BuildingBlock: VETTIZ_charged_linker_0, # of connection points: 3
#     Node 5, Type 0, BuildingBlock: VETTIZ_charged_linker_0, # of connection points: 3
#     Node 6, Type 0, BuildingBlock: VETTIZ_charged_linker_0, # of connection points: 3
#     Node 7, Type 0, BuildingBlock: VETTIZ_charged_linker_0, # of connection points: 3
#     Node 8, Type 1, BuildingBlock: BETGAK_clean_sbu_0, # of connection points: 6
#     Node 9, Type 1, BuildingBlock: BETGAK_clean_sbu_0, # of connection points: 6
#     Node 10, Type 1, BuildingBlock: BETGAK_clean_sbu_0, # of connection points: 6
#     Node 11, Type 1, BuildingBlock: BETGAK_clean_sbu_0, # of connection points: 6
#     Edge 12, Type (0, 1), BuildingBlock: KIFKEQ_clean_linker_1, # of connection points: 2
#     Edge 13, Type (0, 1), BuildingBlock: KIFKEQ_clean_linker_1, # of connection points: 2
#     Edge 14, Type (0, 1), BuildingBlock: KIFKEQ_clean_linker_1, # of connection points: 2
#     Edge 15, Type (0, 1), BuildingBlock: KIFKEQ_clean_linker_1, # of connection points: 2
#     Edge 16, Type (0, 1), BuildingBlock: KIFKEQ_clean_linker_1, # of connection points: 2
#     Edge 17, Type (0, 1), BuildingBlock: KIFKEQ_clean_linker_1, # of connection points: 2
#     Edge 18, Type (0, 1), BuildingBlock: KIFKEQ_clean_linker_1, # of connection points: 2
#     Edge 19, Type (0, 1), BuildingBlock: KIFKEQ_clean_linker_1, # of connection points: 2
#     Edge 20, Type (0, 1), BuildingBlock: KIFKEQ_clean_linker_1, # of connection points: 2
#     Edge 21, Type (0, 1), BuildingBlock: KIFKEQ_clean_linker_1, # of connection points: 2
#     Edge 22, Type (0, 1), BuildingBlock: KIFKEQ_clean_linker_1, # of connection points: 2
#     Edge 23, Type (0, 1), BuildingBlock: KIFKEQ_clean_linker_1, # of connection points: 2
#     Edge 24, Type (0, 1), BuildingBlock: KIFKEQ_clean_linker_1, # of connection points: 2
#     Edge 25, Type (0, 1), BuildingBlock: KIFKEQ_clean_linker_1, # of connection points: 2
#     Edge 26, Type (0, 1), BuildingBlock: KIFKEQ_clean_linker_1, # of connection points: 2
#     Edge 27, Type (0, 1), BuildingBlock: KIFKEQ_clean_linker_1, # of connection points: 2
#     Edge 28, Type (0, 1), BuildingBlock: KIFKEQ_clean_linker_1, # of connection points: 2
#     Edge 29, Type (0, 1), BuildingBlock: KIFKEQ_clean_linker_1, # of connection points: 2
#     Edge 30, Type (0, 1), BuildingBlock: KIFKEQ_clean_linker_1, # of connection points: 2
#     Edge 31, Type (0, 1), BuildingBlock: KIFKEQ_clean_linker_1, # of connection points: 2
#     Edge 32, Type (0, 1), BuildingBlock: KIFKEQ_clean_linker_1, # of connection points: 2
#     Edge 33, Type (0, 1), BuildingBlock: KIFKEQ_clean_linker_1, # of connection points: 2
#     Edge 34, Type (0, 1), BuildingBlock: KIFKEQ_clean_linker_1, # of connection points: 2
#     Edge 35, Type (0, 1), BuildingBlock: KIFKEQ_clean_linker_1, # of connection points: 2
# Relax obj value: 0.095
# Max RMSD: 0.121
# Mean RMSD: 0.058
data_MOF--net-pyr--node1-BETGAK_clean_sbu_0--node2-VETTIZ_charged_linker_0--edge1-KIFKEQ_clean_linker_1
_symmetry_space_group_name_H-M    P1
_symmetry_Int_Tables_number       1
_symmetry_cell_setting            triclinic
loop_
_symmetry_equiv_pos_as_xyz
'x, y, z'
_cell_length_a     46.45629
_cell_length_b     48.763588
_cell_length_c     44.375434
_cell_angle_alpha  90.346874
_cell_angle_beta   88.493755
_cell_angle_gamma 101.45292
loop_
_atom_site_label
_atom_site_type_symbol
_atom_site_fract_x
_atom_site_fract_y
_atom_site_fract_z
_atom_type_partial_charge
C0 C 0.28361 0.26708 0.33393 0.0
C1 C 0.26561 0.28477 0.34603 0.0
C2 C 0.26772 0.31157 0.33334 0.0
C3 C 0.29874 0.29961 0.2928 0.0
C4 C 0.3002 0.27505 0.30742 0.0
C5 C 0.31904 0.25822 0.2901 0.0
H6 H 0.38494 0.23251 0.15815 0.0
C7 C 0.3131 0.29917 0.26284 0.0
C8 C 0.32584 0.27542 0.26134 0.0
H9 H 0.38613 0.19099 0.24388 0.0
H10 H 0.35883 0.22292 0.2673 0.0
H11 H 0.39776 0.29753 0.18511 0.0
H12 H 0.31864 0.23868 0.16391 0.0
H13 H 0.3132 0.27205 0.15424 0.0
H14 H 0.34178 0.25793 0.13505 0.0
H15 H 0.38859 0.28587 0.14745 0.0
H16 H 0.37474 0.31459 0.1641 0.0
C17 C 0.34705 0.25798 0.30831 0.0
C18 C 0.30045 0.22876 0.28392 0.0
C19 C 0.28707 0.36218 0.1821 0.0
C20 C 0.29006 0.36237 0.15054 0.0
C21 C 0.30766 0.3452 0.13659 0.0
C22 C 0.32116 0.32744 0.15387 0.0
C23 C 0.31649 0.3264 0.18535 0.0
C24 C 0.3 0.34394 0.1989 0.0
C25 C 0.29512 0.33868 0.2321 0.0
C26 C 0.31145 0.31502 0.23644 0.0
C27 C 0.32392 0.30782 0.20904 0.0
C28 C 0.3094 0.36551 0.24933 0.0
C29 C 0.26151 0.32931 0.23797 0.0
C30 C 0.37964 0.23052 0.18205 0.0
C31 C 0.38761 0.20904 0.19912 0.0
C32 C 0.37989 0.20701 0.23009 0.0
C33 C 0.36424 0.2257 0.24375 0.0
C34 C 0.35594 0.24663 0.22631 0.0
C35 C 0.36393 0.24906 0.19609 0.0
C36 C 0.35303 0.27267 0.18125 0.0
C37 C 0.33837 0.28468 0.2079 0.0
C38 C 0.33967 0.2689 0.23405 0.0
C39 C 0.37981 0.29384 0.16857 0.0
C40 C 0.33063 0.25992 0.15718 0.0
H41 H 0.28385 0.33918 0.29739 0.0
H42 H 0.2831 0.24661 0.34345 0.0
H43 H 0.27854 0.23044 0.27545 0.0
H44 H 0.31047 0.21702 0.26663 0.0
H45 H 0.29693 0.21599 0.30483 0.0
H46 H 0.3511 0.27525 0.32513 0.0
H47 H 0.34531 0.23804 0.32084 0.0
H48 H 0.36717 0.26136 0.29372 0.0
H49 H 0.27321 0.37462 0.19349 0.0
H50 H 0.31043 0.34508 0.11228 0.0
H51 H 0.33395 0.31458 0.14199 0.0
H52 H 0.32718 0.37879 0.23561 0.0
H53 H 0.29298 0.37849 0.2554 0.0
H54 H 0.32029 0.3607 0.27002 0.0
H55 H 0.25176 0.31376 0.22075 0.0
H56 H 0.25552 0.31895 0.25979 0.0
H57 H 0.25035 0.3474 0.23681 0.0
H58 H 0.25513 0.32611 0.34292 0.0
C59 C 0.28431 0.31911 0.30687 0.0
C60 C 0.23636 0.9091 0.57118 0.0
C61 C 0.22332 0.92613 0.59089 0.0
C62 C 0.23353 0.93043 0.6205 0.0
C63 C 0.27151 0.90428 0.60928 0.0
C64 C 0.26039 0.89835 0.58089 0.0
C65 C 0.2775 0.88032 0.56295 0.0
H66 H 0.39705 0.82044 0.55173 0.0
C67 C 0.29818 0.8925 0.61153 0.0
C68 C 0.30187 0.87832 0.58458 0.0
H69 H 0.32358 0.80893 0.49226 0.0
H70 H 0.30116 0.84112 0.52263 0.0
H71 H 0.40136 0.88896 0.56705 0.0
H72 H 0.35898 0.81127 0.60868 0.0
H73 H 0.37172 0.83457 0.63788 0.0
H74 H 0.39775 0.82444 0.6113 0.0
H75 H 0.42127 0.86555 0.58447 0.0
H76 H 0.40718 0.89164 0.60609 0.0
C77 C 0.28961 0.896 0.53367 0.0
C78 C 0.25718 0.85148 0.55759 0.0
C79 C 0.36016 0.91413 0.70396 0.0
C80 C 0.38731 0.90835 0.71222 0.0
C81 C 0.40217 0.89298 0.69226 0.0
C82 C 0.39019 0.88382 0.66435 0.0
C83 C 0.363 0.88995 0.65644 0.0
C84 C 0.34857 0.90491 0.6762 0.0
C85 C 0.32019 0.90996 0.66423 0.0
C86 C 0.31963 0.89522 0.63405 0.0
C87 C 0.34469 0.88359 0.62953 0.0
C88 C 0.32298 0.94204 0.66076 0.0
C89 C 0.2948 0.89563 0.6857 0.0
C90 C 0.3766 0.82564 0.54474 0.0
C91 C 0.36233 0.81297 0.51928 0.0
C92 C 0.33507 0.819 0.51155 0.0
C93 C 0.32205 0.83738 0.52934 0.0
C94 C 0.3362 0.84918 0.55541 0.0
C95 C 0.36299 0.84313 0.56273 0.0
C96 C 0.37336 0.85485 0.59282 0.0
C97 C 0.34836 0.86891 0.60248 0.0
C98 C 0.32691 0.86599 0.58027 0.0
C99 C 0.40243 0.87629 0.58761 0.0
C100 C 0.37585 0.83019 0.61388 0.0
H101 H 0.26452 0.92423 0.65237 0.0
H102 H 0.22879 0.90511 0.5484 0.0
H103 H 0.23911 0.84694 0.5749 0.0
H104 H 0.26895 0.83394 0.55949 0.0
H105 H 0.2469 0.85058 0.53519 0.0
H106 H 0.29996 0.91806 0.53876 0.0
H107 H 0.2717 0.89625 0.51763 0.0
H108 H 0.30672 0.88678 0.52207 0.0
H109 H 0.34785 0.92539 0.71899 0.0
H110 H 0.42318 0.88833 0.69811 0.0
H111 H 0.40255 0.87234 0.65002 0.0
H112 H 0.34574 0.95221 0.65366 0.0
H113 H 0.31778 0.95176 0.68241 0.0
H114 H 0.30903 0.94784 0.6431 0.0
H115 H 0.30013 0.87679 0.69654 0.0
H116 H 0.27419 0.88766 0.67377 0.0
H117 H 0.29044 0.91005 0.70397 0.0
H118 H 0.22325 0.94263 0.63646 0.0
C119 C 0.2575 0.91964 0.62976 0.0
C120 C 0.63459 0.28082 0.91731 0.0
C121 C 0.60876 0.26355 0.90676 0.0
C122 C 0.59531 0.27305 0.88161 0.0
C123 C 0.63293 0.31575 0.8785 0.0
C124 C 0.64621 0.3064 0.9029 0.0
C125 C 0.67381 0.32645 0.91129 0.0
H126 H 0.77169 0.4481 0.88996 0.0
C127 C 0.65092 0.34338 0.86886 0.0
C128 C 0.67498 0.34949 0.88811 0.0
H129 H 0.77317 0.3829 0.95514 0.0
H130 H 0.72828 0.35615 0.93599 0.0
H131 H 0.6993 0.44569 0.89469 0.0
H132 H 0.75365 0.40655 0.83478 0.0
H133 H 0.72595 0.41596 0.81327 0.0
H134 H 0.75209 0.44289 0.83152 0.0
H135 H 0.72533 0.46501 0.86812 0.0
H136 H 0.68866 0.4492 0.85731 0.0
C137 C 0.66933 0.337 0.94377 0.0
C138 C 0.69997 0.3112 0.90715 0.0
C139 C 0.61985 0.39834 0.78104 0.0
C140 C 0.63292 0.42376 0.76668 0.0
C141 C 0.65973 0.43874 0.77777 0.0
C142 C 0.67316 0.42894 0.80245 0.0
C143 C 0.65999 0.40356 0.81643 0.0
C144 C 0.63386 0.38854 0.80555 0.0
C145 C 0.62381 0.36138 0.82258 0.0
C146 C 0.64785 0.36282 0.84567 0.0
C147 C 0.66899 0.38779 0.84205 0.0
C148 C 0.59362 0.36189 0.8378 0.0
C149 C 0.62348 0.33688 0.80019 0.0
C150 C 0.76214 0.42815 0.90018 0.0
C151 C 0.7762 0.41764 0.92417 0.0
C152 C 0.76314 0.3914 0.93651 0.0
C153 C 0.73689 0.37587 0.92536 0.0
C154 C 0.72325 0.38637 0.90128 0.0
C155 C 0.73588 0.41206 0.88897 0.0
C156 C 0.71852 0.41923 0.86277 0.0
C157 C 0.69334 0.3938 0.86173 0.0
C158 C 0.69626 0.37472 0.88451 0.0
C159 C 0.70741 0.4463 0.87084 0.0
C160 C 0.73846 0.42153 0.83399 0.0
H161 H 0.59573 0.30476 0.84868 0.0
H162 H 0.64555 0.27485 0.93672 0.0
H163 H 0.69589 0.29528 0.88886 0.0
H164 H 0.7206 0.3254 0.90003 0.0
H165 H 0.7037 0.30021 0.92811 0.0
H166 H 0.64638 0.33999 0.94758 0.0
H167 H 0.67358 0.32176 0.96078 0.0
H168 H 0.68318 0.35765 0.94845 0.0
H169 H 0.59947 0.38606 0.77297 0.0
H170 H 0.67023 0.45842 0.7675 0.0
H171 H 0.69341 0.44155 0.80969 0.0
H172 H 0.59362 0.38265 0.84834 0.0
H173 H 0.5759 0.35801 0.82105 0.0
H174 H 0.58793 0.34649 0.85617 0.0
H175 H 0.64245 0.34164 0.78393 0.0
H176 H 0.62575 0.3173 0.81137 0.0
H177 H 0.60305 0.33296 0.78702 0.0
H178 H 0.57576 0.26033 0.87235 0.0
C179 C 0.60712 0.2989 0.8676 0.0
C180 C 0.92416 0.79138 0.39021 0.0
C181 C 0.91252 0.80594 0.41378 0.0
C182 C 0.8845 0.79426 0.42606 0.0
C183 C 0.88092 0.75379 0.39338 0.0
C184 C 0.90796 0.76531 0.38041 0.0
C185 C 0.91682 0.74632 0.35619 0.0
H186 H 0.87904 0.6278 0.27173 0.0
C187 C 0.86993 0.72629 0.37914 0.0
C188 C 0.89068 0.72168 0.35702 0.0
H189 H 0.96106 0.68858 0.26736 0.0
H190 H 0.94365 0.71457 0.30759 0.0
H191 H 0.88129 0.62243 0.34168 0.0
H192 H 0.83327 0.66944 0.2868 0.0
H193 H 0.80935 0.65047 0.31441 0.0
H194 H 0.82747 0.63189 0.28716 0.0
H195 H 0.84743 0.60627 0.32487 0.0
H196 H 0.84818 0.62315 0.36128 0.0
C197 C 0.94545 0.73749 0.36569 0.0
C198 C 0.91963 0.76211 0.32584 0.0
C199 C 0.77361 0.66725 0.41832 0.0
C200 C 0.75813 0.64 0.41194 0.0
C201 C 0.76925 0.62496 0.38846 0.0
C202 C 0.79509 0.63666 0.37207 0.0
C203 C 0.81048 0.66365 0.37929 0.0
C204 C 0.79964 0.67835 0.40218 0.0
C205 C 0.81929 0.70624 0.40776 0.0
C206 C 0.84396 0.70581 0.3847 0.0
C207 C 0.83859 0.681 0.36777 0.0
C208 C 0.83013 0.70633 0.44056 0.0
C209 C 0.80186 0.72941 0.40083 0.0
C210 C 0.89376 0.64644 0.27922 0.0
C211 C 0.9216 0.65585 0.26503 0.0
C212 C 0.93917 0.68075 0.2764 0.0
C213 C 0.92915 0.69591 0.30028 0.0
C214 C 0.90137 0.68609 0.31384 0.0
C215 C 0.8845 0.66137 0.30362 0.0
C216 C 0.85675 0.65249 0.3224 0.0
C217 C 0.859 0.67662 0.3446 0.0
C218 C 0.88509 0.69658 0.3394 0.0
C219 C 0.85818 0.62457 0.33831 0.0
C220 C 0.83016 0.65079 0.30173 0.0
H221 H 0.84776 0.76096 0.42674 0.0
H222 H 0.94559 0.79971 0.38019 0.0
H223 H 0.9006 0.77247 0.32302 0.0
H224 H 0.91972 0.7482 0.30618 0.0
H225 H 0.93996 0.77855 0.32481 0.0
H226 H 0.94518 0.73389 0.39044 0.0
H227 H 0.96498 0.75396 0.35996 0.0
H228 H 0.94834 0.71752 0.35539 0.0
H229 H 0.76578 0.67992 0.43559 0.0
H230 H 0.75837 0.60384 0.38304 0.0
H231 H 0.80226 0.62411 0.35454 0.0
H232 H 0.83346 0.6852 0.4471 0.0
H233 H 0.81392 0.71238 0.45684 0.0
H234 H 0.85172 0.72018 0.4437 0.0
H235 H 0.78572 0.72267 0.38283 0.0
H236 H 0.81602 0.74876 0.39194 0.0
H237 H 0.78944 0.73458 0.4211 0.0
H238 H 0.87455 0.80515 0.44358 0.0
C239 C 0.86878 0.7685 0.41609 0.0
C240 C 0.74547 0.73862 0.91705 0.0
C241 C 0.76287 0.72065 0.90438 0.0
C242 C 0.76591 0.71911 0.87278 0.0
C243 C 0.73743 0.75506 0.86702 0.0
C244 C 0.73255 0.75532 0.89785 0.0
C245 C 0.7129 0.7754 0.90682 0.0
H246 H 0.64579 0.88075 0.86602 0.0
C247 C 0.72337 0.77636 0.85342 0.0
C248 C 0.70815 0.78791 0.87639 0.0
H249 H 0.64517 0.8435 0.95424 0.0
H250 H 0.67253 0.80983 0.93409 0.0
H251 H 0.63363 0.82337 0.82801 0.0
H252 H 0.71233 0.8812 0.85158 0.0
H253 H 0.71762 0.87106 0.8143 0.0
H254 H 0.68812 0.88893 0.82342 0.0
H255 H 0.64447 0.85716 0.81074 0.0
H256 H 0.65723 0.82696 0.79603 0.0
C257 C 0.68396 0.75833 0.9207 0.0
C258 C 0.72998 0.79754 0.92832 0.0
C259 C 0.75646 0.81117 0.7486 0.0
C260 C 0.75175 0.83429 0.732 0.0
C261 C 0.72832 0.8473 0.7409 0.0
C262 C 0.71212 0.83942 0.76763 0.0
C263 C 0.71955 0.81847 0.78577 0.0
C264 C 0.74031 0.80375 0.77538 0.0
C265 C 0.7454 0.78214 0.79756 0.0
C266 C 0.7257 0.78767 0.82387 0.0
C267 C 0.71092 0.80918 0.81695 0.0
C268 C 0.73483 0.75273 0.78353 0.0
C269 C 0.77837 0.7887 0.8056 0.0
C270 C 0.65154 0.86537 0.88105 0.0
C271 C 0.64346 0.86494 0.9118 0.0
C272 C 0.65099 0.84421 0.93043 0.0
C273 C 0.66701 0.82477 0.91873 0.0
C274 C 0.67565 0.82606 0.88807 0.0
C275 C 0.66748 0.8459 0.86976 0.0
C276 C 0.67889 0.84468 0.83792 0.0
C277 C 0.69474 0.82042 0.83986 0.0
C278 C 0.69314 0.80976 0.86939 0.0
C279 C 0.65233 0.8379 0.81686 0.0
C280 C 0.70022 0.87287 0.83111 0.0
H281 H 0.75692 0.73437 0.83033 0.0
H282 H 0.74225 0.73979 0.94125 0.0
H283 H 0.75275 0.80524 0.91942 0.0
H284 H 0.72015 0.81624 0.93089 0.0
H285 H 0.73146 0.78851 0.95101 0.0
H286 H 0.67833 0.73718 0.9103 0.0
H287 H 0.68579 0.75545 0.94534 0.0
H288 H 0.66483 0.76797 0.91655 0.0
H289 H 0.77416 0.8006 0.74246 0.0
H290 H 0.72361 0.86465 0.72807 0.0
H291 H 0.69552 0.85099 0.77395 0.0
H292 H 0.71975 0.75327 0.76456 0.0
H293 H 0.75361 0.7439 0.77457 0.0
H294 H 0.72191 0.73782 0.79995 0.0
H295 H 0.78581 0.81145 0.81006 0.0
H296 H 0.78329 0.778 0.82602 0.0
H297 H 0.79222 0.78284 0.78681 0.0
H298 H 0.77923 0.70556 0.86244 0.0
C299 C 0.75317 0.73605 0.85411 0.0
C300 C 0.8165 0.17903 0.5127 0.0
C301 C 0.82951 0.16299 0.49185 0.0
C302 C 0.82016 0.16116 0.46182 0.0
C303 C 0.78347 0.18852 0.4744 0.0
C304 C 0.7935 0.19154 0.50351 0.0
C305 C 0.77637 0.20852 0.52284 0.0
H306 H 0.65844 0.27032 0.53793 0.0
C307 C 0.75764 0.20166 0.47271 0.0
C308 C 0.75314 0.21327 0.50104 0.0
H309 H 0.72961 0.27524 0.59952 0.0
H310 H 0.75241 0.24508 0.56658 0.0
H311 H 0.65283 0.20422 0.5161 0.0
H312 H 0.6993 0.28403 0.48299 0.0
H313 H 0.68631 0.26407 0.45139 0.0
H314 H 0.66041 0.27261 0.47908 0.0
H315 H 0.63467 0.22896 0.49859 0.0
H316 H 0.64999 0.20377 0.47667 0.0
C317 C 0.76271 0.19058 0.55019 0.0
C318 C 0.79716 0.23627 0.53149 0.0
C319 C 0.70164 0.19546 0.37555 0.0
C320 C 0.67485 0.20247 0.36801 0.0
C321 C 0.6584 0.21378 0.39023 0.0
C322 C 0.66889 0.2186 0.41953 0.0
C323 C 0.69596 0.21178 0.42667 0.0
C324 C 0.71158 0.20001 0.40494 0.0
C325 C 0.73878 0.19223 0.41702 0.0
C326 C 0.73756 0.20234 0.44934 0.0
C327 C 0.71264 0.21395 0.45477 0.0
C328 C 0.73535 0.15993 0.41494 0.0
C329 C 0.76571 0.20894 0.39929 0.0
C330 C 0.67844 0.26406 0.54475 0.0
C331 C 0.69194 0.27423 0.57157 0.0
C332 C 0.71868 0.26701 0.57917 0.0
C333 C 0.73192 0.24984 0.55991 0.0
C334 C 0.71856 0.24058 0.53255 0.0
C335 C 0.69233 0.24791 0.52537 0.0
C336 C 0.68303 0.2394 0.49396 0.0
C337 C 0.708 0.22572 0.48334 0.0
C338 C 0.72843 0.22588 0.50619 0.0
C339 C 0.65349 0.21811 0.49618 0.0
C340 C 0.68194 0.26624 0.47576 0.0
H341 H 0.79091 0.17127 0.42996 0.0
H342 H 0.82329 0.18093 0.5359 0.0
H343 H 0.81581 0.24188 0.51496 0.0
H344 H 0.78604 0.25434 0.53132 0.0
H345 H 0.80665 0.23475 0.55399 0.0
H346 H 0.75186 0.16931 0.5427 0.0
H347 H 0.77984 0.18821 0.56644 0.0
H348 H 0.74566 0.19941 0.5624 0.0
H349 H 0.71428 0.186 0.35906 0.0
H350 H 0.63758 0.2191 0.3848 0.0
H351 H 0.65552 0.22743 0.43546 0.0
H352 H 0.71185 0.14925 0.41467 0.0
H353 H 0.74616 0.15366 0.3941 0.0
H354 H 0.74415 0.15092 0.4347 0.0
H355 H 0.76303 0.2308 0.39537 0.0
H356 H 0.78641 0.21091 0.41154 0.0
H357 H 0.76842 0.19926 0.37694 0.0
H358 H 0.83035 0.14958 0.44514 0.0
C359 C 0.79726 0.17382 0.45301 0.0
C360 C 0.41968 0.67904 0.30969 0.0
C361 C 0.40817 0.65215 0.32174 0.0
C362 C 0.3822 0.63669 0.30925 0.0
C363 C 0.38025 0.67386 0.27344 0.0
C364 C 0.40548 0.68938 0.28563 0.0
C365 C 0.41487 0.7173 0.26989 0.0
H366 H 0.39244 0.80614 0.1583 0.0
C367 C 0.37092 0.69028 0.24856 0.0
C368 C 0.39125 0.71591 0.24634 0.0
H369 H 0.46129 0.82034 0.2237 0.0
H370 H 0.44183 0.77518 0.24606 0.0
H371 H 0.34196 0.7839 0.20505 0.0
H372 H 0.39302 0.74159 0.14545 0.0
H373 H 0.35632 0.72376 0.14354 0.0
H374 H 0.36581 0.76006 0.13274 0.0
H375 H 0.33395 0.77911 0.16585 0.0
H376 H 0.31793 0.75338 0.19378 0.0
C377 C 0.41374 0.74075 0.29325 0.0
C378 C 0.44561 0.7184 0.25517 0.0
C379 C 0.27882 0.65017 0.18861 0.0
C380 C 0.26445 0.66134 0.16531 0.0
C381 C 0.2769 0.68825 0.15427 0.0
C382 C 0.30283 0.7038 0.16603 0.0
C383 C 0.31677 0.69265 0.18944 0.0
C384 C 0.30474 0.6663 0.2005 0.0
C385 C 0.32235 0.65847 0.22617 0.0
C386 C 0.34686 0.68437 0.22849 0.0
C387 C 0.34347 0.70418 0.20669 0.0
C388 C 0.30227 0.65433 0.25486 0.0
C389 C 0.33442 0.63227 0.21655 0.0
C390 C 0.40331 0.79992 0.17765 0.0
C391 C 0.42873 0.81731 0.18887 0.0
C392 C 0.44207 0.80753 0.21393 0.0
C393 C 0.43058 0.78123 0.22715 0.0
C394 C 0.40524 0.7642 0.21547 0.0
C395 C 0.39202 0.77389 0.19123 0.0
C396 C 0.3649 0.75364 0.182 0.0
C397 C 0.36409 0.72995 0.20431 0.0
C398 C 0.38783 0.73599 0.22397 0.0
C399 C 0.3382 0.76812 0.18662 0.0
C400 C 0.36995 0.74428 0.14916 0.0
H401 H 0.34877 0.63425 0.27712 0.0
H402 H 0.43961 0.69161 0.31838 0.0
H403 H 0.44686 0.69805 0.24428 0.0
H404 H 0.45089 0.73415 0.23709 0.0
H405 H 0.46298 0.72278 0.27227 0.0
H406 H 0.39408 0.73503 0.3085 0.0
H407 H 0.43351 0.74434 0.30742 0.0
H408 H 0.41171 0.76071 0.28277 0.0
H409 H 0.26975 0.62966 0.1978 0.0
H410 H 0.26661 0.69727 0.13619 0.0
H411 H 0.31098 0.72403 0.15637 0.0
H412 H 0.28728 0.66953 0.25544 0.0
H413 H 0.28844 0.63295 0.25563 0.0
H414 H 0.31464 0.65823 0.27587 0.0
H415 H 0.34179 0.63376 0.19245 0.0
H416 H 0.35393 0.62982 0.22912 0.0
H417 H 0.31726 0.61297 0.21924 0.0
H418 H 0.37222 0.6163 0.31818 0.0
C419 C 0.36835 0.64727 0.28538 0.0
C420 C 0.11872 0.28899 0.6975 0.0
C421 C 0.13143 0.27335 0.67575 0.0
C422 C 0.15936 0.28497 0.66332 0.0
C423 C 0.16169 0.3268 0.69374 0.0
C424 C 0.13445 0.31554 0.70644 0.0
C425 C 0.12535 0.33486 0.73018 0.0
H426 H 0.16279 0.45419 0.8136 0.0
C427 C 0.17244 0.35458 0.70749 0.0
C428 C 0.15149 0.3595 0.72924 0.0
H429 H 0.08103 0.3932 0.81864 0.0
H430 H 0.09831 0.36708 0.7783 0.0
H431 H 0.16077 0.45888 0.74333 0.0
H432 H 0.20861 0.41249 0.79916 0.0
H433 H 0.23263 0.43126 0.77148 0.0
H434 H 0.21435 0.45003 0.79839 0.0
H435 H 0.19454 0.47525 0.76017 0.0
H436 H 0.19398 0.45799 0.72398 0.0
C437 C 0.09683 0.34352 0.72011 0.0
C438 C 0.12224 0.31948 0.7608 0.0
C439 C 0.26914 0.413 0.66857 0.0
C440 C 0.28458 0.44033 0.67462 0.0
C441 C 0.27323 0.45575 0.69759 0.0
C442 C 0.2472 0.44433 0.71382 0.0
C443 C 0.23188 0.41722 0.70695 0.0
C444 C 0.24293 0.40218 0.68452 0.0
C445 C 0.22338 0.37417 0.67928 0.0
C446 C 0.19848 0.37496 0.70194 0.0
C447 C 0.20367 0.40002 0.71844 0.0
C448 C 0.21288 0.3735 0.64632 0.0
C449 C 0.24077 0.35115 0.68699 0.0
C450 C 0.14816 0.43544 0.80621 0.0
C451 C 0.12042 0.42597 0.82053 0.0
C452 C 0.10285 0.401 0.80937 0.0
C453 C 0.11281 0.38577 0.78551 0.0
C454 C 0.14058 0.39554 0.77188 0.0
C455 C 0.15743 0.42036 0.78191 0.0
C456 C 0.18524 0.42906 0.76319 0.0
C457 C 0.18309 0.40471 0.7413 0.0
C458 C 0.15695 0.38481 0.74654 0.0
C459 C 0.18386 0.45681 0.74689 0.0
C460 C 0.21176 0.43101 0.78402 0.0
H461 H 0.19548 0.31887 0.66148 0.0
H462 H 0.09737 0.28054 0.70765 0.0
H463 H 0.141 0.30878 0.76388 0.0
H464 H 0.12248 0.33369 0.78023 0.0
H465 H 0.10167 0.30335 0.76207 0.0
H466 H 0.09767 0.34741 0.69539 0.0
H467 H 0.07734 0.32682 0.72524 0.0
H468 H 0.09347 0.36327 0.73058 0.0
H469 H 0.27716 0.40005 0.6517 0.0
H470 H 0.28409 0.47695 0.70274 0.0
H471 H 0.23985 0.45715 0.73097 0.0
H472 H 0.20899 0.39437 0.6395 0.0
H473 H 0.22957 0.36781 0.63036 0.0
H474 H 0.19167 0.35909 0.64301 0.0
H475 H 0.25721 0.35841 0.70459 0.0
H476 H 0.22661 0.33219 0.69676 0.0
H477 H 0.25284 0.34518 0.66685 0.0
H478 H 0.16952 0.27361 0.6464 0.0
C479 C 0.17441 0.31143 0.67207 0.0
La480 La 0.02694 0.05608 0.51214 0.0
La481 La 1.02006 1.02607 0.57123 0.0
C482 C 0.02796 0.09163 0.47114 0.0
C483 C 0.04975 0.1171 0.46432 0.0
C484 C 0.07768 0.12088 0.47686 0.0
C485 C 0.09933 0.14402 0.46892 0.0
C486 C 0.09336 0.16402 0.44852 0.0
C487 C 0.06483 0.16074 0.43712 0.0
C488 C 0.04323 0.13737 0.44488 0.0
C489 C 0.07119 1.03266 0.52609 0.0
C490 C 0.04783 0.08905 0.5736 0.0
C491 C 1.01747 0.99077 0.61281 0.0
C492 C 0.99398 0.96675 0.62019 0.0
C493 C 0.97076 0.95895 0.60031 0.0
C494 C 0.94571 0.9396 0.60915 0.0
C495 C 0.94333 0.92786 0.63816 0.0
C496 C 0.96738 0.93456 0.6574 0.0
C497 C 0.99252 0.95396 0.64848 0.0
C498 C 0.97568 0.04935 0.5568 0.0
C499 C 1.00052 0.99273 0.50985 0.0
O500 O 0.0375 0.06831 0.4674 0.0
O501 O 1.01317 0.09194 0.49659 0.0
O502 O 0.06332 1.03565 0.49881 0.0
O503 O 0.05652 0.04488 0.54384 0.0
O504 O 0.03825 0.09013 0.54577 0.0
O505 O 0.048 0.06467 0.5865 0.0
O506 O 1.00982 1.01499 0.61637 0.0
O507 O 0.03164 0.98929 0.58716 0.0
O508 O 0.98366 0.04676 0.58408 0.0
O509 O 0.99051 1.03701 0.53938 0.0
O510 O 1.01022 0.99212 0.53763 0.0
O511 O 0.99994 1.0169 0.49661 0.0
H512 H 0.08299 0.10548 0.49217 0.0
H513 H 0.12105 0.14557 0.47787 0.0
H514 H 0.05929 0.17602 0.42184 0.0
H515 H 0.02164 0.13489 0.43532 0.0
H516 H 0.97126 0.96895 0.57854 0.0
H517 H 0.92749 0.93523 0.59395 0.0
H518 H 0.96631 0.9256 0.67977 0.0
H519 H 1.01019 0.95988 0.66414 0.0
La520 La 0.54626 0.05106 0.06232 0.0
La521 La 0.48916 1.03209 1.03716 0.0
C522 C 0.59285 0.07909 0.08358 0.0
C523 C 0.60094 0.09647 0.11044 0.0
C524 C 0.62256 0.09007 0.12907 0.0
C525 C 0.63002 0.10536 0.15533 0.0
C526 C 0.61617 0.1276 0.1634 0.0
C527 C 0.59463 0.13416 0.14453 0.0
C528 C 0.58704 0.1187 0.11828 0.0
C529 C 0.51827 1.00187 0.08353 0.0
C530 C 0.49047 0.07128 0.09134 0.0
C531 C 0.44338 1.00426 1.01422 0.0
C532 C 0.43701 0.99088 0.98455 0.0
C533 C 0.42058 1.00283 0.96408 0.0
C534 C 0.41617 0.99195 0.93508 0.0
C535 C 0.42773 0.96856 0.92596 0.0
C536 C 0.44356 0.95613 0.94674 0.0
C537 C 0.44818 0.96719 0.97575 0.0
C538 C 0.51761 0.08105 1.01548 0.0
C539 C 0.5447 1.0108 1.00883 0.0
O540 O 0.58333 0.05247 0.08872 0.0
O541 O 0.57742 0.08869 0.06335 0.0
O542 O 0.54614 1.00844 0.07748 0.0
O543 O 0.50696 1.02294 0.07889 0.0
O544 O 0.51923 0.07701 0.08635 0.0
O545 O 0.47393 0.04988 0.07786 0.0
O546 O 0.45028 1.03156 1.014 0.0
O547 O 0.46026 0.99343 1.0319 0.0
O548 O 0.48973 0.07468 1.02141 0.0
O549 O 0.52856 0.05983 1.02037 0.0
O550 O 0.51586 1.00602 1.01303 0.0
O551 O 0.56163 1.03169 1.02269 0.0
H552 H 0.63344 0.07291 0.1235 0.0
H553 H 0.64627 0.09934 0.16961 0.0
H554 H 0.58375 0.15133 0.14994 0.0
H555 H 0.57027 0.12409 0.10425 0.0
H556 H 0.4117 1.02108 0.97029 0.0
H557 H 0.40429 1.00238 0.91957 0.0
H558 H 0.45238 0.93785 0.94062 0.0
H559 H 0.4608 0.95736 0.99108 0.0
La560 La 0.52431 0.51503 0.52443 0.0
La561 La 0.52001 0.56224 0.56388 0.0
C562 C 0.54462 0.4763 0.49991 0.0
C563 C 0.55782 0.45469 0.51442 0.0
C564 C 0.54072 0.43404 0.53298 0.0
C565 C 0.55398 0.41592 0.54956 0.0
C566 C 0.58458 0.41817 0.5481 0.0
C567 C 0.60164 0.43856 0.52932 0.0
C568 C 0.58837 0.45654 0.51253 0.0
C569 C 0.47308 0.51076 0.55284 0.0
C570 C 0.5457 0.51542 0.59355 0.0
C571 C 0.5 0.60098 0.58876 0.0
C572 C 0.48805 0.62357 0.57468 0.0
C573 C 0.50585 0.6436 0.55596 0.0
C574 C 0.49356 0.66281 0.53996 0.0
C575 C 0.46325 0.6622 0.54211 0.0
C576 C 0.4455 0.64237 0.56098 0.0
C577 C 0.45781 0.62334 0.57724 0.0
C578 C 0.57122 0.56647 0.53525 0.0
C579 C 0.49846 0.56175 0.49465 0.0
O580 O 0.51647 0.47496 0.50499 0.0
O581 O 0.55965 0.50192 0.50219 0.0
O582 O 0.47634 0.50245 0.52537 0.0
O583 O 0.49799 0.51971 0.56367 0.0
O584 O 0.54722 0.50598 0.56553 0.0
O585 O 0.5323 0.53644 0.59949 0.0
O586 O 0.52817 0.60172 0.58466 0.0
O587 O 0.48439 0.57578 0.58502 0.0
O588 O 0.56805 0.57475 0.56275 0.0
O589 O 0.54624 0.55761 0.5246 0.0
O590 O 0.49765 0.57176 0.52253 0.0
O591 O 0.51126 0.54029 0.48884 0.0
H592 H 0.51715 0.43219 0.53526 0.0
H593 H 0.54033 0.40039 0.56388 0.0
H594 H 0.62524 0.4404 0.52736 0.0
H595 H 0.60209 0.47233 0.49854 0.0
H596 H 0.52918 0.64416 0.55313 0.0
H597 H 0.5077 0.67789 0.52554 0.0
H598 H 0.42212 0.64179 0.56344 0.0
H599 H 0.44359 0.60802 0.59134 0.0
La600 La 0.02306 0.51394 0.05735 0.0
La601 La 1.01931 0.56752 1.02835 0.0
C602 C 0.0392 0.47002 0.0739 0.0
C603 C 0.06753 0.46108 0.07733 0.0
C604 C 0.08934 0.47555 0.09616 0.0
C605 C 0.11594 0.46659 0.09901 0.0
C606 C 0.12124 0.44291 0.08319 0.0
C607 C 0.09944 0.42863 0.0642 0.0
C608 C 0.07289 0.43762 0.06134 0.0
C609 C 0.99371 0.54539 0.09021 0.0
C610 C 0.0766 0.56632 0.06268 0.0
C611 C 1.00376 0.61195 1.01228 0.0
C612 C 0.97641 0.62034 1.0034 0.0
C613 C 0.97009 0.64555 1.0144 0.0
C614 C 0.94412 0.65388 1.00673 0.0
C615 C 0.92388 0.63707 0.98793 0.0
C616 C 0.93024 0.61167 0.97708 0.0
C617 C 0.95628 0.60342 0.9847 0.0
C618 C 0.04907 0.53615 0.99572 0.0
C619 C 0.96576 0.51477 1.02254 0.0
O620 O 0.03299 0.489 0.09257 0.0
O621 O 0.03227 0.4746 0.04631 0.0
O622 O 0.9875 0.51828 0.08919 0.0
O623 O 1.01662 0.55381 0.07417 0.0
O624 O 0.06793 0.53872 0.0625 0.0
O625 O 0.0595 0.58273 0.0526 0.0
O626 O 1.01502 0.59566 0.99381 0.0
O627 O 1.00443 0.60414 1.04028 0.0
O628 O 0.05514 0.56328 0.99675 0.0
O629 O 0.02601 0.52772 1.01155 0.0
O630 O 0.97506 0.54227 1.02071 0.0
O631 O 0.98211 0.49857 1.03449 0.0
H632 H 0.0858 0.49364 0.1089 0.0
H633 H 0.13207 0.47785 0.11415 0.0
H634 H 0.10293 0.41052 0.05143 0.0
H635 H 0.05645 0.42618 0.0466 0.0
H636 H 0.98535 0.65889 1.02888 0.0
H637 H 0.94019 0.67375 1.01512 0.0
H638 H 0.915 0.59806 0.96283 0.0
H639 H 0.9607 0.58386 0.97596 0.0
H640 H 0.26641 0.24992 0.39465 0.0
H641 H 0.20959 0.29378 0.34647 0.0
H642 H 0.22374 0.22466 0.42336 0.0
H643 H 0.16759 0.26941 0.37576 0.0
H644 H 0.10255 0.18503 0.3914 0.0
H645 H 0.14405 0.21903 0.37186 0.0
H646 H 0.18145 0.22798 0.46027 0.0
H647 H 0.1392 0.19434 0.48035 0.0
C648 C 0.24502 0.25464 0.39064 0.0
C649 C 0.24148 0.27372 0.36804 0.0
C650 C 0.22064 0.24036 0.40726 0.0
C651 C 0.19233 0.24485 0.40146 0.0
C652 C 0.18912 0.2653 0.38042 0.0
C653 C 0.21336 0.27953 0.36389 0.0
C654 C 0.11909 0.19474 0.40698 0.0
C655 C 0.11742 0.18687 0.43749 0.0
C656 C 0.14299 0.2142 0.39571 0.0
C657 C 0.16596 0.22617 0.41457 0.0
C658 C 0.16413 0.21889 0.44521 0.0
C659 C 0.13999 0.19957 0.45662 0.0
H660 H 0.41324 0.87956 0.75315 0.0
H661 H 0.38836 0.95915 0.73839 0.0
H662 H 0.4259 0.89359 0.80509 0.0
H663 H 0.40022 0.97266 0.79022 0.0
H664 H 0.37886 0.96417 0.8919 0.0
H665 H 0.37336 0.9503 0.83929 0.0
H666 H 0.46105 0.93328 0.83652 0.0
H667 H 0.46723 0.94825 0.88912 0.0
C668 C 0.41102 0.9002 0.76078 0.0
C669 C 0.39931 0.91807 0.74191 0.0
C670 C 0.41816 0.90814 0.79046 0.0
C671 C 0.41347 0.93395 0.80164 0.0
C672 C 0.40345 0.95242 0.78223 0.0
C673 C 0.39662 0.94464 0.75264 0.0
C674 C 0.39714 0.95777 0.88011 0.0
C675 C 0.42363 0.95771 0.89468 0.0
C676 C 0.39392 0.94973 0.85003 0.0
C677 C 0.41693 0.94107 0.8339 0.0
C678 C 0.44302 0.93987 0.84858 0.0
C679 C 0.44643 0.9483 0.8787 0.0
H680 H 0.57523 0.42852 0.76025 0.0
H681 H 0.65934 0.44474 0.71332 0.0
H682 H 0.55374 0.4497 0.7185 0.0
H683 H 0.63791 0.46566 0.6716 0.0
H684 H 0.58167 0.47688 0.58939 0.0
H685 H 0.60168 0.45348 0.63023 0.0
H686 H 0.55751 0.49757 0.69561 0.0
H687 H 0.53767 0.52118 0.65481 0.0
C688 C 0.58908 0.43633 0.74091 0.0
C689 C 0.61909 0.43495 0.74031 0.0
C690 C 0.57682 0.4487 0.71705 0.0
C691 C 0.59405 0.45957 0.69158 0.0
C692 C 0.62386 0.45746 0.69066 0.0
C693 C 0.63622 0.44557 0.71473 0.0
C694 C 0.57623 0.48169 0.61246 0.0
C695 C 0.55809 0.50116 0.61864 0.0
C696 C 0.58782 0.46828 0.63595 0.0
C697 C 0.58128 0.47355 0.66638 0.0
C698 C 0.56285 0.49274 0.67253 0.0
C699 C 0.55162 0.50648 0.64906 0.0
H700 H 0.96454 0.67455 0.22052 0.0
H701 H 0.9035 0.5997 0.24915 0.0
H702 H 0.98275 0.64852 0.18081 0.0
H703 H 0.91838 0.57499 0.20675 0.0
H704 H 0.96268 0.52548 0.14117 0.0
H705 H 0.94713 0.55137 0.18303 0.0
H706 H 0.98265 0.62896 0.13622 0.0
H707 H 1.00125 0.6026 0.09637 0.0
C708 C 0.95467 0.65262 0.21859 0.0
C709 C 0.93229 0.63975 0.23902 0.0
C710 C 0.96482 0.63755 0.19483 0.0
C711 C 0.95233 0.60912 0.18961 0.0
C712 C 0.92953 0.59645 0.20968 0.0
C713 C 0.9202 0.6112 0.2341 0.0
C714 C 0.96721 0.54812 0.1399 0.0
C715 C 0.98291 0.56188 0.11503 0.0
C716 C 0.95789 0.56325 0.16401 0.0
C717 C 0.96295 0.59282 0.16372 0.0
C718 C 0.97845 0.60645 0.13835 0.0
C719 C 0.98877 0.59124 0.1148 0.0
H720 H 0.37768 0.15246 0.20797 0.0
H721 H 0.43342 0.21911 0.15784 0.0
H722 H 0.40372 0.11867 0.1848 0.0
H723 H 0.45893 0.18513 0.13394 0.0
H724 H 0.51646 0.12047 0.11804 0.0
H725 H 0.49237 0.15343 0.14566 0.0
H726 H 0.4084 0.09788 0.13513 0.0
H727 H 0.43243 0.0648 0.10793 0.0
C728 C 0.39559 0.15992 0.1921 0.0
C729 C 0.4035 0.1885 0.18479 0.0
C730 C 0.41034 0.14051 0.17861 0.0
C731 C 0.43341 0.14918 0.15753 0.0
C732 C 0.44147 0.17779 0.15035 0.0
C733 C 0.42663 0.19722 0.16376 0.0
C734 C 0.49291 0.11512 0.12192 0.0
C735 C 0.47639 0.09 0.1107 0.0
C736 C 0.47908 0.13413 0.13754 0.0
C737 C 0.44844 0.12838 0.14242 0.0
C738 C 0.43206 0.10286 0.132 0.0
C739 C 0.44586 0.08392 0.11629 0.0
H740 H 0.17654 0.90603 0.5548 0.0
H741 H 0.2187 0.97981 0.60302 0.0
H742 H 0.1388 0.93102 0.53852 0.0
H743 H 0.18098 1.00433 0.58729 0.0
H744 H 0.09143 1.02806 0.58226 0.0
H745 H 0.12725 1.00075 0.59757 0.0
H746 H 0.13514 0.97269 0.50574 0.0
H747 H 0.09902 0.99994 0.49045 0.0
C748 C 0.17781 0.92753 0.56182 0.0
C749 C 0.20037 0.94082 0.58051 0.0
C750 C 0.15624 0.94179 0.55255 0.0
C751 C 0.15686 0.96948 0.56195 0.0
C752 C 0.17962 0.9828 0.58025 0.0
C753 C 0.20117 0.9687 0.58932 0.0
C754 C 0.10082 1.01604 0.56539 0.0
C755 C 0.09274 1.01619 0.53518 0.0
C756 C 0.12133 1.00049 0.57411 0.0
C757 C 0.13401 0.98472 0.55279 0.0
C758 C 0.12551 0.9845 0.52263 0.0
C759 C 0.10509 1.00023 0.51387 0.0
H760 H 0.79091 0.47317 0.94055 0.0
H761 H 0.82552 0.39747 0.93601 0.0
H762 H 0.83551 0.49715 0.96511 0.0
H763 H 0.8704 0.42137 0.95931 0.0
H764 H 0.93564 0.46052 1.0282 0.0
H765 H 0.8902 0.43842 1.00463 0.0
H766 H 0.8857 0.5167 0.96164 0.0
H767 H 0.93045 0.53901 0.98646 0.0
C768 C 0.80827 0.46178 0.94436 0.0
C769 C 0.80449 0.43332 0.93652 0.0
C770 C 0.83397 0.47553 0.95845 0.0
C771 C 0.8568 0.46128 0.96477 0.0
C772 C 0.85323 0.43303 0.95585 0.0
C773 C 0.82747 0.41928 0.94218 0.0
C774 C 0.92489 0.47311 1.01387 0.0
C775 C 0.93698 0.50163 1.00925 0.0
C776 C 0.89881 0.46032 1.00001 0.0
C777 C 0.88407 0.47549 0.98067 0.0
C778 C 0.89596 0.50419 0.97649 0.0
C779 C 0.9219 0.51705 0.99068 0.0
H780 H 0.70913 0.60212 0.39359 0.0
H781 H 0.74498 0.64879 0.47176 0.0
H782 H 0.66556 0.5816 0.42314 0.0
H783 H 0.70037 0.63059 0.50027 0.0
H784 H 0.62726 0.57869 0.55515 0.0
H785 H 0.67253 0.59366 0.52556 0.0
H786 H 0.62208 0.58876 0.44439 0.0
H787 H 0.57724 0.57195 0.47405 0.0
C788 C 0.70786 0.60813 0.41703 0.0
C789 C 0.73092 0.62737 0.42998 0.0
C790 C 0.68243 0.59664 0.43398 0.0
C791 C 0.67897 0.60434 0.46434 0.0
C792 C 0.70207 0.62357 0.47724 0.0
C793 C 0.72767 0.63461 0.4605 0.0
C794 C 0.62601 0.58058 0.53092 0.0
C795 C 0.59876 0.57424 0.51693 0.0
C796 C 0.65197 0.58947 0.51386 0.0
C797 C 0.65134 0.59292 0.48234 0.0
C798 C 0.62387 0.58607 0.46841 0.0
C799 C 0.59799 0.57658 0.48545 0.0
H800 H 0.25735 0.34402 0.10142 0.0
H801 H 0.2807 0.41539 0.16024 0.0
H802 H 0.21947 0.3653 0.07942 0.0
H803 H 0.24216 0.43618 0.13914 0.0
H804 H 0.1774 0.47358 0.0869 0.0
H805 H 0.22221 0.45644 0.09683 0.0
H806 H 0.17224 0.37168 0.09917 0.0
H807 H 0.12769 0.38873 0.0892 0.0
C808 C 0.25491 0.36457 0.10912 0.0
C809 C 0.27183 0.3779 0.13278 0.0
C810 C 0.23291 0.3766 0.09681 0.0
C811 C 0.22738 0.40221 0.10789 0.0
C812 C 0.24581 0.41649 0.12998 0.0
C813 C 0.26779 0.40448 0.14224 0.0
C814 C 0.17604 0.45128 0.08948 0.0
C815 C 0.14892 0.43254 0.08736 0.0
C816 C 0.20173 0.44146 0.09509 0.0
C817 C 0.20089 0.41267 0.09875 0.0
C818 C 0.17387 0.39392 0.09587 0.0
C819 C 0.14824 0.40372 0.09024 0.0
H820 H 0.63772 0.22665 0.93496 0.0
H821 H 0.55043 0.23733 0.91359 0.0
H822 H 0.61691 0.18371 0.96177 0.0
H823 H 0.52981 0.19335 0.93831 0.0
H824 H 0.49644 0.12872 1.01001 0.0
H825 H 0.51873 0.17198 0.9845 0.0
H826 H 0.59427 0.13652 0.95976 0.0
H827 H 0.57216 0.09349 0.9868 0.0
C828 C 0.61407 0.21997 0.93585 0.0
C829 C 0.59594 0.23605 0.92206 0.0
C830 C 0.60206 0.19486 0.95096 0.0
C831 C 0.57147 0.18467 0.95262 0.0
C832 C 0.5534 0.20047 0.93829 0.0
C833 C 0.56537 0.22571 0.92348 0.0
C834 C 0.51788 0.13018 0.9992 0.0
C835 C 0.53243 0.10756 1.00036 0.0
C836 C 0.53065 0.15503 0.98421 0.0
C837 C 0.55835 0.15806 0.96944 0.0
C838 C 0.5731 0.13539 0.97098 0.0
C839 C 0.56038 0.11055 0.98637 0.0
H840 H 0.91774 0.82091 0.47299 0.0
H841 H 0.94443 0.85214 0.3837 0.0
H842 H 0.93947 0.86584 0.49444 0.0
H843 H 0.96751 0.89735 0.40545 0.0
H844 H 0.97428 0.98359 0.45453 0.0
H845 H 0.95553 0.93861 0.43016 0.0
H846 H 0.98448 0.89566 0.50498 0.0
H847 H 1.00225 0.94016 0.52951 0.0
C848 C 0.92847 0.83738 0.45787 0.0
C849 C 0.92901 0.83287 0.42652 0.0
C850 C 0.94129 0.8632 0.47027 0.0
C851 C 0.95537 0.88548 0.4518 0.0
C852 C 0.95659 0.88086 0.42041 0.0
C853 C 0.94367 0.85482 0.40793 0.0
C854 C 0.97661 0.96452 0.46575 0.0
C855 C 0.98956 0.96562 0.49418 0.0
C856 C 0.96605 0.93868 0.45165 0.0
C857 C 0.96822 0.91328 0.46559 0.0
C858 C 0.98178 0.91459 0.49371 0.0
C859 C 0.99216 0.94027 0.5078 0.0
H860 H 0.41528 0.81667 0.49029 0.0
H861 H 0.33657 0.7583 0.51718 0.0
H862 H 0.44099 0.77802 0.48254 0.0
H863 H 0.36232 0.71977 0.51122 0.0
H864 H 0.41386 0.65333 0.50825 0.0
H865 H 0.38917 0.68881 0.48794 0.0
H866 H 0.45872 0.75364 0.52102 0.0
H867 H 0.48344 0.71832 0.54019 0.0
C868 C 0.40326 0.79541 0.49345 0.0
C869 C 0.37413 0.7903 0.50449 0.0
C870 C 0.418 0.7733 0.48942 0.0
C871 C 0.40406 0.74583 0.49722 0.0
C872 C 0.37386 0.74055 0.50492 0.0
C873 C 0.35899 0.76264 0.50836 0.0
C874 C 0.42396 0.67523 0.51062 0.0
C875 C 0.45031 0.68317 0.52611 0.0
C876 C 0.40989 0.69553 0.499 0.0
C877 C 0.42174 0.72417 0.503 0.0
C878 C 0.44906 0.73189 0.51693 0.0
C879 C 0.46323 0.71163 0.5282 0.0
H880 H 0.78308 0.8091 0.69019 0.0
H881 H 0.77293 0.89009 0.72401 0.0
H882 H 0.82902 0.83099 0.66452 0.0
H883 H 0.81774 0.91182 0.69732 0.0
H884 H 0.91706 0.93221 0.69296 0.0
H885 H 0.86826 0.90928 0.71021 0.0
H886 H 0.85479 0.86496 0.62557 0.0
H887 H 0.90442 0.88743 0.60847 0.0
C888 C 0.7902 0.8316 0.69153 0.0
C889 C 0.77452 0.84772 0.70964 0.0
C890 C 0.81641 0.84413 0.67667 0.0
C891 C 0.8273 0.873 0.6796 0.0
C892 C 0.81021 0.8894 0.69529 0.0
C893 C 0.78419 0.87693 0.7102 0.0
C894 C 0.904 0.91718 0.67819 0.0
C895 C 0.91468 0.91157 0.64939 0.0
C896 C 0.8758 0.9044 0.68788 0.0
C897 C 0.85749 0.88574 0.669 0.0
C898 C 0.86839 0.87937 0.64052 0.0
C899 C 0.89671 0.89227 0.63074 0.0
H900 H 0.6216 0.17283 0.35146 0.0
H901 H 0.70382 0.21957 0.31543 0.0
H902 H 0.60634 0.15841 0.30059 0.0
H903 H 0.68826 0.20635 0.26441 0.0
H904 H 0.67066 0.14383 0.18693 0.0
H905 H 0.68307 0.1652 0.23553 0.0
H906 H 0.59213 0.1703 0.25206 0.0
H907 H 0.57938 0.14707 0.20404 0.0
C908 C 0.63605 0.18055 0.3325 0.0
C909 C 0.66394 0.19703 0.3372 0.0
C910 C 0.62731 0.17243 0.30334 0.0
C911 C 0.64621 0.18095 0.27835 0.0
C912 C 0.67345 0.19881 0.28314 0.0
C913 C 0.68233 0.20654 0.31228 0.0
C914 C 0.65325 0.14935 0.20097 0.0
C915 C 0.62397 0.14339 0.19172 0.0
C916 C 0.66044 0.16207 0.22871 0.0
C917 C 0.6386 0.16953 0.24781 0.0
C918 C 0.60944 0.16451 0.2381 0.0
C919 C 0.60219 0.15151 0.21038 0.0
H920 H 0.43628 0.67858 0.37157 0.0
H921 H 0.4136 0.59743 0.32939 0.0
H922 H 0.45871 0.65781 0.41273 0.0
H923 H 0.43466 0.5766 0.37086 0.0
H924 H 0.49865 0.54921 0.43416 0.0
H925 H 0.47869 0.57181 0.39304 0.0
H926 H 0.44913 0.62854 0.45642 0.0
H927 H 0.46985 0.60628 0.49755 0.0
C928 C 0.4361 0.65635 0.37092 0.0
C929 C 0.42286 0.63983 0.34691 0.0
C930 C 0.4487 0.6443 0.39484 0.0
C931 C 0.44865 0.61533 0.39549 0.0
C932 C 0.43564 0.59897 0.3713 0.0
C933 C 0.42308 0.61096 0.3475 0.0
C934 C 0.4879 0.56649 0.43944 0.0
C935 C 0.48587 0.57568 0.46941 0.0
C936 C 0.47621 0.57946 0.41572 0.0
C937 C 0.46194 0.60208 0.42106 0.0
C938 C 0.46014 0.61146 0.45108 0.0
C939 C 0.4719 0.59848 0.47484 0.0
H940 H 0.13691 0.48254 0.83479 0.0
H941 H 0.07946 0.40673 0.86647 0.0
H942 H 0.12213 0.50751 0.87731 0.0
H943 H 0.06151 0.43271 0.90664 0.0
H944 H 0.04647 0.47934 0.99197 0.0
H945 H 0.06469 0.45314 0.95158 0.0
H946 H 0.0911 0.52985 0.90053 0.0
H947 H 0.07557 0.55588 0.94245 0.0
C948 C 0.12105 0.47092 0.85059 0.0
C949 C 0.10986 0.44207 0.84655 0.0
C950 C 0.11182 0.48572 0.87504 0.0
C951 C 0.09014 0.47267 0.89606 0.0
C952 C 0.07858 0.44392 0.89176 0.0
C953 C 0.08854 0.42888 0.86785 0.0
C954 C 0.0566 0.49058 0.97233 0.0
C955 C 0.05986 0.51978 0.97081 0.0
C956 C 0.0668 0.47545 0.94863 0.0
C957 C 0.07968 0.48892 0.92201 0.0
C958 C 0.08232 0.51827 0.92052 0.0
C959 C 0.07305 0.53341 0.94466 0.0
H960 H 0.65548 0.92097 0.89981 0.0
H961 H 0.59695 0.85808 0.95226 0.0
H962 H 0.63049 0.95681 0.92004 0.0
H963 H 0.57239 0.89416 0.97317 0.0
H964 H 0.51749 0.96166 0.983 0.0
H965 H 0.54063 0.92669 0.95784 0.0
H966 H 0.62587 0.97991 0.96872 0.0
H967 H 0.60281 1.015 0.99356 0.0
C968 C 0.63716 0.91477 0.91555 0.0
C969 C 0.62815 0.88665 0.92438 0.0
C970 C 0.62302 0.93536 0.92734 0.0
C971 C 0.59945 0.92834 0.94819 0.0
C972 C 0.59027 0.90019 0.95688 0.0
C973 C 0.60454 0.87958 0.94519 0.0
C974 C 0.54113 0.9661 0.97967 0.0
C975 C 0.5583 0.99113 0.99038 0.0
C976 C 0.5544 0.94592 0.96549 0.0
C977 C 0.5851 0.95042 0.96152 0.0
C978 C 0.60215 0.97589 0.97124 0.0
C979 C 0.58892 0.99598 0.98556 0.0
H980 H 0.87563 0.17977 0.52955 0.0
H981 H 0.83294 0.10964 0.47626 0.0
H982 H 0.91151 0.15257 0.54542 0.0
H983 H 0.8687 0.08269 0.49191 0.0
H984 H 0.95568 0.05394 0.50043 0.0
H985 H 0.92123 0.08255 0.48458 0.0
H986 H 0.91324 0.11079 0.57637 0.0
H987 H 0.94815 0.0825 0.59205 0.0
C988 C 0.87385 0.15856 0.52133 0.0
C989 C 0.85162 0.14693 0.50147 0.0
C990 C 0.89435 0.143 0.5304 0.0
C991 C 0.89297 0.11557 0.51976 0.0
C992 C 0.87067 0.10396 0.50003 0.0
C993 C 0.8502 0.11943 0.49103 0.0
C994 C 0.94653 0.06628 0.51716 0.0
C995 C 0.95443 0.06605 0.54742 0.0
C996 C 0.92676 0.08256 0.50815 0.0
C997 C 0.91453 0.09888 0.52926 0.0
C998 C 0.92256 0.09867 0.55956 0.0
C999 C 0.94231 0.08233 0.56857 0.0
H1000 H 0.2513 0.60678 0.1453 0.0
H1001 H 0.21425 0.68072 0.1557 0.0
H1002 H 0.20719 0.5833 0.11953 0.0
H1003 H 0.16985 0.65724 0.13126 0.0
H1004 H 0.10551 0.62114 0.06047 0.0
H1005 H 0.15063 0.64267 0.08499 0.0
H1006 H 0.15729 0.5624 0.12189 0.0
H1007 H 0.11285 0.54075 0.09606 0.0
C1008 C 0.2335 0.61785 0.14253 0.0
C1009 C 0.23645 0.64571 0.15236 0.0
C1010 C 0.20809 0.60439 0.12774 0.0
C1011 C 0.18473 0.61833 0.12271 0.0
C1012 C 0.18746 0.6459 0.13366 0.0
C1013 C 0.21293 0.65939 0.14801 0.0
C1014 C 0.11669 0.60801 0.07362 0.0
C1015 C 0.1053 0.57915 0.07627 0.0
C1016 C 0.14257 0.62045 0.08806 0.0
C1017 C 0.15778 0.60454 0.10604 0.0
C1018 C 0.14663 0.5755 0.10816 0.0
C1019 C 0.1209 0.56301 0.09338 0.0
H1020 H 0.29827 0.43071 0.61516 0.0
H1021 H 0.33352 0.47823 0.69304 0.0
H1022 H 0.34327 0.44823 0.58702 0.0
H1023 H 0.37755 0.49805 0.6638 0.0
H1024 H 0.46639 0.50603 0.61407 0.0
H1025 H 0.42113 0.49006 0.64337 0.0
H1026 H 0.37164 0.48476 0.56153 0.0
H1027 H 0.41728 0.4989 0.53234 0.0
C1028 C 0.31553 0.44494 0.62643 0.0
C1029 C 0.312 0.45262 0.65676 0.0
C1030 C 0.34137 0.45558 0.6099 0.0
C1031 C 0.36444 0.47482 0.62282 0.0
C1032 C 0.3607 0.48298 0.65298 0.0
C1033 C 0.33502 0.4719 0.66973 0.0
C1034 C 0.44576 0.50149 0.60244 0.0
C1035 C 0.44535 0.50346 0.5709 0.0
C1036 C 0.41965 0.49249 0.61927 0.0
C1037 C 0.39233 0.48577 0.60504 0.0
C1038 C 0.39207 0.48886 0.57345 0.0
C1039 C 0.41825 0.49727 0.55662 0.0
H1040 H 0.76735 0.66587 0.89919 0.0
H1041 H 0.79763 0.74039 0.95157 0.0
H1042 H 0.80317 0.64305 0.92283 0.0
H1043 H 0.8338 0.71774 0.97503 0.0
H1044 H 0.88741 0.66294 1.02289 0.0
H1045 H 0.8444 0.68047 1.00714 0.0
H1046 H 0.85616 0.65012 0.9169 0.0
H1047 H 0.89901 0.63279 0.9325 0.0
C1048 C 0.78139 0.67719 0.91615 0.0
C1049 C 0.77992 0.70499 0.92333 0.0
C1050 C 0.80202 0.6642 0.92955 0.0
C1051 C 0.82175 0.67874 0.95039 0.0
C1052 C 0.81887 0.70588 0.95916 0.0
C1053 C 0.7981 0.71886 0.94579 0.0
C1054 C 0.88081 0.66004 0.99967 0.0
C1055 C 0.89672 0.64646 0.97895 0.0
C1056 C 0.85613 0.67005 0.99069 0.0
C1057 C 0.84674 0.66661 0.9608 0.0
C1058 C 0.86238 0.65262 0.94025 0.0
C1059 C 0.88703 0.64269 0.9492 0.0
H1060 H 0.39936 0.85426 0.1614 0.0
H1061 H 0.48686 0.84431 0.18294 0.0
H1062 H 0.41981 0.89775 0.13541 0.0
H1063 H 0.5071 0.8888 0.15902 0.0
H1064 H 0.53997 0.9544 0.08815 0.0
H1065 H 0.51804 0.91069 0.11299 0.0
H1066 H 0.44196 0.94508 0.1384 0.0
H1067 H 0.46372 0.98859 0.11205 0.0
C1068 C 0.42298 0.86123 0.16072 0.0
C1069 C 0.44129 0.84519 0.17428 0.0
C1070 C 0.43477 0.88664 0.1461 0.0
C1071 C 0.46531 0.89716 0.14471 0.0
C1072 C 0.48354 0.88142 0.15885 0.0
C1073 C 0.47179 0.85588 0.17319 0.0
C1074 C 0.51849 0.95261 0.09896 0.0
C1075 C 0.50368 0.97508 0.0982 0.0
C1076 C 0.50593 0.9275 0.11356 0.0
C1077 C 0.4782 0.92404 0.12832 0.0
C1078 C 0.46318 0.94655 0.12718 0.0
C1079 C 0.47569 0.97166 0.11217 0.0
H1080 H 0.07537 0.25701 0.65491 0.0
H1081 H 0.15395 0.22588 0.67237 0.0
H1082 H 0.05372 0.21204 0.63163 0.0
H1083 H 0.13259 0.18123 0.64919 0.0
H1084 H 0.07569 0.09579 0.62778 0.0
H1085 H 0.0934 0.13925 0.65512 0.0
H1086 H 0.06276 0.18607 0.58465 0.0
H1087 H 0.045 0.14264 0.55728 0.0
C1088 C 0.08778 0.24041 0.65425 0.0
C1089 C 0.11638 0.24502 0.66544 0.0
C1090 C 0.07555 0.21476 0.64063 0.0
C1091 C 0.09147 0.193 0.63832 0.0
C1092 C 0.11958 0.19735 0.65069 0.0
C1093 C 0.13189 0.22301 0.6639 0.0
C1094 C 0.07271 0.11533 0.61806 0.0
C1095 C 0.059 0.11561 0.59019 0.0
C1096 C 0.08293 0.14029 0.63375 0.0
C1097 C 0.07948 0.16625 0.62218 0.0
C1098 C 0.06549 0.16649 0.59446 0.0
C1099 C 0.05552 0.14155 0.57861 0.0
H1100 H 0.71634 0.32907 0.57488 0.0
H1101 H 0.63979 0.26828 0.60249 0.0
H1102 H 0.68889 0.3663 0.58124 0.0
H1103 H 0.61238 0.30565 0.61068 0.0
H1104 H 0.56703 0.36173 0.5511 0.0
H1105 H 0.59349 0.32831 0.57146 0.0
H1106 H 0.66021 0.39619 0.60377 0.0
H1107 H 0.63373 0.4298 0.58235 0.0
C1108 C 0.69409 0.32395 0.58411 0.0
C1109 C 0.67999 0.29596 0.58797 0.0
C1110 C 0.67822 0.3453 0.58774 0.0
C1111 C 0.64806 0.3389 0.59557 0.0
C1112 C 0.6353 0.3112 0.60368 0.0
C1113 C 0.65104 0.28982 0.59947 0.0
C1114 C 0.58697 0.36952 0.56319 0.0
C1115 C 0.59857 0.3983 0.56474 0.0
C1116 C 0.60213 0.35033 0.57516 0.0
C1117 C 0.62919 0.35946 0.58923 0.0
C1118 C 0.63972 0.3884 0.59265 0.0
C1119 C 0.62463 0.40764 0.58036 0.0
loop_
_geom_bond_atom_site_label_1
_geom_bond_atom_site_label_2
_geom_bond_distance
_geom_bond_site_symmetry_2
_ccdc_geom_bond_type
C0 C1 1.391 . S
C0 C4 1.391 . S
C0 H42 0.948 . S
C1 C0 1.391 . S
C1 C2 1.391 . S
C2 C1 1.391 . S
C2 H58 0.947 . S
C2 C59 1.392 . S
C3 C4 1.391 . S
C3 C7 1.397 . S
C3 C59 1.419 . S
C4 C0 1.391 . S
C4 C3 1.391 . S
C4 C5 1.399 . S
C5 C4 1.399 . S
C5 C8 1.396 . S
C5 C17 1.453 . S
C5 C18 1.684 . S
H6 C30 0.948 . S
C7 C3 1.397 . S
C7 C8 1.394 . S
C7 C26 1.723 . S
C8 C5 1.396 . S
C8 C7 1.394 . S
C8 C38 1.723 . S
H9 C32 0.947 . S
H10 C33 0.948 . S
H11 C39 0.982 . S
H12 C40 0.979 . S
H13 C40 0.980 . S
H14 C40 0.983 . S
H15 C39 0.979 . S
H16 C39 0.977 . S
C17 C5 1.453 . S
C17 H46 0.982 . S
C17 H47 0.979 . S
C17 H48 0.977 . S
C18 C5 1.684 . S
C18 H43 0.979 . S
C18 H44 0.980 . S
C18 H45 0.983 . S
C19 C20 1.391 . S
C19 C24 1.391 . S
C19 H49 0.948 . S
C20 C19 1.391 . S
C20 C21 1.391 . S
C21 C20 1.391 . S
C21 C22 1.392 . S
C21 H50 0.947 . S
C22 C21 1.392 . S
C22 C23 1.419 . S
C22 H51 0.948 . S
C23 C22 1.419 . S
C23 C24 1.391 . S
C23 C27 1.397 . S
C24 C19 1.391 . S
C24 C23 1.391 . S
C24 C25 1.399 . S
C25 C24 1.399 . S
C25 C26 1.396 . S
C25 C28 1.453 . S
C25 C29 1.684 . S
C26 C7 1.723 . S
C26 C25 1.396 . S
C26 C27 1.394 . S
C27 C23 1.397 . S
C27 C26 1.394 . S
C27 C37 1.723 . S
C28 C25 1.453 . S
C28 H52 0.982 . S
C28 H53 0.979 . S
C28 H54 0.977 . S
C29 C25 1.684 . S
C29 H55 0.979 . S
C29 H56 0.980 . S
C29 H57 0.983 . S
C30 H6 0.948 . S
C30 C31 1.391 . S
C30 C35 1.391 . S
C31 C30 1.391 . S
C31 C32 1.391 . S
C32 H9 0.947 . S
C32 C31 1.391 . S
C32 C33 1.392 . S
C33 H10 0.948 . S
C33 C32 1.392 . S
C33 C34 1.419 . S
C34 C33 1.419 . S
C34 C35 1.391 . S
C34 C38 1.397 . S
C35 C30 1.391 . S
C35 C34 1.391 . S
C35 C36 1.399 . S
C36 C35 1.399 . S
C36 C37 1.396 . S
C36 C39 1.453 . S
C36 C40 1.684 . S
C37 C27 1.723 . S
C37 C36 1.396 . S
C37 C38 1.394 . S
C38 C8 1.723 . S
C38 C34 1.397 . S
C38 C37 1.394 . S
C39 H11 0.982 . S
C39 H15 0.979 . S
C39 H16 0.977 . S
C39 C36 1.453 . S
C40 H12 0.979 . S
C40 H13 0.980 . S
C40 H14 0.983 . S
C40 C36 1.684 . S
H41 C59 0.948 . S
H42 C0 0.948 . S
H43 C18 0.979 . S
H44 C18 0.980 . S
H45 C18 0.983 . S
H46 C17 0.982 . S
H47 C17 0.979 . S
H48 C17 0.977 . S
H49 C19 0.948 . S
H50 C21 0.947 . S
H51 C22 0.948 . S
H52 C28 0.982 . S
H53 C28 0.979 . S
H54 C28 0.977 . S
H55 C29 0.979 . S
H56 C29 0.980 . S
H57 C29 0.983 . S
H58 C2 0.947 . S
C59 C2 1.392 . S
C59 C3 1.419 . S
C59 H41 0.948 . S
C60 C61 1.391 . S
C60 C64 1.391 . S
C60 H102 0.948 . S
C61 C60 1.391 . S
C61 C62 1.391 . S
C62 C61 1.391 . S
C62 H118 0.947 . S
C62 C119 1.392 . S
C63 C64 1.391 . S
C63 C67 1.397 . S
C63 C119 1.419 . S
C64 C60 1.391 . S
C64 C63 1.391 . S
C64 C65 1.399 . S
C65 C64 1.399 . S
C65 C68 1.396 . S
C65 C77 1.453 . S
C65 C78 1.684 . S
H66 C90 0.948 . S
C67 C63 1.397 . S
C67 C68 1.394 . S
C67 C86 1.723 . S
C68 C65 1.396 . S
C68 C67 1.394 . S
C68 C98 1.723 . S
H69 C92 0.947 . S
H70 C93 0.948 . S
H71 C99 0.982 . S
H72 C100 0.979 . S
H73 C100 0.980 . S
H74 C100 0.983 . S
H75 C99 0.979 . S
H76 C99 0.977 . S
C77 C65 1.453 . S
C77 H106 0.982 . S
C77 H107 0.979 . S
C77 H108 0.977 . S
C78 C65 1.684 . S
C78 H103 0.979 . S
C78 H104 0.980 . S
C78 H105 0.983 . S
C79 C80 1.391 . S
C79 C84 1.391 . S
C79 H109 0.948 . S
C80 C79 1.391 . S
C80 C81 1.391 . S
C81 C80 1.391 . S
C81 C82 1.392 . S
C81 H110 0.947 . S
C82 C81 1.392 . S
C82 C83 1.419 . S
C82 H111 0.948 . S
C83 C82 1.419 . S
C83 C84 1.391 . S
C83 C87 1.397 . S
C84 C79 1.391 . S
C84 C83 1.391 . S
C84 C85 1.399 . S
C85 C84 1.399 . S
C85 C86 1.396 . S
C85 C88 1.453 . S
C85 C89 1.684 . S
C86 C67 1.723 . S
C86 C85 1.396 . S
C86 C87 1.394 . S
C87 C83 1.397 . S
C87 C86 1.394 . S
C87 C97 1.723 . S
C88 C85 1.453 . S
C88 H112 0.982 . S
C88 H113 0.979 . S
C88 H114 0.977 . S
C89 C85 1.684 . S
C89 H115 0.979 . S
C89 H116 0.980 . S
C89 H117 0.983 . S
C90 H66 0.948 . S
C90 C91 1.391 . S
C90 C95 1.391 . S
C91 C90 1.391 . S
C91 C92 1.391 . S
C92 H69 0.947 . S
C92 C91 1.391 . S
C92 C93 1.392 . S
C93 H70 0.948 . S
C93 C92 1.392 . S
C93 C94 1.419 . S
C94 C93 1.419 . S
C94 C95 1.391 . S
C94 C98 1.397 . S
C95 C90 1.391 . S
C95 C94 1.391 . S
C95 C96 1.399 . S
C96 C95 1.399 . S
C96 C97 1.396 . S
C96 C99 1.453 . S
C96 C100 1.684 . S
C97 C87 1.723 . S
C97 C96 1.396 . S
C97 C98 1.394 . S
C98 C68 1.723 . S
C98 C94 1.397 . S
C98 C97 1.394 . S
C99 H71 0.982 . S
C99 H75 0.979 . S
C99 H76 0.977 . S
C99 C96 1.453 . S
C100 H72 0.979 . S
C100 H73 0.980 . S
C100 H74 0.983 . S
C100 C96 1.684 . S
H101 C119 0.948 . S
H102 C60 0.948 . S
H103 C78 0.979 . S
H104 C78 0.980 . S
H105 C78 0.983 . S
H106 C77 0.982 . S
H107 C77 0.979 . S
H108 C77 0.977 . S
H109 C79 0.948 . S
H110 C81 0.947 . S
H111 C82 0.948 . S
H112 C88 0.982 . S
H113 C88 0.979 . S
H114 C88 0.977 . S
H115 C89 0.979 . S
H116 C89 0.980 . S
H117 C89 0.983 . S
H118 C62 0.947 . S
C119 C62 1.392 . S
C119 C63 1.419 . S
C119 H101 0.948 . S
C120 C121 1.391 . S
C120 C124 1.391 . S
C120 H162 0.948 . S
C121 C120 1.391 . S
C121 C122 1.391 . S
C122 C121 1.391 . S
C122 H178 0.947 . S
C122 C179 1.392 . S
C123 C124 1.391 . S
C123 C127 1.397 . S
C123 C179 1.419 . S
C124 C120 1.391 . S
C124 C123 1.391 . S
C124 C125 1.399 . S
C125 C124 1.399 . S
C125 C128 1.396 . S
C125 C137 1.453 . S
C125 C138 1.684 . S
H126 C150 0.948 . S
C127 C123 1.397 . S
C127 C128 1.394 . S
C127 C146 1.723 . S
C128 C125 1.396 . S
C128 C127 1.394 . S
C128 C158 1.723 . S
H129 C152 0.947 . S
H130 C153 0.948 . S
H131 C159 0.982 . S
H132 C160 0.979 . S
H133 C160 0.980 . S
H134 C160 0.983 . S
H135 C159 0.979 . S
H136 C159 0.977 . S
C137 C125 1.453 . S
C137 H166 0.982 . S
C137 H167 0.979 . S
C137 H168 0.977 . S
C138 C125 1.684 . S
C138 H163 0.979 . S
C138 H164 0.980 . S
C138 H165 0.983 . S
C139 C140 1.391 . S
C139 C144 1.391 . S
C139 H169 0.948 . S
C140 C139 1.391 . S
C140 C141 1.391 . S
C141 C140 1.391 . S
C141 C142 1.392 . S
C141 H170 0.947 . S
C142 C141 1.392 . S
C142 C143 1.419 . S
C142 H171 0.948 . S
C143 C142 1.419 . S
C143 C144 1.391 . S
C143 C147 1.397 . S
C144 C139 1.391 . S
C144 C143 1.391 . S
C144 C145 1.399 . S
C145 C144 1.399 . S
C145 C146 1.396 . S
C145 C148 1.453 . S
C145 C149 1.684 . S
C146 C127 1.723 . S
C146 C145 1.396 . S
C146 C147 1.394 . S
C147 C143 1.397 . S
C147 C146 1.394 . S
C147 C157 1.723 . S
C148 C145 1.453 . S
C148 H172 0.982 . S
C148 H173 0.979 . S
C148 H174 0.977 . S
C149 C145 1.684 . S
C149 H175 0.979 . S
C149 H176 0.980 . S
C149 H177 0.983 . S
C150 H126 0.948 . S
C150 C151 1.391 . S
C150 C155 1.391 . S
C151 C150 1.391 . S
C151 C152 1.391 . S
C152 H129 0.947 . S
C152 C151 1.391 . S
C152 C153 1.392 . S
C153 H130 0.948 . S
C153 C152 1.392 . S
C153 C154 1.419 . S
C154 C153 1.419 . S
C154 C155 1.391 . S
C154 C158 1.397 . S
C155 C150 1.391 . S
C155 C154 1.391 . S
C155 C156 1.399 . S
C156 C155 1.399 . S
C156 C157 1.396 . S
C156 C159 1.453 . S
C156 C160 1.684 . S
C157 C147 1.723 . S
C157 C156 1.396 . S
C157 C158 1.394 . S
C158 C128 1.723 . S
C158 C154 1.397 . S
C158 C157 1.394 . S
C159 H131 0.982 . S
C159 H135 0.979 . S
C159 H136 0.977 . S
C159 C156 1.453 . S
C160 H132 0.979 . S
C160 H133 0.980 . S
C160 H134 0.983 . S
C160 C156 1.684 . S
H161 C179 0.948 . S
H162 C120 0.948 . S
H163 C138 0.979 . S
H164 C138 0.980 . S
H165 C138 0.983 . S
H166 C137 0.982 . S
H167 C137 0.979 . S
H168 C137 0.977 . S
H169 C139 0.948 . S
H170 C141 0.947 . S
H171 C142 0.948 . S
H172 C148 0.982 . S
H173 C148 0.979 . S
H174 C148 0.977 . S
H175 C149 0.979 . S
H176 C149 0.980 . S
H177 C149 0.983 . S
H178 C122 0.947 . S
C179 C122 1.392 . S
C179 C123 1.419 . S
C179 H161 0.948 . S
C180 C181 1.391 . S
C180 C184 1.391 . S
C180 H222 0.948 . S
C181 C180 1.391 . S
C181 C182 1.391 . S
C182 C181 1.391 . S
C182 H238 0.947 . S
C182 C239 1.392 . S
C183 C184 1.391 . S
C183 C187 1.397 . S
C183 C239 1.419 . S
C184 C180 1.391 . S
C184 C183 1.391 . S
C184 C185 1.399 . S
C185 C184 1.399 . S
C185 C188 1.396 . S
C185 C197 1.453 . S
C185 C198 1.684 . S
H186 C210 0.948 . S
C187 C183 1.397 . S
C187 C188 1.394 . S
C187 C206 1.723 . S
C188 C185 1.396 . S
C188 C187 1.394 . S
C188 C218 1.723 . S
H189 C212 0.947 . S
H190 C213 0.948 . S
H191 C219 0.982 . S
H192 C220 0.979 . S
H193 C220 0.980 . S
H194 C220 0.983 . S
H195 C219 0.979 . S
H196 C219 0.977 . S
C197 C185 1.453 . S
C197 H226 0.982 . S
C197 H227 0.979 . S
C197 H228 0.977 . S
C198 C185 1.684 . S
C198 H223 0.979 . S
C198 H224 0.980 . S
C198 H225 0.983 . S
C199 C200 1.391 . S
C199 C204 1.391 . S
C199 H229 0.948 . S
C200 C199 1.391 . S
C200 C201 1.391 . S
C201 C200 1.391 . S
C201 C202 1.392 . S
C201 H230 0.947 . S
C202 C201 1.392 . S
C202 C203 1.419 . S
C202 H231 0.948 . S
C203 C202 1.419 . S
C203 C204 1.391 . S
C203 C207 1.397 . S
C204 C199 1.391 . S
C204 C203 1.391 . S
C204 C205 1.399 . S
C205 C204 1.399 . S
C205 C206 1.396 . S
C205 C208 1.453 . S
C205 C209 1.684 . S
C206 C187 1.723 . S
C206 C205 1.396 . S
C206 C207 1.394 . S
C207 C203 1.397 . S
C207 C206 1.394 . S
C207 C217 1.723 . S
C208 C205 1.453 . S
C208 H232 0.982 . S
C208 H233 0.979 . S
C208 H234 0.977 . S
C209 C205 1.684 . S
C209 H235 0.979 . S
C209 H236 0.980 . S
C209 H237 0.983 . S
C210 H186 0.948 . S
C210 C211 1.391 . S
C210 C215 1.391 . S
C211 C210 1.391 . S
C211 C212 1.391 . S
C212 H189 0.947 . S
C212 C211 1.391 . S
C212 C213 1.392 . S
C213 H190 0.948 . S
C213 C212 1.392 . S
C213 C214 1.419 . S
C214 C213 1.419 . S
C214 C215 1.391 . S
C214 C218 1.397 . S
C215 C210 1.391 . S
C215 C214 1.391 . S
C215 C216 1.399 . S
C216 C215 1.399 . S
C216 C217 1.396 . S
C216 C219 1.453 . S
C216 C220 1.684 . S
C217 C207 1.723 . S
C217 C216 1.396 . S
C217 C218 1.394 . S
C218 C188 1.723 . S
C218 C214 1.397 . S
C218 C217 1.394 . S
C219 H191 0.982 . S
C219 H195 0.979 . S
C219 H196 0.977 . S
C219 C216 1.453 . S
C220 H192 0.979 . S
C220 H193 0.980 . S
C220 H194 0.983 . S
C220 C216 1.684 . S
H221 C239 0.948 . S
H222 C180 0.948 . S
H223 C198 0.979 . S
H224 C198 0.980 . S
H225 C198 0.983 . S
H226 C197 0.982 . S
H227 C197 0.979 . S
H228 C197 0.977 . S
H229 C199 0.948 . S
H230 C201 0.947 . S
H231 C202 0.948 . S
H232 C208 0.982 . S
H233 C208 0.979 . S
H234 C208 0.977 . S
H235 C209 0.979 . S
H236 C209 0.980 . S
H237 C209 0.983 . S
H238 C182 0.947 . S
C239 C182 1.392 . S
C239 C183 1.419 . S
C239 H221 0.948 . S
C240 C241 1.391 . S
C240 C244 1.391 . S
C240 H282 0.948 . S
C241 C240 1.391 . S
C241 C242 1.391 . S
C242 C241 1.391 . S
C242 H298 0.947 . S
C242 C299 1.392 . S
C243 C244 1.391 . S
C243 C247 1.397 . S
C243 C299 1.419 . S
C244 C240 1.391 . S
C244 C243 1.391 . S
C244 C245 1.399 . S
C245 C244 1.399 . S
C245 C248 1.396 . S
C245 C257 1.453 . S
C245 C258 1.684 . S
H246 C270 0.948 . S
C247 C243 1.397 . S
C247 C248 1.394 . S
C247 C266 1.723 . S
C248 C245 1.396 . S
C248 C247 1.394 . S
C248 C278 1.723 . S
H249 C272 0.947 . S
H250 C273 0.948 . S
H251 C279 0.982 . S
H252 C280 0.979 . S
H253 C280 0.980 . S
H254 C280 0.983 . S
H255 C279 0.979 . S
H256 C279 0.977 . S
C257 C245 1.453 . S
C257 H286 0.982 . S
C257 H287 0.979 . S
C257 H288 0.977 . S
C258 C245 1.684 . S
C258 H283 0.979 . S
C258 H284 0.980 . S
C258 H285 0.983 . S
C259 C260 1.391 . S
C259 C264 1.391 . S
C259 H289 0.948 . S
C260 C259 1.391 . S
C260 C261 1.391 . S
C261 C260 1.391 . S
C261 C262 1.392 . S
C261 H290 0.947 . S
C262 C261 1.392 . S
C262 C263 1.419 . S
C262 H291 0.948 . S
C263 C262 1.419 . S
C263 C264 1.391 . S
C263 C267 1.397 . S
C264 C259 1.391 . S
C264 C263 1.391 . S
C264 C265 1.399 . S
C265 C264 1.399 . S
C265 C266 1.396 . S
C265 C268 1.453 . S
C265 C269 1.684 . S
C266 C247 1.723 . S
C266 C265 1.396 . S
C266 C267 1.394 . S
C267 C263 1.397 . S
C267 C266 1.394 . S
C267 C277 1.723 . S
C268 C265 1.453 . S
C268 H292 0.982 . S
C268 H293 0.979 . S
C268 H294 0.977 . S
C269 C265 1.684 . S
C269 H295 0.979 . S
C269 H296 0.980 . S
C269 H297 0.983 . S
C270 H246 0.948 . S
C270 C271 1.391 . S
C270 C275 1.391 . S
C271 C270 1.391 . S
C271 C272 1.391 . S
C272 H249 0.947 . S
C272 C271 1.391 . S
C272 C273 1.392 . S
C273 H250 0.948 . S
C273 C272 1.392 . S
C273 C274 1.419 . S
C274 C273 1.419 . S
C274 C275 1.391 . S
C274 C278 1.397 . S
C275 C270 1.391 . S
C275 C274 1.391 . S
C275 C276 1.399 . S
C276 C275 1.399 . S
C276 C277 1.396 . S
C276 C279 1.453 . S
C276 C280 1.684 . S
C277 C267 1.723 . S
C277 C276 1.396 . S
C277 C278 1.394 . S
C278 C248 1.723 . S
C278 C274 1.397 . S
C278 C277 1.394 . S
C279 H251 0.982 . S
C279 H255 0.979 . S
C279 H256 0.977 . S
C279 C276 1.453 . S
C280 H252 0.979 . S
C280 H253 0.980 . S
C280 H254 0.983 . S
C280 C276 1.684 . S
H281 C299 0.948 . S
H282 C240 0.948 . S
H283 C258 0.979 . S
H284 C258 0.980 . S
H285 C258 0.983 . S
H286 C257 0.982 . S
H287 C257 0.979 . S
H288 C257 0.977 . S
H289 C259 0.948 . S
H290 C261 0.947 . S
H291 C262 0.948 . S
H292 C268 0.982 . S
H293 C268 0.979 . S
H294 C268 0.977 . S
H295 C269 0.979 . S
H296 C269 0.980 . S
H297 C269 0.983 . S
H298 C242 0.947 . S
C299 C242 1.392 . S
C299 C243 1.419 . S
C299 H281 0.948 . S
C300 C301 1.391 . S
C300 C304 1.391 . S
C300 H342 0.948 . S
C301 C300 1.391 . S
C301 C302 1.391 . S
C302 C301 1.391 . S
C302 H358 0.947 . S
C302 C359 1.392 . S
C303 C304 1.391 . S
C303 C307 1.397 . S
C303 C359 1.419 . S
C304 C300 1.391 . S
C304 C303 1.391 . S
C304 C305 1.399 . S
C305 C304 1.399 . S
C305 C308 1.396 . S
C305 C317 1.453 . S
C305 C318 1.684 . S
H306 C330 0.948 . S
C307 C303 1.397 . S
C307 C308 1.394 . S
C307 C326 1.723 . S
C308 C305 1.396 . S
C308 C307 1.394 . S
C308 C338 1.723 . S
H309 C332 0.947 . S
H310 C333 0.948 . S
H311 C339 0.982 . S
H312 C340 0.979 . S
H313 C340 0.980 . S
H314 C340 0.983 . S
H315 C339 0.979 . S
H316 C339 0.977 . S
C317 C305 1.453 . S
C317 H346 0.982 . S
C317 H347 0.979 . S
C317 H348 0.977 . S
C318 C305 1.684 . S
C318 H343 0.979 . S
C318 H344 0.980 . S
C318 H345 0.983 . S
C319 C320 1.391 . S
C319 C324 1.391 . S
C319 H349 0.948 . S
C320 C319 1.391 . S
C320 C321 1.391 . S
C321 C320 1.391 . S
C321 C322 1.392 . S
C321 H350 0.947 . S
C322 C321 1.392 . S
C322 C323 1.419 . S
C322 H351 0.948 . S
C323 C322 1.419 . S
C323 C324 1.391 . S
C323 C327 1.397 . S
C324 C319 1.391 . S
C324 C323 1.391 . S
C324 C325 1.399 . S
C325 C324 1.399 . S
C325 C326 1.396 . S
C325 C328 1.453 . S
C325 C329 1.684 . S
C326 C307 1.723 . S
C326 C325 1.396 . S
C326 C327 1.394 . S
C327 C323 1.397 . S
C327 C326 1.394 . S
C327 C337 1.723 . S
C328 C325 1.453 . S
C328 H352 0.982 . S
C328 H353 0.979 . S
C328 H354 0.977 . S
C329 C325 1.684 . S
C329 H355 0.979 . S
C329 H356 0.980 . S
C329 H357 0.983 . S
C330 H306 0.948 . S
C330 C331 1.391 . S
C330 C335 1.391 . S
C331 C330 1.391 . S
C331 C332 1.391 . S
C332 H309 0.947 . S
C332 C331 1.391 . S
C332 C333 1.392 . S
C333 H310 0.948 . S
C333 C332 1.392 . S
C333 C334 1.419 . S
C334 C333 1.419 . S
C334 C335 1.391 . S
C334 C338 1.397 . S
C335 C330 1.391 . S
C335 C334 1.391 . S
C335 C336 1.399 . S
C336 C335 1.399 . S
C336 C337 1.396 . S
C336 C339 1.453 . S
C336 C340 1.684 . S
C337 C327 1.723 . S
C337 C336 1.396 . S
C337 C338 1.394 . S
C338 C308 1.723 . S
C338 C334 1.397 . S
C338 C337 1.394 . S
C339 H311 0.982 . S
C339 H315 0.979 . S
C339 H316 0.977 . S
C339 C336 1.453 . S
C340 H312 0.979 . S
C340 H313 0.980 . S
C340 H314 0.983 . S
C340 C336 1.684 . S
H341 C359 0.948 . S
H342 C300 0.948 . S
H343 C318 0.979 . S
H344 C318 0.980 . S
H345 C318 0.983 . S
H346 C317 0.982 . S
H347 C317 0.979 . S
H348 C317 0.977 . S
H349 C319 0.948 . S
H350 C321 0.947 . S
H351 C322 0.948 . S
H352 C328 0.982 . S
H353 C328 0.979 . S
H354 C328 0.977 . S
H355 C329 0.979 . S
H356 C329 0.980 . S
H357 C329 0.983 . S
H358 C302 0.947 . S
C359 C302 1.392 . S
C359 C303 1.419 . S
C359 H341 0.948 . S
C360 C361 1.391 . S
C360 C364 1.391 . S
C360 H402 0.948 . S
C361 C360 1.391 . S
C361 C362 1.391 . S
C362 C361 1.391 . S
C362 H418 0.947 . S
C362 C419 1.392 . S
C363 C364 1.391 . S
C363 C367 1.397 . S
C363 C419 1.419 . S
C364 C360 1.391 . S
C364 C363 1.391 . S
C364 C365 1.399 . S
C365 C364 1.399 . S
C365 C368 1.396 . S
C365 C377 1.453 . S
C365 C378 1.684 . S
H366 C390 0.948 . S
C367 C363 1.397 . S
C367 C368 1.394 . S
C367 C386 1.723 . S
C368 C365 1.396 . S
C368 C367 1.394 . S
C368 C398 1.723 . S
H369 C392 0.947 . S
H370 C393 0.948 . S
H371 C399 0.982 . S
H372 C400 0.979 . S
H373 C400 0.980 . S
H374 C400 0.983 . S
H375 C399 0.979 . S
H376 C399 0.977 . S
C377 C365 1.453 . S
C377 H406 0.982 . S
C377 H407 0.979 . S
C377 H408 0.977 . S
C378 C365 1.684 . S
C378 H403 0.979 . S
C378 H404 0.980 . S
C378 H405 0.983 . S
C379 C380 1.391 . S
C379 C384 1.391 . S
C379 H409 0.948 . S
C380 C379 1.391 . S
C380 C381 1.391 . S
C381 C380 1.391 . S
C381 C382 1.392 . S
C381 H410 0.947 . S
C382 C381 1.392 . S
C382 C383 1.419 . S
C382 H411 0.948 . S
C383 C382 1.419 . S
C383 C384 1.391 . S
C383 C387 1.397 . S
C384 C379 1.391 . S
C384 C383 1.391 . S
C384 C385 1.399 . S
C385 C384 1.399 . S
C385 C386 1.396 . S
C385 C388 1.453 . S
C385 C389 1.684 . S
C386 C367 1.723 . S
C386 C385 1.396 . S
C386 C387 1.394 . S
C387 C383 1.397 . S
C387 C386 1.394 . S
C387 C397 1.723 . S
C388 C385 1.453 . S
C388 H412 0.982 . S
C388 H413 0.979 . S
C388 H414 0.977 . S
C389 C385 1.684 . S
C389 H415 0.979 . S
C389 H416 0.980 . S
C389 H417 0.983 . S
C390 H366 0.948 . S
C390 C391 1.391 . S
C390 C395 1.391 . S
C391 C390 1.391 . S
C391 C392 1.391 . S
C392 H369 0.947 . S
C392 C391 1.391 . S
C392 C393 1.392 . S
C393 H370 0.948 . S
C393 C392 1.392 . S
C393 C394 1.419 . S
C394 C393 1.419 . S
C394 C395 1.391 . S
C394 C398 1.397 . S
C395 C390 1.391 . S
C395 C394 1.391 . S
C395 C396 1.399 . S
C396 C395 1.399 . S
C396 C397 1.396 . S
C396 C399 1.453 . S
C396 C400 1.684 . S
C397 C387 1.723 . S
C397 C396 1.396 . S
C397 C398 1.394 . S
C398 C368 1.723 . S
C398 C394 1.397 . S
C398 C397 1.394 . S
C399 H371 0.982 . S
C399 H375 0.979 . S
C399 H376 0.977 . S
C399 C396 1.453 . S
C400 H372 0.979 . S
C400 H373 0.980 . S
C400 H374 0.983 . S
C400 C396 1.684 . S
H401 C419 0.948 . S
H402 C360 0.948 . S
H403 C378 0.979 . S
H404 C378 0.980 . S
H405 C378 0.983 . S
H406 C377 0.982 . S
H407 C377 0.979 . S
H408 C377 0.977 . S
H409 C379 0.948 . S
H410 C381 0.947 . S
H411 C382 0.948 . S
H412 C388 0.982 . S
H413 C388 0.979 . S
H414 C388 0.977 . S
H415 C389 0.979 . S
H416 C389 0.980 . S
H417 C389 0.983 . S
H418 C362 0.947 . S
C419 C362 1.392 . S
C419 C363 1.419 . S
C419 H401 0.948 . S
C420 C421 1.391 . S
C420 C424 1.391 . S
C420 H462 0.948 . S
C421 C420 1.391 . S
C421 C422 1.391 . S
C422 C421 1.391 . S
C422 H478 0.947 . S
C422 C479 1.392 . S
C423 C424 1.391 . S
C423 C427 1.397 . S
C423 C479 1.419 . S
C424 C420 1.391 . S
C424 C423 1.391 . S
C424 C425 1.399 . S
C425 C424 1.399 . S
C425 C428 1.396 . S
C425 C437 1.453 . S
C425 C438 1.684 . S
H426 C450 0.948 . S
C427 C423 1.397 . S
C427 C428 1.394 . S
C427 C446 1.723 . S
C428 C425 1.396 . S
C428 C427 1.394 . S
C428 C458 1.723 . S
H429 C452 0.947 . S
H430 C453 0.948 . S
H431 C459 0.982 . S
H432 C460 0.979 . S
H433 C460 0.980 . S
H434 C460 0.983 . S
H435 C459 0.979 . S
H436 C459 0.977 . S
C437 C425 1.453 . S
C437 H466 0.982 . S
C437 H467 0.979 . S
C437 H468 0.977 . S
C438 C425 1.684 . S
C438 H463 0.979 . S
C438 H464 0.980 . S
C438 H465 0.983 . S
C439 C440 1.391 . S
C439 C444 1.391 . S
C439 H469 0.948 . S
C440 C439 1.391 . S
C440 C441 1.391 . S
C441 C440 1.391 . S
C441 C442 1.392 . S
C441 H470 0.947 . S
C442 C441 1.392 . S
C442 C443 1.419 . S
C442 H471 0.948 . S
C443 C442 1.419 . S
C443 C444 1.391 . S
C443 C447 1.397 . S
C444 C439 1.391 . S
C444 C443 1.391 . S
C444 C445 1.399 . S
C445 C444 1.399 . S
C445 C446 1.396 . S
C445 C448 1.453 . S
C445 C449 1.684 . S
C446 C427 1.723 . S
C446 C445 1.396 . S
C446 C447 1.394 . S
C447 C443 1.397 . S
C447 C446 1.394 . S
C447 C457 1.723 . S
C448 C445 1.453 . S
C448 H472 0.982 . S
C448 H473 0.979 . S
C448 H474 0.977 . S
C449 C445 1.684 . S
C449 H475 0.979 . S
C449 H476 0.980 . S
C449 H477 0.983 . S
C450 H426 0.948 . S
C450 C451 1.391 . S
C450 C455 1.391 . S
C451 C450 1.391 . S
C451 C452 1.391 . S
C452 H429 0.947 . S
C452 C451 1.391 . S
C452 C453 1.392 . S
C453 H430 0.948 . S
C453 C452 1.392 . S
C453 C454 1.419 . S
C454 C453 1.419 . S
C454 C455 1.391 . S
C454 C458 1.397 . S
C455 C450 1.391 . S
C455 C454 1.391 . S
C455 C456 1.399 . S
C456 C455 1.399 . S
C456 C457 1.396 . S
C456 C459 1.453 . S
C456 C460 1.684 . S
C457 C447 1.723 . S
C457 C456 1.396 . S
C457 C458 1.394 . S
C458 C428 1.723 . S
C458 C454 1.397 . S
C458 C457 1.394 . S
C459 H431 0.982 . S
C459 H435 0.979 . S
C459 H436 0.977 . S
C459 C456 1.453 . S
C460 H432 0.979 . S
C460 H433 0.980 . S
C460 H434 0.983 . S
C460 C456 1.684 . S
H461 C479 0.948 . S
H462 C420 0.948 . S
H463 C438 0.979 . S
H464 C438 0.980 . S
H465 C438 0.983 . S
H466 C437 0.982 . S
H467 C437 0.979 . S
H468 C437 0.977 . S
H469 C439 0.948 . S
H470 C441 0.947 . S
H471 C442 0.948 . S
H472 C448 0.982 . S
H473 C448 0.979 . S
H474 C448 0.977 . S
H475 C449 0.979 . S
H476 C449 0.980 . S
H477 C449 0.983 . S
H478 C422 0.947 . S
C479 C422 1.392 . S
C479 C423 1.419 . S
C479 H461 0.948 . S
La480 C482 2.928 . S
La480 O500 2.521 . S
La480 O501 2.628 . S
La480 O502 2.554 1_545 S
La480 O503 2.757 1_545 S
La480 O504 2.470 . S
La480 O509 2.482 1_455 S
La480 O511 2.503 1_445 S
La481 C491 2.928 . S
La481 O503 2.482 1_655 S
La481 O505 2.503 1_665 S
La481 O506 2.521 . S
La481 O507 2.628 . S
La481 O508 2.554 1_565 S
La481 O509 2.757 1_565 S
La481 O510 2.470 . S
C482 La480 2.928 . S
C482 C483 1.503 . S
C482 O500 1.261 . S
C482 O501 1.243 . S
C483 C482 1.503 . S
C483 C484 1.394 . S
C483 C488 1.373 . S
C484 C483 1.394 . S
C484 C485 1.380 . S
C484 H512 0.930 . S
C485 C484 1.380 . S
C485 C486 1.376 . S
C485 H513 0.930 . S
C486 C485 1.376 . S
C486 C487 1.370 . S
C487 C486 1.370 . S
C487 C488 1.396 . S
C487 H514 0.929 . S
C488 C483 1.373 . S
C488 C487 1.396 . S
C488 H515 0.929 . S
C489 O502 1.240 . S
C489 O503 1.289 . S
C490 O504 1.258 . S
C490 O505 1.256 . S
C491 La481 2.928 . S
C491 C492 1.503 . S
C491 O506 1.261 . S
C491 O507 1.243 . S
C492 C491 1.503 . S
C492 C493 1.394 . S
C492 C497 1.373 . S
C493 C492 1.394 . S
C493 C494 1.380 . S
C493 H516 0.930 . S
C494 C493 1.380 . S
C494 C495 1.376 . S
C494 H517 0.930 . S
C495 C494 1.376 . S
C495 C496 1.370 . S
C496 C495 1.370 . S
C496 C497 1.396 . S
C496 H518 0.929 . S
C497 C492 1.373 . S
C497 C496 1.396 . S
C497 H519 0.929 . S
C498 O508 1.240 . S
C498 O509 1.289 . S
C499 O510 1.258 . S
C499 O511 1.256 . S
O500 La480 2.521 . S
O500 C482 1.261 . S
O501 La480 2.628 . S
O501 C482 1.243 . S
O502 La480 2.554 1_565 S
O502 C489 1.240 . S
O503 La480 2.757 1_565 S
O503 La481 2.482 1_455 S
O503 C489 1.289 . S
O504 La480 2.470 . S
O504 C490 1.258 . S
O505 La481 2.503 1_445 S
O505 C490 1.256 . S
O506 La481 2.521 . S
O506 C491 1.261 . S
O507 La481 2.628 . S
O507 C491 1.243 . S
O508 La481 2.554 1_545 S
O508 C498 1.240 . S
O509 La480 2.482 1_655 S
O509 La481 2.757 1_545 S
O509 C498 1.289 . S
O510 La481 2.470 . S
O510 C499 1.258 . S
O511 La480 2.503 1_665 S
O511 C499 1.256 . S
H512 C484 0.930 . S
H513 C485 0.930 . S
H514 C487 0.929 . S
H515 C488 0.929 . S
H516 C493 0.930 . S
H517 C494 0.930 . S
H518 C496 0.929 . S
H519 C497 0.929 . S
La520 C522 2.928 1_565 S
La520 O540 2.521 1_565 S
La520 O541 2.628 1_565 S
La520 O542 2.554 . S
La520 O543 2.757 . S
La520 O544 2.470 1_565 S
La520 O549 2.482 1_564 S
La520 O551 2.503 1_554 S
La521 C531 2.928 1_545 S
La521 O543 2.482 1_546 S
La521 O545 2.503 1_556 S
La521 O546 2.521 1_545 S
La521 O547 2.628 1_545 S
La521 O548 2.554 . S
La521 O549 2.757 . S
La521 O550 2.470 1_545 S
C522 La520 2.928 1_545 S
C522 C523 1.503 . S
C522 O540 1.261 . S
C522 O541 1.243 . S
C523 C522 1.503 . S
C523 C524 1.394 . S
C523 C528 1.373 . S
C524 C523 1.394 . S
C524 C525 1.380 . S
C524 H552 0.930 . S
C525 C524 1.380 . S
C525 C526 1.376 . S
C525 H553 0.930 . S
C526 C525 1.376 . S
C526 C527 1.370 . S
C527 C526 1.370 . S
C527 C528 1.396 . S
C527 H554 0.929 . S
C528 C523 1.373 . S
C528 C527 1.396 . S
C528 H555 0.929 . S
C529 O542 1.240 . S
C529 O543 1.289 . S
C530 O544 1.258 . S
C530 O545 1.256 . S
C531 La521 2.928 1_565 S
C531 C532 1.503 . S
C531 O546 1.261 . S
C531 O547 1.243 . S
C532 C531 1.503 . S
C532 C533 1.394 . S
C532 C537 1.373 . S
C533 C532 1.394 . S
C533 C534 1.380 . S
C533 H556 0.930 . S
C534 C533 1.380 . S
C534 C535 1.376 . S
C534 H557 0.930 . S
C535 C534 1.376 . S
C535 C536 1.370 . S
C536 C535 1.370 . S
C536 C537 1.396 . S
C536 H558 0.929 . S
C537 C532 1.373 . S
C537 C536 1.396 . S
C537 H559 0.929 . S
C538 O548 1.240 . S
C538 O549 1.289 . S
C539 O550 1.258 . S
C539 O551 1.256 . S
O540 La520 2.521 1_545 S
O540 C522 1.261 . S
O541 La520 2.628 1_545 S
O541 C522 1.243 . S
O542 La520 2.554 . S
O542 C529 1.240 . S
O543 La520 2.757 . S
O543 La521 2.482 1_564 S
O543 C529 1.289 . S
O544 La520 2.470 1_545 S
O544 C530 1.258 . S
O545 La521 2.503 1_554 S
O545 C530 1.256 . S
O546 La521 2.521 1_565 S
O546 C531 1.261 . S
O547 La521 2.628 1_565 S
O547 C531 1.243 . S
O548 La521 2.554 . S
O548 C538 1.240 . S
O549 La520 2.482 1_546 S
O549 La521 2.757 . S
O549 C538 1.289 . S
O550 La521 2.470 1_565 S
O550 C539 1.258 . S
O551 La520 2.503 1_556 S
O551 C539 1.256 . S
H552 C524 0.930 . S
H553 C525 0.930 . S
H554 C527 0.929 . S
H555 C528 0.929 . S
H556 C533 0.930 . S
H557 C534 0.930 . S
H558 C536 0.929 . S
H559 C537 0.929 . S
La560 C562 2.928 . S
La560 O580 2.521 . S
La560 O581 2.628 . S
La560 O582 2.554 . S
La560 O583 2.757 . S
La560 O584 2.470 . S
La560 O589 2.482 . S
La560 O591 2.503 . S
La561 C571 2.928 . S
La561 O583 2.482 . S
La561 O585 2.503 . S
La561 O586 2.521 . S
La561 O587 2.628 . S
La561 O588 2.554 . S
La561 O589 2.757 . S
La561 O590 2.470 . S
C562 La560 2.928 . S
C562 C563 1.503 . S
C562 O580 1.261 . S
C562 O581 1.243 . S
C563 C562 1.503 . S
C563 C564 1.394 . S
C563 C568 1.373 . S
C564 C563 1.394 . S
C564 C565 1.380 . S
C564 H592 0.930 . S
C565 C564 1.380 . S
C565 C566 1.376 . S
C565 H593 0.930 . S
C566 C565 1.376 . S
C566 C567 1.370 . S
C567 C566 1.370 . S
C567 C568 1.396 . S
C567 H594 0.929 . S
C568 C563 1.373 . S
C568 C567 1.396 . S
C568 H595 0.929 . S
C569 O582 1.240 . S
C569 O583 1.289 . S
C570 O584 1.258 . S
C570 O585 1.256 . S
C571 La561 2.928 . S
C571 C572 1.503 . S
C571 O586 1.261 . S
C571 O587 1.243 . S
C572 C571 1.503 . S
C572 C573 1.394 . S
C572 C577 1.373 . S
C573 C572 1.394 . S
C573 C574 1.380 . S
C573 H596 0.930 . S
C574 C573 1.380 . S
C574 C575 1.376 . S
C574 H597 0.930 . S
C575 C574 1.376 . S
C575 C576 1.370 . S
C576 C575 1.370 . S
C576 C577 1.396 . S
C576 H598 0.929 . S
C577 C572 1.373 . S
C577 C576 1.396 . S
C577 H599 0.929 . S
C578 O588 1.240 . S
C578 O589 1.289 . S
C579 O590 1.258 . S
C579 O591 1.256 . S
O580 La560 2.521 . S
O580 C562 1.261 . S
O581 La560 2.628 . S
O581 C562 1.243 . S
O582 La560 2.554 . S
O582 C569 1.240 . S
O583 La560 2.757 . S
O583 La561 2.482 . S
O583 C569 1.289 . S
O584 La560 2.470 . S
O584 C570 1.258 . S
O585 La561 2.503 . S
O585 C570 1.256 . S
O586 La561 2.521 . S
O586 C571 1.261 . S
O587 La561 2.628 . S
O587 C571 1.243 . S
O588 La561 2.554 . S
O588 C578 1.240 . S
O589 La560 2.482 . S
O589 La561 2.757 . S
O589 C578 1.289 . S
O590 La561 2.470 . S
O590 C579 1.258 . S
O591 La560 2.503 . S
O591 C579 1.256 . S
H592 C564 0.930 . S
H593 C565 0.930 . S
H594 C567 0.929 . S
H595 C568 0.929 . S
H596 C573 0.930 . S
H597 C574 0.930 . S
H598 C576 0.929 . S
H599 C577 0.929 . S
La600 C602 2.928 . S
La600 O620 2.521 . S
La600 O621 2.628 . S
La600 O622 2.554 1_455 S
La600 O623 2.757 1_455 S
La600 O624 2.470 . S
La600 O629 2.482 1_554 S
La600 O631 2.503 1_454 S
La601 C611 2.928 . S
La601 O623 2.482 1_556 S
La601 O625 2.503 1_656 S
La601 O626 2.521 . S
La601 O627 2.628 . S
La601 O628 2.554 1_655 S
La601 O629 2.757 1_655 S
La601 O630 2.470 . S
C602 La600 2.928 . S
C602 C603 1.503 . S
C602 O620 1.261 . S
C602 O621 1.243 . S
C603 C602 1.503 . S
C603 C604 1.394 . S
C603 C608 1.373 . S
C604 C603 1.394 . S
C604 C605 1.380 . S
C604 H632 0.930 . S
C605 C604 1.380 . S
C605 C606 1.376 . S
C605 H633 0.930 . S
C606 C605 1.376 . S
C606 C607 1.370 . S
C607 C606 1.370 . S
C607 C608 1.396 . S
C607 H634 0.929 . S
C608 C603 1.373 . S
C608 C607 1.396 . S
C608 H635 0.929 . S
C609 O622 1.240 . S
C609 O623 1.289 . S
C610 O624 1.258 . S
C610 O625 1.256 . S
C611 La601 2.928 . S
C611 C612 1.503 . S
C611 O626 1.261 . S
C611 O627 1.243 . S
C612 C611 1.503 . S
C612 C613 1.394 . S
C612 C617 1.373 . S
C613 C612 1.394 . S
C613 C614 1.380 . S
C613 H636 0.930 . S
C614 C613 1.380 . S
C614 C615 1.376 . S
C614 H637 0.930 . S
C615 C614 1.376 . S
C615 C616 1.370 . S
C616 C615 1.370 . S
C616 C617 1.396 . S
C616 H638 0.929 . S
C617 C612 1.373 . S
C617 C616 1.396 . S
C617 H639 0.929 . S
C618 O628 1.240 . S
C618 O629 1.289 . S
C619 O630 1.258 . S
C619 O631 1.256 . S
O620 La600 2.521 . S
O620 C602 1.261 . S
O621 La600 2.628 . S
O621 C602 1.243 . S
O622 La600 2.554 1_655 S
O622 C609 1.240 . S
O623 La600 2.757 1_655 S
O623 La601 2.482 1_554 S
O623 C609 1.289 . S
O624 La600 2.470 . S
O624 C610 1.258 . S
O625 La601 2.503 1_454 S
O625 C610 1.256 . S
O626 La601 2.521 . S
O626 C611 1.261 . S
O627 La601 2.628 . S
O627 C611 1.243 . S
O628 La601 2.554 1_455 S
O628 C618 1.240 . S
O629 La600 2.482 1_556 S
O629 La601 2.757 1_455 S
O629 C618 1.289 . S
O630 La601 2.470 . S
O630 C619 1.258 . S
O631 La600 2.503 1_656 S
O631 C619 1.256 . S
H632 C604 0.930 . S
H633 C605 0.930 . S
H634 C607 0.929 . S
H635 C608 0.929 . S
H636 C613 0.930 . S
H637 C614 0.930 . S
H638 C616 0.929 . S
H639 C617 0.929 . S
H640 C648 0.950 . S
H641 C653 0.950 . S
H642 C650 0.950 . S
H643 C652 0.950 . S
H644 C654 0.950 . S
H645 C656 0.950 . S
H646 C658 0.950 . S
H647 C659 0.950 . S
C648 H640 0.950 . S
C648 C649 1.386 . S
C648 C650 1.391 . S
C649 C648 1.386 . S
C649 C653 1.393 . S
C650 H642 0.950 . S
C650 C648 1.391 . S
C650 C651 1.400 . S
C651 C650 1.400 . S
C651 C652 1.398 . S
C651 C657 1.491 . S
C652 H643 0.950 . S
C652 C651 1.398 . S
C652 C653 1.391 . S
C653 H641 0.950 . S
C653 C649 1.393 . S
C653 C652 1.391 . S
C654 H644 0.950 . S
C654 C655 1.386 . S
C654 C656 1.391 . S
C655 C654 1.386 . S
C655 C659 1.393 . S
C656 H645 0.950 . S
C656 C654 1.391 . S
C656 C657 1.400 . S
C657 C651 1.491 . S
C657 C656 1.400 . S
C657 C658 1.398 . S
C658 H646 0.950 . S
C658 C657 1.398 . S
C658 C659 1.391 . S
C659 H647 0.950 . S
C659 C655 1.393 . S
C659 C658 1.391 . S
H660 C668 0.950 . S
H661 C673 0.950 . S
H662 C670 0.950 . S
H663 C672 0.950 . S
H664 C674 0.950 . S
H665 C676 0.950 . S
H666 C678 0.950 . S
H667 C679 0.950 . S
C668 H660 0.950 . S
C668 C669 1.386 . S
C668 C670 1.391 . S
C669 C668 1.386 . S
C669 C673 1.393 . S
C670 H662 0.950 . S
C670 C668 1.391 . S
C670 C671 1.400 . S
C671 C670 1.400 . S
C671 C672 1.398 . S
C671 C677 1.491 . S
C672 H663 0.950 . S
C672 C671 1.398 . S
C672 C673 1.391 . S
C673 H661 0.950 . S
C673 C669 1.393 . S
C673 C672 1.391 . S
C674 H664 0.950 . S
C674 C675 1.386 . S
C674 C676 1.391 . S
C675 C674 1.386 . S
C675 C679 1.393 . S
C676 H665 0.950 . S
C676 C674 1.391 . S
C676 C677 1.400 . S
C677 C671 1.491 . S
C677 C676 1.400 . S
C677 C678 1.398 . S
C678 H666 0.950 . S
C678 C677 1.398 . S
C678 C679 1.391 . S
C679 H667 0.950 . S
C679 C675 1.393 . S
C679 C678 1.391 . S
H680 C688 0.950 . S
H681 C693 0.950 . S
H682 C690 0.950 . S
H683 C692 0.950 . S
H684 C694 0.950 . S
H685 C696 0.950 . S
H686 C698 0.950 . S
H687 C699 0.950 . S
C688 H680 0.950 . S
C688 C689 1.386 . S
C688 C690 1.391 . S
C689 C688 1.386 . S
C689 C693 1.393 . S
C690 H682 0.950 . S
C690 C688 1.391 . S
C690 C691 1.400 . S
C691 C690 1.400 . S
C691 C692 1.398 . S
C691 C697 1.491 . S
C692 H683 0.950 . S
C692 C691 1.398 . S
C692 C693 1.391 . S
C693 H681 0.950 . S
C693 C689 1.393 . S
C693 C692 1.391 . S
C694 H684 0.950 . S
C694 C695 1.386 . S
C694 C696 1.391 . S
C695 C694 1.386 . S
C695 C699 1.393 . S
C696 H685 0.950 . S
C696 C694 1.391 . S
C696 C697 1.400 . S
C697 C691 1.491 . S
C697 C696 1.400 . S
C697 C698 1.398 . S
C698 H686 0.950 . S
C698 C697 1.398 . S
C698 C699 1.391 . S
C699 H687 0.950 . S
C699 C695 1.393 . S
C699 C698 1.391 . S
H700 C708 0.950 . S
H701 C713 0.950 . S
H702 C710 0.950 . S
H703 C712 0.950 . S
H704 C714 0.950 . S
H705 C716 0.950 . S
H706 C718 0.950 . S
H707 C719 0.950 . S
C708 H700 0.950 . S
C708 C709 1.386 . S
C708 C710 1.391 . S
C709 C708 1.386 . S
C709 C713 1.393 . S
C710 H702 0.950 . S
C710 C708 1.391 . S
C710 C711 1.400 . S
C711 C710 1.400 . S
C711 C712 1.398 . S
C711 C717 1.491 . S
C712 H703 0.950 . S
C712 C711 1.398 . S
C712 C713 1.391 . S
C713 H701 0.950 . S
C713 C709 1.393 . S
C713 C712 1.391 . S
C714 H704 0.950 . S
C714 C715 1.386 . S
C714 C716 1.391 . S
C715 C714 1.386 . S
C715 C719 1.393 . S
C716 H705 0.950 . S
C716 C714 1.391 . S
C716 C717 1.400 . S
C717 C711 1.491 . S
C717 C716 1.400 . S
C717 C718 1.398 . S
C718 H706 0.950 . S
C718 C717 1.398 . S
C718 C719 1.391 . S
C719 H707 0.950 . S
C719 C715 1.393 . S
C719 C718 1.391 . S
H720 C728 0.950 . S
H721 C733 0.950 . S
H722 C730 0.950 . S
H723 C732 0.950 . S
H724 C734 0.950 . S
H725 C736 0.950 . S
H726 C738 0.950 . S
H727 C739 0.950 . S
C728 H720 0.950 . S
C728 C729 1.386 . S
C728 C730 1.391 . S
C729 C728 1.386 . S
C729 C733 1.393 . S
C730 H722 0.950 . S
C730 C728 1.391 . S
C730 C731 1.400 . S
C731 C730 1.400 . S
C731 C732 1.398 . S
C731 C737 1.491 . S
C732 H723 0.950 . S
C732 C731 1.398 . S
C732 C733 1.391 . S
C733 H721 0.950 . S
C733 C729 1.393 . S
C733 C732 1.391 . S
C734 H724 0.950 . S
C734 C735 1.386 . S
C734 C736 1.391 . S
C735 C734 1.386 . S
C735 C739 1.393 . S
C736 H725 0.950 . S
C736 C734 1.391 . S
C736 C737 1.400 . S
C737 C731 1.491 . S
C737 C736 1.400 . S
C737 C738 1.398 . S
C738 H726 0.950 . S
C738 C737 1.398 . S
C738 C739 1.391 . S
C739 H727 0.950 . S
C739 C735 1.393 . S
C739 C738 1.391 . S
H740 C748 0.950 . S
H741 C753 0.950 . S
H742 C750 0.950 . S
H743 C752 0.950 . S
H744 C754 0.950 . S
H745 C756 0.950 . S
H746 C758 0.950 . S
H747 C759 0.950 . S
C748 H740 0.950 . S
C748 C749 1.386 . S
C748 C750 1.391 . S
C749 C748 1.386 . S
C749 C753 1.393 . S
C750 H742 0.950 . S
C750 C748 1.391 . S
C750 C751 1.400 . S
C751 C750 1.400 . S
C751 C752 1.398 . S
C751 C757 1.491 . S
C752 H743 0.950 . S
C752 C751 1.398 . S
C752 C753 1.391 . S
C753 H741 0.950 . S
C753 C749 1.393 . S
C753 C752 1.391 . S
C754 H744 0.950 . S
C754 C755 1.386 . S
C754 C756 1.391 . S
C755 C754 1.386 . S
C755 C759 1.393 . S
C756 H745 0.950 . S
C756 C754 1.391 . S
C756 C757 1.400 . S
C757 C751 1.491 . S
C757 C756 1.400 . S
C757 C758 1.398 . S
C758 H746 0.950 . S
C758 C757 1.398 . S
C758 C759 1.391 . S
C759 H747 0.950 . S
C759 C755 1.393 . S
C759 C758 1.391 . S
H760 C768 0.950 . S
H761 C773 0.950 . S
H762 C770 0.950 . S
H763 C772 0.950 . S
H764 C774 0.950 . S
H765 C776 0.950 . S
H766 C778 0.950 . S
H767 C779 0.950 . S
C768 H760 0.950 . S
C768 C769 1.386 . S
C768 C770 1.391 . S
C769 C768 1.386 . S
C769 C773 1.393 . S
C770 H762 0.950 . S
C770 C768 1.391 . S
C770 C771 1.400 . S
C771 C770 1.400 . S
C771 C772 1.398 . S
C771 C777 1.491 . S
C772 H763 0.950 . S
C772 C771 1.398 . S
C772 C773 1.391 . S
C773 H761 0.950 . S
C773 C769 1.393 . S
C773 C772 1.391 . S
C774 H764 0.950 . S
C774 C775 1.386 . S
C774 C776 1.391 . S
C775 C774 1.386 . S
C775 C779 1.393 . S
C776 H765 0.950 . S
C776 C774 1.391 . S
C776 C777 1.400 . S
C777 C771 1.491 . S
C777 C776 1.400 . S
C777 C778 1.398 . S
C778 H766 0.950 . S
C778 C777 1.398 . S
C778 C779 1.391 . S
C779 H767 0.950 . S
C779 C775 1.393 . S
C779 C778 1.391 . S
H780 C788 0.950 . S
H781 C793 0.950 . S
H782 C790 0.950 . S
H783 C792 0.950 . S
H784 C794 0.950 . S
H785 C796 0.950 . S
H786 C798 0.950 . S
H787 C799 0.950 . S
C788 H780 0.950 . S
C788 C789 1.386 . S
C788 C790 1.391 . S
C789 C788 1.386 . S
C789 C793 1.393 . S
C790 H782 0.950 . S
C790 C788 1.391 . S
C790 C791 1.400 . S
C791 C790 1.400 . S
C791 C792 1.398 . S
C791 C797 1.491 . S
C792 H783 0.950 . S
C792 C791 1.398 . S
C792 C793 1.391 . S
C793 H781 0.950 . S
C793 C789 1.393 . S
C793 C792 1.391 . S
C794 H784 0.950 . S
C794 C795 1.386 . S
C794 C796 1.391 . S
C795 C794 1.386 . S
C795 C799 1.393 . S
C796 H785 0.950 . S
C796 C794 1.391 . S
C796 C797 1.400 . S
C797 C791 1.491 . S
C797 C796 1.400 . S
C797 C798 1.398 . S
C798 H786 0.950 . S
C798 C797 1.398 . S
C798 C799 1.391 . S
C799 H787 0.950 . S
C799 C795 1.393 . S
C799 C798 1.391 . S
H800 C808 0.950 . S
H801 C813 0.950 . S
H802 C810 0.950 . S
H803 C812 0.950 . S
H804 C814 0.950 . S
H805 C816 0.950 . S
H806 C818 0.950 . S
H807 C819 0.950 . S
C808 H800 0.950 . S
C808 C809 1.386 . S
C808 C810 1.391 . S
C809 C808 1.386 . S
C809 C813 1.393 . S
C810 H802 0.950 . S
C810 C808 1.391 . S
C810 C811 1.400 . S
C811 C810 1.400 . S
C811 C812 1.398 . S
C811 C817 1.491 . S
C812 H803 0.950 . S
C812 C811 1.398 . S
C812 C813 1.391 . S
C813 H801 0.950 . S
C813 C809 1.393 . S
C813 C812 1.391 . S
C814 H804 0.950 . S
C814 C815 1.386 . S
C814 C816 1.391 . S
C815 C814 1.386 . S
C815 C819 1.393 . S
C816 H805 0.950 . S
C816 C814 1.391 . S
C816 C817 1.400 . S
C817 C811 1.491 . S
C817 C816 1.400 . S
C817 C818 1.398 . S
C818 H806 0.950 . S
C818 C817 1.398 . S
C818 C819 1.391 . S
C819 H807 0.950 . S
C819 C815 1.393 . S
C819 C818 1.391 . S
H820 C828 0.950 . S
H821 C833 0.950 . S
H822 C830 0.950 . S
H823 C832 0.950 . S
H824 C834 0.950 . S
H825 C836 0.950 . S
H826 C838 0.950 . S
H827 C839 0.950 . S
C828 H820 0.950 . S
C828 C829 1.386 . S
C828 C830 1.391 . S
C829 C828 1.386 . S
C829 C833 1.393 . S
C830 H822 0.950 . S
C830 C828 1.391 . S
C830 C831 1.400 . S
C831 C830 1.400 . S
C831 C832 1.398 . S
C831 C837 1.491 . S
C832 H823 0.950 . S
C832 C831 1.398 . S
C832 C833 1.391 . S
C833 H821 0.950 . S
C833 C829 1.393 . S
C833 C832 1.391 . S
C834 H824 0.950 . S
C834 C835 1.386 . S
C834 C836 1.391 . S
C835 C834 1.386 . S
C835 C839 1.393 . S
C836 H825 0.950 . S
C836 C834 1.391 . S
C836 C837 1.400 . S
C837 C831 1.491 . S
C837 C836 1.400 . S
C837 C838 1.398 . S
C838 H826 0.950 . S
C838 C837 1.398 . S
C838 C839 1.391 . S
C839 H827 0.950 . S
C839 C835 1.393 . S
C839 C838 1.391 . S
H840 C848 0.950 . S
H841 C853 0.950 . S
H842 C850 0.950 . S
H843 C852 0.950 . S
H844 C854 0.950 . S
H845 C856 0.950 . S
H846 C858 0.950 . S
H847 C859 0.950 . S
C848 H840 0.950 . S
C848 C849 1.386 . S
C848 C850 1.391 . S
C849 C848 1.386 . S
C849 C853 1.393 . S
C850 H842 0.950 . S
C850 C848 1.391 . S
C850 C851 1.400 . S
C851 C850 1.400 . S
C851 C852 1.398 . S
C851 C857 1.491 . S
C852 H843 0.950 . S
C852 C851 1.398 . S
C852 C853 1.391 . S
C853 H841 0.950 . S
C853 C849 1.393 . S
C853 C852 1.391 . S
C854 H844 0.950 . S
C854 C855 1.386 . S
C854 C856 1.391 . S
C855 C854 1.386 . S
C855 C859 1.393 . S
C856 H845 0.950 . S
C856 C854 1.391 . S
C856 C857 1.400 . S
C857 C851 1.491 . S
C857 C856 1.400 . S
C857 C858 1.398 . S
C858 H846 0.950 . S
C858 C857 1.398 . S
C858 C859 1.391 . S
C859 H847 0.950 . S
C859 C855 1.393 . S
C859 C858 1.391 . S
H860 C868 0.950 . S
H861 C873 0.950 . S
H862 C870 0.950 . S
H863 C872 0.950 . S
H864 C874 0.950 . S
H865 C876 0.950 . S
H866 C878 0.950 . S
H867 C879 0.950 . S
C868 H860 0.950 . S
C868 C869 1.386 . S
C868 C870 1.391 . S
C869 C868 1.386 . S
C869 C873 1.393 . S
C870 H862 0.950 . S
C870 C868 1.391 . S
C870 C871 1.400 . S
C871 C870 1.400 . S
C871 C872 1.398 . S
C871 C877 1.491 . S
C872 H863 0.950 . S
C872 C871 1.398 . S
C872 C873 1.391 . S
C873 H861 0.950 . S
C873 C869 1.393 . S
C873 C872 1.391 . S
C874 H864 0.950 . S
C874 C875 1.386 . S
C874 C876 1.391 . S
C875 C874 1.386 . S
C875 C879 1.393 . S
C876 H865 0.950 . S
C876 C874 1.391 . S
C876 C877 1.400 . S
C877 C871 1.491 . S
C877 C876 1.400 . S
C877 C878 1.398 . S
C878 H866 0.950 . S
C878 C877 1.398 . S
C878 C879 1.391 . S
C879 H867 0.950 . S
C879 C875 1.393 . S
C879 C878 1.391 . S
H880 C888 0.950 . S
H881 C893 0.950 . S
H882 C890 0.950 . S
H883 C892 0.950 . S
H884 C894 0.950 . S
H885 C896 0.950 . S
H886 C898 0.950 . S
H887 C899 0.950 . S
C888 H880 0.950 . S
C888 C889 1.386 . S
C888 C890 1.391 . S
C889 C888 1.386 . S
C889 C893 1.393 . S
C890 H882 0.950 . S
C890 C888 1.391 . S
C890 C891 1.400 . S
C891 C890 1.400 . S
C891 C892 1.398 . S
C891 C897 1.491 . S
C892 H883 0.950 . S
C892 C891 1.398 . S
C892 C893 1.391 . S
C893 H881 0.950 . S
C893 C889 1.393 . S
C893 C892 1.391 . S
C894 H884 0.950 . S
C894 C895 1.386 . S
C894 C896 1.391 . S
C895 C894 1.386 . S
C895 C899 1.393 . S
C896 H885 0.950 . S
C896 C894 1.391 . S
C896 C897 1.400 . S
C897 C891 1.491 . S
C897 C896 1.400 . S
C897 C898 1.398 . S
C898 H886 0.950 . S
C898 C897 1.398 . S
C898 C899 1.391 . S
C899 H887 0.950 . S
C899 C895 1.393 . S
C899 C898 1.391 . S
H900 C908 0.950 . S
H901 C913 0.950 . S
H902 C910 0.950 . S
H903 C912 0.950 . S
H904 C914 0.950 . S
H905 C916 0.950 . S
H906 C918 0.950 . S
H907 C919 0.950 . S
C908 H900 0.950 . S
C908 C909 1.386 . S
C908 C910 1.391 . S
C909 C908 1.386 . S
C909 C913 1.393 . S
C910 H902 0.950 . S
C910 C908 1.391 . S
C910 C911 1.400 . S
C911 C910 1.400 . S
C911 C912 1.398 . S
C911 C917 1.491 . S
C912 H903 0.950 . S
C912 C911 1.398 . S
C912 C913 1.391 . S
C913 H901 0.950 . S
C913 C909 1.393 . S
C913 C912 1.391 . S
C914 H904 0.950 . S
C914 C915 1.386 . S
C914 C916 1.391 . S
C915 C914 1.386 . S
C915 C919 1.393 . S
C916 H905 0.950 . S
C916 C914 1.391 . S
C916 C917 1.400 . S
C917 C911 1.491 . S
C917 C916 1.400 . S
C917 C918 1.398 . S
C918 H906 0.950 . S
C918 C917 1.398 . S
C918 C919 1.391 . S
C919 H907 0.950 . S
C919 C915 1.393 . S
C919 C918 1.391 . S
H920 C928 0.950 . S
H921 C933 0.950 . S
H922 C930 0.950 . S
H923 C932 0.950 . S
H924 C934 0.950 . S
H925 C936 0.950 . S
H926 C938 0.950 . S
H927 C939 0.950 . S
C928 H920 0.950 . S
C928 C929 1.386 . S
C928 C930 1.391 . S
C929 C928 1.386 . S
C929 C933 1.393 . S
C930 H922 0.950 . S
C930 C928 1.391 . S
C930 C931 1.400 . S
C931 C930 1.400 . S
C931 C932 1.398 . S
C931 C937 1.491 . S
C932 H923 0.950 . S
C932 C931 1.398 . S
C932 C933 1.391 . S
C933 H921 0.950 . S
C933 C929 1.393 . S
C933 C932 1.391 . S
C934 H924 0.950 . S
C934 C935 1.386 . S
C934 C936 1.391 . S
C935 C934 1.386 . S
C935 C939 1.393 . S
C936 H925 0.950 . S
C936 C934 1.391 . S
C936 C937 1.400 . S
C937 C931 1.491 . S
C937 C936 1.400 . S
C937 C938 1.398 . S
C938 H926 0.950 . S
C938 C937 1.398 . S
C938 C939 1.391 . S
C939 H927 0.950 . S
C939 C935 1.393 . S
C939 C938 1.391 . S
H940 C948 0.950 . S
H941 C953 0.950 . S
H942 C950 0.950 . S
H943 C952 0.950 . S
H944 C954 0.950 . S
H945 C956 0.950 . S
H946 C958 0.950 . S
H947 C959 0.950 . S
C948 H940 0.950 . S
C948 C949 1.386 . S
C948 C950 1.391 . S
C949 C948 1.386 . S
C949 C953 1.393 . S
C950 H942 0.950 . S
C950 C948 1.391 . S
C950 C951 1.400 . S
C951 C950 1.400 . S
C951 C952 1.398 . S
C951 C957 1.491 . S
C952 H943 0.950 . S
C952 C951 1.398 . S
C952 C953 1.391 . S
C953 H941 0.950 . S
C953 C949 1.393 . S
C953 C952 1.391 . S
C954 H944 0.950 . S
C954 C955 1.386 . S
C954 C956 1.391 . S
C955 C954 1.386 . S
C955 C959 1.393 . S
C956 H945 0.950 . S
C956 C954 1.391 . S
C956 C957 1.400 . S
C957 C951 1.491 . S
C957 C956 1.400 . S
C957 C958 1.398 . S
C958 H946 0.950 . S
C958 C957 1.398 . S
C958 C959 1.391 . S
C959 H947 0.950 . S
C959 C955 1.393 . S
C959 C958 1.391 . S
H960 C968 0.950 . S
H961 C973 0.950 . S
H962 C970 0.950 . S
H963 C972 0.950 . S
H964 C974 0.950 . S
H965 C976 0.950 . S
H966 C978 0.950 . S
H967 C979 0.950 . S
C968 H960 0.950 . S
C968 C969 1.386 . S
C968 C970 1.391 . S
C969 C968 1.386 . S
C969 C973 1.393 . S
C970 H962 0.950 . S
C970 C968 1.391 . S
C970 C971 1.400 . S
C971 C970 1.400 . S
C971 C972 1.398 . S
C971 C977 1.491 . S
C972 H963 0.950 . S
C972 C971 1.398 . S
C972 C973 1.391 . S
C973 H961 0.950 . S
C973 C969 1.393 . S
C973 C972 1.391 . S
C974 H964 0.950 . S
C974 C975 1.386 . S
C974 C976 1.391 . S
C975 C974 1.386 . S
C975 C979 1.393 . S
C976 H965 0.950 . S
C976 C974 1.391 . S
C976 C977 1.400 . S
C977 C971 1.491 . S
C977 C976 1.400 . S
C977 C978 1.398 . S
C978 H966 0.950 . S
C978 C977 1.398 . S
C978 C979 1.391 . S
C979 H967 0.950 . S
C979 C975 1.393 . S
C979 C978 1.391 . S
H980 C988 0.950 . S
H981 C993 0.950 . S
H982 C990 0.950 . S
H983 C992 0.950 . S
H984 C994 0.950 . S
H985 C996 0.950 . S
H986 C998 0.950 . S
H987 C999 0.950 . S
C988 H980 0.950 . S
C988 C989 1.386 . S
C988 C990 1.391 . S
C989 C988 1.386 . S
C989 C993 1.393 . S
C990 H982 0.950 . S
C990 C988 1.391 . S
C990 C991 1.400 . S
C991 C990 1.400 . S
C991 C992 1.398 . S
C991 C997 1.491 . S
C992 H983 0.950 . S
C992 C991 1.398 . S
C992 C993 1.391 . S
C993 H981 0.950 . S
C993 C989 1.393 . S
C993 C992 1.391 . S
C994 H984 0.950 . S
C994 C995 1.386 . S
C994 C996 1.391 . S
C995 C994 1.386 . S
C995 C999 1.393 . S
C996 H985 0.950 . S
C996 C994 1.391 . S
C996 C997 1.400 . S
C997 C991 1.491 . S
C997 C996 1.400 . S
C997 C998 1.398 . S
C998 H986 0.950 . S
C998 C997 1.398 . S
C998 C999 1.391 . S
C999 H987 0.950 . S
C999 C995 1.393 . S
C999 C998 1.391 . S
H1000 C1008 0.950 . S
H1001 C1013 0.950 . S
H1002 C1010 0.950 . S
H1003 C1012 0.950 . S
H1004 C1014 0.950 . S
H1005 C1016 0.950 . S
H1006 C1018 0.950 . S
H1007 C1019 0.950 . S
C1008 H1000 0.950 . S
C1008 C1009 1.386 . S
C1008 C1010 1.391 . S
C1009 C1008 1.386 . S
C1009 C1013 1.393 . S
C1010 H1002 0.950 . S
C1010 C1008 1.391 . S
C1010 C1011 1.400 . S
C1011 C1010 1.400 . S
C1011 C1012 1.398 . S
C1011 C1017 1.491 . S
C1012 H1003 0.950 . S
C1012 C1011 1.398 . S
C1012 C1013 1.391 . S
C1013 H1001 0.950 . S
C1013 C1009 1.393 . S
C1013 C1012 1.391 . S
C1014 H1004 0.950 . S
C1014 C1015 1.386 . S
C1014 C1016 1.391 . S
C1015 C1014 1.386 . S
C1015 C1019 1.393 . S
C1016 H1005 0.950 . S
C1016 C1014 1.391 . S
C1016 C1017 1.400 . S
C1017 C1011 1.491 . S
C1017 C1016 1.400 . S
C1017 C1018 1.398 . S
C1018 H1006 0.950 . S
C1018 C1017 1.398 . S
C1018 C1019 1.391 . S
C1019 H1007 0.950 . S
C1019 C1015 1.393 . S
C1019 C1018 1.391 . S
H1020 C1028 0.950 . S
H1021 C1033 0.950 . S
H1022 C1030 0.950 . S
H1023 C1032 0.950 . S
H1024 C1034 0.950 . S
H1025 C1036 0.950 . S
H1026 C1038 0.950 . S
H1027 C1039 0.950 . S
C1028 H1020 0.950 . S
C1028 C1029 1.386 . S
C1028 C1030 1.391 . S
C1029 C1028 1.386 . S
C1029 C1033 1.393 . S
C1030 H1022 0.950 . S
C1030 C1028 1.391 . S
C1030 C1031 1.400 . S
C1031 C1030 1.400 . S
C1031 C1032 1.398 . S
C1031 C1037 1.491 . S
C1032 H1023 0.950 . S
C1032 C1031 1.398 . S
C1032 C1033 1.391 . S
C1033 H1021 0.950 . S
C1033 C1029 1.393 . S
C1033 C1032 1.391 . S
C1034 H1024 0.950 . S
C1034 C1035 1.386 . S
C1034 C1036 1.391 . S
C1035 C1034 1.386 . S
C1035 C1039 1.393 . S
C1036 H1025 0.950 . S
C1036 C1034 1.391 . S
C1036 C1037 1.400 . S
C1037 C1031 1.491 . S
C1037 C1036 1.400 . S
C1037 C1038 1.398 . S
C1038 H1026 0.950 . S
C1038 C1037 1.398 . S
C1038 C1039 1.391 . S
C1039 H1027 0.950 . S
C1039 C1035 1.393 . S
C1039 C1038 1.391 . S
H1040 C1048 0.950 . S
H1041 C1053 0.950 . S
H1042 C1050 0.950 . S
H1043 C1052 0.950 . S
H1044 C1054 0.950 . S
H1045 C1056 0.950 . S
H1046 C1058 0.950 . S
H1047 C1059 0.950 . S
C1048 H1040 0.950 . S
C1048 C1049 1.386 . S
C1048 C1050 1.391 . S
C1049 C1048 1.386 . S
C1049 C1053 1.393 . S
C1050 H1042 0.950 . S
C1050 C1048 1.391 . S
C1050 C1051 1.400 . S
C1051 C1050 1.400 . S
C1051 C1052 1.398 . S
C1051 C1057 1.491 . S
C1052 H1043 0.950 . S
C1052 C1051 1.398 . S
C1052 C1053 1.391 . S
C1053 H1041 0.950 . S
C1053 C1049 1.393 . S
C1053 C1052 1.391 . S
C1054 H1044 0.950 . S
C1054 C1055 1.386 . S
C1054 C1056 1.391 . S
C1055 C1054 1.386 . S
C1055 C1059 1.393 . S
C1056 H1045 0.950 . S
C1056 C1054 1.391 . S
C1056 C1057 1.400 . S
C1057 C1051 1.491 . S
C1057 C1056 1.400 . S
C1057 C1058 1.398 . S
C1058 H1046 0.950 . S
C1058 C1057 1.398 . S
C1058 C1059 1.391 . S
C1059 H1047 0.950 . S
C1059 C1055 1.393 . S
C1059 C1058 1.391 . S
H1060 C1068 0.950 . S
H1061 C1073 0.950 . S
H1062 C1070 0.950 . S
H1063 C1072 0.950 . S
H1064 C1074 0.950 . S
H1065 C1076 0.950 . S
H1066 C1078 0.950 . S
H1067 C1079 0.950 . S
C1068 H1060 0.950 . S
C1068 C1069 1.386 . S
C1068 C1070 1.391 . S
C1069 C1068 1.386 . S
C1069 C1073 1.393 . S
C1070 H1062 0.950 . S
C1070 C1068 1.391 . S
C1070 C1071 1.400 . S
C1071 C1070 1.400 . S
C1071 C1072 1.398 . S
C1071 C1077 1.491 . S
C1072 H1063 0.950 . S
C1072 C1071 1.398 . S
C1072 C1073 1.391 . S
C1073 H1061 0.950 . S
C1073 C1069 1.393 . S
C1073 C1072 1.391 . S
C1074 H1064 0.950 . S
C1074 C1075 1.386 . S
C1074 C1076 1.391 . S
C1075 C1074 1.386 . S
C1075 C1079 1.393 . S
C1076 H1065 0.950 . S
C1076 C1074 1.391 . S
C1076 C1077 1.400 . S
C1077 C1071 1.491 . S
C1077 C1076 1.400 . S
C1077 C1078 1.398 . S
C1078 H1066 0.950 . S
C1078 C1077 1.398 . S
C1078 C1079 1.391 . S
C1079 H1067 0.950 . S
C1079 C1075 1.393 . S
C1079 C1078 1.391 . S
H1080 C1088 0.950 . S
H1081 C1093 0.950 . S
H1082 C1090 0.950 . S
H1083 C1092 0.950 . S
H1084 C1094 0.950 . S
H1085 C1096 0.950 . S
H1086 C1098 0.950 . S
H1087 C1099 0.950 . S
C1088 H1080 0.950 . S
C1088 C1089 1.386 . S
C1088 C1090 1.391 . S
C1089 C1088 1.386 . S
C1089 C1093 1.393 . S
C1090 H1082 0.950 . S
C1090 C1088 1.391 . S
C1090 C1091 1.400 . S
C1091 C1090 1.400 . S
C1091 C1092 1.398 . S
C1091 C1097 1.491 . S
C1092 H1083 0.950 . S
C1092 C1091 1.398 . S
C1092 C1093 1.391 . S
C1093 H1081 0.950 . S
C1093 C1089 1.393 . S
C1093 C1092 1.391 . S
C1094 H1084 0.950 . S
C1094 C1095 1.386 . S
C1094 C1096 1.391 . S
C1095 C1094 1.386 . S
C1095 C1099 1.393 . S
C1096 H1085 0.950 . S
C1096 C1094 1.391 . S
C1096 C1097 1.400 . S
C1097 C1091 1.491 . S
C1097 C1096 1.400 . S
C1097 C1098 1.398 . S
C1098 H1086 0.950 . S
C1098 C1097 1.398 . S
C1098 C1099 1.391 . S
C1099 H1087 0.950 . S
C1099 C1095 1.393 . S
C1099 C1098 1.391 . S
H1100 C1108 0.950 . S
H1101 C1113 0.950 . S
H1102 C1110 0.950 . S
H1103 C1112 0.950 . S
H1104 C1114 0.950 . S
H1105 C1116 0.950 . S
H1106 C1118 0.950 . S
H1107 C1119 0.950 . S
C1108 H1100 0.950 . S
C1108 C1109 1.386 . S
C1108 C1110 1.391 . S
C1109 C1108 1.386 . S
C1109 C1113 1.393 . S
C1110 H1102 0.950 . S
C1110 C1108 1.391 . S
C1110 C1111 1.400 . S
C1111 C1110 1.400 . S
C1111 C1112 1.398 . S
C1111 C1117 1.491 . S
C1112 H1103 0.950 . S
C1112 C1111 1.398 . S
C1112 C1113 1.391 . S
C1113 H1101 0.950 . S
C1113 C1109 1.393 . S
C1113 C1112 1.391 . S
C1114 H1104 0.950 . S
C1114 C1115 1.386 . S
C1114 C1116 1.391 . S
C1115 C1114 1.386 . S
C1115 C1119 1.393 . S
C1116 H1105 0.950 . S
C1116 C1114 1.391 . S
C1116 C1117 1.400 . S
C1117 C1111 1.491 . S
C1117 C1116 1.400 . S
C1117 C1118 1.398 . S
C1118 H1106 0.950 . S
C1118 C1117 1.398 . S
C1118 C1119 1.391 . S
C1119 H1107 0.950 . S
C1119 C1115 1.393 . S
C1119 C1118 1.391 . S
C649 C1 1.145 . S
C655 C486 1.249 . S
C669 C80 0.916 . S
C675 C535 0.939 . S
C695 C570 2.482 . S
C689 C140 2.489 . S
C709 C211 2.378 . S
C715 C609 2.350 . S
C735 C530 2.461 . S
C729 C31 2.201 . S
C755 C489 0.801 . S
C749 C61 0.799 . S
C775 C619 1.883 . S
C769 C151 1.915 . S
C795 C578 1.617 . S
C789 C200 1.632 . S
C809 C20 1.619 . S
C815 C606 1.709 . S
C835 C538 2.326 . S
C829 C121 2.414 . S
C849 C181 2.316 . S
C855 C499 2.338 . S
C869 C91 0.834 . S
C875 C575 0.846 . S
C895 C495 1.258 . S
C889 C260 1.169 . S
C909 C320 0.894 . S
C915 C526 0.928 . S
C929 C361 2.492 . S
C935 C579 2.477 . S
C949 C451 2.385 . S
C955 C618 2.361 . S
C969 C271 2.280 . S
C975 C539 2.462 . S
C995 C498 0.851 . S
C989 C301 0.856 . S
C1015 C610 1.892 . S
C1009 C380 1.907 . S
C1035 C569 1.611 . S
C1029 C440 1.625 . S
C1049 C241 1.557 . S
C1055 C615 1.720 . S
C1075 C529 2.336 . S
C1069 C391 2.403 . S
C1095 C490 2.339 . S
C1089 C421 2.305 . S
C1109 C331 0.833 . S
C1115 C566 0.843 . S
