# Generated by pormake.
# Topology pyr, (3,6)-cn, num edge types: 1
# Building blocks:
#     Node 0, Type 0, BuildingBlock: CUQRIR_clean_linker_1, # of connection points: 3
#     Node 1, Type 0, BuildingBlock: CUQRIR_clean_linker_1, # of connection points: 3
#     Node 2, Type 0, BuildingBlock: CUQRIR_clean_linker_1, # of connection points: 3
#     Node 3, Type 0, BuildingBlock: CUQRIR_clean_linker_1, # of connection points: 3
#     Node 4, Type 0, BuildingBlock: CUQRIR_clean_linker_1, # of connection points: 3
#     Node 5, Type 0, BuildingBlock: CUQRIR_clean_linker_1, # of connection points: 3
#     Node 6, Type 0, BuildingBlock: CUQRIR_clean_linker_1, # of connection points: 3
#     Node 7, Type 0, BuildingBlock: CUQRIR_clean_linker_1, # of connection points: 3
#     Node 8, Type 1, BuildingBlock: PAMTOO_clean_sbu_0, # of connection points: 6
#     Node 9, Type 1, BuildingBlock: PAMTOO_clean_sbu_0, # of connection points: 6
#     Node 10, Type 1, BuildingBlock: PAMTOO_clean_sbu_0, # of connection points: 6
#     Node 11, Type 1, BuildingBlock: PAMTOO_clean_sbu_0, # of connection points: 6
#     Edge 12, Type (0, 1), BuildingBlock: TEMPAE_clean_linker_10, # of connection points: 2
#     Edge 13, Type (0, 1), BuildingBlock: TEMPAE_clean_linker_10, # of connection points: 2
#     Edge 14, Type (0, 1), BuildingBlock: TEMPAE_clean_linker_10, # of connection points: 2
#     Edge 15, Type (0, 1), BuildingBlock: TEMPAE_clean_linker_10, # of connection points: 2
#     Edge 16, Type (0, 1), BuildingBlock: TEMPAE_clean_linker_10, # of connection points: 2
#     Edge 17, Type (0, 1), BuildingBlock: TEMPAE_clean_linker_10, # of connection points: 2
#     Edge 18, Type (0, 1), BuildingBlock: TEMPAE_clean_linker_10, # of connection points: 2
#     Edge 19, Type (0, 1), BuildingBlock: TEMPAE_clean_linker_10, # of connection points: 2
#     Edge 20, Type (0, 1), BuildingBlock: TEMPAE_clean_linker_10, # of connection points: 2
#     Edge 21, Type (0, 1), BuildingBlock: TEMPAE_clean_linker_10, # of connection points: 2
#     Edge 22, Type (0, 1), BuildingBlock: TEMPAE_clean_linker_10, # of connection points: 2
#     Edge 23, Type (0, 1), BuildingBlock: TEMPAE_clean_linker_10, # of connection points: 2
#     Edge 24, Type (0, 1), BuildingBlock: TEMPAE_clean_linker_10, # of connection points: 2
#     Edge 25, Type (0, 1), BuildingBlock: TEMPAE_clean_linker_10, # of connection points: 2
#     Edge 26, Type (0, 1), BuildingBlock: TEMPAE_clean_linker_10, # of connection points: 2
#     Edge 27, Type (0, 1), BuildingBlock: TEMPAE_clean_linker_10, # of connection points: 2
#     Edge 28, Type (0, 1), BuildingBlock: TEMPAE_clean_linker_10, # of connection points: 2
#     Edge 29, Type (0, 1), BuildingBlock: TEMPAE_clean_linker_10, # of connection points: 2
#     Edge 30, Type (0, 1), BuildingBlock: TEMPAE_clean_linker_10, # of connection points: 2
#     Edge 31, Type (0, 1), BuildingBlock: TEMPAE_clean_linker_10, # of connection points: 2
#     Edge 32, Type (0, 1), BuildingBlock: TEMPAE_clean_linker_10, # of connection points: 2
#     Edge 33, Type (0, 1), BuildingBlock: TEMPAE_clean_linker_10, # of connection points: 2
#     Edge 34, Type (0, 1), BuildingBlock: TEMPAE_clean_linker_10, # of connection points: 2
#     Edge 35, Type (0, 1), BuildingBlock: TEMPAE_clean_linker_10, # of connection points: 2
# Relax obj value: 0.190
# Max RMSD: 0.275
# Mean RMSD: 0.167
data_MOF--net-pyr--node1-PAMTOO_clean_sbu_0--node2-CUQRIR_clean_linker_1--edge1-TEMPAE_clean_linker_10
_symmetry_space_group_name_H-M    P1
_symmetry_Int_Tables_number       1
_symmetry_cell_setting            triclinic
loop_
_symmetry_equiv_pos_as_xyz
'x, y, z'
_cell_length_a     34.671768
_cell_length_b     36.706353
_cell_length_c     35.808723
_cell_angle_alpha  89.197431
_cell_angle_beta   90.926474
_cell_angle_gamma 107.7197
loop_
_atom_site_label
_atom_site_type_symbol
_atom_site_fract_x
_atom_site_fract_y
_atom_site_fract_z
_atom_type_partial_charge
C0 C 0.37498 0.37599 0.2418 0.0
N1 N 0.39589 0.35052 0.24636 0.0
N2 N 0.37914 0.39073 0.20668 0.0
C3 C 0.34437 0.38121 0.26912 0.0
C4 C 0.40339 0.37311 0.19002 0.0
N5 N 0.41338 0.34843 0.21405 0.0
C6 C 0.41678 0.38004 0.15015 0.0
H7 H 0.31374 0.37221 0.25599 0.0
H8 H 0.3517 0.41193 0.27609 0.0
H9 H 0.34358 0.36479 0.29543 0.0
H10 H 0.41885 0.40972 0.14146 0.0
H11 H 0.3942 0.36019 0.1317 0.0
H12 H 0.44654 0.37513 0.14657 0.0
C13 C 0.16345 0.80446 0.72455 0.0
N14 N 0.15741 0.83221 0.74607 0.0
N15 N 0.18757 0.78672 0.74244 0.0
C16 C 0.15002 0.79799 0.68436 0.0
C17 C 0.19575 0.80461 0.77575 0.0
N18 N 0.17766 0.83234 0.77787 0.0
C19 C 0.22656 0.799 0.80362 0.0
H20 H 0.15552 0.77199 0.6732 0.0
H21 H 0.16668 0.82326 0.66739 0.0
H22 H 0.11728 0.7949 0.6817 0.0
H23 H 0.25723 0.81023 0.79151 0.0
H24 H 0.22082 0.7681 0.80955 0.0
H25 H 0.22591 0.81378 0.8303 0.0
C26 C 0.60921 0.37179 0.8693 0.0
N27 N 0.63268 0.36944 0.89957 0.0
N28 N 0.62546 0.40491 0.84988 0.0
C29 C 0.57039 0.34191 0.85854 0.0
C30 C 0.6597 0.42255 0.8695 0.0
N31 N 0.66414 0.40118 0.89955 0.0
C32 C 0.6881 0.46147 0.86013 0.0
H33 H 0.56904 0.31331 0.86986 0.0
H34 H 0.56676 0.34047 0.8277 0.0
H35 H 0.54466 0.35002 0.87004 0.0
H36 H 0.67188 0.47923 0.84518 0.0
H37 H 0.71221 0.45806 0.84177 0.0
H38 H 0.70267 0.47649 0.88578 0.0
C39 C 0.84728 0.68248 0.36017 0.0
N40 N 0.88168 0.70988 0.34929 0.0
N41 N 0.83289 0.69212 0.39235 0.0
C42 C 0.82857 0.64535 0.34016 0.0
C43 C 0.85969 0.72641 0.4009 0.0
N44 N 0.88954 0.73737 0.37515 0.0
C45 C 0.85576 0.7501 0.43391 0.0
H46 H 0.80969 0.62323 0.35925 0.0
H47 H 0.85231 0.63466 0.32806 0.0
H48 H 0.80907 0.65023 0.31695 0.0
H49 H 0.82401 0.74256 0.44347 0.0
H50 H 0.86622 0.78106 0.42712 0.0
H51 H 0.87494 0.74487 0.45722 0.0
C52 C 0.64571 0.80791 0.93594 0.0
N53 N 0.67177 0.80246 0.91047 0.0
N54 N 0.62408 0.83003 0.92147 0.0
C55 C 0.64616 0.79713 0.97653 0.0
C56 C 0.63834 0.83807 0.88642 0.0
N57 N 0.66744 0.82156 0.87977 0.0
C58 C 0.6269 0.86568 0.86036 0.0
H59 H 0.64985 0.76826 0.97965 0.0
H60 H 0.61791 0.79767 0.99032 0.0
H61 H 0.67234 0.81787 0.99057 0.0
H62 H 0.6456 0.89524 0.86717 0.0
H63 H 0.59462 0.86382 0.86398 0.0
H64 H 0.63219 0.85982 0.83087 0.0
C65 C 0.86821 0.32752 0.45643 0.0
N66 N 0.88348 0.31238 0.42804 0.0
N67 N 0.84627 0.34986 0.44312 0.0
C68 C 0.86955 0.31585 0.49674 0.0
C69 C 0.84906 0.34783 0.40561 0.0
N70 N 0.87111 0.32468 0.39627 0.0
C71 C 0.82393 0.36276 0.37821 0.0
H72 H 0.85547 0.28445 0.49949 0.0
H73 H 0.85362 0.33074 0.51487 0.0
H74 H 0.90148 0.32262 0.50639 0.0
H75 H 0.83656 0.36515 0.34968 0.0
H76 H 0.8225 0.39117 0.38702 0.0
H77 H 0.79259 0.34283 0.37757 0.0
C78 C 0.34539 0.68869 0.26716 0.0
N79 N 0.37744 0.71553 0.28304 0.0
N80 N 0.33509 0.70095 0.23372 0.0
C81 C 0.32518 0.64954 0.2833 0.0
C82 C 0.36193 0.73612 0.22947 0.0
N83 N 0.388 0.74507 0.25904 0.0
C84 C 0.36085 0.76324 0.19773 0.0
H85 H 0.30983 0.62923 0.26112 0.0
H86 H 0.30207 0.65148 0.3036 0.0
H87 H 0.34757 0.63828 0.29813 0.0
H88 H 0.36163 0.79146 0.20891 0.0
H89 H 0.33346 0.75266 0.17982 0.0
H90 H 0.38812 0.76753 0.18036 0.0
C91 C 0.11025 0.36987 0.76874 0.0
N92 N 0.13311 0.36585 0.73921 0.0
N93 N 0.12645 0.40428 0.786 0.0
C94 C 0.06992 0.34179 0.77828 0.0
C95 C 0.1601 0.42094 0.76543 0.0
N96 N 0.16381 0.39814 0.73695 0.0
C97 C 0.19159 0.45819 0.77488 0.0
H98 H 0.0495 0.3566 0.79023 0.0
H99 H 0.07457 0.32091 0.79922 0.0
H100 H 0.05515 0.32582 0.75317 0.0
H101 H 0.19233 0.46385 0.80527 0.0
H102 H 0.1844 0.48181 0.7595 0.0
H103 H 0.22212 0.45794 0.7663 0.0
Dy104 Dy 0.0735 0.06806 0.51862 0.0
Dy105 Dy 0.98751 0.0431 0.56257 0.0
C106 C 0.05532 0.12356 0.58162 0.0
O107 O 0.07299 1.01854 0.55598 0.0
O108 O 0.0316 1.02834 0.60096 0.0
O109 O 0.13891 0.08248 0.52123 0.0
O110 O 0.10721 0.07599 0.46773 0.0
O111 O 0.98897 0.9905 0.53088 0.0
O112 O 0.03221 1.02027 0.48467 0.0
O113 O 0.97716 0.07496 0.51207 0.0
O114 O 0.04254 0.1102 0.49852 0.0
O115 O 0.92344 1.01219 0.56278 0.0
O116 O 0.95226 0.04457 0.61115 0.0
C117 C 0.05931 1.01347 0.59019 0.0
O118 O 0.08268 0.11072 0.56564 0.0
O119 O 0.01638 0.10481 0.57851 0.0
C120 C 0.1743 0.11841 0.4699 0.0
C121 C 0.23766 0.17507 0.43487 0.0
C122 C 0.24613 0.15179 0.46338 0.0
C123 C 0.21471 0.12362 0.4806 0.0
C124 C 0.16562 0.14264 0.44254 0.0
C125 C 0.19697 0.17054 0.42512 0.0
C126 C 0.14226 0.0855 0.48499 0.0
C127 C 1.00469 0.98978 0.49771 0.0
C128 C 1.00329 0.10459 0.49632 0.0
C129 C 0.89822 0.98778 0.6224 0.0
C130 C 0.85223 0.93018 0.67105 0.0
C131 C 0.84113 0.93083 0.63314 0.0
C132 C 0.86378 0.95945 0.60913 0.0
C133 C 0.91026 0.98624 0.65992 0.0
C134 C 0.88752 0.95779 0.68395 0.0
C135 C 0.91964 1.01997 0.59771 0.0
H136 H 0.27705 0.15486 0.47194 0.0
H137 H 0.22207 0.10517 0.50161 0.0
H138 H 0.13473 0.13928 0.43366 0.0
H139 H 0.18926 0.18749 0.40289 0.0
H140 H 0.81437 0.90973 0.62222 0.0
H141 H 0.85377 0.95996 0.58036 0.0
H142 H 0.93657 1.00768 0.67115 0.0
H143 H 0.89662 0.95858 0.71307 0.0
Dy144 Dy 0.47485 0.06335 0.09543 0.0
Dy145 Dy 0.56645 0.07719 0.13034 0.0
C146 C 0.49195 1.00647 0.15798 0.0
O147 O 0.47964 0.09574 0.14858 0.0
O148 O 0.54737 0.1273 0.14754 0.0
O149 O 0.40965 0.0403 0.10023 0.0
O150 O 0.43607 0.07684 0.05341 0.0
O151 O 0.57665 0.11663 0.08024 0.0
O152 O 0.51205 0.12045 0.07284 0.0
O153 O 0.55145 1.02395 0.09685 0.0
O154 O 0.50451 0.03422 0.05552 0.0
O155 O 0.62841 0.07825 0.12316 0.0
O156 O 0.60658 0.08572 0.17831 0.0
C157 C 0.5105 0.1255 0.15716 0.0
O158 O 0.47216 1.00908 0.12684 0.0
O159 O 0.52371 0.0348 0.16847 0.0
C160 C 0.37233 1.03156 0.04244 0.0
C161 C 0.31388 0.98855 0.99119 0.0
C162 C 0.3237 0.97127 1.02386 0.0
C163 C 0.3527 0.99256 0.04926 0.0
C164 C 0.36205 0.0489 1.01021 0.0
C165 C 0.33338 1.02766 0.98479 0.0
C166 C 0.40288 0.05528 0.06846 0.0
C167 C 0.55098 0.13306 0.0655 0.0
C168 C 0.53045 1.01619 0.06562 0.0
C169 C 0.67646 0.11319 0.16758 0.0
C170 C 0.74993 0.16723 0.18952 0.0
C171 C 0.72841 0.17405 0.15781 0.0
C172 C 0.69182 0.14722 0.14695 0.0
C173 C 0.69834 0.10586 0.19837 0.0
C174 C 0.73454 0.13256 0.20934 0.0
C175 C 0.63755 0.08488 0.15845 0.0
H176 H 0.30894 0.94129 1.02984 0.0
H177 H 0.35976 0.97848 0.07406 0.0
H178 H 0.37655 0.079 1.00447 0.0
H179 H 0.32721 0.0418 0.95967 0.0
H180 H 0.73942 0.20037 0.14185 0.0
H181 H 0.67526 0.1533 0.12296 0.0
H182 H 0.68685 0.07974 0.21461 0.0
H183 H 0.74944 0.1266 0.23447 0.0
Dy184 Dy 0.48878 0.5119 0.53676 0.0
Dy185 Dy 0.50237 0.58801 0.58699 0.0
C186 C 0.52978 0.5188 0.61914 0.0
O187 O 0.4259 0.50532 0.55633 0.0
O188 O 0.44445 0.5451 0.60659 0.0
O189 O 0.47076 0.45034 0.53153 0.0
O190 O 0.49822 0.48644 0.48498 0.0
O191 O 0.46448 0.59772 0.53885 0.0
O192 O 0.47518 0.55505 0.49699 0.0
O193 O 0.55494 0.60306 0.54785 0.0
O194 O 0.55548 0.54227 0.53631 0.0
O195 O 0.51756 0.64919 0.59339 0.0
O196 O 0.50182 0.61188 0.64172 0.0
C197 C 0.41748 0.51745 0.58869 0.0
O198 O 0.50413 0.49682 0.59528 0.0
O199 O 0.54072 0.55617 0.6152 0.0
C200 C 0.52178 0.4347 0.4992 0.0
C201 C 0.58993 0.40824 0.49496 0.0
C202 C 0.58801 0.43469 0.52233 0.0
C203 C 0.55427 0.44761 0.5245 0.0
C204 C 0.52293 0.4078 0.47224 0.0
C205 C 0.5567 0.39449 0.47023 0.0
C206 C 0.48892 0.45222 0.49963 0.0
C207 C 0.46402 0.58547 0.50446 0.0
C208 C 0.57282 0.57936 0.53433 0.0
C209 C 0.47612 0.66396 0.63896 0.0
C210 C 0.4101 0.68822 0.66046 0.0
C211 C 0.41796 0.68492 0.62247 0.0
C212 C 0.45048 0.6727 0.61181 0.0
C213 C 0.46921 0.66846 0.67683 0.0
C214 C 0.43644 0.68039 0.68753 0.0
C215 C 0.5071 0.64623 0.62839 0.0
H216 H 0.61317 0.4465 0.54137 0.0
H217 H 0.55406 0.46858 0.54541 0.0
H218 H 0.49818 0.39766 0.45239 0.0
H219 H 0.55694 0.37375 0.44911 0.0
H220 H 0.39873 0.69144 0.60091 0.0
H221 H 0.45484 0.6692 0.58234 0.0
H222 H 0.48837 0.66147 0.6982 0.0
H223 H 0.43101 0.68229 0.71703 0.0
Dy224 Dy 1.00061 0.59291 1.0399 0.0
Dy225 Dy 0.99821 0.51994 0.09361 0.0
C226 C 0.97362 0.5911 0.12676 0.0
O227 O 0.06632 0.60204 0.0548 0.0
O228 O 0.05595 0.56408 0.1074 0.0
O229 O 1.01189 0.65365 1.03079 0.0
O230 O 0.98984 0.61435 0.9855 0.0
O231 O 0.03663 0.51575 0.0441 0.0
O232 O 1.00866 0.54743 1.00167 0.0
O233 O 0.9411 0.50067 0.05975 0.0
O234 O 0.93478 0.55939 0.04456 0.0
O235 O 0.99016 0.45947 0.10056 0.0
O236 O 1.00744 0.49714 0.14791 0.0
C237 C 0.07969 0.59015 0.08587 0.0
O238 O 0.99215 0.61165 0.09816 0.0
O239 O 0.96542 0.55347 0.12696 0.0
C240 C 0.96509 0.66684 0.98854 0.0
C241 C 0.90233 0.69832 0.97057 0.0
C242 C 0.89724 0.67029 0.99883 0.0
C243 C 0.92833 0.65468 1.00771 0.0
C244 C 0.97046 0.69481 0.96045 0.0
C245 C 0.93932 0.71045 0.9515 0.0
C246 C 0.99713 0.64932 0.9969 0.0
C247 C 0.02912 0.52334 1.00917 0.0
C248 C 0.9197 0.52189 0.04621 0.0
C249 C 0.04333 0.45302 0.13994 0.0
C250 C 0.12116 0.44471 0.15102 0.0
C251 C 0.10498 0.44488 0.1148 0.0
C252 C 0.06665 0.44916 0.10931 0.0
C253 C 0.05882 0.45162 0.17619 0.0
C254 C 0.09737 0.44755 0.18171 0.0
C255 C 1.00612 0.46412 0.13409 0.0
H256 H 0.86895 0.65994 1.01367 0.0
H257 H 0.92357 0.63283 1.0293 0.0
H258 H 0.99863 0.70441 0.94532 0.0
H259 H 0.9443 0.73224 0.92985 0.0
H260 H 0.1221 0.44206 0.09057 0.0
H261 H 0.05588 0.45061 0.08093 0.0
H262 H 0.04174 0.45517 0.20021 0.0
H263 H 0.10904 0.4479 0.20998 0.0
C264 C 0.35742 0.28631 0.26672 0.0
C265 C 0.38681 0.321 0.27444 0.0
C266 C 0.34003 0.26085 0.2956 0.0
C267 C 0.35283 0.27047 0.33294 0.0
C268 C 0.3855 0.30383 0.34032 0.0
C269 C 0.40191 0.32906 0.31081 0.0
C270 C 0.30526 0.22567 0.28643 0.0
C271 C 0.40085 0.31444 0.37957 0.0
C272 C 0.26685 0.23734 0.40109 0.0
C273 C 0.27081 0.20225 0.4135 0.0
C274 C 0.29455 0.26068 0.37613 0.0
C275 C 0.32762 0.24907 0.36393 0.0
C276 C 0.3336 0.21517 0.3785 0.0
C277 C 0.30486 0.19191 0.40285 0.0
C278 C 0.28703 0.29666 0.36117 0.0
C279 C 0.36907 0.20242 0.36684 0.0
H280 H 0.34593 0.28065 0.23837 0.0
H281 H 0.42472 0.35614 0.31633 0.0
H282 H 0.30932 0.20011 0.30078 0.0
H283 H 0.27661 0.22944 0.2965 0.0
H284 H 0.30214 0.22019 0.25593 0.0
H285 H 0.43121 0.33621 0.37977 0.0
H286 H 0.37956 0.32644 0.39421 0.0
H287 H 0.40257 0.28887 0.39559 0.0
H288 H 0.24126 0.24604 0.40996 0.0
H289 H 0.30817 0.16477 0.4121 0.0
H290 H 0.28095 0.29403 0.33063 0.0
H291 H 0.31426 0.32167 0.36549 0.0
H292 H 0.26091 0.30244 0.3747 0.0
H293 H 0.36378 0.19103 0.33805 0.0
H294 H 0.37356 0.17966 0.38563 0.0
H295 H 0.39734 0.22689 0.36663 0.0
C296 C 0.16382 0.85743 0.83748 0.0
C297 C 0.18718 0.8619 0.80534 0.0
C298 C 0.17852 0.87999 0.86905 0.0
C299 C 0.21738 0.9075 0.86802 0.0
C300 C 0.23963 0.91386 0.83447 0.0
C301 C 0.22444 0.89054 0.8037 0.0
C302 C 0.15399 0.87219 0.90431 0.0
C303 C 0.28097 0.94311 0.83196 0.0
C304 C 0.25847 0.98163 0.94315 0.0
C305 C 0.28506 0.96579 0.96277 0.0
C306 C 0.23472 0.96227 0.91319 0.0
C307 C 0.23733 0.92608 0.90285 0.0
C308 C 0.26237 0.909 0.92381 0.0
C309 C 0.28606 0.92913 0.95338 0.0
C310 C 0.2084 0.98136 0.89148 0.0
C311 C 0.26577 0.87025 0.91381 0.0
H312 H 0.13544 0.83451 0.83868 0.0
H313 H 0.24285 0.89287 0.77909 0.0
H314 H 0.16777 0.85646 0.92454 0.0
H315 H 0.1541 0.89932 0.91764 0.0
H316 H 0.12214 0.8547 0.89889 0.0
H317 H 0.29177 0.94792 0.80273 0.0
H318 H 0.28052 0.97081 0.84363 0.0
H319 H 0.30309 0.93314 0.84872 0.0
H320 H 0.25688 1.00962 0.9507 0.0
H321 H 0.30673 0.91677 0.96805 0.0
H322 H 0.17743 0.96131 0.88766 0.0
H323 H 0.22114 0.98948 0.86325 0.0
H324 H 0.20629 1.0075 0.90547 0.0
H325 H 0.23523 0.8491 0.91115 0.0
H326 H 0.28359 0.85947 0.9349 0.0
H327 H 0.28069 0.87208 0.88636 0.0
C328 C 0.57221 0.42339 0.81414 0.0
C329 C 0.61071 0.41838 0.81582 0.0
C330 C 0.55868 0.43881 0.78192 0.0
C331 C 0.58416 0.44939 0.75037 0.0
C332 C 0.62282 0.44363 0.75181 0.0
C333 C 0.63558 0.42833 0.78443 0.0
C334 C 0.51738 0.44449 0.78192 0.0
C335 C 0.65098 0.45406 0.71899 0.0
C336 C 0.53641 0.46121 0.65523 0.0
C337 C 0.54497 0.50111 0.65205 0.0
C338 C 0.54912 0.44409 0.68676 0.0
C339 C 0.5708 0.46721 0.71626 0.0
C340 C 0.57977 0.50751 0.71311 0.0
C341 C 0.56693 0.52389 0.68117 0.0
C342 C 0.53914 0.40111 0.68856 0.0
C343 C 0.60266 0.53342 0.74373 0.0
H344 H 0.55311 0.41612 0.83847 0.0
H345 H 0.66524 0.42425 0.78557 0.0
H346 H 0.52048 0.47533 0.7784 0.0
H347 H 0.49896 0.42931 0.758 0.0
H348 H 0.50079 0.43395 0.80815 0.0
H349 H 0.67946 0.44675 0.72401 0.0
H350 H 0.63573 0.43897 0.69363 0.0
H351 H 0.65877 0.48519 0.71309 0.0
H352 H 0.51961 0.44317 0.63304 0.0
H353 H 0.57369 0.55469 0.67931 0.0
H354 H 0.5202 0.38975 0.71329 0.0
H355 H 0.56736 0.39305 0.69191 0.0
H356 H 0.52269 0.3871 0.66316 0.0
H357 H 0.58587 0.52619 0.7703 0.0
H358 H 0.60737 0.56412 0.73716 0.0
H359 H 0.63264 0.529 0.7484 0.0
C360 C 0.88518 0.70421 0.28094 0.0
C361 C 0.90437 0.70693 0.31614 0.0
C362 C 0.89826 0.68766 0.25 0.0
C363 C 0.93193 0.67343 0.25372 0.0
C364 C 0.95312 0.67842 0.2886 0.0
C365 C 0.93895 0.6947 0.31929 0.0
C366 C 0.8742 0.68311 0.21395 0.0
C367 C 0.98955 0.66459 0.29419 0.0
C368 C 0.93683 0.59201 0.18801 0.0
C369 C 0.96295 0.61166 0.15968 0.0
C370 C 0.92675 0.61156 0.21857 0.0
C371 C 0.94355 0.65195 0.22174 0.0
C372 C 0.97042 0.67179 0.19354 0.0
C373 C 0.97944 0.65167 0.16304 0.0
C374 C 0.89758 0.5889 0.24736 0.0
C375 C 0.98973 0.71453 0.19551 0.0
H376 H 0.85776 0.71245 0.27848 0.0
H377 H 0.95326 0.69547 0.34652 0.0
H378 H 0.89451 0.69456 0.19012 0.0
H379 H 0.85918 0.65227 0.20874 0.0
H380 H 0.85062 0.6979 0.21453 0.0
H381 H 1.00556 0.67447 0.32105 0.0
H382 H 0.97983 0.63287 0.29402 0.0
H383 H 1.01112 0.67473 0.27097 0.0
H384 H 0.92374 0.56126 0.1861 0.0
H385 H 0.99992 0.66752 0.14181 0.0
H386 H 0.87086 0.59949 0.24864 0.0
H387 H 0.91224 0.59297 0.27541 0.0
H388 H 0.88696 0.55784 0.24118 0.0
H389 H 0.96599 0.72908 0.19427 0.0
H390 H 1.01126 0.72575 0.17242 0.0
H391 H 1.00617 0.72218 0.22252 0.0
C392 C 0.46153 0.31332 0.23076 0.0
C393 C 0.43287 0.31994 0.20572 0.0
C394 C 0.47741 0.28283 0.22562 0.0
C395 C 0.46486 0.2589 0.19423 0.0
C396 C 0.43675 0.26618 0.16826 0.0
C397 C 0.4206 0.29621 0.17469 0.0
C398 C 0.50656 0.27551 0.25437 0.0
C399 C 0.42291 0.24163 0.13418 0.0
C400 C 0.52647 0.19634 0.1605 0.0
C401 C 0.50235 0.15988 0.17173 0.0
C402 C 0.51528 0.22907 0.16852 0.0
C403 C 0.47969 0.22527 0.18906 0.0
C404 C 0.45656 0.18873 0.20236 0.0
C405 C 0.46784 0.15638 0.19303 0.0
C406 C 0.54024 0.26733 0.1531 0.0
C407 C 0.41896 0.18361 0.22515 0.0
H408 H 0.47072 0.33157 0.25488 0.0
H409 H 0.39732 0.30029 0.15609 0.0
H410 H 0.49311 0.247 0.26755 0.0
H411 H 0.53496 0.27509 0.24082 0.0
H412 H 0.51416 0.29744 0.27663 0.0
H413 H 0.40346 0.25295 0.11525 0.0
H414 H 0.44945 0.23972 0.11833 0.0
H415 H 0.40551 0.21216 0.14287 0.0
H416 H 0.55285 0.19911 0.14353 0.0
H417 H 0.44918 0.12821 0.20176 0.0
H418 H 0.54831 0.28894 0.17557 0.0
H419 H 0.52214 0.27749 0.13183 0.0
H420 H 0.56851 0.26589 0.13991 0.0
H421 H 0.42542 0.20416 0.24858 0.0
H422 H 0.40695 0.15414 0.23673 0.0
H423 H 0.39504 0.18964 0.20742 0.0
C424 C 0.10034 0.85267 0.72284 0.0
C425 C 0.14128 0.8618 0.73289 0.0
C426 C 0.08563 0.8788 0.70267 0.0
C427 C 0.1126 0.91505 0.69291 0.0
C428 C 0.15349 0.92521 0.70517 0.0
C429 C 0.16747 0.89814 0.72451 0.0
C430 C 0.04197 0.86665 0.6897 0.0
C431 C 0.18308 0.96375 0.69588 0.0
C432 C 0.09182 0.96247 0.60323 0.0
C433 C 0.07372 0.98898 0.61658 0.0
C434 C 0.10424 0.93804 0.62784 0.0
C435 C 0.09917 0.94072 0.66678 0.0
C436 C 0.08147 0.96781 0.68048 0.0
C437 C 0.06858 0.99139 0.65516 0.0
C438 C 0.12244 0.90907 0.61211 0.0
C439 C 0.07633 0.97198 0.72183 0.0
H440 H 0.08045 0.82424 0.72908 0.0
H441 H 0.19936 0.90462 0.73118 0.0
H442 H 0.02745 0.88875 0.69655 0.0
H443 H 0.0406 0.86356 0.65888 0.0
H444 H 0.02418 0.839 0.70246 0.0
H445 H 0.21198 0.96908 0.71184 0.0
H446 H 0.1899 0.96526 0.66563 0.0
H447 H 0.16979 0.98695 0.70188 0.0
H448 H 0.09555 0.96026 0.57344 0.0
H449 H 0.05479 1.012 0.66564 0.0
H450 H 0.10469 0.87982 0.62118 0.0
H451 H 0.15377 0.91437 0.62301 0.0
H452 H 0.12327 0.90999 0.5811 0.0
H453 H 0.05683 0.94463 0.73373 0.0
H454 H 0.06263 0.9949 0.72798 0.0
H455 H 0.10617 0.9786 0.73632 0.0
C456 C 0.69401 0.42271 0.9615 0.0
C457 C 0.69818 0.41072 0.92526 0.0
C458 C 0.72821 0.43885 0.98447 0.0
C459 C 0.76757 0.44385 0.9705 0.0
C460 C 0.7717 0.43071 0.93417 0.0
C461 C 0.73698 0.41427 0.9121 0.0
C462 C 0.72225 0.45206 1.02306 0.0
C463 C 0.81289 0.43554 0.91793 0.0
C464 C 0.85843 0.52325 1.00803 0.0
C465 C 0.87863 0.50268 1.03008 0.0
C466 C 0.82178 0.50463 0.98933 0.0
C467 C 0.80454 0.46441 0.99291 0.0
C468 C 0.82396 0.44371 1.01628 0.0
C469 C 0.86073 0.46299 1.03438 0.0
C470 C 0.80226 0.52788 0.96463 0.0
C471 C 0.80649 0.40096 1.0213 0.0
H472 H 0.66415 0.42123 0.97116 0.0
H473 H 0.74005 0.4056 0.88378 0.0
H474 H 0.74004 0.4411 0.04399 0.0
H475 H 0.73346 0.48375 1.02399 0.0
H476 H 0.68991 0.4425 1.03124 0.0
H477 H 0.81089 0.42223 0.89001 0.0
H478 H 0.82967 0.46644 0.91521 0.0
H479 H 0.83085 0.42262 0.93689 0.0
H480 H 0.87189 0.55384 1.00433 0.0
H481 H 0.87585 0.44672 0.05144 0.0
H482 H 0.7703 0.52281 0.97272 0.0
H483 H 0.80205 0.51874 0.9352 0.0
H484 H 0.81834 0.55904 0.96614 0.0
H485 H 0.77434 0.39342 1.02974 0.0
H486 H 0.82346 0.38943 0.04259 0.0
H487 H 0.80719 0.3866 0.99437 0.0
C488 C 0.79822 0.66338 0.45038 0.0
C489 C 0.7964 0.67193 0.41223 0.0
C490 C 0.76274 0.64696 0.47098 0.0
C491 C 0.72434 0.63867 0.45299 0.0
C492 C 0.72248 0.64627 0.41413 0.0
C493 C 0.7585 0.66284 0.39428 0.0
C494 C 0.76635 0.63933 0.51221 0.0
C495 C 0.68237 0.63783 0.3937 0.0
C496 C 0.63142 0.56952 0.49939 0.0
C497 C 0.61272 0.59457 0.51529 0.0
C498 C 0.66775 0.58337 0.47938 0.0
C499 C 0.68615 0.62333 0.47501 0.0
C500 C 0.66777 0.64875 0.49145 0.0
C501 C 0.63142 0.63413 0.51129 0.0
C502 C 0.68616 0.55516 0.46246 0.0
C503 C 0.6863 0.69153 0.48769 0.0
H504 H 0.82756 0.67024 0.46419 0.0
H505 H 0.75708 0.66973 0.36487 0.0
H506 H 0.75168 0.65693 0.52838 0.0
H507 H 0.75033 0.60891 0.51881 0.0
H508 H 0.79838 0.64597 0.52172 0.0
H509 H 0.68608 0.64366 0.36323 0.0
H510 H 0.66441 0.60744 0.39798 0.0
H511 H 0.66463 0.65558 0.40516 0.0
H512 H 0.61739 0.5389 0.50213 0.0
H513 H 0.61738 0.65383 0.52329 0.0
H514 H 0.71772 0.56057 0.4728 0.0
H515 H 0.68744 0.55893 0.43166 0.0
H516 H 0.66873 0.52503 0.46907 0.0
H517 H 0.71781 0.70026 0.49881 0.0
H518 H 0.66886 0.7075 0.50272 0.0
H519 H 0.68774 0.70001 0.45776 0.0
C520 C 0.34621 0.44125 0.20278 0.0
C521 C 0.35107 0.40752 0.18879 0.0
C522 C 0.31173 0.45213 0.19355 0.0
C523 C 0.28184 0.42887 0.16936 0.0
C524 C 0.2886 0.39673 0.15245 0.0
C525 C 0.32301 0.38626 0.16266 0.0
C526 C 0.3057 0.48655 0.21226 0.0
C527 C 0.25785 0.37149 0.12606 0.0
C528 C 0.17127 0.41932 0.1855 0.0
C529 C 0.16285 0.44201 0.15658 0.0
C530 C 0.21015 0.41566 0.19042 0.0
C531 C 0.24139 0.43489 0.16562 0.0
C532 C 0.23336 0.45836 0.13675 0.0
C533 C 0.19424 0.46176 0.13266 0.0
C534 C 0.21759 0.39055 0.22179 0.0
C535 C 0.26584 0.47927 0.10979 0.0
H536 H 0.36804 0.45755 0.22301 0.0
H537 H 0.32638 0.35978 0.15243 0.0
H538 H 0.29448 0.50416 0.19193 0.0
H539 H 0.28249 0.4768 0.23423 0.0
H540 H 0.33409 0.50477 0.22551 0.0
H541 H 0.27022 0.35117 0.11126 0.0
H542 H 0.23097 0.35475 0.14201 0.0
H543 H 0.24744 0.38903 0.10503 0.0
H544 H 0.1472 0.40366 0.20386 0.0
H545 H 0.18824 0.47999 0.1107 0.0
H546 H 0.24346 0.4069 0.23949 0.0
H547 H 0.22571 0.36607 0.21008 0.0
H548 H 0.19068 0.37916 0.23976 0.0
H549 H 0.29276 0.49719 0.12526 0.0
H550 H 0.25522 0.49785 0.08999 0.0
H551 H 0.27576 0.4583 0.09351 0.0
C552 C 0.63178 0.30293 0.91299 0.0
C553 C 0.62666 0.33727 0.92514 0.0
C554 C 0.62197 0.26998 0.93608 0.0
C555 C 0.60709 0.27141 0.97256 0.0
C556 C 0.60322 0.30658 0.98534 0.0
C557 C 0.61259 0.33888 0.96134 0.0
C558 C 0.62611 0.23325 0.92086 0.0
C559 C 0.58803 0.30983 1.02402 0.0
C560 C 0.53914 0.17923 1.01725 0.0
C561 C 0.56606 0.16793 1.04116 0.0
C562 C 0.5522 0.21239 0.99468 0.0
C563 C 0.59318 0.23566 0.99632 0.0
C564 C 0.62052 0.22456 1.02055 0.0
C565 C 0.60678 0.19075 0.04234 0.0
C566 C 0.52198 0.2225 0.96894 0.0
C567 C 0.66423 0.24872 1.02384 0.0
H568 H 0.64235 0.30168 0.88487 0.0
H569 H 0.60776 0.36513 0.97046 0.0
H570 H 0.6451 0.22167 0.93998 0.0
H571 H 0.59585 0.21151 0.91911 0.0
H572 H 0.63978 0.2372 0.89267 0.0
H573 H 0.59047 0.33984 1.03108 0.0
H574 H 0.55583 0.29227 1.02608 0.0
H575 H 0.60537 0.2986 0.04515 0.0
H576 H 0.50767 0.16189 1.01589 0.0
H577 H 0.62782 0.18262 0.06091 0.0
H578 H 0.53276 0.22488 0.93973 0.0
H579 H 0.5191 0.25073 0.97656 0.0
H580 H 0.49153 0.20094 0.97005 0.0
H581 H 0.67894 0.25141 0.99623 0.0
H582 H 0.68162 0.23656 0.04419 0.0
H583 H 0.66595 0.27802 1.03276 0.0
C584 C 0.91029 0.80657 0.36293 0.0
C585 C 0.92041 0.77439 0.37617 0.0
C586 C 0.92731 0.84313 0.37901 0.0
C587 C 0.95584 0.84814 0.40893 0.0
C588 C 0.96932 0.81657 0.41958 0.0
C589 C 0.95139 0.78031 0.40329 0.0
C590 C 0.91165 0.87543 0.36638 0.0
C591 C 1.00012 0.82012 0.45063 0.0
C592 C 0.01362 0.94988 0.44283 0.0
C593 C 0.99197 0.95368 0.47477 0.0
C594 C 1.00249 0.91602 0.42136 0.0
C595 C 0.9684 0.88483 0.43141 0.0
C596 C 0.94625 0.88861 0.46345 0.0
C597 C 0.95834 0.9226 0.48468 0.0
C598 C 0.02752 0.9135 0.38798 0.0
C599 C 0.90939 0.85669 0.47526 0.0
H600 H 0.88548 0.80217 0.34299 0.0
H601 H 0.95858 0.75556 0.41455 0.0
H602 H 0.89153 0.88066 0.3881 0.0
H603 H 0.93695 0.90224 0.36272 0.0
H604 H 0.89419 0.86886 0.33973 0.0
H605 H 1.01196 0.7952 0.45182 0.0
H606 H 0.02589 0.84661 0.4471 0.0
H607 H 0.98589 0.82202 0.47777 0.0
H608 H 0.03977 0.97334 0.43473 0.0
H609 H 0.94111 0.9249 0.50905 0.0
H610 H 1.00825 0.9081 0.36238 0.0
H611 H 0.03979 0.88904 0.39161 0.0
H612 H 0.05316 0.94 0.38369 0.0
H613 H 0.88623 0.8509 0.45255 0.0
H614 H 0.89573 0.86356 0.50105 0.0
H615 H 0.91751 0.83001 0.48023 0.0
C616 C 0.23905 0.78465 0.69723 0.0
C617 C 0.21235 0.76669 0.72551 0.0
C618 C 0.26833 0.7688 0.68453 0.0
C619 C 0.27134 0.73454 0.70114 0.0
C620 C 0.24325 0.7154 0.72863 0.0
C621 C 0.21384 0.73173 0.74039 0.0
C622 C 0.29743 0.78986 0.65487 0.0
C623 C 0.24571 0.67896 0.74711 0.0
C624 C 0.33698 0.68427 0.65265 0.0
C625 C 0.37408 0.69905 0.67171 0.0
C626 C 0.30297 0.69501 0.66231 0.0
C627 C 0.30606 0.7208 0.69197 0.0
C628 C 0.3431 0.73512 0.7119 0.0
C629 C 0.37673 0.72422 0.7014 0.0
C630 C 0.26399 0.67935 0.64036 0.0
C631 C 0.34745 0.76259 0.74385 0.0
H632 H 0.23817 0.81209 0.68633 0.0
H633 H 0.19305 0.71813 0.76232 0.0
H634 H 0.32817 0.80161 0.66732 0.0
H635 H 0.29941 0.77 0.63242 0.0
H636 H 0.28834 0.81384 0.64217 0.0
H637 H 0.21928 0.66572 0.76519 0.0
H638 H 0.24757 0.65794 0.7258 0.0
H639 H 0.27367 0.68521 0.76456 0.0
H640 H 0.33448 0.6642 0.63016 0.0
H641 H 0.40537 0.73605 0.71599 0.0
H642 H 0.25596 0.70316 0.62613 0.0
H643 H 0.23885 0.66519 0.65944 0.0
H644 H 0.26616 0.65845 0.61898 0.0
H645 H 0.34312 0.78969 0.73339 0.0
H646 H 0.37761 0.76932 0.75783 0.0
H647 H 0.32377 0.7504 0.76492 0.0
C648 C 0.72009 0.86922 0.84532 0.0
C649 C 0.69594 0.83133 0.84985 0.0
C650 C 0.7469 0.87996 0.81555 0.0
C651 C 0.74956 0.85196 0.78974 0.0
C652 C 0.72639 0.8132 0.79519 0.0
C653 C 0.69982 0.80329 0.82548 0.0
C654 C 0.77147 0.9215 0.81115 0.0
C655 C 0.72867 0.78259 0.7684 0.0
C656 C 0.78319 0.89732 0.69582 0.0
C657 C 0.82514 0.90358 0.69799 0.0
C658 C 0.75768 0.87774 0.72433 0.0
C659 C 0.77456 0.86433 0.75592 0.0
C660 C 0.8164 0.86807 0.75708 0.0
C661 C 0.84123 0.88764 0.72803 0.0
C662 C 0.71313 0.87412 0.72197 0.0
C663 C 0.83544 0.8539 0.79021 0.0
H664 H 0.71759 0.89044 0.8651 0.0
H665 H 0.68132 0.77392 0.82971 0.0
H666 H 0.80412 0.92421 0.80912 0.0
H667 H 0.76241 0.9333 0.7849 0.0
H668 H 0.76737 0.93919 0.8348 0.0
H669 H 0.71194 0.75344 0.77866 0.0
H670 H 0.71558 0.78735 0.74096 0.0
H671 H 0.76067 0.78408 0.76373 0.0
H672 H 0.77045 0.90978 0.67297 0.0
H673 H 0.87351 0.89169 0.72953 0.0
H674 H 0.70619 0.89365 0.74238 0.0
H675 H 0.69454 0.84459 0.72925 0.0
H676 H 0.70394 0.88144 0.69368 0.0
H677 H 0.83705 0.87307 0.81426 0.0
H678 H 0.86657 0.8533 0.78421 0.0
H679 H 0.8168 0.8248 0.79881 0.0
C680 C 0.8278 0.27649 0.35549 0.0
C681 C 0.86503 0.30413 0.36181 0.0
C682 C 0.81898 0.25742 0.32158 0.0
C683 C 0.84767 0.26742 0.2925 0.0
C684 C 0.88555 0.29556 0.29867 0.0
C685 C 0.89391 0.3136 0.33364 0.0
C686 C 0.77848 0.22705 0.31679 0.0
C687 C 0.91642 0.30782 0.26814 0.0
C688 C 0.81617 0.18732 0.22449 0.0
C689 C 0.78526 0.19745 0.20523 0.0
C690 C 0.84143 0.21236 0.25016 0.0
C691 C 0.83619 0.24859 0.25583 0.0
C692 C 0.81008 0.26131 0.23173 0.0
C693 C 0.78442 0.23538 0.20696 0.0
C694 C 0.86945 0.19791 0.27482 0.0
C695 C 0.80511 0.30049 0.23573 0.0
H696 H 0.80559 0.26992 0.37755 0.0
H697 H 0.92231 0.33575 0.33866 0.0
H698 H 0.76003 0.23641 0.29528 0.0
H699 H 0.78284 0.19999 0.30716 0.0
H700 H 0.76105 0.22105 0.34312 0.0
H701 H 0.94712 0.32245 0.27962 0.0
H702 H 0.91772 0.28313 0.25126 0.0
H703 H 0.90761 0.32812 0.24909 0.0
H704 H 0.81821 0.15856 0.22206 0.0
H705 H 0.76118 0.24389 0.19186 0.0
H706 H 0.85464 0.18834 0.30203 0.0
H707 H 0.89814 0.22088 0.28051 0.0
H708 H 0.87657 0.17331 0.2621 0.0
H709 H 0.78483 0.30015 0.25949 0.0
H710 H 0.79152 0.30923 0.21014 0.0
H711 H 0.83468 0.32217 0.24167 0.0
C712 C 0.37194 0.69947 0.35019 0.0
C713 C 0.39629 0.71061 0.31852 0.0
C714 C 0.38443 0.68175 0.38134 0.0
C715 C 0.42307 0.67598 0.38176 0.0
C716 C 0.4493 0.6904 0.35123 0.0
C717 C 0.43544 0.70708 0.31984 0.0
C718 C 0.35487 0.66657 0.41251 0.0
C719 C 0.49127 0.68635 0.35077 0.0
C720 C 0.46015 0.64788 0.47657 0.0
C721 C 0.45292 0.60821 0.47309 0.0
C722 C 0.45191 0.67036 0.4469 0.0
C723 C 0.43465 0.65284 0.41295 0.0
C724 C 0.42684 0.61269 0.40944 0.0
C725 C 0.4367 0.59109 0.43914 0.0
C726 C 0.46206 0.71302 0.4518 0.0
C727 C 0.40744 0.59235 0.3744 0.0
H728 H 0.34158 0.70193 0.34921 0.0
H729 H 0.45422 0.71508 0.29535 0.0
H730 H 0.34614 0.63486 0.41313 0.0
H731 H 0.36909 0.67679 0.43991 0.0
H732 H 0.32697 0.67524 0.40913 0.0
H733 H 0.50998 0.70392 0.32825 0.0
H734 H 0.50689 0.6949 0.37802 0.0
H735 H 0.48919 0.65597 0.34624 0.0
H736 H 0.47327 0.66167 0.50236 0.0
H737 H 0.43098 0.56057 0.43601 0.0
H738 H 0.43406 0.72161 0.45004 0.0
H739 H 0.48207 0.72821 0.42895 0.0
H740 H 0.47737 0.72266 0.479 0.0
H741 H 0.37794 0.59757 0.36904 0.0
H742 H 0.40231 0.561 0.37625 0.0
H743 H 0.42691 0.60386 0.35005 0.0
C744 C 0.11261 0.4588 0.81879 0.0
C745 C 0.11144 0.42011 0.81821 0.0
C746 C 0.10048 0.4752 0.85037 0.0
C747 C 0.0844 0.4522 0.88206 0.0
C748 C 0.08176 0.41278 0.88119 0.0
C749 C 0.09608 0.39757 0.84993 0.0
C750 C 0.10536 0.51749 0.84988 0.0
C751 C 0.06345 0.38645 0.91326 0.0
C752 C 0.08166 0.4989 0.97785 0.0
C753 C 0.04314 0.50413 0.97746 0.0
C754 C 0.09559 0.48257 0.94711 0.0
C755 C 0.06986 0.4693 0.91557 0.0
C756 C 0.03038 0.47336 0.91578 0.0
C757 C 0.01798 0.49139 0.94607 0.0
C758 C 0.13839 0.48052 0.94796 0.0
C759 C 1.00092 0.45835 0.88403 0.0
H760 H 0.12324 0.47651 0.7944 0.0
H761 H 0.09541 0.3679 0.85046 0.0
H762 H 0.07522 0.52208 0.85022 0.0
H763 H 0.12216 0.5311 0.87525 0.0
H764 H 0.12178 0.53217 0.82485 0.0
H765 H 0.0603 0.35608 0.90717 0.0
H766 H 0.08261 0.39486 0.93868 0.0
H767 H 0.03312 0.38888 0.91968 0.0
H768 H 0.1015 0.5088 1.00175 0.0
H769 H 0.98803 0.49487 0.94552 0.0
H770 H 0.15501 0.49594 0.92336 0.0
H771 H 0.13824 0.45035 0.94617 0.0
H772 H 0.15513 0.49313 0.97373 0.0
H773 H 1.01207 0.47479 0.85811 0.0
H774 H 0.97025 0.46035 0.88985 0.0
H775 H 0.99845 0.42801 0.87864 0.0
C776 C 0.63089 0.88797 0.95692 0.0
C777 C 0.60611 0.85359 0.94228 0.0
C778 C 0.61425 0.9128 0.97554 0.0
C779 C 0.57173 0.90274 0.9797 0.0
C780 C 0.54652 0.86781 0.96492 0.0
C781 C 0.56414 0.84359 0.94612 0.0
C782 C 0.64223 0.94975 0.99079 0.0
C783 C 0.50114 0.85604 0.96912 0.0
C784 C 0.54326 0.95358 0.06082 0.0
C785 C 0.53514 0.98469 0.0429 0.0
C786 C 0.55241 0.92516 1.04031 0.0
C787 C 0.55435 0.9284 1.00093 0.0
C788 C 0.54421 0.95879 0.98255 0.0
C789 C 0.53425 0.98648 1.00384 0.0
C790 C 0.56219 0.89284 0.06097 0.0
C791 C 0.54633 0.96336 0.94062 0.0
H792 H 0.66336 0.8954 0.95332 0.0
H793 H 0.54534 0.81697 0.93428 0.0
H794 H 0.63351 0.97439 0.97928 0.0
H795 H 0.6395 0.95012 1.0216 0.0
H796 H 0.67443 0.95382 0.98399 0.0
H797 H 0.48583 0.82821 0.95564 0.0
H798 H 0.49337 0.85375 0.99918 0.0
H799 H 0.48898 0.87817 0.95661 0.0
H800 H 0.54322 0.95185 0.09108 0.0
H801 H 0.52793 1.01056 0.99004 0.0
H802 H 0.59508 0.89656 0.05901 0.0
H803 H 0.5458 0.86498 0.04815 0.0
H804 H 0.5542 0.89174 0.09098 0.0
H805 H 0.57843 0.97125 0.93191 0.0
H806 H 0.53327 0.98584 0.93038 0.0
H807 H 0.53007 0.93598 0.92687 0.0
C808 C 0.88693 0.24683 0.4186 0.0
C809 C 0.90453 0.28409 0.43161 0.0
C810 C 0.9062 0.21863 0.42402 0.0
C811 C 0.9428 0.22729 0.44497 0.0
C812 C 0.96089 0.26501 0.45799 0.0
C813 C 0.94179 0.2931 0.45059 0.0
C814 C 0.88624 0.17907 0.40888 0.0
C815 C 0.99909 0.27518 0.48158 0.0
C816 C 0.95728 0.1442 0.50125 0.0
C817 C 0.98786 0.13533 0.48165 0.0
C818 C 0.94314 0.17454 0.48996 0.0
C819 C 0.95897 0.19585 0.45744 0.0
C820 C 0.98952 0.1867 0.43712 0.0
C821 C 1.00427 0.15693 0.44996 0.0
C822 C 0.91151 0.18403 0.51318 0.0
C823 C 1.00614 0.20801 0.40168 0.0
H824 H 0.85734 0.23912 0.40553 0.0
H825 H 0.95518 0.32193 0.46077 0.0
H826 H 0.90898 0.16761 0.39597 0.0
H827 H 0.87209 0.15945 0.43207 0.0
H828 H 0.86237 0.17888 0.38773 0.0
H829 H 1.01094 0.30635 0.48708 0.0
H830 H 0.99284 0.25973 0.50876 0.0
H831 H 0.02295 0.26603 0.46777 0.0
H832 H 0.94517 0.12801 0.52625 0.0
H833 H 0.02804 0.1501 0.43492 0.0
H834 H 0.88326 0.17973 0.49652 0.0
H835 H 0.92225 0.21455 0.5214 0.0
H836 H 0.90417 0.1661 0.5389 0.0
H837 H 0.98111 0.20561 0.38122 0.0
H838 H 0.02919 0.19693 0.38874 0.0
H839 H 0.02007 0.23885 0.40754 0.0
C840 C 0.30606 0.67445 0.17292 0.0
C841 C 0.30063 0.68299 0.2101 0.0
C842 C 0.27264 0.65937 0.14886 0.0
C843 C 0.23288 0.65295 0.16233 0.0
C844 C 0.22741 0.66126 0.20011 0.0
C845 C 0.26137 0.67604 0.22354 0.0
C846 C 0.27985 0.65047 0.10904 0.0
C847 C 0.18565 0.65486 0.21571 0.0
C848 C 0.14241 0.6455 0.09726 0.0
C849 C 0.12222 0.60618 0.09887 0.0
C850 C 0.17944 0.66111 0.11661 0.0
C851 C 0.19678 0.63669 0.13749 0.0
C852 C 0.17767 0.59669 0.137 0.0
C853 C 0.1406 0.58203 0.11795 0.0
C854 C 0.19876 0.70391 0.11652 0.0
C855 C 0.19529 0.56942 0.15813 0.0
H856 H 0.33659 0.67998 0.16272 0.0
H857 H 0.25743 0.68303 0.25224 0.0
H858 H 0.26453 0.61979 0.10335 0.0
H859 H 0.26658 0.66727 0.08952 0.0
H860 H 0.31259 0.65698 0.10294 0.0
H861 H 0.1866 0.66334 0.24546 0.0
H862 H 0.16937 0.67152 0.19919 0.0
H863 H 0.16781 0.62423 0.21346 0.0
H864 H 0.12811 0.66425 0.08285 0.0
H865 H 0.12517 0.5515 0.11901 0.0
H866 H 0.23132 0.71128 0.10958 0.0
H867 H 0.19688 0.71509 0.14484 0.0
H868 H 0.18375 0.71861 0.09629 0.0
H869 H 0.22719 0.57418 0.14997 0.0
H870 H 0.17795 0.539 0.15306 0.0
H871 H 0.19533 0.57482 0.18854 0.0
C872 C 0.22634 0.39142 0.70916 0.0
C873 C 0.1952 0.40837 0.70898 0.0
C874 C 0.26121 0.40658 0.68714 0.0
C875 C 0.26495 0.43937 0.66417 0.0
C876 C 0.23237 0.45519 0.66258 0.0
C877 C 0.1982 0.43971 0.68513 0.0
C878 C 0.29503 0.38877 0.69005 0.0
C879 C 0.2344 0.48974 0.63843 0.0
C880 C 0.37053 0.50783 0.64362 0.0
C881 C 0.37771 0.498 0.60711 0.0
C882 C 0.3344 0.4888 0.66238 0.0
C883 C 0.304 0.45913 0.64438 0.0
C884 C 0.31078 0.44923 0.60741 0.0
C885 C 0.34745 0.46858 0.58934 0.0
C886 C 0.32885 0.50044 0.70173 0.0
C887 C 0.27919 0.41818 0.58688 0.0
H888 H 0.22431 0.36759 0.72802 0.0
H889 H 0.17424 0.45299 0.68531 0.0
H890 H 0.30459 0.38321 0.66183 0.0
H891 H 0.3217 0.40895 0.70401 0.0
H892 H 0.28613 0.36151 0.70624 0.0
H893 H 0.20508 0.49614 0.63726 0.0
H894 H 0.25794 0.51508 0.64966 0.0
H895 H 0.24316 0.48528 0.60958 0.0
H896 H 0.39347 0.53028 0.65794 0.0
H897 H 0.35241 0.46052 0.56124 0.0
H898 H 0.32345 0.47539 0.72086 0.0
H899 H 0.30186 0.5106 0.70291 0.0
H900 H 0.35556 0.5235 0.71219 0.0
H901 H 0.27267 0.39083 0.60272 0.0
H902 H 0.28884 0.41376 0.55831 0.0
H903 H 0.25047 0.42555 0.58474 0.0
C904 C 0.74434 0.81283 0.92163 0.0
C905 C 0.70505 0.78774 0.91805 0.0
C906 C 0.77717 0.79898 0.92926 0.0
C907 C 0.77028 0.75908 0.93349 0.0
C908 C 0.73046 0.73364 0.92961 0.0
C909 C 0.69822 0.74839 0.92198 0.0
C910 C 0.81909 0.82703 0.93318 0.0
C911 C 0.72192 0.69095 0.93374 0.0
C912 C 0.85913 0.71978 0.92349 0.0
C913 C 0.869 0.71457 0.96094 0.0
C914 C 0.82714 0.73435 0.91411 0.0
C915 C 0.80456 0.74401 0.94287 0.0
C916 C 0.8146 0.73914 0.9807 0.0
C917 C 0.84665 0.72445 0.98927 0.0
C918 C 0.81723 0.73907 0.87344 0.0
C919 C 0.79146 0.74945 1.01215 0.0
H920 H 0.74912 0.84331 0.91876 0.0
H921 H 0.6676 0.72932 0.91905 0.0
H922 H 0.83142 0.82463 0.96158 0.0
H923 H 0.83977 0.82022 0.91297 0.0
H924 H 0.81933 0.85706 0.92838 0.0
H925 H 0.68942 0.67508 0.92903 0.0
H926 H 0.74021 0.68072 0.91359 0.0
H927 H 0.73089 0.68393 0.96218 0.0
H928 H 0.87597 0.71179 0.90147 0.0
H929 H 0.85449 0.72101 1.01825 0.0
H930 H 0.81906 0.76927 0.86739 0.0
H931 H 0.78571 0.72139 0.86711 0.0
H932 H 0.83799 0.73063 0.85445 0.0
H933 H 0.79314 0.78007 1.00992 0.0
H934 H 0.80326 0.74419 1.04008 0.0
H935 H 0.75901 0.7325 1.01008 0.0
C936 C 0.45005 0.79376 0.24003 0.0
C937 C 0.41667 0.7827 0.26384 0.0
C938 C 0.46652 0.83203 0.22787 0.0
C939 C 0.44941 0.8603 0.24001 0.0
C940 C 0.41887 0.85004 0.26756 0.0
C941 C 0.40299 0.81145 0.27916 0.0
C942 C 0.49923 0.8412 0.19883 0.0
C943 C 0.3999 0.87894 0.28191 0.0
C944 C 0.50156 0.96541 0.21283 0.0
C945 C 0.47984 0.96993 0.18043 0.0
C946 C 0.49177 0.93034 0.23284 0.0
C947 C 0.4595 0.89866 0.22031 0.0
C948 C 0.43718 0.90326 0.18792 0.0
C949 C 0.44752 0.93859 0.16856 0.0
C950 C 0.51641 0.927 0.26711 0.0
C951 C 0.40244 0.87062 0.17334 0.0
H952 H 0.46006 0.77158 0.22739 0.0
H953 H 0.37655 0.80302 0.29678 0.0
H954 H 0.48586 0.8449 0.1712 0.0
H955 H 0.52301 0.86838 0.20539 0.0
H956 H 0.51359 0.81809 0.19662 0.0
H957 H 0.38217 0.86858 0.30759 0.0
H958 H 0.42335 0.90649 0.28798 0.0
H959 H 0.37921 0.88457 0.26016 0.0
H960 H 0.52667 0.9892 0.22241 0.0
H961 H 0.43043 0.94143 0.14366 0.0
H962 H 0.53221 0.90536 0.26244 0.0
H963 H 0.49622 0.91702 0.29133 0.0
H964 H 0.53933 0.95458 0.27431 0.0
H965 H 0.41309 0.84573 0.16731 0.0
H966 H 0.38855 0.87845 0.14748 0.0
H967 H 0.37873 0.8615 0.1949 0.0
C968 C 0.11926 0.29584 0.73113 0.0
C969 C 0.12594 0.33244 0.71531 0.0
C970 C 0.10933 0.26263 0.70892 0.0
C971 C 0.10589 0.26562 0.6695 0.0
C972 C 0.11357 0.30272 0.65327 0.0
C973 C 0.12349 0.33553 0.67626 0.0
C974 C 0.10185 0.22415 0.72783 0.0
C975 C 0.11038 0.30771 0.61157 0.0
C976 C 0.10976 0.17981 0.61014 0.0
C977 C 0.06852 0.1604 0.60339 0.0
C978 C 0.12231 0.21405 0.63102 0.0
C979 C 0.09315 0.2299 0.64567 0.0
C980 C 0.05154 0.21072 0.63851 0.0
C981 C 0.03983 0.17647 0.61772 0.0
C982 C 0.16694 0.2331 0.63778 0.0
C983 C 0.01915 0.22625 0.65315 0.0
H984 H 0.12155 0.29321 0.76119 0.0
H985 H 0.1282 0.36356 0.66376 0.0
H986 H 0.07022 0.20623 0.72236 0.0
H987 H 0.12206 0.20896 0.71615 0.0
H988 H 0.10695 0.22658 0.75852 0.0
H989 H 0.11913 0.33832 0.603 0.0
H990 H 0.13005 0.29372 0.59707 0.0
H991 H 0.07881 0.29358 0.60202 0.0
H992 H 0.13243 0.16806 0.59937 0.0
H993 H 1.00791 0.16222 0.61273 0.0
H994 H 0.1737 0.23387 0.6682 0.0
H995 H 0.17564 0.26315 0.62759 0.0
H996 H 0.18598 0.21806 0.62372 0.0
H997 H 0.02063 0.22694 0.68412 0.0
H998 H 0.98824 0.20885 0.64433 0.0
H999 H 0.02438 0.25608 0.64312 0.0
C1000 C 0.7778 0.32727 0.46814 0.0
C1001 C 0.81292 0.35753 0.46116 0.0
C1002 C 0.74161 0.33423 0.47758 0.0
C1003 C 0.74078 0.37244 0.48017 0.0
C1004 C 0.77695 0.40308 0.47536 0.0
C1005 C 0.81265 0.39519 0.46559 0.0
C1006 C 0.70374 0.30077 0.48214 0.0
C1007 C 0.7774 0.44419 0.47831 0.0
C1008 C 0.64244 0.39308 0.45591 0.0
C1009 C 0.62736 0.39674 0.49132 0.0
C1010 C 0.67904 0.38471 0.452 0.0
C1011 C 0.70145 0.38033 0.48426 0.0
C1012 C 0.68629 0.38356 0.52009 0.0
C1013 C 0.6493 0.39143 0.52319 0.0
C1014 C 0.69403 0.38109 0.41326 0.0
C1015 C 0.7094 0.3792 0.5551 0.0
H1016 H 0.77821 0.29821 0.46388 0.0
H1017 H 0.83989 0.41837 0.45958 0.0
H1018 H 0.68778 0.30365 0.50801 0.0
H1019 H 0.68274 0.30031 0.45831 0.0
H1020 H 0.71038 0.273 0.48318 0.0
H1021 H 0.80866 0.46434 0.4781 0.0
H1022 H 0.76018 0.45146 0.45447 0.0
H1023 H 0.76237 0.44843 0.5043 0.0
H1024 H 0.62616 0.39774 0.43111 0.0
H1025 H 0.63763 0.39359 0.55069 0.0
H1026 H 0.6992 0.35289 0.41028 0.0
H1027 H 0.72346 0.40337 0.40868 0.0
H1028 H 0.67237 0.38406 0.39108 0.0
H1029 H 0.71427 0.3507 0.55578 0.0
H1030 H 0.69341 0.38245 0.58089 0.0
H1031 H 0.73972 0.40094 0.55517 0.0
loop_
_geom_bond_atom_site_label_1
_geom_bond_atom_site_label_2
_geom_bond_distance
_geom_bond_site_symmetry_2
_ccdc_geom_bond_type
C0 N1 1.317 . S
C0 N2 1.348 . S
C0 C3 1.485 . S
N1 C0 1.317 . S
N1 N5 1.370 . S
N2 C0 1.348 . S
N2 C4 1.346 . S
C3 C0 1.485 . S
C3 H7 0.960 . S
C3 H8 0.961 . S
C3 H9 0.960 . S
C4 N2 1.346 . S
C4 N5 1.307 . S
C4 C6 1.486 . S
N5 N1 1.370 . S
N5 C4 1.307 . S
C6 C4 1.486 . S
C6 H10 0.960 . S
C6 H11 0.960 . S
C6 H12 0.959 . S
H7 C3 0.960 . S
H8 C3 0.961 . S
H9 C3 0.960 . S
H10 C6 0.960 . S
H11 C6 0.960 . S
H12 C6 0.959 . S
C13 N14 1.317 . S
C13 N15 1.348 . S
C13 C16 1.485 . S
N14 C13 1.317 . S
N14 N18 1.370 . S
N15 C13 1.348 . S
N15 C17 1.346 . S
C16 C13 1.485 . S
C16 H20 0.960 . S
C16 H21 0.961 . S
C16 H22 0.960 . S
C17 N15 1.346 . S
C17 N18 1.307 . S
C17 C19 1.486 . S
N18 N14 1.370 . S
N18 C17 1.307 . S
C19 C17 1.486 . S
C19 H23 0.960 . S
C19 H24 0.960 . S
C19 H25 0.959 . S
H20 C16 0.960 . S
H21 C16 0.961 . S
H22 C16 0.960 . S
H23 C19 0.960 . S
H24 C19 0.960 . S
H25 C19 0.959 . S
C26 N27 1.317 . S
C26 N28 1.348 . S
C26 C29 1.485 . S
N27 C26 1.317 . S
N27 N31 1.370 . S
N28 C26 1.348 . S
N28 C30 1.346 . S
C29 C26 1.485 . S
C29 H33 0.960 . S
C29 H34 0.961 . S
C29 H35 0.960 . S
C30 N28 1.346 . S
C30 N31 1.307 . S
C30 C32 1.486 . S
N31 N27 1.370 . S
N31 C30 1.307 . S
C32 C30 1.486 . S
C32 H36 0.960 . S
C32 H37 0.960 . S
C32 H38 0.959 . S
H33 C29 0.960 . S
H34 C29 0.961 . S
H35 C29 0.960 . S
H36 C32 0.960 . S
H37 C32 0.960 . S
H38 C32 0.959 . S
C39 N40 1.317 . S
C39 N41 1.348 . S
C39 C42 1.485 . S
N40 C39 1.317 . S
N40 N44 1.370 . S
N41 C39 1.348 . S
N41 C43 1.346 . S
C42 C39 1.485 . S
C42 H46 0.960 . S
C42 H47 0.961 . S
C42 H48 0.960 . S
C43 N41 1.346 . S
C43 N44 1.307 . S
C43 C45 1.486 . S
N44 N40 1.370 . S
N44 C43 1.307 . S
C45 C43 1.486 . S
C45 H49 0.960 . S
C45 H50 0.960 . S
C45 H51 0.959 . S
H46 C42 0.960 . S
H47 C42 0.961 . S
H48 C42 0.960 . S
H49 C45 0.960 . S
H50 C45 0.960 . S
H51 C45 0.959 . S
C52 N53 1.317 . S
C52 N54 1.348 . S
C52 C55 1.485 . S
N53 C52 1.317 . S
N53 N57 1.370 . S
N54 C52 1.348 . S
N54 C56 1.346 . S
C55 C52 1.485 . S
C55 H59 0.960 . S
C55 H60 0.961 . S
C55 H61 0.960 . S
C56 N54 1.346 . S
C56 N57 1.307 . S
C56 C58 1.486 . S
N57 N53 1.370 . S
N57 C56 1.307 . S
C58 C56 1.486 . S
C58 H62 0.960 . S
C58 H63 0.960 . S
C58 H64 0.959 . S
H59 C55 0.960 . S
H60 C55 0.961 . S
H61 C55 0.960 . S
H62 C58 0.960 . S
H63 C58 0.960 . S
H64 C58 0.959 . S
C65 N66 1.317 . S
C65 N67 1.348 . S
C65 C68 1.485 . S
N66 C65 1.317 . S
N66 N70 1.370 . S
N67 C65 1.348 . S
N67 C69 1.346 . S
C68 C65 1.485 . S
C68 H72 0.960 . S
C68 H73 0.961 . S
C68 H74 0.960 . S
C69 N67 1.346 . S
C69 N70 1.307 . S
C69 C71 1.486 . S
N70 N66 1.370 . S
N70 C69 1.307 . S
C71 C69 1.486 . S
C71 H75 0.960 . S
C71 H76 0.960 . S
C71 H77 0.959 . S
H72 C68 0.960 . S
H73 C68 0.961 . S
H74 C68 0.960 . S
H75 C71 0.960 . S
H76 C71 0.960 . S
H77 C71 0.959 . S
C78 N79 1.317 . S
C78 N80 1.348 . S
C78 C81 1.485 . S
N79 C78 1.317 . S
N79 N83 1.370 . S
N80 C78 1.348 . S
N80 C82 1.346 . S
C81 C78 1.485 . S
C81 H85 0.960 . S
C81 H86 0.961 . S
C81 H87 0.960 . S
C82 N80 1.346 . S
C82 N83 1.307 . S
C82 C84 1.486 . S
N83 N79 1.370 . S
N83 C82 1.307 . S
C84 C82 1.486 . S
C84 H88 0.960 . S
C84 H89 0.960 . S
C84 H90 0.959 . S
H85 C81 0.960 . S
H86 C81 0.961 . S
H87 C81 0.960 . S
H88 C84 0.960 . S
H89 C84 0.960 . S
H90 C84 0.959 . S
C91 N92 1.317 . S
C91 N93 1.348 . S
C91 C94 1.485 . S
N92 C91 1.317 . S
N92 N96 1.370 . S
N93 C91 1.348 . S
N93 C95 1.346 . S
C94 C91 1.485 . S
C94 H98 0.960 . S
C94 H99 0.961 . S
C94 H100 0.960 . S
C95 N93 1.346 . S
C95 N96 1.307 . S
C95 C97 1.486 . S
N96 N92 1.370 . S
N96 C95 1.307 . S
C97 C95 1.486 . S
C97 H101 0.960 . S
C97 H102 0.960 . S
C97 H103 0.959 . S
H98 C94 0.960 . S
H99 C94 0.961 . S
H100 C94 0.960 . S
H101 C97 0.960 . S
H102 C97 0.960 . S
H103 C97 0.959 . S
Dy104 O107 2.307 1_545 S
Dy104 O109 2.395 . S
Dy104 O110 2.379 . S
Dy104 O112 2.339 1_545 S
Dy104 O114 2.298 . S
Dy104 O118 2.275 . S
Dy104 C126 2.738 . S
Dy105 O108 2.298 1_645 S
Dy105 O111 2.275 1_645 S
Dy105 O113 2.307 . S
Dy105 O115 2.395 1_545 S
Dy105 O116 2.379 1_545 S
Dy105 O119 2.339 1_655 S
Dy105 C135 2.738 1_545 S
C106 O118 1.254 . S
C106 O119 1.257 . S
O107 Dy104 2.307 1_565 S
O107 C117 1.266 . S
O108 Dy105 2.298 1_465 S
O108 C117 1.236 . S
O109 Dy104 2.395 . S
O109 C126 1.255 . S
O110 Dy104 2.379 . S
O110 C126 1.249 . S
O111 Dy105 2.275 1_465 S
O111 C127 1.254 . S
O112 Dy104 2.339 1_565 S
O112 C127 1.257 . S
O113 Dy105 2.307 . S
O113 C128 1.266 1_655 S
O114 Dy104 2.298 . S
O114 C128 1.236 . S
O115 Dy105 2.395 1_565 S
O115 C135 1.255 . S
O116 Dy105 2.379 1_565 S
O116 C135 1.249 . S
C117 O107 1.266 . S
C117 O108 1.236 . S
O118 Dy104 2.275 . S
O118 C106 1.254 . S
O119 Dy105 2.339 1_455 S
O119 C106 1.257 . S
C120 C123 1.344 . S
C120 C124 1.328 . S
C120 C126 1.516 . S
C121 C122 1.304 . S
C121 C125 1.323 . S
C122 C121 1.304 . S
C122 C123 1.371 . S
C122 H136 0.930 . S
C123 C120 1.344 . S
C123 C122 1.371 . S
C123 H137 0.931 . S
C124 C120 1.328 . S
C124 C125 1.433 . S
C124 H138 0.931 . S
C125 C121 1.323 . S
C125 C124 1.433 . S
C125 H139 0.933 . S
C126 Dy104 2.738 . S
C126 O109 1.255 . S
C126 O110 1.249 . S
C126 C120 1.516 . S
C127 O111 1.254 . S
C127 O112 1.257 . S
C128 O113 1.266 1_455 S
C128 O114 1.236 . S
C129 C132 1.344 . S
C129 C133 1.328 . S
C129 C135 1.516 . S
C130 C131 1.304 . S
C130 C134 1.323 . S
C131 C130 1.304 . S
C131 C132 1.371 . S
C131 H140 0.930 . S
C132 C129 1.344 . S
C132 C131 1.371 . S
C132 H141 0.931 . S
C133 C129 1.328 . S
C133 C134 1.433 . S
C133 H142 0.931 . S
C134 C130 1.323 . S
C134 C133 1.433 . S
C134 H143 0.933 . S
C135 Dy105 2.738 1_565 S
C135 O115 1.255 . S
C135 O116 1.249 . S
C135 C129 1.516 . S
H136 C122 0.930 . S
H137 C123 0.931 . S
H138 C124 0.931 . S
H139 C125 0.933 . S
H140 C131 0.930 . S
H141 C132 0.931 . S
H142 C133 0.931 . S
H143 C134 0.933 . S
Dy144 O147 2.307 . S
Dy144 O149 2.395 1_545 S
Dy144 O150 2.379 1_554 S
Dy144 O152 2.339 1_554 S
Dy144 O154 2.298 1_545 S
Dy144 O158 2.275 1_545 S
Dy144 C166 2.738 1_544 S
Dy145 O148 2.298 . S
Dy145 O151 2.275 . S
Dy145 O153 2.307 1_545 S
Dy145 O155 2.395 . S
Dy145 O156 2.379 . S
Dy145 O159 2.339 1_545 S
Dy145 C175 2.738 . S
C146 O158 1.254 . S
C146 O159 1.257 . S
O147 Dy144 2.307 . S
O147 C157 1.266 . S
O148 Dy145 2.298 . S
O148 C157 1.236 . S
O149 Dy144 2.395 1_565 S
O149 C166 1.255 1_554 S
O150 Dy144 2.379 1_556 S
O150 C166 1.249 1_545 S
O151 Dy145 2.275 . S
O151 C167 1.254 . S
O152 Dy144 2.339 1_556 S
O152 C167 1.257 1_556 S
O153 Dy145 2.307 1_565 S
O153 C168 1.266 . S
O154 Dy144 2.298 1_565 S
O154 C168 1.236 . S
O155 Dy145 2.395 . S
O155 C175 1.255 . S
O156 Dy145 2.379 . S
O156 C175 1.249 . S
C157 O147 1.266 . S
C157 O148 1.236 . S
O158 Dy144 2.275 1_565 S
O158 C146 1.254 . S
O159 Dy145 2.339 1_565 S
O159 C146 1.257 . S
C160 C163 1.344 . S
C160 C164 1.328 . S
C160 C166 1.516 . S
C161 C162 1.304 . S
C161 C165 1.323 . S
C162 C161 1.304 . S
C162 C163 1.371 . S
C162 H176 0.930 . S
C163 C160 1.344 . S
C163 C162 1.371 . S
C163 H177 0.931 . S
C164 C160 1.328 . S
C164 C165 1.433 . S
C164 H178 0.931 . S
C165 C161 1.323 . S
C165 C164 1.433 . S
C165 H179 0.933 . S
C166 Dy144 2.738 1_566 S
C166 O149 1.255 1_556 S
C166 O150 1.249 1_565 S
C166 C160 1.516 . S
C167 O151 1.254 . S
C167 O152 1.257 1_554 S
C168 O153 1.266 . S
C168 O154 1.236 . S
C169 C172 1.344 . S
C169 C173 1.328 . S
C169 C175 1.516 . S
C170 C171 1.304 . S
C170 C174 1.323 . S
C171 C170 1.304 . S
C171 C172 1.371 . S
C171 H180 0.930 . S
C172 C169 1.344 . S
C172 C171 1.371 . S
C172 H181 0.931 . S
C173 C169 1.328 . S
C173 C174 1.433 . S
C173 H182 0.931 . S
C174 C170 1.323 . S
C174 C173 1.433 . S
C174 H183 0.933 . S
C175 Dy145 2.738 . S
C175 O155 1.255 . S
C175 O156 1.249 . S
C175 C169 1.516 . S
H176 C162 0.930 . S
H177 C163 0.931 . S
H178 C164 0.931 . S
H179 C165 0.933 . S
H180 C171 0.930 . S
H181 C172 0.931 . S
H182 C173 0.931 . S
H183 C174 0.933 . S
Dy184 O187 2.307 . S
Dy184 O189 2.395 . S
Dy184 O190 2.379 . S
Dy184 O192 2.339 . S
Dy184 O194 2.298 . S
Dy184 O198 2.275 . S
Dy184 C206 2.738 . S
Dy185 O188 2.298 . S
Dy185 O191 2.275 . S
Dy185 O193 2.307 . S
Dy185 O195 2.395 . S
Dy185 O196 2.379 . S
Dy185 O199 2.339 . S
Dy185 C215 2.738 . S
C186 O198 1.254 . S
C186 O199 1.257 . S
O187 Dy184 2.307 . S
O187 C197 1.266 . S
O188 Dy185 2.298 . S
O188 C197 1.236 . S
O189 Dy184 2.395 . S
O189 C206 1.255 . S
O190 Dy184 2.379 . S
O190 C206 1.249 . S
O191 Dy185 2.275 . S
O191 C207 1.254 . S
O192 Dy184 2.339 . S
O192 C207 1.257 . S
O193 Dy185 2.307 . S
O193 C208 1.266 . S
O194 Dy184 2.298 . S
O194 C208 1.236 . S
O195 Dy185 2.395 . S
O195 C215 1.255 . S
O196 Dy185 2.379 . S
O196 C215 1.249 . S
C197 O187 1.266 . S
C197 O188 1.236 . S
O198 Dy184 2.275 . S
O198 C186 1.254 . S
O199 Dy185 2.339 . S
O199 C186 1.257 . S
C200 C203 1.344 . S
C200 C204 1.328 . S
C200 C206 1.516 . S
C201 C202 1.304 . S
C201 C205 1.323 . S
C202 C201 1.304 . S
C202 C203 1.371 . S
C202 H216 0.930 . S
C203 C200 1.344 . S
C203 C202 1.371 . S
C203 H217 0.931 . S
C204 C200 1.328 . S
C204 C205 1.433 . S
C204 H218 0.931 . S
C205 C201 1.323 . S
C205 C204 1.433 . S
C205 H219 0.933 . S
C206 Dy184 2.738 . S
C206 O189 1.255 . S
C206 O190 1.249 . S
C206 C200 1.516 . S
C207 O191 1.254 . S
C207 O192 1.257 . S
C208 O193 1.266 . S
C208 O194 1.236 . S
C209 C212 1.344 . S
C209 C213 1.328 . S
C209 C215 1.516 . S
C210 C211 1.304 . S
C210 C214 1.323 . S
C211 C210 1.304 . S
C211 C212 1.371 . S
C211 H220 0.930 . S
C212 C209 1.344 . S
C212 C211 1.371 . S
C212 H221 0.931 . S
C213 C209 1.328 . S
C213 C214 1.433 . S
C213 H222 0.931 . S
C214 C210 1.323 . S
C214 C213 1.433 . S
C214 H223 0.933 . S
C215 Dy185 2.738 . S
C215 O195 1.255 . S
C215 O196 1.249 . S
C215 C209 1.516 . S
H216 C202 0.930 . S
H217 C203 0.931 . S
H218 C204 0.931 . S
H219 C205 0.933 . S
H220 C211 0.930 . S
H221 C212 0.931 . S
H222 C213 0.931 . S
H223 C214 0.933 . S
Dy224 O227 2.307 1_556 S
Dy224 O229 2.395 1_455 S
Dy224 O230 2.379 1_455 S
Dy224 O232 2.339 . S
Dy224 O234 2.298 1_455 S
Dy224 O238 2.275 1_456 S
Dy224 C246 2.738 1_455 S
Dy225 O228 2.298 . S
Dy225 O231 2.275 1_554 S
Dy225 O233 2.307 1_455 S
Dy225 O235 2.395 . S
Dy225 O236 2.379 . S
Dy225 O239 2.339 1_455 S
Dy225 C255 2.738 . S
C226 O238 1.254 . S
C226 O239 1.257 . S
O227 Dy224 2.307 1_554 S
O227 C237 1.266 . S
O228 Dy225 2.298 . S
O228 C237 1.236 . S
O229 Dy224 2.395 1_655 S
O229 C246 1.255 . S
O230 Dy224 2.379 1_655 S
O230 C246 1.249 . S
O231 Dy225 2.275 1_556 S
O231 C247 1.254 . S
O232 Dy224 2.339 . S
O232 C247 1.257 . S
O233 Dy225 2.307 1_655 S
O233 C248 1.266 1_554 S
O234 Dy224 2.298 1_655 S
O234 C248 1.236 . S
O235 Dy225 2.395 . S
O235 C255 1.255 . S
O236 Dy225 2.379 . S
O236 C255 1.249 . S
C237 O227 1.266 . S
C237 O228 1.236 . S
O238 Dy224 2.275 1_654 S
O238 C226 1.254 . S
O239 Dy225 2.339 1_655 S
O239 C226 1.257 . S
C240 C243 1.344 . S
C240 C244 1.328 . S
C240 C246 1.516 . S
C241 C242 1.304 . S
C241 C245 1.323 . S
C242 C241 1.304 . S
C242 C243 1.371 . S
C242 H256 0.930 . S
C243 C240 1.344 . S
C243 C242 1.371 . S
C243 H257 0.931 . S
C244 C240 1.328 . S
C244 C245 1.433 . S
C244 H258 0.931 . S
C245 C241 1.323 . S
C245 C244 1.433 . S
C245 H259 0.933 . S
C246 Dy224 2.738 1_655 S
C246 O229 1.255 . S
C246 O230 1.249 . S
C246 C240 1.516 . S
C247 O231 1.254 . S
C247 O232 1.257 . S
C248 O233 1.266 1_556 S
C248 O234 1.236 . S
C249 C252 1.344 . S
C249 C253 1.328 . S
C249 C255 1.516 . S
C250 C251 1.304 . S
C250 C254 1.323 . S
C251 C250 1.304 . S
C251 C252 1.371 . S
C251 H260 0.930 . S
C252 C249 1.344 . S
C252 C251 1.371 . S
C252 H261 0.931 . S
C253 C249 1.328 . S
C253 C254 1.433 . S
C253 H262 0.931 . S
C254 C250 1.323 . S
C254 C253 1.433 . S
C254 H263 0.933 . S
C255 Dy225 2.738 . S
C255 O235 1.255 . S
C255 O236 1.249 . S
C255 C249 1.516 . S
H256 C242 0.930 . S
H257 C243 0.931 . S
H258 C244 0.931 . S
H259 C245 0.933 . S
H260 C251 0.930 . S
H261 C252 0.931 . S
H262 C253 0.931 . S
H263 C254 0.933 . S
C264 C265 1.391 . S
C264 C266 1.394 . S
C264 H280 0.931 . S
C265 C264 1.391 . S
C265 C269 1.376 . S
C266 C264 1.394 . S
C266 C267 1.369 . S
C266 C270 1.531 . S
C267 C266 1.369 . S
C267 C268 1.410 . S
C267 C275 1.503 . S
C268 C267 1.410 . S
C268 C269 1.392 . S
C268 C271 1.511 . S
C269 C265 1.376 . S
C269 C268 1.392 . S
C269 H281 0.929 . S
C270 C266 1.531 . S
C270 H282 0.960 . S
C270 H283 0.962 . S
C270 H284 0.960 . S
C271 C268 1.511 . S
C271 H285 0.961 . S
C271 H286 0.961 . S
C271 H287 0.961 . S
C272 C273 1.370 . S
C272 C274 1.363 . S
C272 H288 0.931 . S
C273 C272 1.370 . S
C273 C277 1.408 . S
C274 C272 1.363 . S
C274 C275 1.370 . S
C274 C278 1.524 . S
C275 C267 1.503 . S
C275 C274 1.370 . S
C275 C276 1.403 . S
C276 C275 1.403 . S
C276 C277 1.404 . S
C276 C279 1.539 . S
C277 C273 1.408 . S
C277 C276 1.404 . S
C277 H289 0.930 . S
C278 C274 1.524 . S
C278 H290 0.956 . S
C278 H291 0.961 . S
C278 H292 0.961 . S
C279 C276 1.539 . S
C279 H293 0.958 . S
C279 H294 0.961 . S
C279 H295 0.960 . S
H280 C264 0.931 . S
H281 C269 0.929 . S
H282 C270 0.960 . S
H283 C270 0.962 . S
H284 C270 0.960 . S
H285 C271 0.961 . S
H286 C271 0.961 . S
H287 C271 0.961 . S
H288 C272 0.931 . S
H289 C277 0.930 . S
H290 C278 0.956 . S
H291 C278 0.961 . S
H292 C278 0.961 . S
H293 C279 0.958 . S
H294 C279 0.961 . S
H295 C279 0.960 . S
C296 C297 1.391 . S
C296 C298 1.394 . S
C296 H312 0.931 . S
C297 C296 1.391 . S
C297 C301 1.376 . S
C298 C296 1.394 . S
C298 C299 1.369 . S
C298 C302 1.531 . S
C299 C298 1.369 . S
C299 C300 1.410 . S
C299 C307 1.503 . S
C300 C299 1.410 . S
C300 C301 1.392 . S
C300 C303 1.511 . S
C301 C297 1.376 . S
C301 C300 1.392 . S
C301 H313 0.929 . S
C302 C298 1.531 . S
C302 H314 0.960 . S
C302 H315 0.962 . S
C302 H316 0.960 . S
C303 C300 1.511 . S
C303 H317 0.961 . S
C303 H318 0.961 . S
C303 H319 0.961 . S
C304 C305 1.370 . S
C304 C306 1.363 . S
C304 H320 0.931 . S
C305 C304 1.370 . S
C305 C309 1.408 . S
C306 C304 1.363 . S
C306 C307 1.370 . S
C306 C310 1.524 . S
C307 C299 1.503 . S
C307 C306 1.370 . S
C307 C308 1.403 . S
C308 C307 1.403 . S
C308 C309 1.404 . S
C308 C311 1.539 . S
C309 C305 1.408 . S
C309 C308 1.404 . S
C309 H321 0.930 . S
C310 C306 1.524 . S
C310 H322 0.956 . S
C310 H323 0.961 . S
C310 H324 0.961 . S
C311 C308 1.539 . S
C311 H325 0.958 . S
C311 H326 0.961 . S
C311 H327 0.960 . S
H312 C296 0.931 . S
H313 C301 0.929 . S
H314 C302 0.960 . S
H315 C302 0.962 . S
H316 C302 0.960 . S
H317 C303 0.961 . S
H318 C303 0.961 . S
H319 C303 0.961 . S
H320 C304 0.931 . S
H321 C309 0.930 . S
H322 C310 0.956 . S
H323 C310 0.961 . S
H324 C310 0.961 . S
H325 C311 0.958 . S
H326 C311 0.961 . S
H327 C311 0.960 . S
C328 C329 1.391 . S
C328 C330 1.394 . S
C328 H344 0.931 . S
C329 C328 1.391 . S
C329 C333 1.376 . S
C330 C328 1.394 . S
C330 C331 1.369 . S
C330 C334 1.531 . S
C331 C330 1.369 . S
C331 C332 1.410 . S
C331 C339 1.503 . S
C332 C331 1.410 . S
C332 C333 1.392 . S
C332 C335 1.511 . S
C333 C329 1.376 . S
C333 C332 1.392 . S
C333 H345 0.929 . S
C334 C330 1.531 . S
C334 H346 0.960 . S
C334 H347 0.962 . S
C334 H348 0.960 . S
C335 C332 1.511 . S
C335 H349 0.961 . S
C335 H350 0.961 . S
C335 H351 0.961 . S
C336 C337 1.370 . S
C336 C338 1.363 . S
C336 H352 0.931 . S
C337 C336 1.370 . S
C337 C341 1.408 . S
C338 C336 1.363 . S
C338 C339 1.370 . S
C338 C342 1.524 . S
C339 C331 1.503 . S
C339 C338 1.370 . S
C339 C340 1.403 . S
C340 C339 1.403 . S
C340 C341 1.404 . S
C340 C343 1.539 . S
C341 C337 1.408 . S
C341 C340 1.404 . S
C341 H353 0.930 . S
C342 C338 1.524 . S
C342 H354 0.956 . S
C342 H355 0.961 . S
C342 H356 0.961 . S
C343 C340 1.539 . S
C343 H357 0.958 . S
C343 H358 0.961 . S
C343 H359 0.960 . S
H344 C328 0.931 . S
H345 C333 0.929 . S
H346 C334 0.960 . S
H347 C334 0.962 . S
H348 C334 0.960 . S
H349 C335 0.961 . S
H350 C335 0.961 . S
H351 C335 0.961 . S
H352 C336 0.931 . S
H353 C341 0.930 . S
H354 C342 0.956 . S
H355 C342 0.961 . S
H356 C342 0.961 . S
H357 C343 0.958 . S
H358 C343 0.961 . S
H359 C343 0.960 . S
C360 C361 1.391 . S
C360 C362 1.394 . S
C360 H376 0.931 . S
C361 C360 1.391 . S
C361 C365 1.376 . S
C362 C360 1.394 . S
C362 C363 1.369 . S
C362 C366 1.531 . S
C363 C362 1.369 . S
C363 C364 1.410 . S
C363 C371 1.503 . S
C364 C363 1.410 . S
C364 C365 1.392 . S
C364 C367 1.511 . S
C365 C361 1.376 . S
C365 C364 1.392 . S
C365 H377 0.929 . S
C366 C362 1.531 . S
C366 H378 0.960 . S
C366 H379 0.962 . S
C366 H380 0.960 . S
C367 C364 1.511 . S
C367 H381 0.961 . S
C367 H382 0.961 . S
C367 H383 0.961 1_655 S
C368 C369 1.370 . S
C368 C370 1.363 . S
C368 H384 0.931 . S
C369 C368 1.370 . S
C369 C373 1.408 . S
C370 C368 1.363 . S
C370 C371 1.370 . S
C370 C374 1.524 . S
C371 C363 1.503 . S
C371 C370 1.370 . S
C371 C372 1.403 . S
C372 C371 1.403 . S
C372 C373 1.404 . S
C372 C375 1.539 . S
C373 C369 1.408 . S
C373 C372 1.404 . S
C373 H385 0.930 . S
C374 C370 1.524 . S
C374 H386 0.956 . S
C374 H387 0.961 . S
C374 H388 0.961 . S
C375 C372 1.539 . S
C375 H389 0.958 . S
C375 H390 0.961 . S
C375 H391 0.960 . S
H376 C360 0.931 . S
H377 C365 0.929 . S
H378 C366 0.960 . S
H379 C366 0.962 . S
H380 C366 0.960 . S
H381 C367 0.961 . S
H382 C367 0.961 . S
H383 C367 0.961 1_455 S
H384 C368 0.931 . S
H385 C373 0.930 . S
H386 C374 0.956 . S
H387 C374 0.961 . S
H388 C374 0.961 . S
H389 C375 0.958 . S
H390 C375 0.961 . S
H391 C375 0.960 . S
C392 C393 1.391 . S
C392 C394 1.394 . S
C392 H408 0.931 . S
C393 C392 1.391 . S
C393 C397 1.376 . S
C394 C392 1.394 . S
C394 C395 1.369 . S
C394 C398 1.531 . S
C395 C394 1.369 . S
C395 C396 1.410 . S
C395 C403 1.503 . S
C396 C395 1.410 . S
C396 C397 1.392 . S
C396 C399 1.511 . S
C397 C393 1.376 . S
C397 C396 1.392 . S
C397 H409 0.929 . S
C398 C394 1.531 . S
C398 H410 0.960 . S
C398 H411 0.962 . S
C398 H412 0.960 . S
C399 C396 1.511 . S
C399 H413 0.961 . S
C399 H414 0.961 . S
C399 H415 0.961 . S
C400 C401 1.370 . S
C400 C402 1.363 . S
C400 H416 0.931 . S
C401 C400 1.370 . S
C401 C405 1.408 . S
C402 C400 1.363 . S
C402 C403 1.370 . S
C402 C406 1.524 . S
C403 C395 1.503 . S
C403 C402 1.370 . S
C403 C404 1.403 . S
C404 C403 1.403 . S
C404 C405 1.404 . S
C404 C407 1.539 . S
C405 C401 1.408 . S
C405 C404 1.404 . S
C405 H417 0.930 . S
C406 C402 1.524 . S
C406 H418 0.956 . S
C406 H419 0.961 . S
C406 H420 0.961 . S
C407 C404 1.539 . S
C407 H421 0.958 . S
C407 H422 0.961 . S
C407 H423 0.960 . S
H408 C392 0.931 . S
H409 C397 0.929 . S
H410 C398 0.960 . S
H411 C398 0.962 . S
H412 C398 0.960 . S
H413 C399 0.961 . S
H414 C399 0.961 . S
H415 C399 0.961 . S
H416 C400 0.931 . S
H417 C405 0.930 . S
H418 C406 0.956 . S
H419 C406 0.961 . S
H420 C406 0.961 . S
H421 C407 0.958 . S
H422 C407 0.961 . S
H423 C407 0.960 . S
C424 C425 1.391 . S
C424 C426 1.394 . S
C424 H440 0.931 . S
C425 C424 1.391 . S
C425 C429 1.376 . S
C426 C424 1.394 . S
C426 C427 1.369 . S
C426 C430 1.531 . S
C427 C426 1.369 . S
C427 C428 1.410 . S
C427 C435 1.503 . S
C428 C427 1.410 . S
C428 C429 1.392 . S
C428 C431 1.511 . S
C429 C425 1.376 . S
C429 C428 1.392 . S
C429 H441 0.929 . S
C430 C426 1.531 . S
C430 H442 0.960 . S
C430 H443 0.962 . S
C430 H444 0.960 . S
C431 C428 1.511 . S
C431 H445 0.961 . S
C431 H446 0.961 . S
C431 H447 0.961 . S
C432 C433 1.370 . S
C432 C434 1.363 . S
C432 H448 0.931 . S
C433 C432 1.370 . S
C433 C437 1.408 . S
C434 C432 1.363 . S
C434 C435 1.370 . S
C434 C438 1.524 . S
C435 C427 1.503 . S
C435 C434 1.370 . S
C435 C436 1.403 . S
C436 C435 1.403 . S
C436 C437 1.404 . S
C436 C439 1.539 . S
C437 C433 1.408 . S
C437 C436 1.404 . S
C437 H449 0.930 . S
C438 C434 1.524 . S
C438 H450 0.956 . S
C438 H451 0.961 . S
C438 H452 0.961 . S
C439 C436 1.539 . S
C439 H453 0.958 . S
C439 H454 0.961 . S
C439 H455 0.960 . S
H440 C424 0.931 . S
H441 C429 0.929 . S
H442 C430 0.960 . S
H443 C430 0.962 . S
H444 C430 0.960 . S
H445 C431 0.961 . S
H446 C431 0.961 . S
H447 C431 0.961 . S
H448 C432 0.931 . S
H449 C437 0.930 . S
H450 C438 0.956 . S
H451 C438 0.961 . S
H452 C438 0.961 . S
H453 C439 0.958 . S
H454 C439 0.961 . S
H455 C439 0.960 . S
C456 C457 1.391 . S
C456 C458 1.394 . S
C456 H472 0.931 . S
C457 C456 1.391 . S
C457 C461 1.376 . S
C458 C456 1.394 . S
C458 C459 1.369 . S
C458 C462 1.531 . S
C459 C458 1.369 . S
C459 C460 1.410 . S
C459 C467 1.503 . S
C460 C459 1.410 . S
C460 C461 1.392 . S
C460 C463 1.511 . S
C461 C457 1.376 . S
C461 C460 1.392 . S
C461 H473 0.929 . S
C462 C458 1.531 . S
C462 H474 0.960 . S
C462 H475 0.962 . S
C462 H476 0.960 . S
C463 C460 1.511 . S
C463 H477 0.961 . S
C463 H478 0.961 . S
C463 H479 0.961 . S
C464 C465 1.370 . S
C464 C466 1.363 . S
C464 H480 0.931 . S
C465 C464 1.370 . S
C465 C469 1.408 . S
C466 C464 1.363 . S
C466 C467 1.370 . S
C466 C470 1.524 . S
C467 C459 1.503 . S
C467 C466 1.370 . S
C467 C468 1.403 . S
C468 C467 1.403 . S
C468 C469 1.404 . S
C468 C471 1.539 . S
C469 C465 1.408 . S
C469 C468 1.404 . S
C469 H481 0.930 . S
C470 C466 1.524 . S
C470 H482 0.956 . S
C470 H483 0.961 . S
C470 H484 0.961 . S
C471 C468 1.539 . S
C471 H485 0.958 . S
C471 H486 0.961 . S
C471 H487 0.960 . S
H472 C456 0.931 . S
H473 C461 0.929 . S
H474 C462 0.960 . S
H475 C462 0.962 . S
H476 C462 0.960 . S
H477 C463 0.961 . S
H478 C463 0.961 . S
H479 C463 0.961 . S
H480 C464 0.931 . S
H481 C469 0.930 . S
H482 C470 0.956 . S
H483 C470 0.961 . S
H484 C470 0.961 . S
H485 C471 0.958 . S
H486 C471 0.961 . S
H487 C471 0.960 . S
C488 C489 1.391 . S
C488 C490 1.394 . S
C488 H504 0.931 . S
C489 C488 1.391 . S
C489 C493 1.376 . S
C490 C488 1.394 . S
C490 C491 1.369 . S
C490 C494 1.531 . S
C491 C490 1.369 . S
C491 C492 1.410 . S
C491 C499 1.503 . S
C492 C491 1.410 . S
C492 C493 1.392 . S
C492 C495 1.511 . S
C493 C489 1.376 . S
C493 C492 1.392 . S
C493 H505 0.929 . S
C494 C490 1.531 . S
C494 H506 0.960 . S
C494 H507 0.962 . S
C494 H508 0.960 . S
C495 C492 1.511 . S
C495 H509 0.961 . S
C495 H510 0.961 . S
C495 H511 0.961 . S
C496 C497 1.370 . S
C496 C498 1.363 . S
C496 H512 0.931 . S
C497 C496 1.370 . S
C497 C501 1.408 . S
C498 C496 1.363 . S
C498 C499 1.370 . S
C498 C502 1.524 . S
C499 C491 1.503 . S
C499 C498 1.370 . S
C499 C500 1.403 . S
C500 C499 1.403 . S
C500 C501 1.404 . S
C500 C503 1.539 . S
C501 C497 1.408 . S
C501 C500 1.404 . S
C501 H513 0.930 . S
C502 C498 1.524 . S
C502 H514 0.956 . S
C502 H515 0.961 . S
C502 H516 0.961 . S
C503 C500 1.539 . S
C503 H517 0.958 . S
C503 H518 0.961 . S
C503 H519 0.960 . S
H504 C488 0.931 . S
H505 C493 0.929 . S
H506 C494 0.960 . S
H507 C494 0.962 . S
H508 C494 0.960 . S
H509 C495 0.961 . S
H510 C495 0.961 . S
H511 C495 0.961 . S
H512 C496 0.931 . S
H513 C501 0.930 . S
H514 C502 0.956 . S
H515 C502 0.961 . S
H516 C502 0.961 . S
H517 C503 0.958 . S
H518 C503 0.961 . S
H519 C503 0.960 . S
C520 C521 1.391 . S
C520 C522 1.394 . S
C520 H536 0.931 . S
C521 C520 1.391 . S
C521 C525 1.376 . S
C522 C520 1.394 . S
C522 C523 1.369 . S
C522 C526 1.531 . S
C523 C522 1.369 . S
C523 C524 1.410 . S
C523 C531 1.503 . S
C524 C523 1.410 . S
C524 C525 1.392 . S
C524 C527 1.511 . S
C525 C521 1.376 . S
C525 C524 1.392 . S
C525 H537 0.929 . S
C526 C522 1.531 . S
C526 H538 0.960 . S
C526 H539 0.962 . S
C526 H540 0.960 . S
C527 C524 1.511 . S
C527 H541 0.961 . S
C527 H542 0.961 . S
C527 H543 0.961 . S
C528 C529 1.370 . S
C528 C530 1.363 . S
C528 H544 0.931 . S
C529 C528 1.370 . S
C529 C533 1.408 . S
C530 C528 1.363 . S
C530 C531 1.370 . S
C530 C534 1.524 . S
C531 C523 1.503 . S
C531 C530 1.370 . S
C531 C532 1.403 . S
C532 C531 1.403 . S
C532 C533 1.404 . S
C532 C535 1.539 . S
C533 C529 1.408 . S
C533 C532 1.404 . S
C533 H545 0.930 . S
C534 C530 1.524 . S
C534 H546 0.956 . S
C534 H547 0.961 . S
C534 H548 0.961 . S
C535 C532 1.539 . S
C535 H549 0.958 . S
C535 H550 0.961 . S
C535 H551 0.960 . S
H536 C520 0.931 . S
H537 C525 0.929 . S
H538 C526 0.960 . S
H539 C526 0.962 . S
H540 C526 0.960 . S
H541 C527 0.961 . S
H542 C527 0.961 . S
H543 C527 0.961 . S
H544 C528 0.931 . S
H545 C533 0.930 . S
H546 C534 0.956 . S
H547 C534 0.961 . S
H548 C534 0.961 . S
H549 C535 0.958 . S
H550 C535 0.961 . S
H551 C535 0.960 . S
C552 C553 1.391 . S
C552 C554 1.394 . S
C552 H568 0.931 . S
C553 C552 1.391 . S
C553 C557 1.376 . S
C554 C552 1.394 . S
C554 C555 1.369 . S
C554 C558 1.531 . S
C555 C554 1.369 . S
C555 C556 1.410 . S
C555 C563 1.503 . S
C556 C555 1.410 . S
C556 C557 1.392 . S
C556 C559 1.511 . S
C557 C553 1.376 . S
C557 C556 1.392 . S
C557 H569 0.929 . S
C558 C554 1.531 . S
C558 H570 0.960 . S
C558 H571 0.962 . S
C558 H572 0.960 . S
C559 C556 1.511 . S
C559 H573 0.961 . S
C559 H574 0.961 . S
C559 H575 0.961 . S
C560 C561 1.370 . S
C560 C562 1.363 . S
C560 H576 0.931 . S
C561 C560 1.370 . S
C561 C565 1.408 1_556 S
C562 C560 1.363 . S
C562 C563 1.370 . S
C562 C566 1.524 . S
C563 C555 1.503 . S
C563 C562 1.370 . S
C563 C564 1.403 . S
C564 C563 1.403 . S
C564 C565 1.404 1_556 S
C564 C567 1.539 1_556 S
C565 C561 1.408 1_554 S
C565 C564 1.404 1_554 S
C565 H577 0.930 . S
C566 C562 1.524 . S
C566 H578 0.956 . S
C566 H579 0.961 . S
C566 H580 0.961 . S
C567 C564 1.539 1_554 S
C567 H581 0.958 . S
C567 H582 0.961 . S
C567 H583 0.960 1_554 S
H568 C552 0.931 . S
H569 C557 0.929 . S
H570 C558 0.960 . S
H571 C558 0.962 . S
H572 C558 0.960 . S
H573 C559 0.961 . S
H574 C559 0.961 . S
H575 C559 0.961 . S
H576 C560 0.931 . S
H577 C565 0.930 . S
H578 C566 0.956 . S
H579 C566 0.961 . S
H580 C566 0.961 . S
H581 C567 0.958 . S
H582 C567 0.961 . S
H583 C567 0.960 1_556 S
C584 C585 1.391 . S
C584 C586 1.394 . S
C584 H600 0.931 . S
C585 C584 1.391 . S
C585 C589 1.376 . S
C586 C584 1.394 . S
C586 C587 1.369 . S
C586 C590 1.531 . S
C587 C586 1.369 . S
C587 C588 1.410 . S
C587 C595 1.503 . S
C588 C587 1.410 . S
C588 C589 1.392 . S
C588 C591 1.511 . S
C589 C585 1.376 . S
C589 C588 1.392 . S
C589 H601 0.929 . S
C590 C586 1.531 . S
C590 H602 0.960 . S
C590 H603 0.962 . S
C590 H604 0.960 . S
C591 C588 1.511 . S
C591 H605 0.961 . S
C591 H606 0.961 . S
C591 H607 0.961 . S
C592 C593 1.370 . S
C592 C594 1.363 . S
C592 H608 0.931 1_655 S
C593 C592 1.370 . S
C593 C597 1.408 . S
C594 C592 1.363 . S
C594 C595 1.370 . S
C594 C598 1.524 . S
C595 C587 1.503 . S
C595 C594 1.370 . S
C595 C596 1.403 . S
C596 C595 1.403 . S
C596 C597 1.404 . S
C596 C599 1.539 . S
C597 C593 1.408 . S
C597 C596 1.404 . S
C597 H609 0.930 . S
C598 C594 1.524 . S
C598 H610 0.956 . S
C598 H611 0.961 . S
C598 H612 0.961 1_655 S
C599 C596 1.539 . S
C599 H613 0.958 . S
C599 H614 0.961 . S
C599 H615 0.960 . S
H600 C584 0.931 . S
H601 C589 0.929 . S
H602 C590 0.960 . S
H603 C590 0.962 . S
H604 C590 0.960 . S
H605 C591 0.961 . S
H606 C591 0.961 . S
H607 C591 0.961 . S
H608 C592 0.931 1_455 S
H609 C597 0.930 . S
H610 C598 0.956 . S
H611 C598 0.961 . S
H612 C598 0.961 1_455 S
H613 C599 0.958 . S
H614 C599 0.961 . S
H615 C599 0.960 . S
C616 C617 1.391 . S
C616 C618 1.394 . S
C616 H632 0.931 . S
C617 C616 1.391 . S
C617 C621 1.376 . S
C618 C616 1.394 . S
C618 C619 1.369 . S
C618 C622 1.531 . S
C619 C618 1.369 . S
C619 C620 1.410 . S
C619 C627 1.503 . S
C620 C619 1.410 . S
C620 C621 1.392 . S
C620 C623 1.511 . S
C621 C617 1.376 . S
C621 C620 1.392 . S
C621 H633 0.929 . S
C622 C618 1.531 . S
C622 H634 0.960 . S
C622 H635 0.962 . S
C622 H636 0.960 . S
C623 C620 1.511 . S
C623 H637 0.961 . S
C623 H638 0.961 . S
C623 H639 0.961 . S
C624 C625 1.370 . S
C624 C626 1.363 . S
C624 H640 0.931 . S
C625 C624 1.370 . S
C625 C629 1.408 . S
C626 C624 1.363 . S
C626 C627 1.370 . S
C626 C630 1.524 . S
C627 C619 1.503 . S
C627 C626 1.370 . S
C627 C628 1.403 . S
C628 C627 1.403 . S
C628 C629 1.404 . S
C628 C631 1.539 . S
C629 C625 1.408 . S
C629 C628 1.404 . S
C629 H641 0.930 . S
C630 C626 1.524 . S
C630 H642 0.956 . S
C630 H643 0.961 . S
C630 H644 0.961 . S
C631 C628 1.539 . S
C631 H645 0.958 . S
C631 H646 0.961 . S
C631 H647 0.960 . S
H632 C616 0.931 . S
H633 C621 0.929 . S
H634 C622 0.960 . S
H635 C622 0.962 . S
H636 C622 0.960 . S
H637 C623 0.961 . S
H638 C623 0.961 . S
H639 C623 0.961 . S
H640 C624 0.931 . S
H641 C629 0.930 . S
H642 C630 0.956 . S
H643 C630 0.961 . S
H644 C630 0.961 . S
H645 C631 0.958 . S
H646 C631 0.961 . S
H647 C631 0.960 . S
C648 C649 1.391 . S
C648 C650 1.394 . S
C648 H664 0.931 . S
C649 C648 1.391 . S
C649 C653 1.376 . S
C650 C648 1.394 . S
C650 C651 1.369 . S
C650 C654 1.531 . S
C651 C650 1.369 . S
C651 C652 1.410 . S
C651 C659 1.503 . S
C652 C651 1.410 . S
C652 C653 1.392 . S
C652 C655 1.511 . S
C653 C649 1.376 . S
C653 C652 1.392 . S
C653 H665 0.929 . S
C654 C650 1.531 . S
C654 H666 0.960 . S
C654 H667 0.962 . S
C654 H668 0.960 . S
C655 C652 1.511 . S
C655 H669 0.961 . S
C655 H670 0.961 . S
C655 H671 0.961 . S
C656 C657 1.370 . S
C656 C658 1.363 . S
C656 H672 0.931 . S
C657 C656 1.370 . S
C657 C661 1.408 . S
C658 C656 1.363 . S
C658 C659 1.370 . S
C658 C662 1.524 . S
C659 C651 1.503 . S
C659 C658 1.370 . S
C659 C660 1.403 . S
C660 C659 1.403 . S
C660 C661 1.404 . S
C660 C663 1.539 . S
C661 C657 1.408 . S
C661 C660 1.404 . S
C661 H673 0.930 . S
C662 C658 1.524 . S
C662 H674 0.956 . S
C662 H675 0.961 . S
C662 H676 0.961 . S
C663 C660 1.539 . S
C663 H677 0.958 . S
C663 H678 0.961 . S
C663 H679 0.960 . S
H664 C648 0.931 . S
H665 C653 0.929 . S
H666 C654 0.960 . S
H667 C654 0.962 . S
H668 C654 0.960 . S
H669 C655 0.961 . S
H670 C655 0.961 . S
H671 C655 0.961 . S
H672 C656 0.931 . S
H673 C661 0.930 . S
H674 C662 0.956 . S
H675 C662 0.961 . S
H676 C662 0.961 . S
H677 C663 0.958 . S
H678 C663 0.961 . S
H679 C663 0.960 . S
C680 C681 1.391 . S
C680 C682 1.394 . S
C680 H696 0.931 . S
C681 C680 1.391 . S
C681 C685 1.376 . S
C682 C680 1.394 . S
C682 C683 1.369 . S
C682 C686 1.531 . S
C683 C682 1.369 . S
C683 C684 1.410 . S
C683 C691 1.503 . S
C684 C683 1.410 . S
C684 C685 1.392 . S
C684 C687 1.511 . S
C685 C681 1.376 . S
C685 C684 1.392 . S
C685 H697 0.929 . S
C686 C682 1.531 . S
C686 H698 0.960 . S
C686 H699 0.962 . S
C686 H700 0.960 . S
C687 C684 1.511 . S
C687 H701 0.961 . S
C687 H702 0.961 . S
C687 H703 0.961 . S
C688 C689 1.370 . S
C688 C690 1.363 . S
C688 H704 0.931 . S
C689 C688 1.370 . S
C689 C693 1.408 . S
C690 C688 1.363 . S
C690 C691 1.370 . S
C690 C694 1.524 . S
C691 C683 1.503 . S
C691 C690 1.370 . S
C691 C692 1.403 . S
C692 C691 1.403 . S
C692 C693 1.404 . S
C692 C695 1.539 . S
C693 C689 1.408 . S
C693 C692 1.404 . S
C693 H705 0.930 . S
C694 C690 1.524 . S
C694 H706 0.956 . S
C694 H707 0.961 . S
C694 H708 0.961 . S
C695 C692 1.539 . S
C695 H709 0.958 . S
C695 H710 0.961 . S
C695 H711 0.960 . S
H696 C680 0.931 . S
H697 C685 0.929 . S
H698 C686 0.960 . S
H699 C686 0.962 . S
H700 C686 0.960 . S
H701 C687 0.961 . S
H702 C687 0.961 . S
H703 C687 0.961 . S
H704 C688 0.931 . S
H705 C693 0.930 . S
H706 C694 0.956 . S
H707 C694 0.961 . S
H708 C694 0.961 . S
H709 C695 0.958 . S
H710 C695 0.961 . S
H711 C695 0.960 . S
C712 C713 1.391 . S
C712 C714 1.394 . S
C712 H728 0.931 . S
C713 C712 1.391 . S
C713 C717 1.376 . S
C714 C712 1.394 . S
C714 C715 1.369 . S
C714 C718 1.531 . S
C715 C714 1.369 . S
C715 C716 1.410 . S
C715 C723 1.503 . S
C716 C715 1.410 . S
C716 C717 1.392 . S
C716 C719 1.511 . S
C717 C713 1.376 . S
C717 C716 1.392 . S
C717 H729 0.929 . S
C718 C714 1.531 . S
C718 H730 0.960 . S
C718 H731 0.962 . S
C718 H732 0.960 . S
C719 C716 1.511 . S
C719 H733 0.961 . S
C719 H734 0.961 . S
C719 H735 0.961 . S
C720 C721 1.370 . S
C720 C722 1.363 . S
C720 H736 0.931 . S
C721 C720 1.370 . S
C721 C725 1.408 . S
C722 C720 1.363 . S
C722 C723 1.370 . S
C722 C726 1.524 . S
C723 C715 1.503 . S
C723 C722 1.370 . S
C723 C724 1.403 . S
C724 C723 1.403 . S
C724 C725 1.404 . S
C724 C727 1.539 . S
C725 C721 1.408 . S
C725 C724 1.404 . S
C725 H737 0.930 . S
C726 C722 1.524 . S
C726 H738 0.956 . S
C726 H739 0.961 . S
C726 H740 0.961 . S
C727 C724 1.539 . S
C727 H741 0.958 . S
C727 H742 0.961 . S
C727 H743 0.960 . S
H728 C712 0.931 . S
H729 C717 0.929 . S
H730 C718 0.960 . S
H731 C718 0.962 . S
H732 C718 0.960 . S
H733 C719 0.961 . S
H734 C719 0.961 . S
H735 C719 0.961 . S
H736 C720 0.931 . S
H737 C725 0.930 . S
H738 C726 0.956 . S
H739 C726 0.961 . S
H740 C726 0.961 . S
H741 C727 0.958 . S
H742 C727 0.961 . S
H743 C727 0.960 . S
C744 C745 1.391 . S
C744 C746 1.394 . S
C744 H760 0.931 . S
C745 C744 1.391 . S
C745 C749 1.376 . S
C746 C744 1.394 . S
C746 C747 1.369 . S
C746 C750 1.531 . S
C747 C746 1.369 . S
C747 C748 1.410 . S
C747 C755 1.503 . S
C748 C747 1.410 . S
C748 C749 1.392 . S
C748 C751 1.511 . S
C749 C745 1.376 . S
C749 C748 1.392 . S
C749 H761 0.929 . S
C750 C746 1.531 . S
C750 H762 0.960 . S
C750 H763 0.962 . S
C750 H764 0.960 . S
C751 C748 1.511 . S
C751 H765 0.961 . S
C751 H766 0.961 . S
C751 H767 0.961 . S
C752 C753 1.370 . S
C752 C754 1.363 . S
C752 H768 0.931 . S
C753 C752 1.370 . S
C753 C757 1.408 . S
C754 C752 1.363 . S
C754 C755 1.370 . S
C754 C758 1.524 . S
C755 C747 1.503 . S
C755 C754 1.370 . S
C755 C756 1.403 . S
C756 C755 1.403 . S
C756 C757 1.404 . S
C756 C759 1.539 . S
C757 C753 1.408 . S
C757 C756 1.404 . S
C757 H769 0.930 . S
C758 C754 1.524 . S
C758 H770 0.956 . S
C758 H771 0.961 . S
C758 H772 0.961 . S
C759 C756 1.539 . S
C759 H773 0.958 . S
C759 H774 0.961 1_455 S
C759 H775 0.960 . S
H760 C744 0.931 . S
H761 C749 0.929 . S
H762 C750 0.960 . S
H763 C750 0.962 . S
H764 C750 0.960 . S
H765 C751 0.961 . S
H766 C751 0.961 . S
H767 C751 0.961 . S
H768 C752 0.931 . S
H769 C757 0.930 . S
H770 C758 0.956 . S
H771 C758 0.961 . S
H772 C758 0.961 . S
H773 C759 0.958 . S
H774 C759 0.961 1_655 S
H775 C759 0.960 . S
C776 C777 1.391 . S
C776 C778 1.394 . S
C776 H792 0.931 . S
C777 C776 1.391 . S
C777 C781 1.376 . S
C778 C776 1.394 . S
C778 C779 1.369 . S
C778 C782 1.531 . S
C779 C778 1.369 . S
C779 C780 1.410 . S
C779 C787 1.503 . S
C780 C779 1.410 . S
C780 C781 1.392 . S
C780 C783 1.511 . S
C781 C777 1.376 . S
C781 C780 1.392 . S
C781 H793 0.929 . S
C782 C778 1.531 . S
C782 H794 0.960 . S
C782 H795 0.962 . S
C782 H796 0.960 . S
C783 C780 1.511 . S
C783 H797 0.961 . S
C783 H798 0.961 . S
C783 H799 0.961 . S
C784 C785 1.370 . S
C784 C786 1.363 . S
C784 H800 0.931 . S
C785 C784 1.370 . S
C785 C789 1.408 . S
C786 C784 1.363 . S
C786 C787 1.370 . S
C786 C790 1.524 . S
C787 C779 1.503 . S
C787 C786 1.370 . S
C787 C788 1.403 . S
C788 C787 1.403 . S
C788 C789 1.404 . S
C788 C791 1.539 . S
C789 C785 1.408 . S
C789 C788 1.404 . S
C789 H801 0.930 . S
C790 C786 1.524 . S
C790 H802 0.956 . S
C790 H803 0.961 . S
C790 H804 0.961 . S
C791 C788 1.539 . S
C791 H805 0.958 . S
C791 H806 0.961 . S
C791 H807 0.960 . S
H792 C776 0.931 . S
H793 C781 0.929 . S
H794 C782 0.960 . S
H795 C782 0.962 . S
H796 C782 0.960 . S
H797 C783 0.961 . S
H798 C783 0.961 . S
H799 C783 0.961 . S
H800 C784 0.931 . S
H801 C789 0.930 . S
H802 C790 0.956 . S
H803 C790 0.961 . S
H804 C790 0.961 . S
H805 C791 0.958 . S
H806 C791 0.961 . S
H807 C791 0.960 . S
C808 C809 1.391 . S
C808 C810 1.394 . S
C808 H824 0.931 . S
C809 C808 1.391 . S
C809 C813 1.376 . S
C810 C808 1.394 . S
C810 C811 1.369 . S
C810 C814 1.531 . S
C811 C810 1.369 . S
C811 C812 1.410 . S
C811 C819 1.503 . S
C812 C811 1.410 . S
C812 C813 1.392 . S
C812 C815 1.511 . S
C813 C809 1.376 . S
C813 C812 1.392 . S
C813 H825 0.929 . S
C814 C810 1.531 . S
C814 H826 0.960 . S
C814 H827 0.962 . S
C814 H828 0.960 . S
C815 C812 1.511 . S
C815 H829 0.961 . S
C815 H830 0.961 . S
C815 H831 0.961 1_655 S
C816 C817 1.370 . S
C816 C818 1.363 . S
C816 H832 0.931 . S
C817 C816 1.370 . S
C817 C821 1.408 1_655 S
C818 C816 1.363 . S
C818 C819 1.370 . S
C818 C822 1.524 . S
C819 C811 1.503 . S
C819 C818 1.370 . S
C819 C820 1.403 . S
C820 C819 1.403 . S
C820 C821 1.404 1_655 S
C820 C823 1.539 1_655 S
C821 C817 1.408 1_455 S
C821 C820 1.404 1_455 S
C821 H833 0.930 . S
C822 C818 1.524 . S
C822 H834 0.956 . S
C822 H835 0.961 . S
C822 H836 0.961 . S
C823 C820 1.539 1_455 S
C823 H837 0.958 . S
C823 H838 0.961 . S
C823 H839 0.960 . S
H824 C808 0.931 . S
H825 C813 0.929 . S
H826 C814 0.960 . S
H827 C814 0.962 . S
H828 C814 0.960 . S
H829 C815 0.961 . S
H830 C815 0.961 . S
H831 C815 0.961 1_455 S
H832 C816 0.931 . S
H833 C821 0.930 . S
H834 C822 0.956 . S
H835 C822 0.961 . S
H836 C822 0.961 . S
H837 C823 0.958 . S
H838 C823 0.961 . S
H839 C823 0.960 . S
C840 C841 1.391 . S
C840 C842 1.394 . S
C840 H856 0.931 . S
C841 C840 1.391 . S
C841 C845 1.376 . S
C842 C840 1.394 . S
C842 C843 1.369 . S
C842 C846 1.531 . S
C843 C842 1.369 . S
C843 C844 1.410 . S
C843 C851 1.503 . S
C844 C843 1.410 . S
C844 C845 1.392 . S
C844 C847 1.511 . S
C845 C841 1.376 . S
C845 C844 1.392 . S
C845 H857 0.929 . S
C846 C842 1.531 . S
C846 H858 0.960 . S
C846 H859 0.962 . S
C846 H860 0.960 . S
C847 C844 1.511 . S
C847 H861 0.961 . S
C847 H862 0.961 . S
C847 H863 0.961 . S
C848 C849 1.370 . S
C848 C850 1.363 . S
C848 H864 0.931 . S
C849 C848 1.370 . S
C849 C853 1.408 . S
C850 C848 1.363 . S
C850 C851 1.370 . S
C850 C854 1.524 . S
C851 C843 1.503 . S
C851 C850 1.370 . S
C851 C852 1.403 . S
C852 C851 1.403 . S
C852 C853 1.404 . S
C852 C855 1.539 . S
C853 C849 1.408 . S
C853 C852 1.404 . S
C853 H865 0.930 . S
C854 C850 1.524 . S
C854 H866 0.956 . S
C854 H867 0.961 . S
C854 H868 0.961 . S
C855 C852 1.539 . S
C855 H869 0.958 . S
C855 H870 0.961 . S
C855 H871 0.960 . S
H856 C840 0.931 . S
H857 C845 0.929 . S
H858 C846 0.960 . S
H859 C846 0.962 . S
H860 C846 0.960 . S
H861 C847 0.961 . S
H862 C847 0.961 . S
H863 C847 0.961 . S
H864 C848 0.931 . S
H865 C853 0.930 . S
H866 C854 0.956 . S
H867 C854 0.961 . S
H868 C854 0.961 . S
H869 C855 0.958 . S
H870 C855 0.961 . S
H871 C855 0.960 . S
C872 C873 1.391 . S
C872 C874 1.394 . S
C872 H888 0.931 . S
C873 C872 1.391 . S
C873 C877 1.376 . S
C874 C872 1.394 . S
C874 C875 1.369 . S
C874 C878 1.531 . S
C875 C874 1.369 . S
C875 C876 1.410 . S
C875 C883 1.503 . S
C876 C875 1.410 . S
C876 C877 1.392 . S
C876 C879 1.511 . S
C877 C873 1.376 . S
C877 C876 1.392 . S
C877 H889 0.929 . S
C878 C874 1.531 . S
C878 H890 0.960 . S
C878 H891 0.962 . S
C878 H892 0.960 . S
C879 C876 1.511 . S
C879 H893 0.961 . S
C879 H894 0.961 . S
C879 H895 0.961 . S
C880 C881 1.370 . S
C880 C882 1.363 . S
C880 H896 0.931 . S
C881 C880 1.370 . S
C881 C885 1.408 . S
C882 C880 1.363 . S
C882 C883 1.370 . S
C882 C886 1.524 . S
C883 C875 1.503 . S
C883 C882 1.370 . S
C883 C884 1.403 . S
C884 C883 1.403 . S
C884 C885 1.404 . S
C884 C887 1.539 . S
C885 C881 1.408 . S
C885 C884 1.404 . S
C885 H897 0.930 . S
C886 C882 1.524 . S
C886 H898 0.956 . S
C886 H899 0.961 . S
C886 H900 0.961 . S
C887 C884 1.539 . S
C887 H901 0.958 . S
C887 H902 0.961 . S
C887 H903 0.960 . S
H888 C872 0.931 . S
H889 C877 0.929 . S
H890 C878 0.960 . S
H891 C878 0.962 . S
H892 C878 0.960 . S
H893 C879 0.961 . S
H894 C879 0.961 . S
H895 C879 0.961 . S
H896 C880 0.931 . S
H897 C885 0.930 . S
H898 C886 0.956 . S
H899 C886 0.961 . S
H900 C886 0.961 . S
H901 C887 0.958 . S
H902 C887 0.961 . S
H903 C887 0.960 . S
C904 C905 1.391 . S
C904 C906 1.394 . S
C904 H920 0.931 . S
C905 C904 1.391 . S
C905 C909 1.376 . S
C906 C904 1.394 . S
C906 C907 1.369 . S
C906 C910 1.531 . S
C907 C906 1.369 . S
C907 C908 1.410 . S
C907 C915 1.503 . S
C908 C907 1.410 . S
C908 C909 1.392 . S
C908 C911 1.511 . S
C909 C905 1.376 . S
C909 C908 1.392 . S
C909 H921 0.929 . S
C910 C906 1.531 . S
C910 H922 0.960 . S
C910 H923 0.962 . S
C910 H924 0.960 . S
C911 C908 1.511 . S
C911 H925 0.961 . S
C911 H926 0.961 . S
C911 H927 0.961 . S
C912 C913 1.370 . S
C912 C914 1.363 . S
C912 H928 0.931 . S
C913 C912 1.370 . S
C913 C917 1.408 . S
C914 C912 1.363 . S
C914 C915 1.370 . S
C914 C918 1.524 . S
C915 C907 1.503 . S
C915 C914 1.370 . S
C915 C916 1.403 . S
C916 C915 1.403 . S
C916 C917 1.404 . S
C916 C919 1.539 . S
C917 C913 1.408 . S
C917 C916 1.404 . S
C917 H929 0.930 . S
C918 C914 1.524 . S
C918 H930 0.956 . S
C918 H931 0.961 . S
C918 H932 0.961 . S
C919 C916 1.539 . S
C919 H933 0.958 . S
C919 H934 0.961 . S
C919 H935 0.960 . S
H920 C904 0.931 . S
H921 C909 0.929 . S
H922 C910 0.960 . S
H923 C910 0.962 . S
H924 C910 0.960 . S
H925 C911 0.961 . S
H926 C911 0.961 . S
H927 C911 0.961 . S
H928 C912 0.931 . S
H929 C917 0.930 . S
H930 C918 0.956 . S
H931 C918 0.961 . S
H932 C918 0.961 . S
H933 C919 0.958 . S
H934 C919 0.961 . S
H935 C919 0.960 . S
C936 C937 1.391 . S
C936 C938 1.394 . S
C936 H952 0.931 . S
C937 C936 1.391 . S
C937 C941 1.376 . S
C938 C936 1.394 . S
C938 C939 1.369 . S
C938 C942 1.531 . S
C939 C938 1.369 . S
C939 C940 1.410 . S
C939 C947 1.503 . S
C940 C939 1.410 . S
C940 C941 1.392 . S
C940 C943 1.511 . S
C941 C937 1.376 . S
C941 C940 1.392 . S
C941 H953 0.929 . S
C942 C938 1.531 . S
C942 H954 0.960 . S
C942 H955 0.962 . S
C942 H956 0.960 . S
C943 C940 1.511 . S
C943 H957 0.961 . S
C943 H958 0.961 . S
C943 H959 0.961 . S
C944 C945 1.370 . S
C944 C946 1.363 . S
C944 H960 0.931 . S
C945 C944 1.370 . S
C945 C949 1.408 . S
C946 C944 1.363 . S
C946 C947 1.370 . S
C946 C950 1.524 . S
C947 C939 1.503 . S
C947 C946 1.370 . S
C947 C948 1.403 . S
C948 C947 1.403 . S
C948 C949 1.404 . S
C948 C951 1.539 . S
C949 C945 1.408 . S
C949 C948 1.404 . S
C949 H961 0.930 . S
C950 C946 1.524 . S
C950 H962 0.956 . S
C950 H963 0.961 . S
C950 H964 0.961 . S
C951 C948 1.539 . S
C951 H965 0.958 . S
C951 H966 0.961 . S
C951 H967 0.960 . S
H952 C936 0.931 . S
H953 C941 0.929 . S
H954 C942 0.960 . S
H955 C942 0.962 . S
H956 C942 0.960 . S
H957 C943 0.961 . S
H958 C943 0.961 . S
H959 C943 0.961 . S
H960 C944 0.931 . S
H961 C949 0.930 . S
H962 C950 0.956 . S
H963 C950 0.961 . S
H964 C950 0.961 . S
H965 C951 0.958 . S
H966 C951 0.961 . S
H967 C951 0.960 . S
C968 C969 1.391 . S
C968 C970 1.394 . S
C968 H984 0.931 . S
C969 C968 1.391 . S
C969 C973 1.376 . S
C970 C968 1.394 . S
C970 C971 1.369 . S
C970 C974 1.531 . S
C971 C970 1.369 . S
C971 C972 1.410 . S
C971 C979 1.503 . S
C972 C971 1.410 . S
C972 C973 1.392 . S
C972 C975 1.511 . S
C973 C969 1.376 . S
C973 C972 1.392 . S
C973 H985 0.929 . S
C974 C970 1.531 . S
C974 H986 0.960 . S
C974 H987 0.962 . S
C974 H988 0.960 . S
C975 C972 1.511 . S
C975 H989 0.961 . S
C975 H990 0.961 . S
C975 H991 0.961 . S
C976 C977 1.370 . S
C976 C978 1.363 . S
C976 H992 0.931 . S
C977 C976 1.370 . S
C977 C981 1.408 . S
C978 C976 1.363 . S
C978 C979 1.370 . S
C978 C982 1.524 . S
C979 C971 1.503 . S
C979 C978 1.370 . S
C979 C980 1.403 . S
C980 C979 1.403 . S
C980 C981 1.404 . S
C980 C983 1.539 . S
C981 C977 1.408 . S
C981 C980 1.404 . S
C981 H993 0.930 . S
C982 C978 1.524 . S
C982 H994 0.956 . S
C982 H995 0.961 . S
C982 H996 0.961 . S
C983 C980 1.539 . S
C983 H997 0.958 . S
C983 H998 0.961 1_455 S
C983 H999 0.960 . S
H984 C968 0.931 . S
H985 C973 0.929 . S
H986 C974 0.960 . S
H987 C974 0.962 . S
H988 C974 0.960 . S
H989 C975 0.961 . S
H990 C975 0.961 . S
H991 C975 0.961 . S
H992 C976 0.931 . S
H993 C981 0.930 . S
H994 C982 0.956 . S
H995 C982 0.961 . S
H996 C982 0.961 . S
H997 C983 0.958 . S
H998 C983 0.961 1_655 S
H999 C983 0.960 . S
C1000 C1001 1.391 . S
C1000 C1002 1.394 . S
C1000 H1016 0.931 . S
C1001 C1000 1.391 . S
C1001 C1005 1.376 . S
C1002 C1000 1.394 . S
C1002 C1003 1.369 . S
C1002 C1006 1.531 . S
C1003 C1002 1.369 . S
C1003 C1004 1.410 . S
C1003 C1011 1.503 . S
C1004 C1003 1.410 . S
C1004 C1005 1.392 . S
C1004 C1007 1.511 . S
C1005 C1001 1.376 . S
C1005 C1004 1.392 . S
C1005 H1017 0.929 . S
C1006 C1002 1.531 . S
C1006 H1018 0.960 . S
C1006 H1019 0.962 . S
C1006 H1020 0.960 . S
C1007 C1004 1.511 . S
C1007 H1021 0.961 . S
C1007 H1022 0.961 . S
C1007 H1023 0.961 . S
C1008 C1009 1.370 . S
C1008 C1010 1.363 . S
C1008 H1024 0.931 . S
C1009 C1008 1.370 . S
C1009 C1013 1.408 . S
C1010 C1008 1.363 . S
C1010 C1011 1.370 . S
C1010 C1014 1.524 . S
C1011 C1003 1.503 . S
C1011 C1010 1.370 . S
C1011 C1012 1.403 . S
C1012 C1011 1.403 . S
C1012 C1013 1.404 . S
C1012 C1015 1.539 . S
C1013 C1009 1.408 . S
C1013 C1012 1.404 . S
C1013 H1025 0.930 . S
C1014 C1010 1.524 . S
C1014 H1026 0.956 . S
C1014 H1027 0.961 . S
C1014 H1028 0.961 . S
C1015 C1012 1.539 . S
C1015 H1029 0.958 . S
C1015 H1030 0.961 . S
C1015 H1031 0.960 . S
H1016 C1000 0.931 . S
H1017 C1005 0.929 . S
H1018 C1006 0.960 . S
H1019 C1006 0.962 . S
H1020 C1006 0.960 . S
H1021 C1007 0.961 . S
H1022 C1007 0.961 . S
H1023 C1007 0.961 . S
H1024 C1008 0.931 . S
H1025 C1013 0.930 . S
H1026 C1014 0.956 . S
H1027 C1014 0.961 . S
H1028 C1014 0.961 . S
H1029 C1015 0.958 . S
H1030 C1015 0.961 . S
H1031 C1015 0.960 . S
C265 N1 0.948 . S
C273 C121 0.922 . S
C297 N18 1.082 . S
C305 C161 1.143 . S
C337 C186 1.994 . S
C329 N28 2.037 . S
C361 N40 2.675 . S
C369 C226 2.666 . S
C401 C157 1.907 . S
C393 N5 1.860 . S
C433 C117 1.492 . S
C425 N14 1.436 . S
C465 C248 1.787 . S
C457 N31 1.805 . S
C497 C208 1.493 . S
C489 N41 1.492 . S
C521 N2 1.136 . S
C529 C250 1.109 . S
C561 C167 2.350 1_556 S
C553 N27 2.381 . S
C585 N44 2.304 . S
C593 C127 2.378 1_655 S
C617 N15 0.946 . S
C625 C210 1.025 . S
C657 C130 1.467 . S
C649 N57 1.428 . S
C681 N70 0.821 . S
C689 C170 0.933 . S
C713 N79 2.241 . S
C721 C207 2.268 . S
C745 N93 2.413 . S
C753 C247 2.373 . S
C777 N54 1.453 . S
C785 C168 1.557 1_556 S
C817 C128 2.124 1_655 S
C809 N66 2.109 . S
C849 C237 1.265 . S
C841 N80 1.315 . S
C881 C197 1.713 . S
C873 N96 1.745 . S
C905 N53 1.250 . S
C913 C241 1.273 . S
C945 C146 1.909 . S
C937 N83 1.835 . S
C977 C106 2.392 . S
C969 N92 2.450 . S
C1001 N67 1.246 . S
C1009 C201 1.253 . S
