# Generated by pormake.
# Topology zzz, (3,6)-cn, num edge types: 1
# Building blocks:
#     Node 0, Type 0, BuildingBlock: BETDIP_clean_linker_0, # of connection points: 3
#     Node 1, Type 0, BuildingBlock: BETDIP_clean_linker_0, # of connection points: 3
#     Node 2, Type 0, BuildingBlock: BETDIP_clean_linker_0, # of connection points: 3
#     Node 3, Type 0, BuildingBlock: BETDIP_clean_linker_0, # of connection points: 3
#     Node 4, Type 0, BuildingBlock: BETDIP_clean_linker_0, # of connection points: 3
#     Node 5, Type 0, BuildingBlock: BETDIP_clean_linker_0, # of connection points: 3
#     Node 6, Type 0, BuildingBlock: BETDIP_clean_linker_0, # of connection points: 3
#     Node 7, Type 0, BuildingBlock: BETDIP_clean_linker_0, # of connection points: 3
#     Node 8, Type 1, BuildingBlock: VOLQOD_clean_sbu_1, # of connection points: 6
#     Node 9, Type 1, BuildingBlock: VOLQOD_clean_sbu_1, # of connection points: 6
#     Node 10, Type 1, BuildingBlock: VOLQOD_clean_sbu_1, # of connection points: 6
#     Node 11, Type 1, BuildingBlock: VOLQOD_clean_sbu_1, # of connection points: 6
#     Edge 12, Type (0, 1), BuildingBlock: OJICUG_clean_linker_0, # of connection points: 2
#     Edge 13, Type (0, 1), BuildingBlock: OJICUG_clean_linker_0, # of connection points: 2
#     Edge 14, Type (0, 1), BuildingBlock: OJICUG_clean_linker_0, # of connection points: 2
#     Edge 15, Type (0, 1), BuildingBlock: OJICUG_clean_linker_0, # of connection points: 2
#     Edge 16, Type (0, 1), BuildingBlock: OJICUG_clean_linker_0, # of connection points: 2
#     Edge 17, Type (0, 1), BuildingBlock: OJICUG_clean_linker_0, # of connection points: 2
#     Edge 18, Type (0, 1), BuildingBlock: OJICUG_clean_linker_0, # of connection points: 2
#     Edge 19, Type (0, 1), BuildingBlock: OJICUG_clean_linker_0, # of connection points: 2
#     Edge 20, Type (0, 1), BuildingBlock: OJICUG_clean_linker_0, # of connection points: 2
#     Edge 21, Type (0, 1), BuildingBlock: OJICUG_clean_linker_0, # of connection points: 2
#     Edge 22, Type (0, 1), BuildingBlock: OJICUG_clean_linker_0, # of connection points: 2
#     Edge 23, Type (0, 1), BuildingBlock: OJICUG_clean_linker_0, # of connection points: 2
#     Edge 24, Type (0, 1), BuildingBlock: OJICUG_clean_linker_0, # of connection points: 2
#     Edge 25, Type (0, 1), BuildingBlock: OJICUG_clean_linker_0, # of connection points: 2
#     Edge 26, Type (0, 1), BuildingBlock: OJICUG_clean_linker_0, # of connection points: 2
#     Edge 27, Type (0, 1), BuildingBlock: OJICUG_clean_linker_0, # of connection points: 2
#     Edge 28, Type (0, 1), BuildingBlock: OJICUG_clean_linker_0, # of connection points: 2
#     Edge 29, Type (0, 1), BuildingBlock: OJICUG_clean_linker_0, # of connection points: 2
#     Edge 30, Type (0, 1), BuildingBlock: OJICUG_clean_linker_0, # of connection points: 2
#     Edge 31, Type (0, 1), BuildingBlock: OJICUG_clean_linker_0, # of connection points: 2
#     Edge 32, Type (0, 1), BuildingBlock: OJICUG_clean_linker_0, # of connection points: 2
#     Edge 33, Type (0, 1), BuildingBlock: OJICUG_clean_linker_0, # of connection points: 2
#     Edge 34, Type (0, 1), BuildingBlock: OJICUG_clean_linker_0, # of connection points: 2
#     Edge 35, Type (0, 1), BuildingBlock: OJICUG_clean_linker_0, # of connection points: 2
# Relax obj value: 0.187
# Max RMSD: 0.232
# Mean RMSD: 0.111
data_MOF--net-zzz--node1-VOLQOD_clean_sbu_1--node2-BETDIP_clean_linker_0--edge1-OJICUG_clean_linker_0
_symmetry_space_group_name_H-M    P1
_symmetry_Int_Tables_number       1
_symmetry_cell_setting            triclinic
loop_
_symmetry_equiv_pos_as_xyz
'x, y, z'
_cell_length_a     37.182529
_cell_length_b     36.765768
_cell_length_c     13.297599
_cell_angle_alpha  90.368769
_cell_angle_beta   89.858715
_cell_angle_gamma 90.922253
loop_
_atom_site_label
_atom_site_type_symbol
_atom_site_fract_x
_atom_site_fract_y
_atom_site_fract_z
_atom_type_partial_charge
H0 H 0.77964 0.54518 0.23343 0.0
H1 H 0.79434 0.46616 -0.00307 0.0
H2 H 0.88576 0.5097 0.15701 0.0
H3 H 0.73343 0.56255 0.10703 0.0
C4 C 0.72398 0.53653 0.07722 0.0
C5 C 0.79725 0.5289 0.18708 0.0
C6 C 0.8346 0.52957 0.20456 0.0
C7 C 0.78296 0.5063 0.11012 0.0
C8 C 0.80576 0.4837 0.05479 0.0
C9 C 0.84302 0.48486 0.07023 0.0
C10 C 0.85697 0.50811 0.14472 0.0
N11 N 0.74594 0.50545 0.08474 0.0
H12 H 0.98775 0.78449 0.2629 0.0
H13 H 0.06318 0.77792 0.01765 0.0
H14 H 0.05322 0.87745 0.18525 0.0
H15 H 0.9934 0.75984 0.96479 0.0
C16 C 0.99954 0.73616 0.00997 0.0
C17 C 1.00934 0.79659 0.21897 0.0
C18 C 0.01948 0.83327 0.23463 0.0
C19 C 0.02509 0.77667 0.13986 0.0
C20 C 0.05194 0.7931 0.08004 0.0
C21 C 0.06208 0.82965 0.09475 0.0
C22 C 0.04651 0.84889 0.1745 0.0
N23 N 1.01089 0.742 0.1111 0.0
H24 H 0.75828 0.99783 0.23261 0.0
H25 H 0.74879 0.07823 7e-05 0.0
H26 H 0.65461 0.03936 0.15568 0.0
H27 H 0.80426 0.97964 0.10606 0.0
C28 C 0.81601 1.0057 0.08452 0.0
C29 C 0.74191 1.01578 0.1883 0.0
C30 C 0.70444 1.01655 0.20367 0.0
C31 C 0.75787 0.03836 0.11445 0.0
C32 C 0.73638 0.06171 0.05822 0.0
C33 C 0.69893 0.06182 0.07106 0.0
C34 C 0.68356 0.03983 0.14562 0.0
N35 N 0.79516 0.03768 0.09142 0.0
H36 H 0.53311 0.76529 0.25011 0.0
H37 H 0.45098 0.74464 0.02854 0.0
H38 H 0.49642 0.65596 0.19226 0.0
H39 H 0.54929 0.80822 0.12069 0.0
C40 C 0.52378 0.8177 0.09205 0.0
C41 C 0.5155 0.74647 0.2101 0.0
C42 C 0.51644 0.70915 0.23153 0.0
C43 C 0.49192 0.75908 0.13558 0.0
C44 C 0.46873 0.73446 0.08601 0.0
C45 C 0.47061 0.69687 0.10349 0.0
C46 C 0.49408 0.68482 0.17811 0.0
N47 N 0.4922 0.7958 0.10325 0.0
H48 H 0.25517 0.49997 0.05249 0.0
H49 H 0.24862 0.57861 0.29329 0.0
H50 H 0.15418 0.54855 0.12524 0.0
H51 H 0.31137 0.58992 0.21386 0.0
C52 C 0.31632 0.56188 0.23459 0.0
C53 C 0.23976 0.51929 0.09602 0.0
C54 C 0.20275 0.52284 0.0784 0.0
C55 C 0.25663 0.54009 0.17222 0.0
C56 C 0.23609 0.5641 0.23114 0.0
C57 C 0.19887 0.56699 0.21594 0.0
C58 C 0.18296 0.54717 0.13709 0.0
N59 N 0.29323 0.53386 0.19658 0.0
H60 H 0.08715 0.23588 0.0696 0.0
H61 H 0.02337 0.26036 0.33111 0.0
H62 H 0.06924 0.15557 0.30043 0.0
H63 H 1.00176 0.30104 0.17131 0.0
C64 C 0.02799 0.3125 0.19078 0.0
C65 C 0.07651 0.22743 0.14167 0.0
C66 C 0.07796 0.19061 0.17206 0.0
C67 C 0.05866 0.25333 0.20208 0.0
C68 C 0.03999 0.24177 0.28874 0.0
C69 C 0.04283 0.20592 0.32038 0.0
C70 C 0.06542 0.18229 0.26889 0.0
N71 N 0.05859 0.29057 0.1741 0.0
H72 H 0.28088 0.05861 0.0313 0.0
H73 H 0.29325 0.98786 0.28653 0.0
H74 H 0.38559 0.0225 0.11735 0.0
H75 H 0.23683 0.97047 0.2367 0.0
C76 C 0.22556 0.99755 0.23407 0.0
C77 C 0.2978 0.04322 0.08111 0.0
C78 C 0.33529 0.0428 0.06559 0.0
C79 C 0.28225 0.02335 0.16109 0.0
C80 C 0.30462 1.00274 0.22386 0.0
C81 C 0.34184 1.00173 0.20757 0.0
C82 C 0.35674 0.02235 0.12946 0.0
N83 N 0.24454 0.02529 0.18047 0.0
H84 H 0.49233 0.27149 -0.00347 0.0
H85 H 0.53184 0.29528 0.2964 0.0
H86 H 0.50073 0.38178 0.10417 0.0
H87 H 0.56531 0.24482 0.25786 0.0
C88 C 0.54282 0.22732 0.23562 0.0
C89 C 0.49893 0.29078 0.05585 0.0
C90 C 0.49367 0.32826 0.04108 0.0
C91 C 0.51332 0.27844 0.1477 0.0
C92 C 0.52216 0.30402 0.22388 0.0
C93 C 0.51719 0.3411 0.20826 0.0
C94 C 0.50332 0.35279 0.11709 0.0
N95 N 0.51765 0.24048 0.16448 0.0
O96 O 0.11532 1.01593 0.61158 0.0
Zn97 Zn 0.08243 1.01459 0.73328 0.0
O98 O 0.03137 1.01523 0.68948 0.0
Zn99 Zn 1.00731 0.05523 0.75498 0.0
Zn100 Zn 0.0282 0.0207 0.54351 0.0
Zn101 Zn 1.00543 0.97108 0.72769 0.0
O102 O 0.96197 0.04017 0.82793 0.0
O103 O 0.96131 0.98004 0.81538 0.0
O104 O 0.09479 0.05732 0.82812 0.0
O105 O 0.0399 0.07881 0.85366 0.0
O106 O 0.99703 0.09451 0.65796 0.0
O107 O 1.00513 0.06847 0.50847 0.0
O108 O 1.00396 0.97647 0.47793 0.0
O109 O 0.09278 0.96739 0.80681 0.0
O110 O 0.99194 0.9407 0.60788 0.0
O111 O 0.03911 0.93974 0.79977 0.0
C112 C 0.1099 0.01966 0.51754 0.0
C113 C 0.94751 1.00941 0.84784 0.0
C114 C 0.99643 0.09575 0.56263 0.0
C115 C 0.07345 0.07931 0.87139 0.0
C116 C 0.9928 0.94615 0.51364 0.0
C117 C 0.07213 0.94013 0.82419 0.0
O118 O 0.07827 0.02268 0.4822 0.0
O119 O 0.51941 0.10271 0.57581 0.0
Zn120 Zn 0.51689 0.06692 0.69131 0.0
O121 O 0.52143 1.0167 0.63648 0.0
Zn122 Zn 0.48036 0.98731 0.67913 0.0
Zn123 Zn 0.52336 1.0168 0.48971 0.0
Zn124 Zn 0.56484 0.99374 0.6856 0.0
O125 O 0.49433 0.94719 0.77278 0.0
O126 O 0.55391 0.9511 0.77836 0.0
O127 O 0.46884 0.07366 0.76668 0.0
O128 O 0.44502 0.01819 0.75016 0.0
O129 O 0.45193 0.96761 0.56362 0.0
O130 O 0.4807 0.99026 0.43107 0.0
O131 O 0.56947 0.99525 0.43762 0.0
O132 O 0.55941 0.08014 0.78266 0.0
O133 O 0.59931 0.97982 0.57481 0.0
O134 O 0.59236 0.03059 0.76296 0.0
C135 C 0.52106 0.09946 0.4803 0.0
C136 C 0.52432 0.93618 0.80609 0.0
C137 C 0.45465 0.97215 0.46929 0.0
C138 C 0.44283 0.05101 0.77954 0.0
C139 C 0.59727 0.98247 0.47968 0.0
C140 C 0.58828 0.06263 0.79686 0.0
O141 O 0.52206 0.06836 0.43766 0.0
O142 O 0.43332 0.52074 0.58254 0.0
Zn143 Zn 0.46931 0.51656 0.69915 0.0
O144 O 0.51887 0.52808 0.65171 0.0
Zn145 Zn 0.551 0.48771 0.67452 0.0
Zn146 Zn 0.51758 0.5368 0.51035 0.0
Zn147 Zn 0.53936 0.57182 0.70996 0.0
O148 O 0.59354 0.50276 0.76123 0.0
O149 O 0.58321 0.56103 0.79441 0.0
O150 O 0.46668 0.46472 0.75832 0.0
O151 O 0.52391 0.44864 0.74569 0.0
O152 O 0.56426 0.46095 0.54691 0.0
O153 O 0.52967 0.49117 0.4418 0.0
O154 O 0.54825 0.57876 0.46441 0.0
O155 O 0.45436 0.55514 0.80333 0.0
O156 O 0.55122 0.61047 0.60626 0.0
O157 O 0.50181 0.59303 0.79574 0.0
C158 C 0.43691 0.53643 0.49752 0.0
C159 C 0.60186 0.53254 0.80606 0.0
C160 C 0.54834 0.46363 0.46279 0.0
C161 C 0.49153 0.44146 0.77032 0.0
C162 C 0.55555 0.60819 0.51146 0.0
C163 C 0.47045 0.58488 0.82757 0.0
O164 O 0.46758 0.54703 0.46574 0.0
O165 O 0.96671 0.56803 0.49824 0.0
Zn166 Zn 1.0133 0.56491 0.58083 0.0
O167 O 0.01996 0.51576 0.63842 0.0
Zn168 Zn 0.021 0.51803 0.78521 0.0
Zn169 Zn 0.98052 0.48433 0.59519 0.0
Zn170 Zn 0.06461 0.49392 0.59202 0.0
O171 O 0.06807 0.50033 0.83908 0.0
O172 O 0.09859 0.48188 0.70496 0.0
O173 O 1.00894 0.60142 0.69453 0.0
O174 O 1.01492 0.56994 0.83541 0.0
O175 O 0.98067 0.48772 0.84326 0.0
O176 O 0.95405 0.46227 0.71049 0.0
O177 O 0.99682 0.4452 0.50011 0.0
O178 O 0.05732 0.5804 0.49768 0.0
O179 O 0.05635 0.45023 0.49866 0.0
O180 O 0.09144 0.53176 0.51749 0.0
C181 C 0.94086 0.54491 0.49009 0.0
C182 C 0.09615 0.4869 0.79946 0.0
C183 C 0.95652 0.46699 0.80493 0.0
C184 C 1.0102 0.59999 0.7903 0.0
C185 C 0.02734 0.43467 0.46869 0.0
C186 C 0.08692 0.56384 0.4854 0.0
O187 O 0.94337 0.51301 0.52526 0.0
C188 C 0.1696 0.03068 0.28636 0.0
C189 C 0.1969 1.00594 0.30745 0.0
H190 H 0.11984 0.05396 0.33613 0.0
C191 C 0.19627 0.98739 0.39932 0.0
H192 H 0.16949 0.04515 0.21566 0.0
C193 C 0.16882 0.99323 0.4691 0.0
C194 C 0.14066 1.01685 0.44707 0.0
H195 H 0.21711 0.9682 0.41715 0.0
H196 H 0.16893 0.97815 0.53884 0.0
C197 C 0.14128 0.03562 0.35503 0.0
C198 C 0.51621 0.16441 0.25933 0.0
C199 C 0.53549 0.19466 0.29706 0.0
H200 H 0.49704 0.10993 0.28767 0.0
C201 C 0.54879 0.19377 0.39567 0.0
H202 H 0.5058 0.16445 0.18333 0.0
C203 C 0.54291 0.16331 0.45602 0.0
C204 C 0.52455 0.13256 0.41796 0.0
H205 H 0.56367 0.21685 0.42642 0.0
H206 H 0.55373 0.16343 0.53162 0.0
C207 C 0.51128 0.13332 0.31889 0.0
C208 C 0.37631 0.57878 0.30398 0.0
C209 C 0.34724 0.55407 0.30036 0.0
H210 H 0.42754 0.59226 0.36825 0.0
C211 C 0.34728 0.52355 0.36359 0.0
H212 H 0.37678 0.6026 0.25639 0.0
C213 C 0.37592 0.51814 0.43021 0.0
C214 C 0.40532 0.54266 0.43255 0.0
H215 H 0.3249 0.50433 0.36304 0.0
H216 H 0.37539 0.49449 0.47837 0.0
C217 C 0.40527 0.57287 0.3682 0.0
C218 C 0.99677 0.36138 0.28446 0.0
C219 C 0.02921 0.34506 0.25714 0.0
H220 H 0.97069 0.40203 0.37217 0.0
C221 C 0.06156 0.35892 0.29774 0.0
H222 H 0.97145 0.35123 0.25435 0.0
C223 C 0.06123 0.38829 0.3658 0.0
C224 C 0.02853 0.40413 0.39487 0.0
H225 H 0.08702 0.34682 0.27809 0.0
H226 H 0.0865 0.39822 0.39662 0.0
C227 C 0.99638 0.39043 0.3525 0.0
C228 C 0.86642 0.03988 -0.00094 0.0
C229 C 0.85065 1.00662 0.02852 0.0
H230 H 0.90901 0.06683 0.9194 0.0
C231 C 0.86732 0.97412 -6e-05 0.0
H232 H 0.85438 0.06547 0.01999 0.0
C233 C 0.89877 0.97484 0.94135 0.0
C234 C 0.9143 1.00815 0.91061 0.0
H235 H 0.8557 0.9481 0.0215 0.0
H236 H 0.91079 0.94929 0.91988 0.0
C237 C 0.89783 0.04063 0.94107 0.0
C238 C 0.49149 0.86123 -0.01957 0.0
C239 C 0.52372 0.84916 0.02275 0.0
H240 H 0.46643 0.89781 0.87906 0.0
C241 C 0.55625 0.86619 -0.0055 0.0
H242 H 0.46592 0.84877 0.00067 0.0
C243 C 0.55662 0.89438 0.92397 0.0
C244 C 0.52439 0.90616 0.88048 0.0
H245 H 0.58149 0.85735 0.02588 0.0
H246 H 0.58217 0.90682 0.9034 0.0
C247 C 0.49182 0.88937 0.91027 0.0
C248 C 0.67261 0.5669 -0.0081 0.0
C249 C 0.69183 0.53516 0.0112 0.0
H250 H 0.6293 0.59117 0.91178 0.0
C251 C 0.68116 0.50258 0.96307 0.0
H252 H 0.68034 0.59239 0.02771 0.0
C253 C 0.65219 0.50185 0.89621 0.0
C254 C 0.63305 0.53365 0.87594 0.0
H255 H 0.69534 0.47756 -0.02391 0.0
H256 H 0.64483 0.47625 0.86048 0.0
C257 C 0.6435 0.56618 0.9251 0.0
C258 C 1.01045 0.66832 0.00774 0.0
C259 C 1.00078 0.70036 0.95828 0.0
H260 H 0.0209 0.61122 -0.00642 0.0
C261 C 0.99338 0.69886 0.8549 0.0
H262 H 0.01637 0.66869 0.08744 0.0
C263 C 0.99618 0.6663 0.80118 0.0
C264 C 1.00629 0.63418 0.84956 0.0
H265 H 0.98589 0.72317 0.81487 0.0
H266 H 0.99057 0.66645 0.72129 0.0
C267 C 1.01305 0.63545 0.95386 0.0
C268 C 0.9929 0.16373 0.35695 0.0
C269 C 0.01806 0.18945 0.39388 0.0
H270 H 0.9663 0.11255 0.38279 0.0
C271 C 0.0273 0.18923 0.49573 0.0
H272 H 0.98571 0.16344 0.27798 0.0
C273 C 1.01534 0.1606 0.55652 0.0
C274 C 0.9951 0.13157 0.51456 0.0
H275 H 0.047 0.20856 0.52503 0.0
H276 H 0.0259 0.15886 0.63219 0.0
C277 C 0.98197 0.13452 0.41647 0.0
C278 C 0.36091 0.98346 0.38048 0.0
C279 C 0.36622 0.98198 0.27592 0.0
H280 H 0.38519 0.97974 0.52524 0.0
C281 C 0.39821 0.96691 0.23835 0.0
H282 H 0.33665 0.9947 0.41236 0.0
C283 C 0.42656 0.95948 0.30313 0.0
C284 C 0.42271 0.96555 0.40664 0.0
H285 H 0.40256 0.96389 0.15818 0.0
H286 H 0.45231 0.95191 0.2717 0.0
C287 C 0.38886 0.97482 0.44545 0.0
C288 C 0.55935 0.37282 0.3293 0.0
C289 C 0.52501 0.36877 0.28604 0.0
H290 H 0.59427 0.40687 0.42024 0.0
C291 C 0.49876 0.39468 0.30624 0.0
H292 H 0.57999 0.35305 0.31422 0.0
C293 C 0.50717 0.42545 0.36221 0.0
C294 C 0.54186 0.43079 0.40168 0.0
H295 H 0.47193 0.3918 0.27516 0.0
H296 H 0.48619 0.4451 0.37493 0.0
C297 C 0.56765 0.40368 0.38815 0.0
C298 C 0.18086 0.57367 0.39505 0.0
C299 C 0.17491 0.58274 0.29412 0.0
H300 H 0.15668 0.56132 0.53665 0.0
C301 C 0.14128 0.59713 0.26747 0.0
H302 H 0.2063 0.5628 0.41918 0.0
C303 C 0.11239 0.59559 0.33518 0.0
C304 C 0.11728 0.58034 0.4303 0.0
H305 H 0.13619 0.60545 0.19088 0.0
H306 H 0.08572 0.60227 0.30921 0.0
C307 C 0.15222 0.57246 0.46251 0.0
C308 C 0.1006 0.88258 0.03796 0.0
C309 C 0.0806 0.85073 0.01416 0.0
H310 H 0.11358 0.93736 -0.00601 0.0
C311 C 0.06927 0.84532 0.91437 0.0
H312 H 0.11077 0.88702 0.11339 0.0
C313 C 0.07146 0.8738 0.84625 0.0
C314 C 0.08507 0.90792 0.87669 0.0
H315 H 0.05417 0.82118 0.89217 0.0
H316 H 0.05853 0.87045 0.77372 0.0
C317 C 0.1025 0.91135 0.96959 0.0
C318 C 0.68154 0.07084 0.8929 0.0
C319 C 0.67481 0.07795 -0.00501 0.0
H320 H 0.6584 0.06112 0.74829 0.0
C321 C 0.6408 0.09118 0.02325 0.0
H322 H 0.70731 0.06079 0.86801 0.0
C323 C 0.61245 0.09098 0.9541 0.0
C324 C 0.61817 0.07796 0.85625 0.0
H325 H 0.63509 0.09775 0.10114 0.0
H326 H 0.58553 0.09689 -0.01982 0.0
C327 C 0.65337 0.07076 0.82418 0.0
C328 C 0.45585 0.677 0.92829 0.0
C329 C 0.45455 0.66975 0.03191 0.0
H330 H 0.46056 0.65457 0.78057 0.0
C331 C 0.44623 0.63387 0.06288 0.0
H332 H 0.46195 0.704 0.90048 0.0
C333 C 0.44615 0.60516 -0.00699 0.0
C334 C 0.45341 0.61233 0.89164 0.0
H335 H 0.44359 0.62746 0.14196 0.0
H336 H 0.44457 0.5774 0.01977 0.0
C337 C 0.45517 0.6485 0.85892 0.0
C338 C 0.90193 0.45459 0.03773 0.0
C339 C 0.8683 0.46588 0.00185 0.0
H340 H 0.95742 0.44641 0.00172 0.0
C341 C 0.86235 0.46613 0.89756 0.0
H342 H 0.90694 0.45249 0.11767 0.0
C343 C 0.89091 0.46089 0.83121 0.0
C344 C 0.92585 0.45627 0.86848 0.0
H345 H 0.83682 0.47439 0.8669 0.0
H346 H 0.88637 0.46515 0.75171 0.0
C347 C 0.93077 0.45065 0.97156 0.0
C348 C 0.06941 0.12503 0.11874 0.0
C349 C 0.08534 0.15964 0.10033 0.0
H350 H 0.05535 0.07236 0.06234 0.0
C351 C 0.10372 0.16448 0.00813 0.0
H352 H 0.05342 0.11926 0.18473 0.0
C353 C 0.10347 0.13667 0.93464 0.0
C354 C 0.08557 0.10343 0.9533 0.0
H355 H 0.11669 0.19018 -0.00975 0.0
H356 H 0.11499 0.14205 0.86123 0.0
C357 C 0.07008 0.09746 0.04729 0.0
C358 C 0.34932 0.04172 0.88409 0.0
C359 C 0.35353 0.05919 -0.02269 0.0
H360 H 0.37493 0.02564 0.74704 0.0
C361 C 0.38389 0.08201 -0.00732 0.0
H362 H 0.32644 0.02371 0.87069 0.0
C363 C 0.41196 0.08298 0.92207 0.0
C364 C 0.40994 0.06097 0.83568 0.0
H365 H 0.38787 0.09549 0.0646 0.0
H366 H 0.43662 0.09761 0.9405 0.0
C367 C 0.3774 0.04242 0.81406 0.0
C368 C 0.50841 0.34724 0.86842 0.0
C369 C 0.4826 0.34468 0.94493 0.0
H370 H 0.53144 0.38029 0.75276 0.0
C371 C 0.45427 0.36976 0.94643 0.0
H372 H 0.53066 0.32856 0.86601 0.0
C373 C 0.45507 0.4001 0.88308 0.0
C374 C 0.48411 0.40552 0.81704 0.0
H375 H 0.4342 0.36851 0.00558 0.0
H376 H 0.43502 0.42087 0.89291 0.0
C377 C 0.50924 0.37746 0.80521 0.0
C378 C 0.18873 0.50655 0.89979 0.0
C379 C 0.18275 0.50086 0.00274 0.0
H380 H 0.16543 0.50551 0.75233 0.0
C381 C 0.15144 0.48197 0.03338 0.0
H382 H 0.21252 0.52127 0.87455 0.0
C383 C 0.12423 0.47384 0.96443 0.0
C384 C 0.12832 0.48353 0.86324 0.0
H385 H 0.14634 0.47713 0.1125 0.0
H386 H 0.09887 0.46276 -0.00832 0.0
C387 C 0.16169 0.49764 0.83009 0.0
C388 C 0.98902 0.89161 0.2734 0.0
C389 C 1.0009 0.85757 0.30684 0.0
H390 H 0.9771 0.94668 0.31296 0.0
C391 C 1.00198 0.85087 0.41037 0.0
H392 H 0.98749 0.89729 0.19366 0.0
C393 C 0.99538 0.87912 0.47903 0.0
C394 C 0.98812 0.91452 0.44483 0.0
H395 H 1.01108 0.82495 0.43802 0.0
H396 H 0.99937 0.87398 0.55831 0.0
C397 C 0.9831 0.91993 0.34159 0.0
C398 C 0.65439 0.97413 0.24878 0.0
C399 C 0.6852 0.99399 0.27927 0.0
H400 H 0.60161 0.95512 0.28949 0.0
C401 C 0.69046 1.00091 0.3821 0.0
H402 H 0.64982 0.96833 0.16978 0.0
C403 C 0.66303 0.99261 0.45123 0.0
C404 C 0.62994 0.97791 0.41766 0.0
H405 H 0.71382 1.01637 0.40738 0.0
H406 H 0.66619 1.00159 0.52851 0.0
C407 C 0.62671 0.96671 0.3171 0.0
C408 C 0.56282 0.66507 0.2812 0.0
C409 C 0.54022 0.69375 0.30881 0.0
H410 H 0.58614 0.61492 0.3261 0.0
C411 C 0.53237 0.6994 0.41088 0.0
H412 H 0.56931 0.66031 0.20275 0.0
C413 C 0.54238 0.67354 0.48207 0.0
C414 C 0.55983 0.64163 0.45117 0.0
H415 H 0.51485 0.72123 0.43375 0.0
H416 H 0.53239 0.67632 0.55829 0.0
C417 C 0.57236 0.63903 0.35176 0.0
C418 C 0.84771 0.53213 0.38595 0.0
C419 C 0.85181 0.54819 0.29132 0.0
H420 H 0.87335 0.51859 0.5242 0.0
C421 C 0.88175 0.57137 0.27416 0.0
H422 H 0.82515 0.5139 0.40076 0.0
C423 C 0.90968 0.57388 0.34461 0.0
C424 C 0.90794 0.55309 0.43262 0.0
H425 H 0.88563 0.58378 0.20115 0.0
H426 H 0.93408 0.58872 0.32505 0.0
C427 C 0.87568 0.53434 0.45582 0.0
loop_
_geom_bond_atom_site_label_1
_geom_bond_atom_site_label_2
_geom_bond_distance
_geom_bond_site_symmetry_2
_ccdc_geom_bond_type
H0 C5 0.930 . S
H1 C8 0.930 . S
H2 C10 0.930 . S
H3 C4 1.016 . S
C4 H3 1.016 . S
C4 N11 1.286 1_556 S
C5 H0 0.930 . S
C5 C6 1.397 . S
C5 C7 1.361 . S
C6 C5 1.397 . S
C6 C10 1.390 . S
C7 C5 1.361 . S
C7 C8 1.393 1_554 S
C7 N11 1.413 . S
C8 H1 0.930 . S
C8 C7 1.393 1_556 S
C8 C9 1.399 . S
C9 C8 1.399 . S
C9 C10 1.381 1_556 S
C10 H2 0.930 . S
C10 C6 1.390 . S
C10 C9 1.381 1_554 S
N11 C4 1.286 1_554 S
N11 C7 1.413 . S
H12 C17 0.930 . S
H13 C20 0.930 1_556 S
H14 C22 0.930 . S
H15 C16 1.016 1_556 S
C16 H15 1.016 1_554 S
C16 N23 1.286 1_655 S
C17 H12 0.930 . S
C17 C18 1.397 . S
C17 C19 1.361 . S
C18 C17 1.397 . S
C18 C22 1.390 1_455 S
C19 C17 1.361 . S
C19 C20 1.393 . S
C19 N23 1.413 . S
C20 H13 0.930 1_554 S
C20 C19 1.393 . S
C20 C21 1.399 . S
C21 C20 1.399 . S
C21 C22 1.381 1_455 S
C22 H14 0.930 . S
C22 C18 1.390 1_655 S
C22 C21 1.381 1_655 S
N23 C16 1.286 1_455 S
N23 C19 1.413 . S
H24 C29 0.930 . S
H25 C32 0.930 . S
H26 C34 0.930 . S
H27 C28 1.016 . S
C28 H27 1.016 . S
C28 N35 1.286 1_566 S
C29 H24 0.930 . S
C29 C30 1.397 . S
C29 C31 1.361 . S
C30 C29 1.397 . S
C30 C34 1.390 1_545 S
C31 C29 1.361 . S
C31 C32 1.393 1_554 S
C31 N35 1.413 . S
C32 H25 0.930 . S
C32 C31 1.393 1_556 S
C32 C33 1.399 . S
C33 C32 1.399 . S
C33 C34 1.377 1_546 S
C34 H26 0.930 . S
C34 C30 1.390 1_565 S
C34 C33 1.377 1_564 S
N35 C28 1.286 1_544 S
N35 C31 1.413 . S
H36 C41 0.930 . S
H37 C44 0.930 . S
H38 C46 0.930 . S
H39 C40 1.016 . S
C40 H39 1.016 . S
C40 N47 1.286 1_556 S
C41 H36 0.930 . S
C41 C42 1.397 . S
C41 C43 1.361 . S
C42 C41 1.397 . S
C42 C46 1.390 . S
C43 C41 1.361 . S
C43 C44 1.393 1_554 S
C43 N47 1.413 . S
C44 H37 0.930 . S
C44 C43 1.393 1_556 S
C44 C45 1.399 . S
C45 C44 1.399 . S
C45 C46 1.381 1_556 S
C46 H38 0.930 . S
C46 C42 1.390 . S
C46 C45 1.381 1_554 S
N47 C40 1.286 1_554 S
N47 C43 1.413 . S
H48 C53 0.930 . S
H49 C56 0.930 . S
H50 C58 0.930 . S
H51 C52 1.016 . S
C52 H51 1.016 . S
C52 N59 1.286 . S
C53 H48 0.930 . S
C53 C54 1.397 . S
C53 C55 1.361 . S
C54 C53 1.397 . S
C54 C58 1.390 . S
C55 C53 1.361 . S
C55 C56 1.393 . S
C55 N59 1.413 . S
C56 H49 0.930 . S
C56 C55 1.393 . S
C56 C57 1.399 . S
C57 C56 1.399 . S
C57 C58 1.381 . S
C58 H50 0.930 . S
C58 C54 1.390 . S
C58 C57 1.381 . S
N59 C52 1.286 . S
N59 C55 1.413 . S
H60 C65 0.930 . S
H61 C68 0.930 . S
H62 C70 0.930 . S
H63 C64 1.016 . S
C64 H63 1.016 . S
C64 N71 1.286 . S
C65 H60 0.930 . S
C65 C66 1.397 . S
C65 C67 1.361 . S
C66 C65 1.397 . S
C66 C70 1.390 . S
C67 C65 1.361 . S
C67 C68 1.393 . S
C67 N71 1.413 . S
C68 H61 0.930 . S
C68 C67 1.393 . S
C68 C69 1.399 . S
C69 C68 1.399 . S
C69 C70 1.381 . S
C70 H62 0.930 . S
C70 C66 1.390 . S
C70 C69 1.381 . S
N71 C64 1.286 . S
N71 C67 1.413 . S
H72 C77 0.930 . S
H73 C80 0.930 . S
H74 C82 0.930 . S
H75 C76 1.006 1_565 S
C76 H75 1.006 1_545 S
C76 N83 1.286 . S
C77 H72 0.930 . S
C77 C78 1.397 . S
C77 C79 1.361 . S
C78 C77 1.397 . S
C78 C82 1.390 . S
C79 C77 1.361 . S
C79 C80 1.393 . S
C79 N83 1.413 . S
C80 H73 0.930 . S
C80 C79 1.393 . S
C80 C81 1.399 . S
C81 C80 1.399 . S
C81 C82 1.381 . S
C82 H74 0.930 . S
C82 C78 1.390 . S
C82 C81 1.381 . S
N83 C76 1.286 . S
N83 C79 1.413 . S
H84 C89 0.930 . S
H85 C92 0.930 . S
H86 C94 0.930 . S
H87 C88 1.016 . S
C88 H87 1.016 . S
C88 N95 1.286 . S
C89 H84 0.930 . S
C89 C90 1.397 . S
C89 C91 1.361 . S
C90 C89 1.397 . S
C90 C94 1.390 . S
C91 C89 1.361 . S
C91 C92 1.393 . S
C91 N95 1.413 . S
C92 H85 0.930 . S
C92 C91 1.393 . S
C92 C93 1.399 . S
C93 C92 1.399 . S
C93 C94 1.381 . S
C94 H86 0.930 . S
C94 C90 1.390 . S
C94 C93 1.381 . S
N95 C88 1.286 . S
N95 C91 1.413 . S
O96 Zn97 1.953 . S
O96 C112 1.225 1_545 S
Zn97 O96 1.953 . S
Zn97 O98 1.948 1_545 S
Zn97 O104 1.919 . S
Zn97 O109 1.924 1_545 S
O98 Zn97 1.948 1_565 S
O98 Zn99 1.899 1_465 S
O98 Zn100 1.952 . S
O98 Zn101 1.968 1_455 S
Zn99 O98 1.899 1_645 S
Zn99 O102 1.933 . S
Zn99 O105 1.941 1_655 S
Zn99 O106 1.965 . S
Zn100 O98 1.952 . S
Zn100 O107 1.938 1_565 S
Zn100 O108 1.906 . S
Zn100 O118 1.953 . S
Zn101 O98 1.968 1_655 S
Zn101 O103 1.932 . S
Zn101 O110 1.977 . S
Zn101 O111 1.910 1_655 S
O102 Zn99 1.933 . S
O102 C113 1.226 . S
O103 Zn101 1.932 . S
O103 C113 1.307 1_565 S
O104 Zn97 1.919 . S
O104 C115 1.253 . S
O105 Zn99 1.941 1_455 S
O105 C115 1.283 . S
O106 Zn99 1.965 . S
O106 C114 1.303 1_655 S
O107 Zn100 1.938 1_545 S
O107 C114 1.247 . S
O108 Zn100 1.906 . S
O108 C116 1.304 1_455 S
O109 Zn97 1.924 1_565 S
O109 C117 1.311 . S
O110 Zn101 1.977 . S
O110 C116 1.272 . S
O111 Zn101 1.910 1_455 S
O111 C117 1.231 . S
C112 O96 1.225 1_565 S
C112 O118 1.298 . S
C113 O102 1.226 . S
C113 O103 1.307 1_545 S
C114 O106 1.303 1_455 S
C114 O107 1.247 . S
C115 O104 1.253 . S
C115 O105 1.283 . S
C116 O108 1.304 1_655 S
C116 O110 1.272 . S
C117 O109 1.311 . S
C117 O111 1.231 . S
O118 Zn100 1.953 . S
O118 C112 1.298 . S
O119 Zn120 1.953 . S
O119 C135 1.225 . S
Zn120 O119 1.953 . S
Zn120 O121 1.949 . S
Zn120 O127 1.919 . S
Zn120 O132 1.924 . S
O121 Zn120 1.949 . S
O121 Zn122 1.923 1_545 S
O121 Zn123 1.950 . S
O121 Zn124 1.945 1_545 S
Zn122 O121 1.923 1_565 S
Zn122 O125 1.933 . S
Zn122 O128 1.941 . S
Zn122 O129 1.965 . S
Zn123 O121 1.950 . S
Zn123 O130 1.938 . S
Zn123 O131 1.906 . S
Zn123 O141 1.953 . S
Zn124 O121 1.945 1_565 S
Zn124 O126 1.932 . S
Zn124 O133 1.977 . S
Zn124 O134 1.910 1_565 S
O125 Zn122 1.933 . S
O125 C136 1.226 . S
O126 Zn124 1.932 . S
O126 C136 1.307 . S
O127 Zn120 1.919 . S
O127 C138 1.253 . S
O128 Zn122 1.941 . S
O128 C138 1.283 1_565 S
O129 Zn122 1.965 . S
O129 C137 1.303 1_565 S
O130 Zn123 1.938 . S
O130 C137 1.247 . S
O131 Zn123 1.906 . S
O131 C139 1.304 1_545 S
O132 Zn120 1.924 . S
O132 C140 1.311 . S
O133 Zn124 1.977 . S
O133 C139 1.272 . S
O134 Zn124 1.910 1_545 S
O134 C140 1.231 . S
C135 O119 1.225 . S
C135 O141 1.298 . S
C136 O125 1.226 . S
C136 O126 1.307 . S
C137 O129 1.303 1_545 S
C137 O130 1.247 . S
C138 O127 1.253 . S
C138 O128 1.283 1_545 S
C139 O131 1.304 1_565 S
C139 O133 1.272 . S
C140 O132 1.311 . S
C140 O134 1.231 . S
O141 Zn123 1.953 . S
O141 C135 1.298 . S
O142 Zn143 1.953 . S
O142 C158 1.225 . S
Zn143 O142 1.953 . S
Zn143 O144 1.949 . S
Zn143 O150 1.919 . S
Zn143 O155 1.924 . S
O144 Zn143 1.949 . S
O144 Zn145 1.923 . S
O144 Zn146 1.950 . S
O144 Zn147 1.945 . S
Zn145 O144 1.923 . S
Zn145 O148 1.933 . S
Zn145 O151 1.941 . S
Zn145 O152 1.965 . S
Zn146 O144 1.950 . S
Zn146 O153 1.938 . S
Zn146 O154 1.906 . S
Zn146 O164 1.953 . S
Zn147 O144 1.945 . S
Zn147 O149 1.932 . S
Zn147 O156 1.977 . S
Zn147 O157 1.910 . S
O148 Zn145 1.933 . S
O148 C159 1.226 . S
O149 Zn147 1.932 . S
O149 C159 1.307 . S
O150 Zn143 1.919 . S
O150 C161 1.253 . S
O151 Zn145 1.941 . S
O151 C161 1.283 . S
O152 Zn145 1.965 . S
O152 C160 1.303 . S
O153 Zn146 1.938 . S
O153 C160 1.247 . S
O154 Zn146 1.906 . S
O154 C162 1.304 . S
O155 Zn143 1.924 . S
O155 C163 1.311 . S
O156 Zn147 1.977 . S
O156 C162 1.272 . S
O157 Zn147 1.910 . S
O157 C163 1.231 . S
C158 O142 1.225 . S
C158 O164 1.298 . S
C159 O148 1.226 . S
C159 O149 1.307 . S
C160 O152 1.303 . S
C160 O153 1.247 . S
C161 O150 1.253 . S
C161 O151 1.283 . S
C162 O154 1.304 . S
C162 O156 1.272 . S
C163 O155 1.311 . S
C163 O157 1.231 . S
O164 Zn146 1.953 . S
O164 C158 1.298 . S
O165 Zn166 1.953 1_655 S
O165 C181 1.225 . S
Zn166 O165 1.953 1_455 S
Zn166 O167 1.949 . S
Zn166 O173 1.919 . S
Zn166 O178 1.924 . S
O167 Zn166 1.949 . S
O167 Zn168 1.917 1_455 S
O167 Zn169 1.929 1_455 S
O167 Zn170 1.973 . S
Zn168 O167 1.917 1_655 S
Zn168 O171 1.933 1_655 S
Zn168 O174 1.941 . S
Zn168 O175 1.965 . S
Zn169 O167 1.929 1_655 S
Zn169 O176 1.938 . S
Zn169 O177 1.906 . S
Zn169 O187 1.953 . S
Zn170 O167 1.973 . S
Zn170 O172 1.932 . S
Zn170 O179 1.977 . S
Zn170 O180 1.910 . S
O171 Zn168 1.933 1_455 S
O171 C182 1.226 . S
O172 Zn170 1.932 . S
O172 C182 1.307 . S
O173 Zn166 1.919 . S
O173 C184 1.253 . S
O174 Zn168 1.941 . S
O174 C184 1.283 1_655 S
O175 Zn168 1.965 . S
O175 C183 1.303 . S
O176 Zn169 1.938 . S
O176 C183 1.247 . S
O177 Zn169 1.906 . S
O177 C185 1.304 1_655 S
O178 Zn166 1.924 . S
O178 C186 1.311 . S
O179 Zn170 1.977 . S
O179 C185 1.272 . S
O180 Zn170 1.910 . S
O180 C186 1.231 . S
C181 O165 1.225 . S
C181 O187 1.298 . S
C182 O171 1.226 . S
C182 O172 1.307 . S
C183 O175 1.303 . S
C183 O176 1.247 . S
C184 O173 1.253 . S
C184 O174 1.283 1_455 S
C185 O177 1.304 1_455 S
C185 O179 1.272 . S
C186 O178 1.311 . S
C186 O180 1.231 . S
O187 Zn169 1.953 . S
O187 C181 1.298 . S
C188 C189 1.387 . S
C188 H192 0.950 . S
C188 C197 1.390 . S
C189 C188 1.387 . S
C189 C191 1.387 1_545 S
H190 C197 0.950 . S
C191 C189 1.387 1_565 S
C191 C193 1.390 . S
C191 H195 0.950 . S
H192 C188 0.950 . S
C193 C191 1.390 . S
C193 C194 1.414 . S
C193 H196 0.950 . S
C194 C193 1.414 . S
C194 C197 1.358 1_565 S
H195 C191 0.950 . S
H196 C193 0.950 . S
C197 C188 1.390 . S
C197 H190 0.950 . S
C197 C194 1.358 1_545 S
C198 C199 1.387 . S
C198 H202 0.950 . S
C198 C207 1.390 . S
C199 C198 1.387 . S
C199 C201 1.387 . S
H200 C207 0.950 . S
C201 C199 1.387 . S
C201 C203 1.390 . S
C201 H205 0.950 . S
H202 C198 0.950 . S
C203 C201 1.390 . S
C203 C204 1.387 . S
C203 H206 0.950 . S
C204 C203 1.387 . S
C204 C207 1.387 . S
H205 C201 0.950 . S
H206 C203 0.950 . S
C207 C198 1.390 . S
C207 H200 0.950 . S
C207 C204 1.387 . S
C208 C209 1.387 . S
C208 H212 0.950 . S
C208 C217 1.390 . S
C209 C208 1.387 . S
C209 C211 1.387 . S
H210 C217 0.950 . S
C211 C209 1.387 . S
C211 C213 1.390 . S
C211 H215 0.950 . S
H212 C208 0.950 . S
C213 C211 1.390 . S
C213 C214 1.387 . S
C213 H216 0.950 . S
C214 C213 1.387 . S
C214 C217 1.387 . S
H215 C211 0.950 . S
H216 C213 0.950 . S
C217 C208 1.390 . S
C217 H210 0.950 . S
C217 C214 1.387 . S
C218 C219 1.387 . S
C218 H222 0.950 1_455 S
C218 C227 1.390 1_455 S
C219 C218 1.387 . S
C219 C221 1.387 . S
H220 C227 0.950 . S
C221 C219 1.387 . S
C221 C223 1.390 . S
C221 H225 0.950 . S
H222 C218 0.950 1_655 S
C223 C221 1.390 . S
C223 C224 1.387 . S
C223 H226 0.950 . S
C224 C223 1.387 . S
C224 C227 1.387 1_455 S
H225 C221 0.950 . S
H226 C223 0.950 . S
C227 C218 1.390 1_655 S
C227 H220 0.950 . S
C227 C224 1.387 1_655 S
C228 C229 1.383 1_545 S
C228 H232 0.950 . S
C228 C237 1.390 . S
C229 C228 1.383 1_565 S
C229 C231 1.392 . S
H230 C237 0.950 . S
C231 C229 1.392 . S
C231 C233 1.390 . S
C231 H235 0.950 . S
H232 C228 0.950 . S
C233 C231 1.390 . S
C233 C234 1.387 1_565 S
C233 H236 0.950 . S
C234 C233 1.387 1_545 S
C234 C237 1.387 . S
H235 C231 0.950 . S
H236 C233 0.950 . S
C237 C228 1.390 . S
C237 H230 0.950 . S
C237 C234 1.387 . S
C238 C239 1.387 . S
C238 H242 0.950 . S
C238 C247 1.390 . S
C239 C238 1.387 . S
C239 C241 1.387 . S
H240 C247 0.950 . S
C241 C239 1.387 . S
C241 C243 1.390 . S
C241 H245 0.950 . S
H242 C238 0.950 . S
C243 C241 1.390 . S
C243 C244 1.387 . S
C243 H246 0.950 . S
C244 C243 1.387 . S
C244 C247 1.387 . S
H245 C241 0.950 . S
H246 C243 0.950 . S
C247 C238 1.390 . S
C247 H240 0.950 . S
C247 C244 1.387 . S
C248 C249 1.387 . S
C248 H252 0.950 . S
C248 C257 1.390 . S
C249 C248 1.387 . S
C249 C251 1.387 . S
H250 C257 0.950 . S
C251 C249 1.387 . S
C251 C253 1.390 . S
C251 H255 0.950 . S
H252 C248 0.950 . S
C253 C251 1.390 . S
C253 C254 1.387 . S
C253 H256 0.950 . S
C254 C253 1.387 . S
C254 C257 1.387 . S
H255 C251 0.950 . S
H256 C253 0.950 . S
C257 C248 1.390 . S
C257 H250 0.950 . S
C257 C254 1.387 . S
C258 C259 1.403 . S
C258 H262 0.950 1_556 S
C258 C267 1.390 . S
C259 C258 1.403 . S
C259 C261 1.370 1_655 S
H260 C267 0.950 . S
C261 C259 1.370 1_455 S
C261 C263 1.390 . S
C261 H265 0.950 . S
H262 C258 0.950 1_554 S
C263 C261 1.390 . S
C263 C264 1.387 . S
C263 H266 0.950 . S
C264 C263 1.387 . S
C264 C267 1.387 1_455 S
H265 C261 0.950 . S
H266 C263 0.950 . S
C267 C258 1.390 . S
C267 H260 0.950 . S
C267 C264 1.387 1_655 S
C268 C269 1.387 . S
C268 H272 0.950 . S
C268 C277 1.390 . S
C269 C268 1.387 . S
C269 C271 1.387 . S
H270 C277 0.950 . S
C271 C269 1.387 . S
C271 C273 1.390 . S
C271 H275 0.950 . S
H272 C268 0.950 . S
C273 C271 1.390 . S
C273 C274 1.387 . S
C273 H276 0.950 . S
C274 C273 1.387 . S
C274 C277 1.387 . S
H275 C271 0.950 . S
H276 C273 0.950 . S
C277 C268 1.390 . S
C277 H270 0.950 . S
C277 C274 1.387 . S
C278 C279 1.387 . S
C278 H282 0.950 . S
C278 C287 1.390 . S
C279 C278 1.387 . S
C279 C281 1.387 1_545 S
H280 C287 0.950 . S
C281 C279 1.387 1_565 S
C281 C283 1.390 . S
C281 H285 0.950 . S
H282 C278 0.950 . S
C283 C281 1.390 . S
C283 C284 1.387 1_565 S
C283 H286 0.950 . S
C284 C283 1.387 1_545 S
C284 C287 1.387 . S
H285 C281 0.950 . S
H286 C283 0.950 . S
C287 C278 1.390 . S
C287 H280 0.950 . S
C287 C284 1.387 . S
C288 C289 1.387 . S
C288 H292 0.950 . S
C288 C297 1.390 . S
C289 C288 1.387 . S
C289 C291 1.387 . S
H290 C297 0.950 . S
C291 C289 1.387 . S
C291 C293 1.390 . S
C291 H295 0.950 . S
H292 C288 0.950 . S
C293 C291 1.390 . S
C293 C294 1.387 . S
C293 H296 0.950 . S
C294 C293 1.387 . S
C294 C297 1.387 . S
H295 C291 0.950 . S
H296 C293 0.950 . S
C297 C288 1.390 . S
C297 H290 0.950 . S
C297 C294 1.387 . S
C298 C299 1.387 . S
C298 H302 0.950 . S
C298 C307 1.390 . S
C299 C298 1.387 . S
C299 C301 1.387 . S
H300 C307 0.950 . S
C301 C299 1.387 . S
C301 C303 1.390 . S
C301 H305 0.950 . S
H302 C298 0.950 . S
C303 C301 1.390 . S
C303 C304 1.387 . S
C303 H306 0.950 . S
C304 C303 1.387 . S
C304 C307 1.387 . S
H305 C301 0.950 . S
H306 C303 0.950 . S
C307 C298 1.390 . S
C307 H300 0.950 . S
C307 C304 1.387 . S
C308 C309 1.387 1_554 S
C308 H312 0.950 . S
C308 C317 1.390 . S
C309 C308 1.387 1_556 S
C309 C311 1.387 . S
H310 C317 0.950 . S
C311 C309 1.387 . S
C311 C313 1.390 . S
C311 H315 0.950 1_455 S
H312 C308 0.950 . S
C313 C311 1.390 . S
C313 C314 1.387 . S
C313 H316 0.950 . S
C314 C313 1.387 . S
C314 C317 1.387 1_556 S
H315 C311 0.950 1_655 S
H316 C313 0.950 . S
C317 C308 1.390 . S
C317 H310 0.950 . S
C317 C314 1.387 1_554 S
C318 C319 1.387 1_565 S
C318 H322 0.950 . S
C318 C327 1.390 1_565 S
C319 C318 1.387 1_545 S
C319 C321 1.387 . S
H320 C327 0.950 1_565 S
C321 C319 1.387 . S
C321 C323 1.390 . S
C321 H325 0.950 1_556 S
H322 C318 0.950 . S
C323 C321 1.390 . S
C323 C324 1.387 . S
C323 H326 0.950 . S
C324 C323 1.387 . S
C324 C327 1.387 . S
H325 C321 0.950 1_554 S
H326 C323 0.950 . S
C327 C318 1.390 1_545 S
C327 H320 0.950 1_545 S
C327 C324 1.387 . S
C328 C329 1.387 . S
C328 H332 0.950 . S
C328 C337 1.390 . S
C329 C328 1.387 . S
C329 C331 1.387 . S
H330 C337 0.950 . S
C331 C329 1.387 . S
C331 C333 1.390 . S
C331 H335 0.950 1_556 S
H332 C328 0.950 . S
C333 C331 1.390 . S
C333 C334 1.387 . S
C333 H336 0.951 . S
C334 C333 1.387 . S
C334 C337 1.387 . S
H335 C331 0.950 1_554 S
H336 C333 0.951 . S
C337 C328 1.390 . S
C337 H330 0.950 . S
C337 C334 1.387 . S
C338 C339 1.387 . S
C338 H342 0.950 . S
C338 C347 1.390 . S
C339 C338 1.387 . S
C339 C341 1.387 . S
H340 C347 0.950 . S
C341 C339 1.387 . S
C341 C343 1.390 . S
C341 H345 0.950 . S
H342 C338 0.950 . S
C343 C341 1.390 . S
C343 C344 1.387 . S
C343 H346 0.950 . S
C344 C343 1.387 . S
C344 C347 1.387 . S
H345 C341 0.950 . S
H346 C343 0.950 . S
C347 C338 1.390 . S
C347 H340 0.950 . S
C347 C344 1.387 . S
C348 C349 1.387 . S
C348 H352 0.950 . S
C348 C357 1.390 . S
C349 C348 1.387 . S
C349 C351 1.387 . S
H350 C357 0.950 . S
C351 C349 1.387 . S
C351 C353 1.390 1_554 S
C351 H355 0.950 1_554 S
H352 C348 0.950 . S
C353 C351 1.390 1_556 S
C353 C354 1.387 1_556 S
C353 H356 0.950 . S
C354 C353 1.387 1_554 S
C354 C357 1.387 . S
H355 C351 0.950 1_556 S
H356 C353 0.950 . S
C357 C348 1.390 . S
C357 H350 0.950 . S
C357 C354 1.387 . S
C358 C359 1.387 1_565 S
C358 H362 0.950 . S
C358 C367 1.390 . S
C359 C358 1.387 1_545 S
C359 C361 1.387 . S
H360 C367 0.950 1_556 S
C361 C359 1.387 . S
C361 C363 1.390 1_554 S
C361 H365 0.950 . S
H362 C358 0.950 . S
C363 C361 1.390 1_556 S
C363 C364 1.387 . S
C363 H366 0.950 . S
C364 C363 1.387 . S
C364 C367 1.387 1_546 S
H365 C361 0.950 . S
H366 C363 0.950 . S
C367 C358 1.390 . S
C367 H360 0.950 1_554 S
C367 C364 1.387 1_564 S
C368 C369 1.387 1_556 S
C368 H372 0.950 . S
C368 C377 1.390 . S
C369 C368 1.387 1_554 S
C369 C371 1.387 . S
H370 C377 0.950 . S
C371 C369 1.387 . S
C371 C373 1.390 . S
C371 H375 0.950 . S
H372 C368 0.950 . S
C373 C371 1.390 . S
C373 C374 1.387 1_554 S
C373 H376 0.950 . S
C374 C373 1.387 1_556 S
C374 C377 1.387 . S
H375 C371 0.950 . S
H376 C373 0.950 . S
C377 C368 1.390 . S
C377 H370 0.950 . S
C377 C374 1.387 . S
C378 C379 1.387 . S
C378 H382 0.950 . S
C378 C387 1.390 1_554 S
C379 C378 1.387 . S
C379 C381 1.387 . S
H380 C387 0.950 . S
C381 C379 1.387 . S
C381 C383 1.390 1_554 S
C381 H385 0.950 . S
H382 C378 0.950 . S
C383 C381 1.390 1_556 S
C383 C384 1.387 . S
C383 H386 0.950 . S
C384 C383 1.387 . S
C384 C387 1.387 . S
H385 C381 0.950 . S
H386 C383 0.950 . S
C387 C378 1.390 1_556 S
C387 H380 0.950 . S
C387 C384 1.387 . S
C388 C389 1.387 . S
C388 H392 0.950 . S
C388 C397 1.390 . S
C389 C388 1.387 . S
C389 C391 1.387 1_655 S
H390 C397 0.950 . S
C391 C389 1.387 1_455 S
C391 C393 1.390 . S
C391 H395 0.950 . S
H392 C388 0.950 . S
C393 C391 1.390 . S
C393 C394 1.387 1_455 S
C393 H396 0.950 . S
C394 C393 1.387 1_655 S
C394 C397 1.387 . S
H395 C391 0.950 . S
H396 C393 0.950 . S
C397 C388 1.390 . S
C397 H390 0.950 . S
C397 C394 1.387 . S
C398 C399 1.387 . S
C398 H402 0.950 . S
C398 C407 1.390 . S
C399 C398 1.387 . S
C399 C401 1.387 . S
H400 C407 0.950 . S
C401 C399 1.387 . S
C401 C403 1.390 . S
C401 H405 0.950 1_565 S
H402 C398 0.950 . S
C403 C401 1.390 . S
C403 C404 1.387 . S
C403 H406 0.950 . S
C404 C403 1.387 . S
C404 C407 1.387 . S
H405 C401 0.950 1_545 S
H406 C403 0.950 . S
C407 C398 1.390 . S
C407 H400 0.950 . S
C407 C404 1.387 . S
C408 C409 1.387 . S
C408 H412 0.950 . S
C408 C417 1.390 . S
C409 C408 1.387 . S
C409 C411 1.387 . S
H410 C417 0.950 . S
C411 C409 1.387 . S
C411 C413 1.390 . S
C411 H415 0.950 . S
H412 C408 0.950 . S
C413 C411 1.390 . S
C413 C414 1.387 . S
C413 H416 0.950 . S
C414 C413 1.387 . S
C414 C417 1.387 . S
H415 C411 0.950 . S
H416 C413 0.950 . S
C417 C408 1.390 . S
C417 H410 0.950 . S
C417 C414 1.387 . S
C418 C419 1.387 . S
C418 H422 0.950 . S
C418 C427 1.390 . S
C419 C418 1.387 . S
C419 C421 1.387 . S
H420 C427 0.950 . S
C421 C419 1.387 . S
C421 C423 1.390 . S
C421 H425 0.950 . S
H422 C418 0.950 . S
C423 C421 1.390 . S
C423 C424 1.387 . S
C423 H426 0.950 . S
C424 C423 1.387 . S
C424 C427 1.387 . S
H425 C421 0.950 . S
H426 C423 0.950 . S
C427 C418 1.390 . S
C427 H420 0.950 . S
C427 C424 1.387 . S
C189 C76 1.575 . S
C194 C112 1.624 . S
C204 C135 1.649 . S
C199 C88 1.598 . S
C214 C158 1.647 . S
C209 C52 1.600 . S
C224 C185 1.525 . S
C219 C64 1.574 . S
C234 C113 1.570 . S
C229 C28 1.529 . S
C239 C40 1.490 . S
C244 C136 1.535 . S
C249 C4 1.492 . S
C254 C159 1.530 . S
C259 C16 1.565 1_556 S
C264 C184 1.596 . S
C274 C114 0.758 . S
C269 C69 0.753 . S
C284 C137 0.723 . S
C279 C81 0.724 . S
C294 C160 0.748 . S
C289 C93 0.751 . S
C299 C57 0.899 . S
C304 C186 0.871 . S
C309 C21 1.000 1_556 S
C314 C117 0.956 . S
C324 C140 0.941 . S
C319 C33 0.999 . S
C334 C163 0.913 . S
C329 C45 0.964 . S
C339 C9 0.725 . S
C344 C183 0.726 . S
C349 C66 1.577 . S
C354 C115 1.549 1_554 S
C359 C78 1.532 . S
C364 C138 1.533 . S
C374 C161 1.544 . S
C369 C90 1.549 . S
C384 C182 1.465 . S
C379 C54 1.405 . S
C389 C18 1.658 1_655 S
C394 C116 1.567 . S
C404 C139 1.519 . S
C399 C30 1.617 1_565 S
C414 C162 1.506 . S
C409 C42 1.592 . S
C419 C6 1.654 . S
C424 C181 1.702 . S
