# Generated by pormake.
# Topology apo, (3,6)-cn, num edge types: 1
# Building blocks:
#     Node 0, Type 0, BuildingBlock: CUQRIR_clean_linker_1, # of connection points: 3
#     Node 1, Type 0, BuildingBlock: CUQRIR_clean_linker_1, # of connection points: 3
#     Node 2, Type 0, BuildingBlock: CUQRIR_clean_linker_1, # of connection points: 3
#     Node 3, Type 0, BuildingBlock: CUQRIR_clean_linker_1, # of connection points: 3
#     Node 4, Type 0, BuildingBlock: CUQRIR_clean_linker_1, # of connection points: 3
#     Node 5, Type 0, BuildingBlock: CUQRIR_clean_linker_1, # of connection points: 3
#     Node 6, Type 0, BuildingBlock: CUQRIR_clean_linker_1, # of connection points: 3
#     Node 7, Type 0, BuildingBlock: CUQRIR_clean_linker_1, # of connection points: 3
#     Node 8, Type 1, BuildingBlock: KUMBUR_clean_sbu_1, # of connection points: 6
#     Node 9, Type 1, BuildingBlock: KUMBUR_clean_sbu_1, # of connection points: 6
#     Node 10, Type 1, BuildingBlock: KUMBUR_clean_sbu_1, # of connection points: 6
#     Node 11, Type 1, BuildingBlock: KUMBUR_clean_sbu_1, # of connection points: 6
#     Edge 12, Type (0, 1), BuildingBlock: TEMPAE_clean_linker_10, # of connection points: 2
#     Edge 13, Type (0, 1), BuildingBlock: TEMPAE_clean_linker_10, # of connection points: 2
#     Edge 14, Type (0, 1), BuildingBlock: TEMPAE_clean_linker_10, # of connection points: 2
#     Edge 15, Type (0, 1), BuildingBlock: TEMPAE_clean_linker_10, # of connection points: 2
#     Edge 16, Type (0, 1), BuildingBlock: TEMPAE_clean_linker_10, # of connection points: 2
#     Edge 17, Type (0, 1), BuildingBlock: TEMPAE_clean_linker_10, # of connection points: 2
#     Edge 18, Type (0, 1), BuildingBlock: TEMPAE_clean_linker_10, # of connection points: 2
#     Edge 19, Type (0, 1), BuildingBlock: TEMPAE_clean_linker_10, # of connection points: 2
#     Edge 20, Type (0, 1), BuildingBlock: TEMPAE_clean_linker_10, # of connection points: 2
#     Edge 21, Type (0, 1), BuildingBlock: TEMPAE_clean_linker_10, # of connection points: 2
#     Edge 22, Type (0, 1), BuildingBlock: TEMPAE_clean_linker_10, # of connection points: 2
#     Edge 23, Type (0, 1), BuildingBlock: TEMPAE_clean_linker_10, # of connection points: 2
#     Edge 24, Type (0, 1), BuildingBlock: TEMPAE_clean_linker_10, # of connection points: 2
#     Edge 25, Type (0, 1), BuildingBlock: TEMPAE_clean_linker_10, # of connection points: 2
#     Edge 26, Type (0, 1), BuildingBlock: TEMPAE_clean_linker_10, # of connection points: 2
#     Edge 27, Type (0, 1), BuildingBlock: TEMPAE_clean_linker_10, # of connection points: 2
#     Edge 28, Type (0, 1), BuildingBlock: TEMPAE_clean_linker_10, # of connection points: 2
#     Edge 29, Type (0, 1), BuildingBlock: TEMPAE_clean_linker_10, # of connection points: 2
#     Edge 30, Type (0, 1), BuildingBlock: TEMPAE_clean_linker_10, # of connection points: 2
#     Edge 31, Type (0, 1), BuildingBlock: TEMPAE_clean_linker_10, # of connection points: 2
#     Edge 32, Type (0, 1), BuildingBlock: TEMPAE_clean_linker_10, # of connection points: 2
#     Edge 33, Type (0, 1), BuildingBlock: TEMPAE_clean_linker_10, # of connection points: 2
#     Edge 34, Type (0, 1), BuildingBlock: TEMPAE_clean_linker_10, # of connection points: 2
#     Edge 35, Type (0, 1), BuildingBlock: TEMPAE_clean_linker_10, # of connection points: 2
# Relax obj value: 0.045
# Max RMSD: 0.226
# Mean RMSD: 0.177
data_MOF--net-apo--node1-KUMBUR_clean_sbu_1--node2-CUQRIR_clean_linker_1--edge1-TEMPAE_clean_linker_10
_symmetry_space_group_name_H-M    P1
_symmetry_Int_Tables_number       1
_symmetry_cell_setting            triclinic
loop_
_symmetry_equiv_pos_as_xyz
'x, y, z'
_cell_length_a     26.08616
_cell_length_b     39.749801
_cell_length_c     47.545279
_cell_angle_alpha  90.22508
_cell_angle_beta   89.932302
_cell_angle_gamma 90.643118
loop_
_atom_site_label
_atom_site_type_symbol
_atom_site_fract_x
_atom_site_fract_y
_atom_site_fract_z
_atom_type_partial_charge
C0 C 0.28296 0.32944 0.41854 0.0
N1 N 0.30884 0.35867 0.42314 0.0
N2 N 0.26797 0.32686 0.39128 0.0
C3 C 0.27409 0.30295 0.44058 0.0
C4 C 0.28544 0.35592 0.37956 0.0
N5 N 0.31009 0.37528 0.39896 0.0
C6 C 0.27892 0.3651 0.34903 0.0
H7 H 0.27161 0.27752 0.43094 0.0
H8 H 0.23751 0.30816 0.45161 0.0
H9 H 0.30531 0.30347 0.45642 0.0
H10 H 0.24353 0.35351 0.34021 0.0
H11 H 0.31235 0.35576 0.33698 0.0
H12 H 0.27705 0.3926 0.34589 0.0
C13 C 0.25305 0.1697 0.92916 0.0
N14 N 0.22584 0.14059 0.93219 0.0
N15 N 0.25438 0.17937 0.90186 0.0
C16 C 0.27537 0.19003 0.95304 0.0
C17 C 0.22689 0.15515 0.88834 0.0
N18 N 0.20929 0.13174 0.90672 0.0
C19 C 0.21849 0.15395 0.85701 0.0
H20 H 0.27734 0.21713 0.9476 0.0
H21 H 0.31484 0.18131 0.95733 0.0
H22 H 0.25216 0.18679 0.97244 0.0
H23 H 0.21109 0.12795 0.84941 0.0
H24 H 0.25215 0.1646 0.84571 0.0
H25 H 0.18459 0.16933 0.85182 0.0
C26 C 0.76112 0.1823 0.61888 0.0
N27 N 0.78908 0.15392 0.61575 0.0
N28 N 0.75737 0.19091 0.64637 0.0
C29 C 0.73969 0.20273 0.59517 0.0
C30 C 0.78404 0.16691 0.65991 0.0
N31 N 0.80378 0.14464 0.64132 0.0
C32 C 0.7877 0.16381 0.69139 0.0
H33 H 0.73468 0.22934 0.60165 0.0
H34 H 0.70164 0.19224 0.5892 0.0
H35 H 0.7652 0.20172 0.5765 0.0
H36 H 0.75654 0.17763 0.70214 0.0
H37 H 0.82508 0.17449 0.69837 0.0
H38 H 0.78608 0.13701 0.69782 0.0
C39 C 0.75659 0.33997 0.12064 0.0
N40 N 0.72773 0.36771 0.11651 0.0
N41 N 0.78279 0.34246 0.14505 0.0
C42 C 0.76049 0.31063 0.1007 0.0
C43 C 0.7692 0.37259 0.15574 0.0
N44 N 0.73636 0.38825 0.13821 0.0
C45 C 0.78454 0.3855 0.18436 0.0
H46 H 0.72906 0.29242 0.10525 0.0
H47 H 0.79749 0.29753 0.10342 0.0
H48 H 0.75698 0.31902 0.07856 0.0
H49 H 0.81058 0.40754 0.18181 0.0
H50 H 0.80447 0.36612 0.19685 0.0
H51 H 0.75017 0.39407 0.19603 0.0
C52 C 0.75035 0.6685 0.61373 0.0
N53 N 0.72099 0.64024 0.61088 0.0
N54 N 0.76752 0.67181 0.64048 0.0
C55 C 0.76373 0.69243 0.59038 0.0
C56 C 0.74771 0.64465 0.65384 0.0
N57 N 0.71976 0.62534 0.63589 0.0
C58 C 0.75221 0.63826 0.68489 0.0
H59 H 0.76666 0.67888 0.57001 0.0
H60 H 0.80044 0.70579 0.59481 0.0
H61 H 0.7331 0.71145 0.58865 0.0
H62 H 0.71721 0.64759 0.69551 0.0
H63 H 0.78601 0.65143 0.69403 0.0
H64 H 0.75486 0.61086 0.68899 0.0
C65 C 0.73193 0.85065 0.10782 0.0
N66 N 0.76415 0.87764 0.10585 0.0
N67 N 0.72088 0.84363 0.13514 0.0
C68 C 0.70732 0.83335 0.08298 0.0
C69 C 0.74759 0.86752 0.14964 0.0
N70 N 0.77302 0.8884 0.13191 0.0
C71 C 0.75305 0.86877 0.18118 0.0
H72 H 0.66877 0.82334 0.08855 0.0
H73 H 0.73162 0.81208 0.07618 0.0
H74 H 0.70366 0.85095 0.06505 0.0
H75 H 0.7494 0.84327 0.19043 0.0
H76 H 0.72266 0.88496 0.1901 0.0
H77 H 0.79073 0.87974 0.18733 0.0
C78 C 0.23713 0.83333 0.4248 0.0
N79 N 0.20682 0.86076 0.42676 0.0
N80 N 0.24195 0.82341 0.39766 0.0
C81 C 0.25975 0.815 0.44938 0.0
C82 C 0.2135 0.84564 0.38315 0.0
N83 N 0.19163 0.86807 0.40083 0.0
C84 C 0.21041 0.84709 0.35154 0.0
H85 H 0.29689 0.82704 0.45507 0.0
H86 H 0.2668 0.78826 0.44399 0.0
H87 H 0.23392 0.81625 0.46791 0.0
H88 H 0.17612 0.83259 0.34453 0.0
H89 H 0.24481 0.83593 0.34162 0.0
H90 H 0.2065 0.87337 0.34414 0.0
C91 C 0.27103 0.69062 0.92203 0.0
N92 N 0.29729 0.66187 0.92676 0.0
N93 N 0.2601 0.6939 0.89441 0.0
C94 C 0.25725 0.71627 0.94405 0.0
C95 C 0.28068 0.66639 0.88232 0.0
N96 N 0.3035 0.64695 0.90188 0.0
C97 C 0.27522 0.6572 0.85173 0.0
H98 H 0.2194 0.70952 0.95322 0.0
H99 H 0.25429 0.74166 0.93461 0.0
H100 H 0.28619 0.71698 0.96114 0.0
H101 H 0.26988 0.67984 0.83856 0.0
H102 H 0.24108 0.64056 0.84917 0.0
H103 H 0.30932 0.64328 0.84426 0.0
Tb104 Tb 0.06125 0.10673 0.23743 0.0
C105 C 0.8418 0.09036 0.26899 0.0
N106 N 0.87145 0.11816 0.27378 0.0
C107 C 0.80699 0.15257 0.25261 0.0
C108 C 0.79491 0.09234 0.2544 0.0
C109 C 0.85267 0.14928 0.2677 0.0
C110 C 0.77853 0.12388 0.24535 0.0
C111 C 0.8256 0.03121 0.27819 0.0
C112 C 0.85669 0.06024 0.28064 0.0
C113 C 0.78018 0.03257 0.26242 0.0
C114 C 0.76496 0.06307 0.25044 0.0
Tb115 Tb 0.94768 0.1089 0.29662 0.0
N116 N 0.90154 0.05973 0.29512 0.0
C117 C 0.84068 1.00197 0.29215 0.0
C118 C 0.91502 0.03194 0.31014 0.0
C119 C 0.88515 1.00252 0.30858 0.0
H120 H 0.87215 0.1718 0.27485 0.0
H121 H 0.89649 0.9803 0.31996 0.0
H122 H 0.15322 0.06405 0.26776 0.0
H123 H 0.06262 0.23038 0.18964 0.0
H124 H 0.94924 0.03246 0.32288 0.0
H125 H 0.81779 0.97911 0.29084 0.0
H126 H 0.0313 0.17248 0.19678 0.0
H127 H 0.79325 0.17727 0.24712 0.0
H128 H 0.756 0.01043 0.25994 0.0
H129 H 0.72913 0.06399 0.23898 0.0
H130 H 0.23969 0.07539 0.28705 0.0
H131 H 0.74278 0.12653 0.23404 0.0
H132 H 0.14365 0.24937 0.21194 0.0
N133 N 0.14219 0.1144 0.25445 0.0
C134 C 0.16348 0.14542 0.25117 0.0
C135 C 0.21851 0.09539 0.27717 0.0
C136 C 0.21281 0.15304 0.26153 0.0
C137 C 0.16944 0.08906 0.26638 0.0
C138 C 0.24012 0.12762 0.275 0.0
N139 N 0.08916 0.16011 0.22643 0.0
C140 C 0.06454 0.18104 0.20828 0.0
C141 C 0.15663 0.20161 0.23233 0.0
C142 C 0.13561 0.16929 0.23701 0.0
C143 C 0.12893 0.22425 0.21601 0.0
C144 C 0.08311 0.21368 0.20348 0.0
H145 H 0.27815 0.13246 0.28332 0.0
H146 H 0.2714 0.19184 0.26537 0.0
H147 H 0.22211 0.23449 0.23984 0.0
O148 O 0.08662 0.10934 0.19552 0.0
O149 O 0.07777 0.12419 0.28032 0.0
O150 O 0.0048 0.15034 0.29638 0.0
O151 O 0.08367 0.06192 0.21705 0.0
O152 O 0.98994 0.13428 0.22907 0.0
O153 O 0.95948 0.15472 0.27147 0.0
O154 O 0.95849 0.10245 0.34031 0.0
O155 O 0.95524 0.06679 0.2663 0.0
O156 O 0.98189 0.09469 0.22749 0.0
O157 O 0.895 0.13027 0.32497 0.0
O158 O 0.01831 0.0831 0.30748 0.0
O159 O 0.05642 0.06284 0.26628 0.0
C160 C 0.05512 0.14888 0.29361 0.0
C161 C 0.1409 0.0672 0.17763 0.0
C162 C 0.18428 0.06383 0.13195 0.0
C163 C 0.22238 0.04406 0.14432 0.0
C164 C 0.17968 0.04776 0.18964 0.0
C165 C 0.22024 0.03636 0.173 0.0
C166 C 0.14379 0.07546 0.14885 0.0
C167 C 0.96702 0.15766 0.24416 0.0
C168 C 0.09509 0.07735 0.1937 0.0
C169 C 0.23344 0.18547 0.25767 0.0
C170 C 0.20534 0.20976 0.24315 0.0
C171 C 0.95818 0.06914 0.23884 0.0
C172 C 0.88236 0.10034 0.36737 0.0
C173 C 0.85549 0.08933 0.41596 0.0
C174 C 0.81795 0.06676 0.40574 0.0
C175 C 0.84344 0.07848 0.35785 0.0
C176 C 0.88795 0.10598 0.39653 0.0
C177 C 0.81195 0.06152 0.37691 0.0
C178 C 0.04584 0.06077 0.29365 0.0
C179 C 0.91654 0.11773 0.3471 0.0
H180 H 0.25412 0.03489 0.13185 0.0
H181 H 0.17835 0.04106 0.21169 0.0
H182 H 0.24996 0.02126 0.18233 0.0
H183 H 0.11367 0.09022 0.1394 0.0
H184 H 0.792 0.05393 0.42003 0.0
H185 H 0.83677 0.07476 0.33569 0.0
H186 H 0.91729 0.1233 0.40405 0.0
H187 H 0.7822 0.04462 0.36929 0.0
Tb188 Tb 0.44376 0.40347 0.74681 0.0
C189 C 0.65518 0.44736 0.79718 0.0
N190 N 0.63497 0.41682 0.79015 0.0
C191 C 0.71328 0.40198 0.76701 0.0
C192 C 0.70478 0.45697 0.78833 0.0
C193 C 0.66393 0.39358 0.77636 0.0
C194 C 0.7336 0.43395 0.77274 0.0
C195 C 0.6454 0.50091 0.82104 0.0
C196 C 0.62563 0.46908 0.81316 0.0
C197 C 0.69445 0.5109 0.81183 0.0
C198 C 0.72405 0.48899 0.79551 0.0
Tb199 Tb 0.55482 0.40564 0.80694 0.0
N200 N 0.57836 0.45851 0.82176 0.0
C201 C 0.61579 0.52141 0.83849 0.0
C202 C 0.55146 0.47731 0.8407 0.0
C203 C 0.56899 0.5093 0.84873 0.0
H204 H 0.64934 0.36847 0.77271 0.0
H205 H 0.547 0.52424 0.86339 0.0
H206 H 0.35517 0.4553 0.77408 0.0
H207 H 0.42688 0.27493 0.71195 0.0
H208 H 0.5177 0.4673 0.8507 0.0
H209 H 0.62957 0.54605 0.84501 0.0
H210 H 0.46792 0.33116 0.71618 0.0
H211 H 0.7358 0.38368 0.75564 0.0
H212 H 0.71011 0.53535 0.81752 0.0
H213 H 0.76198 0.49693 0.78877 0.0
H214 H 0.27254 0.4497 0.79841 0.0
H215 H 0.77189 0.44036 0.76553 0.0
H216 H 0.34366 0.26358 0.7354 0.0
N217 N 0.36444 0.40253 0.76797 0.0
C218 C 0.34005 0.3721 0.76824 0.0
C219 C 0.29155 0.42752 0.79048 0.0
C220 C 0.2913 0.36793 0.78064 0.0
C221 C 0.33938 0.43047 0.77733 0.0
C222 C 0.26776 0.396 0.7926 0.0
N223 N 0.40953 0.3507 0.74261 0.0
C224 C 0.43195 0.32621 0.72673 0.0
C225 C 0.33784 0.31394 0.75257 0.0
C226 C 0.36281 0.34545 0.75448 0.0
C227 C 0.36158 0.2882 0.73736 0.0
C228 C 0.40864 0.29448 0.72416 0.0
H229 H 0.23036 0.39388 0.8024 0.0
H230 H 0.22955 0.33249 0.78935 0.0
H231 H 0.27032 0.28521 0.76464 0.0
O232 O 0.45502 0.39998 0.70278 0.0
O233 O 0.45602 0.36176 0.77623 0.0
O234 O 0.47795 0.3868 0.81783 0.0
O235 O 0.39072 0.42603 0.71975 0.0
O236 O 0.51941 0.38393 0.7353 0.0
O237 O 0.55431 0.36346 0.77691 0.0
O238 O 0.58907 0.408 0.84695 0.0
O239 O 0.57076 0.4304 0.76609 0.0
O240 O 0.49189 0.44848 0.75078 0.0
O241 O 0.58111 0.36084 0.82538 0.0
O242 O 0.48105 0.42871 0.81742 0.0
O243 O 0.44518 0.44746 0.7756 0.0
C244 C 0.45239 0.36369 0.80369 0.0
C245 C 0.37713 0.39638 0.6772 0.0
C246 C 0.35328 0.37937 0.62923 0.0
C247 C 0.31011 0.36245 0.64031 0.0
C248 C 0.33337 0.37948 0.6874 0.0
C249 C 0.3004 0.36252 0.66911 0.0
C250 C 0.38684 0.39646 0.64795 0.0
C251 C 0.54972 0.36344 0.7492 0.0
C252 C 0.4118 0.41432 0.69703 0.0
C253 C 0.26688 0.33624 0.77978 0.0
C254 C 0.29002 0.30933 0.76565 0.0
C255 C 0.54215 0.44981 0.75022 0.0
C256 C 0.57097 0.36135 0.87523 0.0
C257 C 0.56878 0.35986 0.9267 0.0
C258 C 0.52367 0.34029 0.92539 0.0
C259 C 0.52657 0.34107 0.87451 0.0
C260 C 0.59244 0.37024 0.90147 0.0
C261 C 0.50304 0.33078 0.89945 0.0
C262 C 0.45127 0.4492 0.80322 0.0
C263 C 0.59273 0.37565 0.84908 0.0
H264 H 0.28301 0.34967 0.6266 0.0
H265 H 0.32406 0.37973 0.70952 0.0
H266 H 0.26676 0.34967 0.67727 0.0
H267 H 0.42034 0.40959 0.63986 0.0
H268 H 0.50488 0.33187 0.94449 0.0
H269 H 0.50969 0.3335 0.8547 0.0
H270 H 0.62674 0.38588 0.90227 0.0
H271 H 0.46852 0.31552 0.89866 0.0
Tb272 Tb 0.04654 0.90827 0.74396 0.0
C273 C 0.83938 0.85185 0.79189 0.0
N274 N 0.85507 0.88277 0.78313 0.0
C275 C 0.77764 0.88875 0.75656 0.0
C276 C 0.79293 0.83749 0.78232 0.0
C277 C 0.82395 0.90201 0.76677 0.0
C278 C 0.76235 0.85619 0.76408 0.0
C279 C 0.85474 0.80286 0.8207 0.0
C280 C 0.87003 0.83479 0.81071 0.0
C281 C 0.80899 0.78806 0.8108 0.0
C282 C 0.77822 0.8053 0.7916 0.0
Tb283 Tb 0.9309 0.90193 0.80115 0.0
N284 N 0.91398 0.84993 0.81981 0.0
C285 C 0.88544 0.78705 0.84069 0.0
C286 C 0.94202 0.8356 0.84081 0.0
C287 C 0.92892 0.8037 0.85105 0.0
H288 H 0.83524 0.92734 0.76123 0.0
H289 H 0.95187 0.79225 0.86729 0.0
H290 H 0.13339 0.85376 0.76894 0.0
H291 H 0.07013 0.03852 0.71602 0.0
H292 H 0.97384 0.84894 0.85032 0.0
H293 H 0.87511 0.76248 0.84886 0.0
H294 H 0.02774 0.98244 0.71598 0.0
H295 H 0.75363 0.90371 0.74304 0.0
H296 H 0.79681 0.76343 0.81808 0.0
H297 H 0.74283 0.7937 0.78435 0.0
H298 H 0.21293 0.85697 0.79639 0.0
H299 H 0.72641 0.84602 0.7562 0.0
H300 H 0.1495 0.04783 0.74367 0.0
N301 N 0.12358 0.90695 0.76732 0.0
C302 C 0.14745 0.93729 0.77076 0.0
C303 C 0.19438 0.87985 0.78983 0.0
C304 C 0.19461 0.94026 0.78507 0.0
C305 C 0.14827 0.87819 0.77488 0.0
C306 C 0.21714 0.91108 0.79549 0.0
N307 N 0.08131 0.96109 0.7441 0.0
C308 C 0.06187 0.98659 0.72833 0.0
C309 C 0.15186 0.99656 0.75882 0.0
C310 C 0.12636 0.96515 0.75806 0.0
C311 C 0.13095 0.02331 0.74374 0.0
C312 C 0.08605 0.01819 0.72817 0.0
H313 H 0.2533 0.91225 0.80666 0.0
H314 H 0.2547 0.97478 0.79863 0.0
H315 H 0.21734 0.02408 0.77548 0.0
O316 O 0.03641 0.91296 0.7001 0.0
O317 O 0.02925 0.94946 0.77412 0.0
O318 O 0.00594 0.92114 0.8137 0.0
O319 O 0.10443 0.89113 0.71666 0.0
O320 O 0.97057 0.92466 0.73112 0.0
O321 O 0.92824 0.94399 0.77091 0.0
O322 O 0.89302 0.90183 0.84036 0.0
O323 O 0.92051 0.87696 0.75993 0.0
O324 O 1.0008 0.86155 0.74338 0.0
O325 O 0.90005 0.9472 0.81646 0.0
O326 O 0.00637 0.88113 0.81178 0.0
O327 O 0.04353 0.86286 0.77027 0.0
C328 C 0.028 0.94708 0.80171 0.0
C329 C 0.11227 0.92035 0.6735 0.0
C330 C 0.13712 0.9316 0.62464 0.0
C331 C 0.17043 0.95722 0.63429 0.0
C332 C 0.14687 0.94542 0.68248 0.0
C333 C 0.17525 0.96396 0.66298 0.0
C334 C 0.10777 0.91334 0.64451 0.0
C335 C 0.93917 0.94555 0.74372 0.0
C336 C 0.08126 0.90108 0.69406 0.0
C337 C 0.21876 0.97194 0.78742 0.0
C338 C 0.19758 1.00001 0.77417 0.0
C339 C 0.95074 0.85707 0.74532 0.0
C340 C 0.9022 0.95209 0.86655 0.0
C341 C 0.89906 0.95753 0.91808 0.0
C342 C 0.93144 0.98598 0.91612 0.0
C343 C 0.93431 0.98064 0.86539 0.0
C344 C 0.88455 0.94073 0.893 0.0
C345 C 0.94881 0.9973 0.89001 0.0
C346 C 0.03469 0.85977 0.79746 0.0
C347 C 0.88658 0.9341 0.84047 0.0
H348 H 0.19404 0.97139 0.61968 0.0
H349 H 0.15254 0.95049 0.70454 0.0
H350 H 0.20173 0.98331 0.67017 0.0
H351 H 0.08161 0.89368 0.63745 0.0
H352 H 0.94277 0.99994 0.93474 0.0
H353 H 0.9483 0.99019 0.84548 0.0
H354 H 0.86004 0.91857 0.89401 0.0
H355 H 0.97349 0.01923 0.88884 0.0
Tb356 Tb 0.45555 0.60792 0.24548 0.0
C357 C 0.66072 0.66878 0.29423 0.0
N358 N 0.64761 0.63695 0.28652 0.0
C359 C 0.72962 0.62986 0.26463 0.0
C360 C 0.70849 0.68294 0.2866 0.0
C361 C 0.68167 0.61699 0.27265 0.0
C362 C 0.743 0.66305 0.27148 0.0
C363 C 0.63884 0.7198 0.31921 0.0
C364 C 0.62642 0.6868 0.31034 0.0
C365 C 0.68527 0.73475 0.3105 0.0
C366 C 0.72016 0.71628 0.29435 0.0
Tb367 Tb 0.57067 0.61728 0.30221 0.0
N368 N 0.58276 0.67104 0.31904 0.0
C369 C 0.60531 0.73619 0.33755 0.0
C370 C 0.55296 0.68571 0.33926 0.0
C371 C 0.56267 0.7188 0.34804 0.0
H372 H 0.67183 0.59116 0.26777 0.0
H373 H 0.53801 0.73053 0.36346 0.0
H374 H 0.36608 0.65985 0.27225 0.0
H375 H 0.43827 0.47804 0.21456 0.0
H376 H 0.52248 0.67181 0.34939 0.0
H377 H 0.61333 0.76158 0.3448 0.0
H378 H 0.47772 0.53508 0.21532 0.0
H379 H 0.7563 0.61415 0.25329 0.0
H380 H 0.69526 0.76018 0.31689 0.0
H381 H 0.75634 0.72782 0.28832 0.0
H382 H 0.288 0.65408 0.3008 0.0
H383 H 0.78013 0.67297 0.26521 0.0
H384 H 0.36039 0.46624 0.24289 0.0
N385 N 0.37946 0.60706 0.26984 0.0
C386 C 0.35732 0.57608 0.27265 0.0
C387 C 0.30772 0.63184 0.29357 0.0
C388 C 0.31088 0.57161 0.28744 0.0
C389 C 0.35314 0.63499 0.27809 0.0
C390 C 0.28709 0.59993 0.29885 0.0
N391 N 0.42363 0.5545 0.24441 0.0
C392 C 0.44398 0.52989 0.22783 0.0
C393 C 0.35559 0.5171 0.25913 0.0
C394 C 0.37925 0.54911 0.25876 0.0
C395 C 0.3775 0.4912 0.24324 0.0
C396 C 0.42157 0.49773 0.22727 0.0
H397 H 0.25143 0.59759 0.31042 0.0
H398 H 0.25322 0.53534 0.30083 0.0
H399 H 0.2924 0.4876 0.276 0.0
O400 O 0.46647 0.60877 0.20136 0.0
O401 O 0.47633 0.5666 0.27432 0.0
O402 O 0.49694 0.59557 0.31402 0.0
O403 O 0.39272 0.61767 0.21942 0.0
O404 O 0.53006 0.59017 0.23155 0.0
O405 O 0.57716 0.57555 0.27139 0.0
O406 O 0.60587 0.61895 0.34211 0.0
O407 O 0.5818 0.64016 0.26025 0.0
O408 O 0.50034 0.65492 0.24626 0.0
O409 O 0.60394 0.57327 0.31802 0.0
O410 O 0.49342 0.6353 0.31288 0.0
O411 O 0.45675 0.65374 0.27163 0.0
C412 C 0.47837 0.56856 0.3019 0.0
C413 C 0.41062 0.64493 0.17672 0.0
C414 C 0.39317 0.66397 0.12862 0.0
C415 C 0.38242 0.69615 0.13973 0.0
C416 C 0.40074 0.67735 0.18692 0.0
C417 C 0.387 0.70279 0.16846 0.0
C418 C 0.40786 0.6385 0.14761 0.0
C419 C 0.56606 0.57289 0.24422 0.0
C420 C 0.41934 0.61702 0.19639 0.0
C421 C 0.28854 0.53933 0.28925 0.0
C422 C 0.31074 0.51216 0.27501 0.0
C423 C 0.55059 0.65801 0.2445 0.0
C424 C 0.59986 0.56828 0.368 0.0
C425 C 0.59946 0.56344 0.41958 0.0
C426 C 0.57441 0.53204 0.41682 0.0
C427 C 0.57501 0.53683 0.36609 0.0
C428 C 0.612 0.58144 0.39485 0.0
C429 C 0.56233 0.51901 0.39034 0.0
C430 C 0.46441 0.65642 0.29895 0.0
C431 C 0.61495 0.58694 0.34224 0.0
H432 H 0.36914 0.7163 0.12647 0.0
H433 H 0.40268 0.68282 0.20925 0.0
H434 H 0.3787 0.72765 0.17654 0.0
H435 H 0.41656 0.61349 0.14004 0.0
H436 H 0.56508 0.51705 0.43513 0.0
H437 H 0.56548 0.52581 0.34587 0.0
H438 H 0.63108 0.60573 0.39642 0.0
H439 H 0.54348 0.49477 0.38857 0.0
C440 C 0.19175 0.92859 0.39168 0.0
C441 C 0.16539 0.89779 0.39211 0.0
C442 C 0.17246 0.95598 0.37657 0.0
C443 C 0.12544 0.95236 0.36189 0.0
C444 C 0.09734 0.92173 0.3637 0.0
C445 C 0.11799 0.89468 0.37861 0.0
C446 C 0.20368 0.98812 0.37508 0.0
C447 C 0.04658 0.91705 0.34889 0.0
C448 C 0.05598 0.03115 0.33961 0.0
C449 C 0.06737 0.03298 0.3107 0.0
C450 C 0.07442 1.00508 0.35639 0.0
C451 C 0.10602 0.98034 0.34424 0.0
C452 C 0.1184 0.9821 0.31521 0.0
C453 C 0.09854 0.00824 0.29871 0.0
C454 C 0.05957 1.00384 0.38711 0.0
C455 C 0.15255 0.9563 0.3016 0.0
H456 H 0.229 0.93042 0.40168 0.0
H457 H 0.09841 0.87049 0.3787 0.0
H458 H 0.21629 0.99247 0.35308 0.0
H459 H 0.17999 0.00989 0.38139 0.0
H460 H 0.23811 0.98742 0.38879 0.0
H461 H 0.02781 0.89266 0.35418 0.0
H462 H 0.02024 0.93773 0.35456 0.0
H463 H 0.0525 0.91804 0.32579 0.0
H464 H 0.03199 0.05 0.34934 0.0
H465 H 0.10748 0.00925 0.27646 0.0
H466 H 0.09441 1.00483 0.40045 0.0
H467 H 0.03943 0.97974 0.39171 0.0
H468 H 0.03422 0.0249 0.39328 0.0
H469 H 0.18978 0.95537 0.31282 0.0
H470 H 0.15999 0.96182 0.27906 0.0
H471 H 0.13456 0.93096 0.3032 0.0
C472 C 0.37654 0.6108 0.8913 0.0
C473 C 0.32406 0.61418 0.89642 0.0
C474 C 0.39588 0.58157 0.87867 0.0
C475 C 0.36147 0.55582 0.86978 0.0
C476 C 0.3085 0.55869 0.87578 0.0
C477 C 0.29055 0.58775 0.88931 0.0
C478 C 0.45279 0.57906 0.87345 0.0
C479 C 0.27031 0.53232 0.86605 0.0
C480 C 0.4077 0.50509 0.8068 0.0
C481 C 0.42376 0.47531 0.81957 0.0
C482 C 0.38558 0.53099 0.82279 0.0
C483 C 0.38052 0.52732 0.85234 0.0
C484 C 0.39535 0.49693 0.86519 0.0
C485 C 0.41578 0.47109 0.84858 0.0
C486 C 0.3688 0.56265 0.80816 0.0
C487 C 0.39149 0.49219 0.89662 0.0
H488 H 0.402 0.6319 0.89561 0.0
H489 H 0.24977 0.59107 0.8925 0.0
H490 H 0.46706 0.5546 0.88119 0.0
H491 H 0.46063 0.58012 0.85053 0.0
H492 H 0.47472 0.59967 0.88395 0.0
H493 H 0.23133 0.53674 0.87464 0.0
H494 H 0.26817 0.53255 0.84274 0.0
H495 H 0.28273 0.50685 0.87235 0.0
H496 H 0.41345 0.50848 0.78441 0.0
H497 H 0.42716 0.44785 0.85855 0.0
H498 H 0.39336 0.58414 0.81495 0.0
H499 H 0.32876 0.56867 0.81407 0.0
H500 H 0.37116 0.5604 0.7849 0.0
H501 H 0.41667 0.51085 0.90741 0.0
H502 H 0.4029 0.46656 0.90322 0.0
H503 H 0.35175 0.49672 0.9039 0.0
C504 C 0.64041 0.60402 0.65723 0.0
C505 C 0.68731 0.59757 0.64413 0.0
C506 C 0.61376 0.57858 0.6718 0.0
C507 C 0.63443 0.54577 0.673 0.0
C508 C 0.68031 0.53872 0.65819 0.0
C509 C 0.70666 0.5649 0.64432 0.0
C510 C 0.56566 0.58749 0.68772 0.0
C511 C 0.70326 0.50405 0.65846 0.0
C512 C 0.60693 0.49471 0.73894 0.0
C513 C 0.56686 0.47347 0.73024 0.0
C514 C 0.62923 0.5182 0.7205 0.0
C515 C 0.61153 0.52019 0.69239 0.0
C516 C 0.57138 0.49845 0.68332 0.0
C517 C 0.54908 0.47564 0.70247 0.0
C518 C 0.67128 0.54128 0.73129 0.0
C519 C 0.55195 0.49935 0.65346 0.0
H520 H 0.62643 0.6296 0.65756 0.0
H521 H 0.74373 0.5603 0.63485 0.0
H522 H 0.53457 0.56903 0.68315 0.0
H523 H 0.57335 0.5865 0.71066 0.0
H524 H 0.55199 0.61308 0.68248 0.0
H525 H 0.73425 0.50144 0.64258 0.0
H526 H 0.71955 0.49898 0.67954 0.0
H527 H 0.67333 0.48461 0.65431 0.0
H528 H 0.61962 0.49394 0.76045 0.0
H529 H 0.518 0.45923 0.69566 0.0
H530 H 0.66142 0.56792 0.7273 0.0
H531 H 0.70751 0.53611 0.71991 0.0
H532 H 0.67812 0.53817 0.75416 0.0
H533 H 0.53567 0.5244 0.64891 0.0
H534 H 0.52201 0.47983 0.6494 0.0
H535 H 0.58418 0.49549 0.63857 0.0
C536 C 0.77589 0.94364 0.15473 0.0
C537 C 0.8014 0.91804 0.1403 0.0
C538 C 0.80313 0.96945 0.16849 0.0
C539 C 0.8574 0.96956 0.16787 0.0
C540 C 0.88332 0.94469 0.15195 0.0
C541 C 0.85486 0.91911 0.13831 0.0
C542 C 0.77384 0.99541 0.18509 0.0
C543 C 0.94107 0.94401 0.15066 0.0
C544 C 0.92414 0.05024 0.19211 0.0
C545 C 0.93456 0.0431 0.22041 0.0
C546 C 0.90033 0.02626 0.17451 0.0
C547 C 0.88656 0.99435 0.18547 0.0
C548 C 0.898 0.98679 0.21388 0.0
C549 C 0.92217 0.01117 0.23091 0.0
C550 C 0.88866 0.03539 0.14442 0.0
C551 C 0.88372 0.95317 0.22651 0.0
H552 H 0.73445 0.9424 0.1563 0.0
H553 H 0.87431 0.89895 0.12739 0.0
H554 H 0.78043 0.99153 0.20788 0.0
H555 H 0.78766 0.02115 0.17992 0.0
H556 H 0.73193 0.99388 0.18106 0.0
H557 H 0.95517 0.92523 0.13519 0.0
H558 H 0.95663 0.96917 0.14498 0.0
H559 H 0.95649 0.93766 0.1717 0.0
H560 H 0.93373 0.07487 0.18377 0.0
H561 H 0.93137 1.0052 0.2525 0.0
H562 H 0.84654 0.03575 0.14123 0.0
H563 H 0.90435 0.01617 0.12988 0.0
H564 H 0.90477 0.06041 0.1386 0.0
H565 H 0.84139 0.95016 0.22681 0.0
H566 H 0.89817 0.95048 0.24835 0.0
H567 H 0.89928 0.93245 0.21345 0.0
C568 C 0.87483 0.11379 0.66232 0.0
C569 C 0.82731 0.11341 0.64876 0.0
C570 C 0.89323 0.0849 0.67568 0.0
C571 C 0.86268 0.05519 0.67591 0.0
C572 C 0.81558 0.05435 0.66106 0.0
C573 C 0.79859 0.08353 0.6475 0.0
C574 C 0.94413 0.0867 0.69073 0.0
C575 C 0.78172 0.02332 0.66095 0.0
C576 C 0.92675 0.97378 0.69718 0.0
C577 C 0.91583 0.97221 0.72614 0.0
C578 C 0.90923 1.00034 0.68053 0.0
C579 C 0.87896 0.0257 0.69289 0.0
C580 C 0.86593 0.02362 0.7218 0.0
C581 C 0.88476 0.99702 0.73812 0.0
C582 C 0.92457 1.00181 0.64991 0.0
C583 C 0.83301 0.04995 0.73565 0.0
H584 H 0.89637 0.13722 0.66349 0.0
H585 H 0.76135 0.08374 0.63742 0.0
H586 H 0.93782 0.08485 0.71375 0.0
H587 H 0.9685 0.06524 0.68442 0.0
H588 H 0.96526 0.11053 0.68632 0.0
H589 H 0.74842 0.02587 0.6466 0.0
H590 H 0.80392 1.00093 0.6545 0.0
H591 H 0.76717 0.0186 0.68253 0.0
H592 H 0.95037 0.9547 0.68751 0.0
H593 H 0.87578 0.99603 0.76037 0.0
H594 H 0.94841 0.02465 0.64613 0.0
H595 H 0.89008 1.00373 0.63642 0.0
H596 H 0.94667 0.97942 0.64323 0.0
H597 H 0.8532 0.07466 0.73528 0.0
H598 H 0.8237 0.04363 0.75783 0.0
H599 H 0.79669 0.0528 0.72382 0.0
C600 C 0.65709 0.41572 0.15298 0.0
C601 C 0.70867 0.41819 0.14519 0.0
C602 C 0.63313 0.44226 0.16732 0.0
C603 C 0.66167 0.47184 0.17384 0.0
C604 C 0.71287 0.47519 0.16423 0.0
C605 C 0.73576 0.44821 0.15006 0.0
C606 C 0.57838 0.43777 0.17703 0.0
C607 C 0.74445 0.5064 0.17039 0.0
C608 C 0.58926 0.54953 0.19703 0.0
C609 C 0.59365 0.54812 0.22649 0.0
C610 C 0.61152 0.52511 0.17967 0.0
C611 C 0.63894 0.49849 0.19196 0.0
C612 C 0.6445 0.4972 0.22162 0.0
C613 C 0.6219 0.52211 0.23854 0.0
C614 C 0.60508 0.52756 0.14818 0.0
C615 C 0.67357 0.46915 0.2355 0.0
H616 H 0.63672 0.39215 0.14956 0.0
H617 H 0.77587 0.44969 0.14417 0.0
H618 H 0.57736 0.43621 0.20033 0.0
H619 H 0.55518 0.45978 0.1709 0.0
H620 H 0.56024 0.41463 0.1682 0.0
H621 H 0.78185 0.50631 0.15918 0.0
H622 H 0.72323 0.52925 0.16427 0.0
H623 H 0.7519 0.50818 0.19332 0.0
H624 H 0.5679 0.56966 0.18738 0.0
H625 H 0.62538 0.52072 0.26122 0.0
H626 H 0.58425 0.50501 0.14017 0.0
H627 H 0.64316 0.52817 0.13776 0.0
H628 H 0.58364 0.55032 0.14189 0.0
H629 H 0.65514 0.44459 0.23038 0.0
H630 H 0.67509 0.47202 0.25873 0.0
H631 H 0.71335 0.46841 0.22726 0.0
C632 C 0.30968 0.43458 0.38453 0.0
C633 C 0.33681 0.40649 0.39361 0.0
C634 C 0.33524 0.46216 0.37231 0.0
C635 C 0.38944 0.46207 0.37007 0.0
C636 C 0.41718 0.43484 0.38151 0.0
C637 C 0.39036 0.40725 0.39298 0.0
C638 C 0.30392 0.49002 0.35971 0.0
C639 C 0.475 0.43412 0.38123 0.0
C640 C 0.44761 0.50903 0.308 0.0
C641 C 0.4585 0.54067 0.31969 0.0
C642 C 0.42548 0.48322 0.32421 0.0
C643 C 0.41605 0.48866 0.35323 0.0
C644 C 0.43022 0.5198 0.36562 0.0
C645 C 0.45038 0.54565 0.34863 0.0
C646 C 0.41144 0.45026 0.31017 0.0
C647 C 0.42393 0.52584 0.39677 0.0
H648 H 0.26815 0.43374 0.38515 0.0
H649 H 0.41112 0.38539 0.39997 0.0
H650 H 0.31836 0.51496 0.36685 0.0
H651 H 0.30768 0.4892 0.33647 0.0
H652 H 0.26262 0.48774 0.36521 0.0
H653 H 0.48931 0.44739 0.40028 0.0
H654 H 0.48941 0.40794 0.38189 0.0
H655 H 0.49154 0.44682 0.36253 0.0
H656 H 0.45602 0.50445 0.28605 0.0
H657 H 0.45972 0.5698 0.35809 0.0
H658 H 0.36928 0.44631 0.3112 0.0
H659 H 0.42956 0.42907 0.3214 0.0
H660 H 0.42359 0.4494 0.28779 0.0
H661 H 0.38261 0.52591 0.40229 0.0
H662 H 0.44145 0.55013 0.4036 0.0
H663 H 0.44192 0.50517 0.40875 0.0
C664 C 0.12777 0.10224 0.89795 0.0
C665 C 0.18126 0.10165 0.89919 0.0
C666 C 0.09987 0.0763 0.88457 0.0
C667 C 0.12642 0.04939 0.87157 0.0
C668 C 0.18065 0.04834 0.87353 0.0
C669 C 0.20733 0.07438 0.88754 0.0
C670 C 0.04217 0.07844 0.88421 0.0
C671 C 0.21076 0.02101 0.85912 0.0
C672 C 0.06067 0.96769 0.84844 0.0
C673 C 0.05117 0.97381 0.81983 0.0
C674 C 0.08323 0.99247 0.86581 0.0
C675 C 0.09838 0.02374 0.85415 0.0
C676 C 0.08782 0.03031 0.82546 0.0
C677 C 0.06337 1.00556 0.80888 0.0
C678 C 0.09071 0.98526 0.89665 0.0
C679 C 0.10276 0.06345 0.81221 0.0
H680 H 0.10794 0.12386 0.9064 0.0
H681 H 0.24888 0.07467 0.88785 0.0
H682 H 0.02947 0.10502 0.88491 0.0
H683 H 0.02491 0.06612 0.86547 0.0
H684 H 0.02694 0.06579 0.90327 0.0
H685 H 0.25231 0.02255 0.86413 0.0
H686 H 0.19598 0.99583 0.86528 0.0
H687 H 0.20603 0.02322 0.83602 0.0
H688 H 0.05039 0.94348 0.85736 0.0
H689 H 0.05389 0.01111 0.78727 0.0
H690 H 0.07308 1.00546 0.90949 0.0
H691 H 0.13223 0.98508 0.90166 0.0
H692 H 0.0735 0.96071 0.90291 0.0
H693 H 0.08612 0.08459 0.82433 0.0
H694 H 0.08971 0.06529 0.79005 0.0
H695 H 0.1451 0.06655 0.81274 0.0
C696 C 0.16819 0.11589 0.96818 0.0
C697 C 0.21779 0.12245 0.95815 0.0
C698 C 0.16011 0.10312 0.99546 0.0
C699 C 0.20265 0.09767 1.01337 0.0
C700 C 0.2529 0.10308 1.00285 0.0
C701 C 0.25977 0.11493 0.97529 0.0
C702 C 0.10596 0.09689 1.0055 0.0
C703 C 0.29941 0.0981 1.02118 0.0
C704 C 0.18436 0.10583 0.09271 0.0
C705 C 0.18679 0.07227 0.10148 0.0
C706 C 0.18895 0.11436 0.06412 0.0
C707 C 0.19488 0.08864 0.04364 0.0
C708 C 0.19577 0.05459 0.05235 0.0
C709 C 0.19241 0.04685 0.08118 0.0
C710 C 0.18884 0.15101 0.0559 0.0
C711 C 0.20064 0.02636 0.03123 0.0
H712 H 0.13567 0.12228 0.95525 0.0
H713 H 0.29813 0.11979 0.96741 0.0
H714 H 0.10273 0.072 1.01588 0.0
H715 H 0.09558 0.11625 1.02131 0.0
H716 H 0.07784 0.09783 0.98799 0.0
H717 H 0.33585 0.10202 1.00947 0.0
H718 H 0.29846 0.11606 0.0391 0.0
H719 H 0.29913 0.07237 0.03011 0.0
H720 H 0.1803 0.12553 0.10837 0.0
H721 H 0.19376 0.02084 0.08788 0.0
H722 H 0.1576 0.15569 0.04065 0.0
H723 H 0.22553 0.15768 0.04535 0.0
H724 H 0.1837 0.16795 0.0743 0.0
H725 H 0.1706 0.02853 1.01484 0.0
H726 H 0.1972 1.00119 0.04117 0.0
H727 H 0.23829 0.02816 1.02045 0.0
C728 C 0.37474 0.36735 0.45964 0.0
C729 C 0.32439 0.37143 0.45024 0.0
C730 C 0.38767 0.373 0.48804 0.0
C731 C 0.34891 0.38209 0.5075 0.0
C732 C 0.29853 0.38792 0.4976 0.0
C733 C 0.287 0.38254 0.46908 0.0
C734 C 0.44195 0.367 0.4975 0.0
C735 C 0.25581 0.39733 0.51747 0.0
C736 C 0.35188 0.34991 0.58254 0.0
C737 C 0.36119 0.37944 0.5981 0.0
C738 C 0.35011 0.35026 0.55305 0.0
C739 C 0.35861 0.38084 0.53849 0.0
C740 C 0.37165 0.4103 0.55393 0.0
C741 C 0.37262 0.4093 0.58359 0.0
C742 C 0.33625 0.31816 0.53757 0.0
C743 C 0.38201 0.44324 0.53922 0.0
H744 H 0.40326 0.35795 0.44513 0.0
H745 H 0.24796 0.38508 0.46167 0.0
H746 H 0.4547 0.38683 0.5125 0.0
H747 H 0.44381 0.34253 0.50857 0.0
H748 H 0.46906 0.36637 0.47947 0.0
H749 H 0.22022 0.40415 0.50613 0.0
H750 H 0.24701 0.37578 0.53152 0.0
H751 H 0.26772 0.41883 0.53099 0.0
H752 H 0.34415 0.32657 0.59355 0.0
H753 H 0.3798 0.43225 0.59539 0.0
H754 H 0.36518 0.31277 0.5211 0.0
H755 H 0.29878 0.3211 0.52687 0.0
H756 H 0.33353 0.29615 0.55185 0.0
H757 H 0.40837 0.43953 0.52116 0.0
H758 H 0.39893 0.46241 0.55363 0.0
H759 H 0.34559 0.45314 0.53074 0.0
C760 C 0.70363 0.40259 0.0759 0.0
C761 C 0.69538 0.37407 0.09257 0.0
C762 C 0.68 0.40545 0.04941 0.0
C763 C 0.6482 0.37887 0.03931 0.0
C764 C 0.63715 0.35115 0.05703 0.0
C765 C 0.66027 0.34941 0.0836 0.0
C766 C 0.69141 0.43597 0.03162 0.0
C767 C 0.60376 0.32213 0.04723 0.0
C768 C 0.56127 0.38416 0.97524 0.0
C769 C 0.5912 0.36861 0.95451 0.0
C770 C 0.58039 0.38956 1.00256 0.0
C771 C 0.63006 0.37824 1.00951 0.0
C772 C 0.66094 0.36341 0.98835 0.0
C773 C 0.64133 0.35915 0.96102 0.0
C774 C 0.54678 0.40634 0.02421 0.0
C775 C 0.71376 0.35045 0.99492 0.0
H776 H 0.73074 0.42168 0.08293 0.0
H777 H 0.65318 0.32775 0.09686 0.0
H778 H 0.71777 0.42898 1.01429 0.0
H779 H 0.65575 0.44549 1.02192 0.0
H780 H 0.70965 0.45656 0.04405 0.0
H781 H 0.59676 0.30338 0.06411 0.0
H782 H 0.56628 0.33139 0.03971 0.0
H783 H 0.6225 0.30926 0.02925 0.0
H784 H 0.52258 0.39172 0.97014 0.0
H785 H 0.66433 0.34692 0.94504 0.0
H786 H 0.56864 0.42624 0.0356 0.0
H787 H 0.53397 0.38756 0.03999 0.0
H788 H 0.5123 0.41772 1.0146 0.0
H789 H 0.73771 0.37071 1.00442 0.0
H790 H 0.73363 0.34075 0.97592 0.0
H791 H 0.71077 0.32984 1.01055 0.0
C792 C 0.76565 0.13043 0.56948 0.0
C793 C 0.80326 0.13813 0.58953 0.0
C794 C 0.77904 0.12043 0.54212 0.0
C795 C 0.83147 0.1176 0.53471 0.0
C796 C 0.86959 0.12341 0.55546 0.0
C797 C 0.85497 0.13372 0.58266 0.0
C798 C 0.73704 0.11431 0.52081 0.0
C799 C 0.92581 0.12018 0.54862 0.0
C800 C 0.85456 0.07017 0.46625 0.0
C801 C 0.8579 0.09653 0.44673 0.0
C802 C 0.84882 0.07662 0.49518 0.0
C803 C 0.84584 0.11027 0.50487 0.0
C804 C 0.85185 0.137 0.48542 0.0
C805 C 0.85805 0.12981 0.45662 0.0
C806 C 0.84345 0.04739 0.51518 0.0
C807 C 0.84881 0.17324 0.49482 0.0
H808 H 0.72567 0.1334 0.57505 0.0
H809 H 0.88398 0.13984 0.59821 0.0
H810 H 0.74043 0.13301 0.50362 0.0
H811 H 0.74098 0.089 0.5112 0.0
H812 H 0.6982 0.11621 0.53025 0.0
H813 H 0.95017 0.12176 0.56774 0.0
H814 H 0.93312 0.09594 0.53778 0.0
H815 H 0.9376 0.1406 0.53407 0.0
H816 H 0.85505 0.04437 0.45877 0.0
H817 H 0.86021 0.15029 0.44166 0.0
H818 H 0.80348 0.04592 0.52311 0.0
H819 H 0.86886 0.05106 0.53366 0.0
H820 H 0.85279 0.02304 0.50495 0.0
H821 H 0.80949 0.17852 0.50247 0.0
H822 H 0.85819 0.19106 0.47757 0.0
H823 H 0.87546 0.17805 0.51258 0.0
C824 C 0.81242 0.86871 0.06198 0.0
C825 C 0.78737 0.89065 0.08044 0.0
C826 C 0.83161 0.87988 0.036 0.0
C827 C 0.82618 0.91405 0.02833 0.0
C828 C 0.80237 0.93663 0.04737 0.0
C829 C 0.78307 0.9246 0.07319 0.0
C830 C 0.85675 0.85491 1.0165 0.0
C831 C 0.79631 0.9733 0.0402 0.0
C832 C 0.91302 0.94706 0.96978 0.0
C833 C 0.88041 0.94589 0.94626 0.0
C834 C 0.8957 0.93735 0.99662 0.0
C835 C 0.84457 0.9258 1.00016 0.0
C836 C 0.8115 0.92434 0.97653 0.0
C837 C 0.82973 0.93444 0.94995 0.0
C838 C 0.9323 0.93925 1.02117 0.0
C839 C 0.75679 0.91202 0.97933 0.0
H840 H 0.81636 0.84256 0.06785 0.0
H841 H 0.76338 0.94149 0.08739 0.0
H842 H 0.83493 0.85315 0.99652 0.0
H843 H 0.89615 0.86355 1.01118 0.0
H844 H 0.85885 0.82939 0.02585 0.0
H845 H 0.77941 0.98791 0.05782 0.0
H846 H 0.83407 0.98462 0.03471 0.0
H847 H 0.77125 0.97573 1.02149 0.0
H848 H 0.95247 0.95531 0.9672 0.0
H849 H 0.80393 0.93386 0.93211 0.0
H850 H 0.93811 0.91374 0.0299 0.0
H851 H 0.91583 0.95492 0.03823 0.0
H852 H 0.97023 0.95001 1.01517 0.0
H853 H 0.75613 0.88583 0.98733 0.0
H854 H 0.73581 0.91263 0.95903 0.0
H855 H 0.73605 0.92774 0.99485 0.0
C856 C 0.66538 0.64936 0.56969 0.0
C857 C 0.69671 0.62812 0.58544 0.0
C858 C 0.64685 0.63956 0.54309 0.0
C859 C 0.65936 0.60748 0.53213 0.0
C860 C 0.68926 0.58538 0.54855 0.0
C861 C 0.7079 0.59611 0.57489 0.0
C862 C 0.61537 0.664 0.52633 0.0
C863 C 0.70298 0.55081 0.5379 0.0
C864 C 0.581 0.57099 0.47134 0.0
C865 C 0.61356 0.57656 0.44817 0.0
C866 C 0.59525 0.58097 0.49868 0.0
C867 C 0.64291 0.59751 0.5031 0.0
C868 C 0.67535 0.60409 0.47978 0.0
C869 C 0.66048 0.59339 0.4527 0.0
C870 C 0.5596 0.57331 0.52293 0.0
C871 C 0.72627 0.62198 0.48349 0.0
H872 H 0.65648 0.67404 0.57799 0.0
H873 H 0.73298 0.57998 0.58677 0.0
H874 H 0.63613 0.67083 0.50675 0.0
H875 H 0.57844 0.65212 0.52001 0.0
H876 H 0.60725 0.68741 0.53829 0.0
H877 H 0.72315 0.53578 0.55405 0.0
H878 H 0.6679 0.53688 0.53128 0.0
H879 H 0.72812 0.55313 0.51916 0.0
H880 H 0.5442 0.55865 0.46816 0.0
H881 H 0.68636 0.59749 0.43518 0.0
H882 H 0.54946 0.59689 0.53406 0.0
H883 H 0.57917 0.55698 0.53835 0.0
H884 H 0.5237 0.56049 0.51599 0.0
H885 H 0.72069 0.64647 0.49427 0.0
H886 H 0.746 0.62659 0.46312 0.0
H887 H 0.75167 0.60675 0.49699 0.0
C888 C 0.27707 0.64854 0.97598 0.0
C889 C 0.31273 0.64944 0.95394 0.0
C890 C 0.29294 0.64595 1.00407 0.0
C891 C 0.34569 0.64218 1.01019 0.0
C892 C 0.38115 0.63902 0.98773 0.0
C893 C 0.36443 0.6436 0.95988 0.0
C894 C 0.25375 0.65033 0.02716 0.0
C895 C 0.43724 0.63291 0.99314 0.0
C896 C 0.39207 0.6832 0.078 0.0
C897 C 0.38657 0.65704 0.09767 0.0
C898 C 0.37949 0.67852 0.04954 0.0
C899 C 0.36401 0.64628 0.0398 0.0
C900 C 0.36246 0.61904 0.05887 0.0
C901 C 0.37236 0.62487 0.08761 0.0
C902 C 0.38069 0.70857 0.03016 0.0
C903 C 0.34885 0.58385 0.04919 0.0
H904 H 0.23696 0.6525 0.97128 0.0
H905 H 0.3923 0.64472 0.94307 0.0
H906 H 0.25554 0.62919 0.04222 0.0
H907 H 0.2624 0.67381 0.03905 0.0
H908 H 0.21405 0.6518 1.01885 0.0
H909 H 0.45672 0.62288 0.97413 0.0
H910 H 0.45645 0.65691 0.99911 0.0
H911 H 0.44231 0.61496 1.01071 0.0
H912 H 0.40524 0.70782 0.08481 0.0
H913 H 0.36739 0.60421 0.10215 0.0
H914 H 0.34246 0.71187 1.02036 0.0
H915 H 0.40859 0.70446 1.01293 0.0
H916 H 0.39138 0.73224 0.04131 0.0
H917 H 0.30666 0.5813 0.0471 0.0
H918 H 0.36193 0.56466 0.06443 0.0
H919 H 0.36611 0.57839 0.02834 0.0
C920 C 0.22884 0.88819 0.47166 0.0
C921 C 0.1916 0.87763 0.45229 0.0
C922 C 0.21511 0.89911 0.49871 0.0
C923 C 0.16267 0.89983 0.50651 0.0
C924 C 0.1247 0.89114 0.48635 0.0
C925 C 0.13969 0.88007 0.45942 0.0
C926 C 0.25693 0.90834 0.51938 0.0
C927 C 0.06842 0.89197 0.49362 0.0
C928 C 0.13974 0.88958 0.5851 0.0
C929 C 0.13586 0.9231 0.59407 0.0
C930 C 0.14614 0.88156 0.55648 0.0
C931 C 0.14837 0.90767 0.53626 0.0
C932 C 0.14156 0.9414 0.54502 0.0
C933 C 0.13558 0.94871 0.57379 0.0
C934 C 0.15327 0.84525 0.54806 0.0
C935 C 0.14294 0.96994 0.52417 0.0
H936 H 0.26893 0.88664 0.46587 0.0
H937 H 0.11101 0.87173 0.44439 0.0
H938 H 0.25012 0.9337 0.52836 0.0
H939 H 0.2565 0.89024 0.53708 0.0
H940 H 0.29559 0.90818 0.50956 0.0
H941 H 0.04376 0.88844 0.47478 0.0
H942 H 0.05934 0.87166 0.50884 0.0
H943 H 0.0587 0.9162 0.50386 0.0
H944 H 0.14039 0.86968 0.60062 0.0
H945 H 0.13187 0.97466 0.58053 0.0
H946 H 0.19289 0.8417 0.54013 0.0
H947 H 0.12668 0.83834 0.53074 0.0
H948 H 0.14665 0.82775 0.5659 0.0
H949 H 0.1824 0.97301 0.51576 0.0
H950 H 0.13119 0.99416 0.53382 0.0
H951 H 0.1174 0.96428 0.50608 0.0
C952 C 0.19398 0.28741 0.38995 0.0
C953 C 0.23934 0.29989 0.37785 0.0
C954 C 0.16506 0.26186 0.37668 0.0
C955 C 0.18071 0.24945 0.35007 0.0
C956 C 0.22636 0.26217 0.33771 0.0
C957 C 0.25576 0.28652 0.3521 0.0
C958 C 0.11763 0.24825 0.39109 0.0
C959 C 0.24378 0.25049 0.30908 0.0
C960 C 0.12988 0.16483 0.3236 0.0
C961 C 0.08727 0.1745 0.30781 0.0
C962 C 0.16028 0.18889 0.33775 0.0
C963 C 0.14898 0.22353 0.33506 0.0
C964 C 0.10695 0.23338 0.3182 0.0
C965 C 0.07595 0.20867 0.30524 0.0
C966 C 0.2038 0.17716 0.35603 0.0
C967 C 0.09507 0.27002 0.31359 0.0
H968 H 0.18086 0.29794 0.40969 0.0
H969 H 0.2914 0.29553 0.343 0.0
H970 H 0.08316 0.25441 0.37858 0.0
H971 H 0.11944 0.22041 0.39247 0.0
H972 H 0.11287 0.25871 0.41263 0.0
H973 H 0.27732 0.26516 0.30123 0.0
H974 H 0.25446 0.22363 0.31006 0.0
H975 H 0.21203 0.25272 0.29373 0.0
H976 H 0.13864 0.13832 0.32544 0.0
H977 H 0.0435 0.21607 0.29252 0.0
H978 H 0.19937 0.18731 0.37767 0.0
H979 H 0.24082 0.18683 0.34772 0.0
H980 H 0.20567 0.14928 0.35713 0.0
H981 H 0.08496 0.28212 0.33387 0.0
H982 H 0.06286 0.27348 0.29864 0.0
H983 H 0.12947 0.28334 0.30528 0.0
C984 C 0.33433 0.21177 0.89436 0.0
C985 C 0.28169 0.20753 0.88966 0.0
C986 C 0.36216 0.23796 0.88141 0.0
C987 C 0.33655 0.26068 0.86345 0.0
C988 C 0.283 0.25687 0.85918 0.0
C989 C 0.2563 0.23029 0.87228 0.0
C990 C 0.41889 0.24121 0.88719 0.0
C991 C 0.25407 0.28003 0.83997 0.0
C992 C 0.40114 0.34457 0.84548 0.0
C993 C 0.42283 0.33755 0.81914 0.0
C994 C 0.37305 0.31983 0.86021 0.0
C995 C 0.3661 0.28741 0.84818 0.0
C996 C 0.38795 0.28031 0.82156 0.0
C997 C 0.41647 0.3053 0.80756 0.0
C998 C 0.35069 0.32837 0.88859 0.0
C999 C 0.38147 0.24618 0.80791 0.0
H1000 H 0.35389 0.19405 0.90775 0.0
H1001 H 0.21548 0.22709 0.86885 0.0
H1002 H 0.44066 0.24753 0.86782 0.0
H1003 H 0.42528 0.26183 0.9026 0.0
H1004 H 0.43472 0.21778 0.89621 0.0
H1005 H 0.21195 0.27798 0.84315 0.0
H1006 H 0.26614 0.30662 0.84315 0.0
H1007 H 0.26261 0.27316 0.81785 0.0
H1008 H 0.40607 0.36946 0.85456 0.0
H1009 H 0.43417 0.29949 0.78753 0.0
H1010 H 0.36499 0.3106 0.90464 0.0
H1011 H 0.30834 0.32555 0.8879 0.0
H1012 H 0.36051 0.35444 0.89534 0.0
H1013 H 0.39651 0.2264 0.822 0.0
H1014 H 0.40158 0.2445 0.78735 0.0
H1015 H 0.34014 0.2407 0.80451 0.0
C1016 C 0.75195 0.24254 0.67478 0.0
C1017 C 0.7278 0.21745 0.65873 0.0
C1018 C 0.72321 0.26748 0.68838 0.0
C1019 C 0.66902 0.26678 0.68622 0.0
C1020 C 0.64461 0.24158 0.66967 0.0
C1021 C 0.67444 0.21733 0.65593 0.0
C1022 C 0.75074 0.2942 0.70544 0.0
C1023 C 0.58696 0.23963 0.66719 0.0
C1024 C 0.59448 0.30838 0.74537 0.0
C1025 C 0.57951 0.33861 0.7329 0.0
C1026 C 0.62302 0.28462 0.73027 0.0
C1027 C 0.63782 0.29155 0.7022 0.0
C1028 C 0.62298 0.32213 0.68954 0.0
C1029 C 0.59354 0.34516 0.70496 0.0
C1030 C 0.63724 0.25205 0.74437 0.0
C1031 C 0.63878 0.3307 0.65984 0.0
H1032 H 0.79332 0.24237 0.67678 0.0
H1033 H 0.65615 0.19757 0.64364 0.0
H1034 H 0.73888 0.31958 0.69853 0.0
H1035 H 0.74012 0.29178 0.72795 0.0
H1036 H 0.79308 0.29243 0.70356 0.0
H1037 H 0.57407 0.21902 0.65292 0.0
H1038 H 0.56977 0.23541 0.68826 0.0
H1039 H 0.5719 0.26376 0.65922 0.0
H1040 H 0.58335 0.30308 0.76689 0.0
H1041 H 0.58236 0.36862 0.69531 0.0
H1042 H 0.67955 0.2499 0.7454 0.0
H1043 H 0.62267 0.23038 0.73182 0.0
H1044 H 0.62154 0.25012 0.76604 0.0
H1045 H 0.68121 0.33084 0.65811 0.0
H1046 H 0.62443 0.35562 0.65313 0.0
H1047 H 0.62401 0.31126 0.64504 0.0
C1048 C 0.78375 0.29174 0.17399 0.0
C1049 C 0.81047 0.31644 0.15895 0.0
C1050 C 0.81006 0.26639 0.18821 0.0
C1051 C 0.86431 0.26578 0.18701 0.0
C1052 C 0.89138 0.29081 0.17166 0.0
C1053 C 0.86395 0.31607 0.15789 0.0
C1054 C 0.7799 0.24037 0.20457 0.0
C1055 C 0.94914 0.29073 0.16967 0.0
C1056 C 0.9338 0.21635 0.24323 0.0
C1057 C 0.94236 0.18577 0.22935 0.0
C1058 C 0.90885 0.2428 0.22962 0.0
C1059 C 0.89252 0.23856 0.20142 0.0
C1060 C 0.90183 0.2079 0.18719 0.0
C1061 C 0.92638 0.1818 0.20138 0.0
C1062 C 0.89926 0.27506 0.24554 0.0
C1063 C 0.88522 0.20248 0.15707 0.0
H1064 H 0.74225 0.29257 0.17469 0.0
H1065 H 0.88401 0.33549 0.14616 0.0
H1066 H 0.78804 0.21483 0.19633 0.0
H1067 H 0.79181 0.24091 0.22696 0.0
H1068 H 0.73791 0.24456 0.20348 0.0
H1069 H 0.9643 0.31197 0.1569 0.0
H1070 H 0.96614 0.29232 0.19102 0.0
H1071 H 0.96208 0.26677 0.16011 0.0
H1072 H 0.94637 0.2195 0.26482 0.0
H1073 H 0.93258 0.15807 0.19065 0.0
H1074 H 0.85742 0.27948 0.24703 0.0
H1075 H 0.91638 0.29669 0.23407 0.0
H1076 H 0.91543 0.2746 0.26714 0.0
H1077 H 0.84288 0.20402 0.15557 0.0
H1078 H 0.89732 0.17769 0.14867 0.0
H1079 H 0.90159 0.22257 0.14351 0.0
C1080 C 0.84766 0.69499 0.66015 0.0
C1081 C 0.79633 0.69929 0.65265 0.0
C1082 C 0.87541 0.72089 0.6737 0.0
C1083 C 0.85087 0.75164 0.68017 0.0
C1084 C 0.79907 0.75615 0.67214 0.0
C1085 C 0.77251 0.72993 0.65829 0.0
C1086 C 0.93045 0.71499 0.68188 0.0
C1087 C 0.77126 0.78826 0.67896 0.0
C1088 C 0.90099 0.80332 0.74204 0.0
C1089 C 0.92706 0.82964 0.72861 0.0
C1090 C 0.87633 0.77771 0.72657 0.0
C1091 C 0.87833 0.77825 0.69679 0.0
C1092 C 0.9062 0.8043 0.6831 0.0
C1093 C 0.93034 0.82971 0.69922 0.0
C1094 C 0.84733 0.7505 0.74219 0.0
C1095 C 0.91009 0.80548 0.65145 0.0
H1096 H 0.86565 0.67111 0.65572 0.0
H1097 H 0.73266 0.73289 0.65249 0.0
H1098 H 0.95534 0.73563 0.67384 0.0
H1099 H 0.93393 0.71502 0.70514 0.0
H1100 H 0.94491 0.69066 0.67368 0.0
H1101 H 0.73176 0.78837 0.67025 0.0
H1102 H 0.76899 0.79158 0.70212 0.0
H1103 H 0.79278 0.81022 0.67047 0.0
H1104 H 0.90062 0.80239 0.76471 0.0
H1105 H 0.9511 0.84995 0.68885 0.0
H1106 H 0.85587 0.72529 0.73342 0.0
H1107 H 0.80555 0.75459 0.73981 0.0
H1108 H 0.85665 0.75046 0.76497 0.0
H1109 H 0.92622 0.78162 0.64335 0.0
H1110 H 0.93453 0.82675 0.64407 0.0
H1111 H 0.8713 0.80803 0.64221 0.0
C1112 C 0.65583 0.82313 0.16907 0.0
C1113 C 0.68915 0.8168 0.14653 0.0
C1114 C 0.63015 0.79676 0.18298 0.0
C1115 C 0.63534 0.76336 0.17303 0.0
C1116 C 0.66507 0.7572 0.14863 0.0
C1117 C 0.69291 0.7838 0.13622 0.0
C1118 C 0.59912 0.80454 0.20897 0.0
C1119 C 0.66836 0.7224 0.136 0.0
C1120 C 0.62497 0.69167 0.22542 0.0
C1121 C 0.57259 0.68353 0.22483 0.0
C1122 C 0.64553 0.71776 0.20895 0.0
C1123 C 0.6137 0.7347 0.18965 0.0
C1124 C 0.56141 0.72499 0.18734 0.0
C1125 C 0.54128 0.70019 0.20545 0.0
C1126 C 0.70091 0.72815 0.21315 0.0
C1127 C 0.52589 0.74086 0.1663 0.0
H1128 H 0.65117 0.84871 0.17643 0.0
H1129 H 0.71858 0.77857 0.11889 0.0
H1130 H 0.55839 0.79749 0.2054 0.0
H1131 H 0.61306 0.78946 0.22696 0.0
H1132 H 0.60116 0.83161 0.21482 0.0
H1133 H 0.68599 0.72279 0.11472 0.0
H1134 H 0.69173 0.70609 0.14969 0.0
H1135 H 0.62952 0.71081 0.13448 0.0
H1136 H 0.65002 0.67809 0.2391 0.0
H1137 H 0.50094 0.69379 0.20423 0.0
H1138 H 0.70279 0.75463 0.22064 0.0
H1139 H 0.72222 0.72694 0.19301 0.0
H1140 H 0.72078 0.71211 0.22864 0.0
H1141 H 0.50323 0.76061 0.17699 0.0
H1142 H 0.49831 0.72185 0.15791 0.0
H1143 H 0.54676 0.7524 0.14836 0.0
C1144 C 0.32675 0.79831 0.39092 0.0
C1145 C 0.2738 0.7974 0.38631 0.0
C1146 C 0.35894 0.77486 0.37788 0.0
C1147 C 0.33736 0.74992 0.35997 0.0
C1148 C 0.28359 0.7484 0.35592 0.0
C1149 C 0.25244 0.77231 0.36911 0.0
C1150 C 0.41609 0.77736 0.38259 0.0
C1151 C 0.25913 0.72197 0.33722 0.0
C1152 C 0.42032 0.71154 0.30286 0.0
C1153 C 0.43338 0.68074 0.31492 0.0
C1154 C 0.38955 0.73447 0.31746 0.0
C1155 C 0.37113 0.72619 0.34463 0.0
C1156 C 0.38437 0.69509 0.35691 0.0
C1157 C 0.41549 0.67274 0.3419 0.0
C1158 C 0.37646 0.76747 0.30373 0.0
C1159 C 0.36513 0.68526 0.38572 0.0
H1160 H 0.34296 0.81807 0.40404 0.0
H1161 H 0.21136 0.77182 0.36576 0.0
H1162 H 0.43092 0.75299 0.3902 0.0
H1163 H 0.43572 0.78295 0.36239 0.0
H1164 H 0.42651 0.79731 0.39806 0.0
H1165 H 0.21666 0.7237 0.33692 0.0
H1166 H 0.27361 0.7247 0.31539 0.0
H1167 H 0.26975 0.6965 0.34449 0.0
H1168 H 0.43427 0.71768 0.28199 0.0
H1169 H 0.42511 0.6487 0.35109 0.0
H1170 H 0.38899 0.78874 0.31734 0.0
H1171 H 0.33431 0.76932 0.30119 0.0
H1172 H 0.39475 0.77035 0.28275 0.0
H1173 H 0.37698 0.70448 0.40146 0.0
H1174 H 0.3797 0.66041 0.39247 0.0
H1175 H 0.32261 0.68423 0.38574 0.0
C1176 C 0.17448 0.71698 0.88686 0.0
C1177 C 0.2272 0.71813 0.88162 0.0
C1178 C 0.14145 0.73982 0.87391 0.0
C1179 C 0.16204 0.76454 0.85558 0.0
C1180 C 0.21563 0.76602 0.85064 0.0
C1181 C 0.24761 0.7426 0.86369 0.0
C1182 C 0.08456 0.73724 0.8795 0.0
C1183 C 0.23909 0.79228 0.83156 0.0
C1184 C 0.07656 0.80387 0.8004 0.0
C1185 C 0.06462 0.83468 0.81302 0.0
C1186 C 0.10754 0.78054 0.81424 0.0
C1187 C 0.12749 0.78849 0.84118 0.0
C1188 C 0.11508 0.8195 0.85412 0.0
C1189 C 0.0835 0.84217 0.83993 0.0
C1190 C 0.11944 0.74759 0.79988 0.0
C1191 C 0.13604 0.82903 0.88268 0.0
H1192 H 0.15925 0.6978 0.90081 0.0
H1193 H 0.2886 0.74326 0.85996 0.0
H1194 H 0.07034 0.76138 0.88812 0.0
H1195 H 0.06381 0.73241 0.8595 0.0
H1196 H 0.07483 0.71681 0.89453 0.0
H1197 H 0.28139 0.78996 0.82992 0.0
H1198 H 0.22239 0.79008 0.81018 0.0
H1199 H 0.23009 0.81779 0.83959 0.0
H1200 H 0.0618 0.79809 0.7796 0.0
H1201 H 0.07475 0.86621 0.84956 0.0
H1202 H 0.10811 0.72625 0.81362 0.0
H1203 H 0.16132 0.74577 0.79619 0.0
H1204 H 0.09939 0.74476 0.77939 0.0
H1205 H 0.12521 0.80963 0.89837 0.0
H1206 H 0.12185 0.85379 0.89007 0.0
H1207 H 0.17853 0.8301 0.88185 0.0
loop_
_geom_bond_atom_site_label_1
_geom_bond_atom_site_label_2
_geom_bond_distance
_geom_bond_site_symmetry_2
_ccdc_geom_bond_type
C0 N1 1.317 . S
C0 N2 1.348 . S
C0 C3 1.485 . S
N1 C0 1.317 . S
N1 N5 1.370 . S
N2 C0 1.348 . S
N2 C4 1.346 . S
C3 C0 1.485 . S
C3 H7 0.960 . S
C3 H8 0.961 . S
C3 H9 0.960 . S
C4 N2 1.346 . S
C4 N5 1.307 . S
C4 C6 1.486 . S
N5 N1 1.370 . S
N5 C4 1.307 . S
C6 C4 1.486 . S
C6 H10 0.960 . S
C6 H11 0.960 . S
C6 H12 0.959 . S
H7 C3 0.960 . S
H8 C3 0.961 . S
H9 C3 0.960 . S
H10 C6 0.960 . S
H11 C6 0.960 . S
H12 C6 0.959 . S
C13 N14 1.317 . S
C13 N15 1.348 . S
C13 C16 1.485 . S
N14 C13 1.317 . S
N14 N18 1.370 . S
N15 C13 1.348 . S
N15 C17 1.346 . S
C16 C13 1.485 . S
C16 H20 0.960 . S
C16 H21 0.961 . S
C16 H22 0.960 . S
C17 N15 1.346 . S
C17 N18 1.307 . S
C17 C19 1.486 . S
N18 N14 1.370 . S
N18 C17 1.307 . S
C19 C17 1.486 . S
C19 H23 0.960 . S
C19 H24 0.960 . S
C19 H25 0.959 . S
H20 C16 0.960 . S
H21 C16 0.961 . S
H22 C16 0.960 . S
H23 C19 0.960 . S
H24 C19 0.960 . S
H25 C19 0.959 . S
C26 N27 1.317 . S
C26 N28 1.348 . S
C26 C29 1.485 . S
N27 C26 1.317 . S
N27 N31 1.370 . S
N28 C26 1.348 . S
N28 C30 1.346 . S
C29 C26 1.485 . S
C29 H33 0.960 . S
C29 H34 0.961 . S
C29 H35 0.960 . S
C30 N28 1.346 . S
C30 N31 1.307 . S
C30 C32 1.486 . S
N31 N27 1.370 . S
N31 C30 1.307 . S
C32 C30 1.486 . S
C32 H36 0.960 . S
C32 H37 0.960 . S
C32 H38 0.959 . S
H33 C29 0.960 . S
H34 C29 0.961 . S
H35 C29 0.960 . S
H36 C32 0.960 . S
H37 C32 0.960 . S
H38 C32 0.959 . S
C39 N40 1.317 . S
C39 N41 1.348 . S
C39 C42 1.485 . S
N40 C39 1.317 . S
N40 N44 1.370 . S
N41 C39 1.348 . S
N41 C43 1.346 . S
C42 C39 1.485 . S
C42 H46 0.960 . S
C42 H47 0.961 . S
C42 H48 0.960 . S
C43 N41 1.346 . S
C43 N44 1.307 . S
C43 C45 1.486 . S
N44 N40 1.370 . S
N44 C43 1.307 . S
C45 C43 1.486 . S
C45 H49 0.960 . S
C45 H50 0.960 . S
C45 H51 0.959 . S
H46 C42 0.960 . S
H47 C42 0.961 . S
H48 C42 0.960 . S
H49 C45 0.960 . S
H50 C45 0.960 . S
H51 C45 0.959 . S
C52 N53 1.317 . S
C52 N54 1.348 . S
C52 C55 1.485 . S
N53 C52 1.317 . S
N53 N57 1.370 . S
N54 C52 1.348 . S
N54 C56 1.346 . S
C55 C52 1.485 . S
C55 H59 0.960 . S
C55 H60 0.961 . S
C55 H61 0.960 . S
C56 N54 1.346 . S
C56 N57 1.307 . S
C56 C58 1.486 . S
N57 N53 1.370 . S
N57 C56 1.307 . S
C58 C56 1.486 . S
C58 H62 0.960 . S
C58 H63 0.960 . S
C58 H64 0.959 . S
H59 C55 0.960 . S
H60 C55 0.961 . S
H61 C55 0.960 . S
H62 C58 0.960 . S
H63 C58 0.960 . S
H64 C58 0.959 . S
C65 N66 1.317 . S
C65 N67 1.348 . S
C65 C68 1.485 . S
N66 C65 1.317 . S
N66 N70 1.370 . S
N67 C65 1.348 . S
N67 C69 1.346 . S
C68 C65 1.485 . S
C68 H72 0.960 . S
C68 H73 0.961 . S
C68 H74 0.960 . S
C69 N67 1.346 . S
C69 N70 1.307 . S
C69 C71 1.486 . S
N70 N66 1.370 . S
N70 C69 1.307 . S
C71 C69 1.486 . S
C71 H75 0.960 . S
C71 H76 0.960 . S
C71 H77 0.959 . S
H72 C68 0.960 . S
H73 C68 0.961 . S
H74 C68 0.960 . S
H75 C71 0.960 . S
H76 C71 0.960 . S
H77 C71 0.959 . S
C78 N79 1.317 . S
C78 N80 1.348 . S
C78 C81 1.485 . S
N79 C78 1.317 . S
N79 N83 1.370 . S
N80 C78 1.348 . S
N80 C82 1.346 . S
C81 C78 1.485 . S
C81 H85 0.960 . S
C81 H86 0.961 . S
C81 H87 0.960 . S
C82 N80 1.346 . S
C82 N83 1.307 . S
C82 C84 1.486 . S
N83 N79 1.370 . S
N83 C82 1.307 . S
C84 C82 1.486 . S
C84 H88 0.960 . S
C84 H89 0.960 . S
C84 H90 0.959 . S
H85 C81 0.960 . S
H86 C81 0.961 . S
H87 C81 0.960 . S
H88 C84 0.960 . S
H89 C84 0.960 . S
H90 C84 0.959 . S
C91 N92 1.317 . S
C91 N93 1.348 . S
C91 C94 1.485 . S
N92 C91 1.317 . S
N92 N96 1.370 . S
N93 C91 1.348 . S
N93 C95 1.346 . S
C94 C91 1.485 . S
C94 H98 0.960 . S
C94 H99 0.961 . S
C94 H100 0.960 . S
C95 N93 1.346 . S
C95 N96 1.307 . S
C95 C97 1.486 . S
N96 N92 1.370 . S
N96 C95 1.307 . S
C97 C95 1.486 . S
C97 H101 0.960 . S
C97 H102 0.960 . S
C97 H103 0.959 . S
H98 C94 0.960 . S
H99 C94 0.961 . S
H100 C94 0.960 . S
H101 C97 0.960 . S
H102 C97 0.960 . S
H103 C97 0.959 . S
Tb104 N133 2.617 . S
Tb104 N139 2.572 . S
Tb104 O148 2.465 . S
Tb104 O149 2.387 . S
Tb104 O151 2.428 . S
Tb104 O152 2.308 1_455 S
Tb104 O156 2.349 1_455 S
Tb104 O159 2.393 . S
Tb104 C168 2.802 . S
C105 N106 1.379 . S
C105 C108 1.416 . S
C105 C112 1.424 . S
N106 C105 1.379 . S
N106 C109 1.334 . S
N106 Tb115 2.617 . S
C107 C109 1.390 . S
C107 C110 1.339 . S
C107 H127 0.930 . S
C108 C105 1.416 . S
C108 C110 1.416 . S
C108 C114 1.448 . S
C109 N106 1.334 . S
C109 C107 1.390 . S
C109 H120 0.930 . S
C110 C107 1.339 . S
C110 C108 1.416 . S
C110 H131 0.930 . S
C111 C112 1.413 . S
C111 C113 1.427 . S
C111 C117 1.416 1_545 S
C112 C105 1.424 . S
C112 C111 1.413 . S
C112 N116 1.361 . S
C113 C111 1.427 . S
C113 C114 1.328 . S
C113 H128 0.929 1_545 S
C114 C108 1.448 . S
C114 C113 1.328 . S
C114 H129 0.930 . S
Tb115 N106 2.617 . S
Tb115 N116 2.572 . S
Tb115 O150 2.349 1_655 S
Tb115 O153 2.393 . S
Tb115 O154 2.465 . S
Tb115 O155 2.387 . S
Tb115 O157 2.428 . S
Tb115 O158 2.308 1_655 S
Tb115 C179 2.802 . S
N116 C112 1.361 . S
N116 Tb115 2.572 . S
N116 C118 1.340 . S
C117 C111 1.416 1_565 S
C117 C119 1.332 . S
C117 H125 0.931 . S
C118 N116 1.340 . S
C118 C119 1.407 1_545 S
C118 H124 0.930 . S
C119 C117 1.332 . S
C119 C118 1.407 1_565 S
C119 H121 0.929 . S
H120 C109 0.930 . S
H121 C119 0.929 . S
H122 C137 0.930 . S
H123 C144 0.929 . S
H124 C118 0.930 . S
H125 C117 0.931 . S
H126 C140 0.930 . S
H127 C107 0.930 . S
H128 C113 0.929 1_565 S
H129 C114 0.930 . S
H130 C135 0.930 . S
H131 C110 0.930 . S
H132 C143 0.931 . S
N133 Tb104 2.617 . S
N133 C134 1.379 . S
N133 C137 1.334 . S
C134 N133 1.379 . S
C134 C136 1.416 . S
C134 C142 1.424 . S
C135 H130 0.930 . S
C135 C137 1.390 . S
C135 C138 1.339 . S
C136 C134 1.416 . S
C136 C138 1.416 . S
C136 C169 1.448 . S
C137 H122 0.930 . S
C137 N133 1.334 . S
C137 C135 1.390 . S
C138 C135 1.339 . S
C138 C136 1.416 . S
C138 H145 0.930 . S
N139 Tb104 2.572 . S
N139 C140 1.340 . S
N139 C142 1.361 . S
C140 H126 0.930 . S
C140 N139 1.340 . S
C140 C144 1.407 . S
C141 C142 1.413 . S
C141 C143 1.416 . S
C141 C170 1.427 . S
C142 C134 1.424 . S
C142 N139 1.361 . S
C142 C141 1.413 . S
C143 H132 0.931 . S
C143 C141 1.416 . S
C143 C144 1.332 . S
C144 H123 0.929 . S
C144 C140 1.407 . S
C144 C143 1.332 . S
H145 C138 0.930 . S
H146 C169 0.930 . S
H147 C170 0.929 . S
O148 Tb104 2.465 . S
O148 C168 1.264 . S
O149 Tb104 2.387 . S
O149 C160 1.264 . S
O150 Tb115 2.349 1_455 S
O150 C160 1.243 . S
O151 Tb104 2.428 . S
O151 C168 1.256 . S
O152 Tb104 2.308 1_655 S
O152 C167 1.266 . S
O153 Tb115 2.393 . S
O153 C167 1.248 . S
O154 Tb115 2.465 . S
O154 C179 1.264 . S
O155 Tb115 2.387 . S
O155 C171 1.264 . S
O156 Tb104 2.349 1_655 S
O156 C171 1.243 . S
O157 Tb115 2.428 . S
O157 C179 1.256 . S
O158 Tb115 2.308 1_455 S
O158 C178 1.266 . S
O159 Tb104 2.393 . S
O159 C178 1.248 . S
C160 O149 1.264 . S
C160 O150 1.243 . S
C161 C164 1.399 . S
C161 C166 1.383 . S
C161 C168 1.496 . S
C162 C163 1.399 . S
C162 C166 1.389 . S
C163 C162 1.399 . S
C163 C165 1.380 . S
C163 H180 0.929 . S
C164 C161 1.399 . S
C164 C165 1.392 . S
C164 H181 0.929 . S
C165 C163 1.380 . S
C165 C164 1.392 . S
C165 H182 0.929 . S
C166 C161 1.383 . S
C166 C162 1.389 . S
C166 H183 0.931 . S
C167 O152 1.266 . S
C167 O153 1.248 . S
C168 Tb104 2.802 . S
C168 O148 1.264 . S
C168 O151 1.256 . S
C168 C161 1.496 . S
C169 C136 1.448 . S
C169 H146 0.930 . S
C169 C170 1.328 . S
C170 C141 1.427 . S
C170 H147 0.929 . S
C170 C169 1.328 . S
C171 O155 1.264 . S
C171 O156 1.243 . S
C172 C175 1.399 . S
C172 C176 1.383 . S
C172 C179 1.496 . S
C173 C174 1.399 . S
C173 C176 1.389 . S
C174 C173 1.399 . S
C174 C177 1.380 . S
C174 H184 0.929 . S
C175 C172 1.399 . S
C175 C177 1.392 . S
C175 H185 0.929 . S
C176 C172 1.383 . S
C176 C173 1.389 . S
C176 H186 0.931 . S
C177 C174 1.380 . S
C177 C175 1.392 . S
C177 H187 0.929 . S
C178 O158 1.266 . S
C178 O159 1.248 . S
C179 Tb115 2.802 . S
C179 O154 1.264 . S
C179 O157 1.256 . S
C179 C172 1.496 . S
H180 C163 0.929 . S
H181 C164 0.929 . S
H182 C165 0.929 . S
H183 C166 0.931 . S
H184 C174 0.929 . S
H185 C175 0.929 . S
H186 C176 0.931 . S
H187 C177 0.929 . S
Tb188 N217 2.617 . S
Tb188 N223 2.572 . S
Tb188 O232 2.465 . S
Tb188 O233 2.387 . S
Tb188 O235 2.428 . S
Tb188 O236 2.308 . S
Tb188 O240 2.349 . S
Tb188 O243 2.393 . S
Tb188 C252 2.802 . S
C189 N190 1.379 . S
C189 C192 1.416 . S
C189 C196 1.424 . S
N190 C189 1.379 . S
N190 C193 1.334 . S
N190 Tb199 2.617 . S
C191 C193 1.390 . S
C191 C194 1.339 . S
C191 H211 0.930 . S
C192 C189 1.416 . S
C192 C194 1.416 . S
C192 C198 1.448 . S
C193 N190 1.334 . S
C193 C191 1.390 . S
C193 H204 0.930 . S
C194 C191 1.339 . S
C194 C192 1.416 . S
C194 H215 0.930 . S
C195 C196 1.413 . S
C195 C197 1.427 . S
C195 C201 1.416 . S
C196 C189 1.424 . S
C196 C195 1.413 . S
C196 N200 1.361 . S
C197 C195 1.427 . S
C197 C198 1.328 . S
C197 H212 0.929 . S
C198 C192 1.448 . S
C198 C197 1.328 . S
C198 H213 0.930 . S
Tb199 N190 2.617 . S
Tb199 N200 2.572 . S
Tb199 O234 2.349 . S
Tb199 O237 2.393 . S
Tb199 O238 2.465 . S
Tb199 O239 2.387 . S
Tb199 O241 2.428 . S
Tb199 O242 2.308 . S
Tb199 C263 2.802 . S
N200 C196 1.361 . S
N200 Tb199 2.572 . S
N200 C202 1.340 . S
C201 C195 1.416 . S
C201 C203 1.332 . S
C201 H209 0.931 . S
C202 N200 1.340 . S
C202 C203 1.407 . S
C202 H208 0.930 . S
C203 C201 1.332 . S
C203 C202 1.407 . S
C203 H205 0.929 . S
H204 C193 0.930 . S
H205 C203 0.929 . S
H206 C221 0.930 . S
H207 C228 0.929 . S
H208 C202 0.930 . S
H209 C201 0.931 . S
H210 C224 0.930 . S
H211 C191 0.930 . S
H212 C197 0.929 . S
H213 C198 0.930 . S
H214 C219 0.930 . S
H215 C194 0.930 . S
H216 C227 0.931 . S
N217 Tb188 2.617 . S
N217 C218 1.379 . S
N217 C221 1.334 . S
C218 N217 1.379 . S
C218 C220 1.416 . S
C218 C226 1.424 . S
C219 H214 0.930 . S
C219 C221 1.390 . S
C219 C222 1.339 . S
C220 C218 1.416 . S
C220 C222 1.416 . S
C220 C253 1.448 . S
C221 H206 0.930 . S
C221 N217 1.334 . S
C221 C219 1.390 . S
C222 C219 1.339 . S
C222 C220 1.416 . S
C222 H229 0.930 . S
N223 Tb188 2.572 . S
N223 C224 1.340 . S
N223 C226 1.361 . S
C224 H210 0.930 . S
C224 N223 1.340 . S
C224 C228 1.407 . S
C225 C226 1.413 . S
C225 C227 1.416 . S
C225 C254 1.427 . S
C226 C218 1.424 . S
C226 N223 1.361 . S
C226 C225 1.413 . S
C227 H216 0.931 . S
C227 C225 1.416 . S
C227 C228 1.332 . S
C228 H207 0.929 . S
C228 C224 1.407 . S
C228 C227 1.332 . S
H229 C222 0.930 . S
H230 C253 0.930 . S
H231 C254 0.929 . S
O232 Tb188 2.465 . S
O232 C252 1.264 . S
O233 Tb188 2.387 . S
O233 C244 1.264 . S
O234 Tb199 2.349 . S
O234 C244 1.243 . S
O235 Tb188 2.428 . S
O235 C252 1.256 . S
O236 Tb188 2.308 . S
O236 C251 1.266 . S
O237 Tb199 2.393 . S
O237 C251 1.248 . S
O238 Tb199 2.465 . S
O238 C263 1.264 . S
O239 Tb199 2.387 . S
O239 C255 1.264 . S
O240 Tb188 2.349 . S
O240 C255 1.243 . S
O241 Tb199 2.428 . S
O241 C263 1.256 . S
O242 Tb199 2.308 . S
O242 C262 1.266 . S
O243 Tb188 2.393 . S
O243 C262 1.248 . S
C244 O233 1.264 . S
C244 O234 1.243 . S
C245 C248 1.399 . S
C245 C250 1.383 . S
C245 C252 1.496 . S
C246 C247 1.399 . S
C246 C250 1.389 . S
C247 C246 1.399 . S
C247 C249 1.380 . S
C247 H264 0.929 . S
C248 C245 1.399 . S
C248 C249 1.392 . S
C248 H265 0.929 . S
C249 C247 1.380 . S
C249 C248 1.392 . S
C249 H266 0.929 . S
C250 C245 1.383 . S
C250 C246 1.389 . S
C250 H267 0.931 . S
C251 O236 1.266 . S
C251 O237 1.248 . S
C252 Tb188 2.802 . S
C252 O232 1.264 . S
C252 O235 1.256 . S
C252 C245 1.496 . S
C253 C220 1.448 . S
C253 H230 0.930 . S
C253 C254 1.328 . S
C254 C225 1.427 . S
C254 H231 0.929 . S
C254 C253 1.328 . S
C255 O239 1.264 . S
C255 O240 1.243 . S
C256 C259 1.399 . S
C256 C260 1.383 . S
C256 C263 1.496 . S
C257 C258 1.399 . S
C257 C260 1.389 . S
C258 C257 1.399 . S
C258 C261 1.380 . S
C258 H268 0.929 . S
C259 C256 1.399 . S
C259 C261 1.392 . S
C259 H269 0.929 . S
C260 C256 1.383 . S
C260 C257 1.389 . S
C260 H270 0.931 . S
C261 C258 1.380 . S
C261 C259 1.392 . S
C261 H271 0.929 . S
C262 O242 1.266 . S
C262 O243 1.248 . S
C263 Tb199 2.802 . S
C263 O238 1.264 . S
C263 O241 1.256 . S
C263 C256 1.496 . S
H264 C247 0.929 . S
H265 C248 0.929 . S
H266 C249 0.929 . S
H267 C250 0.931 . S
H268 C258 0.929 . S
H269 C259 0.929 . S
H270 C260 0.931 . S
H271 C261 0.929 . S
Tb272 N301 2.617 . S
Tb272 N307 2.572 . S
Tb272 O316 2.465 . S
Tb272 O317 2.387 . S
Tb272 O319 2.428 . S
Tb272 O320 2.316 . S
Tb272 O324 2.349 . S
Tb272 O327 2.393 . S
Tb272 C336 2.802 . S
C273 N274 1.379 . S
C273 C276 1.416 . S
C273 C280 1.424 . S
N274 C273 1.379 . S
N274 C277 1.334 . S
N274 Tb283 2.617 . S
C275 C277 1.390 . S
C275 C278 1.339 . S
C275 H295 0.930 . S
C276 C273 1.416 . S
C276 C278 1.416 . S
C276 C282 1.448 . S
C277 N274 1.334 . S
C277 C275 1.390 . S
C277 H288 0.930 . S
C278 C275 1.339 . S
C278 C276 1.416 . S
C278 H299 0.930 . S
C279 C280 1.413 . S
C279 C281 1.427 . S
C279 C285 1.416 . S
C280 C273 1.424 . S
C280 C279 1.413 . S
C280 N284 1.361 . S
C281 C279 1.427 . S
C281 C282 1.328 . S
C281 H296 0.929 . S
C282 C276 1.448 . S
C282 C281 1.328 . S
C282 H297 0.930 . S
Tb283 N274 2.617 . S
Tb283 N284 2.572 . S
Tb283 O318 2.349 1_655 S
Tb283 O321 2.393 . S
Tb283 O322 2.465 . S
Tb283 O323 2.387 . S
Tb283 O325 2.428 . S
Tb283 O326 2.308 1_655 S
Tb283 C347 2.802 . S
N284 C280 1.361 . S
N284 Tb283 2.572 . S
N284 C286 1.340 . S
C285 C279 1.416 . S
C285 C287 1.332 . S
C285 H293 0.931 . S
C286 N284 1.340 . S
C286 C287 1.407 . S
C286 H292 0.930 . S
C287 C285 1.332 . S
C287 C286 1.407 . S
C287 H289 0.929 . S
H288 C277 0.930 . S
H289 C287 0.929 . S
H290 C305 0.930 . S
H291 C312 0.929 . S
H292 C286 0.930 . S
H293 C285 0.931 . S
H294 C308 0.930 . S
H295 C275 0.930 . S
H296 C281 0.929 . S
H297 C282 0.930 . S
H298 C303 0.930 . S
H299 C278 0.930 . S
H300 C311 0.931 . S
N301 Tb272 2.617 . S
N301 C302 1.379 . S
N301 C305 1.334 . S
C302 N301 1.379 . S
C302 C304 1.416 . S
C302 C310 1.424 . S
C303 H298 0.930 . S
C303 C305 1.390 . S
C303 C306 1.339 . S
C304 C302 1.416 . S
C304 C306 1.416 . S
C304 C337 1.448 . S
C305 H290 0.930 . S
C305 N301 1.334 . S
C305 C303 1.390 . S
C306 C303 1.339 . S
C306 C304 1.416 . S
C306 H313 0.930 . S
N307 Tb272 2.572 . S
N307 C308 1.340 . S
N307 C310 1.361 . S
C308 H294 0.930 . S
C308 N307 1.340 . S
C308 C312 1.407 1_565 S
C309 C310 1.413 . S
C309 C311 1.416 1_565 S
C309 C338 1.427 . S
C310 C302 1.424 . S
C310 N307 1.361 . S
C310 C309 1.413 . S
C311 H300 0.931 . S
C311 C309 1.416 1_545 S
C311 C312 1.332 . S
C312 H291 0.929 . S
C312 C308 1.407 1_545 S
C312 C311 1.332 . S
H313 C306 0.930 . S
H314 C337 0.930 . S
H315 C338 0.929 1_545 S
O316 Tb272 2.465 . S
O316 C336 1.264 . S
O317 Tb272 2.387 . S
O317 C328 1.264 . S
O318 Tb283 2.349 1_455 S
O318 C328 1.243 . S
O319 Tb272 2.428 . S
O319 C336 1.256 . S
O320 Tb272 2.316 . S
O320 C335 1.257 1_455 S
O321 Tb283 2.393 . S
O321 C335 1.248 . S
O322 Tb283 2.465 . S
O322 C347 1.264 . S
O323 Tb283 2.387 . S
O323 C339 1.264 . S
O324 Tb272 2.349 . S
O324 C339 1.243 1_455 S
O325 Tb283 2.428 . S
O325 C347 1.256 . S
O326 Tb283 2.308 1_455 S
O326 C346 1.266 . S
O327 Tb272 2.393 . S
O327 C346 1.248 . S
C328 O317 1.264 . S
C328 O318 1.243 . S
C329 C332 1.399 . S
C329 C334 1.383 . S
C329 C336 1.496 . S
C330 C331 1.399 . S
C330 C334 1.389 . S
C331 C330 1.399 . S
C331 C333 1.380 . S
C331 H348 0.929 . S
C332 C329 1.399 . S
C332 C333 1.392 . S
C332 H349 0.929 . S
C333 C331 1.380 . S
C333 C332 1.392 . S
C333 H350 0.929 . S
C334 C329 1.383 . S
C334 C330 1.389 . S
C334 H351 0.931 . S
C335 O320 1.257 1_655 S
C335 O321 1.248 . S
C336 Tb272 2.802 . S
C336 O316 1.264 . S
C336 O319 1.256 . S
C336 C329 1.496 . S
C337 C304 1.448 . S
C337 H314 0.930 . S
C337 C338 1.328 . S
C338 C309 1.427 . S
C338 H315 0.929 1_565 S
C338 C337 1.328 . S
C339 O323 1.264 . S
C339 O324 1.243 1_655 S
C340 C343 1.399 . S
C340 C344 1.383 . S
C340 C347 1.496 . S
C341 C342 1.399 . S
C341 C344 1.389 . S
C342 C341 1.399 . S
C342 C345 1.380 . S
C342 H352 0.929 . S
C343 C340 1.399 . S
C343 C345 1.392 . S
C343 H353 0.929 . S
C344 C340 1.383 . S
C344 C341 1.389 . S
C344 H354 0.931 . S
C345 C342 1.380 . S
C345 C343 1.392 . S
C345 H355 0.929 . S
C346 O326 1.266 . S
C346 O327 1.248 . S
C347 Tb283 2.802 . S
C347 O322 1.264 . S
C347 O325 1.256 . S
C347 C340 1.496 . S
H348 C331 0.929 . S
H349 C332 0.929 . S
H350 C333 0.929 . S
H351 C334 0.931 . S
H352 C342 0.929 . S
H353 C343 0.929 . S
H354 C344 0.931 . S
H355 C345 0.929 . S
Tb356 N385 2.617 . S
Tb356 N391 2.572 . S
Tb356 O400 2.465 . S
Tb356 O401 2.387 . S
Tb356 O403 2.428 . S
Tb356 O404 2.308 . S
Tb356 O408 2.349 . S
Tb356 O411 2.393 . S
Tb356 C420 2.802 . S
C357 N358 1.379 . S
C357 C360 1.416 . S
C357 C364 1.424 . S
N358 C357 1.379 . S
N358 C361 1.334 . S
N358 Tb367 2.617 . S
C359 C361 1.390 . S
C359 C362 1.339 . S
C359 H379 0.930 . S
C360 C357 1.416 . S
C360 C362 1.416 . S
C360 C366 1.448 . S
C361 N358 1.334 . S
C361 C359 1.390 . S
C361 H372 0.930 . S
C362 C359 1.339 . S
C362 C360 1.416 . S
C362 H383 0.930 . S
C363 C364 1.413 . S
C363 C365 1.427 . S
C363 C369 1.416 . S
C364 C357 1.424 . S
C364 C363 1.413 . S
C364 N368 1.361 . S
C365 C363 1.427 . S
C365 C366 1.328 . S
C365 H380 0.929 . S
C366 C360 1.448 . S
C366 C365 1.328 . S
C366 H381 0.930 . S
Tb367 N358 2.617 . S
Tb367 N368 2.572 . S
Tb367 O402 2.349 . S
Tb367 O405 2.393 . S
Tb367 O406 2.465 . S
Tb367 O407 2.387 . S
Tb367 O409 2.428 . S
Tb367 O410 2.308 . S
Tb367 C431 2.802 . S
N368 C364 1.361 . S
N368 Tb367 2.572 . S
N368 C370 1.340 . S
C369 C363 1.416 . S
C369 C371 1.332 . S
C369 H377 0.931 . S
C370 N368 1.340 . S
C370 C371 1.407 . S
C370 H376 0.930 . S
C371 C369 1.332 . S
C371 C370 1.407 . S
C371 H373 0.929 . S
H372 C361 0.930 . S
H373 C371 0.929 . S
H374 C389 0.930 . S
H375 C396 0.929 . S
H376 C370 0.930 . S
H377 C369 0.931 . S
H378 C392 0.930 . S
H379 C359 0.930 . S
H380 C365 0.929 . S
H381 C366 0.930 . S
H382 C387 0.930 . S
H383 C362 0.930 . S
H384 C395 0.931 . S
N385 Tb356 2.617 . S
N385 C386 1.379 . S
N385 C389 1.334 . S
C386 N385 1.379 . S
C386 C388 1.416 . S
C386 C394 1.424 . S
C387 H382 0.930 . S
C387 C389 1.390 . S
C387 C390 1.339 . S
C388 C386 1.416 . S
C388 C390 1.416 . S
C388 C421 1.448 . S
C389 H374 0.930 . S
C389 N385 1.334 . S
C389 C387 1.390 . S
C390 C387 1.339 . S
C390 C388 1.416 . S
C390 H397 0.930 . S
N391 Tb356 2.572 . S
N391 C392 1.340 . S
N391 C394 1.361 . S
C392 H378 0.930 . S
C392 N391 1.340 . S
C392 C396 1.407 . S
C393 C394 1.413 . S
C393 C395 1.416 . S
C393 C422 1.427 . S
C394 C386 1.424 . S
C394 N391 1.361 . S
C394 C393 1.413 . S
C395 H384 0.931 . S
C395 C393 1.416 . S
C395 C396 1.332 . S
C396 H375 0.929 . S
C396 C392 1.407 . S
C396 C395 1.332 . S
H397 C390 0.930 . S
H398 C421 0.930 . S
H399 C422 0.929 . S
O400 Tb356 2.465 . S
O400 C420 1.264 . S
O401 Tb356 2.387 . S
O401 C412 1.264 . S
O402 Tb367 2.349 . S
O402 C412 1.243 . S
O403 Tb356 2.428 . S
O403 C420 1.256 . S
O404 Tb356 2.308 . S
O404 C419 1.266 . S
O405 Tb367 2.393 . S
O405 C419 1.248 . S
O406 Tb367 2.465 . S
O406 C431 1.264 . S
O407 Tb367 2.387 . S
O407 C423 1.264 . S
O408 Tb356 2.349 . S
O408 C423 1.243 . S
O409 Tb367 2.428 . S
O409 C431 1.256 . S
O410 Tb367 2.308 . S
O410 C430 1.266 . S
O411 Tb356 2.393 . S
O411 C430 1.248 . S
C412 O401 1.264 . S
C412 O402 1.243 . S
C413 C416 1.399 . S
C413 C418 1.383 . S
C413 C420 1.496 . S
C414 C415 1.399 . S
C414 C418 1.389 . S
C415 C414 1.399 . S
C415 C417 1.380 . S
C415 H432 0.929 . S
C416 C413 1.399 . S
C416 C417 1.392 . S
C416 H433 0.929 . S
C417 C415 1.380 . S
C417 C416 1.392 . S
C417 H434 0.929 . S
C418 C413 1.383 . S
C418 C414 1.389 . S
C418 H435 0.931 . S
C419 O404 1.266 . S
C419 O405 1.248 . S
C420 Tb356 2.802 . S
C420 O400 1.264 . S
C420 O403 1.256 . S
C420 C413 1.496 . S
C421 C388 1.448 . S
C421 H398 0.930 . S
C421 C422 1.328 . S
C422 C393 1.427 . S
C422 H399 0.929 . S
C422 C421 1.328 . S
C423 O407 1.264 . S
C423 O408 1.243 . S
C424 C427 1.399 . S
C424 C428 1.383 . S
C424 C431 1.496 . S
C425 C426 1.399 . S
C425 C428 1.389 . S
C426 C425 1.399 . S
C426 C429 1.380 . S
C426 H436 0.929 . S
C427 C424 1.399 . S
C427 C429 1.392 . S
C427 H437 0.929 . S
C428 C424 1.383 . S
C428 C425 1.389 . S
C428 H438 0.931 . S
C429 C426 1.380 . S
C429 C427 1.392 . S
C429 H439 0.929 . S
C430 O410 1.266 . S
C430 O411 1.248 . S
C431 Tb367 2.802 . S
C431 O406 1.264 . S
C431 O409 1.256 . S
C431 C424 1.496 . S
H432 C415 0.929 . S
H433 C416 0.929 . S
H434 C417 0.929 . S
H435 C418 0.931 . S
H436 C426 0.929 . S
H437 C427 0.929 . S
H438 C428 0.931 . S
H439 C429 0.929 . S
C440 C441 1.391 . S
C440 C442 1.394 . S
C440 H456 0.931 . S
C441 C440 1.391 . S
C441 C445 1.376 . S
C442 C440 1.394 . S
C442 C443 1.369 . S
C442 C446 1.531 . S
C443 C442 1.369 . S
C443 C444 1.410 . S
C443 C451 1.503 . S
C444 C443 1.410 . S
C444 C445 1.392 . S
C444 C447 1.511 . S
C445 C441 1.376 . S
C445 C444 1.392 . S
C445 H457 0.929 . S
C446 C442 1.531 . S
C446 H458 0.989 . S
C446 H459 0.962 . S
C446 H460 0.960 . S
C447 C444 1.511 . S
C447 H461 0.961 . S
C447 H462 0.961 . S
C447 H463 0.961 . S
C448 C449 1.370 1_565 S
C448 C450 1.363 . S
C448 H464 0.931 . S
C449 C448 1.370 1_545 S
C449 C453 1.408 . S
C450 C448 1.363 . S
C450 C451 1.370 . S
C450 C454 1.524 . S
C451 C443 1.503 . S
C451 C450 1.370 . S
C451 C452 1.403 1_565 S
C452 C451 1.403 1_545 S
C452 C453 1.404 . S
C452 C455 1.539 . S
C453 C449 1.408 . S
C453 C452 1.404 . S
C453 H465 0.930 . S
C454 C450 1.524 . S
C454 H466 0.956 . S
C454 H467 0.961 . S
C454 H468 0.961 . S
C455 C452 1.539 . S
C455 H469 0.958 . S
C455 H470 0.961 . S
C455 H471 0.960 . S
H456 C440 0.931 . S
H457 C445 0.929 . S
H458 C446 0.989 . S
H459 C446 0.962 . S
H460 C446 0.960 . S
H461 C447 0.961 . S
H462 C447 0.961 . S
H463 C447 0.961 . S
H464 C448 0.931 . S
H465 C453 0.930 . S
H466 C454 0.956 . S
H467 C454 0.961 . S
H468 C454 0.961 . S
H469 C455 0.958 . S
H470 C455 0.961 . S
H471 C455 0.960 . S
C472 C473 1.391 . S
C472 C474 1.394 . S
C472 H488 0.931 . S
C473 C472 1.391 . S
C473 C477 1.376 . S
C474 C472 1.394 . S
C474 C475 1.369 . S
C474 C478 1.531 . S
C475 C474 1.369 . S
C475 C476 1.410 . S
C475 C483 1.503 . S
C476 C475 1.410 . S
C476 C477 1.392 . S
C476 C479 1.511 . S
C477 C473 1.376 . S
C477 C476 1.392 . S
C477 H489 0.929 . S
C478 C474 1.531 . S
C478 H490 0.960 . S
C478 H491 0.962 . S
C478 H492 0.960 . S
C479 C476 1.511 . S
C479 H493 0.961 . S
C479 H494 0.961 . S
C479 H495 0.961 . S
C480 C481 1.370 . S
C480 C482 1.363 . S
C480 H496 0.931 . S
C481 C480 1.370 . S
C481 C485 1.408 . S
C482 C480 1.363 . S
C482 C483 1.370 . S
C482 C486 1.524 . S
C483 C475 1.503 . S
C483 C482 1.370 . S
C483 C484 1.403 . S
C484 C483 1.403 . S
C484 C485 1.404 . S
C484 C487 1.539 . S
C485 C481 1.408 . S
C485 C484 1.404 . S
C485 H497 0.930 . S
C486 C482 1.524 . S
C486 H498 0.956 . S
C486 H499 0.961 . S
C486 H500 0.961 . S
C487 C484 1.539 . S
C487 H501 0.958 . S
C487 H502 0.961 . S
C487 H503 0.960 . S
H488 C472 0.931 . S
H489 C477 0.929 . S
H490 C478 0.960 . S
H491 C478 0.962 . S
H492 C478 0.960 . S
H493 C479 0.961 . S
H494 C479 0.961 . S
H495 C479 0.961 . S
H496 C480 0.931 . S
H497 C485 0.930 . S
H498 C486 0.956 . S
H499 C486 0.961 . S
H500 C486 0.961 . S
H501 C487 0.958 . S
H502 C487 0.961 . S
H503 C487 0.960 . S
C504 C505 1.391 . S
C504 C506 1.394 . S
C504 H520 0.931 . S
C505 C504 1.391 . S
C505 C509 1.376 . S
C506 C504 1.394 . S
C506 C507 1.369 . S
C506 C510 1.531 . S
C507 C506 1.369 . S
C507 C508 1.410 . S
C507 C515 1.503 . S
C508 C507 1.410 . S
C508 C509 1.392 . S
C508 C511 1.511 . S
C509 C505 1.376 . S
C509 C508 1.392 . S
C509 H521 0.929 . S
C510 C506 1.531 . S
C510 H522 0.960 . S
C510 H523 0.962 . S
C510 H524 0.960 . S
C511 C508 1.511 . S
C511 H525 0.961 . S
C511 H526 0.961 . S
C511 H527 0.961 . S
C512 C513 1.370 . S
C512 C514 1.363 . S
C512 H528 0.931 . S
C513 C512 1.370 . S
C513 C517 1.408 . S
C514 C512 1.363 . S
C514 C515 1.370 . S
C514 C518 1.524 . S
C515 C507 1.503 . S
C515 C514 1.370 . S
C515 C516 1.403 . S
C516 C515 1.403 . S
C516 C517 1.404 . S
C516 C519 1.539 . S
C517 C513 1.408 . S
C517 C516 1.404 . S
C517 H529 0.930 . S
C518 C514 1.524 . S
C518 H530 0.956 . S
C518 H531 0.961 . S
C518 H532 0.961 . S
C519 C516 1.539 . S
C519 H533 0.958 . S
C519 H534 0.961 . S
C519 H535 0.960 . S
H520 C504 0.931 . S
H521 C509 0.929 . S
H522 C510 0.960 . S
H523 C510 0.962 . S
H524 C510 0.960 . S
H525 C511 0.961 . S
H526 C511 0.961 . S
H527 C511 0.961 . S
H528 C512 0.931 . S
H529 C517 0.930 . S
H530 C518 0.956 . S
H531 C518 0.961 . S
H532 C518 0.961 . S
H533 C519 0.958 . S
H534 C519 0.961 . S
H535 C519 0.960 . S
C536 C537 1.391 . S
C536 C538 1.394 . S
C536 H552 0.931 . S
C537 C536 1.391 . S
C537 C541 1.376 . S
C538 C536 1.394 . S
C538 C539 1.369 . S
C538 C542 1.531 . S
C539 C538 1.369 . S
C539 C540 1.410 . S
C539 C547 1.503 . S
C540 C539 1.410 . S
C540 C541 1.392 . S
C540 C543 1.511 . S
C541 C537 1.376 . S
C541 C540 1.392 . S
C541 H553 0.929 . S
C542 C538 1.531 . S
C542 H554 0.960 . S
C542 H555 0.962 . S
C542 H556 0.960 . S
C543 C540 1.511 . S
C543 H557 0.961 . S
C543 H558 0.961 . S
C543 H559 0.961 . S
C544 C545 1.370 . S
C544 C546 1.363 . S
C544 H560 0.931 . S
C545 C544 1.370 . S
C545 C549 1.408 1_545 S
C546 C544 1.363 . S
C546 C547 1.370 1_545 S
C546 C550 1.524 . S
C547 C539 1.503 . S
C547 C546 1.370 1_565 S
C547 C548 1.403 . S
C548 C547 1.403 . S
C548 C549 1.404 . S
C548 C551 1.539 . S
C549 C545 1.408 1_565 S
C549 C548 1.404 . S
C549 H561 0.930 . S
C550 C546 1.524 . S
C550 H562 0.956 . S
C550 H563 0.961 . S
C550 H564 0.961 . S
C551 C548 1.539 . S
C551 H565 0.958 . S
C551 H566 0.961 . S
C551 H567 0.960 . S
H552 C536 0.931 . S
H553 C541 0.929 . S
H554 C542 0.960 . S
H555 C542 0.962 . S
H556 C542 0.960 . S
H557 C543 0.961 . S
H558 C543 0.961 . S
H559 C543 0.961 . S
H560 C544 0.931 . S
H561 C549 0.930 . S
H562 C550 0.956 . S
H563 C550 0.961 . S
H564 C550 0.961 . S
H565 C551 0.958 . S
H566 C551 0.961 . S
H567 C551 0.960 . S
C568 C569 1.391 . S
C568 C570 1.394 . S
C568 H584 0.931 . S
C569 C568 1.391 . S
C569 C573 1.376 . S
C570 C568 1.394 . S
C570 C571 1.369 . S
C570 C574 1.531 . S
C571 C570 1.369 . S
C571 C572 1.410 . S
C571 C579 1.503 . S
C572 C571 1.410 . S
C572 C573 1.392 . S
C572 C575 1.511 . S
C573 C569 1.376 . S
C573 C572 1.392 . S
C573 H585 0.929 . S
C574 C570 1.531 . S
C574 H586 0.960 . S
C574 H587 0.962 . S
C574 H588 0.960 . S
C575 C572 1.511 . S
C575 H589 0.961 . S
C575 H590 0.961 1_545 S
C575 H591 0.961 . S
C576 C577 1.370 . S
C576 C578 1.363 1_565 S
C576 H592 0.931 . S
C577 C576 1.370 . S
C577 C581 1.408 . S
C578 C576 1.363 1_545 S
C578 C579 1.370 . S
C578 C582 1.524 . S
C579 C571 1.503 . S
C579 C578 1.370 . S
C579 C580 1.403 . S
C580 C579 1.403 . S
C580 C581 1.404 1_545 S
C580 C583 1.539 . S
C581 C577 1.408 . S
C581 C580 1.404 1_565 S
C581 H593 0.930 . S
C582 C578 1.524 . S
C582 H594 0.956 . S
C582 H595 0.961 . S
C582 H596 0.961 1_545 S
C583 C580 1.539 . S
C583 H597 0.958 . S
C583 H598 0.961 . S
C583 H599 0.960 . S
H584 C568 0.931 . S
H585 C573 0.929 . S
H586 C574 0.960 . S
H587 C574 0.962 . S
H588 C574 0.960 . S
H589 C575 0.961 . S
H590 C575 0.961 1_565 S
H591 C575 0.961 . S
H592 C576 0.931 . S
H593 C581 0.930 . S
H594 C582 0.956 . S
H595 C582 0.961 . S
H596 C582 0.961 1_565 S
H597 C583 0.958 . S
H598 C583 0.961 . S
H599 C583 0.960 . S
C600 C601 1.391 . S
C600 C602 1.394 . S
C600 H616 0.931 . S
C601 C600 1.391 . S
C601 C605 1.376 . S
C602 C600 1.394 . S
C602 C603 1.369 . S
C602 C606 1.531 . S
C603 C602 1.369 . S
C603 C604 1.410 . S
C603 C611 1.503 . S
C604 C603 1.410 . S
C604 C605 1.392 . S
C604 C607 1.511 . S
C605 C601 1.376 . S
C605 C604 1.392 . S
C605 H617 0.929 . S
C606 C602 1.531 . S
C606 H618 0.960 . S
C606 H619 0.962 . S
C606 H620 0.960 . S
C607 C604 1.511 . S
C607 H621 0.961 . S
C607 H622 0.961 . S
C607 H623 0.961 . S
C608 C609 1.370 . S
C608 C610 1.363 . S
C608 H624 0.931 . S
C609 C608 1.370 . S
C609 C613 1.408 . S
C610 C608 1.363 . S
C610 C611 1.370 . S
C610 C614 1.524 . S
C611 C603 1.503 . S
C611 C610 1.370 . S
C611 C612 1.403 . S
C612 C611 1.403 . S
C612 C613 1.404 . S
C612 C615 1.539 . S
C613 C609 1.408 . S
C613 C612 1.404 . S
C613 H625 0.930 . S
C614 C610 1.524 . S
C614 H626 0.956 . S
C614 H627 0.961 . S
C614 H628 0.961 . S
C615 C612 1.539 . S
C615 H629 0.958 . S
C615 H630 0.961 . S
C615 H631 0.960 . S
H616 C600 0.931 . S
H617 C605 0.929 . S
H618 C606 0.960 . S
H619 C606 0.962 . S
H620 C606 0.960 . S
H621 C607 0.961 . S
H622 C607 0.961 . S
H623 C607 0.961 . S
H624 C608 0.931 . S
H625 C613 0.930 . S
H626 C614 0.956 . S
H627 C614 0.961 . S
H628 C614 0.961 . S
H629 C615 0.958 . S
H630 C615 0.961 . S
H631 C615 0.960 . S
C632 C633 1.391 . S
C632 C634 1.394 . S
C632 H648 0.931 . S
C633 C632 1.391 . S
C633 C637 1.376 . S
C634 C632 1.394 . S
C634 C635 1.369 . S
C634 C638 1.531 . S
C635 C634 1.369 . S
C635 C636 1.410 . S
C635 C643 1.503 . S
C636 C635 1.410 . S
C636 C637 1.392 . S
C636 C639 1.511 . S
C637 C633 1.376 . S
C637 C636 1.392 . S
C637 H649 0.929 . S
C638 C634 1.531 . S
C638 H650 0.960 . S
C638 H651 0.962 . S
C638 H652 0.960 . S
C639 C636 1.511 . S
C639 H653 0.961 . S
C639 H654 0.961 . S
C639 H655 0.961 . S
C640 C641 1.370 . S
C640 C642 1.363 . S
C640 H656 0.931 . S
C641 C640 1.370 . S
C641 C645 1.408 . S
C642 C640 1.363 . S
C642 C643 1.370 . S
C642 C646 1.524 . S
C643 C635 1.503 . S
C643 C642 1.370 . S
C643 C644 1.403 . S
C644 C643 1.403 . S
C644 C645 1.404 . S
C644 C647 1.539 . S
C645 C641 1.408 . S
C645 C644 1.404 . S
C645 H657 0.930 . S
C646 C642 1.524 . S
C646 H658 0.956 . S
C646 H659 0.961 . S
C646 H660 0.961 . S
C647 C644 1.539 . S
C647 H661 0.958 . S
C647 H662 0.961 . S
C647 H663 0.960 . S
H648 C632 0.931 . S
H649 C637 0.929 . S
H650 C638 0.960 . S
H651 C638 0.962 . S
H652 C638 0.960 . S
H653 C639 0.961 . S
H654 C639 0.961 . S
H655 C639 0.961 . S
H656 C640 0.931 . S
H657 C645 0.930 . S
H658 C646 0.956 . S
H659 C646 0.961 . S
H660 C646 0.961 . S
H661 C647 0.958 . S
H662 C647 0.961 . S
H663 C647 0.960 . S
C664 C665 1.391 . S
C664 C666 1.394 . S
C664 H680 0.931 . S
C665 C664 1.391 . S
C665 C669 1.376 . S
C666 C664 1.394 . S
C666 C667 1.369 . S
C666 C670 1.531 . S
C667 C666 1.369 . S
C667 C668 1.410 . S
C667 C675 1.503 . S
C668 C667 1.410 . S
C668 C669 1.392 . S
C668 C671 1.511 . S
C669 C665 1.376 . S
C669 C668 1.392 . S
C669 H681 0.929 . S
C670 C666 1.531 . S
C670 H682 0.960 . S
C670 H683 0.962 . S
C670 H684 0.960 . S
C671 C668 1.511 . S
C671 H685 0.961 . S
C671 H686 0.961 1_545 S
C671 H687 0.961 . S
C672 C673 1.370 . S
C672 C674 1.363 . S
C672 H688 0.931 . S
C673 C672 1.370 . S
C673 C677 1.392 1_565 S
C674 C672 1.363 . S
C674 C675 1.370 1_565 S
C674 C678 1.524 . S
C675 C667 1.503 . S
C675 C674 1.370 1_545 S
C675 C676 1.403 . S
C676 C675 1.403 . S
C676 C677 1.420 . S
C676 C679 1.539 . S
C677 C673 1.392 1_545 S
C677 C676 1.420 . S
C677 H689 0.930 . S
C678 C674 1.524 . S
C678 H690 0.956 1_565 S
C678 H691 0.961 . S
C678 H692 0.961 . S
C679 C676 1.539 . S
C679 H693 0.958 . S
C679 H694 0.961 . S
C679 H695 0.960 . S
H680 C664 0.931 . S
H681 C669 0.929 . S
H682 C670 0.960 . S
H683 C670 0.962 . S
H684 C670 0.960 . S
H685 C671 0.961 . S
H686 C671 0.961 1_565 S
H687 C671 0.961 . S
H688 C672 0.931 . S
H689 C677 0.930 . S
H690 C678 0.956 1_545 S
H691 C678 0.961 . S
H692 C678 0.961 . S
H693 C679 0.958 . S
H694 C679 0.961 . S
H695 C679 0.960 . S
C696 C697 1.391 . S
C696 C698 1.394 . S
C696 H712 0.931 . S
C697 C696 1.391 . S
C697 C701 1.376 . S
C698 C696 1.394 . S
C698 C699 1.369 . S
C698 C702 1.531 . S
C699 C698 1.369 . S
C699 C700 1.410 . S
C699 C707 1.503 1_556 S
C700 C699 1.410 . S
C700 C701 1.392 . S
C700 C703 1.511 1_556 S
C701 C697 1.376 . S
C701 C700 1.392 . S
C701 H713 0.929 . S
C702 C698 1.531 . S
C702 H714 0.960 . S
C702 H715 0.962 . S
C702 H716 0.960 . S
C703 C700 1.511 1_554 S
C703 H717 0.961 . S
C703 H718 0.961 . S
C703 H719 0.961 . S
C704 C705 1.370 . S
C704 C706 1.363 . S
C704 H720 0.931 . S
C705 C704 1.370 . S
C705 C709 1.408 . S
C706 C704 1.363 . S
C706 C707 1.370 . S
C706 C710 1.524 . S
C707 C699 1.503 1_554 S
C707 C706 1.370 . S
C707 C708 1.403 . S
C708 C707 1.403 . S
C708 C709 1.404 . S
C708 C711 1.539 . S
C709 C705 1.408 . S
C709 C708 1.404 . S
C709 H721 0.930 . S
C710 C706 1.524 . S
C710 H722 0.956 1_554 S
C710 H723 0.961 . S
C710 H724 0.961 . S
C711 C708 1.539 . S
C711 H725 0.958 . S
C711 H726 0.961 . S
C711 H727 0.960 . S
H712 C696 0.931 . S
H713 C701 0.929 . S
H714 C702 0.960 . S
H715 C702 0.962 . S
H716 C702 0.960 . S
H717 C703 0.961 . S
H718 C703 0.961 . S
H719 C703 0.961 . S
H720 C704 0.931 . S
H721 C709 0.930 . S
H722 C710 0.956 1_556 S
H723 C710 0.961 . S
H724 C710 0.961 . S
H725 C711 0.958 . S
H726 C711 0.961 . S
H727 C711 0.960 . S
C728 C729 1.391 . S
C728 C730 1.394 . S
C728 H744 0.931 . S
C729 C728 1.391 . S
C729 C733 1.376 . S
C730 C728 1.394 . S
C730 C731 1.369 . S
C730 C734 1.531 . S
C731 C730 1.369 . S
C731 C732 1.410 . S
C731 C739 1.503 . S
C732 C731 1.410 . S
C732 C733 1.392 . S
C732 C735 1.511 . S
C733 C729 1.376 . S
C733 C732 1.392 . S
C733 H745 0.929 . S
C734 C730 1.531 . S
C734 H746 0.960 . S
C734 H747 0.962 . S
C734 H748 0.960 . S
C735 C732 1.511 . S
C735 H749 0.961 . S
C735 H750 0.961 . S
C735 H751 0.961 . S
C736 C737 1.370 . S
C736 C738 1.363 . S
C736 H752 0.931 . S
C737 C736 1.370 . S
C737 C741 1.408 . S
C738 C736 1.363 . S
C738 C739 1.370 . S
C738 C742 1.524 . S
C739 C731 1.503 . S
C739 C738 1.370 . S
C739 C740 1.403 . S
C740 C739 1.403 . S
C740 C741 1.404 . S
C740 C743 1.539 . S
C741 C737 1.408 . S
C741 C740 1.404 . S
C741 H753 0.930 . S
C742 C738 1.524 . S
C742 H754 0.956 . S
C742 H755 0.961 . S
C742 H756 0.961 . S
C743 C740 1.539 . S
C743 H757 0.958 . S
C743 H758 0.961 . S
C743 H759 0.960 . S
H744 C728 0.931 . S
H745 C733 0.929 . S
H746 C734 0.960 . S
H747 C734 0.962 . S
H748 C734 0.960 . S
H749 C735 0.961 . S
H750 C735 0.961 . S
H751 C735 0.961 . S
H752 C736 0.931 . S
H753 C741 0.930 . S
H754 C742 0.956 . S
H755 C742 0.961 . S
H756 C742 0.961 . S
H757 C743 0.958 . S
H758 C743 0.961 . S
H759 C743 0.960 . S
C760 C761 1.391 . S
C760 C762 1.394 . S
C760 H776 0.931 . S
C761 C760 1.391 . S
C761 C765 1.376 . S
C762 C760 1.394 . S
C762 C763 1.369 . S
C762 C766 1.531 . S
C763 C762 1.369 . S
C763 C764 1.410 . S
C763 C771 1.503 1_554 S
C764 C763 1.410 . S
C764 C765 1.392 . S
C764 C767 1.511 1_554 S
C765 C761 1.376 . S
C765 C764 1.392 . S
C765 H777 0.929 . S
C766 C762 1.531 . S
C766 H778 0.960 1_554 S
C766 H779 0.962 . S
C766 H780 0.960 . S
C767 C764 1.511 1_556 S
C767 H781 0.961 1_556 S
C767 H782 0.961 . S
C767 H783 0.961 . S
C768 C769 1.370 . S
C768 C770 1.363 . S
C768 H784 0.931 . S
C769 C768 1.370 . S
C769 C773 1.408 . S
C770 C768 1.363 . S
C770 C771 1.370 . S
C770 C774 1.524 1_556 S
C771 C763 1.503 1_556 S
C771 C770 1.370 . S
C771 C772 1.403 . S
C772 C771 1.403 . S
C772 C773 1.404 . S
C772 C775 1.539 . S
C773 C769 1.408 . S
C773 C772 1.404 . S
C773 H785 0.930 . S
C774 C770 1.524 1_554 S
C774 H786 0.956 . S
C774 H787 0.961 . S
C774 H788 0.965 . S
C775 C772 1.539 . S
C775 H789 0.958 . S
C775 H790 0.961 . S
C775 H791 0.960 . S
H776 C760 0.931 . S
H777 C765 0.929 . S
H778 C766 0.960 1_556 S
H779 C766 0.962 . S
H780 C766 0.960 . S
H781 C767 0.961 1_554 S
H782 C767 0.961 . S
H783 C767 0.961 . S
H784 C768 0.931 . S
H785 C773 0.930 . S
H786 C774 0.956 . S
H787 C774 0.961 . S
H788 C774 0.965 . S
H789 C775 0.958 . S
H790 C775 0.961 . S
H791 C775 0.960 . S
C792 C793 1.391 . S
C792 C794 1.394 . S
C792 H808 0.931 . S
C793 C792 1.391 . S
C793 C797 1.376 . S
C794 C792 1.394 . S
C794 C795 1.369 . S
C794 C798 1.531 . S
C795 C794 1.369 . S
C795 C796 1.410 . S
C795 C803 1.503 . S
C796 C795 1.410 . S
C796 C797 1.392 . S
C796 C799 1.511 . S
C797 C793 1.376 . S
C797 C796 1.392 . S
C797 H809 0.929 . S
C798 C794 1.531 . S
C798 H810 0.960 . S
C798 H811 0.962 . S
C798 H812 0.960 . S
C799 C796 1.511 . S
C799 H813 0.961 . S
C799 H814 0.961 . S
C799 H815 0.961 . S
C800 C801 1.370 . S
C800 C802 1.363 . S
C800 H816 0.931 . S
C801 C800 1.370 . S
C801 C805 1.408 . S
C802 C800 1.363 . S
C802 C803 1.370 . S
C802 C806 1.524 . S
C803 C795 1.503 . S
C803 C802 1.370 . S
C803 C804 1.403 . S
C804 C803 1.403 . S
C804 C805 1.404 . S
C804 C807 1.539 . S
C805 C801 1.408 . S
C805 C804 1.404 . S
C805 H817 0.930 . S
C806 C802 1.524 . S
C806 H818 0.956 . S
C806 H819 0.961 . S
C806 H820 0.961 . S
C807 C804 1.539 . S
C807 H821 0.958 . S
C807 H822 0.961 . S
C807 H823 0.960 . S
H808 C792 0.931 . S
H809 C797 0.929 . S
H810 C798 0.960 . S
H811 C798 0.962 . S
H812 C798 0.960 . S
H813 C799 0.961 . S
H814 C799 0.961 . S
H815 C799 0.961 . S
H816 C800 0.931 . S
H817 C805 0.930 . S
H818 C806 0.956 . S
H819 C806 0.961 . S
H820 C806 0.961 . S
H821 C807 0.958 . S
H822 C807 0.961 . S
H823 C807 0.960 . S
C824 C825 1.391 . S
C824 C826 1.394 . S
C824 H840 0.931 . S
C825 C824 1.391 . S
C825 C829 1.376 . S
C826 C824 1.394 . S
C826 C827 1.369 . S
C826 C830 1.533 . S
C827 C826 1.369 . S
C827 C828 1.410 . S
C827 C835 1.503 1_554 S
C828 C827 1.410 . S
C828 C829 1.392 . S
C828 C831 1.511 . S
C829 C825 1.376 . S
C829 C828 1.392 . S
C829 H841 0.929 . S
C830 C826 1.533 . S
C830 H842 0.955 1_554 S
C830 H843 0.963 . S
C830 H844 0.962 . S
C831 C828 1.511 . S
C831 H845 0.961 . S
C831 H846 0.961 1_554 S
C831 H847 0.961 1_554 S
C832 C833 1.370 . S
C832 C834 1.363 . S
C832 H848 0.931 . S
C833 C832 1.370 . S
C833 C837 1.408 . S
C834 C832 1.363 . S
C834 C835 1.370 . S
C834 C838 1.524 1_556 S
C835 C827 1.503 1_556 S
C835 C834 1.370 . S
C835 C836 1.403 . S
C836 C835 1.403 . S
C836 C837 1.404 . S
C836 C839 1.539 . S
C837 C833 1.408 . S
C837 C836 1.404 . S
C837 H849 0.930 . S
C838 C834 1.524 1_554 S
C838 H850 0.956 . S
C838 H851 0.961 . S
C838 H852 0.961 . S
C839 C836 1.539 . S
C839 H853 0.958 . S
C839 H854 0.961 . S
C839 H855 0.960 . S
H840 C824 0.931 . S
H841 C829 0.929 . S
H842 C830 0.955 1_556 S
H843 C830 0.963 . S
H844 C830 0.962 . S
H845 C831 0.961 . S
H846 C831 0.961 1_556 S
H847 C831 0.961 1_556 S
H848 C832 0.931 . S
H849 C837 0.930 . S
H850 C838 0.956 . S
H851 C838 0.961 . S
H852 C838 0.961 . S
H853 C839 0.958 . S
H854 C839 0.961 . S
H855 C839 0.960 . S
C856 C857 1.391 . S
C856 C858 1.394 . S
C856 H872 0.931 . S
C857 C856 1.391 . S
C857 C861 1.376 . S
C858 C856 1.394 . S
C858 C859 1.369 . S
C858 C862 1.531 . S
C859 C858 1.369 . S
C859 C860 1.410 . S
C859 C867 1.503 . S
C860 C859 1.410 . S
C860 C861 1.392 . S
C860 C863 1.511 . S
C861 C857 1.376 . S
C861 C860 1.392 . S
C861 H873 0.929 . S
C862 C858 1.531 . S
C862 H874 0.960 . S
C862 H875 0.962 . S
C862 H876 0.960 . S
C863 C860 1.511 . S
C863 H877 0.961 . S
C863 H878 0.961 . S
C863 H879 0.961 . S
C864 C865 1.370 . S
C864 C866 1.363 . S
C864 H880 0.931 . S
C865 C864 1.370 . S
C865 C869 1.408 . S
C866 C864 1.363 . S
C866 C867 1.370 . S
C866 C870 1.524 . S
C867 C859 1.503 . S
C867 C866 1.370 . S
C867 C868 1.403 . S
C868 C867 1.403 . S
C868 C869 1.404 . S
C868 C871 1.539 . S
C869 C865 1.408 . S
C869 C868 1.404 . S
C869 H881 0.930 . S
C870 C866 1.524 . S
C870 H882 0.956 . S
C870 H883 0.961 . S
C870 H884 0.961 . S
C871 C868 1.539 . S
C871 H885 0.958 . S
C871 H886 0.961 . S
C871 H887 0.960 . S
H872 C856 0.931 . S
H873 C861 0.929 . S
H874 C862 0.960 . S
H875 C862 0.962 . S
H876 C862 0.960 . S
H877 C863 0.961 . S
H878 C863 0.961 . S
H879 C863 0.961 . S
H880 C864 0.931 . S
H881 C869 0.930 . S
H882 C870 0.956 . S
H883 C870 0.961 . S
H884 C870 0.961 . S
H885 C871 0.958 . S
H886 C871 0.961 . S
H887 C871 0.960 . S
C888 C889 1.391 . S
C888 C890 1.394 . S
C888 H904 0.931 . S
C889 C888 1.391 . S
C889 C893 1.376 . S
C890 C888 1.394 . S
C890 C891 1.369 . S
C890 C894 1.531 1_556 S
C891 C890 1.369 . S
C891 C892 1.410 . S
C891 C899 1.503 1_556 S
C892 C891 1.410 . S
C892 C893 1.392 . S
C892 C895 1.511 . S
C893 C889 1.376 . S
C893 C892 1.392 . S
C893 H905 0.929 . S
C894 C890 1.531 1_554 S
C894 H906 0.960 . S
C894 H907 0.962 . S
C894 H908 0.960 . S
C895 C892 1.511 . S
C895 H909 0.961 . S
C895 H910 0.961 . S
C895 H911 0.961 . S
C896 C897 1.370 . S
C896 C898 1.363 . S
C896 H912 0.931 . S
C897 C896 1.370 . S
C897 C901 1.408 . S
C898 C896 1.363 . S
C898 C899 1.370 . S
C898 C902 1.524 . S
C899 C891 1.503 1_554 S
C899 C898 1.370 . S
C899 C900 1.403 . S
C900 C899 1.403 . S
C900 C901 1.404 . S
C900 C903 1.539 . S
C901 C897 1.408 . S
C901 C900 1.404 . S
C901 H913 0.930 . S
C902 C898 1.524 . S
C902 H914 0.956 . S
C902 H915 0.961 1_554 S
C902 H916 0.961 . S
C903 C900 1.539 . S
C903 H917 0.958 . S
C903 H918 0.961 . S
C903 H919 0.960 . S
H904 C888 0.931 . S
H905 C893 0.929 . S
H906 C894 0.960 . S
H907 C894 0.962 . S
H908 C894 0.960 . S
H909 C895 0.961 . S
H910 C895 0.961 . S
H911 C895 0.961 . S
H912 C896 0.931 . S
H913 C901 0.930 . S
H914 C902 0.956 . S
H915 C902 0.961 1_556 S
H916 C902 0.961 . S
H917 C903 0.958 . S
H918 C903 0.961 . S
H919 C903 0.960 . S
C920 C921 1.391 . S
C920 C922 1.394 . S
C920 H936 0.931 . S
C921 C920 1.391 . S
C921 C925 1.376 . S
C922 C920 1.394 . S
C922 C923 1.369 . S
C922 C926 1.531 . S
C923 C922 1.369 . S
C923 C924 1.410 . S
C923 C931 1.503 . S
C924 C923 1.410 . S
C924 C925 1.392 . S
C924 C927 1.511 . S
C925 C921 1.376 . S
C925 C924 1.392 . S
C925 H937 0.929 . S
C926 C922 1.531 . S
C926 H938 0.960 . S
C926 H939 0.962 . S
C926 H940 0.960 . S
C927 C924 1.511 . S
C927 H941 0.961 . S
C927 H942 0.961 . S
C927 H943 0.961 . S
C928 C929 1.370 . S
C928 C930 1.363 . S
C928 H944 0.931 . S
C929 C928 1.370 . S
C929 C933 1.408 . S
C930 C928 1.363 . S
C930 C931 1.370 . S
C930 C934 1.524 . S
C931 C923 1.503 . S
C931 C930 1.370 . S
C931 C932 1.403 . S
C932 C931 1.403 . S
C932 C933 1.404 . S
C932 C935 1.539 . S
C933 C929 1.408 . S
C933 C932 1.404 . S
C933 H945 0.930 . S
C934 C930 1.524 . S
C934 H946 0.956 . S
C934 H947 0.961 . S
C934 H948 0.961 . S
C935 C932 1.539 . S
C935 H949 0.958 . S
C935 H950 0.961 . S
C935 H951 0.960 . S
H936 C920 0.931 . S
H937 C925 0.929 . S
H938 C926 0.960 . S
H939 C926 0.962 . S
H940 C926 0.960 . S
H941 C927 0.961 . S
H942 C927 0.961 . S
H943 C927 0.961 . S
H944 C928 0.931 . S
H945 C933 0.930 . S
H946 C934 0.956 . S
H947 C934 0.961 . S
H948 C934 0.961 . S
H949 C935 0.958 . S
H950 C935 0.961 . S
H951 C935 0.960 . S
C952 C953 1.391 . S
C952 C954 1.394 . S
C952 H968 0.931 . S
C953 C952 1.391 . S
C953 C957 1.376 . S
C954 C952 1.394 . S
C954 C955 1.369 . S
C954 C958 1.531 . S
C955 C954 1.369 . S
C955 C956 1.410 . S
C955 C963 1.503 . S
C956 C955 1.410 . S
C956 C957 1.392 . S
C956 C959 1.511 . S
C957 C953 1.376 . S
C957 C956 1.392 . S
C957 H969 0.929 . S
C958 C954 1.531 . S
C958 H970 0.960 . S
C958 H971 0.962 . S
C958 H972 0.960 . S
C959 C956 1.511 . S
C959 H973 0.961 . S
C959 H974 0.961 . S
C959 H975 0.961 . S
C960 C961 1.370 . S
C960 C962 1.363 . S
C960 H976 0.931 . S
C961 C960 1.370 . S
C961 C965 1.408 . S
C962 C960 1.363 . S
C962 C963 1.370 . S
C962 C966 1.524 . S
C963 C955 1.503 . S
C963 C962 1.370 . S
C963 C964 1.403 . S
C964 C963 1.403 . S
C964 C965 1.404 . S
C964 C967 1.539 . S
C965 C961 1.408 . S
C965 C964 1.404 . S
C965 H977 0.930 . S
C966 C962 1.524 . S
C966 H978 0.956 . S
C966 H979 0.961 . S
C966 H980 0.961 . S
C967 C964 1.539 . S
C967 H981 0.958 . S
C967 H982 0.961 . S
C967 H983 0.960 . S
H968 C952 0.931 . S
H969 C957 0.929 . S
H970 C958 0.960 . S
H971 C958 0.962 . S
H972 C958 0.960 . S
H973 C959 0.961 . S
H974 C959 0.961 . S
H975 C959 0.961 . S
H976 C960 0.931 . S
H977 C965 0.930 . S
H978 C966 0.956 . S
H979 C966 0.961 . S
H980 C966 0.961 . S
H981 C967 0.958 . S
H982 C967 0.961 . S
H983 C967 0.960 . S
C984 C985 1.391 . S
C984 C986 1.394 . S
C984 H1000 0.931 . S
C985 C984 1.391 . S
C985 C989 1.376 . S
C986 C984 1.394 . S
C986 C987 1.369 . S
C986 C990 1.531 . S
C987 C986 1.369 . S
C987 C988 1.410 . S
C987 C995 1.503 . S
C988 C987 1.410 . S
C988 C989 1.392 . S
C988 C991 1.511 . S
C989 C985 1.376 . S
C989 C988 1.392 . S
C989 H1001 0.929 . S
C990 C986 1.531 . S
C990 H1002 0.960 . S
C990 H1003 0.962 . S
C990 H1004 0.960 . S
C991 C988 1.511 . S
C991 H1005 0.961 . S
C991 H1006 0.961 . S
C991 H1007 0.961 . S
C992 C993 1.370 . S
C992 C994 1.363 . S
C992 H1008 0.931 . S
C993 C992 1.370 . S
C993 C997 1.408 . S
C994 C992 1.363 . S
C994 C995 1.370 . S
C994 C998 1.524 . S
C995 C987 1.503 . S
C995 C994 1.370 . S
C995 C996 1.403 . S
C996 C995 1.403 . S
C996 C997 1.404 . S
C996 C999 1.539 . S
C997 C993 1.408 . S
C997 C996 1.404 . S
C997 H1009 0.930 . S
C998 C994 1.524 . S
C998 H1010 0.956 . S
C998 H1011 0.961 . S
C998 H1012 0.961 . S
C999 C996 1.539 . S
C999 H1013 0.958 . S
C999 H1014 0.961 . S
C999 H1015 0.960 . S
H1000 C984 0.931 . S
H1001 C989 0.929 . S
H1002 C990 0.960 . S
H1003 C990 0.962 . S
H1004 C990 0.960 . S
H1005 C991 0.961 . S
H1006 C991 0.961 . S
H1007 C991 0.961 . S
H1008 C992 0.931 . S
H1009 C997 0.930 . S
H1010 C998 0.956 . S
H1011 C998 0.961 . S
H1012 C998 0.961 . S
H1013 C999 0.958 . S
H1014 C999 0.961 . S
H1015 C999 0.960 . S
C1016 C1017 1.391 . S
C1016 C1018 1.394 . S
C1016 H1032 0.931 . S
C1017 C1016 1.391 . S
C1017 C1021 1.376 . S
C1018 C1016 1.394 . S
C1018 C1019 1.369 . S
C1018 C1022 1.531 . S
C1019 C1018 1.369 . S
C1019 C1020 1.410 . S
C1019 C1027 1.503 . S
C1020 C1019 1.410 . S
C1020 C1021 1.392 . S
C1020 C1023 1.511 . S
C1021 C1017 1.376 . S
C1021 C1020 1.392 . S
C1021 H1033 0.929 . S
C1022 C1018 1.531 . S
C1022 H1034 0.960 . S
C1022 H1035 0.962 . S
C1022 H1036 0.960 . S
C1023 C1020 1.511 . S
C1023 H1037 0.961 . S
C1023 H1038 0.961 . S
C1023 H1039 0.961 . S
C1024 C1025 1.370 . S
C1024 C1026 1.363 . S
C1024 H1040 0.931 . S
C1025 C1024 1.370 . S
C1025 C1029 1.408 . S
C1026 C1024 1.363 . S
C1026 C1027 1.370 . S
C1026 C1030 1.524 . S
C1027 C1019 1.503 . S
C1027 C1026 1.370 . S
C1027 C1028 1.403 . S
C1028 C1027 1.403 . S
C1028 C1029 1.404 . S
C1028 C1031 1.539 . S
C1029 C1025 1.408 . S
C1029 C1028 1.404 . S
C1029 H1041 0.930 . S
C1030 C1026 1.524 . S
C1030 H1042 0.956 . S
C1030 H1043 0.961 . S
C1030 H1044 0.961 . S
C1031 C1028 1.539 . S
C1031 H1045 0.958 . S
C1031 H1046 0.961 . S
C1031 H1047 0.960 . S
H1032 C1016 0.931 . S
H1033 C1021 0.929 . S
H1034 C1022 0.960 . S
H1035 C1022 0.962 . S
H1036 C1022 0.960 . S
H1037 C1023 0.961 . S
H1038 C1023 0.961 . S
H1039 C1023 0.961 . S
H1040 C1024 0.931 . S
H1041 C1029 0.930 . S
H1042 C1030 0.956 . S
H1043 C1030 0.961 . S
H1044 C1030 0.961 . S
H1045 C1031 0.958 . S
H1046 C1031 0.961 . S
H1047 C1031 0.960 . S
C1048 C1049 1.391 . S
C1048 C1050 1.394 . S
C1048 H1064 0.931 . S
C1049 C1048 1.391 . S
C1049 C1053 1.376 . S
C1050 C1048 1.394 . S
C1050 C1051 1.369 . S
C1050 C1054 1.531 . S
C1051 C1050 1.369 . S
C1051 C1052 1.410 . S
C1051 C1059 1.503 . S
C1052 C1051 1.410 . S
C1052 C1053 1.392 . S
C1052 C1055 1.511 . S
C1053 C1049 1.376 . S
C1053 C1052 1.392 . S
C1053 H1065 0.929 . S
C1054 C1050 1.531 . S
C1054 H1066 0.960 . S
C1054 H1067 0.962 . S
C1054 H1068 0.960 . S
C1055 C1052 1.511 . S
C1055 H1069 0.961 . S
C1055 H1070 0.961 . S
C1055 H1071 0.961 . S
C1056 C1057 1.370 . S
C1056 C1058 1.363 . S
C1056 H1072 0.931 . S
C1057 C1056 1.370 . S
C1057 C1061 1.408 . S
C1058 C1056 1.363 . S
C1058 C1059 1.370 . S
C1058 C1062 1.524 . S
C1059 C1051 1.503 . S
C1059 C1058 1.370 . S
C1059 C1060 1.403 . S
C1060 C1059 1.403 . S
C1060 C1061 1.404 . S
C1060 C1063 1.539 . S
C1061 C1057 1.408 . S
C1061 C1060 1.404 . S
C1061 H1073 0.917 1_655 S
C1062 C1058 1.524 . S
C1062 H1074 0.956 . S
C1062 H1075 0.961 . S
C1062 H1076 0.961 . S
C1063 C1060 1.539 . S
C1063 H1077 0.958 . S
C1063 H1078 0.961 1_655 S
C1063 H1079 0.960 . S
H1064 C1048 0.931 . S
H1065 C1053 0.929 . S
H1066 C1054 0.960 . S
H1067 C1054 0.962 . S
H1068 C1054 0.960 . S
H1069 C1055 0.961 . S
H1070 C1055 0.961 . S
H1071 C1055 0.961 . S
H1072 C1056 0.931 . S
H1073 C1061 0.917 1_455 S
H1074 C1062 0.956 . S
H1075 C1062 0.961 . S
H1076 C1062 0.961 . S
H1077 C1063 0.958 . S
H1078 C1063 0.961 1_455 S
H1079 C1063 0.960 . S
C1080 C1081 1.391 . S
C1080 C1082 1.394 . S
C1080 H1096 0.931 . S
C1081 C1080 1.391 . S
C1081 C1085 1.376 . S
C1082 C1080 1.394 . S
C1082 C1083 1.369 . S
C1082 C1086 1.531 . S
C1083 C1082 1.369 . S
C1083 C1084 1.410 . S
C1083 C1091 1.503 . S
C1084 C1083 1.410 . S
C1084 C1085 1.392 . S
C1084 C1087 1.511 . S
C1085 C1081 1.376 . S
C1085 C1084 1.392 . S
C1085 H1097 0.929 . S
C1086 C1082 1.531 . S
C1086 H1098 0.960 . S
C1086 H1099 0.962 . S
C1086 H1100 0.960 . S
C1087 C1084 1.511 . S
C1087 H1101 0.961 . S
C1087 H1102 0.961 . S
C1087 H1103 0.961 . S
C1088 C1089 1.370 . S
C1088 C1090 1.363 . S
C1088 H1104 0.931 . S
C1089 C1088 1.370 . S
C1089 C1093 1.408 . S
C1090 C1088 1.363 . S
C1090 C1091 1.370 . S
C1090 C1094 1.524 . S
C1091 C1083 1.503 . S
C1091 C1090 1.370 . S
C1091 C1092 1.403 . S
C1092 C1091 1.403 . S
C1092 C1093 1.404 . S
C1092 C1095 1.539 . S
C1093 C1089 1.408 . S
C1093 C1092 1.404 . S
C1093 H1105 0.930 . S
C1094 C1090 1.524 . S
C1094 H1106 0.956 . S
C1094 H1107 0.961 . S
C1094 H1108 0.961 . S
C1095 C1092 1.539 . S
C1095 H1109 0.958 . S
C1095 H1110 0.961 . S
C1095 H1111 0.960 . S
H1096 C1080 0.931 . S
H1097 C1085 0.929 . S
H1098 C1086 0.960 . S
H1099 C1086 0.962 . S
H1100 C1086 0.960 . S
H1101 C1087 0.961 . S
H1102 C1087 0.961 . S
H1103 C1087 0.961 . S
H1104 C1088 0.931 . S
H1105 C1093 0.930 . S
H1106 C1094 0.956 . S
H1107 C1094 0.961 . S
H1108 C1094 0.961 . S
H1109 C1095 0.958 . S
H1110 C1095 0.961 . S
H1111 C1095 0.960 . S
C1112 C1113 1.391 . S
C1112 C1114 1.394 . S
C1112 H1128 0.931 . S
C1113 C1112 1.391 . S
C1113 C1117 1.376 . S
C1114 C1112 1.394 . S
C1114 C1115 1.369 . S
C1114 C1118 1.531 . S
C1115 C1114 1.369 . S
C1115 C1116 1.410 . S
C1115 C1123 1.503 . S
C1116 C1115 1.410 . S
C1116 C1117 1.392 . S
C1116 C1119 1.511 . S
C1117 C1113 1.376 . S
C1117 C1116 1.392 . S
C1117 H1129 0.929 . S
C1118 C1114 1.531 . S
C1118 H1130 0.960 . S
C1118 H1131 0.962 . S
C1118 H1132 0.960 . S
C1119 C1116 1.511 . S
C1119 H1133 0.961 . S
C1119 H1134 0.961 . S
C1119 H1135 0.961 . S
C1120 C1121 1.370 . S
C1120 C1122 1.363 . S
C1120 H1136 0.931 . S
C1121 C1120 1.370 . S
C1121 C1125 1.408 . S
C1122 C1120 1.363 . S
C1122 C1123 1.370 . S
C1122 C1126 1.524 . S
C1123 C1115 1.503 . S
C1123 C1122 1.370 . S
C1123 C1124 1.403 . S
C1124 C1123 1.403 . S
C1124 C1125 1.404 . S
C1124 C1127 1.539 . S
C1125 C1121 1.408 . S
C1125 C1124 1.404 . S
C1125 H1137 0.930 . S
C1126 C1122 1.524 . S
C1126 H1138 0.956 . S
C1126 H1139 0.961 . S
C1126 H1140 0.961 . S
C1127 C1124 1.539 . S
C1127 H1141 0.958 . S
C1127 H1142 0.961 . S
C1127 H1143 0.960 . S
H1128 C1112 0.931 . S
H1129 C1117 0.929 . S
H1130 C1118 0.960 . S
H1131 C1118 0.962 . S
H1132 C1118 0.960 . S
H1133 C1119 0.961 . S
H1134 C1119 0.961 . S
H1135 C1119 0.961 . S
H1136 C1120 0.931 . S
H1137 C1125 0.930 . S
H1138 C1126 0.956 . S
H1139 C1126 0.961 . S
H1140 C1126 0.961 . S
H1141 C1127 0.958 . S
H1142 C1127 0.961 . S
H1143 C1127 0.960 . S
C1144 C1145 1.391 . S
C1144 C1146 1.394 . S
C1144 H1160 0.931 . S
C1145 C1144 1.391 . S
C1145 C1149 1.376 . S
C1146 C1144 1.394 . S
C1146 C1147 1.369 . S
C1146 C1150 1.531 . S
C1147 C1146 1.369 . S
C1147 C1148 1.410 . S
C1147 C1155 1.503 . S
C1148 C1147 1.410 . S
C1148 C1149 1.392 . S
C1148 C1151 1.511 . S
C1149 C1145 1.376 . S
C1149 C1148 1.392 . S
C1149 H1161 0.929 . S
C1150 C1146 1.531 . S
C1150 H1162 0.960 . S
C1150 H1163 0.962 . S
C1150 H1164 0.960 . S
C1151 C1148 1.511 . S
C1151 H1165 0.961 . S
C1151 H1166 0.961 . S
C1151 H1167 0.961 . S
C1152 C1153 1.370 . S
C1152 C1154 1.363 . S
C1152 H1168 0.931 . S
C1153 C1152 1.370 . S
C1153 C1157 1.408 . S
C1154 C1152 1.363 . S
C1154 C1155 1.370 . S
C1154 C1158 1.524 . S
C1155 C1147 1.503 . S
C1155 C1154 1.370 . S
C1155 C1156 1.403 . S
C1156 C1155 1.403 . S
C1156 C1157 1.404 . S
C1156 C1159 1.539 . S
C1157 C1153 1.408 . S
C1157 C1156 1.404 . S
C1157 H1169 0.930 . S
C1158 C1154 1.524 . S
C1158 H1170 0.956 . S
C1158 H1171 0.961 . S
C1158 H1172 0.961 . S
C1159 C1156 1.539 . S
C1159 H1173 0.958 . S
C1159 H1174 0.961 . S
C1159 H1175 0.960 . S
H1160 C1144 0.931 . S
H1161 C1149 0.929 . S
H1162 C1150 0.960 . S
H1163 C1150 0.962 . S
H1164 C1150 0.960 . S
H1165 C1151 0.961 . S
H1166 C1151 0.961 . S
H1167 C1151 0.961 . S
H1168 C1152 0.931 . S
H1169 C1157 0.930 . S
H1170 C1158 0.956 . S
H1171 C1158 0.961 . S
H1172 C1158 0.961 . S
H1173 C1159 0.958 . S
H1174 C1159 0.961 . S
H1175 C1159 0.960 . S
C1176 C1177 1.391 . S
C1176 C1178 1.394 . S
C1176 H1192 0.931 . S
C1177 C1176 1.391 . S
C1177 C1181 1.376 . S
C1178 C1176 1.394 . S
C1178 C1179 1.369 . S
C1178 C1182 1.531 . S
C1179 C1178 1.369 . S
C1179 C1180 1.410 . S
C1179 C1187 1.503 . S
C1180 C1179 1.410 . S
C1180 C1181 1.392 . S
C1180 C1183 1.511 . S
C1181 C1177 1.376 . S
C1181 C1180 1.392 . S
C1181 H1193 0.929 . S
C1182 C1178 1.531 . S
C1182 H1194 0.960 . S
C1182 H1195 0.962 . S
C1182 H1196 0.960 . S
C1183 C1180 1.511 . S
C1183 H1197 0.961 . S
C1183 H1198 0.961 . S
C1183 H1199 0.961 . S
C1184 C1185 1.370 . S
C1184 C1186 1.363 . S
C1184 H1200 0.931 . S
C1185 C1184 1.370 . S
C1185 C1189 1.408 . S
C1186 C1184 1.363 . S
C1186 C1187 1.370 . S
C1186 C1190 1.524 . S
C1187 C1179 1.503 . S
C1187 C1186 1.370 . S
C1187 C1188 1.403 . S
C1188 C1187 1.403 . S
C1188 C1189 1.404 . S
C1188 C1191 1.539 . S
C1189 C1185 1.408 . S
C1189 C1188 1.404 . S
C1189 H1201 0.930 . S
C1190 C1186 1.524 . S
C1190 H1202 0.956 . S
C1190 H1203 0.961 . S
C1190 H1204 0.961 . S
C1191 C1188 1.539 . S
C1191 H1205 0.958 . S
C1191 H1206 0.961 . S
C1191 H1207 0.960 . S
H1192 C1176 0.931 . S
H1193 C1181 0.929 . S
H1194 C1182 0.960 . S
H1195 C1182 0.962 . S
H1196 C1182 0.960 . S
H1197 C1183 0.961 . S
H1198 C1183 0.961 . S
H1199 C1183 0.961 . S
H1200 C1184 0.931 . S
H1201 C1189 0.930 . S
H1202 C1190 0.956 . S
H1203 C1190 0.961 . S
H1204 C1190 0.961 . S
H1205 C1191 0.958 . S
H1206 C1191 0.961 . S
H1207 C1191 0.960 . S
C441 N83 1.644 . S
C449 C178 1.638 . S
C481 C262 1.646 . S
C473 N96 1.654 . S
C513 C255 1.656 . S
C505 N57 1.620 . S
C537 N70 1.610 . S
C545 C171 1.657 . S
C577 C335 1.630 . S
C569 N31 1.621 . S
C609 C419 1.631 . S
C601 N44 1.622 . S
C633 N5 1.648 . S
C641 C412 1.650 . S
C665 N18 1.611 . S
C673 C328 1.654 . S
C705 C162 1.433 . S
C697 N14 1.616 . S
C737 C246 1.433 . S
C729 N1 1.615 . S
C769 C257 1.370 . S
C761 N40 1.607 . S
C801 C173 1.378 . S
C793 N27 1.605 . S
C833 C341 1.434 . S
C825 N66 1.606 . S
C857 N53 1.595 . S
C865 C425 1.447 . S
C897 C414 1.399 . S
C889 N92 1.618 . S
C921 N79 1.613 . S
C929 C330 1.413 . S
C961 C160 1.547 . S
C953 N2 1.542 . S
C993 C244 1.545 . S
C985 N15 1.535 . S
C1017 N28 1.539 . S
C1025 C251 1.522 . S
C1057 C167 1.514 . S
C1049 N41 1.540 . S
C1089 C339 1.544 . S
C1081 N54 1.545 . S
C1113 N67 1.546 . S
C1121 C423 1.546 . S
C1145 N80 1.532 . S
C1153 C430 1.520 . S
C1177 N93 1.538 . S
C1185 C346 1.523 . S
