# Generated by pormake.
# Topology dag, (6,3)-cn, num edge types: 1
# Building blocks:
#     Node 0, Type 0, BuildingBlock: IZENUY_clean_sbu_0, # of connection points: 6
#     Node 1, Type 0, BuildingBlock: IZENUY_clean_sbu_0, # of connection points: 6
#     Node 2, Type 0, BuildingBlock: IZENUY_clean_sbu_0, # of connection points: 6
#     Node 3, Type 0, BuildingBlock: IZENUY_clean_sbu_0, # of connection points: 6
#     Node 4, Type 1, BuildingBlock: BELTOD_clean_linker_0, # of connection points: 3
#     Node 5, Type 1, BuildingBlock: BELTOD_clean_linker_0, # of connection points: 3
#     Node 6, Type 1, BuildingBlock: BELTOD_clean_linker_0, # of connection points: 3
#     Node 7, Type 1, BuildingBlock: BELTOD_clean_linker_0, # of connection points: 3
#     Node 8, Type 1, BuildingBlock: BELTOD_clean_linker_0, # of connection points: 3
#     Node 9, Type 1, BuildingBlock: BELTOD_clean_linker_0, # of connection points: 3
#     Node 10, Type 1, BuildingBlock: BELTOD_clean_linker_0, # of connection points: 3
#     Node 11, Type 1, BuildingBlock: BELTOD_clean_linker_0, # of connection points: 3
#     Edge 12, Type (0, 1), BuildingBlock: KIFKEQ_clean_linker_1, # of connection points: 2
#     Edge 13, Type (0, 1), BuildingBlock: KIFKEQ_clean_linker_1, # of connection points: 2
#     Edge 14, Type (0, 1), BuildingBlock: KIFKEQ_clean_linker_1, # of connection points: 2
#     Edge 15, Type (0, 1), BuildingBlock: KIFKEQ_clean_linker_1, # of connection points: 2
#     Edge 16, Type (0, 1), BuildingBlock: KIFKEQ_clean_linker_1, # of connection points: 2
#     Edge 17, Type (0, 1), BuildingBlock: KIFKEQ_clean_linker_1, # of connection points: 2
#     Edge 18, Type (0, 1), BuildingBlock: KIFKEQ_clean_linker_1, # of connection points: 2
#     Edge 19, Type (0, 1), BuildingBlock: KIFKEQ_clean_linker_1, # of connection points: 2
#     Edge 20, Type (0, 1), BuildingBlock: KIFKEQ_clean_linker_1, # of connection points: 2
#     Edge 21, Type (0, 1), BuildingBlock: KIFKEQ_clean_linker_1, # of connection points: 2
#     Edge 22, Type (0, 1), BuildingBlock: KIFKEQ_clean_linker_1, # of connection points: 2
#     Edge 23, Type (0, 1), BuildingBlock: KIFKEQ_clean_linker_1, # of connection points: 2
#     Edge 24, Type (0, 1), BuildingBlock: KIFKEQ_clean_linker_1, # of connection points: 2
#     Edge 25, Type (0, 1), BuildingBlock: KIFKEQ_clean_linker_1, # of connection points: 2
#     Edge 26, Type (0, 1), BuildingBlock: KIFKEQ_clean_linker_1, # of connection points: 2
#     Edge 27, Type (0, 1), BuildingBlock: KIFKEQ_clean_linker_1, # of connection points: 2
#     Edge 28, Type (0, 1), BuildingBlock: KIFKEQ_clean_linker_1, # of connection points: 2
#     Edge 29, Type (0, 1), BuildingBlock: KIFKEQ_clean_linker_1, # of connection points: 2
#     Edge 30, Type (0, 1), BuildingBlock: KIFKEQ_clean_linker_1, # of connection points: 2
#     Edge 31, Type (0, 1), BuildingBlock: KIFKEQ_clean_linker_1, # of connection points: 2
#     Edge 32, Type (0, 1), BuildingBlock: KIFKEQ_clean_linker_1, # of connection points: 2
#     Edge 33, Type (0, 1), BuildingBlock: KIFKEQ_clean_linker_1, # of connection points: 2
#     Edge 34, Type (0, 1), BuildingBlock: KIFKEQ_clean_linker_1, # of connection points: 2
#     Edge 35, Type (0, 1), BuildingBlock: KIFKEQ_clean_linker_1, # of connection points: 2
# Relax obj value: 0.239
# Max RMSD: 0.187
# Mean RMSD: 0.155
data_MOF--net-dag--node1-IZENUY_clean_sbu_0--node2-BELTOD_clean_linker_0--edge1-KIFKEQ_clean_linker_1
_symmetry_space_group_name_H-M    P1
_symmetry_Int_Tables_number       1
_symmetry_cell_setting            triclinic
loop_
_symmetry_equiv_pos_as_xyz
'x, y, z'
_cell_length_a     43.41225
_cell_length_b     46.247051
_cell_length_c     38.750345
_cell_angle_alpha  95.057812
_cell_angle_beta   90.384304
_cell_angle_gamma 90.180702
loop_
_atom_site_label
_atom_site_type_symbol
_atom_site_fract_x
_atom_site_fract_y
_atom_site_fract_z
_atom_type_partial_charge
Fe0 Fe 0.18864 0.85938 0.07905 0.0
Fe1 Fe 0.12847 0.8826 0.05148 0.0
O2 O 0.15153 0.85287 0.06079 0.0
Fe3 Fe 0.13738 0.81697 0.05217 0.0
O4 O 0.14175 0.80973 0.09713 0.0
O5 O 0.18851 0.82752 0.10403 0.0
O6 O 0.1727 0.87989 0.11699 0.0
C7 C 0.15633 0.9022 0.11525 0.0
C8 C 0.20034 0.81323 0.03204 0.0
O9 O 0.14402 0.90755 0.08683 0.0
C10 C 0.11586 0.84118 0.99501 0.0
O11 O 0.19571 0.89246 0.05698 0.0
O12 O 0.15651 0.89405 0.02113 0.0
O13 O 0.17536 0.80142 0.04054 0.0
O14 O 0.20662 0.83921 0.04253 0.0
C15 C 0.08619 0.84838 0.08042 0.0
O16 O 0.10844 0.86339 0.01452 0.0
O17 O 0.13186 0.82143 0.00648 0.0
C18 C 0.18382 0.9009 0.02962 0.0
O19 O 0.09941 0.87275 0.08144 0.0
O20 O 0.09699 0.8265 0.06247 0.0
C21 C 0.16665 0.81219 0.11401 0.0
Fe22 Fe 0.67222 0.63429 0.46311 0.0
Fe23 Fe 0.62157 0.6762 0.49141 0.0
O24 O 0.63631 0.64048 0.48389 0.0
Fe25 Fe 0.61514 0.61056 0.49669 0.0
O26 O 0.64596 0.6008 0.52511 0.0
O27 O 0.68203 0.60227 0.48596 0.0
O28 O 0.69206 0.65605 0.49741 0.0
C29 C 0.68544 0.68196 0.50758 0.0
C30 C 0.63765 0.5903 0.43118 0.0
O31 O 0.65979 0.69295 0.49978 0.0
C32 C 0.56949 0.64232 0.46907 0.0
O33 O 0.66938 0.66509 0.43668 0.0
O34 O 0.62267 0.68181 0.44568 0.0
O35 O 0.62846 0.58515 0.46096 0.0
O36 O 0.65407 0.61233 0.4274 0.0
C37 C 0.60538 0.65381 0.55183 0.0
O38 O 0.58089 0.66533 0.48438 0.0
O39 O 0.58334 0.61843 0.46894 0.0
C40 C 0.64633 0.67905 0.42708 0.0
O41 O 0.61923 0.67356 0.53771 0.0
O42 O 0.59767 0.6304 0.53455 0.0
C43 C 0.67274 0.59446 0.51467 0.0
Fe44 Fe 0.87328 0.2079 0.01324 0.0
Fe45 Fe 0.89273 0.14407 0.00716 0.0
O46 O 0.86436 0.17076 0.00238 0.0
Fe47 Fe 0.82714 0.1605 0.98674 0.0
O48 O 0.8215 0.19324 0.96386 0.0
O49 O 0.86597 0.21622 0.96905 0.0
O50 O 0.9143 0.20462 0.00178 0.0
C51 C 0.92844 0.18579 0.98215 0.0
C52 C 0.81173 0.2032 0.03639 0.0
O53 O 0.9183 0.16018 0.97741 0.0
C54 C 0.84214 0.11697 0.03116 0.0
O55 O 0.88124 0.20145 0.05809 0.0
O56 O 0.91116 0.16381 0.04501 0.0
O57 O 0.80927 0.17677 0.02578 0.0
O58 O 0.83394 0.21826 0.02663 0.0
C59 C 0.86238 0.12372 0.94452 0.0
O60 O 0.86919 0.12611 0.0372 0.0
O61 O 0.82623 0.12596 0.0068 0.0
C62 C 0.90105 0.18345 0.06685 0.0
O63 O 0.87931 0.11954 0.97033 0.0
O64 O 0.84229 0.1434 0.94653 0.0
C65 C 0.84104 0.21061 0.95285 0.0
Fe66 Fe 0.38129 0.37054 0.55865 0.0
Fe67 Fe 0.32371 0.34959 0.59403 0.0
O68 O 0.35833 0.34173 0.57121 0.0
Fe69 Fe 0.3699 0.30526 0.56114 0.0
O70 O 0.40606 0.31103 0.58454 0.0
O71 O 0.41804 0.3516 0.5623 0.0
O72 O 0.38679 0.38482 0.6033 0.0
C73 C 0.3651 0.39235 0.62355 0.0
C74 C 0.3848 0.33286 0.50051 0.0
O75 O 0.33778 0.38387 0.61663 0.0
C76 C 0.30796 0.30042 0.54857 0.0
O77 O 0.34868 0.39489 0.55251 0.0
O78 O 0.30772 0.36789 0.5586 0.0
O79 O 0.38781 0.31206 0.51958 0.0
O80 O 0.37731 0.35786 0.51334 0.0
C81 C 0.34699 0.30613 0.62962 0.0
O82 O 0.30323 0.31675 0.57598 0.0
O83 O 0.33479 0.29687 0.53683 0.0
C84 C 0.32039 0.38942 0.54671 0.0
O85 O 0.33769 0.33195 0.63061 0.0
O86 O 0.35401 0.2922 0.60106 0.0
C87 C 0.42562 0.33013 0.57857 0.0
P88 P 0.05681 0.12563 0.37829 0.0
H89 H 0.07896 0.06753 0.39069 0.0
H90 H 0.10304 0.02879 0.3528 0.0
H91 H 0.09631 0.08229 0.26706 0.0
H92 H 0.0732 0.12077 0.30493 0.0
H93 H 0.05864 0.16395 0.44236 0.0
H94 H 0.09952 0.19401 0.47111 0.0
H95 H 0.16109 0.16799 0.38695 0.0
H96 H 0.12041 0.13797 0.35865 0.0
H97 H 0.99595 0.11299 0.34937 0.0
H98 H 0.06341 0.18147 0.3479 0.0
O99 O 0.03605 0.11134 0.40869 0.0
H100 H 0.96624 0.13431 0.30441 0.0
H101 H 0.03347 0.20338 0.30348 0.0
C102 C 0.07369 0.09675 0.35047 0.0
C103 C 0.08259 0.07076 0.36368 0.0
C104 C 0.09632 0.04867 0.34201 0.0
C105 C 0.10165 0.05245 0.3069 0.0
C106 C 0.09297 0.07876 0.29404 0.0
C107 C 0.07932 0.10071 0.31564 0.0
C108 C 0.0867 0.14821 0.39884 0.0
C109 C 0.08099 0.16469 0.43022 0.0
C110 C 0.10429 0.18199 0.44648 0.0
C111 C 0.13364 0.18311 0.43147 0.0
C112 C 0.13894 0.16711 0.39952 0.0
C113 C 0.11562 0.14995 0.38327 0.0
C114 C 0.03166 0.14579 0.35224 0.0
C115 C 0.00379 0.1332 0.34022 0.0
C116 C 0.98678 0.14549 0.31453 0.0
C117 C 0.99751 0.17053 0.3002 0.0
C118 C 0.02472 0.18393 0.3137 0.0
C119 C 0.04174 0.17156 0.33936 0.0
P120 P 0.44989 0.63375 0.87277 0.0
H121 H 0.51227 0.65842 0.87069 0.0
H122 H 0.54356 0.67277 0.82257 0.0
H123 H 0.46553 0.65807 0.75346 0.0
H124 H 0.43466 0.64326 0.80128 0.0
H125 H 0.42097 0.6393 0.94052 0.0
H126 H 0.37863 0.66892 0.96493 0.0
H127 H 0.36754 0.70653 0.86736 0.0
H128 H 0.41046 0.67762 0.84365 0.0
H129 H 0.48109 0.58181 0.84485 0.0
H130 H 0.38729 0.61154 0.85515 0.0
O131 O 0.47396 0.62683 0.90477 0.0
H132 H 0.46363 0.53849 0.80973 0.0
H133 H 0.3694 0.5677 0.82109 0.0
C134 C 0.4711 0.6499 0.83957 0.0
C135 C 0.50173 0.65884 0.84534 0.0
C136 C 0.51962 0.66696 0.81785 0.0
C137 C 0.50695 0.66657 0.78432 0.0
C138 C 0.47578 0.65901 0.7791 0.0
C139 C 0.45811 0.65054 0.80644 0.0
C140 C 0.41933 0.65663 0.89051 0.0
C141 C 0.40963 0.65417 0.92453 0.0
C142 C 0.38517 0.6709 0.93832 0.0
C143 C 0.36966 0.69019 0.91814 0.0
C144 C 0.37929 0.69231 0.88385 0.0
C145 C 0.40385 0.67564 0.87016 0.0
C146 C 0.43552 0.59974 0.85284 0.0
C147 C 0.45662 0.57858 0.84031 0.0
C148 C 0.44654 0.55374 0.8203 0.0
C149 C 0.41506 0.54954 0.81247 0.0
C150 C 0.39384 0.57041 0.82619 0.0
C151 C 0.40402 0.5954 0.84601 0.0
P152 P 0.78786 0.88655 0.2462 0.0
H153 H 0.78031 0.9495 0.2571 0.0
H154 H 0.77737 0.98662 0.21626 0.0
H155 H 0.7691 0.9198 0.1315 0.0
H156 H 0.7717 0.88261 0.1727 0.0
H157 H 0.79425 0.82486 0.25507 0.0
H158 H 0.75724 0.78788 0.26804 0.0
H159 H 0.68304 0.84892 0.25982 0.0
H160 H 0.72048 0.886 0.2458 0.0
H161 H 0.85081 0.9045 0.26346 0.0
H162 H 0.8053 0.84136 0.1919 0.0
O163 O 0.7926 0.90222 0.28636 0.0
H164 H 0.90034 0.891 0.23779 0.0
H165 H 0.85498 0.82678 0.16684 0.0
C166 C 0.77632 0.91331 0.21788 0.0
C167 C 0.77681 0.94279 0.22988 0.0
C168 C 0.77507 0.96403 0.20649 0.0
C169 C 0.77328 0.95607 0.17069 0.0
C170 C 0.77072 0.92651 0.15895 0.0
C171 C 0.77209 0.90528 0.18244 0.0
C172 C 0.76005 0.85793 0.24837 0.0
C173 C 0.76997 0.83005 0.25453 0.0
C174 C 0.74873 0.80887 0.26203 0.0
C175 C 0.71721 0.81544 0.26457 0.0
C176 C 0.70718 0.84325 0.25774 0.0
C177 C 0.7285 0.86435 0.24962 0.0
C178 C 0.8245 0.87338 0.23024 0.0
C179 C 0.85159 0.88714 0.24282 0.0
C180 C 0.87996 0.87929 0.22813 0.0
C181 C 0.88178 0.85757 0.20039 0.0
C182 C 0.85447 0.8437 0.188 0.0
C183 C 0.82606 0.85177 0.20257 0.0
P184 P 0.75925 0.31885 0.61959 0.0
H185 H 0.79989 0.35531 0.58124 0.0
H186 H 0.79797 0.40678 0.57107 0.0
H187 H 0.72059 0.41834 0.6405 0.0
H188 H 0.72308 0.36733 0.651 0.0
H189 H 0.78299 0.26405 0.6392 0.0
H190 H 0.80006 0.24768 0.69437 0.0
H191 H 0.7838 0.33355 0.7443 0.0
H192 H 0.76773 0.34992 0.68885 0.0
H193 H 0.7203 0.30396 0.55913 0.0
H194 H 0.70991 0.31362 0.67011 0.0
O195 O 0.77888 0.30172 0.58705 0.0
H196 H 0.6646 0.29838 0.55208 0.0
H197 H 0.65419 0.30918 0.66336 0.0
C198 C 0.76134 0.35741 0.61647 0.0
C199 C 0.78285 0.36906 0.59468 0.0
C200 C 0.78166 0.39845 0.58879 0.0
C201 C 0.75896 0.41663 0.60474 0.0
C202 C 0.73857 0.40509 0.62805 0.0
C203 C 0.73978 0.37578 0.63385 0.0
C204 C 0.7745 0.30826 0.65981 0.0
C205 C 0.7836 0.27946 0.66194 0.0
C206 C 0.79307 0.27007 0.69357 0.0
C207 C 0.7932 0.28929 0.72381 0.0
C208 C 0.78441 0.3183 0.72144 0.0
C209 C 0.77506 0.32768 0.6897 0.0
C210 C 0.71928 0.30878 0.6151 0.0
C211 C 0.70607 0.30427 0.582 0.0
C212 C 0.67417 0.30143 0.57803 0.0
C213 C 0.65482 0.3036 0.60716 0.0
C214 C 0.66834 0.30699 0.64038 0.0
C215 C 0.70028 0.30959 0.64429 0.0
P216 P 0.53911 0.3581 0.17709 0.0
H217 H 0.51369 0.41678 0.18663 0.0
H218 H 0.53102 0.46091 0.22106 0.0
H219 H 0.61267 0.41597 0.25131 0.0
H220 H 0.5954 0.3723 0.21682 0.0
H221 H 0.55523 0.29608 0.17748 0.0
H222 H 0.59963 0.26816 0.15467 0.0
H223 H 0.63752 0.34592 0.11682 0.0
H224 H 0.59271 0.37313 0.13836 0.0
H225 H 0.47377 0.34278 0.18226 0.0
H226 H 0.55657 0.33738 0.24332 0.0
O227 O 0.51624 0.3653 0.14416 0.0
H228 H 0.44314 0.32818 0.23044 0.0
H229 H 0.52616 0.32408 0.29215 0.0
C230 C 0.55361 0.39152 0.19851 0.0
C231 C 0.53563 0.41669 0.2001 0.0
C232 C 0.54545 0.4418 0.21995 0.0
C233 C 0.57334 0.44199 0.2387 0.0
C234 C 0.59144 0.41676 0.23657 0.0
C235 C 0.58154 0.39172 0.21689 0.0
C236 C 0.571 0.33675 0.16006 0.0
C237 C 0.57311 0.30702 0.16421 0.0
C238 C 0.5986 0.29114 0.15131 0.0
C239 C 0.62227 0.30477 0.13397 0.0
C240 C 0.61961 0.33453 0.12953 0.0
C241 C 0.59409 0.35023 0.14212 0.0
C242 C 0.51743 0.34119 0.20927 0.0
C243 C 0.48543 0.33798 0.20586 0.0
C244 C 0.4679 0.32991 0.23361 0.0
C245 C 0.48205 0.3253 0.26546 0.0
C246 C 0.51439 0.32709 0.26801 0.0
C247 C 0.53188 0.33489 0.24013 0.0
P248 P 0.25938 0.18949 0.94919 0.0
H249 H 0.28859 0.14922 0.99392 0.0
H250 H 0.28259 0.09695 0.99744 0.0
H251 H 0.2221 0.09224 0.90804 0.0
H252 H 0.22773 0.14452 0.90517 0.0
H253 H 0.272 0.24621 0.92597 0.0
H254 H 0.29575 0.26194 0.87366 0.0
H255 H 0.31369 0.17249 0.83781 0.0
H256 H 0.29008 0.15693 0.89004 0.0
H257 H 0.21473 0.19783 0.00458 0.0
H258 H 0.21649 0.20394 0.89425 0.0
O259 O 0.2772 0.20442 0.98472 0.0
H260 H 0.15911 0.20513 0.00456 0.0
H261 H 0.16095 0.21219 0.89406 0.0
C262 C 0.25829 0.15069 0.94955 0.0
C263 C 0.27429 0.13687 0.97491 0.0
C264 C 0.27102 0.10696 0.97672 0.0
C265 C 0.25169 0.09052 0.95315 0.0
C266 C 0.23675 0.10439 0.92689 0.0
C267 C 0.24 0.13423 0.92518 0.0
C268 C 0.27899 0.20047 0.91176 0.0
C269 C 0.28132 0.23004 0.90697 0.0
C270 C 0.29502 0.23897 0.87719 0.0
C271 C 0.30654 0.2184 0.85165 0.0
C272 C 0.30472 0.18878 0.8569 0.0
C273 C 0.29118 0.17988 0.88682 0.0
C274 C 0.21982 0.20095 0.9496 0.0
C275 C 0.20325 0.20168 0.98052 0.0
C276 C 0.1714 0.20591 0.98043 0.0
C277 C 0.15548 0.20931 0.94929 0.0
C278 C 0.17241 0.20939 0.91845 0.0
C279 C 0.20427 0.20504 0.91858 0.0
P280 P 0.27415 0.5779 0.30358 0.0
H281 H 0.27126 0.51521 0.30488 0.0
H282 H 0.2565 0.48497 0.34998 0.0
H283 H 0.21899 0.55998 0.40962 0.0
H284 H 0.2345 0.59044 0.36408 0.0
H285 H 0.24093 0.58072 0.23852 0.0
H286 H 0.21551 0.62075 0.21275 0.0
H287 H 0.22772 0.67502 0.3084 0.0
H288 H 0.25355 0.63483 0.33411 0.0
H289 H 0.30355 0.57057 0.37126 0.0
H290 H 0.3175 0.62195 0.2849 0.0
O291 O 0.28784 0.5574 0.26953 0.0
H292 H 0.35006 0.59112 0.39897 0.0
H293 H 0.36445 0.64262 0.31271 0.0
C294 C 0.254 0.55506 0.33114 0.0
C295 C 0.25887 0.52507 0.32701 0.0
C296 C 0.25019 0.50769 0.3529 0.0
C297 C 0.23672 0.52006 0.38363 0.0
C298 C 0.22958 0.54985 0.38641 0.0
C299 C 0.23822 0.56725 0.3603 0.0
C300 C 0.24963 0.60509 0.28792 0.0
C301 C 0.23771 0.60103 0.25418 0.0
C302 C 0.22319 0.62387 0.23949 0.0
C303 C 0.22006 0.65097 0.25852 0.0
C304 C 0.22982 0.65428 0.29328 0.0
C305 C 0.24462 0.63142 0.3079 0.0
C306 C 0.30678 0.59497 0.32608 0.0
C307 C 0.31619 0.58669 0.35847 0.0
C308 C 0.34285 0.59855 0.37445 0.0
C309 C 0.36083 0.61859 0.3581 0.0
C310 C 0.35109 0.62716 0.32587 0.0
C311 C 0.32426 0.61544 0.31003 0.0
P312 P 0.8665 0.84684 0.77413 0.0
H313 H 0.82099 0.88388 0.81116 0.0
H314 H 0.8165 0.93624 0.82095 0.0
H315 H 0.88769 0.94644 0.74539 0.0
H316 H 0.89287 0.89366 0.73676 0.0
H317 H 0.83755 0.79 0.76361 0.0
H318 H 0.81423 0.76302 0.71337 0.0
H319 H 0.84228 0.83023 0.64927 0.0
H320 H 0.86499 0.85755 0.70012 0.0
H321 H 0.91458 0.88561 0.80482 0.0
H322 H 0.90715 0.79639 0.76235 0.0
O323 O 0.84894 0.83461 0.80821 0.0
H324 H 0.96709 0.87739 0.82274 0.0
H325 H 0.96013 0.78774 0.78159 0.0
C326 C 0.85763 0.88487 0.77369 0.0
C327 C 0.83521 0.89729 0.79612 0.0
C328 C 0.83247 0.9274 0.80147 0.0
C329 C 0.85202 0.94568 0.78428 0.0
C330 C 0.87264 0.93302 0.7595 0.0
C331 C 0.87541 0.90283 0.75425 0.0
C332 C 0.85238 0.82611 0.7358 0.0
C333 C 0.83879 0.79896 0.73876 0.0
C334 C 0.8257 0.78337 0.70986 0.0
C335 C 0.82622 0.79452 0.67725 0.0
C336 C 0.84103 0.82127 0.67411 0.0
C337 C 0.85412 0.83689 0.70318 0.0
C338 C 0.90713 0.8419 0.78102 0.0
C339 C 0.92454 0.86448 0.79806 0.0
C340 C 0.95472 0.85973 0.80849 0.0
C341 C 0.96788 0.83201 0.80315 0.0
C342 C 0.95062 0.80939 0.7857 0.0
C343 C 0.92045 0.81435 0.7746 0.0
H344 H 0.16432 0.89395 0.18407 0.0
H345 H 0.1407 0.95897 0.11493 0.0
H346 H 0.15546 0.92946 0.23395 0.0
H347 H 0.13208 0.99406 0.1643 0.0
H348 H 0.14477 0.058 0.25682 0.0
H349 H 0.16223 0.02084 0.21285 0.0
H350 H 0.10786 0.95659 0.25953 0.0
H351 H 0.08987 0.9939 0.30336 0.0
C352 C 0.15761 0.91584 0.17954 0.0
C353 C 0.15317 0.92367 0.14561 0.0
C354 C 0.1524 0.93606 0.20802 0.0
C355 C 0.14324 0.96452 0.20296 0.0
C356 C 0.13952 0.97241 0.16902 0.0
C357 C 0.14426 0.95221 0.14072 0.0
C358 C 0.13658 0.03594 0.25782 0.0
C359 C 0.11549 0.02903 0.28324 0.0
C360 C 0.14669 0.01467 0.23272 0.0
C361 C 0.13614 0.98592 0.23258 0.0
C362 C 0.11652 0.97855 0.25917 0.0
C363 C 0.10623 -7e-05 0.28424 0.0
H364 H 0.5926 0.61282 0.5957 0.0
H365 H 0.59614 0.70569 0.59033 0.0
H366 H 0.57343 0.6201 0.65478 0.0
H367 H 0.57647 0.71294 0.64967 0.0
H368 H 0.49523 0.6999 0.73082 0.0
H369 H 0.52367 0.70001 0.67646 0.0
H370 H 0.59101 0.64211 0.71494 0.0
H371 H 0.56264 0.64196 0.76917 0.0
C372 C 0.58942 0.6348 0.60724 0.0
C373 C 0.59566 0.65868 0.58834 0.0
C374 C 0.57869 0.63896 0.64114 0.0
C375 C 0.57355 0.66708 0.65676 0.0
C376 C 0.58022 0.69104 0.63814 0.0
C377 C 0.59153 0.68689 0.60431 0.0
C378 C 0.51643 0.68767 0.72784 0.0
C379 C 0.52667 0.67082 0.7541 0.0
C380 C 0.53277 0.68787 0.69689 0.0
C381 C 0.55937 0.6709 0.6915 0.0
C382 C 0.57044 0.65524 0.71842 0.0
C383 C 0.55434 0.65533 0.74951 0.0
H384 H 0.87474 0.08027 0.06884 0.0
H385 H 0.78205 0.10033 0.03746 0.0
H386 H 0.85495 0.04046 0.09966 0.0
H387 H 0.76227 0.0605 0.06883 0.0
H388 H 0.74633 0.00956 0.16989 0.0
H389 H 0.76107 0.0485 0.13412 0.0
H390 H 0.82745 0.99164 0.081 0.0
H391 H 0.81281 0.95286 0.11651 0.0
C392 C 0.85014 0.07626 0.06862 0.0
C393 C 0.82996 0.09338 0.05063 0.0
C394 C 0.83886 0.05336 0.08607 0.0
C395 C 0.80713 0.04735 0.08635 0.0
C396 C 0.78683 0.06474 0.06895 0.0
C397 C 0.79817 0.08741 0.05096 0.0
C398 C 0.76369 0.00532 0.15016 0.0
C399 C 0.7784 0.97822 0.14593 0.0
C400 C 0.77203 0.02751 0.12969 0.0
C401 C 0.79556 0.02306 0.1051 0.0
C402 C 0.80942 0.99565 0.10001 0.0
C403 C 0.80081 0.9734 0.12007 0.0
H404 H 0.45387 0.28088 0.59789 0.0
H405 H 0.47211 0.36958 0.57705 0.0
H406 H 0.50911 0.27297 0.60517 0.0
H407 H 0.5269 0.36191 0.58513 0.0
H408 H 0.6225 0.33107 0.55905 0.0
H409 H 0.56712 0.33599 0.55361 0.0
H410 H 0.55422 0.28595 0.64146 0.0
H411 H 0.60996 0.27972 0.64588 0.0
C412 C 0.46959 0.29877 0.5953 0.0
C413 C 0.45861 0.32576 0.58647 0.0
C414 C 0.50123 0.29426 0.59956 0.0
C415 C 0.52246 0.31667 0.5952 0.0
C416 C 0.51127 0.34395 0.58778 0.0
C417 C 0.47979 0.3484 0.58336 0.0
C418 C 0.60794 0.32055 0.57681 0.0
C419 C 0.62078 0.30493 0.60286 0.0
C420 C 0.57612 0.3238 0.57404 0.0
C421 C 0.55622 0.31171 0.5974 0.0
C422 C 0.56891 0.29547 0.62299 0.0
C423 C 0.60086 0.29213 0.62571 0.0
H424 H 0.65737 0.59018 0.36383 0.0
H425 H 0.59872 0.54407 0.43037 0.0
H426 H 0.64138 0.55686 0.31422 0.0
H427 H 0.58312 0.51104 0.3812 0.0
H428 H 0.53663 0.47485 0.2834 0.0
H429 H 0.5524 0.51294 0.32748 0.0
H430 H 0.64669 0.50391 0.29345 0.0
H431 H 0.63076 0.46624 0.24858 0.0
C432 C 0.64125 0.57291 0.36792 0.0
C433 C 0.62943 0.56972 0.40108 0.0
C434 C 0.63213 0.55386 0.33955 0.0
C435 C 0.61079 0.53154 0.34381 0.0
C436 C 0.59918 0.52833 0.37699 0.0
C437 C 0.6084 0.54713 0.40525 0.0
C438 C 0.5606 0.48144 0.28475 0.0
C439 C 0.58248 0.46743 0.26263 0.0
C440 C 0.56969 0.50302 0.31026 0.0
C441 C 0.60083 0.51113 0.31416 0.0
C442 C 0.62252 0.49816 0.29099 0.0
C443 C 0.61344 0.47644 0.26552 0.0
H444 H 0.9693 0.14838 0.94851 0.0
H445 H 0.95895 0.23794 0.98892 0.0
H446 H 0.02314 0.15737 0.93643 0.0
H447 H 0.01277 0.24714 0.97587 0.0
H448 H 0.11738 0.23792 0.99697 0.0
H449 H 0.06153 0.2346 -4e-05 0.0
H450 H 0.05993 0.18106 0.90276 0.0
H451 H 0.11591 0.1831 0.90071 0.0
C452 C 0.97833 0.17015 0.95421 0.0
C453 C 0.95985 0.19234 0.97012 0.0
C454 C 0.00925 0.17537 0.94707 0.0
C455 C 0.02243 0.20294 0.95545 0.0
C456 C 0.00352 0.22551 0.96969 0.0
C457 C 0.9726 0.22027 0.97697 0.0
C458 C 0.10512 0.22547 0.9762 0.0
C459 C 0.12122 0.21055 0.9488 0.0
C460 C 0.07301 0.22387 0.97767 0.0
C461 C 0.05618 0.20741 0.95168 0.0
C462 C 0.07218 0.19358 0.92347 0.0
C463 C 0.10431 0.19507 0.92207 0.0
H464 H 0.33808 0.44221 0.52772 0.0
H465 H 0.26048 0.38316 0.52395 0.0
H466 H 0.30899 0.47504 0.49473 0.0
H467 H 0.23099 0.41655 0.49096 0.0
H468 H 0.22013 0.4629 0.38624 0.0
H469 H 0.23445 0.43213 0.43166 0.0
H470 H 0.26502 0.50779 0.49626 0.0
H471 H 0.25216 0.53833 0.45041 0.0
C472 C 0.31465 0.43636 0.52018 0.0
C473 C 0.30169 0.40996 0.52829 0.0
C474 C 0.2978 0.45539 0.50158 0.0
C475 C 0.26755 0.44853 0.49048 0.0
C476 C 0.25426 0.4224 0.49915 0.0
C477 C 0.27114 0.40333 0.51803 0.0
C478 C 0.22928 0.47302 0.41045 0.0
C479 C 0.23569 0.50297 0.41432 0.0
C480 C 0.23724 0.45541 0.43661 0.0
C481 C 0.25159 0.46749 0.46717 0.0
C482 C 0.25464 0.49781 0.47262 0.0
C483 C 0.24686 0.51538 0.44644 0.0
H484 H 0.09134 0.88263 0.95789 0.0
H485 H 0.10921 0.79049 0.95277 0.0
H486 H 0.06281 0.87596 0.90377 0.0
H487 H 0.08064 0.78379 0.89787 0.0
H488 H 0.02087 0.86382 0.80175 0.0
H489 H 0.06454 0.86259 0.84164 0.0
H490 H 0.02518 0.78747 0.88383 0.0
H491 H 0.98185 0.78851 0.84363 0.0
C492 C 0.08956 0.86096 0.94489 0.0
C493 C 0.10215 0.83704 0.95987 0.0
C494 C 0.07347 0.85716 0.91359 0.0
C495 C 0.06944 0.82931 0.89646 0.0
C496 C 0.08322 0.80548 0.91059 0.0
C497 C 0.09964 0.80934 0.94193 0.0
C498 C 0.02208 0.84657 0.81889 0.0
C499 C 0.99779 0.82654 0.82 0.0
C500 C 0.04698 0.84591 0.84179 0.0
C501 C 0.04796 0.82532 0.86639 0.0
C502 C 0.02519 0.80355 0.86513 0.0
C503 C 0.00033 0.80413 0.84208 0.0
H504 H 0.82375 0.11982 0.88776 0.0
H505 H 0.90333 0.07974 0.93101 0.0
H506 H 0.82245 0.08145 0.84015 0.0
H507 H 0.9016 0.04139 0.88423 0.0
H508 H 0.90358 0.97975 0.79287 0.0
H509 H 0.90771 0.02773 0.82352 0.0
H510 H 0.80886 0.03027 0.83555 0.0
H511 H 0.80454 0.98288 0.8031 0.0
C512 C 0.84116 0.10305 0.88693 0.0
C513 C 0.86341 0.10265 0.91346 0.0
C514 C 0.84033 0.08102 0.85972 0.0
C515 C 0.86183 0.05827 0.85841 0.0
C516 C 0.88493 0.05874 0.88406 0.0
C517 C 0.88574 0.08065 0.91118 0.0
C518 C 0.88258 0.99092 0.80083 0.0
C519 C 0.85373 0.97718 0.79597 0.0
C520 C 0.88501 0.01833 0.81887 0.0
C521 C 0.85871 0.03256 0.83272 0.0
C522 C 0.82963 0.01995 0.82529 0.0
C523 C 0.82717 0.99259 0.80701 0.0
H524 H 0.38831 0.37422 0.45449 0.0
H525 H 0.40288 0.2827 0.46309 0.0
H526 H 0.40841 0.36908 0.39605 0.0
H527 H 0.4222 0.27736 0.40386 0.0
H528 H 0.49407 0.29078 0.31825 0.0
H529 H 0.46725 0.29048 0.3732 0.0
H530 H 0.39966 0.34987 0.33798 0.0
H531 H 0.42748 0.35162 0.28408 0.0
C532 C 0.39536 0.35287 0.44374 0.0
C533 C 0.39422 0.32893 0.46368 0.0
C534 C 0.40671 0.34986 0.41001 0.0
C535 C 0.41701 0.32279 0.39515 0.0
C536 C 0.4149 0.29861 0.41466 0.0
C537 C 0.40366 0.30165 0.44856 0.0
C538 C 0.47348 0.30377 0.32221 0.0
C539 C 0.46322 0.32148 0.29677 0.0
C540 C 0.45783 0.30331 0.3536 0.0
C541 C 0.43143 0.3204 0.36024 0.0
C542 C 0.42024 0.33685 0.33405 0.0
C543 C 0.43599 0.3375 0.30282 0.0
H544 H 0.23454 0.93292 0.05118 0.0
H545 H 0.16809 0.92071 0.96755 0.0
H546 H 0.2542 0.97602 0.02697 0.0
H547 H 0.18843 0.96338 0.94272 0.0
H548 H 0.19599 0.06331 0.94846 0.0
H549 H 0.18378 0.01413 0.9609 0.0
H550 H 0.28006 0.99836 0.98098 0.0
H551 H 0.2923 0.04807 0.96868 0.0
C552 C 0.22462 0.93901 0.02716 0.0
C553 C 0.19935 0.92373 0.01165 0.0
C554 C 0.23603 0.96368 0.01315 0.0
C555 C 0.22257 0.97341 0.98318 0.0
C556 C 0.19883 0.95683 0.96628 0.0
C557 C 0.18726 0.93231 0.98043 0.0
C558 C 0.21469 0.04919 0.95475 0.0
C559 C 0.24512 0.05959 0.95761 0.0
C560 C 0.20769 0.0209 0.96182 0.0
C561 C 0.23095 0.00224 0.97187 0.0
C562 C 0.26158 0.01231 0.97368 0.0
C563 C 0.26859 0.04074 0.96667 0.0
H564 H 0.52333 0.68265 0.4799 0.0
H565 H 0.54677 0.6028 0.41948 0.0
H566 H 0.47231 0.68157 0.452 0.0
H567 H 0.49633 0.60192 0.39179 0.0
H568 H 0.41576 0.62157 0.32503 0.0
H569 H 0.46642 0.6317 0.35104 0.0
H570 H 0.42478 0.64716 0.4518 0.0
H571 H 0.37386 0.6373 0.4257 0.0
C572 C 0.51768 0.66503 0.46058 0.0
C573 C 0.53895 0.64273 0.45203 0.0
C574 C 0.48853 0.66438 0.44475 0.0
C575 C 0.48051 0.64175 0.41964 0.0
C576 C 0.50203 0.61981 0.41074 0.0
C577 C 0.53082 0.62021 0.42685 0.0
C578 C 0.41731 0.62779 0.3526 0.0
C579 C 0.39088 0.62848 0.37338 0.0
C580 C 0.44632 0.63337 0.36751 0.0
C581 C 0.44949 0.63998 0.40344 0.0
C582 C 0.42295 0.64224 0.42401 0.0
C583 C 0.3939 0.63637 0.40913 0.0
H584 H 0.32303 0.42295 0.66433 0.0
H585 H 0.42094 0.40977 0.6511 0.0
H586 H 0.3333 0.45927 0.71273 0.0
H587 H 0.43107 0.44609 0.6994 0.0
H588 H 0.43668 0.49357 0.80764 0.0
H589 H 0.42354 0.45416 0.76389 0.0
H590 H 0.35701 0.50923 0.71889 0.0
H591 H 0.37058 0.54888 0.7619 0.0
C592 C 0.34672 0.42768 0.67182 0.0
C593 C 0.37118 0.4136 0.6537 0.0
C594 C 0.35257 0.44855 0.69945 0.0
C595 C 0.38297 0.4555 0.70981 0.0
C596 C 0.4074 0.44097 0.69221 0.0
C597 C 0.40157 0.42033 0.66438 0.0
C598 C 0.41928 0.49733 0.7884 0.0
C599 C 0.40484 0.52452 0.78824 0.0
C600 C 0.41173 0.47472 0.76341 0.0
C601 C 0.38936 0.47868 0.73792 0.0
C602 C 0.37411 0.50545 0.73846 0.0
C603 C 0.38184 0.52815 0.76324 0.0
H604 H 0.04061 0.80737 0.06847 0.0
H605 H 0.06526 0.88448 0.13416 0.0
H606 H 0.99108 0.80545 0.09834 0.0
H607 H 0.01619 0.88236 0.1639 0.0
H608 H 0.93858 0.85439 0.23116 0.0
H609 H 0.98846 0.8489 0.20278 0.0
H610 H 0.94316 0.83897 0.10295 0.0
H611 H 0.89324 0.84539 0.13106 0.0
C612 C 0.03555 0.82374 0.08939 0.0
C613 C 0.0567 0.84618 0.09884 0.0
C614 C 0.00724 0.82268 0.10635 0.0
C615 C 0.99994 0.84369 0.13347 0.0
C616 C 0.02138 0.8657 0.14334 0.0
C617 C 0.04935 0.86704 0.1261 0.0
C618 C 0.93918 0.85107 0.20316 0.0
C619 C 0.91185 0.85071 0.18342 0.0
C620 C 0.96774 0.84778 0.18696 0.0
C621 C 0.96961 0.84368 0.15071 0.0
C622 C 0.94232 0.84184 0.13098 0.0
C623 C 0.91373 0.84546 0.14715 0.0
H624 H 0.72967 0.57277 0.49732 0.0
H625 H 0.65745 0.56838 0.57298 0.0
H626 H 0.75677 0.53353 0.5225 0.0
H627 H 0.68424 0.52883 0.59762 0.0
H628 H 0.76164 0.43503 0.53986 0.0
H629 H 0.74617 0.48183 0.52177 0.0
H630 H 0.72943 0.51286 0.62842 0.0
H631 H 0.74504 0.46579 0.64662 0.0
C632 C 0.71971 0.56367 0.51954 0.0
C633 C 0.69112 0.57342 0.53277 0.0
C634 C 0.73522 0.5411 0.53388 0.0
C635 C 0.72252 0.52783 0.56181 0.0
C636 C 0.69481 0.53871 0.5763 0.0
C637 C 0.67931 0.56128 0.56198 0.0
C638 C 0.75553 0.45205 0.5596 0.0
C639 C 0.75436 0.44658 0.59467 0.0
C640 C 0.74662 0.47895 0.54921 0.0
C641 C 0.73632 0.50103 0.57364 0.0
C642 C 0.73675 0.49612 0.60892 0.0
C643 C 0.7457 0.46918 0.61934 0.0
H644 H 0.95404 0.15892 0.08758 0.0
H645 H 0.87963 0.21461 0.12563 0.0
H646 H 0.97649 0.16155 0.14519 0.0
H647 H 0.90252 0.21728 0.18398 0.0
H648 H 0.93558 0.17404 0.28562 0.0
H649 H 0.91186 0.18191 0.22978 0.0
H650 H 0.00173 0.19719 0.18781 0.0
H651 H 0.02547 0.18847 0.24291 0.0
C652 C 0.94252 0.17191 0.10823 0.0
C653 C 0.91498 0.18653 0.10198 0.0
C654 C 0.95559 0.1736 0.14126 0.0
C655 C 0.94141 0.18981 0.16907 0.0
C656 C 0.91392 0.20461 0.16299 0.0
C657 C 0.90092 0.20317 0.12963 0.0
C658 C 0.95021 0.17941 0.26456 0.0
C659 C 0.98245 0.18034 0.26868 0.0
C660 C 0.9366 0.18418 0.23271 0.0
C661 C 0.95499 0.18983 0.20434 0.0
C662 C 0.98701 0.19251 0.2091 0.0
C663 C 0.00059 0.18782 0.24086 0.0
H664 H 0.22105 0.80376 0.1472 0.0
H665 H 0.12537 0.77716 0.14407 0.0
H666 H 0.23252 0.76694 0.18653 0.0
H667 H 0.13713 0.74031 0.18382 0.0
H668 H 0.17517 0.69079 0.27772 0.0
H669 H 0.16048 0.73341 0.24744 0.0
H670 H 0.22938 0.71088 0.16993 0.0
H671 H 0.24365 0.66856 0.19963 0.0
C672 C 0.20233 0.79045 0.15534 0.0
C673 C 0.17238 0.79306 0.142 0.0
C674 C 0.20896 0.76936 0.17784 0.0
C675 C 0.18574 0.7507 0.1878 0.0
C676 C 0.15537 0.75454 0.1765 0.0
C677 C 0.14874 0.77549 0.15363 0.0
C678 C 0.18701 0.69508 0.25417 0.0
C679 C 0.21031 0.67639 0.24074 0.0
C680 C 0.17863 0.71929 0.23693 0.0
C681 C 0.19402 0.7254 0.20661 0.0
C682 C 0.21741 0.70678 0.19348 0.0
C683 C 0.22536 0.68245 0.21025 0.0
H684 H 0.7461 0.66964 0.51863 0.0
H685 H 0.67687 0.73513 0.54283 0.0
H686 H 0.78318 0.69808 0.55488 0.0
H687 H 0.71364 0.76311 0.57998 0.0
H688 H 0.79084 0.81768 0.62785 0.0
H689 H 0.75975 0.79175 0.58248 0.0
H690 H 0.79192 0.71005 0.61517 0.0
H691 H 0.82422 0.73597 0.65915 0.0
C692 C 0.73879 0.69013 0.53164 0.0
C693 C 0.70847 0.70005 0.52795 0.0
C694 C 0.76003 0.70639 0.55256 0.0
C695 C 0.75139 0.73282 0.57054 0.0
C696 C 0.72126 0.74307 0.56614 0.0
C697 C 0.70008 0.72692 0.545 0.0
C698 C 0.79186 0.7942 0.62479 0.0
C699 C 0.80985 0.7789 0.64733 0.0
C700 C 0.7737 0.77932 0.59907 0.0
C701 C 0.77303 0.74879 0.59538 0.0
C702 C 0.792 0.73355 0.61703 0.0
C703 C 0.81026 0.74842 0.64259 0.0
H704 H 0.7629 0.17776 0.06656 0.0
H705 H 0.8014 0.26143 0.04863 0.0
H706 H 0.71723 0.20172 0.09196 0.0
H707 H 0.75577 0.28518 0.07395 0.0
H708 H 0.65316 0.31019 0.07351 0.0
H709 H 0.7001 0.28576 0.05342 0.0
H710 H 0.70052 0.23692 0.14333 0.0
H711 H 0.65387 0.26207 0.16427 0.0
C712 C 0.76178 0.20125 0.06835 0.0
C713 C 0.78569 0.21768 0.05529 0.0
C714 C 0.73569 0.21492 0.08302 0.0
C715 C 0.73286 0.24525 0.08455 0.0
C716 C 0.7572 0.26172 0.07262 0.0
C717 C 0.7834 0.24811 0.05833 0.0
C718 C 0.66337 0.29453 0.08931 0.0
C719 C 0.64983 0.28836 0.12073 0.0
C720 C 0.69025 0.2805 0.07772 0.0
C721 C 0.70409 0.25969 0.09701 0.0
C722 C 0.69023 0.25284 0.12792 0.0
C723 C 0.66344 0.26714 0.13977 0.0
H724 H 0.33823 0.3312 0.69491 0.0
H725 H 0.35502 0.24816 0.63792 0.0
H726 H 0.33367 0.30764 0.74801 0.0
H727 H 0.35105 0.22447 0.69178 0.0
H728 H 0.29434 0.19523 0.78575 0.0
H729 H 0.30951 0.21446 0.73175 0.0
H730 H 0.36195 0.28214 0.78974 0.0
H731 H 0.3464 0.26308 0.84376 0.0
C732 C 0.34125 0.30789 0.69374 0.0
C733 C 0.34665 0.29152 0.66206 0.0
C734 C 0.33896 0.2944 0.72435 0.0
C735 C 0.34206 0.26417 0.72416 0.0
C736 C 0.3483 0.24779 0.69267 0.0
C737 C 0.35069 0.26136 0.66188 0.0
C738 C 0.30962 0.21386 0.78689 0.0
C739 C 0.31891 0.22789 0.81894 0.0
C740 C 0.31838 0.22483 0.75596 0.0
C741 C 0.33667 0.25 0.75649 0.0
C742 C 0.34734 0.26305 0.78852 0.0
C743 C 0.33846 0.25216 0.81943 0.0
H744 H 0.69213 0.67515 0.37935 0.0
H745 H 0.60701 0.72014 0.40472 0.0
H746 H 0.70103 0.7062 0.33326 0.0
H747 H 0.61566 0.75105 0.35763 0.0
H748 H 0.67629 0.82597 0.31703 0.0
H749 H 0.65176 0.79012 0.35022 0.0
H750 H 0.68609 0.72138 0.27799 0.0
H751 H 0.71128 0.75742 0.24524 0.0
C752 C 0.675 0.69138 0.37471 0.0
C753 C 0.64913 0.69549 0.39614 0.0
C754 C 0.67994 0.70902 0.34792 0.0
C755 C 0.6591 0.73122 0.34175 0.0
C756 C 0.63232 0.73435 0.36197 0.0
C757 C 0.62733 0.71659 0.38887 0.0
C758 C 0.67771 0.80326 0.3076 0.0
C759 C 0.69604 0.79441 0.27888 0.0
C760 C 0.66361 0.78265 0.32662 0.0
C761 C 0.66745 0.75283 0.31714 0.0
C762 C 0.68332 0.74417 0.28644 0.0
C763 C 0.69762 0.76476 0.2676 0.0
H764 H 0.87946 0.2433 0.91584 0.0
H765 H 0.78633 0.21013 0.91782 0.0
H766 H 0.86836 0.2633 0.86084 0.0
H767 H 0.77512 0.23064 0.86356 0.0
H768 H 0.7766 0.23784 0.74798 0.0
H769 H 0.78889 0.22038 0.80373 0.0
H770 H 0.83853 0.2999 0.83354 0.0
H771 H 0.82739 0.3169 0.77685 0.0
C772 C 0.85653 0.24062 0.90481 0.0
C773 C 0.83385 0.22496 0.92112 0.0
C774 C 0.85014 0.25215 0.87336 0.0
C775 C 0.82094 0.2483 0.85764 0.0
C776 C 0.79804 0.23345 0.87458 0.0
C777 C 0.80444 0.22185 0.90584 0.0
C778 C 0.79052 0.25147 0.76618 0.0
C779 C 0.80111 0.27873 0.75787 0.0
C780 C 0.7972 0.24162 0.79838 0.0
C781 C 0.81448 0.25885 0.82322 0.0
C782 C 0.82531 0.28604 0.81489 0.0
C783 C 0.81867 0.2959 0.78256 0.0
H784 H 0.30905 0.26549 0.48787 0.0
H785 H 0.2482 0.29753 0.57034 0.0
H786 H 0.26667 0.23787 0.45972 0.0
H787 H 0.20596 0.26927 0.54254 0.0
H788 H 0.13055 0.23808 0.46399 0.0
H789 H 0.17238 0.26683 0.49224 0.0
H790 H 0.23536 0.19594 0.46754 0.0
H791 H 0.19369 0.16744 0.43908 0.0
C792 C 0.28668 0.26652 0.50013 0.0
C793 C 0.28209 0.28365 0.53147 0.0
C794 C 0.26239 0.25055 0.48405 0.0
C795 C 0.23292 0.25122 0.49894 0.0
C796 C 0.22827 0.26851 0.53016 0.0
C797 C 0.25255 0.28458 0.54621 0.0
C798 C 0.15331 0.22862 0.46482 0.0
C799 C 0.15885 0.20056 0.44916 0.0
C800 C 0.17727 0.24505 0.48104 0.0
C801 C 0.20728 0.23374 0.48204 0.0
C802 C 0.21269 0.20556 0.46665 0.0
C803 C 0.18879 0.18919 0.45037 0.0
H804 H 0.19533 0.75699 0.00364 0.0
H805 H 0.25906 0.82921 0.01676 0.0
H806 H 0.23507 0.72733 0.97394 0.0
H807 H 0.2989 0.79937 0.98803 0.0
H808 H 0.35647 0.74686 0.90864 0.0
H809 H 0.31421 0.77625 0.93315 0.0
H810 H 0.28257 0.70384 0.98689 0.0
H811 H 0.32386 0.674 0.96092 0.0
C812 C 0.2178 0.76655 0.00023 0.0
C813 C 0.224 0.79547 0.01272 0.0
C814 C 0.24064 0.74948 0.98337 0.0
C815 C 0.27025 0.76091 0.9787 0.0
C816 C 0.27626 0.78996 0.99074 0.0
C817 C 0.25341 0.80704 0.00744 0.0
C818 C 0.34024 0.73706 0.92526 0.0
C819 C 0.34365 0.70805 0.93284 0.0
C820 C 0.3162 0.75403 0.93967 0.0
C821 C 0.29503 0.74248 0.96214 0.0
C822 C 0.29824 0.71338 0.96941 0.0
C823 C 0.3222 0.69637 0.9549 0.0
loop_
_geom_bond_atom_site_label_1
_geom_bond_atom_site_label_2
_geom_bond_distance
_geom_bond_site_symmetry_2
_ccdc_geom_bond_type
Fe0 O2 1.918 . S
Fe0 O5 1.997 . S
Fe0 O6 2.002 . S
Fe0 O11 1.976 . S
Fe0 O14 1.996 . S
Fe1 O2 1.918 . S
Fe1 O9 1.997 . S
Fe1 O12 1.996 . S
Fe1 O16 1.978 1_554 S
Fe1 O19 2.002 . S
O2 Fe0 1.918 . S
O2 Fe1 1.918 . S
O2 Fe3 1.918 . S
Fe3 O2 1.918 . S
Fe3 O4 2.002 . S
Fe3 O13 1.976 . S
Fe3 O17 1.996 1_554 S
Fe3 O20 1.997 . S
O4 Fe3 2.002 . S
O4 C21 1.295 . S
O5 Fe0 1.997 . S
O5 C21 1.235 . S
O6 Fe0 2.002 . S
O6 C7 1.295 . S
C7 O6 1.295 . S
C7 O9 1.235 . S
C8 O13 1.287 . S
C8 O14 1.255 . S
O9 Fe1 1.997 . S
O9 C7 1.235 . S
C10 O16 1.286 . S
C10 O17 1.255 . S
O11 Fe0 1.976 . S
O11 C18 1.287 . S
O12 Fe1 1.996 . S
O12 C18 1.255 . S
O13 Fe3 1.976 . S
O13 C8 1.287 . S
O14 Fe0 1.996 . S
O14 C8 1.255 . S
C15 O19 1.295 . S
C15 O20 1.235 . S
O16 Fe1 1.978 1_556 S
O16 C10 1.286 . S
O17 Fe3 1.996 1_556 S
O17 C10 1.255 . S
C18 O11 1.287 . S
C18 O12 1.255 . S
O19 Fe1 2.002 . S
O19 C15 1.295 . S
O20 Fe3 1.997 . S
O20 C15 1.235 . S
C21 O4 1.295 . S
C21 O5 1.235 . S
Fe22 O24 1.918 . S
Fe22 O27 1.997 . S
Fe22 O28 2.002 . S
Fe22 O33 1.976 . S
Fe22 O36 1.996 . S
Fe23 O24 1.918 . S
Fe23 O31 1.997 . S
Fe23 O34 1.996 . S
Fe23 O38 1.976 . S
Fe23 O41 2.002 . S
O24 Fe22 1.918 . S
O24 Fe23 1.918 . S
O24 Fe25 1.918 . S
Fe25 O24 1.918 . S
Fe25 O26 2.002 . S
Fe25 O35 1.976 . S
Fe25 O39 1.996 . S
Fe25 O42 1.997 . S
O26 Fe25 2.002 . S
O26 C43 1.295 . S
O27 Fe22 1.997 . S
O27 C43 1.235 . S
O28 Fe22 2.002 . S
O28 C29 1.295 . S
C29 O28 1.295 . S
C29 O31 1.235 . S
C30 O35 1.287 . S
C30 O36 1.255 . S
O31 Fe23 1.997 . S
O31 C29 1.235 . S
C32 O38 1.287 . S
C32 O39 1.255 . S
O33 Fe22 1.976 . S
O33 C40 1.287 . S
O34 Fe23 1.996 . S
O34 C40 1.255 . S
O35 Fe25 1.976 . S
O35 C30 1.287 . S
O36 Fe22 1.996 . S
O36 C30 1.255 . S
C37 O41 1.295 . S
C37 O42 1.235 . S
O38 Fe23 1.976 . S
O38 C32 1.287 . S
O39 Fe25 1.996 . S
O39 C32 1.255 . S
C40 O33 1.287 . S
C40 O34 1.255 . S
O41 Fe23 2.002 . S
O41 C37 1.295 . S
O42 Fe25 1.997 . S
O42 C37 1.235 . S
C43 O26 1.295 . S
C43 O27 1.235 . S
Fe44 O46 1.918 . S
Fe44 O49 1.997 1_554 S
Fe44 O50 2.002 1_554 S
Fe44 O55 1.976 . S
Fe44 O58 1.996 . S
Fe45 O46 1.918 . S
Fe45 O53 1.997 1_554 S
Fe45 O56 1.996 . S
Fe45 O60 1.976 . S
Fe45 O63 2.002 1_554 S
O46 Fe44 1.918 . S
O46 Fe45 1.918 . S
O46 Fe47 1.918 1_554 S
Fe47 O46 1.918 1_556 S
Fe47 O48 2.002 . S
Fe47 O57 1.976 1_556 S
Fe47 O61 1.996 1_556 S
Fe47 O64 1.997 . S
O48 Fe47 2.002 . S
O48 C65 1.295 . S
O49 Fe44 1.997 1_556 S
O49 C65 1.235 . S
O50 Fe44 2.002 1_556 S
O50 C51 1.295 . S
C51 O50 1.295 . S
C51 O53 1.235 . S
C52 O57 1.287 . S
C52 O58 1.255 . S
O53 Fe45 1.997 1_556 S
O53 C51 1.235 . S
C54 O60 1.287 . S
C54 O61 1.255 . S
O55 Fe44 1.976 . S
O55 C62 1.287 . S
O56 Fe45 1.996 . S
O56 C62 1.255 . S
O57 Fe47 1.976 1_554 S
O57 C52 1.287 . S
O58 Fe44 1.996 . S
O58 C52 1.255 . S
C59 O63 1.295 . S
C59 O64 1.235 . S
O60 Fe45 1.976 . S
O60 C54 1.287 . S
O61 Fe47 1.996 1_554 S
O61 C54 1.255 . S
C62 O55 1.287 . S
C62 O56 1.255 . S
O63 Fe45 2.002 1_556 S
O63 C59 1.295 . S
O64 Fe47 1.997 . S
O64 C59 1.235 . S
C65 O48 1.295 . S
C65 O49 1.235 . S
Fe66 O68 1.918 . S
Fe66 O71 1.997 . S
Fe66 O72 2.002 . S
Fe66 O77 1.976 . S
Fe66 O80 1.996 . S
Fe67 O68 1.918 . S
Fe67 O75 1.997 . S
Fe67 O78 1.996 . S
Fe67 O82 1.976 . S
Fe67 O85 2.002 . S
O68 Fe66 1.918 . S
O68 Fe67 1.918 . S
O68 Fe69 1.918 . S
Fe69 O68 1.918 . S
Fe69 O70 2.002 . S
Fe69 O79 1.976 . S
Fe69 O83 1.996 . S
Fe69 O86 1.997 . S
O70 Fe69 2.002 . S
O70 C87 1.295 . S
O71 Fe66 1.997 . S
O71 C87 1.235 . S
O72 Fe66 2.002 . S
O72 C73 1.295 . S
C73 O72 1.295 . S
C73 O75 1.235 . S
C74 O79 1.287 . S
C74 O80 1.255 . S
O75 Fe67 1.997 . S
O75 C73 1.235 . S
C76 O82 1.287 . S
C76 O83 1.255 . S
O77 Fe66 1.976 . S
O77 C84 1.287 . S
O78 Fe67 1.996 . S
O78 C84 1.255 . S
O79 Fe69 1.976 . S
O79 C74 1.287 . S
O80 Fe66 1.996 . S
O80 C74 1.255 . S
C81 O85 1.295 . S
C81 O86 1.235 . S
O82 Fe67 1.976 . S
O82 C76 1.287 . S
O83 Fe69 1.996 . S
O83 C76 1.255 . S
C84 O77 1.287 . S
C84 O78 1.255 . S
O85 Fe67 2.002 . S
O85 C81 1.295 . S
O86 Fe69 1.997 . S
O86 C81 1.235 . S
C87 O70 1.295 . S
C87 O71 1.235 . S
P88 O99 1.490 . S
P88 C102 1.812 . S
P88 C108 1.803 . S
P88 C114 1.819 . S
H89 C103 0.941 . S
H90 C104 0.939 . S
H91 C106 0.940 . S
H92 C107 0.940 . S
H93 C109 0.939 . S
H94 C110 0.942 . S
H95 C112 0.940 . S
H96 C113 0.939 . S
H97 C115 0.941 1_655 S
H98 C119 0.939 . S
O99 P88 1.490 . S
H100 C116 0.939 . S
H101 C118 0.940 . S
C102 P88 1.812 . S
C102 C103 1.389 . S
C102 C107 1.391 . S
C103 H89 0.941 . S
C103 C102 1.389 . S
C103 C104 1.397 . S
C104 H90 0.939 . S
C104 C103 1.397 . S
C104 C105 1.378 . S
C105 C104 1.378 . S
C105 C106 1.378 . S
C106 H91 0.940 . S
C106 C105 1.378 . S
C106 C107 1.396 . S
C107 H92 0.940 . S
C107 C102 1.391 . S
C107 C106 1.396 . S
C108 P88 1.803 . S
C108 C109 1.378 . S
C108 C113 1.400 . S
C109 H93 0.939 . S
C109 C108 1.378 . S
C109 C110 1.361 . S
C110 H94 0.942 . S
C110 C109 1.361 . S
C110 C111 1.369 . S
C111 C110 1.369 . S
C111 C112 1.404 . S
C112 H95 0.940 . S
C112 C111 1.404 . S
C112 C113 1.389 . S
C113 H96 0.939 . S
C113 C108 1.400 . S
C113 C112 1.389 . S
C114 P88 1.819 . S
C114 C115 1.391 . S
C114 C119 1.391 . S
C115 H97 0.941 1_455 S
C115 C114 1.391 . S
C115 C116 1.396 1_455 S
C116 H100 0.939 . S
C116 C115 1.396 1_655 S
C116 C117 1.397 . S
C117 C116 1.397 . S
C117 C118 1.385 1_655 S
C118 H101 0.940 . S
C118 C117 1.385 1_455 S
C118 C119 1.388 . S
C119 H98 0.939 . S
C119 C114 1.391 . S
C119 C118 1.388 . S
P120 O131 1.490 . S
P120 C134 1.812 . S
P120 C140 1.803 . S
P120 C146 1.819 . S
H121 C135 0.941 . S
H122 C136 0.939 . S
H123 C138 0.940 . S
H124 C139 0.940 . S
H125 C141 0.939 . S
H126 C142 0.942 . S
H127 C144 0.940 . S
H128 C145 0.939 . S
H129 C147 0.941 . S
H130 C151 0.939 . S
O131 P120 1.490 . S
H132 C148 0.939 . S
H133 C150 0.940 . S
C134 P120 1.812 . S
C134 C135 1.389 . S
C134 C139 1.391 . S
C135 H121 0.941 . S
C135 C134 1.389 . S
C135 C136 1.397 . S
C136 H122 0.939 . S
C136 C135 1.397 . S
C136 C137 1.378 . S
C137 C136 1.378 . S
C137 C138 1.378 . S
C138 H123 0.940 . S
C138 C137 1.378 . S
C138 C139 1.396 . S
C139 H124 0.940 . S
C139 C134 1.391 . S
C139 C138 1.396 . S
C140 P120 1.803 . S
C140 C141 1.378 . S
C140 C145 1.400 . S
C141 H125 0.939 . S
C141 C140 1.378 . S
C141 C142 1.361 . S
C142 H126 0.942 . S
C142 C141 1.361 . S
C142 C143 1.369 . S
C143 C142 1.369 . S
C143 C144 1.404 . S
C144 H127 0.940 . S
C144 C143 1.404 . S
C144 C145 1.389 . S
C145 H128 0.939 . S
C145 C140 1.400 . S
C145 C144 1.389 . S
C146 P120 1.819 . S
C146 C147 1.391 . S
C146 C151 1.391 . S
C147 H129 0.941 . S
C147 C146 1.391 . S
C147 C148 1.396 . S
C148 H132 0.939 . S
C148 C147 1.396 . S
C148 C149 1.397 . S
C149 C148 1.397 . S
C149 C150 1.385 . S
C150 H133 0.940 . S
C150 C149 1.385 . S
C150 C151 1.388 . S
C151 H130 0.939 . S
C151 C146 1.391 . S
C151 C150 1.388 . S
P152 O163 1.490 . S
P152 C166 1.812 . S
P152 C172 1.803 . S
P152 C178 1.819 . S
H153 C167 0.941 . S
H154 C168 0.939 . S
H155 C170 0.940 . S
H156 C171 0.940 . S
H157 C173 0.939 . S
H158 C174 0.942 . S
H159 C176 0.940 . S
H160 C177 0.939 . S
H161 C179 0.941 . S
H162 C183 0.939 . S
O163 P152 1.490 . S
H164 C180 0.939 . S
H165 C182 0.940 . S
C166 P152 1.812 . S
C166 C167 1.389 . S
C166 C171 1.391 . S
C167 H153 0.941 . S
C167 C166 1.389 . S
C167 C168 1.397 . S
C168 H154 0.939 . S
C168 C167 1.397 . S
C168 C169 1.378 . S
C169 C168 1.378 . S
C169 C170 1.378 . S
C170 H155 0.940 . S
C170 C169 1.378 . S
C170 C171 1.396 . S
C171 H156 0.940 . S
C171 C166 1.391 . S
C171 C170 1.396 . S
C172 P152 1.803 . S
C172 C173 1.378 . S
C172 C177 1.400 . S
C173 H157 0.939 . S
C173 C172 1.378 . S
C173 C174 1.361 . S
C174 H158 0.942 . S
C174 C173 1.361 . S
C174 C175 1.369 . S
C175 C174 1.369 . S
C175 C176 1.404 . S
C176 H159 0.940 . S
C176 C175 1.404 . S
C176 C177 1.389 . S
C177 H160 0.939 . S
C177 C172 1.400 . S
C177 C176 1.389 . S
C178 P152 1.819 . S
C178 C179 1.391 . S
C178 C183 1.391 . S
C179 H161 0.941 . S
C179 C178 1.391 . S
C179 C180 1.396 . S
C180 H164 0.939 . S
C180 C179 1.396 . S
C180 C181 1.397 . S
C181 C180 1.397 . S
C181 C182 1.385 . S
C182 H165 0.940 . S
C182 C181 1.385 . S
C182 C183 1.388 . S
C183 H162 0.939 . S
C183 C178 1.391 . S
C183 C182 1.388 . S
P184 O195 1.490 . S
P184 C198 1.812 . S
P184 C204 1.803 . S
P184 C210 1.819 . S
H185 C199 0.941 . S
H186 C200 0.939 . S
H187 C202 0.940 . S
H188 C203 0.940 . S
H189 C205 0.939 . S
H190 C206 0.942 . S
H191 C208 0.940 . S
H192 C209 0.939 . S
H193 C211 0.941 . S
H194 C215 0.939 . S
O195 P184 1.490 . S
H196 C212 0.939 . S
H197 C214 0.940 . S
C198 P184 1.812 . S
C198 C199 1.389 . S
C198 C203 1.391 . S
C199 H185 0.941 . S
C199 C198 1.389 . S
C199 C200 1.397 . S
C200 H186 0.939 . S
C200 C199 1.397 . S
C200 C201 1.378 . S
C201 C200 1.378 . S
C201 C202 1.378 . S
C202 H187 0.940 . S
C202 C201 1.378 . S
C202 C203 1.396 . S
C203 H188 0.940 . S
C203 C198 1.391 . S
C203 C202 1.396 . S
C204 P184 1.803 . S
C204 C205 1.378 . S
C204 C209 1.400 . S
C205 H189 0.939 . S
C205 C204 1.378 . S
C205 C206 1.361 . S
C206 H190 0.942 . S
C206 C205 1.361 . S
C206 C207 1.369 . S
C207 C206 1.369 . S
C207 C208 1.404 . S
C208 H191 0.940 . S
C208 C207 1.404 . S
C208 C209 1.389 . S
C209 H192 0.939 . S
C209 C204 1.400 . S
C209 C208 1.389 . S
C210 P184 1.819 . S
C210 C211 1.391 . S
C210 C215 1.391 . S
C211 H193 0.941 . S
C211 C210 1.391 . S
C211 C212 1.396 . S
C212 H196 0.939 . S
C212 C211 1.396 . S
C212 C213 1.397 . S
C213 C212 1.397 . S
C213 C214 1.385 . S
C214 H197 0.940 . S
C214 C213 1.385 . S
C214 C215 1.388 . S
C215 H194 0.939 . S
C215 C210 1.391 . S
C215 C214 1.388 . S
P216 O227 1.490 . S
P216 C230 1.812 . S
P216 C236 1.803 . S
P216 C242 1.819 . S
H217 C231 0.941 . S
H218 C232 0.939 . S
H219 C234 0.940 . S
H220 C235 0.940 . S
H221 C237 0.939 . S
H222 C238 0.942 . S
H223 C240 0.940 . S
H224 C241 0.939 . S
H225 C243 0.941 . S
H226 C247 0.939 . S
O227 P216 1.490 . S
H228 C244 0.939 . S
H229 C246 0.940 . S
C230 P216 1.812 . S
C230 C231 1.389 . S
C230 C235 1.391 . S
C231 H217 0.941 . S
C231 C230 1.389 . S
C231 C232 1.397 . S
C232 H218 0.939 . S
C232 C231 1.397 . S
C232 C233 1.378 . S
C233 C232 1.378 . S
C233 C234 1.378 . S
C234 H219 0.940 . S
C234 C233 1.378 . S
C234 C235 1.396 . S
C235 H220 0.940 . S
C235 C230 1.391 . S
C235 C234 1.396 . S
C236 P216 1.803 . S
C236 C237 1.378 . S
C236 C241 1.400 . S
C237 H221 0.939 . S
C237 C236 1.378 . S
C237 C238 1.361 . S
C238 H222 0.942 . S
C238 C237 1.361 . S
C238 C239 1.369 . S
C239 C238 1.369 . S
C239 C240 1.404 . S
C240 H223 0.940 . S
C240 C239 1.404 . S
C240 C241 1.389 . S
C241 H224 0.939 . S
C241 C236 1.400 . S
C241 C240 1.389 . S
C242 P216 1.819 . S
C242 C243 1.391 . S
C242 C247 1.391 . S
C243 H225 0.941 . S
C243 C242 1.391 . S
C243 C244 1.396 . S
C244 H228 0.939 . S
C244 C243 1.396 . S
C244 C245 1.397 . S
C245 C244 1.397 . S
C245 C246 1.385 . S
C246 H229 0.940 . S
C246 C245 1.385 . S
C246 C247 1.388 . S
C247 H226 0.939 . S
C247 C242 1.391 . S
C247 C246 1.388 . S
P248 O259 1.490 . S
P248 C262 1.812 . S
P248 C268 1.803 . S
P248 C274 1.819 . S
H249 C263 0.941 . S
H250 C264 0.939 . S
H251 C266 0.940 . S
H252 C267 0.940 . S
H253 C269 0.939 . S
H254 C270 0.942 . S
H255 C272 0.940 . S
H256 C273 0.939 . S
H257 C275 0.941 1_554 S
H258 C279 0.939 . S
O259 P248 1.490 . S
H260 C276 0.939 1_554 S
H261 C278 0.940 . S
C262 P248 1.812 . S
C262 C263 1.389 . S
C262 C267 1.391 . S
C263 H249 0.941 . S
C263 C262 1.389 . S
C263 C264 1.397 . S
C264 H250 0.939 . S
C264 C263 1.397 . S
C264 C265 1.378 . S
C265 C264 1.378 . S
C265 C266 1.378 . S
C266 H251 0.940 . S
C266 C265 1.378 . S
C266 C267 1.396 . S
C267 H252 0.940 . S
C267 C262 1.391 . S
C267 C266 1.396 . S
C268 P248 1.803 . S
C268 C269 1.378 . S
C268 C273 1.400 . S
C269 H253 0.939 . S
C269 C268 1.378 . S
C269 C270 1.361 . S
C270 H254 0.942 . S
C270 C269 1.361 . S
C270 C271 1.369 . S
C271 C270 1.369 . S
C271 C272 1.404 . S
C272 H255 0.940 . S
C272 C271 1.404 . S
C272 C273 1.389 . S
C273 H256 0.939 . S
C273 C268 1.400 . S
C273 C272 1.389 . S
C274 P248 1.819 . S
C274 C275 1.391 . S
C274 C279 1.391 . S
C275 H257 0.941 1_556 S
C275 C274 1.391 . S
C275 C276 1.396 . S
C276 H260 0.939 1_556 S
C276 C275 1.396 . S
C276 C277 1.397 . S
C277 C276 1.397 . S
C277 C278 1.385 . S
C278 H261 0.940 . S
C278 C277 1.385 . S
C278 C279 1.388 . S
C279 H258 0.939 . S
C279 C274 1.391 . S
C279 C278 1.388 . S
P280 O291 1.490 . S
P280 C294 1.812 . S
P280 C300 1.803 . S
P280 C306 1.819 . S
H281 C295 0.941 . S
H282 C296 0.939 . S
H283 C298 0.940 . S
H284 C299 0.940 . S
H285 C301 0.939 . S
H286 C302 0.942 . S
H287 C304 0.940 . S
H288 C305 0.939 . S
H289 C307 0.941 . S
H290 C311 0.939 . S
O291 P280 1.490 . S
H292 C308 0.939 . S
H293 C310 0.940 . S
C294 P280 1.812 . S
C294 C295 1.389 . S
C294 C299 1.391 . S
C295 H281 0.941 . S
C295 C294 1.389 . S
C295 C296 1.397 . S
C296 H282 0.939 . S
C296 C295 1.397 . S
C296 C297 1.378 . S
C297 C296 1.378 . S
C297 C298 1.378 . S
C298 H283 0.940 . S
C298 C297 1.378 . S
C298 C299 1.396 . S
C299 H284 0.940 . S
C299 C294 1.391 . S
C299 C298 1.396 . S
C300 P280 1.803 . S
C300 C301 1.378 . S
C300 C305 1.400 . S
C301 H285 0.939 . S
C301 C300 1.378 . S
C301 C302 1.361 . S
C302 H286 0.942 . S
C302 C301 1.361 . S
C302 C303 1.369 . S
C303 C302 1.369 . S
C303 C304 1.404 . S
C304 H287 0.940 . S
C304 C303 1.404 . S
C304 C305 1.389 . S
C305 H288 0.939 . S
C305 C300 1.400 . S
C305 C304 1.389 . S
C306 P280 1.819 . S
C306 C307 1.391 . S
C306 C311 1.391 . S
C307 H289 0.941 . S
C307 C306 1.391 . S
C307 C308 1.396 . S
C308 H292 0.939 . S
C308 C307 1.396 . S
C308 C309 1.397 . S
C309 C308 1.397 . S
C309 C310 1.385 . S
C310 H293 0.940 . S
C310 C309 1.385 . S
C310 C311 1.388 . S
C311 H290 0.939 . S
C311 C306 1.391 . S
C311 C310 1.388 . S
P312 O323 1.490 . S
P312 C326 1.812 . S
P312 C332 1.803 . S
P312 C338 1.819 . S
H313 C327 0.941 . S
H314 C328 0.939 . S
H315 C330 0.940 . S
H316 C331 0.940 . S
H317 C333 0.939 . S
H318 C334 0.942 . S
H319 C336 0.940 . S
H320 C337 0.939 . S
H321 C339 0.941 . S
H322 C343 0.939 . S
O323 P312 1.490 . S
H324 C340 0.939 . S
H325 C342 0.940 . S
C326 P312 1.812 . S
C326 C327 1.389 . S
C326 C331 1.391 . S
C327 H313 0.941 . S
C327 C326 1.389 . S
C327 C328 1.397 . S
C328 H314 0.939 . S
C328 C327 1.397 . S
C328 C329 1.378 . S
C329 C328 1.378 . S
C329 C330 1.378 . S
C330 H315 0.940 . S
C330 C329 1.378 . S
C330 C331 1.396 . S
C331 H316 0.940 . S
C331 C326 1.391 . S
C331 C330 1.396 . S
C332 P312 1.803 . S
C332 C333 1.378 . S
C332 C337 1.400 . S
C333 H317 0.939 . S
C333 C332 1.378 . S
C333 C334 1.361 . S
C334 H318 0.942 . S
C334 C333 1.361 . S
C334 C335 1.369 . S
C335 C334 1.369 . S
C335 C336 1.404 . S
C336 H319 0.940 . S
C336 C335 1.404 . S
C336 C337 1.389 . S
C337 H320 0.939 . S
C337 C332 1.400 . S
C337 C336 1.389 . S
C338 P312 1.819 . S
C338 C339 1.391 . S
C338 C343 1.391 . S
C339 H321 0.941 . S
C339 C338 1.391 . S
C339 C340 1.396 . S
C340 H324 0.939 . S
C340 C339 1.396 . S
C340 C341 1.397 . S
C341 C340 1.397 . S
C341 C342 1.385 . S
C342 H325 0.940 . S
C342 C341 1.385 . S
C342 C343 1.388 . S
C343 H322 0.939 . S
C343 C338 1.391 . S
C343 C342 1.388 . S
H344 C352 0.950 . S
H345 C357 0.950 . S
H346 C354 0.950 . S
H347 C356 0.950 . S
H348 C358 0.950 . S
H349 C360 0.950 . S
H350 C362 0.950 . S
H351 C363 0.950 . S
C352 H344 0.950 . S
C352 C353 1.386 . S
C352 C354 1.391 . S
C353 C352 1.386 . S
C353 C357 1.393 . S
C354 H346 0.950 . S
C354 C352 1.391 . S
C354 C355 1.400 . S
C355 C354 1.400 . S
C355 C356 1.398 . S
C355 C361 1.491 . S
C356 H347 0.950 . S
C356 C355 1.398 . S
C356 C357 1.391 . S
C357 H345 0.950 . S
C357 C353 1.393 . S
C357 C356 1.391 . S
C358 H348 0.950 . S
C358 C359 1.386 . S
C358 C360 1.391 . S
C359 C358 1.386 . S
C359 C363 1.393 1_545 S
C360 H349 0.950 . S
C360 C358 1.391 . S
C360 C361 1.400 1_545 S
C361 C355 1.491 . S
C361 C360 1.400 1_565 S
C361 C362 1.398 . S
C362 H350 0.950 . S
C362 C361 1.398 . S
C362 C363 1.391 . S
C363 H351 0.950 . S
C363 C359 1.393 1_565 S
C363 C362 1.391 . S
H364 C372 0.950 . S
H365 C377 0.950 . S
H366 C374 0.950 . S
H367 C376 0.950 . S
H368 C378 0.950 . S
H369 C380 0.950 . S
H370 C382 0.950 . S
H371 C383 0.950 . S
C372 H364 0.950 . S
C372 C373 1.386 . S
C372 C374 1.391 . S
C373 C372 1.386 . S
C373 C377 1.393 . S
C374 H366 0.950 . S
C374 C372 1.391 . S
C374 C375 1.400 . S
C375 C374 1.400 . S
C375 C376 1.398 . S
C375 C381 1.491 . S
C376 H367 0.950 . S
C376 C375 1.398 . S
C376 C377 1.391 . S
C377 H365 0.950 . S
C377 C373 1.393 . S
C377 C376 1.391 . S
C378 H368 0.950 . S
C378 C379 1.386 . S
C378 C380 1.391 . S
C379 C378 1.386 . S
C379 C383 1.393 . S
C380 H369 0.950 . S
C380 C378 1.391 . S
C380 C381 1.400 . S
C381 C375 1.491 . S
C381 C380 1.400 . S
C381 C382 1.398 . S
C382 H370 0.950 . S
C382 C381 1.398 . S
C382 C383 1.391 . S
C383 H371 0.950 . S
C383 C379 1.393 . S
C383 C382 1.391 . S
H384 C392 0.950 . S
H385 C397 0.950 . S
H386 C394 0.950 . S
H387 C396 0.950 . S
H388 C398 0.950 . S
H389 C400 0.950 . S
H390 C402 0.950 . S
H391 C403 0.950 . S
C392 H384 0.950 . S
C392 C393 1.386 . S
C392 C394 1.391 . S
C393 C392 1.386 . S
C393 C397 1.393 . S
C394 H386 0.950 . S
C394 C392 1.391 . S
C394 C395 1.400 . S
C395 C394 1.400 . S
C395 C396 1.398 . S
C395 C401 1.491 1_545 S
C396 H387 0.950 . S
C396 C395 1.398 . S
C396 C397 1.391 . S
C397 H385 0.950 . S
C397 C393 1.393 . S
C397 C396 1.391 . S
C398 H388 0.950 . S
C398 C399 1.386 . S
C398 C400 1.391 . S
C399 C398 1.386 . S
C399 C403 1.393 . S
C400 H389 0.950 . S
C400 C398 1.391 . S
C400 C401 1.400 . S
C401 C395 1.491 1_565 S
C401 C400 1.400 . S
C401 C402 1.398 . S
C402 H390 0.950 . S
C402 C401 1.398 . S
C402 C403 1.391 . S
C403 H391 0.950 . S
C403 C399 1.393 . S
C403 C402 1.391 . S
H404 C412 0.950 . S
H405 C417 0.950 . S
H406 C414 0.950 . S
H407 C416 0.950 . S
H408 C418 0.950 . S
H409 C420 0.950 . S
H410 C422 0.950 . S
H411 C423 0.950 . S
C412 H404 0.950 . S
C412 C413 1.386 . S
C412 C414 1.391 . S
C413 C412 1.386 . S
C413 C417 1.393 . S
C414 H406 0.950 . S
C414 C412 1.391 . S
C414 C415 1.400 . S
C415 C414 1.400 . S
C415 C416 1.398 . S
C415 C421 1.491 . S
C416 H407 0.950 . S
C416 C415 1.398 . S
C416 C417 1.391 . S
C417 H405 0.950 . S
C417 C413 1.393 . S
C417 C416 1.391 . S
C418 H408 0.950 . S
C418 C419 1.386 . S
C418 C420 1.391 . S
C419 C418 1.386 . S
C419 C423 1.393 . S
C420 H409 0.950 . S
C420 C418 1.391 . S
C420 C421 1.400 . S
C421 C415 1.491 . S
C421 C420 1.400 . S
C421 C422 1.398 . S
C422 H410 0.950 . S
C422 C421 1.398 . S
C422 C423 1.391 . S
C423 H411 0.950 . S
C423 C419 1.393 . S
C423 C422 1.391 . S
H424 C432 0.950 . S
H425 C437 0.950 . S
H426 C434 0.950 . S
H427 C436 0.950 . S
H428 C438 0.950 . S
H429 C440 0.950 . S
H430 C442 0.950 . S
H431 C443 0.950 . S
C432 H424 0.950 . S
C432 C433 1.386 . S
C432 C434 1.391 . S
C433 C432 1.386 . S
C433 C437 1.393 . S
C434 H426 0.950 . S
C434 C432 1.391 . S
C434 C435 1.400 . S
C435 C434 1.400 . S
C435 C436 1.398 . S
C435 C441 1.491 . S
C436 H427 0.950 . S
C436 C435 1.398 . S
C436 C437 1.391 . S
C437 H425 0.950 . S
C437 C433 1.393 . S
C437 C436 1.391 . S
C438 H428 0.950 . S
C438 C439 1.386 . S
C438 C440 1.391 . S
C439 C438 1.386 . S
C439 C443 1.393 . S
C440 H429 0.950 . S
C440 C438 1.391 . S
C440 C441 1.400 . S
C441 C435 1.491 . S
C441 C440 1.400 . S
C441 C442 1.398 . S
C442 H430 0.950 . S
C442 C441 1.398 . S
C442 C443 1.391 . S
C443 H431 0.950 . S
C443 C439 1.393 . S
C443 C442 1.391 . S
H444 C452 0.950 . S
H445 C457 0.950 1_554 S
H446 C454 0.936 1_455 S
H447 C456 0.951 1_454 S
H448 C458 0.950 . S
H449 C460 0.950 1_554 S
H450 C462 0.950 . S
H451 C463 0.950 . S
C452 H444 0.950 . S
C452 C453 1.386 . S
C452 C454 1.419 . S
C453 C452 1.386 . S
C453 C457 1.393 . S
C454 H446 0.936 1_655 S
C454 C452 1.419 . S
C454 C455 1.386 1_655 S
C455 C454 1.386 1_455 S
C455 C456 1.400 1_455 S
C455 C461 1.491 . S
C456 H447 0.951 1_656 S
C456 C455 1.400 1_655 S
C456 C457 1.388 . S
C457 H445 0.950 1_556 S
C457 C453 1.393 . S
C457 C456 1.388 . S
C458 H448 0.950 . S
C458 C459 1.386 . S
C458 C460 1.391 . S
C459 C458 1.386 . S
C459 C463 1.393 . S
C460 H449 0.950 1_556 S
C460 C458 1.391 . S
C460 C461 1.400 . S
C461 C455 1.491 . S
C461 C460 1.400 . S
C461 C462 1.398 . S
C462 H450 0.950 . S
C462 C461 1.398 . S
C462 C463 1.391 . S
C463 H451 0.950 . S
C463 C459 1.393 . S
C463 C462 1.391 . S
H464 C472 0.950 . S
H465 C477 0.950 . S
H466 C474 0.950 . S
H467 C476 0.950 . S
H468 C478 0.950 . S
H469 C480 0.950 . S
H470 C482 0.950 . S
H471 C483 0.950 . S
C472 H464 0.950 . S
C472 C473 1.386 . S
C472 C474 1.391 . S
C473 C472 1.386 . S
C473 C477 1.393 . S
C474 H466 0.950 . S
C474 C472 1.391 . S
C474 C475 1.400 . S
C475 C474 1.400 . S
C475 C476 1.398 . S
C475 C481 1.491 . S
C476 H467 0.950 . S
C476 C475 1.398 . S
C476 C477 1.391 . S
C477 H465 0.950 . S
C477 C473 1.393 . S
C477 C476 1.391 . S
C478 H468 0.950 . S
C478 C479 1.386 . S
C478 C480 1.391 . S
C479 C478 1.386 . S
C479 C483 1.393 . S
C480 H469 0.950 . S
C480 C478 1.391 . S
C480 C481 1.400 . S
C481 C475 1.491 . S
C481 C480 1.400 . S
C481 C482 1.398 . S
C482 H470 0.950 . S
C482 C481 1.398 . S
C482 C483 1.391 . S
C483 H471 0.950 . S
C483 C479 1.393 . S
C483 C482 1.391 . S
H484 C492 0.950 . S
H485 C497 0.950 . S
H486 C494 0.950 . S
H487 C496 0.950 . S
H488 C498 0.950 . S
H489 C500 0.950 . S
H490 C502 0.950 . S
H491 C503 0.950 1_655 S
C492 H484 0.950 . S
C492 C493 1.386 . S
C492 C494 1.391 . S
C493 C492 1.386 . S
C493 C497 1.393 . S
C494 H486 0.950 . S
C494 C492 1.391 . S
C494 C495 1.400 . S
C495 C494 1.400 . S
C495 C496 1.398 . S
C495 C501 1.491 . S
C496 H487 0.950 . S
C496 C495 1.398 . S
C496 C497 1.391 . S
C497 H485 0.950 . S
C497 C493 1.393 . S
C497 C496 1.391 . S
C498 H488 0.950 . S
C498 C499 1.386 . S
C498 C500 1.391 . S
C499 C498 1.386 . S
C499 C503 1.393 . S
C500 H489 0.950 . S
C500 C498 1.391 . S
C500 C501 1.400 . S
C501 C495 1.491 . S
C501 C500 1.400 . S
C501 C502 1.398 . S
C502 H490 0.950 . S
C502 C501 1.398 . S
C502 C503 1.391 . S
C503 H491 0.950 1_455 S
C503 C499 1.393 . S
C503 C502 1.391 . S
H504 C512 0.950 . S
H505 C517 0.950 . S
H506 C514 0.950 . S
H507 C516 0.950 . S
H508 C518 0.950 . S
H509 C520 0.950 . S
H510 C522 0.950 . S
H511 C523 0.950 . S
C512 H504 0.950 . S
C512 C513 1.386 . S
C512 C514 1.391 . S
C513 C512 1.386 . S
C513 C517 1.393 . S
C514 H506 0.950 . S
C514 C512 1.391 . S
C514 C515 1.400 . S
C515 C514 1.400 . S
C515 C516 1.398 . S
C515 C521 1.491 . S
C516 H507 0.950 . S
C516 C515 1.398 . S
C516 C517 1.391 . S
C517 H505 0.950 . S
C517 C513 1.393 . S
C517 C516 1.391 . S
C518 H508 0.950 . S
C518 C519 1.386 . S
C518 C520 1.391 1_565 S
C519 C518 1.386 . S
C519 C523 1.393 1_565 S
C520 H509 0.950 . S
C520 C518 1.391 1_545 S
C520 C521 1.400 . S
C521 C515 1.491 . S
C521 C520 1.400 . S
C521 C522 1.398 . S
C522 H510 0.950 . S
C522 C521 1.398 . S
C522 C523 1.391 . S
C523 H511 0.950 . S
C523 C519 1.393 1_545 S
C523 C522 1.391 . S
H524 C532 0.950 . S
H525 C537 0.950 . S
H526 C534 0.950 . S
H527 C536 0.950 . S
H528 C538 0.950 . S
H529 C540 0.950 . S
H530 C542 0.950 . S
H531 C543 0.950 . S
C532 H524 0.950 . S
C532 C533 1.386 . S
C532 C534 1.391 . S
C533 C532 1.386 . S
C533 C537 1.393 . S
C534 H526 0.950 . S
C534 C532 1.391 . S
C534 C535 1.400 . S
C535 C534 1.400 . S
C535 C536 1.398 . S
C535 C541 1.491 . S
C536 H527 0.950 . S
C536 C535 1.398 . S
C536 C537 1.391 . S
C537 H525 0.950 . S
C537 C533 1.393 . S
C537 C536 1.391 . S
C538 H528 0.950 . S
C538 C539 1.386 . S
C538 C540 1.391 . S
C539 C538 1.386 . S
C539 C543 1.393 . S
C540 H529 0.950 . S
C540 C538 1.391 . S
C540 C541 1.400 . S
C541 C535 1.491 . S
C541 C540 1.400 . S
C541 C542 1.398 . S
C542 H530 0.950 . S
C542 C541 1.398 . S
C542 C543 1.391 . S
C543 H531 0.950 . S
C543 C539 1.393 . S
C543 C542 1.391 . S
H544 C552 0.950 . S
H545 C557 0.950 . S
H546 C554 0.950 . S
H547 C556 0.950 . S
H548 C558 0.950 . S
H549 C560 0.950 . S
H550 C562 0.950 1_565 S
H551 C563 0.950 . S
C552 H544 0.950 . S
C552 C553 1.386 1_556 S
C552 C554 1.391 . S
C553 C552 1.386 1_554 S
C553 C557 1.393 . S
C554 H546 0.950 . S
C554 C552 1.391 . S
C554 C555 1.400 . S
C555 C554 1.400 . S
C555 C556 1.398 1_556 S
C555 C561 1.491 1_565 S
C556 H547 0.950 . S
C556 C555 1.398 1_554 S
C556 C557 1.391 . S
C557 H545 0.950 . S
C557 C553 1.393 . S
C557 C556 1.391 . S
C558 H548 0.950 . S
C558 C559 1.386 . S
C558 C560 1.391 . S
C559 C558 1.386 . S
C559 C563 1.393 . S
C560 H549 0.950 . S
C560 C558 1.391 . S
C560 C561 1.400 . S
C561 C555 1.491 1_545 S
C561 C560 1.400 . S
C561 C562 1.398 . S
C562 H550 0.950 1_545 S
C562 C561 1.398 . S
C562 C563 1.391 . S
C563 H551 0.950 . S
C563 C559 1.393 . S
C563 C562 1.391 . S
H564 C572 0.950 . S
H565 C577 0.950 . S
H566 C574 0.950 . S
H567 C576 0.950 . S
H568 C578 0.950 . S
H569 C580 0.950 . S
H570 C582 0.950 . S
H571 C583 0.950 . S
C572 H564 0.950 . S
C572 C573 1.386 . S
C572 C574 1.391 . S
C573 C572 1.386 . S
C573 C577 1.393 . S
C574 H566 0.950 . S
C574 C572 1.391 . S
C574 C575 1.400 . S
C575 C574 1.400 . S
C575 C576 1.398 . S
C575 C581 1.491 . S
C576 H567 0.950 . S
C576 C575 1.398 . S
C576 C577 1.391 . S
C577 H565 0.950 . S
C577 C573 1.393 . S
C577 C576 1.391 . S
C578 H568 0.950 . S
C578 C579 1.386 . S
C578 C580 1.391 . S
C579 C578 1.386 . S
C579 C583 1.393 . S
C580 H569 0.950 . S
C580 C578 1.391 . S
C580 C581 1.400 . S
C581 C575 1.491 . S
C581 C580 1.400 . S
C581 C582 1.398 . S
C582 H570 0.950 . S
C582 C581 1.398 . S
C582 C583 1.391 . S
C583 H571 0.950 . S
C583 C579 1.393 . S
C583 C582 1.391 . S
H584 C592 0.950 . S
H585 C597 0.950 . S
H586 C594 0.950 . S
H587 C596 0.950 . S
H588 C598 0.950 . S
H589 C600 0.950 . S
H590 C602 0.950 . S
H591 C603 0.950 . S
C592 H584 0.950 . S
C592 C593 1.386 . S
C592 C594 1.391 . S
C593 C592 1.386 . S
C593 C597 1.393 . S
C594 H586 0.950 . S
C594 C592 1.391 . S
C594 C595 1.400 . S
C595 C594 1.400 . S
C595 C596 1.398 . S
C595 C601 1.491 . S
C596 H587 0.950 . S
C596 C595 1.398 . S
C596 C597 1.391 . S
C597 H585 0.950 . S
C597 C593 1.393 . S
C597 C596 1.391 . S
C598 H588 0.950 . S
C598 C599 1.386 . S
C598 C600 1.391 . S
C599 C598 1.386 . S
C599 C603 1.393 . S
C600 H589 0.950 . S
C600 C598 1.391 . S
C600 C601 1.400 . S
C601 C595 1.491 . S
C601 C600 1.400 . S
C601 C602 1.398 . S
C602 H590 0.950 . S
C602 C601 1.398 . S
C602 C603 1.391 . S
C603 H591 0.950 . S
C603 C599 1.393 . S
C603 C602 1.391 . S
H604 C612 0.950 . S
H605 C617 0.950 . S
H606 C614 0.950 . S
H607 C616 0.950 1_655 S
H608 C618 0.950 . S
H609 C620 0.950 . S
H610 C622 0.950 . S
H611 C623 0.950 . S
C612 H604 0.950 . S
C612 C613 1.386 . S
C612 C614 1.390 1_455 S
C613 C612 1.386 . S
C613 C617 1.393 . S
C614 H606 0.950 . S
C614 C612 1.390 1_655 S
C614 C615 1.401 . S
C615 C614 1.401 . S
C615 C616 1.398 1_655 S
C615 C621 1.491 . S
C616 H607 0.950 1_455 S
C616 C615 1.398 1_455 S
C616 C617 1.391 . S
C617 H605 0.950 . S
C617 C613 1.393 . S
C617 C616 1.391 . S
C618 H608 0.950 . S
C618 C619 1.386 . S
C618 C620 1.391 . S
C619 C618 1.386 . S
C619 C623 1.393 . S
C620 H609 0.950 . S
C620 C618 1.391 . S
C620 C621 1.400 . S
C621 C615 1.491 . S
C621 C620 1.400 . S
C621 C622 1.398 . S
C622 H610 0.950 . S
C622 C621 1.398 . S
C622 C623 1.391 . S
C623 H611 0.950 . S
C623 C619 1.393 . S
C623 C622 1.391 . S
H624 C632 0.950 . S
H625 C637 0.950 . S
H626 C634 0.950 . S
H627 C636 0.950 . S
H628 C638 0.950 . S
H629 C640 0.950 . S
H630 C642 0.950 . S
H631 C643 0.950 . S
C632 H624 0.950 . S
C632 C633 1.386 . S
C632 C634 1.391 . S
C633 C632 1.386 . S
C633 C637 1.393 . S
C634 H626 0.950 . S
C634 C632 1.391 . S
C634 C635 1.400 . S
C635 C634 1.400 . S
C635 C636 1.398 . S
C635 C641 1.491 . S
C636 H627 0.950 . S
C636 C635 1.398 . S
C636 C637 1.391 . S
C637 H625 0.950 . S
C637 C633 1.393 . S
C637 C636 1.391 . S
C638 H628 0.950 . S
C638 C639 1.386 . S
C638 C640 1.391 . S
C639 C638 1.386 . S
C639 C643 1.393 . S
C640 H629 0.950 . S
C640 C638 1.391 . S
C640 C641 1.400 . S
C641 C635 1.491 . S
C641 C640 1.400 . S
C641 C642 1.398 . S
C642 H630 0.950 . S
C642 C641 1.398 . S
C642 C643 1.391 . S
C643 H631 0.950 . S
C643 C639 1.393 . S
C643 C642 1.391 . S
H644 C652 0.950 . S
H645 C657 0.950 . S
H646 C654 0.950 . S
H647 C656 0.950 . S
H648 C658 0.950 . S
H649 C660 0.950 . S
H650 C662 0.950 . S
H651 C663 0.950 1_455 S
C652 H644 0.950 . S
C652 C653 1.386 . S
C652 C654 1.391 . S
C653 C652 1.386 . S
C653 C657 1.393 . S
C654 H646 0.950 . S
C654 C652 1.391 . S
C654 C655 1.400 . S
C655 C654 1.400 . S
C655 C656 1.398 . S
C655 C661 1.491 . S
C656 H647 0.950 . S
C656 C655 1.398 . S
C656 C657 1.391 . S
C657 H645 0.950 . S
C657 C653 1.393 . S
C657 C656 1.391 . S
C658 H648 0.950 . S
C658 C659 1.386 . S
C658 C660 1.391 . S
C659 C658 1.386 . S
C659 C663 1.393 . S
C660 H649 0.950 . S
C660 C658 1.391 . S
C660 C661 1.400 . S
C661 C655 1.491 . S
C661 C660 1.400 . S
C661 C662 1.398 . S
C662 H650 0.950 . S
C662 C661 1.398 . S
C662 C663 1.391 . S
C663 H651 0.950 1_655 S
C663 C659 1.393 . S
C663 C662 1.391 . S
H664 C672 0.950 . S
H665 C677 0.950 . S
H666 C674 0.950 . S
H667 C676 0.950 . S
H668 C678 0.950 . S
H669 C680 0.950 . S
H670 C682 0.950 . S
H671 C683 0.950 . S
C672 H664 0.950 . S
C672 C673 1.386 . S
C672 C674 1.391 . S
C673 C672 1.386 . S
C673 C677 1.393 . S
C674 H666 0.950 . S
C674 C672 1.391 . S
C674 C675 1.400 . S
C675 C674 1.400 . S
C675 C676 1.398 . S
C675 C681 1.491 . S
C676 H667 0.950 . S
C676 C675 1.398 . S
C676 C677 1.391 . S
C677 H665 0.950 . S
C677 C673 1.393 . S
C677 C676 1.391 . S
C678 H668 0.950 . S
C678 C679 1.386 . S
C678 C680 1.391 . S
C679 C678 1.386 . S
C679 C683 1.393 . S
C680 H669 0.950 . S
C680 C678 1.391 . S
C680 C681 1.400 . S
C681 C675 1.491 . S
C681 C680 1.400 . S
C681 C682 1.398 . S
C682 H670 0.950 . S
C682 C681 1.398 . S
C682 C683 1.391 . S
C683 H671 0.950 . S
C683 C679 1.393 . S
C683 C682 1.391 . S
H684 C692 0.950 . S
H685 C697 0.950 . S
H686 C694 0.950 . S
H687 C696 0.950 . S
H688 C698 0.950 . S
H689 C700 0.950 . S
H690 C702 0.950 . S
H691 C703 0.950 . S
C692 H684 0.950 . S
C692 C693 1.386 . S
C692 C694 1.391 . S
C693 C692 1.386 . S
C693 C697 1.393 . S
C694 H686 0.950 . S
C694 C692 1.391 . S
C694 C695 1.400 . S
C695 C694 1.400 . S
C695 C696 1.398 . S
C695 C701 1.491 . S
C696 H687 0.950 . S
C696 C695 1.398 . S
C696 C697 1.391 . S
C697 H685 0.950 . S
C697 C693 1.393 . S
C697 C696 1.391 . S
C698 H688 0.950 . S
C698 C699 1.386 . S
C698 C700 1.391 . S
C699 C698 1.386 . S
C699 C703 1.393 . S
C700 H689 0.950 . S
C700 C698 1.391 . S
C700 C701 1.400 . S
C701 C695 1.491 . S
C701 C700 1.400 . S
C701 C702 1.398 . S
C702 H690 0.950 . S
C702 C701 1.398 . S
C702 C703 1.391 . S
C703 H691 0.950 . S
C703 C699 1.393 . S
C703 C702 1.391 . S
H704 C712 0.950 . S
H705 C717 0.950 . S
H706 C714 0.950 . S
H707 C716 0.950 . S
H708 C718 0.950 . S
H709 C720 0.950 . S
H710 C722 0.950 . S
H711 C723 0.950 . S
C712 H704 0.950 . S
C712 C713 1.386 . S
C712 C714 1.391 . S
C713 C712 1.386 . S
C713 C717 1.393 . S
C714 H706 0.950 . S
C714 C712 1.391 . S
C714 C715 1.400 . S
C715 C714 1.400 . S
C715 C716 1.398 . S
C715 C721 1.491 . S
C716 H707 0.950 . S
C716 C715 1.398 . S
C716 C717 1.391 . S
C717 H705 0.950 . S
C717 C713 1.393 . S
C717 C716 1.391 . S
C718 H708 0.950 . S
C718 C719 1.386 . S
C718 C720 1.391 . S
C719 C718 1.386 . S
C719 C723 1.393 . S
C720 H709 0.950 . S
C720 C718 1.391 . S
C720 C721 1.400 . S
C721 C715 1.491 . S
C721 C720 1.400 . S
C721 C722 1.398 . S
C722 H710 0.950 . S
C722 C721 1.398 . S
C722 C723 1.391 . S
C723 H711 0.950 . S
C723 C719 1.393 . S
C723 C722 1.391 . S
H724 C732 0.950 . S
H725 C737 0.950 . S
H726 C734 0.950 . S
H727 C736 0.950 . S
H728 C738 0.950 . S
H729 C740 0.950 . S
H730 C742 0.950 . S
H731 C743 0.950 . S
C732 H724 0.950 . S
C732 C733 1.386 . S
C732 C734 1.391 . S
C733 C732 1.386 . S
C733 C737 1.393 . S
C734 H726 0.950 . S
C734 C732 1.391 . S
C734 C735 1.400 . S
C735 C734 1.400 . S
C735 C736 1.398 . S
C735 C741 1.491 . S
C736 H727 0.950 . S
C736 C735 1.398 . S
C736 C737 1.391 . S
C737 H725 0.950 . S
C737 C733 1.393 . S
C737 C736 1.391 . S
C738 H728 0.950 . S
C738 C739 1.386 . S
C738 C740 1.391 . S
C739 C738 1.386 . S
C739 C743 1.393 . S
C740 H729 0.950 . S
C740 C738 1.391 . S
C740 C741 1.400 . S
C741 C735 1.491 . S
C741 C740 1.400 . S
C741 C742 1.398 . S
C742 H730 0.950 . S
C742 C741 1.398 . S
C742 C743 1.391 . S
C743 H731 0.950 . S
C743 C739 1.393 . S
C743 C742 1.391 . S
H744 C752 0.950 . S
H745 C757 0.950 . S
H746 C754 0.950 . S
H747 C756 0.950 . S
H748 C758 0.950 . S
H749 C760 0.950 . S
H750 C762 0.950 . S
H751 C763 0.950 . S
C752 H744 0.950 . S
C752 C753 1.386 . S
C752 C754 1.391 . S
C753 C752 1.386 . S
C753 C757 1.393 . S
C754 H746 0.950 . S
C754 C752 1.391 . S
C754 C755 1.400 . S
C755 C754 1.400 . S
C755 C756 1.398 . S
C755 C761 1.491 . S
C756 H747 0.950 . S
C756 C755 1.398 . S
C756 C757 1.391 . S
C757 H745 0.950 . S
C757 C753 1.393 . S
C757 C756 1.391 . S
C758 H748 0.950 . S
C758 C759 1.386 . S
C758 C760 1.391 . S
C759 C758 1.386 . S
C759 C763 1.393 . S
C760 H749 0.950 . S
C760 C758 1.391 . S
C760 C761 1.400 . S
C761 C755 1.491 . S
C761 C760 1.400 . S
C761 C762 1.398 . S
C762 H750 0.950 . S
C762 C761 1.398 . S
C762 C763 1.391 . S
C763 H751 0.950 . S
C763 C759 1.393 . S
C763 C762 1.391 . S
H764 C772 0.950 . S
H765 C777 0.950 . S
H766 C774 0.950 . S
H767 C776 0.950 . S
H768 C778 0.950 . S
H769 C780 0.950 . S
H770 C782 0.950 . S
H771 C783 0.950 . S
C772 H764 0.950 . S
C772 C773 1.386 . S
C772 C774 1.391 . S
C773 C772 1.386 . S
C773 C777 1.393 . S
C774 H766 0.950 . S
C774 C772 1.391 . S
C774 C775 1.400 . S
C775 C774 1.400 . S
C775 C776 1.398 . S
C775 C781 1.491 . S
C776 H767 0.950 . S
C776 C775 1.398 . S
C776 C777 1.391 . S
C777 H765 0.950 . S
C777 C773 1.393 . S
C777 C776 1.391 . S
C778 H768 0.950 . S
C778 C779 1.386 . S
C778 C780 1.391 . S
C779 C778 1.386 . S
C779 C783 1.393 . S
C780 H769 0.950 . S
C780 C778 1.391 . S
C780 C781 1.400 . S
C781 C775 1.491 . S
C781 C780 1.400 . S
C781 C782 1.398 . S
C782 H770 0.950 . S
C782 C781 1.398 . S
C782 C783 1.391 . S
C783 H771 0.950 . S
C783 C779 1.393 . S
C783 C782 1.391 . S
H784 C792 0.950 . S
H785 C797 0.950 . S
H786 C794 0.950 . S
H787 C796 0.950 . S
H788 C798 0.950 . S
H789 C800 0.950 . S
H790 C802 0.950 . S
H791 C803 0.950 . S
C792 H784 0.950 . S
C792 C793 1.386 . S
C792 C794 1.391 . S
C793 C792 1.386 . S
C793 C797 1.393 . S
C794 H786 0.950 . S
C794 C792 1.391 . S
C794 C795 1.400 . S
C795 C794 1.400 . S
C795 C796 1.398 . S
C795 C801 1.491 . S
C796 H787 0.950 . S
C796 C795 1.398 . S
C796 C797 1.391 . S
C797 H785 0.950 . S
C797 C793 1.393 . S
C797 C796 1.391 . S
C798 H788 0.950 . S
C798 C799 1.386 . S
C798 C800 1.391 . S
C799 C798 1.386 . S
C799 C803 1.393 . S
C800 H789 0.950 . S
C800 C798 1.391 . S
C800 C801 1.400 . S
C801 C795 1.491 . S
C801 C800 1.400 . S
C801 C802 1.398 . S
C802 H790 0.950 . S
C802 C801 1.398 . S
C802 C803 1.391 . S
C803 H791 0.950 . S
C803 C799 1.393 . S
C803 C802 1.391 . S
H804 C812 0.950 . S
H805 C817 0.950 . S
H806 C814 0.950 . S
H807 C816 0.950 . S
H808 C818 0.950 . S
H809 C820 0.950 . S
H810 C822 0.950 . S
H811 C823 0.950 . S
C812 H804 0.950 . S
C812 C813 1.386 1_556 S
C812 C814 1.391 . S
C813 C812 1.386 1_554 S
C813 C817 1.393 . S
C814 H806 0.950 . S
C814 C812 1.391 . S
C814 C815 1.400 . S
C815 C814 1.400 . S
C815 C816 1.398 . S
C815 C821 1.491 . S
C816 H807 0.950 . S
C816 C815 1.398 . S
C816 C817 1.391 1_556 S
C817 H805 0.950 . S
C817 C813 1.393 . S
C817 C816 1.391 1_554 S
C818 H808 0.950 . S
C818 C819 1.386 . S
C818 C820 1.391 . S
C819 C818 1.386 . S
C819 C823 1.393 . S
C820 H809 0.950 . S
C820 C818 1.391 . S
C820 C821 1.400 . S
C821 C815 1.491 . S
C821 C820 1.400 . S
C821 C822 1.398 . S
C822 H810 0.950 . S
C822 C821 1.398 . S
C822 C823 1.391 . S
C823 H811 0.950 . S
C823 C819 1.393 . S
C823 C822 1.391 . S
C353 C7 1.504 . S
C359 C105 1.488 . S
C373 C37 1.357 . S
C379 C137 1.319 . S
C393 C54 1.567 . S
C399 C169 1.412 . S
C419 C213 1.466 . S
C413 C87 1.428 . S
C439 C233 1.403 . S
C433 C30 1.415 . S
C453 C51 1.477 . S
C459 C277 1.489 . S
C473 C84 1.593 . S
C479 C297 1.449 . S
C493 C10 1.336 . S
C499 C341 1.199 1_455 S
C513 C59 1.508 . S
C519 C329 1.384 . S
C539 C245 1.357 . S
C533 C74 1.373 . S
C559 C265 1.582 . S
C553 C18 1.623 . S
C573 C32 1.449 . S
C579 C309 1.349 . S
C599 C149 1.523 . S
C593 C73 1.535 . S
C613 C15 1.456 . S
C619 C181 1.360 . S
C639 C201 1.587 . S
C633 C43 1.608 . S
C659 C117 1.322 . S
C653 C62 1.357 . S
C679 C303 1.362 . S
C673 C21 1.507 . S
C699 C335 1.251 . S
C693 C29 1.332 . S
C713 C52 1.307 . S
C719 C239 1.299 . S
C739 C271 1.523 . S
C733 C81 1.519 . S
C759 C175 1.339 . S
C753 C40 1.473 . S
C773 C65 1.484 . S
C779 C207 1.482 . S
C799 C111 1.325 . S
C793 C76 1.325 . S
C819 C143 1.341 . S
C813 C8 1.341 . S
