# Generated by pormake.
# Topology ctn, (3,4)-cn, num edge types: 1
# Building blocks:
#     Node 0, Type 0, BuildingBlock: MIDCAF_clean_linker_0, # of connection points: 3
#     Node 1, Type 0, BuildingBlock: MIDCAF_clean_linker_0, # of connection points: 3
#     Node 2, Type 0, BuildingBlock: MIDCAF_clean_linker_0, # of connection points: 3
#     Node 3, Type 0, BuildingBlock: MIDCAF_clean_linker_0, # of connection points: 3
#     Node 4, Type 0, BuildingBlock: MIDCAF_clean_linker_0, # of connection points: 3
#     Node 5, Type 0, BuildingBlock: MIDCAF_clean_linker_0, # of connection points: 3
#     Node 6, Type 0, BuildingBlock: MIDCAF_clean_linker_0, # of connection points: 3
#     Node 7, Type 0, BuildingBlock: MIDCAF_clean_linker_0, # of connection points: 3
#     Node 8, Type 0, BuildingBlock: MIDCAF_clean_linker_0, # of connection points: 3
#     Node 9, Type 0, BuildingBlock: MIDCAF_clean_linker_0, # of connection points: 3
#     Node 10, Type 0, BuildingBlock: MIDCAF_clean_linker_0, # of connection points: 3
#     Node 11, Type 0, BuildingBlock: MIDCAF_clean_linker_0, # of connection points: 3
#     Node 12, Type 0, BuildingBlock: MIDCAF_clean_linker_0, # of connection points: 3
#     Node 13, Type 0, BuildingBlock: MIDCAF_clean_linker_0, # of connection points: 3
#     Node 14, Type 0, BuildingBlock: MIDCAF_clean_linker_0, # of connection points: 3
#     Node 15, Type 0, BuildingBlock: MIDCAF_clean_linker_0, # of connection points: 3
#     Node 16, Type 1, BuildingBlock: KUFVIS_clean_sbu_0, # of connection points: 4
#     Node 17, Type 1, BuildingBlock: KUFVIS_clean_sbu_0, # of connection points: 4
#     Node 18, Type 1, BuildingBlock: KUFVIS_clean_sbu_0, # of connection points: 4
#     Node 19, Type 1, BuildingBlock: KUFVIS_clean_sbu_0, # of connection points: 4
#     Node 20, Type 1, BuildingBlock: KUFVIS_clean_sbu_0, # of connection points: 4
#     Node 21, Type 1, BuildingBlock: KUFVIS_clean_sbu_0, # of connection points: 4
#     Node 22, Type 1, BuildingBlock: KUFVIS_clean_sbu_0, # of connection points: 4
#     Node 23, Type 1, BuildingBlock: KUFVIS_clean_sbu_0, # of connection points: 4
#     Node 24, Type 1, BuildingBlock: KUFVIS_clean_sbu_0, # of connection points: 4
#     Node 25, Type 1, BuildingBlock: KUFVIS_clean_sbu_0, # of connection points: 4
#     Node 26, Type 1, BuildingBlock: KUFVIS_clean_sbu_0, # of connection points: 4
#     Node 27, Type 1, BuildingBlock: KUFVIS_clean_sbu_0, # of connection points: 4
#     Edge 28, Type (0, 1), BuildingBlock: EZIPEK_clean_linker_0, # of connection points: 2
#     Edge 29, Type (0, 1), BuildingBlock: EZIPEK_clean_linker_0, # of connection points: 2
#     Edge 30, Type (0, 1), BuildingBlock: EZIPEK_clean_linker_0, # of connection points: 2
#     Edge 31, Type (0, 1), BuildingBlock: EZIPEK_clean_linker_0, # of connection points: 2
#     Edge 32, Type (0, 1), BuildingBlock: EZIPEK_clean_linker_0, # of connection points: 2
#     Edge 33, Type (0, 1), BuildingBlock: EZIPEK_clean_linker_0, # of connection points: 2
#     Edge 34, Type (0, 1), BuildingBlock: EZIPEK_clean_linker_0, # of connection points: 2
#     Edge 35, Type (0, 1), BuildingBlock: EZIPEK_clean_linker_0, # of connection points: 2
#     Edge 36, Type (0, 1), BuildingBlock: EZIPEK_clean_linker_0, # of connection points: 2
#     Edge 37, Type (0, 1), BuildingBlock: EZIPEK_clean_linker_0, # of connection points: 2
#     Edge 38, Type (0, 1), BuildingBlock: EZIPEK_clean_linker_0, # of connection points: 2
#     Edge 39, Type (0, 1), BuildingBlock: EZIPEK_clean_linker_0, # of connection points: 2
#     Edge 40, Type (0, 1), BuildingBlock: EZIPEK_clean_linker_0, # of connection points: 2
#     Edge 41, Type (0, 1), BuildingBlock: EZIPEK_clean_linker_0, # of connection points: 2
#     Edge 42, Type (0, 1), BuildingBlock: EZIPEK_clean_linker_0, # of connection points: 2
#     Edge 43, Type (0, 1), BuildingBlock: EZIPEK_clean_linker_0, # of connection points: 2
#     Edge 44, Type (0, 1), BuildingBlock: EZIPEK_clean_linker_0, # of connection points: 2
#     Edge 45, Type (0, 1), BuildingBlock: EZIPEK_clean_linker_0, # of connection points: 2
#     Edge 46, Type (0, 1), BuildingBlock: EZIPEK_clean_linker_0, # of connection points: 2
#     Edge 47, Type (0, 1), BuildingBlock: EZIPEK_clean_linker_0, # of connection points: 2
#     Edge 48, Type (0, 1), BuildingBlock: EZIPEK_clean_linker_0, # of connection points: 2
#     Edge 49, Type (0, 1), BuildingBlock: EZIPEK_clean_linker_0, # of connection points: 2
#     Edge 50, Type (0, 1), BuildingBlock: EZIPEK_clean_linker_0, # of connection points: 2
#     Edge 51, Type (0, 1), BuildingBlock: EZIPEK_clean_linker_0, # of connection points: 2
#     Edge 52, Type (0, 1), BuildingBlock: EZIPEK_clean_linker_0, # of connection points: 2
#     Edge 53, Type (0, 1), BuildingBlock: EZIPEK_clean_linker_0, # of connection points: 2
#     Edge 54, Type (0, 1), BuildingBlock: EZIPEK_clean_linker_0, # of connection points: 2
#     Edge 55, Type (0, 1), BuildingBlock: EZIPEK_clean_linker_0, # of connection points: 2
#     Edge 56, Type (0, 1), BuildingBlock: EZIPEK_clean_linker_0, # of connection points: 2
#     Edge 57, Type (0, 1), BuildingBlock: EZIPEK_clean_linker_0, # of connection points: 2
#     Edge 58, Type (0, 1), BuildingBlock: EZIPEK_clean_linker_0, # of connection points: 2
#     Edge 59, Type (0, 1), BuildingBlock: EZIPEK_clean_linker_0, # of connection points: 2
#     Edge 60, Type (0, 1), BuildingBlock: EZIPEK_clean_linker_0, # of connection points: 2
#     Edge 61, Type (0, 1), BuildingBlock: EZIPEK_clean_linker_0, # of connection points: 2
#     Edge 62, Type (0, 1), BuildingBlock: EZIPEK_clean_linker_0, # of connection points: 2
#     Edge 63, Type (0, 1), BuildingBlock: EZIPEK_clean_linker_0, # of connection points: 2
#     Edge 64, Type (0, 1), BuildingBlock: EZIPEK_clean_linker_0, # of connection points: 2
#     Edge 65, Type (0, 1), BuildingBlock: EZIPEK_clean_linker_0, # of connection points: 2
#     Edge 66, Type (0, 1), BuildingBlock: EZIPEK_clean_linker_0, # of connection points: 2
#     Edge 67, Type (0, 1), BuildingBlock: EZIPEK_clean_linker_0, # of connection points: 2
#     Edge 68, Type (0, 1), BuildingBlock: EZIPEK_clean_linker_0, # of connection points: 2
#     Edge 69, Type (0, 1), BuildingBlock: EZIPEK_clean_linker_0, # of connection points: 2
#     Edge 70, Type (0, 1), BuildingBlock: EZIPEK_clean_linker_0, # of connection points: 2
#     Edge 71, Type (0, 1), BuildingBlock: EZIPEK_clean_linker_0, # of connection points: 2
#     Edge 72, Type (0, 1), BuildingBlock: EZIPEK_clean_linker_0, # of connection points: 2
#     Edge 73, Type (0, 1), BuildingBlock: EZIPEK_clean_linker_0, # of connection points: 2
#     Edge 74, Type (0, 1), BuildingBlock: EZIPEK_clean_linker_0, # of connection points: 2
#     Edge 75, Type (0, 1), BuildingBlock: EZIPEK_clean_linker_0, # of connection points: 2
# Relax obj value: 0.012
# Max RMSD: 0.062
# Mean RMSD: 0.029
data_MOF--net-ctn--node1-KUFVIS_clean_sbu_0--node2-MIDCAF_clean_linker_0--edge1-EZIPEK_clean_linker_0
_symmetry_space_group_name_H-M    P1
_symmetry_Int_Tables_number       1
_symmetry_cell_setting            triclinic
loop_
_symmetry_equiv_pos_as_xyz
'x, y, z'
_cell_length_a     51.506386
_cell_length_b     51.431788
_cell_length_c     51.644219
_cell_angle_alpha  91.040732
_cell_angle_beta   90.236214
_cell_angle_gamma 91.623479
loop_
_atom_site_label
_atom_site_type_symbol
_atom_site_fract_x
_atom_site_fract_y
_atom_site_fract_z
_atom_type_partial_charge
C0 C 0.98334 0.0463 0.12317 0.0
C1 C 0.98955 0.02559 0.13911 0.0
C2 C 0.012 0.01159 0.13409 0.0
C3 C 0.0279 0.01804 0.11311 0.0
H4 H 0.09042 0.99312 0.07214 0.0
H5 H 0.12626 0.96526 0.06017 0.0
H6 H 0.14432 0.01414 0.99545 0.0
H7 H 0.10843 0.04228 0.00708 0.0
H8 H 0.07541 0.09433 0.9996 0.0
H9 H 0.06271 0.12954 0.97129 0.0
H10 H 0.98729 0.13032 0.00706 0.0
H11 H 0.99982 0.09547 0.03575 0.0
H12 H 0.99368 0.06875 0.09017 0.0
H13 H 0.966 0.05723 0.12676 0.0
H14 H 0.01697 0.99546 0.14618 0.0
H15 H 0.04497 0.0067 0.10958 0.0
N16 N 0.05903 0.03078 0.06816 0.0
N17 N 0.06727 0.05625 0.03172 0.0
N18 N 0.03155 0.06477 0.05826 0.0
C19 C 0.07384 0.03625 0.0471 0.0
C20 C 0.04612 0.0706 0.03716 0.0
C21 C 0.0379 0.04498 0.07395 0.0
C22 C 0.09638 0.01999 0.04054 0.0
C23 C 0.10203 0.99815 0.05543 0.0
C24 C 0.12252 0.98217 0.04867 0.0
C25 C 0.13784 0.98773 0.02699 0.0
C26 C 0.13267 0.00965 0.01229 0.0
C27 C 0.11211 0.02565 0.01898 0.0
C28 C 0.03866 0.09204 0.02001 0.0
C29 C 0.05612 0.10198 1.00151 0.0
C30 C 0.04894 0.12212 0.98533 0.0
C31 C 0.02409 0.13249 0.98713 0.0
C32 C 0.00658 0.1226 0.00546 0.0
C33 C 0.01383 0.10269 0.02185 0.0
C34 C 0.02159 0.03861 0.09677 0.0
C35 C 0.9992 0.05279 0.10223 0.0
C36 C 0.25388 0.63105 0.24104 0.0
C37 C 0.24413 0.61624 0.21958 0.0
C38 C 0.24417 0.62901 0.19548 0.0
C39 C 0.25821 0.65242 0.19207 0.0
H40 H 0.26326 0.73 0.15501 0.0
H41 H 0.25888 0.76125 0.12021 0.0
H42 H 0.33932 0.7851 0.12956 0.0
H43 H 0.34387 0.75425 0.16472 0.0
H44 H 0.37581 0.733 0.21384 0.0
H45 H 0.41227 0.73814 0.24427 0.0
H46 H 0.36768 0.69815 0.30256 0.0
H47 H 0.33129 0.69243 0.2722 0.0
H48 H 0.27668 0.66394 0.25456 0.0
H49 H 0.25067 0.62531 0.26076 0.0
H50 H 0.23345 0.62124 0.17895 0.0
H51 H 0.25923 0.66065 0.17293 0.0
N52 N 0.28823 0.70229 0.18848 0.0
N53 N 0.32655 0.72478 0.20159 0.0
N54 N 0.31022 0.69016 0.22605 0.0
C55 C 0.30633 0.72167 0.18469 0.0
C56 C 0.32856 0.70912 0.22234 0.0
C57 C 0.29011 0.68648 0.20919 0.0
C58 C 0.30389 0.73965 0.16274 0.0
C59 C 0.28008 0.74179 0.14965 0.0
C60 C 0.2775 0.7597 0.12982 0.0
C61 C 0.29873 0.77559 0.12252 0.0
C62 C 0.32268 0.77314 0.13511 0.0
C63 C 0.3252 0.75549 0.15518 0.0
C64 C 0.35062 0.71241 0.24065 0.0
C65 C 0.37374 0.7253 0.23313 0.0
C66 C 0.39462 0.72814 0.2504 0.0
C67 C 0.39255 0.7186 0.27562 0.0
C68 C 0.36957 0.70566 0.28318 0.0
C69 C 0.34884 0.70243 0.26579 0.0
C70 C 0.27158 0.66439 0.21296 0.0
C71 C 0.26816 0.65416 0.23768 0.0
C72 C 0.01154 0.39062 0.9991 0.0
C73 C 0.99339 0.38094 0.98078 0.0
C74 C 0.96985 0.39363 0.9777 0.0
C75 C 0.96437 0.41554 0.99292 0.0
H76 H 0.91326 0.47556 1.0001 0.0
H77 H 0.87598 0.50229 0.99043 0.0
H78 H 0.89928 0.55648 0.05132 0.0
H79 H 0.93656 0.52993 0.06137 0.0
H80 H 0.97962 0.51312 0.10218 0.0
H81 H 0.00714 0.52275 0.14021 0.0
H82 H 0.0551 0.45821 0.12013 0.0
H83 H 0.02793 0.44828 0.08221 0.0
H84 H 0.02032 0.41923 0.02865 0.0
H85 H 0.02988 0.38114 1.00162 0.0
H86 H 0.95564 0.38645 0.96357 0.0
H87 H 0.94594 0.42477 0.9902 0.0
N88 N 0.95587 0.46308 0.02273 0.0
N89 N 0.96508 0.48933 0.05946 0.0
N90 N 0.99083 0.45359 0.04982 0.0
C91 C 0.95022 0.48393 0.03807 0.0
C92 C 0.9854 0.4742 0.06552 0.0
C93 C 0.9762 0.44786 0.02843 0.0
C94 C 0.92795 0.50048 0.03162 0.0
C95 C 0.91062 0.49321 0.01141 0.0
C96 C 0.8893 0.50846 0.00578 0.0
C97 C 0.88501 0.53132 0.02013 0.0
C98 C 0.90239 0.53891 0.04001 0.0
C99 C 0.92363 0.52362 0.04576 0.0
C100 C 1.00155 0.47996 0.08897 0.0
C101 C 0.99594 0.50086 0.10586 0.0
C102 C 0.01155 0.50638 0.12765 0.0
C103 C 0.03301 0.4911 0.13292 0.0
C104 C 0.03852 0.47011 0.11637 0.0
C105 C 0.02296 0.46455 0.09465 0.0
C106 C 0.98228 0.42506 0.01169 0.0
C107 C 0.00598 0.41237 0.01454 0.0
C108 C 0.73503 0.76177 0.11933 0.0
C109 C 0.71612 0.74228 0.11387 0.0
C110 C 0.69363 0.74075 0.12906 0.0
C111 C 0.69009 0.75851 0.14949 0.0
H112 H 0.65311 0.76718 0.22182 0.0
H113 H 0.61968 0.76025 0.25467 0.0
H114 H 0.62852 0.84038 0.27986 0.0
H115 H 0.66232 0.84751 0.24735 0.0
H116 H 0.70921 0.8828 0.22291 0.0
H117 H 0.74034 0.91905 0.23036 0.0
H118 H 0.79889 0.87713 0.18891 0.0
H119 H 0.76784 0.84097 0.1809 0.0
H120 H 0.7464 0.79448 0.14327 0.0
H121 H 0.75254 0.76315 0.10782 0.0
H122 H 0.67886 0.72578 0.1251 0.0
H123 H 0.67249 0.75686 0.16081 0.0
N124 N 0.68519 0.7942 0.19336 0.0
N125 N 0.69782 0.83306 0.21495 0.0
N126 N 0.7214 0.81851 0.17904 0.0
C127 C 0.68149 0.81193 0.21277 0.0
C128 C 0.71785 0.83644 0.19822 0.0
C129 C 0.70504 0.79743 0.17632 0.0
C130 C 0.66047 0.8079 0.23195 0.0
C131 C 0.64795 0.78339 0.23426 0.0
C132 C 0.62891 0.77935 0.25308 0.0
C133 C 0.62182 0.79977 0.26975 0.0
C134 C 0.63391 0.82436 0.26727 0.0
C135 C 0.65319 0.82836 0.24866 0.0
C136 C 0.73613 0.85895 0.20148 0.0
C137 C 0.72868 0.88134 0.21525 0.0
C138 C 0.74636 0.90209 0.21945 0.0
C139 C 0.77195 0.90056 0.21045 0.0
C140 C 0.7793 0.87852 0.19619 0.0
C141 C 0.76149 0.85795 0.19158 0.0
C142 C 0.70891 0.77825 0.15496 0.0
C143 C 0.73144 0.77964 0.13961 0.0
C144 C 0.03998 0.90059 0.5452 0.0
C145 C 0.01889 0.88341 0.54022 0.0
C146 C 1.00206 0.88815 0.51951 0.0
C147 C 0.00652 0.90966 0.50369 0.0
H148 H 0.98001 0.94649 0.4373 0.0
H149 H 0.95399 0.9544 0.39855 0.0
H150 H 1.00229 0.02172 0.38189 0.0
H151 H 0.02846 0.01415 0.42042 0.0
H152 H 0.07983 0.02442 0.44997 0.0
H153 H 0.11886 0.05128 0.45737 0.0
H154 H 0.13483 0.01007 0.52723 0.0
H155 H 0.09589 0.98249 0.51988 0.0
H156 H 0.06109 0.93476 0.53378 0.0
H157 H 0.05317 0.89718 0.56109 0.0
H158 H 0.98569 0.87501 0.51541 0.0
H159 H 0.99336 0.91265 0.48768 0.0
N160 N 0.01772 0.95404 0.47066 0.0
N161 N 0.04484 0.98947 0.45949 0.0
N162 N 0.05495 0.96463 0.49549 0.0
C163 C 0.02327 0.97429 0.45476 0.0
C164 C 0.06079 0.98481 0.47978 0.0
C165 C 0.03349 0.94913 0.49115 0.0
C166 C 0.0065 0.97956 0.43201 0.0
C167 C 0.98505 0.96309 0.42555 0.0
C168 C 0.97012 0.96758 0.40344 0.0
C169 C 0.9763 0.9886 0.38742 0.0
C170 C 0.99726 0.00541 0.39405 0.0
C171 C 0.01221 1.00095 0.41609 0.0
C172 C 0.08448 1.00136 0.48444 0.0
C173 C 0.09145 0.02107 0.46704 0.0
C174 C 0.1137 0.03668 0.47133 0.0
C175 C 0.1294 0.03317 0.49316 0.0
C176 C 0.12281 0.01328 0.51039 0.0
C177 C 0.10053 0.99755 0.50612 0.0
C178 C 0.02793 0.92678 0.50835 0.0
C179 C 0.04445 0.92205 0.52946 0.0
C180 C 0.22384 0.74924 0.89701 0.0
C181 C 0.21428 0.77442 0.8953 0.0
C182 C 0.20061 0.78139 0.87305 0.0
C183 C 0.19699 0.76355 0.85253 0.0
H184 H 0.14145 0.73692 0.79848 0.0
H185 H 0.10461 0.74058 0.76926 0.0
H186 H 0.13822 0.68528 0.71641 0.0
H187 H 0.17538 0.68105 0.74588 0.0
H188 H 0.22672 0.64923 0.76738 0.0
H189 H 0.25987 0.61596 0.76338 0.0
H190 H 0.28971 0.63761 0.83901 0.0
H191 H 0.25703 0.67071 0.84334 0.0
H192 H 0.22861 0.71239 0.87802 0.0
H193 H 0.23432 0.74351 0.91412 0.0
H194 H 0.19297 0.8007 0.87151 0.0
H195 H 0.18665 0.76954 0.83543 0.0
N196 N 0.18568 0.72263 0.81376 0.0
N197 N 0.20061 0.68641 0.79042 0.0
N198 N 0.22169 0.70057 0.82874 0.0
C199 C 0.1833 0.70585 0.79319 0.0
C200 C 0.21992 0.68369 0.80824 0.0
C201 C 0.20477 0.7201 0.8316 0.0
C202 C 0.16147 0.70859 0.77463 0.0
C203 C 0.14126 0.72557 0.78062 0.0
C204 C 0.12012 0.72776 0.76392 0.0
C205 C 0.11874 0.71328 0.74069 0.0
C206 C 0.13901 0.69666 0.73427 0.0
C207 C 0.16016 0.69423 0.75116 0.0
C208 C 0.23917 0.66279 0.80564 0.0
C209 C 0.24023 0.64685 0.78322 0.0
C210 C 0.25914 0.62786 0.78087 0.0
C211 C 0.27715 0.62446 0.80092 0.0
C212 C 0.27595 0.64001 0.82337 0.0
C213 C 0.25721 0.65897 0.82572 0.0
C214 C 0.20733 0.73857 0.8538 0.0
C215 C 0.22064 0.73155 0.87634 0.0
C216 C 0.98462 0.60186 0.54751 0.0
C217 C 0.9964 0.6247 0.53824 0.0
C218 C 0.00502 0.6254 0.5125 0.0
C219 C 1.00157 0.60353 0.49615 0.0
H220 H 0.92417 0.52465 0.51846 0.0
H221 H 0.88441 0.49906 0.52624 0.0
H222 H 0.89678 0.45457 0.45611 0.0
H223 H 0.93671 0.48008 0.44792 0.0
H224 H 0.98542 0.49523 0.41225 0.0
H225 H 0.01157 0.48846 0.3733 0.0
H226 H 0.06094 0.55433 0.39499 0.0
H227 H 0.0351 0.56141 0.43392 0.0
H228 H 0.97116 0.56299 0.53877 0.0
H229 H 0.97805 0.60092 0.5673 0.0
H230 H 0.01421 0.64292 0.50507 0.0
H231 H 0.00805 0.60465 0.47627 0.0
N232 N 0.96304 0.54186 0.49286 0.0
N233 N 0.97147 0.51732 0.45532 0.0
N234 N 0.99772 0.55409 0.46606 0.0
C235 C 0.95685 0.52141 0.47683 0.0
C236 C 0.99205 0.5335 0.44985 0.0
C237 C 0.98333 0.55828 0.48767 0.0
C238 C 0.93367 0.50459 0.48241 0.0
C239 C 0.91866 0.50933 0.50469 0.0
C240 C 0.89591 0.49472 0.50927 0.0
C241 C 0.88774 0.47506 0.49172 0.0
C242 C 0.90289 0.46972 0.46985 0.0
C243 C 0.92568 0.48434 0.46522 0.0
C244 C 0.00803 0.52895 0.42631 0.0
C245 C 1.00186 0.50829 0.40885 0.0
C246 C 0.01677 0.50432 0.38657 0.0
C247 C 0.03812 0.52091 0.38134 0.0
C248 C 0.04452 0.54134 0.39876 0.0
C249 C 0.02965 0.54535 0.42099 0.0
C250 C 0.98898 0.58085 0.50521 0.0
C251 C 0.98072 0.58022 0.53112 0.0
C252 C 0.89761 0.78819 0.76437 0.0
C253 C 0.90035 0.80529 0.74328 0.0
C254 C 0.87895 0.8212 0.73824 0.0
C255 C 0.85776 0.82226 0.75512 0.0
H256 H 0.80064 0.87334 0.78241 0.0
H257 H 0.77131 0.90885 0.78157 0.0
H258 H 0.71789 0.86531 0.82979 0.0
H259 H 0.7476 0.83058 0.83117 0.0
H260 H 0.76935 0.78351 0.86324 0.0
H261 H 0.76415 0.75127 0.89711 0.0
H262 H 0.83987 0.7221 0.87994 0.0
H263 H 0.84533 0.75417 0.84571 0.0
H264 H 0.87567 0.77593 0.79723 0.0
H265 H 0.91168 0.77349 0.76803 0.0
H266 H 0.87745 0.83266 0.72118 0.0
H267 H 0.84216 0.83517 0.75065 0.0
N268 N 0.81642 0.82694 0.79311 0.0
N269 N 0.79328 0.81003 0.82834 0.0
N270 N 0.83109 0.78998 0.81411 0.0
C271 C 0.79596 0.82816 0.80964 0.0
C272 C 0.81076 0.79091 0.83078 0.0
C273 C 0.83402 0.80781 0.79512 0.0
C274 C 0.77727 0.84959 0.80808 0.0
C275 C 0.78299 0.87185 0.79369 0.0
C276 C 0.76621 0.89277 0.7939 0.0
C277 C 0.74347 0.89278 0.80931 0.0
C278 C 0.73649 0.86889 0.821 0.0
C279 C 0.75343 0.84807 0.82109 0.0
C280 C 0.80774 0.77144 0.85158 0.0
C281 C 0.78499 0.77032 0.86659 0.0
C282 C 0.78194 0.75191 0.88599 0.0
C283 C 0.80157 0.73429 0.89091 0.0
C284 C 0.82448 0.7355 0.87632 0.0
C285 C 0.82749 0.75382 0.85673 0.0
C286 C 0.85639 0.80654 0.77702 0.0
C287 C 0.87637 0.78909 0.78109 0.0
C288 C 0.38225 0.27333 0.25275 0.0
C289 C 0.39264 0.29462 0.23927 0.0
C290 C 0.3823 0.31932 0.24351 0.0
C291 C 0.36166 0.32254 0.26083 0.0
H292 H 0.29769 0.37072 0.28122 0.0
H293 H 0.26776 0.40574 0.27959 0.0
H294 H 0.21456 0.36199 0.32786 0.0
H295 H 0.24484 0.32786 0.33007 0.0
H296 H 0.26725 0.28184 0.3638 0.0
H297 H 0.26317 0.25056 0.39875 0.0
H298 H 0.33944 0.22269 0.38168 0.0
H299 H 0.34372 0.25368 0.3464 0.0
H300 H 0.35466 0.25973 0.28051 0.0
H301 H 0.38998 0.25413 0.2498 0.0
H302 H 0.39021 0.33603 0.23344 0.0
H303 H 0.35402 0.34176 0.26381 0.0
N304 N 0.31322 0.32384 0.2918 0.0
N305 N 0.29095 0.30831 0.32826 0.0
N306 N 0.32768 0.28701 0.31321 0.0
C307 C 0.29331 0.32583 0.30894 0.0
C308 C 0.30816 0.28895 0.33066 0.0
C309 C 0.33035 0.30427 0.29372 0.0
C310 C 0.27444 0.34705 0.30704 0.0
C311 C 0.27995 0.36913 0.29235 0.0
C312 C 0.2628 0.38974 0.29209 0.0
C313 C 0.23991 0.3896 0.3073 0.0
C314 C 0.2332 0.36579 0.31925 0.0
C315 C 0.2505 0.34531 0.31983 0.0
C316 C 0.30576 0.27023 0.35213 0.0
C317 C 0.28322 0.26913 0.36743 0.0
C318 C 0.28083 0.25128 0.38743 0.0
C319 C 0.30095 0.2343 0.39265 0.0
C320 C 0.32368 0.23559 0.37782 0.0
C321 C 0.32601 0.25328 0.35762 0.0
C322 C 0.35154 0.30121 0.27464 0.0
C323 C 0.3621 0.2766 0.27036 0.0
C324 C 0.51237 0.89291 0.49681 0.0
C325 C 0.49385 0.88289 0.47904 0.0
C326 C 0.46987 0.89497 0.47683 0.0
C327 C 0.46429 0.91656 0.49249 0.0
H328 H 0.41635 0.98026 0.49822 0.0
H329 H 0.37926 0.00754 0.48943 0.0
H330 H 0.39632 0.05309 0.55855 0.0
H331 H 0.43344 0.02605 0.56767 0.0
H332 H 0.48135 0.012 0.60355 0.0
H333 H 0.50942 0.02011 0.64149 0.0
H334 H 0.55399 0.95325 0.6209 0.0
H335 H 0.52631 0.94487 0.58307 0.0
H336 H 0.52129 0.92137 0.52644 0.0
H337 H 0.53105 0.88393 0.49862 0.0
H338 H 0.45539 0.88753 0.46312 0.0
H339 H 0.4455 0.92529 0.49054 0.0
N340 N 0.45595 0.96382 0.52326 0.0
N341 N 0.46503 0.98848 0.56111 0.0
N342 N 0.49084 0.95324 0.54996 0.0
C343 C 0.45022 0.98399 0.53949 0.0
C344 C 0.48536 0.97312 0.5665 0.0
C345 C 0.4763 0.94841 0.52834 0.0
C346 C 0.42796 1.00084 0.53374 0.0
C347 C 0.41236 0.99612 0.51156 0.0
C348 C 0.39117 0.01171 0.50642 0.0
C349 C 0.38519 0.03233 0.5233 0.0
C350 C 0.40075 0.0373 0.54527 0.0
C351 C 0.42193 0.02174 0.55045 0.0
C352 C 0.50159 0.97785 0.59008 0.0
C353 C 0.49701 0.9989 0.60712 0.0
C354 C 0.51295 0.00355 0.62886 0.0
C355 C 0.53364 0.9872 0.63392 0.0
C356 C 0.53802 0.96598 0.61729 0.0
C357 C 0.52217 0.96133 0.59561 0.0
C358 C 0.48252 0.92629 0.51083 0.0
C359 C 0.50669 0.91428 0.5127 0.0
C360 C 0.23386 0.26418 0.62084 0.0
C361 C 0.21495 0.24466 0.6155 0.0
C362 C 0.19238 0.24335 0.63059 0.0
C363 C 0.18883 0.26127 0.65088 0.0
H364 H 0.13782 0.2824 0.71115 0.0
H365 H 0.10531 0.27366 0.7446 0.0
H366 H 0.14725 0.32512 0.79781 0.0
H367 H 0.17953 0.33448 0.76439 0.0
H368 H 0.26698 0.34384 0.68103 0.0
H369 H 0.29789 0.38027 0.68842 0.0
H370 H 0.24101 0.4201 0.73416 0.0
H371 H 0.21006 0.38364 0.72726 0.0
H372 H 0.24529 0.29699 0.64461 0.0
H373 H 0.25143 0.26542 0.6094 0.0
H374 H 0.17759 0.22838 0.6267 0.0
H375 H 0.17122 0.25972 0.66221 0.0
N376 N 0.18461 0.29648 0.69528 0.0
N377 N 0.19838 0.33442 0.71784 0.0
N378 N 0.22076 0.32081 0.68081 0.0
C379 C 0.18169 0.3136 0.71537 0.0
C380 C 0.21787 0.33822 0.70059 0.0
C381 C 0.20415 0.29994 0.67791 0.0
C382 C 0.1613 0.3091 0.73509 0.0
C383 C 0.14004 0.29202 0.72989 0.0
C384 C 0.12142 0.28707 0.74893 0.0
C385 C 0.12391 0.29879 0.77362 0.0
C386 C 0.14493 0.31603 0.77882 0.0
C387 C 0.16334 0.32132 0.75967 0.0
C388 C 0.23615 0.36075 0.70378 0.0
C389 C 0.26099 0.36039 0.69256 0.0
C390 C 0.27871 0.38112 0.69683 0.0
C391 C 0.27181 0.40265 0.7121 0.0
C392 C 0.24671 0.40352 0.72248 0.0
C393 C 0.22913 0.38265 0.71859 0.0
C394 C 0.20772 0.28094 0.65632 0.0
C395 C 0.23026 0.28221 0.64098 0.0
C396 C 0.77028 0.11628 0.72496 0.0
C397 C 0.74486 0.11767 0.71536 0.0
C398 C 0.73783 0.13938 0.70111 0.0
C399 C 0.75594 0.15964 0.69683 0.0
H400 H 0.78475 0.21332 0.63857 0.0
H401 H 0.77716 0.24617 0.60596 0.0
H402 H 0.82785 0.30061 0.6475 0.0
H403 H 0.83605 0.2677 0.68003 0.0
H404 H 0.88509 0.22812 0.71147 0.0
H405 H 0.92058 0.23362 0.74306 0.0
H406 H 0.87483 0.19233 0.79961 0.0
H407 H 0.83959 0.18607 0.76801 0.0
H408 H 0.8076 0.13512 0.72902 0.0
H409 H 0.77605 0.09959 0.73588 0.0
H410 H 0.71832 0.14067 0.69345 0.0
H411 H 0.74995 0.17631 0.68604 0.0
N412 N 0.79725 0.19813 0.68493 0.0
N413 N 0.83488 0.221 0.69931 0.0
N414 N 0.82048 0.1835 0.72071 0.0
C415 C 0.81458 0.2184 0.68243 0.0
C416 C 0.8379 0.20359 0.7185 0.0
C417 C 0.80016 0.18055 0.70399 0.0
C418 C 0.81093 0.23789 0.66199 0.0
C419 C 0.79446 0.23219 0.64072 0.0
C420 C 0.79018 0.25089 0.622 0.0
C421 C 0.80198 0.27576 0.62433 0.0
C422 C 0.8187 0.28146 0.64531 0.0
C423 C 0.82332 0.26262 0.66387 0.0
C424 C 0.85954 0.20673 0.73729 0.0
C425 C 0.88263 0.22014 0.7306 0.0
C426 C 0.90293 0.2232 0.74855 0.0
C427 C 0.90021 0.21347 0.77366 0.0
C428 C 0.87725 0.19997 0.78034 0.0
C429 C 0.85718 0.19642 0.76225 0.0
C430 C 0.78124 0.15862 0.70707 0.0
C431 C 0.78823 0.13663 0.72105 0.0
C432 C 0.48218 0.54991 0.61904 0.0
C433 C 0.48745 0.5287 0.63471 0.0
C434 C 0.50921 0.51375 0.62945 0.0
C435 C 0.52538 0.51977 0.60855 0.0
H436 H 0.58886 0.49463 0.56906 0.0
H437 H 0.62487 0.46666 0.55795 0.0
H438 H 0.6443 0.5152 0.49335 0.0
H439 H 0.60825 0.54345 0.50413 0.0
H440 H 0.57494 0.59456 0.49462 0.0
H441 H 0.56288 0.62987 0.46612 0.0
H442 H 0.48808 0.63321 0.50292 0.0
H443 H 0.49994 0.59825 0.53173 0.0
H444 H 0.4935 0.57232 0.58633 0.0
H445 H 0.4654 0.5616 0.62284 0.0
H446 H 0.51348 0.49725 0.64134 0.0
H447 H 0.54191 0.50771 0.60486 0.0
N448 N 0.55776 0.53247 0.56443 0.0
N449 N 0.56666 0.55762 0.52788 0.0
N450 N 0.53067 0.56658 0.55389 0.0
C451 C 0.5729 0.53771 0.54352 0.0
C452 C 0.54554 0.57214 0.53293 0.0
C453 C 0.53666 0.54686 0.56981 0.0
C454 C 0.5955 0.52134 0.53745 0.0
C455 C 0.6008 0.49957 0.55256 0.0
C456 C 0.62139 0.48352 0.54629 0.0
C457 C 0.63715 0.48895 0.52489 0.0
C458 C 0.63232 0.51081 0.50998 0.0
C459 C 0.61166 0.52687 0.51618 0.0
C460 C 0.53844 0.59354 0.51554 0.0
C461 C 0.55592 0.60277 0.49669 0.0
C462 C 0.5491 0.62295 0.4804 0.0
C463 C 0.52461 0.63408 0.48245 0.0
C464 C 0.50708 0.62487 0.5011 0.0
C465 C 0.51396 0.6049 0.51757 0.0
C466 C 0.52001 0.54084 0.5925 0.0
C467 C 0.49828 0.55593 0.59815 0.0
C468 C 0.53511 0.39971 0.04327 0.0
C469 C 0.51356 0.38327 0.03778 0.0
C470 C 0.49729 0.3888 0.01685 0.0
C471 C 0.50281 0.41027 1.0013 0.0
H472 H 0.47907 0.4472 0.93434 0.0
H473 H 0.4541 0.45565 0.89504 0.0
H474 H 0.50452 0.52162 0.87907 0.0
H475 H 0.52966 0.51351 0.91815 0.0
H476 H 0.57957 0.52305 0.94866 0.0
H477 H 0.6188 0.54941 0.95616 0.0
H478 H 0.6339 0.50831 0.02628 0.0
H479 H 0.5946 0.48113 0.01881 0.0
H480 H 0.55764 0.43326 0.03244 0.0
H481 H 0.54789 0.39569 0.05934 0.0
H482 H 0.48057 0.37626 0.01235 0.0
H483 H 0.49007 0.41383 0.98509 0.0
N484 N 0.51621 0.45401 0.96848 0.0
N485 N 0.54436 0.48871 0.95774 0.0
N486 N 0.55311 0.46385 0.99411 0.0
C487 C 0.52259 0.47402 0.95259 0.0
C488 C 0.55975 0.48383 0.97838 0.0
C489 C 0.53137 0.44883 0.98935 0.0
C490 C 0.50652 0.47955 0.92944 0.0
C491 C 0.48482 0.4636 0.9226 0.0
C492 C 0.4705 0.4684 0.90017 0.0
C493 C 0.47758 0.4892 0.88421 0.0
C494 C 0.49883 0.50546 0.89117 0.0
C495 C 0.51318 0.5007 0.91353 0.0
C496 C 0.58367 0.50002 0.98325 0.0
C497 C 0.59101 0.51958 0.96583 0.0
C498 C 0.6134 0.53494 0.97016 0.0
C499 C 0.62893 0.53136 0.99208 0.0
C500 C 0.622 0.51159 0.00937 0.0
C501 C 0.59953 0.49609 0.00504 0.0
C502 C 0.52473 0.42661 0.00641 0.0
C503 C 0.54065 0.42116 0.02778 0.0
C504 C 0.72056 0.24603 0.40406 0.0
C505 C 0.71154 0.27138 0.40188 0.0
C506 C 0.69825 0.27827 0.37937 0.0
C507 C 0.69452 0.2602 0.35905 0.0
H508 H 0.66206 0.24769 0.2833 0.0
H509 H 0.62831 0.25416 0.2507 0.0
H510 H 0.61751 0.17105 0.24138 0.0
H511 H 0.65216 0.16444 0.27319 0.0
H512 H 0.71115 0.13427 0.28626 0.0
H513 H 0.74415 0.10153 0.27926 0.0
H514 H 0.79554 0.14267 0.33293 0.0
H515 H 0.76258 0.17519 0.34053 0.0
H516 H 0.72476 0.20879 0.3857 0.0
H517 H 0.73074 0.24036 0.42138 0.0
H518 H 0.69097 0.29768 0.37746 0.0
H519 H 0.68448 0.26614 0.34177 0.0
N520 N 0.68288 0.21923 0.32057 0.0
N521 N 0.69611 0.18136 0.29885 0.0
N522 N 0.71757 0.19585 0.33683 0.0
C523 C 0.67997 0.20181 0.30061 0.0
C524 C 0.71517 0.17842 0.31683 0.0
C525 C 0.70142 0.21618 0.33893 0.0
C526 C 0.6597 0.20555 0.28077 0.0
C527 C 0.65254 0.23079 0.27425 0.0
C528 C 0.63329 0.23453 0.25564 0.0
C529 C 0.62028 0.2131 0.24375 0.0
C530 C 0.62729 0.18784 0.25035 0.0
C531 C 0.64709 0.1841 0.26844 0.0
C532 C 0.73421 0.15744 0.31388 0.0
C533 C 0.72934 0.13623 0.29681 0.0
C534 C 0.74812 0.11745 0.29285 0.0
C535 C 0.77225 0.11971 0.3056 0.0
C536 C 0.77699 0.14052 0.32305 0.0
C537 C 0.75809 0.15909 0.32731 0.0
C538 C 0.70433 0.23503 0.36082 0.0
C539 C 0.71723 0.22809 0.38362 0.0
C540 C 0.49098 0.10001 0.04864 0.0
C541 C 0.5012 0.12323 0.03865 0.0
C542 C 0.50807 0.12413 0.0124 0.0
C543 C 0.50405 0.1022 0.99624 0.0
H544 H 0.42553 0.02522 0.01944 0.0
H545 H 0.38521 1.00041 0.0272 0.0
H546 H 0.39801 0.95404 0.95838 0.0
H547 H 0.43842 0.97869 0.95024 0.0
H548 H 0.48721 0.9922 0.91451 0.0
H549 H 0.51289 0.98467 0.87537 0.0
H550 H 0.56233 0.0511 0.89512 0.0
H551 H 0.537 0.05891 0.93422 0.0
H552 H 0.47798 0.0608 0.04069 0.0
H553 H 0.48632 0.09875 0.06889 0.0
H554 H 0.51614 0.14191 0.00439 0.0
H555 H 0.50904 0.10348 0.97594 0.0
N556 N 0.46561 0.04078 0.99428 0.0
N557 N 0.47327 0.01572 0.95687 0.0
N558 N 0.50038 0.05197 0.96714 0.0
C559 C 0.45884 0.02034 0.97841 0.0
C560 C 0.49417 0.03137 0.95116 0.0
C561 C 0.48626 0.05667 0.9888 0.0
C562 C 0.43526 0.0041 0.98407 0.0
C563 C 0.41997 0.00964 0.00597 0.0
C564 C 0.39691 0.99549 0.01053 0.0
C565 C 0.3887 0.97553 0.99332 0.0
C566 C 0.40412 0.96943 0.97185 0.0
C567 C 0.42719 0.98358 0.96724 0.0
C568 C 0.5099 0.02626 0.92759 0.0
C569 C 0.50358 0.00521 0.91064 0.0
C570 C 0.51823 1.00081 0.88827 0.0
C571 C 0.53943 0.01736 0.88243 0.0
C572 C 0.54602 0.03813 0.89936 0.0
C573 C 0.53143 0.04256 0.92169 0.0
C574 C 0.49266 0.07924 0.00604 0.0
C575 C 0.48641 0.07832 0.03247 0.0
Mn576 Mn 0.25507 0.8738 0.01172 0.0
Mn577 Mn 0.25231 0.89983 0.95217 0.0
C578 C 0.23563 0.85036 0.97759 0.0
C579 C 0.27512 0.84884 0.04273 0.0
C580 C 0.21822 0.91665 0.99712 0.0
O581 O 0.2828 0.90303 0.01367 0.0
O582 O 0.28151 0.91644 0.97224 0.0
C583 C 0.30217 0.88161 0.93116 0.0
N584 N 0.2758 0.88253 0.92953 0.0
C585 C 0.27528 0.85763 0.88964 0.0
C586 C 0.30243 0.85659 0.89079 0.0
C587 C 0.31591 0.8685 0.91173 0.0
C588 C 0.26262 0.87078 0.90968 0.0
H589 H 0.31266 0.8908 0.94716 0.0
C590 C 0.2915 0.91679 0.99502 0.0
O591 O 0.25838 0.86618 0.04915 0.0
O592 O 0.28154 0.84721 0.01851 0.0
N593 N 0.22539 0.8848 0.93048 0.0
C594 C 0.19925 0.8878 0.93201 0.0
C595 C 0.18288 0.87616 0.91305 0.0
C596 C 0.19359 0.86216 0.89229 0.0
C597 C 0.22061 0.86016 0.89056 0.0
C598 C 0.23593 0.87194 0.9102 0.0
H599 H 0.19098 0.89917 0.94743 0.0
O600 O 0.22985 0.84501 1.00137 0.0
O601 O 0.25216 0.8696 0.97461 0.0
O602 O 0.22623 0.90025 0.01326 0.0
O603 O 0.22692 0.91864 0.97405 0.0
C604 C 0.23296 0.84707 0.87003 0.0
C605 C 0.26027 0.84583 0.86955 0.0
H606 H 0.3131 0.84651 0.87582 0.0
H607 H 0.33686 0.86765 0.91284 0.0
H608 H 0.16206 0.87816 0.91432 0.0
H609 H 0.18091 0.85327 0.87766 0.0
H610 H 0.22164 0.83786 0.85452 0.0
H611 H 0.26952 0.83551 0.85379 0.0
Mn612 Mn 0.14568 0.49943 0.256 0.0
Mn613 Mn 0.12414 0.56068 0.25245 0.0
C614 C 0.17116 0.53172 0.23677 0.0
C615 C 0.16919 0.46839 0.27783 0.0
C616 C 0.10411 0.51595 0.21767 0.0
O617 O 0.11645 0.49971 0.28263 0.0
O618 O 0.10559 0.54187 0.28056 0.0
C619 C 0.14424 0.58015 0.30321 0.0
N620 N 0.14335 0.58201 0.27694 0.0
C621 C 0.17367 0.61849 0.278 0.0
C622 C 0.17479 0.61706 0.30506 0.0
C623 C 0.16006 0.59775 0.31771 0.0
C624 C 0.15768 0.60032 0.26456 0.0
H625 H 0.1331 0.56526 0.31305 0.0
C626 C 0.10351 0.51921 0.29041 0.0
O627 O 0.15173 0.46147 0.26063 0.0
O628 O 0.17176 0.49297 0.28338 0.0
N629 N 0.14098 0.5813 0.22657 0.0
C630 C 0.13727 0.58053 0.20045 0.0
C631 C 0.15078 0.59842 0.18489 0.0
C632 C 0.16744 0.61741 0.19642 0.0
C633 C 0.17012 0.61855 0.22344 0.0
C634 C 0.15626 0.60008 0.23792 0.0
H635 H 0.12382 0.56662 0.19159 0.0
O636 O 0.17482 0.50736 0.2315 0.0
O637 O 0.15236 0.53626 0.25274 0.0
O638 O 0.11893 0.49865 0.22645 0.0
O639 O 0.10414 0.53957 0.22604 0.0
C640 C 0.18593 0.63733 0.23658 0.0
C641 C 0.1879 0.63716 0.26382 0.0
H642 H 0.18696 0.6306 0.31631 0.0
H643 H 0.16092 0.59642 0.33858 0.0
H644 H 0.14821 0.5977 0.16408 0.0
H645 H 0.17785 0.63118 0.18438 0.0
H646 H 0.19684 0.65188 0.2259 0.0
H647 H 0.2004 0.65149 0.27367 0.0
Mn648 Mn 0.75972 0.62186 0.00717 0.0
Mn649 Mn 0.70816 0.64839 0.97781 0.0
C650 C 0.71921 0.60044 0.00742 0.0
C651 C 0.79626 0.59625 0.00657 0.0
C652 C 0.72997 0.66779 0.0295 0.0
O653 O 0.77678 0.64882 0.98368 0.0
O654 O 0.74111 0.66273 0.963 0.0
C655 C 0.71454 0.62578 0.92515 0.0
N656 N 0.69981 0.6292 0.9467 0.0
C657 C 0.66364 0.60555 0.92708 0.0
C658 C 0.67849 0.60164 0.90472 0.0
C659 C 0.7041 0.61172 0.90381 0.0
C660 C 0.6753 0.61925 0.94793 0.0
H661 H 0.73404 0.63383 0.92423 0.0
C662 C 0.76573 0.66251 0.96669 0.0
O663 O 0.79349 0.61452 0.02385 0.0
O664 O 0.77815 0.59307 0.98915 0.0
N665 N 0.67503 0.63625 0.98998 0.0
C666 C 0.66311 0.64214 0.01278 0.0
C667 C 0.63723 0.63388 0.01665 0.0
C668 C 0.62369 0.62012 0.99687 0.0
C669 C 0.63618 0.61473 0.9734 0.0
C670 C 0.66205 0.62329 0.97072 0.0
H671 H 0.67324 0.6531 0.02793 0.0
O672 O 0.73676 0.59526 0.02452 0.0
O673 O 0.72588 0.61807 0.99083 0.0
O674 O 0.74756 0.65097 0.03136 0.0
O675 O 0.71463 0.6689 0.01008 0.0
C676 C 0.62383 0.60157 0.95241 0.0
C677 C 0.63765 0.59666 0.92938 0.0
H678 H 0.6704 0.59105 0.88812 0.0
H679 H 0.71568 0.60886 0.8866 0.0
H680 H 0.62769 0.63823 0.03479 0.0
H681 H 0.60369 0.61384 0.99989 0.0
H682 H 0.60374 0.59495 0.95384 0.0
H683 H 0.62803 0.58619 0.9135 0.0
Mn684 Mn 0.87454 0.01295 0.25761 0.0
Mn685 Mn 0.89691 0.95183 0.25252 0.0
C686 C 0.85008 0.98039 0.2362 0.0
C687 C 0.85033 0.04517 0.27756 0.0
C688 C 0.91758 0.99677 0.2204 0.0
O689 O 0.9022 0.01261 0.28612 0.0
O690 O 0.91441 0.97089 0.28182 0.0
C691 C 0.87666 0.93154 0.30204 0.0
N692 N 0.87794 0.9299 0.27571 0.0
C693 C 0.85097 0.89092 0.27476 0.0
C694 C 0.84951 0.8921 0.30186 0.0
C695 C 0.86228 0.9126 0.31554 0.0
C696 C 0.86532 0.91053 0.26234 0.0
H697 H 0.88654 0.94716 0.31269 0.0
C698 C 0.9154 0.99324 0.29322 0.0
O699 O 0.86944 0.05092 0.26222 0.0
O700 O 0.84659 0.02082 0.28299 0.0
N701 N 0.88108 0.93083 0.22544 0.0
C702 C 0.88492 0.93202 0.19942 0.0
C703 C 0.87273 0.91341 0.18289 0.0
C704 C 0.85742 0.89321 0.19334 0.0
C705 C 0.85463 0.89169 0.22026 0.0
C706 C 0.86697 0.91102 0.23574 0.0
H707 H 0.89754 0.94675 0.19138 0.0
O708 O 0.84669 0.00471 0.23123 0.0
O709 O 0.86814 0.97593 0.25304 0.0
O710 O 0.90267 0.01381 0.22978 0.0
O711 O 0.91723 0.97301 0.22737 0.0
C712 C 0.84034 0.87159 0.23235 0.0
C713 C 0.83852 0.87119 0.25958 0.0
H714 H 0.83851 0.87748 0.31234 0.0
H715 H 0.86114 0.91373 0.33644 0.0
H716 H 0.87543 0.91444 0.16216 0.0
H717 H 0.84824 0.87876 0.18054 0.0
H718 H 0.83066 0.85633 0.2209 0.0
H719 H 0.8273 0.85576 0.26864 0.0
Mn720 Mn 0.26006 0.12341 0.5103 0.0
Mn721 Mn 0.20895 0.14985 0.48004 0.0
C722 C 0.21956 0.102 0.50993 0.0
C723 C 0.29659 0.09774 0.51027 0.0
C724 C 0.2299 0.16939 0.53201 0.0
O725 O 0.27749 0.15027 0.487 0.0
O726 O 0.24211 0.16417 0.46584 0.0
C727 C 0.21638 0.12714 0.42758 0.0
N728 N 0.2012 0.13063 0.44881 0.0
C729 C 0.16537 0.10708 0.42848 0.0
C730 C 0.18067 0.10312 0.40643 0.0
C731 C 0.20633 0.1131 0.40604 0.0
C732 C 0.17664 0.12074 0.44956 0.0
H733 H 0.23593 0.1351 0.42707 0.0
C734 C 0.26667 0.16394 0.46985 0.0
O735 O 0.29363 0.11608 0.52745 0.0
O736 O 0.2787 0.09456 0.49263 0.0
N737 N 0.17559 0.1377 0.4916 0.0
C738 C 0.16324 0.14363 0.51416 0.0
C739 C 0.13725 0.13545 0.5175 0.0
C740 C 0.12406 0.12175 0.49745 0.0
C741 C 0.137 0.11633 0.47423 0.0
C742 C 0.16296 0.1248 0.47208 0.0
H743 H 0.17309 0.15455 0.5295 0.0
O744 O 0.23682 0.09682 0.52733 0.0
O745 O 0.2265 0.11961 0.49345 0.0
O746 O 0.24751 0.15262 0.53421 0.0
O747 O 0.21482 0.17038 0.51239 0.0
C748 C 0.12503 0.10324 0.45299 0.0
C749 C 0.1393 0.09828 0.43026 0.0
H750 H 0.17288 0.09255 0.38967 0.0
H751 H 0.21826 0.1102 0.38909 0.0
H752 H 0.12736 0.13982 0.53544 0.0
H753 H 0.10398 0.11553 0.50006 0.0
H754 H 0.10488 0.09673 0.454 0.0
H755 H 0.12997 0.08785 0.41418 0.0
Mn756 Mn 0.37504 0.51578 0.75631 0.0
Mn757 Mn 0.39758 0.45495 0.74913 0.0
C758 C 0.34949 0.48342 0.73599 0.0
C759 C 0.35332 0.54756 0.78055 0.0
C760 C 0.41631 0.50074 0.71694 0.0
O761 O 0.40473 0.51515 0.78269 0.0
O762 O 0.41563 0.47304 0.77865 0.0
C763 C 0.37893 0.43252 0.79832 0.0
N764 N 0.37949 0.43193 0.77194 0.0
C765 C 0.3534 0.39239 0.7702 0.0
C766 C 0.35272 0.39247 0.79734 0.0
C767 C 0.36539 0.41273 0.81145 0.0
C768 C 0.36695 0.4128 0.75818 0.0
H769 H 0.38878 0.44795 0.80929 0.0
C770 C 0.41745 0.49547 0.7898 0.0
O771 O 0.36995 0.55355 0.76266 0.0
O772 O 0.34952 0.52288 0.78426 0.0
N773 N 0.38115 0.43492 0.72171 0.0
C774 C 0.38385 0.43748 0.69566 0.0
C775 C 0.37149 0.41932 0.67876 0.0
C776 C 0.35711 0.39825 0.68883 0.0
C777 C 0.35535 0.39546 0.71572 0.0
C778 C 0.3678 0.41439 0.73159 0.0
H779 H 0.39558 0.45307 0.68784 0.0
O780 O 0.34528 0.50779 0.73199 0.0
O781 O 0.36873 0.47886 0.75142 0.0
O782 O 0.40098 0.51735 0.72646 0.0
O783 O 0.41715 0.47717 0.72432 0.0
C784 C 0.34191 0.37454 0.72739 0.0
C785 C 0.34094 0.373 0.75461 0.0
H786 H 0.34235 0.37719 0.80753 0.0
H787 H 0.36483 0.41301 0.8324 0.0
H788 H 0.37329 0.4214 0.65803 0.0
H789 H 0.34774 0.38418 0.67573 0.0
H790 H 0.33225 0.35951 0.71563 0.0
H791 H 0.33034 0.35695 0.76335 0.0
Mn792 Mn 0.75401 0.37434 0.51474 0.0
Mn793 Mn 0.75133 0.3972 0.45374 0.0
C794 C 0.73383 0.34962 0.48184 0.0
C795 C 0.77308 0.35074 0.54752 0.0
C796 C 0.71764 0.41693 0.49769 0.0
O797 O 0.78268 0.40264 0.51493 0.0
O798 O 0.78031 0.4149 0.47319 0.0
C799 C 0.80143 0.37782 0.43444 0.0
N800 N 0.77509 0.37873 0.43235 0.0
C801 C 0.77509 0.35218 0.39352 0.0
C802 C 0.80221 0.35111 0.39515 0.0
C803 C 0.81541 0.36385 0.4158 0.0
C804 C 0.76216 0.36614 0.41283 0.0
H805 H 0.81172 0.38768 0.45017 0.0
C806 C 0.79082 0.41592 0.49572 0.0
O807 O 0.75724 0.36926 0.55266 0.0
O808 O 0.77926 0.34702 0.52342 0.0
N809 N 0.72467 0.38113 0.43241 0.0
C810 C 0.69856 0.38449 0.43322 0.0
C811 C 0.68244 0.37222 0.41442 0.0
C812 C 0.69341 0.3573 0.39447 0.0
C813 C 0.72043 0.355 0.39337 0.0
C814 C 0.73547 0.36739 0.41287 0.0
H815 H 0.69014 0.39674 0.44784 0.0
O816 O 0.72787 0.34583 0.5059 0.0
O817 O 0.75086 0.36818 0.47782 0.0
O818 O 0.72611 0.40182 0.51483 0.0
O819 O 0.72569 0.41709 0.4743 0.0
C820 C 0.73305 0.34111 0.37355 0.0
C821 C 0.76035 0.33971 0.37362 0.0
H822 H 0.81307 0.34042 0.38077 0.0
H823 H 0.83634 0.36301 0.41728 0.0
H824 H 0.66163 0.37453 0.41514 0.0
H825 H 0.68093 0.34801 0.3799 0.0
H826 H 0.72195 0.33144 0.35814 0.0
H827 H 0.76981 0.32879 0.3584 0.0
Mn828 Mn 0.64757 1.00002 0.75703 0.0
Mn829 Mn 0.62079 0.05899 0.75209 0.0
C830 C 0.67076 0.03406 0.73789 0.0
C831 C 0.67256 0.97086 0.77973 0.0
C832 C 0.60495 0.01213 0.71816 0.0
O833 O 0.61774 0.99835 0.78304 0.0
O834 O 0.60416 0.03966 0.78092 0.0
C835 C 0.63837 0.08272 0.80204 0.0
N836 N 0.63753 0.0832 0.77568 0.0
C837 C 0.66143 0.12406 0.77524 0.0
C838 C 0.6624 0.12409 0.80238 0.0
C839 C 0.65095 0.10325 0.81582 0.0
C840 C 0.64881 0.10297 0.76255 0.0
H841 H 0.62951 0.06679 0.81247 0.0
C842 C 0.60363 0.01699 0.79087 0.0
O843 O 0.656 0.96276 0.76216 0.0
O844 O 0.67361 0.99559 0.78505 0.0
N845 N 0.63563 0.07994 0.72535 0.0
C846 C 0.63321 0.07689 0.6992 0.0
C847 C 0.6445 0.09557 0.6829 0.0
C848 C 0.65768 0.11749 0.69366 0.0
C849 C 0.65929 0.12061 0.72065 0.0
C850 C 0.64783 0.10124 0.7359 0.0
H851 H 0.62267 0.06039 0.69083 0.0
O852 O 0.67665 0.01009 0.73314 0.0
O853 O 0.65127 0.03723 0.75341 0.0
O854 O 0.62159 0.99656 0.72686 0.0
O855 O 0.60259 0.03548 0.72657 0.0
C856 C 0.67179 0.1422 0.73301 0.0
C857 C 0.67282 0.14395 0.76028 0.0
H858 H 0.67208 0.1399 0.81308 0.0
H859 H 0.65174 0.10306 0.83676 0.0
H860 H 0.64294 0.09313 0.66209 0.0
H861 H 0.66636 0.13187 0.68103 0.0
H862 H 0.68077 0.15753 0.72173 0.0
H863 H 0.68272 0.16051 0.76956 0.0
Mn864 Mn 0.01426 0.25133 0.87547 0.0
Mn865 Mn 0.95342 0.25075 0.89986 0.0
C866 C 0.97993 0.23241 0.85195 0.0
C867 C 0.04761 0.26935 0.85073 0.0
C868 C 0.99527 0.21535 0.91863 0.0
O869 O 0.01664 0.28013 0.90301 0.0
O870 O 0.9751 0.2788 0.91719 0.0
C871 C 0.93655 0.30184 0.88147 0.0
N872 N 0.9332 0.27549 0.8821 0.0
C873 C 0.89437 0.27699 0.85614 0.0
C874 C 0.89742 0.30413 0.85524 0.0
C875 C 0.91866 0.31659 0.86788 0.0
C876 C 0.91294 0.26329 0.86982 0.0
H877 H 0.9527 0.31154 0.89133 0.0
C878 C 0.99832 0.28854 0.91719 0.0
O879 O 0.05231 0.25331 0.86916 0.0
O880 O 0.02376 0.27617 0.84769 0.0
N881 N 0.93053 0.22495 0.88425 0.0
C882 C 0.93053 0.19861 0.88672 0.0
C883 C 0.9109 0.1832 0.87462 0.0
C884 C 0.89131 0.19502 0.8604 0.0
C885 C 0.89142 0.22218 0.85855 0.0
C886 C 0.91151 0.23654 0.87097 0.0
H887 H 0.9455 0.1894 0.89767 0.0
O888 O 0.00356 0.22532 0.84779 0.0
O889 O 0.97712 0.24961 0.87037 0.0
O890 O 0.01299 0.22364 0.90346 0.0
O891 O 0.97231 0.22404 0.91894 0.0
C892 C 0.87238 0.23558 0.84488 0.0
C893 C 0.87382 0.26296 0.84373 0.0
H894 H 0.88364 0.31558 0.84479 0.0
H895 H 0.92118 0.33753 0.86723 0.0
H896 H 0.91091 0.16225 0.87621 0.0
H897 H 0.87624 0.18306 0.85105 0.0
H898 H 0.8566 0.22501 0.83509 0.0
H899 H 0.85919 0.27302 0.83298 0.0
Mn900 Mn 0.51179 0.75449 0.3719 0.0
Mn901 Mn 0.45236 0.75365 0.39951 0.0
C902 C 0.47619 0.73626 0.34983 0.0
C903 C 0.54353 0.77342 0.34577 0.0
C904 C 0.49511 0.71772 0.4152 0.0
O905 O 0.51585 0.78243 0.40019 0.0
O906 O 0.47489 0.78152 0.41595 0.0
C907 C 0.43441 0.80492 0.38274 0.0
N908 N 0.43114 0.77857 0.38321 0.0
C909 C 0.391 0.78029 0.35937 0.0
C910 C 0.39394 0.80745 0.35865 0.0
C911 C 0.4158 0.8198 0.37031 0.0
C912 C 0.41029 0.76647 0.37187 0.0
H913 H 0.45103 0.81454 0.39185 0.0
C914 C 0.4982 0.79095 0.41516 0.0
O915 O 0.54935 0.7565 0.36304 0.0
O916 O 0.51959 0.78051 0.34474 0.0
N917 N 0.42871 0.72798 0.38482 0.0
C918 C 0.42886 0.70162 0.38699 0.0
C919 C 0.40863 0.68632 0.37578 0.0
C920 C 0.38829 0.69827 0.36278 0.0
C921 C 0.38827 0.72545 0.36126 0.0
C922 C 0.40898 0.7397 0.37274 0.0
H923 H 0.4444 0.6923 0.39702 0.0
O924 O 0.49953 0.72934 0.34407 0.0
O925 O 0.47444 0.75299 0.36883 0.0
O926 O 0.51194 0.7259 0.39901 0.0
O927 O 0.47236 0.72677 0.41713 0.0
C928 C 0.3685 0.73898 0.34881 0.0
C929 C 0.36984 0.76638 0.3479 0.0
H930 H 0.37962 0.819 0.34909 0.0
H931 H 0.41824 0.84076 0.36979 0.0
H932 H 0.40874 0.66535 0.37713 0.0
H933 H 0.37276 0.68639 0.3541 0.0
H934 H 0.35221 0.7285 0.3398 0.0
H935 H 0.35464 0.77654 0.33808 0.0
Mn936 Mn 0.00875 0.75471 0.62851 0.0
Mn937 Mn 0.97482 0.70445 0.65406 0.0
C938 C 0.00633 0.71549 0.60612 0.0
C939 C 0.00949 0.79256 0.6045 0.0
C940 C 0.02847 0.72217 0.67346 0.0
O941 O 0.9875 0.77172 0.65702 0.0
O942 O 0.96279 0.7375 0.66992 0.0
C943 C 0.92337 0.71576 0.63198 0.0
N944 N 0.94312 0.69904 0.63516 0.0
C945 C 0.92006 0.66525 0.61098 0.0
C946 C 0.89938 0.68203 0.60758 0.0
C947 C 0.90112 0.70745 0.61801 0.0
C948 C 0.94184 0.67471 0.62487 0.0
H949 H 0.92463 0.73528 0.64004 0.0
C950 C 0.9694 0.76167 0.67067 0.0
O951 O 0.02733 0.78838 0.62165 0.0
O952 O 0.99098 0.77512 0.60163 0.0
N953 N 0.98395 0.671 0.64057 0.0
C954 C 0.00631 0.65794 0.64385 0.0
C955 C 0.00796 0.63231 0.6343 0.0
C956 C 0.98659 0.62037 0.62144 0.0
C957 C 0.96388 0.63431 0.61791 0.0
C958 C 0.96334 0.65974 0.62801 0.0
H959 H 0.02304 0.6673 0.65292 0.0
O960 O 0.02424 0.73277 0.60073 0.0
O961 O 0.98991 0.7221 0.62406 0.0
O962 O 0.03248 0.73904 0.65589 0.0
O963 O 0.00731 0.70867 0.67476 0.0
C964 C 0.94184 0.62407 0.60459 0.0
C965 C 0.92002 0.63959 0.60097 0.0
H966 H 0.88215 0.67566 0.59687 0.0
H967 H 0.8853 0.72056 0.61536 0.0
H968 H 0.02574 0.62187 0.63666 0.0
H969 H 0.98797 0.6006 0.6141 0.0
H970 H 0.94153 0.60437 0.59679 0.0
H971 H 0.90338 0.63166 0.59029 0.0
Mn972 Mn 0.50981 0.25566 0.12688 0.0
Mn973 Mn 0.48431 0.20153 0.15437 0.0
C974 C 0.51091 0.21587 0.10465 0.0
C975 C 0.50526 0.29279 0.10231 0.0
C976 C 0.53678 0.22589 0.16973 0.0
O977 O 0.48768 0.27027 0.15627 0.0
O978 O 0.46951 0.23295 0.17074 0.0
C979 C 0.43028 0.2071 0.13599 0.0
N980 N 0.45198 0.19268 0.13773 0.0
C981 C 0.43086 0.1565 0.11537 0.0
C982 C 0.40823 0.17088 0.11346 0.0
C983 C 0.40801 0.19637 0.12366 0.0
C984 C 0.45262 0.16841 0.12742 0.0
H985 H 0.42995 0.22666 0.14392 0.0
C986 C 0.47194 0.25775 0.17083 0.0
O987 O 0.52403 0.29096 0.11893 0.0
O988 O 0.48853 0.27348 0.10049 0.0
N989 N 0.49599 0.16918 0.14043 0.0
C990 C 0.51924 0.15779 0.14407 0.0
C991 C 0.52277 0.13232 0.13476 0.0
C992 C 0.50207 0.11846 0.12264 0.0
C993 C 0.47803 0.13025 0.11985 0.0
C994 C 0.47582 0.15584 0.1291 0.0
H995 H 0.5348 0.16787 0.1544 0.0
O996 O 0.52621 0.23514 0.09827 0.0
O997 O 0.49504 0.22071 0.12357 0.0
O998 O 0.53695 0.24399 0.15314 0.0
O999 O 0.51801 0.20928 0.17229 0.0
C1000 C 0.45603 0.11749 0.10865 0.0
C1001 C 0.43262 0.13075 0.10599 0.0
H1002 H 0.39094 0.16256 0.10419 0.0
H1003 H 0.39066 0.20765 0.12218 0.0
H1004 H 0.54128 0.12323 0.13732 0.0
H1005 H 0.50479 0.09871 0.11576 0.0
H1006 H 0.45682 0.09743 0.10207 0.0
H1007 H 0.41599 0.12085 0.09695 0.0
C1008 C 0.19879 0.80285 0.93197 0.0
C1009 C 0.2195 0.79379 0.91652 0.0
C1010 C 0.25074 0.81875 0.94361 0.0
C1011 C 0.22986 0.83077 0.95668 0.0
N1012 N 0.18381 0.83469 0.96322 0.0
N1013 N 0.26493 0.79569 0.9052 0.0
C1014 C 0.2038 0.82283 0.95091 0.0
C1015 C 0.24542 0.80243 0.9217 0.0
N1016 N 0.17455 0.79153 0.92932 0.0
N1017 N 0.2756 0.82194 0.95278 0.0
H1018 H 0.26178 0.78454 0.88836 0.0
H1019 H 0.28385 0.80326 0.90671 0.0
H1020 H 0.28047 0.833 0.96925 0.0
H1021 H 0.29112 0.81148 0.94565 0.0
H1022 H 0.15924 0.79524 0.94182 0.0
H1023 H 0.17022 0.7766 0.91593 0.0
H1024 H 0.16444 0.83235 0.95757 0.0
H1025 H 0.18674 0.84832 0.97812 0.0
C1026 C 0.07852 0.50647 0.3588 0.0
C1027 C 0.05364 0.51746 0.35732 0.0
C1028 C 0.0596 0.52409 0.31076 0.0
C1029 C 0.08579 0.51631 0.31295 0.0
N1030 N 0.12151 0.50413 0.34034 0.0
N1031 N 0.02121 0.53931 0.33269 0.0
C1032 C 0.09558 0.50828 0.33725 0.0
C1033 C 0.04427 0.52681 0.33346 0.0
N1034 N 0.08578 0.49414 0.38079 0.0
N1035 N 0.0492 0.52844 0.28689 0.0
H1036 H 0.00921 0.54136 0.34877 0.0
H1037 H 0.01485 0.54937 0.31665 0.0
H1038 H 0.05983 0.52704 0.26984 0.0
H1039 H 0.0295 0.53124 0.28372 0.0
H1040 H 0.10253 0.48334 0.38208 0.0
H1041 H 0.07384 0.49269 0.397 0.0
H1042 H 0.13014 0.50113 0.35827 0.0
H1043 H 0.135 0.50609 0.32548 0.0
C1044 C 0.79815 0.72237 0.93779 0.0
C1045 C 0.7977 0.71446 0.91129 0.0
C1046 C 0.78627 0.66986 0.92382 0.0
C1047 C 0.78188 0.67889 0.9494 0.0
N1048 N 0.78513 0.71287 0.98191 0.0
N1049 N 0.79017 0.68087 0.8786 0.0
C1050 C 0.78861 0.70486 0.95682 0.0
C1051 C 0.79187 0.68813 0.90416 0.0
N1052 N 0.808 0.7465 0.94465 0.0
N1053 N 0.78531 0.64373 0.9185 0.0
H1054 H 0.79406 0.69362 0.86355 0.0
H1055 H 0.78304 0.6627 0.87224 0.0
H1056 H 0.78168 0.63004 0.93282 0.0
H1057 H 0.79056 0.63562 0.90072 0.0
H1058 H 0.81096 0.75278 0.96372 0.0
H1059 H 0.81527 0.75961 0.9311 0.0
H1060 H 0.78646 0.73222 0.98813 0.0
H1061 H 0.78 0.69994 0.99649 0.0
C1062 C 0.97233 0.98448 0.33899 0.0
C1063 C 0.9615 0.99228 0.36302 0.0
C1064 C 0.9205 1.00179 0.34129 0.0
C1065 C 0.93185 0.99559 0.31695 0.0
N1066 N 0.97005 0.98556 0.29218 0.0
N1067 N 0.92752 0.01341 0.38656 0.0
C1068 C 0.95826 0.98836 0.3157 0.0
C1069 C 0.9363 1.00261 0.36398 0.0
N1070 N 0.99558 0.97227 0.33849 0.0
N1071 N 0.89431 0.00508 0.34313 0.0
H1072 H 0.93849 0.01406 0.40361 0.0
H1073 H 0.91046 0.02375 0.38779 0.0
H1074 H 0.88172 0.00368 0.32729 0.0
H1075 H 0.88463 0.00674 0.36072 0.0
H1076 H 1.003 0.96333 0.32197 0.0
H1077 H 0.00662 0.96918 0.35508 0.0
H1078 H 0.98995 0.9833 0.29 0.0
H1079 H 0.9603 0.98769 0.27468 0.0
C1080 C 0.22386 0.19921 0.59999 0.0
C1081 C 0.21893 0.22543 0.59415 0.0
C1082 C 0.22463 0.21562 0.54794 0.0
C1083 C 0.2265 0.18873 0.5535 0.0
N1084 N 0.22233 0.15449 0.58492 0.0
N1085 N 0.20986 0.25774 0.56234 0.0
C1086 C 0.22466 0.18037 0.57957 0.0
C1087 C 0.21794 0.2334 0.56804 0.0
N1088 N 0.22849 0.19235 0.62501 0.0
N1089 N 0.23038 0.22448 0.52377 0.0
H1090 H 0.20464 0.2713 0.57652 0.0
H1091 H 0.20602 0.26361 0.54354 0.0
H1092 H 0.23604 0.21239 0.50855 0.0
H1093 H 0.23209 0.24417 0.51951 0.0
H1094 H 0.23502 0.17412 0.63003 0.0
H1095 H 0.22821 0.2056 0.64054 0.0
H1096 H 0.21801 0.14757 0.60329 0.0
H1097 H 0.22207 0.13992 0.57069 0.0
C1098 C 0.47591 0.52852 0.68208 0.0
C1099 C 0.46944 0.52164 0.65603 0.0
C1100 C 0.42669 0.50522 0.6698 0.0
C1101 C 0.43415 0.50928 0.69603 0.0
N1102 N 0.4656 0.52468 0.72776 0.0
N1103 N 0.44039 0.50003 0.62527 0.0
C1104 C 0.45874 0.52092 0.70235 0.0
C1105 C 0.44529 0.50902 0.64994 0.0
N1106 N 0.49801 0.54309 0.68725 0.0
N1107 N 0.40144 0.49892 0.66379 0.0
H1108 H 0.4535 0.5025 0.61011 0.0
H1109 H 0.42435 0.48816 0.62032 0.0
H1110 H 0.38724 0.49705 0.67795 0.0
H1111 H 0.3941 0.49822 0.64496 0.0
H1112 H 0.50264 0.55109 0.70539 0.0
H1113 H 0.51108 0.54875 0.6729 0.0
H1114 H 0.48428 0.52999 0.73397 0.0
H1115 H 0.45262 0.5215 0.74289 0.0
C1116 C 0.76964 0.30522 0.60476 0.0
C1117 C 0.79538 0.29623 0.60558 0.0
C1118 C 0.80758 0.32627 0.57097 0.0
C1119 C 0.78108 0.33253 0.56789 0.0
N1120 N 0.73604 0.32265 0.57807 0.0
N1121 N 0.83821 0.29529 0.58687 0.0
C1122 C 0.76184 0.32066 0.58381 0.0
C1123 C 0.81425 0.30599 0.58799 0.0
N1124 N 0.7527 0.29947 0.62429 0.0
N1125 N 0.82643 0.34025 0.55838 0.0
H1126 H 0.84375 0.28031 0.59887 0.0
H1127 H 0.85176 0.29973 0.57258 0.0
H1128 H 0.82229 0.3557 0.54639 0.0
H1129 H 0.84621 0.33824 0.56182 0.0
H1130 H 0.73454 0.30776 0.62591 0.0
H1131 H 0.75779 0.28858 0.64029 0.0
H1132 H 0.72149 0.31214 0.58759 0.0
H1133 H 0.72921 0.33233 0.56196 0.0
C1134 C 0.54535 0.98523 0.68126 0.0
C1135 C 0.55184 0.99301 0.65578 0.0
C1136 C 0.59503 0.00776 0.67075 0.0
C1137 C 0.58757 0.003 0.69663 0.0
N1138 N 0.5563 0.98656 0.72714 0.0
N1139 N 0.58139 0.0147 0.62657 0.0
C1140 C 0.56288 0.99148 0.70207 0.0
C1141 C 0.57631 0.00509 0.65061 0.0
N1142 N 0.52282 0.97122 0.68532 0.0
N1143 N 0.62037 0.01375 0.66533 0.0
H1144 H 0.56823 0.01302 0.61119 0.0
H1145 H 0.59773 0.02626 0.62245 0.0
H1146 H 0.63456 0.01463 0.67971 0.0
H1147 H 0.62772 0.01505 0.64664 0.0
H1148 H 0.51796 0.9627 0.70283 0.0
H1149 H 0.50946 0.96669 0.67057 0.0
H1150 H 0.53764 0.98124 0.73306 0.0
H1151 H 0.56964 0.98852 0.74234 0.0
C1152 C 0.93498 0.19701 0.80307 0.0
C1153 C 0.92108 0.21818 0.79329 0.0
C1154 C 0.94845 0.24862 0.81903 0.0
C1155 C 0.95968 0.22732 0.83175 0.0
N1156 N 0.96266 0.18099 0.83694 0.0
N1157 N 0.91187 0.26395 0.79471 0.0
C1158 C 0.95279 0.20141 0.82394 0.0
C1159 C 0.92709 0.24396 0.80201 0.0
N1160 N 0.93189 0.17288 0.79174 0.0
N1161 N 0.95883 0.27324 0.82225 0.0
H1162 H 0.89543 0.26132 0.78302 0.0
H1163 H 0.91395 0.28279 0.80232 0.0
H1164 H 0.97502 0.27769 0.83377 0.0
H1165 H 0.95308 0.28895 0.81137 0.0
H1166 H 0.94342 0.15725 0.79614 0.0
H1167 H 0.91934 0.16901 0.77615 0.0
H1168 H 0.95614 0.16179 0.83419 0.0
H1169 H 0.97576 0.18347 0.85224 0.0
C1170 C 0.50253 0.8622 0.43562 0.0
C1171 C 0.49937 0.85957 0.46275 0.0
C1172 C 0.5055 0.81264 0.45818 0.0
C1173 C 0.5037 0.81473 0.431 0.0
N1174 N 0.50011 0.84125 0.39319 0.0
N1175 N 0.49566 0.83188 0.49996 0.0
C1176 C 0.50247 0.8395 0.41947 0.0
C1177 C 0.50056 0.83469 0.47416 0.0
N1178 N 0.50599 0.88638 0.4254 0.0
N1179 N 0.51246 0.78963 0.46856 0.0
H1180 H 0.49156 0.84745 0.51234 0.0
H1181 H 0.49354 0.81384 0.50867 0.0
H1182 H 0.51759 0.77383 0.45689 0.0
H1183 H 0.51609 0.78725 0.48822 0.0
H1184 H 0.51088 0.88948 0.40614 0.0
H1185 H 0.50633 0.90338 0.43675 0.0
H1186 H 0.49581 0.8584 0.38388 0.0
H1187 H 0.50096 0.82515 0.38068 0.0
C1188 C 0.10411 0.26605 0.80362 0.0
C1189 C 0.10518 0.29185 0.79441 0.0
C1190 C 0.07154 0.30391 0.82555 0.0
C1191 C 0.06807 0.27735 0.83211 0.0
N1192 N 0.07714 0.23227 0.8223 0.0
N1193 N 0.08706 0.3346 0.79368 0.0
C1194 C 0.08335 0.25814 0.81986 0.0
C1195 C 0.08813 0.31065 0.8046 0.0
N1196 N 0.12323 0.24918 0.79732 0.0
N1197 N 0.05972 0.32277 0.83985 0.0
H1198 H 0.09865 0.34016 0.77811 0.0
H1199 H 0.07308 0.34807 0.79855 0.0
H1200 H 0.04809 0.31863 0.85582 0.0
H1201 H 0.06355 0.34258 0.83751 0.0
H1202 H 0.1247 0.23099 0.80569 0.0
H1203 H 0.1391 0.25435 0.78584 0.0
H1204 H 0.08614 0.21775 0.81158 0.0
H1205 H 0.06112 0.22536 0.83263 0.0
C1206 C 0.51254 0.65025 0.4384 0.0
C1207 C 0.51721 0.65549 0.46511 0.0
C1208 C 0.50415 0.70057 0.45965 0.0
C1209 C 0.50221 0.69614 0.43244 0.0
N1210 N 0.50723 0.66736 0.39539 0.0
N1211 N 0.52217 0.68663 0.50036 0.0
C1212 C 0.50735 0.67118 0.42165 0.0
C1213 C 0.51428 0.68093 0.47553 0.0
N1214 N 0.51189 0.62512 0.42924 0.0
N1215 N 0.49608 0.72338 0.47046 0.0
H1216 H 0.53001 0.67287 0.51252 0.0
H1217 H 0.52325 0.70546 0.50812 0.0
H1218 H 0.48895 0.73852 0.45966 0.0
H1219 H 0.49435 0.72648 0.49036 0.0
H1220 H 0.50571 0.61973 0.41064 0.0
H1221 H 0.51533 0.60924 0.44093 0.0
H1222 H 0.51392 0.65061 0.38632 0.0
H1223 H 0.50203 0.6816 0.38245 0.0
C1224 C 0.92404 0.8115 0.69962 0.0
C1225 C 0.92417 0.80372 0.72583 0.0
C1226 C 0.96159 0.77673 0.71637 0.0
C1227 C 0.95593 0.77852 0.68953 0.0
N1228 N 0.93259 0.79914 0.65517 0.0
N1229 N 0.95503 0.79519 0.75936 0.0
C1230 C 0.93755 0.79652 0.68096 0.0
C1231 C 0.94671 0.79116 0.73445 0.0
N1232 N 0.91574 0.83551 0.69344 0.0
N1233 N 0.98058 0.76077 0.7246 0.0
H1234 H 0.94553 0.80785 0.77195 0.0
H1235 H 0.97254 0.78854 0.76646 0.0
H1236 H 0.9927 0.75091 0.71187 0.0
H1237 H 0.98345 0.75637 0.74399 0.0
H1238 H 0.91694 0.84286 0.67479 0.0
H1239 H 0.9125 0.84956 0.70782 0.0
H1240 H 0.91748 0.81027 0.64836 0.0
H1241 H 0.94246 0.78891 0.64081 0.0
C1242 C 0.02305 0.83539 0.54654 0.0
C1243 C 0.01516 0.85989 0.55629 0.0
C1244 C 0.00433 0.84041 0.59812 0.0
C1245 C 0.01091 0.81569 0.58786 0.0
N1246 N 0.02284 0.78858 0.55143 0.0
N1247 N 0.99465 0.88542 0.58956 0.0
C1248 C 0.01905 0.81285 0.56175 0.0
C1249 C 0.00478 0.86232 0.58162 0.0
N1250 N 0.03544 0.83385 0.5232 0.0
N1251 N 0.99788 0.84292 0.62369 0.0
H1252 H 0.99473 0.90184 0.57797 0.0
H1253 H 0.9844 0.88789 0.6067 0.0
H1254 H 0.99612 0.82711 0.63599 0.0
H1255 H 0.99575 0.86075 0.63318 0.0
H1256 H 0.04442 0.81722 0.51637 0.0
H1257 H 0.03857 0.84985 0.51137 0.0
H1258 H 0.02569 0.78493 0.53177 0.0
H1259 H 0.02138 0.77166 0.56222 0.0
C1260 C 0.07702 0.69384 0.72238 0.0
C1261 C 0.09533 0.71493 0.72385 0.0
C1262 C 0.06524 0.7418 0.70015 0.0
C1263 C 0.04921 0.71953 0.69393 0.0
N1264 N 0.03947 0.67361 0.70181 0.0
N1265 N 0.10843 0.75815 0.71099 0.0
C1266 C 0.05486 0.69535 0.70585 0.0
C1267 C 0.0899 0.73864 0.71176 0.0
N1268 N 0.07992 0.67289 0.738 0.0
N1269 N 0.05614 0.76621 0.69674 0.0
H1270 H 0.12692 0.75648 0.71903 0.0
H1271 H 0.10623 0.77488 0.70019 0.0
H1272 H 0.03702 0.7695 0.69118 0.0
H1273 H 0.06626 0.78304 0.70294 0.0
H1274 H 0.06563 0.65839 0.74031 0.0
H1275 H 0.09564 0.67104 0.75054 0.0
H1276 H 0.04588 0.6549 0.70504 0.0
H1277 H 0.0202 0.67385 0.69606 0.0
C1278 C 0.02287 0.65363 0.56863 0.0
C1279 C 0.99906 0.64811 0.55547 0.0
C1280 C 0.9806 0.68767 0.57416 0.0
C1281 C 1.00339 0.69175 0.58945 0.0
N1282 N 0.0459 0.67829 0.60253 0.0
N1283 N 0.95432 0.65804 0.54726 0.0
C1284 C 0.02458 0.67479 0.5868 0.0
C1285 C 0.97764 0.66459 0.55874 0.0
N1286 N 0.04389 0.63871 0.56356 0.0
N1287 N 0.96239 0.7065 0.57326 0.0
H1288 H 0.95165 0.642 0.53479 0.0
H1289 H 0.93715 0.66742 0.55144 0.0
H1290 H 0.96396 0.72394 0.5838 0.0
H1291 H 0.94674 0.70593 0.56042 0.0
H1292 H 0.06262 0.64331 0.57007 0.0
H1293 H 0.04301 0.62234 0.55133 0.0
H1294 H 0.06085 0.66518 0.60368 0.0
H1295 H 0.0477 0.69327 0.61636 0.0
C1296 C 0.80176 0.93746 0.19703 0.0
C1297 C 0.79138 0.92162 0.2169 0.0
C1298 C 0.816 0.94741 0.24943 0.0
C1299 C 0.82941 0.96064 0.22933 0.0
N1300 N 0.83497 0.96867 0.18379 0.0
N1301 N 0.79077 0.90925 0.26177 0.0
C1302 C 0.82214 0.95589 0.20305 0.0
C1303 C 0.79902 0.92603 0.24306 0.0
N1304 N 0.79132 0.93568 0.17265 0.0
N1305 N 0.81856 0.95593 0.27458 0.0
H1306 H 0.7791 0.89275 0.25786 0.0
H1307 H 0.79754 0.91014 0.2808 0.0
H1308 H 0.83001 0.97207 0.28019 0.0
H1309 H 0.80722 0.94874 0.28963 0.0
H1310 H 0.79606 0.94851 0.15793 0.0
H1311 H 0.77612 0.92271 0.16763 0.0
H1312 H 0.8333 0.96351 0.16426 0.0
H1313 H 0.84846 0.98369 0.18747 0.0
C1314 C 0.80379 0.10119 0.27388 0.0
C1315 C 0.79319 0.10132 0.29916 0.0
C1316 C 0.82328 0.06744 0.31156 0.0
C1317 C 0.8313 0.065 0.28538 0.0
N1318 N 0.82374 0.0754 0.24044 0.0
N1319 N 0.79003 0.08185 0.34124 0.0
C1320 C 0.82017 0.0808 0.26619 0.0
C1321 C 0.80218 0.08371 0.31785 0.0
N1322 N 0.79872 0.12087 0.25732 0.0
N1323 N 0.83634 0.05495 0.33053 0.0
H1324 H 0.77439 0.09326 0.34643 0.0
H1325 H 0.79398 0.06749 0.35454 0.0
H1326 H 0.85229 0.04346 0.3267 0.0
H1327 H 0.833 0.058 0.35022 0.0
H1328 H 0.80813 0.12302 0.23963 0.0
H1329 H 0.78721 0.13652 0.26235 0.0
H1330 H 0.81383 0.0848 0.22584 0.0
H1331 H 0.83411 0.05963 0.23356 0.0
C1332 C 0.36269 0.93626 0.00729 0.0
C1333 C 0.36333 0.96163 0.99704 0.0
C1334 C 0.31596 0.9595 0.99186 0.0
C1335 C 0.31573 0.93286 0.99875 0.0
N1336 N 0.33986 0.89461 0.00897 0.0
N1337 N 0.34118 0.99689 0.97722 0.0
C1338 C 0.3393 0.92092 0.00573 0.0
C1339 C 0.34009 0.97322 0.98889 0.0
N1340 N 0.38446 0.92687 0.0186 0.0
N1341 N 0.29304 0.97178 0.98846 0.0
H1342 H 0.3584 0.00778 0.97502 0.0
H1343 H 0.32537 0.00494 0.968 0.0
H1344 H 0.27501 0.96227 0.98994 0.0
H1345 H 0.29178 0.9918 0.98632 0.0
H1346 H 0.38448 0.90963 0.02889 0.0
H1347 H 0.40201 0.93749 0.01974 0.0
H1348 H 0.35699 0.88456 0.01109 0.0
H1349 H 0.32354 0.88228 0.00717 0.0
C1350 C 0.232 0.43753 0.2987 0.0
C1351 C 0.22261 0.41329 0.30795 0.0
C1352 C 0.17811 0.42866 0.30413 0.0
C1353 C 0.1874 0.44965 0.28894 0.0
N1354 N 0.22414 0.47358 0.2709 0.0
N1355 N 0.18989 0.40027 0.33857 0.0
C1356 C 0.21463 0.45425 0.28634 0.0
C1357 C 0.19629 0.41226 0.31607 0.0
N1358 N 0.25682 0.44578 0.30437 0.0
N1359 N 0.15208 0.42462 0.30778 0.0
H1360 H 0.20423 0.3944 0.35137 0.0
H1361 H 0.17137 0.40056 0.3466 0.0
H1362 H 0.13817 0.43715 0.3009 0.0
H1363 H 0.14444 0.40796 0.31648 0.0
H1364 H 0.26403 0.46439 0.30026 0.0
H1365 H 0.26886 0.43504 0.3162 0.0
H1366 H 0.24381 0.47577 0.26653 0.0
H1367 H 0.21235 0.48577 0.26044 0.0
C1368 C 0.17388 0.04968 0.48027 0.0
C1369 C 0.1528 0.05036 0.49784 0.0
C1370 C 0.17694 0.08245 0.52502 0.0
C1371 C 0.19651 0.08428 0.50582 0.0
N1372 N 0.21359 0.06998 0.46453 0.0
N1373 N 0.13232 0.07036 0.53481 0.0
C1374 C 0.19489 0.06809 0.48318 0.0
C1375 C 0.15387 0.06741 0.51977 0.0
N1376 N 0.17451 0.03046 0.46163 0.0
N1377 N 0.18026 0.09524 0.54826 0.0
H1378 H 0.11473 0.06041 0.53115 0.0
H1379 H 0.131 0.08451 0.54938 0.0
H1380 H 0.19611 0.10767 0.55228 0.0
H1381 H 0.16818 0.09222 0.56411 0.0
H1382 H 0.19053 0.02709 0.44995 0.0
H1383 H 0.15989 0.01615 0.45935 0.0
H1384 H 0.21148 0.06172 0.44606 0.0
H1385 H 0.23076 0.08098 0.46683 0.0
C1386 C 0.71727 0.09256 0.74665 0.0
C1387 C 0.72557 0.09646 0.72083 0.0
C1388 C 0.69747 0.05985 0.70585 0.0
C1389 C 0.68974 0.05545 0.73183 0.0
N1390 N 0.69844 0.06274 0.77749 0.0
N1391 N 0.72773 0.08105 0.67656 0.0
C1392 C 0.70142 0.07039 0.75242 0.0
C1393 C 0.71675 0.07939 0.70057 0.0
N1394 N 0.72399 0.11044 0.76562 0.0
N1395 N 0.6861 0.04559 0.68612 0.0
H1396 H 0.74206 0.09494 0.672 0.0
H1397 H 0.72434 0.06743 0.6617 0.0
H1398 H 0.67336 0.02999 0.68933 0.0
H1399 H 0.68802 0.05013 0.66665 0.0
H1400 H 0.71664 0.10992 0.78435 0.0
H1401 H 0.73496 0.12735 0.76207 0.0
H1402 H 0.70867 0.07128 0.79301 0.0
H1403 H 0.68778 0.04617 0.78268 0.0
C1404 C 0.33914 0.04337 0.53334 0.0
C1405 C 0.36192 0.04815 0.51863 0.0
C1406 C 0.34025 0.0829 0.49553 0.0
C1407 C 0.31856 0.07989 0.51214 0.0
N1408 N 0.29761 0.05883 0.54816 0.0
N1409 N 0.38555 0.07372 0.48744 0.0
C1410 C 0.31808 0.06054 0.53142 0.0
C1411 C 0.36281 0.06816 0.50003 0.0
N1412 N 0.33736 0.0219 0.54856 0.0
N1413 N 0.33921 0.09979 0.47542 0.0
H1414 H 0.40233 0.06317 0.49005 0.0
H1415 H 0.38843 0.08984 0.47578 0.0
H1416 H 0.32334 0.11147 0.47213 0.0
H1417 H 0.35316 0.10096 0.46094 0.0
H1418 H 0.32032 0.01566 0.55758 0.0
H1419 H 0.35242 0.00892 0.55052 0.0
H1420 H 0.29754 0.04747 0.56464 0.0
H1421 H 0.28112 0.07 0.5465 0.0
C1422 C 0.68403 0.47631 0.52597 0.0
C1423 C 0.6581 0.47097 0.5176 0.0
C1424 C 0.67075 0.42881 0.49968 0.0
C1425 C 0.69711 0.43521 0.50547 0.0
N1426 N 0.72941 0.46467 0.52428 0.0
N1427 N 0.62717 0.44405 0.49337 0.0
C1428 C 0.70392 0.4589 0.5187 0.0
C1429 C 0.65159 0.44777 0.50351 0.0
N1430 N 0.68938 0.49759 0.54157 0.0
N1431 N 0.66382 0.40405 0.49199 0.0
H1432 H 0.61245 0.45733 0.49605 0.0
H1433 H 0.62214 0.42889 0.4805 0.0
H1434 H 0.67732 0.38946 0.49034 0.0
H1435 H 0.64464 0.39732 0.48995 0.0
H1436 H 0.7072 0.50131 0.55065 0.0
H1437 H 0.67538 0.51095 0.5468 0.0
H1438 H 0.73629 0.48282 0.53092 0.0
H1439 H 0.74404 0.45135 0.52139 0.0
C1440 C 0.74305 0.29926 0.42802 0.0
C1441 C 0.71701 0.29103 0.4228 0.0
C1442 C 0.70162 0.3213 0.4563 0.0
C1443 C 0.72777 0.32901 0.46197 0.0
N1444 N 0.77333 0.3192 0.45875 0.0
N1445 N 0.67196 0.28998 0.43528 0.0
C1446 C 0.7485 0.31616 0.44948 0.0
C1447 C 0.69637 0.30091 0.43785 0.0
N1448 N 0.76256 0.29162 0.41193 0.0
N1449 N 0.68178 0.33381 0.46819 0.0
H1450 H 0.66747 0.27477 0.42225 0.0
H1451 H 0.65662 0.29434 0.44752 0.0
H1452 H 0.68485 0.34762 0.48291 0.0
H1453 H 0.66242 0.33169 0.46246 0.0
H1454 H 0.78161 0.29883 0.41341 0.0
H1455 H 0.75936 0.28004 0.39538 0.0
H1456 H 0.78872 0.30825 0.4521 0.0
H1457 H 0.77825 0.33064 0.47496 0.0
C1458 C 0.54455 0.02236 0.83434 0.0
C1459 C 0.55452 0.01364 0.85819 0.0
C1460 C 0.59651 0.00556 0.83775 0.0
C1461 C 0.5862 0.01312 0.8135 0.0
N1462 N 0.54882 0.02349 0.7877 0.0
N1463 N 0.58757 0.99141 0.88147 0.0
C1464 C 0.55968 0.01986 0.8115 0.0
C1465 C 0.57973 0.00336 0.85947 0.0
N1466 N 0.5211 0.03417 0.83368 0.0
N1467 N 0.62262 1.0023 0.84066 0.0
H1468 H 0.57579 0.98967 0.89777 0.0
H1469 H 0.60466 0.98112 0.88267 0.0
H1470 H 0.63593 0.00462 0.8257 0.0
H1471 H 0.6315 0.99969 0.85854 0.0
H1472 H 0.51425 0.04381 0.81757 0.0
H1473 H 0.50922 0.03609 0.84987 0.0
H1474 H 0.52897 0.0255 0.78474 0.0
H1475 H 0.55929 0.02223 0.77054 0.0
C1476 C 0.2928 0.18829 0.40708 0.0
C1477 C 0.29777 0.21494 0.41353 0.0
C1478 C 0.28901 0.20629 0.45931 0.0
C1479 C 0.28299 0.18002 0.45251 0.0
N1480 N 0.2875 0.14418 0.4226 0.0
N1481 N 0.30716 0.2481 0.44606 0.0
C1482 C 0.28774 0.17043 0.42721 0.0
C1483 C 0.29803 0.22355 0.43983 0.0
N1484 N 0.2913 0.18031 0.38171 0.0
N1485 N 0.28533 0.21478 0.4842 0.0
H1486 H 0.31406 0.26102 0.43216 0.0
H1487 H 0.30991 0.25497 0.46497 0.0
H1488 H 0.28061 0.20205 0.49908 0.0
H1489 H 0.28615 0.23428 0.48998 0.0
H1490 H 0.28478 0.16177 0.37584 0.0
H1491 H 0.29471 0.19275 0.36631 0.0
H1492 H 0.29306 0.13575 0.40508 0.0
H1493 H 0.28412 0.13082 0.43728 0.0
C1494 C 0.47391 0.4853 0.83573 0.0
C1495 C 0.46316 0.4934 0.8597 0.0
C1496 C 0.42263 0.50413 0.8378 0.0
C1497 C 0.4339 0.49752 0.81352 0.0
N1498 N 0.47185 0.4864 0.7889 0.0
N1499 N 0.4298 0.5157 0.88305 0.0
C1500 C 0.46008 0.48955 0.81237 0.0
C1501 C 0.43832 0.50454 0.86054 0.0
N1502 N 0.49682 0.47249 0.83537 0.0
N1503 N 0.39657 0.5082 0.83956 0.0
H1504 H 0.44069 0.51608 0.90014 0.0
H1505 H 0.41309 0.5266 0.88416 0.0
H1506 H 0.38398 0.50721 0.82372 0.0
H1507 H 0.38689 0.51011 0.85713 0.0
H1508 H 0.5041 0.46337 0.81888 0.0
H1509 H 0.50767 0.46914 0.85201 0.0
H1510 H 0.49166 0.4835 0.78678 0.0
H1511 H 0.46225 0.4889 0.77137 0.0
C1512 C 0.7186 0.73152 0.06627 0.0
C1513 C 0.71997 0.72331 0.09228 0.0
C1514 C 0.72548 0.67839 0.07722 0.0
C1515 C 0.72689 0.68696 0.05118 0.0
N1516 N 0.73031 0.72296 0.02172 0.0
N1517 N 0.73002 0.68998 0.12269 0.0
C1518 C 0.72495 0.71391 0.0459 0.0
C1519 C 0.725 0.69704 0.09781 0.0
N1520 N 0.71047 0.75593 0.06092 0.0
N1521 N 0.72324 0.65246 0.08238 0.0
H1522 H 0.72997 0.70309 0.13833 0.0
H1523 H 0.73664 0.67171 0.12745 0.0
H1524 H 0.72278 0.638 0.06805 0.0
H1525 H 0.71921 0.64539 0.10076 0.0
H1526 H 0.70635 0.76197 0.04224 0.0
H1527 H 0.70553 0.76939 0.0753 0.0
H1528 H 0.73197 0.74269 0.0176 0.0
H1529 H 0.7357 0.711 0.00629 0.0
C1530 C 0.94863 0.00332 0.15407 0.0
C1531 C 0.97167 0.01785 0.16029 0.0
C1532 C 0.95954 0.01849 0.20628 0.0
C1533 C 0.93593 0.00496 0.19974 0.0
N1534 N 0.90493 0.99136 0.16688 0.0
N1535 N 0.99795 0.04231 0.19136 0.0
C1536 C 0.92964 0.99923 0.17347 0.0
C1537 C 0.97689 0.02623 0.18619 0.0
N1538 N 0.9451 0.99298 0.12968 0.0
N1539 N 0.96531 0.02388 0.2317 0.0
H1540 H 0.01122 0.04797 0.17719 0.0
H1541 H 1.00152 0.0514 0.20923 0.0
H1542 H 0.95206 0.02055 0.24656 0.0
H1543 H 0.98342 0.03073 0.23824 0.0
H1544 H 0.93003 0.97984 0.12483 0.0
H1545 H 0.95849 0.99572 0.1148 0.0
H1546 H 0.89831 0.98939 0.14784 0.0
H1547 H 0.89033 0.98951 0.18061 0.0
C1548 C 0.29651 0.82174 0.10702 0.0
C1549 C 0.2957 0.7946 0.10142 0.0
C1550 C 0.28186 0.80287 0.05699 0.0
C1551 C 0.2844 0.83013 0.06203 0.0
N1552 N 0.30046 0.86521 0.08985 0.0
N1553 N 0.29441 0.75984 0.06945 0.0
C1554 C 0.29369 0.83948 0.08646 0.0
C1555 C 0.29062 0.78535 0.07584 0.0
N1556 N 0.29877 0.83061 0.13206 0.0
N1557 N 0.26945 0.7935 0.03515 0.0
H1558 H 0.30107 0.74647 0.08273 0.0
H1559 H 0.29352 0.75264 0.05046 0.0
H1560 H 0.26141 0.80531 0.02124 0.0
H1561 H 0.26469 0.77386 0.03211 0.0
H1562 H 0.2966 0.85004 0.13747 0.0
H1563 H 0.30053 0.8183 0.14774 0.0
H1564 H 0.30964 0.87267 0.1065 0.0
H1565 H 0.29941 0.87858 0.07495 0.0
C1566 C 0.07439 0.51147 0.15018 0.0
C1567 C 0.05071 0.49776 0.155 0.0
C1568 C 0.06194 0.49566 0.20122 0.0
C1569 C 0.08615 0.50836 0.19604 0.0
N1570 N 0.11811 0.5219 0.16487 0.0
N1571 N 0.02291 0.47377 0.18401 0.0
C1572 C 0.09311 0.5145 0.1703 0.0
C1573 C 0.04469 0.48904 0.18027 0.0
N1574 N 0.07879 0.5221 0.12646 0.0
N1575 N 0.05546 0.49005 0.22618 0.0
H1576 H 0.00967 0.46902 0.16921 0.0
H1577 H 0.01864 0.46445 0.20126 0.0
H1578 H 0.06849 0.49267 0.24157 0.0
H1579 H 0.037 0.48377 0.23187 0.0
H1580 H 0.0944 0.53476 0.12268 0.0
H1581 H 0.06564 0.5201 0.11108 0.0
H1582 H 0.12521 0.5241 0.14616 0.0
H1583 H 0.1324 0.52325 0.17913 0.0
C1584 C 0.42844 0.70156 0.30324 0.0
C1585 C 0.4142 0.72293 0.29442 0.0
C1586 C 0.44298 0.75298 0.31903 0.0
C1587 C 0.4548 0.73148 0.33082 0.0
N1588 N 0.45801 0.68508 0.33524 0.0
N1589 N 0.40532 0.76874 0.29673 0.0
C1590 C 0.44742 0.70567 0.3231 0.0
C1591 C 0.42077 0.74859 0.30308 0.0
N1592 N 0.42449 0.67752 0.29192 0.0
N1593 N 0.45359 0.77753 0.32204 0.0
H1594 H 0.38837 0.7663 0.28575 0.0
H1595 H 0.40782 0.78749 0.30446 0.0
H1596 H 0.47034 0.78178 0.3328 0.0
H1597 H 0.44735 0.7934 0.31169 0.0
H1598 H 0.43611 0.66174 0.29552 0.0
H1599 H 0.41098 0.67384 0.27712 0.0
H1600 H 0.45134 0.66592 0.33264 0.0
H1601 H 0.47201 0.68737 0.34976 0.0
C1602 C 1.00317 0.35985 0.93778 0.0
C1603 C 0.99882 0.35739 0.96477 0.0
C1604 C 0.00352 0.31022 0.96055 0.0
C1605 C 1.00311 0.31231 0.9333 0.0
N1606 N 1.00189 0.33888 0.89533 0.0
N1607 N 0.99255 0.32992 1.00183 0.0
C1608 C 1.0031 0.3371 0.92169 0.0
C1609 C 0.99864 0.33249 0.97625 0.0
N1610 N 0.0078 0.38391 0.92767 0.0
N1611 N 0.00918 0.287 0.9713 0.0
H1612 H 0.98855 0.34569 0.014 0.0
H1613 H 0.98939 0.31198 0.01048 0.0
H1614 H 0.01423 0.27095 0.95996 0.0
H1615 H 0.01184 0.28457 0.99111 0.0
H1616 H 0.01359 0.38683 0.90863 0.0
H1617 H 0.00815 0.40094 0.93899 0.0
H1618 H 0.99856 0.35616 0.88582 0.0
H1619 H 1.00264 0.32272 0.88289 0.0
C1620 C 0.60787 0.79536 0.31628 0.0
C1621 C 0.60136 0.79529 0.28954 0.0
C1622 C 0.5571 0.78023 0.29956 0.0
C1623 C 0.56294 0.78238 0.32648 0.0
N1624 N 0.59216 0.79778 0.3604 0.0
N1625 N 0.56825 0.794 0.25635 0.0
C1626 C 0.58784 0.79167 0.33485 0.0
C1627 C 0.57545 0.78977 0.28139 0.0
N1628 N 0.63326 0.79788 0.32395 0.0
N1629 N 0.53485 0.76758 0.2911 0.0
H1630 H 0.58112 0.80125 0.24252 0.0
H1631 H 0.549 0.79283 0.25005 0.0
H1632 H 0.52133 0.75894 0.30343 0.0
H1633 H 0.53115 0.76316 0.27164 0.0
H1634 H 0.63934 0.79523 0.34296 0.0
H1635 H 0.64855 0.80035 0.31097 0.0
H1636 H 0.60918 0.80701 0.36721 0.0
H1637 H 0.57771 0.7961 0.37442 0.0
C1638 C 0.01204 0.17891 0.97988 0.0
C1639 C 0.01625 0.15361 0.96962 0.0
C1640 C 0.00775 0.16902 0.92578 0.0
C1641 C 1.00156 0.19384 0.93628 0.0
N1642 N 0.99271 0.22072 0.97393 0.0
N1643 N 0.01292 0.12312 0.93366 0.0
C1644 C 1.00202 0.19823 0.96353 0.0
C1645 C 0.01269 0.14825 0.94278 0.0
N1646 N 0.01868 0.18483 0.00501 0.0
N1647 N 0.00894 0.16522 0.89956 0.0
H1648 H 0.0161 0.10733 0.94554 0.0
H1649 H 0.0076 0.11761 0.91483 0.0
H1650 H 0.00401 0.17933 0.88637 0.0
H1651 H 0.01646 0.14865 0.89086 0.0
H1652 H 0.01881 0.20366 0.01277 0.0
H1653 H 0.02643 0.17134 0.01752 0.0
H1654 H 0.99 0.22373 0.99372 0.0
H1655 H 0.98548 0.23555 0.96277 0.0
C1656 C 0.43858 0.28185 0.23207 0.0
C1657 C 0.415 0.29055 0.22152 0.0
C1658 C 0.4328 0.2851 0.17773 0.0
C1659 C 0.45432 0.27214 0.18831 0.0
N1660 N 0.47568 0.25483 0.22576 0.0
N1661 N 0.38839 0.29831 0.18402 0.0
C1662 C 0.45677 0.26974 0.21557 0.0
C1663 C 0.41188 0.29204 0.19424 0.0
N1664 N 0.44359 0.28525 0.25794 0.0
N1665 N 0.43193 0.29011 0.15184 0.0
H1666 H 0.37253 0.30326 0.19536 0.0
H1667 H 0.38395 0.29666 0.16436 0.0
H1668 H 0.44611 0.28418 0.13886 0.0
H1669 H 0.41818 0.30192 0.14356 0.0
H1670 H 0.46149 0.28149 0.26634 0.0
H1671 H 0.43076 0.29443 0.27048 0.0
H1672 H 0.47657 0.25015 0.24528 0.0
H1673 H 0.4891 0.24514 0.2144 0.0
C1674 C 0.51628 0.335 0.04359 0.0
C1675 C 0.50881 0.35961 0.05345 0.0
C1676 C 0.4974 0.34008 0.0951 0.0
C1677 C 0.50421 0.31538 0.08497 0.0
N1678 N 0.51564 0.28817 0.04844 0.0
N1679 N 0.48799 0.38516 0.08647 0.0
C1680 C 0.51208 0.31248 0.05878 0.0
C1681 C 0.49807 0.36202 0.07862 0.0
N1682 N 0.52863 0.33336 0.02023 0.0
N1683 N 0.49065 0.34257 0.12059 0.0
H1684 H 0.48825 0.40157 0.07487 0.0
H1685 H 0.47757 0.38767 0.10351 0.0
H1686 H 0.48846 0.32669 0.13276 0.0
H1687 H 0.48843 0.36039 0.13008 0.0
H1688 H 0.53741 0.31663 0.01335 0.0
H1689 H 0.53189 0.34932 0.00839 0.0
H1690 H 0.51843 0.28452 0.02877 0.0
H1691 H 0.51386 0.27124 0.05915 0.0
C1692 C 0.57667 0.23048 0.23154 0.0
C1693 C 0.59939 0.21718 0.22428 0.0
C1694 C 0.58123 0.20968 0.18068 0.0
C1695 C 0.55936 0.22441 0.1876 0.0
N1696 N 0.54082 0.2558 0.21671 0.0
N1697 N 0.62598 0.1998 0.19005 0.0
C1698 C 0.55844 0.23695 0.21218 0.0
C1699 C 0.60246 0.20836 0.19827 0.0
N1700 N 0.57189 0.23606 0.25702 0.0
N1701 N 0.58166 0.1968 0.15738 0.0
H1702 H 0.64225 0.19935 0.20211 0.0
H1703 H 0.6301 0.19557 0.17073 0.0
H1704 H 0.56698 0.19848 0.1437 0.0
H1705 H 0.59554 0.18327 0.15241 0.0
H1706 H 0.55439 0.2435 0.26345 0.0
H1707 H 0.58425 0.23083 0.27198 0.0
H1708 H 0.54067 0.26712 0.23364 0.0
H1709 H 0.52844 0.26216 0.20225 0.0
C1710 C 0.48244 0.1633 0.05866 0.0
C1711 C 0.50387 0.14689 0.05554 0.0
C1712 C 0.53065 0.17658 0.08302 0.0
C1713 C 0.50864 0.19215 0.08764 0.0
N1714 N 0.46432 0.2021 0.07534 0.0
N1715 N 0.54721 0.13541 0.06743 0.0
C1716 C 0.48488 0.18602 0.0744 0.0
C1717 C 0.52769 0.15288 0.06841 0.0
N1718 N 0.45934 0.1573 0.04652 0.0
N1719 N 0.55463 0.18485 0.09171 0.0
H1720 H 0.54594 0.11818 0.05647 0.0
H1721 H 0.56378 0.13687 0.07903 0.0
H1722 H 0.55783 0.20216 0.10207 0.0
H1723 H 0.57179 0.17587 0.08668 0.0
H1724 H 0.443 0.16869 0.04868 0.0
H1725 H 0.45643 0.14089 0.03457 0.0
H1726 H 0.46427 0.21996 0.08522 0.0
H1727 H 0.46427 0.21996 0.08522 0.0
C1728 C 0.29994 0.42793 0.74397 0.0
C1729 C 0.29119 0.42388 0.71809 0.0
C1730 C 0.32071 0.45893 0.7036 0.0
C1731 C 0.32898 0.46337 0.72962 0.0
N1732 N 0.32034 0.45761 0.77519 0.0
N1733 N 0.28889 0.43882 0.67419 0.0
C1734 C 0.31676 0.44952 0.75002 0.0
C1735 C 0.30039 0.44029 0.69811 0.0
N1736 N 0.2929 0.41063 0.76267 0.0
N1737 N 0.33259 0.47219 0.68407 0.0
H1738 H 0.27367 0.42572 0.66959 0.0
H1739 H 0.29276 0.452 0.65956 0.0
H1740 H 0.34629 0.48709 0.68747 0.0
H1741 H 0.33006 0.46742 0.66453 0.0
H1742 H 0.30047 0.41133 0.7814 0.0
H1743 H 0.28146 0.39393 0.75892 0.0
H1744 H 0.30985 0.44993 0.79059 0.0
H1745 H 0.33179 0.47383 0.78059 0.0
C1746 C 0.29292 0.57908 0.8065 0.0
C1747 C 0.29782 0.605 0.7985 0.0
C1748 C 0.34301 0.59462 0.78899 0.0
C1749 C 0.33696 0.56794 0.79311 0.0
N1750 N 0.31138 0.53837 0.81907 0.0
N1751 N 0.32716 0.63779 0.78152 0.0
C1752 C 0.31337 0.56103 0.80575 0.0
C1753 C 0.32288 0.61296 0.78984 0.0
N1754 N 0.26853 0.57154 0.81422 0.0
N1755 N 0.36838 0.60261 0.7864 0.0
H1756 H 0.31303 0.65192 0.78226 0.0
H1757 H 0.34404 0.6439 0.77212 0.0
H1758 H 0.38365 0.58997 0.78895 0.0
H1759 H 0.37448 0.62203 0.78537 0.0
H1760 H 0.26289 0.55223 0.8172 0.0
H1761 H 0.25329 0.5844 0.81584 0.0
H1762 H 0.29529 0.533 0.83008 0.0
H1763 H 0.32736 0.52695 0.82262 0.0
C1764 C 0.86233 0.4353 0.50538 0.0
C1765 C 0.86258 0.46083 0.49552 0.0
C1766 C 0.8151 0.45861 0.49154 0.0
C1767 C 0.81515 0.43197 0.49838 0.0
N1768 N 0.8396 0.39359 0.50711 0.0
N1769 N 0.83983 0.49621 0.4766 0.0
C1770 C 0.83894 0.41996 0.50435 0.0
C1771 C 0.8391 0.47243 0.48807 0.0
N1772 N 0.88446 0.42576 0.51585 0.0
N1773 N 0.79206 0.4708 0.48865 0.0
H1774 H 0.85696 0.50713 0.47403 0.0
H1775 H 0.82378 0.50432 0.46788 0.0
H1776 H 0.77411 0.46117 0.49028 0.0
H1777 H 0.79064 0.49082 0.48666 0.0
H1778 H 0.88482 0.40837 0.52586 0.0
H1779 H 0.90203 0.43636 0.51656 0.0
H1780 H 0.85678 0.3835 0.50859 0.0
H1781 H 0.82322 0.38131 0.50543 0.0
C1782 C 0.73582 0.9409 0.80098 0.0
C1783 C 0.72646 0.91669 0.81037 0.0
C1784 C 0.68201 0.93222 0.80728 0.0
C1785 C 0.69111 0.95305 0.79176 0.0
N1786 N 0.72756 0.9773 0.77365 0.0
N1787 N 0.69427 0.90394 0.84164 0.0
C1788 C 0.71829 0.95776 0.78896 0.0
C1789 C 0.70032 0.91586 0.81902 0.0
N1790 N 0.76076 0.949 0.80624 0.0
N1791 N 0.65603 0.92826 0.81132 0.0
H1792 H 0.7088 0.89778 0.85408 0.0
H1793 H 0.67592 0.90444 0.85005 0.0
H1794 H 0.64205 0.9408 0.80456 0.0
H1795 H 0.64849 0.9117 0.82028 0.0
H1796 H 0.76803 0.96755 0.80202 0.0
H1797 H 0.77293 0.93816 0.81784 0.0
H1798 H 0.74716 0.97954 0.76899 0.0
H1799 H 0.71561 0.9898 0.76376 0.0
C1800 C 0.65383 0.56556 0.01847 0.0
C1801 C 0.65251 0.54836 0.99666 0.0
C1802 C 0.69423 0.56631 0.9812 0.0
C1803 C 0.69612 0.58266 0.0037 0.0
N1804 N 0.68054 0.59365 0.0464 0.0
N1805 N 0.6739 0.52826 0.96036 0.0
C1806 C 0.6769 0.58077 0.02326 0.0
C1807 C 0.67336 0.54768 0.9788 0.0
N1808 N 0.6325 0.56853 0.03381 0.0
N1809 N 0.71253 0.56828 0.96216 0.0
H1810 H 0.65942 0.51374 0.95853 0.0
H1811 H 0.68979 0.52493 0.94848 0.0
H1812 H 0.72959 0.57951 0.96403 0.0
H1813 H 0.71012 0.55984 0.9438 0.0
H1814 H 0.63135 0.58279 0.0483 0.0
H1815 H 0.6149 0.55848 0.0305 0.0
H1816 H 0.66875 0.5906 0.06247 0.0
H1817 H 0.69636 0.6062 0.0501 0.0
C1818 C 0.22152 0.57413 0.20174 0.0
C1819 C 0.23159 0.58928 0.22291 0.0
C1820 C 0.20769 0.56133 0.25277 0.0
C1821 C 0.19244 0.55106 0.23173 0.0
N1822 N 0.18782 0.54441 0.18549 0.0
N1823 N 0.25025 0.57849 0.26393 0.0
C1824 C 0.20043 0.55626 0.20595 0.0
C1825 C 0.2294 0.57783 0.24754 0.0
N1826 N 0.23488 0.57348 0.17899 0.0
N1827 N 0.20213 0.55504 0.27776 0.0
H1828 H 0.26832 0.58605 0.2582 0.0
H1829 H 0.25065 0.56828 0.28118 0.0
H1830 H 0.18775 0.54152 0.28289 0.0
H1831 H 0.21115 0.56459 0.29351 0.0
H1832 H 0.22992 0.5611 0.16347 0.0
H1833 H 0.25314 0.58262 0.17726 0.0
H1834 H 0.19047 0.55012 0.1664 0.0
H1835 H 0.17382 0.5297 0.18782 0.0
C1836 C 0.86212 0.56591 0.99561 0.0
C1837 C 0.86157 0.54679 0.01516 0.0
C1838 C 0.8172 0.55844 0.027 0.0
C1839 C 0.81819 0.57832 0.0083 0.0
N1840 N 0.83923 0.59931 0.97248 0.0
N1841 N 0.83981 0.52523 0.05036 0.0
C1842 C 0.83999 0.58153 0.99184 0.0
C1843 C 0.83934 0.54304 0.03099 0.0
N1844 N 0.88427 0.5697 0.98144 0.0
N1845 N 0.79461 0.5537 0.04021 0.0
H1846 H 0.8551 0.51266 0.05301 0.0
H1847 H 0.82577 0.52353 0.06468 0.0
H1848 H 0.77805 0.56461 0.03781 0.0
H1849 H 0.79139 0.53794 0.05223 0.0
H1850 H 0.88718 0.58459 0.96835 0.0
H1851 H 0.90059 0.55835 0.9835 0.0
H1852 H 0.85337 0.60156 0.95834 0.0
H1853 H 0.82351 0.61133 0.96966 0.0
C1854 C 0.18478 0.97534 0.02697 0.0
C1855 C 0.15869 0.96985 0.0192 0.0
C1856 C 0.17126 0.92796 1.00053 0.0
C1857 C 0.19769 0.93454 0.00577 0.0
N1858 N 0.23021 0.96405 0.02408 0.0
N1859 N 0.12736 0.94285 0.99559 0.0
C1860 C 0.20463 0.95816 0.01905 0.0
C1861 C 0.15202 0.94669 0.0051 0.0
N1862 N 0.19036 0.99653 0.04261 0.0
N1863 N 0.16441 0.90328 0.99246 0.0
H1864 H 0.11258 0.95597 0.99882 0.0
H1865 H 0.12208 0.92778 0.98272 0.0
H1866 H 0.17802 0.8889 0.99002 0.0
H1867 H 0.14526 0.89638 0.99077 0.0
H1868 H 0.20838 1.00034 0.05125 0.0
H1869 H 0.17637 0.00971 0.04834 0.0
H1870 H 0.23712 0.98218 0.03073 0.0
H1871 H 0.24486 0.95084 0.02073 0.0
loop_
_geom_bond_atom_site_label_1
_geom_bond_atom_site_label_2
_geom_bond_distance
_geom_bond_site_symmetry_2
_ccdc_geom_bond_type
C0 C1 1.384 . S
C0 H13 0.947 . S
C0 C35 1.382 . S
C1 C0 1.384 . S
C1 C2 1.378 . S
C2 C1 1.378 . S
C2 C3 1.378 1_655 S
C2 H14 0.952 1_545 S
C3 C2 1.378 1_455 S
C3 H15 0.950 . S
C3 C34 1.383 . S
H4 C23 0.947 . S
H5 C24 0.946 . S
H6 C26 0.953 1_556 S
H7 C27 0.967 . S
H8 C29 0.952 . S
H9 C30 0.949 . S
H10 C32 0.950 1_655 S
H11 C33 0.948 . S
H12 C35 0.951 . S
H13 C0 0.947 . S
H14 C2 0.952 1_565 S
H15 C3 0.950 . S
N16 C19 1.382 . S
N16 C21 1.363 . S
N17 C19 1.371 . S
N17 C20 1.372 . S
N18 C20 1.361 . S
N18 C21 1.377 . S
C19 N16 1.382 . S
C19 N17 1.371 . S
C19 C22 1.480 . S
C20 N17 1.372 . S
C20 N18 1.361 . S
C20 C28 1.457 . S
C21 N16 1.363 . S
C21 N18 1.377 . S
C21 C34 1.479 . S
C22 C19 1.480 . S
C22 C23 1.383 1_545 S
C22 C27 1.385 . S
C23 H4 0.947 . S
C23 C22 1.383 1_565 S
C23 C24 1.388 . S
C24 H5 0.946 . S
C24 C23 1.388 . S
C24 C25 1.384 . S
C25 C24 1.384 . S
C25 C26 1.377 . S
C26 H6 0.953 1_554 S
C26 C25 1.377 . S
C26 C27 1.369 1_565 S
C27 H7 0.967 . S
C27 C22 1.385 . S
C27 C26 1.369 1_545 S
C28 C20 1.457 . S
C28 C29 1.372 1_554 S
C28 C33 1.364 . S
C29 H8 0.952 . S
C29 C28 1.372 1_556 S
C29 C30 1.389 . S
C30 H9 0.949 . S
C30 C29 1.389 . S
C30 C31 1.387 . S
C31 C30 1.387 . S
C31 C32 1.372 . S
C32 H10 0.950 1_455 S
C32 C31 1.372 . S
C32 C33 1.379 1_556 S
C33 H11 0.948 . S
C33 C28 1.364 . S
C33 C32 1.379 1_554 S
C34 C3 1.383 . S
C34 C21 1.479 . S
C34 C35 1.398 1_455 S
C35 C0 1.382 . S
C35 H12 0.951 . S
C35 C34 1.398 1_655 S
C36 C37 1.384 . S
C36 H49 0.947 . S
C36 C71 1.382 . S
C37 C36 1.384 . S
C37 C38 1.378 . S
C38 C37 1.378 . S
C38 C39 1.378 . S
C38 H50 0.952 . S
C39 C38 1.378 . S
C39 H51 0.950 . S
C39 C70 1.383 . S
H40 C59 0.947 . S
H41 C60 0.946 . S
H42 C62 0.953 . S
H43 C63 0.945 . S
H44 C65 0.952 . S
H45 C66 0.949 . S
H46 C68 0.950 . S
H47 C69 0.948 . S
H48 C71 0.951 . S
H49 C36 0.947 . S
H50 C38 0.952 . S
H51 C39 0.950 . S
N52 C55 1.382 . S
N52 C57 1.363 . S
N53 C55 1.371 . S
N53 C56 1.372 . S
N54 C56 1.361 . S
N54 C57 1.377 . S
C55 N52 1.382 . S
C55 N53 1.371 . S
C55 C58 1.480 . S
C56 N53 1.372 . S
C56 N54 1.361 . S
C56 C64 1.457 . S
C57 N52 1.363 . S
C57 N54 1.377 . S
C57 C70 1.479 . S
C58 C55 1.480 . S
C58 C59 1.383 . S
C58 C63 1.385 . S
C59 H40 0.947 . S
C59 C58 1.383 . S
C59 C60 1.388 . S
C60 H41 0.946 . S
C60 C59 1.388 . S
C60 C61 1.384 . S
C61 C60 1.384 . S
C61 C62 1.377 . S
C62 H42 0.953 . S
C62 C61 1.377 . S
C62 C63 1.369 . S
C63 H43 0.945 . S
C63 C58 1.385 . S
C63 C62 1.369 . S
C64 C56 1.457 . S
C64 C65 1.372 . S
C64 C69 1.364 . S
C65 H44 0.952 . S
C65 C64 1.372 . S
C65 C66 1.389 . S
C66 H45 0.949 . S
C66 C65 1.389 . S
C66 C67 1.387 . S
C67 C66 1.387 . S
C67 C68 1.372 . S
C68 H46 0.950 . S
C68 C67 1.372 . S
C68 C69 1.379 . S
C69 H47 0.948 . S
C69 C64 1.364 . S
C69 C68 1.379 . S
C70 C39 1.383 . S
C70 C57 1.479 . S
C70 C71 1.398 . S
C71 C36 1.382 . S
C71 H48 0.951 . S
C71 C70 1.398 . S
C72 C73 1.402 . S
C72 H85 0.924 1_655 S
C72 C107 1.388 1_556 S
C73 C72 1.402 . S
C73 C74 1.378 . S
C74 C73 1.378 . S
C74 C75 1.378 . S
C74 H86 0.952 . S
C75 C74 1.378 . S
C75 H87 0.950 . S
C75 C106 1.383 . S
H76 C95 0.947 1_556 S
H77 C96 0.946 1_556 S
H78 C98 0.953 . S
H79 C99 0.945 . S
H80 C101 0.981 . S
H81 C102 0.949 . S
H82 C104 0.950 . S
H83 C105 0.948 . S
H84 C107 0.951 1_455 S
H85 C72 0.924 1_455 S
H86 C74 0.952 . S
H87 C75 0.950 . S
N88 C91 1.382 . S
N88 C93 1.363 . S
N89 C91 1.371 . S
N89 C92 1.372 . S
N90 C92 1.361 . S
N90 C93 1.377 . S
C91 N88 1.382 . S
C91 N89 1.371 . S
C91 C94 1.480 . S
C92 N89 1.372 . S
C92 N90 1.361 . S
C92 C100 1.457 1_655 S
C93 N88 1.363 . S
C93 N90 1.377 . S
C93 C106 1.479 1_554 S
C94 C91 1.480 . S
C94 C95 1.383 . S
C94 C99 1.385 . S
C95 H76 0.947 1_554 S
C95 C94 1.383 . S
C95 C96 1.388 . S
C96 H77 0.946 1_554 S
C96 C95 1.388 . S
C96 C97 1.384 . S
C97 C96 1.384 . S
C97 C98 1.377 . S
C98 H78 0.953 . S
C98 C97 1.377 . S
C98 C99 1.369 . S
C99 H79 0.945 . S
C99 C94 1.385 . S
C99 C98 1.369 . S
C100 C92 1.457 1_455 S
C100 C101 1.362 1_455 S
C100 C105 1.364 . S
C101 H80 0.981 . S
C101 C100 1.362 1_655 S
C101 C102 1.370 1_655 S
C102 H81 0.949 . S
C102 C101 1.370 1_455 S
C102 C103 1.387 . S
C103 C102 1.387 . S
C103 C104 1.372 . S
C104 H82 0.950 . S
C104 C103 1.372 . S
C104 C105 1.379 . S
C105 H83 0.948 . S
C105 C100 1.364 . S
C105 C104 1.379 . S
C106 C75 1.383 . S
C106 C93 1.479 1_556 S
C106 C107 1.398 1_556 S
C107 C72 1.388 1_554 S
C107 H84 0.951 1_655 S
C107 C106 1.398 1_554 S
C108 C109 1.384 . S
C108 H121 0.947 . S
C108 C143 1.382 . S
C109 C108 1.384 . S
C109 C110 1.378 . S
C110 C109 1.378 . S
C110 C111 1.378 . S
C110 H122 0.952 . S
C111 C110 1.378 . S
C111 H123 0.950 . S
C111 C142 1.383 . S
H112 C131 0.947 . S
H113 C132 0.946 . S
H114 C134 0.953 . S
H115 C135 0.945 . S
H116 C137 0.952 . S
H117 C138 0.949 . S
H118 C140 0.950 . S
H119 C141 0.948 . S
H120 C143 0.951 . S
H121 C108 0.947 . S
H122 C110 0.952 . S
H123 C111 0.950 . S
N124 C127 1.382 . S
N124 C129 1.363 . S
N125 C127 1.371 . S
N125 C128 1.372 . S
N126 C128 1.361 . S
N126 C129 1.377 . S
C127 N124 1.382 . S
C127 N125 1.371 . S
C127 C130 1.480 . S
C128 N125 1.372 . S
C128 N126 1.361 . S
C128 C136 1.457 . S
C129 N124 1.363 . S
C129 N126 1.377 . S
C129 C142 1.479 . S
C130 C127 1.480 . S
C130 C131 1.383 . S
C130 C135 1.385 . S
C131 H112 0.947 . S
C131 C130 1.383 . S
C131 C132 1.388 . S
C132 H113 0.946 . S
C132 C131 1.388 . S
C132 C133 1.384 . S
C133 C132 1.384 . S
C133 C134 1.377 . S
C134 H114 0.953 . S
C134 C133 1.377 . S
C134 C135 1.369 . S
C135 H115 0.945 . S
C135 C130 1.385 . S
C135 C134 1.369 . S
C136 C128 1.457 . S
C136 C137 1.372 . S
C136 C141 1.364 . S
C137 H116 0.952 . S
C137 C136 1.372 . S
C137 C138 1.389 . S
C138 H117 0.949 . S
C138 C137 1.389 . S
C138 C139 1.387 . S
C139 C138 1.387 . S
C139 C140 1.372 . S
C140 H118 0.950 . S
C140 C139 1.372 . S
C140 C141 1.379 . S
C141 H119 0.948 . S
C141 C136 1.364 . S
C141 C140 1.379 . S
C142 C111 1.383 . S
C142 C129 1.479 . S
C142 C143 1.398 . S
C143 C108 1.382 . S
C143 H120 0.951 . S
C143 C142 1.398 . S
C144 C145 1.384 . S
C144 H157 0.947 . S
C144 C179 1.382 . S
C145 C144 1.384 . S
C145 C146 1.378 . S
C146 C145 1.378 . S
C146 C147 1.378 . S
C146 H158 0.952 1_455 S
C147 C146 1.378 . S
C147 H159 0.950 . S
C147 C178 1.383 . S
H148 C167 0.947 . S
H149 C168 0.946 . S
H150 C170 0.953 . S
H151 C171 0.945 1_545 S
H152 C173 0.952 . S
H153 C174 0.949 . S
H154 C176 0.950 . S
H155 C177 0.948 . S
H156 C179 0.951 . S
H157 C144 0.947 . S
H158 C146 0.952 1_655 S
H159 C147 0.950 . S
N160 C163 1.382 . S
N160 C165 1.363 . S
N161 C163 1.371 . S
N161 C164 1.372 . S
N162 C164 1.361 . S
N162 C165 1.377 . S
C163 N160 1.382 . S
C163 N161 1.371 . S
C163 C166 1.480 . S
C164 N161 1.372 . S
C164 N162 1.361 . S
C164 C172 1.457 1_565 S
C165 N160 1.363 . S
C165 N162 1.377 . S
C165 C178 1.479 . S
C166 C163 1.480 . S
C166 C167 1.383 1_455 S
C166 C171 1.385 . S
C167 H148 0.947 . S
C167 C166 1.383 1_655 S
C167 C168 1.388 . S
C168 H149 0.946 . S
C168 C167 1.388 . S
C168 C169 1.384 . S
C169 C168 1.384 . S
C169 C170 1.377 1_565 S
C170 H150 0.953 . S
C170 C169 1.377 1_545 S
C170 C171 1.369 1_645 S
C171 H151 0.945 1_565 S
C171 C166 1.385 . S
C171 C170 1.369 1_465 S
C172 C164 1.457 1_545 S
C172 C173 1.372 . S
C172 C177 1.364 1_545 S
C173 H152 0.952 . S
C173 C172 1.372 . S
C173 C174 1.389 . S
C174 H153 0.949 . S
C174 C173 1.389 . S
C174 C175 1.387 . S
C175 C174 1.387 . S
C175 C176 1.372 . S
C176 H154 0.950 . S
C176 C175 1.372 . S
C176 C177 1.379 1_545 S
C177 H155 0.948 . S
C177 C172 1.364 1_565 S
C177 C176 1.379 1_565 S
C178 C147 1.383 . S
C178 C165 1.479 . S
C178 C179 1.398 . S
C179 C144 1.382 . S
C179 H156 0.951 . S
C179 C178 1.398 . S
C180 C181 1.384 . S
C180 H193 0.947 . S
C180 C215 1.382 . S
C181 C180 1.384 . S
C181 C182 1.378 . S
C182 C181 1.378 . S
C182 C183 1.378 . S
C182 H194 0.952 . S
C183 C182 1.378 . S
C183 H195 0.950 . S
C183 C214 1.383 . S
H184 C203 0.947 . S
H185 C204 0.946 . S
H186 C206 0.953 . S
H187 C207 0.945 . S
H188 C209 0.952 . S
H189 C210 0.949 . S
H190 C212 0.950 . S
H191 C213 0.948 . S
H192 C215 0.951 . S
H193 C180 0.947 . S
H194 C182 0.952 . S
H195 C183 0.950 . S
N196 C199 1.382 . S
N196 C201 1.363 . S
N197 C199 1.371 . S
N197 C200 1.372 . S
N198 C200 1.361 . S
N198 C201 1.377 . S
C199 N196 1.382 . S
C199 N197 1.371 . S
C199 C202 1.480 . S
C200 N197 1.372 . S
C200 N198 1.361 . S
C200 C208 1.457 . S
C201 N196 1.363 . S
C201 N198 1.377 . S
C201 C214 1.479 . S
C202 C199 1.480 . S
C202 C203 1.383 . S
C202 C207 1.385 . S
C203 H184 0.947 . S
C203 C202 1.383 . S
C203 C204 1.388 . S
C204 H185 0.946 . S
C204 C203 1.388 . S
C204 C205 1.384 . S
C205 C204 1.384 . S
C205 C206 1.377 . S
C206 H186 0.953 . S
C206 C205 1.377 . S
C206 C207 1.369 . S
C207 H187 0.945 . S
C207 C202 1.385 . S
C207 C206 1.369 . S
C208 C200 1.457 . S
C208 C209 1.372 . S
C208 C213 1.364 . S
C209 H188 0.952 . S
C209 C208 1.372 . S
C209 C210 1.389 . S
C210 H189 0.949 . S
C210 C209 1.389 . S
C210 C211 1.387 . S
C211 C210 1.387 . S
C211 C212 1.372 . S
C212 H190 0.950 . S
C212 C211 1.372 . S
C212 C213 1.379 . S
C213 H191 0.948 . S
C213 C208 1.364 . S
C213 C212 1.379 . S
C214 C183 1.383 . S
C214 C201 1.479 . S
C214 C215 1.398 . S
C215 C180 1.382 . S
C215 H192 0.951 . S
C215 C214 1.398 . S
C216 C217 1.384 1_455 S
C216 H229 0.947 . S
C216 C251 1.382 . S
C217 C216 1.384 1_655 S
C217 C218 1.378 . S
C218 C217 1.378 . S
C218 C219 1.378 . S
C218 H230 0.952 . S
C219 C218 1.378 . S
C219 H231 0.950 . S
C219 C250 1.383 . S
H220 C239 0.947 . S
H221 C240 0.946 . S
H222 C242 0.953 . S
H223 C243 0.945 . S
H224 C245 0.952 1_655 S
H225 C246 0.949 . S
H226 C248 0.950 . S
H227 C249 0.948 . S
H228 C251 0.951 . S
H229 C216 0.947 . S
H230 C218 0.952 . S
H231 C219 0.950 . S
N232 C235 1.382 . S
N232 C237 1.363 . S
N233 C235 1.371 . S
N233 C236 1.372 . S
N234 C236 1.361 . S
N234 C237 1.377 . S
C235 N232 1.382 . S
C235 N233 1.371 . S
C235 C238 1.480 . S
C236 N233 1.372 . S
C236 N234 1.361 . S
C236 C244 1.457 1_655 S
C237 N232 1.363 . S
C237 N234 1.377 . S
C237 C250 1.479 . S
C238 C235 1.480 . S
C238 C239 1.383 . S
C238 C243 1.385 . S
C239 H220 0.947 . S
C239 C238 1.383 . S
C239 C240 1.388 . S
C240 H221 0.946 . S
C240 C239 1.388 . S
C240 C241 1.384 . S
C241 C240 1.384 . S
C241 C242 1.377 . S
C242 H222 0.953 . S
C242 C241 1.377 . S
C242 C243 1.369 . S
C243 H223 0.945 . S
C243 C238 1.385 . S
C243 C242 1.369 . S
C244 C236 1.457 1_455 S
C244 C245 1.372 . S
C244 C249 1.364 . S
C245 H224 0.952 1_455 S
C245 C244 1.372 . S
C245 C246 1.389 . S
C246 H225 0.949 . S
C246 C245 1.389 . S
C246 C247 1.387 . S
C247 C246 1.387 . S
C247 C248 1.372 . S
C248 H226 0.950 . S
C248 C247 1.372 . S
C248 C249 1.379 . S
C249 H227 0.948 . S
C249 C244 1.364 . S
C249 C248 1.379 . S
C250 C219 1.383 . S
C250 C237 1.479 . S
C250 C251 1.398 1_655 S
C251 C216 1.382 . S
C251 H228 0.951 . S
C251 C250 1.398 1_455 S
C252 C253 1.384 . S
C252 H265 0.947 . S
C252 C287 1.382 . S
C253 C252 1.384 . S
C253 C254 1.378 . S
C254 C253 1.378 . S
C254 C255 1.378 . S
C254 H266 0.952 . S
C255 C254 1.378 . S
C255 H267 0.950 . S
C255 C286 1.383 . S
H256 C275 0.947 . S
H257 C276 0.946 . S
H258 C278 0.953 . S
H259 C279 0.945 . S
H260 C281 0.952 . S
H261 C282 0.949 . S
H262 C284 0.950 . S
H263 C285 0.948 . S
H264 C287 0.951 . S
H265 C252 0.947 . S
H266 C254 0.952 . S
H267 C255 0.950 . S
N268 C271 1.382 . S
N268 C273 1.363 . S
N269 C271 1.371 . S
N269 C272 1.372 . S
N270 C272 1.361 . S
N270 C273 1.377 . S
C271 N268 1.382 . S
C271 N269 1.371 . S
C271 C274 1.480 . S
C272 N269 1.372 . S
C272 N270 1.361 . S
C272 C280 1.457 . S
C273 N268 1.363 . S
C273 N270 1.377 . S
C273 C286 1.479 . S
C274 C271 1.480 . S
C274 C275 1.383 . S
C274 C279 1.385 . S
C275 H256 0.947 . S
C275 C274 1.383 . S
C275 C276 1.388 . S
C276 H257 0.946 . S
C276 C275 1.388 . S
C276 C277 1.384 . S
C277 C276 1.384 . S
C277 C278 1.377 . S
C278 H258 0.953 . S
C278 C277 1.377 . S
C278 C279 1.369 . S
C279 H259 0.945 . S
C279 C274 1.385 . S
C279 C278 1.369 . S
C280 C272 1.457 . S
C280 C281 1.372 . S
C280 C285 1.364 . S
C281 H260 0.952 . S
C281 C280 1.372 . S
C281 C282 1.389 . S
C282 H261 0.949 . S
C282 C281 1.389 . S
C282 C283 1.387 . S
C283 C282 1.387 . S
C283 C284 1.372 . S
C284 H262 0.950 . S
C284 C283 1.372 . S
C284 C285 1.379 . S
C285 H263 0.948 . S
C285 C280 1.364 . S
C285 C284 1.379 . S
C286 C255 1.383 . S
C286 C273 1.479 . S
C286 C287 1.398 . S
C287 C252 1.382 . S
C287 H264 0.951 . S
C287 C286 1.398 . S
C288 C289 1.384 . S
C288 H301 0.947 . S
C288 C323 1.382 . S
C289 C288 1.384 . S
C289 C290 1.378 . S
C290 C289 1.378 . S
C290 C291 1.378 . S
C290 H302 0.952 . S
C291 C290 1.378 . S
C291 H303 0.950 . S
C291 C322 1.383 . S
H292 C311 0.947 . S
H293 C312 0.946 . S
H294 C314 0.953 . S
H295 C315 0.945 . S
H296 C317 0.952 . S
H297 C318 0.949 . S
H298 C320 0.950 . S
H299 C321 0.948 . S
H300 C323 0.951 . S
H301 C288 0.947 . S
H302 C290 0.952 . S
H303 C291 0.950 . S
N304 C307 1.382 . S
N304 C309 1.363 . S
N305 C307 1.371 . S
N305 C308 1.372 . S
N306 C308 1.361 . S
N306 C309 1.377 . S
C307 N304 1.382 . S
C307 N305 1.371 . S
C307 C310 1.480 . S
C308 N305 1.372 . S
C308 N306 1.361 . S
C308 C316 1.457 . S
C309 N304 1.363 . S
C309 N306 1.377 . S
C309 C322 1.479 . S
C310 C307 1.480 . S
C310 C311 1.383 . S
C310 C315 1.385 . S
C311 H292 0.947 . S
C311 C310 1.383 . S
C311 C312 1.388 . S
C312 H293 0.946 . S
C312 C311 1.388 . S
C312 C313 1.384 . S
C313 C312 1.384 . S
C313 C314 1.377 . S
C314 H294 0.953 . S
C314 C313 1.377 . S
C314 C315 1.369 . S
C315 H295 0.945 . S
C315 C310 1.385 . S
C315 C314 1.369 . S
C316 C308 1.457 . S
C316 C317 1.372 . S
C316 C321 1.364 . S
C317 H296 0.952 . S
C317 C316 1.372 . S
C317 C318 1.389 . S
C318 H297 0.949 . S
C318 C317 1.389 . S
C318 C319 1.387 . S
C319 C318 1.387 . S
C319 C320 1.372 . S
C320 H298 0.950 . S
C320 C319 1.372 . S
C320 C321 1.379 . S
C321 H299 0.948 . S
C321 C316 1.364 . S
C321 C320 1.379 . S
C322 C291 1.383 . S
C322 C309 1.479 . S
C322 C323 1.398 . S
C323 C288 1.382 . S
C323 H300 0.951 . S
C323 C322 1.398 . S
C324 C325 1.384 . S
C324 H337 0.947 . S
C324 C359 1.382 . S
C325 C324 1.384 . S
C325 C326 1.378 . S
C326 C325 1.378 . S
C326 C327 1.378 . S
C326 H338 0.952 . S
C327 C326 1.378 . S
C327 H339 0.950 . S
C327 C358 1.383 . S
H328 C347 0.951 . S
H329 C348 0.946 . S
H330 C350 0.953 . S
H331 C351 0.945 . S
H332 C353 0.952 1_545 S
H333 C354 0.934 1_545 S
H334 C356 0.950 . S
H335 C357 0.948 . S
H336 C359 0.951 . S
H337 C324 0.947 . S
H338 C326 0.952 . S
H339 C327 0.950 . S
N340 C343 1.382 . S
N340 C345 1.363 . S
N341 C343 1.371 . S
N341 C344 1.372 . S
N342 C344 1.361 . S
N342 C345 1.377 . S
C343 N340 1.382 . S
C343 N341 1.371 . S
C343 C346 1.480 1_565 S
C344 N341 1.372 . S
C344 N342 1.361 . S
C344 C352 1.457 . S
C345 N340 1.363 . S
C345 N342 1.377 . S
C345 C358 1.479 . S
C346 C343 1.480 1_545 S
C346 C347 1.382 1_545 S
C346 C351 1.385 . S
C347 H328 0.951 . S
C347 C346 1.382 1_565 S
C347 C348 1.385 1_565 S
C348 H329 0.946 . S
C348 C347 1.385 1_545 S
C348 C349 1.384 . S
C349 C348 1.384 . S
C349 C350 1.377 . S
C350 H330 0.953 . S
C350 C349 1.377 . S
C350 C351 1.369 . S
C351 H331 0.945 . S
C351 C346 1.385 . S
C351 C350 1.369 . S
C352 C344 1.457 . S
C352 C353 1.372 . S
C352 C357 1.364 . S
C353 H332 0.952 1_565 S
C353 C352 1.372 . S
C353 C354 1.390 . S
C354 H333 0.934 1_565 S
C354 C353 1.390 . S
C354 C355 1.401 . S
C355 C354 1.401 . S
C355 C356 1.372 . S
C356 H334 0.950 . S
C356 C355 1.372 . S
C356 C357 1.379 . S
C357 H335 0.948 . S
C357 C352 1.364 . S
C357 C356 1.379 . S
C358 C327 1.383 . S
C358 C345 1.479 . S
C358 C359 1.398 . S
C359 C324 1.382 . S
C359 H336 0.951 . S
C359 C358 1.398 . S
C360 C361 1.384 . S
C360 H373 0.947 . S
C360 C395 1.382 . S
C361 C360 1.384 . S
C361 C362 1.378 . S
C362 C361 1.378 . S
C362 C363 1.378 . S
C362 H374 0.952 . S
C363 C362 1.378 . S
C363 H375 0.950 . S
C363 C394 1.383 . S
H364 C383 0.947 . S
H365 C384 0.946 . S
H366 C386 0.953 . S
H367 C387 0.945 . S
H368 C389 0.952 . S
H369 C390 0.949 . S
H370 C392 0.950 . S
H371 C393 0.948 . S
H372 C395 0.951 . S
H373 C360 0.947 . S
H374 C362 0.952 . S
H375 C363 0.950 . S
N376 C379 1.382 . S
N376 C381 1.363 . S
N377 C379 1.371 . S
N377 C380 1.372 . S
N378 C380 1.361 . S
N378 C381 1.377 . S
C379 N376 1.382 . S
C379 N377 1.371 . S
C379 C382 1.480 . S
C380 N377 1.372 . S
C380 N378 1.361 . S
C380 C388 1.457 . S
C381 N376 1.363 . S
C381 N378 1.377 . S
C381 C394 1.479 . S
C382 C379 1.480 . S
C382 C383 1.383 . S
C382 C387 1.385 . S
C383 H364 0.947 . S
C383 C382 1.383 . S
C383 C384 1.388 . S
C384 H365 0.946 . S
C384 C383 1.388 . S
C384 C385 1.384 . S
C385 C384 1.384 . S
C385 C386 1.377 . S
C386 H366 0.953 . S
C386 C385 1.377 . S
C386 C387 1.369 . S
C387 H367 0.945 . S
C387 C382 1.385 . S
C387 C386 1.369 . S
C388 C380 1.457 . S
C388 C389 1.372 . S
C388 C393 1.364 . S
C389 H368 0.952 . S
C389 C388 1.372 . S
C389 C390 1.389 . S
C390 H369 0.949 . S
C390 C389 1.389 . S
C390 C391 1.387 . S
C391 C390 1.387 . S
C391 C392 1.372 . S
C392 H370 0.950 . S
C392 C391 1.372 . S
C392 C393 1.379 . S
C393 H371 0.948 . S
C393 C388 1.364 . S
C393 C392 1.379 . S
C394 C363 1.383 . S
C394 C381 1.479 . S
C394 C395 1.398 . S
C395 C360 1.382 . S
C395 H372 0.951 . S
C395 C394 1.398 . S
C396 C397 1.384 . S
C396 H409 0.947 . S
C396 C431 1.382 . S
C397 C396 1.384 . S
C397 C398 1.378 . S
C398 C397 1.378 . S
C398 C399 1.378 . S
C398 H410 0.952 . S
C399 C398 1.378 . S
C399 H411 0.950 . S
C399 C430 1.383 . S
H400 C419 0.947 . S
H401 C420 0.946 . S
H402 C422 0.953 . S
H403 C423 0.945 . S
H404 C425 0.952 . S
H405 C426 0.949 . S
H406 C428 0.950 . S
H407 C429 0.948 . S
H408 C431 0.951 . S
H409 C396 0.947 . S
H410 C398 0.952 . S
H411 C399 0.950 . S
N412 C415 1.382 . S
N412 C417 1.363 . S
N413 C415 1.371 . S
N413 C416 1.372 . S
N414 C416 1.361 . S
N414 C417 1.377 . S
C415 N412 1.382 . S
C415 N413 1.371 . S
C415 C418 1.480 . S
C416 N413 1.372 . S
C416 N414 1.361 . S
C416 C424 1.457 . S
C417 N412 1.363 . S
C417 N414 1.377 . S
C417 C430 1.479 . S
C418 C415 1.480 . S
C418 C419 1.383 . S
C418 C423 1.385 . S
C419 H400 0.947 . S
C419 C418 1.383 . S
C419 C420 1.388 . S
C420 H401 0.946 . S
C420 C419 1.388 . S
C420 C421 1.384 . S
C421 C420 1.384 . S
C421 C422 1.377 . S
C422 H402 0.953 . S
C422 C421 1.377 . S
C422 C423 1.369 . S
C423 H403 0.945 . S
C423 C418 1.385 . S
C423 C422 1.369 . S
C424 C416 1.457 . S
C424 C425 1.372 . S
C424 C429 1.364 . S
C425 H404 0.952 . S
C425 C424 1.372 . S
C425 C426 1.389 . S
C426 H405 0.949 . S
C426 C425 1.389 . S
C426 C427 1.387 . S
C427 C426 1.387 . S
C427 C428 1.372 . S
C428 H406 0.950 . S
C428 C427 1.372 . S
C428 C429 1.379 . S
C429 H407 0.948 . S
C429 C424 1.364 . S
C429 C428 1.379 . S
C430 C399 1.383 . S
C430 C417 1.479 . S
C430 C431 1.398 . S
C431 C396 1.382 . S
C431 H408 0.951 . S
C431 C430 1.398 . S
C432 C433 1.384 . S
C432 H445 0.947 . S
C432 C467 1.382 . S
C433 C432 1.384 . S
C433 C434 1.378 . S
C434 C433 1.378 . S
C434 C435 1.378 . S
C434 H446 0.952 . S
C435 C434 1.378 . S
C435 H447 0.950 . S
C435 C466 1.383 . S
H436 C455 0.947 . S
H437 C456 0.946 . S
H438 C458 0.953 . S
H439 C459 0.945 . S
H440 C461 0.952 . S
H441 C462 0.949 . S
H442 C464 0.950 . S
H443 C465 0.948 . S
H444 C467 0.951 . S
H445 C432 0.947 . S
H446 C434 0.952 . S
H447 C435 0.950 . S
N448 C451 1.382 . S
N448 C453 1.363 . S
N449 C451 1.371 . S
N449 C452 1.372 . S
N450 C452 1.361 . S
N450 C453 1.377 . S
C451 N448 1.382 . S
C451 N449 1.371 . S
C451 C454 1.480 . S
C452 N449 1.372 . S
C452 N450 1.361 . S
C452 C460 1.457 . S
C453 N448 1.363 . S
C453 N450 1.377 . S
C453 C466 1.479 . S
C454 C451 1.480 . S
C454 C455 1.383 . S
C454 C459 1.385 . S
C455 H436 0.947 . S
C455 C454 1.383 . S
C455 C456 1.388 . S
C456 H437 0.946 . S
C456 C455 1.388 . S
C456 C457 1.384 . S
C457 C456 1.384 . S
C457 C458 1.377 . S
C458 H438 0.953 . S
C458 C457 1.377 . S
C458 C459 1.369 . S
C459 H439 0.945 . S
C459 C454 1.385 . S
C459 C458 1.369 . S
C460 C452 1.457 . S
C460 C461 1.372 . S
C460 C465 1.364 . S
C461 H440 0.952 . S
C461 C460 1.372 . S
C461 C462 1.389 . S
C462 H441 0.949 . S
C462 C461 1.389 . S
C462 C463 1.387 . S
C463 C462 1.387 . S
C463 C464 1.372 . S
C464 H442 0.950 . S
C464 C463 1.372 . S
C464 C465 1.379 . S
C465 H443 0.948 . S
C465 C460 1.364 . S
C465 C464 1.379 . S
C466 C435 1.383 . S
C466 C453 1.479 . S
C466 C467 1.398 . S
C467 C432 1.382 . S
C467 H444 0.951 . S
C467 C466 1.398 . S
C468 C469 1.384 . S
C468 H481 0.947 . S
C468 C503 1.382 . S
C469 C468 1.384 . S
C469 C470 1.378 . S
C470 C469 1.378 . S
C470 C471 1.378 1_554 S
C470 H482 0.952 . S
C471 C470 1.378 1_556 S
C471 H483 0.950 . S
C471 C502 1.383 . S
H472 C491 0.947 . S
H473 C492 0.946 . S
H474 C494 0.953 . S
H475 C495 0.945 . S
H476 C497 0.952 . S
H477 C498 0.949 . S
H478 C500 0.950 1_554 S
H479 C501 0.949 . S
H480 C503 0.951 . S
H481 C468 0.947 . S
H482 C470 0.952 . S
H483 C471 0.950 . S
N484 C487 1.382 . S
N484 C489 1.363 . S
N485 C487 1.371 . S
N485 C488 1.372 . S
N486 C488 1.361 . S
N486 C489 1.377 . S
C487 N484 1.382 . S
C487 N485 1.371 . S
C487 C490 1.480 . S
C488 N485 1.372 . S
C488 N486 1.361 . S
C488 C496 1.457 . S
C489 N484 1.363 . S
C489 N486 1.377 . S
C489 C502 1.479 . S
C490 C487 1.480 . S
C490 C491 1.383 . S
C490 C495 1.385 . S
C491 H472 0.947 . S
C491 C490 1.383 . S
C491 C492 1.388 . S
C492 H473 0.946 . S
C492 C491 1.388 . S
C492 C493 1.384 . S
C493 C492 1.384 . S
C493 C494 1.377 . S
C494 H474 0.953 . S
C494 C493 1.377 . S
C494 C495 1.369 . S
C495 H475 0.945 . S
C495 C490 1.385 . S
C495 C494 1.369 . S
C496 C488 1.457 . S
C496 C497 1.372 . S
C496 C501 1.364 . S
C497 H476 0.952 . S
C497 C496 1.372 . S
C497 C498 1.389 . S
C498 H477 0.949 . S
C498 C497 1.389 . S
C498 C499 1.387 . S
C499 C498 1.387 . S
C499 C500 1.372 . S
C500 H478 0.950 1_556 S
C500 C499 1.372 . S
C500 C501 1.379 . S
C501 H479 0.949 . S
C501 C496 1.364 . S
C501 C500 1.379 . S
C502 C471 1.383 . S
C502 C489 1.479 . S
C502 C503 1.398 1_556 S
C503 C468 1.382 . S
C503 H480 0.951 . S
C503 C502 1.398 1_554 S
C504 C505 1.384 . S
C504 H517 0.947 . S
C504 C539 1.382 . S
C505 C504 1.384 . S
C505 C506 1.378 . S
C506 C505 1.378 . S
C506 C507 1.378 . S
C506 H518 0.952 . S
C507 C506 1.378 . S
C507 H519 0.950 . S
C507 C538 1.383 . S
H508 C527 0.947 . S
H509 C528 0.946 . S
H510 C530 0.953 . S
H511 C531 0.945 . S
H512 C533 0.952 . S
H513 C534 0.949 . S
H514 C536 0.950 . S
H515 C537 0.948 . S
H516 C539 0.951 . S
H517 C504 0.947 . S
H518 C506 0.952 . S
H519 C507 0.950 . S
N520 C523 1.382 . S
N520 C525 1.363 . S
N521 C523 1.371 . S
N521 C524 1.372 . S
N522 C524 1.361 . S
N522 C525 1.377 . S
C523 N520 1.382 . S
C523 N521 1.371 . S
C523 C526 1.480 . S
C524 N521 1.372 . S
C524 N522 1.361 . S
C524 C532 1.457 . S
C525 N520 1.363 . S
C525 N522 1.377 . S
C525 C538 1.479 . S
C526 C523 1.480 . S
C526 C527 1.383 . S
C526 C531 1.385 . S
C527 H508 0.947 . S
C527 C526 1.383 . S
C527 C528 1.388 . S
C528 H509 0.946 . S
C528 C527 1.388 . S
C528 C529 1.384 . S
C529 C528 1.384 . S
C529 C530 1.377 . S
C530 H510 0.953 . S
C530 C529 1.377 . S
C530 C531 1.369 . S
C531 H511 0.945 . S
C531 C526 1.385 . S
C531 C530 1.369 . S
C532 C524 1.457 . S
C532 C533 1.372 . S
C532 C537 1.364 . S
C533 H512 0.952 . S
C533 C532 1.372 . S
C533 C534 1.389 . S
C534 H513 0.949 . S
C534 C533 1.389 . S
C534 C535 1.387 . S
C535 C534 1.387 . S
C535 C536 1.372 . S
C536 H514 0.950 . S
C536 C535 1.372 . S
C536 C537 1.379 . S
C537 H515 0.948 . S
C537 C532 1.364 . S
C537 C536 1.379 . S
C538 C507 1.383 . S
C538 C525 1.479 . S
C538 C539 1.398 . S
C539 C504 1.382 . S
C539 H516 0.951 . S
C539 C538 1.398 . S
C540 C541 1.384 . S
C540 H553 0.947 . S
C540 C575 1.382 . S
C541 C540 1.384 . S
C541 C542 1.378 . S
C542 C541 1.378 . S
C542 C543 1.378 . S
C542 H554 0.952 . S
C543 C542 1.378 . S
C543 H555 0.950 . S
C543 C574 1.383 . S
H544 C563 0.947 . S
H545 C564 0.946 . S
H546 C566 0.953 . S
H547 C567 0.945 . S
H548 C569 0.952 1_565 S
H549 C570 0.949 1_565 S
H550 C572 0.950 . S
H551 C573 0.948 . S
H552 C575 0.951 1_556 S
H553 C540 0.947 . S
H554 C542 0.952 . S
H555 C543 0.950 . S
N556 C559 1.382 . S
N556 C561 1.363 . S
N557 C559 1.371 . S
N557 C560 1.372 . S
N558 C560 1.361 . S
N558 C561 1.377 . S
C559 N556 1.382 . S
C559 N557 1.371 . S
C559 C562 1.465 1_545 S
C560 N557 1.372 . S
C560 N558 1.361 . S
C560 C568 1.457 . S
C561 N556 1.363 . S
C561 N558 1.377 . S
C561 C574 1.479 1_556 S
C562 C559 1.465 1_565 S
C562 C563 1.378 1_566 S
C562 C567 1.405 . S
C563 H544 0.947 . S
C563 C562 1.378 1_544 S
C563 C564 1.388 1_545 S
C564 H545 0.946 . S
C564 C563 1.388 1_565 S
C564 C565 1.384 1_554 S
C565 C564 1.384 1_556 S
C565 C566 1.377 . S
C566 H546 0.953 . S
C566 C565 1.377 . S
C566 C567 1.369 . S
C567 H547 0.945 . S
C567 C562 1.405 . S
C567 C566 1.369 . S
C568 C560 1.457 . S
C568 C569 1.372 . S
C568 C573 1.364 . S
C569 H548 0.952 1_545 S
C569 C568 1.372 . S
C569 C570 1.389 . S
C570 H549 0.949 1_545 S
C570 C569 1.389 . S
C570 C571 1.387 . S
C571 C570 1.387 . S
C571 C572 1.372 . S
C572 H550 0.950 . S
C572 C571 1.372 . S
C572 C573 1.379 . S
C573 H551 0.948 . S
C573 C568 1.364 . S
C573 C572 1.379 . S
C574 C543 1.383 . S
C574 C561 1.479 1_554 S
C574 C575 1.398 . S
C575 C540 1.382 . S
C575 H552 0.951 1_554 S
C575 C574 1.398 . S
Mn576 O581 2.095 . S
Mn576 O591 2.162 . S
Mn576 O592 2.297 . S
Mn576 O600 2.385 1_554 S
Mn576 O601 2.209 1_554 S
Mn576 O602 2.094 . S
Mn577 O582 2.121 . S
Mn577 N584 2.257 . S
Mn577 N593 2.282 . S
Mn577 O601 2.215 . S
Mn577 O603 2.117 . S
C578 O600 1.234 . S
C578 O601 1.283 . S
C579 O591 1.281 . S
C579 O592 1.236 . S
C580 O602 1.240 . S
C580 O603 1.264 1_554 S
O581 Mn576 2.095 . S
O581 C590 1.271 . S
O582 Mn577 2.121 . S
O582 C590 1.231 1_556 S
C583 N584 1.326 . S
C583 C587 1.460 . S
C583 H589 0.929 . S
N584 Mn577 2.257 . S
N584 C583 1.326 . S
N584 C588 1.362 . S
C585 C586 1.258 . S
C585 C588 1.431 . S
C585 C605 1.449 . S
C586 C585 1.258 . S
C586 C587 1.477 . S
C586 H606 0.931 . S
C587 C583 1.460 . S
C587 C586 1.477 . S
C587 H607 0.930 . S
C588 N584 1.362 . S
C588 C585 1.431 . S
C588 C598 1.476 . S
H589 C583 0.929 . S
C590 O581 1.271 . S
C590 O582 1.231 1_554 S
O591 Mn576 2.162 . S
O591 C579 1.281 . S
O592 Mn576 2.297 . S
O592 C579 1.236 . S
N593 Mn577 2.282 . S
N593 C594 1.328 . S
N593 C598 1.318 . S
C594 N593 1.328 . S
C594 C595 1.457 . S
C594 H599 0.929 . S
C595 C594 1.457 . S
C595 C596 1.291 . S
C595 H608 0.931 . S
C596 C595 1.291 . S
C596 C597 1.373 . S
C596 H609 0.929 . S
C597 C596 1.373 . S
C597 C598 1.396 . S
C597 C604 1.403 . S
C598 C588 1.476 . S
C598 N593 1.318 . S
C598 C597 1.396 . S
H599 C594 0.929 . S
O600 Mn576 2.385 1_556 S
O600 C578 1.234 . S
O601 Mn576 2.209 1_556 S
O601 Mn577 2.215 . S
O601 C578 1.283 . S
O602 Mn576 2.094 . S
O602 C580 1.240 . S
O603 Mn577 2.117 . S
O603 C580 1.264 1_556 S
C604 C597 1.403 . S
C604 C605 1.399 . S
C604 H610 0.929 . S
C605 C585 1.449 . S
C605 C604 1.399 . S
C605 H611 0.930 . S
H606 C586 0.931 . S
H607 C587 0.930 . S
H608 C595 0.931 . S
H609 C596 0.929 . S
H610 C604 0.929 . S
H611 C605 0.930 . S
Mn612 O617 2.095 . S
Mn612 O627 2.162 . S
Mn612 O628 2.297 . S
Mn612 O636 2.385 . S
Mn612 O637 2.209 . S
Mn612 O638 2.094 . S
Mn613 O618 2.121 . S
Mn613 N620 2.257 . S
Mn613 N629 2.282 . S
Mn613 O637 2.215 . S
Mn613 O639 2.117 . S
C614 O636 1.234 . S
C614 O637 1.283 . S
C615 O627 1.281 . S
C615 O628 1.236 . S
C616 O638 1.240 . S
C616 O639 1.264 . S
O617 Mn612 2.095 . S
O617 C626 1.250 . S
O618 Mn613 2.121 . S
O618 C626 1.258 . S
C619 N620 1.326 . S
C619 C623 1.460 . S
C619 H625 0.929 . S
N620 Mn613 2.257 . S
N620 C619 1.326 . S
N620 C624 1.362 . S
C621 C622 1.258 . S
C621 C624 1.431 . S
C621 C641 1.449 . S
C622 C621 1.258 . S
C622 C623 1.477 . S
C622 H642 0.931 . S
C623 C619 1.460 . S
C623 C622 1.477 . S
C623 H643 0.930 . S
C624 N620 1.362 . S
C624 C621 1.431 . S
C624 C634 1.476 . S
H625 C619 0.929 . S
C626 O617 1.250 . S
C626 O618 1.258 . S
O627 Mn612 2.162 . S
O627 C615 1.281 . S
O628 Mn612 2.297 . S
O628 C615 1.236 . S
N629 Mn613 2.282 . S
N629 C630 1.328 . S
N629 C634 1.318 . S
C630 N629 1.328 . S
C630 C631 1.457 . S
C630 H635 0.929 . S
C631 C630 1.457 . S
C631 C632 1.291 . S
C631 H644 0.931 . S
C632 C631 1.291 . S
C632 C633 1.373 . S
C632 H645 0.929 . S
C633 C632 1.373 . S
C633 C634 1.396 . S
C633 C640 1.403 . S
C634 C624 1.476 . S
C634 N629 1.318 . S
C634 C633 1.396 . S
H635 C630 0.929 . S
O636 Mn612 2.385 . S
O636 C614 1.234 . S
O637 Mn612 2.209 . S
O637 Mn613 2.215 . S
O637 C614 1.283 . S
O638 Mn612 2.094 . S
O638 C616 1.240 . S
O639 Mn613 2.117 . S
O639 C616 1.264 . S
C640 C633 1.403 . S
C640 C641 1.399 . S
C640 H646 0.929 . S
C641 C621 1.449 . S
C641 C640 1.399 . S
C641 H647 0.930 . S
H642 C622 0.931 . S
H643 C623 0.930 . S
H644 C631 0.931 . S
H645 C632 0.929 . S
H646 C640 0.929 . S
H647 C641 0.930 . S
Mn648 O653 2.095 1_554 S
Mn648 O663 2.162 . S
Mn648 O664 2.297 1_554 S
Mn648 O672 2.385 . S
Mn648 O673 2.209 1_554 S
Mn648 O674 2.094 . S
Mn649 O654 2.121 . S
Mn649 N656 2.257 . S
Mn649 N665 2.282 . S
Mn649 O673 2.215 . S
Mn649 O675 2.117 1_556 S
C650 O672 1.224 1_556 S
C650 O673 1.290 . S
C651 O663 1.281 . S
C651 O664 1.236 1_554 S
C652 O674 1.240 . S
C652 O675 1.264 . S
O653 Mn648 2.095 1_556 S
O653 C662 1.250 . S
O654 Mn649 2.121 . S
O654 C662 1.258 . S
C655 N656 1.326 . S
C655 C659 1.460 . S
C655 H661 0.929 . S
N656 Mn649 2.257 . S
N656 C655 1.326 . S
N656 C660 1.362 . S
C657 C658 1.258 . S
C657 C660 1.431 . S
C657 C677 1.449 . S
C658 C657 1.258 . S
C658 C659 1.477 . S
C658 H678 0.931 . S
C659 C655 1.460 . S
C659 C658 1.477 . S
C659 H679 0.930 . S
C660 N656 1.362 . S
C660 C657 1.431 . S
C660 C670 1.476 . S
H661 C655 0.929 . S
C662 O653 1.250 . S
C662 O654 1.258 . S
O663 Mn648 2.162 . S
O663 C651 1.281 . S
O664 Mn648 2.297 1_556 S
O664 C651 1.236 1_556 S
N665 Mn649 2.282 . S
N665 C666 1.328 1_556 S
N665 C670 1.318 . S
C666 N665 1.328 1_554 S
C666 C667 1.457 . S
C666 H671 0.929 . S
C667 C666 1.457 . S
C667 C668 1.291 . S
C667 H680 0.931 . S
C668 C667 1.291 . S
C668 C669 1.373 1_554 S
C668 H681 0.929 . S
C669 C668 1.373 1_556 S
C669 C670 1.396 . S
C669 C676 1.403 . S
C670 C660 1.476 . S
C670 N665 1.318 . S
C670 C669 1.396 . S
H671 C666 0.929 . S
O672 Mn648 2.385 . S
O672 C650 1.224 1_554 S
O673 Mn648 2.209 1_556 S
O673 Mn649 2.215 . S
O673 C650 1.290 . S
O674 Mn648 2.094 . S
O674 C652 1.240 . S
O675 Mn649 2.117 1_554 S
O675 C652 1.264 . S
C676 C669 1.403 . S
C676 C677 1.399 . S
C676 H682 0.929 . S
C677 C657 1.449 . S
C677 C676 1.399 . S
C677 H683 0.930 . S
H678 C658 0.931 . S
H679 C659 0.930 . S
H680 C667 0.931 . S
H681 C668 0.929 . S
H682 C676 0.929 . S
H683 C677 0.930 . S
Mn684 O689 2.095 . S
Mn684 O699 2.162 . S
Mn684 O700 2.297 . S
Mn684 O708 2.385 1_545 S
Mn684 O709 2.209 1_545 S
Mn684 O710 2.094 . S
Mn685 O690 2.121 . S
Mn685 N692 2.257 . S
Mn685 N701 2.282 . S
Mn685 O709 2.215 . S
Mn685 O711 2.117 . S
C686 O708 1.234 . S
C686 O709 1.283 . S
C687 O699 1.281 . S
C687 O700 1.236 . S
C688 O710 1.240 . S
C688 O711 1.264 1_545 S
O689 Mn684 2.095 . S
O689 C698 1.250 1_545 S
O690 Mn685 2.121 . S
O690 C698 1.258 . S
C691 N692 1.326 . S
C691 C695 1.460 . S
C691 H697 0.929 . S
N692 Mn685 2.257 . S
N692 C691 1.326 . S
N692 C696 1.362 . S
C693 C694 1.258 . S
C693 C696 1.431 . S
C693 C713 1.449 . S
C694 C693 1.258 . S
C694 C695 1.477 . S
C694 H714 0.931 . S
C695 C691 1.460 . S
C695 C694 1.477 . S
C695 H715 0.930 . S
C696 N692 1.362 . S
C696 C693 1.431 . S
C696 C706 1.476 . S
H697 C691 0.929 . S
C698 O689 1.250 1_565 S
C698 O690 1.258 . S
O699 Mn684 2.162 . S
O699 C687 1.281 . S
O700 Mn684 2.297 . S
O700 C687 1.236 . S
N701 Mn685 2.282 . S
N701 C702 1.328 . S
N701 C706 1.318 . S
C702 N701 1.328 . S
C702 C703 1.457 . S
C702 H707 0.929 . S
C703 C702 1.457 . S
C703 C704 1.291 . S
C703 H716 0.931 . S
C704 C703 1.291 . S
C704 C705 1.373 . S
C704 H717 0.929 . S
C705 C704 1.373 . S
C705 C706 1.396 . S
C705 C712 1.403 . S
C706 C696 1.476 . S
C706 N701 1.318 . S
C706 C705 1.396 . S
H707 C702 0.929 . S
O708 Mn684 2.385 1_565 S
O708 C686 1.234 . S
O709 Mn684 2.209 1_565 S
O709 Mn685 2.215 . S
O709 C686 1.283 . S
O710 Mn684 2.094 . S
O710 C688 1.240 . S
O711 Mn685 2.117 . S
O711 C688 1.264 1_565 S
C712 C705 1.403 . S
C712 C713 1.399 . S
C712 H718 0.929 . S
C713 C693 1.449 . S
C713 C712 1.399 . S
C713 H719 0.930 . S
H714 C694 0.931 . S
H715 C695 0.930 . S
H716 C703 0.931 . S
H717 C704 0.929 . S
H718 C712 0.929 . S
H719 C713 0.930 . S
Mn720 O725 2.095 . S
Mn720 O735 2.162 . S
Mn720 O736 2.297 . S
Mn720 O744 2.385 . S
Mn720 O745 2.209 . S
Mn720 O746 2.094 . S
Mn721 O726 2.121 . S
Mn721 N728 2.257 . S
Mn721 N737 2.282 . S
Mn721 O745 2.215 . S
Mn721 O747 2.117 . S
C722 O744 1.234 . S
C722 O745 1.283 . S
C723 O735 1.281 . S
C723 O736 1.236 . S
C724 O746 1.240 . S
C724 O747 1.264 . S
O725 Mn720 2.095 . S
O725 C734 1.250 . S
O726 Mn721 2.121 . S
O726 C734 1.258 . S
C727 N728 1.326 . S
C727 C731 1.460 . S
C727 H733 0.929 . S
N728 Mn721 2.257 . S
N728 C727 1.326 . S
N728 C732 1.362 . S
C729 C730 1.258 . S
C729 C732 1.431 . S
C729 C749 1.449 . S
C730 C729 1.258 . S
C730 C731 1.477 . S
C730 H750 0.931 . S
C731 C727 1.460 . S
C731 C730 1.477 . S
C731 H751 0.930 . S
C732 N728 1.362 . S
C732 C729 1.431 . S
C732 C742 1.476 . S
H733 C727 0.929 . S
C734 O725 1.250 . S
C734 O726 1.258 . S
O735 Mn720 2.162 . S
O735 C723 1.281 . S
O736 Mn720 2.297 . S
O736 C723 1.236 . S
N737 Mn721 2.282 . S
N737 C738 1.328 . S
N737 C742 1.318 . S
C738 N737 1.328 . S
C738 C739 1.457 . S
C738 H743 0.929 . S
C739 C738 1.457 . S
C739 C740 1.291 . S
C739 H752 0.931 . S
C740 C739 1.291 . S
C740 C741 1.373 . S
C740 H753 0.929 . S
C741 C740 1.373 . S
C741 C742 1.396 . S
C741 C748 1.403 . S
C742 C732 1.476 . S
C742 N737 1.318 . S
C742 C741 1.396 . S
H743 C738 0.929 . S
O744 Mn720 2.385 . S
O744 C722 1.234 . S
O745 Mn720 2.209 . S
O745 Mn721 2.215 . S
O745 C722 1.283 . S
O746 Mn720 2.094 . S
O746 C724 1.240 . S
O747 Mn721 2.117 . S
O747 C724 1.264 . S
C748 C741 1.403 . S
C748 C749 1.399 . S
C748 H754 0.929 . S
C749 C729 1.449 . S
C749 C748 1.399 . S
C749 H755 0.930 . S
H750 C730 0.931 . S
H751 C731 0.930 . S
H752 C739 0.931 . S
H753 C740 0.929 . S
H754 C748 0.929 . S
H755 C749 0.930 . S
Mn756 O761 2.095 . S
Mn756 O771 2.162 . S
Mn756 O772 2.297 . S
Mn756 O780 2.385 . S
Mn756 O781 2.209 . S
Mn756 O782 2.094 . S
Mn757 O762 2.121 . S
Mn757 N764 2.257 . S
Mn757 N773 2.282 . S
Mn757 O781 2.215 . S
Mn757 O783 2.117 . S
C758 O780 1.234 . S
C758 O781 1.283 . S
C759 O771 1.281 . S
C759 O772 1.236 . S
C760 O782 1.240 . S
C760 O783 1.264 . S
O761 Mn756 2.095 . S
O761 C770 1.250 . S
O762 Mn757 2.121 . S
O762 C770 1.258 . S
C763 N764 1.326 . S
C763 C767 1.460 . S
C763 H769 0.929 . S
N764 Mn757 2.257 . S
N764 C763 1.326 . S
N764 C768 1.362 . S
C765 C766 1.258 . S
C765 C768 1.431 . S
C765 C785 1.449 . S
C766 C765 1.258 . S
C766 C767 1.477 . S
C766 H786 0.931 . S
C767 C763 1.460 . S
C767 C766 1.477 . S
C767 H787 0.930 . S
C768 N764 1.362 . S
C768 C765 1.431 . S
C768 C778 1.476 . S
H769 C763 0.929 . S
C770 O761 1.250 . S
C770 O762 1.258 . S
O771 Mn756 2.162 . S
O771 C759 1.281 . S
O772 Mn756 2.297 . S
O772 C759 1.236 . S
N773 Mn757 2.282 . S
N773 C774 1.328 . S
N773 C778 1.318 . S
C774 N773 1.328 . S
C774 C775 1.457 . S
C774 H779 0.929 . S
C775 C774 1.457 . S
C775 C776 1.291 . S
C775 H788 0.931 . S
C776 C775 1.291 . S
C776 C777 1.373 . S
C776 H789 0.929 . S
C777 C776 1.373 . S
C777 C778 1.396 . S
C777 C784 1.403 . S
C778 C768 1.476 . S
C778 N773 1.318 . S
C778 C777 1.396 . S
H779 C774 0.929 . S
O780 Mn756 2.385 . S
O780 C758 1.234 . S
O781 Mn756 2.209 . S
O781 Mn757 2.215 . S
O781 C758 1.283 . S
O782 Mn756 2.094 . S
O782 C760 1.240 . S
O783 Mn757 2.117 . S
O783 C760 1.264 . S
C784 C777 1.403 . S
C784 C785 1.399 . S
C784 H790 0.929 . S
C785 C765 1.449 . S
C785 C784 1.399 . S
C785 H791 0.930 . S
H786 C766 0.931 . S
H787 C767 0.930 . S
H788 C775 0.931 . S
H789 C776 0.929 . S
H790 C784 0.929 . S
H791 C785 0.930 . S
Mn792 O797 2.095 . S
Mn792 O807 2.162 . S
Mn792 O808 2.297 . S
Mn792 O816 2.385 . S
Mn792 O817 2.209 . S
Mn792 O818 2.094 . S
Mn793 O798 2.121 . S
Mn793 N800 2.257 . S
Mn793 N809 2.282 . S
Mn793 O817 2.215 . S
Mn793 O819 2.117 . S
C794 O816 1.234 . S
C794 O817 1.283 . S
C795 O807 1.281 . S
C795 O808 1.236 . S
C796 O818 1.240 . S
C796 O819 1.264 . S
O797 Mn792 2.095 . S
O797 C806 1.250 . S
O798 Mn793 2.121 . S
O798 C806 1.258 . S
C799 N800 1.326 . S
C799 C803 1.460 . S
C799 H805 0.929 . S
N800 Mn793 2.257 . S
N800 C799 1.326 . S
N800 C804 1.362 . S
C801 C802 1.258 . S
C801 C804 1.431 . S
C801 C821 1.449 . S
C802 C801 1.258 . S
C802 C803 1.477 . S
C802 H822 0.931 . S
C803 C799 1.460 . S
C803 C802 1.477 . S
C803 H823 0.930 . S
C804 N800 1.362 . S
C804 C801 1.431 . S
C804 C814 1.476 . S
H805 C799 0.929 . S
C806 O797 1.250 . S
C806 O798 1.258 . S
O807 Mn792 2.162 . S
O807 C795 1.281 . S
O808 Mn792 2.297 . S
O808 C795 1.236 . S
N809 Mn793 2.282 . S
N809 C810 1.328 . S
N809 C814 1.318 . S
C810 N809 1.328 . S
C810 C811 1.457 . S
C810 H815 0.929 . S
C811 C810 1.457 . S
C811 C812 1.291 . S
C811 H824 0.931 . S
C812 C811 1.291 . S
C812 C813 1.373 . S
C812 H825 0.929 . S
C813 C812 1.373 . S
C813 C814 1.396 . S
C813 C820 1.403 . S
C814 C804 1.476 . S
C814 N809 1.318 . S
C814 C813 1.396 . S
H815 C810 0.929 . S
O816 Mn792 2.385 . S
O816 C794 1.234 . S
O817 Mn792 2.209 . S
O817 Mn793 2.215 . S
O817 C794 1.283 . S
O818 Mn792 2.094 . S
O818 C796 1.240 . S
O819 Mn793 2.117 . S
O819 C796 1.264 . S
C820 C813 1.403 . S
C820 C821 1.399 . S
C820 H826 0.929 . S
C821 C801 1.449 . S
C821 C820 1.399 . S
C821 H827 0.930 . S
H822 C802 0.931 . S
H823 C803 0.930 . S
H824 C811 0.931 . S
H825 C812 0.929 . S
H826 C820 0.929 . S
H827 C821 0.930 . S
Mn828 O833 2.095 . S
Mn828 O843 2.162 . S
Mn828 O844 2.297 . S
Mn828 O852 2.385 1_565 S
Mn828 O853 2.209 1_565 S
Mn828 O854 2.094 . S
Mn829 O834 2.121 . S
Mn829 N836 2.257 . S
Mn829 N845 2.282 . S
Mn829 O853 2.215 . S
Mn829 O855 2.117 . S
C830 O852 1.234 . S
C830 O853 1.283 . S
C831 O843 1.281 . S
C831 O844 1.236 . S
C832 O854 1.219 1_545 S
C832 O855 1.291 . S
O833 Mn828 2.095 . S
O833 C842 1.250 1_565 S
O834 Mn829 2.121 . S
O834 C842 1.258 . S
C835 N836 1.326 . S
C835 C839 1.460 . S
C835 H841 0.929 . S
N836 Mn829 2.257 . S
N836 C835 1.326 . S
N836 C840 1.362 . S
C837 C838 1.258 . S
C837 C840 1.431 . S
C837 C857 1.449 . S
C838 C837 1.258 . S
C838 C839 1.477 . S
C838 H858 0.931 . S
C839 C835 1.460 . S
C839 C838 1.477 . S
C839 H859 0.930 . S
C840 N836 1.362 . S
C840 C837 1.431 . S
C840 C850 1.476 . S
H841 C835 0.929 . S
C842 O833 1.250 1_545 S
C842 O834 1.258 . S
O843 Mn828 2.162 . S
O843 C831 1.281 . S
O844 Mn828 2.297 . S
O844 C831 1.236 . S
N845 Mn829 2.282 . S
N845 C846 1.328 . S
N845 C850 1.318 . S
C846 N845 1.328 . S
C846 C847 1.457 . S
C846 H851 0.929 . S
C847 C846 1.457 . S
C847 C848 1.291 . S
C847 H860 0.931 . S
C848 C847 1.291 . S
C848 C849 1.373 . S
C848 H861 0.929 . S
C849 C848 1.373 . S
C849 C850 1.396 . S
C849 C856 1.403 . S
C850 C840 1.476 . S
C850 N845 1.318 . S
C850 C849 1.396 . S
H851 C846 0.929 . S
O852 Mn828 2.385 1_545 S
O852 C830 1.234 . S
O853 Mn828 2.209 1_545 S
O853 Mn829 2.215 . S
O853 C830 1.283 . S
O854 Mn828 2.094 . S
O854 C832 1.219 1_565 S
O855 Mn829 2.117 . S
O855 C832 1.291 . S
C856 C849 1.403 . S
C856 C857 1.399 . S
C856 H862 0.929 . S
C857 C837 1.449 . S
C857 C856 1.399 . S
C857 H863 0.930 . S
H858 C838 0.931 . S
H859 C839 0.930 . S
H860 C847 0.931 . S
H861 C848 0.929 . S
H862 C856 0.929 . S
H863 C857 0.930 . S
Mn864 O869 2.095 . S
Mn864 O879 2.162 . S
Mn864 O880 2.297 . S
Mn864 O888 2.385 1_455 S
Mn864 O889 2.209 1_455 S
Mn864 O890 2.094 . S
Mn865 O870 2.121 . S
Mn865 N872 2.257 . S
Mn865 N881 2.282 . S
Mn865 O889 2.215 . S
Mn865 O891 2.117 . S
C866 O888 1.234 . S
C866 O889 1.283 . S
C867 O879 1.281 . S
C867 O880 1.236 . S
C868 O890 1.240 . S
C868 O891 1.264 1_455 S
O869 Mn864 2.095 . S
O869 C878 1.250 1_455 S
O870 Mn865 2.121 . S
O870 C878 1.258 . S
C871 N872 1.326 . S
C871 C875 1.460 . S
C871 H877 0.929 . S
N872 Mn865 2.257 . S
N872 C871 1.326 . S
N872 C876 1.362 . S
C873 C874 1.258 . S
C873 C876 1.431 . S
C873 C893 1.449 . S
C874 C873 1.258 . S
C874 C875 1.477 . S
C874 H894 0.931 . S
C875 C871 1.460 . S
C875 C874 1.477 . S
C875 H895 0.930 . S
C876 N872 1.362 . S
C876 C873 1.431 . S
C876 C886 1.476 . S
H877 C871 0.929 . S
C878 O869 1.250 1_655 S
C878 O870 1.258 . S
O879 Mn864 2.162 . S
O879 C867 1.281 . S
O880 Mn864 2.297 . S
O880 C867 1.236 . S
N881 Mn865 2.282 . S
N881 C882 1.328 . S
N881 C886 1.318 . S
C882 N881 1.328 . S
C882 C883 1.457 . S
C882 H887 0.929 . S
C883 C882 1.457 . S
C883 C884 1.291 . S
C883 H896 0.931 . S
C884 C883 1.291 . S
C884 C885 1.373 . S
C884 H897 0.929 . S
C885 C884 1.373 . S
C885 C886 1.396 . S
C885 C892 1.403 . S
C886 C876 1.476 . S
C886 N881 1.318 . S
C886 C885 1.396 . S
H887 C882 0.929 . S
O888 Mn864 2.385 1_655 S
O888 C866 1.234 . S
O889 Mn864 2.209 1_655 S
O889 Mn865 2.215 . S
O889 C866 1.283 . S
O890 Mn864 2.094 . S
O890 C868 1.240 . S
O891 Mn865 2.117 . S
O891 C868 1.264 1_655 S
C892 C885 1.403 . S
C892 C893 1.399 . S
C892 H898 0.929 . S
C893 C873 1.449 . S
C893 C892 1.399 . S
C893 H899 0.930 . S
H894 C874 0.931 . S
H895 C875 0.930 . S
H896 C883 0.931 . S
H897 C884 0.929 . S
H898 C892 0.929 . S
H899 C893 0.930 . S
Mn900 O905 2.095 . S
Mn900 O915 2.162 . S
Mn900 O916 2.297 . S
Mn900 O924 2.385 . S
Mn900 O925 2.209 . S
Mn900 O926 2.094 . S
Mn901 O906 2.121 . S
Mn901 N908 2.257 . S
Mn901 N917 2.282 . S
Mn901 O925 2.215 . S
Mn901 O927 2.117 . S
C902 O924 1.234 . S
C902 O925 1.283 . S
C903 O915 1.281 . S
C903 O916 1.236 . S
C904 O926 1.240 . S
C904 O927 1.264 . S
O905 Mn900 2.095 . S
O905 C914 1.250 . S
O906 Mn901 2.121 . S
O906 C914 1.258 . S
C907 N908 1.326 . S
C907 C911 1.460 . S
C907 H913 0.929 . S
N908 Mn901 2.257 . S
N908 C907 1.326 . S
N908 C912 1.362 . S
C909 C910 1.258 . S
C909 C912 1.431 . S
C909 C929 1.449 . S
C910 C909 1.258 . S
C910 C911 1.477 . S
C910 H930 0.931 . S
C911 C907 1.460 . S
C911 C910 1.477 . S
C911 H931 0.930 . S
C912 N908 1.362 . S
C912 C909 1.431 . S
C912 C922 1.476 . S
H913 C907 0.929 . S
C914 O905 1.250 . S
C914 O906 1.258 . S
O915 Mn900 2.162 . S
O915 C903 1.281 . S
O916 Mn900 2.297 . S
O916 C903 1.236 . S
N917 Mn901 2.282 . S
N917 C918 1.328 . S
N917 C922 1.318 . S
C918 N917 1.328 . S
C918 C919 1.457 . S
C918 H923 0.929 . S
C919 C918 1.457 . S
C919 C920 1.291 . S
C919 H932 0.931 . S
C920 C919 1.291 . S
C920 C921 1.373 . S
C920 H933 0.929 . S
C921 C920 1.373 . S
C921 C922 1.396 . S
C921 C928 1.403 . S
C922 C912 1.476 . S
C922 N917 1.318 . S
C922 C921 1.396 . S
H923 C918 0.929 . S
O924 Mn900 2.385 . S
O924 C902 1.234 . S
O925 Mn900 2.209 . S
O925 Mn901 2.215 . S
O925 C902 1.283 . S
O926 Mn900 2.094 . S
O926 C904 1.240 . S
O927 Mn901 2.117 . S
O927 C904 1.264 . S
C928 C921 1.403 . S
C928 C929 1.399 . S
C928 H934 0.929 . S
C929 C909 1.449 . S
C929 C928 1.399 . S
C929 H935 0.930 . S
H930 C910 0.931 . S
H931 C911 0.930 . S
H932 C919 0.931 . S
H933 C920 0.929 . S
H934 C928 0.929 . S
H935 C929 0.930 . S
Mn936 O941 2.095 1_455 S
Mn936 O951 2.162 . S
Mn936 O952 2.297 1_455 S
Mn936 O960 2.385 . S
Mn936 O961 2.209 1_455 S
Mn936 O962 2.094 . S
Mn937 O942 2.121 . S
Mn937 N944 2.257 . S
Mn937 N953 2.282 1_655 S
Mn937 O961 2.215 . S
Mn937 O963 2.117 1_655 S
C938 O960 1.234 . S
C938 O961 1.283 1_455 S
C939 O951 1.281 . S
C939 O952 1.236 1_455 S
C940 O962 1.240 . S
C940 O963 1.264 . S
O941 Mn936 2.095 1_655 S
O941 C950 1.250 . S
O942 Mn937 2.121 . S
O942 C950 1.258 . S
C943 N944 1.326 . S
C943 C947 1.460 . S
C943 H949 0.929 . S
N944 Mn937 2.257 . S
N944 C943 1.326 . S
N944 C948 1.362 . S
C945 C946 1.258 . S
C945 C948 1.431 . S
C945 C965 1.449 . S
C946 C945 1.258 . S
C946 C947 1.477 . S
C946 H966 0.931 . S
C947 C943 1.460 . S
C947 C946 1.477 . S
C947 H967 0.930 . S
C948 N944 1.362 . S
C948 C945 1.431 . S
C948 C958 1.476 . S
H949 C943 0.929 . S
C950 O941 1.250 . S
C950 O942 1.258 . S
O951 Mn936 2.162 . S
O951 C939 1.281 . S
O952 Mn936 2.297 1_655 S
O952 C939 1.236 1_655 S
N953 Mn937 2.282 1_455 S
N953 C954 1.328 . S
N953 C958 1.318 1_455 S
C954 N953 1.328 . S
C954 C955 1.457 . S
C954 H959 0.929 . S
C955 C954 1.457 . S
C955 C956 1.291 . S
C955 H968 0.931 . S
C956 C955 1.291 . S
C956 C957 1.373 1_455 S
C956 H969 0.929 . S
C957 C956 1.373 1_655 S
C957 C958 1.396 . S
C957 C964 1.403 . S
C958 C948 1.476 . S
C958 N953 1.318 1_655 S
C958 C957 1.396 . S
H959 C954 0.929 . S
O960 Mn936 2.385 . S
O960 C938 1.234 . S
O961 Mn936 2.209 1_655 S
O961 Mn937 2.215 . S
O961 C938 1.283 1_655 S
O962 Mn936 2.094 . S
O962 C940 1.240 . S
O963 Mn937 2.117 1_455 S
O963 C940 1.264 . S
C964 C957 1.403 . S
C964 C965 1.399 . S
C964 H970 0.929 . S
C965 C945 1.449 . S
C965 C964 1.399 . S
C965 H971 0.930 . S
H966 C946 0.931 . S
H967 C947 0.930 . S
H968 C955 0.931 . S
H969 C956 0.929 . S
H970 C964 0.929 . S
H971 C965 0.930 . S
Mn972 O977 2.095 . S
Mn972 O987 2.162 . S
Mn972 O988 2.297 . S
Mn972 O996 2.385 . S
Mn972 O997 2.209 . S
Mn972 O998 2.094 . S
Mn973 O978 2.121 . S
Mn973 N980 2.257 . S
Mn973 N989 2.282 . S
Mn973 O997 2.215 . S
Mn973 O999 2.117 . S
C974 O996 1.234 . S
C974 O997 1.283 . S
C975 O987 1.281 . S
C975 O988 1.236 . S
C976 O998 1.240 . S
C976 O999 1.264 . S
O977 Mn972 2.095 . S
O977 C986 1.250 . S
O978 Mn973 2.121 . S
O978 C986 1.258 . S
C979 N980 1.326 . S
C979 C983 1.460 . S
C979 H985 0.929 . S
N980 Mn973 2.257 . S
N980 C979 1.326 . S
N980 C984 1.362 . S
C981 C982 1.258 . S
C981 C984 1.431 . S
C981 C1001 1.449 . S
C982 C981 1.258 . S
C982 C983 1.477 . S
C982 H1002 0.931 . S
C983 C979 1.460 . S
C983 C982 1.477 . S
C983 H1003 0.930 . S
C984 N980 1.362 . S
C984 C981 1.431 . S
C984 C994 1.476 . S
H985 C979 0.929 . S
C986 O977 1.250 . S
C986 O978 1.258 . S
O987 Mn972 2.162 . S
O987 C975 1.281 . S
O988 Mn972 2.297 . S
O988 C975 1.236 . S
N989 Mn973 2.282 . S
N989 C990 1.328 . S
N989 C994 1.318 . S
C990 N989 1.328 . S
C990 C991 1.457 . S
C990 H995 0.929 . S
C991 C990 1.457 . S
C991 C992 1.291 . S
C991 H1004 0.931 . S
C992 C991 1.291 . S
C992 C993 1.373 . S
C992 H1005 0.929 . S
C993 C992 1.373 . S
C993 C994 1.396 . S
C993 C1000 1.403 . S
C994 C984 1.476 . S
C994 N989 1.318 . S
C994 C993 1.396 . S
H995 C990 0.929 . S
O996 Mn972 2.385 . S
O996 C974 1.234 . S
O997 Mn972 2.209 . S
O997 Mn973 2.215 . S
O997 C974 1.283 . S
O998 Mn972 2.094 . S
O998 C976 1.240 . S
O999 Mn973 2.117 . S
O999 C976 1.264 . S
C1000 C993 1.403 . S
C1000 C1001 1.399 . S
C1000 H1006 0.929 . S
C1001 C981 1.449 . S
C1001 C1000 1.399 . S
C1001 H1007 0.930 . S
H1002 C982 0.931 . S
H1003 C983 0.930 . S
H1004 C991 0.931 . S
H1005 C992 0.929 . S
H1006 C1000 0.929 . S
H1007 C1001 0.930 . S
C1008 C1009 1.363 . S
C1008 C1014 1.379 . S
C1008 N1016 1.356 . S
C1009 C1008 1.363 . S
C1009 C1015 1.363 . S
C1010 C1011 1.363 . S
C1010 C1015 1.379 . S
C1010 N1017 1.356 . S
C1011 C1010 1.363 . S
C1011 C1014 1.363 . S
N1012 C1014 1.356 . S
N1012 H1024 0.984 1_556 S
N1012 H1025 0.993 . S
N1013 C1015 1.356 . S
N1013 H1018 0.984 . S
N1013 H1019 0.985 . S
C1014 C1008 1.379 . S
C1014 C1011 1.363 . S
C1014 N1012 1.356 . S
C1015 C1009 1.363 . S
C1015 C1010 1.379 . S
C1015 N1013 1.356 . S
N1016 C1008 1.356 . S
N1016 H1022 0.984 . S
N1016 H1023 0.984 . S
N1017 C1010 1.356 . S
N1017 H1020 0.984 . S
N1017 H1021 0.985 . S
H1018 N1013 0.984 . S
H1019 N1013 0.985 . S
H1020 N1017 0.984 . S
H1021 N1017 0.985 . S
H1022 N1016 0.984 . S
H1023 N1016 0.984 . S
H1024 N1012 0.984 1_554 S
H1025 N1012 0.993 . S
C1026 C1027 1.363 . S
C1026 C1032 1.379 . S
C1026 N1034 1.356 . S
C1027 C1026 1.363 . S
C1027 C1033 1.363 . S
C1028 C1029 1.363 . S
C1028 C1033 1.379 . S
C1028 N1035 1.356 . S
C1029 C1028 1.363 . S
C1029 C1032 1.363 . S
N1030 C1032 1.356 . S
N1030 H1042 0.984 . S
N1030 H1043 0.985 . S
N1031 C1033 1.356 . S
N1031 H1036 0.984 . S
N1031 H1037 0.985 . S
C1032 C1026 1.379 . S
C1032 C1029 1.363 . S
C1032 N1030 1.356 . S
C1033 C1027 1.363 . S
C1033 C1028 1.379 . S
C1033 N1031 1.356 . S
N1034 C1026 1.356 . S
N1034 H1040 0.984 . S
N1034 H1041 0.984 . S
N1035 C1028 1.356 . S
N1035 H1038 0.984 . S
N1035 H1039 0.985 . S
H1036 N1031 0.984 . S
H1037 N1031 0.985 . S
H1038 N1035 0.984 . S
H1039 N1035 0.985 . S
H1040 N1034 0.984 . S
H1041 N1034 0.984 . S
H1042 N1030 0.984 . S
H1043 N1030 0.985 . S
C1044 C1045 1.363 . S
C1044 C1050 1.379 . S
C1044 N1052 1.356 . S
C1045 C1044 1.363 . S
C1045 C1051 1.363 . S
C1046 C1047 1.363 . S
C1046 C1051 1.379 . S
C1046 N1053 1.356 . S
C1047 C1046 1.363 . S
C1047 C1050 1.363 . S
N1048 C1050 1.356 . S
N1048 H1060 0.984 . S
N1048 H1061 0.985 . S
N1049 C1051 1.356 . S
N1049 H1054 0.984 . S
N1049 H1055 0.985 . S
C1050 C1044 1.379 . S
C1050 C1047 1.363 . S
C1050 N1048 1.356 . S
C1051 C1045 1.363 . S
C1051 C1046 1.379 . S
C1051 N1049 1.356 . S
N1052 C1044 1.356 . S
N1052 H1058 0.984 . S
N1052 H1059 0.984 . S
N1053 C1046 1.356 . S
N1053 H1056 0.984 . S
N1053 H1057 0.985 . S
H1054 N1049 0.984 . S
H1055 N1049 0.985 . S
H1056 N1053 0.984 . S
H1057 N1053 0.985 . S
H1058 N1052 0.984 . S
H1059 N1052 0.984 . S
H1060 N1048 0.984 . S
H1061 N1048 0.985 . S
C1062 C1063 1.363 . S
C1062 C1068 1.379 . S
C1062 N1070 1.356 . S
C1063 C1062 1.363 . S
C1063 C1069 1.363 1_565 S
C1064 C1065 1.348 1_545 S
C1064 C1069 1.379 . S
C1064 N1071 1.356 . S
C1065 C1064 1.348 1_565 S
C1065 C1068 1.382 . S
N1066 C1068 1.356 . S
N1066 H1078 0.984 . S
N1066 H1079 0.985 . S
N1067 C1069 1.356 . S
N1067 H1072 0.984 . S
N1067 H1073 0.985 . S
C1068 C1062 1.379 . S
C1068 C1065 1.382 . S
C1068 N1066 1.356 . S
C1069 C1063 1.363 1_545 S
C1069 C1064 1.379 . S
C1069 N1067 1.356 . S
N1070 C1062 1.356 . S
N1070 H1076 0.984 . S
N1070 H1077 0.984 . S
N1071 C1064 1.356 . S
N1071 H1074 0.984 . S
N1071 H1075 0.985 . S
H1072 N1067 0.984 . S
H1073 N1067 0.985 . S
H1074 N1071 0.984 . S
H1075 N1071 0.985 . S
H1076 N1070 0.984 . S
H1077 N1070 0.984 . S
H1078 N1066 0.984 . S
H1079 N1066 0.985 . S
C1080 C1081 1.363 . S
C1080 C1086 1.379 . S
C1080 N1088 1.356 . S
C1081 C1080 1.363 . S
C1081 C1087 1.363 . S
C1082 C1083 1.363 . S
C1082 C1087 1.379 . S
C1082 N1089 1.356 . S
C1083 C1082 1.363 . S
C1083 C1086 1.363 . S
N1084 C1086 1.356 . S
N1084 H1096 0.984 . S
N1084 H1097 0.985 . S
N1085 C1087 1.356 . S
N1085 H1090 0.984 . S
N1085 H1091 0.985 . S
C1086 C1080 1.379 . S
C1086 C1083 1.363 . S
C1086 N1084 1.356 . S
C1087 C1081 1.363 . S
C1087 C1082 1.379 . S
C1087 N1085 1.356 . S
N1088 C1080 1.356 . S
N1088 H1094 0.984 . S
N1088 H1095 0.984 . S
N1089 C1082 1.356 . S
N1089 H1092 0.984 . S
N1089 H1093 0.985 . S
H1090 N1085 0.984 . S
H1091 N1085 0.985 . S
H1092 N1089 0.984 . S
H1093 N1089 0.985 . S
H1094 N1088 0.984 . S
H1095 N1088 0.984 . S
H1096 N1084 0.984 . S
H1097 N1084 0.985 . S
C1098 C1099 1.363 . S
C1098 C1104 1.379 . S
C1098 N1106 1.356 . S
C1099 C1098 1.363 . S
C1099 C1105 1.363 . S
C1100 C1101 1.363 . S
C1100 C1105 1.379 . S
C1100 N1107 1.356 . S
C1101 C1100 1.363 . S
C1101 C1104 1.363 . S
N1102 C1104 1.356 . S
N1102 H1114 0.984 . S
N1102 H1115 0.985 . S
N1103 C1105 1.356 . S
N1103 H1108 0.984 . S
N1103 H1109 0.985 . S
C1104 C1098 1.379 . S
C1104 C1101 1.363 . S
C1104 N1102 1.356 . S
C1105 C1099 1.363 . S
C1105 C1100 1.379 . S
C1105 N1103 1.356 . S
N1106 C1098 1.356 . S
N1106 H1112 0.984 . S
N1106 H1113 0.984 . S
N1107 C1100 1.356 . S
N1107 H1110 0.984 . S
N1107 H1111 0.985 . S
H1108 N1103 0.984 . S
H1109 N1103 0.985 . S
H1110 N1107 0.984 . S
H1111 N1107 0.985 . S
H1112 N1106 0.984 . S
H1113 N1106 0.984 . S
H1114 N1102 0.984 . S
H1115 N1102 0.985 . S
C1116 C1117 1.363 . S
C1116 C1122 1.379 . S
C1116 N1124 1.356 . S
C1117 C1116 1.363 . S
C1117 C1123 1.363 . S
C1118 C1119 1.363 . S
C1118 C1123 1.379 . S
C1118 N1125 1.356 . S
C1119 C1118 1.363 . S
C1119 C1122 1.363 . S
N1120 C1122 1.356 . S
N1120 H1132 0.984 . S
N1120 H1133 0.985 . S
N1121 C1123 1.356 . S
N1121 H1126 0.984 . S
N1121 H1127 0.985 . S
C1122 C1116 1.379 . S
C1122 C1119 1.363 . S
C1122 N1120 1.356 . S
C1123 C1117 1.363 . S
C1123 C1118 1.379 . S
C1123 N1121 1.356 . S
N1124 C1116 1.356 . S
N1124 H1130 0.984 . S
N1124 H1131 0.984 . S
N1125 C1118 1.356 . S
N1125 H1128 0.984 . S
N1125 H1129 0.985 . S
H1126 N1121 0.984 . S
H1127 N1121 0.985 . S
H1128 N1125 0.984 . S
H1129 N1125 0.985 . S
H1130 N1124 0.984 . S
H1131 N1124 0.984 . S
H1132 N1120 0.984 . S
H1133 N1120 0.985 . S
C1134 C1135 1.363 . S
C1134 C1140 1.379 . S
C1134 N1142 1.356 . S
C1135 C1134 1.363 . S
C1135 C1141 1.363 1_565 S
C1136 C1137 1.363 1_545 S
C1136 C1141 1.379 . S
C1136 N1143 1.356 . S
C1137 C1136 1.363 1_565 S
C1137 C1140 1.363 . S
N1138 C1140 1.356 . S
N1138 H1150 0.984 . S
N1138 H1151 0.985 . S
N1139 C1141 1.356 . S
N1139 H1144 0.984 . S
N1139 H1145 0.985 . S
C1140 C1134 1.379 . S
C1140 C1137 1.363 . S
C1140 N1138 1.356 . S
C1141 C1135 1.363 1_545 S
C1141 C1136 1.379 . S
C1141 N1139 1.356 . S
N1142 C1134 1.356 . S
N1142 H1148 0.984 . S
N1142 H1149 0.984 . S
N1143 C1136 1.356 . S
N1143 H1146 0.984 . S
N1143 H1147 0.985 . S
H1144 N1139 0.984 . S
H1145 N1139 0.985 . S
H1146 N1143 0.984 . S
H1147 N1143 0.985 . S
H1148 N1142 0.984 . S
H1149 N1142 0.984 . S
H1150 N1138 0.984 . S
H1151 N1138 0.985 . S
C1152 C1153 1.363 . S
C1152 C1158 1.379 . S
C1152 N1160 1.356 . S
C1153 C1152 1.363 . S
C1153 C1159 1.363 . S
C1154 C1155 1.363 . S
C1154 C1159 1.379 . S
C1154 N1161 1.356 . S
C1155 C1154 1.363 . S
C1155 C1158 1.363 . S
N1156 C1158 1.356 . S
N1156 H1168 0.984 1_655 S
N1156 H1169 0.985 . S
N1157 C1159 1.356 . S
N1157 H1162 0.984 . S
N1157 H1163 0.985 . S
C1158 C1152 1.379 . S
C1158 C1155 1.363 . S
C1158 N1156 1.356 . S
C1159 C1153 1.363 . S
C1159 C1154 1.379 . S
C1159 N1157 1.356 . S
N1160 C1152 1.356 . S
N1160 H1166 0.984 . S
N1160 H1167 0.984 . S
N1161 C1154 1.356 . S
N1161 H1164 0.984 . S
N1161 H1165 0.985 . S
H1162 N1157 0.984 . S
H1163 N1157 0.985 . S
H1164 N1161 0.984 . S
H1165 N1161 0.985 . S
H1166 N1160 0.984 . S
H1167 N1160 0.984 . S
H1168 N1156 0.984 1_455 S
H1169 N1156 0.985 . S
C1170 C1171 1.363 . S
C1170 C1176 1.379 . S
C1170 N1178 1.356 . S
C1171 C1170 1.363 . S
C1171 C1177 1.363 . S
C1172 C1173 1.363 . S
C1172 C1177 1.379 . S
C1172 N1179 1.356 . S
C1173 C1172 1.363 . S
C1173 C1176 1.363 . S
N1174 C1176 1.356 . S
N1174 H1186 0.984 . S
N1174 H1187 0.985 . S
N1175 C1177 1.356 . S
N1175 H1180 0.984 . S
N1175 H1181 0.985 . S
C1176 C1170 1.379 . S
C1176 C1173 1.363 . S
C1176 N1174 1.356 . S
C1177 C1171 1.363 . S
C1177 C1172 1.379 . S
C1177 N1175 1.356 . S
N1178 C1170 1.356 . S
N1178 H1184 0.984 . S
N1178 H1185 0.984 . S
N1179 C1172 1.356 . S
N1179 H1182 0.984 . S
N1179 H1183 0.985 . S
H1180 N1175 0.984 . S
H1181 N1175 0.985 . S
H1182 N1179 0.984 . S
H1183 N1179 0.985 . S
H1184 N1178 0.984 . S
H1185 N1178 0.984 . S
H1186 N1174 0.984 . S
H1187 N1174 0.985 . S
C1188 C1189 1.363 . S
C1188 C1194 1.379 . S
C1188 N1196 1.356 . S
C1189 C1188 1.363 . S
C1189 C1195 1.363 . S
C1190 C1191 1.363 . S
C1190 C1195 1.379 . S
C1190 N1197 1.356 . S
C1191 C1190 1.363 . S
C1191 C1194 1.363 . S
N1192 C1194 1.356 . S
N1192 H1204 0.984 . S
N1192 H1205 0.985 . S
N1193 C1195 1.356 . S
N1193 H1198 0.984 . S
N1193 H1199 0.985 . S
C1194 C1188 1.379 . S
C1194 C1191 1.363 . S
C1194 N1192 1.356 . S
C1195 C1189 1.363 . S
C1195 C1190 1.379 . S
C1195 N1193 1.356 . S
N1196 C1188 1.356 . S
N1196 H1202 0.984 . S
N1196 H1203 0.984 . S
N1197 C1190 1.356 . S
N1197 H1200 0.984 . S
N1197 H1201 0.985 . S
H1198 N1193 0.984 . S
H1199 N1193 0.985 . S
H1200 N1197 0.984 . S
H1201 N1197 0.985 . S
H1202 N1196 0.984 . S
H1203 N1196 0.984 . S
H1204 N1192 0.984 . S
H1205 N1192 0.985 . S
C1206 C1207 1.363 . S
C1206 C1212 1.379 . S
C1206 N1214 1.356 . S
C1207 C1206 1.363 . S
C1207 C1213 1.363 . S
C1208 C1209 1.363 . S
C1208 C1213 1.379 . S
C1208 N1215 1.356 . S
C1209 C1208 1.363 . S
C1209 C1212 1.363 . S
N1210 C1212 1.356 . S
N1210 H1222 0.984 . S
N1210 H1223 0.985 . S
N1211 C1213 1.356 . S
N1211 H1216 0.984 . S
N1211 H1217 0.985 . S
C1212 C1206 1.379 . S
C1212 C1209 1.363 . S
C1212 N1210 1.356 . S
C1213 C1207 1.363 . S
C1213 C1208 1.379 . S
C1213 N1211 1.356 . S
N1214 C1206 1.356 . S
N1214 H1220 0.984 . S
N1214 H1221 0.984 . S
N1215 C1208 1.356 . S
N1215 H1218 0.984 . S
N1215 H1219 0.985 . S
H1216 N1211 0.984 . S
H1217 N1211 0.985 . S
H1218 N1215 0.984 . S
H1219 N1215 0.985 . S
H1220 N1214 0.984 . S
H1221 N1214 0.984 . S
H1222 N1210 0.984 . S
H1223 N1210 0.985 . S
C1224 C1225 1.363 . S
C1224 C1230 1.379 . S
C1224 N1232 1.356 . S
C1225 C1224 1.363 . S
C1225 C1231 1.363 . S
C1226 C1227 1.363 . S
C1226 C1231 1.379 . S
C1226 N1233 1.356 . S
C1227 C1226 1.363 . S
C1227 C1230 1.363 . S
N1228 C1230 1.356 . S
N1228 H1240 0.984 . S
N1228 H1241 0.985 . S
N1229 C1231 1.356 . S
N1229 H1234 0.984 . S
N1229 H1235 0.985 . S
C1230 C1224 1.379 . S
C1230 C1227 1.363 . S
C1230 N1228 1.356 . S
C1231 C1225 1.363 . S
C1231 C1226 1.379 . S
C1231 N1229 1.356 . S
N1232 C1224 1.356 . S
N1232 H1238 0.984 . S
N1232 H1239 0.984 . S
N1233 C1226 1.356 . S
N1233 H1236 0.984 . S
N1233 H1237 0.985 . S
H1234 N1229 0.984 . S
H1235 N1229 0.985 . S
H1236 N1233 0.984 . S
H1237 N1233 0.985 . S
H1238 N1232 0.984 . S
H1239 N1232 0.984 . S
H1240 N1228 0.984 . S
H1241 N1228 0.985 . S
C1242 C1243 1.363 . S
C1242 C1248 1.379 . S
C1242 N1250 1.356 . S
C1243 C1242 1.363 . S
C1243 C1249 1.363 . S
C1244 C1245 1.363 . S
C1244 C1249 1.379 . S
C1244 N1251 1.356 . S
C1245 C1244 1.363 . S
C1245 C1248 1.363 . S
N1246 C1248 1.356 . S
N1246 H1258 0.984 1_455 S
N1246 H1259 0.985 . S
N1247 C1249 1.356 . S
N1247 H1252 0.984 . S
N1247 H1253 0.985 . S
C1248 C1242 1.379 . S
C1248 C1245 1.363 . S
C1248 N1246 1.356 . S
C1249 C1243 1.363 . S
C1249 C1244 1.379 . S
C1249 N1247 1.356 . S
N1250 C1242 1.356 . S
N1250 H1256 0.984 . S
N1250 H1257 0.984 . S
N1251 C1244 1.356 . S
N1251 H1254 0.984 . S
N1251 H1255 0.985 . S
H1252 N1247 0.984 . S
H1253 N1247 0.985 . S
H1254 N1251 0.984 . S
H1255 N1251 0.985 . S
H1256 N1250 0.984 . S
H1257 N1250 0.984 . S
H1258 N1246 0.984 1_655 S
H1259 N1246 0.985 . S
C1260 C1261 1.363 . S
C1260 C1266 1.379 . S
C1260 N1268 1.356 . S
C1261 C1260 1.363 . S
C1261 C1267 1.363 . S
C1262 C1263 1.363 . S
C1262 C1267 1.379 . S
C1262 N1269 1.356 . S
C1263 C1262 1.363 . S
C1263 C1266 1.363 . S
N1264 C1266 1.356 . S
N1264 H1276 0.984 . S
N1264 H1277 0.985 . S
N1265 C1267 1.356 . S
N1265 H1270 0.984 . S
N1265 H1271 0.985 . S
C1266 C1260 1.379 . S
C1266 C1263 1.363 . S
C1266 N1264 1.356 . S
C1267 C1261 1.363 . S
C1267 C1262 1.379 . S
C1267 N1265 1.356 . S
N1268 C1260 1.356 . S
N1268 H1274 0.984 . S
N1268 H1275 0.984 . S
N1269 C1262 1.356 . S
N1269 H1272 0.984 . S
N1269 H1273 0.985 . S
H1270 N1265 0.984 . S
H1271 N1265 0.985 . S
H1272 N1269 0.984 . S
H1273 N1269 0.985 . S
H1274 N1268 0.984 . S
H1275 N1268 0.984 . S
H1276 N1264 0.984 . S
H1277 N1264 0.985 . S
C1278 C1279 1.363 1_455 S
C1278 C1284 1.379 . S
C1278 N1286 1.356 . S
C1279 C1278 1.363 1_655 S
C1279 C1285 1.363 . S
C1280 C1281 1.353 1_655 S
C1280 C1285 1.379 . S
C1280 N1287 1.356 . S
C1281 C1280 1.353 1_455 S
C1281 C1284 1.372 . S
N1282 C1284 1.356 . S
N1282 H1294 0.984 . S
N1282 H1295 0.985 . S
N1283 C1285 1.356 . S
N1283 H1288 0.984 . S
N1283 H1289 0.985 . S
C1284 C1278 1.379 . S
C1284 C1281 1.372 . S
C1284 N1282 1.356 . S
C1285 C1279 1.363 . S
C1285 C1280 1.379 . S
C1285 N1283 1.356 . S
N1286 C1278 1.356 . S
N1286 H1292 0.984 . S
N1286 H1293 0.984 . S
N1287 C1280 1.356 . S
N1287 H1290 0.984 . S
N1287 H1291 0.985 . S
H1288 N1283 0.984 . S
H1289 N1283 0.985 . S
H1290 N1287 0.984 . S
H1291 N1287 0.985 . S
H1292 N1286 0.984 . S
H1293 N1286 0.984 . S
H1294 N1282 0.984 . S
H1295 N1282 0.985 . S
C1296 C1297 1.363 . S
C1296 C1302 1.379 . S
C1296 N1304 1.356 . S
C1297 C1296 1.363 . S
C1297 C1303 1.363 . S
C1298 C1299 1.363 . S
C1298 C1303 1.379 . S
C1298 N1305 1.356 . S
C1299 C1298 1.363 . S
C1299 C1302 1.363 . S
N1300 C1302 1.356 . S
N1300 H1312 0.984 . S
N1300 H1313 0.985 . S
N1301 C1303 1.356 . S
N1301 H1306 0.984 . S
N1301 H1307 0.985 . S
C1302 C1296 1.379 . S
C1302 C1299 1.363 . S
C1302 N1300 1.356 . S
C1303 C1297 1.363 . S
C1303 C1298 1.379 . S
C1303 N1301 1.356 . S
N1304 C1296 1.356 . S
N1304 H1310 0.984 . S
N1304 H1311 0.984 . S
N1305 C1298 1.356 . S
N1305 H1308 0.984 . S
N1305 H1309 0.985 . S
H1306 N1301 0.984 . S
H1307 N1301 0.985 . S
H1308 N1305 0.984 . S
H1309 N1305 0.985 . S
H1310 N1304 0.984 . S
H1311 N1304 0.984 . S
H1312 N1300 0.984 . S
H1313 N1300 0.985 . S
C1314 C1315 1.363 . S
C1314 C1320 1.379 . S
C1314 N1322 1.356 . S
C1315 C1314 1.363 . S
C1315 C1321 1.363 . S
C1316 C1317 1.363 . S
C1316 C1321 1.379 . S
C1316 N1323 1.356 . S
C1317 C1316 1.363 . S
C1317 C1320 1.363 . S
N1318 C1320 1.356 . S
N1318 H1330 0.984 . S
N1318 H1331 0.985 . S
N1319 C1321 1.356 . S
N1319 H1324 0.984 . S
N1319 H1325 0.985 . S
C1320 C1314 1.379 . S
C1320 C1317 1.363 . S
C1320 N1318 1.356 . S
C1321 C1315 1.363 . S
C1321 C1316 1.379 . S
C1321 N1319 1.356 . S
N1322 C1314 1.356 . S
N1322 H1328 0.984 . S
N1322 H1329 0.984 . S
N1323 C1316 1.356 . S
N1323 H1326 0.984 . S
N1323 H1327 0.985 . S
H1324 N1319 0.984 . S
H1325 N1319 0.985 . S
H1326 N1323 0.984 . S
H1327 N1323 0.985 . S
H1328 N1322 0.984 . S
H1329 N1322 0.984 . S
H1330 N1318 0.984 . S
H1331 N1318 0.985 . S
C1332 C1333 1.363 1_554 S
C1332 C1338 1.379 . S
C1332 N1340 1.356 . S
C1333 C1332 1.363 1_556 S
C1333 C1339 1.363 . S
C1334 C1335 1.363 1_556 S
C1334 C1339 1.379 . S
C1334 N1341 1.356 . S
C1335 C1334 1.363 1_554 S
C1335 C1338 1.363 . S
N1336 C1338 1.356 . S
N1336 H1348 0.984 . S
N1336 H1349 0.985 . S
N1337 C1339 1.356 . S
N1337 H1342 0.984 . S
N1337 H1343 0.985 . S
C1338 C1332 1.379 . S
C1338 C1335 1.363 . S
C1338 N1336 1.356 . S
C1339 C1333 1.363 . S
C1339 C1334 1.379 . S
C1339 N1337 1.356 . S
N1340 C1332 1.356 . S
N1340 H1346 0.984 . S
N1340 H1347 0.984 . S
N1341 C1334 1.356 . S
N1341 H1344 0.984 . S
N1341 H1345 0.985 . S
H1342 N1337 0.984 . S
H1343 N1337 0.985 . S
H1344 N1341 0.984 . S
H1345 N1341 0.985 . S
H1346 N1340 0.984 . S
H1347 N1340 0.984 . S
H1348 N1336 0.984 . S
H1349 N1336 0.985 . S
C1350 C1351 1.363 . S
C1350 C1356 1.379 . S
C1350 N1358 1.356 . S
C1351 C1350 1.363 . S
C1351 C1357 1.363 . S
C1352 C1353 1.363 . S
C1352 C1357 1.379 . S
C1352 N1359 1.356 . S
C1353 C1352 1.363 . S
C1353 C1356 1.363 . S
N1354 C1356 1.356 . S
N1354 H1366 0.984 . S
N1354 H1367 0.985 . S
N1355 C1357 1.356 . S
N1355 H1360 0.984 . S
N1355 H1361 0.985 . S
C1356 C1350 1.379 . S
C1356 C1353 1.363 . S
C1356 N1354 1.356 . S
C1357 C1351 1.363 . S
C1357 C1352 1.379 . S
C1357 N1355 1.356 . S
N1358 C1350 1.356 . S
N1358 H1364 0.984 . S
N1358 H1365 0.984 . S
N1359 C1352 1.356 . S
N1359 H1362 0.984 . S
N1359 H1363 0.985 . S
H1360 N1355 0.984 . S
H1361 N1355 0.985 . S
H1362 N1359 0.984 . S
H1363 N1359 0.985 . S
H1364 N1358 0.984 . S
H1365 N1358 0.984 . S
H1366 N1354 0.984 . S
H1367 N1354 0.985 . S
C1368 C1369 1.363 . S
C1368 C1374 1.379 . S
C1368 N1376 1.356 . S
C1369 C1368 1.363 . S
C1369 C1375 1.363 . S
C1370 C1371 1.363 . S
C1370 C1375 1.379 . S
C1370 N1377 1.356 . S
C1371 C1370 1.363 . S
C1371 C1374 1.363 . S
N1372 C1374 1.356 . S
N1372 H1384 0.984 . S
N1372 H1385 0.985 . S
N1373 C1375 1.356 . S
N1373 H1378 0.984 . S
N1373 H1379 0.985 . S
C1374 C1368 1.379 . S
C1374 C1371 1.363 . S
C1374 N1372 1.356 . S
C1375 C1369 1.363 . S
C1375 C1370 1.379 . S
C1375 N1373 1.356 . S
N1376 C1368 1.356 . S
N1376 H1382 0.984 . S
N1376 H1383 0.984 . S
N1377 C1370 1.356 . S
N1377 H1380 0.984 . S
N1377 H1381 0.985 . S
H1378 N1373 0.984 . S
H1379 N1373 0.985 . S
H1380 N1377 0.984 . S
H1381 N1377 0.985 . S
H1382 N1376 0.984 . S
H1383 N1376 0.984 . S
H1384 N1372 0.984 . S
H1385 N1372 0.985 . S
C1386 C1387 1.363 . S
C1386 C1392 1.379 . S
C1386 N1394 1.356 . S
C1387 C1386 1.363 . S
C1387 C1393 1.363 . S
C1388 C1389 1.363 . S
C1388 C1393 1.379 . S
C1388 N1395 1.356 . S
C1389 C1388 1.363 . S
C1389 C1392 1.363 . S
N1390 C1392 1.356 . S
N1390 H1402 0.984 . S
N1390 H1403 0.985 . S
N1391 C1393 1.356 . S
N1391 H1396 0.984 . S
N1391 H1397 0.985 . S
C1392 C1386 1.379 . S
C1392 C1389 1.363 . S
C1392 N1390 1.356 . S
C1393 C1387 1.363 . S
C1393 C1388 1.379 . S
C1393 N1391 1.356 . S
N1394 C1386 1.356 . S
N1394 H1400 0.984 . S
N1394 H1401 0.984 . S
N1395 C1388 1.356 . S
N1395 H1398 0.984 . S
N1395 H1399 0.985 . S
H1396 N1391 0.984 . S
H1397 N1391 0.985 . S
H1398 N1395 0.984 . S
H1399 N1395 0.985 . S
H1400 N1394 0.984 . S
H1401 N1394 0.984 . S
H1402 N1390 0.984 . S
H1403 N1390 0.985 . S
C1404 C1405 1.363 . S
C1404 C1410 1.379 . S
C1404 N1412 1.356 . S
C1405 C1404 1.363 . S
C1405 C1411 1.363 . S
C1406 C1407 1.363 . S
C1406 C1411 1.379 . S
C1406 N1413 1.356 . S
C1407 C1406 1.363 . S
C1407 C1410 1.363 . S
N1408 C1410 1.356 . S
N1408 H1420 0.984 . S
N1408 H1421 0.985 . S
N1409 C1411 1.356 . S
N1409 H1414 0.984 . S
N1409 H1415 0.985 . S
C1410 C1404 1.379 . S
C1410 C1407 1.363 . S
C1410 N1408 1.356 . S
C1411 C1405 1.363 . S
C1411 C1406 1.379 . S
C1411 N1409 1.356 . S
N1412 C1404 1.356 . S
N1412 H1418 0.984 . S
N1412 H1419 0.984 . S
N1413 C1406 1.356 . S
N1413 H1416 0.984 . S
N1413 H1417 0.985 . S
H1414 N1409 0.984 . S
H1415 N1409 0.985 . S
H1416 N1413 0.984 . S
H1417 N1413 0.985 . S
H1418 N1412 0.984 . S
H1419 N1412 0.984 . S
H1420 N1408 0.984 . S
H1421 N1408 0.985 . S
C1422 C1423 1.363 . S
C1422 C1428 1.379 . S
C1422 N1430 1.356 . S
C1423 C1422 1.363 . S
C1423 C1429 1.363 . S
C1424 C1425 1.363 . S
C1424 C1429 1.379 . S
C1424 N1431 1.356 . S
C1425 C1424 1.363 . S
C1425 C1428 1.363 . S
N1426 C1428 1.356 . S
N1426 H1438 0.984 . S
N1426 H1439 0.985 . S
N1427 C1429 1.356 . S
N1427 H1432 0.984 . S
N1427 H1433 0.985 . S
C1428 C1422 1.379 . S
C1428 C1425 1.363 . S
C1428 N1426 1.356 . S
C1429 C1423 1.363 . S
C1429 C1424 1.379 . S
C1429 N1427 1.356 . S
N1430 C1422 1.356 . S
N1430 H1436 0.984 . S
N1430 H1437 0.984 . S
N1431 C1424 1.356 . S
N1431 H1434 0.984 . S
N1431 H1435 0.985 . S
H1432 N1427 0.984 . S
H1433 N1427 0.985 . S
H1434 N1431 0.984 . S
H1435 N1431 0.985 . S
H1436 N1430 0.984 . S
H1437 N1430 0.984 . S
H1438 N1426 0.984 . S
H1439 N1426 0.985 . S
C1440 C1441 1.363 . S
C1440 C1446 1.379 . S
C1440 N1448 1.356 . S
C1441 C1440 1.363 . S
C1441 C1447 1.363 . S
C1442 C1443 1.363 . S
C1442 C1447 1.379 . S
C1442 N1449 1.356 . S
C1443 C1442 1.363 . S
C1443 C1446 1.363 . S
N1444 C1446 1.356 . S
N1444 H1456 0.984 . S
N1444 H1457 0.985 . S
N1445 C1447 1.356 . S
N1445 H1450 0.984 . S
N1445 H1451 0.985 . S
C1446 C1440 1.379 . S
C1446 C1443 1.363 . S
C1446 N1444 1.356 . S
C1447 C1441 1.363 . S
C1447 C1442 1.379 . S
C1447 N1445 1.356 . S
N1448 C1440 1.356 . S
N1448 H1454 0.984 . S
N1448 H1455 0.984 . S
N1449 C1442 1.356 . S
N1449 H1452 0.984 . S
N1449 H1453 0.985 . S
H1450 N1445 0.984 . S
H1451 N1445 0.985 . S
H1452 N1449 0.984 . S
H1453 N1449 0.985 . S
H1454 N1448 0.984 . S
H1455 N1448 0.984 . S
H1456 N1444 0.984 . S
H1457 N1444 0.985 . S
C1458 C1459 1.363 . S
C1458 C1464 1.379 . S
C1458 N1466 1.356 . S
C1459 C1458 1.363 . S
C1459 C1465 1.352 1_545 S
C1460 C1461 1.363 1_565 S
C1460 C1465 1.381 . S
C1460 N1467 1.356 . S
C1461 C1460 1.363 1_545 S
C1461 C1464 1.363 . S
N1462 C1464 1.356 . S
N1462 H1474 0.984 . S
N1462 H1475 0.985 . S
N1463 C1465 1.362 . S
N1463 H1468 0.984 . S
N1463 H1469 0.985 . S
C1464 C1458 1.379 . S
C1464 C1461 1.363 . S
C1464 N1462 1.356 . S
C1465 C1459 1.352 1_565 S
C1465 C1460 1.381 . S
C1465 N1463 1.362 . S
N1466 C1458 1.356 . S
N1466 H1472 0.984 . S
N1466 H1473 0.984 . S
N1467 C1460 1.356 . S
N1467 H1470 0.984 . S
N1467 H1471 0.985 . S
H1468 N1463 0.984 . S
H1469 N1463 0.985 . S
H1470 N1467 0.984 . S
H1471 N1467 0.985 . S
H1472 N1466 0.984 . S
H1473 N1466 0.984 . S
H1474 N1462 0.984 . S
H1475 N1462 0.985 . S
C1476 C1477 1.363 . S
C1476 C1482 1.379 . S
C1476 N1484 1.356 . S
C1477 C1476 1.363 . S
C1477 C1483 1.363 . S
C1478 C1479 1.363 . S
C1478 C1483 1.379 . S
C1478 N1485 1.356 . S
C1479 C1478 1.363 . S
C1479 C1482 1.363 . S
N1480 C1482 1.356 . S
N1480 H1492 0.984 . S
N1480 H1493 0.985 . S
N1481 C1483 1.356 . S
N1481 H1486 0.984 . S
N1481 H1487 0.985 . S
C1482 C1476 1.379 . S
C1482 C1479 1.363 . S
C1482 N1480 1.356 . S
C1483 C1477 1.363 . S
C1483 C1478 1.379 . S
C1483 N1481 1.356 . S
N1484 C1476 1.356 . S
N1484 H1490 0.984 . S
N1484 H1491 0.984 . S
N1485 C1478 1.356 . S
N1485 H1488 0.984 . S
N1485 H1489 0.985 . S
H1486 N1481 0.984 . S
H1487 N1481 0.985 . S
H1488 N1485 0.984 . S
H1489 N1485 0.985 . S
H1490 N1484 0.984 . S
H1491 N1484 0.984 . S
H1492 N1480 0.984 . S
H1493 N1480 0.985 . S
C1494 C1495 1.363 . S
C1494 C1500 1.379 . S
C1494 N1502 1.356 . S
C1495 C1494 1.363 . S
C1495 C1501 1.363 . S
C1496 C1497 1.363 . S
C1496 C1501 1.379 . S
C1496 N1503 1.356 . S
C1497 C1496 1.363 . S
C1497 C1500 1.363 . S
N1498 C1500 1.356 . S
N1498 H1510 0.984 . S
N1498 H1511 0.985 . S
N1499 C1501 1.356 . S
N1499 H1504 0.984 . S
N1499 H1505 0.985 . S
C1500 C1494 1.379 . S
C1500 C1497 1.363 . S
C1500 N1498 1.356 . S
C1501 C1495 1.363 . S
C1501 C1496 1.379 . S
C1501 N1499 1.356 . S
N1502 C1494 1.356 . S
N1502 H1508 0.984 . S
N1502 H1509 0.984 . S
N1503 C1496 1.356 . S
N1503 H1506 0.984 . S
N1503 H1507 0.985 . S
H1504 N1499 0.984 . S
H1505 N1499 0.985 . S
H1506 N1503 0.984 . S
H1507 N1503 0.985 . S
H1508 N1502 0.984 . S
H1509 N1502 0.984 . S
H1510 N1498 0.984 . S
H1511 N1498 0.985 . S
C1512 C1513 1.363 . S
C1512 C1518 1.379 . S
C1512 N1520 1.356 . S
C1513 C1512 1.363 . S
C1513 C1519 1.363 . S
C1514 C1515 1.363 . S
C1514 C1519 1.379 . S
C1514 N1521 1.356 . S
C1515 C1514 1.363 . S
C1515 C1518 1.363 . S
N1516 C1518 1.356 . S
N1516 H1528 0.984 . S
N1516 H1529 0.985 . S
N1517 C1519 1.356 . S
N1517 H1522 0.984 . S
N1517 H1523 0.985 . S
C1518 C1512 1.379 . S
C1518 C1515 1.363 . S
C1518 N1516 1.356 . S
C1519 C1513 1.363 . S
C1519 C1514 1.379 . S
C1519 N1517 1.356 . S
N1520 C1512 1.356 . S
N1520 H1526 0.984 . S
N1520 H1527 0.984 . S
N1521 C1514 1.356 . S
N1521 H1524 0.984 . S
N1521 H1525 0.985 . S
H1522 N1517 0.984 . S
H1523 N1517 0.985 . S
H1524 N1521 0.984 . S
H1525 N1521 0.985 . S
H1526 N1520 0.984 . S
H1527 N1520 0.984 . S
H1528 N1516 0.984 . S
H1529 N1516 0.985 . S
C1530 C1531 1.363 1_565 S
C1530 C1536 1.379 . S
C1530 N1538 1.356 . S
C1531 C1530 1.363 1_545 S
C1531 C1537 1.363 . S
C1532 C1533 1.363 . S
C1532 C1537 1.379 . S
C1532 N1539 1.356 . S
C1533 C1532 1.363 . S
C1533 C1536 1.363 1_545 S
N1534 C1536 1.356 . S
N1534 H1546 0.984 . S
N1534 H1547 0.985 . S
N1535 C1537 1.356 . S
N1535 H1540 0.984 . S
N1535 H1541 0.985 . S
C1536 C1530 1.379 . S
C1536 C1533 1.363 1_565 S
C1536 N1534 1.356 . S
C1537 C1531 1.363 . S
C1537 C1532 1.379 . S
C1537 N1535 1.356 . S
N1538 C1530 1.356 . S
N1538 H1544 0.984 . S
N1538 H1545 0.984 . S
N1539 C1532 1.356 . S
N1539 H1542 0.984 . S
N1539 H1543 0.985 . S
H1540 N1535 0.984 . S
H1541 N1535 0.985 . S
H1542 N1539 0.984 . S
H1543 N1539 0.985 . S
H1544 N1538 0.984 . S
H1545 N1538 0.984 . S
H1546 N1534 0.984 . S
H1547 N1534 0.985 . S
C1548 C1549 1.363 . S
C1548 C1554 1.379 . S
C1548 N1556 1.356 . S
C1549 C1548 1.363 . S
C1549 C1555 1.363 . S
C1550 C1551 1.363 . S
C1550 C1555 1.379 . S
C1550 N1557 1.356 . S
C1551 C1550 1.363 . S
C1551 C1554 1.363 . S
N1552 C1554 1.356 . S
N1552 H1564 0.984 . S
N1552 H1565 0.985 . S
N1553 C1555 1.356 . S
N1553 H1558 0.984 . S
N1553 H1559 0.985 . S
C1554 C1548 1.379 . S
C1554 C1551 1.363 . S
C1554 N1552 1.356 . S
C1555 C1549 1.363 . S
C1555 C1550 1.379 . S
C1555 N1553 1.356 . S
N1556 C1548 1.356 . S
N1556 H1562 0.984 . S
N1556 H1563 0.984 . S
N1557 C1550 1.356 . S
N1557 H1560 0.984 . S
N1557 H1561 0.985 . S
H1558 N1553 0.984 . S
H1559 N1553 0.985 . S
H1560 N1557 0.984 . S
H1561 N1557 0.985 . S
H1562 N1556 0.984 . S
H1563 N1556 0.984 . S
H1564 N1552 0.984 . S
H1565 N1552 0.985 . S
C1566 C1567 1.363 . S
C1566 C1572 1.379 . S
C1566 N1574 1.356 . S
C1567 C1566 1.363 . S
C1567 C1573 1.363 . S
C1568 C1569 1.363 . S
C1568 C1573 1.379 . S
C1568 N1575 1.356 . S
C1569 C1568 1.363 . S
C1569 C1572 1.363 . S
N1570 C1572 1.356 . S
N1570 H1582 0.984 . S
N1570 H1583 0.985 . S
N1571 C1573 1.356 . S
N1571 H1576 0.984 . S
N1571 H1577 0.985 . S
C1572 C1566 1.379 . S
C1572 C1569 1.363 . S
C1572 N1570 1.356 . S
C1573 C1567 1.363 . S
C1573 C1568 1.379 . S
C1573 N1571 1.356 . S
N1574 C1566 1.356 . S
N1574 H1580 0.984 . S
N1574 H1581 0.984 . S
N1575 C1568 1.356 . S
N1575 H1578 0.984 . S
N1575 H1579 0.985 . S
H1576 N1571 0.984 . S
H1577 N1571 0.985 . S
H1578 N1575 0.984 . S
H1579 N1575 0.985 . S
H1580 N1574 0.984 . S
H1581 N1574 0.984 . S
H1582 N1570 0.984 . S
H1583 N1570 0.985 . S
C1584 C1585 1.363 . S
C1584 C1590 1.379 . S
C1584 N1592 1.356 . S
C1585 C1584 1.363 . S
C1585 C1591 1.363 . S
C1586 C1587 1.363 . S
C1586 C1591 1.379 . S
C1586 N1593 1.356 . S
C1587 C1586 1.363 . S
C1587 C1590 1.363 . S
N1588 C1590 1.356 . S
N1588 H1600 0.984 . S
N1588 H1601 0.985 . S
N1589 C1591 1.356 . S
N1589 H1594 0.984 . S
N1589 H1595 0.985 . S
C1590 C1584 1.379 . S
C1590 C1587 1.363 . S
C1590 N1588 1.356 . S
C1591 C1585 1.363 . S
C1591 C1586 1.379 . S
C1591 N1589 1.356 . S
N1592 C1584 1.356 . S
N1592 H1598 0.984 . S
N1592 H1599 0.984 . S
N1593 C1586 1.356 . S
N1593 H1596 0.984 . S
N1593 H1597 0.985 . S
H1594 N1589 0.984 . S
H1595 N1589 0.985 . S
H1596 N1593 0.984 . S
H1597 N1593 0.985 . S
H1598 N1592 0.984 . S
H1599 N1592 0.984 . S
H1600 N1588 0.984 . S
H1601 N1588 0.985 . S
C1602 C1603 1.363 . S
C1602 C1608 1.379 . S
C1602 N1610 1.356 . S
C1603 C1602 1.363 . S
C1603 C1609 1.378 . S
C1604 C1605 1.363 1_455 S
C1604 C1609 1.373 1_455 S
C1604 N1611 1.356 . S
C1605 C1604 1.363 1_655 S
C1605 C1608 1.363 . S
N1606 C1608 1.356 . S
N1606 H1618 0.984 . S
N1606 H1619 0.985 . S
N1607 C1609 1.352 1_455 S
N1607 H1612 0.984 1_455 S
N1607 H1613 0.985 . S
C1608 C1602 1.379 . S
C1608 C1605 1.363 . S
C1608 N1606 1.356 . S
C1609 C1603 1.378 . S
C1609 C1604 1.373 1_655 S
C1609 N1607 1.352 1_655 S
N1610 C1602 1.356 . S
N1610 H1616 0.984 . S
N1610 H1617 0.984 . S
N1611 C1604 1.356 . S
N1611 H1614 0.984 . S
N1611 H1615 0.985 . S
H1612 N1607 0.984 1_655 S
H1613 N1607 0.985 . S
H1614 N1611 0.984 . S
H1615 N1611 0.985 . S
H1616 N1610 0.984 . S
H1617 N1610 0.984 . S
H1618 N1606 0.984 . S
H1619 N1606 0.985 . S
C1620 C1621 1.363 . S
C1620 C1626 1.379 . S
C1620 N1628 1.356 . S
C1621 C1620 1.363 . S
C1621 C1627 1.363 . S
C1622 C1623 1.363 . S
C1622 C1627 1.379 . S
C1622 N1629 1.356 . S
C1623 C1622 1.363 . S
C1623 C1626 1.363 . S
N1624 C1626 1.356 . S
N1624 H1636 0.984 . S
N1624 H1637 0.985 . S
N1625 C1627 1.356 . S
N1625 H1630 0.984 . S
N1625 H1631 0.985 . S
C1626 C1620 1.379 . S
C1626 C1623 1.363 . S
C1626 N1624 1.356 . S
C1627 C1621 1.363 . S
C1627 C1622 1.379 . S
C1627 N1625 1.356 . S
N1628 C1620 1.356 . S
N1628 H1634 0.984 . S
N1628 H1635 0.984 . S
N1629 C1622 1.356 . S
N1629 H1632 0.984 . S
N1629 H1633 0.985 . S
H1630 N1625 0.984 . S
H1631 N1625 0.985 . S
H1632 N1629 0.984 . S
H1633 N1629 0.985 . S
H1634 N1628 0.984 . S
H1635 N1628 0.984 . S
H1636 N1624 0.984 . S
H1637 N1624 0.985 . S
C1638 C1639 1.363 . S
C1638 C1644 1.379 . S
C1638 N1646 1.356 . S
C1639 C1638 1.363 . S
C1639 C1645 1.363 . S
C1640 C1641 1.363 . S
C1640 C1645 1.379 . S
C1640 N1647 1.356 . S
C1641 C1640 1.363 . S
C1641 C1644 1.363 . S
N1642 C1644 1.356 1_655 S
N1642 H1654 0.984 . S
N1642 H1655 0.985 . S
N1643 C1645 1.356 . S
N1643 H1648 0.984 . S
N1643 H1649 0.985 . S
C1644 C1638 1.379 . S
C1644 C1641 1.363 . S
C1644 N1642 1.356 1_455 S
C1645 C1639 1.363 . S
C1645 C1640 1.379 . S
C1645 N1643 1.356 . S
N1646 C1638 1.356 . S
N1646 H1652 0.986 1_455 S
N1646 H1653 0.983 . S
N1647 C1640 1.356 . S
N1647 H1650 0.984 . S
N1647 H1651 0.985 . S
H1648 N1643 0.984 . S
H1649 N1643 0.985 . S
H1650 N1647 0.984 . S
H1651 N1647 0.985 . S
H1652 N1646 0.986 1_655 S
H1653 N1646 0.983 . S
H1654 N1642 0.984 . S
H1655 N1642 0.985 . S
C1656 C1657 1.363 . S
C1656 C1662 1.379 . S
C1656 N1664 1.356 . S
C1657 C1656 1.363 . S
C1657 C1663 1.363 . S
C1658 C1659 1.363 . S
C1658 C1663 1.379 . S
C1658 N1665 1.356 . S
C1659 C1658 1.363 . S
C1659 C1662 1.363 . S
N1660 C1662 1.356 . S
N1660 H1672 0.984 . S
N1660 H1673 0.985 . S
N1661 C1663 1.356 . S
N1661 H1666 0.984 . S
N1661 H1667 0.985 . S
C1662 C1656 1.379 . S
C1662 C1659 1.363 . S
C1662 N1660 1.356 . S
C1663 C1657 1.363 . S
C1663 C1658 1.379 . S
C1663 N1661 1.356 . S
N1664 C1656 1.356 . S
N1664 H1670 0.984 . S
N1664 H1671 0.984 . S
N1665 C1658 1.356 . S
N1665 H1668 0.984 . S
N1665 H1669 0.985 . S
H1666 N1661 0.984 . S
H1667 N1661 0.985 . S
H1668 N1665 0.984 . S
H1669 N1665 0.985 . S
H1670 N1664 0.984 . S
H1671 N1664 0.984 . S
H1672 N1660 0.984 . S
H1673 N1660 0.985 . S
C1674 C1675 1.363 . S
C1674 C1680 1.379 . S
C1674 N1682 1.356 . S
C1675 C1674 1.363 . S
C1675 C1681 1.363 . S
C1676 C1677 1.363 . S
C1676 C1681 1.379 . S
C1676 N1683 1.356 . S
C1677 C1676 1.363 . S
C1677 C1680 1.363 . S
N1678 C1680 1.356 . S
N1678 H1690 0.984 . S
N1678 H1691 0.985 . S
N1679 C1681 1.356 . S
N1679 H1684 0.984 . S
N1679 H1685 0.985 . S
C1680 C1674 1.379 . S
C1680 C1677 1.363 . S
C1680 N1678 1.356 . S
C1681 C1675 1.363 . S
C1681 C1676 1.379 . S
C1681 N1679 1.356 . S
N1682 C1674 1.356 . S
N1682 H1688 0.984 . S
N1682 H1689 0.984 . S
N1683 C1676 1.356 . S
N1683 H1686 0.984 . S
N1683 H1687 0.985 . S
H1684 N1679 0.984 . S
H1685 N1679 0.985 . S
H1686 N1683 0.984 . S
H1687 N1683 0.985 . S
H1688 N1682 0.984 . S
H1689 N1682 0.984 . S
H1690 N1678 0.984 . S
H1691 N1678 0.985 . S
C1692 C1693 1.363 . S
C1692 C1698 1.379 . S
C1692 N1700 1.356 . S
C1693 C1692 1.363 . S
C1693 C1699 1.363 . S
C1694 C1695 1.363 . S
C1694 C1699 1.379 . S
C1694 N1701 1.356 . S
C1695 C1694 1.363 . S
C1695 C1698 1.363 . S
N1696 C1698 1.356 . S
N1696 H1708 0.984 . S
N1696 H1709 0.985 . S
N1697 C1699 1.356 . S
N1697 H1702 0.984 . S
N1697 H1703 0.985 . S
C1698 C1692 1.379 . S
C1698 C1695 1.363 . S
C1698 N1696 1.356 . S
C1699 C1693 1.363 . S
C1699 C1694 1.379 . S
C1699 N1697 1.356 . S
N1700 C1692 1.356 . S
N1700 H1706 0.984 . S
N1700 H1707 0.984 . S
N1701 C1694 1.356 . S
N1701 H1704 0.984 . S
N1701 H1705 0.985 . S
H1702 N1697 0.984 . S
H1703 N1697 0.985 . S
H1704 N1701 0.984 . S
H1705 N1701 0.985 . S
H1706 N1700 0.984 . S
H1707 N1700 0.984 . S
H1708 N1696 0.984 . S
H1709 N1696 0.985 . S
C1710 C1711 1.363 . S
C1710 C1716 1.379 . S
C1710 N1718 1.356 . S
C1711 C1710 1.363 . S
C1711 C1717 1.363 . S
C1712 C1713 1.363 . S
C1712 C1717 1.379 . S
C1712 N1719 1.356 . S
C1713 C1712 1.363 . S
C1713 C1716 1.363 . S
N1714 C1716 1.356 . S
N1714 H1726 0.984 . S
N1714 H1727 0.985 . S
N1715 C1717 1.356 . S
N1715 H1720 0.984 . S
N1715 H1721 0.985 . S
C1716 C1710 1.379 . S
C1716 C1713 1.363 . S
C1716 N1714 1.356 . S
C1717 C1711 1.363 . S
C1717 C1712 1.379 . S
C1717 N1715 1.356 . S
N1718 C1710 1.356 . S
N1718 H1724 0.984 . S
N1718 H1725 0.984 . S
N1719 C1712 1.356 . S
N1719 H1722 0.984 . S
N1719 H1723 0.985 . S
H1720 N1715 0.984 . S
H1721 N1715 0.985 . S
H1722 N1719 0.984 . S
H1723 N1719 0.985 . S
H1724 N1718 0.984 . S
H1725 N1718 0.984 . S
H1726 N1714 0.984 . S
H1727 N1714 0.985 . S
C1728 C1729 1.363 . S
C1728 C1734 1.379 . S
C1728 N1736 1.356 . S
C1729 C1728 1.363 . S
C1729 C1735 1.363 . S
C1730 C1731 1.363 . S
C1730 C1735 1.379 . S
C1730 N1737 1.356 . S
C1731 C1730 1.363 . S
C1731 C1734 1.363 . S
N1732 C1734 1.356 . S
N1732 H1744 0.984 . S
N1732 H1745 0.985 . S
N1733 C1735 1.356 . S
N1733 H1738 0.984 . S
N1733 H1739 0.985 . S
C1734 C1728 1.379 . S
C1734 C1731 1.363 . S
C1734 N1732 1.356 . S
C1735 C1729 1.363 . S
C1735 C1730 1.379 . S
C1735 N1733 1.356 . S
N1736 C1728 1.356 . S
N1736 H1742 0.984 . S
N1736 H1743 0.984 . S
N1737 C1730 1.356 . S
N1737 H1740 0.984 . S
N1737 H1741 0.985 . S
H1738 N1733 0.984 . S
H1739 N1733 0.985 . S
H1740 N1737 0.984 . S
H1741 N1737 0.985 . S
H1742 N1736 0.984 . S
H1743 N1736 0.984 . S
H1744 N1732 0.984 . S
H1745 N1732 0.985 . S
C1746 C1747 1.363 . S
C1746 C1752 1.379 . S
C1746 N1754 1.356 . S
C1747 C1746 1.363 . S
C1747 C1753 1.363 . S
C1748 C1749 1.363 . S
C1748 C1753 1.379 . S
C1748 N1755 1.356 . S
C1749 C1748 1.363 . S
C1749 C1752 1.363 . S
N1750 C1752 1.356 . S
N1750 H1762 0.984 . S
N1750 H1763 0.985 . S
N1751 C1753 1.356 . S
N1751 H1756 0.984 . S
N1751 H1757 0.985 . S
C1752 C1746 1.379 . S
C1752 C1749 1.363 . S
C1752 N1750 1.356 . S
C1753 C1747 1.363 . S
C1753 C1748 1.379 . S
C1753 N1751 1.356 . S
N1754 C1746 1.356 . S
N1754 H1760 0.984 . S
N1754 H1761 0.984 . S
N1755 C1748 1.356 . S
N1755 H1758 0.984 . S
N1755 H1759 0.985 . S
H1756 N1751 0.984 . S
H1757 N1751 0.985 . S
H1758 N1755 0.984 . S
H1759 N1755 0.985 . S
H1760 N1754 0.984 . S
H1761 N1754 0.984 . S
H1762 N1750 0.984 . S
H1763 N1750 0.985 . S
C1764 C1765 1.363 . S
C1764 C1770 1.379 . S
C1764 N1772 1.356 . S
C1765 C1764 1.363 . S
C1765 C1771 1.363 . S
C1766 C1767 1.363 . S
C1766 C1771 1.379 . S
C1766 N1773 1.356 . S
C1767 C1766 1.363 . S
C1767 C1770 1.363 . S
N1768 C1770 1.356 . S
N1768 H1780 0.984 . S
N1768 H1781 0.985 . S
N1769 C1771 1.356 . S
N1769 H1774 0.984 . S
N1769 H1775 0.985 . S
C1770 C1764 1.379 . S
C1770 C1767 1.363 . S
C1770 N1768 1.356 . S
C1771 C1765 1.363 . S
C1771 C1766 1.379 . S
C1771 N1769 1.356 . S
N1772 C1764 1.356 . S
N1772 H1778 0.984 . S
N1772 H1779 0.984 . S
N1773 C1766 1.356 . S
N1773 H1776 0.984 . S
N1773 H1777 0.985 . S
H1774 N1769 0.984 . S
H1775 N1769 0.985 . S
H1776 N1773 0.984 . S
H1777 N1773 0.985 . S
H1778 N1772 0.984 . S
H1779 N1772 0.984 . S
H1780 N1768 0.984 . S
H1781 N1768 0.985 . S
C1782 C1783 1.363 . S
C1782 C1788 1.379 . S
C1782 N1790 1.356 . S
C1783 C1782 1.363 . S
C1783 C1789 1.363 . S
C1784 C1785 1.363 . S
C1784 C1789 1.379 . S
C1784 N1791 1.356 . S
C1785 C1784 1.363 . S
C1785 C1788 1.363 . S
N1786 C1788 1.356 . S
N1786 H1798 0.984 . S
N1786 H1799 0.985 . S
N1787 C1789 1.356 . S
N1787 H1792 0.984 . S
N1787 H1793 0.985 . S
C1788 C1782 1.379 . S
C1788 C1785 1.363 . S
C1788 N1786 1.356 . S
C1789 C1783 1.363 . S
C1789 C1784 1.379 . S
C1789 N1787 1.356 . S
N1790 C1782 1.356 . S
N1790 H1796 0.984 . S
N1790 H1797 0.984 . S
N1791 C1784 1.356 . S
N1791 H1794 0.984 . S
N1791 H1795 0.985 . S
H1792 N1787 0.984 . S
H1793 N1787 0.985 . S
H1794 N1791 0.984 . S
H1795 N1791 0.985 . S
H1796 N1790 0.984 . S
H1797 N1790 0.984 . S
H1798 N1786 0.984 . S
H1799 N1786 0.985 . S
C1800 C1801 1.363 1_554 S
C1800 C1806 1.379 . S
C1800 N1808 1.356 . S
C1801 C1800 1.363 1_556 S
C1801 C1807 1.363 . S
C1802 C1803 1.363 . S
C1802 C1807 1.379 . S
C1802 N1809 1.356 . S
C1803 C1802 1.363 . S
C1803 C1806 1.363 1_556 S
N1804 C1806 1.356 . S
N1804 H1816 0.984 . S
N1804 H1817 0.985 . S
N1805 C1807 1.356 . S
N1805 H1810 0.984 . S
N1805 H1811 0.985 . S
C1806 C1800 1.379 . S
C1806 C1803 1.363 1_554 S
C1806 N1804 1.356 . S
C1807 C1801 1.363 . S
C1807 C1802 1.379 . S
C1807 N1805 1.356 . S
N1808 C1800 1.356 . S
N1808 H1814 0.984 . S
N1808 H1815 0.984 . S
N1809 C1802 1.356 . S
N1809 H1812 0.984 . S
N1809 H1813 0.985 . S
H1810 N1805 0.984 . S
H1811 N1805 0.985 . S
H1812 N1809 0.984 . S
H1813 N1809 0.985 . S
H1814 N1808 0.984 . S
H1815 N1808 0.984 . S
H1816 N1804 0.984 . S
H1817 N1804 0.985 . S
C1818 C1819 1.363 . S
C1818 C1824 1.379 . S
C1818 N1826 1.356 . S
C1819 C1818 1.363 . S
C1819 C1825 1.363 . S
C1820 C1821 1.363 . S
C1820 C1825 1.379 . S
C1820 N1827 1.356 . S
C1821 C1820 1.363 . S
C1821 C1824 1.363 . S
N1822 C1824 1.356 . S
N1822 H1834 0.984 . S
N1822 H1835 0.985 . S
N1823 C1825 1.356 . S
N1823 H1828 0.984 . S
N1823 H1829 0.985 . S
C1824 C1818 1.379 . S
C1824 C1821 1.363 . S
C1824 N1822 1.356 . S
C1825 C1819 1.363 . S
C1825 C1820 1.379 . S
C1825 N1823 1.356 . S
N1826 C1818 1.356 . S
N1826 H1832 0.984 . S
N1826 H1833 0.984 . S
N1827 C1820 1.356 . S
N1827 H1830 0.984 . S
N1827 H1831 0.985 . S
H1828 N1823 0.984 . S
H1829 N1823 0.985 . S
H1830 N1827 0.984 . S
H1831 N1827 0.985 . S
H1832 N1826 0.984 . S
H1833 N1826 0.984 . S
H1834 N1822 0.984 . S
H1835 N1822 0.985 . S
C1836 C1837 1.363 1_556 S
C1836 C1842 1.379 . S
C1836 N1844 1.356 . S
C1837 C1836 1.363 1_554 S
C1837 C1843 1.363 . S
C1838 C1839 1.363 . S
C1838 C1843 1.379 . S
C1838 N1845 1.356 . S
C1839 C1838 1.363 . S
C1839 C1842 1.363 1_554 S
N1840 C1842 1.356 . S
N1840 H1852 0.984 . S
N1840 H1853 0.985 . S
N1841 C1843 1.356 . S
N1841 H1846 0.984 . S
N1841 H1847 0.985 . S
C1842 C1836 1.379 . S
C1842 C1839 1.363 1_556 S
C1842 N1840 1.356 . S
C1843 C1837 1.363 . S
C1843 C1838 1.379 . S
C1843 N1841 1.356 . S
N1844 C1836 1.356 . S
N1844 H1850 0.984 . S
N1844 H1851 0.984 . S
N1845 C1838 1.356 . S
N1845 H1848 0.984 . S
N1845 H1849 0.985 . S
H1846 N1841 0.984 . S
H1847 N1841 0.985 . S
H1848 N1845 0.984 . S
H1849 N1845 0.985 . S
H1850 N1844 0.984 . S
H1851 N1844 0.984 . S
H1852 N1840 0.984 . S
H1853 N1840 0.985 . S
C1854 C1855 1.363 . S
C1854 C1860 1.379 . S
C1854 N1862 1.356 . S
C1855 C1854 1.363 . S
C1855 C1861 1.363 1_554 S
C1856 C1857 1.363 1_556 S
C1856 C1861 1.379 . S
C1856 N1863 1.356 . S
C1857 C1856 1.363 1_554 S
C1857 C1860 1.363 . S
N1858 C1860 1.356 . S
N1858 H1870 0.984 . S
N1858 H1871 0.985 . S
N1859 C1861 1.356 . S
N1859 H1864 0.984 . S
N1859 H1865 0.985 . S
C1860 C1854 1.379 . S
C1860 C1857 1.363 . S
C1860 N1858 1.356 . S
C1861 C1855 1.363 1_556 S
C1861 C1856 1.379 . S
C1861 N1859 1.356 . S
N1862 C1854 1.356 . S
N1862 H1868 0.984 . S
N1862 H1869 0.984 . S
N1863 C1856 1.356 . S
N1863 H1866 0.984 . S
N1863 H1867 0.985 . S
H1864 N1859 0.984 . S
H1865 N1859 0.985 . S
H1866 N1863 0.984 . S
H1867 N1863 0.985 . S
H1868 N1862 0.984 . S
H1869 N1862 0.984 . S
H1870 N1858 0.984 . S
H1871 N1858 0.985 . S
C1011 C578 1.474 . S
C1009 C181 1.496 . S
C1029 C626 1.604 . S
C1027 C247 1.651 . S
C1045 C283 1.480 . S
C1047 C662 1.412 . S
C1065 C698 1.554 . S
C1063 C169 1.589 . S
C1083 C724 1.512 . S
C1081 C361 1.521 . S
C1101 C760 1.565 . S
C1099 C433 1.557 . S
C1117 C421 1.530 . S
C1119 C795 1.535 . S
C1137 C832 1.592 1_565 S
C1135 C355 1.602 . S
C1153 C427 1.504 . S
C1155 C866 1.480 . S
C1173 C914 1.542 . S
C1171 C325 1.588 . S
C1189 C385 1.499 . S
C1191 C867 1.507 . S
C1209 C904 1.598 . S
C1207 C463 1.585 . S
C1225 C253 1.513 . S
C1227 C950 1.443 . S
C1243 C145 1.598 . S
C1245 C939 1.599 . S
C1261 C205 1.526 . S
C1263 C940 1.510 . S
C1279 C217 1.622 . S
C1281 C938 1.618 . S
C1297 C139 1.531 . S
C1299 C686 1.500 . S
C1315 C535 1.490 . S
C1317 C687 1.496 . S
C1335 C590 1.564 . S
C1333 C565 1.612 . S
C1353 C615 1.501 . S
C1351 C313 1.497 . S
C1369 C175 1.610 . S
C1371 C722 1.615 . S
C1389 C830 1.500 . S
C1387 C397 1.522 . S
C1407 C723 1.571 . S
C1405 C349 1.580 . S
C1425 C796 1.600 . S
C1423 C457 1.590 . S
C1443 C794 1.474 . S
C1441 C505 1.496 . S
C1459 C571 1.651 . S
C1461 C842 1.604 . S
C1477 C319 1.480 . S
C1479 C734 1.412 . S
C1497 C770 1.553 . S
C1495 C493 1.589 . S
C1513 C109 1.521 . S
C1515 C652 1.512 . S
C1533 C688 1.565 . S
C1531 C1 1.557 . S
C1551 C579 1.535 . S
C1549 C61 1.530 . S
C1569 C616 1.596 . S
C1567 C103 1.601 . S
C1585 C67 1.504 . S
C1587 C902 1.480 . S
C1603 C73 1.588 . S
C1605 C878 1.542 . S
C1621 C133 1.499 . S
C1623 C903 1.507 . S
C1639 C31 1.585 . S
C1641 C868 1.598 . S
C1659 C986 1.443 . S
C1657 C289 1.512 . S
C1677 C975 1.599 . S
C1675 C469 1.598 . S
C1695 C976 1.510 . S
C1693 C529 1.526 . S
C1711 C541 1.622 . S
C1713 C974 1.614 . S
C1729 C391 1.531 . S
C1731 C758 1.500 . S
C1749 C759 1.496 . S
C1747 C211 1.490 . S
C1767 C806 1.563 . S
C1765 C241 1.612 . S
C1785 C831 1.501 . S
C1783 C277 1.501 . S
C1801 C499 1.610 . S
C1803 C650 1.617 . S
C1821 C614 1.500 . S
C1819 C37 1.525 . S
C1837 C97 1.580 . S
C1839 C651 1.571 . S
C1857 C580 1.600 . S
C1855 C25 1.590 . S
