# Generated by pormake.
# Topology tsx, (6,3)-cn, num edge types: 1
# Building blocks:
#     Node 0, Type 0, BuildingBlock: LEVNOQ01_clean_sbu_1, # of connection points: 6
#     Node 1, Type 0, BuildingBlock: LEVNOQ01_clean_sbu_1, # of connection points: 6
#     Node 2, Type 1, BuildingBlock: ESEHIV_clean_linker_0, # of connection points: 3
#     Node 3, Type 1, BuildingBlock: ESEHIV_clean_linker_0, # of connection points: 3
#     Node 4, Type 1, BuildingBlock: ESEHIV_clean_linker_0, # of connection points: 3
#     Node 5, Type 1, BuildingBlock: ESEHIV_clean_linker_0, # of connection points: 3
#     Edge 6, Type (0, 1), BuildingBlock: KIFKEQ_clean_linker_1, # of connection points: 2
#     Edge 7, Type (0, 1), BuildingBlock: KIFKEQ_clean_linker_1, # of connection points: 2
#     Edge 8, Type (0, 1), BuildingBlock: KIFKEQ_clean_linker_1, # of connection points: 2
#     Edge 9, Type (0, 1), BuildingBlock: KIFKEQ_clean_linker_1, # of connection points: 2
#     Edge 10, Type (0, 1), BuildingBlock: KIFKEQ_clean_linker_1, # of connection points: 2
#     Edge 11, Type (0, 1), BuildingBlock: KIFKEQ_clean_linker_1, # of connection points: 2
#     Edge 12, Type (0, 1), BuildingBlock: KIFKEQ_clean_linker_1, # of connection points: 2
#     Edge 13, Type (0, 1), BuildingBlock: KIFKEQ_clean_linker_1, # of connection points: 2
#     Edge 14, Type (0, 1), BuildingBlock: KIFKEQ_clean_linker_1, # of connection points: 2
#     Edge 15, Type (0, 1), BuildingBlock: KIFKEQ_clean_linker_1, # of connection points: 2
#     Edge 16, Type (0, 1), BuildingBlock: KIFKEQ_clean_linker_1, # of connection points: 2
#     Edge 17, Type (0, 1), BuildingBlock: KIFKEQ_clean_linker_1, # of connection points: 2
# Relax obj value: 0.131
# Max RMSD: 0.158
# Mean RMSD: 0.120
data_MOF--net-tsx--node1-LEVNOQ01_clean_sbu_1--node2-ESEHIV_clean_linker_0--edge1-KIFKEQ_clean_linker_1
_symmetry_space_group_name_H-M    P1
_symmetry_Int_Tables_number       1
_symmetry_cell_setting            triclinic
loop_
_symmetry_equiv_pos_as_xyz
'x, y, z'
_cell_length_a     17.342269
_cell_length_b     21.4509
_cell_length_c     35.66828
_cell_angle_alpha  97.711115
_cell_angle_beta   91.370629
_cell_angle_gamma 91.052992
loop_
_atom_site_label
_atom_site_type_symbol
_atom_site_fract_x
_atom_site_fract_y
_atom_site_fract_z
_atom_type_partial_charge
O0 O 0.1634 0.0593 0.08882 0.0
Mg1 Mg 0.22087 0.0504 0.0371 0.0
O2 O 0.05079 0.025 0.06222 0.0
Mg3 Mg 0.05839 0.02164 -0.0039 0.0
O4 O 0.1587 0.09461 -0.00038 0.0
O5 O 0.27683 0.12687 0.02069 0.0
O6 O 0.06917 0.01722 0.93028 0.0
O7 O 0.98504 0.11496 0.00081 0.0
Mg8 Mg 0.91198 0.00967 0.96519 0.0
O9 O 0.95859 0.94245 -0.00622 0.0
O10 O 0.94802 0.01562 0.91026 0.0
O11 O 0.86299 0.08642 -0.00281 0.0
O12 O 0.84332 0.9337 0.96261 0.0
C13 C 0.20509 0.91804 -0.00051 0.0
C14 C 0.09371 0.04186 0.09165 0.0
C15 C 0.21492 0.1358 0.00152 0.0
C16 C 0.01908 0.01597 0.90345 0.0
C17 C 0.91415 0.129 0.00422 0.0
C18 C 0.89438 0.91125 0.98365 0.0
O19 O 0.2525 0.95881 0.01607 0.0
O20 O 0.13621 0.93249 0.99119 0.0
O21 O 0.70596 0.5312 0.57571 0.0
Mg22 Mg 0.74901 0.53827 0.5206 0.0
O23 O 0.57975 0.52875 0.562 0.0
Mg24 Mg 0.56645 0.52537 0.49672 0.0
O25 O 0.67137 0.58884 0.4953 0.0
O26 O 0.79255 0.62166 0.50437 0.0
O27 O 0.55718 0.52107 0.43152 0.0
O28 O 0.50988 0.62859 0.50361 0.0
Mg29 Mg 0.42859 0.53782 0.48667 0.0
O30 O 0.45806 0.45278 0.50125 0.0
O31 O 0.43849 0.55428 0.42962 0.0
O32 O 0.40201 0.61088 0.52975 0.0
O33 O 0.3381 0.48008 0.48522 0.0
C34 C 0.7049 0.41288 0.47994 0.0
C35 C 0.63611 0.52838 0.58577 0.0
C36 C 0.72341 0.63172 0.49294 0.0
C37 C 0.49994 0.53845 0.41286 0.0
C38 C 0.44962 0.65011 0.52013 0.0
C39 C 0.38417 0.4401 0.49695 0.0
O40 O 0.75985 0.45302 0.48565 0.0
O41 O 0.63487 0.42845 0.48661 0.0
H42 H 0.93211 0.02777 0.36621 0.0
H43 H 0.12434 0.90451 0.36246 0.0
H44 H 0.03999 -0.01058 0.46967 0.0
C45 C 0.97349 0.00137 0.38065 0.0
C46 C 0.97834 0.01098 0.42023 0.0
C47 C 0.02672 0.96389 0.35964 0.0
C48 C 0.08263 0.93269 0.37887 0.0
C49 C 0.08726 0.93977 0.41878 0.0
C50 C 0.03564 0.9807 0.43921 0.0
H51 H 0.92823 0.9779 0.61897 0.0
H52 H 0.12433 0.10505 0.62669 0.0
H53 H 0.99963 0.05743 0.52072 0.0
C54 C 0.96663 0.00862 0.60591 0.0
C55 C 0.95669 0.01416 0.56733 0.0
C56 C 0.02719 0.04133 0.62742 0.0
C57 C 0.07768 0.07968 0.61009 0.0
C58 C 0.06852 0.08551 0.57155 0.0
C59 C 0.00734 0.05307 0.55041 0.0
H60 H 0.45542 0.54669 0.86228 0.0
H61 H 0.64784 0.42421 0.86795 0.0
H62 H 0.53571 0.49942 0.96969 0.0
C63 C 0.49321 0.52004 0.87852 0.0
C64 C 0.48795 0.52662 0.91803 0.0
C65 C 0.55138 0.48391 0.86023 0.0
C66 C 0.60284 0.45246 0.88181 0.0
C67 C 0.59623 0.45695 0.9212 0.0
C68 C 0.53901 0.49428 0.93921 0.0
H69 H 0.396 0.49666 0.11816 0.0
H70 H 0.59381 0.62143 0.13702 0.0
H71 H 0.50454 0.56438 0.0239 0.0
C72 C 0.43908 0.52629 0.10726 0.0
C73 C 0.44319 0.52732 0.06806 0.0
C74 C 0.49414 0.55941 0.13215 0.0
C75 C 0.55127 0.5959 0.11776 0.0
C76 C 0.55511 0.59866 0.07878 0.0
C77 C 0.50135 0.56353 0.05401 0.0
H78 H 0.13173 0.23112 0.03449 0.0
H79 H 0.28597 0.18063 0.94312 0.0
H80 H 0.17255 0.34016 0.03802 0.0
H81 H 0.32254 0.29109 0.94377 0.0
H82 H 0.48832 0.43215 0.01664 0.0
H83 H 0.4094 0.34644 0.98437 0.0
H84 H 0.20412 0.43969 0.02785 0.0
H85 H 0.28552 0.52393 0.06205 0.0
C86 C 0.17052 0.24425 0.01334 0.0
C87 C 0.20646 0.19769 0.98889 0.0
C88 C 0.19458 0.30721 0.01537 0.0
C89 C 0.25405 0.32481 -0.00768 0.0
C90 C 0.2796 0.27919 0.96332 0.0
C91 C 0.25737 0.2159 0.96222 0.0
C92 C 0.42617 0.43503 0.01828 0.0
C93 C 0.39293 0.48405 0.04197 0.0
C94 C 0.38024 0.38586 -0.00046 0.0
C95 C 0.29949 0.3848 0.00374 0.0
C96 C 0.26595 0.43745 0.0247 0.0
C97 C 0.31234 0.48608 0.04411 0.0
H98 H 0.29583 0.85835 0.04489 0.0
H99 H 0.1719 0.83049 0.93741 0.0
H100 H 0.35218 0.75531 0.03102 0.0
H101 H 0.23199 0.72802 0.92218 0.0
H102 H 0.33181 0.53395 0.90851 0.0
H103 H 0.25072 0.62195 0.93279 0.0
H104 H 0.45039 0.7159 -0.00823 0.0
H105 H 0.52935 0.6275 0.96853 0.0
C106 C 0.2807 0.82986 0.0182 0.0
C107 C 0.2307 0.85258 -0.00811 0.0
C108 C 0.31328 0.77091 0.01014 0.0
C109 C 0.29824 0.73377 0.97511 0.0
C110 C 0.24467 0.75512 0.94955 0.0
C111 C 0.21054 0.81391 0.95807 0.0
C112 C 0.35733 0.57307 0.92738 0.0
C113 C 0.43631 0.57409 0.937 0.0
C114 C 0.3113 0.62362 0.94101 0.0
C115 C 0.34384 0.67635 0.96411 0.0
C116 C 0.42261 0.67583 0.97469 0.0
C117 C 0.46818 0.62521 0.96135 0.0
H118 H 0.83045 0.80864 0.94192 0.0
H119 H 0.91187 0.87976 0.05507 0.0
H120 H 0.76108 0.72332 0.96576 0.0
H121 H 0.8427 0.79342 0.07933 0.0
H122 H 0.60008 0.71835 0.10655 0.0
H123 H 0.70301 0.78191 0.08477 0.0
H124 H 0.75329 0.62989 -0.00296 0.0
H125 H 0.64914 0.5662 0.01884 0.0
C126 C 0.83565 0.80446 0.97182 0.0
C127 C 0.87555 0.85088 -0.0032 0.0
C128 C 0.79606 0.75546 0.9855 0.0
C129 C 0.79496 0.75235 0.02454 0.0
C130 C 0.84132 0.79537 0.04914 0.0
C131 C 0.88169 0.84428 0.0353 0.0
C132 C 0.6337 0.69823 0.08288 0.0
C133 C 0.6167 0.63733 0.06445 0.0
C134 C 0.69322 0.73442 0.0706 0.0
C135 C 0.73735 0.71063 0.03957 0.0
C136 C 0.72039 0.64957 0.02106 0.0
C137 C 0.6605 0.61329 0.03334 0.0
H138 H 0.96532 0.21891 0.9638 0.0
H139 H 0.80322 0.18415 0.04874 0.0
H140 H 0.8935 0.31023 0.95104 0.0
H141 H 0.73431 0.27867 0.03862 0.0
H142 H 0.55965 0.36458 0.9628 0.0
H143 H 0.64761 0.29817 -0.00737 0.0
H144 H 0.84139 0.40839 0.96092 0.0
H145 H 0.75209 0.47199 0.92895 0.0
C146 C 0.91652 0.23296 0.98115 0.0
C147 C 0.88923 0.19452 0.00701 0.0
C148 C 0.87494 0.28548 0.97387 0.0
C149 C 0.80629 0.30129 -0.00698 0.0
C150 C 0.78493 0.26676 0.0222 0.0
C151 C 0.82513 0.21322 0.02859 0.0
C152 C 0.62107 0.37484 0.96278 0.0
C153 C 0.64953 0.4226 0.94342 0.0
C154 C 0.67187 0.33721 0.9802 0.0
C155 C 0.75241 0.34737 0.97927 0.0
C156 C 0.78019 0.39796 0.9616 0.0
C157 C 0.72924 0.43471 0.94347 0.0
H158 H 0.76552 0.68986 0.43329 0.0
H159 H 0.64712 0.71783 0.53875 0.0
H160 H 0.79578 0.80224 0.43912 0.0
H161 H 0.68256 0.82865 0.54671 0.0
H162 H 0.79955 0.01186 0.57369 0.0
H163 H 0.70817 0.9332 0.5409 0.0
H164 H 0.89664 0.84491 0.47788 0.0
H165 H 0.98521 0.92375 0.50983 0.0
C166 C 0.7428 0.72073 0.45682 0.0
C167 C 0.70502 0.69555 0.48584 0.0
C168 C 0.76141 0.78499 0.46066 0.0
C169 C 0.74577 0.82418 0.49447 0.0
C170 C 0.69687 0.80037 0.52045 0.0
C171 C 0.67604 0.73647 0.5159 0.0
C172 C 0.82026 0.97632 0.552 0.0
C173 C 0.89904 0.97373 0.54396 0.0
C174 C 0.76819 0.93119 0.53325 0.0
C175 C 0.79444 0.88191 0.50674 0.0
C176 C 0.87294 0.88238 0.49729 0.0
C177 C 0.92441 0.92765 0.51571 0.0
H178 H 0.64388 0.30342 0.50144 0.0
H179 H 0.8186 0.37416 0.43294 0.0
H180 H 0.70499 0.19967 0.49319 0.0
H181 H 0.8786 0.27214 0.42476 0.0
H182 H 0.02914 0.12357 0.45535 0.0
H183 H 0.95222 0.2171 0.47148 0.0
H184 H 0.74365 0.10642 0.44229 0.0
H185 H 0.82158 0.01234 0.4265 0.0
C186 C 0.69378 0.29633 0.4838 0.0
C187 C 0.72688 0.34694 0.46807 0.0
C188 C 0.72912 0.23729 0.47938 0.0
C189 C 0.79797 0.22849 0.45933 0.0
C190 C 0.82711 0.27796 0.44139 0.0
C191 C 0.79216 0.33626 0.44572 0.0
C192 C 0.96678 0.11885 0.45395 0.0
C193 C 0.93109 0.061 0.44014 0.0
C194 C 0.9227 0.17242 0.46259 0.0
C195 C 0.84192 0.16927 0.45741 0.0
C196 C 0.80569 0.11027 0.44653 0.0
C197 C 0.8501 0.05654 0.43763 0.0
H198 H 0.24749 0.4327 0.52915 0.0
H199 H 0.44032 0.31908 0.49035 0.0
H200 H 0.17753 0.34014 0.54231 0.0
H201 H 0.36818 0.22409 0.50304 0.0
H202 H 0.22631 0.09266 0.57751 0.0
H203 H 0.31099 0.17325 0.55662 0.0
H204 H 0.11444 0.25086 0.50387 0.0
H205 H 0.02997 0.17348 0.52702 0.0
C206 C 0.27483 0.38752 0.52328 0.0
C207 C 0.34877 0.38279 0.50818 0.0
C208 C 0.23438 0.33434 0.53055 0.0
C209 C 0.26627 0.27459 0.52257 0.0
C210 C 0.34197 0.26965 0.50907 0.0
C211 C 0.38325 0.32371 0.50197 0.0
C212 C 0.20164 0.12686 0.56121 0.0
C213 C 0.12153 0.12732 0.55402 0.0
C214 C 0.25017 0.17238 0.54889 0.0
C215 C 0.21918 0.21893 0.52917 0.0
C216 C 0.13984 0.21626 0.51965 0.0
C217 C 0.09148 0.17144 0.53235 0.0
H218 H 0.48333 0.71929 0.46363 0.0
H219 H 0.34574 0.71998 0.56299 0.0
H220 H 0.40157 0.79982 0.44215 0.0
H221 H 0.26532 0.80188 0.54182 0.0
H222 H 0.16691 0.97809 0.48684 0.0
H223 H 0.26734 0.92142 0.51696 0.0
H224 H 0.24813 0.76972 0.42465 0.0
H225 H 0.1447 0.82294 0.39585 0.0
C226 C 0.43814 0.73878 0.48183 0.0
C227 C 0.42073 0.71303 0.51495 0.0
C228 C 0.39094 0.78449 0.46933 0.0
C229 C 0.32684 0.80641 0.49019 0.0
C230 C 0.31456 0.78586 0.52533 0.0
C231 C 0.36076 0.73917 0.53747 0.0
C232 C 0.183 0.93226 0.47312 0.0
C233 C 0.14769 0.9058 0.43837 0.0
C234 C 0.24124 0.90028 0.49026 0.0
C235 C 0.26656 0.84206 0.4726 0.0
C236 C 0.23106 0.81539 0.43832 0.0
C237 C 0.17186 0.8463 0.42173 0.0
H238 H 0.98342 0.95979 0.11193 0.0
H239 H 0.14404 0.10834 0.1579 0.0
H240 H 0.96083 0.93524 0.17614 0.0
H241 H 0.12076 0.08468 0.22145 0.0
H242 H 0.15461 0.97571 0.3181 0.0
H243 H 0.16019 -0.00645 0.25242 0.0
H244 H 0.91195 0.97613 0.24147 0.0
H245 H 0.90635 0.95604 0.30743 0.0
C246 C 0.01224 -0.0118 0.13577 0.0
C247 C 0.06632 0.0354 0.12991 0.0
C248 C 0.99958 0.97399 0.17245 0.0
C249 C 0.04072 0.00692 0.20367 0.0
C250 C 0.09006 0.05718 0.19785 0.0
C251 C 0.10291 0.07108 0.16146 0.0
C252 C 0.10125 0.97395 0.30155 0.0
C253 C 0.02999 0.96479 0.3181 0.0
C254 C 0.10435 0.98518 0.26402 0.0
C255 C 0.03634 -0.01225 0.24207 0.0
C256 C 0.96524 0.97486 0.25779 0.0
C257 C 0.96208 0.96367 0.29554 0.0
H258 H 0.95805 0.93616 0.84569 0.0
H259 H 0.12803 0.086 0.87192 0.0
H260 H 0.97439 0.93843 0.77851 0.0
H261 H 0.14512 0.08857 0.80384 0.0
H262 H 0.04475 0.13453 0.68705 0.0
H263 H 0.06128 0.12309 0.75401 0.0
H264 H 0.05724 0.92078 0.72515 0.0
H265 H 0.03856 0.93255 0.65836 0.0
C266 C 1.0002 0.96879 0.83685 0.0
C267 C 0.04139 0.0112 0.86371 0.0
C268 C 0.01001 0.96986 0.79835 0.0
C269 C 0.06066 0.01399 0.78577 0.0
C270 C 0.10508 0.05445 0.81274 0.0
C271 C 0.09593 0.05271 0.85156 0.0
C272 C 0.04804 0.08772 0.69515 0.0
C273 C 0.03938 0.03437 0.66778 0.0
C274 C 0.05828 0.08113 0.73339 0.0
C275 C 0.06062 0.02102 0.74492 0.0
C276 C 0.05463 0.96772 0.71724 0.0
C277 C 0.04362 0.97435 0.67908 0.0
H278 H 0.5058 0.55724 0.62642 0.0
H279 H 0.73153 0.47759 0.6343 0.0
H280 H 0.48358 0.54282 0.69222 0.0
H281 H 0.70823 0.46014 0.69886 0.0
H282 H 0.68458 0.50679 0.82556 0.0
H283 H 0.70236 0.51622 0.75921 0.0
H284 H 0.4607 0.46995 0.73552 0.0
H285 H 0.4428 0.46305 0.80269 0.0
C286 C 0.55039 0.53632 0.64214 0.0
C287 C 0.62092 0.51963 0.62542 0.0
C288 C 0.53749 0.52748 0.67975 0.0
C289 C 0.59441 0.50079 0.70117 0.0
C290 C 0.66388 0.48248 0.6838 0.0
C291 C 0.67723 0.49234 0.64663 0.0
C292 C 0.63553 0.49785 0.80606 0.0
C293 C 0.56244 0.48398 0.81918 0.0
C294 C 0.64561 0.50311 0.76791 0.0
C295 C 0.58302 0.49373 0.74173 0.0
C296 C 0.50998 0.47856 0.75486 0.0
C297 C 0.49974 0.47414 0.79324 0.0
H298 H 0.62023 0.57264 0.37123 0.0
H299 H 0.38519 0.50183 0.36188 0.0
H300 H 0.61932 0.57728 0.30305 0.0
H301 H 0.38525 0.50222 0.29378 0.0
H302 H 0.37544 0.57665 0.18098 0.0
H303 H 0.37924 0.57088 0.24881 0.0
H304 H 0.61925 0.51967 0.24244 0.0
H305 H 0.61566 0.52859 0.17503 0.0
C306 C 0.56891 0.55714 0.35437 0.0
C307 C 0.50254 0.53752 0.37161 0.0
C308 C 0.56831 0.55941 0.31531 0.0
C309 C 0.50185 0.54065 0.29273 0.0
C310 C 0.43664 0.51886 0.3102 0.0
C311 C 0.43669 0.51813 0.3492 0.0
C312 C 0.42874 0.56404 0.19424 0.0
C313 C 0.49527 0.55339 0.17298 0.0
C314 C 0.43105 0.56033 0.23306 0.0
C315 C 0.49964 0.54466 0.25133 0.0
C316 C 0.56586 0.53307 0.22968 0.0
C317 C 0.56378 0.5378 0.19101 0.0
loop_
_geom_bond_atom_site_label_1
_geom_bond_atom_site_label_2
_geom_bond_distance
_geom_bond_site_symmetry_2
_ccdc_geom_bond_type
O0 Mg1 1.990 . S
O0 C14 1.253 . S
Mg1 O0 1.990 . S
Mg1 O4 2.180 . S
Mg1 O5 2.117 . S
Mg1 O19 2.030 1_545 S
O2 Mg3 2.072 1_554 S
O2 C14 1.260 . S
Mg3 O2 2.072 1_556 S
Mg3 O4 2.099 1_556 S
Mg3 O6 2.079 . S
Mg3 O7 2.072 1_456 S
Mg3 O9 2.099 1_445 S
Mg3 O20 2.079 1_545 S
O4 Mg1 2.180 . S
O4 Mg3 2.099 1_554 S
O4 C15 1.279 . S
O5 Mg1 2.117 . S
O5 C15 1.250 . S
O6 Mg3 2.079 . S
O6 C16 1.264 . S
O7 Mg3 2.072 1_654 S
O7 C17 1.260 1_554 S
Mg8 O9 2.180 1_545 S
Mg8 O10 2.030 . S
Mg8 O11 1.990 . S
Mg8 O12 2.117 1_545 S
O9 Mg3 2.099 1_665 S
O9 Mg8 2.180 1_565 S
O9 C18 1.280 . S
O10 Mg8 2.030 . S
O10 C16 1.248 1_655 S
O11 Mg8 1.990 . S
O11 C17 1.253 . S
O12 Mg8 2.117 1_565 S
O12 C18 1.251 . S
C13 O19 1.248 . S
C13 O20 1.264 1_554 S
C14 O0 1.253 . S
C14 O2 1.260 . S
C15 O4 1.279 . S
C15 O5 1.250 . S
C16 O6 1.264 . S
C16 O10 1.248 1_455 S
C17 O7 1.260 1_556 S
C17 O11 1.253 . S
C18 O9 1.280 . S
C18 O12 1.251 . S
O19 Mg1 2.030 1_565 S
O19 C13 1.248 . S
O20 Mg3 2.079 1_565 S
O20 C13 1.264 1_556 S
O21 Mg22 1.990 . S
O21 C35 1.253 . S
Mg22 O21 1.990 . S
Mg22 O25 2.180 . S
Mg22 O26 2.117 . S
Mg22 O40 2.030 . S
O23 Mg24 2.072 . S
O23 C35 1.260 . S
Mg24 O23 2.072 . S
Mg24 O25 2.099 . S
Mg24 O27 2.079 . S
Mg24 O28 2.072 . S
Mg24 O30 2.099 . S
Mg24 O41 2.079 . S
O25 Mg22 2.180 . S
O25 Mg24 2.099 . S
O25 C36 1.279 . S
O26 Mg22 2.117 . S
O26 C36 1.250 . S
O27 Mg24 2.079 . S
O27 C37 1.264 . S
O28 Mg24 2.072 . S
O28 C38 1.260 . S
Mg29 O30 2.180 . S
Mg29 O31 2.030 . S
Mg29 O32 1.990 . S
Mg29 O33 2.117 . S
O30 Mg24 2.099 . S
O30 Mg29 2.180 . S
O30 C39 1.279 . S
O31 Mg29 2.030 . S
O31 C37 1.248 . S
O32 Mg29 1.990 . S
O32 C38 1.253 . S
O33 Mg29 2.117 . S
O33 C39 1.250 . S
C34 O40 1.248 . S
C34 O41 1.264 . S
C35 O21 1.253 . S
C35 O23 1.260 . S
C36 O25 1.279 . S
C36 O26 1.250 . S
C37 O27 1.264 . S
C37 O31 1.248 . S
C38 O28 1.260 . S
C38 O32 1.253 . S
C39 O30 1.279 . S
C39 O33 1.250 . S
O40 Mg22 2.030 . S
O40 C34 1.248 . S
O41 Mg24 2.079 . S
O41 C34 1.264 . S
H42 C45 0.931 1_655 S
H43 C48 0.928 . S
H44 C50 0.930 . S
C45 H42 0.931 1_455 S
C45 C46 1.413 . S
C45 C47 1.360 1_545 S
C46 C45 1.413 . S
C46 C50 1.429 . S
C47 C45 1.360 1_565 S
C47 C48 1.372 . S
C48 H43 0.928 . S
C48 C47 1.372 . S
C48 C49 1.404 . S
C49 C48 1.404 . S
C49 C50 1.391 1_565 S
C50 H44 0.930 . S
C50 C46 1.429 . S
C50 C49 1.391 1_545 S
H51 C54 0.931 . S
H52 C57 0.928 . S
H53 C59 0.930 . S
C54 H51 0.931 . S
C54 C55 1.413 . S
C54 C56 1.360 1_655 S
C55 C54 1.413 . S
C55 C59 1.429 . S
C56 C54 1.360 1_455 S
C56 C57 1.372 . S
C57 H52 0.928 . S
C57 C56 1.372 . S
C57 C58 1.404 . S
C58 C57 1.404 . S
C58 C59 1.391 1_455 S
C59 H53 0.930 . S
C59 C55 1.429 . S
C59 C58 1.391 1_655 S
H60 C63 0.931 . S
H61 C66 0.928 . S
H62 C68 0.930 . S
C63 H60 0.931 . S
C63 C64 1.413 . S
C63 C65 1.360 . S
C64 C63 1.413 . S
C64 C68 1.429 . S
C65 C63 1.360 . S
C65 C66 1.372 . S
C66 H61 0.928 . S
C66 C65 1.372 . S
C66 C67 1.404 . S
C67 C66 1.404 . S
C67 C68 1.391 . S
C68 H62 0.930 . S
C68 C64 1.429 . S
C68 C67 1.391 . S
H69 C72 0.931 . S
H70 C75 0.928 . S
H71 C77 0.930 . S
C72 H69 0.931 . S
C72 C73 1.413 . S
C72 C74 1.360 . S
C73 C72 1.413 . S
C73 C77 1.429 . S
C74 C72 1.360 . S
C74 C75 1.372 . S
C75 H70 0.928 . S
C75 C74 1.372 . S
C75 C76 1.404 . S
C76 C75 1.404 . S
C76 C77 1.391 . S
C77 H71 0.930 . S
C77 C73 1.429 . S
C77 C76 1.391 . S
H78 C86 0.950 . S
H79 C91 0.950 . S
H80 C88 0.950 . S
H81 C90 0.950 . S
H82 C92 0.950 . S
H83 C94 0.950 1_556 S
H84 C96 0.950 . S
H85 C97 0.950 . S
C86 H78 0.950 . S
C86 C87 1.386 . S
C86 C88 1.391 . S
C87 C86 1.386 . S
C87 C91 1.393 1_554 S
C88 H80 0.950 . S
C88 C86 1.391 . S
C88 C89 1.400 . S
C89 C88 1.400 . S
C89 C90 1.398 1_554 S
C89 C95 1.491 . S
C90 H81 0.950 . S
C90 C89 1.398 1_556 S
C90 C91 1.391 . S
C91 H79 0.950 . S
C91 C87 1.393 1_556 S
C91 C90 1.391 . S
C92 H82 0.950 . S
C92 C93 1.386 . S
C92 C94 1.391 . S
C93 C92 1.386 . S
C93 C97 1.393 . S
C94 H83 0.950 1_554 S
C94 C92 1.391 . S
C94 C95 1.400 . S
C95 C89 1.491 . S
C95 C94 1.400 . S
C95 C96 1.398 . S
C96 H84 0.950 . S
C96 C95 1.398 . S
C96 C97 1.391 . S
C97 H85 0.950 . S
C97 C93 1.393 . S
C97 C96 1.391 . S
H98 C106 0.950 . S
H99 C111 0.950 . S
H100 C108 0.950 . S
H101 C110 0.950 . S
H102 C112 0.950 . S
H103 C114 0.950 . S
H104 C116 0.950 1_554 S
H105 C117 0.950 . S
C106 H98 0.950 . S
C106 C107 1.393 . S
C106 C108 1.391 . S
C107 C106 1.393 . S
C107 C111 1.384 1_554 S
C108 H100 0.950 . S
C108 C106 1.391 . S
C108 C109 1.400 1_554 S
C109 C108 1.400 1_556 S
C109 C110 1.398 . S
C109 C115 1.491 . S
C110 H101 0.950 . S
C110 C109 1.398 . S
C110 C111 1.391 . S
C111 H99 0.950 . S
C111 C107 1.384 1_556 S
C111 C110 1.391 . S
C112 H102 0.950 . S
C112 C113 1.386 . S
C112 C114 1.391 . S
C113 C112 1.386 . S
C113 C117 1.393 . S
C114 H103 0.950 . S
C114 C112 1.391 . S
C114 C115 1.400 . S
C115 C109 1.491 . S
C115 C114 1.400 . S
C115 C116 1.398 . S
C116 H104 0.950 1_556 S
C116 C115 1.398 . S
C116 C117 1.391 . S
C117 H105 0.950 . S
C117 C113 1.393 . S
C117 C116 1.391 . S
H118 C126 0.940 1_556 S
H119 C131 0.950 . S
H120 C128 0.950 1_556 S
H121 C130 0.950 . S
H122 C132 0.950 . S
H123 C134 0.950 . S
H124 C136 0.950 . S
H125 C137 0.950 . S
C126 H118 0.940 1_554 S
C126 C127 1.391 . S
C126 C128 1.396 . S
C127 C126 1.391 . S
C127 C131 1.393 . S
C128 H120 0.950 1_554 S
C128 C126 1.396 . S
C128 C129 1.400 . S
C129 C128 1.400 . S
C129 C130 1.398 . S
C129 C135 1.491 . S
C130 H121 0.950 . S
C130 C129 1.398 . S
C130 C131 1.391 . S
C131 H119 0.950 . S
C131 C127 1.393 . S
C131 C130 1.391 . S
C132 H122 0.950 . S
C132 C133 1.386 . S
C132 C134 1.391 . S
C133 C132 1.386 . S
C133 C137 1.393 . S
C134 H123 0.950 . S
C134 C132 1.391 . S
C134 C135 1.400 . S
C135 C129 1.491 . S
C135 C134 1.400 . S
C135 C136 1.398 . S
C136 H124 0.950 . S
C136 C135 1.398 . S
C136 C137 1.391 . S
C137 H125 0.950 . S
C137 C133 1.393 . S
C137 C136 1.391 . S
H138 C146 0.950 . S
H139 C151 0.950 . S
H140 C148 0.950 . S
H141 C150 0.950 . S
H142 C152 0.950 . S
H143 C154 0.950 1_554 S
H144 C156 0.950 . S
H145 C157 0.950 . S
C146 H138 0.950 . S
C146 C147 1.386 . S
C146 C148 1.391 . S
C147 C146 1.386 . S
C147 C151 1.393 1_556 S
C148 H140 0.950 . S
C148 C146 1.391 . S
C148 C149 1.400 . S
C149 C148 1.400 . S
C149 C150 1.398 1_556 S
C149 C155 1.491 . S
C150 H141 0.950 . S
C150 C149 1.398 1_554 S
C150 C151 1.391 . S
C151 H139 0.950 . S
C151 C147 1.393 1_554 S
C151 C150 1.391 . S
C152 H142 0.950 . S
C152 C153 1.386 . S
C152 C154 1.391 . S
C153 C152 1.386 . S
C153 C157 1.393 . S
C154 H143 0.950 1_556 S
C154 C152 1.391 . S
C154 C155 1.400 . S
C155 C149 1.491 . S
C155 C154 1.400 . S
C155 C156 1.398 . S
C156 H144 0.950 . S
C156 C155 1.398 . S
C156 C157 1.391 . S
C157 H145 0.950 . S
C157 C153 1.393 . S
C157 C156 1.391 . S
H158 C166 0.950 . S
H159 C171 0.950 . S
H160 C168 0.950 . S
H161 C170 0.950 . S
H162 C172 0.950 . S
H163 C174 0.950 . S
H164 C176 0.950 . S
H165 C177 0.950 . S
C166 H158 0.950 . S
C166 C167 1.386 . S
C166 C168 1.391 . S
C167 C166 1.386 . S
C167 C171 1.393 . S
C168 H160 0.950 . S
C168 C166 1.391 . S
C168 C169 1.400 . S
C169 C168 1.400 . S
C169 C170 1.398 . S
C169 C175 1.491 . S
C170 H161 0.950 . S
C170 C169 1.398 . S
C170 C171 1.391 . S
C171 H159 0.950 . S
C171 C167 1.393 . S
C171 C170 1.391 . S
C172 H162 0.950 . S
C172 C173 1.386 . S
C172 C174 1.391 . S
C173 C172 1.386 . S
C173 C177 1.393 . S
C174 H163 0.950 . S
C174 C172 1.391 . S
C174 C175 1.400 . S
C175 C169 1.491 . S
C175 C174 1.400 . S
C175 C176 1.398 . S
C176 H164 0.950 . S
C176 C175 1.398 . S
C176 C177 1.391 . S
C177 H165 0.950 . S
C177 C173 1.393 . S
C177 C176 1.391 . S
H178 C186 0.950 . S
H179 C191 0.950 . S
H180 C188 0.950 . S
H181 C190 0.950 . S
H182 C192 0.950 1_455 S
H183 C194 0.950 . S
H184 C196 0.950 . S
H185 C197 0.950 . S
C186 H178 0.950 . S
C186 C187 1.386 . S
C186 C188 1.391 . S
C187 C186 1.386 . S
C187 C191 1.393 . S
C188 H180 0.950 . S
C188 C186 1.391 . S
C188 C189 1.400 . S
C189 C188 1.400 . S
C189 C190 1.398 . S
C189 C195 1.491 . S
C190 H181 0.950 . S
C190 C189 1.398 . S
C190 C191 1.391 . S
C191 H179 0.950 . S
C191 C187 1.393 . S
C191 C190 1.391 . S
C192 H182 0.950 1_655 S
C192 C193 1.386 . S
C192 C194 1.391 . S
C193 C192 1.386 . S
C193 C197 1.393 . S
C194 H183 0.950 . S
C194 C192 1.391 . S
C194 C195 1.400 . S
C195 C189 1.491 . S
C195 C194 1.400 . S
C195 C196 1.398 . S
C196 H184 0.950 . S
C196 C195 1.398 . S
C196 C197 1.391 . S
C197 H185 0.950 . S
C197 C193 1.393 . S
C197 C196 1.391 . S
H198 C206 0.950 . S
H199 C211 0.950 . S
H200 C208 0.950 . S
H201 C210 0.950 . S
H202 C212 0.950 . S
H203 C214 0.950 . S
H204 C216 0.950 . S
H205 C217 0.950 . S
C206 H198 0.950 . S
C206 C207 1.386 . S
C206 C208 1.391 . S
C207 C206 1.386 . S
C207 C211 1.393 . S
C208 H200 0.950 . S
C208 C206 1.391 . S
C208 C209 1.400 . S
C209 C208 1.400 . S
C209 C210 1.398 . S
C209 C215 1.491 . S
C210 H201 0.950 . S
C210 C209 1.398 . S
C210 C211 1.391 . S
C211 H199 0.950 . S
C211 C207 1.393 . S
C211 C210 1.391 . S
C212 H202 0.950 . S
C212 C213 1.386 . S
C212 C214 1.391 . S
C213 C212 1.386 . S
C213 C217 1.393 . S
C214 H203 0.950 . S
C214 C212 1.391 . S
C214 C215 1.400 . S
C215 C209 1.491 . S
C215 C214 1.400 . S
C215 C216 1.398 . S
C216 H204 0.950 . S
C216 C215 1.398 . S
C216 C217 1.391 . S
C217 H205 0.950 . S
C217 C213 1.393 . S
C217 C216 1.391 . S
H218 C226 0.950 . S
H219 C231 0.950 . S
H220 C228 0.950 . S
H221 C230 0.950 . S
H222 C232 0.950 . S
H223 C234 0.950 . S
H224 C236 0.950 . S
H225 C237 0.950 . S
C226 H218 0.950 . S
C226 C227 1.386 . S
C226 C228 1.391 . S
C227 C226 1.386 . S
C227 C231 1.393 . S
C228 H220 0.950 . S
C228 C226 1.391 . S
C228 C229 1.400 . S
C229 C228 1.400 . S
C229 C230 1.398 . S
C229 C235 1.491 . S
C230 H221 0.950 . S
C230 C229 1.398 . S
C230 C231 1.391 . S
C231 H219 0.950 . S
C231 C227 1.393 . S
C231 C230 1.391 . S
C232 H222 0.950 . S
C232 C233 1.386 . S
C232 C234 1.391 . S
C233 C232 1.386 . S
C233 C237 1.393 . S
C234 H223 0.950 . S
C234 C232 1.391 . S
C234 C235 1.400 . S
C235 C229 1.491 . S
C235 C234 1.400 . S
C235 C236 1.398 . S
C236 H224 0.950 . S
C236 C235 1.398 . S
C236 C237 1.391 . S
C237 H225 0.950 . S
C237 C233 1.393 . S
C237 C236 1.391 . S
H238 C246 0.950 1_655 S
H239 C251 0.950 . S
H240 C248 0.950 1_655 S
H241 C250 0.950 . S
H242 C252 0.950 . S
H243 C254 0.950 . S
H244 C256 0.950 1_655 S
H245 C257 0.950 1_655 S
C246 H238 0.950 1_455 S
C246 C247 1.386 1_565 S
C246 C248 1.391 . S
C247 C246 1.386 1_545 S
C247 C251 1.393 . S
C248 H240 0.950 1_455 S
C248 C246 1.391 . S
C248 C249 1.400 1_565 S
C249 C248 1.400 1_545 S
C249 C250 1.398 . S
C249 C255 1.491 . S
C250 H241 0.950 . S
C250 C249 1.398 . S
C250 C251 1.391 . S
C251 H239 0.950 . S
C251 C247 1.393 . S
C251 C250 1.391 . S
C252 H242 0.950 . S
C252 C253 1.399 . S
C252 C254 1.391 . S
C253 C252 1.399 . S
C253 C257 1.383 1_545 S
C254 H243 0.950 . S
C254 C252 1.391 . S
C254 C255 1.400 . S
C255 C249 1.491 . S
C255 C254 1.400 . S
C255 C256 1.398 1_545 S
C256 H244 0.950 1_455 S
C256 C255 1.398 1_565 S
C256 C257 1.391 . S
C257 H245 0.950 1_455 S
C257 C253 1.383 1_565 S
C257 C256 1.391 . S
H258 C266 0.950 . S
H259 C271 0.950 . S
H260 C268 0.939 1_565 S
H261 C270 0.950 . S
H262 C272 0.950 . S
H263 C274 0.950 . S
H264 C276 0.950 1_565 S
H265 C277 0.950 1_565 S
C266 H258 0.950 . S
C266 C267 1.386 1_565 S
C266 C268 1.388 1_565 S
C267 C266 1.386 1_545 S
C267 C271 1.393 . S
C268 H260 0.939 1_545 S
C268 C266 1.388 1_545 S
C268 C269 1.414 . S
C269 C268 1.414 . S
C269 C270 1.398 . S
C269 C275 1.491 . S
C270 H261 0.950 . S
C270 C269 1.398 . S
C270 C271 1.391 . S
C271 H259 0.950 . S
C271 C267 1.393 . S
C271 C270 1.391 . S
C272 H262 0.950 . S
C272 C273 1.386 . S
C272 C274 1.391 . S
C273 C272 1.386 . S
C273 C277 1.393 . S
C274 H263 0.950 . S
C274 C272 1.391 . S
C274 C275 1.400 . S
C275 C269 1.491 . S
C275 C274 1.400 . S
C275 C276 1.398 . S
C276 H264 0.950 1_545 S
C276 C275 1.398 . S
C276 C277 1.391 . S
C277 H265 0.950 1_545 S
C277 C273 1.393 . S
C277 C276 1.391 . S
H278 C286 0.950 . S
H279 C291 0.950 . S
H280 C288 0.950 . S
H281 C290 0.950 . S
H282 C292 0.950 . S
H283 C294 0.950 . S
H284 C296 0.950 . S
H285 C297 0.950 . S
C286 H278 0.950 . S
C286 C287 1.386 . S
C286 C288 1.391 . S
C287 C286 1.386 . S
C287 C291 1.393 . S
C288 H280 0.950 . S
C288 C286 1.391 . S
C288 C289 1.400 . S
C289 C288 1.400 . S
C289 C290 1.398 . S
C289 C295 1.491 . S
C290 H281 0.950 . S
C290 C289 1.398 . S
C290 C291 1.391 . S
C291 H279 0.950 . S
C291 C287 1.393 . S
C291 C290 1.391 . S
C292 H282 0.950 . S
C292 C293 1.386 . S
C292 C294 1.391 . S
C293 C292 1.386 . S
C293 C297 1.393 . S
C294 H283 0.950 . S
C294 C292 1.391 . S
C294 C295 1.400 . S
C295 C289 1.491 . S
C295 C294 1.400 . S
C295 C296 1.398 . S
C296 H284 0.950 . S
C296 C295 1.398 . S
C296 C297 1.391 . S
C297 H285 0.950 . S
C297 C293 1.393 . S
C297 C296 1.391 . S
H298 C306 0.950 . S
H299 C311 0.950 . S
H300 C308 0.950 . S
H301 C310 0.950 . S
H302 C312 0.950 . S
H303 C314 0.950 . S
H304 C316 0.950 . S
H305 C317 0.950 . S
C306 H298 0.950 . S
C306 C307 1.386 . S
C306 C308 1.391 . S
C307 C306 1.386 . S
C307 C311 1.393 . S
C308 H300 0.950 . S
C308 C306 1.391 . S
C308 C309 1.400 . S
C309 C308 1.400 . S
C309 C310 1.398 . S
C309 C315 1.491 . S
C310 H301 0.950 . S
C310 C309 1.398 . S
C310 C311 1.391 . S
C311 H299 0.950 . S
C311 C307 1.393 . S
C311 C310 1.391 . S
C312 H302 0.950 . S
C312 C313 1.386 . S
C312 C314 1.391 . S
C313 C312 1.386 . S
C313 C317 1.393 . S
C314 H303 0.950 . S
C314 C312 1.391 . S
C314 C315 1.400 . S
C315 C309 1.491 . S
C315 C314 1.400 . S
C315 C316 1.398 . S
C316 H304 0.950 . S
C316 C315 1.398 . S
C316 C317 1.391 . S
C317 H305 0.950 . S
C317 C313 1.393 . S
C317 C316 1.391 . S
C93 C73 1.373 . S
C87 C15 1.156 . S
C107 C13 1.426 . S
C113 C64 1.415 . S
C127 C18 1.282 1_554 S
C133 C76 1.423 . S
C147 C17 1.279 . S
C153 C67 1.361 . S
C167 C36 1.201 . S
C173 C55 1.363 1_565 S
C187 C34 1.420 . S
C193 C46 1.429 1_655 S
C213 C58 1.410 . S
C207 C39 1.256 . S
C233 C49 1.352 . S
C227 C38 1.291 . S
C247 C14 1.493 . S
C253 C47 1.547 1_545 S
C267 C16 1.358 . S
C273 C56 1.422 . S
C293 C65 1.549 . S
C287 C35 1.502 . S
C307 C37 1.376 . S
C313 C74 1.427 . S
