# Generated by pormake.
# Topology zzz, (3,6)-cn, num edge types: 1
# Building blocks:
#     Node 0, Type 0, BuildingBlock: BETDIP_clean_linker_0, # of connection points: 3
#     Node 1, Type 0, BuildingBlock: BETDIP_clean_linker_0, # of connection points: 3
#     Node 2, Type 0, BuildingBlock: BETDIP_clean_linker_0, # of connection points: 3
#     Node 3, Type 0, BuildingBlock: BETDIP_clean_linker_0, # of connection points: 3
#     Node 4, Type 0, BuildingBlock: BETDIP_clean_linker_0, # of connection points: 3
#     Node 5, Type 0, BuildingBlock: BETDIP_clean_linker_0, # of connection points: 3
#     Node 6, Type 0, BuildingBlock: BETDIP_clean_linker_0, # of connection points: 3
#     Node 7, Type 0, BuildingBlock: BETDIP_clean_linker_0, # of connection points: 3
#     Node 8, Type 1, BuildingBlock: JUFBIX_clean_sbu_0, # of connection points: 6
#     Node 9, Type 1, BuildingBlock: JUFBIX_clean_sbu_0, # of connection points: 6
#     Node 10, Type 1, BuildingBlock: JUFBIX_clean_sbu_0, # of connection points: 6
#     Node 11, Type 1, BuildingBlock: JUFBIX_clean_sbu_0, # of connection points: 6
#     Edge 12, Type (0, 1), BuildingBlock: UVAHIK_clean_linker_0, # of connection points: 2
#     Edge 13, Type (0, 1), BuildingBlock: UVAHIK_clean_linker_0, # of connection points: 2
#     Edge 14, Type (0, 1), BuildingBlock: UVAHIK_clean_linker_0, # of connection points: 2
#     Edge 15, Type (0, 1), BuildingBlock: UVAHIK_clean_linker_0, # of connection points: 2
#     Edge 16, Type (0, 1), BuildingBlock: UVAHIK_clean_linker_0, # of connection points: 2
#     Edge 17, Type (0, 1), BuildingBlock: UVAHIK_clean_linker_0, # of connection points: 2
#     Edge 18, Type (0, 1), BuildingBlock: UVAHIK_clean_linker_0, # of connection points: 2
#     Edge 19, Type (0, 1), BuildingBlock: UVAHIK_clean_linker_0, # of connection points: 2
#     Edge 20, Type (0, 1), BuildingBlock: UVAHIK_clean_linker_0, # of connection points: 2
#     Edge 21, Type (0, 1), BuildingBlock: UVAHIK_clean_linker_0, # of connection points: 2
#     Edge 22, Type (0, 1), BuildingBlock: UVAHIK_clean_linker_0, # of connection points: 2
#     Edge 23, Type (0, 1), BuildingBlock: UVAHIK_clean_linker_0, # of connection points: 2
#     Edge 24, Type (0, 1), BuildingBlock: UVAHIK_clean_linker_0, # of connection points: 2
#     Edge 25, Type (0, 1), BuildingBlock: UVAHIK_clean_linker_0, # of connection points: 2
#     Edge 26, Type (0, 1), BuildingBlock: UVAHIK_clean_linker_0, # of connection points: 2
#     Edge 27, Type (0, 1), BuildingBlock: UVAHIK_clean_linker_0, # of connection points: 2
#     Edge 28, Type (0, 1), BuildingBlock: UVAHIK_clean_linker_0, # of connection points: 2
#     Edge 29, Type (0, 1), BuildingBlock: UVAHIK_clean_linker_0, # of connection points: 2
#     Edge 30, Type (0, 1), BuildingBlock: UVAHIK_clean_linker_0, # of connection points: 2
#     Edge 31, Type (0, 1), BuildingBlock: UVAHIK_clean_linker_0, # of connection points: 2
#     Edge 32, Type (0, 1), BuildingBlock: UVAHIK_clean_linker_0, # of connection points: 2
#     Edge 33, Type (0, 1), BuildingBlock: UVAHIK_clean_linker_0, # of connection points: 2
#     Edge 34, Type (0, 1), BuildingBlock: UVAHIK_clean_linker_0, # of connection points: 2
#     Edge 35, Type (0, 1), BuildingBlock: UVAHIK_clean_linker_0, # of connection points: 2
# Relax obj value: 0.128
# Max RMSD: 0.180
# Mean RMSD: 0.087
data_MOF--net-zzz--node1-JUFBIX_clean_sbu_0--node2-BETDIP_clean_linker_0--edge1-UVAHIK_clean_linker_0
_symmetry_space_group_name_H-M    P1
_symmetry_Int_Tables_number       1
_symmetry_cell_setting            triclinic
loop_
_symmetry_equiv_pos_as_xyz
'x, y, z'
_cell_length_a     66.809013
_cell_length_b     66.341994
_cell_length_c     22.254542
_cell_angle_alpha  83.085311
_cell_angle_beta   89.796506
_cell_angle_gamma 91.212121
loop_
_atom_site_label
_atom_site_type_symbol
_atom_site_fract_x
_atom_site_fract_y
_atom_site_fract_z
_atom_type_partial_charge
H0 H 0.77736 0.52944 0.35326 0.0
H1 H 0.78722 0.51566 0.17096 0.0
H2 H 0.8342 0.5074 0.30235 0.0
H3 H 0.76612 0.54858 0.1617 0.0
C4 C 0.75484 0.53917 0.18772 0.0
C5 C 0.78703 0.52421 0.3194 0.0
C6 C 0.80665 0.51841 0.33437 0.0
C7 C 0.78003 0.52354 0.26004 0.0
C8 C 0.79269 0.51667 0.2163 0.0
C9 C 0.81212 0.51035 0.23165 0.0
C10 C 0.81894 0.51151 0.29053 0.0
N11 N 0.76002 0.52896 0.24526 0.0
H12 H 0.97968 0.75239 0.36785 0.0
H13 H 0.9849 0.75993 0.17319 0.0
H14 H 0.98375 0.81228 0.26931 0.0
H15 H 0.95362 0.72915 0.22264 0.0
C16 C 0.96823 0.72267 0.23245 0.0
C17 C 0.98087 0.76219 0.32532 0.0
C18 C 0.98141 0.78342 0.32481 0.0
C19 C 0.98175 0.75368 0.27039 0.0
C20 C 0.98368 0.76646 0.2154 0.0
C21 C 0.9844 0.78758 0.21498 0.0
C22 C 0.98307 0.79591 0.26961 0.0
N23 N 0.98154 0.73231 0.27027 0.0
H24 H 0.75716 0.99567 0.27668 0.0
H25 H 0.74654 0.00441 0.08413 0.0
H26 H 0.70036 0.01702 0.20711 0.0
H27 H 0.76781 0.97583 0.09424 0.0
C28 C 0.77949 0.98335 0.11782 0.0
C29 C 0.74747 1.00025 0.23877 0.0
C30 C 0.72797 0.0068 0.24913 0.0
C31 C 0.75433 0.99929 0.17926 0.0
C32 C 0.7415 0.00493 0.13021 0.0
C33 C 0.72219 0.01162 0.14027 0.0
C34 C 0.71564 0.01264 0.1995 0.0
N35 N 0.7742 0.99305 0.16913 0.0
H36 H 0.54313 0.74109 0.29354 0.0
H37 H 0.52895 0.72652 0.11438 0.0
H38 H 0.53311 0.67905 0.26255 0.0
H39 H 0.55121 0.75409 0.09014 0.0
C40 C 0.5445 0.76452 0.11809 0.0
C41 C 0.53978 0.72999 0.26286 0.0
C42 C 0.53857 0.70924 0.2848 0.0
C43 C 0.5371 0.73632 0.20075 0.0
C44 C 0.53209 0.72176 0.16159 0.0
C45 C 0.53025 0.70109 0.18386 0.0
C46 C 0.534 0.69504 0.2451 0.0
N47 N 0.53883 0.75736 0.17879 0.0
H48 H 0.24054 0.49533 0.17694 0.0
H49 H 0.22951 0.50355 0.36365 0.0
H50 H 0.18069 0.48978 0.24985 0.0
H51 H 0.25556 0.52923 0.32991 0.0
C52 C 0.26541 0.51724 0.3196 0.0
C53 C 0.23033 0.49548 0.2148 0.0
C54 C 0.20972 0.49182 0.20726 0.0
C55 C 0.2376 0.49992 0.27121 0.0
C56 C 0.22409 0.50048 0.31976 0.0
C57 C 0.20363 0.49658 0.31245 0.0
C58 C 0.19663 0.49219 0.25627 0.0
N59 N 0.25844 0.50353 0.27939 0.0
H60 H 0.02661 0.25567 0.16745 0.0
H61 H 0.01117 0.2448 0.35722 0.0
H62 H 0.03069 0.19571 0.26416 0.0
H63 H 0.98516 0.26921 0.30708 0.0
C64 C 0.99785 0.27969 0.29789 0.0
C65 C 0.0252 0.24547 0.20916 0.0
C66 C 0.02967 0.22479 0.20996 0.0
C67 C 0.01839 0.25279 0.26234 0.0
C68 C 0.0162 0.23929 0.31595 0.0
C69 C 0.02086 0.21878 0.31702 0.0
C70 C 0.02768 0.21173 0.26404 0.0
N71 N 0.01392 0.27367 0.26236 0.0
H72 H 0.25663 1.00035 0.2758 0.0
H73 H 0.2729 0.98146 0.4615 0.0
H74 H 0.31741 0.98532 0.32169 0.0
H75 H 0.2418 0.96985 0.46866 0.0
C76 C 0.2333 0.98161 0.44266 0.0
C77 C 0.2677 0.99523 0.30938 0.0
C78 C 0.28772 0.99306 0.2917 0.0
C79 C 0.26193 0.99033 0.37051 0.0
C80 C 0.2767 0.98432 0.41394 0.0
C81 C 0.29663 0.9821 0.39648 0.0
C82 C 0.3019 0.9864 0.33537 0.0
N83 N 0.24145 0.99187 0.38772 0.0
H84 H 0.48026 0.2701 0.26658 0.0
H85 H 0.48265 0.28365 0.45173 0.0
H86 H 0.47206 0.331 0.3082 0.0
H87 H 0.50063 0.25622 0.46538 0.0
C88 C 0.49374 0.24571 0.43744 0.0
C89 C 0.47913 0.28076 0.29961 0.0
C90 C 0.47515 0.30128 0.28047 0.0
C91 C 0.48194 0.27408 0.36151 0.0
C92 C 0.48088 0.28829 0.40384 0.0
C93 C 0.47731 0.30879 0.38471 0.0
C94 C 0.47416 0.31502 0.32334 0.0
N95 N 0.48558 0.25313 0.3801 0.0
Co96 Co 0.01384 0.00981 0.81043 0.0
C97 C 0.97289 1.00066 0.82192 0.0
Co98 Co 1.00071 0.99655 0.73201 0.0
C99 C 0.02826 0.04258 0.87628 0.0
C100 C 0.02606 0.01428 0.93316 0.0
N101 N 0.02385 0.02259 0.87528 0.0
N102 N 0.03277 0.04715 0.93237 0.0
C103 C 0.03157 0.02922 0.96809 0.0
H104 H 0.02733 0.05377 0.83703 0.0
H105 H 0.02313 0.9985 0.94975 0.0
C106 C 0.04168 0.00559 0.72072 0.0
N107 N 0.99082 0.98378 0.66777 0.0
C108 C 0.9838 0.96444 0.66983 0.0
C109 C 0.99216 0.99055 0.60829 0.0
N110 N 0.98116 0.95867 0.61413 0.0
C111 C 0.98622 0.97521 0.57529 0.0
C112 C 0.99912 0.0379 0.71712 0.0
O113 O 0.0397 0.01121 0.77313 0.0
O114 O 0.02645 0.99889 0.6946 0.0
O115 O 0.99419 0.02238 0.6918 0.0
O116 O 0.00771 0.0355 0.76818 0.0
O117 O 0.97506 0.99437 0.77045 0.0
H118 H 0.99824 0.00527 0.58998 0.0
H119 H 0.98144 0.95449 0.71155 0.0
O120 O 0.98796 0.00816 0.84691 0.0
O121 O 0.01966 0.98366 0.85134 0.0
O122 O 0.00739 0.97094 0.77267 0.0
C123 C 0.01529 0.96828 0.82463 0.0
H124 H 0.03404 0.02697 0.01641 0.0
H125 H 0.98691 0.97583 0.52651 0.0
Co126 Co 0.49947 0.00736 0.814 0.0
C127 C 0.51411 0.96781 0.82477 0.0
Co128 Co 0.51621 0.9999 0.73372 0.0
C129 C 0.46504 0.01732 0.88344 0.0
C130 C 0.49021 0.00917 0.93967 0.0
N131 N 0.48452 0.01228 0.88131 0.0
N132 N 0.45824 0.01723 0.94081 0.0
C133 C 0.47417 0.01222 0.97621 0.0
H134 H 0.4559 0.02047 0.84355 0.0
H135 H 0.50483 0.00409 0.95483 0.0
C136 C 0.50158 0.03942 0.72282 0.0
N137 N 0.53102 0.99516 0.66601 0.0
C138 C 0.55078 0.99131 0.66238 0.0
C139 C 0.52495 0.99862 0.608 0.0
N140 N 0.55729 0.99271 0.60451 0.0
C141 C 0.54106 0.99723 0.57018 0.0
C142 C 0.47601 0.99103 0.72732 0.0
O143 O 0.49534 0.0344 0.77677 0.0
O144 O 0.5108 0.0265 0.69591 0.0
O145 O 0.49254 0.98983 0.69972 0.0
O146 O 0.47585 0.99841 0.77735 0.0
O147 O 0.52141 0.97333 0.77227 0.0
H148 H 0.51006 0.00318 0.59407 0.0
H149 H 0.56053 0.98908 0.70126 0.0
O150 O 0.50383 0.9803 0.85044 0.0
O151 O 0.5234 0.01613 0.84994 0.0
O152 O 0.53963 0.00999 0.76854 0.0
C153 C 0.53973 0.01604 0.82052 0.0
H154 H 0.47404 0.00985 0.02517 0.0
H155 H 0.54106 1.00024 0.52127 0.0
Co156 Co 0.52295 0.5031 0.78671 0.0
C157 C 0.49767 0.47306 0.84966 0.0
Co158 Co 0.49038 0.50736 0.77241 0.0
C159 C 0.56341 0.50841 0.83225 0.0
C160 C 0.55859 0.47984 0.79844 0.0
N161 N 0.54978 0.4977 0.80338 0.0
N162 N 0.58011 0.49774 0.84635 0.0
C163 C 0.57714 0.47981 0.82483 0.0
H164 H 0.56062 0.52314 0.84647 0.0
H165 H 0.55149 0.4671 0.78025 0.0
C166 C 0.51573 0.53739 0.70966 0.0
N167 N 0.46347 0.51273 0.75596 0.0
C168 C 0.45002 0.50252 0.72489 0.0
C169 C 0.45403 0.52973 0.76655 0.0
N170 N 0.43265 0.51255 0.71567 0.0
C171 C 0.43518 0.52963 0.74225 0.0
C172 C 0.50558 0.52694 0.86598 0.0
O173 O 0.53003 0.52683 0.73323 0.0
O174 O 0.49775 0.53123 0.72033 0.0
O175 O 0.48967 0.52299 0.83821 0.0
O176 O 0.52189 0.5192 0.85167 0.0
O177 O 0.48332 0.48332 0.82511 0.0
H178 H 0.46074 0.54203 0.78779 0.0
H179 H 0.4531 0.4883 0.70786 0.0
O180 O 0.51557 0.47952 0.83972 0.0
O181 O 0.52357 0.48701 0.7214 0.0
O182 O 0.49151 0.49176 0.70695 0.0
C183 C 0.50763 0.48364 0.69292 0.0
H184 H 0.58734 0.46726 0.83003 0.0
H185 H 0.42461 0.5418 0.74129 0.0
Co186 Co 0.00812 0.51745 0.78048 0.0
C187 C 0.0372 0.49516 0.84684 0.0
Co188 Co 0.00687 0.48456 0.77109 0.0
C189 C 0.00611 0.55306 0.84349 0.0
C190 C 0.01329 0.56095 0.74972 0.0
N191 N 0.00904 0.54489 0.79139 0.0
N192 N 0.00844 0.57346 0.83598 0.0
C193 C 0.01306 0.5785 0.7771 0.0
H194 H 1.00267 0.54422 0.88652 0.0
H195 H 0.01637 0.56 0.70242 0.0
C196 C 0.97786 0.50688 0.70462 0.0
N197 N 0.00606 0.45719 0.76042 0.0
C198 C 0.00645 0.44892 0.70777 0.0
C199 C 0.00489 0.44119 0.8039 0.0
N200 N 0.00548 0.42842 0.71668 0.0
C201 C 0.00444 0.42351 0.77718 0.0
C202 C 0.98251 0.49442 0.86233 0.0
O203 O 0.98613 0.52192 0.72608 0.0
O204 O 0.98499 0.48927 0.71767 0.0
O205 O 0.98843 0.47962 0.83621 0.0
O206 O 0.9896 0.51214 0.8457 0.0
O207 O 0.02896 0.48016 0.82511 0.0
H208 H 0.00444 0.44231 0.85198 0.0
H209 H 0.00715 0.4578 0.66365 0.0
O210 O 0.02997 0.51274 0.83427 0.0
O211 O 0.02677 0.52223 0.71506 0.0
O212 O 0.02509 0.4897 0.70608 0.0
C213 C 0.03239 0.50727 0.68899 0.0
H214 H 0.01575 0.59381 0.7553 0.0
H215 H 0.0037 0.40822 0.80052 0.0
C216 C 0.19869 0.99626 0.43262 0.0
C217 C 0.21389 0.98682 0.46836 0.0
C218 C 0.18005 0.9997 0.45857 0.0
C219 C 0.14937 0.98306 0.59812 0.0
H220 H 0.11657 0.02855 0.53809 0.0
C221 C 0.0792 0.00569 0.72503 0.0
C222 C 0.06156 0.00617 0.69076 0.0
C223 C 0.09788 0.00466 0.69696 0.0
C224 C 0.12562 0.01579 0.55517 0.0
H225 H 0.22201 0.9744 0.55912 0.0
H226 H 0.19031 0.98139 0.60493 0.0
H227 H 0.14914 0.02444 0.49104 0.0
H228 H 0.04969 0.0068 0.59998 0.0
H229 H 0.08243 0.00563 0.55084 0.0
H230 H 0.12606 0.97488 0.66345 0.0
C231 C 0.1921 0.98534 0.55657 0.0
C232 C 0.14424 0.0133 0.52799 0.0
C233 C 0.21043 0.9815 0.53045 0.0
C234 C 0.06302 0.00635 0.62761 0.0
C235 C 0.08173 0.00579 0.59942 0.0
C236 C 0.13103 0.98581 0.62595 0.0
C237 C 0.17643 0.99409 0.52097 0.0
C238 C 0.15643 0.99689 0.54913 0.0
C239 C 0.0993 0.00458 0.63395 0.0
C240 C 0.11896 1.00216 0.60478 0.0
H241 H 0.20097 1.00041 0.38448 0.0
H242 H 0.16838 0.00627 0.42933 0.0
H243 H 0.15788 0.96987 0.61481 0.0
H244 H 0.07855 0.00547 0.77375 0.0
H245 H 0.11124 0.0038 0.72452 0.0
C246 C 0.48859 0.20857 0.42565 0.0
C247 C 0.49255 0.22399 0.46232 0.0
C248 C 0.48806 0.18813 0.45093 0.0
C249 C 0.47925 0.15512 0.59283 0.0
H250 H 0.514 0.11698 0.52761 0.0
C251 C 0.49445 0.07638 0.7241 0.0
C252 C 0.49845 0.06009 0.69137 0.0
C253 C 0.49246 0.09604 0.69414 0.0
C254 C 0.50386 0.12723 0.54589 0.0
H255 H 0.49877 0.2303 0.55373 0.0
H256 H 0.49729 0.19476 0.59798 0.0
H257 H 0.51212 0.15162 0.47741 0.0
H258 H 0.50279 0.05148 0.60137 0.0
H259 H 0.49844 0.08543 0.549 0.0
H260 H 0.47057 0.13086 0.66053 0.0
C261 C 0.49475 0.19838 0.54987 0.0
C262 C 0.50288 0.14714 0.51708 0.0
C263 C 0.49568 0.21868 0.5245 0.0
C264 C 0.49992 0.06377 0.62797 0.0
C265 C 0.49757 0.08333 0.59794 0.0
C266 C 0.47993 0.13513 0.62106 0.0
C267 C 0.49105 0.18289 0.51337 0.0
C268 C 0.49079 0.16135 0.54079 0.0
C269 C 0.49405 0.09984 0.63055 0.0
C270 C 0.49248 0.12093 0.59858 0.0
H271 H 0.48619 0.21224 0.37752 0.0
H272 H 0.48516 0.17644 0.42185 0.0
H273 H 0.46966 0.16576 0.61173 0.0
H274 H 0.49336 0.07404 0.77303 0.0
H275 H 0.49013 0.10831 0.72119 0.0
C276 C 0.28637 0.52454 0.40637 0.0
C277 C 0.28361 0.5136 0.35679 0.0
C278 C 0.30268 0.52086 0.44478 0.0
C279 C 0.35368 0.50309 0.45465 0.0
H280 H 0.34315 0.49651 0.62749 0.0
C281 C 0.41801 0.49617 0.63065 0.0
C282 C 0.41574 0.50768 0.67932 0.0
C283 C 0.40192 0.4933 0.59202 0.0
C284 C 0.34642 0.49846 0.57942 0.0
H285 H 0.29602 0.4905 0.30736 0.0
H286 H 0.32509 0.48436 0.37424 0.0
H287 H 0.31528 0.49885 0.55688 0.0
H288 H 0.39447 0.52427 0.72706 0.0
H289 H 0.3668 0.5198 0.65949 0.0
H290 H 0.38484 0.50367 0.47705 0.0
C291 C 0.31439 0.49565 0.38349 0.0
C292 C 0.33042 0.49971 0.539 0.0
C293 C 0.29779 0.49914 0.34538 0.0
C294 C 0.39685 0.51558 0.68962 0.0
C295 C 0.38086 0.51276 0.65113 0.0
C296 C 0.36976 0.50207 0.4952 0.0
C297 C 0.31681 0.5063 0.43407 0.0
C298 C 0.33387 0.5025 0.47623 0.0
C299 C 0.38319 0.50181 0.60131 0.0
C300 C 0.36631 0.50025 0.55815 0.0
H301 H 0.27568 0.53579 0.41614 0.0
H302 H 0.30431 0.52949 0.48287 0.0
H303 H 0.35676 0.50532 0.40646 0.0
H304 H 0.43236 0.48996 0.62109 0.0
H305 H 0.40421 0.48459 0.55454 0.0
C306 C 0.01532 0.31147 0.32567 0.0
C307 C 0.99979 0.29677 0.33484 0.0
C308 C 0.01715 0.32676 0.36397 0.0
C309 C 0.00574 0.33629 0.51834 0.0
H310 H 0.0082 0.39373 0.45978 0.0
C311 C 0.99479 0.39603 0.6813 0.0
C312 C 0.00553 0.41456 0.67146 0.0
C313 C 0.99511 0.38231 0.63836 0.0
C314 C 0.00788 0.37776 0.47704 0.0
H315 H 0.97395 0.28663 0.39028 0.0
H316 H 0.97739 0.31293 0.45754 0.0
H317 H 0.00759 0.36869 0.38747 0.0
H318 H 0.02508 0.43323 0.60881 0.0
H319 H 0.02614 0.40904 0.53428 0.0
H320 H 0.00643 0.34499 0.60757 0.0
C321 C 0.98809 0.31274 0.4209 0.0
C322 C 0.00747 0.36344 0.43548 0.0
C323 C 0.98606 0.29777 0.38222 0.0
C324 C 0.01651 0.41914 0.61736 0.0
C325 C 0.01706 0.40526 0.5746 0.0
C326 C 0.00645 0.35051 0.55977 0.0
C327 C 0.00372 0.3273 0.41257 0.0
C328 C 0.006 0.34258 0.45581 0.0
C329 C 0.00643 0.38657 0.58465 0.0
C330 C 0.00709 0.37148 0.53986 0.0
H331 H 0.0261 0.31106 0.2894 0.0
H332 H 0.02935 0.33781 0.35666 0.0
H333 H 0.00493 0.32028 0.53526 0.0
H334 H 0.98591 0.39224 0.72203 0.0
H335 H 0.98626 0.3684 0.64723 0.0
C336 C 0.81578 0.99482 0.11796 0.0
C337 C 0.80003 0.98448 0.09217 0.0
C338 C 0.83475 0.99653 0.09036 0.0
C339 C 0.85933 0.99474 0.94191 0.0
H340 H 0.90802 0.98772 0.03556 0.0
C341 C 0.93666 0.98955 0.82818 0.0
C342 C 0.95312 0.9991 0.853 0.0
C343 C 0.91811 0.98792 0.85806 0.0
C344 C 0.89458 0.98998 0.00874 0.0
H345 H 0.7918 0.96758 0.0183 0.0
H346 H 0.82479 0.97042 0.97049 0.0
H347 H 0.8756 0.98465 0.08719 0.0
H348 H 0.96292 0.01454 0.92869 0.0
H349 H 0.93057 0.01198 0.98016 0.0
H350 H 0.8782 1.00017 0.86353 0.0
C351 C 0.82253 0.97743 0.01142 0.0
C352 C 0.87599 0.9882 0.0384 0.0
C353 C 0.80367 0.97567 0.03904 0.0
C354 C 0.95058 0.00703 0.90832 0.0
C355 C 0.93203 0.00544 0.9381 0.0
C356 C 0.87789 0.99658 0.9123 0.0
C357 C 0.83827 0.98805 0.03633 0.0
C358 C 0.85813 0.99043 0.00529 0.0
C359 C 0.91555 0.99584 0.91344 0.0
C360 C 0.89577 0.99412 0.94525 0.0
H361 H 0.8134 1.00182 0.15884 0.0
H362 H 0.84651 0.00492 0.11051 0.0
H363 H 0.84588 0.99692 0.91508 0.0
H364 H 0.93811 0.98319 0.78581 0.0
H365 H 0.90585 0.98017 0.8381 0.0
C366 C 0.54869 0.79198 0.03231 0.0
C367 C 0.54185 0.78586 0.09151 0.0
C368 C 0.54583 0.81178 0.0049 0.0
C369 C 0.53455 0.86387 0.03762 0.0
H370 H 0.52022 0.87154 0.86778 0.0
C371 C 0.51013 0.94143 0.91503 0.0
C372 C 0.51748 0.94711 0.85596 0.0
C373 C 0.51319 0.92191 0.94456 0.0
C374 C 0.52443 0.8697 0.91505 0.0
H375 H 0.5267 0.7957 0.16885 0.0
H376 H 0.52146 0.83032 0.12074 0.0
H377 H 0.52518 0.83738 0.91825 0.0
H378 H 0.53394 0.93669 0.78181 0.0
H379 H 0.53932 0.90266 0.83341 0.0
H380 H 0.53368 0.89625 0.03428 0.0
C381 C 0.52929 0.81987 0.09567 0.0
C382 C 0.52729 0.85009 0.94406 0.0
C383 C 0.53221 0.80001 0.1232 0.0
C384 C 0.52802 0.93281 0.8272 0.0
C385 C 0.53101 0.91326 0.85668 0.0
C386 C 0.53164 0.88351 0.00859 0.0
C387 C 0.53595 0.82596 0.03595 0.0
C388 C 0.53249 0.8469 0.00566 0.0
C389 C 0.52362 0.90755 0.91571 0.0
C390 C 0.52662 0.88667 0.94686 0.0
H391 H 0.55622 0.78139 0.00696 0.0
H392 H 0.55148 0.81598 0.95936 0.0
H393 H 0.5388 0.86203 0.08484 0.0
H394 H 0.50195 0.95205 0.93858 0.0
H395 H 0.5071 0.91797 0.9897 0.0
C396 C 0.72206 0.52016 0.18204 0.0
C397 C 0.7349 0.53652 0.16063 0.0
C398 C 0.70419 0.51674 0.15175 0.0
C399 C 0.66662 0.54056 0.04817 0.0
H400 H 0.65945 0.48701 0.99758 0.0
C401 C 0.60464 0.52268 0.8788 0.0
C402 C 0.59634 0.50293 0.88446 0.0
C403 C 0.62092 0.52734 0.91466 0.0
C404 C 0.66089 0.50194 0.01221 0.0
H405 H 0.73893 0.56244 0.09239 0.0
H406 H 0.7074 0.5568 0.04048 0.0
H407 H 0.68813 0.49417 0.05913 0.0
H408 H 0.59776 0.47288 0.93407 0.0
H409 H 0.62538 0.48104 0.99821 0.0
H410 H 0.63917 0.5483 0.00268 0.0
C411 C 0.7112 0.54658 0.0803 0.0
C412 C 0.67744 0.50604 0.04735 0.0
C413 C 0.72923 0.54977 0.10986 0.0
C414 C 0.60418 0.48811 0.92786 0.0
C415 C 0.62012 0.49283 0.96445 0.0
C416 C 0.64982 0.53637 0.01389 0.0
C417 C 0.69869 0.52982 0.10027 0.0
C418 C 0.68054 0.5254 0.06543 0.0
C419 C 0.62899 0.51242 0.95783 0.0
C420 C 0.64674 0.517 0.99513 0.0
H421 H 0.7261 0.50962 0.22086 0.0
H422 H 0.69475 0.50375 0.16819 0.0
H423 H 0.66864 0.55561 0.06177 0.0
H424 H 0.59886 0.53433 0.84551 0.0
H425 H 0.62741 0.54253 0.90748 0.0
C426 C 0.95926 0.69241 0.18114 0.0
C427 C 0.97415 0.70496 0.20246 0.0
C428 C 0.96441 0.67672 0.14771 0.0
C429 C 0.99922 0.6644 0.0375 0.0
H430 H 0.98415 0.60786 0.08264 0.0
C431 C 0.01924 0.60373 0.88284 0.0
C432 C 0.00606 0.58707 0.8811 0.0
C433 C 0.01673 0.61718 0.92599 0.0
C434 C 0.98821 0.6236 0.06858 0.0
H435 H 0.00611 0.71105 0.20561 0.0
H436 H 0.01509 0.68396 0.14494 0.0
H437 H 0.97689 0.63284 0.15128 0.0
H438 H 0.97983 0.57146 0.92237 0.0
H439 H 0.97463 0.59541 0.99547 0.0
H440 H 0.00938 0.65579 0.95347 0.0
C441 C 0.99948 0.68605 0.15544 0.0
C442 C 0.98421 0.63784 0.1084 0.0
C443 C 0.99435 0.70143 0.19031 0.0
C444 C 0.99031 0.58409 0.92329 0.0
C445 C 0.98746 0.59782 0.9655 0.0
C446 C 0.00279 0.65029 0.997 0.0
C447 C 0.98453 0.67366 0.13358 0.0
C448 C 0.98968 0.65835 0.09315 0.0
C449 C 1.00063 0.61463 0.96757 0.0
C450 C 0.99731 0.62962 0.01176 0.0
H451 H 0.94359 0.69494 0.18965 0.0
H452 H 0.95264 0.66744 0.13095 0.0
H453 H 0.00334 0.68022 0.02447 0.0
H454 H 0.03165 0.60618 0.85121 0.0
H455 H 0.02754 0.62952 0.92672 0.0
C456 C 0.0325 0.19022 0.39106 0.0
C457 C 0.0177 0.20427 0.37223 0.0
C458 C 0.02867 0.17481 0.43829 0.0
C459 C 0.01927 0.14836 0.55626 0.0
H460 H 0.97031 0.11702 0.53984 0.0
C461 C 1.00153 0.07559 0.71549 0.0
C462 C 0.99638 0.05862 0.68607 0.0
C463 C 1.00139 0.09511 0.68423 0.0
C464 C 0.98399 0.12568 0.54511 0.0
H465 H 0.98758 0.21377 0.38917 0.0
H466 H 0.98082 0.18667 0.47212 0.0
H467 H 0.97628 0.14881 0.4739 0.0
H468 H 0.98599 0.04892 0.60167 0.0
H469 H 0.98582 0.08308 0.54691 0.0
H470 H 0.02738 0.1249 0.62571 0.0
C471 C 0.99535 0.1876 0.45012 0.0
C472 C 0.98732 0.14396 0.50786 0.0
C473 C 0.99927 0.20316 0.40313 0.0
C474 C 0.99006 0.06168 0.62558 0.0
C475 C 0.98988 0.08125 0.5943 0.0
C476 C 0.01589 0.13017 0.59372 0.0
C477 C 0.0099 0.17307 0.46736 0.0
C478 C 0.00519 0.15523 0.51219 0.0
C479 C 0.99603 0.0981 0.62293 0.0
C480 C 0.99841 0.11843 0.58768 0.0
H481 H 0.04687 0.19083 0.3681 0.0
H482 H 0.04011 0.16372 0.45022 0.0
H483 H 0.03312 0.15682 0.56081 0.0
H484 H 0.00622 0.0738 0.76231 0.0
H485 H 0.00589 0.10784 0.70769 0.0
C486 C 0.31383 0.98546 0.49504 0.0
C487 C 0.3124 0.97621 0.44159 0.0
C488 C 0.33048 0.98224 0.53262 0.0
C489 C 0.38327 0.9723 0.51895 0.0
H490 H 0.38306 0.96588 0.69439 0.0
C491 C 0.45698 0.97373 0.65063 0.0
C492 C 0.45701 0.98472 0.70073 0.0
C493 C 0.43895 0.9688 0.62369 0.0
C494 C 0.38337 0.96783 0.64538 0.0
H495 H 0.32638 0.955 0.38832 0.0
H496 H 0.35555 0.94965 0.45348 0.0
H497 H 0.35147 0.9641 0.63997 0.0
H498 H 0.43816 0.9988 0.76276 0.0
H499 H 0.40689 0.99092 0.71461 0.0
H500 H 0.41486 0.97707 0.52357 0.0
C501 C 0.34394 0.95957 0.46583 0.0
C502 C 0.3653 0.96671 0.61436 0.0
C503 C 0.32729 0.96268 0.42855 0.0
C504 C 0.43865 0.99027 0.72424 0.0
C505 C 0.42066 0.98559 0.69687 0.0
C506 C 0.40127 0.97367 0.54983 0.0
C507 C 0.34599 0.96979 0.5172 0.0
C508 C 0.36508 0.96914 0.55084 0.0
C509 C 0.42058 0.97502 0.64575 0.0
C510 C 0.40156 0.97171 0.61344 0.0
H511 H 0.30267 0.99606 0.50607 0.0
H512 H 0.33175 0.99041 0.5718 0.0
H513 H 0.38351 0.97457 0.46992 0.0
H514 H 0.47089 0.96906 0.6319 0.0
H515 H 0.43944 0.9603 0.58514 0.0
C516 C 0.46437 0.33957 0.4252 0.0
C517 C 0.47872 0.32436 0.42694 0.0
C518 C 0.46763 0.3565 0.45574 0.0
C519 C 0.49937 0.3777 0.57043 0.0
H520 H 0.4861 0.42904 0.47821 0.0
C521 C 0.52262 0.45433 0.64932 0.0
C522 C 0.50698 0.4681 0.65067 0.0
C523 C 0.52032 0.43727 0.61853 0.0
C524 C 0.48981 0.41482 0.50458 0.0
H525 H 0.50723 0.31435 0.46426 0.0
H526 H 0.51305 0.34402 0.51747 0.0
H527 H 0.47871 0.39739 0.43668 0.0
H528 H 0.47718 0.47553 0.61763 0.0
H529 H 0.47328 0.44592 0.56353 0.0
H530 H 0.51056 0.39525 0.63822 0.0
C531 C 0.49918 0.3428 0.49304 0.0
C532 C 0.48546 0.39667 0.48103 0.0
C533 C 0.49583 0.32577 0.46274 0.0
C534 C 0.48951 0.46518 0.61749 0.0
C535 C 0.48728 0.44823 0.58638 0.0
C536 C 0.5038 0.39589 0.59387 0.0
C537 C 0.48539 0.35865 0.48828 0.0
C538 C 0.49002 0.37788 0.5139 0.0
C539 C 0.50242 0.4338 0.58807 0.0
C540 C 0.49894 0.41462 0.56134 0.0
H541 H 0.45096 0.33871 0.3983 0.0
H542 H 0.45647 0.36818 0.45248 0.0
H543 H 0.50293 0.36349 0.59711 0.0
H544 H 0.53625 0.45614 0.67452 0.0
H545 H 0.53234 0.42653 0.6198 0.0
C546 C 0.17455 0.48237 0.37536 0.0
C547 C 0.18916 0.49779 0.36219 0.0
C548 C 0.15923 0.48455 0.41655 0.0
C549 C 0.13037 0.52357 0.47723 0.0
H550 H 0.10978 0.47788 0.58665 0.0
C551 C 0.05353 0.49313 0.61263 0.0
C552 C 0.04901 0.50945 0.6447 0.0
C553 C 0.07117 0.49335 0.5791 0.0
C554 C 0.11528 0.49074 0.55598 0.0
H555 H 0.1997 0.52726 0.38296 0.0
H556 H 0.17276 0.53109 0.45563 0.0
H557 H 0.14094 0.4747 0.53184 0.0
H558 H 0.05884 0.53938 0.66386 0.0
H559 H 0.08987 0.53976 0.60483 0.0
H560 H 0.1044 0.53947 0.5008 0.0
C561 C 0.17317 0.51738 0.43373 0.0
C562 C 0.13315 0.48894 0.52483 0.0
C563 C 0.18865 0.51511 0.39274 0.0
C564 C 0.06192 0.5266 0.63948 0.0
C565 C 0.07968 0.5268 0.60584 0.0
C566 C 0.11242 0.52538 0.50852 0.0
C567 C 0.15814 0.50224 0.44525 0.0
C568 C 0.14065 0.50516 0.48411 0.0
C569 C 0.08475 0.50988 0.57698 0.0
C570 C 0.10448 0.5088 0.54706 0.0
H571 H 0.17469 0.46884 0.35252 0.0
H572 H 0.14777 0.47271 0.42401 0.0
H573 H 0.13572 0.53627 0.4457 0.0
H574 H 0.04377 0.47979 0.61519 0.0
H575 H 0.07444 0.48033 0.55596 0.0
C576 C 0.00548 0.80078 0.12556 0.0
C577 C 0.98759 0.80132 0.15849 0.0
C578 C 0.01027 0.81628 0.07912 0.0
C579 C 0.9895 0.85837 0.97716 0.0
H580 H 0.04007 0.88639 0.99901 0.0
C581 C 0.01243 0.93078 0.82364 0.0
C582 C 0.01752 0.94737 0.85485 0.0
C583 C 0.01157 0.91111 0.85379 0.0
C584 C 0.02598 0.87863 0.99219 0.0
H585 H 0.9602 0.81757 0.16735 0.0
H586 H 0.96826 0.84439 0.08515 0.0
H587 H 0.03205 0.85428 0.06161 0.0
H588 H 0.02697 0.95615 0.94129 0.0
H589 H 0.02554 0.92161 0.99412 0.0
H590 H 0.98311 0.88295 0.90917 0.0
C591 C 0.97863 0.83213 0.09519 0.0
C592 C 0.02147 0.8602 0.02751 0.0
C593 C 0.97402 0.81685 0.14215 0.0
C594 C 0.02296 0.9437 0.91606 0.0
C595 C 0.0222 0.92393 0.94622 0.0
C596 C 0.9941 0.87664 0.9414 0.0
C597 C 0.99705 0.83231 0.06444 0.0
C598 C 0.003 0.85015 0.02119 0.0
C599 C 0.01592 0.90754 0.91572 0.0
C600 C 0.0122 0.88716 0.94941 0.0
H601 H 0.01623 0.78902 0.138 0.0
H602 H 0.02452 0.81607 0.05583 0.0
H603 H 0.97518 0.85089 0.97139 0.0
H604 H 0.00839 0.93302 0.77625 0.0
H605 H 0.00697 0.89872 0.82898 0.0
C606 C 0.69716 0.03405 0.08434 0.0
C607 C 0.70789 0.01595 0.09015 0.0
C608 C 0.6808 0.03645 0.04544 0.0
C609 C 0.64108 0.00568 0.99511 0.0
H610 H 0.62762 0.05262 0.88231 0.0
C611 C 0.56084 0.01959 0.91124 0.0
C612 C 0.55899 0.021 0.84805 0.0
C613 C 0.57969 0.02118 0.93749 0.0
C614 C 0.63125 0.03947 0.91377 0.0
H615 H 0.71073 0.9866 0.05804 0.0
H616 H 0.68182 0.99064 0.99053 0.0
H617 H 0.6609 0.05083 0.92931 0.0
H618 H 0.57515 0.02641 0.76266 0.0
H619 H 0.60804 0.02972 0.80881 0.0
H620 H 0.61138 0.99452 0.98107 0.0
C621 C 0.68619 0.003 0.01572 0.0
C622 C 0.6502 0.03844 0.94047 0.0
C623 C 0.70276 1.00075 0.05388 0.0
C624 C 0.57615 0.02521 0.81155 0.0
C625 C 0.59494 0.02717 0.83782 0.0
C626 C 0.62207 0.00689 0.96944 0.0
C627 C 0.67473 0.02062 0.0126 0.0
C628 C 0.65526 0.02149 0.98121 0.0
C629 C 0.59691 0.02458 0.90098 0.0
C630 C 0.61698 0.02379 0.92868 0.0
H631 H 0.70087 0.04594 0.11205 0.0
H632 H 0.67213 0.05011 0.04401 0.0
H633 H 0.64454 0.99258 0.02702 0.0
H634 H 0.54789 0.01627 0.94047 0.0
H635 H 0.58088 0.01925 0.98638 0.0
C636 C 0.51074 0.66979 0.16659 0.0
C637 C 0.52426 0.68548 0.14451 0.0
C638 C 0.50703 0.65345 0.13406 0.0
C639 C 0.49565 0.62318 0.04909 0.0
H640 H 0.54138 0.60271 0.96971 0.0
C641 C 0.48922 0.55554 0.90906 0.0
C642 C 0.50569 0.54279 0.90727 0.0
C643 C 0.49053 0.57284 0.93898 0.0
C644 C 0.5285 0.60805 0.99238 0.0
H645 H 0.5435 0.69703 0.06905 0.0
H646 H 0.53644 0.66874 0.01071 0.0
H647 H 0.54489 0.63394 0.01591 0.0
H648 H 0.536 0.53744 0.93885 0.0
H649 H 0.538 0.56713 0.99343 0.0
H650 H 0.47953 0.59677 0.02827 0.0
C651 C 0.52918 0.66879 0.05427 0.0
C652 C 0.53041 0.62623 0.01784 0.0
C653 C 0.53304 0.68513 0.08724 0.0
C654 C 0.52308 0.54703 0.93913 0.0
C655 C 0.52431 0.56421 0.96977 0.0
C656 C 0.4938 0.60488 0.0243 0.0
C657 C 0.51651 0.65249 0.07806 0.0
C658 C 0.51404 0.63397 0.04688 0.0
C659 C 0.50825 0.57765 0.96858 0.0
C660 C 0.51023 0.59701 0.99585 0.0
H661 H 0.50343 0.66982 0.21012 0.0
H662 H 0.49733 0.64117 0.15424 0.0
H663 H 0.48263 0.62881 0.07033 0.0
H664 H 0.47562 0.55278 0.88473 0.0
H665 H 0.47792 0.58288 0.93651 0.0
C666 C 0.82847 0.51387 0.12899 0.0
C667 C 0.82588 0.50308 0.18689 0.0
C668 C 0.84415 0.50919 0.09152 0.0
C669 C 0.89462 0.49148 0.10757 0.0
H670 H 0.89311 0.48707 0.93545 0.0
C671 C 0.96237 0.50633 0.94536 0.0
C672 C 0.96588 0.49161 0.90641 0.0
C673 C 0.9452 0.50502 0.98168 0.0
C674 C 0.89366 0.48812 0.98362 0.0
H675 H 0.83632 0.47766 0.24849 0.0
H676 H 0.86388 0.46983 0.18363 0.0
H677 H 0.86167 0.48924 0.99165 0.0
H678 H 0.95442 0.4638 0.87558 0.0
H679 H 0.92413 0.46181 0.93839 0.0
H680 H 0.92657 0.49115 0.09926 0.0
C681 C 0.85399 0.48203 0.1676 0.0
C682 C 0.87576 0.48947 0.01552 0.0
C683 C 0.83826 0.48655 0.20465 0.0
C684 C 0.95217 0.47527 0.90557 0.0
C685 C 0.93479 0.4742 0.94101 0.0
C686 C 0.91248 0.49051 0.07553 0.0
C687 C 0.85748 0.49374 0.11166 0.0
C688 C 0.87612 0.49121 0.07773 0.0
C689 C 0.93108 0.4892 0.97877 0.0
C690 C 0.91215 0.48892 0.01329 0.0
H691 H 0.81919 0.52671 0.1142 0.0
H692 H 0.8466 0.51845 0.04851 0.0
H693 H 0.89528 0.49304 0.15543 0.0
H694 H 0.97266 0.51911 0.94678 0.0
H695 H 0.94258 0.51681 0.01036 0.0
C696 C 0.0538 0.20693 0.15095 0.0
C697 C 0.03491 0.21554 0.15496 0.0
C698 C 0.05684 0.19192 0.11302 0.0
C699 C 0.03322 0.16307 0.99605 0.0
H700 H 0.05928 0.11755 0.08731 0.0
C701 C 0.03355 0.07031 0.01212 0.0
C702 C 0.0359 0.06717 0.95106 0.0
C703 C 0.03572 0.08971 0.03001 0.0
C704 C 0.05197 0.1301 0.06114 0.0
H705 H 0.00477 0.21627 0.12 0.0
H706 H 0.00993 0.19001 0.05372 0.0
H707 H 0.05936 0.15026 0.12593 0.0
H708 H 0.04287 0.08245 0.86124 0.0
H709 H 0.04637 0.11631 0.89263 0.0
H710 H 0.02515 0.14242 0.9325 0.0
C711 C 0.02256 0.19501 0.07892 0.0
C712 C 0.05225 0.149 0.08286 0.0
C713 C 0.01959 0.21016 0.11661 0.0
C714 C 0.04065 0.08413 0.90851 0.0
C715 C 0.04269 0.10362 0.92645 0.0
C716 C 0.03301 0.1441 0.97414 0.0
C717 C 0.04093 0.18497 0.07905 0.0
C718 C 0.0426 0.16568 0.0512 0.0
C719 C 0.04023 0.10663 0.98746 0.0
C720 C 0.04203 0.12729 0.00715 0.0
H721 H 0.06576 0.21066 0.18078 0.0
H722 H 0.07131 0.18485 0.11326 0.0
H723 H 0.02574 0.17559 0.97034 0.0
H724 H 0.02955 0.05789 0.04634 0.0
H725 H 0.03339 0.09152 0.07724 0.0
C726 C 0.2978 0.01849 0.20441 0.0
C727 C 0.29499 0.99811 0.22871 0.0
C728 C 0.31114 0.02369 0.15592 0.0
C729 C 0.34497 1.00166 0.04604 0.0
H730 H 0.38115 0.04499 0.08208 0.0
C731 C 0.4215 0.01597 0.92347 0.0
C732 C 0.43786 0.01957 0.96078 0.0
C733 C 0.40181 0.01659 0.94497 0.0
C734 C 0.37124 0.03281 0.07134 0.0
H735 H 0.30248 0.96713 0.21887 0.0
H736 H 0.32558 0.97599 0.13489 0.0
H737 H 0.34945 0.03964 0.13591 0.0
H738 H 0.44606 0.0276 0.04918 0.0
H739 H 0.41201 0.02805 0.08712 0.0
H740 H 0.36744 0.99395 0.98452 0.0
C741 C 0.31751 0.98809 0.15206 0.0
C742 C 0.35282 0.02994 0.10157 0.0
C743 C 0.3042 0.98294 0.20025 0.0
C744 C 0.43393 0.02445 0.01938 0.0
C745 C 0.41429 0.025 0.04091 0.0
C746 C 0.36348 0.00444 0.01611 0.0
C747 C 0.32195 0.00858 0.1312 0.0
C748 C 0.33966 0.01394 0.0907 0.0
C749 C 0.39793 0.02081 0.00435 0.0
C750 C 0.37714 0.01967 0.0297 0.0
H751 H 0.29107 0.03046 0.22617 0.0
H752 H 0.31386 0.03961 0.14025 0.0
H753 H 0.33513 0.98939 0.03568 0.0
H754 H 0.42384 0.01202 0.87825 0.0
H755 H 0.38962 0.01353 0.9152 0.0
C756 C 0.45754 0.32124 0.19554 0.0
C757 C 0.47415 0.30974 0.21597 0.0
C758 C 0.45905 0.33543 0.14382 0.0
C759 C 0.49782 0.36912 0.07162 0.0
H760 H 0.45668 0.38686 0.95588 0.0
C761 C 0.51026 0.44018 0.9003 0.0
C762 C 0.4941 0.45313 0.88645 0.0
C763 C 0.50732 0.42115 0.93359 0.0
C764 C 0.46823 0.38222 0.98831 0.0
H765 H 0.50471 0.30269 0.19582 0.0
H766 H 0.50734 0.3273 0.10471 0.0
H767 H 0.45223 0.35466 0.02133 0.0
H768 H 0.46206 0.45608 0.89642 0.0
H769 H 0.45696 0.42298 0.95678 0.0
H770 H 0.51347 0.39684 0.04123 0.0
C771 C 0.4932 0.32549 0.12896 0.0
C772 C 0.46574 0.36369 0.02543 0.0
C773 C 0.49164 0.31119 0.18053 0.0
C774 C 0.47483 0.44649 0.90652 0.0
C775 C 0.4719 0.42743 0.94065 0.0
C776 C 0.50021 0.38765 0.0351 0.0
C777 C 0.47727 0.33849 0.11193 0.0
C778 C 0.4805 0.35697 0.06767 0.0
C779 C 0.48816 0.41454 0.95488 0.0
C780 C 0.48546 0.39453 0.993 0.0
H781 H 0.44398 0.32054 0.22263 0.0
H782 H 0.44652 0.34521 0.13214 0.0
H783 H 0.50923 0.3647 0.10477 0.0
H784 H 0.52528 0.44462 0.88475 0.0
H785 H 0.52015 0.41154 0.94221 0.0
C786 C 0.19261 0.47014 0.1388 0.0
C787 C 0.20066 0.48919 0.14827 0.0
C788 C 0.1778 0.46858 0.09519 0.0
C789 C 0.14886 0.49855 0.9718 0.0
H790 H 0.10512 0.46283 0.03584 0.0
C791 C 0.0673 0.50991 0.89375 0.0
C792 C 0.05615 0.49269 0.88125 0.0
C793 C 0.08609 0.50789 0.92093 0.0
C794 C 0.11727 0.47269 0.0169 0.0
H795 H 0.20044 0.52138 0.11813 0.0
H796 H 0.17455 0.51886 0.04248 0.0
H797 H 0.1371 0.46177 0.08792 0.0
H798 H 0.05589 0.45979 0.88889 0.0
H799 H 0.08863 0.45626 0.93769 0.0
H800 H 0.12853 0.51006 0.90227 0.0
C801 C 0.17983 0.50497 0.0673 0.0
C802 C 0.13572 0.47202 0.04653 0.0
C803 C 0.1948 0.50647 0.11046 0.0
C804 C 0.06405 0.47335 0.89805 0.0
C805 C 0.0828 0.47133 0.92595 0.0
C806 C 0.13033 0.49936 0.94256 0.0
C807 C 0.17046 0.48611 0.06105 0.0
C808 C 0.15171 0.48516 0.02496 0.0
C809 C 0.09414 0.4886 0.93689 0.0
C810 C 0.11424 0.48667 0.96534 0.0
H811 H 0.19667 0.45666 0.16829 0.0
H812 H 0.17131 0.45374 0.09073 0.0
H813 H 0.16086 0.50866 0.95318 0.0
H814 H 0.06173 0.52505 0.88131 0.0
H815 H 0.09432 0.52147 0.92967 0.0
C816 C 0.96199 0.79611 0.40797 0.0
C817 C 0.98052 0.79338 0.38057 0.0
C818 C 0.96013 0.81056 0.44858 0.0
C819 C 0.95815 0.85356 0.48283 0.0
H820 H 1.0005 0.86861 0.58849 0.0
C821 C 0.9698 0.93529 0.54167 0.0
C822 C 0.97716 0.93836 0.59906 0.0
C823 C 0.96778 0.91571 0.52482 0.0
C824 C 0.98835 0.86451 0.55994 0.0
H825 H 0.01175 0.80267 0.3758 0.0
H826 H 0.00868 0.82767 0.44688 0.0
H827 H 1.00175 0.83629 0.54707 0.0
H828 H 0.98761 0.92287 0.68439 0.0
H829 H 0.98367 0.88882 0.65548 0.0
H830 H 0.94486 0.88188 0.49513 0.0
C831 C 0.99558 0.81862 0.43805 0.0
C832 C 0.98918 0.84603 0.53572 0.0
C833 C 0.9974 0.80427 0.39739 0.0
C834 C 0.98175 0.92121 0.63998 0.0
C835 C 0.97972 0.90162 0.62313 0.0
C836 C 0.95732 0.87203 0.50706 0.0
C837 C 0.97678 0.82254 0.46233 0.0
C838 C 0.97434 0.84054 0.49568 0.0
C839 C 0.97303 0.89863 0.56497 0.0
C840 C 0.97265 0.87798 0.54478 0.0
H841 H 0.94872 0.78811 0.39473 0.0
H842 H 0.94548 0.81302 0.46703 0.0
H843 H 0.94655 0.84996 0.45171 0.0
H844 H 0.9659 0.94807 0.50925 0.0
H845 H 0.96275 0.91404 0.47944 0.0
C846 C 0.7182 0.98801 0.34998 0.0
C847 C 0.71918 0.00623 0.3107 0.0
C848 C 0.70501 0.98588 0.39967 0.0
C849 C 0.66856 0.01478 0.48474 0.0
H850 H 0.63736 0.96451 0.49498 0.0
C851 C 0.58437 0.00821 0.53787 0.0
C852 C 0.57776 0.99318 0.58392 0.0
C853 C 0.60425 0.00902 0.51807 0.0
C854 C 0.64613 0.97849 0.49339 0.0
H855 H 0.7087 0.03706 0.29563 0.0
H856 H 0.68563 0.0334 0.38061 0.0
H857 H 0.66883 0.9676 0.4384 0.0
H858 H 0.58667 0.96719 0.64539 0.0
H859 H 0.62158 0.96807 0.60869 0.0
H860 H 0.64488 0.02608 0.53585 0.0
C861 C 0.69498 0.02069 0.37431 0.0
C862 C 0.66427 0.98028 0.46124 0.0
C863 C 0.70818 0.02281 0.32514 0.0
C864 C 0.59146 0.9789 0.60982 0.0
C865 C 0.61132 0.9794 0.58888 0.0
C866 C 0.65026 0.0131 0.51581 0.0
C867 C 0.69254 1.00193 0.41083 0.0
C868 C 0.67544 0.99869 0.45478 0.0
C869 C 0.61789 0.99456 0.54304 0.0
C870 C 0.63864 0.99514 0.519 0.0
H871 H 0.72646 0.97496 0.33976 0.0
H872 H 0.7039 0.97135 0.42753 0.0
H873 H 0.67693 0.02901 0.48228 0.0
H874 H 0.57417 0.01953 0.51773 0.0
H875 H 0.6089 0.02075 0.48233 0.0
C876 C 0.52419 0.7007 0.38768 0.0
C877 C 0.54091 0.7014 0.34921 0.0
C878 C 0.52298 0.68639 0.43925 0.0
C879 C 0.55006 0.64636 0.53671 0.0
H880 H 0.5006 0.61553 0.52466 0.0
C881 C 0.53882 0.56341 0.65183 0.0
C882 C 0.51957 0.55736 0.67346 0.0
C883 C 0.54211 0.58255 0.61858 0.0
C884 C 0.51435 0.62407 0.52982 0.0
H885 H 0.57015 0.68913 0.33657 0.0
H886 H 0.5683 0.66443 0.42724 0.0
H887 H 0.50546 0.64785 0.46256 0.0
H888 H 0.48882 0.56694 0.67892 0.0
H889 H 0.49461 0.60021 0.62305 0.0
H890 H 0.55898 0.62238 0.60391 0.0
C891 C 0.55613 0.67488 0.41808 0.0
C892 C 0.51712 0.6427 0.4941 0.0
C893 C 0.55728 0.6891 0.36635 0.0
C894 C 0.50379 0.57095 0.66205 0.0
C895 C 0.50711 0.59008 0.6297 0.0
C896 C 0.54721 0.62774 0.57312 0.0
C897 C 0.53849 0.67259 0.45305 0.0
C898 C 0.53504 0.65401 0.49668 0.0
C899 C 0.52625 0.59612 0.60689 0.0
C900 C 0.52935 0.61625 0.56976 0.0
H901 H 0.51125 0.70977 0.3747 0.0
H902 H 0.5093 0.68515 0.46586 0.0
H903 H 0.56405 0.65473 0.5396 0.0
H904 H 0.5513 0.5533 0.66005 0.0
H905 H 0.55701 0.58653 0.60117 0.0
C906 C 0.81969 0.50147 0.43097 0.0
C907 C 0.81547 0.51961 0.39453 0.0
C908 C 0.83466 0.50106 0.47471 0.0
C909 C 0.87018 0.53143 0.55672 0.0
H910 H 0.90716 0.48956 0.52557 0.0
C911 C 0.95139 0.52861 0.65073 0.0
C912 C 0.95912 0.50931 0.6692 0.0
C913 C 0.93301 0.53054 0.62054 0.0
C914 C 0.89694 0.50114 0.53585 0.0
H915 H 0.8224 0.55178 0.37779 0.0
H916 H 0.84844 0.55122 0.45521 0.0
H917 H 0.87507 0.49152 0.47494 0.0
H918 H 0.95344 0.47691 0.67097 0.0
H919 H 0.92146 0.48022 0.62018 0.0
H920 H 0.89213 0.54096 0.61809 0.0
C921 C 0.84011 0.53733 0.45035 0.0
C922 C 0.87847 0.50225 0.50673 0.0
C923 C 0.8251 0.53771 0.4064 0.0
C924 C 0.9481 0.49203 0.65674 0.0
C925 C 0.92971 0.49395 0.62728 0.0
C926 C 0.88866 0.53018 0.58659 0.0
C927 C 0.84577 0.51879 0.48253 0.0
C928 C 0.86485 0.51735 0.51685 0.0
C929 C 0.92188 0.5132 0.60861 0.0
C930 C 0.90228 0.51497 0.57656 0.0
H931 H 0.81269 0.48728 0.4218 0.0
H932 H 0.8385 0.48661 0.49949 0.0
H933 H 0.86 0.54327 0.5652 0.0
H934 H 0.95949 0.54222 0.65977 0.0
H935 H 0.92762 0.54562 0.60617 0.0
loop_
_geom_bond_atom_site_label_1
_geom_bond_atom_site_label_2
_geom_bond_distance
_geom_bond_site_symmetry_2
_ccdc_geom_bond_type
H0 C5 0.930 . S
H1 C8 0.930 . S
H2 C10 0.930 . S
H3 C4 1.016 . S
C4 H3 1.016 . S
C4 N11 1.286 . S
C5 H0 0.930 . S
C5 C6 1.397 . S
C5 C7 1.361 . S
C6 C5 1.397 . S
C6 C10 1.390 . S
C7 C5 1.361 . S
C7 C8 1.393 . S
C7 N11 1.413 . S
C8 H1 0.930 . S
C8 C7 1.393 . S
C8 C9 1.399 . S
C9 C8 1.399 . S
C9 C10 1.381 . S
C10 H2 0.930 . S
C10 C6 1.390 . S
C10 C9 1.381 . S
N11 C4 1.286 . S
N11 C7 1.413 . S
H12 C17 0.930 . S
H13 C20 0.930 . S
H14 C22 0.930 . S
H15 C16 1.016 . S
C16 H15 1.016 . S
C16 N23 1.286 . S
C17 H12 0.930 . S
C17 C18 1.397 . S
C17 C19 1.361 . S
C18 C17 1.397 . S
C18 C22 1.390 . S
C19 C17 1.361 . S
C19 C20 1.393 . S
C19 N23 1.413 . S
C20 H13 0.930 . S
C20 C19 1.393 . S
C20 C21 1.399 . S
C21 C20 1.399 . S
C21 C22 1.381 . S
C22 H14 0.930 . S
C22 C18 1.390 . S
C22 C21 1.381 . S
N23 C16 1.286 . S
N23 C19 1.413 . S
H24 C29 0.930 . S
H25 C32 0.930 1_556 S
H26 C34 0.930 . S
H27 C28 1.034 1_556 S
C28 H27 1.034 1_554 S
C28 N35 1.264 1_565 S
C29 H24 0.930 . S
C29 C30 1.405 . S
C29 C31 1.361 . S
C30 C29 1.405 . S
C30 C34 1.381 1_545 S
C31 C29 1.361 . S
C31 C32 1.393 . S
C31 N35 1.413 . S
C32 H25 0.930 1_554 S
C32 C31 1.393 . S
C32 C33 1.401 . S
C33 C32 1.401 . S
C33 C34 1.381 1_545 S
C34 H26 0.930 . S
C34 C30 1.381 1_565 S
C34 C33 1.381 1_565 S
N35 C28 1.264 1_545 S
N35 C31 1.413 . S
H36 C41 0.930 . S
H37 C44 0.930 . S
H38 C46 0.930 . S
H39 C40 1.016 . S
C40 H39 1.016 . S
C40 N47 1.286 . S
C41 H36 0.930 . S
C41 C42 1.397 . S
C41 C43 1.361 . S
C42 C41 1.397 . S
C42 C46 1.390 . S
C43 C41 1.361 . S
C43 C44 1.393 . S
C43 N47 1.413 . S
C44 H37 0.930 . S
C44 C43 1.393 . S
C44 C45 1.399 . S
C45 C44 1.399 . S
C45 C46 1.381 . S
C46 H38 0.930 . S
C46 C42 1.390 . S
C46 C45 1.381 . S
N47 C40 1.286 . S
N47 C43 1.413 . S
H48 C53 0.930 . S
H49 C56 0.930 . S
H50 C58 0.930 . S
H51 C52 1.016 . S
C52 H51 1.016 . S
C52 N59 1.286 . S
C53 H48 0.930 . S
C53 C54 1.397 . S
C53 C55 1.361 . S
C54 C53 1.397 . S
C54 C58 1.390 . S
C55 C53 1.361 . S
C55 C56 1.393 . S
C55 N59 1.413 . S
C56 H49 0.930 . S
C56 C55 1.393 . S
C56 C57 1.399 . S
C57 C56 1.399 . S
C57 C58 1.381 . S
C58 H50 0.930 . S
C58 C54 1.390 . S
C58 C57 1.381 . S
N59 C52 1.286 . S
N59 C55 1.413 . S
H60 C65 0.930 . S
H61 C68 0.930 . S
H62 C70 0.930 . S
H63 C64 1.016 . S
C64 H63 1.016 . S
C64 N71 1.286 . S
C65 H60 0.930 . S
C65 C66 1.397 . S
C65 C67 1.361 . S
C66 C65 1.397 . S
C66 C70 1.390 . S
C67 C65 1.361 . S
C67 C68 1.393 . S
C67 N71 1.413 . S
C68 H61 0.930 . S
C68 C67 1.393 . S
C68 C69 1.399 . S
C69 C68 1.399 . S
C69 C70 1.381 . S
C70 H62 0.930 . S
C70 C66 1.390 . S
C70 C69 1.381 . S
N71 C64 1.286 . S
N71 C67 1.413 . S
H72 C77 0.930 . S
H73 C80 0.930 . S
H74 C82 0.930 . S
H75 C76 1.022 . S
C76 H75 1.022 . S
C76 N83 1.277 1_565 S
C77 H72 0.930 . S
C77 C78 1.397 . S
C77 C79 1.361 . S
C78 C77 1.397 . S
C78 C82 1.390 1_545 S
C79 C77 1.361 . S
C79 C80 1.393 . S
C79 N83 1.413 . S
C80 H73 0.930 . S
C80 C79 1.393 . S
C80 C81 1.405 . S
C81 C80 1.405 . S
C81 C82 1.374 1_545 S
C82 H74 0.930 . S
C82 C78 1.390 1_565 S
C82 C81 1.374 1_565 S
N83 C76 1.277 1_545 S
N83 C79 1.413 . S
H84 C89 0.930 . S
H85 C92 0.930 . S
H86 C94 0.930 . S
H87 C88 1.016 . S
C88 H87 1.016 . S
C88 N95 1.286 . S
C89 H84 0.930 . S
C89 C90 1.397 . S
C89 C91 1.361 . S
C90 C89 1.397 . S
C90 C94 1.390 . S
C91 C89 1.361 . S
C91 C92 1.393 . S
C91 N95 1.413 . S
C92 H85 0.930 . S
C92 C91 1.393 . S
C92 C93 1.399 . S
C93 C92 1.399 . S
C93 C94 1.381 . S
C94 H86 0.930 . S
C94 C90 1.390 . S
C94 C93 1.381 . S
N95 C88 1.286 . S
N95 C91 1.413 . S
Co96 N101 2.057 . S
Co96 O113 2.021 . S
Co96 O116 2.062 . S
Co96 O120 2.117 1_455 S
Co96 O121 2.020 1_545 S
C97 O117 1.259 1_545 S
C97 O120 1.258 . S
Co98 N107 2.057 . S
Co98 O114 2.117 1_655 S
Co98 O115 2.018 1_665 S
Co98 O117 2.021 . S
Co98 O122 2.062 . S
C99 N101 1.316 . S
C99 N102 1.347 . S
C99 H104 0.931 . S
C100 N101 1.375 1_655 S
C100 C103 1.350 1_655 S
C100 H105 0.930 . S
N101 Co96 2.057 . S
N101 C99 1.316 . S
N101 C100 1.375 1_455 S
N102 C99 1.347 . S
N102 C103 1.373 . S
C103 C100 1.350 1_455 S
C103 N102 1.373 . S
C103 H124 0.931 1_455 S
H104 C99 0.931 . S
H105 C100 0.930 . S
C106 O113 1.259 1_565 S
C106 O114 1.258 . S
N107 Co98 2.057 . S
N107 C108 1.316 . S
N107 C109 1.375 1_655 S
C108 N107 1.316 . S
C108 N110 1.347 . S
C108 H119 0.931 . S
C109 N107 1.375 1_455 S
C109 C111 1.350 . S
C109 H118 0.930 . S
N110 C108 1.347 . S
N110 C111 1.373 1_655 S
C111 C109 1.350 . S
C111 N110 1.373 1_455 S
C111 H125 0.931 . S
C112 O115 1.263 . S
C112 O116 1.255 . S
O113 Co96 2.021 . S
O113 C106 1.259 1_545 S
O114 Co98 2.117 1_455 S
O114 C106 1.258 . S
O115 Co98 2.018 1_445 S
O115 C112 1.263 . S
O116 Co96 2.062 . S
O116 C112 1.255 . S
O117 C97 1.259 1_565 S
O117 Co98 2.021 . S
H118 C109 0.930 . S
H119 C108 0.931 . S
O120 Co96 2.117 1_655 S
O120 C97 1.258 . S
O121 Co96 2.020 1_565 S
O121 C123 1.256 . S
O122 Co98 2.062 . S
O122 C123 1.255 1_655 S
C123 O121 1.256 . S
C123 O122 1.255 1_455 S
H124 C103 0.931 1_655 S
H125 C111 0.931 . S
Co126 N131 2.057 1_545 S
Co126 O143 2.021 . S
Co126 O146 2.065 . S
Co126 O150 2.117 1_545 S
Co126 O151 2.020 . S
C127 O147 1.259 . S
C127 O150 1.258 . S
Co128 N137 2.057 1_565 S
Co128 O144 2.117 1_565 S
Co128 O145 2.020 . S
Co128 O147 2.021 . S
Co128 O152 2.062 . S
C129 N131 1.315 1_545 S
C129 N132 1.347 . S
C129 H134 0.931 . S
C130 N131 1.376 . S
C130 C133 1.350 . S
C130 H135 0.930 . S
N131 Co126 2.057 1_565 S
N131 C129 1.315 1_565 S
N131 C130 1.376 . S
N132 C129 1.347 . S
N132 C133 1.373 1_545 S
C133 C130 1.350 . S
C133 N132 1.373 1_565 S
C133 H154 0.931 1_556 S
H134 C129 0.931 . S
H135 C130 0.930 . S
C136 O143 1.259 . S
C136 O144 1.258 . S
N137 Co128 2.057 1_545 S
N137 C138 1.305 1_545 S
N137 C139 1.387 . S
C138 N137 1.305 1_565 S
C138 N140 1.347 . S
C138 H149 0.931 . S
C139 N137 1.387 . S
C139 C141 1.350 . S
C139 H148 0.930 . S
N140 C138 1.347 . S
N140 C141 1.373 1_565 S
C141 C139 1.350 . S
C141 N140 1.373 1_545 S
C141 H155 0.931 . S
C142 O145 1.256 . S
C142 O146 1.249 1_565 S
O143 Co126 2.021 . S
O143 C136 1.259 . S
O144 Co128 2.117 1_545 S
O144 C136 1.258 . S
O145 Co128 2.020 . S
O145 C142 1.256 . S
O146 Co126 2.065 . S
O146 C142 1.249 1_545 S
O147 C127 1.259 . S
O147 Co128 2.021 . S
H148 C139 0.930 . S
H149 C138 0.931 . S
O150 Co126 2.117 1_565 S
O150 C127 1.258 . S
O151 Co126 2.020 . S
O151 C153 1.256 . S
O152 Co128 2.062 . S
O152 C153 1.253 1_565 S
C153 O151 1.256 . S
C153 O152 1.253 1_545 S
H154 C133 0.931 1_554 S
H155 C141 0.931 . S
Co156 N161 2.057 . S
Co156 O173 2.021 . S
Co156 O176 2.062 . S
Co156 O180 2.117 . S
Co156 O181 2.020 . S
C157 O177 1.259 . S
C157 O180 1.258 . S
Co158 N167 2.057 . S
Co158 O174 2.117 . S
Co158 O175 2.020 . S
Co158 O177 2.021 . S
Co158 O182 2.062 . S
C159 N161 1.316 . S
C159 N162 1.347 . S
C159 H164 0.931 . S
C160 N161 1.375 . S
C160 C163 1.350 . S
C160 H165 0.930 . S
N161 Co156 2.057 . S
N161 C159 1.316 . S
N161 C160 1.375 . S
N162 C159 1.347 . S
N162 C163 1.373 . S
C163 C160 1.350 . S
C163 N162 1.373 . S
C163 H184 0.931 . S
H164 C159 0.931 . S
H165 C160 0.930 . S
C166 O173 1.259 . S
C166 O174 1.258 . S
N167 Co158 2.057 . S
N167 C168 1.316 . S
N167 C169 1.375 . S
C168 N167 1.316 . S
C168 N170 1.347 . S
C168 H179 0.931 . S
C169 N167 1.375 . S
C169 C171 1.350 . S
C169 H178 0.930 . S
N170 C168 1.347 . S
N170 C171 1.373 . S
C171 C169 1.350 . S
C171 N170 1.373 . S
C171 H185 0.931 . S
C172 O175 1.256 . S
C172 O176 1.255 . S
O173 Co156 2.021 . S
O173 C166 1.259 . S
O174 Co158 2.117 . S
O174 C166 1.258 . S
O175 Co158 2.020 . S
O175 C172 1.256 . S
O176 Co156 2.062 . S
O176 C172 1.255 . S
O177 C157 1.259 . S
O177 Co158 2.021 . S
H178 C169 0.930 . S
H179 C168 0.931 . S
O180 Co156 2.117 . S
O180 C157 1.258 . S
O181 Co156 2.020 . S
O181 C183 1.256 . S
O182 Co158 2.062 . S
O182 C183 1.255 . S
C183 O181 1.256 . S
C183 O182 1.255 . S
H184 C163 0.931 . S
H185 C171 0.931 . S
Co186 N191 2.057 . S
Co186 O203 2.021 1_455 S
Co186 O206 2.062 1_455 S
Co186 O210 2.117 . S
Co186 O211 2.020 . S
C187 O207 1.259 . S
C187 O210 1.258 . S
Co188 N197 2.057 . S
Co188 O204 2.117 1_455 S
Co188 O205 2.020 1_455 S
Co188 O207 2.021 . S
Co188 O212 2.062 . S
C189 N191 1.316 1_655 S
C189 N192 1.353 . S
C189 H194 0.931 . S
C190 N191 1.375 . S
C190 C193 1.350 . S
C190 H195 0.930 . S
N191 Co186 2.057 . S
N191 C189 1.316 1_455 S
N191 C190 1.375 . S
N192 C189 1.353 . S
N192 C193 1.350 1_655 S
C193 C190 1.350 . S
C193 N192 1.350 1_455 S
C193 H214 0.931 . S
H194 C189 0.931 . S
H195 C190 0.930 . S
C196 O203 1.259 . S
C196 O204 1.258 . S
N197 Co188 2.057 . S
N197 C198 1.316 . S
N197 C199 1.375 1_455 S
C198 N197 1.316 . S
C198 N200 1.347 . S
C198 H209 0.931 . S
C199 N197 1.375 1_655 S
C199 C201 1.350 . S
C199 H208 0.930 . S
N200 C198 1.347 . S
N200 C201 1.373 1_455 S
C201 C199 1.350 . S
C201 N200 1.373 1_655 S
C201 H215 0.931 . S
C202 O205 1.256 . S
C202 O206 1.255 . S
O203 Co186 2.021 1_655 S
O203 C196 1.259 . S
O204 Co188 2.117 1_655 S
O204 C196 1.258 . S
O205 Co188 2.020 1_655 S
O205 C202 1.256 . S
O206 Co186 2.062 1_655 S
O206 C202 1.255 . S
O207 C187 1.259 . S
O207 Co188 2.021 . S
H208 C199 0.930 . S
H209 C198 0.931 . S
O210 Co186 2.117 . S
O210 C187 1.258 . S
O211 Co186 2.020 . S
O211 C213 1.256 . S
O212 Co188 2.062 . S
O212 C213 1.255 . S
C213 O211 1.256 . S
C213 O212 1.255 . S
H214 C193 0.931 . S
H215 C201 0.931 . S
C216 C217 1.346 1_545 S
C216 C218 1.327 . S
C216 H241 0.950 . S
C217 C216 1.346 1_565 S
C217 C233 1.352 . S
C218 C216 1.327 . S
C218 C237 1.429 1_545 S
C218 H242 0.950 . S
C219 C236 1.574 . S
C219 C238 1.368 . S
C219 H243 0.949 . S
H220 C224 0.949 . S
C221 C222 1.349 . S
C221 C223 1.327 . S
C221 H244 0.950 . S
C222 C221 1.349 . S
C222 C234 1.349 1_565 S
C223 C221 1.327 . S
C223 C239 1.429 . S
C223 H245 0.950 . S
C224 H220 0.949 . S
C224 C232 1.574 . S
C224 C240 1.368 1_545 S
H225 C233 0.950 . S
H226 C231 0.950 . S
H227 C232 0.949 . S
H228 C234 0.950 . S
H229 C235 0.950 . S
H230 C236 0.949 . S
C231 H226 0.950 . S
C231 C233 1.327 . S
C231 C237 1.429 . S
C232 C224 1.574 . S
C232 H227 0.949 . S
C232 C238 1.368 1_545 S
C233 C217 1.352 . S
C233 H225 0.950 . S
C233 C231 1.327 . S
C234 C222 1.349 1_545 S
C234 H228 0.950 . S
C234 C235 1.327 . S
C235 H229 0.950 . S
C235 C234 1.327 . S
C235 C239 1.429 1_545 S
C236 C219 1.574 . S
C236 H230 0.949 . S
C236 C240 1.368 . S
C237 C218 1.429 1_565 S
C237 C231 1.429 . S
C237 C238 1.523 . S
C238 C219 1.368 . S
C238 C232 1.368 1_565 S
C238 C237 1.523 . S
C239 C223 1.429 . S
C239 C235 1.429 1_565 S
C239 C240 1.523 . S
C240 C224 1.368 1_565 S
C240 C236 1.368 . S
C240 C239 1.523 . S
H241 C216 0.950 . S
H242 C218 0.950 . S
H243 C219 0.949 . S
H244 C221 0.950 . S
H245 C223 0.950 . S
C246 C247 1.349 . S
C246 C248 1.327 . S
C246 H271 0.950 . S
C247 C246 1.349 . S
C247 C263 1.349 . S
C248 C246 1.327 . S
C248 C267 1.429 . S
C248 H272 0.950 . S
C249 C266 1.574 . S
C249 C268 1.368 . S
C249 H273 0.949 . S
H250 C254 0.949 . S
C251 C252 1.349 . S
C251 C253 1.327 . S
C251 H274 0.950 . S
C252 C251 1.349 . S
C252 C264 1.349 . S
C253 C251 1.327 . S
C253 C269 1.429 . S
C253 H275 0.950 . S
C254 H250 0.949 . S
C254 C262 1.574 . S
C254 C270 1.368 . S
H255 C263 0.950 . S
H256 C261 0.950 . S
H257 C262 0.949 . S
H258 C264 0.950 . S
H259 C265 0.950 . S
H260 C266 0.949 . S
C261 H256 0.950 . S
C261 C263 1.327 . S
C261 C267 1.429 . S
C262 C254 1.574 . S
C262 H257 0.949 . S
C262 C268 1.368 . S
C263 C247 1.349 . S
C263 H255 0.950 . S
C263 C261 1.327 . S
C264 C252 1.349 . S
C264 H258 0.950 . S
C264 C265 1.327 . S
C265 H259 0.950 . S
C265 C264 1.327 . S
C265 C269 1.429 . S
C266 C249 1.574 . S
C266 H260 0.949 . S
C266 C270 1.368 . S
C267 C248 1.429 . S
C267 C261 1.429 . S
C267 C268 1.523 . S
C268 C249 1.368 . S
C268 C262 1.368 . S
C268 C267 1.523 . S
C269 C253 1.429 . S
C269 C265 1.429 . S
C269 C270 1.523 . S
C270 C254 1.368 . S
C270 C266 1.368 . S
C270 C269 1.523 . S
H271 C246 0.950 . S
H272 C248 0.950 . S
H273 C249 0.949 . S
H274 C251 0.950 . S
H275 C253 0.950 . S
C276 C277 1.349 . S
C276 C278 1.327 . S
C276 H301 0.950 . S
C277 C276 1.349 . S
C277 C293 1.349 . S
C278 C276 1.327 . S
C278 C297 1.429 . S
C278 H302 0.950 . S
C279 C296 1.574 . S
C279 C298 1.368 . S
C279 H303 0.949 . S
H280 C284 0.949 . S
C281 C282 1.349 . S
C281 C283 1.327 . S
C281 H304 0.950 . S
C282 C281 1.349 . S
C282 C294 1.349 . S
C283 C281 1.327 . S
C283 C299 1.429 . S
C283 H305 0.950 . S
C284 H280 0.949 . S
C284 C292 1.574 . S
C284 C300 1.368 . S
H285 C293 0.950 . S
H286 C291 0.950 . S
H287 C292 0.949 . S
H288 C294 0.950 . S
H289 C295 0.950 . S
H290 C296 0.949 . S
C291 H286 0.950 . S
C291 C293 1.327 . S
C291 C297 1.429 . S
C292 C284 1.574 . S
C292 H287 0.949 . S
C292 C298 1.368 . S
C293 C277 1.349 . S
C293 H285 0.950 . S
C293 C291 1.327 . S
C294 C282 1.349 . S
C294 H288 0.950 . S
C294 C295 1.327 . S
C295 H289 0.950 . S
C295 C294 1.327 . S
C295 C299 1.429 . S
C296 C279 1.574 . S
C296 H290 0.949 . S
C296 C300 1.368 . S
C297 C278 1.429 . S
C297 C291 1.429 . S
C297 C298 1.523 . S
C298 C279 1.368 . S
C298 C292 1.368 . S
C298 C297 1.523 . S
C299 C283 1.429 . S
C299 C295 1.429 . S
C299 C300 1.523 . S
C300 C284 1.368 . S
C300 C296 1.368 . S
C300 C299 1.523 . S
H301 C276 0.950 . S
H302 C278 0.950 . S
H303 C279 0.949 . S
H304 C281 0.950 . S
H305 C283 0.950 . S
C306 C307 1.349 . S
C306 C308 1.327 . S
C306 H331 0.950 . S
C307 C306 1.349 . S
C307 C323 1.349 . S
C308 C306 1.327 . S
C308 C327 1.429 . S
C308 H332 0.950 . S
C309 C326 1.574 . S
C309 C328 1.368 . S
C309 H333 0.949 . S
H310 C314 0.949 . S
C311 C312 1.349 . S
C311 C313 1.327 . S
C311 H334 0.950 . S
C312 C311 1.349 . S
C312 C324 1.349 . S
C313 C311 1.327 . S
C313 C329 1.429 . S
C313 H335 0.950 . S
C314 H310 0.949 . S
C314 C322 1.574 . S
C314 C330 1.368 . S
H315 C323 0.950 . S
H316 C321 0.950 . S
H317 C322 0.949 . S
H318 C324 0.950 . S
H319 C325 0.950 . S
H320 C326 0.949 . S
C321 H316 0.950 . S
C321 C323 1.327 . S
C321 C327 1.429 . S
C322 C314 1.574 . S
C322 H317 0.949 . S
C322 C328 1.368 . S
C323 C307 1.349 . S
C323 H315 0.950 . S
C323 C321 1.327 . S
C324 C312 1.349 . S
C324 H318 0.950 . S
C324 C325 1.327 . S
C325 H319 0.950 . S
C325 C324 1.327 . S
C325 C329 1.429 . S
C326 C309 1.574 . S
C326 H320 0.949 . S
C326 C330 1.368 . S
C327 C308 1.429 . S
C327 C321 1.429 . S
C327 C328 1.523 . S
C328 C309 1.368 . S
C328 C322 1.368 . S
C328 C327 1.523 . S
C329 C313 1.429 . S
C329 C325 1.429 . S
C329 C330 1.523 . S
C330 C314 1.368 . S
C330 C326 1.368 . S
C330 C329 1.523 . S
H331 C306 0.950 . S
H332 C308 0.950 . S
H333 C309 0.949 . S
H334 C311 0.950 . S
H335 C313 0.950 . S
C336 C337 1.361 . S
C336 C338 1.327 . S
C336 H361 0.950 . S
C337 C336 1.361 . S
C337 C353 1.336 1_544 S
C338 C336 1.327 . S
C338 C357 1.429 1_554 S
C338 H362 0.950 . S
C339 C356 1.574 . S
C339 C358 1.368 1_565 S
C339 H363 0.949 . S
H340 C344 0.949 . S
C341 C342 1.349 1_565 S
C341 C343 1.327 . S
C341 H364 0.950 . S
C342 C341 1.349 1_545 S
C342 C354 1.349 . S
C343 C341 1.327 . S
C343 C359 1.429 1_565 S
C343 H365 0.950 . S
C344 H340 0.949 . S
C344 C352 1.574 . S
C344 C360 1.368 . S
H345 C353 0.950 . S
H346 C351 0.950 . S
H347 C352 0.949 . S
H348 C354 0.950 . S
H349 C355 0.950 . S
H350 C356 0.949 . S
C351 H346 0.950 . S
C351 C353 1.327 . S
C351 C357 1.429 1_565 S
C352 C344 1.574 . S
C352 H347 0.949 . S
C352 C358 1.368 . S
C353 C337 1.336 1_566 S
C353 H345 0.950 . S
C353 C351 1.327 . S
C354 C342 1.349 . S
C354 H348 0.950 . S
C354 C355 1.327 . S
C355 H349 0.950 . S
C355 C354 1.327 . S
C355 C359 1.429 . S
C356 C339 1.574 . S
C356 H350 0.949 . S
C356 C360 1.368 1_565 S
C357 C338 1.429 1_556 S
C357 C351 1.429 1_545 S
C357 C358 1.523 . S
C358 C339 1.368 1_545 S
C358 C352 1.368 . S
C358 C357 1.523 . S
C359 C343 1.429 1_545 S
C359 C355 1.429 . S
C359 C360 1.523 . S
C360 C344 1.368 . S
C360 C356 1.368 1_545 S
C360 C359 1.523 . S
H361 C336 0.950 . S
H362 C338 0.950 . S
H363 C339 0.949 . S
H364 C341 0.950 . S
H365 C343 0.950 . S
C366 C367 1.349 1_556 S
C366 C368 1.327 . S
C366 H391 0.950 . S
C367 C366 1.349 1_554 S
C367 C383 1.349 . S
C368 C366 1.327 . S
C368 C387 1.429 . S
C368 H392 0.950 . S
C369 C386 1.574 1_554 S
C369 C388 1.368 1_554 S
C369 H393 0.949 . S
H370 C374 0.949 . S
C371 C372 1.349 . S
C371 C373 1.327 . S
C371 H394 0.950 . S
C372 C371 1.349 . S
C372 C384 1.349 . S
C373 C371 1.327 . S
C373 C389 1.429 . S
C373 H395 0.950 . S
C374 H370 0.949 . S
C374 C382 1.574 . S
C374 C390 1.368 . S
H375 C383 0.950 . S
H376 C381 0.950 . S
H377 C382 0.949 . S
H378 C384 0.950 . S
H379 C385 0.950 . S
H380 C386 0.939 1_554 S
C381 H376 0.950 . S
C381 C383 1.327 . S
C381 C387 1.429 1_554 S
C382 C374 1.574 . S
C382 H377 0.949 . S
C382 C388 1.368 . S
C383 C367 1.349 . S
C383 H375 0.950 . S
C383 C381 1.327 . S
C384 C372 1.349 . S
C384 H378 0.950 . S
C384 C385 1.327 . S
C385 H379 0.950 . S
C385 C384 1.327 . S
C385 C389 1.429 . S
C386 C369 1.574 1_556 S
C386 H380 0.939 1_556 S
C386 C390 1.368 . S
C387 C368 1.429 . S
C387 C381 1.429 1_556 S
C387 C388 1.523 . S
C388 C369 1.368 1_556 S
C388 C382 1.368 . S
C388 C387 1.523 . S
C389 C373 1.429 . S
C389 C385 1.429 . S
C389 C390 1.523 . S
C390 C374 1.368 . S
C390 C386 1.368 . S
C390 C389 1.523 . S
H391 C366 0.950 . S
H392 C368 0.950 . S
H393 C369 0.949 . S
H394 C371 0.950 . S
H395 C373 0.950 . S
C396 C397 1.349 . S
C396 C398 1.327 . S
C396 H421 0.950 . S
C397 C396 1.349 . S
C397 C413 1.349 . S
C398 C396 1.327 . S
C398 C417 1.429 . S
C398 H422 0.950 . S
C399 C416 1.574 . S
C399 C418 1.368 1_556 S
C399 H423 0.949 . S
H400 C404 0.949 . S
C401 C402 1.349 . S
C401 C403 1.327 . S
C401 H424 0.950 . S
C402 C401 1.349 . S
C402 C414 1.349 . S
C403 C401 1.327 . S
C403 C419 1.429 . S
C403 H425 0.950 . S
C404 H400 0.949 . S
C404 C412 1.574 . S
C404 C420 1.368 1_554 S
H405 C413 0.950 . S
H406 C411 0.950 1_556 S
H407 C412 0.949 . S
H408 C414 0.950 . S
H409 C415 0.950 . S
H410 C416 0.949 . S
C411 H406 0.950 1_554 S
C411 C413 1.327 . S
C411 C417 1.429 . S
C412 C404 1.574 . S
C412 H407 0.949 . S
C412 C418 1.368 . S
C413 C397 1.349 . S
C413 H405 0.950 . S
C413 C411 1.327 . S
C414 C402 1.349 . S
C414 H408 0.950 . S
C414 C415 1.327 . S
C415 H409 0.950 . S
C415 C414 1.327 . S
C415 C419 1.429 . S
C416 C399 1.574 . S
C416 H410 0.949 . S
C416 C420 1.368 . S
C417 C398 1.429 . S
C417 C411 1.429 . S
C417 C418 1.523 . S
C418 C399 1.368 1_554 S
C418 C412 1.368 . S
C418 C417 1.523 . S
C419 C403 1.429 . S
C419 C415 1.429 . S
C419 C420 1.523 . S
C420 C404 1.368 1_556 S
C420 C416 1.368 . S
C420 C419 1.523 . S
H421 C396 0.950 . S
H422 C398 0.950 . S
H423 C399 0.949 . S
H424 C401 0.950 . S
H425 C403 0.950 . S
C426 C427 1.349 . S
C426 C428 1.327 . S
C426 H451 0.950 . S
C427 C426 1.349 . S
C427 C443 1.349 . S
C428 C426 1.327 . S
C428 C447 1.429 . S
C428 H452 0.950 . S
C429 C446 1.574 . S
C429 C448 1.368 . S
C429 H453 0.949 . S
H430 C434 0.949 . S
C431 C432 1.355 . S
C431 C433 1.331 . S
C431 H454 0.940 1_655 S
C432 C431 1.355 . S
C432 C444 1.349 . S
C433 C431 1.331 . S
C433 C449 1.429 . S
C433 H455 0.950 1_655 S
C434 H430 0.949 . S
C434 C442 1.574 1_556 S
C434 C450 1.368 . S
H435 C443 0.950 . S
H436 C441 0.950 . S
H437 C442 0.949 . S
H438 C444 0.950 . S
H439 C445 0.950 . S
H440 C446 0.949 . S
C441 H436 0.950 . S
C441 C443 1.327 1_556 S
C441 C447 1.429 1_556 S
C442 C434 1.574 1_554 S
C442 H437 0.949 . S
C442 C448 1.368 1_554 S
C443 C427 1.349 . S
C443 H435 0.950 . S
C443 C441 1.327 1_554 S
C444 C432 1.349 . S
C444 H438 0.950 . S
C444 C445 1.327 . S
C445 H439 0.950 . S
C445 C444 1.327 . S
C445 C449 1.429 . S
C446 C429 1.574 . S
C446 H440 0.949 . S
C446 C450 1.368 . S
C447 C428 1.429 . S
C447 C441 1.429 1_554 S
C447 C448 1.523 1_554 S
C448 C429 1.368 . S
C448 C442 1.368 1_556 S
C448 C447 1.523 1_556 S
C449 C433 1.429 . S
C449 C445 1.429 . S
C449 C450 1.523 . S
C450 C434 1.368 . S
C450 C446 1.368 . S
C450 C449 1.523 . S
H451 C426 0.950 . S
H452 C428 0.950 . S
H453 C429 0.949 . S
H454 C431 0.940 1_455 S
H455 C433 0.950 1_455 S
C456 C457 1.349 . S
C456 C458 1.327 . S
C456 H481 0.950 . S
C457 C456 1.349 . S
C457 C473 1.349 . S
C458 C456 1.327 . S
C458 C477 1.429 . S
C458 H482 0.950 . S
C459 C476 1.574 . S
C459 C478 1.368 . S
C459 H483 0.949 . S
H460 C464 0.949 . S
C461 C462 1.349 1_655 S
C461 C463 1.327 1_655 S
C461 H484 0.950 . S
C462 C461 1.349 1_455 S
C462 C474 1.349 . S
C463 C461 1.327 1_455 S
C463 C479 1.429 . S
C463 H485 0.950 1_455 S
C464 H460 0.949 . S
C464 C472 1.574 . S
C464 C480 1.368 . S
H465 C473 0.950 . S
H466 C471 0.950 . S
H467 C472 0.949 . S
H468 C474 0.950 . S
H469 C475 0.950 . S
H470 C476 0.949 . S
C471 H466 0.950 . S
C471 C473 1.327 . S
C471 C477 1.429 . S
C472 C464 1.574 . S
C472 H467 0.949 . S
C472 C478 1.368 . S
C473 C457 1.349 . S
C473 H465 0.950 . S
C473 C471 1.327 . S
C474 C462 1.349 . S
C474 H468 0.950 . S
C474 C475 1.327 . S
C475 H469 0.950 . S
C475 C474 1.327 . S
C475 C479 1.429 . S
C476 C459 1.574 . S
C476 H470 0.949 . S
C476 C480 1.368 . S
C477 C458 1.429 . S
C477 C471 1.429 . S
C477 C478 1.523 . S
C478 C459 1.368 . S
C478 C472 1.368 . S
C478 C477 1.523 . S
C479 C463 1.429 . S
C479 C475 1.429 . S
C479 C480 1.523 . S
C480 C464 1.368 . S
C480 C476 1.368 . S
C480 C479 1.523 . S
H481 C456 0.950 . S
H482 C458 0.950 . S
H483 C459 0.949 . S
H484 C461 0.950 . S
H485 C463 0.950 1_655 S
C486 C487 1.355 . S
C486 C488 1.327 . S
C486 H511 0.950 . S
C487 C486 1.355 . S
C487 C503 1.343 1_545 S
C488 C486 1.327 . S
C488 C507 1.429 1_545 S
C488 H512 0.950 . S
C489 C506 1.574 . S
C489 C508 1.368 . S
C489 H513 0.949 . S
H490 C494 0.949 . S
C491 C492 1.349 . S
C491 C493 1.327 . S
C491 H514 0.950 . S
C492 C491 1.349 . S
C492 C504 1.349 1_565 S
C493 C491 1.327 . S
C493 C509 1.429 . S
C493 H515 0.950 . S
C494 H490 0.949 . S
C494 C502 1.574 . S
C494 C510 1.368 1_545 S
H495 C503 0.950 . S
H496 C501 0.950 . S
H497 C502 0.949 . S
H498 C504 0.950 . S
H499 C505 0.950 . S
H500 C506 0.949 . S
C501 H496 0.950 . S
C501 C503 1.327 . S
C501 C507 1.429 . S
C502 C494 1.574 . S
C502 H497 0.949 . S
C502 C508 1.368 1_545 S
C503 C487 1.343 1_565 S
C503 H495 0.950 . S
C503 C501 1.327 . S
C504 C492 1.349 1_545 S
C504 H498 0.950 . S
C504 C505 1.327 . S
C505 H499 0.950 . S
C505 C504 1.327 . S
C505 C509 1.429 1_545 S
C506 C489 1.574 . S
C506 H500 0.949 . S
C506 C510 1.368 . S
C507 C488 1.429 1_565 S
C507 C501 1.429 . S
C507 C508 1.523 . S
C508 C489 1.368 . S
C508 C502 1.368 1_565 S
C508 C507 1.523 . S
C509 C493 1.429 . S
C509 C505 1.429 1_565 S
C509 C510 1.523 . S
C510 C494 1.368 1_565 S
C510 C506 1.368 . S
C510 C509 1.523 . S
H511 C486 0.950 . S
H512 C488 0.950 . S
H513 C489 0.949 . S
H514 C491 0.950 . S
H515 C493 0.950 . S
C516 C517 1.349 . S
C516 C518 1.327 . S
C516 H541 0.950 . S
C517 C516 1.349 . S
C517 C533 1.349 . S
C518 C516 1.327 . S
C518 C537 1.429 . S
C518 H542 0.950 . S
C519 C536 1.574 . S
C519 C538 1.368 . S
C519 H543 0.949 . S
H520 C524 0.949 . S
C521 C522 1.349 . S
C521 C523 1.327 . S
C521 H544 0.950 . S
C522 C521 1.349 . S
C522 C534 1.349 . S
C523 C521 1.327 . S
C523 C539 1.429 . S
C523 H545 0.950 . S
C524 H520 0.949 . S
C524 C532 1.574 . S
C524 C540 1.368 . S
H525 C533 0.950 . S
H526 C531 0.950 . S
H527 C532 0.949 . S
H528 C534 0.950 . S
H529 C535 0.950 . S
H530 C536 0.949 . S
C531 H526 0.950 . S
C531 C533 1.327 . S
C531 C537 1.429 . S
C532 C524 1.574 . S
C532 H527 0.949 . S
C532 C538 1.368 . S
C533 C517 1.349 . S
C533 H525 0.950 . S
C533 C531 1.327 . S
C534 C522 1.349 . S
C534 H528 0.950 . S
C534 C535 1.327 . S
C535 H529 0.950 . S
C535 C534 1.327 . S
C535 C539 1.429 . S
C536 C519 1.574 . S
C536 H530 0.949 . S
C536 C540 1.368 . S
C537 C518 1.429 . S
C537 C531 1.429 . S
C537 C538 1.523 . S
C538 C519 1.368 . S
C538 C532 1.368 . S
C538 C537 1.523 . S
C539 C523 1.429 . S
C539 C535 1.429 . S
C539 C540 1.523 . S
C540 C524 1.368 . S
C540 C536 1.368 . S
C540 C539 1.523 . S
H541 C516 0.950 . S
H542 C518 0.950 . S
H543 C519 0.949 . S
H544 C521 0.950 . S
H545 C523 0.950 . S
C546 C547 1.349 . S
C546 C548 1.327 . S
C546 H571 0.950 . S
C547 C546 1.349 . S
C547 C563 1.349 . S
C548 C546 1.327 . S
C548 C567 1.429 . S
C548 H572 0.950 . S
C549 C566 1.574 . S
C549 C568 1.368 . S
C549 H573 0.949 . S
H550 C554 0.949 . S
C551 C552 1.349 . S
C551 C553 1.327 . S
C551 H574 0.950 . S
C552 C551 1.349 . S
C552 C564 1.349 . S
C553 C551 1.327 . S
C553 C569 1.429 . S
C553 H575 0.950 . S
C554 H550 0.949 . S
C554 C562 1.574 . S
C554 C570 1.368 . S
H555 C563 0.950 . S
H556 C561 0.950 . S
H557 C562 0.949 . S
H558 C564 0.950 . S
H559 C565 0.950 . S
H560 C566 0.949 . S
C561 H556 0.950 . S
C561 C563 1.327 . S
C561 C567 1.429 . S
C562 C554 1.574 . S
C562 H557 0.949 . S
C562 C568 1.368 . S
C563 C547 1.349 . S
C563 H555 0.950 . S
C563 C561 1.327 . S
C564 C552 1.349 . S
C564 H558 0.950 . S
C564 C565 1.327 . S
C565 H559 0.950 . S
C565 C564 1.327 . S
C565 C569 1.429 . S
C566 C549 1.574 . S
C566 H560 0.949 . S
C566 C570 1.368 . S
C567 C548 1.429 . S
C567 C561 1.429 . S
C567 C568 1.523 . S
C568 C549 1.368 . S
C568 C562 1.368 . S
C568 C567 1.523 . S
C569 C553 1.429 . S
C569 C565 1.429 . S
C569 C570 1.523 . S
C570 C554 1.368 . S
C570 C566 1.368 . S
C570 C569 1.523 . S
H571 C546 0.950 . S
H572 C548 0.950 . S
H573 C549 0.949 . S
H574 C551 0.950 . S
H575 C553 0.950 . S
C576 C577 1.349 . S
C576 C578 1.327 . S
C576 H601 0.950 . S
C577 C576 1.349 . S
C577 C593 1.349 . S
C578 C576 1.327 . S
C578 C597 1.429 . S
C578 H602 0.950 . S
C579 C596 1.574 . S
C579 C598 1.368 . S
C579 H603 0.949 . S
H580 C584 0.949 1_554 S
C581 C582 1.349 1_655 S
C581 C583 1.327 . S
C581 H604 0.950 . S
C582 C581 1.349 1_455 S
C582 C594 1.349 . S
C583 C581 1.327 . S
C583 C599 1.429 . S
C583 H605 0.950 . S
C584 H580 0.949 1_556 S
C584 C592 1.574 1_556 S
C584 C600 1.368 . S
H585 C593 0.950 1_556 S
H586 C591 0.950 . S
H587 C592 0.949 . S
H588 C594 0.950 . S
H589 C595 0.950 . S
H590 C596 0.949 . S
C591 H586 0.950 . S
C591 C593 1.327 1_556 S
C591 C597 1.429 1_556 S
C592 C584 1.574 1_554 S
C592 H587 0.949 . S
C592 C598 1.368 1_554 S
C593 C577 1.349 . S
C593 H585 0.950 1_554 S
C593 C591 1.327 1_554 S
C594 C582 1.349 . S
C594 H588 0.950 . S
C594 C595 1.327 . S
C595 H589 0.950 . S
C595 C594 1.327 . S
C595 C599 1.429 1_455 S
C596 C579 1.574 . S
C596 H590 0.949 . S
C596 C600 1.368 . S
C597 C578 1.429 . S
C597 C591 1.429 1_554 S
C597 C598 1.523 1_554 S
C598 C579 1.368 . S
C598 C592 1.368 1_556 S
C598 C597 1.523 1_556 S
C599 C583 1.429 . S
C599 C595 1.429 1_655 S
C599 C600 1.523 . S
C600 C584 1.368 . S
C600 C596 1.368 . S
C600 C599 1.523 . S
H601 C576 0.950 . S
H602 C578 0.950 . S
H603 C579 0.949 . S
H604 C581 0.950 . S
H605 C583 0.950 . S
C606 C607 1.350 1_546 S
C606 C608 1.327 . S
C606 H631 0.950 . S
C607 C606 1.350 1_564 S
C607 C623 1.348 . S
C608 C606 1.327 . S
C608 C627 1.429 . S
C608 H632 0.950 . S
C609 C626 1.574 . S
C609 C628 1.368 1_565 S
C609 H633 0.949 . S
H610 C614 0.949 . S
C611 C612 1.349 1_565 S
C611 C613 1.327 . S
C611 H634 0.950 . S
C612 C611 1.349 1_545 S
C612 C624 1.349 . S
C613 C611 1.327 . S
C613 C629 1.429 1_565 S
C613 H635 0.950 . S
C614 H610 0.949 . S
C614 C622 1.574 . S
C614 C630 1.368 . S
H615 C623 0.950 . S
H616 C621 0.950 . S
H617 C622 0.949 . S
H618 C624 0.950 . S
H619 C625 0.950 . S
H620 C626 0.949 . S
C621 H616 0.950 . S
C621 C623 1.327 . S
C621 C627 1.429 1_564 S
C622 C614 1.574 . S
C622 H617 0.949 . S
C622 C628 1.368 . S
C623 C607 1.348 . S
C623 H615 0.950 . S
C623 C621 1.327 . S
C624 C612 1.349 . S
C624 H618 0.950 . S
C624 C625 1.327 . S
C625 H619 0.950 . S
C625 C624 1.327 . S
C625 C629 1.429 . S
C626 C609 1.574 . S
C626 H620 0.949 . S
C626 C630 1.368 1_565 S
C627 C608 1.429 . S
C627 C621 1.429 1_546 S
C627 C628 1.523 . S
C628 C609 1.368 1_545 S
C628 C622 1.368 . S
C628 C627 1.523 . S
C629 C613 1.429 1_545 S
C629 C625 1.429 . S
C629 C630 1.523 . S
C630 C614 1.368 . S
C630 C626 1.368 1_545 S
C630 C629 1.523 . S
H631 C606 0.950 . S
H632 C608 0.950 . S
H633 C609 0.949 . S
H634 C611 0.950 . S
H635 C613 0.950 . S
C636 C637 1.349 . S
C636 C638 1.327 . S
C636 H661 0.950 . S
C637 C636 1.349 . S
C637 C653 1.358 . S
C638 C636 1.327 . S
C638 C657 1.429 . S
C638 H662 0.950 . S
C639 C656 1.574 . S
C639 C658 1.368 . S
C639 H663 0.949 . S
H640 C644 0.949 1_554 S
C641 C642 1.349 . S
C641 C643 1.327 . S
C641 H664 0.950 . S
C642 C641 1.349 . S
C642 C654 1.349 . S
C643 C641 1.327 . S
C643 C659 1.429 . S
C643 H665 0.950 . S
C644 H640 0.949 1_556 S
C644 C652 1.574 1_556 S
C644 C660 1.368 . S
H645 C653 0.946 1_556 S
H646 C651 0.950 . S
H647 C652 0.949 . S
H648 C654 0.950 . S
H649 C655 0.950 . S
H650 C656 0.949 . S
C651 H646 0.950 . S
C651 C653 1.322 1_556 S
C651 C657 1.429 1_556 S
C652 C644 1.574 1_554 S
C652 H647 0.949 . S
C652 C658 1.368 1_554 S
C653 C637 1.358 . S
C653 H645 0.946 1_554 S
C653 C651 1.322 1_554 S
C654 C642 1.349 . S
C654 H648 0.950 . S
C654 C655 1.327 . S
C655 H649 0.950 . S
C655 C654 1.327 . S
C655 C659 1.429 . S
C656 C639 1.574 . S
C656 H650 0.949 . S
C656 C660 1.368 . S
C657 C638 1.429 . S
C657 C651 1.429 1_554 S
C657 C658 1.523 1_554 S
C658 C639 1.368 . S
C658 C652 1.368 1_556 S
C658 C657 1.523 1_556 S
C659 C643 1.429 . S
C659 C655 1.429 . S
C659 C660 1.523 . S
C660 C644 1.368 . S
C660 C656 1.368 . S
C660 C659 1.523 . S
H661 C636 0.950 . S
H662 C638 0.950 . S
H663 C639 0.949 . S
H664 C641 0.950 . S
H665 C643 0.950 . S
C666 C667 1.349 . S
C666 C668 1.327 . S
C666 H691 0.950 . S
C667 C666 1.349 . S
C667 C683 1.349 . S
C668 C666 1.327 . S
C668 C687 1.429 . S
C668 H692 0.950 1_554 S
C669 C686 1.574 . S
C669 C688 1.368 . S
C669 H693 0.949 . S
H670 C674 0.949 . S
C671 C672 1.349 . S
C671 C673 1.327 . S
C671 H694 0.950 . S
C672 C671 1.349 . S
C672 C684 1.349 . S
C673 C671 1.327 . S
C673 C689 1.429 . S
C673 H695 0.950 . S
C674 H670 0.949 . S
C674 C682 1.574 . S
C674 C690 1.368 . S
H675 C683 0.950 . S
H676 C681 0.950 . S
H677 C682 0.949 . S
H678 C684 0.950 . S
H679 C685 0.950 . S
H680 C686 0.949 . S
C681 H676 0.950 . S
C681 C683 1.327 . S
C681 C687 1.429 . S
C682 C674 1.574 . S
C682 H677 0.949 . S
C682 C688 1.368 1_556 S
C683 C667 1.349 . S
C683 H675 0.950 . S
C683 C681 1.327 . S
C684 C672 1.349 . S
C684 H678 0.950 . S
C684 C685 1.327 . S
C685 H679 0.950 . S
C685 C684 1.327 . S
C685 C689 1.429 . S
C686 C669 1.574 . S
C686 H680 0.949 . S
C686 C690 1.368 1_554 S
C687 C668 1.429 . S
C687 C681 1.429 . S
C687 C688 1.523 . S
C688 C669 1.368 . S
C688 C682 1.368 1_554 S
C688 C687 1.523 . S
C689 C673 1.429 . S
C689 C685 1.429 . S
C689 C690 1.523 . S
C690 C674 1.368 . S
C690 C686 1.368 1_556 S
C690 C689 1.523 . S
H691 C666 0.950 . S
H692 C668 0.950 1_556 S
H693 C669 0.949 . S
H694 C671 0.950 . S
H695 C673 0.950 . S
C696 C697 1.349 . S
C696 C698 1.327 . S
C696 H721 0.950 . S
C697 C696 1.349 . S
C697 C713 1.349 . S
C698 C696 1.327 . S
C698 C717 1.429 . S
C698 H722 0.950 . S
C699 C716 1.574 . S
C699 C718 1.368 . S
C699 H723 0.949 . S
H700 C704 0.949 . S
C701 C702 1.339 1_554 S
C701 C703 1.327 . S
C701 H724 0.950 . S
C702 C701 1.339 1_556 S
C702 C714 1.348 . S
C703 C701 1.327 . S
C703 C719 1.429 . S
C703 H725 0.950 . S
C704 H700 0.949 . S
C704 C712 1.574 . S
C704 C720 1.368 . S
H705 C713 0.950 . S
H706 C711 0.950 . S
H707 C712 0.949 . S
H708 C714 0.950 . S
H709 C715 0.950 . S
H710 C716 0.949 . S
C711 H706 0.950 . S
C711 C713 1.327 . S
C711 C717 1.429 . S
C712 C704 1.574 . S
C712 H707 0.949 . S
C712 C718 1.368 . S
C713 C697 1.349 . S
C713 H705 0.950 . S
C713 C711 1.327 . S
C714 C702 1.348 . S
C714 H708 0.950 . S
C714 C715 1.327 1_556 S
C715 H709 0.950 . S
C715 C714 1.327 1_554 S
C715 C719 1.429 . S
C716 C699 1.574 . S
C716 H710 0.949 . S
C716 C720 1.368 . S
C717 C698 1.429 . S
C717 C711 1.429 . S
C717 C718 1.523 . S
C718 C699 1.368 . S
C718 C712 1.368 . S
C718 C717 1.523 . S
C719 C703 1.429 . S
C719 C715 1.429 . S
C719 C720 1.523 . S
C720 C704 1.368 . S
C720 C716 1.368 . S
C720 C719 1.523 . S
H721 C696 0.950 . S
H722 C698 0.950 . S
H723 C699 0.949 . S
H724 C701 0.950 . S
H725 C703 0.950 . S
C726 C727 1.374 . S
C726 C728 1.327 . S
C726 H751 0.950 . S
C727 C726 1.374 . S
C727 C743 1.322 1_545 S
C728 C726 1.327 . S
C728 C747 1.429 . S
C728 H752 0.950 . S
C729 C746 1.574 . S
C729 C748 1.368 1_565 S
C729 H753 0.949 . S
H730 C734 0.949 . S
C731 C732 1.349 1_565 S
C731 C733 1.327 . S
C731 H754 0.950 1_554 S
C732 C731 1.349 1_545 S
C732 C744 1.349 . S
C733 C731 1.327 . S
C733 C749 1.429 1_565 S
C733 H755 0.950 . S
C734 H730 0.949 . S
C734 C742 1.574 . S
C734 C750 1.368 . S
H735 C743 0.950 . S
H736 C741 0.950 . S
H737 C742 0.949 . S
H738 C744 0.950 . S
H739 C745 0.950 . S
H740 C746 0.949 . S
C741 H736 0.950 . S
C741 C743 1.327 . S
C741 C747 1.429 1_565 S
C742 C734 1.574 . S
C742 H737 0.949 . S
C742 C748 1.368 . S
C743 C727 1.322 1_565 S
C743 H735 0.950 . S
C743 C741 1.327 . S
C744 C732 1.349 . S
C744 H738 0.950 . S
C744 C745 1.327 . S
C745 H739 0.950 . S
C745 C744 1.327 . S
C745 C749 1.429 . S
C746 C729 1.574 . S
C746 H740 0.949 . S
C746 C750 1.368 1_565 S
C747 C728 1.429 . S
C747 C741 1.429 1_545 S
C747 C748 1.523 . S
C748 C729 1.368 1_545 S
C748 C742 1.368 . S
C748 C747 1.523 . S
C749 C733 1.429 1_545 S
C749 C745 1.429 . S
C749 C750 1.523 . S
C750 C734 1.368 . S
C750 C746 1.368 1_545 S
C750 C749 1.523 . S
H751 C726 0.950 . S
H752 C728 0.950 . S
H753 C729 0.949 . S
H754 C731 0.950 1_556 S
H755 C733 0.950 . S
C756 C757 1.349 . S
C756 C758 1.327 . S
C756 H781 0.950 . S
C757 C756 1.349 . S
C757 C773 1.349 . S
C758 C756 1.327 . S
C758 C777 1.429 . S
C758 H782 0.950 . S
C759 C776 1.574 . S
C759 C778 1.368 . S
C759 H783 0.949 . S
H760 C764 0.949 . S
C761 C762 1.349 . S
C761 C763 1.327 1_556 S
C761 H784 0.950 . S
C762 C761 1.349 . S
C762 C774 1.349 . S
C763 C761 1.327 1_554 S
C763 C779 1.429 . S
C763 H785 0.950 . S
C764 H760 0.949 . S
C764 C772 1.574 . S
C764 C780 1.368 . S
H765 C773 0.950 . S
H766 C771 0.950 . S
H767 C772 0.949 . S
H768 C774 0.950 . S
H769 C775 0.950 . S
H770 C776 0.949 . S
C771 H766 0.950 . S
C771 C773 1.327 . S
C771 C777 1.429 . S
C772 C764 1.574 . S
C772 H767 0.949 . S
C772 C778 1.368 . S
C773 C757 1.349 . S
C773 H765 0.950 . S
C773 C771 1.327 . S
C774 C762 1.349 . S
C774 H768 0.950 . S
C774 C775 1.327 . S
C775 H769 0.950 . S
C775 C774 1.327 . S
C775 C779 1.429 1_556 S
C776 C759 1.574 . S
C776 H770 0.949 . S
C776 C780 1.368 . S
C777 C758 1.429 . S
C777 C771 1.429 . S
C777 C778 1.523 . S
C778 C759 1.368 . S
C778 C772 1.368 . S
C778 C777 1.523 . S
C779 C763 1.429 . S
C779 C775 1.429 1_554 S
C779 C780 1.523 . S
C780 C764 1.368 . S
C780 C776 1.368 . S
C780 C779 1.523 . S
H781 C756 0.950 . S
H782 C758 0.950 . S
H783 C759 0.949 . S
H784 C761 0.950 . S
H785 C763 0.950 . S
C786 C787 1.349 . S
C786 C788 1.327 . S
C786 H811 0.950 . S
C787 C786 1.349 . S
C787 C803 1.349 . S
C788 C786 1.327 . S
C788 C807 1.429 . S
C788 H812 0.950 . S
C789 C806 1.574 . S
C789 C808 1.368 . S
C789 H813 0.949 . S
H790 C794 0.949 . S
C791 C792 1.349 . S
C791 C793 1.327 . S
C791 H814 0.950 . S
C792 C791 1.349 . S
C792 C804 1.349 . S
C793 C791 1.327 . S
C793 C809 1.429 . S
C793 H815 0.950 . S
C794 H790 0.949 . S
C794 C802 1.574 . S
C794 C810 1.368 . S
H795 C803 0.950 . S
H796 C801 0.950 . S
H797 C802 0.949 . S
H798 C804 0.950 . S
H799 C805 0.950 . S
H800 C806 0.949 1_556 S
C801 H796 0.950 . S
C801 C803 1.327 . S
C801 C807 1.429 . S
C802 C794 1.574 . S
C802 H797 0.949 . S
C802 C808 1.368 . S
C803 C787 1.349 . S
C803 H795 0.950 . S
C803 C801 1.327 . S
C804 C792 1.349 . S
C804 H798 0.950 . S
C804 C805 1.327 1_556 S
C805 H799 0.950 . S
C805 C804 1.327 1_554 S
C805 C809 1.429 1_554 S
C806 C789 1.574 . S
C806 H800 0.949 1_554 S
C806 C810 1.368 . S
C807 C788 1.429 . S
C807 C801 1.429 . S
C807 C808 1.523 . S
C808 C789 1.368 . S
C808 C802 1.368 . S
C808 C807 1.523 . S
C809 C793 1.429 . S
C809 C805 1.429 1_556 S
C809 C810 1.523 1_556 S
C810 C794 1.368 . S
C810 C806 1.368 . S
C810 C809 1.523 1_554 S
H811 C786 0.950 . S
H812 C788 0.950 . S
H813 C789 0.949 . S
H814 C791 0.950 . S
H815 C793 0.950 . S
C816 C817 1.349 . S
C816 C818 1.327 . S
C816 H841 0.950 . S
C817 C816 1.349 . S
C817 C833 1.349 . S
C818 C816 1.327 . S
C818 C837 1.429 . S
C818 H842 0.950 . S
C819 C836 1.574 . S
C819 C838 1.368 . S
C819 H843 0.949 . S
H820 C824 0.949 . S
C821 C822 1.349 . S
C821 C823 1.327 . S
C821 H844 0.950 . S
C822 C821 1.349 . S
C822 C834 1.349 . S
C823 C821 1.327 . S
C823 C839 1.429 . S
C823 H845 0.950 . S
C824 H820 0.949 . S
C824 C832 1.574 . S
C824 C840 1.368 . S
H825 C833 0.950 . S
H826 C831 0.950 . S
H827 C832 0.949 . S
H828 C834 0.950 . S
H829 C835 0.950 . S
H830 C836 0.949 . S
C831 H826 0.950 . S
C831 C833 1.327 . S
C831 C837 1.429 . S
C832 C824 1.574 . S
C832 H827 0.949 . S
C832 C838 1.368 . S
C833 C817 1.349 . S
C833 H825 0.950 . S
C833 C831 1.327 . S
C834 C822 1.349 . S
C834 H828 0.950 . S
C834 C835 1.327 . S
C835 H829 0.950 . S
C835 C834 1.327 . S
C835 C839 1.429 . S
C836 C819 1.574 . S
C836 H830 0.949 . S
C836 C840 1.368 . S
C837 C818 1.429 . S
C837 C831 1.429 . S
C837 C838 1.523 . S
C838 C819 1.368 . S
C838 C832 1.368 . S
C838 C837 1.523 . S
C839 C823 1.429 . S
C839 C835 1.429 . S
C839 C840 1.523 . S
C840 C824 1.368 . S
C840 C836 1.368 . S
C840 C839 1.523 . S
H841 C816 0.950 . S
H842 C818 0.950 . S
H843 C819 0.949 . S
H844 C821 0.950 . S
H845 C823 0.950 . S
C846 C847 1.364 . S
C846 C848 1.327 . S
C846 H871 0.950 . S
C847 C846 1.364 . S
C847 C863 1.333 1_565 S
C848 C846 1.327 . S
C848 C867 1.429 . S
C848 H872 0.950 . S
C849 C866 1.574 . S
C849 C868 1.368 1_545 S
C849 H873 0.949 . S
H850 C854 0.949 . S
C851 C852 1.349 1_545 S
C851 C853 1.327 . S
C851 H874 0.950 . S
C852 C851 1.349 1_565 S
C852 C864 1.349 . S
C853 C851 1.327 . S
C853 C869 1.429 1_545 S
C853 H875 0.950 . S
C854 H850 0.949 . S
C854 C862 1.574 . S
C854 C870 1.368 . S
H855 C863 0.950 . S
H856 C861 0.950 . S
H857 C862 0.949 . S
H858 C864 0.950 . S
H859 C865 0.950 . S
H860 C866 0.949 . S
C861 H856 0.950 . S
C861 C863 1.327 . S
C861 C867 1.429 1_545 S
C862 C854 1.574 . S
C862 H857 0.949 . S
C862 C868 1.368 . S
C863 C847 1.333 1_545 S
C863 H855 0.950 . S
C863 C861 1.327 . S
C864 C852 1.349 . S
C864 H858 0.950 . S
C864 C865 1.327 . S
C865 H859 0.950 . S
C865 C864 1.327 . S
C865 C869 1.429 . S
C866 C849 1.574 . S
C866 H860 0.949 . S
C866 C870 1.368 1_545 S
C867 C848 1.429 . S
C867 C861 1.429 1_565 S
C867 C868 1.523 . S
C868 C849 1.368 1_565 S
C868 C862 1.368 . S
C868 C867 1.523 . S
C869 C853 1.429 1_565 S
C869 C865 1.429 . S
C869 C870 1.523 . S
C870 C854 1.368 . S
C870 C866 1.368 1_565 S
C870 C869 1.523 . S
H871 C846 0.950 . S
H872 C848 0.950 . S
H873 C849 0.949 . S
H874 C851 0.950 . S
H875 C853 0.950 . S
C876 C877 1.349 . S
C876 C878 1.327 . S
C876 H901 0.950 . S
C877 C876 1.349 . S
C877 C893 1.349 . S
C878 C876 1.327 . S
C878 C897 1.429 . S
C878 H902 0.950 . S
C879 C896 1.574 . S
C879 C898 1.368 . S
C879 H903 0.949 . S
H880 C884 0.949 . S
C881 C882 1.349 . S
C881 C883 1.327 . S
C881 H904 0.950 . S
C882 C881 1.349 . S
C882 C894 1.349 . S
C883 C881 1.327 . S
C883 C899 1.429 . S
C883 H905 0.950 . S
C884 H880 0.949 . S
C884 C892 1.574 . S
C884 C900 1.368 . S
H885 C893 0.950 . S
H886 C891 0.950 . S
H887 C892 0.949 . S
H888 C894 0.950 . S
H889 C895 0.950 . S
H890 C896 0.949 . S
C891 H886 0.950 . S
C891 C893 1.327 . S
C891 C897 1.429 . S
C892 C884 1.574 . S
C892 H887 0.949 . S
C892 C898 1.368 . S
C893 C877 1.349 . S
C893 H885 0.950 . S
C893 C891 1.327 . S
C894 C882 1.349 . S
C894 H888 0.950 . S
C894 C895 1.327 . S
C895 H889 0.950 . S
C895 C894 1.327 . S
C895 C899 1.429 . S
C896 C879 1.574 . S
C896 H890 0.949 . S
C896 C900 1.368 . S
C897 C878 1.429 . S
C897 C891 1.429 . S
C897 C898 1.523 . S
C898 C879 1.368 . S
C898 C892 1.368 . S
C898 C897 1.523 . S
C899 C883 1.429 . S
C899 C895 1.429 . S
C899 C900 1.523 . S
C900 C884 1.368 . S
C900 C896 1.368 . S
C900 C899 1.523 . S
H901 C876 0.950 . S
H902 C878 0.950 . S
H903 C879 0.949 . S
H904 C881 0.950 . S
H905 C883 0.950 . S
C906 C907 1.349 . S
C906 C908 1.327 . S
C906 H931 0.950 . S
C907 C906 1.349 . S
C907 C923 1.349 . S
C908 C906 1.327 . S
C908 C927 1.429 . S
C908 H932 0.950 . S
C909 C926 1.574 . S
C909 C928 1.368 . S
C909 H933 0.949 . S
H910 C914 0.949 . S
C911 C912 1.349 . S
C911 C913 1.327 . S
C911 H934 0.950 . S
C912 C911 1.349 . S
C912 C924 1.349 . S
C913 C911 1.327 . S
C913 C929 1.429 . S
C913 H935 0.950 . S
C914 H910 0.949 . S
C914 C922 1.574 . S
C914 C930 1.368 . S
H915 C923 0.950 . S
H916 C921 0.950 . S
H917 C922 0.949 . S
H918 C924 0.950 . S
H919 C925 0.950 . S
H920 C926 0.949 . S
C921 H916 0.950 . S
C921 C923 1.327 . S
C921 C927 1.429 . S
C922 C914 1.574 . S
C922 H917 0.949 . S
C922 C928 1.368 . S
C923 C907 1.349 . S
C923 H915 0.950 . S
C923 C921 1.327 . S
C924 C912 1.349 . S
C924 H918 0.950 . S
C924 C925 1.327 . S
C925 H919 0.950 . S
C925 C924 1.327 . S
C925 C929 1.429 . S
C926 C909 1.574 . S
C926 H920 0.949 . S
C926 C930 1.368 . S
C927 C908 1.429 . S
C927 C921 1.429 . S
C927 C928 1.523 . S
C928 C909 1.368 . S
C928 C922 1.368 . S
C928 C927 1.523 . S
C929 C913 1.429 . S
C929 C925 1.429 . S
C929 C930 1.523 . S
C930 C914 1.368 . S
C930 C926 1.368 . S
C930 C929 1.523 . S
H931 C906 0.950 . S
H932 C908 0.950 . S
H933 C909 0.949 . S
H934 C911 0.950 . S
H935 C913 0.950 . S
C217 C76 1.622 . S
C222 C106 1.645 . S
C252 C136 1.809 . S
C247 C88 1.770 . S
C282 N170 1.374 . S
C277 C52 1.386 . S
C312 N200 1.373 . S
C307 C64 1.370 . S
C342 C97 1.645 . S
C337 C28 1.625 1_545 S
C367 C40 1.783 . S
C372 C127 1.815 . S
C397 C4 1.388 . S
C402 N162 1.374 . S
C427 C16 1.379 . S
C432 N192 1.385 . S
C462 C112 0.238 . S
C457 C69 0.392 . S
C492 C142 0.457 . S
C487 C81 0.518 . S
C522 C183 0.731 . S
C517 C93 0.732 . S
C547 C57 0.350 . S
C552 C213 0.324 . S
C577 C21 0.425 . S
C582 C123 0.240 . S
C612 C153 0.457 . S
C607 C33 0.513 1_565 S
C642 C172 0.730 . S
C637 C45 0.732 . S
C667 C9 0.361 . S
C672 C202 0.324 . S
C697 C66 1.476 . S
C702 N102 1.480 . S
C727 C78 1.437 . S
C732 N132 1.427 1_554 S
C762 C157 1.649 . S
C757 C90 1.619 . S
C792 C187 1.593 . S
C787 C54 1.556 . S
C817 C18 1.467 . S
C822 N110 1.480 . S
C852 N140 1.426 . S
C847 C30 1.441 1_565 S
C882 C166 1.650 . S
C877 C42 1.611 . S
C907 C6 1.554 . S
C912 C196 1.593 . S
