# Generated by pormake.
# Topology pyr, (3,6)-cn, num edge types: 1
# Building blocks:
#     Node 0, Type 0, BuildingBlock: CUQRIR_clean_linker_1, # of connection points: 3
#     Node 1, Type 0, BuildingBlock: CUQRIR_clean_linker_1, # of connection points: 3
#     Node 2, Type 0, BuildingBlock: CUQRIR_clean_linker_1, # of connection points: 3
#     Node 3, Type 0, BuildingBlock: CUQRIR_clean_linker_1, # of connection points: 3
#     Node 4, Type 0, BuildingBlock: CUQRIR_clean_linker_1, # of connection points: 3
#     Node 5, Type 0, BuildingBlock: CUQRIR_clean_linker_1, # of connection points: 3
#     Node 6, Type 0, BuildingBlock: CUQRIR_clean_linker_1, # of connection points: 3
#     Node 7, Type 0, BuildingBlock: CUQRIR_clean_linker_1, # of connection points: 3
#     Node 8, Type 1, BuildingBlock: MIFKUJ_clean_sbu_0, # of connection points: 6
#     Node 9, Type 1, BuildingBlock: MIFKUJ_clean_sbu_0, # of connection points: 6
#     Node 10, Type 1, BuildingBlock: MIFKUJ_clean_sbu_0, # of connection points: 6
#     Node 11, Type 1, BuildingBlock: MIFKUJ_clean_sbu_0, # of connection points: 6
#     Edge 12, Type (0, 1), BuildingBlock: CIFDUS_clean_linker_0, # of connection points: 2
#     Edge 13, Type (0, 1), BuildingBlock: CIFDUS_clean_linker_0, # of connection points: 2
#     Edge 14, Type (0, 1), BuildingBlock: CIFDUS_clean_linker_0, # of connection points: 2
#     Edge 15, Type (0, 1), BuildingBlock: CIFDUS_clean_linker_0, # of connection points: 2
#     Edge 16, Type (0, 1), BuildingBlock: CIFDUS_clean_linker_0, # of connection points: 2
#     Edge 17, Type (0, 1), BuildingBlock: CIFDUS_clean_linker_0, # of connection points: 2
#     Edge 18, Type (0, 1), BuildingBlock: CIFDUS_clean_linker_0, # of connection points: 2
#     Edge 19, Type (0, 1), BuildingBlock: CIFDUS_clean_linker_0, # of connection points: 2
#     Edge 20, Type (0, 1), BuildingBlock: CIFDUS_clean_linker_0, # of connection points: 2
#     Edge 21, Type (0, 1), BuildingBlock: CIFDUS_clean_linker_0, # of connection points: 2
#     Edge 22, Type (0, 1), BuildingBlock: CIFDUS_clean_linker_0, # of connection points: 2
#     Edge 23, Type (0, 1), BuildingBlock: CIFDUS_clean_linker_0, # of connection points: 2
#     Edge 24, Type (0, 1), BuildingBlock: CIFDUS_clean_linker_0, # of connection points: 2
#     Edge 25, Type (0, 1), BuildingBlock: CIFDUS_clean_linker_0, # of connection points: 2
#     Edge 26, Type (0, 1), BuildingBlock: CIFDUS_clean_linker_0, # of connection points: 2
#     Edge 27, Type (0, 1), BuildingBlock: CIFDUS_clean_linker_0, # of connection points: 2
#     Edge 28, Type (0, 1), BuildingBlock: CIFDUS_clean_linker_0, # of connection points: 2
#     Edge 29, Type (0, 1), BuildingBlock: CIFDUS_clean_linker_0, # of connection points: 2
#     Edge 30, Type (0, 1), BuildingBlock: CIFDUS_clean_linker_0, # of connection points: 2
#     Edge 31, Type (0, 1), BuildingBlock: CIFDUS_clean_linker_0, # of connection points: 2
#     Edge 32, Type (0, 1), BuildingBlock: CIFDUS_clean_linker_0, # of connection points: 2
#     Edge 33, Type (0, 1), BuildingBlock: CIFDUS_clean_linker_0, # of connection points: 2
#     Edge 34, Type (0, 1), BuildingBlock: CIFDUS_clean_linker_0, # of connection points: 2
#     Edge 35, Type (0, 1), BuildingBlock: CIFDUS_clean_linker_0, # of connection points: 2
# Relax obj value: 0.100
# Max RMSD: 0.226
# Mean RMSD: 0.152
data_MOF--net-pyr--node1-MIFKUJ_clean_sbu_0--node2-CUQRIR_clean_linker_1--edge1-CIFDUS_clean_linker_0
_symmetry_space_group_name_H-M    P1
_symmetry_Int_Tables_number       1
_symmetry_cell_setting            triclinic
loop_
_symmetry_equiv_pos_as_xyz
'x, y, z'
_cell_length_a     31.915745
_cell_length_b     28.896727
_cell_length_c     29.662416
_cell_angle_alpha  82.832999
_cell_angle_beta   90.114436
_cell_angle_gamma 101.18781
loop_
_atom_site_label
_atom_site_type_symbol
_atom_site_fract_x
_atom_site_fract_y
_atom_site_fract_z
_atom_type_partial_charge
C0 C 0.18763 0.19326 0.20212 0.0
N1 N 0.20945 0.15761 0.21037 0.0
N2 N 0.20174 0.22114 0.16293 0.0
C3 C 0.15325 0.20142 0.23332 0.0
C4 C 0.2336 0.20142 0.14808 0.0
N5 N 0.23829 0.16264 0.17704 0.0
C6 C 0.25762 0.21756 0.10354 0.0
H7 H 0.12221 0.1797 0.22508 0.0
H8 H 0.15061 0.23942 0.2295 0.0
H9 H 0.15981 0.19029 0.26934 0.0
H10 H 0.28643 0.24454 0.1089 0.0
H11 H 0.23759 0.23395 0.07805 0.0
H12 H 0.26805 0.18736 0.09011 0.0
C13 C 0.33592 0.81369 0.67982 0.0
N14 N 0.33245 0.84705 0.70714 0.0
N15 N 0.36832 0.79133 0.69294 0.0
C16 C 0.30592 0.80078 0.64214 0.0
C17 C 0.38418 0.81194 0.72958 0.0
N18 N 0.36198 0.84538 0.73864 0.0
C19 C 0.42416 0.80311 0.75339 0.0
H20 H 0.30397 0.76312 0.63672 0.0
H21 H 0.31785 0.82377 0.61019 0.0
H22 H 0.27344 0.80647 0.64994 0.0
H23 H 0.44556 0.79008 0.73061 0.0
H24 H 0.41514 0.77578 0.78328 0.0
H25 H 0.44197 0.83599 0.76554 0.0
C26 C 0.61127 0.34957 0.83183 0.0
N27 N 0.63716 0.34072 0.86688 0.0
N28 N 0.62619 0.39275 0.8079 0.0
C29 C 0.56978 0.31753 0.82285 0.0
C30 C 0.66202 0.41 0.82985 0.0
N31 N 0.66851 0.37862 0.86589 0.0
C32 C 0.69163 0.45667 0.81498 0.0
H33 H 0.57617 0.29161 0.80039 0.0
H34 H 0.54713 0.33829 0.80572 0.0
H35 H 0.55475 0.29745 0.85498 0.0
H36 H 0.68079 0.48496 0.83128 0.0
H37 H 0.69117 0.46599 0.77757 0.0
H38 H 0.72488 0.45575 0.82536 0.0
C39 C 0.82488 0.6421 0.26729 0.0
N40 N 0.86541 0.66711 0.26017 0.0
N41 N 0.8029 0.66266 0.29545 0.0
C42 C 0.80696 0.59734 0.24694 0.0
C43 C 0.83117 0.70127 0.30494 0.0
N44 N 0.86905 0.70458 0.28286 0.0
C45 C 0.82214 0.73538 0.33653 0.0
H46 H 0.77171 0.58767 0.25018 0.0
H47 H 0.82026 0.5675 0.26473 0.0
H48 H 0.81658 0.60153 0.21049 0.0
H49 H 0.8486 0.74192 0.36069 0.0
H50 H 0.79163 0.72235 0.35589 0.0
H51 H 0.82017 0.76986 0.31637 0.0
C52 C 0.84718 0.87189 0.85518 0.0
N53 N 0.8796 0.86484 0.82934 0.0
N54 N 0.82857 0.90666 0.83389 0.0
C55 C 0.83503 0.84637 0.90207 0.0
C56 C 0.85087 0.92032 0.79403 0.0
N57 N 0.88179 0.89462 0.79124 0.0
C58 C 0.84321 0.95948 0.75849 0.0
H59 H 0.80869 0.8156 0.89939 0.0
H60 H 0.82367 0.8702 0.92383 0.0
H61 H 0.86234 0.83285 0.91842 0.0
H62 H 0.86605 0.99263 0.76322 0.0
H63 H 0.81019 0.96584 0.76135 0.0
H64 H 0.84872 0.95086 0.72388 0.0
C65 C 0.73886 0.20494 0.39461 0.0
N66 N 0.74802 0.17307 0.3678 0.0
N67 N 0.70045 0.21651 0.38398 0.0
C68 C 0.76695 0.22432 0.43138 0.0
C69 C 0.68691 0.19126 0.34958 0.0
N70 N 0.71561 0.16511 0.33967 0.0
C71 C 0.64528 0.19192 0.32568 0.0
H72 H 0.76117 0.25947 0.43796 0.0
H73 H 0.80116 0.22752 0.42216 0.0
H74 H 0.75965 0.19955 0.46331 0.0
H75 H 0.64785 0.18541 0.28982 0.0
H76 H 0.63517 0.22645 0.32649 0.0
H77 H 0.62026 0.16326 0.3432 0.0
C78 C 0.32373 0.62826 0.21424 0.0
N79 N 0.3619 0.65647 0.22121 0.0
N80 N 0.30149 0.65039 0.18217 0.0
C81 C 0.3072 0.58001 0.24045 0.0
C82 C 0.32716 0.69321 0.17016 0.0
N83 N 0.36366 0.69711 0.19395 0.0
C84 C 0.3153 0.7329 0.13797 0.0
H85 H 0.32411 0.55374 0.22816 0.0
H86 H 0.27257 0.56752 0.23602 0.0
H87 H 0.31364 0.58082 0.27715 0.0
H88 H 0.30632 0.75962 0.15799 0.0
H89 H 0.28807 0.72002 0.11659 0.0
H90 H 0.34317 0.75092 0.11582 0.0
C91 C 0.12528 0.36666 0.72558 0.0
N92 N 0.15928 0.3587 0.70234 0.0
N93 N 0.13516 0.40864 0.74285 0.0
C94 C 0.08326 0.33231 0.73352 0.0
C95 C 0.17646 0.4256 0.72993 0.0
N96 N 0.19123 0.39522 0.70562 0.0
C97 C 0.20308 0.47052 0.74336 0.0
H98 H 0.06403 0.3351 0.70247 0.0
H99 H 0.06455 0.34005 0.76211 0.0
H100 H 0.0886 0.29528 0.74033 0.0
H101 H 0.2175 0.46211 0.77671 0.0
H102 H 0.1833 0.49747 0.74691 0.0
H103 H 0.22918 0.48577 0.718 0.0
Zn104 Zn 0.10216 0.03393 0.54761 0.0
Zn105 Zn 0.00645 0.98917 0.45602 0.0
C106 C 0.13426 0.12101 0.58678 0.0
O107 O 0.16941 0.10366 0.58956 0.0
C108 C 1.00031 0.90721 0.40257 0.0
O109 O 0.03491 0.89834 0.42314 0.0
O110 O 0.15184 0.0074 0.5755 0.0
O111 O 0.04842 0.98659 0.56725 0.0
O112 O 0.99798 0.95688 0.52097 0.0
C113 C 0.15661 0.99155 0.61678 0.0
O114 O 0.12653 0.99116 0.64708 0.0
O115 O 0.10123 0.09761 0.56995 0.0
C116 C 0.94946 0.04913 0.41269 0.0
O117 O 0.9629 0.0368 0.37492 0.0
O118 O 0.96561 0.03563 0.45019 0.0
O119 O 0.06613 0.02009 0.43282 0.0
O120 O 0.11656 0.04469 0.48112 0.0
O121 O 0.98387 0.94151 0.41258 0.0
C122 C 0.0134 0.95896 0.56051 0.0
C123 C 0.10428 0.0393 0.44104 0.0
Zn124 Zn 0.55067 0.97175 1.00144 0.0
Zn125 Zn 0.52405 0.04034 0.09814 0.0
C126 C 0.48432 0.96662 0.93447 0.0
O127 O 0.50736 0.00783 0.91743 0.0
C128 C 0.611 0.06131 0.13021 0.0
O129 O 0.62073 0.06887 0.08657 0.0
O130 O 0.59628 0.94736 0.96973 0.0
O131 O 0.5643 0.04291 0.98699 0.0
O132 O 0.54659 0.0835 0.04014 0.0
C133 C 0.63166 0.97374 0.95573 0.0
O134 O 0.63959 0.01857 0.96275 0.0
O135 O 0.49557 0.94564 0.97151 0.0
C136 C 0.43884 0.04982 0.129 0.0
O137 O 0.42726 0.00526 0.12176 0.0
O138 O 0.47764 0.07071 0.12188 0.0
O139 O 0.49889 0.96962 0.0997 0.0
O140 O 0.54925 0.94195 0.06691 0.0
O141 O 0.57207 0.04745 0.14309 0.0
C142 C 0.56206 0.08213 1.00097 0.0
C143 C 0.51558 0.93489 0.09156 0.0
Zn144 Zn 0.52641 0.4703 0.47276 0.0
Zn145 Zn 0.48123 0.53847 0.52574 0.0
C146 C 0.58493 0.53994 0.42126 0.0
O147 O 0.56129 0.51882 0.39059 0.0
C148 C 0.41661 0.47775 0.58214 0.0
O149 O 0.444 0.49348 0.61251 0.0
O150 O 0.55241 0.41916 0.44821 0.0
O151 O 0.51559 0.44568 0.53894 0.0
O152 O 0.52968 0.51621 0.56177 0.0
C153 C 0.59092 0.41915 0.45979 0.0
O154 O 0.60947 0.44989 0.48625 0.0
O155 O 0.57462 0.52747 0.46306 0.0
C156 C 0.45266 0.62685 0.53302 0.0
O157 O 0.44424 0.62525 0.48986 0.0
O158 O 0.46971 0.59467 0.55456 0.0
O159 O 0.48601 0.55826 0.45706 0.0
O160 O 0.47781 0.48734 0.43407 0.0
O161 O 0.42648 0.49002 0.54023 0.0
C162 C 0.53043 0.4721 0.56862 0.0
C163 C 0.47457 0.53093 0.42684 0.0
Zn164 Zn 0.96109 0.54161 0.97618 0.0
Zn165 Zn 0.01381 0.4783 0.04709 0.0
C166 C 0.90278 0.46861 0.9379 0.0
O167 O 0.93202 0.48093 0.90522 0.0
C168 C 0.07708 0.54196 0.08575 0.0
O169 O 0.05193 0.52228 0.12079 0.0
O170 O 0.94486 0.59524 0.93481 0.0
O171 O 0.96669 0.56439 0.0391 0.0
O172 O 0.9666 0.49616 0.08192 0.0
C173 C 0.96652 0.63737 0.92892 0.0
O174 O 1.00247 0.64749 0.95053 0.0
O175 O 0.90864 0.48825 0.97416 0.0
C176 C 0.07005 0.41705 0.06953 0.0
O177 O 0.09171 0.44805 0.03765 0.0
O178 O 0.03318 0.42219 0.08175 0.0
O179 O 1.00224 0.45578 0.98633 0.0
O180 O 0.01249 0.5255 0.94525 0.0
O181 O 0.06603 0.53138 0.04645 0.0
C182 C 0.9613 0.539 0.07774 0.0
C183 C 0.01742 0.48262 0.95076 0.0
H184 H 0.23896 0.15533 0.29438 0.0
H185 H 0.15308 0.07715 0.20664 0.0
H186 H 0.11433 0.02799 0.27245 0.0
H187 H 0.09736 0.01824 0.35411 0.0
H188 H 0.18113 0.10034 0.44213 0.0
H189 H 0.22823 0.13708 0.3775 0.0
C190 C 0.21308 0.12588 0.29011 0.0
C191 C 0.19902 0.11899 0.24624 0.0
C192 C 0.1897 0.0998 0.32815 0.0
C193 C 0.16473 0.08196 0.24038 0.0
C194 C 0.14217 0.05466 0.27795 0.0
C195 C 0.12616 0.04378 0.35925 0.0
C196 C 0.13515 0.05729 0.40271 0.0
C197 C 0.15303 0.06503 0.32191 0.0
C198 C 0.1731 0.0897 0.40894 0.0
C199 C 0.20015 0.11073 0.372 0.0
H200 H 0.36372 0.82102 0.82818 0.0
H201 H 0.38617 0.9406 0.72347 0.0
H202 H 0.42184 0.99191 0.77782 0.0
H203 H 0.45612 0.99883 0.8518 0.0
H204 H 0.43614 0.87733 0.95559 0.0
H205 H 0.38977 0.83069 0.90532 0.0
C206 C 0.37546 0.85866 0.81792 0.0
C207 C 0.37266 0.87731 0.77225 0.0
C208 C 0.39702 0.88721 0.84896 0.0
C209 C 0.38783 0.92591 0.75869 0.0
C210 C 0.40861 0.95494 0.78961 0.0
C211 C 0.44105 0.96241 0.86376 0.0
C212 C 0.4503 0.94141 0.90717 0.0
C213 C 0.41491 0.93546 0.83436 0.0
C214 C 0.43004 0.89431 0.92222 0.0
C215 C 0.40354 0.86751 0.89345 0.0
H216 H 0.60663 0.35343 0.73147 0.0
H217 H 0.60722 0.48041 0.79346 0.0
H218 H 0.57836 0.51733 0.72429 0.0
H219 H 0.55214 0.51273 0.64619 0.0
H220 H 0.54979 0.3839 0.58567 0.0
H221 H 0.5795 0.34827 0.65418 0.0
C222 C 0.60004 0.38901 0.72977 0.0
C223 C 0.60897 0.41428 0.76728 0.0
C224 C 0.58302 0.40958 0.69018 0.0
C225 C 0.60093 0.4606 0.76471 0.0
C226 C 0.58428 0.48153 0.7253 0.0
C227 C 0.55821 0.47691 0.64797 0.0
C228 C 0.54865 0.45112 0.61071 0.0
C229 C 0.57515 0.45634 0.68776 0.0
C230 C 0.55658 0.4046 0.61379 0.0
C231 C 0.57368 0.38413 0.65298 0.0
H232 H 0.89898 0.58892 0.26471 0.0
H233 H 0.89782 0.72274 0.18383 0.0
H234 H 0.9307 0.696 0.11939 0.0
H235 H 0.95021 0.63003 0.08337 0.0
H236 H 0.94694 0.49437 0.16454 0.0
H237 H 0.92469 0.52574 0.23111 0.0
C238 C 0.90706 0.61248 0.23324 0.0
C239 C 0.89604 0.65755 0.22868 0.0
C240 C 0.92392 0.59588 0.19601 0.0
C241 C 0.90655 0.6881 0.18803 0.0
C242 C 0.92462 0.67243 0.15107 0.0
C243 C 0.94486 0.60737 0.11566 0.0
C244 C 0.94961 0.55953 0.11851 0.0
C245 C 0.9318 0.62564 0.1541 0.0
C246 C 0.94304 0.53104 0.16094 0.0
C247 C 0.93047 0.54902 0.19923 0.0
H248 H 0.32273 0.19312 0.17346 0.0
H249 H 0.22453 0.06825 0.17221 0.0
H250 H 0.27854 0.0209 0.16002 0.0
H251 H 0.35346 0.01668 0.1448 0.0
H252 H 0.45157 0.14293 0.14386 0.0
H253 H 0.39803 0.18821 0.16155 0.0
C254 C 0.31348 0.15544 0.17079 0.0
C255 C 0.27003 0.13391 0.17388 0.0
C256 C 0.34463 0.12894 0.16297 0.0
C257 C 0.25793 0.08517 0.17064 0.0
C258 C 0.28877 0.05833 0.16325 0.0
C259 C 0.36322 0.05402 0.14874 0.0
C260 C 0.40653 0.07637 0.14267 0.0
C261 C 0.33219 0.08003 0.15867 0.0
C262 C 0.41851 0.12478 0.14812 0.0
C263 C 0.3879 0.15078 0.15823 0.0
H264 H 0.32468 0.90717 0.63343 0.0
H265 H 0.27409 0.85776 0.76877 0.0
H266 H 0.2156 0.90165 0.7542 0.0
H267 H 0.17518 0.94725 0.69955 0.0
H268 H 0.22589 0.99324 0.56287 0.0
H269 H 0.28771 0.95727 0.58102 0.0
C270 C 0.301 0.90668 0.65974 0.0
C271 C 0.30305 0.87921 0.70182 0.0
C272 C 0.2672 0.93072 0.65054 0.0
C273 C 0.27287 0.87895 0.73617 0.0
C274 C 0.23936 0.90361 0.72762 0.0
C275 C 0.19993 0.94975 0.67388 0.0
C276 C 0.19549 0.97247 0.62972 0.0
C277 C 0.23552 0.92852 0.68442 0.0
C278 C 0.22809 0.97559 0.59697 0.0
C279 C 0.2636 0.9551 0.6073 0.0
H280 H 0.74248 0.35308 0.85048 0.0
H281 H 0.6772 0.42044 0.94208 0.0
H282 H 0.74484 0.44925 0.97845 0.0
H283 H 0.82388 0.4652 0.97582 0.0
H284 H 0.88912 0.40291 0.8789 0.0
H285 H 0.82081 0.36182 0.8533 0.0
C286 C 0.74321 0.37255 0.87954 0.0
C287 C 0.70522 0.38399 0.89441 0.0
C288 C 0.78245 0.39067 0.89865 0.0
C289 C 0.70617 0.41052 0.931 0.0
C290 C 0.74488 0.42742 0.95128 0.0
C291 C 0.82312 0.4417 0.9499 0.0
C292 C 0.86159 0.43741 0.9291 0.0
C293 C 0.78348 0.41921 0.93426 0.0
C294 C 0.86 0.40717 0.89522 0.0
C295 C 0.82091 0.38366 0.88048 0.0
H296 H 0.77882 0.63122 0.38186 0.0
H297 H 0.7314 0.65816 0.24729 0.0
H298 H 0.65794 0.62602 0.27544 0.0
H299 H 0.60843 0.58578 0.33758 0.0
H300 H 0.65548 0.56041 0.4731 0.0
H301 H 0.72793 0.59782 0.4459 0.0
C302 C 0.75212 0.63034 0.35911 0.0
C303 C 0.75991 0.64624 0.31269 0.0
C304 C 0.71023 0.61253 0.37578 0.0
C305 C 0.72561 0.64544 0.28307 0.0
C306 C 0.68387 0.6273 0.29919 0.0
C307 C 0.63445 0.58906 0.36129 0.0
C308 C 0.62674 0.57009 0.40716 0.0
C309 C 0.67591 0.61013 0.34536 0.0
C310 C 0.66061 0.57494 0.43763 0.0
C311 C 0.70208 0.59592 0.42203 0.0
H312 H 0.11924 0.22261 0.148 0.0
H313 H 0.24587 0.30813 0.12964 0.0
H314 H 0.21607 0.37675 0.09717 0.0
H315 H 0.15355 0.4128 0.07732 0.0
H316 H 0.02667 0.32925 0.10458 0.0
H317 H 0.05681 0.25956 0.13227 0.0
C318 C 0.14018 0.25648 0.13737 0.0
C319 C 0.18457 0.2606 0.1413 0.0
C320 C 0.1227 0.29605 0.12115 0.0
C321 C 0.21161 0.30419 0.12638 0.0
C322 C 0.19456 0.3434 0.10834 0.0
C323 C 0.13257 0.3793 0.08942 0.0
C324 C 0.08803 0.37592 0.08889 0.0
C325 C 0.15011 0.33983 0.10608 0.0
C326 C 0.06107 0.33263 0.10502 0.0
C327 C 0.07826 0.2928 0.12052 0.0
H328 H 0.63158 0.25209 0.84731 0.0
H329 H 0.62769 0.3341 0.958 0.0
H330 H 0.60468 0.26076 0.01063 0.0
H331 H 0.5803 0.1732 0.02339 0.0
H332 H 0.58333 0.09223 0.91086 0.0
H333 H 0.61127 0.16495 0.86067 0.0
C334 C 0.62624 0.25358 0.88315 0.0
C335 C 0.63134 0.29809 0.89901 0.0
C336 C 0.61201 0.21147 0.91261 0.0
C337 C 0.62451 0.30007 0.94537 0.0
C338 C 0.61082 0.25819 0.9752 0.0
C339 C 0.587 0.17147 0.98788 0.0
C340 C 0.57916 0.12712 0.97099 0.0
C341 C 0.60348 0.21367 0.95897 0.0
C342 C 0.58872 0.12567 0.92493 0.0
C343 C 0.60485 0.16731 0.8961 0.0
H344 H 0.88135 0.7989 0.26429 0.0
H345 H 0.94103 0.68449 0.32111 0.0
H346 H 0.99247 0.73998 0.36006 0.0
H347 H 0.01077 0.81799 0.38921 0.0
H348 H 0.94379 0.92942 0.33864 0.0
H349 H 0.90436 0.87847 0.28695 0.0
C350 C 0.90661 0.7867 0.2841 0.0
C351 C 0.90744 0.73794 0.29029 0.0
C352 C 0.93367 0.81811 0.30888 0.0
C353 C 0.94017 0.72205 0.3157 0.0
C354 C 0.96893 0.75364 0.33865 0.0
C355 C 0.98799 0.83131 0.3664 0.0
C356 C 0.97979 0.87724 0.36836 0.0
C357 C 0.96446 0.80125 0.33742 0.0
C358 C 0.95023 0.89399 0.33845 0.0
C359 C 0.9278 0.86495 0.30865 0.0
H360 H 0.38909 0.79861 0.60457 0.0
H361 H 0.38447 0.70727 0.7314 0.0
H362 H 0.41308 0.64887 0.6935 0.0
H363 H 0.43747 0.62323 0.62363 0.0
H364 H 0.43729 0.71272 0.4958 0.0
H365 H 0.41204 0.77236 0.53447 0.0
C366 C 0.39394 0.76562 0.62362 0.0
C367 C 0.38466 0.7569 0.67051 0.0
C368 C 0.40952 0.73209 0.60142 0.0
C369 C 0.39173 0.71457 0.69528 0.0
C370 C 0.40792 0.68129 0.67361 0.0
C371 C 0.43225 0.65598 0.60433 0.0
C372 C 0.43945 0.66372 0.55697 0.0
C373 C 0.41681 0.68962 0.62664 0.0
C374 C 0.43196 0.70597 0.53229 0.0
C375 C 0.41752 0.74006 0.55435 0.0
H376 H 0.86921 0.86877 0.70813 0.0
H377 H 0.96424 0.93557 0.79476 0.0
H378 H 0.01644 0.95575 0.73136 0.0
H379 H 0.03182 0.96217 0.64983 0.0
H380 H 0.93521 0.89914 0.56153 0.0
H381 H 0.88693 0.86908 0.62688 0.0
C382 C 0.90165 0.88702 0.71285 0.0
C383 C 0.91338 0.90072 0.75554 0.0
C384 C 0.93087 0.89945 0.67596 0.0
C385 C 0.95513 0.92444 0.76203 0.0
C386 C 0.98467 0.9362 0.72579 0.0
C387 C 1.00049 0.94121 0.64479 0.0
C388 C 0.98709 0.93353 0.60059 0.0
C389 C 0.97252 0.92499 0.68233 0.0
C390 C 0.94637 0.90597 0.59502 0.0
C391 C 0.91861 0.88889 0.63238 0.0
H392 H 0.73827 0.18017 0.25195 0.0
H393 H 0.6722 0.07576 0.35677 0.0
H394 H 0.63566 0.02931 0.29939 0.0
H395 H 0.61345 0.02732 0.21973 0.0
H396 H 0.68135 0.13154 0.11481 0.0
H397 H 0.72711 0.16882 0.17153 0.0
C398 C 0.71779 0.14583 0.26193 0.0
C399 C 0.70834 0.13066 0.30819 0.0
C400 C 0.69648 0.12013 0.22872 0.0
C401 C 0.68042 0.08721 0.32119 0.0
C402 C 0.65909 0.06123 0.28841 0.0
C403 C 0.6389 0.05755 0.2093 0.0
C404 C 0.64353 0.07724 0.16338 0.0
C405 C 0.66535 0.07865 0.2421 0.0
C406 C 0.677 0.11591 0.15004 0.0
C407 C 0.70311 0.13738 0.18247 0.0
H408 H 0.39918 0.58031 0.2329 0.0
H409 H 0.38955 0.7081 0.28923 0.0
H410 H 0.42753 0.68232 0.35669 0.0
H411 H 0.45611 0.61926 0.40316 0.0
H412 H 0.45816 0.48723 0.35011 0.0
H413 H 0.42968 0.51808 0.27851 0.0
C414 C 0.40581 0.60258 0.25987 0.0
C415 C 0.39168 0.6461 0.25606 0.0
C416 C 0.42537 0.58613 0.29964 0.0
C417 C 0.40087 0.67502 0.29087 0.0
C418 C 0.42193 0.65981 0.32981 0.0
C419 C 0.45039 0.59713 0.37604 0.0
C420 C 0.4588 0.55059 0.38254 0.0
C421 C 0.43313 0.61476 0.33517 0.0
C422 C 0.45158 0.52288 0.3465 0.0
C423 C 0.43541 0.54058 0.30538 0.0
H424 H 0.11513 0.37142 0.82872 0.0
H425 H 0.10178 0.48764 0.72783 0.0
H426 H 0.06421 0.52224 0.78351 0.0
H427 H 0.03617 0.51941 0.86177 0.0
H428 H 0.04844 0.40092 0.9617 0.0
H429 H 0.08517 0.36711 0.90589 0.0
C430 C 0.10345 0.40402 0.81914 0.0
C431 C 0.11072 0.42706 0.77461 0.0
C432 C 0.08192 0.4233 0.85123 0.0
C433 C 0.09613 0.46951 0.76212 0.0
C434 C 0.07485 0.48919 0.79391 0.0
C435 C 0.04695 0.48626 0.87128 0.0
C436 C 0.03963 0.4629 0.91595 0.0
C437 C 0.06776 0.46652 0.83873 0.0
C438 C 0.05352 0.4197 0.92759 0.0
C439 C 0.0746 0.40025 0.8957 0.0
H440 H 0.75088 0.85999 0.86326 0.0
H441 H 0.83269 0.99831 0.8451 0.0
H442 H 0.77802 0.03216 0.88026 0.0
H443 H 0.70824 0.02131 0.9189 0.0
H444 H 0.62679 0.88206 0.93868 0.0
H445 H 0.68009 0.84939 0.90059 0.0
C446 C 0.7564 0.89751 0.86705 0.0
C447 C 0.79534 0.92684 0.85171 0.0
C448 C 0.72514 0.91631 0.88785 0.0
C449 C 0.80255 0.97545 0.85631 0.0
C450 C 0.7715 0.99459 0.87664 0.0
C451 C 0.70206 0.98382 0.91486 0.0
C452 C 0.66364 0.95416 0.93186 0.0
C453 C 0.73285 0.96523 0.89297 0.0
C454 C 0.65613 0.9057 0.92607 0.0
C455 C 0.68658 0.88695 0.90426 0.0
H456 H 0.78135 0.12895 0.44083 0.0
H457 H 0.79994 0.17086 0.29678 0.0
H458 H 0.86378 0.13578 0.29746 0.0
H459 H 0.915 0.09389 0.33943 0.0
H460 H 0.89973 0.05795 0.4849 0.0
H461 H 0.83508 0.09149 0.48364 0.0
C462 C 0.79971 0.13083 0.40976 0.0
C463 C 0.78559 0.15193 0.36865 0.0
C464 C 0.83738 0.11219 0.41083 0.0
C465 C 0.80937 0.15356 0.32852 0.0
C466 C 0.84624 0.13408 0.32906 0.0
C467 C 0.8977 0.09363 0.37091 0.0
C468 C 0.9123 0.07328 0.41217 0.0
C469 C 0.86061 0.11334 0.37004 0.0
C470 C 0.88947 0.07353 0.45265 0.0
C471 C 0.85229 0.09249 0.45196 0.0
H472 H 0.27371 0.62824 0.10066 0.0
H473 H 0.23203 0.64007 0.23577 0.0
H474 H 0.15758 0.61083 0.21664 0.0
H475 H 0.10533 0.57775 0.1628 0.0
H476 H 0.14626 0.56611 0.02683 0.0
H477 H 0.2199 0.60037 0.04434 0.0
C478 C 0.24805 0.62457 0.12552 0.0
C479 C 0.25785 0.6354 0.16967 0.0
C480 C 0.20542 0.60804 0.11403 0.0
C481 C 0.22478 0.63119 0.20184 0.0
C482 C 0.18243 0.61465 0.19084 0.0
C483 C 0.13025 0.58315 0.13678 0.0
C484 C 0.12031 0.56908 0.09366 0.0
C485 C 0.17246 0.60235 0.14724 0.0
C486 C 0.15297 0.57673 0.06026 0.0
C487 C 0.19516 0.59602 0.07036 0.0
H488 H 0.21837 0.40496 0.61865 0.0
H489 H 0.26055 0.39678 0.75667 0.0
H490 H 0.33529 0.41672 0.73025 0.0
H491 H 0.38788 0.44447 0.6682 0.0
H492 H 0.34656 0.45549 0.52934 0.0
H493 H 0.27241 0.42573 0.55539 0.0
C494 C 0.24418 0.4068 0.64258 0.0
C495 C 0.23452 0.40008 0.68938 0.0
C496 C 0.28703 0.41908 0.62697 0.0
C497 C 0.26775 0.40243 0.72051 0.0
C498 C 0.31028 0.41382 0.7054 0.0
C499 C 0.36278 0.43983 0.64351 0.0
C500 C 0.37278 0.45278 0.59692 0.0
C501 C 0.32026 0.42353 0.65874 0.0
C502 C 0.3398 0.44601 0.56544 0.0
C503 C 0.29732 0.42918 0.58033 0.0
H504 H 0.85826 0.77306 0.82078 0.0
H505 H 0.95741 0.87934 0.86555 0.0
H506 H 0.99635 0.81772 0.89717 0.0
H507 H 0.99772 0.73295 0.91872 0.0
H508 H 0.89597 0.62646 0.87644 0.0
H509 H 0.86252 0.68844 0.83694 0.0
C510 C 0.88895 0.78233 0.8365 0.0
C511 C 0.9057 0.83009 0.84039 0.0
C512 C 0.9102 0.74667 0.85554 0.0
C513 C 0.94484 0.84256 0.86151 0.0
C514 C 0.96667 0.80737 0.87993 0.0
C515 C 0.96853 0.72329 0.90039 0.0
C516 C 0.94916 0.67513 0.90103 0.0
C517 C 0.94907 0.75918 0.87815 0.0
C518 C 0.91138 0.66325 0.87694 0.0
C519 C 0.89217 0.69866 0.85428 0.0
H520 H 0.4345 0.71648 0.14161 0.0
H521 H 0.3627 0.77351 0.23598 0.0
H522 H 0.40575 0.85325 0.21457 0.0
H523 H 0.45789 0.90784 0.16224 0.0
H524 H 0.52886 0.85114 0.06586 0.0
H525 H 0.49237 0.77043 0.09448 0.0
C526 C 0.42969 0.74624 0.15857 0.0
C527 C 0.39644 0.73933 0.19111 0.0
C528 C 0.45367 0.79216 0.14478 0.0
C529 C 0.38907 0.77814 0.21185 0.0
C530 C 0.41319 0.82371 0.19904 0.0
C531 C 0.46566 0.87782 0.14772 0.0
C532 C 0.49578 0.88572 0.11156 0.0
C533 C 0.44462 0.8314 0.16443 0.0
C534 C 0.50576 0.84624 0.09359 0.0
C535 C 0.48487 0.79998 0.10994 0.0
H536 H 0.10645 0.31795 0.64156 0.0
H537 H 0.21797 0.30341 0.71978 0.0
H538 H 0.22147 0.2296 0.68888 0.0
H539 H 0.19093 0.16748 0.64216 0.0
H540 H 0.07555 0.17814 0.56887 0.0
H541 H 0.0746 0.25442 0.59617 0.0
C542 C 0.13126 0.29832 0.65195 0.0
C543 C 0.16213 0.3162 0.68256 0.0
C544 C 0.13203 0.25499 0.63533 0.0
C545 C 0.1945 0.2909 0.69545 0.0
C546 C 0.19618 0.24844 0.67819 0.0
C547 C 0.16563 0.18653 0.632 0.0
C548 C 0.13341 0.16714 0.60341 0.0
C549 C 0.16491 0.22995 0.64839 0.0
C550 C 0.10066 0.19215 0.59095 0.0
C551 C 0.10016 0.23584 0.60645 0.0
H552 H 0.7243 0.31056 0.38524 0.0
H553 H 0.6239 0.19022 0.42642 0.0
H554 H 0.579 0.24265 0.45122 0.0
H555 H 0.56792 0.32358 0.45943 0.0
H556 H 0.67077 0.44329 0.42356 0.0
H557 H 0.7152 0.39083 0.39833 0.0
C558 C 0.69302 0.29601 0.40073 0.0
C559 C 0.67738 0.24683 0.40461 0.0
C560 C 0.66768 0.3264 0.4151 0.0
C561 C 0.63642 0.2281 0.4236 0.0
C562 C 0.61077 0.25804 0.43744 0.0
C563 C 0.59994 0.33797 0.44572 0.0
C564 C 0.61599 0.38706 0.44259 0.0
C565 C 0.62584 0.30736 0.43283 0.0
C566 C 0.65781 0.40549 0.42586 0.0
C567 C 0.68324 0.37555 0.41162 0.0
loop_
_geom_bond_atom_site_label_1
_geom_bond_atom_site_label_2
_geom_bond_distance
_geom_bond_site_symmetry_2
_ccdc_geom_bond_type
C0 N1 1.317 . S
C0 N2 1.348 . S
C0 C3 1.485 . S
N1 C0 1.317 . S
N1 N5 1.370 . S
N2 C0 1.348 . S
N2 C4 1.346 . S
C3 C0 1.485 . S
C3 H7 0.960 . S
C3 H8 0.961 . S
C3 H9 0.960 . S
C4 N2 1.346 . S
C4 N5 1.307 . S
C4 C6 1.486 . S
N5 N1 1.370 . S
N5 C4 1.307 . S
C6 C4 1.486 . S
C6 H10 0.960 . S
C6 H11 0.960 . S
C6 H12 0.959 . S
H7 C3 0.960 . S
H8 C3 0.961 . S
H9 C3 0.960 . S
H10 C6 0.960 . S
H11 C6 0.960 . S
H12 C6 0.959 . S
C13 N14 1.317 . S
C13 N15 1.348 . S
C13 C16 1.485 . S
N14 C13 1.317 . S
N14 N18 1.370 . S
N15 C13 1.348 . S
N15 C17 1.346 . S
C16 C13 1.485 . S
C16 H20 0.960 . S
C16 H21 0.961 . S
C16 H22 0.960 . S
C17 N15 1.346 . S
C17 N18 1.307 . S
C17 C19 1.486 . S
N18 N14 1.370 . S
N18 C17 1.307 . S
C19 C17 1.486 . S
C19 H23 0.960 . S
C19 H24 0.960 . S
C19 H25 0.959 . S
H20 C16 0.960 . S
H21 C16 0.961 . S
H22 C16 0.960 . S
H23 C19 0.960 . S
H24 C19 0.960 . S
H25 C19 0.959 . S
C26 N27 1.317 . S
C26 N28 1.348 . S
C26 C29 1.485 . S
N27 C26 1.317 . S
N27 N31 1.370 . S
N28 C26 1.348 . S
N28 C30 1.346 . S
C29 C26 1.485 . S
C29 H33 0.960 . S
C29 H34 0.961 . S
C29 H35 0.960 . S
C30 N28 1.346 . S
C30 N31 1.307 . S
C30 C32 1.486 . S
N31 N27 1.370 . S
N31 C30 1.307 . S
C32 C30 1.486 . S
C32 H36 0.960 . S
C32 H37 0.960 . S
C32 H38 0.959 . S
H33 C29 0.960 . S
H34 C29 0.961 . S
H35 C29 0.960 . S
H36 C32 0.960 . S
H37 C32 0.960 . S
H38 C32 0.959 . S
C39 N40 1.317 . S
C39 N41 1.348 . S
C39 C42 1.485 . S
N40 C39 1.317 . S
N40 N44 1.370 . S
N41 C39 1.348 . S
N41 C43 1.346 . S
C42 C39 1.485 . S
C42 H46 0.960 . S
C42 H47 0.961 . S
C42 H48 0.960 . S
C43 N41 1.346 . S
C43 N44 1.307 . S
C43 C45 1.486 . S
N44 N40 1.370 . S
N44 C43 1.307 . S
C45 C43 1.486 . S
C45 H49 0.960 . S
C45 H50 0.960 . S
C45 H51 0.959 . S
H46 C42 0.960 . S
H47 C42 0.961 . S
H48 C42 0.960 . S
H49 C45 0.960 . S
H50 C45 0.960 . S
H51 C45 0.959 . S
C52 N53 1.317 . S
C52 N54 1.348 . S
C52 C55 1.485 . S
N53 C52 1.317 . S
N53 N57 1.370 . S
N54 C52 1.348 . S
N54 C56 1.346 . S
C55 C52 1.485 . S
C55 H59 0.960 . S
C55 H60 0.961 . S
C55 H61 0.960 . S
C56 N54 1.346 . S
C56 N57 1.307 . S
C56 C58 1.486 . S
N57 N53 1.370 . S
N57 C56 1.307 . S
C58 C56 1.486 . S
C58 H62 0.960 . S
C58 H63 0.960 . S
C58 H64 0.959 . S
H59 C55 0.960 . S
H60 C55 0.961 . S
H61 C55 0.960 . S
H62 C58 0.960 . S
H63 C58 0.960 . S
H64 C58 0.959 . S
C65 N66 1.317 . S
C65 N67 1.348 . S
C65 C68 1.485 . S
N66 C65 1.317 . S
N66 N70 1.370 . S
N67 C65 1.348 . S
N67 C69 1.346 . S
C68 C65 1.485 . S
C68 H72 0.960 . S
C68 H73 0.961 . S
C68 H74 0.960 . S
C69 N67 1.346 . S
C69 N70 1.307 . S
C69 C71 1.486 . S
N70 N66 1.370 . S
N70 C69 1.307 . S
C71 C69 1.486 . S
C71 H75 0.960 . S
C71 H76 0.960 . S
C71 H77 0.959 . S
H72 C68 0.960 . S
H73 C68 0.961 . S
H74 C68 0.960 . S
H75 C71 0.960 . S
H76 C71 0.960 . S
H77 C71 0.959 . S
C78 N79 1.317 . S
C78 N80 1.348 . S
C78 C81 1.485 . S
N79 C78 1.317 . S
N79 N83 1.370 . S
N80 C78 1.348 . S
N80 C82 1.346 . S
C81 C78 1.485 . S
C81 H85 0.960 . S
C81 H86 0.961 . S
C81 H87 0.960 . S
C82 N80 1.346 . S
C82 N83 1.307 . S
C82 C84 1.486 . S
N83 N79 1.370 . S
N83 C82 1.307 . S
C84 C82 1.486 . S
C84 H88 0.960 . S
C84 H89 0.960 . S
C84 H90 0.959 . S
H85 C81 0.960 . S
H86 C81 0.961 . S
H87 C81 0.960 . S
H88 C84 0.960 . S
H89 C84 0.960 . S
H90 C84 0.959 . S
C91 N92 1.317 . S
C91 N93 1.348 . S
C91 C94 1.485 . S
N92 C91 1.317 . S
N92 N96 1.370 . S
N93 C91 1.348 . S
N93 C95 1.346 . S
C94 C91 1.485 . S
C94 H98 0.960 . S
C94 H99 0.961 . S
C94 H100 0.960 . S
C95 N93 1.346 . S
C95 N96 1.307 . S
C95 C97 1.486 . S
N96 N92 1.370 . S
N96 C95 1.307 . S
C97 C95 1.486 . S
C97 H101 0.960 . S
C97 H102 0.960 . S
C97 H103 0.959 . S
H98 C94 0.960 . S
H99 C94 0.961 . S
H100 C94 0.960 . S
H101 C97 0.960 . S
H102 C97 0.960 . S
H103 C97 0.959 . S
Zn104 O110 1.969 1_545 S
Zn104 O111 1.965 1_545 S
Zn104 O115 2.024 . S
Zn104 O120 1.969 . S
Zn105 O112 1.969 . S
Zn105 O118 1.969 1_565 S
Zn105 O119 1.965 1_665 S
Zn105 O121 2.024 1_655 S
C106 O107 1.229 . S
C106 O115 1.058 . S
O107 C106 1.229 . S
C108 O109 1.229 . S
C108 O121 1.058 1_655 S
O109 C108 1.229 . S
O110 Zn104 1.969 1_565 S
O110 C113 1.267 . S
O111 Zn104 1.965 1_565 S
O111 C122 1.260 . S
O112 Zn105 1.969 . S
O112 C122 1.258 1_655 S
C113 O110 1.267 . S
C113 O114 1.228 . S
O114 C113 1.228 . S
O115 Zn104 2.024 . S
O115 C106 1.058 . S
C116 O117 1.228 . S
C116 O118 1.267 . S
O117 C116 1.228 . S
O118 Zn105 1.969 1_545 S
O118 C116 1.267 . S
O119 Zn105 1.965 1_445 S
O119 C123 1.260 . S
O120 Zn104 1.969 . S
O120 C123 1.258 . S
O121 Zn105 2.024 1_455 S
O121 C108 1.058 1_455 S
C122 O111 1.260 . S
C122 O112 1.258 1_455 S
C123 O119 1.260 . S
C123 O120 1.258 . S
Zn124 O130 1.969 . S
Zn124 O131 1.956 1_566 S
Zn124 O135 2.024 . S
Zn124 O140 1.969 1_556 S
Zn125 O132 1.969 . S
Zn125 O138 1.969 . S
Zn125 O139 1.965 1_545 S
Zn125 O141 2.024 . S
C126 O127 1.229 . S
C126 O135 1.058 . S
O127 C126 1.229 . S
C128 O129 1.229 . S
C128 O141 1.058 . S
O129 C128 1.229 . S
O130 Zn124 1.969 . S
O130 C133 1.267 . S
O131 Zn124 1.956 1_544 S
O131 C142 1.262 1_554 S
O132 Zn125 1.969 . S
O132 C142 1.258 1_554 S
C133 O130 1.267 . S
C133 O134 1.228 . S
O134 C133 1.228 . S
O135 Zn124 2.024 . S
O135 C126 1.058 . S
C136 O137 1.228 . S
C136 O138 1.267 . S
O137 C136 1.228 . S
O138 Zn125 1.969 . S
O138 C136 1.267 . S
O139 Zn125 1.965 1_565 S
O139 C143 1.260 . S
O140 Zn124 1.969 1_554 S
O140 C143 1.258 . S
O141 Zn125 2.024 . S
O141 C128 1.058 . S
C142 O131 1.262 1_556 S
C142 O132 1.258 1_556 S
C143 O139 1.260 . S
C143 O140 1.258 . S
Zn144 O150 1.969 . S
Zn144 O151 1.965 . S
Zn144 O155 2.024 . S
Zn144 O160 1.969 . S
Zn145 O152 1.969 . S
Zn145 O158 1.969 . S
Zn145 O159 1.965 . S
Zn145 O161 2.024 . S
C146 O147 1.229 . S
C146 O155 1.058 . S
O147 C146 1.229 . S
C148 O149 1.229 . S
C148 O161 1.058 . S
O149 C148 1.229 . S
O150 Zn144 1.969 . S
O150 C153 1.267 . S
O151 Zn144 1.965 . S
O151 C162 1.260 . S
O152 Zn145 1.969 . S
O152 C162 1.258 . S
C153 O150 1.267 . S
C153 O154 1.228 . S
O154 C153 1.228 . S
O155 Zn144 2.024 . S
O155 C146 1.058 . S
C156 O157 1.228 . S
C156 O158 1.267 . S
O157 C156 1.228 . S
O158 Zn145 1.969 . S
O158 C156 1.267 . S
O159 Zn145 1.965 . S
O159 C163 1.260 . S
O160 Zn144 1.969 . S
O160 C163 1.258 . S
O161 Zn145 2.024 . S
O161 C148 1.058 . S
C162 O151 1.260 . S
C162 O152 1.258 . S
C163 O159 1.260 . S
C163 O160 1.258 . S
Zn164 O170 1.969 . S
Zn164 O171 1.965 1_556 S
Zn164 O175 2.024 . S
Zn164 O180 1.969 1_655 S
Zn165 O172 1.969 . S
Zn165 O178 1.969 . S
Zn165 O179 1.965 1_554 S
Zn165 O181 2.024 . S
C166 O167 1.229 . S
C166 O175 1.058 . S
O167 C166 1.229 . S
C168 O169 1.229 . S
C168 O181 1.058 . S
O169 C168 1.229 . S
O170 Zn164 1.969 . S
O170 C173 1.267 . S
O171 Zn164 1.965 1_554 S
O171 C182 1.260 . S
O172 Zn165 1.969 . S
O172 C182 1.258 1_455 S
C173 O170 1.267 . S
C173 O174 1.228 . S
O174 C173 1.228 . S
O175 Zn164 2.024 . S
O175 C166 1.058 . S
C176 O177 1.228 . S
C176 O178 1.267 . S
O177 C176 1.228 . S
O178 Zn165 1.969 . S
O178 C176 1.267 . S
O179 Zn165 1.965 1_556 S
O179 C183 1.260 . S
O180 Zn164 1.969 1_455 S
O180 C183 1.258 . S
O181 Zn165 2.024 . S
O181 C168 1.058 . S
C182 O171 1.260 . S
C182 O172 1.258 1_655 S
C183 O179 1.260 . S
C183 O180 1.258 . S
H184 C190 0.930 . S
H185 C193 0.930 . S
H186 C194 0.930 . S
H187 C195 0.930 . S
H188 C198 0.930 . S
H189 C199 0.930 . S
C190 H184 0.930 . S
C190 C191 1.355 . S
C190 C192 1.415 . S
C191 C190 1.355 . S
C191 C193 1.419 . S
C192 C190 1.415 . S
C192 C197 1.425 . S
C192 C199 1.409 . S
C193 H185 0.930 . S
C193 C191 1.419 . S
C193 C194 1.362 . S
C194 H186 0.930 . S
C194 C193 1.362 . S
C194 C197 1.409 . S
C195 H187 0.930 . S
C195 C196 1.355 . S
C195 C197 1.415 . S
C196 C195 1.355 . S
C196 C198 1.419 . S
C197 C192 1.425 . S
C197 C194 1.409 . S
C197 C195 1.415 . S
C198 H188 0.930 . S
C198 C196 1.419 . S
C198 C199 1.362 . S
C199 H189 0.930 . S
C199 C192 1.409 . S
C199 C198 1.362 . S
H200 C206 0.930 . S
H201 C209 0.930 . S
H202 C210 0.930 . S
H203 C211 0.930 . S
H204 C214 0.930 . S
H205 C215 0.930 . S
C206 H200 0.930 . S
C206 C207 1.355 . S
C206 C208 1.415 . S
C207 C206 1.355 . S
C207 C209 1.419 . S
C208 C206 1.415 . S
C208 C213 1.425 . S
C208 C215 1.409 . S
C209 H201 0.930 . S
C209 C207 1.419 . S
C209 C210 1.362 . S
C210 H202 0.930 . S
C210 C209 1.362 . S
C210 C213 1.409 . S
C211 H203 0.930 . S
C211 C212 1.355 . S
C211 C213 1.415 . S
C212 C211 1.355 . S
C212 C214 1.419 . S
C213 C208 1.425 . S
C213 C210 1.409 . S
C213 C211 1.415 . S
C214 H204 0.930 . S
C214 C212 1.419 . S
C214 C215 1.362 . S
C215 H205 0.930 . S
C215 C208 1.409 . S
C215 C214 1.362 . S
H216 C222 0.930 . S
H217 C225 0.930 . S
H218 C226 0.930 . S
H219 C227 0.930 . S
H220 C230 0.930 . S
H221 C231 0.930 . S
C222 H216 0.930 . S
C222 C223 1.355 . S
C222 C224 1.415 . S
C223 C222 1.355 . S
C223 C225 1.419 . S
C224 C222 1.415 . S
C224 C229 1.425 . S
C224 C231 1.409 . S
C225 H217 0.930 . S
C225 C223 1.419 . S
C225 C226 1.362 . S
C226 H218 0.930 . S
C226 C225 1.362 . S
C226 C229 1.409 . S
C227 H219 0.930 . S
C227 C228 1.355 . S
C227 C229 1.415 . S
C228 C227 1.355 . S
C228 C230 1.419 . S
C229 C224 1.425 . S
C229 C226 1.409 . S
C229 C227 1.415 . S
C230 H220 0.930 . S
C230 C228 1.419 . S
C230 C231 1.362 . S
C231 H221 0.930 . S
C231 C224 1.409 . S
C231 C230 1.362 . S
H232 C238 0.930 . S
H233 C241 0.930 . S
H234 C242 0.930 . S
H235 C243 0.930 . S
H236 C246 0.930 . S
H237 C247 0.930 . S
C238 H232 0.930 . S
C238 C239 1.355 . S
C238 C240 1.415 . S
C239 C238 1.355 . S
C239 C241 1.419 . S
C240 C238 1.415 . S
C240 C245 1.425 . S
C240 C247 1.409 . S
C241 H233 0.930 . S
C241 C239 1.419 . S
C241 C242 1.362 . S
C242 H234 0.930 . S
C242 C241 1.362 . S
C242 C245 1.409 . S
C243 H235 0.930 . S
C243 C244 1.355 . S
C243 C245 1.415 . S
C244 C243 1.355 . S
C244 C246 1.419 . S
C245 C240 1.425 . S
C245 C242 1.409 . S
C245 C243 1.415 . S
C246 H236 0.930 . S
C246 C244 1.419 . S
C246 C247 1.362 . S
C247 H237 0.930 . S
C247 C240 1.409 . S
C247 C246 1.362 . S
H248 C254 0.930 . S
H249 C257 0.930 . S
H250 C258 0.930 . S
H251 C259 0.930 . S
H252 C262 0.930 . S
H253 C263 0.930 . S
C254 H248 0.930 . S
C254 C255 1.355 . S
C254 C256 1.415 . S
C255 C254 1.355 . S
C255 C257 1.419 . S
C256 C254 1.415 . S
C256 C261 1.425 . S
C256 C263 1.409 . S
C257 H249 0.930 . S
C257 C255 1.419 . S
C257 C258 1.362 . S
C258 H250 0.930 . S
C258 C257 1.362 . S
C258 C261 1.409 . S
C259 H251 0.930 . S
C259 C260 1.355 . S
C259 C261 1.415 . S
C260 C259 1.355 . S
C260 C262 1.419 . S
C261 C256 1.425 . S
C261 C258 1.409 . S
C261 C259 1.415 . S
C262 H252 0.930 . S
C262 C260 1.419 . S
C262 C263 1.362 . S
C263 H253 0.930 . S
C263 C256 1.409 . S
C263 C262 1.362 . S
H264 C270 0.930 . S
H265 C273 0.930 . S
H266 C274 0.930 . S
H267 C275 0.930 . S
H268 C278 0.930 . S
H269 C279 0.930 . S
C270 H264 0.930 . S
C270 C271 1.355 . S
C270 C272 1.415 . S
C271 C270 1.355 . S
C271 C273 1.419 . S
C272 C270 1.415 . S
C272 C277 1.425 . S
C272 C279 1.409 . S
C273 H265 0.930 . S
C273 C271 1.419 . S
C273 C274 1.362 . S
C274 H266 0.930 . S
C274 C273 1.362 . S
C274 C277 1.409 . S
C275 H267 0.930 . S
C275 C276 1.355 . S
C275 C277 1.415 . S
C276 C275 1.355 . S
C276 C278 1.419 . S
C277 C272 1.425 . S
C277 C274 1.409 . S
C277 C275 1.415 . S
C278 H268 0.930 . S
C278 C276 1.419 . S
C278 C279 1.362 . S
C279 H269 0.930 . S
C279 C272 1.409 . S
C279 C278 1.362 . S
H280 C286 0.930 . S
H281 C289 0.930 . S
H282 C290 0.930 . S
H283 C291 0.930 . S
H284 C294 0.930 . S
H285 C295 0.930 . S
C286 H280 0.930 . S
C286 C287 1.355 . S
C286 C288 1.415 . S
C287 C286 1.355 . S
C287 C289 1.419 . S
C288 C286 1.415 . S
C288 C293 1.425 . S
C288 C295 1.409 . S
C289 H281 0.930 . S
C289 C287 1.419 . S
C289 C290 1.362 . S
C290 H282 0.930 . S
C290 C289 1.362 . S
C290 C293 1.409 . S
C291 H283 0.930 . S
C291 C292 1.355 . S
C291 C293 1.415 . S
C292 C291 1.355 . S
C292 C294 1.419 . S
C293 C288 1.425 . S
C293 C290 1.409 . S
C293 C291 1.415 . S
C294 H284 0.930 . S
C294 C292 1.419 . S
C294 C295 1.362 . S
C295 H285 0.930 . S
C295 C288 1.409 . S
C295 C294 1.362 . S
H296 C302 0.930 . S
H297 C305 0.930 . S
H298 C306 0.930 . S
H299 C307 0.930 . S
H300 C310 0.930 . S
H301 C311 0.930 . S
C302 H296 0.930 . S
C302 C303 1.355 . S
C302 C304 1.415 . S
C303 C302 1.355 . S
C303 C305 1.419 . S
C304 C302 1.415 . S
C304 C309 1.425 . S
C304 C311 1.409 . S
C305 H297 0.930 . S
C305 C303 1.419 . S
C305 C306 1.362 . S
C306 H298 0.930 . S
C306 C305 1.362 . S
C306 C309 1.409 . S
C307 H299 0.930 . S
C307 C308 1.355 . S
C307 C309 1.415 . S
C308 C307 1.355 . S
C308 C310 1.419 . S
C309 C304 1.425 . S
C309 C306 1.409 . S
C309 C307 1.415 . S
C310 H300 0.930 . S
C310 C308 1.419 . S
C310 C311 1.362 . S
C311 H301 0.930 . S
C311 C304 1.409 . S
C311 C310 1.362 . S
H312 C318 0.930 . S
H313 C321 0.930 . S
H314 C322 0.930 . S
H315 C323 0.930 . S
H316 C326 0.930 . S
H317 C327 0.930 . S
C318 H312 0.930 . S
C318 C319 1.355 . S
C318 C320 1.415 . S
C319 C318 1.355 . S
C319 C321 1.419 . S
C320 C318 1.415 . S
C320 C325 1.425 . S
C320 C327 1.409 . S
C321 H313 0.930 . S
C321 C319 1.419 . S
C321 C322 1.362 . S
C322 H314 0.930 . S
C322 C321 1.362 . S
C322 C325 1.409 . S
C323 H315 0.930 . S
C323 C324 1.355 . S
C323 C325 1.415 . S
C324 C323 1.355 . S
C324 C326 1.419 . S
C325 C320 1.425 . S
C325 C322 1.409 . S
C325 C323 1.415 . S
C326 H316 0.930 . S
C326 C324 1.419 . S
C326 C327 1.362 . S
C327 H317 0.930 . S
C327 C320 1.409 . S
C327 C326 1.362 . S
H328 C334 0.930 . S
H329 C337 0.930 . S
H330 C338 0.930 . S
H331 C339 0.930 . S
H332 C342 0.930 . S
H333 C343 0.930 . S
C334 H328 0.930 . S
C334 C335 1.355 . S
C334 C336 1.415 . S
C335 C334 1.355 . S
C335 C337 1.419 . S
C336 C334 1.415 . S
C336 C341 1.425 . S
C336 C343 1.409 . S
C337 H329 0.930 . S
C337 C335 1.419 . S
C337 C338 1.362 . S
C338 H330 0.930 . S
C338 C337 1.362 . S
C338 C341 1.409 . S
C339 H331 0.930 . S
C339 C340 1.355 . S
C339 C341 1.415 . S
C340 C339 1.355 . S
C340 C342 1.419 . S
C341 C336 1.425 . S
C341 C338 1.409 . S
C341 C339 1.415 . S
C342 H332 0.930 . S
C342 C340 1.419 . S
C342 C343 1.362 . S
C343 H333 0.930 . S
C343 C336 1.409 . S
C343 C342 1.362 . S
H344 C350 0.930 . S
H345 C353 0.930 . S
H346 C354 0.930 . S
H347 C355 0.930 . S
H348 C358 0.930 . S
H349 C359 0.930 . S
C350 H344 0.930 . S
C350 C351 1.355 . S
C350 C352 1.415 . S
C351 C350 1.355 . S
C351 C353 1.419 . S
C352 C350 1.415 . S
C352 C357 1.425 . S
C352 C359 1.409 . S
C353 H345 0.930 . S
C353 C351 1.419 . S
C353 C354 1.362 . S
C354 H346 0.930 . S
C354 C353 1.362 . S
C354 C357 1.409 . S
C355 H347 0.930 . S
C355 C356 1.355 . S
C355 C357 1.415 . S
C356 C355 1.355 . S
C356 C358 1.419 . S
C357 C352 1.425 . S
C357 C354 1.409 . S
C357 C355 1.415 . S
C358 H348 0.930 . S
C358 C356 1.419 . S
C358 C359 1.362 . S
C359 H349 0.930 . S
C359 C352 1.409 . S
C359 C358 1.362 . S
H360 C366 0.930 . S
H361 C369 0.930 . S
H362 C370 0.930 . S
H363 C371 0.930 . S
H364 C374 0.930 . S
H365 C375 0.930 . S
C366 H360 0.930 . S
C366 C367 1.355 . S
C366 C368 1.415 . S
C367 C366 1.355 . S
C367 C369 1.419 . S
C368 C366 1.415 . S
C368 C373 1.425 . S
C368 C375 1.409 . S
C369 H361 0.930 . S
C369 C367 1.419 . S
C369 C370 1.362 . S
C370 H362 0.930 . S
C370 C369 1.362 . S
C370 C373 1.409 . S
C371 H363 0.930 . S
C371 C372 1.355 . S
C371 C373 1.415 . S
C372 C371 1.355 . S
C372 C374 1.419 . S
C373 C368 1.425 . S
C373 C370 1.409 . S
C373 C371 1.415 . S
C374 H364 0.930 . S
C374 C372 1.419 . S
C374 C375 1.362 . S
C375 H365 0.930 . S
C375 C368 1.409 . S
C375 C374 1.362 . S
H376 C382 0.930 . S
H377 C385 0.930 . S
H378 C386 0.930 . S
H379 C387 0.930 . S
H380 C390 0.930 1_455 S
H381 C391 0.930 . S
C382 H376 0.930 . S
C382 C383 1.355 . S
C382 C384 1.415 . S
C383 C382 1.355 . S
C383 C385 1.419 . S
C384 C382 1.415 . S
C384 C389 1.425 . S
C384 C391 1.409 . S
C385 H377 0.930 . S
C385 C383 1.419 . S
C385 C386 1.362 . S
C386 H378 0.930 . S
C386 C385 1.362 . S
C386 C389 1.409 . S
C387 H379 0.930 . S
C387 C388 1.355 . S
C387 C389 1.415 . S
C388 C387 1.355 . S
C388 C390 1.419 . S
C389 C384 1.425 . S
C389 C386 1.409 . S
C389 C387 1.415 . S
C390 H380 0.930 1_655 S
C390 C388 1.419 . S
C390 C391 1.362 . S
C391 H381 0.930 . S
C391 C384 1.409 . S
C391 C390 1.362 . S
H392 C398 0.930 . S
H393 C401 0.930 . S
H394 C402 0.930 . S
H395 C403 0.930 . S
H396 C406 0.930 . S
H397 C407 0.930 . S
C398 H392 0.930 . S
C398 C399 1.355 . S
C398 C400 1.415 . S
C399 C398 1.355 . S
C399 C401 1.419 . S
C400 C398 1.415 . S
C400 C405 1.425 . S
C400 C407 1.409 . S
C401 H393 0.930 . S
C401 C399 1.419 . S
C401 C402 1.362 . S
C402 H394 0.930 . S
C402 C401 1.362 . S
C402 C405 1.409 . S
C403 H395 0.930 . S
C403 C404 1.355 . S
C403 C405 1.415 . S
C404 C403 1.355 . S
C404 C406 1.419 . S
C405 C400 1.425 . S
C405 C402 1.409 . S
C405 C403 1.415 . S
C406 H396 0.930 . S
C406 C404 1.419 . S
C406 C407 1.362 . S
C407 H397 0.930 . S
C407 C400 1.409 . S
C407 C406 1.362 . S
H408 C414 0.930 . S
H409 C417 0.930 . S
H410 C418 0.930 . S
H411 C419 0.930 . S
H412 C422 0.930 . S
H413 C423 0.930 . S
C414 H408 0.930 . S
C414 C415 1.355 . S
C414 C416 1.415 . S
C415 C414 1.355 . S
C415 C417 1.419 . S
C416 C414 1.415 . S
C416 C421 1.425 . S
C416 C423 1.409 . S
C417 H409 0.930 . S
C417 C415 1.419 . S
C417 C418 1.362 . S
C418 H410 0.930 . S
C418 C417 1.362 . S
C418 C421 1.409 . S
C419 H411 0.930 . S
C419 C420 1.355 . S
C419 C421 1.415 . S
C420 C419 1.355 . S
C420 C422 1.419 . S
C421 C416 1.425 . S
C421 C418 1.409 . S
C421 C419 1.415 . S
C422 H412 0.930 . S
C422 C420 1.419 . S
C422 C423 1.362 . S
C423 H413 0.930 . S
C423 C416 1.409 . S
C423 C422 1.362 . S
H424 C430 0.930 . S
H425 C433 0.930 . S
H426 C434 0.930 . S
H427 C435 0.930 . S
H428 C438 0.930 . S
H429 C439 0.930 . S
C430 H424 0.930 . S
C430 C431 1.355 . S
C430 C432 1.415 . S
C431 C430 1.355 . S
C431 C433 1.419 . S
C432 C430 1.415 . S
C432 C437 1.425 . S
C432 C439 1.409 . S
C433 H425 0.930 . S
C433 C431 1.419 . S
C433 C434 1.362 . S
C434 H426 0.930 . S
C434 C433 1.362 . S
C434 C437 1.409 . S
C435 H427 0.930 . S
C435 C436 1.355 . S
C435 C437 1.415 . S
C436 C435 1.355 . S
C436 C438 1.419 . S
C437 C432 1.425 . S
C437 C434 1.409 . S
C437 C435 1.415 . S
C438 H428 0.930 . S
C438 C436 1.419 . S
C438 C439 1.362 . S
C439 H429 0.930 . S
C439 C432 1.409 . S
C439 C438 1.362 . S
H440 C446 0.930 . S
H441 C449 0.930 . S
H442 C450 0.930 . S
H443 C451 0.930 . S
H444 C454 0.930 . S
H445 C455 0.930 . S
C446 H440 0.930 . S
C446 C447 1.355 . S
C446 C448 1.415 . S
C447 C446 1.355 . S
C447 C449 1.419 . S
C448 C446 1.415 . S
C448 C453 1.425 . S
C448 C455 1.409 . S
C449 H441 0.930 . S
C449 C447 1.419 . S
C449 C450 1.362 . S
C450 H442 0.930 . S
C450 C449 1.362 . S
C450 C453 1.409 . S
C451 H443 0.930 . S
C451 C452 1.355 . S
C451 C453 1.415 . S
C452 C451 1.355 . S
C452 C454 1.419 . S
C453 C448 1.425 . S
C453 C450 1.409 . S
C453 C451 1.415 . S
C454 H444 0.930 . S
C454 C452 1.419 . S
C454 C455 1.362 . S
C455 H445 0.930 . S
C455 C448 1.409 . S
C455 C454 1.362 . S
H456 C462 0.930 . S
H457 C465 0.930 . S
H458 C466 0.930 . S
H459 C467 0.930 . S
H460 C470 0.930 . S
H461 C471 0.930 . S
C462 H456 0.930 . S
C462 C463 1.355 . S
C462 C464 1.415 . S
C463 C462 1.355 . S
C463 C465 1.419 . S
C464 C462 1.415 . S
C464 C469 1.425 . S
C464 C471 1.409 . S
C465 H457 0.930 . S
C465 C463 1.419 . S
C465 C466 1.362 . S
C466 H458 0.930 . S
C466 C465 1.362 . S
C466 C469 1.409 . S
C467 H459 0.930 . S
C467 C468 1.355 . S
C467 C469 1.415 . S
C468 C467 1.355 . S
C468 C470 1.419 . S
C469 C464 1.425 . S
C469 C466 1.409 . S
C469 C467 1.415 . S
C470 H460 0.930 . S
C470 C468 1.419 . S
C470 C471 1.362 . S
C471 H461 0.930 . S
C471 C464 1.409 . S
C471 C470 1.362 . S
H472 C478 0.930 . S
H473 C481 0.930 . S
H474 C482 0.930 . S
H475 C483 0.930 . S
H476 C486 0.930 . S
H477 C487 0.930 . S
C478 H472 0.930 . S
C478 C479 1.355 . S
C478 C480 1.415 . S
C479 C478 1.355 . S
C479 C481 1.419 . S
C480 C478 1.415 . S
C480 C485 1.425 . S
C480 C487 1.409 . S
C481 H473 0.930 . S
C481 C479 1.419 . S
C481 C482 1.362 . S
C482 H474 0.930 . S
C482 C481 1.362 . S
C482 C485 1.409 . S
C483 H475 0.930 . S
C483 C484 1.355 . S
C483 C485 1.415 . S
C484 C483 1.355 . S
C484 C486 1.419 . S
C485 C480 1.425 . S
C485 C482 1.409 . S
C485 C483 1.415 . S
C486 H476 0.930 . S
C486 C484 1.419 . S
C486 C487 1.362 . S
C487 H477 0.930 . S
C487 C480 1.409 . S
C487 C486 1.362 . S
H488 C494 0.930 . S
H489 C497 0.930 . S
H490 C498 0.930 . S
H491 C499 0.930 . S
H492 C502 0.930 . S
H493 C503 0.930 . S
C494 H488 0.930 . S
C494 C495 1.355 . S
C494 C496 1.415 . S
C495 C494 1.355 . S
C495 C497 1.419 . S
C496 C494 1.415 . S
C496 C501 1.425 . S
C496 C503 1.409 . S
C497 H489 0.930 . S
C497 C495 1.419 . S
C497 C498 1.362 . S
C498 H490 0.930 . S
C498 C497 1.362 . S
C498 C501 1.409 . S
C499 H491 0.930 . S
C499 C500 1.355 . S
C499 C501 1.415 . S
C500 C499 1.355 . S
C500 C502 1.419 . S
C501 C496 1.425 . S
C501 C498 1.409 . S
C501 C499 1.415 . S
C502 H492 0.930 . S
C502 C500 1.419 . S
C502 C503 1.362 . S
C503 H493 0.930 . S
C503 C496 1.409 . S
C503 C502 1.362 . S
H504 C510 0.930 . S
H505 C513 0.930 . S
H506 C514 0.930 . S
H507 C515 0.930 . S
H508 C518 0.930 . S
H509 C519 0.930 . S
C510 H504 0.930 . S
C510 C511 1.355 . S
C510 C512 1.415 . S
C511 C510 1.355 . S
C511 C513 1.419 . S
C512 C510 1.415 . S
C512 C517 1.425 . S
C512 C519 1.409 . S
C513 H505 0.930 . S
C513 C511 1.419 . S
C513 C514 1.362 . S
C514 H506 0.930 . S
C514 C513 1.362 . S
C514 C517 1.409 . S
C515 H507 0.930 . S
C515 C516 1.355 . S
C515 C517 1.415 . S
C516 C515 1.355 . S
C516 C518 1.419 . S
C517 C512 1.425 . S
C517 C514 1.409 . S
C517 C515 1.415 . S
C518 H508 0.930 . S
C518 C516 1.419 . S
C518 C519 1.362 . S
C519 H509 0.930 . S
C519 C512 1.409 . S
C519 C518 1.362 . S
H520 C526 0.930 . S
H521 C529 0.930 . S
H522 C530 0.930 . S
H523 C531 0.930 . S
H524 C534 0.930 . S
H525 C535 0.930 . S
C526 H520 0.930 . S
C526 C527 1.355 . S
C526 C528 1.415 . S
C527 C526 1.355 . S
C527 C529 1.419 . S
C528 C526 1.415 . S
C528 C533 1.425 . S
C528 C535 1.409 . S
C529 H521 0.930 . S
C529 C527 1.419 . S
C529 C530 1.362 . S
C530 H522 0.930 . S
C530 C529 1.362 . S
C530 C533 1.409 . S
C531 H523 0.930 . S
C531 C532 1.355 . S
C531 C533 1.415 . S
C532 C531 1.355 . S
C532 C534 1.419 . S
C533 C528 1.425 . S
C533 C530 1.409 . S
C533 C531 1.415 . S
C534 H524 0.930 . S
C534 C532 1.419 . S
C534 C535 1.362 . S
C535 H525 0.930 . S
C535 C528 1.409 . S
C535 C534 1.362 . S
H536 C542 0.930 . S
H537 C545 0.930 . S
H538 C546 0.930 . S
H539 C547 0.930 . S
H540 C550 0.930 . S
H541 C551 0.930 . S
C542 H536 0.930 . S
C542 C543 1.355 . S
C542 C544 1.415 . S
C543 C542 1.355 . S
C543 C545 1.419 . S
C544 C542 1.415 . S
C544 C549 1.425 . S
C544 C551 1.409 . S
C545 H537 0.930 . S
C545 C543 1.419 . S
C545 C546 1.362 . S
C546 H538 0.930 . S
C546 C545 1.362 . S
C546 C549 1.409 . S
C547 H539 0.930 . S
C547 C548 1.355 . S
C547 C549 1.415 . S
C548 C547 1.355 . S
C548 C550 1.419 . S
C549 C544 1.425 . S
C549 C546 1.409 . S
C549 C547 1.415 . S
C550 H540 0.930 . S
C550 C548 1.419 . S
C550 C551 1.362 . S
C551 H541 0.930 . S
C551 C544 1.409 . S
C551 C550 1.362 . S
H552 C558 0.930 . S
H553 C561 0.930 . S
H554 C562 0.930 . S
H555 C563 0.930 . S
H556 C566 0.930 . S
H557 C567 0.930 . S
C558 H552 0.930 . S
C558 C559 1.355 . S
C558 C560 1.415 . S
C559 C558 1.355 . S
C559 C561 1.419 . S
C560 C558 1.415 . S
C560 C565 1.425 . S
C560 C567 1.409 . S
C561 H553 0.930 . S
C561 C559 1.419 . S
C561 C562 1.362 . S
C562 H554 0.930 . S
C562 C561 1.362 . S
C562 C565 1.409 . S
C563 H555 0.930 . S
C563 C564 1.355 . S
C563 C565 1.415 . S
C564 C563 1.355 . S
C564 C566 1.419 . S
C565 C560 1.425 . S
C565 C562 1.409 . S
C565 C563 1.415 . S
C566 H556 0.930 . S
C566 C564 1.419 . S
C566 C567 1.362 . S
C567 H557 0.930 . S
C567 C560 1.409 . S
C567 C566 1.362 . S
C191 N1 1.418 . S
C196 C123 1.386 . S
C207 N18 1.473 . S
C212 C126 1.485 . S
C228 C162 1.398 . S
C223 N28 1.431 . S
C239 N40 1.831 . S
C244 C182 1.836 . S
C260 C136 1.903 . S
C255 N5 1.912 . S
C276 C113 1.557 . S
C271 N14 1.554 . S
C292 C166 1.562 . S
C287 N31 1.661 . S
C308 C146 1.184 . S
C303 N41 1.209 . S
C319 N2 1.316 . S
C324 C176 1.278 . S
C340 C142 1.752 . S
C335 N27 1.731 . S
C351 N44 1.680 . S
C356 C108 1.678 . S
C367 N15 1.213 . S
C372 C156 1.191 . S
C388 C122 1.727 1_655 S
C383 N57 1.736 . S
C399 N70 1.151 . S
C404 C128 1.152 . S
C415 N79 1.669 . S
C420 C163 1.656 . S
C431 N93 1.631 . S
C436 C183 1.597 . S
C447 N54 1.550 . S
C452 C133 1.512 . S
C468 C116 1.892 . S
C463 N66 1.888 . S
C484 C168 1.151 . S
C479 N80 1.286 . S
C500 C148 1.365 . S
C495 N96 1.447 . S
C511 N53 1.293 . S
C516 C173 1.272 . S
C532 C143 1.584 . S
C527 N83 1.555 . S
C548 C106 1.787 . S
C543 N92 1.801 . S
C559 N67 1.262 . S
C564 C153 1.167 . S
