# Generated by pormake.
# Topology ftw, (4,12)-cn, num edge types: 1
# Building blocks:
#     Node 0, Type 0, BuildingBlock: MIFKUJ_clean_linker_1, # of connection points: 4
#     Node 1, Type 0, BuildingBlock: MIFKUJ_clean_linker_1, # of connection points: 4
#     Node 2, Type 0, BuildingBlock: MIFKUJ_clean_linker_1, # of connection points: 4
#     Node 3, Type 1, BuildingBlock: QEWDON_clean_sbu_0, # of connection points: 12
#     Edge 4, Type (0, 1), BuildingBlock: XIVTED_clean_linker_0, # of connection points: 2
#     Edge 5, Type (0, 1), BuildingBlock: XIVTED_clean_linker_0, # of connection points: 2
#     Edge 6, Type (0, 1), BuildingBlock: XIVTED_clean_linker_0, # of connection points: 2
#     Edge 7, Type (0, 1), BuildingBlock: XIVTED_clean_linker_0, # of connection points: 2
#     Edge 8, Type (0, 1), BuildingBlock: XIVTED_clean_linker_0, # of connection points: 2
#     Edge 9, Type (0, 1), BuildingBlock: XIVTED_clean_linker_0, # of connection points: 2
#     Edge 10, Type (0, 1), BuildingBlock: XIVTED_clean_linker_0, # of connection points: 2
#     Edge 11, Type (0, 1), BuildingBlock: XIVTED_clean_linker_0, # of connection points: 2
#     Edge 12, Type (0, 1), BuildingBlock: XIVTED_clean_linker_0, # of connection points: 2
#     Edge 13, Type (0, 1), BuildingBlock: XIVTED_clean_linker_0, # of connection points: 2
#     Edge 14, Type (0, 1), BuildingBlock: XIVTED_clean_linker_0, # of connection points: 2
#     Edge 15, Type (0, 1), BuildingBlock: XIVTED_clean_linker_0, # of connection points: 2
# Relax obj value: 0.070
# Max RMSD: 0.194
# Mean RMSD: 0.143
data_MOF--net-ftw--node1-QEWDON_clean_sbu_0--node2-MIFKUJ_clean_linker_1--edge1-XIVTED_clean_linker_0
_symmetry_space_group_name_H-M    P1
_symmetry_Int_Tables_number       1
_symmetry_cell_setting            triclinic
loop_
_symmetry_equiv_pos_as_xyz
'x, y, z'
_cell_length_a     26.980705
_cell_length_b     30.266577
_cell_length_c     29.198342
_cell_angle_alpha  90.021217
_cell_angle_beta   90.069393
_cell_angle_gamma 90.107697
loop_
_atom_site_label
_atom_site_type_symbol
_atom_site_fract_x
_atom_site_fract_y
_atom_site_fract_z
_atom_type_partial_charge
H0 H 0.06838 0.56838 0.59094 0.0
H1 H 0.07954 0.62973 0.64393 0.0
H2 H 0.93817 0.68328 0.60212 0.0
H3 H 0.92676 0.62074 0.54959 0.0
H4 H -0.00389 0.50957 0.60177 0.0
H5 H 0.04719 0.61136 0.48648 0.0
H6 H 0.0521 0.6722 0.43222 0.0
H7 H 0.91247 0.63169 0.37275 0.0
H8 H 0.90623 0.57255 0.42923 0.0
H9 H 0.88401 0.43202 0.4587 0.0
H10 H 0.87633 0.36632 0.41068 0.0
H11 H 0.03318 0.34131 0.42795 0.0
H12 H 0.03926 0.40537 0.47838 0.0
H13 H 0.95818 0.50382 0.43594 0.0
H14 H 0.90406 0.40734 0.55819 0.0
H15 H 0.90062 0.34775 0.61489 0.0
H16 H 0.05008 0.37888 0.65726 0.0
H17 H 0.05347 0.4379 0.60022 0.0
C18 C -0.00324 0.58984 0.56613 0.0
C19 C 0.0401 0.5937 0.59256 0.0
C20 C 0.04654 0.62906 0.6228 0.0
C21 C 0.00968 0.66155 0.62763 0.0
C22 C 0.96707 0.6586 0.59976 0.0
C23 C 0.96072 0.62313 0.56926 0.0
C24 C -0.01293 0.54821 0.54029 0.0
C25 C -0.0115 0.50839 0.56528 0.0
C26 C 0.97526 0.54698 0.49284 0.0
C27 C 0.97606 0.58717 0.4627 0.0
C28 C 0.01678 0.61622 0.4628 0.0
C29 C 0.01999 0.65075 0.43089 0.0
C30 C 0.98303 0.6569 0.39724 0.0
C31 C 0.94156 0.62858 0.39809 0.0
C32 C 0.93814 0.5943 0.43034 0.0
C33 C 0.96211 0.42342 0.4723 0.0
C34 C 0.91645 0.41179 0.45272 0.0
C35 C 0.91238 0.37436 0.42469 0.0
C36 C 0.95425 0.34827 0.41446 0.0
C37 C -0.00023 0.35973 0.43521 0.0
C38 C 0.00351 0.39665 0.46403 0.0
C39 C 0.96776 0.46578 0.49751 0.0
C40 C 0.96554 0.50552 0.47243 0.0
C41 C 0.97901 0.46721 0.54478 0.0
C42 C 0.97917 0.42705 0.57452 0.0
C43 C 0.93651 0.40068 0.57891 0.0
C44 C 0.93437 0.36693 0.61183 0.0
C45 C 0.97496 0.35858 0.64097 0.0
C46 C 0.01826 0.384 0.63526 0.0
C47 C 0.02021 0.41793 0.60266 0.0
H48 H 0.39612 0.05875 0.45357 0.0
H49 H 0.34975 0.05776 0.38156 0.0
H50 H 0.41888 0.93399 0.34518 0.0
H51 H 0.46492 0.935 0.41763 0.0
H52 H 0.39134 -0.00257 0.52309 0.0
H53 H 0.52027 0.06064 0.42498 0.0
H54 H 0.57766 0.06476 0.35976 0.0
H55 H 0.63592 0.93658 0.39564 0.0
H56 H 0.57892 0.93276 0.46058 0.0
H57 H 0.56981 0.9247 0.59615 0.0
H58 H 0.62206 0.92093 0.66389 0.0
H59 H 0.55504 0.04064 0.71554 0.0
H60 H 0.5036 0.04495 0.64627 0.0
H61 H 0.57434 0.98889 0.53427 0.0
H62 H 0.45359 0.93026 0.63875 0.0
H63 H 0.39823 0.92578 0.70491 0.0
H64 H 0.32123 0.04219 0.65802 0.0
H65 H 0.37744 0.04737 0.59266 0.0
C66 C 0.43421 -0.00283 0.44075 0.0
C67 C 0.40154 0.03158 0.42993 0.0
C68 C 0.37533 0.03107 0.38866 0.0
C69 C 0.38087 -0.00414 0.35763 0.0
C70 C 0.41374 0.96144 0.36849 0.0
C71 C 0.44031 0.96217 0.40965 0.0
C72 C 0.46005 -0.00325 0.48553 0.0
C73 C 0.43142 -0.00368 0.52587 0.0
C74 C 0.51224 -0.0057 0.48858 0.0
C75 C 0.54501 -0.00378 0.44754 0.0
C76 C 0.54517 0.0333 0.41854 0.0
C77 C 0.57825 0.0358 0.38153 0.0
C78 C 0.61132 0.00098 0.37247 0.0
C79 C 0.61063 0.96378 0.40137 0.0
C80 C 0.57816 0.96159 0.43862 0.0
C81 C 0.53275 0.98501 0.61621 0.0
C82 C 0.56599 0.94994 0.62224 0.0
C83 C 0.5956 0.94766 0.66126 0.0
C84 C 0.59265 0.98042 0.69531 0.0
C85 C 0.55845 0.01509 0.68977 0.0
C86 C 0.52871 0.01736 0.65048 0.0
C87 C 0.50576 0.98913 0.57222 0.0
C88 C 0.53423 0.99036 0.53188 0.0
C89 C 0.45339 -0.00778 0.56946 0.0
C90 C 0.42052 0.98963 0.61072 0.0
C91 C 0.42552 0.95542 0.64306 0.0
C92 C 0.39359 0.9527 0.68087 0.0
C93 C 0.35516 0.98357 0.6868 0.0
C94 C 0.35001 0.01756 0.65429 0.0
C95 C 0.3823 0.02061 0.61687 0.0
H96 H 0.58993 0.51421 0.96551 0.0
H97 H 0.66628 0.55744 0.96685 0.0
H98 H 0.63095 0.60253 0.10362 0.0
H99 H 0.5568 0.55643 0.10311 0.0
H100 H 0.56421 0.4458 0.02479 0.0
H101 H 0.45743 0.58208 0.96825 0.0
H102 H 0.43327 0.65935 0.97535 0.0
H103 H 0.44917 0.6501 0.12264 0.0
H104 H 0.46924 0.57187 0.11495 0.0
H105 H 0.36208 0.4339 0.08428 0.0
H106 H 0.28805 0.38945 0.07006 0.0
H107 H 0.33826 0.36486 0.93162 0.0
H108 H 0.41331 0.40745 0.94726 0.0
H109 H 0.39554 0.51006 0.03421 0.0
H110 H 0.45388 0.3674 0.08135 0.0
H111 H 0.48036 0.29001 0.08282 0.0
H112 H 0.5657 0.31178 0.95967 0.0
H113 H 0.53857 0.38857 0.95811 0.0
C114 C 0.56701 0.53314 0.03372 0.0
C115 C 0.59879 0.53342 0.99577 0.0
C116 C 0.64229 0.5584 0.99652 0.0
C117 C 0.65471 0.5839 0.03519 0.0
C118 C 0.62294 0.58306 0.07339 0.0
C119 C 0.57981 0.5575 0.07282 0.0
C120 C 0.52187 0.50544 0.03287 0.0
C121 C 0.52727 0.45981 0.02657 0.0
C122 C 0.4739 0.5236 0.03661 0.0
C123 C 0.46556 0.5716 0.04103 0.0
C124 C 0.45615 0.59703 1.00196 0.0
C125 C 0.44281 0.64144 1.00618 0.0
C126 C 0.43912 0.66144 0.04967 0.0
C127 C 0.45062 0.63594 0.08864 0.0
C128 C 0.4628 0.59127 0.08436 0.0
C129 C 0.39321 0.4234 0.017 0.0
C130 C 0.35701 0.41872 0.05098 0.0
C131 C 0.31445 0.39369 0.04252 0.0
C132 C 0.30687 0.37357 0.99954 0.0
C133 C 0.34309 0.37911 0.96534 0.0
C134 C 0.38599 0.40355 0.97413 0.0
C135 C 0.43791 0.45033 0.02556 0.0
C136 C 0.43241 0.49586 0.03289 0.0
C137 C 0.48586 0.43193 0.02324 0.0
C138 C 0.49435 0.3837 0.01964 0.0
C139 C 0.47711 0.35508 0.05396 0.0
C140 C 0.49256 0.31098 0.05496 0.0
C141 C 0.52532 0.29479 0.02152 0.0
C142 C 0.53999 0.32295 0.98565 0.0
C143 C 0.52481 0.367 0.98486 0.0
Zn144 Zn 0.03574 0.04325 0.99513 0.0
Zn145 Zn 0.03637 0.07887 0.09808 0.0
O146 O 0.01028 0.02796 0.06069 0.0
H147 H 0.00434 -0.00121 0.07286 0.0
C148 C 0.9489 0.14047 0.90222 0.0
O149 O 0.97899 0.10642 0.90358 0.0
Zn150 Zn 0.93788 0.9048 0.09253 0.0
Zn151 Zn 0.93359 0.90159 0.98168 0.0
O152 O 0.94194 0.94212 0.03593 0.0
H153 H 0.93411 0.97316 0.03403 0.0
Zn154 Zn 0.89588 0.09617 0.98295 0.0
O155 O 0.93863 0.08498 0.04005 0.0
Zn156 Zn 0.89375 0.06798 0.09278 0.0
H157 H 0.92193 0.09089 0.01145 0.0
Zn158 Zn 0.11198 0.90738 0.97399 0.0
O159 O 0.0642 0.91318 0.02843 0.0
H160 H 0.083 0.90974 1.00054 0.0
Zn161 Zn 0.10631 0.92739 0.08381 0.0
C162 C 0.04962 0.86327 0.89983 0.0
O163 O 0.01151 0.87511 0.92492 0.0
O164 O 0.05323 0.10883 0.98549 0.0
O165 O 0.05312 0.13099 0.05788 0.0
O166 O 0.91713 0.83818 1.00117 0.0
O167 O 0.91101 0.84382 0.07694 0.0
O168 O 0.82183 0.09562 1.00035 0.0
O169 O 0.8218 0.08175 0.07542 0.0
C170 C 0.11994 0.02119 0.1217 0.0
O171 O 0.18422 0.89917 0.99597 0.0
O172 O 0.17846 0.91224 0.07087 0.0
O173 O 0.88596 0.92226 0.93041 0.0
C174 C 0.05886 0.13896 0.0154 0.0
O175 O 0.07943 0.00322 0.95202 0.0
C176 C 0.87722 0.97513 0.13566 0.0
O177 O 0.91419 0.1432 0.93166 0.0
C178 C 0.90668 0.8215 0.04002 0.0
O179 O 0.09315 0.87326 0.91324 0.0
C180 C 0.95247 0.11565 0.16728 0.0
O181 O 0.10152 0.0597 0.12536 0.0
O182 O 0.09603 -0.00809 0.09946 0.0
C183 C 0.7989 0.09099 0.03823 0.0
O184 O 0.88996 0.93455 0.13558 0.0
O185 O 0.90032 0.00238 0.10981 0.0
C186 C 0.03887 0.88069 0.14431 0.0
O187 O 0.91188 0.10509 0.14768 0.0
O188 O -0.0055 0.10531 0.15025 0.0
C189 C 0.20387 0.90165 0.03564 0.0
O190 O 0.08428 0.8896 0.13734 0.0
O191 O 0.0075 0.89772 0.11689 0.0
C192 C 0.86322 0.95899 0.92893 0.0
O193 O 0.87217 0.98907 0.96033 0.0
C194 C 0.12639 0.0037 0.95676 0.0
O195 O 0.14545 0.02352 0.99277 0.0
H196 H 0.89277 0.34003 0.33909 0.0
H197 H 0.02662 0.13258 0.22976 0.0
H198 H 0.00865 0.27048 0.41152 0.0
H199 H 0.87516 0.16647 0.19781 0.0
H200 H 0.02518 0.18628 0.29275 0.0
H201 H 0.88971 0.28029 0.28338 0.0
C202 C 0.9172 0.31212 0.34394 0.0
C203 C 0.95097 0.31081 0.38075 0.0
C204 C -0.00782 0.18161 0.27215 0.0
C205 C 0.94859 0.24244 0.31527 0.0
C206 C -0.00704 0.15103 0.23613 0.0
C207 C 0.95098 0.14496 0.20825 0.0
C208 C 0.94948 0.20705 0.27982 0.0
C209 C 0.90839 0.16985 0.21833 0.0
C210 C 0.91559 0.27803 0.31167 0.0
C211 C 0.98257 0.27384 0.38359 0.0
N212 N 0.90896 0.20011 0.25283 0.0
N213 N 0.9809 0.24145 0.35116 0.0
H214 H 0.67185 0.06982 0.34532 0.0
H215 H 0.79322 0.92785 0.14271 0.0
H216 H 0.63096 0.93634 0.30983 0.0
H217 H 0.86066 0.04793 0.19202 0.0
H218 H 0.72497 0.93834 0.19582 0.0
H219 H 0.73308 0.06945 0.28277 0.0
C220 C 0.67538 0.04064 0.32412 0.0
C221 C 0.64646 0.00289 0.33308 0.0
C222 C 0.75428 0.96282 0.19491 0.0
C223 C 0.71614 0.00236 0.26151 0.0
C224 C 0.79327 0.95694 0.16438 0.0
C225 C 0.83277 0.98712 0.16283 0.0
C226 C 0.75455 -0.00095 0.2249 0.0
C227 C 0.83066 0.02427 0.19158 0.0
C228 C 0.71047 0.04041 0.28861 0.0
C229 C 0.65284 0.96594 0.30469 0.0
N230 N 0.7924 0.02901 0.22189 0.0
N231 N 0.68684 0.96664 0.2704 0.0
H232 H 0.06906 0.68358 0.35508 0.0
H233 H 0.94617 0.84905 0.17237 0.0
H234 H 0.91136 0.70762 0.35307 0.0
H235 H 0.10257 0.83952 0.2021 0.0
H236 H 0.93002 0.79497 0.23413 0.0
H237 H 0.07959 0.73803 0.29495 0.0
C238 C 0.03651 0.70061 0.34254 0.0
C239 C -0.01076 0.69096 0.36012 0.0
C240 C 0.96777 0.80497 0.22699 0.0
C241 C 0.00114 0.75355 0.28928 0.0
C242 C 0.977 0.83579 0.19172 0.0
C243 C 0.02584 0.84898 0.18169 0.0
C244 C 0.00771 0.7871 0.25205 0.0
C245 C 0.06426 0.83058 0.20812 0.0
C246 C 0.04257 0.73167 0.30765 0.0
C247 C 0.94856 0.71352 0.34069 0.0
N248 N 0.05438 0.80079 0.24161 0.0
N249 N 0.95541 0.74369 0.30639 0.0
H250 H 0.33008 0.92575 0.3204 0.0
H251 H 0.19519 0.07866 0.13605 0.0
H252 H 0.36367 0.06341 0.29766 0.0
H253 H 0.15223 0.94368 0.16138 0.0
H254 H 0.26672 0.06883 0.18583 0.0
H255 H 0.27428 0.92713 0.25405 0.0
C256 C 0.32629 0.95607 0.30103 0.0
C257 C 0.35106 -0.0053 0.31488 0.0
C258 C 0.24212 0.04105 0.18016 0.0
C259 C 0.28722 -0.00344 0.23925 0.0
C260 C 0.20128 0.04663 0.15163 0.0
C261 C 0.16748 0.01198 0.14489 0.0
C262 C 0.24903 0.00064 0.20284 0.0
C263 C 0.17742 0.97112 0.16553 0.0
C264 C 0.29429 0.95687 0.26331 0.0
C265 C 0.34457 0.03311 0.28873 0.0
N266 N 0.21696 0.96672 0.19423 0.0
N267 N 0.31308 0.03312 0.25246 0.0
H268 H 0.09351 0.7072 0.6537 0.0
H269 H 0.9623 0.83195 0.86357 0.0
H270 H 0.93761 0.69541 0.68439 0.0
H271 H 0.11991 0.83485 0.83857 0.0
H272 H 0.9514 0.78667 0.79481 0.0
H273 H 0.1026 0.75862 0.71768 0.0
C274 C 0.0611 0.71545 0.67377 0.0
C275 C 0.01475 0.6965 0.6636 0.0
C276 C -0.01164 0.79731 0.80428 0.0
C277 C 0.02494 0.7559 0.73717 0.0
C278 C -0.00536 0.82324 0.84359 0.0
C279 C 0.04217 0.83714 0.85716 0.0
C280 C 0.02986 0.78515 0.77812 0.0
C281 C 0.08259 0.8248 0.82968 0.0
C282 C 0.06632 0.74499 0.7103 0.0
C283 C 0.974 0.70933 0.69049 0.0
N284 N 0.07552 0.79949 0.79166 0.0
N285 N 0.98011 0.73794 0.7261 0.0
H286 H 0.25396 -0.00688 0.68676 0.0
H287 H 0.22695 0.99098 0.95889 0.0
H288 H 0.37674 0.96654 0.7773 0.0
H289 H 0.10159 0.98605 0.86717 0.0
H290 H 0.28232 0.98036 0.89348 0.0
H291 H 0.19774 0.99059 0.75243 0.0
C292 C 0.26914 0.98679 0.72048 0.0
C293 C 0.32031 0.98032 0.72644 0.0
C294 C 0.24268 0.98113 0.88767 0.0
C295 C 0.25586 0.97727 0.8021 0.0
C296 C 0.21098 0.98715 0.92506 0.0
C297 C 0.15945 0.98988 0.91858 0.0
C298 C 0.22292 0.97847 0.84319 0.0
C299 C 0.141 0.98434 0.8739 0.0
C300 C 0.23692 0.98502 0.75797 0.0
C301 C 0.33761 0.97153 0.77097 0.0
N302 N 0.17268 0.97954 0.83792 0.0
N303 N 0.30559 0.97069 0.80705 0.0
H304 H 0.04557 0.29884 0.66948 0.0
H305 H 0.8848 0.20789 0.88073 0.0
H306 H 0.89675 0.34217 0.69891 0.0
H307 H 0.02296 0.14928 0.8382 0.0
H308 H 0.891 0.26028 0.81719 0.0
H309 H 0.04016 0.24665 0.7334 0.0
C310 C 0.01174 0.29745 0.68935 0.0
C311 C 0.97153 0.32506 0.67855 0.0
C312 C 0.92 0.236 0.82174 0.0
C313 C 0.96512 0.26518 0.75215 0.0
C314 C 0.9166 0.20611 0.85821 0.0
C315 C 0.95336 0.17391 0.86494 0.0
C316 C 0.96066 0.23408 0.79173 0.0
C317 C -0.00638 0.17334 0.83438 0.0
C318 C 0.00862 0.26747 0.72579 0.0
C319 C 0.92848 0.32127 0.70542 0.0
N320 N -0.0038 0.20291 0.79925 0.0
N321 N 0.92653 0.29215 0.74096 0.0
H322 H 0.62207 0.90801 0.74432 0.0
H323 H 0.81023 0.03454 0.90989 0.0
H324 H 0.64206 0.04941 0.73684 0.0
H325 H 0.8241 0.89734 0.87126 0.0
H326 H 0.74052 0.04167 0.85607 0.0
H327 H 0.68682 0.90453 0.8024 0.0
C328 C 0.63998 0.93839 0.75495 0.0
C329 C 0.62712 0.97897 0.73503 0.0
C330 C 0.75909 0.01014 0.85945 0.0
C331 C 0.70108 0.97522 0.80207 0.0
C332 C 0.79882 0.00604 0.89003 0.0
C333 C 0.8231 0.96529 0.89502 0.0
C334 C 0.74323 0.97306 0.83444 0.0
C335 C 0.80669 0.92943 0.86853 0.0
C336 C 0.67692 0.93637 0.78817 0.0
C337 C 0.65068 0.01741 0.75128 0.0
N338 N 0.76767 0.93411 0.83966 0.0
N339 N 0.68681 0.01458 0.78373 0.0
H340 H 0.30005 0.29777 0.94794 0.0
H341 H 0.05652 0.21666 0.06302 0.0
H342 H 0.21187 0.38491 0.03205 0.0
H343 H 0.11117 0.15864 0.93785 0.0
H344 H 0.10909 0.28113 0.04959 0.0
H345 H 0.22913 0.24855 0.94071 0.0
C346 C 0.26562 0.30713 0.96425 0.0
C347 C 0.2624 0.34549 0.9912 0.0
C348 C 0.10875 0.25475 0.02452 0.0
C349 C 0.18117 0.28834 0.98385 0.0
C350 C 0.07877 0.21794 0.03218 0.0
C351 C 0.08019 0.18194 1.00193 0.0
C352 C 0.14112 0.25504 0.98692 0.0
C353 C 0.10928 0.1855 0.96228 0.0
C354 C 0.22507 0.27881 0.96015 0.0
C355 C 0.21672 0.35514 0.01203 0.0
N356 N 0.13956 0.22096 0.95647 0.0
N357 N 0.17817 0.3264 0.00855 0.0
H358 H 0.38107 0.69489 0.11893 0.0
H359 H 0.27388 0.88448 0.96998 0.0
H360 H 0.44992 0.73278 0.99118 0.0
H361 H 0.24834 0.87601 0.11567 0.0
H362 H 0.34497 0.8353 0.97855 0.0
H363 H 0.33889 0.76547 0.12098 0.0
C364 C 0.38841 0.71825 0.09171 0.0
C365 C 0.41887 0.7071 0.05442 0.0
C366 C 0.32455 0.84505 0.00881 0.0
C367 C 0.36874 0.78812 0.056 0.0
C368 C 0.28393 0.87318 1.00395 0.0
C369 C 0.25429 0.88346 0.04199 0.0
C370 C 0.335 0.82654 0.05184 0.0
C371 C 0.26956 0.86839 0.08524 0.0
C372 C 0.36389 0.75871 0.09286 0.0
C373 C 0.42569 0.73904 0.01995 0.0
N374 N 0.3081 0.83978 0.08882 0.0
N375 N 0.40007 0.77769 0.02111 0.0
H376 H 0.54484 0.23312 0.95492 0.0
H377 H 0.74214 0.11182 0.11327 0.0
H378 H 0.56155 0.25696 0.09983 0.0
H379 H 0.73478 0.09895 0.96614 0.0
H380 H 0.66193 0.14935 0.11206 0.0
H381 H 0.59984 0.16938 0.96174 0.0
C382 C 0.55943 0.2245 0.98831 0.0
C383 C 0.54928 0.2509 0.02668 0.0
C384 C 0.67744 0.13754 0.08014 0.0
C385 C 0.61249 0.17813 0.03475 0.0
C386 C 0.72316 0.11589 0.08083 0.0
C387 C 0.74582 0.10323 0.03961 0.0
C388 C 0.65434 0.14651 0.03798 0.0
C389 C 0.71926 0.10908 0.99867 0.0
C390 C 0.59076 0.18806 0.99223 0.0
C391 C 0.56838 0.23764 0.06929 0.0
N392 N 0.67537 0.13094 0.99881 0.0
N393 N 0.59977 0.20267 0.07203 0.0
H394 H 0.69432 0.63043 0.96341 0.0
H395 H 0.87386 0.77493 0.11501 0.0
H396 H 0.71803 0.60242 0.10688 0.0
H397 H 0.88351 0.76826 0.96746 0.0
H398 H 0.81967 0.71002 0.11393 0.0
H399 H 0.76539 0.6798 0.96471 0.0
C400 C 0.71483 0.63404 0.99509 0.0
C401 C 0.69979 0.61221 0.03516 0.0
C402 C 0.83439 0.7224 0.08191 0.0
C403 C 0.78086 0.66987 0.03707 0.0
C404 C 0.86535 0.75943 0.08248 0.0
C405 C 0.88252 0.77763 0.0412 0.0
C406 C 0.82015 0.70391 0.03977 0.0
C407 C 0.87061 0.75588 1.00012 0.0
C408 C 0.75542 0.66248 0.99582 0.0
C409 C 0.72748 0.61922 0.07537 0.0
N410 N 0.83951 0.72065 1.00041 0.0
N411 N 0.76635 0.64784 0.07544 0.0
loop_
_geom_bond_atom_site_label_1
_geom_bond_atom_site_label_2
_geom_bond_distance
_geom_bond_site_symmetry_2
_ccdc_geom_bond_type
H0 C19 0.949 . S
H1 C20 0.950 . S
H2 C22 0.950 . S
H3 C23 0.950 . S
H4 C25 0.950 . S
H5 C28 0.950 . S
H6 C29 0.950 . S
H7 C31 0.951 . S
H8 C32 0.949 . S
H9 C34 0.949 . S
H10 C35 0.950 . S
H11 C37 0.950 . S
H12 C38 0.950 . S
H13 C40 0.950 . S
H14 C43 0.950 . S
H15 C44 0.950 . S
H16 C46 0.951 . S
H17 C47 0.949 . S
C18 C19 1.376 . S
C18 C23 1.386 1_455 S
C18 C24 1.483 . S
C19 H0 0.949 . S
C19 C18 1.376 . S
C19 C20 1.397 . S
C20 H1 0.950 . S
C20 C19 1.397 . S
C20 C21 1.391 . S
C21 C20 1.391 . S
C21 C22 1.405 1_455 S
C22 H2 0.950 . S
C22 C21 1.405 1_655 S
C22 C23 1.367 . S
C23 H3 0.950 . S
C23 C18 1.386 1_655 S
C23 C22 1.367 . S
C24 C18 1.483 . S
C24 C25 1.382 . S
C24 C26 1.403 1_455 S
C25 H4 0.950 . S
C25 C24 1.382 . S
C25 C41 1.411 . S
C26 C24 1.403 1_655 S
C26 C27 1.489 . S
C26 C40 1.411 . S
C27 C26 1.489 . S
C27 C28 1.383 1_655 S
C27 C32 1.382 . S
C28 H5 0.950 . S
C28 C27 1.383 1_455 S
C28 C29 1.395 . S
C29 H6 0.950 . S
C29 C28 1.395 . S
C29 C30 1.288 1_455 S
C30 C29 1.288 1_655 S
C30 C31 1.392 . S
C31 H7 0.951 . S
C31 C30 1.392 . S
C31 C32 1.392 . S
C32 H8 0.949 . S
C32 C27 1.382 . S
C32 C31 1.392 . S
C33 C34 1.376 . S
C33 C38 1.386 1_655 S
C33 C39 1.483 . S
C34 H9 0.949 . S
C34 C33 1.376 . S
C34 C35 1.397 . S
C35 H10 0.950 . S
C35 C34 1.397 . S
C35 C36 1.391 . S
C36 C35 1.391 . S
C36 C37 1.405 1_655 S
C37 H11 0.950 . S
C37 C36 1.405 1_455 S
C37 C38 1.367 . S
C38 H12 0.950 . S
C38 C33 1.386 1_455 S
C38 C37 1.367 . S
C39 C33 1.483 . S
C39 C40 1.382 . S
C39 C41 1.403 1_655 S
C40 H13 0.950 . S
C40 C26 1.411 . S
C40 C39 1.382 . S
C41 C25 1.411 . S
C41 C39 1.403 1_455 S
C41 C42 1.489 . S
C42 C41 1.489 . S
C42 C43 1.383 1_455 S
C42 C47 1.382 . S
C43 H14 0.950 . S
C43 C42 1.383 1_655 S
C43 C44 1.395 . S
C44 H15 0.950 . S
C44 C43 1.395 . S
C44 C45 1.288 1_655 S
C45 C44 1.288 1_455 S
C45 C46 1.392 . S
C46 H16 0.951 . S
C46 C45 1.392 . S
C46 C47 1.392 . S
C47 H17 0.949 . S
C47 C42 1.382 . S
C47 C46 1.392 . S
H48 C67 0.949 . S
H49 C68 0.950 . S
H50 C70 0.950 . S
H51 C71 0.950 . S
H52 C73 0.950 . S
H53 C76 0.950 . S
H54 C77 0.950 . S
H55 C79 0.951 . S
H56 C80 0.949 . S
H57 C82 0.949 . S
H58 C83 0.950 . S
H59 C85 0.950 . S
H60 C86 0.950 . S
H61 C88 0.950 . S
H62 C91 0.950 . S
H63 C92 0.950 . S
H64 C94 0.951 . S
H65 C95 0.949 . S
C66 C67 1.376 . S
C66 C71 1.386 1_545 S
C66 C72 1.483 . S
C67 H48 0.949 . S
C67 C66 1.376 . S
C67 C68 1.397 . S
C68 H49 0.950 . S
C68 C67 1.397 . S
C68 C69 1.391 . S
C69 C68 1.391 . S
C69 C70 1.405 1_545 S
C70 H50 0.950 . S
C70 C69 1.405 1_565 S
C70 C71 1.367 . S
C71 H51 0.950 . S
C71 C66 1.386 1_565 S
C71 C70 1.367 . S
C72 C66 1.483 . S
C72 C73 1.382 . S
C72 C74 1.403 1_545 S
C73 H52 0.950 . S
C73 C72 1.382 . S
C73 C89 1.411 . S
C74 C72 1.403 1_565 S
C74 C75 1.489 . S
C74 C88 1.411 . S
C75 C74 1.489 . S
C75 C76 1.383 1_565 S
C75 C80 1.382 . S
C76 H53 0.950 . S
C76 C75 1.383 1_545 S
C76 C77 1.395 . S
C77 H54 0.950 . S
C77 C76 1.395 . S
C77 C78 1.288 1_545 S
C78 C77 1.288 1_565 S
C78 C79 1.392 . S
C79 H55 0.951 . S
C79 C78 1.392 . S
C79 C80 1.392 . S
C80 H56 0.949 . S
C80 C75 1.382 . S
C80 C79 1.392 . S
C81 C82 1.376 . S
C81 C86 1.386 1_565 S
C81 C87 1.483 . S
C82 H57 0.949 . S
C82 C81 1.376 . S
C82 C83 1.397 . S
C83 H58 0.950 . S
C83 C82 1.397 . S
C83 C84 1.391 . S
C84 C83 1.391 . S
C84 C85 1.405 1_565 S
C85 H59 0.950 . S
C85 C84 1.405 1_545 S
C85 C86 1.367 . S
C86 H60 0.950 . S
C86 C81 1.386 1_545 S
C86 C85 1.367 . S
C87 C81 1.483 . S
C87 C88 1.382 . S
C87 C89 1.403 1_565 S
C88 H61 0.950 . S
C88 C74 1.411 . S
C88 C87 1.382 . S
C89 C73 1.411 . S
C89 C87 1.403 1_545 S
C89 C90 1.489 . S
C90 C89 1.489 . S
C90 C91 1.383 1_545 S
C90 C95 1.382 . S
C91 H62 0.950 . S
C91 C90 1.383 1_565 S
C91 C92 1.395 . S
C92 H63 0.950 . S
C92 C91 1.395 . S
C92 C93 1.288 1_565 S
C93 C92 1.288 1_545 S
C93 C94 1.392 . S
C94 H64 0.951 . S
C94 C93 1.392 . S
C94 C95 1.392 . S
C95 H65 0.949 . S
C95 C90 1.382 . S
C95 C94 1.392 . S
H96 C115 0.949 . S
H97 C116 0.950 . S
H98 C118 0.950 . S
H99 C119 0.950 . S
H100 C121 0.950 . S
H101 C124 0.950 . S
H102 C125 0.950 . S
H103 C127 0.951 . S
H104 C128 0.949 . S
H105 C130 0.949 . S
H106 C131 0.950 . S
H107 C133 0.950 . S
H108 C134 0.950 . S
H109 C136 0.950 . S
H110 C139 0.950 . S
H111 C140 0.950 . S
H112 C142 0.951 . S
H113 C143 0.949 . S
C114 C115 1.376 1_554 S
C114 C119 1.386 . S
C114 C120 1.483 . S
C115 H96 0.949 . S
C115 C114 1.376 1_556 S
C115 C116 1.397 . S
C116 H97 0.950 . S
C116 C115 1.397 . S
C116 C117 1.391 1_556 S
C117 C116 1.391 1_554 S
C117 C118 1.405 . S
C118 H98 0.950 . S
C118 C117 1.405 . S
C118 C119 1.367 . S
C119 H99 0.950 . S
C119 C114 1.386 . S
C119 C118 1.367 . S
C120 C114 1.483 . S
C120 C121 1.382 . S
C120 C122 1.403 . S
C121 H100 0.950 . S
C121 C120 1.382 . S
C121 C137 1.411 . S
C122 C120 1.403 . S
C122 C123 1.489 . S
C122 C136 1.411 . S
C123 C122 1.489 . S
C123 C124 1.383 1_554 S
C123 C128 1.382 . S
C124 H101 0.950 . S
C124 C123 1.383 1_556 S
C124 C125 1.395 . S
C125 H102 0.950 . S
C125 C124 1.395 . S
C125 C126 1.288 1_556 S
C126 C125 1.288 1_554 S
C126 C127 1.392 . S
C127 H103 0.951 . S
C127 C126 1.392 . S
C127 C128 1.392 . S
C128 H104 0.949 . S
C128 C123 1.382 . S
C128 C127 1.392 . S
C129 C130 1.376 . S
C129 C134 1.386 1_554 S
C129 C135 1.483 . S
C130 H105 0.949 . S
C130 C129 1.376 . S
C130 C131 1.397 . S
C131 H106 0.950 . S
C131 C130 1.397 . S
C131 C132 1.391 . S
C132 C131 1.391 . S
C132 C133 1.405 1_554 S
C133 H107 0.950 . S
C133 C132 1.405 1_556 S
C133 C134 1.367 . S
C134 H108 0.950 . S
C134 C129 1.386 1_556 S
C134 C133 1.367 . S
C135 C129 1.483 . S
C135 C136 1.382 . S
C135 C137 1.403 . S
C136 H109 0.950 . S
C136 C122 1.411 . S
C136 C135 1.382 . S
C137 C121 1.411 . S
C137 C135 1.403 . S
C137 C138 1.489 . S
C138 C137 1.489 . S
C138 C139 1.383 . S
C138 C143 1.382 1_554 S
C139 H110 0.950 . S
C139 C138 1.383 . S
C139 C140 1.395 . S
C140 H111 0.950 . S
C140 C139 1.395 . S
C140 C141 1.288 . S
C141 C140 1.288 . S
C141 C142 1.392 1_554 S
C142 H112 0.951 . S
C142 C141 1.392 1_556 S
C142 C143 1.392 . S
C143 H113 0.949 . S
C143 C138 1.382 1_556 S
C143 C142 1.392 . S
Zn144 O146 1.933 1_556 S
Zn144 O164 1.985 . S
Zn144 O175 1.955 . S
Zn145 O146 1.911 . S
Zn145 O165 1.970 . S
Zn145 O181 1.945 . S
Zn145 O188 1.981 . S
O146 Zn144 1.933 1_554 S
O146 Zn145 1.911 . S
O146 H147 0.841 . S
H147 O146 0.841 . S
C148 O149 1.246 . S
C148 O177 1.276 1_455 S
O149 C148 1.246 . S
Zn150 O152 1.911 . S
Zn150 O167 1.970 . S
Zn150 O184 1.945 . S
Zn150 O191 1.981 . S
Zn151 O152 1.933 1_556 S
Zn151 O166 1.985 . S
Zn151 O173 1.955 . S
O152 Zn150 1.911 . S
O152 Zn151 1.933 1_554 S
O152 H153 0.841 . S
H153 O152 0.841 . S
Zn154 O155 1.933 1_556 S
Zn154 O168 1.985 . S
Zn154 O177 1.955 . S
O155 Zn154 1.933 1_554 S
O155 Zn156 1.911 . S
O155 H157 0.841 . S
Zn156 O155 1.911 . S
Zn156 O169 1.970 . S
Zn156 O185 1.981 . S
Zn156 O187 1.945 . S
H157 O155 0.841 . S
Zn158 O159 1.933 1_556 S
Zn158 O171 1.985 . S
Zn158 O179 1.955 . S
O159 Zn158 1.933 1_554 S
O159 H160 0.841 . S
O159 Zn161 1.911 . S
H160 O159 0.841 . S
Zn161 O159 1.911 . S
Zn161 O172 1.970 . S
Zn161 O182 1.981 . S
Zn161 O190 1.945 . S
C162 O163 1.246 . S
C162 O179 1.276 1_655 S
O163 C162 1.246 . S
O164 Zn144 1.985 . S
O164 C174 1.245 1_556 S
O165 Zn145 1.970 . S
O165 C174 1.263 . S
O166 Zn151 1.985 . S
O166 C178 1.245 1_556 S
O167 Zn150 1.970 . S
O167 C178 1.263 . S
O168 Zn154 1.985 . S
O168 C183 1.245 1_556 S
O169 Zn156 1.970 . S
O169 C183 1.263 . S
C170 O181 1.264 . S
C170 O182 1.244 1_545 S
O171 Zn158 1.985 . S
O171 C189 1.245 1_556 S
O172 Zn161 1.970 . S
O172 C189 1.263 . S
O173 Zn151 1.955 . S
O173 C192 1.276 1_565 S
C174 O164 1.245 1_554 S
C174 O165 1.263 . S
O175 Zn144 1.955 . S
O175 C194 1.276 1_545 S
C176 O184 1.262 1_545 S
C176 O185 1.245 . S
O177 C148 1.276 1_655 S
O177 Zn154 1.955 . S
C178 O166 1.245 1_554 S
C178 O167 1.263 . S
O179 Zn158 1.955 . S
O179 C162 1.276 1_455 S
C180 O187 1.261 1_455 S
C180 O188 1.245 . S
O181 Zn145 1.945 . S
O181 C170 1.264 . S
O182 Zn161 1.981 . S
O182 C170 1.244 1_565 S
C183 O168 1.245 1_554 S
C183 O169 1.263 . S
O184 Zn150 1.945 . S
O184 C176 1.262 1_565 S
O185 Zn156 1.981 . S
O185 C176 1.245 . S
C186 O190 1.262 . S
C186 O191 1.245 1_455 S
O187 Zn156 1.945 . S
O187 C180 1.261 1_655 S
O188 Zn145 1.981 . S
O188 C180 1.245 . S
C189 O171 1.245 1_554 S
C189 O172 1.263 . S
O190 Zn161 1.945 . S
O190 C186 1.262 . S
O191 Zn150 1.981 . S
O191 C186 1.245 1_655 S
C192 O173 1.276 1_545 S
C192 O193 1.246 . S
O193 C192 1.246 . S
C194 O175 1.276 1_565 S
C194 O195 1.246 . S
O195 C194 1.246 . S
H196 C202 0.930 . S
H197 C206 0.930 . S
H198 C211 0.929 . S
H199 C209 0.929 . S
H200 C204 0.929 . S
H201 C210 0.929 . S
C202 H196 0.930 . S
C202 C203 1.367 1_655 S
C202 C210 1.378 . S
C203 C202 1.367 1_455 S
C203 C211 1.433 . S
C204 H200 0.929 . S
C204 C206 1.378 . S
C204 C208 1.350 . S
C205 C208 1.463 . S
C205 C210 1.350 1_455 S
C205 N213 1.427 . S
C206 H197 0.930 . S
C206 C204 1.378 . S
C206 C207 1.367 . S
C207 C206 1.367 . S
C207 C209 1.433 1_455 S
C208 C204 1.350 . S
C208 C205 1.463 . S
C208 N212 1.427 1_455 S
C209 H199 0.929 . S
C209 C207 1.433 1_655 S
C209 N212 1.384 . S
C210 H201 0.929 . S
C210 C202 1.378 . S
C210 C205 1.350 1_655 S
C211 H198 0.929 . S
C211 C203 1.433 . S
C211 N213 1.384 . S
N212 C208 1.427 1_655 S
N212 C209 1.384 . S
N213 C205 1.427 . S
N213 C211 1.384 . S
H214 C220 0.930 . S
H215 C224 0.930 . S
H216 C229 0.929 . S
H217 C227 0.929 . S
H218 C222 0.929 . S
H219 C228 0.929 . S
C220 H214 0.930 . S
C220 C221 1.367 . S
C220 C228 1.378 . S
C221 C220 1.367 . S
C221 C229 1.433 1_545 S
C222 H218 0.929 . S
C222 C224 1.378 . S
C222 C226 1.350 1_565 S
C223 C226 1.463 . S
C223 C228 1.350 . S
C223 N231 1.427 1_545 S
C224 H215 0.930 . S
C224 C222 1.378 . S
C224 C225 1.367 1_565 S
C225 C224 1.367 1_545 S
C225 C227 1.433 . S
C226 C222 1.350 1_545 S
C226 C223 1.463 . S
C226 N230 1.427 . S
C227 H217 0.929 . S
C227 C225 1.433 . S
C227 N230 1.384 . S
C228 H219 0.929 . S
C228 C220 1.378 . S
C228 C223 1.350 . S
C229 H216 0.929 . S
C229 C221 1.433 1_565 S
C229 N231 1.384 . S
N230 C226 1.427 . S
N230 C227 1.384 . S
N231 C223 1.427 1_565 S
N231 C229 1.384 . S
H232 C238 0.930 . S
H233 C242 0.930 . S
H234 C247 0.929 . S
H235 C245 0.929 . S
H236 C240 0.929 . S
H237 C246 0.929 . S
C238 H232 0.930 . S
C238 C239 1.358 1_455 S
C238 C246 1.378 . S
C239 C238 1.358 1_655 S
C239 C247 1.443 . S
C240 H236 0.929 . S
C240 C242 1.378 . S
C240 C244 1.350 . S
C241 C244 1.463 . S
C241 C246 1.350 1_655 S
C241 N249 1.427 . S
C242 H233 0.930 . S
C242 C240 1.378 . S
C242 C243 1.367 . S
C243 C242 1.367 . S
C243 C245 1.433 1_655 S
C244 C240 1.350 . S
C244 C241 1.463 . S
C244 N248 1.427 1_655 S
C245 H235 0.929 . S
C245 C243 1.433 1_455 S
C245 N248 1.384 . S
C246 H237 0.929 . S
C246 C238 1.378 . S
C246 C241 1.350 1_455 S
C247 H234 0.929 . S
C247 C239 1.443 . S
C247 N249 1.384 . S
N248 C244 1.427 1_455 S
N248 C245 1.384 . S
N249 C241 1.427 . S
N249 C247 1.384 . S
H250 C256 0.930 . S
H251 C260 0.930 . S
H252 C265 0.929 . S
H253 C263 0.929 . S
H254 C258 0.929 . S
H255 C264 0.929 . S
C256 H250 0.930 . S
C256 C257 1.367 . S
C256 C264 1.378 . S
C257 C256 1.367 . S
C257 C265 1.433 1_565 S
C258 H254 0.929 . S
C258 C260 1.378 . S
C258 C262 1.350 1_545 S
C259 C262 1.463 . S
C259 C264 1.350 . S
C259 N267 1.427 1_565 S
C260 H251 0.930 . S
C260 C258 1.378 . S
C260 C261 1.367 1_545 S
C261 C260 1.367 1_565 S
C261 C263 1.433 . S
C262 C258 1.350 1_565 S
C262 C259 1.463 . S
C262 N266 1.427 . S
C263 H253 0.929 . S
C263 C261 1.433 . S
C263 N266 1.384 . S
C264 H255 0.929 . S
C264 C256 1.378 . S
C264 C259 1.350 . S
C265 H252 0.929 . S
C265 C257 1.433 1_545 S
C265 N267 1.384 . S
N266 C262 1.427 . S
N266 C263 1.384 . S
N267 C259 1.427 1_545 S
N267 C265 1.384 . S
H268 C274 0.930 . S
H269 C278 0.930 . S
H270 C283 0.929 . S
H271 C281 0.929 . S
H272 C276 0.929 . S
H273 C282 0.929 . S
C274 H268 0.930 . S
C274 C275 1.367 1_455 S
C274 C282 1.378 . S
C275 C274 1.367 1_655 S
C275 C283 1.433 . S
C276 H272 0.929 . S
C276 C278 1.378 . S
C276 C280 1.350 . S
C277 C280 1.463 . S
C277 C282 1.350 1_655 S
C277 N285 1.427 . S
C278 H269 0.930 . S
C278 C276 1.378 . S
C278 C279 1.367 . S
C279 C278 1.367 . S
C279 C281 1.433 1_655 S
C280 C276 1.350 . S
C280 C277 1.463 . S
C280 N284 1.427 1_655 S
C281 H271 0.929 . S
C281 C279 1.433 1_455 S
C281 N284 1.384 . S
C282 H273 0.929 . S
C282 C274 1.378 . S
C282 C277 1.350 1_455 S
C283 H270 0.929 . S
C283 C275 1.433 . S
C283 N285 1.384 . S
N284 C280 1.427 1_455 S
N284 C281 1.384 . S
N285 C277 1.427 . S
N285 C283 1.384 . S
H286 C292 0.930 . S
H287 C296 0.930 . S
H288 C301 0.929 . S
H289 C299 0.929 . S
H290 C294 0.929 . S
H291 C300 0.929 . S
C292 H286 0.930 . S
C292 C293 1.357 1_545 S
C292 C300 1.378 . S
C293 C292 1.357 1_565 S
C293 C301 1.445 . S
C294 H290 0.929 . S
C294 C296 1.378 . S
C294 C298 1.350 . S
C295 C298 1.463 . S
C295 C300 1.350 1_565 S
C295 N303 1.427 . S
C296 H287 0.930 . S
C296 C294 1.378 . S
C296 C297 1.367 . S
C297 C296 1.367 . S
C297 C299 1.433 1_565 S
C298 C294 1.350 . S
C298 C295 1.463 . S
C298 N302 1.427 1_565 S
C299 H289 0.929 . S
C299 C297 1.433 1_545 S
C299 N302 1.384 . S
C300 H291 0.929 . S
C300 C292 1.378 . S
C300 C295 1.350 1_545 S
C301 H288 0.929 . S
C301 C293 1.445 . S
C301 N303 1.384 . S
N302 C298 1.427 1_545 S
N302 C299 1.384 . S
N303 C295 1.427 . S
N303 C301 1.384 . S
H304 C310 0.930 . S
H305 C314 0.930 . S
H306 C319 0.929 . S
H307 C317 0.929 . S
H308 C312 0.929 . S
H309 C318 0.929 . S
C310 H304 0.930 . S
C310 C311 1.367 . S
C310 C318 1.378 . S
C311 C310 1.367 . S
C311 C319 1.433 1_455 S
C312 H308 0.929 . S
C312 C314 1.378 . S
C312 C316 1.350 1_655 S
C313 C316 1.463 . S
C313 C318 1.350 . S
C313 N321 1.427 1_455 S
C314 H305 0.930 . S
C314 C312 1.378 . S
C314 C315 1.367 1_655 S
C315 C314 1.367 1_455 S
C315 C317 1.433 . S
C316 C312 1.350 1_455 S
C316 C313 1.463 . S
C316 N320 1.427 . S
C317 H307 0.929 . S
C317 C315 1.433 . S
C317 N320 1.384 . S
C318 H309 0.929 . S
C318 C310 1.378 . S
C318 C313 1.350 . S
C319 H306 0.929 . S
C319 C311 1.433 1_655 S
C319 N321 1.384 . S
N320 C316 1.427 . S
N320 C317 1.384 . S
N321 C313 1.427 1_655 S
N321 C319 1.384 . S
H322 C328 0.930 . S
H323 C332 0.930 . S
H324 C337 0.929 . S
H325 C335 0.929 . S
H326 C330 0.929 . S
H327 C336 0.929 . S
C328 H322 0.930 . S
C328 C329 1.353 1_565 S
C328 C336 1.378 . S
C329 C328 1.353 1_545 S
C329 C337 1.448 . S
C330 H326 0.929 . S
C330 C332 1.378 . S
C330 C334 1.350 . S
C331 C334 1.463 . S
C331 C336 1.350 1_545 S
C331 N339 1.427 . S
C332 H323 0.930 . S
C332 C330 1.378 . S
C332 C333 1.367 . S
C333 C332 1.367 . S
C333 C335 1.433 1_545 S
C334 C330 1.350 . S
C334 C331 1.463 . S
C334 N338 1.427 1_545 S
C335 H325 0.929 . S
C335 C333 1.433 1_565 S
C335 N338 1.384 . S
C336 H327 0.929 . S
C336 C328 1.378 . S
C336 C331 1.350 1_565 S
C337 H324 0.929 . S
C337 C329 1.448 . S
C337 N339 1.384 . S
N338 C334 1.427 1_565 S
N338 C335 1.384 . S
N339 C331 1.427 . S
N339 C337 1.384 . S
H340 C346 0.930 . S
H341 C350 0.930 . S
H342 C355 0.929 . S
H343 C353 0.929 . S
H344 C348 0.929 . S
H345 C354 0.929 . S
C346 H340 0.930 . S
C346 C347 1.367 1_556 S
C346 C354 1.378 . S
C347 C346 1.367 1_554 S
C347 C355 1.433 . S
C348 H344 0.929 . S
C348 C350 1.378 . S
C348 C352 1.350 . S
C349 C352 1.463 . S
C349 C354 1.350 1_554 S
C349 N357 1.427 . S
C350 H341 0.930 . S
C350 C348 1.378 . S
C350 C351 1.367 . S
C351 C350 1.367 . S
C351 C353 1.433 1_554 S
C352 C348 1.350 . S
C352 C349 1.463 . S
C352 N356 1.427 1_554 S
C353 H343 0.929 . S
C353 C351 1.433 1_556 S
C353 N356 1.384 . S
C354 H345 0.929 . S
C354 C346 1.378 . S
C354 C349 1.350 1_556 S
C355 H342 0.929 . S
C355 C347 1.433 . S
C355 N357 1.384 . S
N356 C352 1.427 1_556 S
N356 C353 1.384 . S
N357 C349 1.427 . S
N357 C355 1.384 . S
H358 C364 0.930 . S
H359 C368 0.930 . S
H360 C373 0.936 . S
H361 C371 0.929 . S
H362 C366 0.929 . S
H363 C372 0.929 . S
C364 H358 0.930 . S
C364 C365 1.367 . S
C364 C372 1.378 . S
C365 C364 1.367 . S
C365 C373 1.427 1_554 S
C366 H362 0.929 . S
C366 C368 1.378 . S
C366 C370 1.350 1_556 S
C367 C370 1.463 . S
C367 C372 1.350 . S
C367 N375 1.419 1_554 S
C368 H359 0.930 . S
C368 C366 1.378 . S
C368 C369 1.367 1_556 S
C369 C368 1.367 1_554 S
C369 C371 1.433 . S
C370 C366 1.350 1_554 S
C370 C367 1.463 . S
C370 N374 1.427 . S
C371 H361 0.929 . S
C371 C369 1.433 . S
C371 N374 1.384 . S
C372 H363 0.929 . S
C372 C364 1.378 . S
C372 C367 1.350 . S
C373 H360 0.936 . S
C373 C365 1.427 1_556 S
C373 N375 1.384 . S
N374 C370 1.427 . S
N374 C371 1.384 . S
N375 C367 1.419 1_556 S
N375 C373 1.384 . S
H376 C382 0.930 . S
H377 C386 0.930 . S
H378 C391 0.929 . S
H379 C389 0.929 . S
H380 C384 0.929 . S
H381 C390 0.929 . S
C382 H376 0.930 . S
C382 C383 1.367 1_556 S
C382 C390 1.378 . S
C383 C382 1.367 1_554 S
C383 C391 1.433 . S
C384 H380 0.929 . S
C384 C386 1.378 . S
C384 C388 1.350 . S
C385 C388 1.463 . S
C385 C390 1.350 1_554 S
C385 N393 1.427 . S
C386 H377 0.930 . S
C386 C384 1.378 . S
C386 C387 1.367 . S
C387 C386 1.367 . S
C387 C389 1.433 1_554 S
C388 C384 1.350 . S
C388 C385 1.463 . S
C388 N392 1.427 1_554 S
C389 H379 0.929 . S
C389 C387 1.433 1_556 S
C389 N392 1.384 . S
C390 H381 0.929 . S
C390 C382 1.378 . S
C390 C385 1.350 1_556 S
C391 H378 0.929 . S
C391 C383 1.433 . S
C391 N393 1.384 . S
N392 C388 1.427 1_556 S
N392 C389 1.384 . S
N393 C385 1.427 . S
N393 C391 1.384 . S
H394 C400 0.930 . S
H395 C404 0.930 . S
H396 C409 0.929 . S
H397 C407 0.929 . S
H398 C402 0.929 . S
H399 C408 0.929 . S
C400 H394 0.930 . S
C400 C401 1.367 1_556 S
C400 C408 1.378 . S
C401 C400 1.367 1_554 S
C401 C409 1.433 . S
C402 H398 0.929 . S
C402 C404 1.378 . S
C402 C406 1.350 . S
C403 C406 1.463 . S
C403 C408 1.350 1_554 S
C403 N411 1.427 . S
C404 H395 0.930 . S
C404 C402 1.378 . S
C404 C405 1.367 . S
C405 C404 1.367 . S
C405 C407 1.433 1_554 S
C406 C402 1.350 . S
C406 C403 1.463 . S
C406 N410 1.427 1_554 S
C407 H397 0.929 . S
C407 C405 1.433 1_556 S
C407 N410 1.384 . S
C408 H399 0.929 . S
C408 C400 1.378 . S
C408 C403 1.350 1_556 S
C409 H396 0.929 . S
C409 C401 1.433 . S
C409 N411 1.384 . S
N410 C406 1.427 1_556 S
N410 C407 1.384 . S
N411 C403 1.427 . S
N411 C409 1.384 . S
C207 C180 1.985 . S
C203 C36 2.052 1_455 S
C225 C176 1.341 . S
C221 C78 1.423 1_545 S
C243 C186 1.980 1_655 S
C239 C30 2.037 . S
C261 C170 1.341 1_565 S
C257 C69 1.430 1_565 S
C275 C21 2.176 1_655 S
C279 C162 2.081 . S
C297 C194 1.448 . S
C293 C93 1.535 1_565 S
C311 C45 2.148 . S
C315 C148 2.072 . S
C329 C84 1.555 1_545 S
C333 C192 1.460 . S
C347 C132 1.033 . S
C351 C174 1.016 . S
C365 C126 1.023 . S
C369 C189 1.016 . S
C387 C183 1.009 . S
C383 C141 1.022 . S
C405 C178 1.013 . S
C401 C117 1.031 . S
