# Generated by pormake.
# Topology ctn, (3,4)-cn, num edge types: 1
# Building blocks:
#     Node 0, Type 0, BuildingBlock: MIDCAF_clean_linker_0, # of connection points: 3
#     Node 1, Type 0, BuildingBlock: MIDCAF_clean_linker_0, # of connection points: 3
#     Node 2, Type 0, BuildingBlock: MIDCAF_clean_linker_0, # of connection points: 3
#     Node 3, Type 0, BuildingBlock: MIDCAF_clean_linker_0, # of connection points: 3
#     Node 4, Type 0, BuildingBlock: MIDCAF_clean_linker_0, # of connection points: 3
#     Node 5, Type 0, BuildingBlock: MIDCAF_clean_linker_0, # of connection points: 3
#     Node 6, Type 0, BuildingBlock: MIDCAF_clean_linker_0, # of connection points: 3
#     Node 7, Type 0, BuildingBlock: MIDCAF_clean_linker_0, # of connection points: 3
#     Node 8, Type 0, BuildingBlock: MIDCAF_clean_linker_0, # of connection points: 3
#     Node 9, Type 0, BuildingBlock: MIDCAF_clean_linker_0, # of connection points: 3
#     Node 10, Type 0, BuildingBlock: MIDCAF_clean_linker_0, # of connection points: 3
#     Node 11, Type 0, BuildingBlock: MIDCAF_clean_linker_0, # of connection points: 3
#     Node 12, Type 0, BuildingBlock: MIDCAF_clean_linker_0, # of connection points: 3
#     Node 13, Type 0, BuildingBlock: MIDCAF_clean_linker_0, # of connection points: 3
#     Node 14, Type 0, BuildingBlock: MIDCAF_clean_linker_0, # of connection points: 3
#     Node 15, Type 0, BuildingBlock: MIDCAF_clean_linker_0, # of connection points: 3
#     Node 16, Type 1, BuildingBlock: AZAVOO_clean_sbu_0, # of connection points: 4
#     Node 17, Type 1, BuildingBlock: AZAVOO_clean_sbu_0, # of connection points: 4
#     Node 18, Type 1, BuildingBlock: AZAVOO_clean_sbu_0, # of connection points: 4
#     Node 19, Type 1, BuildingBlock: AZAVOO_clean_sbu_0, # of connection points: 4
#     Node 20, Type 1, BuildingBlock: AZAVOO_clean_sbu_0, # of connection points: 4
#     Node 21, Type 1, BuildingBlock: AZAVOO_clean_sbu_0, # of connection points: 4
#     Node 22, Type 1, BuildingBlock: AZAVOO_clean_sbu_0, # of connection points: 4
#     Node 23, Type 1, BuildingBlock: AZAVOO_clean_sbu_0, # of connection points: 4
#     Node 24, Type 1, BuildingBlock: AZAVOO_clean_sbu_0, # of connection points: 4
#     Node 25, Type 1, BuildingBlock: AZAVOO_clean_sbu_0, # of connection points: 4
#     Node 26, Type 1, BuildingBlock: AZAVOO_clean_sbu_0, # of connection points: 4
#     Node 27, Type 1, BuildingBlock: AZAVOO_clean_sbu_0, # of connection points: 4
#     Edge 28, Type (0, 1), BuildingBlock: XIVTED_clean_linker_0, # of connection points: 2
#     Edge 29, Type (0, 1), BuildingBlock: XIVTED_clean_linker_0, # of connection points: 2
#     Edge 30, Type (0, 1), BuildingBlock: XIVTED_clean_linker_0, # of connection points: 2
#     Edge 31, Type (0, 1), BuildingBlock: XIVTED_clean_linker_0, # of connection points: 2
#     Edge 32, Type (0, 1), BuildingBlock: XIVTED_clean_linker_0, # of connection points: 2
#     Edge 33, Type (0, 1), BuildingBlock: XIVTED_clean_linker_0, # of connection points: 2
#     Edge 34, Type (0, 1), BuildingBlock: XIVTED_clean_linker_0, # of connection points: 2
#     Edge 35, Type (0, 1), BuildingBlock: XIVTED_clean_linker_0, # of connection points: 2
#     Edge 36, Type (0, 1), BuildingBlock: XIVTED_clean_linker_0, # of connection points: 2
#     Edge 37, Type (0, 1), BuildingBlock: XIVTED_clean_linker_0, # of connection points: 2
#     Edge 38, Type (0, 1), BuildingBlock: XIVTED_clean_linker_0, # of connection points: 2
#     Edge 39, Type (0, 1), BuildingBlock: XIVTED_clean_linker_0, # of connection points: 2
#     Edge 40, Type (0, 1), BuildingBlock: XIVTED_clean_linker_0, # of connection points: 2
#     Edge 41, Type (0, 1), BuildingBlock: XIVTED_clean_linker_0, # of connection points: 2
#     Edge 42, Type (0, 1), BuildingBlock: XIVTED_clean_linker_0, # of connection points: 2
#     Edge 43, Type (0, 1), BuildingBlock: XIVTED_clean_linker_0, # of connection points: 2
#     Edge 44, Type (0, 1), BuildingBlock: XIVTED_clean_linker_0, # of connection points: 2
#     Edge 45, Type (0, 1), BuildingBlock: XIVTED_clean_linker_0, # of connection points: 2
#     Edge 46, Type (0, 1), BuildingBlock: XIVTED_clean_linker_0, # of connection points: 2
#     Edge 47, Type (0, 1), BuildingBlock: XIVTED_clean_linker_0, # of connection points: 2
#     Edge 48, Type (0, 1), BuildingBlock: XIVTED_clean_linker_0, # of connection points: 2
#     Edge 49, Type (0, 1), BuildingBlock: XIVTED_clean_linker_0, # of connection points: 2
#     Edge 50, Type (0, 1), BuildingBlock: XIVTED_clean_linker_0, # of connection points: 2
#     Edge 51, Type (0, 1), BuildingBlock: XIVTED_clean_linker_0, # of connection points: 2
#     Edge 52, Type (0, 1), BuildingBlock: XIVTED_clean_linker_0, # of connection points: 2
#     Edge 53, Type (0, 1), BuildingBlock: XIVTED_clean_linker_0, # of connection points: 2
#     Edge 54, Type (0, 1), BuildingBlock: XIVTED_clean_linker_0, # of connection points: 2
#     Edge 55, Type (0, 1), BuildingBlock: XIVTED_clean_linker_0, # of connection points: 2
#     Edge 56, Type (0, 1), BuildingBlock: XIVTED_clean_linker_0, # of connection points: 2
#     Edge 57, Type (0, 1), BuildingBlock: XIVTED_clean_linker_0, # of connection points: 2
#     Edge 58, Type (0, 1), BuildingBlock: XIVTED_clean_linker_0, # of connection points: 2
#     Edge 59, Type (0, 1), BuildingBlock: XIVTED_clean_linker_0, # of connection points: 2
#     Edge 60, Type (0, 1), BuildingBlock: XIVTED_clean_linker_0, # of connection points: 2
#     Edge 61, Type (0, 1), BuildingBlock: XIVTED_clean_linker_0, # of connection points: 2
#     Edge 62, Type (0, 1), BuildingBlock: XIVTED_clean_linker_0, # of connection points: 2
#     Edge 63, Type (0, 1), BuildingBlock: XIVTED_clean_linker_0, # of connection points: 2
#     Edge 64, Type (0, 1), BuildingBlock: XIVTED_clean_linker_0, # of connection points: 2
#     Edge 65, Type (0, 1), BuildingBlock: XIVTED_clean_linker_0, # of connection points: 2
#     Edge 66, Type (0, 1), BuildingBlock: XIVTED_clean_linker_0, # of connection points: 2
#     Edge 67, Type (0, 1), BuildingBlock: XIVTED_clean_linker_0, # of connection points: 2
#     Edge 68, Type (0, 1), BuildingBlock: XIVTED_clean_linker_0, # of connection points: 2
#     Edge 69, Type (0, 1), BuildingBlock: XIVTED_clean_linker_0, # of connection points: 2
#     Edge 70, Type (0, 1), BuildingBlock: XIVTED_clean_linker_0, # of connection points: 2
#     Edge 71, Type (0, 1), BuildingBlock: XIVTED_clean_linker_0, # of connection points: 2
#     Edge 72, Type (0, 1), BuildingBlock: XIVTED_clean_linker_0, # of connection points: 2
#     Edge 73, Type (0, 1), BuildingBlock: XIVTED_clean_linker_0, # of connection points: 2
#     Edge 74, Type (0, 1), BuildingBlock: XIVTED_clean_linker_0, # of connection points: 2
#     Edge 75, Type (0, 1), BuildingBlock: XIVTED_clean_linker_0, # of connection points: 2
# Relax obj value: 0.002
# Max RMSD: 0.043
# Mean RMSD: 0.023
data_MOF--net-ctn--node1-AZAVOO_clean_sbu_0--node2-MIDCAF_clean_linker_0--edge1-XIVTED_clean_linker_0
_symmetry_space_group_name_H-M    P1
_symmetry_Int_Tables_number       1
_symmetry_cell_setting            triclinic
loop_
_symmetry_equiv_pos_as_xyz
'x, y, z'
_cell_length_a     66.456233
_cell_length_b     67.482185
_cell_length_c     67.490947
_cell_angle_alpha  90.124072
_cell_angle_beta   92.706176
_cell_angle_gamma 92.97436
loop_
_atom_site_label
_atom_site_type_symbol
_atom_site_fract_x
_atom_site_fract_y
_atom_site_fract_z
_atom_type_partial_charge
C0 C 0.96877 0.00372 0.05232 0.0
C1 C 0.97664 0.9957 0.07012 0.0
C2 C 0.99562 0.98734 0.07012 0.0
C3 C 0.00678 0.98781 0.05306 0.0
H4 H 0.04657 0.95564 0.01745 0.0
H5 H 0.07433 0.93428 0.01251 0.0
H6 H 0.09952 0.97647 0.97124 0.0
H7 H 0.07185 0.99802 0.97624 0.0
H8 H 0.05001 0.03741 0.96712 0.0
H9 H 0.04947 0.07016 0.95211 0.0
H10 H 0.99185 0.07898 0.97695 0.0
H11 H 0.99255 0.04647 0.99234 0.0
H12 H 0.97388 0.01145 0.02216 0.0
H13 H 0.95398 0.00977 0.0515 0.0
H14 H 0.00235 0.98123 0.08353 0.0
H15 H 0.02166 0.98193 0.05378 0.0
N16 N 0.02748 0.98798 0.01545 0.0
N17 N 0.03799 0.00827 0.98929 0.0
N18 N 0.01015 0.0164 0.00712 0.0
C19 C 0.04026 0.99182 0.00061 0.0
C20 C 0.02293 0.02061 0.99242 0.0
C21 C 0.01233 0.00017 0.0187 0.0
C22 C 0.05694 0.9786 0.99727 0.0
C23 C 0.05798 0.96041 0.00729 0.0
C24 C 0.07383 0.94808 0.00437 0.0
C25 C 0.08908 0.95368 0.99146 0.0
C26 C 0.08807 0.97183 0.98141 0.0
C27 C 0.07213 0.98412 0.98421 0.0
C28 C 0.02146 0.03937 0.98118 0.0
C29 C 0.0371 0.04621 0.9692 0.0
C30 C 0.03675 0.06498 0.9605 0.0
C31 C 0.02073 0.07729 0.96353 0.0
C32 C 0.00463 0.07004 0.97469 0.0
C33 C 0.005 0.05133 0.98344 0.0
C34 C 0.99938 0.99697 0.03573 0.0
C35 C 0.9801 0.00455 0.03541 0.0
C36 C 0.26747 0.66816 0.25551 0.0
C37 C 0.25689 0.66069 0.23835 0.0
C38 C 0.26007 0.67002 0.22011 0.0
C39 C 0.27358 0.68648 0.21903 0.0
H40 H 0.29691 0.72703 0.18031 0.0
H41 H 0.295 0.74687 0.15037 0.0
H42 H 0.32519 0.79658 0.18178 0.0
H43 H 0.32727 0.77657 0.21206 0.0
H44 H 0.35703 0.76004 0.25062 0.0
H45 H 0.38324 0.76544 0.27687 0.0
H46 H 0.35702 0.7165 0.30974 0.0
H47 H 0.33067 0.71132 0.28387 0.0
H48 H 0.28919 0.68981 0.26789 0.0
H49 H 0.26543 0.66113 0.26974 0.0
H50 H 0.25199 0.66465 0.20667 0.0
H51 H 0.2757 0.69328 0.2047 0.0
N52 N 0.29909 0.72242 0.21831 0.0
N53 N 0.32601 0.74255 0.23214 0.0
N54 N 0.31264 0.71554 0.25002 0.0
C55 C 0.31244 0.7382 0.21685 0.0
C56 C 0.32625 0.73119 0.24877 0.0
C57 C 0.29899 0.71108 0.23486 0.0
C58 C 0.31219 0.75025 0.19859 0.0
C59 C 0.30324 0.74215 0.1809 0.0
C60 C 0.30229 0.75346 0.16368 0.0
C61 C 0.31005 0.77321 0.16376 0.0
C62 C 0.31909 0.78138 0.18138 0.0
C63 C 0.32033 0.76991 0.19863 0.0
C64 C 0.3417 0.73521 0.26506 0.0
C65 C 0.35675 0.75051 0.2635 0.0
C66 C 0.37187 0.75354 0.27849 0.0
C67 C 0.37224 0.74139 0.29538 0.0
C68 C 0.35703 0.72631 0.29706 0.0
C69 C 0.34195 0.72327 0.28211 0.0
C70 C 0.28439 0.69384 0.23615 0.0
C71 C 0.28117 0.6845 0.25441 0.0
C72 C -0.00011 0.42414 0.01171 0.0
C73 C 0.98488 0.41706 0.99775 0.0
C74 C 0.9669 0.42709 0.99552 0.0
C75 C 0.96399 0.44385 0.00709 0.0
H76 H 0.92671 0.49159 0.01373 0.0
H77 H 0.90048 0.51465 0.00538 0.0
H78 H 0.92814 0.55686 0.04787 0.0
H79 H 0.95435 0.53401 0.0562 0.0
H80 H 0.99379 0.52249 0.08279 0.0
H81 H 0.01694 0.52821 0.11177 0.0
H82 H 0.03069 0.4664 0.11146 0.0
H83 H 0.00779 0.46064 0.08251 0.0
H84 H 0.00877 0.44562 0.03413 0.0
H85 H 0.0138 0.41658 0.01393 0.0
H86 H 0.95511 0.42199 0.9848 0.0
H87 H 0.94994 0.45122 0.00508 0.0
N88 N 0.96107 0.4808 0.02935 0.0
N89 N 0.97106 0.50035 0.05728 0.0
N90 N 0.98792 0.47164 0.05058 0.0
C91 C 0.95864 0.49699 0.04088 0.0
C92 C 0.98564 0.48765 0.06229 0.0
C93 C 0.9758 0.46813 0.03405 0.0
C94 C 0.94268 0.51092 0.03565 0.0
C95 C 0.92725 0.50581 0.02127 0.0
C96 C 0.91214 0.51895 0.01655 0.0
C97 C 0.9123 0.53758 0.02592 0.0
C98 C 0.92775 0.54271 0.04021 0.0
C99 C 0.94271 0.52953 0.04508 0.0
C100 C 0.99901 0.49113 0.08028 0.0
C101 C 0.00166 0.5101 0.08898 0.0
C102 C 0.01494 0.51341 0.1055 0.0
C103 C 0.02554 0.49773 0.11385 0.0
C104 C 0.02256 0.4787 0.10544 0.0
C105 C 0.00955 0.47546 0.08876 0.0
C106 C 0.97889 0.45073 0.02131 0.0
C107 C 0.9969 0.44071 0.02341 0.0
C108 C 0.73425 0.78366 0.16365 0.0
C109 C 0.71955 0.7684 0.15921 0.0
C110 C 0.70092 0.76864 0.16818 0.0
C111 C 0.69719 0.78369 0.18158 0.0
H112 H 0.66497 0.79238 0.23059 0.0
H113 H 0.64099 0.78471 0.25591 0.0
H114 H 0.65565 0.8417 0.28357 0.0
H115 H 0.67976 0.84958 0.25815 0.0
H116 H 0.72894 0.86582 0.25085 0.0
H117 H 0.75519 0.8925 0.25519 0.0
H118 H 0.76636 0.88962 0.19282 0.0
H119 H 0.74045 0.86271 0.18846 0.0
H120 H 0.74218 0.81031 0.18001 0.0
H121 H 0.74866 0.78397 0.15675 0.0
H122 H 0.68934 0.757 0.16507 0.0
H123 H 0.68275 0.78332 0.18841 0.0
N124 N 0.69318 0.81178 0.21358 0.0
N125 N 0.70319 0.84175 0.22971 0.0
N126 N 0.72081 0.83102 0.20268 0.0
C127 C 0.69045 0.82534 0.22799 0.0
C128 C 0.7183 0.84474 0.21698 0.0
C129 C 0.70833 0.81448 0.20089 0.0
C130 C 0.67454 0.82153 0.24242 0.0
C131 C 0.66304 0.80342 0.24192 0.0
C132 C 0.6493 0.79896 0.25647 0.0
C133 C 0.6466 0.81253 0.2718 0.0
C134 C 0.65737 0.831 0.27186 0.0
C135 C 0.67127 0.83544 0.25735 0.0
C136 C 0.73272 0.86211 0.21933 0.0
C137 C 0.73683 0.87104 0.23802 0.0
C138 C 0.75187 0.88623 0.24054 0.0
C139 C 0.76273 0.89305 0.22433 0.0
C140 C 0.75808 0.88469 0.20551 0.0
C141 C 0.74335 0.86924 0.20306 0.0
C142 C 0.71193 0.79895 0.1861 0.0
C143 C 0.73045 0.79884 0.17685 0.0
C144 C 0.05658 0.92501 0.52029 0.0
C145 C 0.03844 0.91333 0.51863 0.0
C146 C 0.02239 0.91997 0.50655 0.0
C147 C 0.02452 0.93772 0.49605 0.0
H148 H 0.00096 0.96464 0.4466 0.0
H149 H 0.97888 0.96913 0.41735 0.0
H150 H 0.01207 0.02391 0.40437 0.0
H151 H 0.03404 0.01967 0.4338 0.0
H152 H 0.07151 0.0335 0.46097 0.0
H153 H 0.09962 0.05727 0.46829 0.0
H154 H 0.12305 0.01846 0.51363 0.0
H155 H 0.09502 0.99442 0.50616 0.0
H156 H 0.0729 0.95145 0.51143 0.0
H157 H 0.06916 0.92033 0.52961 0.0
H158 H 0.0083 0.91119 0.5048 0.0
H159 H 0.0119 0.94223 0.4867 0.0
N160 N 0.03162 0.97158 0.47071 0.0
N161 N 0.04981 0.00118 0.46366 0.0
N162 N 0.0611 0.9809 0.48965 0.0
C163 C 0.03383 0.9882 0.45955 0.0
C164 C 0.0635 0.99768 0.4787 0.0
C165 C 0.04515 0.96781 0.48578 0.0
C166 C 0.01946 0.99169 0.44253 0.0
C167 C 0.00351 0.97775 0.43765 0.0
C168 C 0.99086 0.98027 0.42081 0.0
C169 C 0.9938 0.9968 0.40844 0.0
C170 C 0.00928 0.0111 0.41368 0.0
C171 C 0.02198 0.00857 0.43051 0.0
C172 C 0.08088 0.01202 0.48302 0.0
C173 C 0.08263 0.02993 0.47248 0.0
C174 C 0.09872 0.04365 0.47674 0.0
C175 C 0.11351 0.03981 0.49162 0.0
C176 C 0.11198 0.02179 0.50197 0.0
C177 C 0.09582 0.00806 0.49776 0.0
C178 C 0.04272 0.94934 0.49752 0.0
C179 C 0.05866 0.94289 0.50994 0.0
C180 C 0.23225 0.75007 0.82482 0.0
C181 C 0.21548 0.75608 0.83474 0.0
C182 C 0.19607 0.7523 0.82588 0.0
C183 C 0.1935 0.74167 0.80797 0.0
H184 H 0.15245 0.72258 0.75983 0.0
H185 H 0.12325 0.72353 0.73672 0.0
H186 H 0.15687 0.69612 0.69167 0.0
H187 H 0.18562 0.69438 0.71501 0.0
H188 H 0.22167 0.66451 0.73644 0.0
H189 H 0.24913 0.64223 0.7323 0.0
H190 H 0.28614 0.67615 0.7759 0.0
H191 H 0.25912 0.69837 0.7799 0.0
H192 H 0.24301 0.73459 0.80023 0.0
H193 H 0.24743 0.75323 0.83098 0.0
H194 H 0.18287 0.75677 0.8332 0.0
H195 H 0.17836 0.73825 0.80183 0.0
N196 N 0.19109 0.72071 0.76912 0.0
N197 N 0.20465 0.69621 0.74957 0.0
N198 N 0.22301 0.7092 0.77748 0.0
C199 C 0.1894 0.7083 0.75311 0.0
C200 C 0.2215 0.69655 0.7618 0.0
C201 C 0.20799 0.72129 0.78128 0.0
C202 C 0.17139 0.70839 0.73929 0.0
C203 C 0.15355 0.71666 0.74502 0.0
C204 C 0.13682 0.71731 0.7317 0.0
C205 C 0.1376 0.70994 0.71223 0.0
C206 C 0.15546 0.70158 0.70661 0.0
C207 C 0.17206 0.70069 0.71999 0.0
C208 C 0.23814 0.68325 0.7585 0.0
C209 C 0.23572 0.66727 0.74504 0.0
C210 C 0.25138 0.65443 0.74276 0.0
C211 C 0.26981 0.65747 0.75374 0.0
C212 C 0.27224 0.67354 0.76703 0.0
C213 C 0.25663 0.68623 0.7694 0.0
C214 C 0.2103 0.73461 0.79877 0.0
C215 C 0.2297 0.73941 0.80714 0.0
C216 C 0.98471 0.57534 0.48462 0.0
C217 C 0.97473 0.57716 0.50241 0.0
C218 C 0.96208 0.56112 0.50847 0.0
C219 C 0.95932 0.54387 0.49694 0.0
H220 H 0.91057 0.50458 0.46827 0.0
H221 H 0.88075 0.48268 0.47174 0.0
H222 H 0.91415 0.43283 0.45375 0.0
H223 H 0.94355 0.45504 0.44919 0.0
H224 H 0.97477 0.48287 0.40733 0.0
H225 H 0.00049 0.47994 0.38285 0.0
H226 H 0.04465 0.50936 0.42351 0.0
H227 H 0.0189 0.51304 0.44735 0.0
H228 H 0.9901 0.55715 0.45965 0.0
H229 H 0.9942 0.58745 0.47917 0.0
H230 H 0.95442 0.56176 0.52225 0.0
H231 H 0.94951 0.5318 0.50204 0.0
N232 N 0.95008 0.51153 0.46827 0.0
N233 N 0.96215 0.49048 0.44419 0.0
N234 N 0.98115 0.51926 0.45444 0.0
C235 C 0.94764 0.49485 0.45687 0.0
C236 C 0.97898 0.50268 0.44298 0.0
C237 C 0.96682 0.52381 0.4671 0.0
C238 C 0.92942 0.48152 0.45849 0.0
C239 C 0.91148 0.48894 0.46496 0.0
C240 C 0.89439 0.47631 0.46708 0.0
C241 C 0.89492 0.45584 0.46318 0.0
C242 C 0.91292 0.4485 0.45656 0.0
C243 C 0.92988 0.46123 0.45406 0.0
C244 C 0.99477 0.49847 0.42909 0.0
C245 C 0.99005 0.48851 0.41103 0.0
C246 C 0.00481 0.48679 0.39704 0.0
C247 C 0.02459 0.49477 0.40101 0.0
C248 C 0.02945 0.50362 0.41963 0.0
C249 C 0.0147 0.50563 0.43339 0.0
C250 C 0.96944 0.54209 0.47928 0.0
C251 C 0.98224 0.55797 0.4733 0.0
C252 C 0.8567 0.75708 0.74353 0.0
C253 C 0.86164 0.77143 0.72925 0.0
C254 C 0.85096 0.78885 0.72826 0.0
C255 C 0.83508 0.79147 0.74071 0.0
H256 H 0.78724 0.82635 0.74766 0.0
H257 H 0.76537 0.85372 0.74199 0.0
H258 H 0.72252 0.82679 0.78138 0.0
H259 H 0.74467 0.79963 0.78752 0.0
H260 H 0.75434 0.75605 0.80599 0.0
H261 H 0.74756 0.7366 0.8354 0.0
H262 H 0.81143 0.72885 0.84535 0.0
H263 H 0.81807 0.74761 0.81526 0.0
H264 H 0.83726 0.74818 0.7666 0.0
H265 H 0.86484 0.7436 0.74476 0.0
H266 H 0.85432 0.80009 0.7173 0.0
H267 H 0.82681 0.80484 0.73917 0.0
N268 N 0.79866 0.7932 0.76222 0.0
N269 N 0.77791 0.78155 0.78723 0.0
N270 N 0.80776 0.76584 0.78143 0.0
C271 C 0.78172 0.7947 0.77252 0.0
C272 C 0.79084 0.76714 0.79181 0.0
C273 C 0.8117 0.77878 0.76651 0.0
C274 C 0.76782 0.8108 0.76815 0.0
C275 C 0.77312 0.82616 0.75504 0.0
C276 C 0.76047 0.84183 0.75168 0.0
C277 C 0.74216 0.84249 0.76123 0.0
C278 C 0.73665 0.82691 0.77401 0.0
C279 C 0.74934 0.81127 0.77745 0.0
C280 C 0.78676 0.75359 0.80848 0.0
C281 C 0.76692 0.75002 0.81433 0.0
C282 C 0.76306 0.73893 0.83127 0.0
C283 C 0.77898 0.73148 0.84303 0.0
C284 C 0.79877 0.73425 0.83662 0.0
C285 C 0.80261 0.74509 0.81942 0.0
C286 C 0.82963 0.77678 0.75452 0.0
C287 C 0.84094 0.75976 0.75609 0.0
C288 C 0.35825 0.25581 0.24582 0.0
C289 C 0.3631 0.2704 0.23173 0.0
C290 C 0.35185 0.28743 0.23055 0.0
C291 C 0.33554 0.28945 0.2426 0.0
H292 H 0.28563 0.32178 0.24701 0.0
H293 H 0.26249 0.34782 0.23991 0.0
H294 H 0.21941 0.31944 0.27816 0.0
H295 H 0.24282 0.29364 0.28576 0.0
H296 H 0.25503 0.25421 0.30886 0.0
H297 H 0.249 0.23575 0.33902 0.0
H298 H 0.31287 0.22723 0.34725 0.0
H299 H 0.31882 0.24516 0.31651 0.0
H300 H 0.33845 0.24616 0.26837 0.0
H301 H 0.3668 0.2426 0.24717 0.0
H302 H 0.35511 0.29884 0.21973 0.0
H303 H 0.32687 0.30255 0.24091 0.0
N304 N 0.29812 0.28947 0.26258 0.0
N305 N 0.27748 0.27786 0.28767 0.0
N306 N 0.30833 0.26345 0.28313 0.0
C307 C 0.28087 0.29051 0.27245 0.0
C308 C 0.29112 0.26434 0.29315 0.0
C309 C 0.31188 0.27595 0.26774 0.0
C310 C 0.26619 0.30565 0.26709 0.0
C311 C 0.27117 0.32097 0.25383 0.0
C312 C 0.25781 0.33587 0.24963 0.0
C313 C 0.23905 0.33578 0.25847 0.0
C314 C 0.23385 0.32016 0.27133 0.0
C315 C 0.24727 0.30531 0.27562 0.0
C316 C 0.28744 0.25139 0.31042 0.0
C317 C 0.26779 0.24826 0.31699 0.0
C318 C 0.26435 0.23774 0.33436 0.0
C319 C 0.28049 0.23031 0.34581 0.0
C320 C 0.30006 0.23264 0.33877 0.0
C321 C 0.30349 0.243 0.32118 0.0
C322 C 0.33022 0.27454 0.25622 0.0
C323 C 0.34205 0.2579 0.25801 0.0
C324 C 0.4981 0.92173 0.52118 0.0
C325 C 0.48795 0.91803 0.50275 0.0
C326 C 0.47612 0.93274 0.49423 0.0
C327 C 0.47408 0.95068 0.50429 0.0
H328 H 0.43151 0.99455 0.51506 0.0
H329 H 0.4045 0.01678 0.50681 0.0
H330 H 0.43323 0.06131 0.54621 0.0
H331 H 0.46021 0.03929 0.55445 0.0
H332 H 0.48635 0.01156 0.59611 0.0
H333 H 0.50974 0.01501 0.62515 0.0
H334 H 0.5566 0.99124 0.59112 0.0
H335 H 0.53296 0.98677 0.56281 0.0
H336 H 0.5043 0.94184 0.54533 0.0
H337 H 0.50748 0.91072 0.52798 0.0
H338 H 0.46811 0.93018 0.48003 0.0
H339 H 0.46467 0.96168 0.49754 0.0
N340 N 0.46678 0.98508 0.5295 0.0
N341 N 0.47792 0.00621 0.55601 0.0
N342 N 0.49525 0.97777 0.54939 0.0
C343 C 0.46465 0.00178 0.54043 0.0
C344 C 0.49332 0.99427 0.56045 0.0
C345 C 0.48206 0.97297 0.53399 0.0
C346 C 0.44809 0.01511 0.53542 0.0
C347 C 0.4321 0.00909 0.52196 0.0
C348 C 0.41656 0.02176 0.51729 0.0
C349 C 0.4168 0.0408 0.5258 0.0
C350 C 0.43276 0.04681 0.53922 0.0
C351 C 0.44816 0.03411 0.54404 0.0
C352 C 0.5078 0.99868 0.57733 0.0
C353 C 0.50171 0.00723 0.59492 0.0
C354 C 0.51516 0.00923 0.61153 0.0
C355 C 0.53504 0.00306 0.61071 0.0
C356 C 0.54127 0.9955 0.59266 0.0
C357 C 0.52776 0.99311 0.5763 0.0
C358 C 0.48416 0.95429 0.52286 0.0
C359 C 0.49632 0.93965 0.53106 0.0
C360 C 0.24306 0.27311 0.67516 0.0
C361 C 0.22725 0.25913 0.67014 0.0
C362 C 0.20853 0.26085 0.67866 0.0
C363 C 0.2057 0.27627 0.69199 0.0
H364 H 0.17282 0.29032 0.74116 0.0
H365 H 0.14691 0.28772 0.76546 0.0
H366 H 0.16482 0.34665 0.78698 0.0
H367 H 0.19102 0.34915 0.76304 0.0
H368 H 0.24034 0.36184 0.75644 0.0
H369 H 0.2664 0.38885 0.75866 0.0
H370 H 0.27868 0.37991 0.69717 0.0
H371 H 0.25297 0.3526 0.69496 0.0
H372 H 0.25269 0.29921 0.69167 0.0
H373 H 0.25758 0.27229 0.66863 0.0
H374 H 0.1961 0.25023 0.67506 0.0
H375 H 0.1911 0.27722 0.6983 0.0
N376 N 0.20303 0.30614 0.72307 0.0
N377 N 0.21432 0.3369 0.7369 0.0
N378 N 0.23184 0.32301 0.71142 0.0
C379 C 0.20078 0.32108 0.73623 0.0
C380 C 0.22979 0.33801 0.72447 0.0
C381 C 0.21857 0.307 0.71065 0.0
C382 C 0.18418 0.31988 0.7502 0.0
C383 C 0.1712 0.30279 0.75098 0.0
C384 C 0.15622 0.30133 0.76485 0.0
C385 C 0.15383 0.31695 0.77823 0.0
C386 C 0.16647 0.33422 0.77711 0.0
C387 C 0.18146 0.33567 0.76329 0.0
C388 C 0.24469 0.35506 0.72554 0.0
C389 C 0.2485 0.36572 0.74335 0.0
C390 C 0.26342 0.3811 0.74467 0.0
C391 C 0.27444 0.38639 0.72808 0.0
C392 C 0.27026 0.37615 0.71012 0.0
C393 C 0.25566 0.36048 0.70891 0.0
C394 C 0.22146 0.29044 0.69679 0.0
C395 C 0.24018 0.28864 0.68824 0.0
C396 C 0.76474 0.17496 0.75749 0.0
C397 C 0.75162 0.16987 0.74114 0.0
C398 C 0.75303 0.18088 0.72359 0.0
C399 C 0.76744 0.1966 0.72235 0.0
H400 H 0.77579 0.25807 0.70284 0.0
H401 H 0.77222 0.28038 0.67475 0.0
H402 H 0.83701 0.28813 0.67308 0.0
H403 H 0.84068 0.26585 0.70157 0.0
H404 H 0.85961 0.26064 0.75166 0.0
H405 H 0.88761 0.26212 0.77645 0.0
H406 H 0.86553 0.2064 0.80076 0.0
H407 H 0.83745 0.20507 0.77644 0.0
H408 H 0.78945 0.19384 0.76893 0.0
H409 H 0.76408 0.16658 0.77114 0.0
H410 H 0.74301 0.17729 0.71082 0.0
H411 H 0.76828 0.20469 0.70854 0.0
N412 N 0.79555 0.23107 0.72232 0.0
N413 N 0.82691 0.24591 0.73313 0.0
N414 N 0.81337 0.21805 0.74959 0.0
C415 C 0.81042 0.24542 0.72038 0.0
C416 C 0.82843 0.23225 0.74785 0.0
C417 C 0.79693 0.21731 0.73686 0.0
C418 C 0.80852 0.26014 0.70432 0.0
C419 C 0.7893 0.26466 0.69663 0.0
C420 C 0.78724 0.27757 0.68066 0.0
C421 C 0.80434 0.286 0.67181 0.0
C422 C 0.8236 0.28179 0.67967 0.0
C423 C 0.82568 0.26912 0.69597 0.0
C424 C 0.84612 0.23284 0.76213 0.0
C425 C 0.86076 0.24867 0.76225 0.0
C426 C 0.87688 0.24948 0.77639 0.0
C427 C 0.8787 0.23447 0.79069 0.0
C428 C 0.86435 0.21842 0.79022 0.0
C429 C 0.84826 0.21762 0.77616 0.0
C430 C 0.78094 0.20139 0.73853 0.0
C431 C 0.77935 0.19048 0.75616 0.0
C432 C 0.46988 0.50995 0.55442 0.0
C433 C 0.47452 0.49578 0.56895 0.0
C434 C 0.48924 0.4822 0.56516 0.0
C435 C 0.4997 0.48334 0.54766 0.0
H436 H 0.5535 0.46853 0.52624 0.0
H437 H 0.58498 0.45178 0.52475 0.0
H438 H 0.59369 0.47559 0.46629 0.0
H439 H 0.56214 0.49249 0.46768 0.0
H440 H 0.54406 0.53744 0.46281 0.0
H441 H 0.54227 0.56986 0.44731 0.0
H442 H 0.4837 0.57641 0.471 0.0
H443 H 0.48562 0.54421 0.48688 0.0
H444 H 0.47665 0.52259 0.52641 0.0
H445 H 0.45881 0.5208 0.5569 0.0
H446 H 0.49295 0.47088 0.57589 0.0
H447 H 0.51133 0.47298 0.5455 0.0
N448 N 0.52438 0.48969 0.51372 0.0
N449 N 0.53359 0.50879 0.48626 0.0
N450 N 0.50512 0.51623 0.5035 0.0
C451 C 0.537 0.4934 0.49873 0.0
C452 C 0.51761 0.52024 0.48851 0.0
C453 C 0.50832 0.50097 0.51613 0.0
C454 C 0.55531 0.48197 0.49712 0.0
C455 C 0.56198 0.47011 0.51297 0.0
C456 C 0.58009 0.46061 0.5122 0.0
C457 C 0.59184 0.46254 0.49548 0.0
C458 C 0.58489 0.47382 0.47934 0.0
C459 C 0.56687 0.48355 0.48019 0.0
C460 C 0.51514 0.53832 0.4764 0.0
C461 C 0.53064 0.54562 0.46448 0.0
C462 C 0.52959 0.56421 0.45549 0.0
C463 C 0.51297 0.57586 0.45817 0.0
C464 C 0.49692 0.568 0.46903 0.0
C465 C 0.49799 0.54947 0.47806 0.0
C466 C 0.49566 0.49809 0.53354 0.0
C467 C 0.48027 0.51106 0.53693 0.0
C468 C 0.55105 0.43043 0.02416 0.0
C469 C 0.53301 0.41861 0.02246 0.0
C470 C 0.51687 0.42521 0.01046 0.0
C471 C 0.51884 0.44305 9e-05 0.0
H472 H 0.49494 0.47052 0.95084 0.0
H473 H 0.47358 0.47484 0.92103 0.0
H474 H 0.50613 0.53032 0.90935 0.0
H475 H 0.52734 0.52625 0.93931 0.0
H476 H 0.56069 0.54272 0.97424 0.0
H477 H 0.58972 0.56569 0.97983 0.0
H478 H 0.62383 0.51833 0.0053 0.0
H479 H 0.59428 0.49556 0.00058 0.0
H480 H 0.56716 0.45704 0.01547 0.0
H481 H 0.5637 0.4258 0.03343 0.0
H482 H 0.50285 0.41633 0.00867 0.0
H483 H 0.50615 0.44753 0.9908 0.0
N484 N 0.52539 0.47749 0.97534 0.0
N485 N 0.54351 0.50718 0.96846 0.0
N486 N 0.55535 0.48636 0.99375 0.0
C487 C 0.52743 0.49431 0.96442 0.0
C488 C 0.5575 0.50333 0.98309 0.0
C489 C 0.53921 0.47343 0.99007 0.0
C490 C 0.51307 0.49791 0.94743 0.0
C491 C 0.49744 0.48378 0.94209 0.0
C492 C 0.48522 0.4862 0.92493 0.0
C493 C 0.48827 0.50282 0.91271 0.0
C494 C 0.50327 0.51741 0.91851 0.0
C495 C 0.51554 0.51498 0.93565 0.0
C496 C 0.57519 0.51731 0.98692 0.0
C497 C 0.57437 0.53721 0.98107 0.0
C498 C 0.59114 0.55037 0.98416 0.0
C499 C 0.60933 0.5439 0.99282 0.0
C500 C 0.61007 0.52397 0.99881 0.0
C501 C 0.59314 0.51086 0.99603 0.0
C502 C 0.53696 0.45481 0.0016 0.0
C503 C 0.55298 0.44838 0.01393 0.0
C504 C 0.72156 0.22997 0.34239 0.0
C505 C 0.70693 0.24304 0.34767 0.0
C506 C 0.69065 0.2462 0.33416 0.0
C507 C 0.68895 0.23622 0.31586 0.0
H508 H 0.64943 0.22054 0.26568 0.0
H509 H 0.62198 0.22468 0.24105 0.0
H510 H 0.65861 0.20214 0.19563 0.0
H511 H 0.68556 0.1972 0.22035 0.0
H512 H 0.72289 0.17048 0.23491 0.0
H513 H 0.74959 0.14799 0.22878 0.0
H514 H 0.77153 0.15432 0.28984 0.0
H515 H 0.74491 0.1765 0.29609 0.0
H516 H 0.73156 0.21013 0.32084 0.0
H517 H 0.73453 0.22752 0.35224 0.0
H518 H 0.6791 0.25615 0.33785 0.0
H519 H 0.67618 0.23885 0.30582 0.0
N520 N 0.68695 0.21506 0.27775 0.0
N521 N 0.70074 0.19253 0.25618 0.0
N522 N 0.71641 0.1993 0.28739 0.0
C523 C 0.68619 0.20529 0.26003 0.0
C524 C 0.71587 0.18939 0.26988 0.0
C525 C 0.70215 0.21219 0.29148 0.0
C526 C 0.66966 0.20843 0.24502 0.0
C527 C 0.65159 0.21647 0.25042 0.0
C528 C 0.63587 0.21894 0.23624 0.0
C529 C 0.63794 0.21365 0.21628 0.0
C530 C 0.65619 0.20593 0.2109 0.0
C531 C 0.67177 0.20322 0.22509 0.0
C532 C 0.73173 0.17538 0.26598 0.0
C533 C 0.73334 0.16701 0.24705 0.0
C534 C 0.7487 0.1542 0.2435 0.0
C535 C 0.76266 0.14936 0.25883 0.0
C536 C 0.76087 0.15754 0.27778 0.0
C537 C 0.74566 0.17041 0.2813 0.0
C538 C 0.70355 0.22296 0.31073 0.0
C539 C 0.71989 0.22005 0.32424 0.0
C540 C 0.48635 0.07893 0.98475 0.0
C541 C 0.47683 0.0806 0.00283 0.0
C542 C 0.46492 0.06426 0.00939 0.0
C543 C 0.46229 0.04691 0.99803 0.0
H544 H 0.41355 0.00665 0.97272 0.0
H545 H 0.38385 0.98455 0.97626 0.0
H546 H 0.41646 0.93559 0.95485 0.0
H547 H 0.4457 0.95796 0.95034 0.0
H548 H 0.47755 0.97779 0.91384 0.0
H549 H 0.50293 0.97056 0.89014 0.0
H550 H 0.54398 0.01504 0.91804 0.0
H551 H 0.51881 0.0223 0.94168 0.0
H552 H 0.49145 0.06071 0.95966 0.0
H553 H 0.49532 0.09125 0.97896 0.0
H554 H 0.4577 0.06474 0.02342 0.0
H555 H 0.45299 0.03465 0.00352 0.0
N556 N 0.45257 0.01446 0.96995 0.0
N557 N 0.46415 0.99309 0.94599 0.0
N558 N 0.48302 0.02235 0.9549 0.0
C559 C 0.45 0.99754 0.95898 0.0
C560 C 0.48071 0.00545 0.94386 0.0
C561 C 0.46906 0.02693 0.96799 0.0
C562 C 0.43197 0.98406 0.96122 0.0
C563 C 0.41433 0.99116 0.96872 0.0
C564 C 0.39731 0.97843 0.97086 0.0
C565 C 0.39762 0.95818 0.96587 0.0
C566 C 0.41538 0.95112 0.95845 0.0
C567 C 0.43227 0.96394 0.95598 0.0
C568 C 0.49611 0.00066 0.92966 0.0
C569 C 0.49202 0.98598 0.91498 0.0
C570 C 0.5065 0.98188 0.90135 0.0
C571 C 0.52544 0.99219 0.9023 0.0
C572 C 0.5296 0.00669 0.9171 0.0
C573 C 0.51509 0.01094 0.93056 0.0
C574 C 0.47182 0.04531 0.98001 0.0
C575 C 0.48401 0.06143 0.97357 0.0
Mg576 Mg 0.24043 0.84348 0.00754 0.0
O577 O 0.26895 0.8618 -0.001 0.0
O578 O 0.29376 0.84055 0.99886 0.0
Mg579 Mg 0.28206 0.80998 0.00884 0.0
C580 C 0.28724 0.85787 0.99626 0.0
C581 C 0.20193 0.86138 0.9919 0.0
O582 O 0.19756 0.84216 0.99173 0.0
O583 O 0.23811 0.82872 0.97691 0.0
O584 O 0.26258 0.8073 0.97995 0.0
O585 O 0.24757 0.85015 0.03968 0.0
O586 O 0.25812 0.82433 0.02379 0.0
C587 C 0.24794 0.81467 0.97004 0.0
C588 C 0.25822 0.83461 0.03987 0.0
O589 O 0.21976 0.86761 0.99716 0.0
Mg590 Mg 0.15586 0.50263 0.26492 0.0
O591 O 0.13492 0.50427 0.23683 0.0
O592 O 0.15479 0.50913 0.21124 0.0
Mg593 Mg 0.18773 0.50959 0.22247 0.0
C594 C 0.13734 0.50694 0.21833 0.0
C595 C 0.13159 0.49998 0.30073 0.0
O596 O 0.14778 0.51145 0.30514 0.0
O597 O 0.16338 0.47122 0.25684 0.0
O598 O 0.18383 0.47678 0.23183 0.0
O599 O 0.15671 0.53547 0.26851 0.0
O600 O 0.17846 0.51961 0.25145 0.0
C601 C 0.17489 0.465 0.2438 0.0
C602 C 0.17205 0.53621 0.25738 0.0
O603 O 0.12966 0.49216 0.28355 0.0
Mg604 Mg 0.77137 0.66111 0.02266 0.0
O605 O 0.74133 0.64235 0.01888 0.0
O606 O 0.71707 0.66416 0.01591 0.0
Mg607 Mg 0.7306 0.69574 0.01986 0.0
C608 C 0.7228 0.64638 0.01615 0.0
C609 C 0.80792 0.63883 0.01127 0.0
O610 O 0.81376 0.6576 0.0093 0.0
O611 O 0.76896 0.66972 0.98982 0.0
O612 O 0.74537 0.69212 0.99025 0.0
O613 O 0.7698 0.66131 0.05581 0.0
O614 O 0.75643 0.68354 0.036 0.0
C615 C 0.75817 0.68252 0.98109 0.0
C616 C 0.75924 0.67681 0.05367 0.0
O617 O 0.78995 0.63458 0.01609 0.0
Mg618 Mg 0.9077 0.03068 0.23527 0.0
O619 O 0.88502 0.00382 0.2332 0.0
O620 O 0.90221 0.9767 0.22849 0.0
Mg621 Mg 0.93551 0.98628 0.2264 0.0
C622 C 0.8857 0.98508 0.23089 0.0
C623 C 0.8801 0.06527 0.2371 0.0
O624 O 0.89161 0.06979 0.22229 0.0
O625 O 0.91862 0.02138 0.26641 0.0
O626 O 0.93628 0.99515 0.25934 0.0
O627 O 0.90433 0.03466 0.20266 0.0
O628 O 0.92709 0.01612 0.21717 0.0
C629 C 0.92981 0.00732 0.2718 0.0
C630 C 0.91858 0.0225 0.20102 0.0
O631 O 0.88327 0.04958 0.24692 0.0
Mg632 Mg 0.27215 0.15968 0.52488 0.0
O633 O 0.24174 0.14149 0.52095 0.0
O634 O 0.21784 0.16368 0.5203 0.0
Mg635 Mg 0.23206 0.195 0.52415 0.0
C636 C 0.2232 0.1458 0.51949 0.0
C637 C 0.30808 0.13755 0.51198 0.0
O638 O 0.3138 0.15638 0.51022 0.0
O639 O 0.26937 0.16941 0.49244 0.0
O640 O 0.24601 0.19193 0.49394 0.0
O641 O 0.27106 0.15859 0.55801 0.0
O642 O 0.25791 0.18192 0.53942 0.0
C643 C 0.25856 0.1825 0.48426 0.0
C644 C 0.26078 0.17435 0.55675 0.0
O645 O 0.29024 0.13316 0.51711 0.0
Mg646 Mg 0.40978 0.53296 0.73515 0.0
O647 O 0.38914 0.50458 0.73327 0.0
O648 O 0.40861 0.47889 0.72944 0.0
Mg649 Mg 0.44131 0.49079 0.72812 0.0
C650 C 0.39137 0.486 0.73131 0.0
C651 C 0.38609 0.56922 0.74365 0.0
O652 O 0.40327 0.57679 0.73741 0.0
O653 O 0.42046 0.52506 0.7668 0.0
O654 O 0.4401 0.49999 0.76083 0.0
O655 O 0.4068 0.53582 0.70237 0.0
O656 O 0.4307 0.51955 0.7181 0.0
C657 C 0.43236 0.5118 0.77282 0.0
C658 C 0.42196 0.52461 0.70157 0.0
O659 O 0.38386 0.55051 0.74556 0.0
Mg660 Mg 0.73648 0.34658 0.51089 0.0
O661 O 0.76531 0.36321 0.50085 0.0
O662 O 0.78944 0.34122 0.50184 0.0
Mg663 Mg 0.77699 0.31188 0.51443 0.0
C664 C 0.78338 0.35854 0.49813 0.0
C665 C 0.71705 0.38737 0.50733 0.0
O666 O 0.73026 0.39096 0.52216 0.0
O667 O 0.73329 0.32948 0.48162 0.0
O668 O 0.75664 0.30704 0.48616 0.0
O669 O 0.74394 0.35564 0.54228 0.0
O670 O 0.7539 0.32826 0.52873 0.0
C671 C 0.74217 0.3143 0.47588 0.0
C672 C 0.75429 0.33996 0.54387 0.0
O673 O 0.71662 0.37064 0.4986 0.0
Mg674 Mg 0.65563 0.00985 0.76947 0.0
O675 O 0.63686 0.01006 0.73984 0.0
O676 O 0.65907 0.01338 0.71597 0.0
Mg677 Mg 0.69096 0.0173 0.72985 0.0
C678 C 0.641 0.01116 0.72156 0.0
C679 C 0.63231 0.99201 0.80357 0.0
O680 O 0.6512 0.99214 0.81032 0.0
O681 O 0.66559 0.97873 0.76287 0.0
O682 O 0.68827 0.98482 0.73992 0.0
O683 O 0.65437 0.04263 0.77233 0.0
O684 O 0.67822 0.02773 0.75723 0.0
C685 C 0.67872 0.97288 0.75125 0.0
C686 C 0.67042 0.04401 0.76216 0.0
O687 O 0.62856 0.99777 0.78594 0.0
Mg688 Mg 0.03643 0.25579 0.9125 0.0
O689 O 0.00648 0.24952 0.89464 0.0
O690 O 0.98396 0.23702 0.91546 0.0
Mg691 Mg 0.99916 0.2359 0.94642 0.0
C692 C 0.98876 0.24255 0.89814 0.0
C693 C 0.06421 0.2851 0.88974 0.0
O694 O 0.07119 0.28828 0.90807 0.0
O695 O 0.02387 0.28338 0.92576 0.0
O696 O 0.00179 0.27009 0.94661 0.0
O697 O 0.04495 0.22492 0.90692 0.0
O698 O 0.0284 0.23395 0.93283 0.0
C699 C 0.0107 0.28516 0.93874 0.0
C700 C 0.03548 0.21995 0.92264 0.0
O701 O 0.04908 0.27304 0.88659 0.0
Mg702 Mg 0.53303 0.75587 0.41391 0.0
O703 O 0.50251 0.7524 0.39641 0.0
O704 O 0.47993 0.74064 0.41759 0.0
Mg705 Mg 0.49561 0.7365 0.44799 0.0
C706 C 0.48451 0.7466 0.40034 0.0
C707 C 0.56494 0.76773 0.38622 0.0
O708 O 0.57219 0.75415 0.3981 0.0
O709 O 0.52248 0.7837 0.42869 0.0
O710 O 0.50102 0.77041 0.45013 0.0
O711 O 0.53937 0.7247 0.40652 0.0
O712 O 0.52388 0.73337 0.43318 0.0
C713 C 0.5103 0.78545 0.4426 0.0
C714 C 0.52989 0.71947 0.42213 0.0
O715 O 0.54729 0.77334 0.38886 0.0
Mg716 Mg 0.98435 0.74173 0.58979 0.0
O717 O 0.01273 0.73453 0.60881 0.0
O718 O 0.0358 0.72551 0.58791 0.0
Mg719 Mg 0.02292 0.72809 0.55611 0.0
C720 C 0.0302 0.72855 0.60545 0.0
C721 C 0.95177 0.74788 0.6177 0.0
O722 O 0.94405 0.736 0.60355 0.0
O723 O 0.9992 0.77139 0.58129 0.0
O724 O 0.02168 0.7621 0.55994 0.0
O725 O 0.97331 0.71018 0.59032 0.0
O726 O 0.99255 0.7228 0.56721 0.0
C727 C 0.013 0.77557 0.56921 0.0
C728 C 0.98332 0.70748 0.57466 0.0
O729 O 0.9699 0.75465 0.61661 0.0
Mg730 Mg 0.4864 0.24444 0.09189 0.0
O731 O 0.51522 0.23787 0.11058 0.0
O732 O 0.53837 0.23 0.08928 0.0
Mg733 Mg 0.52517 0.23264 0.05762 0.0
C734 C 0.53287 0.23255 0.10694 0.0
C735 C 0.45373 0.24861 0.12014 0.0
O736 O 0.44651 0.23668 0.10581 0.0
O737 O 0.50017 0.27475 0.08373 0.0
O738 O 0.52277 0.26639 0.06207 0.0
O739 O 0.47645 0.21253 0.09185 0.0
O740 O 0.49505 0.22629 0.06884 0.0
C741 C 0.51376 0.27947 0.07157 0.0
C742 C 0.48637 0.21053 0.07601 0.0
O743 O 0.47155 0.25623 0.11908 0.0
H744 H 0.1972 0.78799 0.85064 0.0
H745 H 0.26472 0.78395 0.95178 0.0
H746 H 0.24047 0.74402 0.86485 0.0
H747 H 0.21848 0.82617 0.94274 0.0
H748 H 0.25575 0.76987 0.91938 0.0
H749 H 0.20409 0.80261 0.88387 0.0
C750 C 0.20806 0.78138 0.86075 0.0
C751 C 0.21851 0.76495 0.85487 0.0
C752 C 0.24748 0.7822 0.92439 0.0
C753 C 0.22647 0.78154 0.89265 0.0
C754 C 0.25264 0.79032 0.94298 0.0
C755 C 0.24236 0.80633 0.95009 0.0
C756 C 0.23191 0.79007 0.91259 0.0
C757 C 0.22682 0.81384 0.93787 0.0
C758 C 0.21203 0.78976 0.87964 0.0
C759 C 0.23241 0.75697 0.86853 0.0
N760 N 0.22207 0.80566 0.91966 0.0
N761 N 0.236 0.76537 0.88667 0.0
H762 H 0.05276 0.52438 0.39347 0.0
H763 H 0.0974 0.47482 0.29896 0.0
H764 H 0.03117 0.46606 0.37298 0.0
H765 H 0.12929 0.51998 0.33544 0.0
H766 H 0.07074 0.47272 0.32312 0.0
H767 H 0.07852 0.52462 0.36917 0.0
C768 C 0.05354 0.51148 0.38402 0.0
C769 C 0.03993 0.495 0.38562 0.0
C770 C 0.08366 0.48299 0.32578 0.0
C771 C 0.0693 0.49546 0.3572 0.0
C772 C 0.09883 0.48422 0.31203 0.0
C773 C 0.11558 0.49762 0.31517 0.0
C774 C 0.08521 0.49545 0.34254 0.0
C775 C 0.11669 0.50943 0.33236 0.0
C776 C 0.06822 0.5117 0.37002 0.0
C777 C 0.0413 0.4791 0.3723 0.0
N778 N 0.10169 0.50815 0.34528 0.0
N779 N 0.05576 0.4797 0.35862 0.0
H780 H 0.7518 0.74243 0.86958 0.0
H781 H 0.7867 0.66958 0.95616 0.0
H782 H 0.79736 0.70011 0.86155 0.0
H783 H 0.73514 0.70593 0.95747 0.0
H784 H 0.79124 0.67977 0.92164 0.0
H785 H 0.74585 0.72853 0.90193 0.0
C786 C 0.76038 0.72998 0.87445 0.0
C787 C 0.77499 0.72235 0.86261 0.0
C788 C 0.77888 0.68536 0.92952 0.0
C789 C 0.76858 0.70658 0.90027 0.0
C790 C 0.77627 0.67955 0.9492 0.0
C791 C 0.76063 0.68705 0.95984 0.0
C792 C 0.76579 0.69877 0.92054 0.0
C793 C 0.74755 0.69989 0.95003 0.0
C794 C 0.75707 0.72212 0.8931 0.0
C795 C 0.78606 0.7066 0.87019 0.0
N796 N 0.75051 0.70539 0.93106 0.0
N797 N 0.78268 0.69926 0.8886 0.0
H798 H 0.97754 0.03002 0.39186 0.0
H799 H 0.94474 0.97475 0.28988 0.0
H800 H 0.98259 0.96734 0.38169 0.0
H801 H 0.92971 0.03492 0.30196 0.0
H802 H 0.95801 0.97194 0.3239 0.0
H803 H 0.95958 0.03242 0.35943 0.0
C804 C 0.97481 0.01676 0.38285 0.0
C805 C 0.98163 0.99845 0.38951 0.0
C806 C 0.9517 0.98574 0.31922 0.0
C807 C 0.96109 0.0011 0.35245 0.0
C808 C 0.94413 0.98738 0.29973 0.0
C809 C 0.93622 0.00516 0.29298 0.0
C810 C 0.95161 0.00207 0.33213 0.0
C811 C 0.93568 0.02094 0.30653 0.0
C812 C 0.96446 0.01812 0.36441 0.0
C813 C 0.97744 0.98172 0.37732 0.0
N814 N 0.94348 0.0191 0.32543 0.0
N815 N 0.96761 0.98348 0.35937 0.0
H816 H 0.25884 0.2348 0.6685 0.0
H817 H 0.22928 0.19882 0.55879 0.0
H818 H 0.20253 0.24783 0.63814 0.0
H819 H 0.2747 0.17105 0.59529 0.0
H820 H 0.21919 0.21673 0.58773 0.0
H821 H 0.26506 0.21125 0.64209 0.0
C822 C 0.24773 0.23257 0.65633 0.0
C823 C 0.23021 0.24335 0.65541 0.0
C824 C 0.23124 0.20658 0.58948 0.0
C825 C 0.23726 0.21659 0.62514 0.0
C826 C 0.23709 0.1964 0.57289 0.0
C827 C 0.25302 0.18358 0.57454 0.0
C828 C 0.24161 0.2042 0.60784 0.0
C829 C 0.26236 0.18083 0.59336 0.0
C830 C 0.25123 0.21907 0.64134 0.0
C831 C 0.21619 0.23977 0.63945 0.0
N832 N 0.25671 0.19129 0.60925 0.0
N833 N 0.22014 0.22687 0.62481 0.0
H834 H 0.43525 0.50285 0.57669 0.0
H835 H 0.45577 0.50467 0.69454 0.0
H836 H 0.49234 0.49009 0.60584 0.0
H837 H 0.40329 0.52822 0.66485 0.0
H838 H 0.46735 0.49452 0.66239 0.0
H839 H 0.42132 0.50748 0.60914 0.0
C840 C 0.44484 0.50092 0.58989 0.0
C841 C 0.46508 0.49625 0.58847 0.0
C842 C 0.45324 0.50181 0.66292 0.0
C843 C 0.44914 0.50139 0.6257 0.0
C844 C 0.44659 0.50755 0.68128 0.0
C845 C 0.42858 0.51739 0.68237 0.0
C846 C 0.44177 0.50587 0.64553 0.0
C847 C 0.41734 0.52079 0.66469 0.0
C848 C 0.43685 0.50352 0.60842 0.0
C849 C 0.47663 0.49352 0.60615 0.0
N850 N 0.42415 0.5151 0.64699 0.0
N851 N 0.46854 0.49627 0.624 0.0
H852 H 0.82261 0.28179 0.63677 0.0
H853 H 0.75404 0.35931 0.57947 0.0
H854 H 0.77986 0.31688 0.66536 0.0
H855 H 0.78034 0.31024 0.55089 0.0
H856 H 0.77009 0.34948 0.61105 0.0
H857 H 0.81405 0.29803 0.60525 0.0
C858 C 0.81175 0.29323 0.63647 0.0
C859 C 0.80178 0.29792 0.65359 0.0
C860 C 0.77251 0.34103 0.59779 0.0
C861 C 0.79187 0.31639 0.61772 0.0
C862 C 0.76341 0.34664 0.57975 0.0
C863 C 0.76571 0.33548 0.56251 0.0
C864 C 0.78415 0.32425 0.59854 0.0
C865 C 0.77805 0.31922 0.56377 0.0
C866 C 0.80677 0.30236 0.61849 0.0
C867 C 0.78769 0.3127 0.65241 0.0
N868 N 0.78673 0.31404 0.58151 0.0
N869 N 0.78305 0.32134 0.63473 0.0
H870 H 0.53846 0.0308 0.64117 0.0
H871 H 0.64268 0.99566 0.68456 0.0
H872 H 0.56392 0.97694 0.62137 0.0
H873 H 0.602 0.02261 0.72334 0.0
H874 H 0.61577 0.99315 0.65862 0.0
H875 H 0.56305 0.03206 0.66948 0.0
C876 C 0.54904 0.01917 0.64275 0.0
C877 C 0.54921 0.0039 0.62854 0.0
C878 C 0.61272 -0.00045 0.67283 0.0
C879 C 0.57759 0.00563 0.66061 0.0
C880 C 0.62806 0.00109 0.68759 0.0
C881 C 0.62452 0.00935 0.7061 0.0
C882 C 0.59379 0.00674 0.6764 0.0
C883 C 0.60526 0.01604 0.70928 0.0
C884 C 0.56309 0.01998 0.65889 0.0
C885 C 0.56351 0.98939 0.63143 0.0
N886 N 0.59061 0.0148 0.69445 0.0
N887 N 0.57723 0.99076 0.64696 0.0
H888 H 0.87603 0.22548 0.82998 0.0
H889 H 0.99237 0.25279 0.85897 0.0
H890 H 0.91864 0.24645 0.78744 0.0
H891 H 0.94932 0.22913 0.89992 0.0
H892 H 0.96585 0.25088 0.83252 0.0
H893 H 0.90297 0.22702 0.85573 0.0
C894 C 0.89111 0.23028 0.82601 0.0
C895 C 0.89509 0.23571 0.80646 0.0
C896 C 0.96226 0.24609 0.8473 0.0
C897 C 0.92608 0.23779 0.83605 0.0
C898 C 0.97739 0.24716 0.86242 0.0
C899 C 0.9731 0.24114 0.88176 0.0
C900 C 0.9427 0.23896 0.85154 0.0
C901 C 0.95339 0.23396 0.8853 0.0
C902 C 0.90649 0.23127 0.84077 0.0
C903 C 0.91485 0.24226 0.80233 0.0
N904 N 0.93896 0.23312 0.87037 0.0
N905 N 0.92964 0.24309 0.81701 0.0
H906 H 0.48243 0.8815 0.51905 0.0
H907 H 0.52139 0.82204 0.42728 0.0
H908 H 0.49722 0.91042 0.46432 0.0
H909 H 0.49056 0.79437 0.47577 0.0
H910 H 0.51476 0.85467 0.44095 0.0
H911 H 0.48728 0.84943 0.50376 0.0
C912 C 0.48666 0.88104 0.50375 0.0
C913 C 0.48951 0.89858 0.49293 0.0
C914 C 0.5094 0.84141 0.4485 0.0
C915 C 0.49522 0.86192 0.47531 0.0
C916 C 0.51326 0.82279 0.44078 0.0
C917 C 0.50657 0.8054 0.45041 0.0
C918 C 0.499 0.84259 0.46607 0.0
C919 C 0.49601 0.80731 0.46779 0.0
C920 C 0.48937 0.86274 0.495 0.0
C921 C 0.4948 0.89718 0.4731 0.0
N922 N 0.49266 0.82552 0.47508 0.0
N923 N 0.49767 0.87913 0.46494 0.0
H924 H 0.11519 0.30022 0.77505 0.0
H925 H 0.09812 0.30999 0.89118 0.0
H926 H 0.15835 0.3288 0.81711 0.0
H927 H 0.05597 0.27879 0.84995 0.0
H928 H 0.11856 0.32023 0.86351 0.0
H929 H 0.09176 0.29503 0.80164 0.0
C930 C 0.11974 0.30543 0.78986 0.0
C931 C 0.13884 0.31486 0.79385 0.0
C932 C 0.10476 0.31127 0.86049 0.0
C933 C 0.11201 0.30911 0.82434 0.0
C934 C 0.09304 0.30545 0.87629 0.0
C935 C 0.0754 0.29334 0.87292 0.0
C936 C 0.09885 0.3049 0.84115 0.0
C937 C 0.06953 0.28801 0.85327 0.0
C938 C 0.1063 0.30256 0.80501 0.0
C939 C 0.14374 0.32163 0.81326 0.0
N940 N 0.08132 0.29369 0.83816 0.0
N941 N 0.13048 0.31851 0.82778 0.0
H942 H 0.52609 0.59099 0.42289 0.0
H943 H 0.51202 0.70363 0.45466 0.0
H944 H 0.50067 0.60835 0.47761 0.0
H945 H 0.53787 0.68707 0.39991 0.0
H946 H 0.50586 0.66859 0.46225 0.0
H947 H 0.52876 0.62591 0.41315 0.0
C948 C 0.52099 0.60212 0.43282 0.0
C949 C 0.51316 0.5967 0.45111 0.0
C950 C 0.51279 0.6726 0.44851 0.0
C951 C 0.51613 0.63667 0.44005 0.0
C952 C 0.51626 0.69264 0.44415 0.0
C953 C 0.52545 0.69831 0.42661 0.0
C954 C 0.51862 0.65808 0.4353 0.0
C955 C 0.53078 0.68337 0.41363 0.0
C956 C 0.52246 0.62204 0.42722 0.0
C957 C 0.50655 0.61175 0.46326 0.0
N958 N 0.52735 0.66393 0.41827 0.0
N959 N 0.50829 0.63101 0.45756 0.0
H960 H 0.86541 0.73731 0.70846 0.0
H961 H 0.95907 0.77651 0.64678 0.0
H962 H 0.89186 0.79677 0.71598 0.0
H963 H 0.91707 0.72841 0.628 0.0
H964 H 0.93829 0.78229 0.67529 0.0
H965 H 0.88855 0.73157 0.68232 0.0
C966 C 0.87629 0.74908 0.70478 0.0
C967 C 0.87672 0.76754 0.7144 0.0
C968 C 0.93371 0.77051 0.66486 0.0
C969 C 0.90313 0.76114 0.68428 0.0
C970 C 0.94554 0.76718 0.64866 0.0
C971 C 0.93974 0.75201 0.63497 0.0
C972 C 0.91624 0.75833 0.66748 0.0
C973 C 0.92208 0.74036 0.63808 0.0
C974 C 0.88938 0.74586 0.68973 0.0
C975 C 0.89094 0.78237 0.70879 0.0
N976 N 0.91104 0.7437 0.65402 0.0
N977 N 0.90363 0.77886 0.69407 0.0
H978 H 0.06557 0.88415 0.521 0.0
H979 H 0.99325 0.80851 0.57961 0.0
H980 H 0.00664 0.89826 0.53933 0.0
H981 H 0.04491 0.7908 0.54873 0.0
H982 H 0.00072 0.84283 0.56967 0.0
H983 H 0.06094 0.85128 0.53585 0.0
C984 C 0.05176 0.88041 0.52836 0.0
C985 C 0.03642 0.89391 0.52884 0.0
C986 C 0.01048 0.83143 0.56518 0.0
C987 C 0.03096 0.8563 0.54575 0.0
C988 C 0.00627 0.81183 0.57091 0.0
C989 C 0.01836 0.79667 0.56486 0.0
C990 C 0.02697 0.83596 0.55343 0.0
C991 C 0.03505 0.80194 0.55359 0.0
C992 C 0.04907 0.86161 0.53672 0.0
C993 C 0.01874 0.8882 0.5384 0.0
N994 N 0.03882 0.82111 0.5482 0.0
N995 N 0.01647 0.86981 0.54644 0.0
H996 H 0.12441 0.68345 0.68277 0.0
H997 H 0.03093 0.74416 0.64313 0.0
H998 H 0.11072 0.73966 0.70834 0.0
H999 H 0.06218 0.70475 0.60619 0.0
H1000 H 0.05593 0.73877 0.6703 0.0
H1001 H 0.09737 0.68726 0.65757 0.0
C1002 C 0.11581 0.69662 0.68312 0.0
C1003 C 0.12015 0.71137 0.69767 0.0
C1004 C 0.05721 0.7313 0.65624 0.0
C1005 C 0.08872 0.7155 0.66905 0.0
C1006 C 0.04295 0.73429 0.64078 0.0
C1007 C 0.04456 0.72498 0.62233 0.0
C1008 C 0.07293 0.71863 0.65332 0.0
C1009 C 0.06046 0.71238 0.62009 0.0
C1010 C 0.10028 0.6987 0.66877 0.0
C1011 C 0.10792 0.72779 0.69761 0.0
N1012 N 0.07398 0.70952 0.63541 0.0
N1013 N 0.09279 0.72943 0.68351 0.0
H1014 H 0.00863 0.60232 0.50782 0.0
H1015 H 0.95963 0.67471 0.583 0.0
H1016 H 0.94665 0.59482 0.52438 0.0
H1017 H 0.0074 0.69484 0.54554 0.0
H1018 H 0.95841 0.64239 0.56651 0.0
H1019 H 0.01177 0.63368 0.52615 0.0
C1020 C 0.99564 0.60721 0.5152 0.0
C1021 C 0.97726 0.59582 0.51434 0.0
C1022 C 0.96922 0.65387 0.56198 0.0
C1023 C 0.98108 0.63148 0.53584 0.0
C1024 C 0.97001 0.67229 0.57144 0.0
C1025 C 0.98362 0.68754 0.56561 0.0
C1026 C 0.98231 0.65055 0.54677 0.0
C1027 C 0.99665 0.68355 0.55049 0.0
C1028 C 0.99753 0.62507 0.52575 0.0
C1029 C 0.96121 0.60281 0.52476 0.0
N1030 N 0.99571 0.66539 0.54159 0.0
N1031 N 0.96351 0.62014 0.53509 0.0
H1032 H 0.79476 0.89192 0.25091 0.0
H1033 H 0.84726 0.9956 0.22091 0.0
H1034 H 0.76952 0.92763 0.204 0.0
H1035 H 0.88117 0.94612 0.24131 0.0
H1036 H 0.81628 0.97405 0.22048 0.0
H1037 H 0.82434 0.91523 0.25371 0.0
C1038 C 0.79536 0.90484 0.2414 0.0
C1039 C 0.77978 0.90792 0.22719 0.0
C1040 C 0.83053 0.96801 0.22509 0.0
C1041 C 0.81336 0.93454 0.23035 0.0
C1042 C 0.84816 0.98026 0.22541 0.0
C1043 C 0.8668 0.97258 0.23104 0.0
C1044 C 0.83155 0.94811 0.23089 0.0
C1045 C 0.86713 0.95259 0.23669 0.0
C1046 C 0.81224 0.91801 0.24291 0.0
C1047 C 0.78132 0.92474 0.21507 0.0
N1048 N 0.84975 0.94107 0.23658 0.0
N1049 N 0.79783 0.93751 0.21696 0.0
H1050 H 0.78676 0.14969 0.22702 0.0
H1051 H 0.85326 0.06102 0.2668 0.0
H1052 H 0.77677 0.11938 0.28221 0.0
H1053 H 0.86771 0.09751 0.21643 0.0
H1054 H 0.82421 0.08102 0.27202 0.0
H1055 H 0.81522 0.12907 0.22185 0.0
C1056 C 0.79044 0.13857 0.23796 0.0
C1057 C 0.77938 0.13628 0.25508 0.0
C1058 C 0.83379 0.08466 0.25986 0.0
C1059 C 0.81211 0.11274 0.24939 0.0
C1060 C 0.85039 0.07326 0.25689 0.0
C1061 C 0.86296 0.07759 0.24117 0.0
C1062 C 0.82969 0.10041 0.24694 0.0
C1063 C 0.85847 0.09362 0.22877 0.0
C1064 C 0.8068 0.1269 0.23509 0.0
C1065 C 0.78503 0.12181 0.26891 0.0
N1066 N 0.8422 0.10438 0.23189 0.0
N1067 N 0.80099 0.11058 0.26576 0.0
H1068 H 0.38416 0.92585 0.94305 0.0
H1069 H 0.28698 0.8978 0.00401 0.0
H1070 H 0.36988 0.95897 0.995 0.0
H1071 H 0.32032 0.85413 0.97453 0.0
H1072 H 0.3127 0.92345 0.99533 0.0
H1073 H 0.35611 0.90224 0.94919 0.0
C1074 C 0.37524 0.9282 0.95578 0.0
C1075 C 0.3797 0.9444 0.96866 0.0
C1076 C 0.31424 0.90824 0.99071 0.0
C1077 C 0.3471 0.91765 0.97532 0.0
C1078 C 0.29958 0.89367 0.99554 0.0
C1079 C 0.30164 0.87383 0.99008 0.0
C1080 C 0.33076 0.90294 0.97997 0.0
C1081 C 0.31827 0.86922 0.97919 0.0
C1082 C 0.35913 0.91476 0.95916 0.0
C1083 C 0.36702 0.94689 0.98452 0.0
N1084 N 0.33216 0.88368 0.97444 0.0
N1085 N 0.3513 0.93365 0.9874 0.0
H1086 H 0.21594 0.35368 0.28531 0.0
H1087 H 0.1932 0.44481 0.21502 0.0
H1088 H 0.23135 0.35609 0.22388 0.0
H1089 H 0.16778 0.43694 0.27236 0.0
H1090 H 0.20533 0.41135 0.21716 0.0
H1091 H 0.1963 0.38292 0.28017 0.0
C1092 C 0.21496 0.36013 0.27064 0.0
C1093 C 0.22552 0.35245 0.25505 0.0
C1094 C 0.19689 0.41683 0.22917 0.0
C1095 C 0.20331 0.38628 0.24918 0.0
C1096 C 0.18996 0.43597 0.22797 0.0
C1097 C 0.17966 0.44381 0.24365 0.0
C1098 C 0.19373 0.4055 0.24628 0.0
C1099 C 0.17574 0.43156 0.25996 0.0
C1100 C 0.2038 0.37693 0.26775 0.0
C1101 C 0.22386 0.36171 0.23646 0.0
N1102 N 0.18304 0.41312 0.26098 0.0
N1103 N 0.21316 0.37823 0.2341 0.0
H1104 H 0.15379 0.03389 0.49942 0.0
H1105 H 0.18247 0.14964 0.51587 0.0
H1106 H 0.11112 0.07995 0.49519 0.0
H1107 H 0.22722 0.10543 0.51596 0.0
H1108 H 0.1562 0.1237 0.50988 0.0
H1109 H 0.18084 0.05924 0.50711 0.0
C1110 C 0.1501 0.04931 0.5002 0.0
C1111 C 0.13016 0.05482 0.49654 0.0
C1112 C 0.17174 0.11961 0.51122 0.0
C1113 C 0.16101 0.08384 0.50525 0.0
C1114 C 0.18683 0.13446 0.51467 0.0
C1115 C 0.20719 0.12978 0.51638 0.0
C1116 C 0.1769 0.0998 0.50944 0.0
C1117 C 0.21176 0.10976 0.51472 0.0
C1118 C 0.16556 0.06376 0.50449 0.0
C1119 C 0.12629 0.07503 0.49758 0.0
N1120 N 0.19672 0.09549 0.51131 0.0
N1121 N 0.14154 0.08875 0.50182 0.0
H1122 H 0.74515 0.13953 0.71443 0.0
H1123 H 0.6623 0.08042 0.7767 0.0
H1124 H 0.72545 0.16074 0.77028 0.0
H1125 H 0.69983 0.05213 0.73574 0.0
H1126 H 0.67998 0.11228 0.76999 0.0
H1127 H 0.72302 0.10964 0.7176 0.0
C1128 C 0.73595 0.13799 0.72723 0.0
C1129 C 0.73716 0.15252 0.74218 0.0
C1130 C 0.68418 0.09908 0.76237 0.0
C1131 C 0.71191 0.11849 0.74588 0.0
C1132 C 0.67407 0.08092 0.76611 0.0
C1133 C 0.67966 0.06354 0.75683 0.0
C1134 C 0.69979 0.09988 0.74906 0.0
C1135 C 0.69505 0.06507 0.7433 0.0
C1136 C 0.72345 0.12091 0.72908 0.0
C1137 C 0.72508 0.14975 0.75854 0.0
N1138 N 0.70459 0.08292 0.73982 0.0
N1139 N 0.71294 0.13303 0.75998 0.0
H1140 H 0.42068 0.08025 0.51691 0.0
H1141 H 0.30262 0.09725 0.51743 0.0
H1142 H 0.37587 0.03242 0.52336 0.0
H1143 H 0.34768 0.14273 0.50319 0.0
H1144 H 0.32871 0.07286 0.51828 0.0
H1145 H 0.39377 0.10305 0.51078 0.0
C1146 C 0.40514 0.07455 0.51702 0.0
C1147 C 0.4005 0.05445 0.52082 0.0
C1148 C 0.33282 0.08815 0.51479 0.0
C1149 C 0.36952 0.08048 0.51377 0.0
C1150 C 0.31793 0.10208 0.51428 0.0
C1151 C 0.32299 0.12212 0.5104 0.0
C1152 C 0.35291 0.09434 0.51151 0.0
C1153 C 0.34307 0.1275 0.50638 0.0
C1154 C 0.38977 0.08755 0.51341 0.0
C1155 C 0.3801 0.0478 0.52044 0.0
N1156 N 0.35729 0.11374 0.50721 0.0
N1157 N 0.36535 0.06083 0.51716 0.0
H1158 H 0.60668 0.44043 0.46584 0.0
H1159 H 0.70971 0.42126 0.52743 0.0
H1160 H 0.62181 0.4637 0.52454 0.0
H1161 H 0.68744 0.38501 0.47751 0.0
H1162 H 0.68045 0.44147 0.52289 0.0
H1163 H 0.63894 0.42422 0.46657 0.0
C1164 C 0.61687 0.44223 0.4788 0.0
C1165 C 0.61153 0.45324 0.49524 0.0
C1166 C 0.68205 0.42919 0.51284 0.0
C1167 C 0.64835 0.43493 0.49612 0.0
C1168 C 0.69881 0.41769 0.51535 0.0
C1169 C 0.70093 0.40126 0.50297 0.0
C1170 C 0.66733 0.42433 0.49777 0.0
C1171 C 0.68632 0.39742 0.48752 0.0
C1172 C 0.6352 0.43295 0.47924 0.0
C1173 C 0.62522 0.45508 0.51169 0.0
N1174 N 0.67006 0.4088 0.48542 0.0
N1175 N 0.64298 0.44602 0.51172 0.0
H1176 H 0.71825 0.2272 0.3834 0.0
H1177 H 0.71744 0.32812 0.44557 0.0
H1178 H 0.70027 0.28197 0.35664 0.0
H1179 H 0.75111 0.27752 0.46329 0.0
H1180 H 0.70651 0.31068 0.4146 0.0
H1181 H 0.72528 0.2446 0.41478 0.0
C1182 C 0.71577 0.24292 0.38412 0.0
C1183 C 0.709 0.25321 0.36725 0.0
C1184 C 0.71628 0.30347 0.42533 0.0
C1185 C 0.71687 0.27325 0.40332 0.0
C1186 C 0.7225 0.31337 0.44299 0.0
C1187 C 0.7353 0.30431 0.45703 0.0
C1188 C 0.72268 0.28431 0.42187 0.0
C1189 C 0.74138 0.28518 0.45289 0.0
C1190 C 0.71975 0.25284 0.40208 0.0
C1191 C 0.70549 0.27346 0.36927 0.0
N1192 N 0.73498 0.27585 0.43576 0.0
N1193 N 0.7096 0.28289 0.38698 0.0
H1194 H 0.5657 0.98737 0.90946 0.0
H1195 H 0.59143 0.99194 0.79527 0.0
H1196 H 0.52003 0.9883 0.86193 0.0
H1197 H 0.63554 0.98256 0.84291 0.0
H1198 H 0.56476 0.98868 0.81903 0.0
H1199 H 0.59127 0.98389 0.88504 0.0
C1200 C 0.56107 0.98676 0.89385 0.0
C1201 C 0.54076 0.9883 0.88769 0.0
C1202 C 0.58026 0.98713 0.82423 0.0
C1203 C 0.56994 0.98434 0.8596 0.0
C1204 C 0.5955 0.98898 0.81067 0.0
C1205 C 0.61579 0.98773 0.81714 0.0
C1206 C 0.58537 0.98415 0.84441 0.0
C1207 C 0.62015 0.98379 0.83726 0.0
C1208 C 0.57564 0.98468 0.87991 0.0
C1209 C 0.53553 0.9871 0.86731 0.0
N1210 N 0.6051 0.98235 0.85019 0.0
N1211 N 0.55006 0.98541 0.85396 0.0
H1212 H 0.29849 0.19851 0.36382 0.0
H1213 H 0.23617 0.20753 0.46175 0.0
H1214 H 0.25465 0.24222 0.37326 0.0
H1215 H 0.28602 0.16923 0.45841 0.0
H1216 H 0.24095 0.21765 0.42778 0.0
H1217 H 0.29277 0.18534 0.39707 0.0
C1218 C 0.28767 0.20533 0.37282 0.0
C1219 C 0.27695 0.22145 0.3656 0.0
C1220 C 0.25086 0.20701 0.4344 0.0
C1221 C 0.27022 0.20633 0.40351 0.0
C1222 C 0.24813 0.20116 0.45387 0.0
C1223 C 0.26081 0.18759 0.46309 0.0
C1224 C 0.26643 0.1993 0.42388 0.0
C1225 C 0.27592 0.17978 0.45193 0.0
C1226 C 0.28436 0.19774 0.39175 0.0
C1227 C 0.26298 0.22953 0.3779 0.0
N1228 N 0.27839 0.18583 0.43291 0.0
N1229 N 0.26006 0.22191 0.39616 0.0
H1230 H 0.47202 0.53562 0.89519 0.0
H1231 H 0.44801 0.48007 0.79174 0.0
H1232 H 0.47915 0.47316 0.88567 0.0
H1233 H 0.42923 0.53922 0.80275 0.0
H1234 H 0.45917 0.4776 0.82642 0.0
H1235 H 0.45606 0.53766 0.86178 0.0
C1236 C 0.47013 0.52232 0.88613 0.0
C1237 C 0.47697 0.50419 0.89325 0.0
C1238 C 0.4525 0.4911 0.82135 0.0
C1239 C 0.45879 0.50644 0.85507 0.0
C1240 C 0.44617 0.49255 0.80148 0.0
C1241 C 0.43779 0.50995 0.79426 0.0
C1242 C 0.45072 0.50723 0.8342 0.0
C1243 C 0.43561 0.52554 0.80769 0.0
C1244 C 0.46094 0.52349 0.86711 0.0
C1245 C 0.47393 0.4874 0.88094 0.0
N1246 N 0.44224 0.5239 0.827 0.0
N1247 N 0.46524 0.48898 0.86245 0.0
H1248 H 0.69506 0.75359 0.12839 0.0
H1249 H 0.77405 0.67717 0.09212 0.0
H1250 H 0.75328 0.7469 0.15795 0.0
H1251 H 0.72618 0.69934 0.05437 0.0
H1252 H 0.763 0.69734 0.11949 0.0
H1253 H 0.70287 0.72844 0.10409 0.0
C1254 C 0.7094 0.74667 0.12987 0.0
C1255 C 0.72362 0.75242 0.14508 0.0
C1256 C 0.75486 0.69764 0.10522 0.0
C1257 C 0.73263 0.72369 0.11742 0.0
C1258 C 0.76106 0.68606 0.08966 0.0
C1259 C 0.7512 0.68683 0.07086 0.0
C1260 C 0.7385 0.7098 0.10197 0.0
C1261 C 0.73449 0.69861 0.06845 0.0
C1262 C 0.71388 0.73241 0.11597 0.0
C1263 C 0.74203 0.74307 0.14626 0.0
N1264 N 0.7287 0.70967 0.0838 0.0
N1265 N 0.74603 0.72917 0.13258 0.0
H1266 H 0.97512 0.9696 0.10163 0.0
H1267 H 0.90559 0.03627 0.16492 0.0
H1268 H 0.95355 0.02588 0.08172 0.0
H1269 H 0.94589 0.99493 0.19204 0.0
H1270 H 0.91773 0.02796 0.13251 0.0
H1271 H 0.95946 0.97444 0.13327 0.0
C1272 C 0.9671 0.98294 0.1038 0.0
C1273 C 0.96579 0.99737 0.08885 0.0
C1274 C 0.92381 0.02062 0.14556 0.0
C1275 C 0.94748 0.0027 0.12491 0.0
C1276 C 0.91685 0.02529 0.16407 0.0
C1277 C 0.92479 0.01634 0.18127 0.0
C1278 C 0.9387 0.00674 0.14416 0.0
C1279 C 0.93936 0.00222 0.17921 0.0
C1280 C 0.95809 0.98561 0.12185 0.0
C1281 C 0.95475 0.01412 0.09251 0.0
N1282 N 0.94588 0.99786 0.16097 0.0
N1283 N 0.94607 0.01631 0.11013 0.0
H1284 H 0.31868 0.76295 0.12615 0.0
H1285 H 0.26155 0.85291 0.07637 0.0
H1286 H 0.29598 0.81054 0.15998 0.0
H1287 H 0.28127 0.80246 0.04449 0.0
H1288 H 0.27842 0.84064 0.10667 0.0
H1289 H 0.3099 0.78045 0.09562 0.0
C1290 C 0.31202 0.77722 0.12711 0.0
C1291 C 0.30779 0.78521 0.14555 0.0
C1292 C 0.27925 0.83242 0.09295 0.0
C1293 C 0.29748 0.80528 0.11068 0.0
C1294 C 0.26963 0.83941 0.07566 0.0
C1295 C 0.26992 0.82866 0.05786 0.0
C1296 C 0.28919 0.81457 0.09238 0.0
C1297 C 0.28064 0.81129 0.0578 0.0
C1298 C 0.307 0.78722 0.1097 0.0
C1299 C 0.29946 0.80389 0.14602 0.0
N1300 N 0.2897 0.80475 0.0748 0.0
N1301 N 0.29429 0.81319 0.1288 0.0
H1302 H 0.05538 0.52704 0.11781 0.0
H1303 H 0.09906 0.49097 0.22338 0.0
H1304 H 0.02955 0.4763 0.14811 0.0
H1305 H 0.13493 0.52377 0.18162 0.0
H1306 H 0.07035 0.4903 0.19908 0.0
H1307 H 0.08153 0.53103 0.14455 0.0
C1308 C 0.05507 0.51691 0.13024 0.0
C1309 C 0.04037 0.50127 0.13074 0.0
C1310 C 0.08451 0.49771 0.19534 0.0
C1311 C 0.07017 0.50571 0.16129 0.0
C1312 C 0.10085 0.49817 0.20919 0.0
C1313 C 0.11945 0.50731 0.20445 0.0
C1314 C 0.08672 0.50676 0.17679 0.0
C1315 C 0.12093 0.51638 0.18583 0.0
C1316 C 0.07005 0.51911 0.1454 0.0
C1317 C 0.04076 0.48843 0.14709 0.0
N1318 N 0.10479 0.5159 0.1727 0.0
N1319 N 0.05544 0.49093 0.16174 0.0
H1320 H 0.36909 0.73945 0.33565 0.0
H1321 H 0.48782 0.75541 0.36079 0.0
H1322 H 0.41273 0.74924 0.29083 0.0
H1323 H 0.44408 0.73857 0.40387 0.0
H1324 H 0.46052 0.75559 0.33516 0.0
H1325 H 0.39641 0.74159 0.3611 0.0
C1326 C 0.38443 0.74203 0.33115 0.0
C1327 C 0.38862 0.74401 0.31105 0.0
C1328 C 0.45694 0.75187 0.35024 0.0
C1329 C 0.42003 0.74664 0.34018 0.0
C1330 C 0.47251 0.75177 0.36489 0.0
C1331 C 0.46829 0.7469 0.38454 0.0
C1332 C 0.43699 0.74716 0.35529 0.0
C1333 C 0.44813 0.74234 0.38894 0.0
C1334 C 0.40003 0.74332 0.34571 0.0
C1335 C 0.40877 0.74776 0.30615 0.0
N1336 N 0.43328 0.74258 0.37445 0.0
N1337 N 0.42375 0.74887 0.32061 0.0
H1338 H 0.01835 0.40719 0.97849 0.0
H1339 H 0.97823 0.2953 0.95926 0.0
H1340 H 0.95817 0.38528 0.99102 0.0
H1341 H 0.03167 0.32073 0.9331 0.0
H1342 H 0.97094 0.3281 0.97138 0.0
H1343 H 0.02388 0.37567 0.96208 0.0
C1344 C 0.00627 0.39576 0.97768 0.0
C1345 C 0.98781 0.39879 0.98621 0.0
C1346 C 0.98419 0.32655 0.96288 0.0
C1347 C 0.99404 0.36271 0.96756 0.0
C1348 C 0.98843 0.30779 0.95601 0.0
C1349 C 0.00568 0.30521 0.94524 0.0
C1350 C 0.99742 0.34288 0.9592 0.0
C1351 C 0.01822 0.32201 0.94136 0.0
C1352 C 0.0094 0.37783 0.96825 0.0
C1353 C 0.97259 0.3836 0.98455 0.0
N1354 N 0.01394 0.34011 0.9485 0.0
N1355 N 0.97611 0.36614 0.9756 0.0
H1356 H 0.61823 0.83417 0.28938 0.0
H1357 H 0.59973 0.75356 0.37373 0.0
H1358 H 0.64597 0.77778 0.29213 0.0
H1359 H 0.55743 0.79879 0.36084 0.0
H1360 H 0.61915 0.76497 0.34596 0.0
H1361 H 0.59784 0.82398 0.31747 0.0
C1362 C 0.62 0.81968 0.29589 0.0
C1363 C 0.63371 0.80674 0.28838 0.0
C1364 C 0.60562 0.77242 0.34915 0.0
C1365 C 0.6107 0.79513 0.32042 0.0
C1366 C 0.59453 0.76597 0.36509 0.0
C1367 C 0.57688 0.77521 0.36961 0.0
C1368 C 0.59918 0.78839 0.33764 0.0
C1369 C 0.57092 0.79121 0.35782 0.0
C1370 C 0.60833 0.81385 0.31181 0.0
C1371 C 0.6354 0.7881 0.29727 0.0
N1372 N 0.58211 0.79736 0.34235 0.0
N1373 N 0.62412 0.78292 0.31285 0.0
H1374 H 0.03357 0.09149 0.9278 0.0
H1375 H 0.01845 0.20496 0.95593 0.0
H1376 H 0.00975 0.11052 0.98273 0.0
H1377 H 0.04487 0.18697 0.90195 0.0
H1378 H 0.01347 0.17017 0.96502 0.0
H1379 H 0.03631 0.12614 0.91715 0.0
C1380 C 0.02889 0.10293 0.93761 0.0
C1381 C 0.02141 0.09805 0.95619 0.0
C1382 C 0.0203 0.1738 0.95115 0.0
C1383 C 0.02442 0.13771 0.94407 0.0
C1384 C 0.02309 0.19369 0.94591 0.0
C1385 C 0.03205 0.1989 0.92812 0.0
C1386 C 0.02654 0.15895 0.93854 0.0
C1387 C 0.03793 0.18363 0.91582 0.0
C1388 C 0.03039 0.12269 0.93149 0.0
C1389 C 0.01533 0.11349 0.96816 0.0
N1390 N 0.0351 0.16434 0.92128 0.0
N1391 N 0.01703 0.13259 0.96192 0.0
H1392 H 0.39275 0.29683 0.21921 0.0
H1393 H 0.42 0.22733 0.13024 0.0
H1394 H 0.36854 0.23666 0.21083 0.0
H1395 H 0.45947 0.2772 0.14949 0.0
H1396 H 0.39952 0.23234 0.15853 0.0
H1397 H 0.41621 0.29158 0.19284 0.0
C1398 C 0.39248 0.2825 0.21192 0.0
C1399 C 0.37869 0.26714 0.21721 0.0
C1400 C 0.41269 0.24217 0.15667 0.0
C1401 C 0.40523 0.26116 0.18705 0.0
C1402 C 0.42436 0.2394 0.14042 0.0
C1403 C 0.44147 0.25191 0.13746 0.0
C1404 C 0.41793 0.25774 0.17002 0.0
C1405 C 0.44641 0.26721 0.15125 0.0
C1406 C 0.40589 0.2795 0.19696 0.0
C1407 C 0.37904 0.24884 0.20739 0.0
N1408 N 0.43458 0.26981 0.16691 0.0
N1409 N 0.39194 0.24643 0.19268 0.0
H1410 H 0.50129 0.4029 0.04292 0.0
H1411 H 0.54583 0.29572 0.05212 0.0
H1412 H 0.56055 0.38982 0.02472 0.0
H1413 H 0.49236 0.31165 0.08107 0.0
H1414 H 0.5517 0.33027 0.04246 0.0
H1415 H 0.49776 0.36971 0.05731 0.0
C1416 C 0.51358 0.39306 0.04202 0.0
C1417 C 0.5312 0.3991 0.03252 0.0
C1418 C 0.53877 0.32626 0.05107 0.0
C1419 C 0.52728 0.36111 0.04894 0.0
C1420 C 0.53538 0.3065 0.05658 0.0
C1421 C 0.51848 0.3007 0.06732 0.0
C1422 C 0.52505 0.34036 0.05612 0.0
C1423 C 0.50556 0.31541 0.07277 0.0
C1424 C 0.51161 0.37416 0.05033 0.0
C1425 C 0.54676 0.38584 0.03201 0.0
N1426 N 0.509 0.33452 0.06693 0.0
N1427 N 0.54436 0.36742 0.03993 0.0
H1428 H 0.61065 0.24315 0.21355 0.0
H1429 H 0.56604 0.21041 0.10659 0.0
H1430 H 0.62682 0.18967 0.18422 0.0
H1431 H 0.53321 0.2468 0.14518 0.0
H1432 H 0.59069 0.2053 0.1338 0.0
H1433 H 0.584 0.2471 0.1878 0.0
C1434 C 0.60856 0.23213 0.20185 0.0
C1435 C 0.62122 0.2161 0.20108 0.0
C1436 C 0.57805 0.21434 0.13635 0.0
C1437 C 0.59098 0.22086 0.17133 0.0
C1438 C 0.56402 0.21735 0.1208 0.0
C1439 C 0.54754 0.22908 0.1236 0.0
C1440 C 0.57585 0.22337 0.15481 0.0
C1441 C 0.54565 0.23759 0.1424 0.0
C1442 C 0.59338 0.23448 0.18711 0.0
C1443 C 0.61786 0.20253 0.18528 0.0
N1444 N 0.55975 0.23471 0.15727 0.0
N1445 N 0.60321 0.20531 0.171 0.0
H1446 H 0.44864 0.09733 0.02533 0.0
H1447 H 0.51011 0.19952 0.04591 0.0
H1448 H 0.50988 0.10707 0.00718 0.0
H1449 H 0.46377 0.1769 0.08384 0.0
H1450 H 0.50885 0.16732 0.02889 0.0
H1451 H 0.45234 0.12813 0.0443 0.0
C1452 C 0.46296 0.10576 0.02544 0.0
C1453 C 0.47899 0.09939 0.0146 0.0
C1454 C 0.49911 0.16942 0.04106 0.0
C1455 C 0.48305 0.13512 0.03595 0.0
C1456 C 0.4998 0.18778 0.05077 0.0
C1457 C 0.48705 0.19091 0.06634 0.0
C1458 C 0.48527 0.15429 0.04672 0.0
C1459 C 0.47392 0.17515 0.07195 0.0
C1460 C 0.46499 0.12344 0.03622 0.0
C1461 C 0.49695 0.11143 0.01498 0.0
N1462 N 0.47323 0.1576 0.06201 0.0
N1463 N 0.49845 0.12878 0.02537 0.0
H1464 H 0.30657 0.38844 0.75466 0.0
H1465 H 0.35229 0.49318 0.71999 0.0
H1466 H 0.27973 0.41939 0.70508 0.0
H1467 H 0.38972 0.4473 0.74292 0.0
H1468 H 0.32296 0.46945 0.71979 0.0
H1469 H 0.3348 0.4134 0.75614 0.0
C1470 C 0.30657 0.40063 0.74423 0.0
C1471 C 0.29092 0.40194 0.72971 0.0
C1472 C 0.33762 0.46467 0.72486 0.0
C1473 C 0.32289 0.43045 0.73141 0.0
C1474 C 0.3543 0.47817 0.72507 0.0
C1475 C 0.37344 0.47213 0.7314 0.0
C1476 C 0.34009 0.44521 0.7315 0.0
C1477 C 0.37526 0.4525 0.73777 0.0
C1478 C 0.32268 0.41474 0.74501 0.0
C1479 C 0.29163 0.41788 0.71641 0.0
N1480 N 0.35875 0.43976 0.73779 0.0
N1481 N 0.30734 0.43163 0.71764 0.0
H1482 H 0.26779 0.61673 0.75175 0.0
H1483 H 0.38703 0.60969 0.74328 0.0
H1484 H 0.30998 0.6675 0.75108 0.0
H1485 H 0.34652 0.55833 0.75019 0.0
H1486 H 0.35868 0.63095 0.74555 0.0
H1487 H 0.29602 0.5949 0.74994 0.0
C1488 C 0.28296 0.62328 0.75106 0.0
C1489 C 0.28654 0.64396 0.75163 0.0
C1490 C 0.35596 0.61504 0.74665 0.0
C1491 C 0.31889 0.61913 0.74977 0.0
C1492 C 0.37217 0.60287 0.74538 0.0
C1493 C 0.36916 0.58218 0.74652 0.0
C1494 C 0.33648 0.6065 0.74896 0.0
C1495 C 0.34954 0.57421 0.74928 0.0
C1496 C 0.29908 0.61082 0.75019 0.0
C1497 C 0.30654 0.65164 0.75094 0.0
N1498 N 0.33392 0.58639 0.75031 0.0
N1499 N 0.32191 0.63924 0.75004 0.0
H1500 H 0.88212 0.42185 0.44243 0.0
H1501 H 0.7834 0.39891 0.50268 0.0
H1502 H 0.86661 0.45842 0.49155 0.0
H1503 H 0.8169 0.35271 0.47747 0.0
H1504 H 0.80951 0.4235 0.49272 0.0
H1505 H 0.85395 0.39869 0.44954 0.0
C1506 C 0.87291 0.42507 0.45472 0.0
C1507 C 0.87703 0.44216 0.46649 0.0
C1508 C 0.81101 0.40798 0.4893 0.0
C1509 C 0.8443 0.41591 0.47423 0.0
C1510 C 0.79612 0.39398 0.49487 0.0
C1511 C 0.79809 0.37375 0.491 0.0
C1512 C 0.82772 0.4017 0.47944 0.0
C1513 C 0.8149 0.36814 0.4809 0.0
C1514 C 0.85673 0.41188 0.45865 0.0
C1515 C 0.86401 0.44568 0.48184 0.0
N1516 N 0.82905 0.38205 0.47542 0.0
N1517 N 0.84824 0.43269 0.48524 0.0
H1518 H 0.73402 0.86312 0.727 0.0
H1519 H 0.67133 0.94478 0.7798 0.0
H1520 H 0.72097 0.86134 0.78907 0.0
H1521 H 0.69837 0.9531 0.72328 0.0
H1522 H 0.68375 0.91121 0.78129 0.0
H1523 H 0.71547 0.8933 0.72345 0.0
C1524 C 0.72724 0.86903 0.73989 0.0
C1525 C 0.72931 0.85977 0.75843 0.0
C1526 C 0.68679 0.92036 0.7685 0.0
C1527 C 0.70779 0.89422 0.75437 0.0
C1528 C 0.67964 0.93947 0.76759 0.0
C1529 C 0.68401 0.95185 0.75149 0.0
C1530 C 0.69821 0.91355 0.75311 0.0
C1531 C 0.69485 0.94418 0.7361 0.0
C1532 C 0.71656 0.88622 0.73782 0.0
C1533 C 0.71971 0.86787 0.77447 0.0
N1534 N 0.70164 0.92558 0.73734 0.0
N1535 N 0.70949 0.8847 0.7721 0.0
H1536 H 0.62125 0.57434 0.96831 0.0
H1537 H 0.72325 0.60755 0.02855 0.0
H1538 H 0.63897 0.54549 0.02305 0.0
H1539 H 0.68707 0.64828 0.99512 0.0
H1540 H 0.69643 0.58136 0.02244 0.0
H1541 H 0.64956 0.59843 0.97368 0.0
C1542 C 0.63096 0.57306 0.98153 0.0
C1543 C 0.62737 0.55794 0.99541 0.0
C1544 C 0.69448 0.59606 0.01648 0.0
C1545 C 0.66032 0.58526 0.00125 0.0
C1546 C 0.70975 0.61094 0.01987 0.0
C1547 C 0.7073 0.63012 0.01243 0.0
C1548 C 0.67697 0.60036 0.00517 0.0
C1549 C 0.6895 0.63376 0.0013 0.0
C1550 C 0.64723 0.58678 0.98448 0.0
C1551 C 0.6411 0.55675 0.01186 0.0
N1552 N 0.67509 0.61901 0.99792 0.0
N1553 N 0.65698 0.57025 0.01433 0.0
H1554 H 0.25411 0.62818 0.21396 0.0
H1555 H 0.16454 0.57316 0.271 0.0
H1556 H 0.22786 0.65294 0.26514 0.0
H1557 H 0.2031 0.54292 0.23248 0.0
H1558 H 0.18375 0.60427 0.26494 0.0
H1559 H 0.23164 0.5985 0.21663 0.0
C1560 C 0.24348 0.62742 0.22565 0.0
C1561 C 0.24287 0.64297 0.23941 0.0
C1562 C 0.18789 0.59083 0.25772 0.0
C1563 C 0.21719 0.60913 0.24256 0.0
C1564 C 0.17688 0.57308 0.26108 0.0
C1565 C 0.18224 0.55537 0.25226 0.0
C1566 C 0.20427 0.5909 0.24532 0.0
C1567 C 0.19841 0.55618 0.23959 0.0
C1568 C 0.23075 0.61046 0.22723 0.0
C1569 C 0.22896 0.64116 0.25438 0.0
N1570 N 0.20888 0.57364 0.23653 0.0
N1571 N 0.21664 0.62454 0.25556 0.0
H1572 H 0.87138 0.52975 0.02142 0.0
H1573 H 0.84779 0.64366 0.00333 0.0
H1574 H 0.917 0.57746 0.01924 0.0
H1575 H 0.80193 0.59855 0.01646 0.0
H1576 H 0.87285 0.61852 0.00443 0.0
H1577 H 0.84536 0.55373 0.0151 0.0
C1578 C 0.87592 0.54524 0.01942 0.0
C1579 C 0.89637 0.55165 0.021 0.0
C1580 C 0.85729 0.61407 0.00697 0.0
C1581 C 0.86674 0.57912 0.01383 0.0
C1582 C 0.84293 0.62843 0.00629 0.0
C1583 C 0.82273 0.62326 0.00999 0.0
C1584 C 0.85147 0.59433 0.01134 0.0
C1585 C 0.81736 0.60324 0.01363 0.0
C1586 C 0.86107 0.55891 0.01592 0.0
C1587 C 0.90141 0.57191 0.01843 0.0
N1588 N 0.83167 0.58951 0.01433 0.0
N1589 N 0.88671 0.5849 0.01502 0.0
H1590 H 0.12938 0.96445 0.99036 0.0
H1591 H 0.16226 0.85244 0.98165 0.0
H1592 H 0.08752 0.91337 0.98644 0.0
H1593 H 0.2046 0.90214 0.99397 0.0
H1594 H 0.135 0.87523 0.97902 0.0
H1595 H 0.15731 0.94248 0.98754 0.0
C1596 C 0.12606 0.94863 0.98871 0.0
C1597 C 0.10611 0.94071 0.98876 0.0
C1598 C 0.15026 0.88119 0.98219 0.0
C1599 C 0.13796 0.91551 0.98564 0.0
C1600 C 0.16587 0.86818 0.98364 0.0
C1601 C 0.18575 0.87536 0.98823 0.0
C1602 C 0.15449 0.90158 0.98533 0.0
C1603 C 0.18949 0.89593 0.99053 0.0
C1604 C 0.14201 0.9361 0.98721 0.0
C1605 C 0.10269 0.92009 0.98678 0.0
N1606 N 0.17398 0.90832 0.98919 0.0
N1607 N 0.11845 0.90822 0.98534 0.0
loop_
_geom_bond_atom_site_label_1
_geom_bond_atom_site_label_2
_geom_bond_distance
_geom_bond_site_symmetry_2
_ccdc_geom_bond_type
C0 C1 1.384 . S
C0 H13 0.947 . S
C0 C35 1.382 . S
C1 C0 1.384 . S
C1 C2 1.378 1_655 S
C2 C1 1.378 1_455 S
C2 C3 1.378 . S
C2 H14 0.952 . S
C3 C2 1.378 . S
C3 H15 0.950 . S
C3 C34 1.383 . S
H4 C23 0.947 . S
H5 C24 0.946 . S
H6 C26 0.953 1_556 S
H7 C27 0.945 . S
H8 C29 0.952 . S
H9 C30 0.949 . S
H10 C32 0.950 . S
H11 C33 0.948 . S
H12 C35 0.951 . S
H13 C0 0.947 . S
H14 C2 0.952 . S
H15 C3 0.950 . S
N16 C19 1.382 . S
N16 C21 1.363 . S
N17 C19 1.371 . S
N17 C20 1.372 . S
N18 C20 1.361 . S
N18 C21 1.377 . S
C19 N16 1.382 . S
C19 N17 1.371 . S
C19 C22 1.480 . S
C20 N17 1.372 . S
C20 N18 1.361 . S
C20 C28 1.457 . S
C21 N16 1.363 . S
C21 N18 1.377 . S
C21 C34 1.479 . S
C22 C19 1.480 . S
C22 C23 1.383 1_545 S
C22 C27 1.385 . S
C23 H4 0.947 . S
C23 C22 1.383 1_565 S
C23 C24 1.388 . S
C24 H5 0.946 . S
C24 C23 1.388 . S
C24 C25 1.384 . S
C25 C24 1.384 . S
C25 C26 1.377 1_565 S
C26 H6 0.953 1_554 S
C26 C25 1.377 1_545 S
C26 C27 1.369 . S
C27 H7 0.945 . S
C27 C22 1.385 . S
C27 C26 1.369 . S
C28 C20 1.457 . S
C28 C29 1.372 1_554 S
C28 C33 1.364 . S
C29 H8 0.952 . S
C29 C28 1.372 1_556 S
C29 C30 1.389 . S
C30 H9 0.949 . S
C30 C29 1.389 . S
C30 C31 1.387 . S
C31 C30 1.387 . S
C31 C32 1.372 . S
C32 H10 0.950 . S
C32 C31 1.372 . S
C32 C33 1.379 1_556 S
C33 H11 0.948 . S
C33 C28 1.364 . S
C33 C32 1.379 1_554 S
C34 C3 1.383 . S
C34 C21 1.479 . S
C34 C35 1.398 1_455 S
C35 C0 1.382 . S
C35 H12 0.951 . S
C35 C34 1.398 1_655 S
C36 C37 1.384 . S
C36 H49 0.947 . S
C36 C71 1.382 . S
C37 C36 1.384 . S
C37 C38 1.378 . S
C38 C37 1.378 . S
C38 C39 1.378 . S
C38 H50 0.952 . S
C39 C38 1.378 . S
C39 H51 0.950 . S
C39 C70 1.383 . S
H40 C59 0.947 . S
H41 C60 0.946 . S
H42 C62 0.953 . S
H43 C63 0.945 . S
H44 C65 0.952 . S
H45 C66 0.949 . S
H46 C68 0.950 . S
H47 C69 0.948 . S
H48 C71 0.951 . S
H49 C36 0.947 . S
H50 C38 0.952 . S
H51 C39 0.950 . S
N52 C55 1.382 . S
N52 C57 1.363 . S
N53 C55 1.371 . S
N53 C56 1.372 . S
N54 C56 1.361 . S
N54 C57 1.377 . S
C55 N52 1.382 . S
C55 N53 1.371 . S
C55 C58 1.480 . S
C56 N53 1.372 . S
C56 N54 1.361 . S
C56 C64 1.457 . S
C57 N52 1.363 . S
C57 N54 1.377 . S
C57 C70 1.479 . S
C58 C55 1.480 . S
C58 C59 1.383 . S
C58 C63 1.385 . S
C59 H40 0.947 . S
C59 C58 1.383 . S
C59 C60 1.388 . S
C60 H41 0.946 . S
C60 C59 1.388 . S
C60 C61 1.384 . S
C61 C60 1.384 . S
C61 C62 1.377 . S
C62 H42 0.953 . S
C62 C61 1.377 . S
C62 C63 1.369 . S
C63 H43 0.945 . S
C63 C58 1.385 . S
C63 C62 1.369 . S
C64 C56 1.457 . S
C64 C65 1.372 . S
C64 C69 1.364 . S
C65 H44 0.952 . S
C65 C64 1.372 . S
C65 C66 1.389 . S
C66 H45 0.949 . S
C66 C65 1.389 . S
C66 C67 1.387 . S
C67 C66 1.387 . S
C67 C68 1.372 . S
C68 H46 0.950 . S
C68 C67 1.372 . S
C68 C69 1.379 . S
C69 H47 0.948 . S
C69 C64 1.364 . S
C69 C68 1.379 . S
C70 C39 1.383 . S
C70 C57 1.479 . S
C70 C71 1.398 . S
C71 C36 1.382 . S
C71 H48 0.951 . S
C71 C70 1.398 . S
C72 C73 1.384 1_454 S
C72 H85 0.947 . S
C72 C107 1.377 1_455 S
C73 C72 1.384 1_656 S
C73 C74 1.378 . S
C74 C73 1.378 . S
C74 C75 1.365 1_556 S
C74 H86 0.952 . S
C75 C74 1.365 1_554 S
C75 H87 0.944 1_554 S
C75 C106 1.401 . S
H76 C95 0.947 . S
H77 C96 0.946 . S
H78 C98 0.953 . S
H79 C99 0.945 . S
H80 C101 0.952 1_655 S
H81 C102 0.949 . S
H82 C104 0.950 . S
H83 C105 0.948 . S
H84 C107 0.940 1_455 S
H85 C72 0.947 . S
H86 C74 0.952 . S
H87 C75 0.944 1_556 S
N88 C91 1.382 . S
N88 C93 1.363 . S
N89 C91 1.371 . S
N89 C92 1.372 . S
N90 C92 1.361 . S
N90 C93 1.377 . S
C91 N88 1.382 . S
C91 N89 1.371 . S
C91 C94 1.480 . S
C92 N89 1.372 . S
C92 N90 1.361 . S
C92 C100 1.457 1_655 S
C93 N88 1.363 . S
C93 N90 1.377 . S
C93 C106 1.479 . S
C94 C91 1.480 . S
C94 C95 1.383 . S
C94 C99 1.385 . S
C95 H76 0.947 . S
C95 C94 1.383 . S
C95 C96 1.388 . S
C96 H77 0.946 . S
C96 C95 1.388 . S
C96 C97 1.384 . S
C97 C96 1.384 . S
C97 C98 1.377 . S
C98 H78 0.953 . S
C98 C97 1.377 . S
C98 C99 1.369 . S
C99 H79 0.945 . S
C99 C94 1.385 . S
C99 C98 1.369 . S
C100 C92 1.457 1_455 S
C100 C101 1.372 . S
C100 C105 1.364 . S
C101 H80 0.952 1_455 S
C101 C100 1.372 . S
C101 C102 1.389 . S
C102 H81 0.949 . S
C102 C101 1.389 . S
C102 C103 1.387 . S
C103 C102 1.387 . S
C103 C104 1.372 . S
C104 H82 0.950 . S
C104 C103 1.372 . S
C104 C105 1.379 . S
C105 H83 0.948 . S
C105 C100 1.364 . S
C105 C104 1.379 . S
C106 C75 1.401 . S
C106 C93 1.479 . S
C106 C107 1.414 . S
C107 C72 1.377 1_655 S
C107 H84 0.940 1_655 S
C107 C106 1.414 . S
C108 C109 1.384 . S
C108 H121 0.947 . S
C108 C143 1.382 . S
C109 C108 1.384 . S
C109 C110 1.378 . S
C110 C109 1.378 . S
C110 C111 1.378 . S
C110 H122 0.952 . S
C111 C110 1.378 . S
C111 H123 0.950 . S
C111 C142 1.383 . S
H112 C131 0.947 . S
H113 C132 0.946 . S
H114 C134 0.953 . S
H115 C135 0.945 . S
H116 C137 0.952 . S
H117 C138 0.949 . S
H118 C140 0.950 . S
H119 C141 0.948 . S
H120 C143 0.951 . S
H121 C108 0.947 . S
H122 C110 0.952 . S
H123 C111 0.950 . S
N124 C127 1.382 . S
N124 C129 1.363 . S
N125 C127 1.371 . S
N125 C128 1.372 . S
N126 C128 1.361 . S
N126 C129 1.377 . S
C127 N124 1.382 . S
C127 N125 1.371 . S
C127 C130 1.480 . S
C128 N125 1.372 . S
C128 N126 1.361 . S
C128 C136 1.457 . S
C129 N124 1.363 . S
C129 N126 1.377 . S
C129 C142 1.479 . S
C130 C127 1.480 . S
C130 C131 1.383 . S
C130 C135 1.385 . S
C131 H112 0.947 . S
C131 C130 1.383 . S
C131 C132 1.388 . S
C132 H113 0.946 . S
C132 C131 1.388 . S
C132 C133 1.384 . S
C133 C132 1.384 . S
C133 C134 1.377 . S
C134 H114 0.953 . S
C134 C133 1.377 . S
C134 C135 1.369 . S
C135 H115 0.945 . S
C135 C130 1.385 . S
C135 C134 1.369 . S
C136 C128 1.457 . S
C136 C137 1.372 . S
C136 C141 1.364 . S
C137 H116 0.952 . S
C137 C136 1.372 . S
C137 C138 1.389 . S
C138 H117 0.949 . S
C138 C137 1.389 . S
C138 C139 1.387 . S
C139 C138 1.387 . S
C139 C140 1.372 . S
C140 H118 0.950 . S
C140 C139 1.372 . S
C140 C141 1.379 . S
C141 H119 0.948 . S
C141 C136 1.364 . S
C141 C140 1.379 . S
C142 C111 1.383 . S
C142 C129 1.479 . S
C142 C143 1.398 . S
C143 C108 1.382 . S
C143 H120 0.951 . S
C143 C142 1.398 . S
C144 C145 1.384 . S
C144 H157 0.947 . S
C144 C179 1.382 . S
C145 C144 1.384 . S
C145 C146 1.378 . S
C146 C145 1.378 . S
C146 C147 1.378 . S
C146 H158 0.952 . S
C147 C146 1.378 . S
C147 H159 0.950 . S
C147 C178 1.383 . S
H148 C167 0.947 . S
H149 C168 0.946 . S
H150 C170 0.953 1_545 S
H151 C171 0.932 1_545 S
H152 C173 0.952 . S
H153 C174 0.949 . S
H154 C176 0.965 . S
H155 C177 0.948 . S
H156 C179 0.951 . S
H157 C144 0.947 . S
H158 C146 0.952 . S
H159 C147 0.950 . S
N160 C163 1.382 . S
N160 C165 1.363 . S
N161 C163 1.371 . S
N161 C164 1.372 . S
N162 C164 1.361 . S
N162 C165 1.377 . S
C163 N160 1.382 . S
C163 N161 1.371 . S
C163 C166 1.480 . S
C164 N161 1.372 . S
C164 N162 1.361 . S
C164 C172 1.457 . S
C165 N160 1.363 . S
C165 N162 1.377 . S
C165 C178 1.479 . S
C166 C163 1.480 . S
C166 C167 1.383 . S
C166 C171 1.385 . S
C167 H148 0.947 . S
C167 C166 1.383 . S
C167 C168 1.388 1_455 S
C168 H149 0.946 . S
C168 C167 1.388 1_655 S
C168 C169 1.375 1_655 S
C169 C168 1.375 1_455 S
C169 C170 1.413 . S
C170 H150 0.953 1_565 S
C170 C169 1.413 . S
C170 C171 1.369 . S
C171 H151 0.932 1_565 S
C171 C166 1.385 . S
C171 C170 1.369 . S
C172 C164 1.457 . S
C172 C173 1.372 1_565 S
C172 C177 1.364 . S
C173 H152 0.952 . S
C173 C172 1.372 1_545 S
C173 C174 1.389 . S
C174 H153 0.949 . S
C174 C173 1.389 . S
C174 C175 1.387 . S
C175 C174 1.387 . S
C175 C176 1.372 . S
C176 H154 0.965 . S
C176 C175 1.372 . S
C176 C177 1.379 1_545 S
C177 H155 0.948 . S
C177 C172 1.364 . S
C177 C176 1.379 1_565 S
C178 C147 1.383 . S
C178 C165 1.479 . S
C178 C179 1.398 . S
C179 C144 1.382 . S
C179 H156 0.951 . S
C179 C178 1.398 . S
C180 C181 1.384 . S
C180 H193 0.947 . S
C180 C215 1.382 . S
C181 C180 1.384 . S
C181 C182 1.378 . S
C182 C181 1.378 . S
C182 C183 1.378 . S
C182 H194 0.952 . S
C183 C182 1.378 . S
C183 H195 0.950 . S
C183 C214 1.383 . S
H184 C203 0.947 . S
H185 C204 0.946 . S
H186 C206 0.953 . S
H187 C207 0.945 . S
H188 C209 0.952 . S
H189 C210 0.949 . S
H190 C212 0.950 . S
H191 C213 0.948 . S
H192 C215 0.951 . S
H193 C180 0.947 . S
H194 C182 0.952 . S
H195 C183 0.950 . S
N196 C199 1.382 . S
N196 C201 1.363 . S
N197 C199 1.371 . S
N197 C200 1.372 . S
N198 C200 1.361 . S
N198 C201 1.377 . S
C199 N196 1.382 . S
C199 N197 1.371 . S
C199 C202 1.480 . S
C200 N197 1.372 . S
C200 N198 1.361 . S
C200 C208 1.457 . S
C201 N196 1.363 . S
C201 N198 1.377 . S
C201 C214 1.479 . S
C202 C199 1.480 . S
C202 C203 1.383 . S
C202 C207 1.385 . S
C203 H184 0.947 . S
C203 C202 1.383 . S
C203 C204 1.388 . S
C204 H185 0.946 . S
C204 C203 1.388 . S
C204 C205 1.384 . S
C205 C204 1.384 . S
C205 C206 1.377 . S
C206 H186 0.953 . S
C206 C205 1.377 . S
C206 C207 1.369 . S
C207 H187 0.945 . S
C207 C202 1.385 . S
C207 C206 1.369 . S
C208 C200 1.457 . S
C208 C209 1.372 . S
C208 C213 1.364 . S
C209 H188 0.952 . S
C209 C208 1.372 . S
C209 C210 1.389 . S
C210 H189 0.949 . S
C210 C209 1.389 . S
C210 C211 1.387 . S
C211 C210 1.387 . S
C211 C212 1.372 . S
C212 H190 0.950 . S
C212 C211 1.372 . S
C212 C213 1.379 . S
C213 H191 0.948 . S
C213 C208 1.364 . S
C213 C212 1.379 . S
C214 C183 1.383 . S
C214 C201 1.479 . S
C214 C215 1.398 . S
C215 C180 1.382 . S
C215 H192 0.951 . S
C215 C214 1.398 . S
C216 C217 1.384 . S
C216 H229 0.947 1_655 S
C216 C251 1.382 . S
C217 C216 1.384 . S
C217 C218 1.378 . S
C218 C217 1.378 . S
C218 C219 1.378 . S
C218 H230 0.952 . S
C219 C218 1.378 . S
C219 H231 0.950 . S
C219 C250 1.383 . S
H220 C239 0.947 . S
H221 C240 0.946 . S
H222 C242 0.953 . S
H223 C243 0.945 . S
H224 C245 0.952 . S
H225 C246 0.941 1_655 S
H226 C248 0.950 . S
H227 C249 0.948 . S
H228 C251 0.951 . S
H229 C216 0.947 1_455 S
H230 C218 0.952 . S
H231 C219 0.950 . S
N232 C235 1.382 . S
N232 C237 1.363 . S
N233 C235 1.371 . S
N233 C236 1.372 . S
N234 C236 1.361 . S
N234 C237 1.377 . S
C235 N232 1.382 . S
C235 N233 1.371 . S
C235 C238 1.480 . S
C236 N233 1.372 . S
C236 N234 1.361 . S
C236 C244 1.457 . S
C237 N232 1.363 . S
C237 N234 1.377 . S
C237 C250 1.479 . S
C238 C235 1.480 . S
C238 C239 1.383 . S
C238 C243 1.385 . S
C239 H220 0.947 . S
C239 C238 1.383 . S
C239 C240 1.388 . S
C240 H221 0.946 . S
C240 C239 1.388 . S
C240 C241 1.384 . S
C241 C240 1.384 . S
C241 C242 1.377 . S
C242 H222 0.953 . S
C242 C241 1.377 . S
C242 C243 1.369 . S
C243 H223 0.945 . S
C243 C238 1.385 . S
C243 C242 1.369 . S
C244 C236 1.457 . S
C244 C245 1.372 . S
C244 C249 1.364 1_655 S
C245 H224 0.952 . S
C245 C244 1.372 . S
C245 C246 1.389 1_655 S
C246 H225 0.941 1_455 S
C246 C245 1.389 1_455 S
C246 C247 1.387 . S
C247 C246 1.387 . S
C247 C248 1.372 . S
C248 H226 0.950 . S
C248 C247 1.372 . S
C248 C249 1.379 . S
C249 H227 0.948 . S
C249 C244 1.364 1_455 S
C249 C248 1.379 . S
C250 C219 1.383 . S
C250 C237 1.479 . S
C250 C251 1.398 . S
C251 C216 1.382 . S
C251 H228 0.951 . S
C251 C250 1.398 . S
C252 C253 1.384 . S
C252 H265 0.947 . S
C252 C287 1.382 . S
C253 C252 1.384 . S
C253 C254 1.378 . S
C254 C253 1.378 . S
C254 C255 1.378 . S
C254 H266 0.952 . S
C255 C254 1.378 . S
C255 H267 0.950 . S
C255 C286 1.383 . S
H256 C275 0.947 . S
H257 C276 0.946 . S
H258 C278 0.953 . S
H259 C279 0.945 . S
H260 C281 0.952 . S
H261 C282 0.949 . S
H262 C284 0.950 . S
H263 C285 0.948 . S
H264 C287 0.951 . S
H265 C252 0.947 . S
H266 C254 0.952 . S
H267 C255 0.950 . S
N268 C271 1.382 . S
N268 C273 1.363 . S
N269 C271 1.371 . S
N269 C272 1.372 . S
N270 C272 1.361 . S
N270 C273 1.377 . S
C271 N268 1.382 . S
C271 N269 1.371 . S
C271 C274 1.480 . S
C272 N269 1.372 . S
C272 N270 1.361 . S
C272 C280 1.457 . S
C273 N268 1.363 . S
C273 N270 1.377 . S
C273 C286 1.479 . S
C274 C271 1.480 . S
C274 C275 1.383 . S
C274 C279 1.385 . S
C275 H256 0.947 . S
C275 C274 1.383 . S
C275 C276 1.388 . S
C276 H257 0.946 . S
C276 C275 1.388 . S
C276 C277 1.384 . S
C277 C276 1.384 . S
C277 C278 1.377 . S
C278 H258 0.953 . S
C278 C277 1.377 . S
C278 C279 1.369 . S
C279 H259 0.945 . S
C279 C274 1.385 . S
C279 C278 1.369 . S
C280 C272 1.457 . S
C280 C281 1.372 . S
C280 C285 1.364 . S
C281 H260 0.952 . S
C281 C280 1.372 . S
C281 C282 1.389 . S
C282 H261 0.949 . S
C282 C281 1.389 . S
C282 C283 1.387 . S
C283 C282 1.387 . S
C283 C284 1.372 . S
C284 H262 0.950 . S
C284 C283 1.372 . S
C284 C285 1.379 . S
C285 H263 0.948 . S
C285 C280 1.364 . S
C285 C284 1.379 . S
C286 C255 1.383 . S
C286 C273 1.479 . S
C286 C287 1.398 . S
C287 C252 1.382 . S
C287 H264 0.951 . S
C287 C286 1.398 . S
C288 C289 1.384 . S
C288 H301 0.947 . S
C288 C323 1.382 . S
C289 C288 1.384 . S
C289 C290 1.378 . S
C290 C289 1.378 . S
C290 C291 1.378 . S
C290 H302 0.952 . S
C291 C290 1.378 . S
C291 H303 0.950 . S
C291 C322 1.383 . S
H292 C311 0.947 . S
H293 C312 0.946 . S
H294 C314 0.953 . S
H295 C315 0.945 . S
H296 C317 0.952 . S
H297 C318 0.949 . S
H298 C320 0.950 . S
H299 C321 0.948 . S
H300 C323 0.951 . S
H301 C288 0.947 . S
H302 C290 0.952 . S
H303 C291 0.950 . S
N304 C307 1.382 . S
N304 C309 1.363 . S
N305 C307 1.371 . S
N305 C308 1.372 . S
N306 C308 1.361 . S
N306 C309 1.377 . S
C307 N304 1.382 . S
C307 N305 1.371 . S
C307 C310 1.480 . S
C308 N305 1.372 . S
C308 N306 1.361 . S
C308 C316 1.457 . S
C309 N304 1.363 . S
C309 N306 1.377 . S
C309 C322 1.479 . S
C310 C307 1.480 . S
C310 C311 1.383 . S
C310 C315 1.385 . S
C311 H292 0.947 . S
C311 C310 1.383 . S
C311 C312 1.388 . S
C312 H293 0.946 . S
C312 C311 1.388 . S
C312 C313 1.384 . S
C313 C312 1.384 . S
C313 C314 1.377 . S
C314 H294 0.953 . S
C314 C313 1.377 . S
C314 C315 1.369 . S
C315 H295 0.945 . S
C315 C310 1.385 . S
C315 C314 1.369 . S
C316 C308 1.457 . S
C316 C317 1.372 . S
C316 C321 1.364 . S
C317 H296 0.952 . S
C317 C316 1.372 . S
C317 C318 1.389 . S
C318 H297 0.949 . S
C318 C317 1.389 . S
C318 C319 1.387 . S
C319 C318 1.387 . S
C319 C320 1.372 . S
C320 H298 0.950 . S
C320 C319 1.372 . S
C320 C321 1.379 . S
C321 H299 0.948 . S
C321 C316 1.364 . S
C321 C320 1.379 . S
C322 C291 1.383 . S
C322 C309 1.479 . S
C322 C323 1.398 . S
C323 C288 1.382 . S
C323 H300 0.951 . S
C323 C322 1.398 . S
C324 C325 1.384 . S
C324 H337 0.947 . S
C324 C359 1.382 . S
C325 C324 1.384 . S
C325 C326 1.378 . S
C326 C325 1.378 . S
C326 C327 1.378 . S
C326 H338 0.952 . S
C327 C326 1.378 . S
C327 H339 0.950 . S
C327 C358 1.383 . S
H328 C347 0.947 . S
H329 C348 0.946 1_565 S
H330 C350 0.953 . S
H331 C351 0.945 . S
H332 C353 0.952 . S
H333 C354 0.949 . S
H334 C356 0.950 . S
H335 C357 0.948 . S
H336 C359 0.951 . S
H337 C324 0.947 . S
H338 C326 0.952 . S
H339 C327 0.950 . S
N340 C343 1.382 . S
N340 C345 1.363 . S
N341 C343 1.371 . S
N341 C344 1.372 . S
N342 C344 1.361 . S
N342 C345 1.377 . S
C343 N340 1.382 . S
C343 N341 1.371 . S
C343 C346 1.480 . S
C344 N341 1.372 . S
C344 N342 1.361 . S
C344 C352 1.457 . S
C345 N340 1.363 . S
C345 N342 1.377 . S
C345 C358 1.479 . S
C346 C343 1.480 . S
C346 C347 1.383 . S
C346 C351 1.385 1_565 S
C347 H328 0.947 . S
C347 C346 1.383 . S
C347 C348 1.388 1_565 S
C348 H329 0.946 1_545 S
C348 C347 1.388 1_545 S
C348 C349 1.384 . S
C349 C348 1.384 . S
C349 C350 1.377 . S
C350 H330 0.953 . S
C350 C349 1.377 . S
C350 C351 1.369 . S
C351 H331 0.945 . S
C351 C346 1.385 1_545 S
C351 C350 1.369 . S
C352 C344 1.457 . S
C352 C353 1.372 . S
C352 C357 1.364 . S
C353 H332 0.952 . S
C353 C352 1.372 . S
C353 C354 1.389 . S
C354 H333 0.949 . S
C354 C353 1.389 . S
C354 C355 1.387 . S
C355 C354 1.387 . S
C355 C356 1.372 . S
C356 H334 0.950 . S
C356 C355 1.372 . S
C356 C357 1.379 . S
C357 H335 0.948 . S
C357 C352 1.364 . S
C357 C356 1.379 . S
C358 C327 1.383 . S
C358 C345 1.479 . S
C358 C359 1.398 . S
C359 C324 1.382 . S
C359 H336 0.951 . S
C359 C358 1.398 . S
C360 C361 1.384 . S
C360 H373 0.947 . S
C360 C395 1.382 . S
C361 C360 1.384 . S
C361 C362 1.378 . S
C362 C361 1.378 . S
C362 C363 1.378 . S
C362 H374 0.952 . S
C363 C362 1.378 . S
C363 H375 0.950 . S
C363 C394 1.383 . S
H364 C383 0.947 . S
H365 C384 0.946 . S
H366 C386 0.953 . S
H367 C387 0.945 . S
H368 C389 0.952 . S
H369 C390 0.949 . S
H370 C392 0.950 . S
H371 C393 0.948 . S
H372 C395 0.951 . S
H373 C360 0.947 . S
H374 C362 0.952 . S
H375 C363 0.950 . S
N376 C379 1.382 . S
N376 C381 1.363 . S
N377 C379 1.371 . S
N377 C380 1.372 . S
N378 C380 1.361 . S
N378 C381 1.377 . S
C379 N376 1.382 . S
C379 N377 1.371 . S
C379 C382 1.480 . S
C380 N377 1.372 . S
C380 N378 1.361 . S
C380 C388 1.457 . S
C381 N376 1.363 . S
C381 N378 1.377 . S
C381 C394 1.479 . S
C382 C379 1.480 . S
C382 C383 1.383 . S
C382 C387 1.385 . S
C383 H364 0.947 . S
C383 C382 1.383 . S
C383 C384 1.388 . S
C384 H365 0.946 . S
C384 C383 1.388 . S
C384 C385 1.384 . S
C385 C384 1.384 . S
C385 C386 1.377 . S
C386 H366 0.953 . S
C386 C385 1.377 . S
C386 C387 1.369 . S
C387 H367 0.945 . S
C387 C382 1.385 . S
C387 C386 1.369 . S
C388 C380 1.457 . S
C388 C389 1.372 . S
C388 C393 1.364 . S
C389 H368 0.952 . S
C389 C388 1.372 . S
C389 C390 1.389 . S
C390 H369 0.949 . S
C390 C389 1.389 . S
C390 C391 1.387 . S
C391 C390 1.387 . S
C391 C392 1.372 . S
C392 H370 0.950 . S
C392 C391 1.372 . S
C392 C393 1.379 . S
C393 H371 0.948 . S
C393 C388 1.364 . S
C393 C392 1.379 . S
C394 C363 1.383 . S
C394 C381 1.479 . S
C394 C395 1.398 . S
C395 C360 1.382 . S
C395 H372 0.951 . S
C395 C394 1.398 . S
C396 C397 1.384 . S
C396 H409 0.947 . S
C396 C431 1.382 . S
C397 C396 1.384 . S
C397 C398 1.378 . S
C398 C397 1.378 . S
C398 C399 1.378 . S
C398 H410 0.952 . S
C399 C398 1.378 . S
C399 H411 0.950 . S
C399 C430 1.383 . S
H400 C419 0.947 . S
H401 C420 0.946 . S
H402 C422 0.953 . S
H403 C423 0.945 . S
H404 C425 0.952 . S
H405 C426 0.949 . S
H406 C428 0.950 . S
H407 C429 0.948 . S
H408 C431 0.951 . S
H409 C396 0.947 . S
H410 C398 0.952 . S
H411 C399 0.950 . S
N412 C415 1.382 . S
N412 C417 1.363 . S
N413 C415 1.371 . S
N413 C416 1.372 . S
N414 C416 1.361 . S
N414 C417 1.377 . S
C415 N412 1.382 . S
C415 N413 1.371 . S
C415 C418 1.480 . S
C416 N413 1.372 . S
C416 N414 1.361 . S
C416 C424 1.457 . S
C417 N412 1.363 . S
C417 N414 1.377 . S
C417 C430 1.479 . S
C418 C415 1.480 . S
C418 C419 1.383 . S
C418 C423 1.385 . S
C419 H400 0.947 . S
C419 C418 1.383 . S
C419 C420 1.388 . S
C420 H401 0.946 . S
C420 C419 1.388 . S
C420 C421 1.384 . S
C421 C420 1.384 . S
C421 C422 1.377 . S
C422 H402 0.953 . S
C422 C421 1.377 . S
C422 C423 1.369 . S
C423 H403 0.945 . S
C423 C418 1.385 . S
C423 C422 1.369 . S
C424 C416 1.457 . S
C424 C425 1.372 . S
C424 C429 1.364 . S
C425 H404 0.952 . S
C425 C424 1.372 . S
C425 C426 1.389 . S
C426 H405 0.949 . S
C426 C425 1.389 . S
C426 C427 1.387 . S
C427 C426 1.387 . S
C427 C428 1.372 . S
C428 H406 0.950 . S
C428 C427 1.372 . S
C428 C429 1.379 . S
C429 H407 0.948 . S
C429 C424 1.364 . S
C429 C428 1.379 . S
C430 C399 1.383 . S
C430 C417 1.479 . S
C430 C431 1.398 . S
C431 C396 1.382 . S
C431 H408 0.951 . S
C431 C430 1.398 . S
C432 C433 1.384 . S
C432 H445 0.947 . S
C432 C467 1.382 . S
C433 C432 1.384 . S
C433 C434 1.378 . S
C434 C433 1.378 . S
C434 C435 1.378 . S
C434 H446 0.952 . S
C435 C434 1.378 . S
C435 H447 0.950 . S
C435 C466 1.383 . S
H436 C455 0.947 . S
H437 C456 0.946 . S
H438 C458 0.953 . S
H439 C459 0.945 . S
H440 C461 0.952 . S
H441 C462 0.949 . S
H442 C464 0.950 . S
H443 C465 0.948 . S
H444 C467 0.951 . S
H445 C432 0.947 . S
H446 C434 0.952 . S
H447 C435 0.950 . S
N448 C451 1.382 . S
N448 C453 1.363 . S
N449 C451 1.371 . S
N449 C452 1.372 . S
N450 C452 1.361 . S
N450 C453 1.377 . S
C451 N448 1.382 . S
C451 N449 1.371 . S
C451 C454 1.480 . S
C452 N449 1.372 . S
C452 N450 1.361 . S
C452 C460 1.457 . S
C453 N448 1.363 . S
C453 N450 1.377 . S
C453 C466 1.479 . S
C454 C451 1.480 . S
C454 C455 1.383 . S
C454 C459 1.385 . S
C455 H436 0.947 . S
C455 C454 1.383 . S
C455 C456 1.388 . S
C456 H437 0.946 . S
C456 C455 1.388 . S
C456 C457 1.384 . S
C457 C456 1.384 . S
C457 C458 1.377 . S
C458 H438 0.953 . S
C458 C457 1.377 . S
C458 C459 1.369 . S
C459 H439 0.945 . S
C459 C454 1.385 . S
C459 C458 1.369 . S
C460 C452 1.457 . S
C460 C461 1.372 . S
C460 C465 1.364 . S
C461 H440 0.952 . S
C461 C460 1.372 . S
C461 C462 1.389 . S
C462 H441 0.949 . S
C462 C461 1.389 . S
C462 C463 1.387 . S
C463 C462 1.387 . S
C463 C464 1.372 . S
C464 H442 0.950 . S
C464 C463 1.372 . S
C464 C465 1.379 . S
C465 H443 0.948 . S
C465 C460 1.364 . S
C465 C464 1.379 . S
C466 C435 1.383 . S
C466 C453 1.479 . S
C466 C467 1.398 . S
C467 C432 1.382 . S
C467 H444 0.951 . S
C467 C466 1.398 . S
C468 C469 1.384 . S
C468 H481 0.947 . S
C468 C503 1.382 . S
C469 C468 1.384 . S
C469 C470 1.378 1_554 S
C470 C469 1.378 1_556 S
C470 C471 1.378 . S
C470 H482 0.952 . S
C471 C470 1.378 . S
C471 H483 0.950 . S
C471 C502 1.383 . S
H472 C491 0.947 . S
H473 C492 0.946 . S
H474 C494 0.953 . S
H475 C495 0.945 . S
H476 C497 0.952 . S
H477 C498 0.949 . S
H478 C500 0.950 . S
H479 C501 0.948 . S
H480 C503 0.951 . S
H481 C468 0.947 . S
H482 C470 0.952 . S
H483 C471 0.950 . S
N484 C487 1.382 . S
N484 C489 1.363 . S
N485 C487 1.371 . S
N485 C488 1.372 . S
N486 C488 1.361 . S
N486 C489 1.377 . S
C487 N484 1.382 . S
C487 N485 1.371 . S
C487 C490 1.480 . S
C488 N485 1.372 . S
C488 N486 1.361 . S
C488 C496 1.457 . S
C489 N484 1.363 . S
C489 N486 1.377 . S
C489 C502 1.479 . S
C490 C487 1.480 . S
C490 C491 1.383 . S
C490 C495 1.385 . S
C491 H472 0.947 . S
C491 C490 1.383 . S
C491 C492 1.388 . S
C492 H473 0.946 . S
C492 C491 1.388 . S
C492 C493 1.384 . S
C493 C492 1.384 . S
C493 C494 1.377 . S
C494 H474 0.953 . S
C494 C493 1.377 . S
C494 C495 1.369 . S
C495 H475 0.945 . S
C495 C490 1.385 . S
C495 C494 1.369 . S
C496 C488 1.457 . S
C496 C497 1.372 . S
C496 C501 1.364 . S
C497 H476 0.952 . S
C497 C496 1.372 . S
C497 C498 1.389 . S
C498 H477 0.949 . S
C498 C497 1.389 . S
C498 C499 1.387 . S
C499 C498 1.387 . S
C499 C500 1.372 . S
C500 H478 0.950 . S
C500 C499 1.372 . S
C500 C501 1.379 . S
C501 H479 0.948 . S
C501 C496 1.364 . S
C501 C500 1.379 . S
C502 C471 1.383 . S
C502 C489 1.479 . S
C502 C503 1.398 1_556 S
C503 C468 1.382 . S
C503 H480 0.951 . S
C503 C502 1.398 1_554 S
C504 C505 1.384 . S
C504 H517 0.947 . S
C504 C539 1.382 . S
C505 C504 1.384 . S
C505 C506 1.378 . S
C506 C505 1.378 . S
C506 C507 1.378 . S
C506 H518 0.952 . S
C507 C506 1.378 . S
C507 H519 0.950 . S
C507 C538 1.383 . S
H508 C527 0.947 . S
H509 C528 0.946 . S
H510 C530 0.953 . S
H511 C531 0.945 . S
H512 C533 0.952 . S
H513 C534 0.949 . S
H514 C536 0.950 . S
H515 C537 0.948 . S
H516 C539 0.951 . S
H517 C504 0.947 . S
H518 C506 0.952 . S
H519 C507 0.950 . S
N520 C523 1.382 . S
N520 C525 1.363 . S
N521 C523 1.371 . S
N521 C524 1.372 . S
N522 C524 1.361 . S
N522 C525 1.377 . S
C523 N520 1.382 . S
C523 N521 1.371 . S
C523 C526 1.480 . S
C524 N521 1.372 . S
C524 N522 1.361 . S
C524 C532 1.457 . S
C525 N520 1.363 . S
C525 N522 1.377 . S
C525 C538 1.479 . S
C526 C523 1.480 . S
C526 C527 1.383 . S
C526 C531 1.385 . S
C527 H508 0.947 . S
C527 C526 1.383 . S
C527 C528 1.388 . S
C528 H509 0.946 . S
C528 C527 1.388 . S
C528 C529 1.384 . S
C529 C528 1.384 . S
C529 C530 1.377 . S
C530 H510 0.953 . S
C530 C529 1.377 . S
C530 C531 1.369 . S
C531 H511 0.945 . S
C531 C526 1.385 . S
C531 C530 1.369 . S
C532 C524 1.457 . S
C532 C533 1.372 . S
C532 C537 1.364 . S
C533 H512 0.952 . S
C533 C532 1.372 . S
C533 C534 1.389 . S
C534 H513 0.949 . S
C534 C533 1.389 . S
C534 C535 1.387 . S
C535 C534 1.387 . S
C535 C536 1.372 . S
C536 H514 0.950 . S
C536 C535 1.372 . S
C536 C537 1.379 . S
C537 H515 0.948 . S
C537 C532 1.364 . S
C537 C536 1.379 . S
C538 C507 1.383 . S
C538 C525 1.479 . S
C538 C539 1.398 . S
C539 C504 1.382 . S
C539 H516 0.951 . S
C539 C538 1.398 . S
C540 C541 1.384 . S
C540 H553 0.947 . S
C540 C575 1.382 1_554 S
C541 C540 1.384 . S
C541 C542 1.378 . S
C542 C541 1.378 . S
C542 C543 1.378 . S
C542 H554 0.952 . S
C543 C542 1.378 . S
C543 H555 0.950 . S
C543 C574 1.383 1_554 S
H544 C563 0.947 1_554 S
H545 C564 0.946 1_554 S
H546 C566 0.953 . S
H547 C567 0.945 . S
H548 C569 0.952 . S
H549 C570 0.949 1_565 S
H550 C572 0.950 . S
H551 C573 0.948 . S
H552 C575 0.951 . S
H553 C540 0.947 . S
H554 C542 0.952 . S
H555 C543 0.950 . S
N556 C559 1.382 . S
N556 C561 1.363 . S
N557 C559 1.371 . S
N557 C560 1.372 . S
N558 C560 1.361 . S
N558 C561 1.377 . S
C559 N556 1.382 . S
C559 N557 1.371 . S
C559 C562 1.480 . S
C560 N557 1.372 . S
C560 N558 1.361 . S
C560 C568 1.457 . S
C561 N556 1.363 . S
C561 N558 1.377 . S
C561 C574 1.479 . S
C562 C559 1.480 . S
C562 C563 1.383 . S
C562 C567 1.385 1_545 S
C563 H544 0.947 1_556 S
C563 C562 1.383 . S
C563 C564 1.388 1_545 S
C564 H545 0.946 1_556 S
C564 C563 1.388 1_565 S
C564 C565 1.384 . S
C565 C564 1.384 . S
C565 C566 1.377 . S
C566 H546 0.953 . S
C566 C565 1.377 . S
C566 C567 1.369 . S
C567 H547 0.945 . S
C567 C562 1.385 1_565 S
C567 C566 1.369 . S
C568 C560 1.457 . S
C568 C569 1.372 . S
C568 C573 1.364 . S
C569 H548 0.952 . S
C569 C568 1.372 . S
C569 C570 1.389 . S
C570 H549 0.949 1_545 S
C570 C569 1.389 . S
C570 C571 1.387 . S
C571 C570 1.387 . S
C571 C572 1.372 . S
C572 H550 0.950 . S
C572 C571 1.372 . S
C572 C573 1.379 . S
C573 H551 0.948 . S
C573 C568 1.364 . S
C573 C572 1.379 . S
C574 C543 1.383 1_556 S
C574 C561 1.479 . S
C574 C575 1.398 . S
C575 C540 1.382 1_556 S
C575 H552 0.951 . S
C575 C574 1.398 . S
Mg576 O577 2.035 . S
Mg576 O583 1.986 1_554 S
Mg576 O585 2.114 . S
Mg576 O586 2.251 . S
Mg576 O589 2.010 . S
O577 Mg576 2.035 . S
O577 C580 1.245 1_554 S
O578 Mg579 2.028 . S
O578 C580 1.248 . S
Mg579 O578 2.028 . S
Mg579 O584 2.032 . S
Mg579 O586 2.079 1_556 S
C580 O577 1.245 1_556 S
C580 O578 1.248 . S
C581 O582 1.264 . S
C581 O589 1.249 . S
O582 C581 1.264 . S
O583 Mg576 1.986 1_556 S
O583 C587 1.246 . S
O584 Mg579 2.032 . S
O584 C587 1.259 . S
O585 Mg576 2.114 . S
O585 C588 1.252 . S
O586 Mg576 2.251 . S
O586 Mg579 2.079 1_554 S
O586 C588 1.273 . S
C587 O583 1.246 . S
C587 O584 1.259 . S
C588 O585 1.252 . S
C588 O586 1.273 . S
O589 Mg576 2.010 . S
O589 C581 1.249 . S
Mg590 O591 2.028 . S
Mg590 O597 1.986 . S
Mg590 O599 2.114 . S
Mg590 O600 2.251 . S
Mg590 O603 2.010 . S
O591 Mg590 2.028 . S
O591 C594 1.250 . S
O592 Mg593 2.028 . S
O592 C594 1.248 . S
Mg593 O592 2.028 . S
Mg593 O598 2.032 . S
Mg593 O600 2.079 . S
C594 O591 1.250 . S
C594 O592 1.248 . S
C595 O596 1.264 . S
C595 O603 1.249 . S
O596 C595 1.264 . S
O597 Mg590 1.986 . S
O597 C601 1.246 . S
O598 Mg593 2.032 . S
O598 C601 1.259 . S
O599 Mg590 2.114 . S
O599 C602 1.252 . S
O600 Mg590 2.251 . S
O600 Mg593 2.079 . S
O600 C602 1.273 . S
C601 O597 1.246 . S
C601 O598 1.259 . S
C602 O599 1.252 . S
C602 O600 1.273 . S
O603 Mg590 2.010 . S
O603 C595 1.249 . S
Mg604 O605 2.028 . S
Mg604 O611 1.986 1_554 S
Mg604 O613 2.114 . S
Mg604 O614 2.251 . S
Mg604 O617 2.010 . S
O605 Mg604 2.028 . S
O605 C608 1.252 . S
O606 Mg607 2.028 . S
O606 C608 1.247 1_556 S
Mg607 O606 2.028 . S
Mg607 O612 2.032 . S
Mg607 O614 2.079 1_556 S
C608 O605 1.252 . S
C608 O606 1.247 1_554 S
C609 O610 1.264 . S
C609 O617 1.249 . S
O610 C609 1.264 . S
O611 Mg604 1.986 1_556 S
O611 C615 1.246 . S
O612 Mg607 2.032 . S
O612 C615 1.259 . S
O613 Mg604 2.114 . S
O613 C616 1.252 . S
O614 Mg604 2.251 . S
O614 Mg607 2.079 1_554 S
O614 C616 1.273 . S
C615 O611 1.246 . S
C615 O612 1.259 . S
C616 O613 1.252 . S
C616 O614 1.273 . S
O617 Mg604 2.010 . S
O617 C609 1.249 . S
Mg618 O619 2.028 . S
Mg618 O625 1.986 . S
Mg618 O627 2.114 . S
Mg618 O628 2.251 . S
Mg618 O631 2.010 . S
O619 Mg618 2.028 . S
O619 C622 1.250 1_545 S
O620 Mg621 2.028 . S
O620 C622 1.248 . S
Mg621 O620 2.028 . S
Mg621 O626 2.032 . S
Mg621 O628 2.079 1_565 S
C622 O619 1.250 1_565 S
C622 O620 1.248 . S
C623 O624 1.264 . S
C623 O631 1.249 . S
O624 C623 1.264 . S
O625 Mg618 1.986 . S
O625 C629 1.246 . S
O626 Mg621 2.032 . S
O626 C629 1.259 1_565 S
O627 Mg618 2.114 . S
O627 C630 1.252 . S
O628 Mg618 2.251 . S
O628 Mg621 2.079 1_545 S
O628 C630 1.273 . S
C629 O625 1.246 . S
C629 O626 1.259 1_545 S
C630 O627 1.252 . S
C630 O628 1.273 . S
O631 Mg618 2.010 . S
O631 C623 1.249 . S
Mg632 O633 2.028 . S
Mg632 O639 1.986 . S
Mg632 O641 2.114 . S
Mg632 O642 2.251 . S
Mg632 O645 2.010 . S
O633 Mg632 2.028 . S
O633 C636 1.250 . S
O634 Mg635 2.028 . S
O634 C636 1.248 . S
Mg635 O634 2.028 . S
Mg635 O640 2.032 . S
Mg635 O642 2.079 . S
C636 O633 1.250 . S
C636 O634 1.248 . S
C637 O638 1.264 . S
C637 O645 1.249 . S
O638 C637 1.264 . S
O639 Mg632 1.986 . S
O639 C643 1.246 . S
O640 Mg635 2.032 . S
O640 C643 1.259 . S
O641 Mg632 2.114 . S
O641 C644 1.252 . S
O642 Mg632 2.251 . S
O642 Mg635 2.079 . S
O642 C644 1.273 . S
C643 O639 1.246 . S
C643 O640 1.259 . S
C644 O641 1.252 . S
C644 O642 1.273 . S
O645 Mg632 2.010 . S
O645 C637 1.249 . S
Mg646 O647 2.028 . S
Mg646 O653 1.986 . S
Mg646 O655 2.114 . S
Mg646 O656 2.251 . S
Mg646 O659 2.010 . S
O647 Mg646 2.028 . S
O647 C650 1.250 . S
O648 Mg649 2.028 . S
O648 C650 1.248 . S
Mg649 O648 2.028 . S
Mg649 O654 2.032 . S
Mg649 O656 2.079 . S
C650 O647 1.250 . S
C650 O648 1.248 . S
C651 O652 1.264 . S
C651 O659 1.249 . S
O652 C651 1.264 . S
O653 Mg646 1.986 . S
O653 C657 1.246 . S
O654 Mg649 2.032 . S
O654 C657 1.259 . S
O655 Mg646 2.114 . S
O655 C658 1.252 . S
O656 Mg646 2.251 . S
O656 Mg649 2.079 . S
O656 C658 1.273 . S
C657 O653 1.246 . S
C657 O654 1.259 . S
C658 O655 1.252 . S
C658 O656 1.273 . S
O659 Mg646 2.010 . S
O659 C651 1.249 . S
Mg660 O661 2.028 . S
Mg660 O667 1.986 . S
Mg660 O669 2.114 . S
Mg660 O670 2.251 . S
Mg660 O673 2.010 . S
O661 Mg660 2.028 . S
O661 C664 1.250 . S
O662 Mg663 2.028 . S
O662 C664 1.248 . S
Mg663 O662 2.028 . S
Mg663 O668 2.032 . S
Mg663 O670 2.079 . S
C664 O661 1.250 . S
C664 O662 1.248 . S
C665 O666 1.264 . S
C665 O673 1.249 . S
O666 C665 1.264 . S
O667 Mg660 1.986 . S
O667 C671 1.246 . S
O668 Mg663 2.032 . S
O668 C671 1.259 . S
O669 Mg660 2.114 . S
O669 C672 1.252 . S
O670 Mg660 2.251 . S
O670 Mg663 2.079 . S
O670 C672 1.273 . S
C671 O667 1.246 . S
C671 O668 1.259 . S
C672 O669 1.252 . S
C672 O670 1.273 . S
O673 Mg660 2.010 . S
O673 C665 1.249 . S
Mg674 O675 2.028 1_545 S
Mg674 O681 1.986 1_545 S
Mg674 O683 2.114 . S
Mg674 O684 2.251 . S
Mg674 O687 2.010 . S
O675 Mg674 2.028 1_565 S
O675 C678 1.250 . S
O676 Mg677 2.028 . S
O676 C678 1.248 . S
Mg677 O676 2.028 . S
Mg677 O682 2.032 . S
Mg677 O684 2.079 1_565 S
C678 O675 1.250 . S
C678 O676 1.248 . S
C679 O680 1.264 . S
C679 O687 1.249 . S
O680 C679 1.264 . S
O681 Mg674 1.986 1_565 S
O681 C685 1.246 . S
O682 Mg677 2.032 . S
O682 C685 1.259 . S
O683 Mg674 2.114 . S
O683 C686 1.252 . S
O684 Mg674 2.251 . S
O684 Mg677 2.079 1_545 S
O684 C686 1.273 . S
C685 O681 1.246 . S
C685 O682 1.259 . S
C686 O683 1.252 . S
C686 O684 1.273 . S
O687 Mg674 2.010 . S
O687 C679 1.249 . S
Mg688 O689 2.028 . S
Mg688 O695 1.986 . S
Mg688 O697 2.114 . S
Mg688 O698 2.251 . S
Mg688 O701 2.010 . S
O689 Mg688 2.028 . S
O689 C692 1.250 1_455 S
O690 Mg691 2.028 . S
O690 C692 1.248 . S
Mg691 O690 2.028 . S
Mg691 O696 2.032 . S
Mg691 O698 2.079 1_655 S
C692 O689 1.250 1_655 S
C692 O690 1.248 . S
C693 O694 1.264 . S
C693 O701 1.249 . S
O694 C693 1.264 . S
O695 Mg688 1.986 . S
O695 C699 1.246 . S
O696 Mg691 2.032 . S
O696 C699 1.259 1_655 S
O697 Mg688 2.114 . S
O697 C700 1.252 . S
O698 Mg688 2.251 . S
O698 Mg691 2.079 1_455 S
O698 C700 1.273 . S
C699 O695 1.246 . S
C699 O696 1.259 1_455 S
C700 O697 1.252 . S
C700 O698 1.273 . S
O701 Mg688 2.010 . S
O701 C693 1.249 . S
Mg702 O703 2.028 . S
Mg702 O709 1.986 . S
Mg702 O711 2.114 . S
Mg702 O712 2.251 . S
Mg702 O715 2.010 . S
O703 Mg702 2.028 . S
O703 C706 1.250 . S
O704 Mg705 2.028 . S
O704 C706 1.248 . S
Mg705 O704 2.028 . S
Mg705 O710 2.032 . S
Mg705 O712 2.079 . S
C706 O703 1.250 . S
C706 O704 1.248 . S
C707 O708 1.264 . S
C707 O715 1.249 . S
O708 C707 1.264 . S
O709 Mg702 1.986 . S
O709 C713 1.246 . S
O710 Mg705 2.032 . S
O710 C713 1.259 . S
O711 Mg702 2.114 . S
O711 C714 1.252 . S
O712 Mg702 2.251 . S
O712 Mg705 2.079 . S
O712 C714 1.273 . S
C713 O709 1.246 . S
C713 O710 1.259 . S
C714 O711 1.252 . S
C714 O712 1.273 . S
O715 Mg702 2.010 . S
O715 C707 1.249 . S
Mg716 O717 2.028 1_655 S
Mg716 O723 2.000 . S
Mg716 O725 2.114 . S
Mg716 O726 2.251 1_655 S
Mg716 O729 2.010 . S
O717 Mg716 2.028 1_455 S
O717 C720 1.250 . S
O718 Mg719 2.028 . S
O718 C720 1.248 . S
Mg719 O718 2.028 . S
Mg719 O724 2.032 . S
Mg719 O726 2.079 . S
C720 O717 1.250 . S
C720 O718 1.248 . S
C721 O722 1.264 . S
C721 O729 1.249 . S
O722 C721 1.264 . S
O723 Mg716 2.000 . S
O723 C727 1.207 1_655 S
O724 Mg719 2.032 . S
O724 C727 1.259 . S
O725 Mg716 2.114 . S
O725 C728 1.252 . S
O726 Mg716 2.251 1_455 S
O726 Mg719 2.079 . S
O726 C728 1.273 1_455 S
C727 O723 1.207 1_455 S
C727 O724 1.259 . S
C728 O725 1.252 . S
C728 O726 1.273 1_655 S
O729 Mg716 2.010 . S
O729 C721 1.249 . S
Mg730 O731 2.028 . S
Mg730 O737 1.986 . S
Mg730 O739 2.114 . S
Mg730 O740 2.251 . S
Mg730 O743 2.010 . S
O731 Mg730 2.028 . S
O731 C734 1.250 . S
O732 Mg733 2.028 . S
O732 C734 1.248 . S
Mg733 O732 2.028 . S
Mg733 O738 2.032 . S
Mg733 O740 2.079 . S
C734 O731 1.250 . S
C734 O732 1.248 . S
C735 O736 1.264 . S
C735 O743 1.249 . S
O736 C735 1.264 . S
O737 Mg730 1.986 . S
O737 C741 1.246 . S
O738 Mg733 2.032 . S
O738 C741 1.259 . S
O739 Mg730 2.114 . S
O739 C742 1.252 . S
O740 Mg730 2.251 . S
O740 Mg733 2.079 . S
O740 C742 1.273 . S
C741 O737 1.246 . S
C741 O738 1.259 . S
C742 O739 1.252 . S
C742 O740 1.273 . S
O743 Mg730 2.010 . S
O743 C735 1.249 . S
H744 C750 0.930 . S
H745 C754 0.930 . S
H746 C759 0.929 . S
H747 C757 0.929 . S
H748 C752 0.929 . S
H749 C758 0.929 . S
C750 H744 0.930 . S
C750 C751 1.367 . S
C750 C758 1.378 . S
C751 C750 1.367 . S
C751 C759 1.433 . S
C752 H748 0.929 . S
C752 C754 1.378 . S
C752 C756 1.350 . S
C753 C756 1.463 . S
C753 C758 1.350 . S
C753 N761 1.427 . S
C754 H745 0.930 . S
C754 C752 1.378 . S
C754 C755 1.367 . S
C755 C754 1.367 . S
C755 C757 1.433 . S
C756 C752 1.350 . S
C756 C753 1.463 . S
C756 N760 1.427 . S
C757 H747 0.929 . S
C757 C755 1.433 . S
C757 N760 1.384 . S
C758 H749 0.929 . S
C758 C750 1.378 . S
C758 C753 1.350 . S
C759 H746 0.929 . S
C759 C751 1.433 . S
C759 N761 1.384 . S
N760 C756 1.427 . S
N760 C757 1.384 . S
N761 C753 1.427 . S
N761 C759 1.384 . S
H762 C768 0.930 . S
H763 C772 0.930 . S
H764 C777 0.929 . S
H765 C775 0.929 . S
H766 C770 0.929 . S
H767 C776 0.929 . S
C768 H762 0.930 . S
C768 C769 1.367 . S
C768 C776 1.378 . S
C769 C768 1.367 . S
C769 C777 1.433 . S
C770 H766 0.929 . S
C770 C772 1.378 . S
C770 C774 1.350 . S
C771 C774 1.463 . S
C771 C776 1.350 . S
C771 N779 1.427 . S
C772 H763 0.930 . S
C772 C770 1.378 . S
C772 C773 1.367 . S
C773 C772 1.367 . S
C773 C775 1.433 . S
C774 C770 1.350 . S
C774 C771 1.463 . S
C774 N778 1.427 . S
C775 H765 0.929 . S
C775 C773 1.433 . S
C775 N778 1.384 . S
C776 H767 0.929 . S
C776 C768 1.378 . S
C776 C771 1.350 . S
C777 H764 0.929 . S
C777 C769 1.433 . S
C777 N779 1.384 . S
N778 C774 1.427 . S
N778 C775 1.384 . S
N779 C771 1.427 . S
N779 C777 1.384 . S
H780 C786 0.930 . S
H781 C790 0.930 . S
H782 C795 0.929 . S
H783 C793 0.929 . S
H784 C788 0.929 . S
H785 C794 0.929 . S
C786 H780 0.930 . S
C786 C787 1.367 . S
C786 C794 1.378 . S
C787 C786 1.367 . S
C787 C795 1.433 . S
C788 H784 0.929 . S
C788 C790 1.378 . S
C788 C792 1.350 . S
C789 C792 1.463 . S
C789 C794 1.350 . S
C789 N797 1.427 . S
C790 H781 0.930 . S
C790 C788 1.378 . S
C790 C791 1.367 . S
C791 C790 1.367 . S
C791 C793 1.433 . S
C792 C788 1.350 . S
C792 C789 1.463 . S
C792 N796 1.427 . S
C793 H783 0.929 . S
C793 C791 1.433 . S
C793 N796 1.384 . S
C794 H785 0.929 . S
C794 C786 1.378 . S
C794 C789 1.350 . S
C795 H782 0.929 . S
C795 C787 1.433 . S
C795 N797 1.384 . S
N796 C792 1.427 . S
N796 C793 1.384 . S
N797 C789 1.427 . S
N797 C795 1.384 . S
H798 C804 0.930 1_455 S
H799 C808 0.930 . S
H800 C813 0.929 . S
H801 C811 0.929 . S
H802 C806 0.929 . S
H803 C812 0.929 . S
C804 H798 0.930 1_655 S
C804 C805 1.367 1_545 S
C804 C812 1.378 . S
C805 C804 1.367 1_565 S
C805 C813 1.433 . S
C806 H802 0.929 . S
C806 C808 1.378 . S
C806 C810 1.368 . S
C807 C810 1.467 . S
C807 C812 1.350 1_565 S
C807 N815 1.427 . S
C808 H799 0.930 . S
C808 C806 1.378 . S
C808 C809 1.367 1_565 S
C809 C808 1.367 1_545 S
C809 C811 1.433 . S
C810 C806 1.368 . S
C810 C807 1.467 . S
C810 N814 1.404 1_565 S
C811 H801 0.929 . S
C811 C809 1.433 . S
C811 N814 1.384 . S
C812 H803 0.929 . S
C812 C804 1.378 . S
C812 C807 1.350 1_545 S
C813 H800 0.929 . S
C813 C805 1.433 . S
C813 N815 1.384 . S
N814 C810 1.404 1_545 S
N814 C811 1.384 . S
N815 C807 1.427 . S
N815 C813 1.384 . S
H816 C822 0.930 . S
H817 C826 0.930 . S
H818 C831 0.929 . S
H819 C829 0.929 . S
H820 C824 0.929 . S
H821 C830 0.929 . S
C822 H816 0.930 . S
C822 C823 1.367 . S
C822 C830 1.378 . S
C823 C822 1.367 . S
C823 C831 1.433 . S
C824 H820 0.929 . S
C824 C826 1.378 . S
C824 C828 1.350 . S
C825 C828 1.463 . S
C825 C830 1.350 . S
C825 N833 1.427 . S
C826 H817 0.930 . S
C826 C824 1.378 . S
C826 C827 1.367 . S
C827 C826 1.367 . S
C827 C829 1.433 . S
C828 C824 1.350 . S
C828 C825 1.463 . S
C828 N832 1.427 . S
C829 H819 0.929 . S
C829 C827 1.433 . S
C829 N832 1.384 . S
C830 H821 0.929 . S
C830 C822 1.378 . S
C830 C825 1.350 . S
C831 H818 0.929 . S
C831 C823 1.433 . S
C831 N833 1.384 . S
N832 C828 1.427 . S
N832 C829 1.384 . S
N833 C825 1.427 . S
N833 C831 1.384 . S
H834 C840 0.930 . S
H835 C844 0.930 . S
H836 C849 0.929 . S
H837 C847 0.929 . S
H838 C842 0.929 . S
H839 C848 0.929 . S
C840 H834 0.930 . S
C840 C841 1.367 . S
C840 C848 1.378 . S
C841 C840 1.367 . S
C841 C849 1.433 . S
C842 H838 0.929 . S
C842 C844 1.378 . S
C842 C846 1.350 . S
C843 C846 1.463 . S
C843 C848 1.350 . S
C843 N851 1.427 . S
C844 H835 0.930 . S
C844 C842 1.378 . S
C844 C845 1.367 . S
C845 C844 1.367 . S
C845 C847 1.433 . S
C846 C842 1.350 . S
C846 C843 1.463 . S
C846 N850 1.427 . S
C847 H837 0.929 . S
C847 C845 1.433 . S
C847 N850 1.384 . S
C848 H839 0.929 . S
C848 C840 1.378 . S
C848 C843 1.350 . S
C849 H836 0.929 . S
C849 C841 1.433 . S
C849 N851 1.384 . S
N850 C846 1.427 . S
N850 C847 1.384 . S
N851 C843 1.427 . S
N851 C849 1.384 . S
H852 C858 0.930 . S
H853 C862 0.930 . S
H854 C867 0.929 . S
H855 C865 0.929 . S
H856 C860 0.929 . S
H857 C866 0.929 . S
C858 H852 0.930 . S
C858 C859 1.367 . S
C858 C866 1.378 . S
C859 C858 1.367 . S
C859 C867 1.433 . S
C860 H856 0.929 . S
C860 C862 1.378 . S
C860 C864 1.350 . S
C861 C864 1.463 . S
C861 C866 1.350 . S
C861 N869 1.427 . S
C862 H853 0.930 . S
C862 C860 1.378 . S
C862 C863 1.367 . S
C863 C862 1.367 . S
C863 C865 1.433 . S
C864 C860 1.350 . S
C864 C861 1.463 . S
C864 N868 1.427 . S
C865 H855 0.929 . S
C865 C863 1.433 . S
C865 N868 1.384 . S
C866 H857 0.929 . S
C866 C858 1.378 . S
C866 C861 1.350 . S
C867 H854 0.929 . S
C867 C859 1.433 . S
C867 N869 1.384 . S
N868 C864 1.427 . S
N868 C865 1.384 . S
N869 C861 1.427 . S
N869 C867 1.384 . S
H870 C876 0.901 1_545 S
H871 C880 0.930 . S
H872 C885 0.929 . S
H873 C883 0.929 . S
H874 C878 0.929 . S
H875 C884 0.929 1_545 S
C876 H870 0.901 1_565 S
C876 C877 1.367 . S
C876 C884 1.378 . S
C877 C876 1.367 . S
C877 C885 1.433 . S
C878 H874 0.929 . S
C878 C880 1.378 . S
C878 C882 1.350 . S
C879 C882 1.463 . S
C879 C884 1.350 . S
C879 N887 1.427 . S
C880 H871 0.930 . S
C880 C878 1.378 . S
C880 C881 1.367 . S
C881 C880 1.367 . S
C881 C883 1.433 1_565 S
C882 C878 1.350 . S
C882 C879 1.463 . S
C882 N886 1.427 1_565 S
C883 H873 0.929 . S
C883 C881 1.433 1_545 S
C883 N886 1.384 . S
C884 H875 0.929 1_565 S
C884 C876 1.378 . S
C884 C879 1.350 . S
C885 H872 0.929 . S
C885 C877 1.433 . S
C885 N887 1.384 . S
N886 C882 1.427 1_545 S
N886 C883 1.384 . S
N887 C879 1.427 . S
N887 C885 1.384 . S
H888 C894 0.930 . S
H889 C898 0.930 . S
H890 C903 0.929 . S
H891 C901 0.929 . S
H892 C896 0.929 . S
H893 C902 0.929 . S
C894 H888 0.930 . S
C894 C895 1.367 . S
C894 C902 1.378 . S
C895 C894 1.367 . S
C895 C903 1.433 . S
C896 H892 0.929 . S
C896 C898 1.378 . S
C896 C900 1.350 . S
C897 C900 1.463 . S
C897 C902 1.350 . S
C897 N905 1.427 . S
C898 H889 0.930 . S
C898 C896 1.378 . S
C898 C899 1.367 . S
C899 C898 1.367 . S
C899 C901 1.433 . S
C900 C896 1.350 . S
C900 C897 1.463 . S
C900 N904 1.427 . S
C901 H891 0.929 . S
C901 C899 1.433 . S
C901 N904 1.384 . S
C902 H893 0.929 . S
C902 C894 1.378 . S
C902 C897 1.350 . S
C903 H890 0.929 . S
C903 C895 1.433 . S
C903 N905 1.384 . S
N904 C900 1.427 . S
N904 C901 1.384 . S
N905 C897 1.427 . S
N905 C903 1.384 . S
H906 C912 0.930 . S
H907 C916 0.930 . S
H908 C921 0.929 . S
H909 C919 0.929 . S
H910 C914 0.929 . S
H911 C920 0.929 . S
C912 H906 0.930 . S
C912 C913 1.367 . S
C912 C920 1.378 . S
C913 C912 1.367 . S
C913 C921 1.433 . S
C914 H910 0.929 . S
C914 C916 1.378 . S
C914 C918 1.350 . S
C915 C918 1.463 . S
C915 C920 1.350 . S
C915 N923 1.427 . S
C916 H907 0.930 . S
C916 C914 1.378 . S
C916 C917 1.367 . S
C917 C916 1.367 . S
C917 C919 1.433 . S
C918 C914 1.350 . S
C918 C915 1.463 . S
C918 N922 1.427 . S
C919 H909 0.929 . S
C919 C917 1.433 . S
C919 N922 1.384 . S
C920 H911 0.929 . S
C920 C912 1.378 . S
C920 C915 1.350 . S
C921 H908 0.929 . S
C921 C913 1.433 . S
C921 N923 1.384 . S
N922 C918 1.427 . S
N922 C919 1.384 . S
N923 C915 1.427 . S
N923 C921 1.384 . S
H924 C930 0.930 . S
H925 C934 0.930 . S
H926 C939 0.929 . S
H927 C937 0.929 . S
H928 C932 0.929 . S
H929 C938 0.929 . S
C930 H924 0.930 . S
C930 C931 1.367 . S
C930 C938 1.378 . S
C931 C930 1.367 . S
C931 C939 1.433 . S
C932 H928 0.929 . S
C932 C934 1.378 . S
C932 C936 1.350 . S
C933 C936 1.463 . S
C933 C938 1.350 . S
C933 N941 1.427 . S
C934 H925 0.930 . S
C934 C932 1.378 . S
C934 C935 1.367 . S
C935 C934 1.367 . S
C935 C937 1.433 . S
C936 C932 1.350 . S
C936 C933 1.463 . S
C936 N940 1.427 . S
C937 H927 0.929 . S
C937 C935 1.433 . S
C937 N940 1.384 . S
C938 H929 0.929 . S
C938 C930 1.378 . S
C938 C933 1.350 . S
C939 H926 0.929 . S
C939 C931 1.433 . S
C939 N941 1.384 . S
N940 C936 1.427 . S
N940 C937 1.384 . S
N941 C933 1.427 . S
N941 C939 1.384 . S
H942 C948 0.930 . S
H943 C952 0.930 . S
H944 C957 0.929 . S
H945 C955 0.929 . S
H946 C950 0.929 . S
H947 C956 0.929 . S
C948 H942 0.930 . S
C948 C949 1.367 . S
C948 C956 1.378 . S
C949 C948 1.367 . S
C949 C957 1.433 . S
C950 H946 0.929 . S
C950 C952 1.378 . S
C950 C954 1.350 . S
C951 C954 1.463 . S
C951 C956 1.350 . S
C951 N959 1.427 . S
C952 H943 0.930 . S
C952 C950 1.378 . S
C952 C953 1.367 . S
C953 C952 1.367 . S
C953 C955 1.433 . S
C954 C950 1.350 . S
C954 C951 1.463 . S
C954 N958 1.427 . S
C955 H945 0.929 . S
C955 C953 1.433 . S
C955 N958 1.384 . S
C956 H947 0.929 . S
C956 C948 1.378 . S
C956 C951 1.350 . S
C957 H944 0.929 . S
C957 C949 1.433 . S
C957 N959 1.384 . S
N958 C954 1.427 . S
N958 C955 1.384 . S
N959 C951 1.427 . S
N959 C957 1.384 . S
H960 C966 0.930 . S
H961 C970 0.930 . S
H962 C975 0.929 . S
H963 C973 0.929 . S
H964 C968 0.929 . S
H965 C974 0.929 . S
C966 H960 0.930 . S
C966 C967 1.367 . S
C966 C974 1.378 . S
C967 C966 1.367 . S
C967 C975 1.433 . S
C968 H964 0.929 . S
C968 C970 1.378 . S
C968 C972 1.350 . S
C969 C972 1.463 . S
C969 C974 1.350 . S
C969 N977 1.427 . S
C970 H961 0.930 . S
C970 C968 1.378 . S
C970 C971 1.367 . S
C971 C970 1.367 . S
C971 C973 1.433 . S
C972 C968 1.350 . S
C972 C969 1.463 . S
C972 N976 1.427 . S
C973 H963 0.929 . S
C973 C971 1.433 . S
C973 N976 1.384 . S
C974 H965 0.929 . S
C974 C966 1.378 . S
C974 C969 1.350 . S
C975 H962 0.929 . S
C975 C967 1.433 . S
C975 N977 1.384 . S
N976 C972 1.427 . S
N976 C973 1.384 . S
N977 C969 1.427 . S
N977 C975 1.384 . S
H978 C984 0.930 . S
H979 C988 0.956 . S
H980 C993 0.929 . S
H981 C991 0.929 . S
H982 C986 0.929 1_655 S
H983 C992 0.929 . S
C984 H978 0.930 . S
C984 C985 1.367 . S
C984 C992 1.378 . S
C985 C984 1.367 . S
C985 C993 1.433 . S
C986 H982 0.929 1_455 S
C986 C988 1.373 1_455 S
C986 C990 1.350 . S
C987 C990 1.463 . S
C987 C992 1.350 . S
C987 N995 1.427 . S
C988 H979 0.956 . S
C988 C986 1.373 1_655 S
C988 C989 1.346 1_655 S
C989 C988 1.346 1_455 S
C989 C991 1.433 . S
C990 C986 1.350 . S
C990 C987 1.463 . S
C990 N994 1.427 . S
C991 H981 0.929 . S
C991 C989 1.433 . S
C991 N994 1.384 . S
C992 H983 0.929 . S
C992 C984 1.378 . S
C992 C987 1.350 . S
C993 H980 0.929 . S
C993 C985 1.433 . S
C993 N995 1.384 . S
N994 C990 1.427 . S
N994 C991 1.384 . S
N995 C987 1.427 . S
N995 C993 1.384 . S
H996 C1002 0.930 . S
H997 C1006 0.930 . S
H998 C1011 0.929 . S
H999 C1009 0.929 . S
H1000 C1004 0.929 . S
H1001 C1010 0.929 . S
C1002 H996 0.930 . S
C1002 C1003 1.367 . S
C1002 C1010 1.378 . S
C1003 C1002 1.367 . S
C1003 C1011 1.433 . S
C1004 H1000 0.929 . S
C1004 C1006 1.378 . S
C1004 C1008 1.350 . S
C1005 C1008 1.463 . S
C1005 C1010 1.350 . S
C1005 N1013 1.427 . S
C1006 H997 0.930 . S
C1006 C1004 1.378 . S
C1006 C1007 1.367 . S
C1007 C1006 1.367 . S
C1007 C1009 1.433 . S
C1008 C1004 1.350 . S
C1008 C1005 1.463 . S
C1008 N1012 1.427 . S
C1009 H999 0.929 . S
C1009 C1007 1.433 . S
C1009 N1012 1.384 . S
C1010 H1001 0.929 . S
C1010 C1002 1.378 . S
C1010 C1005 1.350 . S
C1011 H998 0.929 . S
C1011 C1003 1.433 . S
C1011 N1013 1.384 . S
N1012 C1008 1.427 . S
N1012 C1009 1.384 . S
N1013 C1005 1.427 . S
N1013 C1011 1.384 . S
H1014 C1020 0.920 1_455 S
H1015 C1024 0.930 . S
H1016 C1029 0.929 . S
H1017 C1027 0.929 . S
H1018 C1022 0.929 . S
H1019 C1028 0.929 . S
C1020 H1014 0.920 1_655 S
C1020 C1021 1.378 . S
C1020 C1028 1.377 1_655 S
C1021 C1020 1.378 . S
C1021 C1029 1.433 . S
C1022 H1018 0.929 . S
C1022 C1024 1.378 . S
C1022 C1026 1.350 . S
C1023 C1026 1.463 . S
C1023 C1028 1.350 1_655 S
C1023 N1031 1.427 . S
C1024 H1015 0.930 . S
C1024 C1022 1.378 . S
C1024 C1025 1.367 . S
C1025 C1024 1.367 . S
C1025 C1027 1.433 1_655 S
C1026 C1022 1.350 . S
C1026 C1023 1.463 . S
C1026 N1030 1.427 1_655 S
C1027 H1017 0.929 . S
C1027 C1025 1.433 1_455 S
C1027 N1030 1.384 . S
C1028 H1019 0.929 . S
C1028 C1020 1.377 1_455 S
C1028 C1023 1.350 1_455 S
C1029 H1016 0.929 . S
C1029 C1021 1.433 . S
C1029 N1031 1.384 . S
N1030 C1026 1.427 1_455 S
N1030 C1027 1.384 . S
N1031 C1023 1.427 . S
N1031 C1029 1.384 . S
H1032 C1038 0.930 . S
H1033 C1042 0.930 . S
H1034 C1047 0.929 . S
H1035 C1045 0.929 . S
H1036 C1040 0.929 . S
H1037 C1046 0.929 . S
C1038 H1032 0.930 . S
C1038 C1039 1.367 . S
C1038 C1046 1.378 . S
C1039 C1038 1.367 . S
C1039 C1047 1.433 . S
C1040 H1036 0.929 . S
C1040 C1042 1.378 . S
C1040 C1044 1.350 . S
C1041 C1044 1.463 . S
C1041 C1046 1.350 . S
C1041 N1049 1.427 . S
C1042 H1033 0.930 . S
C1042 C1040 1.378 . S
C1042 C1043 1.367 . S
C1043 C1042 1.367 . S
C1043 C1045 1.433 . S
C1044 C1040 1.350 . S
C1044 C1041 1.463 . S
C1044 N1048 1.427 . S
C1045 H1035 0.929 . S
C1045 C1043 1.433 . S
C1045 N1048 1.384 . S
C1046 H1037 0.929 . S
C1046 C1038 1.378 . S
C1046 C1041 1.350 . S
C1047 H1034 0.929 . S
C1047 C1039 1.433 . S
C1047 N1049 1.384 . S
N1048 C1044 1.427 . S
N1048 C1045 1.384 . S
N1049 C1041 1.427 . S
N1049 C1047 1.384 . S
H1050 C1056 0.930 . S
H1051 C1060 0.930 . S
H1052 C1065 0.929 . S
H1053 C1063 0.929 . S
H1054 C1058 0.929 . S
H1055 C1064 0.929 . S
C1056 H1050 0.930 . S
C1056 C1057 1.367 . S
C1056 C1064 1.378 . S
C1057 C1056 1.367 . S
C1057 C1065 1.433 . S
C1058 H1054 0.929 . S
C1058 C1060 1.378 . S
C1058 C1062 1.350 . S
C1059 C1062 1.463 . S
C1059 C1064 1.350 . S
C1059 N1067 1.427 . S
C1060 H1051 0.930 . S
C1060 C1058 1.378 . S
C1060 C1061 1.367 . S
C1061 C1060 1.367 . S
C1061 C1063 1.433 . S
C1062 C1058 1.350 . S
C1062 C1059 1.463 . S
C1062 N1066 1.427 . S
C1063 H1053 0.929 . S
C1063 C1061 1.433 . S
C1063 N1066 1.384 . S
C1064 H1055 0.929 . S
C1064 C1056 1.378 . S
C1064 C1059 1.350 . S
C1065 H1052 0.929 . S
C1065 C1057 1.433 . S
C1065 N1067 1.384 . S
N1066 C1062 1.427 . S
N1066 C1063 1.384 . S
N1067 C1059 1.427 . S
N1067 C1065 1.384 . S
H1068 C1074 0.930 . S
H1069 C1078 0.930 . S
H1070 C1083 0.925 1_554 S
H1071 C1081 0.929 . S
H1072 C1076 0.929 . S
H1073 C1082 0.929 . S
C1074 H1068 0.930 . S
C1074 C1075 1.367 . S
C1074 C1082 1.378 . S
C1075 C1074 1.367 . S
C1075 C1083 1.439 . S
C1076 H1072 0.929 . S
C1076 C1078 1.378 . S
C1076 C1080 1.350 1_554 S
C1077 C1080 1.463 . S
C1077 C1082 1.350 . S
C1077 N1085 1.427 1_556 S
C1078 H1069 0.930 . S
C1078 C1076 1.378 . S
C1078 C1079 1.367 1_554 S
C1079 C1078 1.367 1_556 S
C1079 C1081 1.433 . S
C1080 C1076 1.350 1_556 S
C1080 C1077 1.463 . S
C1080 N1084 1.427 . S
C1081 H1071 0.929 . S
C1081 C1079 1.433 . S
C1081 N1084 1.384 . S
C1082 H1073 0.929 . S
C1082 C1074 1.378 . S
C1082 C1077 1.350 . S
C1083 H1070 0.925 1_556 S
C1083 C1075 1.439 . S
C1083 N1085 1.383 1_556 S
N1084 C1080 1.427 . S
N1084 C1081 1.384 . S
N1085 C1077 1.427 1_554 S
N1085 C1083 1.383 1_554 S
H1086 C1092 0.930 . S
H1087 C1096 0.930 . S
H1088 C1101 0.929 . S
H1089 C1099 0.929 . S
H1090 C1094 0.929 . S
H1091 C1100 0.929 . S
C1092 H1086 0.930 . S
C1092 C1093 1.367 . S
C1092 C1100 1.378 . S
C1093 C1092 1.367 . S
C1093 C1101 1.433 . S
C1094 H1090 0.929 . S
C1094 C1096 1.378 . S
C1094 C1098 1.350 . S
C1095 C1098 1.463 . S
C1095 C1100 1.350 . S
C1095 N1103 1.427 . S
C1096 H1087 0.930 . S
C1096 C1094 1.378 . S
C1096 C1097 1.367 . S
C1097 C1096 1.367 . S
C1097 C1099 1.433 . S
C1098 C1094 1.350 . S
C1098 C1095 1.463 . S
C1098 N1102 1.427 . S
C1099 H1089 0.929 . S
C1099 C1097 1.433 . S
C1099 N1102 1.384 . S
C1100 H1091 0.929 . S
C1100 C1092 1.378 . S
C1100 C1095 1.350 . S
C1101 H1088 0.929 . S
C1101 C1093 1.433 . S
C1101 N1103 1.384 . S
N1102 C1098 1.427 . S
N1102 C1099 1.384 . S
N1103 C1095 1.427 . S
N1103 C1101 1.384 . S
H1104 C1110 0.930 . S
H1105 C1114 0.930 . S
H1106 C1119 0.929 . S
H1107 C1117 0.929 . S
H1108 C1112 0.929 . S
H1109 C1118 0.929 . S
C1110 H1104 0.930 . S
C1110 C1111 1.367 . S
C1110 C1118 1.378 . S
C1111 C1110 1.367 . S
C1111 C1119 1.433 . S
C1112 H1108 0.929 . S
C1112 C1114 1.378 . S
C1112 C1116 1.350 . S
C1113 C1116 1.463 . S
C1113 C1118 1.350 . S
C1113 N1121 1.427 . S
C1114 H1105 0.930 . S
C1114 C1112 1.378 . S
C1114 C1115 1.367 . S
C1115 C1114 1.367 . S
C1115 C1117 1.433 . S
C1116 C1112 1.350 . S
C1116 C1113 1.463 . S
C1116 N1120 1.427 . S
C1117 H1107 0.929 . S
C1117 C1115 1.433 . S
C1117 N1120 1.384 . S
C1118 H1109 0.929 . S
C1118 C1110 1.378 . S
C1118 C1113 1.350 . S
C1119 H1106 0.929 . S
C1119 C1111 1.433 . S
C1119 N1121 1.384 . S
N1120 C1116 1.427 . S
N1120 C1117 1.384 . S
N1121 C1113 1.427 . S
N1121 C1119 1.384 . S
H1122 C1128 0.930 . S
H1123 C1132 0.930 . S
H1124 C1137 0.929 . S
H1125 C1135 0.929 . S
H1126 C1130 0.929 . S
H1127 C1136 0.929 . S
C1128 H1122 0.930 . S
C1128 C1129 1.367 . S
C1128 C1136 1.378 . S
C1129 C1128 1.367 . S
C1129 C1137 1.433 . S
C1130 H1126 0.929 . S
C1130 C1132 1.378 . S
C1130 C1134 1.350 . S
C1131 C1134 1.463 . S
C1131 C1136 1.350 . S
C1131 N1139 1.427 . S
C1132 H1123 0.930 . S
C1132 C1130 1.378 . S
C1132 C1133 1.367 . S
C1133 C1132 1.367 . S
C1133 C1135 1.433 . S
C1134 C1130 1.350 . S
C1134 C1131 1.463 . S
C1134 N1138 1.427 . S
C1135 H1125 0.929 . S
C1135 C1133 1.433 . S
C1135 N1138 1.384 . S
C1136 H1127 0.929 . S
C1136 C1128 1.378 . S
C1136 C1131 1.350 . S
C1137 H1124 0.929 . S
C1137 C1129 1.433 . S
C1137 N1139 1.384 . S
N1138 C1134 1.427 . S
N1138 C1135 1.384 . S
N1139 C1131 1.427 . S
N1139 C1137 1.384 . S
H1140 C1146 0.930 . S
H1141 C1150 0.930 . S
H1142 C1155 0.929 . S
H1143 C1153 0.929 . S
H1144 C1148 0.929 . S
H1145 C1154 0.929 . S
C1146 H1140 0.930 . S
C1146 C1147 1.367 . S
C1146 C1154 1.378 . S
C1147 C1146 1.367 . S
C1147 C1155 1.433 . S
C1148 H1144 0.929 . S
C1148 C1150 1.378 . S
C1148 C1152 1.350 . S
C1149 C1152 1.463 . S
C1149 C1154 1.350 . S
C1149 N1157 1.427 . S
C1150 H1141 0.930 . S
C1150 C1148 1.378 . S
C1150 C1151 1.367 . S
C1151 C1150 1.367 . S
C1151 C1153 1.433 . S
C1152 C1148 1.350 . S
C1152 C1149 1.463 . S
C1152 N1156 1.427 . S
C1153 H1143 0.929 . S
C1153 C1151 1.433 . S
C1153 N1156 1.384 . S
C1154 H1145 0.929 . S
C1154 C1146 1.378 . S
C1154 C1149 1.350 . S
C1155 H1142 0.929 . S
C1155 C1147 1.433 . S
C1155 N1157 1.384 . S
N1156 C1152 1.427 . S
N1156 C1153 1.384 . S
N1157 C1149 1.427 . S
N1157 C1155 1.384 . S
H1158 C1164 0.930 . S
H1159 C1168 0.930 . S
H1160 C1173 0.929 . S
H1161 C1171 0.929 . S
H1162 C1166 0.929 . S
H1163 C1172 0.929 . S
C1164 H1158 0.930 . S
C1164 C1165 1.367 . S
C1164 C1172 1.378 . S
C1165 C1164 1.367 . S
C1165 C1173 1.433 . S
C1166 H1162 0.929 . S
C1166 C1168 1.378 . S
C1166 C1170 1.350 . S
C1167 C1170 1.463 . S
C1167 C1172 1.350 . S
C1167 N1175 1.427 . S
C1168 H1159 0.930 . S
C1168 C1166 1.378 . S
C1168 C1169 1.367 . S
C1169 C1168 1.367 . S
C1169 C1171 1.433 . S
C1170 C1166 1.350 . S
C1170 C1167 1.463 . S
C1170 N1174 1.427 . S
C1171 H1161 0.929 . S
C1171 C1169 1.433 . S
C1171 N1174 1.384 . S
C1172 H1163 0.929 . S
C1172 C1164 1.378 . S
C1172 C1167 1.350 . S
C1173 H1160 0.929 . S
C1173 C1165 1.433 . S
C1173 N1175 1.384 . S
N1174 C1170 1.427 . S
N1174 C1171 1.384 . S
N1175 C1167 1.427 . S
N1175 C1173 1.384 . S
H1176 C1182 0.930 . S
H1177 C1186 0.930 . S
H1178 C1191 0.929 . S
H1179 C1189 0.929 . S
H1180 C1184 0.929 . S
H1181 C1190 0.929 . S
C1182 H1176 0.930 . S
C1182 C1183 1.367 . S
C1182 C1190 1.378 . S
C1183 C1182 1.367 . S
C1183 C1191 1.433 . S
C1184 H1180 0.929 . S
C1184 C1186 1.378 . S
C1184 C1188 1.350 . S
C1185 C1188 1.463 . S
C1185 C1190 1.350 . S
C1185 N1193 1.427 . S
C1186 H1177 0.930 . S
C1186 C1184 1.378 . S
C1186 C1187 1.367 . S
C1187 C1186 1.367 . S
C1187 C1189 1.433 . S
C1188 C1184 1.350 . S
C1188 C1185 1.463 . S
C1188 N1192 1.427 . S
C1189 H1179 0.929 . S
C1189 C1187 1.433 . S
C1189 N1192 1.384 . S
C1190 H1181 0.929 . S
C1190 C1182 1.378 . S
C1190 C1185 1.350 . S
C1191 H1178 0.929 . S
C1191 C1183 1.433 . S
C1191 N1193 1.384 . S
N1192 C1188 1.427 . S
N1192 C1189 1.384 . S
N1193 C1185 1.427 . S
N1193 C1191 1.384 . S
H1194 C1200 0.930 . S
H1195 C1204 0.930 . S
H1196 C1209 0.929 1_565 S
H1197 C1207 0.929 . S
H1198 C1202 0.929 . S
H1199 C1208 0.929 . S
C1200 H1194 0.930 . S
C1200 C1201 1.367 . S
C1200 C1208 1.378 . S
C1201 C1200 1.367 . S
C1201 C1209 1.433 . S
C1202 H1198 0.929 . S
C1202 C1204 1.378 . S
C1202 C1206 1.350 1_565 S
C1203 C1206 1.463 . S
C1203 C1208 1.350 . S
C1203 N1211 1.445 . S
C1204 H1195 0.930 . S
C1204 C1202 1.378 . S
C1204 C1205 1.367 1_565 S
C1205 C1204 1.367 1_545 S
C1205 C1207 1.433 . S
C1206 C1202 1.350 1_545 S
C1206 C1203 1.463 . S
C1206 N1210 1.427 . S
C1207 H1197 0.929 . S
C1207 C1205 1.433 . S
C1207 N1210 1.384 . S
C1208 H1199 0.929 . S
C1208 C1200 1.378 . S
C1208 C1203 1.350 . S
C1209 H1196 0.929 1_545 S
C1209 C1201 1.433 . S
C1209 N1211 1.387 . S
N1210 C1206 1.427 . S
N1210 C1207 1.384 . S
N1211 C1203 1.445 . S
N1211 C1209 1.387 . S
H1212 C1218 0.930 . S
H1213 C1222 0.930 . S
H1214 C1227 0.929 . S
H1215 C1225 0.929 . S
H1216 C1220 0.929 . S
H1217 C1226 0.929 . S
C1218 H1212 0.930 . S
C1218 C1219 1.367 . S
C1218 C1226 1.378 . S
C1219 C1218 1.367 . S
C1219 C1227 1.433 . S
C1220 H1216 0.929 . S
C1220 C1222 1.378 . S
C1220 C1224 1.350 . S
C1221 C1224 1.463 . S
C1221 C1226 1.350 . S
C1221 N1229 1.427 . S
C1222 H1213 0.930 . S
C1222 C1220 1.378 . S
C1222 C1223 1.367 . S
C1223 C1222 1.367 . S
C1223 C1225 1.433 . S
C1224 C1220 1.350 . S
C1224 C1221 1.463 . S
C1224 N1228 1.427 . S
C1225 H1215 0.929 . S
C1225 C1223 1.433 . S
C1225 N1228 1.384 . S
C1226 H1217 0.929 . S
C1226 C1218 1.378 . S
C1226 C1221 1.350 . S
C1227 H1214 0.929 . S
C1227 C1219 1.433 . S
C1227 N1229 1.384 . S
N1228 C1224 1.427 . S
N1228 C1225 1.384 . S
N1229 C1221 1.427 . S
N1229 C1227 1.384 . S
H1230 C1236 0.930 . S
H1231 C1240 0.930 . S
H1232 C1245 0.929 . S
H1233 C1243 0.929 . S
H1234 C1238 0.929 . S
H1235 C1244 0.929 . S
C1236 H1230 0.930 . S
C1236 C1237 1.367 . S
C1236 C1244 1.378 . S
C1237 C1236 1.367 . S
C1237 C1245 1.433 . S
C1238 H1234 0.929 . S
C1238 C1240 1.378 . S
C1238 C1242 1.350 . S
C1239 C1242 1.463 . S
C1239 C1244 1.350 . S
C1239 N1247 1.427 . S
C1240 H1231 0.930 . S
C1240 C1238 1.378 . S
C1240 C1241 1.367 . S
C1241 C1240 1.367 . S
C1241 C1243 1.433 . S
C1242 C1238 1.350 . S
C1242 C1239 1.463 . S
C1242 N1246 1.427 . S
C1243 H1233 0.929 . S
C1243 C1241 1.433 . S
C1243 N1246 1.384 . S
C1244 H1235 0.929 . S
C1244 C1236 1.378 . S
C1244 C1239 1.350 . S
C1245 H1232 0.929 . S
C1245 C1237 1.433 . S
C1245 N1247 1.384 . S
N1246 C1242 1.427 . S
N1246 C1243 1.384 . S
N1247 C1239 1.427 . S
N1247 C1245 1.384 . S
H1248 C1254 0.930 . S
H1249 C1258 0.930 . S
H1250 C1263 0.929 . S
H1251 C1261 0.929 . S
H1252 C1256 0.929 . S
H1253 C1262 0.929 . S
C1254 H1248 0.930 . S
C1254 C1255 1.367 . S
C1254 C1262 1.378 . S
C1255 C1254 1.367 . S
C1255 C1263 1.433 . S
C1256 H1252 0.929 . S
C1256 C1258 1.378 . S
C1256 C1260 1.350 . S
C1257 C1260 1.463 . S
C1257 C1262 1.350 . S
C1257 N1265 1.427 . S
C1258 H1249 0.930 . S
C1258 C1256 1.378 . S
C1258 C1259 1.367 . S
C1259 C1258 1.367 . S
C1259 C1261 1.433 . S
C1260 C1256 1.350 . S
C1260 C1257 1.463 . S
C1260 N1264 1.427 . S
C1261 H1251 0.929 . S
C1261 C1259 1.433 . S
C1261 N1264 1.384 . S
C1262 H1253 0.929 . S
C1262 C1254 1.378 . S
C1262 C1257 1.350 . S
C1263 H1250 0.929 . S
C1263 C1255 1.433 . S
C1263 N1265 1.384 . S
N1264 C1260 1.427 . S
N1264 C1261 1.384 . S
N1265 C1257 1.427 . S
N1265 C1263 1.384 . S
H1266 C1272 0.930 1_565 S
H1267 C1276 0.930 . S
H1268 C1281 0.929 . S
H1269 C1279 0.929 1_565 S
H1270 C1274 0.929 . S
H1271 C1280 0.929 1_565 S
C1272 H1266 0.930 1_545 S
C1272 C1273 1.367 . S
C1272 C1280 1.378 . S
C1273 C1272 1.367 . S
C1273 C1281 1.433 . S
C1274 H1270 0.929 . S
C1274 C1276 1.378 . S
C1274 C1278 1.350 . S
C1275 C1278 1.463 . S
C1275 C1280 1.350 . S
C1275 N1283 1.427 . S
C1276 H1267 0.930 . S
C1276 C1274 1.378 . S
C1276 C1277 1.367 . S
C1277 C1276 1.367 . S
C1277 C1279 1.433 . S
C1278 C1274 1.350 . S
C1278 C1275 1.463 . S
C1278 N1282 1.427 . S
C1279 H1269 0.929 1_545 S
C1279 C1277 1.433 . S
C1279 N1282 1.384 . S
C1280 H1271 0.929 1_545 S
C1280 C1272 1.378 . S
C1280 C1275 1.350 . S
C1281 H1268 0.929 . S
C1281 C1273 1.433 . S
C1281 N1283 1.384 . S
N1282 C1278 1.427 . S
N1282 C1279 1.384 . S
N1283 C1275 1.427 . S
N1283 C1281 1.384 . S
H1284 C1290 0.930 . S
H1285 C1294 0.930 . S
H1286 C1299 0.929 . S
H1287 C1297 0.929 . S
H1288 C1292 0.929 . S
H1289 C1298 0.929 . S
C1290 H1284 0.930 . S
C1290 C1291 1.367 . S
C1290 C1298 1.378 . S
C1291 C1290 1.367 . S
C1291 C1299 1.433 . S
C1292 H1288 0.929 . S
C1292 C1294 1.378 . S
C1292 C1296 1.350 . S
C1293 C1296 1.463 . S
C1293 C1298 1.350 . S
C1293 N1301 1.427 . S
C1294 H1285 0.930 . S
C1294 C1292 1.378 . S
C1294 C1295 1.367 . S
C1295 C1294 1.367 . S
C1295 C1297 1.433 . S
C1296 C1292 1.350 . S
C1296 C1293 1.463 . S
C1296 N1300 1.427 . S
C1297 H1287 0.929 . S
C1297 C1295 1.433 . S
C1297 N1300 1.384 . S
C1298 H1289 0.929 . S
C1298 C1290 1.378 . S
C1298 C1293 1.350 . S
C1299 H1286 0.929 . S
C1299 C1291 1.433 . S
C1299 N1301 1.384 . S
N1300 C1296 1.427 . S
N1300 C1297 1.384 . S
N1301 C1293 1.427 . S
N1301 C1299 1.384 . S
H1302 C1308 0.930 . S
H1303 C1312 0.930 . S
H1304 C1317 0.929 . S
H1305 C1315 0.929 . S
H1306 C1310 0.929 . S
H1307 C1316 0.929 . S
C1308 H1302 0.930 . S
C1308 C1309 1.367 . S
C1308 C1316 1.378 . S
C1309 C1308 1.367 . S
C1309 C1317 1.433 . S
C1310 H1306 0.929 . S
C1310 C1312 1.378 . S
C1310 C1314 1.350 . S
C1311 C1314 1.463 . S
C1311 C1316 1.350 . S
C1311 N1319 1.427 . S
C1312 H1303 0.930 . S
C1312 C1310 1.378 . S
C1312 C1313 1.367 . S
C1313 C1312 1.367 . S
C1313 C1315 1.433 . S
C1314 C1310 1.350 . S
C1314 C1311 1.463 . S
C1314 N1318 1.427 . S
C1315 H1305 0.929 . S
C1315 C1313 1.433 . S
C1315 N1318 1.384 . S
C1316 H1307 0.929 . S
C1316 C1308 1.378 . S
C1316 C1311 1.350 . S
C1317 H1304 0.929 . S
C1317 C1309 1.433 . S
C1317 N1319 1.384 . S
N1318 C1314 1.427 . S
N1318 C1315 1.384 . S
N1319 C1311 1.427 . S
N1319 C1317 1.384 . S
H1320 C1326 0.930 . S
H1321 C1330 0.930 . S
H1322 C1335 0.929 . S
H1323 C1333 0.929 . S
H1324 C1328 0.929 . S
H1325 C1334 0.929 . S
C1326 H1320 0.930 . S
C1326 C1327 1.367 . S
C1326 C1334 1.378 . S
C1327 C1326 1.367 . S
C1327 C1335 1.433 . S
C1328 H1324 0.929 . S
C1328 C1330 1.378 . S
C1328 C1332 1.350 . S
C1329 C1332 1.463 . S
C1329 C1334 1.350 . S
C1329 N1337 1.427 . S
C1330 H1321 0.930 . S
C1330 C1328 1.378 . S
C1330 C1331 1.367 . S
C1331 C1330 1.367 . S
C1331 C1333 1.433 . S
C1332 C1328 1.350 . S
C1332 C1329 1.463 . S
C1332 N1336 1.427 . S
C1333 H1323 0.929 . S
C1333 C1331 1.433 . S
C1333 N1336 1.384 . S
C1334 H1325 0.929 . S
C1334 C1326 1.378 . S
C1334 C1329 1.350 . S
C1335 H1322 0.929 . S
C1335 C1327 1.433 . S
C1335 N1337 1.384 . S
N1336 C1332 1.427 . S
N1336 C1333 1.384 . S
N1337 C1329 1.427 . S
N1337 C1335 1.384 . S
H1338 C1344 0.930 . S
H1339 C1348 0.930 . S
H1340 C1353 0.929 . S
H1341 C1351 0.929 . S
H1342 C1346 0.929 . S
H1343 C1352 0.929 . S
C1344 H1338 0.930 . S
C1344 C1345 1.367 1_455 S
C1344 C1352 1.378 . S
C1345 C1344 1.367 1_655 S
C1345 C1353 1.433 . S
C1346 H1342 0.929 . S
C1346 C1348 1.378 . S
C1346 C1350 1.350 1_655 S
C1347 C1350 1.462 1_655 S
C1347 C1352 1.346 1_655 S
C1347 N1355 1.432 . S
C1348 H1339 0.930 . S
C1348 C1346 1.378 . S
C1348 C1349 1.367 1_655 S
C1349 C1348 1.367 1_455 S
C1349 C1351 1.433 . S
C1350 C1346 1.350 1_455 S
C1350 C1347 1.462 1_455 S
C1350 N1354 1.427 . S
C1351 H1341 0.929 . S
C1351 C1349 1.433 . S
C1351 N1354 1.384 . S
C1352 H1343 0.929 . S
C1352 C1344 1.378 . S
C1352 C1347 1.346 1_455 S
C1353 H1340 0.929 . S
C1353 C1345 1.433 . S
C1353 N1355 1.384 . S
N1354 C1350 1.427 . S
N1354 C1351 1.384 . S
N1355 C1347 1.432 . S
N1355 C1353 1.384 . S
H1356 C1362 0.930 . S
H1357 C1366 0.930 . S
H1358 C1371 0.929 . S
H1359 C1369 0.929 . S
H1360 C1364 0.929 . S
H1361 C1370 0.929 . S
C1362 H1356 0.930 . S
C1362 C1363 1.367 . S
C1362 C1370 1.378 . S
C1363 C1362 1.367 . S
C1363 C1371 1.433 . S
C1364 H1360 0.929 . S
C1364 C1366 1.378 . S
C1364 C1368 1.350 . S
C1365 C1368 1.463 . S
C1365 C1370 1.350 . S
C1365 N1373 1.427 . S
C1366 H1357 0.930 . S
C1366 C1364 1.378 . S
C1366 C1367 1.367 . S
C1367 C1366 1.367 . S
C1367 C1369 1.433 . S
C1368 C1364 1.350 . S
C1368 C1365 1.463 . S
C1368 N1372 1.427 . S
C1369 H1359 0.929 . S
C1369 C1367 1.433 . S
C1369 N1372 1.384 . S
C1370 H1361 0.929 . S
C1370 C1362 1.378 . S
C1370 C1365 1.350 . S
C1371 H1358 0.929 . S
C1371 C1363 1.433 . S
C1371 N1373 1.384 . S
N1372 C1368 1.427 . S
N1372 C1369 1.384 . S
N1373 C1365 1.427 . S
N1373 C1371 1.384 . S
H1374 C1380 0.930 . S
H1375 C1384 0.930 . S
H1376 C1389 0.929 . S
H1377 C1387 0.929 1_655 S
H1378 C1382 0.929 . S
H1379 C1388 0.935 . S
C1380 H1374 0.930 . S
C1380 C1381 1.367 . S
C1380 C1388 1.378 . S
C1381 C1380 1.367 . S
C1381 C1389 1.433 . S
C1382 H1378 0.929 . S
C1382 C1384 1.378 . S
C1382 C1386 1.350 . S
C1383 C1386 1.463 . S
C1383 C1388 1.350 . S
C1383 N1391 1.427 . S
C1384 H1375 0.930 . S
C1384 C1382 1.378 . S
C1384 C1385 1.367 . S
C1385 C1384 1.367 . S
C1385 C1387 1.433 . S
C1386 C1382 1.350 . S
C1386 C1383 1.463 . S
C1386 N1390 1.427 . S
C1387 H1377 0.929 1_455 S
C1387 C1385 1.433 . S
C1387 N1390 1.384 . S
C1388 H1379 0.935 . S
C1388 C1380 1.378 . S
C1388 C1383 1.350 . S
C1389 H1376 0.929 . S
C1389 C1381 1.433 . S
C1389 N1391 1.384 . S
N1390 C1386 1.427 . S
N1390 C1387 1.384 . S
N1391 C1383 1.427 . S
N1391 C1389 1.384 . S
H1392 C1398 0.930 . S
H1393 C1402 0.930 . S
H1394 C1407 0.929 . S
H1395 C1405 0.929 . S
H1396 C1400 0.929 . S
H1397 C1406 0.929 . S
C1398 H1392 0.930 . S
C1398 C1399 1.367 . S
C1398 C1406 1.378 . S
C1399 C1398 1.367 . S
C1399 C1407 1.433 . S
C1400 H1396 0.929 . S
C1400 C1402 1.378 . S
C1400 C1404 1.350 . S
C1401 C1404 1.463 . S
C1401 C1406 1.350 . S
C1401 N1409 1.427 . S
C1402 H1393 0.930 . S
C1402 C1400 1.378 . S
C1402 C1403 1.367 . S
C1403 C1402 1.367 . S
C1403 C1405 1.433 . S
C1404 C1400 1.350 . S
C1404 C1401 1.463 . S
C1404 N1408 1.427 . S
C1405 H1395 0.929 . S
C1405 C1403 1.433 . S
C1405 N1408 1.384 . S
C1406 H1397 0.929 . S
C1406 C1398 1.378 . S
C1406 C1401 1.350 . S
C1407 H1394 0.929 . S
C1407 C1399 1.433 . S
C1407 N1409 1.384 . S
N1408 C1404 1.427 . S
N1408 C1405 1.384 . S
N1409 C1401 1.427 . S
N1409 C1407 1.384 . S
H1410 C1416 0.930 . S
H1411 C1420 0.930 . S
H1412 C1425 0.929 . S
H1413 C1423 0.929 . S
H1414 C1418 0.929 . S
H1415 C1424 0.929 . S
C1416 H1410 0.930 . S
C1416 C1417 1.367 . S
C1416 C1424 1.378 . S
C1417 C1416 1.367 . S
C1417 C1425 1.433 . S
C1418 H1414 0.929 . S
C1418 C1420 1.378 . S
C1418 C1422 1.350 . S
C1419 C1422 1.463 . S
C1419 C1424 1.350 . S
C1419 N1427 1.427 . S
C1420 H1411 0.930 . S
C1420 C1418 1.378 . S
C1420 C1421 1.367 . S
C1421 C1420 1.367 . S
C1421 C1423 1.433 . S
C1422 C1418 1.350 . S
C1422 C1419 1.463 . S
C1422 N1426 1.427 . S
C1423 H1413 0.929 . S
C1423 C1421 1.433 . S
C1423 N1426 1.384 . S
C1424 H1415 0.929 . S
C1424 C1416 1.378 . S
C1424 C1419 1.350 . S
C1425 H1412 0.929 . S
C1425 C1417 1.433 . S
C1425 N1427 1.384 . S
N1426 C1422 1.427 . S
N1426 C1423 1.384 . S
N1427 C1419 1.427 . S
N1427 C1425 1.384 . S
H1428 C1434 0.930 . S
H1429 C1438 0.930 . S
H1430 C1443 0.929 . S
H1431 C1441 0.929 . S
H1432 C1436 0.929 . S
H1433 C1442 0.929 . S
C1434 H1428 0.930 . S
C1434 C1435 1.367 . S
C1434 C1442 1.378 . S
C1435 C1434 1.367 . S
C1435 C1443 1.433 . S
C1436 H1432 0.929 . S
C1436 C1438 1.378 . S
C1436 C1440 1.350 . S
C1437 C1440 1.463 . S
C1437 C1442 1.350 . S
C1437 N1445 1.427 . S
C1438 H1429 0.930 . S
C1438 C1436 1.378 . S
C1438 C1439 1.367 . S
C1439 C1438 1.367 . S
C1439 C1441 1.433 . S
C1440 C1436 1.350 . S
C1440 C1437 1.463 . S
C1440 N1444 1.427 . S
C1441 H1431 0.929 . S
C1441 C1439 1.433 . S
C1441 N1444 1.384 . S
C1442 H1433 0.929 . S
C1442 C1434 1.378 . S
C1442 C1437 1.350 . S
C1443 H1430 0.929 . S
C1443 C1435 1.433 . S
C1443 N1445 1.384 . S
N1444 C1440 1.427 . S
N1444 C1441 1.384 . S
N1445 C1437 1.427 . S
N1445 C1443 1.384 . S
H1446 C1452 0.930 . S
H1447 C1456 0.930 . S
H1448 C1461 0.929 . S
H1449 C1459 0.929 . S
H1450 C1454 0.929 . S
H1451 C1460 0.929 . S
C1452 H1446 0.930 . S
C1452 C1453 1.367 . S
C1452 C1460 1.378 . S
C1453 C1452 1.367 . S
C1453 C1461 1.433 . S
C1454 H1450 0.929 . S
C1454 C1456 1.378 . S
C1454 C1458 1.350 . S
C1455 C1458 1.463 . S
C1455 C1460 1.350 . S
C1455 N1463 1.427 . S
C1456 H1447 0.930 . S
C1456 C1454 1.378 . S
C1456 C1457 1.367 . S
C1457 C1456 1.367 . S
C1457 C1459 1.433 . S
C1458 C1454 1.350 . S
C1458 C1455 1.463 . S
C1458 N1462 1.427 . S
C1459 H1449 0.929 . S
C1459 C1457 1.433 . S
C1459 N1462 1.384 . S
C1460 H1451 0.929 . S
C1460 C1452 1.378 . S
C1460 C1455 1.350 . S
C1461 H1448 0.929 . S
C1461 C1453 1.433 . S
C1461 N1463 1.384 . S
N1462 C1458 1.427 . S
N1462 C1459 1.384 . S
N1463 C1455 1.427 . S
N1463 C1461 1.384 . S
H1464 C1470 0.930 . S
H1465 C1474 0.930 . S
H1466 C1479 0.929 . S
H1467 C1477 0.929 . S
H1468 C1472 0.929 . S
H1469 C1478 0.929 . S
C1470 H1464 0.930 . S
C1470 C1471 1.367 . S
C1470 C1478 1.378 . S
C1471 C1470 1.367 . S
C1471 C1479 1.433 . S
C1472 H1468 0.929 . S
C1472 C1474 1.378 . S
C1472 C1476 1.350 . S
C1473 C1476 1.463 . S
C1473 C1478 1.350 . S
C1473 N1481 1.427 . S
C1474 H1465 0.930 . S
C1474 C1472 1.378 . S
C1474 C1475 1.367 . S
C1475 C1474 1.367 . S
C1475 C1477 1.433 . S
C1476 C1472 1.350 . S
C1476 C1473 1.463 . S
C1476 N1480 1.427 . S
C1477 H1467 0.929 . S
C1477 C1475 1.433 . S
C1477 N1480 1.384 . S
C1478 H1469 0.929 . S
C1478 C1470 1.378 . S
C1478 C1473 1.350 . S
C1479 H1466 0.929 . S
C1479 C1471 1.433 . S
C1479 N1481 1.384 . S
N1480 C1476 1.427 . S
N1480 C1477 1.384 . S
N1481 C1473 1.427 . S
N1481 C1479 1.384 . S
H1482 C1488 0.930 . S
H1483 C1492 0.930 . S
H1484 C1497 0.929 . S
H1485 C1495 0.929 . S
H1486 C1490 0.929 . S
H1487 C1496 0.929 . S
C1488 H1482 0.930 . S
C1488 C1489 1.367 . S
C1488 C1496 1.378 . S
C1489 C1488 1.367 . S
C1489 C1497 1.433 . S
C1490 H1486 0.929 . S
C1490 C1492 1.378 . S
C1490 C1494 1.350 . S
C1491 C1494 1.463 . S
C1491 C1496 1.350 . S
C1491 N1499 1.427 . S
C1492 H1483 0.930 . S
C1492 C1490 1.378 . S
C1492 C1493 1.367 . S
C1493 C1492 1.367 . S
C1493 C1495 1.433 . S
C1494 C1490 1.350 . S
C1494 C1491 1.463 . S
C1494 N1498 1.427 . S
C1495 H1485 0.929 . S
C1495 C1493 1.433 . S
C1495 N1498 1.384 . S
C1496 H1487 0.929 . S
C1496 C1488 1.378 . S
C1496 C1491 1.350 . S
C1497 H1484 0.929 . S
C1497 C1489 1.433 . S
C1497 N1499 1.384 . S
N1498 C1494 1.427 . S
N1498 C1495 1.384 . S
N1499 C1491 1.427 . S
N1499 C1497 1.384 . S
H1500 C1506 0.930 . S
H1501 C1510 0.930 . S
H1502 C1515 0.929 . S
H1503 C1513 0.929 . S
H1504 C1508 0.929 . S
H1505 C1514 0.929 . S
C1506 H1500 0.930 . S
C1506 C1507 1.367 . S
C1506 C1514 1.378 . S
C1507 C1506 1.367 . S
C1507 C1515 1.433 . S
C1508 H1504 0.929 . S
C1508 C1510 1.378 . S
C1508 C1512 1.350 . S
C1509 C1512 1.463 . S
C1509 C1514 1.350 . S
C1509 N1517 1.427 . S
C1510 H1501 0.930 . S
C1510 C1508 1.378 . S
C1510 C1511 1.367 . S
C1511 C1510 1.367 . S
C1511 C1513 1.433 . S
C1512 C1508 1.350 . S
C1512 C1509 1.463 . S
C1512 N1516 1.427 . S
C1513 H1503 0.929 . S
C1513 C1511 1.433 . S
C1513 N1516 1.384 . S
C1514 H1505 0.929 . S
C1514 C1506 1.378 . S
C1514 C1509 1.350 . S
C1515 H1502 0.929 . S
C1515 C1507 1.433 . S
C1515 N1517 1.384 . S
N1516 C1512 1.427 . S
N1516 C1513 1.384 . S
N1517 C1509 1.427 . S
N1517 C1515 1.384 . S
H1518 C1524 0.930 . S
H1519 C1528 0.930 . S
H1520 C1533 0.929 . S
H1521 C1531 0.929 . S
H1522 C1526 0.929 . S
H1523 C1532 0.929 . S
C1524 H1518 0.930 . S
C1524 C1525 1.367 . S
C1524 C1532 1.378 . S
C1525 C1524 1.367 . S
C1525 C1533 1.433 . S
C1526 H1522 0.929 . S
C1526 C1528 1.378 . S
C1526 C1530 1.350 . S
C1527 C1530 1.463 . S
C1527 C1532 1.350 . S
C1527 N1535 1.427 . S
C1528 H1519 0.930 . S
C1528 C1526 1.378 . S
C1528 C1529 1.367 . S
C1529 C1528 1.367 . S
C1529 C1531 1.433 . S
C1530 C1526 1.350 . S
C1530 C1527 1.463 . S
C1530 N1534 1.427 . S
C1531 H1521 0.929 . S
C1531 C1529 1.433 . S
C1531 N1534 1.384 . S
C1532 H1523 0.929 . S
C1532 C1524 1.378 . S
C1532 C1527 1.350 . S
C1533 H1520 0.929 . S
C1533 C1525 1.433 . S
C1533 N1535 1.384 . S
N1534 C1530 1.427 . S
N1534 C1531 1.384 . S
N1535 C1527 1.427 . S
N1535 C1533 1.384 . S
H1536 C1542 0.930 . S
H1537 C1546 0.930 . S
H1538 C1551 0.929 . S
H1539 C1549 0.929 . S
H1540 C1544 0.929 . S
H1541 C1550 0.929 . S
C1542 H1536 0.930 . S
C1542 C1543 1.367 . S
C1542 C1550 1.378 . S
C1543 C1542 1.367 . S
C1543 C1551 1.433 1_556 S
C1544 H1540 0.929 . S
C1544 C1546 1.378 . S
C1544 C1548 1.350 1_554 S
C1545 C1548 1.463 . S
C1545 C1550 1.350 . S
C1545 N1553 1.427 1_556 S
C1546 H1537 0.930 . S
C1546 C1544 1.378 . S
C1546 C1547 1.367 1_554 S
C1547 C1546 1.367 1_556 S
C1547 C1549 1.433 . S
C1548 C1544 1.350 1_556 S
C1548 C1545 1.463 . S
C1548 N1552 1.427 . S
C1549 H1539 0.929 . S
C1549 C1547 1.433 . S
C1549 N1552 1.384 . S
C1550 H1541 0.929 . S
C1550 C1542 1.378 . S
C1550 C1545 1.350 . S
C1551 H1538 0.929 . S
C1551 C1543 1.433 1_554 S
C1551 N1553 1.384 . S
N1552 C1548 1.427 . S
N1552 C1549 1.384 . S
N1553 C1545 1.427 1_554 S
N1553 C1551 1.384 . S
H1554 C1560 0.930 . S
H1555 C1564 0.930 . S
H1556 C1569 0.929 . S
H1557 C1567 0.929 . S
H1558 C1562 0.929 . S
H1559 C1568 0.929 . S
C1560 H1554 0.930 . S
C1560 C1561 1.367 . S
C1560 C1568 1.378 . S
C1561 C1560 1.367 . S
C1561 C1569 1.433 . S
C1562 H1558 0.929 . S
C1562 C1564 1.378 . S
C1562 C1566 1.350 . S
C1563 C1566 1.463 . S
C1563 C1568 1.350 . S
C1563 N1571 1.427 . S
C1564 H1555 0.930 . S
C1564 C1562 1.378 . S
C1564 C1565 1.367 . S
C1565 C1564 1.367 . S
C1565 C1567 1.433 . S
C1566 C1562 1.350 . S
C1566 C1563 1.463 . S
C1566 N1570 1.427 . S
C1567 H1557 0.929 . S
C1567 C1565 1.433 . S
C1567 N1570 1.384 . S
C1568 H1559 0.929 . S
C1568 C1560 1.378 . S
C1568 C1563 1.350 . S
C1569 H1556 0.929 . S
C1569 C1561 1.433 . S
C1569 N1571 1.384 . S
N1570 C1566 1.427 . S
N1570 C1567 1.384 . S
N1571 C1563 1.427 . S
N1571 C1569 1.384 . S
H1572 C1578 0.930 . S
H1573 C1582 0.930 . S
H1574 C1587 0.929 . S
H1575 C1585 0.958 . S
H1576 C1580 0.929 . S
H1577 C1586 0.929 . S
C1578 H1572 0.930 . S
C1578 C1579 1.367 . S
C1578 C1586 1.378 . S
C1579 C1578 1.367 . S
C1579 C1587 1.433 . S
C1580 H1576 0.929 . S
C1580 C1582 1.378 . S
C1580 C1584 1.350 . S
C1581 C1584 1.463 . S
C1581 C1586 1.350 . S
C1581 N1589 1.427 . S
C1582 H1573 0.930 . S
C1582 C1580 1.378 . S
C1582 C1583 1.367 . S
C1583 C1582 1.367 . S
C1583 C1585 1.433 . S
C1584 C1580 1.350 . S
C1584 C1581 1.463 . S
C1584 N1588 1.427 . S
C1585 H1575 0.958 . S
C1585 C1583 1.433 . S
C1585 N1588 1.384 . S
C1586 H1577 0.929 . S
C1586 C1578 1.378 . S
C1586 C1581 1.350 . S
C1587 H1574 0.929 . S
C1587 C1579 1.433 . S
C1587 N1589 1.384 . S
N1588 C1584 1.427 . S
N1588 C1585 1.384 . S
N1589 C1581 1.427 . S
N1589 C1587 1.384 . S
H1590 C1596 0.930 . S
H1591 C1600 0.930 . S
H1592 C1605 0.929 . S
H1593 C1603 0.929 . S
H1594 C1598 0.929 . S
H1595 C1604 0.929 . S
C1596 H1590 0.930 . S
C1596 C1597 1.367 . S
C1596 C1604 1.378 . S
C1597 C1596 1.367 . S
C1597 C1605 1.433 . S
C1598 H1594 0.929 . S
C1598 C1600 1.378 . S
C1598 C1602 1.350 . S
C1599 C1602 1.463 . S
C1599 C1604 1.350 . S
C1599 N1607 1.427 . S
C1600 H1591 0.930 . S
C1600 C1598 1.378 . S
C1600 C1601 1.367 . S
C1601 C1600 1.367 . S
C1601 C1603 1.433 . S
C1602 C1598 1.350 . S
C1602 C1599 1.463 . S
C1602 N1606 1.427 . S
C1603 H1593 0.929 . S
C1603 C1601 1.433 . S
C1603 N1606 1.384 . S
C1604 H1595 0.929 . S
C1604 C1596 1.378 . S
C1604 C1599 1.350 . S
C1605 H1592 0.929 . S
C1605 C1597 1.433 . S
C1605 N1607 1.384 . S
N1606 C1602 1.427 . S
N1606 C1603 1.384 . S
N1607 C1599 1.427 . S
N1607 C1605 1.384 . S
C755 C587 1.433 . S
C751 C181 1.451 . S
C773 C595 1.285 . S
C769 C247 1.543 . S
C787 C283 1.436 . S
C791 C615 1.426 . S
C809 C629 1.499 . S
C805 C169 1.487 1_655 S
C827 C644 1.531 . S
C823 C361 1.529 . S
C845 C658 1.516 . S
C841 C433 1.506 . S
C859 C421 1.556 . S
C863 C672 1.563 . S
C881 C678 1.445 . S
C877 C355 1.493 . S
C895 C427 1.530 . S
C899 C692 1.505 . S
C917 C713 1.536 . S
C913 C325 1.556 . S
C931 C385 1.458 . S
C935 C693 1.219 . S
C953 C714 1.543 . S
C949 C463 1.531 . S
C967 C253 1.487 . S
C971 C721 1.244 . S
C985 C145 1.508 . S
C989 C727 1.500 . S
C1003 C205 1.483 . S
C1007 C720 1.450 . S
C1021 C217 1.474 . S
C1025 C728 1.474 . S
C1039 C139 1.507 . S
C1043 C622 1.472 . S
C1057 C535 1.489 . S
C1061 C623 1.257 . S
C1079 C580 1.500 . S
C1075 C565 1.543 . S
C1097 C601 1.437 . S
C1093 C313 1.449 . S
C1111 C175 1.498 . S
C1115 C636 1.460 . S
C1133 C686 1.525 . S
C1129 C397 1.520 . S
C1151 C637 1.231 . S
C1147 C349 1.446 . S
C1169 C665 1.287 . S
C1165 C457 1.551 . S
C1187 C671 1.439 . S
C1183 C505 1.451 . S
C1201 C571 1.543 . S
C1205 C679 1.293 . S
C1219 C319 1.438 . S
C1223 C643 1.419 . S
C1241 C657 1.497 . S
C1237 C493 1.515 . S
C1255 C109 1.526 . S
C1259 C616 1.530 . S
C1277 C630 1.516 . S
C1273 C1 1.505 . S
C1295 C588 1.563 . S
C1291 C61 1.555 . S
C1313 C594 1.453 . S
C1309 C103 1.491 . S
C1327 C67 1.531 . S
C1331 C706 1.505 . S
C1345 C73 1.555 . S
C1349 C699 1.530 . S
C1363 C133 1.457 . S
C1367 C707 1.234 . S
C1381 C31 1.532 . S
C1385 C700 1.543 . S
C1403 C735 1.238 . S
C1399 C289 1.482 . S
C1421 C741 1.492 . S
C1417 C469 1.510 . S
C1439 C734 1.448 . S
C1435 C529 1.487 . S
C1453 C541 1.473 . S
C1457 C742 1.474 . S
C1471 C391 1.506 . S
C1475 C650 1.469 . S
C1493 C651 1.234 . S
C1489 C211 1.485 . S
C1511 C664 1.498 . S
C1507 C241 1.543 . S
C1529 C685 1.444 . S
C1525 C277 1.456 . S
C1543 C499 1.498 . S
C1547 C608 1.467 1_556 S
C1565 C602 1.525 . S
C1561 C37 1.519 . S
C1579 C97 1.450 . S
C1583 C609 1.200 . S
C1601 C581 1.271 . S
C1597 C25 1.546 . S
