# Generated by pormake.
# Topology ctn, (3,4)-cn, num edge types: 1
# Building blocks:
#     Node 0, Type 0, BuildingBlock: ESEHIV_clean_linker_0, # of connection points: 3
#     Node 1, Type 0, BuildingBlock: ESEHIV_clean_linker_0, # of connection points: 3
#     Node 2, Type 0, BuildingBlock: ESEHIV_clean_linker_0, # of connection points: 3
#     Node 3, Type 0, BuildingBlock: ESEHIV_clean_linker_0, # of connection points: 3
#     Node 4, Type 0, BuildingBlock: ESEHIV_clean_linker_0, # of connection points: 3
#     Node 5, Type 0, BuildingBlock: ESEHIV_clean_linker_0, # of connection points: 3
#     Node 6, Type 0, BuildingBlock: ESEHIV_clean_linker_0, # of connection points: 3
#     Node 7, Type 0, BuildingBlock: ESEHIV_clean_linker_0, # of connection points: 3
#     Node 8, Type 0, BuildingBlock: ESEHIV_clean_linker_0, # of connection points: 3
#     Node 9, Type 0, BuildingBlock: ESEHIV_clean_linker_0, # of connection points: 3
#     Node 10, Type 0, BuildingBlock: ESEHIV_clean_linker_0, # of connection points: 3
#     Node 11, Type 0, BuildingBlock: ESEHIV_clean_linker_0, # of connection points: 3
#     Node 12, Type 0, BuildingBlock: ESEHIV_clean_linker_0, # of connection points: 3
#     Node 13, Type 0, BuildingBlock: ESEHIV_clean_linker_0, # of connection points: 3
#     Node 14, Type 0, BuildingBlock: ESEHIV_clean_linker_0, # of connection points: 3
#     Node 15, Type 0, BuildingBlock: ESEHIV_clean_linker_0, # of connection points: 3
#     Node 16, Type 1, BuildingBlock: UXUYUI_clean_sbu_0, # of connection points: 4
#     Node 17, Type 1, BuildingBlock: UXUYUI_clean_sbu_0, # of connection points: 4
#     Node 18, Type 1, BuildingBlock: UXUYUI_clean_sbu_0, # of connection points: 4
#     Node 19, Type 1, BuildingBlock: UXUYUI_clean_sbu_0, # of connection points: 4
#     Node 20, Type 1, BuildingBlock: UXUYUI_clean_sbu_0, # of connection points: 4
#     Node 21, Type 1, BuildingBlock: UXUYUI_clean_sbu_0, # of connection points: 4
#     Node 22, Type 1, BuildingBlock: UXUYUI_clean_sbu_0, # of connection points: 4
#     Node 23, Type 1, BuildingBlock: UXUYUI_clean_sbu_0, # of connection points: 4
#     Node 24, Type 1, BuildingBlock: UXUYUI_clean_sbu_0, # of connection points: 4
#     Node 25, Type 1, BuildingBlock: UXUYUI_clean_sbu_0, # of connection points: 4
#     Node 26, Type 1, BuildingBlock: UXUYUI_clean_sbu_0, # of connection points: 4
#     Node 27, Type 1, BuildingBlock: UXUYUI_clean_sbu_0, # of connection points: 4
#     Edge 28, Type (0, 1), BuildingBlock: KIFKEQ_clean_linker_1, # of connection points: 2
#     Edge 29, Type (0, 1), BuildingBlock: KIFKEQ_clean_linker_1, # of connection points: 2
#     Edge 30, Type (0, 1), BuildingBlock: KIFKEQ_clean_linker_1, # of connection points: 2
#     Edge 31, Type (0, 1), BuildingBlock: KIFKEQ_clean_linker_1, # of connection points: 2
#     Edge 32, Type (0, 1), BuildingBlock: KIFKEQ_clean_linker_1, # of connection points: 2
#     Edge 33, Type (0, 1), BuildingBlock: KIFKEQ_clean_linker_1, # of connection points: 2
#     Edge 34, Type (0, 1), BuildingBlock: KIFKEQ_clean_linker_1, # of connection points: 2
#     Edge 35, Type (0, 1), BuildingBlock: KIFKEQ_clean_linker_1, # of connection points: 2
#     Edge 36, Type (0, 1), BuildingBlock: KIFKEQ_clean_linker_1, # of connection points: 2
#     Edge 37, Type (0, 1), BuildingBlock: KIFKEQ_clean_linker_1, # of connection points: 2
#     Edge 38, Type (0, 1), BuildingBlock: KIFKEQ_clean_linker_1, # of connection points: 2
#     Edge 39, Type (0, 1), BuildingBlock: KIFKEQ_clean_linker_1, # of connection points: 2
#     Edge 40, Type (0, 1), BuildingBlock: KIFKEQ_clean_linker_1, # of connection points: 2
#     Edge 41, Type (0, 1), BuildingBlock: KIFKEQ_clean_linker_1, # of connection points: 2
#     Edge 42, Type (0, 1), BuildingBlock: KIFKEQ_clean_linker_1, # of connection points: 2
#     Edge 43, Type (0, 1), BuildingBlock: KIFKEQ_clean_linker_1, # of connection points: 2
#     Edge 44, Type (0, 1), BuildingBlock: KIFKEQ_clean_linker_1, # of connection points: 2
#     Edge 45, Type (0, 1), BuildingBlock: KIFKEQ_clean_linker_1, # of connection points: 2
#     Edge 46, Type (0, 1), BuildingBlock: KIFKEQ_clean_linker_1, # of connection points: 2
#     Edge 47, Type (0, 1), BuildingBlock: KIFKEQ_clean_linker_1, # of connection points: 2
#     Edge 48, Type (0, 1), BuildingBlock: KIFKEQ_clean_linker_1, # of connection points: 2
#     Edge 49, Type (0, 1), BuildingBlock: KIFKEQ_clean_linker_1, # of connection points: 2
#     Edge 50, Type (0, 1), BuildingBlock: KIFKEQ_clean_linker_1, # of connection points: 2
#     Edge 51, Type (0, 1), BuildingBlock: KIFKEQ_clean_linker_1, # of connection points: 2
#     Edge 52, Type (0, 1), BuildingBlock: KIFKEQ_clean_linker_1, # of connection points: 2
#     Edge 53, Type (0, 1), BuildingBlock: KIFKEQ_clean_linker_1, # of connection points: 2
#     Edge 54, Type (0, 1), BuildingBlock: KIFKEQ_clean_linker_1, # of connection points: 2
#     Edge 55, Type (0, 1), BuildingBlock: KIFKEQ_clean_linker_1, # of connection points: 2
#     Edge 56, Type (0, 1), BuildingBlock: KIFKEQ_clean_linker_1, # of connection points: 2
#     Edge 57, Type (0, 1), BuildingBlock: KIFKEQ_clean_linker_1, # of connection points: 2
#     Edge 58, Type (0, 1), BuildingBlock: KIFKEQ_clean_linker_1, # of connection points: 2
#     Edge 59, Type (0, 1), BuildingBlock: KIFKEQ_clean_linker_1, # of connection points: 2
#     Edge 60, Type (0, 1), BuildingBlock: KIFKEQ_clean_linker_1, # of connection points: 2
#     Edge 61, Type (0, 1), BuildingBlock: KIFKEQ_clean_linker_1, # of connection points: 2
#     Edge 62, Type (0, 1), BuildingBlock: KIFKEQ_clean_linker_1, # of connection points: 2
#     Edge 63, Type (0, 1), BuildingBlock: KIFKEQ_clean_linker_1, # of connection points: 2
#     Edge 64, Type (0, 1), BuildingBlock: KIFKEQ_clean_linker_1, # of connection points: 2
#     Edge 65, Type (0, 1), BuildingBlock: KIFKEQ_clean_linker_1, # of connection points: 2
#     Edge 66, Type (0, 1), BuildingBlock: KIFKEQ_clean_linker_1, # of connection points: 2
#     Edge 67, Type (0, 1), BuildingBlock: KIFKEQ_clean_linker_1, # of connection points: 2
#     Edge 68, Type (0, 1), BuildingBlock: KIFKEQ_clean_linker_1, # of connection points: 2
#     Edge 69, Type (0, 1), BuildingBlock: KIFKEQ_clean_linker_1, # of connection points: 2
#     Edge 70, Type (0, 1), BuildingBlock: KIFKEQ_clean_linker_1, # of connection points: 2
#     Edge 71, Type (0, 1), BuildingBlock: KIFKEQ_clean_linker_1, # of connection points: 2
#     Edge 72, Type (0, 1), BuildingBlock: KIFKEQ_clean_linker_1, # of connection points: 2
#     Edge 73, Type (0, 1), BuildingBlock: KIFKEQ_clean_linker_1, # of connection points: 2
#     Edge 74, Type (0, 1), BuildingBlock: KIFKEQ_clean_linker_1, # of connection points: 2
#     Edge 75, Type (0, 1), BuildingBlock: KIFKEQ_clean_linker_1, # of connection points: 2
# Relax obj value: 0.000
# Max RMSD: 0.006
# Mean RMSD: 0.004
data_MOF--net-ctn--node1-UXUYUI_clean_sbu_0--node2-ESEHIV_clean_linker_0--edge1-KIFKEQ_clean_linker_1
_symmetry_space_group_name_H-M    P1
_symmetry_Int_Tables_number       1
_symmetry_cell_setting            triclinic
loop_
_symmetry_equiv_pos_as_xyz
'x, y, z'
_cell_length_a     65.668923
_cell_length_b     65.658468
_cell_length_c     65.516621
_cell_angle_alpha  89.986647
_cell_angle_beta   90.17997
_cell_angle_gamma 90.060332
loop_
_atom_site_label
_atom_site_type_symbol
_atom_site_fract_x
_atom_site_fract_y
_atom_site_fract_z
_atom_type_partial_charge
H0 H 0.018 0.07083 0.05394 0.0
H1 H 0.05267 0.01819 0.07173 0.0
H2 H 0.07088 0.05341 0.01957 0.0
C3 C 0.03073 0.06065 0.05153 0.0
C4 C 0.04402 0.06415 0.03509 0.0
C5 C 0.03371 0.04413 0.06489 0.0
C6 C 0.05027 0.03098 0.06157 0.0
C7 C 0.06378 0.03419 0.04527 0.0
C8 C 0.06052 0.05083 0.03215 0.0
H9 H 0.30275 0.69223 0.24548 0.0
H10 H 0.32028 0.74438 0.21001 0.0
H11 H 0.26859 0.70845 0.1917 0.0
C12 C 0.30045 0.70194 0.2323 0.0
C13 C 0.28396 0.69827 0.21904 0.0
C14 C 0.31365 0.71849 0.22912 0.0
C15 C 0.31019 0.73155 0.21248 0.0
C16 C 0.29385 0.72815 0.19899 0.0
C17 C 0.28086 0.71145 0.20238 0.0
H18 H 0.95977 0.49418 0.07122 0.0
H19 H 0.99483 0.44178 0.05381 0.0
H20 H 0.94239 0.45922 0.0185 0.0
C21 C 0.96233 0.48147 0.06103 0.0
C22 C 0.94904 0.47833 0.04445 0.0
C23 C 0.97892 0.46838 0.06457 0.0
C24 C 0.9821 0.45193 0.05121 0.0
C25 C 0.96902 0.44846 0.03452 0.0
C26 C 0.95253 0.46176 0.03131 0.0
H27 H 0.69204 0.76772 0.21037 0.0
H28 H 0.74446 0.80284 0.19294 0.0
H29 H 0.70939 0.82039 0.24534 0.0
C30 C 0.70218 0.78049 0.21291 0.0
C31 C 0.69867 0.79365 0.22948 0.0
C32 C 0.71866 0.78366 0.19961 0.0
C33 C 0.73173 0.80029 0.20309 0.0
C34 C 0.72855 0.81365 0.21955 0.0
C35 C 0.71196 0.81018 0.23263 0.0
H36 H 0.0183 0.94218 0.46036 0.0
H37 H 0.05321 0.99501 0.44346 0.0
H38 H 0.07144 0.95899 0.49507 0.0
C39 C 0.03109 0.95229 0.46294 0.0
C40 C 0.04428 0.94865 0.47952 0.0
C41 C 0.03424 0.96885 0.44967 0.0
C42 C 0.0509 0.98188 0.45321 0.0
C43 C 0.06427 0.97852 0.46965 0.0
C44 C 0.06084 0.96189 0.4827 0.0
H45 H 0.194 0.74611 0.80291 0.0
H46 H 0.24629 0.71082 0.82044 0.0
H47 H 0.21028 0.69264 0.76865 0.0
C48 C 0.20375 0.73302 0.80059 0.0
C49 C 0.20006 0.71982 0.78407 0.0
C50 C 0.22036 0.72987 0.81381 0.0
C51 C 0.23343 0.7133 0.81034 0.0
C52 C 0.23002 0.69992 0.79394 0.0
C53 C 0.21328 0.70327 0.78095 0.0
H54 H 0.94264 0.55325 0.49492 0.0
H55 H 0.99505 0.57046 0.45976 0.0
H56 H 0.96003 0.5179 0.44238 0.0
C57 C 0.95254 0.5507 0.48197 0.0
C58 C 0.94919 0.53386 0.46908 0.0
C59 C 0.96906 0.56393 0.47874 0.0
C60 C 0.98229 0.5603 0.46234 0.0
C61 C 0.97919 0.54363 0.44927 0.0
C62 C 0.96266 0.53048 0.45276 0.0
H63 H 0.76888 0.80232 0.82094 0.0
H64 H 0.80344 0.81908 0.76775 0.0
H65 H 0.82109 0.76705 0.80346 0.0
C66 C 0.78129 0.79951 0.81045 0.0
C67 C 0.7944 0.78297 0.814 0.0
C68 C 0.78447 0.8128 0.7939 0.0
C69 C 0.80109 0.8093 0.78087 0.0
C70 C 0.81439 0.79286 0.7842 0.0
C71 C 0.81091 0.77977 0.8008 0.0
H72 H 0.26873 0.30263 0.32137 0.0
H73 H 0.30316 0.31986 0.26833 0.0
H74 H 0.3203 0.26694 0.30311 0.0
C75 C 0.28105 0.29983 0.31078 0.0
C76 C 0.29415 0.28326 0.31418 0.0
C77 C 0.28413 0.31315 0.29425 0.0
C78 C 0.30065 0.30967 0.28108 0.0
C79 C 0.31396 0.29316 0.2842 0.0
C80 C 0.31053 0.28004 0.30082 0.0
H81 H 0.45961 0.99338 0.57199 0.0
H82 H 0.49453 0.94088 0.5547 0.0
H83 H 0.44217 0.95819 0.51923 0.0
C84 C 0.46221 0.98082 0.56159 0.0
C85 C 0.44874 0.9775 0.54516 0.0
C86 C 0.47871 0.96768 0.56515 0.0
C87 C 0.48178 0.95104 0.55206 0.0
C88 C 0.46856 0.94746 0.53556 0.0
C89 C 0.45206 0.96069 0.53226 0.0
H90 H 0.19254 0.26861 0.70999 0.0
H91 H 0.24557 0.30325 0.69298 0.0
H92 H 0.21026 0.32103 0.74512 0.0
C93 C 0.20304 0.28106 0.71274 0.0
C94 C 0.1996 0.29424 0.72927 0.0
C95 C 0.21949 0.28422 0.69938 0.0
C96 C 0.23253 0.30091 0.7028 0.0
C97 C 0.22931 0.31426 0.71923 0.0
C98 C 0.21281 0.3108 0.7324 0.0
H99 H 0.80338 0.19172 0.74501 0.0
H100 H 0.82034 0.24455 0.71009 0.0
H101 H 0.76849 0.20887 0.69206 0.0
C102 C 0.80078 0.20188 0.73225 0.0
C103 C 0.78413 0.19838 0.71913 0.0
C104 C 0.8141 0.21838 0.72906 0.0
C105 C 0.81055 0.23147 0.71243 0.0
C106 C 0.79403 0.22824 0.69913 0.0
C107 C 0.78092 0.21168 0.7026 0.0
H108 H 0.51883 0.57089 0.55346 0.0
H109 H 0.55422 0.51878 0.5713 0.0
H110 H 0.57134 0.55385 0.51846 0.0
C111 C 0.53166 0.56082 0.55099 0.0
C112 C 0.54488 0.56445 0.53458 0.0
C113 C 0.53486 0.54428 0.56422 0.0
C114 C 0.55148 0.53125 0.56081 0.0
C115 C 0.56489 0.53458 0.54442 0.0
C116 C 0.56146 0.55132 0.53143 0.0
H117 H 0.51799 0.44214 0.95986 0.0
H118 H 0.55324 0.49453 0.94238 0.0
H119 H 0.56997 0.4599 0.99563 0.0
C120 C 0.53051 0.45255 0.96264 0.0
C121 C 0.54362 0.44906 0.97926 0.0
C122 C 0.53383 0.46894 0.94923 0.0
C123 C 0.55056 0.48191 0.95267 0.0
C124 C 0.56383 0.47875 0.96929 0.0
C125 C 0.56019 0.46224 0.98248 0.0
H126 H 0.69236 0.24493 0.30275 0.0
H127 H 0.74413 0.20936 0.32101 0.0
H128 H 0.70943 0.19212 0.26794 0.0
C129 C 0.70216 0.23187 0.30046 0.0
C130 C 0.69866 0.21876 0.28383 0.0
C131 C 0.71864 0.22869 0.31381 0.0
C132 C 0.73174 0.21214 0.31041 0.0
C133 C 0.7286 0.19882 0.29388 0.0
C134 C 0.71199 0.20229 0.2807 0.0
H135 H 0.44127 0.0528 0.99252 0.0
H136 H 0.49543 0.06968 0.95955 0.0
H137 H 0.46233 0.01563 0.94296 0.0
C138 C 0.45231 0.04991 0.98061 0.0
C139 C 0.45005 0.03256 0.96827 0.0
C140 C 0.46873 0.06341 0.97776 0.0
C141 C 0.48256 0.0596 0.96184 0.0
C142 C 0.48036 0.04242 0.94922 0.0
C143 C 0.46424 0.02881 0.95274 0.0
Li144 Li 0.27434 0.89567 1.0037 0.0
Li145 Li 0.25906 0.86871 0.02545 0.0
Li146 Li 0.25199 0.86924 0.98891 0.0
Li147 Li 0.23834 0.89509 0.01241 0.0
C148 C 0.29297 0.86021 0.98846 0.0
N149 N 0.32163 0.84922 0.95974 0.0
C150 C 0.30588 0.84371 0.9921 0.0
C151 C 0.29455 0.87109 0.97018 0.0
C152 C 0.3203 0.8384 0.9774 0.0
C153 C 0.30916 0.8653 0.95586 0.0
C154 C 0.25614 0.9147 0.0426 0.0
C155 C 0.23549 0.92971 0.06903 0.0
N156 N 0.24329 0.94834 0.06445 0.0
C157 C 0.26414 0.93397 0.03835 0.0
C158 C 0.24187 0.91252 0.05825 0.0
C159 C 0.2574 0.95079 0.0495 0.0
C160 C 0.29466 0.93096 0.99004 0.0
N161 N 0.29763 0.91228 0.99845 0.0
C162 C 0.33364 0.91769 0.99925 0.0
C163 C 0.31662 0.90548 1.00309 0.0
C164 C 0.33109 0.93729 0.99088 0.0
C165 C 0.31118 0.94383 0.98631 0.0
H166 H 0.27936 0.93605 0.98667 0.0
H167 H 0.31857 0.89052 0.00973 0.0
C168 C 0.26612 0.83043 0.04382 0.0
N169 N 0.2643 0.85069 0.04769 0.0
C170 C 0.26932 0.81671 0.05982 0.0
C171 C 0.26895 0.84499 0.08343 0.0
C172 C 0.2658 0.85816 0.06698 0.0
C173 C 0.2707 0.82393 0.07998 0.0
H174 H 0.26483 0.82494 0.0283 0.0
H175 H 0.26449 0.87435 0.0696 0.0
C176 C 0.23667 0.9057 0.97124 0.0
N177 N 0.2074 0.91843 0.94368 0.0
C178 C 0.21761 0.89618 0.97066 0.0
C179 C 0.24081 0.92172 0.95783 0.0
C180 C 0.20303 0.90284 0.95661 0.0
C181 C 0.22582 0.92792 0.94399 0.0
C182 C 0.22282 0.8508 0.02276 0.0
C183 C 0.21819 0.83191 0.01407 0.0
C184 C 0.2178 0.85446 0.04314 0.0
C185 C 0.20922 0.8168 0.02609 0.0
C186 C 0.20888 0.83897 0.05469 0.0
N187 N 0.20484 0.82059 0.046 0.0
C188 C 0.25067 0.83178 0.9684 0.0
C189 C 0.24556 0.85982 0.94625 0.0
C190 C 0.24828 0.81814 0.9522 0.0
N191 N 0.24871 0.85216 0.9653 0.0
C192 C 0.24323 0.84675 0.92957 0.0
C193 C 0.24432 0.82558 0.93249 0.0
H194 H 0.25412 0.82611 0.98352 0.0
H195 H 0.24496 0.87606 0.94384 0.0
C196 C 0.2178 0.93284 0.01304 0.0
N197 N 0.21562 0.91266 0.01716 0.0
C198 C 0.20162 0.94625 0.01617 0.0
C199 C 0.18104 0.91779 0.02721 0.0
C200 C 0.19768 0.90495 0.024 0.0
C201 C 0.18291 0.93877 0.02334 0.0
H202 H 0.23213 0.9385 0.00724 0.0
H203 H 0.19623 0.88882 0.02686 0.0
O204 O 0.27859 0.86537 1.00259 0.0
O205 O 0.26226 0.8981 0.03151 0.0
O206 O 0.25109 0.89972 0.98511 0.0
O207 O 0.23194 0.8657 0.01131 0.0
H208 H 0.30474 0.83507 0.00613 0.0
H209 H 0.28456 0.88381 0.96703 0.0
H210 H 0.33041 0.82567 0.98001 0.0
H211 H 0.31056 0.87358 0.94165 0.0
H212 H 0.22432 0.92823 0.08104 0.0
H213 H 0.27535 0.93599 0.02653 0.0
H214 H 0.23568 0.89777 0.062 0.0
H215 H 0.26337 0.9658 0.04624 0.0
H216 H 0.34862 0.91172 1.0027 0.0
H217 H 0.30825 0.95889 0.98026 0.0
H218 H 0.27037 0.8006 0.05647 0.0
H219 H 0.27022 0.85126 0.09867 0.0
H220 H 0.21409 0.88378 0.98091 0.0
H221 H 0.25546 0.92927 0.95808 0.0
H222 H 0.18823 0.89561 0.956 0.0
H223 H 0.22882 0.94029 0.93351 0.0
H224 H 0.22124 0.82897 0.99817 0.0
H225 H 0.22096 0.86903 0.05005 0.0
H226 H 0.20566 0.80209 0.01956 0.0
H227 H 0.20518 0.84156 0.07055 0.0
H228 H 0.24975 0.80195 0.95504 0.0
H229 H 0.2403 0.85314 0.91461 0.0
H230 H 0.20363 0.96225 0.01269 0.0
H231 H 0.16693 0.9114 0.03284 0.0
Li232 Li 0.11887 0.50876 0.2761 0.0
Li233 Li 0.14457 0.48749 0.26062 0.0
Li234 Li 0.14458 0.52409 0.25477 0.0
Li235 Li 0.11868 0.50289 0.23944 0.0
C236 C 0.154 0.50101 0.2993 0.0
N237 N 0.16471 0.48351 0.33615 0.0
C238 C 0.14266 0.48476 0.30712 0.0
C239 C 0.17079 0.50834 0.31021 0.0
C240 C 0.14832 0.47613 0.32578 0.0
C241 C 0.17596 0.4993 0.32882 0.0
C242 C 0.10946 0.46429 0.25311 0.0
C243 C 0.11504 0.43773 0.22833 0.0
N244 N 0.09869 0.42744 0.2358 0.0
C245 C 0.09271 0.45347 0.26052 0.0
C246 C 0.12073 0.45639 0.23688 0.0
C247 C 0.08751 0.43486 0.25157 0.0
C248 C 0.0815 0.50811 0.29678 0.0
N249 N 0.1015 0.51297 0.29909 0.0
C250 C 0.09562 0.52416 0.33331 0.0
C251 C 0.10869 0.52106 0.31683 0.0
C252 C 0.07488 0.51927 0.33137 0.0
C253 C 0.06782 0.51125 0.31278 0.0
H254 H 0.07618 0.50188 0.28244 0.0
H255 H 0.12455 0.52528 0.31817 0.0
C256 C 0.18164 0.4662 0.25871 0.0
N257 N 0.16192 0.46448 0.26471 0.0
C258 C 0.19522 0.45009 0.26173 0.0
C259 C 0.16792 0.43069 0.27696 0.0
C260 C 0.15492 0.44722 0.27379 0.0
C261 C 0.18843 0.43197 0.27096 0.0
H262 H 0.18684 0.4802 0.25174 0.0
H263 H 0.13924 0.44628 0.27866 0.0
C264 C 0.10986 0.54741 0.26252 0.0
N265 N 0.09988 0.58437 0.27997 0.0
C266 C 0.09343 0.55865 0.25498 0.0
C267 C 0.12122 0.55495 0.27896 0.0
C268 C 0.08863 0.57731 0.264 0.0
C269 C 0.11593 0.57367 0.28756 0.0
C270 C 0.1535 0.51053 0.21603 0.0
C271 C 0.14204 0.5267 0.20821 0.0
C272 C 0.17016 0.50322 0.20505 0.0
C273 C 0.14745 0.53528 0.18949 0.0
C274 C 0.17509 0.5122 0.18637 0.0
N275 N 0.16373 0.52792 0.17904 0.0
C276 C 0.18169 0.54548 0.25653 0.0
C277 C 0.15484 0.56426 0.24135 0.0
C278 C 0.19525 0.56159 0.25333 0.0
N279 N 0.16193 0.5471 0.25056 0.0
C280 C 0.16781 0.58078 0.23798 0.0
C281 C 0.18838 0.5796 0.24393 0.0
H282 H 0.18696 0.53155 0.2636 0.0
H283 H 0.13912 0.56513 0.2365 0.0
C284 C 0.08144 0.50462 0.21818 0.0
N285 N 0.10119 0.49873 0.21643 0.0
C286 C 0.06781 0.5016 0.20203 0.0
C287 C 0.09515 0.48662 0.18252 0.0
C288 C 0.10818 0.48972 0.19912 0.0
C289 C 0.07465 0.49256 0.18387 0.0
H290 H 0.07628 0.51162 0.23219 0.0
H291 H 0.12386 0.48481 0.1982 0.0
O292 O 0.14895 0.50963 0.28097 0.0
O293 O 0.11455 0.48261 0.26166 0.0
O294 O 0.11457 0.52905 0.25389 0.0
O295 O 0.14866 0.50193 0.23441 0.0
H296 H 0.12961 0.47888 0.29893 0.0
H297 H 0.17974 0.52088 0.30432 0.0
H298 H 0.13969 0.46355 0.33201 0.0
H299 H 0.18891 0.50482 0.33743 0.0
H300 H 0.12363 0.43144 0.21577 0.0
H301 H 0.08381 0.45943 0.27306 0.0
H302 H 0.13374 0.46452 0.23093 0.0
H303 H 0.07458 0.42632 0.25715 0.0
H304 H 0.10158 0.53065 0.3473 0.0
H305 H 0.05194 0.50723 0.31072 0.0
H306 H 0.21094 0.45197 0.25717 0.0
H307 H 0.16187 0.417 0.28388 0.0
H308 H 0.08447 0.55299 0.24228 0.0
H309 H 0.13399 0.5465 0.28501 0.0
H310 H 0.07595 0.58618 0.25831 0.0
H311 H 0.12458 0.57968 0.30028 0.0
H312 H 0.12907 0.53256 0.21646 0.0
H313 H 0.1792 0.49073 0.21092 0.0
H314 H 0.13872 0.5478 0.18326 0.0
H315 H 0.18795 0.50669 0.1777 0.0
H316 H 0.21101 0.55978 0.25787 0.0
H317 H 0.16171 0.59439 0.23093 0.0
H318 H 0.05216 0.5065 0.20363 0.0
H319 H 0.10095 0.47932 0.16891 0.0
Li320 Li 0.73839 0.61804 1.00415 0.0
Li321 Li 0.75369 0.64383 0.02551 0.0
Li322 Li 0.75969 0.64383 0.9889 0.0
Li323 Li 0.77493 0.61803 0.01026 0.0
C324 C 0.71511 0.65293 0.01165 0.0
N325 N 0.67814 0.66323 0.02879 0.0
C326 C 0.70729 0.64153 0.02787 0.0
C327 C 0.70414 0.66956 1.00416 0.0
C328 C 0.68857 0.64698 0.03632 0.0
C329 C 0.68547 0.67452 0.01302 0.0
C330 C 0.76124 0.60893 0.0489 0.0
C331 C 0.78597 0.61486 0.07555 0.0
N332 N 0.77848 0.59862 0.08601 0.0
C333 C 0.7538 0.5923 0.0599 0.0
C334 C 0.77747 0.62032 0.05676 0.0
C335 C 0.76271 0.58733 0.07864 0.0
C336 C 0.71711 0.58092 1.00591 0.0
N337 N 0.71541 0.60066 0.99989 0.0
C338 C 0.68158 0.5947 0.98763 0.0
C339 C 0.69816 0.60769 0.99076 0.0
C340 C 0.68288 0.57422 0.99369 0.0
C341 C 0.70097 0.56734 1.00288 0.0
H342 H 0.73107 0.57573 0.01301 0.0
H343 H 0.69728 0.62335 0.98578 0.0
C344 C 0.75536 0.68098 0.04681 0.0
N345 N 0.74947 0.66121 0.04852 0.0
C346 C 0.75221 0.69457 0.06291 0.0
C347 C 0.73708 0.66717 0.08227 0.0
C348 C 0.74037 0.65416 0.06575 0.0
C349 C 0.74296 0.68774 0.08101 0.0
H350 H 0.76234 0.68622 0.03282 0.0
H351 H 0.73558 0.63844 0.06668 0.0
C352 C 0.75208 0.60894 0.96551 0.0
N353 N 0.73484 0.59862 0.9284 0.0
C354 C 0.75946 0.59227 0.95455 0.0
C355 C 0.73591 0.62036 0.95761 0.0
C356 C 0.75055 0.5873 0.93581 0.0
C357 C 0.72741 0.6149 0.93882 0.0
C358 C 0.79829 0.65296 1.00276 0.0
C359 C 0.80615 0.64153 0.9866 0.0
C360 C 0.80921 0.66967 0.01019 0.0
C361 C 0.82487 0.64703 0.97815 0.0
C362 C 0.82789 0.67467 1.00133 0.0
N363 N 0.83526 0.66334 0.98563 0.0
C364 C 0.7578 0.68087 0.9674 0.0
C365 C 0.77322 0.65415 0.94873 0.0
C366 C 0.7609 0.69441 0.95124 0.0
N367 N 0.76392 0.66118 0.96586 0.0
C368 C 0.7765 0.66711 0.93216 0.0
C369 C 0.77037 0.6876 0.93326 0.0
H370 H 0.75065 0.6861 0.98131 0.0
H371 H 0.77816 0.63847 0.94793 0.0
C372 C 0.79605 0.58086 0.00855 0.0
N373 N 0.79787 0.60061 0.0145 0.0
C374 C 0.81213 0.56725 0.01154 0.0
C375 C 0.83172 0.59459 0.02663 0.0
C376 C 0.81519 0.60761 0.02355 0.0
C377 C 0.8303 0.5741 0.02062 0.0
H378 H 0.78203 0.57569 1.00153 0.0
H379 H 0.81617 0.62329 0.02849 0.0
O380 O 0.73348 0.64805 1.00316 0.0
O381 O 0.75272 0.61381 0.03047 0.0
O382 O 0.7606 0.61382 0.98395 0.0
O383 O 0.77992 0.64804 0.01124 0.0
H384 H 0.71553 0.62859 0.03386 0.0
H385 H 0.71001 0.67855 0.99163 0.0
H386 H 0.68234 0.63829 0.04887 0.0
H387 H 0.67681 0.68736 0.00738 0.0
H388 H 0.79853 0.62355 0.08181 0.0
H389 H 0.74127 0.58331 0.05399 0.0
H390 H 0.78343 0.63326 0.0485 0.0
H391 H 0.7571 0.57449 0.08732 0.0
H392 H 0.66802 0.60054 0.98023 0.0
H393 H 0.70254 0.5517 0.00788 0.0
H394 H 0.75668 0.71033 0.06102 0.0
H395 H 0.73015 0.66108 0.09595 0.0
H396 H 0.77195 0.58327 0.96049 0.0
H397 H 0.72999 0.63332 0.96584 0.0
H398 H 0.75612 0.57444 0.92716 0.0
H399 H 0.7149 0.6236 0.93253 0.0
H400 H 0.79794 0.62854 0.98066 0.0
H401 H 0.8033 0.67868 0.02268 0.0
H402 H 0.83113 0.63832 0.96565 0.0
H403 H 0.83651 0.68757 0.00693 0.0
H404 H 0.75623 0.71012 0.95298 0.0
H405 H 0.7836 0.66105 0.91857 0.0
H406 H 0.81047 0.5516 0.00659 0.0
H407 H 0.84535 0.6004 0.03394 0.0
Li408 Li 0.86806 0.02465 0.25999 0.0
Li409 Li 0.89393 1.00345 0.27533 0.0
Li410 Li 0.89382 0.00942 0.2387 0.0
Li411 Li 0.8681 0.9881 0.25401 0.0
C412 C 0.90292 0.04805 0.25241 0.0
N413 N 0.91319 0.08503 0.23513 0.0
C414 C 0.91959 0.05904 0.25985 0.0
C415 C 0.89147 0.05584 0.23617 0.0
C416 C 0.92453 0.07772 0.25091 0.0
C417 C 0.89691 0.07457 0.22765 0.0
C418 C 0.85909 0.01094 0.29869 0.0
C419 C 0.83758 0.01237 0.32841 0.0
N420 N 0.84888 0.02814 0.33574 0.0
C421 C 0.87049 0.02717 0.30651 0.0
C422 C 0.8425 1.00347 0.3097 0.0
C423 C 0.86509 0.03566 0.32527 0.0
C424 C 0.83091 0.04582 0.25821 0.0
N425 N 0.85067 0.04759 0.26417 0.0
C426 C 0.84473 0.08141 0.27631 0.0
C427 C 0.85772 0.06487 0.27322 0.0
C428 C 0.82422 0.08004 0.2703 0.0
C429 C 0.81733 0.06191 0.2612 0.0
H430 H 0.8257 0.03184 0.25117 0.0
H431 H 0.87341 0.06581 0.27817 0.0
C432 C 0.93114 1.00527 0.29656 0.0
N433 N 0.9114 0.99931 0.29835 0.0
C434 C 0.9448 1.00229 0.31268 0.0
C435 C 0.91752 0.98722 0.33225 0.0
C436 C 0.90445 0.99029 0.31568 0.0
C437 C 0.93801 0.99322 0.33086 0.0
H438 H 0.93627 0.01227 0.28253 0.0
H439 H 0.88878 0.98534 0.31662 0.0
C440 C 0.85889 1.00175 0.21531 0.0
N441 N 0.84854 0.98447 0.17826 0.0
C442 C 0.87031 0.98558 0.20751 0.0
C443 C 0.84222 0.00912 0.20429 0.0
C444 C 0.86482 0.97706 0.18875 0.0
C445 C 0.83723 1.00019 0.18557 0.0
C446 C 0.90307 0.96487 0.26163 0.0
C447 C 0.91972 0.95395 0.2542 0.0
C448 C 0.89173 0.95703 0.27787 0.0
C449 C 0.92476 0.9353 0.26314 0.0
C450 C 0.89727 0.93833 0.2864 0.0
N451 N 0.91352 0.92794 0.27892 0.0
C452 C 0.93089 0.00777 0.21745 0.0
C453 C 0.90408 0.02276 0.19842 0.0
C454 C 0.94446 0.01089 0.20136 0.0
N455 N 0.91114 0.01367 0.2157 0.0
C456 C 0.91706 0.02602 0.18189 0.0
C457 C 0.93761 0.02012 0.1832 0.0
H458 H 0.93614 1.0008 0.23148 0.0
H459 H 0.88837 0.02756 0.19746 0.0
C460 C 0.831 0.96677 0.2557 0.0
N461 N 0.85074 0.96508 0.24979 0.0
C462 C 0.81741 0.95066 0.25259 0.0
C463 C 0.84477 0.93132 0.23746 0.0
C464 C 0.85776 0.94786 0.2407 0.0
C465 C 0.82423 0.93256 0.24337 0.0
H466 H 0.82578 0.98075 0.26266 0.0
H467 H 0.87347 0.94694 0.2359 0.0
O468 O 0.89806 0.02966 0.26096 0.0
O469 O 0.86393 1.00242 0.28028 0.0
O470 O 0.8638 0.0103 0.23372 0.0
O471 O 0.89812 0.98323 0.25307 0.0
H472 H 0.92861 0.05317 0.27239 0.0
H473 H 0.87851 0.04758 0.23021 0.0
H474 H 0.9374 0.08639 0.25652 0.0
H475 H 0.88819 0.08078 0.21508 0.0
H476 H 0.82478 0.00674 0.3371 0.0
H477 H 0.8834 0.03315 0.29824 0.0
H478 H 0.83351 0.99093 0.30382 0.0
H479 H 0.87378 0.04822 0.3315 0.0
H480 H 0.85058 0.095 0.28364 0.0
H481 H 0.80166 0.06029 0.25623 0.0
H482 H 0.96045 0.00724 0.31104 0.0
H483 H 0.91175 0.9799 0.34587 0.0
H484 H 0.88328 0.97967 0.21579 0.0
H485 H 0.83322 0.02162 0.21015 0.0
H486 H 0.87352 0.96454 0.18253 0.0
H487 H 0.82435 1.00575 0.17687 0.0
H488 H 0.92866 0.95985 0.24166 0.0
H489 H 0.87879 0.96523 0.28382 0.0
H490 H 0.93761 0.92668 0.25754 0.0
H491 H 0.88863 0.93208 0.29896 0.0
H492 H 0.96021 0.0064 0.20327 0.0
H493 H 0.91097 0.03294 0.16818 0.0
H494 H 0.80168 0.95252 0.25708 0.0
H495 H 0.85084 0.91765 0.23055 0.0
Li496 Li 0.25414 0.14386 0.52561 0.0
Li497 Li 0.23879 0.11806 0.50428 0.0
Li498 Li 0.27532 0.11797 0.51041 0.0
Li499 Li 0.26015 0.14379 0.489 0.0
C500 C 0.26158 0.109 0.54908 0.0
N501 N 0.27876 0.09875 0.58622 0.0
C502 C 0.25409 0.09241 0.56011 0.0
C503 C 0.27782 0.12038 0.55692 0.0
C504 C 0.26297 0.08748 0.57887 0.0
C505 C 0.28629 0.11495 0.57573 0.0
C506 C 0.21557 0.15301 0.5117 0.0
C507 C 0.186 0.1747 0.51305 0.0
N508 N 0.17862 0.16343 0.52881 0.0
C509 C 0.2077 0.14164 0.52792 0.0
C510 C 0.20467 0.16968 0.5042 0.0
C511 C 0.189 0.14715 0.53635 0.0
C512 C 0.25598 0.18103 0.54685 0.0
N513 N 0.24995 0.1613 0.54858 0.0
C514 C 0.23752 0.16741 0.58229 0.0
C515 C 0.24077 0.15435 0.5658 0.0
C516 C 0.24354 0.18794 0.581 0.0
C517 C 0.25288 0.19467 0.56291 0.0
H518 H 0.26303 0.1862 0.53287 0.0
H519 H 0.23588 0.13865 0.56675 0.0
C520 C 0.21737 0.08102 0.50617 0.0
N521 N 0.21576 0.10072 0.50002 0.0
C522 C 0.20123 0.06746 0.50309 0.0
C523 C 0.18205 0.09474 0.48747 0.0
C524 C 0.19861 0.10772 0.49072 0.0
C525 C 0.18321 0.07424 0.49363 0.0
H526 H 0.2313 0.07582 0.51332 0.0
H527 H 0.19775 0.1234 0.48575 0.0
C528 C 0.29878 0.15281 0.50287 0.0
N529 N 0.3358 0.16303 0.48574 0.0
C530 C 0.30659 0.14135 0.48671 0.0
C531 C 0.30978 0.16947 0.51031 0.0
C532 C 0.32533 0.14676 0.47826 0.0
C533 C 0.32848 0.17439 0.50145 0.0
C534 C 0.25248 0.10889 0.46565 0.0
C535 C 0.25984 0.09219 0.45472 0.0
C536 C 0.23636 0.12034 0.45771 0.0
C537 C 0.25094 0.08721 0.43598 0.0
C538 C 0.22786 0.11487 0.43892 0.0
N539 N 0.23527 0.09856 0.42853 0.0
C540 C 0.29636 0.08075 0.50872 0.0
C541 C 0.31548 0.1074 0.52388 0.0
C542 C 0.31237 0.06707 0.51182 0.0
N543 N 0.2982 0.10048 0.51471 0.0
C544 C 0.33192 0.0943 0.52713 0.0
C545 C 0.33052 0.07377 0.52113 0.0
H546 H 0.28234 0.07562 0.50169 0.0
H547 H 0.31652 0.1231 0.52873 0.0
C548 C 0.25832 0.18084 0.46754 0.0
N549 N 0.2644 0.16114 0.46596 0.0
C550 C 0.26137 0.19439 0.45138 0.0
C551 C 0.27684 0.16708 0.43221 0.0
C552 C 0.27362 0.15411 0.44879 0.0
C553 C 0.27074 0.18758 0.43334 0.0
H554 H 0.25124 0.18606 0.48148 0.0
H555 H 0.27853 0.13843 0.44794 0.0
O556 O 0.25308 0.11386 0.53062 0.0
O557 O 0.23394 0.14808 0.50325 0.0
O558 O 0.28039 0.14798 0.51135 0.0
O559 O 0.261 0.11378 0.48409 0.0
H560 H 0.24154 0.08344 0.55421 0.0
H561 H 0.28382 0.13329 0.54864 0.0
H562 H 0.25732 0.07467 0.58758 0.0
H563 H 0.29886 0.12362 0.58198 0.0
H564 H 0.17739 0.18757 0.50739 0.0
H565 H 0.21589 0.12868 0.53392 0.0
H566 H 0.21058 0.17865 0.49168 0.0
H567 H 0.18273 0.13849 0.5489 0.0
H568 H 0.23051 0.16139 0.59596 0.0
H569 H 0.25747 0.2104 0.56101 0.0
H570 H 0.20303 0.05175 0.50779 0.0
H571 H 0.16844 0.10078 0.48037 0.0
H572 H 0.29833 0.12839 0.48076 0.0
H573 H 0.30391 0.1785 0.52279 0.0
H574 H 0.33156 0.13803 0.46576 0.0
H575 H 0.33716 0.18724 0.50705 0.0
H576 H 0.2723 0.08316 0.46069 0.0
H577 H 0.23046 0.13333 0.46591 0.0
H578 H 0.25648 0.07432 0.42735 0.0
H579 H 0.21538 0.12359 0.4326 0.0
H580 H 0.31038 0.05135 0.50726 0.0
H581 H 0.34563 0.10029 0.53411 0.0
H582 H 0.25673 0.21011 0.45316 0.0
H583 H 0.28387 0.16102 0.41858 0.0
Li584 Li 0.39469 0.50384 0.77396 0.0
Li585 Li 0.36777 0.52519 0.75787 0.0
Li586 Li 0.36916 0.48889 0.75256 0.0
Li587 Li 0.39499 0.50907 0.73737 0.0
C588 C 0.35941 0.51189 0.79682 0.0
N589 N 0.34899 0.52951 0.83362 0.0
C590 C 0.36982 0.52914 0.80381 0.0
C591 C 0.34367 0.50366 0.80852 0.0
C592 C 0.36433 0.53781 0.82246 0.0
C593 C 0.33864 0.51277 0.82709 0.0
C594 C 0.40837 0.54505 0.74958 0.0
C595 C 0.41074 0.56985 0.72252 0.0
N596 N 0.43011 0.57425 0.72847 0.0
C597 C 0.42827 0.54986 0.75546 0.0
C598 C 0.39949 0.55516 0.73302 0.0
C599 C 0.43902 0.56466 0.74459 0.0
C600 C 0.43219 0.50323 0.79479 0.0
N601 N 0.41194 0.49978 0.79725 0.0
C602 C 0.4174 0.48936 0.83183 0.0
C603 C 0.40442 0.49271 0.81524 0.0
C604 C 0.43839 0.49307 0.82986 0.0
C605 C 0.44574 0.50006 0.81098 0.0
H606 H 0.43786 0.50814 0.78012 0.0
H607 H 0.38838 0.48941 0.81671 0.0
C608 C 0.32998 0.54473 0.76305 0.0
N609 N 0.35038 0.5481 0.762 0.0
C610 C 0.31661 0.56088 0.76659 0.0
C611 C 0.34551 0.58364 0.76828 0.0
C612 C 0.35832 0.56703 0.76481 0.0
C613 C 0.32434 0.58069 0.76916 0.0
H614 H 0.32412 0.52943 0.76132 0.0
H615 H 0.37461 0.56924 0.76467 0.0
C616 C 0.40327 0.46502 0.76125 0.0
N617 N 0.4125 0.4283 0.77968 0.0
C618 C 0.41951 0.4533 0.75414 0.0
C619 C 0.39173 0.45808 0.77776 0.0
C620 C 0.42393 0.43477 0.76365 0.0
C621 C 0.39664 0.43948 0.78686 0.0
C622 C 0.3535 0.50051 0.71796 0.0
C623 C 0.362 0.48591 0.70501 0.0
C624 C 0.33253 0.50405 0.71743 0.0
C625 C 0.34931 0.47495 0.69185 0.0
C626 C 0.32035 0.49276 0.70405 0.0
N627 N 0.32892 0.47855 0.69166 0.0
C628 C 0.33227 0.4671 0.75542 0.0
C629 C 0.35865 0.44871 0.73915 0.0
C630 C 0.3187 0.45096 0.75243 0.0
N631 N 0.35179 0.46571 0.74876 0.0
C632 C 0.34566 0.43213 0.736 0.0
C633 C 0.32532 0.43311 0.7426 0.0
H634 H 0.32717 0.48092 0.76279 0.0
H635 H 0.37418 0.44806 0.73376 0.0
C636 C 0.4331 0.5106 0.7177 0.0
N637 N 0.41275 0.51288 0.71468 0.0
C638 C 0.44671 0.51397 0.70169 0.0
C639 C 0.41811 0.52168 0.67969 0.0
C640 C 0.40508 0.51841 0.69619 0.0
C641 C 0.43923 0.51952 0.68235 0.0
H642 H 0.43875 0.50633 0.73263 0.0
H643 H 0.38886 0.52051 0.69431 0.0
O644 O 0.36428 0.50317 0.77851 0.0
O645 O 0.39774 0.53022 0.75967 0.0
O646 O 0.39897 0.48327 0.75213 0.0
O647 O 0.36562 0.51098 0.73135 0.0
H648 H 0.38204 0.53578 0.79502 0.0
H649 H 0.33543 0.49035 0.80327 0.0
H650 H 0.37226 0.55114 0.82807 0.0
H651 H 0.3265 0.50654 0.83632 0.0
H652 H 0.4041 0.57771 0.7096 0.0
H653 H 0.43535 0.54229 0.7683 0.0
H654 H 0.38413 0.55152 0.72818 0.0
H655 H 0.45444 0.56852 0.74896 0.0
H656 H 0.411 0.48405 0.84608 0.0
H657 H 0.46183 0.50267 0.80858 0.0
H658 H 0.3004 0.55792 0.76713 0.0
H659 H 0.35215 0.59856 0.77063 0.0
H660 H 0.42861 0.4585 0.74141 0.0
H661 H 0.37911 0.46691 0.78352 0.0
H662 H 0.43646 0.42553 0.7583 0.0
H663 H 0.38784 0.43393 0.79964 0.0
H664 H 0.37818 0.48282 0.70541 0.0
H665 H 0.32571 0.51531 0.7273 0.0
H666 H 0.35566 0.46349 0.68187 0.0
H667 H 0.30407 0.49526 0.70355 0.0
H668 H 0.3031 0.45263 0.75746 0.0
H669 H 0.35158 0.41866 0.7286 0.0
H670 H 0.46288 0.51204 0.70434 0.0
H671 H 0.41176 0.52622 0.66511 0.0
Li672 Li 0.77489 0.39433 0.50358 0.0
Li673 Li 0.75958 0.36854 0.5249 0.0
Li674 Li 0.75347 0.36859 0.48827 0.0
Li675 Li 0.73837 0.39443 0.50961 0.0
C676 C 0.7981 0.35935 0.51114 0.0
N677 N 0.83509 0.34889 0.52838 0.0
C678 C 0.80604 0.37073 0.52736 0.0
C679 C 0.80896 0.34265 0.50371 0.0
C680 C 0.82476 0.3652 0.53586 0.0
C681 C 0.82764 0.33761 0.51262 0.0
C682 C 0.75227 0.40342 0.54831 0.0
C683 C 0.72767 0.39751 0.57493 0.0
N684 N 0.73525 0.41373 0.58541 0.0
C685 C 0.7598 0.42003 0.55932 0.0
C686 C 0.73606 0.39205 0.55615 0.0
C687 C 0.751 0.425 0.57806 0.0
C688 C 0.79626 0.43141 0.50532 0.0
N689 N 0.7979 0.41167 0.49936 0.0
C690 C 0.83162 0.41761 0.487 0.0
C691 C 0.81508 0.40463 0.49023 0.0
C692 C 0.83043 0.43815 0.49297 0.0
C693 C 0.81237 0.44498 0.50224 0.0
H694 H 0.78232 0.43665 0.51233 0.0
H695 H 0.81596 0.38892 0.48538 0.0
C696 C 0.75759 0.33142 0.54621 0.0
N697 N 0.76378 0.3511 0.5479 0.0
C698 C 0.76064 0.31778 0.56231 0.0
C699 C 0.77632 0.34495 0.58165 0.0
C700 C 0.7731 0.35801 0.56513 0.0
C701 C 0.77012 0.32447 0.5804 0.0
H702 H 0.75044 0.32628 0.53222 0.0
H703 H 0.77809 0.37367 0.56606 0.0
C704 C 0.76107 0.40345 0.46489 0.0
N705 N 0.77818 0.41369 0.42781 0.0
C706 C 0.75366 0.4201 0.45388 0.0
C707 C 0.77719 0.392 0.45706 0.0
C708 C 0.76251 0.42503 0.43515 0.0
C709 C 0.78564 0.39742 0.43829 0.0
C710 C 0.71488 0.3596 0.50202 0.0
C711 C 0.70702 0.37107 0.48583 0.0
C712 C 0.7039 0.34294 0.50941 0.0
C713 C 0.68826 0.36565 0.47731 0.0
C714 C 0.68518 0.33801 0.50048 0.0
N715 N 0.67782 0.34937 0.48475 0.0
C716 C 0.75523 0.33151 0.46691 0.0
C717 C 0.73987 0.3582 0.44803 0.0
C718 C 0.75212 0.31792 0.45077 0.0
N719 N 0.74914 0.35121 0.46524 0.0
C720 C 0.73659 0.34519 0.43148 0.0
C721 C 0.74269 0.32469 0.43269 0.0
H722 H 0.76236 0.32632 0.48088 0.0
H723 H 0.73496 0.37388 0.44713 0.0
C724 C 0.71727 0.43165 0.5079 0.0
N725 N 0.71549 0.41192 0.51387 0.0
C726 C 0.70127 0.44531 0.51102 0.0
C727 C 0.68185 0.41804 0.52631 0.0
C728 C 0.69828 0.40496 0.52303 0.0
C729 C 0.68319 0.43858 0.52034 0.0
H730 H 0.73124 0.43682 0.50086 0.0
H731 H 0.69729 0.38926 0.52787 0.0
O732 O 0.77972 0.3643 0.50261 0.0
O733 O 0.76069 0.39854 0.52988 0.0
O734 O 0.7526 0.39861 0.48332 0.0
O735 O 0.7333 0.36443 0.51055 0.0
H736 H 0.79789 0.38372 0.53331 0.0
H737 H 0.80299 0.33368 0.49118 0.0
H738 H 0.83108 0.37387 0.54841 0.0
H739 H 0.83621 0.32472 0.50702 0.0
H740 H 0.71513 0.38885 0.58117 0.0
H741 H 0.77233 0.42899 0.55343 0.0
H742 H 0.73003 0.37914 0.54788 0.0
H743 H 0.75669 0.43781 0.58675 0.0
H744 H 0.84525 0.41152 0.48005 0.0
H745 H 0.81055 0.46073 0.50678 0.0
H746 H 0.75592 0.30209 0.56044 0.0
H747 H 0.78344 0.35092 0.59533 0.0
H748 H 0.7412 0.42913 0.45976 0.0
H749 H 0.78313 0.37905 0.46534 0.0
H750 H 0.75693 0.43788 0.42645 0.0
H751 H 0.79812 0.3887 0.43205 0.0
H752 H 0.71527 0.38403 0.4799 0.0
H753 H 0.70981 0.3339 0.52192 0.0
H754 H 0.682 0.37438 0.46478 0.0
H755 H 0.67652 0.32515 0.50605 0.0
H756 H 0.75677 0.30221 0.45261 0.0
H757 H 0.7295 0.35122 0.41781 0.0
H758 H 0.7032 0.46105 0.50648 0.0
H759 H 0.66819 0.41203 0.53329 0.0
Li760 Li 0.6451 0.98715 0.7597 0.0
Li761 Li 0.61942 0.00825 0.77538 0.0
Li762 Li 0.61914 1.00259 0.73866 0.0
Li763 Li 0.64502 0.02381 0.75409 0.0
C764 C 0.61015 0.96388 0.75211 0.0
N765 N 0.59966 0.92707 0.73455 0.0
C766 C 0.59367 0.95274 0.75966 0.0
C767 C 0.62128 0.95633 0.73561 0.0
C768 C 0.58862 0.93415 0.75058 0.0
C769 C 0.61574 0.93768 0.72695 0.0
C770 C 0.65466 1.00046 0.79842 0.0
C771 C 0.67682 0.99858 0.82778 0.0
N772 N 0.66561 0.98278 0.83511 0.0
C773 C 0.64336 0.98419 0.80624 0.0
C774 C 0.67154 0.00772 0.80924 0.0
C775 C 0.64914 0.97546 0.82482 0.0
C776 C 0.68218 0.96582 0.75763 0.0
N777 N 0.66247 0.96413 0.76364 0.0
C778 C 0.66842 0.93033 0.77588 0.0
C779 C 0.65544 0.94688 0.77272 0.0
C780 C 0.68893 0.93158 0.76989 0.0
C781 C 0.69574 0.94969 0.76063 0.0
H782 H 0.6874 0.97982 0.75067 0.0
H783 H 0.63977 0.94596 0.77761 0.0
C784 C 0.58222 0.00715 0.79645 0.0
N785 N 0.60218 0.01228 0.79851 0.0
C786 C 0.5687 0.01016 0.8126 0.0
C787 C 0.59657 0.02349 0.83276 0.0
C788 C 0.60948 0.02051 0.81614 0.0
C789 C 0.57587 0.01833 0.83109 0.0
H790 H 0.57681 1.00081 0.78218 0.0
H791 H 0.6253 0.02491 0.81728 0.0
C792 C 0.654 0.01054 0.71529 0.0
N793 N 0.66434 0.02828 0.67851 0.0
C794 C 0.64255 0.02677 0.70759 0.0
C795 C 0.67071 1.00335 0.7043 0.0
C796 C 0.64803 0.03553 0.68896 0.0
C797 C 0.67569 0.01251 0.68572 0.0
C798 C 0.61014 0.04693 0.76202 0.0
C799 C 0.59353 0.05801 0.75464 0.0
C800 C 0.62153 0.05453 0.7784 0.0
C801 C 0.58859 0.07659 0.76376 0.0
C802 C 0.6161 0.07315 0.78711 0.0
N803 N 0.59989 0.08371 0.77968 0.0
C804 C 0.58156 1.00329 0.71801 0.0
C805 C 0.60861 0.99031 0.69799 0.0
C806 C 0.56778 1.00014 0.702 0.0
N807 N 0.60153 0.99842 0.71571 0.0
C808 C 0.59544 0.98721 0.6815 0.0
C809 C 0.57473 0.99211 0.68342 0.0
H810 H 0.57633 0.00953 0.73234 0.0
H811 H 0.62445 0.98609 0.69666 0.0
C812 C 0.68212 0.04522 0.75578 0.0
N813 N 0.6623 0.04689 0.74998 0.0
C814 C 0.69564 0.06137 0.75264 0.0
C815 C 0.66807 0.08071 0.73772 0.0
C816 C 0.65514 0.06414 0.741 0.0
C817 C 0.68869 0.07948 0.74349 0.0
H818 H 0.68745 0.03122 0.76266 0.0
H819 H 0.63938 0.06505 0.73628 0.0
O820 O 0.6151 0.98218 0.76079 0.0
O821 O 0.64949 0.00918 0.78016 0.0
O822 O 0.64913 1.0018 0.73359 0.0
O823 O 0.61499 0.02865 0.75329 0.0
H824 H 0.58489 0.95842 0.77239 0.0
H825 H 0.63408 0.96472 0.72955 0.0
H826 H 0.57591 0.92535 0.75627 0.0
H827 H 0.62422 0.93165 0.71418 0.0
H828 H 0.68985 1.00404 0.83632 0.0
H829 H 0.63024 0.97837 0.79811 0.0
H830 H 0.68046 0.02028 0.80336 0.0
H831 H 0.64053 0.96287 0.83104 0.0
H832 H 0.66235 0.91666 0.78282 0.0
H833 H 0.71146 0.95154 0.75607 0.0
H834 H 0.55285 0.00593 0.81074 0.0
H835 H 0.60261 0.03011 0.84666 0.0
H836 H 0.62956 0.03254 0.71585 0.0
H837 H 0.67975 0.99082 0.71009 0.0
H838 H 0.6393 0.0481 0.68282 0.0
H839 H 0.68859 0.0071 0.67705 0.0
H840 H 0.58454 0.05229 0.74199 0.0
H841 H 0.63445 0.04619 0.78433 0.0
H842 H 0.57577 0.08533 0.7582 0.0
H843 H 0.62478 0.07922 0.79979 0.0
H844 H 0.55193 1.00417 0.70404 0.0
H845 H 0.60131 0.98071 0.66752 0.0
H846 H 0.71143 0.05952 0.75703 0.0
H847 H 0.6619 0.09439 0.73086 0.0
Li848 Li 0.02542 0.2594 0.86872 0.0
Li849 Li 1.00413 0.27463 0.89452 0.0
Li850 Li 0.01027 0.23811 0.89461 0.0
Li851 Li 0.9889 0.25323 0.86868 0.0
C852 C 0.04883 0.25203 0.90374 0.0
N853 N 0.08589 0.23502 0.91417 0.0
C854 C 0.05979 0.25953 0.92043 0.0
C855 C 0.0567 0.23586 0.89235 0.0
C856 C 0.07851 0.25073 0.92546 0.0
C857 C 0.07546 0.22747 0.89787 0.0
C858 C 0.01154 0.29791 0.85948 0.0
C859 C 0.01291 0.32747 0.83767 0.0
N860 N 0.02859 0.33495 0.84904 0.0
C861 C 0.02767 0.30589 0.87095 0.0
C862 C 1.00409 0.30876 0.8427 0.0
C863 C 0.03608 0.32463 0.86542 0.0
C864 C 0.0468 0.25749 0.83163 0.0
N865 N 0.04838 0.2637 0.85135 0.0
C866 C 0.08198 0.2764 0.8454 0.0
C867 C 0.06547 0.27309 0.85838 0.0
C868 C 0.08085 0.27019 0.82488 0.0
C869 C 0.06289 0.26062 0.81807 0.0
H870 H 0.03292 0.25026 0.8264 0.0
H871 H 0.06632 0.27809 0.87408 0.0
C872 C 1.00568 0.29581 0.93176 0.0
N873 N 0.99984 0.29759 0.91192 0.0
C874 C 1.00257 0.31188 0.94539 0.0
C875 C 0.98761 0.33136 0.91787 0.0
C876 C 0.99081 0.31484 0.90484 0.0
C877 C 0.99349 0.32998 0.93846 0.0
H878 H 0.01269 0.28184 0.937 0.0
H879 H 0.98594 0.31578 0.88909 0.0
C880 C 1.00273 0.21466 0.85969 0.0
N881 N 0.98563 0.17758 0.84944 0.0
C882 C 0.9866 0.20679 0.87113 0.0
C883 C 0.01015 0.20369 0.84304 0.0
C884 C 0.97816 0.18802 0.8657 0.0
C885 C 1.00131 0.18495 0.8381 0.0
C886 C 0.96561 0.26073 0.90362 0.0
C887 C 0.9547 0.25325 0.92029 0.0
C888 C 0.95772 0.27689 0.89218 0.0
C889 C 0.936 0.26206 0.92524 0.0
C890 C 0.93897 0.28529 0.89763 0.0
N891 N 0.92859 0.27777 0.91391 0.0
C892 C 0.00855 0.21693 0.93185 0.0
C893 C 0.02375 0.198 0.90517 0.0
C894 C 0.01162 0.20087 0.94553 0.0
N895 N 0.01457 0.2152 0.91211 0.0
C896 C 0.02697 0.18151 0.91826 0.0
C897 C 0.02092 0.18279 0.9388 0.0
H898 H 1.0015 0.23089 0.937 0.0
H899 H 0.02862 0.19705 0.88946 0.0
C900 C 0.96745 0.25489 0.83149 0.0
N901 N 0.96588 0.24888 0.85127 0.0
C902 C 0.9513 0.25175 0.8179 0.0
C903 C 0.93216 0.23638 0.84533 0.0
C904 C 0.94874 0.23966 0.85833 0.0
C905 C 0.93328 0.2424 0.82475 0.0
H906 H 0.98137 0.26197 0.82624 0.0
H907 H 0.94791 0.23479 0.87406 0.0
O908 O 0.03041 0.26045 0.89881 0.0
O909 O 1.0031 0.27951 0.86443 0.0
O910 O 0.0112 0.23309 0.86454 0.0
O911 O 0.98401 0.25231 0.89875 0.0
H912 H 0.05387 0.27202 0.92942 0.0
H913 H 0.04846 0.22985 0.87937 0.0
H914 H 0.08716 0.25639 0.93834 0.0
H915 H 0.08172 0.21496 0.88919 0.0
H916 H 0.0073 0.33603 0.82472 0.0
H917 H 0.03364 0.29774 0.884 0.0
H918 H 0.99163 0.30277 0.83366 0.0
H919 H 0.04857 0.33098 0.87416 0.0
H920 H 0.09555 0.28359 0.85148 0.0
H921 H 0.06112 0.25587 0.80233 0.0
H922 H 0.00743 0.31025 0.96112 0.0
H923 H 0.9803 0.34493 0.91199 0.0
H924 H 0.98066 0.21504 0.88408 0.0
H925 H 0.02262 0.2096 0.83402 0.0
H926 H 0.96567 0.18175 0.87442 0.0
H927 H 0.0069 0.17629 0.82525 0.0
H928 H 0.96064 0.24077 0.92931 0.0
H929 H 0.96592 0.28289 0.87922 0.0
H930 H 0.92738 0.25642 0.93811 0.0
H931 H 0.93268 0.2978 0.88891 0.0
H932 H 0.00703 0.20276 0.96127 0.0
H933 H 0.03395 0.16785 0.91225 0.0
H934 H 0.95306 0.25634 0.80213 0.0
H935 H 0.91856 0.22936 0.85143 0.0
Li936 Li 0.52467 0.75939 0.36918 0.0
Li937 Li 0.50352 0.7747 0.39509 0.0
Li938 Li 0.50947 0.73811 0.39503 0.0
Li939 Li 0.48807 0.7535 0.36924 0.0
C940 C 0.54811 0.75183 0.40411 0.0
N941 N 0.58513 0.73462 0.41435 0.0
C942 C 0.55931 0.75942 0.42061 0.0
C943 C 0.55572 0.73546 0.39283 0.0
C944 C 0.578 0.75053 0.42554 0.0
C945 C 0.57447 0.72698 0.39825 0.0
C946 C 0.51106 0.79796 0.35993 0.0
C947 C 0.51263 0.82738 0.33795 0.0
N948 N 0.52845 0.83475 0.34919 0.0
C949 C 0.52735 0.80582 0.37126 0.0
C950 C 0.50365 0.80879 0.34313 0.0
C951 C 0.53593 0.82444 0.36559 0.0
C952 C 0.54576 0.75767 0.33193 0.0
N953 N 0.5476 0.76353 0.35174 0.0
C954 C 0.58145 0.77558 0.34578 0.0
C955 C 0.56493 0.77249 0.3588 0.0
C956 C 0.58 0.76967 0.32522 0.0
C957 C 0.56183 0.76066 0.31831 0.0
H958 H 0.53173 0.75072 0.32671 0.0
H959 H 0.56592 0.77739 0.37452 0.0
C960 C 0.50408 0.79527 0.43269 0.0
N961 N 0.49927 0.79759 0.41263 0.0
C962 C 0.50084 0.8112 0.44646 0.0
C963 C 0.48795 0.83168 0.41863 0.0
C964 C 0.49113 0.81526 0.40546 0.0
C965 C 0.49278 0.82973 0.43943 0.0
H966 H 0.51033 0.78097 0.43799 0.0
H967 H 0.48695 0.81661 0.38956 0.0
C968 C 0.50158 0.71493 0.35989 0.0
N969 N 0.4841 0.67814 0.34922 0.0
C970 C 0.48544 0.70705 0.37131 0.0
C971 C 0.50881 0.70413 0.34304 0.0
C972 C 0.47681 0.68842 0.36567 0.0
C973 C 0.49978 0.68554 0.3379 0.0
C974 C 0.46496 0.76096 0.40423 0.0
C975 C 0.4539 0.75331 0.42073 0.0
C976 C 0.45727 0.77738 0.39302 0.0
C977 C 0.43525 0.76221 0.42572 0.0
C978 C 0.43857 0.78586 0.3985 0.0
N979 N 0.42804 0.77816 0.4146 0.0
C980 C 0.50903 0.71728 0.43253 0.0
C981 C 0.52204 0.69755 0.40523 0.0
C982 C 0.51231 0.70125 0.44619 0.0
N983 N 0.51385 0.71514 0.41248 0.0
C984 C 0.52527 0.68104 0.41828 0.0
C985 C 0.52042 0.6828 0.43906 0.0
H986 H 0.50272 0.73151 0.4379 0.0
H987 H 0.52622 0.69634 0.38934 0.0
C988 C 0.46652 0.75547 0.33213 0.0
N989 N 0.46497 0.74938 0.35188 0.0
C990 C 0.45034 0.7524 0.31855 0.0
C991 C 0.43123 0.73693 0.34595 0.0
C992 C 0.44782 0.74017 0.35894 0.0
C993 C 0.43234 0.74301 0.32539 0.0
H994 H 0.48044 0.76253 0.32688 0.0
H995 H 0.44701 0.73524 0.37466 0.0
O996 O 0.52972 0.76035 0.39926 0.0
O997 O 0.5025 0.77965 0.36499 0.0
O998 O 0.5102 0.73324 0.36493 0.0
O999 O 0.48331 0.75245 0.39933 0.0
H1000 H 0.55358 0.77207 0.4295 0.0
H1001 H 0.5473 0.72937 0.38001 0.0
H1002 H 0.58684 0.75626 0.43826 0.0
H1003 H 0.58055 0.71431 0.38965 0.0
H1004 H 0.50705 0.83593 0.32498 0.0
H1005 H 0.53329 0.79767 0.38432 0.0
H1006 H 0.49108 0.80288 0.33418 0.0
H1007 H 0.54853 0.8307 0.37422 0.0
H1008 H 0.59507 0.78285 0.35164 0.0
H1009 H 0.56014 0.75578 0.30261 0.0
H1010 H 0.50481 0.80914 0.46239 0.0
H1011 H 0.48143 0.84563 0.41268 0.0
H1012 H 0.47964 0.71517 0.38441 0.0
H1013 H 0.52127 0.71006 0.33403 0.0
H1014 H 0.46432 0.68214 0.37437 0.0
H1015 H 0.50522 0.67701 0.3249 0.0
H1016 H 0.45968 0.74064 0.42957 0.0
H1017 H 0.46559 0.78351 0.3802 0.0
H1018 H 0.42651 0.75644 0.43845 0.0
H1019 H 0.43244 0.79856 0.38996 0.0
H1020 H 0.50831 0.70316 0.4621 0.0
H1021 H 0.53183 0.66716 0.41227 0.0
H1022 H 0.45208 0.75703 0.30279 0.0
H1023 H 0.41764 0.72988 0.35203 0.0
Li1024 Li 0.00948 0.77398 0.61869 0.0
Li1025 Li 0.98837 0.75862 0.64456 0.0
Li1026 Li 0.02495 0.75283 0.64454 0.0
Li1027 Li 1.00357 0.7374 0.61871 0.0
C1028 C 1.00196 0.79729 0.65368 0.0
N1029 N 0.98464 0.83416 0.66409 0.0
C1030 C 0.98576 0.8051 0.64221 0.0
C1031 C 0.00934 0.80822 0.67044 0.0
C1032 C 0.97722 0.82377 0.64772 0.0
C1033 C 1.00038 0.82684 0.67545 0.0
C1034 C 0.96489 0.75093 0.60974 0.0
C1035 C 0.93866 0.72592 0.61574 0.0
N1036 N 0.92787 0.73353 0.59971 0.0
C1037 C 0.95357 0.75849 0.59333 0.0
C1038 C 0.95741 0.73451 0.62106 0.0
C1039 C 0.93488 0.74949 0.5885 0.0
C1040 C 0.00763 0.79532 0.58148 0.0
N1041 N 0.01362 0.79698 0.60129 0.0
C1042 C 0.02591 0.83077 0.59542 0.0
C1043 C 0.02275 0.81419 0.60839 0.0
C1044 C 0.01988 0.82951 0.57487 0.0
C1045 C 0.01069 0.81146 0.56791 0.0
H1046 H 1.00054 0.78138 0.57622 0.0
H1047 H 0.02772 0.81504 0.62411 0.0
C1048 C 0.9671 0.75661 0.68171 0.0
N1049 N 0.96543 0.76273 0.66196 0.0
C1050 C 0.95101 0.75964 0.69529 0.0
C1051 C 0.93175 0.77514 0.66792 0.0
C1052 C 0.94825 0.77194 0.65492 0.0
C1053 C 0.93298 0.76902 0.68847 0.0
H1054 H 0.98104 0.74953 0.68694 0.0
H1055 H 0.94734 0.77689 0.63921 0.0
C1056 C 0.04803 0.76036 0.6094 0.0
N1057 N 0.08485 0.77766 0.5987 0.0
C1058 C 0.05876 0.75301 0.59256 0.0
C1059 C 0.056 0.77653 0.62078 0.0
C1060 C 0.07736 0.76195 0.58741 0.0
C1061 C 0.07464 0.78506 0.61513 0.0
C1062 C 0.01147 0.71421 0.65383 0.0
C1063 C 0.02765 0.70642 0.64243 0.0
C1064 C 1.00422 0.70332 0.67063 0.0
C1065 C 0.0363 0.68781 0.64804 0.0
C1066 C 0.01328 0.68475 0.67575 0.0
N1067 N 0.029 0.67745 0.66444 0.0
C1068 C 0.04641 0.75486 0.68168 0.0
C1069 C 0.06521 0.73968 0.65491 0.0
C1070 C 0.06258 0.75192 0.69528 0.0
N1071 N 0.04802 0.74878 0.66193 0.0
C1072 C 0.0818 0.73658 0.66792 0.0
C1073 C 0.08065 0.74267 0.68847 0.0
H1074 H 0.03245 0.76185 0.68689 0.0
H1075 H 0.06607 0.73476 0.63919 0.0
C1076 C 1.00409 0.71672 0.58119 0.0
N1077 N 0.99928 0.71445 0.60123 0.0
C1078 C 1.00091 0.70073 0.56746 0.0
C1079 C 0.98805 0.68029 0.59528 0.0
C1080 C 0.99118 0.69677 0.6084 0.0
C1081 C 0.9929 0.68219 0.57451 0.0
H1082 H 0.01032 0.73103 0.57588 0.0
H1083 H 0.98701 0.69546 0.62429 0.0
O1084 O 0.01053 0.77896 0.64875 0.0
O1085 O 0.98328 0.75956 0.61449 0.0
O1086 O 0.02972 0.75182 0.61446 0.0
O1087 O 1.00283 0.7325 0.64883 0.0
H1088 H 0.97986 0.79688 0.62918 0.0
H1089 H 0.02185 0.80235 0.67948 0.0
H1090 H 0.96468 0.82999 0.63898 0.0
H1091 H 0.00594 0.83547 0.68839 0.0
H1092 H 0.93268 0.71321 0.62436 0.0
H1093 H 0.95919 0.77118 0.58441 0.0
H1094 H 0.96592 0.72845 0.63382 0.0
H1095 H 0.92594 0.75519 0.57583 0.0
H1096 H 0.03331 0.8443 0.60132 0.0
H1097 H 0.00572 0.80992 0.55221 0.0
H1098 H 0.95285 0.75497 0.71104 0.0
H1099 H 0.91812 0.78219 0.66186 0.0
H1100 H 0.05274 0.74053 0.58358 0.0
H1101 H 0.04793 0.78243 0.63386 0.0
H1102 H 0.08583 0.75641 0.57441 0.0
H1103 H 0.08099 0.79758 0.62381 0.0
H1104 H 0.03346 0.7146 0.62937 0.0
H1105 H 0.99173 0.70918 0.67964 0.0
H1106 H 0.04883 0.68161 0.63935 0.0
H1107 H 0.00782 0.67615 0.68872 0.0
H1108 H 0.06079 0.75656 0.71103 0.0
H1109 H 0.09545 0.72963 0.66186 0.0
H1110 H 1.0049 0.70275 0.55156 0.0
H1111 H 0.98157 0.66633 0.60123 0.0
Li1112 Li 0.50867 0.27419 0.11823 0.0
Li1113 Li 0.48741 0.25878 0.14395 0.0
Li1114 Li 0.52393 0.25269 0.14395 0.0
Li1115 Li 0.50255 0.23766 0.11794 0.0
C1116 C 0.50129 0.29727 0.15336 0.0
N1117 N 0.48426 0.33424 0.16394 0.0
C1118 C 0.48509 0.30522 0.14198 0.0
C1119 C 0.50881 0.30811 0.17011 0.0
C1120 C 0.47669 0.32393 0.14758 0.0
C1121 C 0.5 0.32678 0.17521 0.0
C1122 C 0.46398 0.25152 0.10891 0.0
C1123 C 0.43736 0.22688 0.11471 0.0
N1124 N 0.42691 0.23448 0.09845 0.0
C1125 C 0.45299 0.25908 0.09226 0.0
C1126 C 0.45612 0.23528 0.12024 0.0
C1127 C 0.43427 0.25026 0.08722 0.0
C1128 C 0.50676 0.29583 0.08124 0.0
N1129 N 0.51292 0.29729 0.101 0.0
C1130 C 0.52552 0.33098 0.09526 0.0
C1131 C 0.52225 0.31437 0.10815 0.0
C1132 C 0.51935 0.32998 0.0747 0.0
C1133 C 0.50986 0.31203 0.06776 0.0
H1134 H 0.49959 0.28196 0.07592 0.0
H1135 H 0.52723 0.31511 0.12388 0.0
C1136 C 0.46632 0.2569 0.18118 0.0
N1137 N 0.46451 0.26292 0.16141 0.0
C1138 C 0.45028 0.2599 0.19484 0.0
C1139 C 0.43076 0.27512 0.16748 0.0
C1140 C 0.44724 0.27203 0.15442 0.0
C1141 C 0.43218 0.26906 0.188 0.0
H1142 H 0.48029 0.24983 0.18635 0.0
H1143 H 0.44628 0.27703 0.13873 0.0
C1144 C 0.54721 0.26044 0.10905 0.0
N1145 N 0.58423 0.27762 0.09886 0.0
C1146 C 0.5581 0.25313 0.0923 0.0
C1147 C 0.55514 0.2765 0.12062 0.0
C1148 C 0.5768 0.26201 0.0874 0.0
C1149 C 0.57388 0.28498 0.11522 0.0
C1150 C 0.5101 0.21404 0.15274 0.0
C1151 C 0.52624 0.20627 0.14126 0.0
C1152 C 0.50268 0.20296 0.16934 0.0
C1153 C 0.53467 0.18748 0.14659 0.0
C1154 C 0.51152 0.18421 0.17418 0.0
N1155 N 0.5272 0.17693 0.1628 0.0
C1156 C 0.54534 0.25434 0.18115 0.0
C1157 C 0.56411 0.23921 0.15433 0.0
C1158 C 0.56149 0.2513 0.19475 0.0
N1159 N 0.54694 0.24835 0.16137 0.0
C1160 C 0.58069 0.23601 0.16734 0.0
C1161 C 0.57954 0.24204 0.18791 0.0
H1162 H 0.5314 0.26137 0.18638 0.0
H1163 H 0.56497 0.23436 0.13859 0.0
C1164 C 0.50427 0.21662 0.08057 0.0
N1165 N 0.49824 0.21482 0.10032 0.0
C1166 C 0.50119 0.2006 0.06686 0.0
C1167 C 0.48583 0.18113 0.09408 0.0
C1168 C 0.48904 0.19758 0.10722 0.0
C1169 C 0.49192 0.18251 0.07359 0.0
H1170 H 0.51143 0.23056 0.07549 0.0
H1171 H 0.48405 0.19662 0.12289 0.0
O1172 O 0.50972 0.27891 0.14834 0.0
O1173 O 0.48239 0.25997 0.11387 0.0
O1174 O 0.52881 0.25194 0.11387 0.0
O1175 O 0.50164 0.23248 0.14799 0.0
H1176 H 0.47906 0.29708 0.12895 0.0
H1177 H 0.52133 0.30214 0.17908 0.0
H1178 H 0.46416 0.33025 0.13891 0.0
H1179 H 0.50568 0.33534 0.18814 0.0
H1180 H 0.4311 0.21431 0.12334 0.0
H1181 H 0.4589 0.27163 0.08333 0.0
H1182 H 0.46437 0.22924 0.13319 0.0
H1183 H 0.4256 0.25596 0.07437 0.0
H1184 H 0.53265 0.34454 0.10142 0.0
H1185 H 0.50516 0.31036 0.052 0.0
H1186 H 0.45194 0.2549 0.21051 0.0
H1187 H 0.41719 0.28251 0.16168 0.0
H1188 H 0.55213 0.24072 0.08318 0.0
H1189 H 0.54697 0.28236 0.13365 0.0
H1190 H 0.58539 0.25651 0.07447 0.0
H1191 H 0.5802 0.29741 0.12404 0.0
H1192 H 0.53218 0.2146 0.12835 0.0
H1193 H 0.49022 0.2088 0.17839 0.0
H1194 H 0.54716 0.18128 0.13784 0.0
H1195 H 0.50593 0.17546 0.18698 0.0
H1196 H 0.5597 0.25588 0.21051 0.0
H1197 H 0.59432 0.22906 0.16125 0.0
H1198 H 0.50623 0.20224 0.05122 0.0
H1199 H 0.47836 0.16758 0.09982 0.0
H1200 H 0.25649 0.7469 0.82591 0.0
H1201 H 0.19257 0.74457 0.84103 0.0
H1202 H 0.26255 0.76979 0.85472 0.0
H1203 H 0.19856 0.76772 0.86962 0.0
H1204 H 0.22171 0.79062 0.93187 0.0
H1205 H 0.21623 0.76737 0.90327 0.0
H1206 H 0.25406 0.80532 0.86512 0.0
H1207 H 0.25983 0.8284 0.89383 0.0
C1208 C 0.24375 0.75124 0.83543 0.0
C1209 C 0.22405 0.74392 0.83122 0.0
C1210 C 0.24719 0.76449 0.8518 0.0
C1211 C 0.23103 0.77056 0.86444 0.0
C1212 C 0.21135 0.76318 0.86027 0.0
C1213 C 0.20789 0.75008 0.84379 0.0
C1214 C 0.22899 0.7939 0.91742 0.0
C1215 C 0.24121 0.81135 0.91511 0.0
C1216 C 0.22569 0.7807 0.901 0.0
C1217 C 0.23467 0.78454 0.88193 0.0
C1218 C 0.24705 0.80187 0.87966 0.0
C1219 C 0.2502 0.81518 0.89604 0.0
H1220 H 0.99203 0.57099 0.42068 0.0
H1221 H 0.99783 0.50803 0.43872 0.0
H1222 H 0.01509 0.56497 0.39201 0.0
H1223 H 0.02096 0.50201 0.4101 0.0
H1224 H 0.08004 0.50824 0.37122 0.0
H1225 H 0.05675 0.51403 0.39974 0.0
H1226 H 0.01451 0.54386 0.35894 0.0
H1227 H 0.03777 0.53799 0.3304 0.0
C1228 C 0.99831 0.5559 0.41853 0.0
C1229 C 0.99317 0.53998 0.4319 0.0
C1230 C 0.01137 0.55242 0.40208 0.0
C1231 C 0.0198 0.53302 0.39885 0.0
C1232 C 0.01477 0.51714 0.41231 0.0
C1233 C 1.00146 0.52054 0.42858 0.0
C1234 C 0.06579 0.51606 0.36839 0.0
C1235 C 0.06069 0.52266 0.34862 0.0
C1236 C 0.05243 0.51925 0.38465 0.0
C1237 C 0.03385 0.5294 0.38153 0.0
C1238 C 0.0288 0.53611 0.36179 0.0
C1239 C 0.04202 0.53263 0.34546 0.0
H1240 H 0.82239 0.7687 0.84147 0.0
H1241 H 0.75846 0.76593 0.82622 0.0
H1242 H 0.81662 0.74607 0.87039 0.0
H1243 H 0.75267 0.74291 0.85483 0.0
H1244 H 0.74547 0.71817 0.91923 0.0
H1245 H 0.75152 0.74155 0.89108 0.0
H1246 H 0.80882 0.71174 0.87877 0.0
H1247 H 0.80336 0.6892 0.90768 0.0
C1248 C 0.80713 0.76307 0.8442 0.0
C1249 C 0.79088 0.76909 0.83157 0.0
C1250 C 0.80381 0.75005 0.86075 0.0
C1251 C 0.78417 0.74259 0.865 0.0
C1252 C 0.76793 0.74861 0.85229 0.0
C1253 C 0.77124 0.76176 0.83583 0.0
C1254 C 0.7595 0.71677 0.91072 0.0
C1255 C 0.77392 0.70176 0.91582 0.0
C1256 C 0.76285 0.73002 0.89435 0.0
C1257 C 0.78065 0.72855 0.88254 0.0
C1258 C 0.79505 0.71352 0.88763 0.0
C1259 C 0.79177 0.70036 0.90408 0.0
H1260 H 0.99265 0.96443 0.44866 0.0
H1261 H 0.04372 0.98181 0.41101 0.0
H1262 H 0.96973 0.96978 0.41996 0.0
H1263 H 0.02063 0.98846 0.38269 0.0
H1264 H 0.97669 0.97793 0.32969 0.0
H1265 H 0.9998 0.97192 0.35825 0.0
H1266 H 0.95461 0.99557 0.39982 0.0
H1267 H 0.93137 1.00099 0.37126 0.0
C1268 C 0.99902 0.96939 0.43427 0.0
C1269 C 0.0201 0.9726 0.4322 0.0
C1270 C 0.9858 0.97277 0.41785 0.0
C1271 C 0.99326 0.97962 0.39894 0.0
C1272 C 0.01433 0.98294 0.3969 0.0
C1273 C 0.02757 0.9794 0.41328 0.0
C1274 C 0.97177 0.98193 0.34494 0.0
C1275 C 0.95221 0.9899 0.34824 0.0
C1276 C 0.98503 0.97855 0.36133 0.0
C1277 C 0.97913 0.98325 0.38143 0.0
C1278 C 0.95958 0.99139 0.38465 0.0
C1279 C 0.94626 0.99458 0.36827 0.0
H1280 H 0.21488 0.24265 0.69849 0.0
H1281 H 0.23224 0.29369 0.66062 0.0
H1282 H 0.22044 0.21963 0.66986 0.0
H1283 H 0.23829 0.27052 0.6322 0.0
H1284 H 0.26826 0.21895 0.59453 0.0
H1285 H 0.26233 0.24231 0.62283 0.0
H1286 H 0.20516 0.21243 0.63546 0.0
H1287 H 0.21074 0.18938 0.60687 0.0
C1288 C 0.21973 0.24902 0.68405 0.0
C1289 C 0.22307 0.27009 0.68192 0.0
C1290 C 0.22297 0.23579 0.66766 0.0
C1291 C 0.22981 0.24326 0.64878 0.0
C1292 C 0.23327 0.26428 0.64664 0.0
C1293 C 0.22985 0.27754 0.66297 0.0
C1294 C 0.25428 0.21749 0.60314 0.0
C1295 C 0.24 0.20221 0.59835 0.0
C1296 C 0.25093 0.23086 0.6194 0.0
C1297 C 0.2333 0.22918 0.63139 0.0
C1298 C 0.21903 0.21392 0.62667 0.0
C1299 C 0.22228 0.20066 0.6103 0.0
H1300 H 0.51758 0.50827 0.57596 0.0
H1301 H 0.5206 0.57204 0.59177 0.0
H1302 H 0.49461 0.50223 0.60465 0.0
H1303 H 0.49747 0.56604 0.62035 0.0
H1304 H 0.47462 0.5415 0.68249 0.0
H1305 H 0.49786 0.54741 0.65398 0.0
H1306 H 0.45887 0.51169 0.61465 0.0
H1307 H 0.43573 0.50565 0.64319 0.0
C1308 C 0.51337 0.52097 0.58561 0.0
C1309 C 0.52088 0.54062 0.58163 0.0
C1310 C 0.5001 0.51755 0.60192 0.0
C1311 C 0.49424 0.53366 0.61473 0.0
C1312 C 0.50185 0.55329 0.61083 0.0
C1313 C 0.51493 0.55676 0.59438 0.0
C1314 C 0.47109 0.53483 0.66778 0.0
C1315 C 0.45337 0.5231 0.66506 0.0
C1316 C 0.48429 0.53835 0.65143 0.0
C1317 C 0.48018 0.53001 0.63208 0.0
C1318 C 0.46252 0.51818 0.62941 0.0
C1319 C 0.4492 0.51486 0.64569 0.0
H1320 H 0.75804 0.24519 0.68672 0.0
H1321 H 0.82201 0.24279 0.67196 0.0
H1322 H 0.75226 0.26841 0.65824 0.0
H1323 H 0.81624 0.26561 0.64317 0.0
H1324 H 0.80306 0.32271 0.60624 0.0
H1325 H 0.80846 0.29995 0.63501 0.0
H1326 H 0.75114 0.27018 0.62202 0.0
H1327 H 0.74515 0.29378 0.59402 0.0
C1328 C 0.77083 0.24947 0.67724 0.0
C1329 C 0.79048 0.24219 0.6816 0.0
C1330 C 0.76753 0.26275 0.66086 0.0
C1331 C 0.78377 0.26894 0.64833 0.0
C1332 C 0.80342 0.2615 0.65267 0.0
C1333 C 0.80673 0.24837 0.66915 0.0
C1334 C 0.79145 0.31152 0.60967 0.0
C1335 C 0.77362 0.3102 0.59778 0.0
C1336 C 0.7947 0.29822 0.62603 0.0
C1337 C 0.78028 0.28313 0.63088 0.0
C1338 C 0.76248 0.28175 0.61894 0.0
C1339 C 0.75917 0.29514 0.60265 0.0
H1340 H 0.49156 0.9403 0.59381 0.0
H1341 H 0.49741 1.00328 0.5758 0.0
H1342 H 0.51467 0.94636 0.62259 0.0
H1343 H 0.52057 0.00932 0.60454 0.0
H1344 H 0.57975 1.00315 0.64359 0.0
H1345 H 0.55637 0.99732 0.615 0.0
H1346 H 0.51422 0.96749 0.65569 0.0
H1347 H 0.53757 0.97339 0.6843 0.0
C1348 C 0.49786 0.95541 0.59599 0.0
C1349 C 0.49272 0.97133 0.58259 0.0
C1350 C 0.51094 0.9589 0.61251 0.0
C1351 C 0.5194 0.9783 0.61578 0.0
C1352 C 0.51437 0.99419 0.6023 0.0
C1353 C 0.50103 0.99077 0.58596 0.0
C1354 C 0.5655 0.99532 0.64639 0.0
C1355 C 0.56046 0.98873 0.66614 0.0
C1356 C 0.55208 0.99211 0.63008 0.0
C1357 C 0.5335 0.98195 0.63314 0.0
C1358 C 0.5285 0.97525 0.65288 0.0
C1359 C 0.54178 0.97875 0.66925 0.0
H1360 H 0.81532 0.21396 0.77075 0.0
H1361 H 0.85273 0.23104 0.71931 0.0
H1362 H 0.84416 0.21951 0.79362 0.0
H1363 H 0.88135 0.2371 0.74234 0.0
H1364 H 0.91961 0.26712 0.79377 0.0
H1365 H 0.89111 0.26122 0.77055 0.0
H1366 H 0.87848 0.20408 0.80058 0.0
H1367 H 0.90728 0.20961 0.82346 0.0
C1368 C 0.8297 0.21875 0.76426 0.0
C1369 C 0.83165 0.22199 0.74312 0.0
C1370 C 0.84621 0.22199 0.77741 0.0
C1371 C 0.86501 0.22874 0.76978 0.0
C1372 C 0.86697 0.23213 0.7487 0.0
C1373 C 0.85053 0.22871 0.73552 0.0
C1374 C 0.91096 0.25315 0.79529 0.0
C1375 C 0.91582 0.23886 0.81056 0.0
C1376 C 0.89458 0.24982 0.782 0.0
C1377 C 0.88253 0.23221 0.78377 0.0
C1378 C 0.88731 0.21794 0.79902 0.0
C1379 C 0.90381 0.22117 0.81219 0.0
H1380 H 0.44105 0.91901 0.52258 0.0
H1381 H 0.50412 0.9367 0.51703 0.0
H1382 H 0.44698 0.89033 0.49943 0.0
H1383 H 0.51002 0.9081 0.49383 0.0
H1384 H 0.50381 0.8695 0.43446 0.0
H1385 H 0.49798 0.89793 0.45788 0.0
H1386 H 0.46798 0.85719 0.4999 0.0
H1387 H 0.4739 0.82872 0.47651 0.0
C1388 C 0.45615 0.91677 0.51635 0.0
C1389 C 0.47214 0.93004 0.52159 0.0
C1390 C 0.45957 0.90032 0.50324 0.0
C1391 C 0.47896 0.89701 0.49485 0.0
C1392 C 0.4949 0.91037 0.49999 0.0
C1393 C 0.49156 0.92662 0.51335 0.0
C1394 C 0.49594 0.86665 0.44869 0.0
C1395 C 0.48932 0.84692 0.45369 0.0
C1396 C 0.49272 0.88287 0.46212 0.0
C1397 C 0.48253 0.87975 0.48069 0.0
C1398 C 0.47577 0.86004 0.48564 0.0
C1399 C 0.47929 0.84375 0.47234 0.0
H1400 H 0.18742 0.25833 0.74646 0.0
H1401 H 0.17232 0.32223 0.74356 0.0
H1402 H 0.15894 0.25254 0.76955 0.0
H1403 H 0.14353 0.31646 0.76626 0.0
H1404 H 0.1064 0.30326 0.82322 0.0
H1405 H 0.13521 0.30874 0.80065 0.0
H1406 H 0.12279 0.25129 0.77091 0.0
H1407 H 0.09475 0.24523 0.79432 0.0
C1408 C 0.17787 0.2711 0.75062 0.0
C1409 C 0.18213 0.29073 0.74322 0.0
C1410 C 0.16149 0.26779 0.76381 0.0
C1411 C 0.14886 0.28402 0.76981 0.0
C1412 C 0.15311 0.30365 0.76229 0.0
C1413 C 0.16959 0.30698 0.74923 0.0
C1414 C 0.10996 0.29164 0.81207 0.0
C1415 C 0.09822 0.27375 0.81071 0.0
C1416 C 0.12635 0.29494 0.79889 0.0
C1417 C 0.13137 0.2805 0.78387 0.0
C1418 C 0.11957 0.26265 0.78243 0.0
C1419 C 0.10327 0.2593 0.79571 0.0
H1420 H 0.50934 0.5751 0.51571 0.0
H1421 H 0.5723 0.59306 0.52196 0.0
H1422 H 0.50337 0.60383 0.49263 0.0
H1423 H 0.56631 0.62185 0.49893 0.0
H1424 H 0.53919 0.68353 0.47633 0.0
H1425 H 0.54517 0.65488 0.49952 0.0
H1426 H 0.51544 0.61441 0.45687 0.0
H1427 H 0.50954 0.64303 0.43366 0.0
C1428 C 0.52186 0.58525 0.5122 0.0
C1429 C 0.54127 0.58188 0.52061 0.0
C1430 C 0.51848 0.60159 0.4989 0.0
C1431 C 0.53438 0.61506 0.49401 0.0
C1432 C 0.55376 0.61178 0.50255 0.0
C1433 C 0.55721 0.59526 0.5156 0.0
C1434 C 0.53388 0.66852 0.47198 0.0
C1435 C 0.5239 0.66549 0.45321 0.0
C1436 C 0.53742 0.65212 0.48516 0.0
C1437 C 0.53076 0.63244 0.47998 0.0
C1438 C 0.52062 0.62944 0.4613 0.0
C1439 C 0.51737 0.64578 0.44797 0.0
H1440 H 0.82664 0.75688 0.76722 0.0
H1441 H 0.84156 0.82087 0.76976 0.0
H1442 H 0.85511 0.75112 0.74411 0.0
H1443 H 0.87033 0.81514 0.74705 0.0
H1444 H 0.90728 0.80193 0.69004 0.0
H1445 H 0.87852 0.80732 0.71267 0.0
H1446 H 0.89127 0.75008 0.74265 0.0
H1447 H 0.91928 0.7441 0.71918 0.0
C1448 C 0.83616 0.76968 0.76299 0.0
C1449 C 0.83186 0.78933 0.77028 0.0
C1450 C 0.85253 0.76639 0.74978 0.0
C1451 C 0.86509 0.78265 0.74367 0.0
C1452 C 0.8608 0.8023 0.7511 0.0
C1453 C 0.84434 0.8056 0.76417 0.0
C1454 C 0.90381 0.79033 0.70126 0.0
C1455 C 0.91563 0.77252 0.70267 0.0
C1456 C 0.88745 0.79357 0.71447 0.0
C1457 C 0.88254 0.77917 0.72957 0.0
C1458 C 0.89441 0.7614 0.73106 0.0
C1459 C 0.9107 0.7581 0.71776 0.0
H1460 H 0.04918 0.94726 0.5211 0.0
H1461 H 0.03143 0.91005 0.46963 0.0
H1462 H 0.04392 0.91846 0.54383 0.0
H1463 H 0.02487 0.88165 0.49251 0.0
H1464 H 0.03512 0.82846 0.5361 0.0
H1465 H 0.04131 0.85706 0.51319 0.0
H1466 H 0.01801 0.89843 0.55882 0.0
H1467 H 0.0124 0.86983 0.58185 0.0
C1468 C 0.04416 0.93295 0.5146 0.0
C1469 C 0.04077 0.93104 0.49347 0.0
C1470 C 0.04084 0.91647 0.52771 0.0
C1471 C 0.03388 0.89767 0.52008 0.0
C1472 C 0.03046 0.89578 0.49895 0.0
C1473 C 0.03394 0.91221 0.48583 0.0
C1474 C 0.03124 0.84367 0.54116 0.0
C1475 C 0.0233 0.84691 0.56078 0.0
C1476 C 0.03473 0.86009 0.52801 0.0
C1477 C 0.03018 0.88014 0.53409 0.0
C1478 C 0.02208 0.88329 0.55371 0.0
C1479 C 0.01878 0.86689 0.56691 0.0
H1480 H 0.16151 0.73269 0.79386 0.0
H1481 H 0.19863 0.71489 0.7425 0.0
H1482 H 0.13279 0.73845 0.77087 0.0
H1483 H 0.16973 0.7202 0.71967 0.0
H1484 H 0.10668 0.71 0.69002 0.0
H1485 H 0.13549 0.70475 0.71294 0.0
H1486 H 0.12282 0.7621 0.74247 0.0
H1487 H 0.09427 0.76769 0.71924 0.0
C1488 C 0.16363 0.73014 0.77767 0.0
C1489 C 0.18244 0.7233 0.77007 0.0
C1490 C 0.14713 0.7334 0.76451 0.0
C1491 C 0.14899 0.72974 0.74347 0.0
C1492 C 0.16775 0.72288 0.73585 0.0
C1493 C 0.18429 0.71979 0.74897 0.0
C1494 C 0.11014 0.72165 0.7012 0.0
C1495 C 0.09811 0.73932 0.70268 0.0
C1496 C 0.12664 0.71859 0.71438 0.0
C1497 C 0.13143 0.73301 0.7295 0.0
C1498 C 0.11935 0.75059 0.73113 0.0
C1499 C 0.10295 0.75375 0.71783 0.0
H1500 H 0.94153 0.59238 0.49133 0.0
H1501 H 1.0046 0.57487 0.4975 0.0
H1502 H 0.9474 0.62118 0.51439 0.0
H1503 H 0.01044 0.6036 0.5206 0.0
H1504 H 1.00403 0.64249 0.57974 0.0
H1505 H 0.99832 0.61393 0.5564 0.0
H1506 H 0.96836 0.65436 0.51392 0.0
H1507 H 0.97414 0.68295 0.53725 0.0
C1508 C 0.95662 0.59469 0.49767 0.0
C1509 C 0.97262 0.58143 0.49264 0.0
C1510 C 0.96 0.61121 0.51073 0.0
C1511 C 0.97937 0.6146 0.51927 0.0
C1512 C 0.99533 0.60127 0.51433 0.0
C1513 C 0.99203 0.58493 0.50102 0.0
C1514 C 0.99619 0.64524 0.56544 0.0
C1515 C 0.98953 0.66492 0.56029 0.0
C1516 C 0.99305 0.62895 0.55204 0.0
C1517 C 0.9829 0.63195 0.53337 0.0
C1518 C 0.97611 0.6516 0.52827 0.0
C1519 C 0.97955 0.66796 0.54153 0.0
H1520 H 0.77014 0.81466 0.21547 0.0
H1521 H 0.71883 0.85246 0.23172 0.0
H1522 H 0.79301 0.84344 0.22095 0.0
H1523 H 0.74185 0.88104 0.23773 0.0
H1524 H 0.79317 0.91919 0.26802 0.0
H1525 H 0.76994 0.89078 0.26213 0.0
H1526 H 0.80008 0.87765 0.20519 0.0
H1527 H 0.82298 0.90637 0.2107 0.0
C1528 C 0.76369 0.82912 0.22006 0.0
C1529 C 0.74258 0.83119 0.2231 0.0
C1530 C 0.77683 0.84559 0.22326 0.0
C1531 C 0.76923 0.86449 0.22978 0.0
C1532 C 0.74818 0.86658 0.23295 0.0
C1533 C 0.735 0.85017 0.22956 0.0
C1534 C 0.79471 0.91045 0.25409 0.0
C1535 C 0.81003 0.91515 0.23985 0.0
C1536 C 0.78142 0.89412 0.25077 0.0
C1537 C 0.78322 0.88196 0.23323 0.0
C1538 C 0.7985 0.88658 0.219 0.0
C1539 C 0.81168 0.90302 0.22221 0.0
H1540 H 0.77011 0.19772 0.29872 0.0
H1541 H 0.71891 0.1601 0.28122 0.0
H1542 H 0.79291 0.16902 0.29364 0.0
H1543 H 0.74187 0.1318 0.27483 0.0
H1544 H 0.78555 0.07891 0.28557 0.0
H1545 H 0.76258 0.10744 0.29152 0.0
H1546 H 0.80797 0.14887 0.26788 0.0
H1547 H 0.83107 0.12035 0.26251 0.0
C1548 C 0.76368 0.18333 0.29378 0.0
C1549 C 0.74261 0.18129 0.29042 0.0
C1550 C 0.77683 0.16691 0.29057 0.0
C1551 C 0.7693 0.14803 0.28374 0.0
C1552 C 0.74823 0.146 0.28033 0.0
C1553 C 0.73506 0.16237 0.28371 0.0
C1554 C 0.79054 0.09412 0.28156 0.0
C1555 C 0.81011 0.0974 0.2736 0.0
C1556 C 0.77736 0.1105 0.28491 0.0
C1557 C 0.78336 0.13054 0.28019 0.0
C1558 C 0.80293 0.13374 0.27208 0.0
C1559 C 0.81617 0.11738 0.26892 0.0
H1560 H 0.4097 0.04198 0.97073 0.0
H1561 H 0.45145 0.9913 0.97301 0.0
H1562 H 0.38105 0.01859 0.97584 0.0
H1563 H 0.42281 0.96792 0.97839 0.0
H1564 H 0.36656 0.94032 0.01325 0.0
H1565 H 0.39552 0.96277 0.00726 0.0
H1566 H 0.36496 0.98846 0.95492 0.0
H1567 H 0.33637 0.96535 0.96008 0.0
C1568 C 0.41271 0.02585 0.97242 0.0
C1569 C 0.43274 0.01841 0.97149 0.0
C1570 C 0.39636 0.01249 0.97521 0.0
C1571 C 0.39976 0.99148 0.9775 0.0
C1572 C 0.4198 0.98406 0.97676 0.0
C1573 C 0.43613 0.99739 0.97359 0.0
C1574 C 0.36607 0.95042 1.0002 0.0
C1575 C 0.34896 0.95091 0.98718 0.0
C1576 C 0.38266 0.96337 0.99688 0.0
C1577 C 0.38241 0.97737 0.98069 0.0
C1578 C 0.36542 0.97795 0.96767 0.0
C1579 C 0.34898 0.96476 0.97074 0.0
H1580 H 0.24262 0.31421 0.29889 0.0
H1581 H 0.2938 0.35193 0.28179 0.0
H1582 H 0.21974 0.34295 0.29351 0.0
H1583 H 0.27077 0.38047 0.27592 0.0
H1584 H 0.2193 0.4186 0.24612 0.0
H1585 H 0.24253 0.39021 0.25188 0.0
H1586 H 0.21279 0.37714 0.30906 0.0
H1587 H 0.18987 0.40582 0.30366 0.0
C1588 C 0.24904 0.32864 0.29412 0.0
C1589 C 0.27011 0.33069 0.2908 0.0
C1590 C 0.2359 0.34509 0.29099 0.0
C1591 C 0.24345 0.36396 0.28428 0.0
C1592 C 0.26446 0.36604 0.28084 0.0
C1593 C 0.27765 0.34964 0.28415 0.0
C1594 C 0.21784 0.40988 0.26006 0.0
C1595 C 0.20263 0.41457 0.2744 0.0
C1596 C 0.23114 0.39356 0.26332 0.0
C1597 C 0.22946 0.38142 0.2809 0.0
C1598 C 0.21427 0.38605 0.29523 0.0
C1599 C 0.20109 0.40247 0.29207 0.0
H1600 H 0.07683 0.9953 0.50574 0.0
H1601 H 0.09129 0.99311 0.44156 0.0
H1602 H 0.10535 0.01842 0.51154 0.0
H1603 H 0.12014 0.01581 0.44734 0.0
H1604 H 0.15734 0.07268 0.46066 0.0
H1605 H 0.1285 0.05006 0.45525 0.0
H1606 H 0.14146 0.02007 0.51256 0.0
H1607 H 0.16952 0.04355 0.51858 0.0
C1608 C 0.08626 0.99961 0.49291 0.0
C1609 C 0.08181 0.99241 0.4732 0.0
C1610 C 0.10266 0.01282 0.49622 0.0
C1611 C 0.11513 0.01903 0.47992 0.0
C1612 C 0.1107 0.01169 0.46021 0.0
C1613 C 0.09419 0.99862 0.45688 0.0
C1614 C 0.15389 0.06147 0.47228 0.0
C1615 C 0.16579 0.06005 0.49011 0.0
C1616 C 0.13749 0.04825 0.46902 0.0
C1617 C 0.13261 0.03314 0.48343 0.0
C1618 C 0.14457 0.03166 0.50122 0.0
C1619 C 0.16089 0.04497 0.50455 0.0
H1620 H 0.74257 0.19725 0.71468 0.0
H1621 H 0.79392 0.15963 0.73157 0.0
H1622 H 0.71972 0.1685 0.72031 0.0
H1623 H 0.77094 0.13108 0.73767 0.0
H1624 H 0.71995 0.09295 0.76799 0.0
H1625 H 0.7431 0.12137 0.76194 0.0
H1626 H 0.71243 0.13427 0.70503 0.0
H1627 H 0.68958 0.10557 0.71073 0.0
C1628 C 0.74903 0.18284 0.71945 0.0
C1629 C 0.77014 0.18082 0.72266 0.0
C1630 C 0.73591 0.16638 0.72273 0.0
C1631 C 0.74353 0.14754 0.72946 0.0
C1632 C 0.76458 0.14549 0.73275 0.0
C1633 C 0.77774 0.1619 0.7293 0.0
C1634 C 0.71827 0.10165 0.75405 0.0
C1635 C 0.70283 0.0969 0.73987 0.0
C1636 C 0.73152 0.11798 0.75062 0.0
C1637 C 0.72956 0.13008 0.73303 0.0
C1638 C 0.71414 0.1254 0.71887 0.0
C1639 C 0.701 0.10897 0.7222 0.0
H1640 H 0.44794 0.01909 0.54944 0.0
H1641 H 0.40997 0.96796 0.53247 0.0
H1642 H 0.41933 0.04207 0.54386 0.0
H1643 H 0.38155 0.9911 0.52639 0.0
H1644 H 0.34368 0.0427 0.49637 0.0
H1645 H 0.37192 0.01931 0.50224 0.0
H1646 H 0.3852 0.04924 0.5594 0.0
H1647 H 0.35666 0.07231 0.5539 0.0
C1648 C 0.43348 0.01269 0.54467 0.0
C1649 C 0.43131 0.9916 0.54147 0.0
C1650 C 0.4171 0.0259 0.54141 0.0
C1651 C 0.3982 0.01839 0.53469 0.0
C1652 C 0.39601 0.99737 0.53133 0.0
C1653 C 0.41234 0.98412 0.53477 0.0
C1654 C 0.35241 0.04416 0.51034 0.0
C1655 C 0.34782 0.05947 0.52464 0.0
C1656 C 0.36865 0.03077 0.51365 0.0
C1657 C 0.38081 0.03247 0.53126 0.0
C1658 C 0.37628 0.04774 0.54555 0.0
C1659 C 0.35994 0.06101 0.54234 0.0
H1660 H 0.60359 0.54424 0.53181 0.0
H1661 H 0.56588 0.49301 0.54885 0.0
H1662 H 0.63204 0.52118 0.52576 0.0
H1663 H 0.59452 0.47011 0.54329 0.0
H1664 H 0.6573 0.43996 0.55316 0.0
H1665 H 0.62878 0.46298 0.55874 0.0
H1666 H 0.64158 0.49304 0.5016 0.0
H1667 H 0.66981 0.4697 0.49566 0.0
C1668 C 0.60129 0.52808 0.53414 0.0
C1669 C 0.58237 0.52054 0.54084 0.0
C1670 C 0.61763 0.51487 0.53071 0.0
C1671 C 0.61553 0.49384 0.53409 0.0
C1672 C 0.59669 0.48628 0.54083 0.0
C1673 C 0.58029 0.49945 0.54407 0.0
C1674 C 0.65392 0.45128 0.54162 0.0
C1675 C 0.6659 0.45287 0.5239 0.0
C1676 C 0.63759 0.46452 0.54487 0.0
C1677 C 0.63293 0.47981 0.53061 0.0
C1678 C 0.64495 0.48156 0.51299 0.0
C1679 C 0.66118 0.4682 0.50963 0.0
H1680 H 0.69064 0.24328 0.34089 0.0
H1681 H 0.75463 0.24566 0.32624 0.0
H1682 H 0.69642 0.26608 0.36971 0.0
H1683 H 0.76043 0.26886 0.35474 0.0
H1684 H 0.76755 0.294 0.41902 0.0
H1685 H 0.7615 0.27049 0.39095 0.0
H1686 H 0.70431 0.3004 0.37797 0.0
H1687 H 0.70976 0.32307 0.4068 0.0
C1688 C 0.70592 0.24885 0.34374 0.0
C1689 C 0.72218 0.24267 0.33131 0.0
C1690 C 0.70924 0.26198 0.36022 0.0
C1691 C 0.7289 0.26939 0.3646 0.0
C1692 C 0.74515 0.26321 0.35209 0.0
C1693 C 0.74184 0.24995 0.3357 0.0
C1694 C 0.75354 0.29541 0.41038 0.0
C1695 C 0.73915 0.31048 0.41527 0.0
C1696 C 0.7502 0.28208 0.39405 0.0
C1697 C 0.73243 0.28353 0.38209 0.0
C1698 C 0.71806 0.29862 0.38696 0.0
C1699 C 0.72134 0.31186 0.40336 0.0
H1700 H 0.50013 0.00713 0.93947 0.0
H1701 H 0.49288 0.06966 0.92041 0.0
H1702 H 0.52333 1.00118 0.91088 0.0
H1703 H 0.51603 0.0637 0.89183 0.0
H1704 H 0.53846 0.03644 0.83041 0.0
H1705 H 0.51549 0.04224 0.85917 0.0
H1706 H 0.55869 0.01351 0.89975 0.0
H1707 H 0.58169 0.00775 0.87099 0.0
C1708 C 0.50349 0.01957 0.92914 0.0
C1709 C 0.49473 0.03886 0.93215 0.0
C1710 C 0.51684 0.01621 0.91289 0.0
C1711 C 0.52144 0.03198 0.89914 0.0
C1712 C 0.51263 0.05124 0.90211 0.0
C1713 C 0.49953 0.05468 0.91854 0.0
C1714 C 0.54298 0.03129 0.84546 0.0
C1715 C 0.56184 0.02165 0.84848 0.0
C1716 C 0.52992 0.03474 0.86193 0.0
C1717 C 0.53533 0.02834 0.88168 0.0
C1718 C 0.55409 0.0185 0.88467 0.0
C1719 C 0.56729 0.01533 0.86826 0.0
H1720 H 0.32231 0.26869 0.34128 0.0
H1721 H 0.25822 0.26631 0.32662 0.0
H1722 H 0.31669 0.24596 0.37017 0.0
H1723 H 0.25259 0.24318 0.35518 0.0
H1724 H 0.24581 0.21823 0.41954 0.0
H1725 H 0.25172 0.24165 0.39139 0.0
H1726 H 0.30883 0.2117 0.37858 0.0
H1727 H 0.30354 0.18913 0.4075 0.0
C1728 C 0.30704 0.26313 0.34414 0.0
C1729 C 0.29071 0.26929 0.3317 0.0
C1730 C 0.30381 0.25005 0.36067 0.0
C1731 C 0.28417 0.24266 0.36506 0.0
C1732 C 0.26785 0.24882 0.35253 0.0
C1733 C 0.27107 0.26203 0.3361 0.0
C1734 C 0.25978 0.2168 0.41092 0.0
C1735 C 0.27419 0.20175 0.41588 0.0
C1736 C 0.26303 0.23008 0.39455 0.0
C1737 C 0.28074 0.22859 0.3826 0.0
C1738 C 0.29514 0.2135 0.38755 0.0
C1739 C 0.29194 0.20032 0.404 0.0
H1740 H 0.49222 0.46574 0.94838 0.0
H1741 H 0.54377 0.48011 0.91014 0.0
H1742 H 0.46935 0.47142 0.91956 0.0
H1743 H 0.52084 0.48601 0.8814 0.0
H1744 H 0.47129 0.51607 0.84161 0.0
H1745 H 0.49437 0.51018 0.87024 0.0
H1746 H 0.46055 0.45611 0.88639 0.0
H1747 H 0.43759 0.46185 0.85767 0.0
C1748 C 0.4987 0.46995 0.9338 0.0
C1749 C 0.51986 0.47246 0.93161 0.0
C1750 C 0.48558 0.47323 0.91728 0.0
C1751 C 0.49327 0.47918 0.89818 0.0
C1752 C 0.5144 0.48173 0.89598 0.0
C1753 C 0.52755 0.47836 0.91248 0.0
C1754 C 0.46888 0.5028 0.85113 0.0
C1755 C 0.45253 0.48946 0.84732 0.0
C1756 C 0.48211 0.49944 0.86756 0.0
C1757 C 0.47928 0.48269 0.88062 0.0
C1758 C 0.46297 0.46933 0.87681 0.0
C1759 C 0.44978 0.47265 0.86035 0.0
H1760 H 0.73094 0.79329 0.16075 0.0
H1761 H 0.71451 0.74204 0.19875 0.0
H1762 H 0.73706 0.7702 0.13227 0.0
H1763 H 0.72012 0.71909 0.17006 0.0
H1764 H 0.71026 0.68886 0.10702 0.0
H1765 H 0.70462 0.71181 0.13568 0.0
H1766 H 0.76145 0.74221 0.12283 0.0
H1767 H 0.76747 0.71894 0.09449 0.0
C1768 C 0.72877 0.77711 0.16311 0.0
C1769 C 0.72223 0.76958 0.18212 0.0
C1770 C 0.73222 0.76389 0.14675 0.0
C1771 C 0.72905 0.74284 0.14892 0.0
C1772 C 0.72244 0.73528 0.16785 0.0
C1773 C 0.71917 0.74846 0.18427 0.0
C1774 C 0.72172 0.70023 0.11043 0.0
C1775 C 0.73937 0.70195 0.09839 0.0
C1776 C 0.71843 0.71343 0.12683 0.0
C1777 C 0.73259 0.72881 0.1315 0.0
C1778 C 0.75015 0.73067 0.11944 0.0
C1779 C 0.75355 0.71735 0.10315 0.0
H1780 H 0.99213 0.04845 0.06551 0.0
H1781 H 0.04318 0.03181 0.10382 0.0
H1782 H 0.96908 0.0429 0.09411 0.0
H1783 H 0.02 0.02576 0.13219 0.0
H1784 H 0.96865 0.9955 0.16986 0.0
H1785 H 0.99192 1.00145 0.14154 0.0
H1786 H 0.96178 0.05837 0.12842 0.0
H1787 H 0.93883 0.0528 0.15704 0.0
C1788 C 0.99848 0.04376 0.08004 0.0
C1789 C 0.01956 0.04061 0.08231 0.0
C1790 C 0.98524 0.04052 0.0964 0.0
C1791 C 0.99273 0.03387 0.11538 0.0
C1792 C 0.01376 0.03062 0.11767 0.0
C1793 C 0.02702 0.03404 0.10137 0.0
C1794 C 0.96711 0.00943 0.16114 0.0
C1795 C 0.9518 0.02365 0.16582 0.0
C1796 C 0.98043 0.01279 0.14486 0.0
C1797 C 0.97865 0.03035 0.13274 0.0
C1798 C 0.96335 0.04455 0.13732 0.0
C1799 C 0.95014 0.0413 0.15371 0.0
H1800 H 0.3222 0.74404 0.17285 0.0
H1801 H 0.25763 0.74358 0.18518 0.0
H1802 H 0.31654 0.76718 0.14424 0.0
H1803 H 0.25188 0.76619 0.15617 0.0
H1804 H 0.25252 0.82451 0.11752 0.0
H1805 H 0.25825 0.80146 0.14616 0.0
H1806 H 0.30145 0.7675 0.11009 0.0
H1807 H 0.2962 0.79096 0.08166 0.0
C1808 C 0.3068 0.7489 0.16947 0.0
C1809 C 0.29037 0.742 0.18133 0.0
C1810 C 0.30352 0.76198 0.15293 0.0
C1811 C 0.28375 0.76853 0.14789 0.0
C1812 C 0.26733 0.76161 0.15975 0.0
C1813 C 0.27059 0.74847 0.17624 0.0
C1814 C 0.26337 0.81223 0.11576 0.0
C1815 C 0.27394 0.80963 0.09731 0.0
C1816 C 0.26648 0.79888 0.1321 0.0
C1817 C 0.2803 0.78262 0.13042 0.0
C1818 C 0.29085 0.77999 0.11196 0.0
C1819 C 0.28768 0.7933 0.09559 0.0
H1820 H 0.02049 0.46409 0.06575 0.0
H1821 H 0.96922 0.48078 0.10337 0.0
H1822 H 0.04329 0.46931 0.09458 0.0
H1823 H 0.99217 0.48734 0.13182 0.0
H1824 H 0.03604 0.47703 0.1849 0.0
H1825 H 0.01304 0.47094 0.15625 0.0
H1826 H 0.05823 0.49505 0.11488 0.0
H1827 H 0.08136 0.50053 0.14352 0.0
C1828 C 0.01405 0.46887 0.08016 0.0
C1829 C 0.99295 0.47194 0.08218 0.0
C1830 C 0.0272 0.47218 0.09666 0.0
C1831 C 0.01965 0.47884 0.1156 0.0
C1832 C 0.99856 0.48198 0.11759 0.0
C1833 C 0.98539 0.47849 0.10114 0.0
C1834 C 0.04098 0.48111 0.16967 0.0
C1835 C 0.06051 0.48922 0.16645 0.0
C1836 C 0.02778 0.47768 0.15323 0.0
C1837 C 0.03371 0.48249 0.13316 0.0
C1838 C 0.05323 0.49078 0.13002 0.0
C1839 C 0.06649 0.494 0.14645 0.0
H1840 H 0.32573 0.75457 0.24622 0.0
H1841 H 0.34087 0.69065 0.24386 0.0
H1842 H 0.35417 0.7605 0.2695 0.0
H1843 H 0.3696 0.69657 0.26677 0.0
H1844 H 0.40663 0.71005 0.32388 0.0
H1845 H 0.37779 0.70451 0.30119 0.0
H1846 H 0.39037 0.76172 0.2711 0.0
H1847 H 0.41846 0.76784 0.29462 0.0
C1848 C 0.33528 0.74182 0.25053 0.0
C1849 C 0.33105 0.72214 0.24323 0.0
C1850 C 0.35163 0.74522 0.26384 0.0
C1851 C 0.36425 0.72903 0.27006 0.0
C1852 C 0.36003 0.70935 0.26264 0.0
C1853 C 0.34358 0.70594 0.24945 0.0
C1854 C 0.4031 0.72161 0.31263 0.0
C1855 C 0.4149 0.73944 0.31119 0.0
C1856 C 0.38669 0.71828 0.29938 0.0
C1857 C 0.38171 0.73263 0.28423 0.0
C1858 C 0.39356 0.75043 0.28273 0.0
C1859 C 0.4099 0.75382 0.29606 0.0
H1860 H 0.98149 0.40972 0.0442 0.0
H1861 H 0.96471 0.44752 0.99284 0.0
H1862 H 0.98809 0.38148 0.02114 0.0
H1863 H 0.96998 0.41889 0.96993 0.0
H1864 H 1.0013 0.37031 0.9318 0.0
H1865 H 0.99573 0.39877 0.955 0.0
H1866 H 0.97171 0.35719 1.00012 0.0
H1867 H 0.97788 0.32873 0.97707 0.0
C1868 C 0.97919 0.41204 0.02799 0.0
C1869 C 0.97261 0.43098 0.02043 0.0
C1870 C 0.9827 0.39571 0.01476 0.0
C1871 C 0.97954 0.39781 0.99361 0.0
C1872 C 0.97285 0.41673 0.98607 0.0
C1873 C 0.96952 0.43311 0.99928 0.0
C1874 C 0.99477 0.3673 0.94666 0.0
C1875 C 0.99005 0.34729 0.95262 0.0
C1876 C 0.9915 0.38362 0.95996 0.0
C1877 C 0.98321 0.38036 0.97949 0.0
C1878 C 0.97845 0.3603 0.98538 0.0
C1879 C 0.98192 0.34396 0.97215 0.0
H1880 H 0.65995 0.78108 0.21971 0.0
H1881 H 0.69765 0.79812 0.27113 0.0
H1882 H 0.63165 0.77457 0.24267 0.0
H1883 H 0.66897 0.79293 0.29393 0.0
H1884 H 0.62029 0.76176 0.33206 0.0
H1885 H 0.64878 0.76718 0.30893 0.0
H1886 H 0.60735 0.79109 0.26347 0.0
H1887 H 0.57885 0.78509 0.28647 0.0
C1888 C 0.66223 0.78345 0.23591 0.0
C1889 C 0.68117 0.79009 0.24352 0.0
C1890 C 0.64587 0.78 0.24908 0.0
C1891 C 0.64793 0.78325 0.27022 0.0
C1892 C 0.66684 0.78998 0.2778 0.0
C1893 C 0.68325 0.79327 0.26465 0.0
C1894 C 0.61732 0.76824 0.31714 0.0
C1895 C 0.59734 0.77298 0.31108 0.0
C1896 C 0.63366 0.77142 0.30388 0.0
C1897 C 0.63045 0.77964 0.28428 0.0
C1898 C 0.61042 0.78441 0.27827 0.0
C1899 C 0.59405 0.78103 0.29147 0.0
H1900 H 0.0487 0.06514 0.99348 0.0
H1901 H 0.03166 0.10294 0.04466 0.0
H1902 H 0.04341 0.09386 0.97046 0.0
H1903 H 0.02586 0.13145 0.02149 0.0
H1904 H 0.9961 0.16939 0.96973 0.0
H1905 H 1.00186 0.14106 0.9931 0.0
H1906 H 0.05898 0.1281 0.96344 0.0
H1907 H 0.0536 0.15674 0.94038 0.0
C1908 C 0.04398 0.07959 0.99987 0.0
C1909 C 0.04065 0.08167 0.02098 0.0
C1910 C 0.04089 0.09602 0.98665 0.0
C1911 C 0.03421 0.1149 0.99417 0.0
C1912 C 0.03077 0.11701 0.01522 0.0
C1913 C 0.03404 0.10063 0.02848 0.0
C1914 C 0.01004 0.16071 0.96832 0.0
C1915 C 0.02437 0.16543 0.95309 0.0
C1916 C 0.01329 0.14442 0.9817 0.0
C1917 C 0.03085 0.13233 0.98008 0.0
C1918 C 0.04516 0.13697 0.96488 0.0
C1919 C 0.04202 0.15337 0.95162 0.0
H1920 H 0.35259 0.28027 0.29376 0.0
H1921 H 0.31486 0.29781 0.24254 0.0
H1922 H 0.38076 0.27373 0.27067 0.0
H1923 H 0.34342 0.29259 0.21963 0.0
H1924 H 0.39182 0.26143 0.18118 0.0
H1925 H 0.36341 0.26686 0.2044 0.0
H1926 H 0.40511 0.29025 0.24992 0.0
H1927 H 0.43352 0.28424 0.22683 0.0
C1928 C 0.35027 0.28275 0.27758 0.0
C1929 C 0.33137 0.28955 0.27007 0.0
C1930 C 0.36656 0.27927 0.26433 0.0
C1931 C 0.36447 0.28266 0.24322 0.0
C1932 C 0.34558 0.28954 0.23573 0.0
C1933 C 0.32924 0.29284 0.24895 0.0
C1934 C 0.39487 0.2678 0.19614 0.0
C1935 C 0.41489 0.27239 0.20219 0.0
C1936 C 0.37857 0.27099 0.20945 0.0
C1937 C 0.38188 0.27905 0.22909 0.0
C1938 C 0.40197 0.28368 0.23509 0.0
C1939 C 0.41827 0.2803 0.22183 0.0
H1940 H 0.50762 0.43686 0.99621 0.0
H1941 H 0.57154 0.42181 0.99384 0.0
H1942 H 0.50175 0.40833 0.01931 0.0
H1943 H 0.56569 0.39298 0.01653 0.0
H1944 H 0.55236 0.35564 0.07334 0.0
H1945 H 0.55784 0.38457 0.05085 0.0
H1946 H 0.50053 0.37218 0.0207 0.0
H1947 H 0.49445 0.34401 0.04403 0.0
C1948 C 0.52038 0.42731 1.00049 0.0
C1949 C 0.54004 0.43159 0.99324 0.0
C1950 C 0.51703 0.41091 0.01369 0.0
C1951 C 0.53323 0.39828 0.01983 0.0
C1952 C 0.55289 0.40256 0.01246 0.0
C1953 C 0.55626 0.41906 0.9994 0.0
C1954 C 0.54076 0.35923 0.06212 0.0
C1955 C 0.52291 0.34745 0.0606 0.0
C1956 C 0.54406 0.37569 0.04899 0.0
C1957 C 0.52967 0.38075 0.03387 0.0
C1958 C 0.51185 0.36893 0.0323 0.0
C1959 C 0.50849 0.35254 0.04552 0.0
H1960 H 0.69754 0.21431 0.24215 0.0
H1961 H 0.66 0.2313 0.29347 0.0
H1962 H 0.66874 0.21969 0.21921 0.0
H1963 H 0.6314 0.23719 0.27037 0.0
H1964 H 0.5931 0.26689 0.21886 0.0
H1965 H 0.6216 0.26119 0.24211 0.0
H1966 H 0.63449 0.2041 0.2122 0.0
H1967 H 0.60569 0.20943 0.18927 0.0
C1968 C 0.68314 0.21904 0.24859 0.0
C1969 C 0.68114 0.22231 0.26973 0.0
C1970 C 0.66665 0.22219 0.23541 0.0
C1971 C 0.64781 0.22887 0.24299 0.0
C1972 C 0.6458 0.23228 0.26405 0.0
C1973 C 0.66223 0.22896 0.27728 0.0
C1974 C 0.60181 0.25297 0.21737 0.0
C1975 C 0.59702 0.23863 0.20212 0.0
C1976 C 0.61819 0.24976 0.23068 0.0
C1977 C 0.6303 0.23222 0.22895 0.0
C1978 C 0.6256 0.2179 0.21372 0.0
C1979 C 0.60911 0.22101 0.20053 0.0
H1980 H 0.48171 0.10201 0.96798 0.0
H1981 H 0.46252 0.06516 0.0191 0.0
H1982 H 0.48782 0.13053 0.99094 0.0
H1983 H 0.46738 0.09401 0.04182 0.0
H1984 H 0.499 0.1421 0.08054 0.0
H1985 H 0.49345 0.11365 0.05732 0.0
H1986 H 0.47118 0.15535 0.01133 0.0
H1987 H 0.47724 0.18383 0.03448 0.0
C1988 C 0.47874 0.09997 0.9841 0.0
C1989 C 0.47166 0.0812 0.99164 0.0
C1990 C 0.48199 0.11645 0.99726 0.0
C1991 C 0.47812 0.11465 0.0183 0.0
C1992 C 0.47083 0.09593 0.02578 0.0
C1993 C 0.46773 0.07943 0.01266 0.0
C1994 C 0.49283 0.14516 0.0655 0.0
C1995 C 0.48855 0.1652 0.05935 0.0
C1996 C 0.48958 0.12883 0.05217 0.0
C1997 C 0.48178 0.13212 0.03241 0.0
C1998 C 0.47751 0.15222 0.02629 0.0
C1999 C 0.48093 0.16857 0.03957 0.0
H2000 H 0.24672 0.3265 0.75516 0.0
H2001 H 0.2434 0.34153 0.69111 0.0
H2002 H 0.26993 0.35497 0.76079 0.0
H2003 H 0.26617 0.37036 0.69672 0.0
H2004 H 0.32309 0.40768 0.7094 0.0
H2005 H 0.30044 0.37885 0.70412 0.0
H2006 H 0.27167 0.39099 0.76209 0.0
H2007 H 0.29521 0.419 0.76797 0.0
C2008 C 0.2508 0.33605 0.74232 0.0
C2009 C 0.24326 0.33177 0.72269 0.0
C2010 C 0.26407 0.35243 0.74554 0.0
C2011 C 0.26998 0.36505 0.72922 0.0
C2012 C 0.26229 0.36079 0.70959 0.0
C2013 C 0.24917 0.3443 0.70636 0.0
C2014 C 0.31215 0.40404 0.72118 0.0
C2015 C 0.3111 0.4157 0.73916 0.0
C2016 C 0.29891 0.38765 0.718 0.0
C2017 C 0.28412 0.38253 0.73264 0.0
C2018 C 0.283 0.39426 0.75057 0.0
C2019 C 0.29635 0.41056 0.75382 0.0
H2020 H 0.24558 0.67334 0.82217 0.0
H2021 H 0.24579 0.68688 0.75766 0.0
H2022 H 0.26851 0.64468 0.81627 0.0
H2023 H 0.2683 0.65794 0.75169 0.0
H2024 H 0.32624 0.61885 0.7525 0.0
H2025 H 0.30367 0.64767 0.75876 0.0
H2026 H 0.26813 0.61077 0.80004 0.0
H2027 H 0.29103 0.58209 0.79418 0.0
C2028 C 0.25057 0.67022 0.80674 0.0
C2029 C 0.24389 0.68239 0.79038 0.0
C2030 C 0.26353 0.65368 0.80333 0.0
C2031 C 0.27022 0.64902 0.78351 0.0
C2032 C 0.26358 0.66123 0.76717 0.0
C2033 C 0.25053 0.67769 0.77055 0.0
C2034 C 0.3137 0.61694 0.76303 0.0
C2035 C 0.31044 0.59817 0.77285 0.0
C2036 C 0.30065 0.63338 0.76646 0.0
C2037 C 0.28409 0.6315 0.77987 0.0
C2038 C 0.28086 0.61277 0.78975 0.0
C2039 C 0.29385 0.59627 0.78623 0.0
H2040 H 0.94815 0.49226 0.46486 0.0
H2041 H 0.91046 0.54356 0.48149 0.0
H2042 H 0.91943 0.46938 0.47039 0.0
H2043 H 0.88195 0.52052 0.48753 0.0
H2044 H 0.84394 0.4692 0.51769 0.0
H2045 H 0.87232 0.49243 0.51182 0.0
H2046 H 0.88515 0.46228 0.45476 0.0
H2047 H 0.85646 0.43938 0.46026 0.0
C2048 C 0.93374 0.49871 0.46955 0.0
C2049 C 0.93168 0.51982 0.47268 0.0
C2050 C 0.91729 0.48556 0.47278 0.0
C2051 C 0.89844 0.49315 0.4794 0.0
C2052 C 0.89637 0.5142 0.48267 0.0
C2053 C 0.91275 0.52738 0.47926 0.0
C2054 C 0.8526 0.46765 0.50375 0.0
C2055 C 0.84783 0.45234 0.48947 0.0
C2056 C 0.86892 0.48095 0.50043 0.0
C2057 C 0.88099 0.47915 0.48285 0.0
C2058 C 0.8763 0.46386 0.46859 0.0
C2059 C 0.85987 0.45069 0.4718 0.0
H2060 H 0.79416 0.85143 0.78106 0.0
H2061 H 0.74293 0.8139 0.79843 0.0
H2062 H 0.77117 0.87996 0.77498 0.0
H2063 H 0.72009 0.84263 0.79282 0.0
H2064 H 0.69034 0.90558 0.80269 0.0
H2065 H 0.71321 0.87688 0.8082 0.0
H2066 H 0.74295 0.88967 0.75094 0.0
H2067 H 0.71977 0.91809 0.74508 0.0
C2068 C 0.77801 0.84918 0.78344 0.0
C2069 C 0.77045 0.8303 0.79025 0.0
C2070 C 0.76485 0.86557 0.78 0.0
C2071 C 0.74384 0.86355 0.78346 0.0
C2072 C 0.73625 0.84473 0.7903 0.0
C2073 C 0.74938 0.82829 0.79356 0.0
C2074 C 0.70155 0.90216 0.79111 0.0
C2075 C 0.70311 0.91419 0.77339 0.0
C2076 C 0.71471 0.88573 0.79432 0.0
C2077 C 0.72987 0.88101 0.78 0.0
C2078 C 0.73157 0.89308 0.76237 0.0
C2079 C 0.7183 0.90941 0.75906 0.0
H2080 H 0.60236 0.46902 0.98237 0.0
H2081 H 0.56512 0.52029 0.96455 0.0
H2082 H 0.63076 0.49192 0.989 0.0
H2083 H 0.59389 0.54302 0.96988 0.0
H2084 H 0.6426 0.58116 1.0013 0.0
H2085 H 0.614 0.5581 0.99581 0.0
H2086 H 0.65528 0.51252 0.97244 0.0
H2087 H 0.68388 0.53546 0.97851 0.0
C2088 C 0.6002 0.48517 0.97985 0.0
C2089 C 0.58137 0.49275 0.97294 0.0
C2090 C 0.61662 0.49831 0.98338 0.0
C2091 C 0.61472 0.51938 0.97995 0.0
C2092 C 0.5959 0.52694 0.97296 0.0
C2093 C 0.57944 0.51383 0.96959 0.0
C2094 C 0.64552 0.56623 0.99492 0.0
C2095 C 0.66548 0.56012 0.99034 0.0
C2096 C 0.62911 0.553 0.9917 0.0
C2097 C 0.63225 0.53339 0.98362 0.0
C2098 C 0.65227 0.52733 0.97901 0.0
C2099 C 0.66869 0.5405 0.98243 0.0
H2100 H 0.29366 0.65975 0.2322 0.0
H2101 H 0.24245 0.69698 0.21406 0.0
H2102 H 0.27067 0.63123 0.2384 0.0
H2103 H 0.2196 0.66827 0.21982 0.0
H2104 H 0.18959 0.60526 0.21085 0.0
H2105 H 0.21249 0.63388 0.205 0.0
H2106 H 0.24259 0.62174 0.26239 0.0
H2107 H 0.2194 0.59338 0.26857 0.0
C2108 C 0.27751 0.66193 0.22966 0.0
C2109 C 0.26996 0.68073 0.22263 0.0
C2110 C 0.26435 0.64555 0.23318 0.0
C2111 C 0.24333 0.6475 0.22958 0.0
C2112 C 0.23576 0.66622 0.22247 0.0
C2113 C 0.24889 0.68266 0.21911 0.0
C2114 C 0.2009 0.6088 0.22238 0.0
C2115 C 0.20255 0.59697 0.24023 0.0
C2116 C 0.21407 0.6252 0.21897 0.0
C2117 C 0.22934 0.63007 0.23323 0.0
C2118 C 0.23113 0.6182 0.25099 0.0
C2119 C 0.21785 0.6019 0.2545 0.0
H2120 H 0.94806 0.51989 0.04886 0.0
H2121 H 0.9103 0.46866 0.03181 0.0
H2122 H 0.91937 0.5427 0.04368 0.0
H2123 H 0.88199 0.49164 0.0253 0.0
H2124 H 0.82922 0.53541 0.03599 0.0
H2125 H 0.85776 0.5124 0.04191 0.0
H2126 H 0.89907 0.55775 0.01797 0.0
H2127 H 0.87055 0.5809 0.01265 0.0
C2128 C 0.93364 0.51346 0.044 0.0
C2129 C 0.93155 0.49237 0.04083 0.0
C2130 C 0.91723 0.52662 0.04072 0.0
C2131 C 0.89829 0.51909 0.03399 0.0
C2132 C 0.89623 0.498 0.03073 0.0
C2133 C 0.9126 0.48482 0.03418 0.0
C2134 C 0.84441 0.54039 0.03192 0.0
C2135 C 0.84765 0.55996 0.02389 0.0
C2136 C 0.86079 0.52718 0.03524 0.0
C2137 C 0.8808 0.53316 0.03043 0.0
C2138 C 0.88397 0.55273 0.02224 0.0
C2139 C 0.86761 0.56599 0.01911 0.0
H2140 H 0.10288 0.04399 0.03438 0.0
H2141 H 0.06436 0.99257 0.04866 0.0
H2142 H 0.13136 0.02101 0.02858 0.0
H2143 H 0.09311 0.96968 0.04394 0.0
H2144 H 0.14301 0.93268 0.01286 0.0
H2145 H 0.11436 0.95569 0.01791 0.0
H2146 H 0.15461 0.99936 0.04654 0.0
H2147 H 0.18328 0.97644 0.04116 0.0
C2148 C 0.10047 0.02778 0.03627 0.0
C2149 C 0.08128 0.02015 0.04196 0.0
C2150 C 0.1169 0.0146 0.03321 0.0
C2151 C 0.1146 0.99346 0.03584 0.0
C2152 C 0.09541 0.98584 0.04154 0.0
C2153 C 0.07896 0.99901 0.04452 0.0
C2154 C 0.1457 0.94714 0.02035 0.0
C2155 C 0.16542 0.95273 0.0266 0.0
C2156 C 0.12926 0.96033 0.02329 0.0
C2157 C 0.13212 0.97941 0.03265 0.0
C2158 C 0.15187 0.98496 0.03896 0.0
C2159 C 0.16832 0.9718 0.03592 0.0
loop_
_geom_bond_atom_site_label_1
_geom_bond_atom_site_label_2
_geom_bond_distance
_geom_bond_site_symmetry_2
_ccdc_geom_bond_type
H0 C3 0.931 . S
H1 C6 0.928 . S
H2 C8 0.930 . S
C3 H0 0.931 . S
C3 C4 1.413 . S
C3 C5 1.360 . S
C4 C3 1.413 . S
C4 C8 1.429 . S
C5 C3 1.360 . S
C5 C6 1.372 . S
C6 H1 0.928 . S
C6 C5 1.372 . S
C6 C7 1.404 . S
C7 C6 1.404 . S
C7 C8 1.391 . S
C8 H2 0.930 . S
C8 C4 1.429 . S
C8 C7 1.391 . S
H9 C12 0.931 . S
H10 C15 0.928 . S
H11 C17 0.930 . S
C12 H9 0.931 . S
C12 C13 1.413 . S
C12 C14 1.360 . S
C13 C12 1.413 . S
C13 C17 1.429 . S
C14 C12 1.360 . S
C14 C15 1.372 . S
C15 H10 0.928 . S
C15 C14 1.372 . S
C15 C16 1.404 . S
C16 C15 1.404 . S
C16 C17 1.391 . S
C17 H11 0.930 . S
C17 C13 1.429 . S
C17 C16 1.391 . S
H18 C21 0.931 . S
H19 C24 0.928 . S
H20 C26 0.930 . S
C21 H18 0.931 . S
C21 C22 1.413 . S
C21 C23 1.360 . S
C22 C21 1.413 . S
C22 C26 1.429 . S
C23 C21 1.360 . S
C23 C24 1.372 . S
C24 H19 0.928 . S
C24 C23 1.372 . S
C24 C25 1.404 . S
C25 C24 1.404 . S
C25 C26 1.391 . S
C26 H20 0.930 . S
C26 C22 1.429 . S
C26 C25 1.391 . S
H27 C30 0.931 . S
H28 C33 0.928 . S
H29 C35 0.930 . S
C30 H27 0.931 . S
C30 C31 1.413 . S
C30 C32 1.360 . S
C31 C30 1.413 . S
C31 C35 1.429 . S
C32 C30 1.360 . S
C32 C33 1.372 . S
C33 H28 0.928 . S
C33 C32 1.372 . S
C33 C34 1.404 . S
C34 C33 1.404 . S
C34 C35 1.391 . S
C35 H29 0.930 . S
C35 C31 1.429 . S
C35 C34 1.391 . S
H36 C39 0.931 . S
H37 C42 0.928 . S
H38 C44 0.930 . S
C39 H36 0.931 . S
C39 C40 1.413 . S
C39 C41 1.360 . S
C40 C39 1.413 . S
C40 C44 1.429 . S
C41 C39 1.360 . S
C41 C42 1.372 . S
C42 H37 0.928 . S
C42 C41 1.372 . S
C42 C43 1.404 . S
C43 C42 1.404 . S
C43 C44 1.391 . S
C44 H38 0.930 . S
C44 C40 1.429 . S
C44 C43 1.391 . S
H45 C48 0.931 . S
H46 C51 0.928 . S
H47 C53 0.930 . S
C48 H45 0.931 . S
C48 C49 1.413 . S
C48 C50 1.360 . S
C49 C48 1.413 . S
C49 C53 1.429 . S
C50 C48 1.360 . S
C50 C51 1.372 . S
C51 H46 0.928 . S
C51 C50 1.372 . S
C51 C52 1.404 . S
C52 C51 1.404 . S
C52 C53 1.391 . S
C53 H47 0.930 . S
C53 C49 1.429 . S
C53 C52 1.391 . S
H54 C57 0.931 . S
H55 C60 0.928 . S
H56 C62 0.930 . S
C57 H54 0.931 . S
C57 C58 1.413 . S
C57 C59 1.360 . S
C58 C57 1.413 . S
C58 C62 1.429 . S
C59 C57 1.360 . S
C59 C60 1.372 . S
C60 H55 0.928 . S
C60 C59 1.372 . S
C60 C61 1.404 . S
C61 C60 1.404 . S
C61 C62 1.391 . S
C62 H56 0.930 . S
C62 C58 1.429 . S
C62 C61 1.391 . S
H63 C66 0.931 . S
H64 C69 0.928 . S
H65 C71 0.930 . S
C66 H63 0.931 . S
C66 C67 1.413 . S
C66 C68 1.360 . S
C67 C66 1.413 . S
C67 C71 1.429 . S
C68 C66 1.360 . S
C68 C69 1.372 . S
C69 H64 0.928 . S
C69 C68 1.372 . S
C69 C70 1.404 . S
C70 C69 1.404 . S
C70 C71 1.391 . S
C71 H65 0.930 . S
C71 C67 1.429 . S
C71 C70 1.391 . S
H72 C75 0.931 . S
H73 C78 0.928 . S
H74 C80 0.930 . S
C75 H72 0.931 . S
C75 C76 1.413 . S
C75 C77 1.360 . S
C76 C75 1.413 . S
C76 C80 1.429 . S
C77 C75 1.360 . S
C77 C78 1.372 . S
C78 H73 0.928 . S
C78 C77 1.372 . S
C78 C79 1.404 . S
C79 C78 1.404 . S
C79 C80 1.391 . S
C80 H74 0.930 . S
C80 C76 1.429 . S
C80 C79 1.391 . S
H81 C84 0.931 . S
H82 C87 0.928 . S
H83 C89 0.930 . S
C84 H81 0.931 . S
C84 C85 1.413 . S
C84 C86 1.360 . S
C85 C84 1.413 . S
C85 C89 1.429 . S
C86 C84 1.360 . S
C86 C87 1.372 . S
C87 H82 0.928 . S
C87 C86 1.372 . S
C87 C88 1.404 . S
C88 C87 1.404 . S
C88 C89 1.391 . S
C89 H83 0.930 . S
C89 C85 1.429 . S
C89 C88 1.391 . S
H90 C93 0.931 . S
H91 C96 0.928 . S
H92 C98 0.930 . S
C93 H90 0.931 . S
C93 C94 1.413 . S
C93 C95 1.360 . S
C94 C93 1.413 . S
C94 C98 1.429 . S
C95 C93 1.360 . S
C95 C96 1.372 . S
C96 H91 0.928 . S
C96 C95 1.372 . S
C96 C97 1.404 . S
C97 C96 1.404 . S
C97 C98 1.391 . S
C98 H92 0.930 . S
C98 C94 1.429 . S
C98 C97 1.391 . S
H99 C102 0.931 . S
H100 C105 0.928 . S
H101 C107 0.930 . S
C102 H99 0.931 . S
C102 C103 1.413 . S
C102 C104 1.360 . S
C103 C102 1.413 . S
C103 C107 1.429 . S
C104 C102 1.360 . S
C104 C105 1.372 . S
C105 H100 0.928 . S
C105 C104 1.372 . S
C105 C106 1.404 . S
C106 C105 1.404 . S
C106 C107 1.391 . S
C107 H101 0.930 . S
C107 C103 1.429 . S
C107 C106 1.391 . S
H108 C111 0.931 . S
H109 C114 0.928 . S
H110 C116 0.930 . S
C111 H108 0.931 . S
C111 C112 1.413 . S
C111 C113 1.360 . S
C112 C111 1.413 . S
C112 C116 1.429 . S
C113 C111 1.360 . S
C113 C114 1.372 . S
C114 H109 0.928 . S
C114 C113 1.372 . S
C114 C115 1.404 . S
C115 C114 1.404 . S
C115 C116 1.391 . S
C116 H110 0.930 . S
C116 C112 1.429 . S
C116 C115 1.391 . S
H117 C120 0.931 . S
H118 C123 0.928 . S
H119 C125 0.930 . S
C120 H117 0.931 . S
C120 C121 1.413 . S
C120 C122 1.360 . S
C121 C120 1.413 . S
C121 C125 1.429 . S
C122 C120 1.360 . S
C122 C123 1.372 . S
C123 H118 0.928 . S
C123 C122 1.372 . S
C123 C124 1.404 . S
C124 C123 1.404 . S
C124 C125 1.391 . S
C125 H119 0.930 . S
C125 C121 1.429 . S
C125 C124 1.391 . S
H126 C129 0.931 . S
H127 C132 0.928 . S
H128 C134 0.930 . S
C129 H126 0.931 . S
C129 C130 1.413 . S
C129 C131 1.360 . S
C130 C129 1.413 . S
C130 C134 1.429 . S
C131 C129 1.360 . S
C131 C132 1.372 . S
C132 H127 0.928 . S
C132 C131 1.372 . S
C132 C133 1.404 . S
C133 C132 1.404 . S
C133 C134 1.391 . S
C134 H128 0.930 . S
C134 C130 1.429 . S
C134 C133 1.391 . S
H135 C138 0.931 . S
H136 C141 0.928 . S
H137 C143 0.930 . S
C138 H135 0.931 . S
C138 C139 1.413 . S
C138 C140 1.360 . S
C139 C138 1.413 . S
C139 C143 1.429 . S
C140 C138 1.360 . S
C140 C141 1.372 . S
C141 H136 0.928 . S
C141 C140 1.372 . S
C141 C142 1.404 . S
C142 C141 1.404 . S
C142 C143 1.391 . S
C143 H137 0.930 . S
C143 C139 1.429 . S
C143 C142 1.391 . S
Li144 N161 1.990 . S
Li144 O204 1.956 . S
Li144 O205 1.970 1_556 S
Li144 O206 1.961 . S
Li145 N169 1.990 . S
Li145 O204 1.970 1_554 S
Li145 O205 1.956 . S
Li145 O207 1.961 . S
Li146 N191 1.990 . S
Li146 O204 1.961 . S
Li146 O206 1.956 . S
Li146 O207 1.970 1_556 S
Li147 N197 1.990 . S
Li147 O205 1.961 . S
Li147 O206 1.970 1_554 S
Li147 O207 1.956 . S
C148 C150 1.348 1_556 S
C148 C151 1.356 . S
C148 O204 1.325 . S
N149 C152 1.314 1_556 S
N149 C153 1.279 . S
C150 C148 1.348 1_554 S
C150 C152 1.353 . S
C150 H208 0.929 . S
C151 C148 1.356 . S
C151 C153 1.358 . S
C151 H209 0.930 . S
C152 N149 1.314 1_554 S
C152 C150 1.353 . S
C152 H210 0.930 . S
C153 N149 1.279 . S
C153 C151 1.358 . S
C153 H211 0.930 . S
C154 C157 1.348 . S
C154 C158 1.356 . S
C154 O205 1.325 . S
C155 N156 1.279 . S
C155 C158 1.358 . S
C155 H212 0.930 . S
N156 C155 1.279 . S
N156 C159 1.314 . S
C157 C154 1.348 . S
C157 C159 1.353 . S
C157 H213 0.929 . S
C158 C154 1.356 . S
C158 C155 1.358 . S
C158 H214 0.930 . S
C159 N156 1.314 . S
C159 C157 1.353 . S
C159 H215 0.930 . S
C160 N161 1.314 . S
C160 C165 1.353 . S
C160 H166 0.930 . S
N161 Li144 1.990 . S
N161 C160 1.314 . S
N161 C163 1.279 . S
C162 C163 1.358 . S
C162 C164 1.356 . S
C162 H216 0.930 . S
C163 N161 1.279 . S
C163 C162 1.358 . S
C163 H167 0.930 . S
C164 C162 1.356 . S
C164 C165 1.348 . S
C165 C160 1.353 . S
C165 C164 1.348 . S
C165 H217 0.929 . S
H166 C160 0.930 . S
H167 C163 0.930 . S
C168 N169 1.314 . S
C168 C170 1.353 . S
C168 H174 0.930 . S
N169 Li145 1.990 . S
N169 C168 1.314 . S
N169 C172 1.279 . S
C170 C168 1.353 . S
C170 C173 1.348 . S
C170 H218 0.929 . S
C171 C172 1.358 . S
C171 C173 1.356 . S
C171 H219 0.930 . S
C172 N169 1.279 . S
C172 C171 1.358 . S
C172 H175 0.930 . S
C173 C170 1.348 . S
C173 C171 1.356 . S
H174 C168 0.930 . S
H175 C172 0.930 . S
C176 C178 1.348 . S
C176 C179 1.356 . S
C176 O206 1.325 . S
N177 C180 1.314 . S
N177 C181 1.279 . S
C178 C176 1.348 . S
C178 C180 1.353 . S
C178 H220 0.929 . S
C179 C176 1.356 . S
C179 C181 1.358 . S
C179 H221 0.930 . S
C180 N177 1.314 . S
C180 C178 1.353 . S
C180 H222 0.930 . S
C181 N177 1.279 . S
C181 C179 1.358 . S
C181 H223 0.930 . S
C182 C183 1.348 1_554 S
C182 C184 1.356 . S
C182 O207 1.325 . S
C183 C182 1.348 1_556 S
C183 C185 1.353 . S
C183 H224 0.929 . S
C184 C182 1.356 . S
C184 C186 1.358 . S
C184 H225 0.930 . S
C185 C183 1.353 . S
C185 N187 1.314 1_556 S
C185 H226 0.930 . S
C186 C184 1.358 . S
C186 N187 1.279 . S
C186 H227 0.930 . S
N187 C185 1.314 1_554 S
N187 C186 1.279 . S
C188 C190 1.353 . S
C188 N191 1.314 . S
C188 H194 0.930 . S
C189 N191 1.279 . S
C189 C192 1.358 . S
C189 H195 0.930 . S
C190 C188 1.353 . S
C190 C193 1.348 . S
C190 H228 0.929 . S
N191 Li146 1.990 . S
N191 C188 1.314 . S
N191 C189 1.279 . S
C192 C189 1.358 . S
C192 C193 1.356 . S
C192 H229 0.930 . S
C193 C190 1.348 . S
C193 C192 1.356 . S
H194 C188 0.930 . S
H195 C189 0.930 . S
C196 N197 1.314 . S
C196 C198 1.353 . S
C196 H202 0.930 . S
N197 Li147 1.990 . S
N197 C196 1.314 . S
N197 C200 1.279 . S
C198 C196 1.353 . S
C198 C201 1.348 . S
C198 H230 0.929 . S
C199 C200 1.358 . S
C199 C201 1.356 . S
C199 H231 0.930 . S
C200 N197 1.279 . S
C200 C199 1.358 . S
C200 H203 0.930 . S
C201 C198 1.348 . S
C201 C199 1.356 . S
H202 C196 0.930 . S
H203 C200 0.930 . S
O204 Li144 1.956 . S
O204 Li145 1.970 1_556 S
O204 Li146 1.961 . S
O204 C148 1.325 . S
O205 Li144 1.970 1_554 S
O205 Li145 1.956 . S
O205 Li147 1.961 . S
O205 C154 1.325 . S
O206 Li144 1.961 . S
O206 Li146 1.956 . S
O206 Li147 1.970 1_556 S
O206 C176 1.325 . S
O207 Li145 1.961 . S
O207 Li146 1.970 1_554 S
O207 Li147 1.956 . S
O207 C182 1.325 . S
H208 C150 0.929 . S
H209 C151 0.930 . S
H210 C152 0.930 . S
H211 C153 0.930 . S
H212 C155 0.930 . S
H213 C157 0.929 . S
H214 C158 0.930 . S
H215 C159 0.930 . S
H216 C162 0.930 . S
H217 C165 0.929 . S
H218 C170 0.929 . S
H219 C171 0.930 . S
H220 C178 0.929 . S
H221 C179 0.930 . S
H222 C180 0.930 . S
H223 C181 0.930 . S
H224 C183 0.929 . S
H225 C184 0.930 . S
H226 C185 0.930 . S
H227 C186 0.930 . S
H228 C190 0.929 . S
H229 C192 0.930 . S
H230 C198 0.929 . S
H231 C199 0.930 . S
Li232 N249 1.990 . S
Li232 O292 1.956 . S
Li232 O293 1.970 . S
Li232 O294 1.961 . S
Li233 N257 1.990 . S
Li233 O292 1.970 . S
Li233 O293 1.956 . S
Li233 O295 1.961 . S
Li234 N279 1.990 . S
Li234 O292 1.961 . S
Li234 O294 1.956 . S
Li234 O295 1.970 . S
Li235 N285 1.990 . S
Li235 O293 1.961 . S
Li235 O294 1.970 . S
Li235 O295 1.956 . S
C236 C238 1.348 . S
C236 C239 1.356 . S
C236 O292 1.325 . S
N237 C240 1.314 . S
N237 C241 1.279 . S
C238 C236 1.348 . S
C238 C240 1.353 . S
C238 H296 0.929 . S
C239 C236 1.356 . S
C239 C241 1.358 . S
C239 H297 0.930 . S
C240 N237 1.314 . S
C240 C238 1.353 . S
C240 H298 0.930 . S
C241 N237 1.279 . S
C241 C239 1.358 . S
C241 H299 0.930 . S
C242 C245 1.348 . S
C242 C246 1.356 . S
C242 O293 1.325 . S
C243 N244 1.279 . S
C243 C246 1.358 . S
C243 H300 0.930 . S
N244 C243 1.279 . S
N244 C247 1.314 . S
C245 C242 1.348 . S
C245 C247 1.353 . S
C245 H301 0.929 . S
C246 C242 1.356 . S
C246 C243 1.358 . S
C246 H302 0.930 . S
C247 N244 1.314 . S
C247 C245 1.353 . S
C247 H303 0.930 . S
C248 N249 1.314 . S
C248 C253 1.353 . S
C248 H254 0.930 . S
N249 Li232 1.990 . S
N249 C248 1.314 . S
N249 C251 1.279 . S
C250 C251 1.358 . S
C250 C252 1.356 . S
C250 H304 0.930 . S
C251 N249 1.279 . S
C251 C250 1.358 . S
C251 H255 0.930 . S
C252 C250 1.356 . S
C252 C253 1.348 . S
C253 C248 1.353 . S
C253 C252 1.348 . S
C253 H305 0.929 . S
H254 C248 0.930 . S
H255 C251 0.930 . S
C256 N257 1.314 . S
C256 C258 1.353 . S
C256 H262 0.930 . S
N257 Li233 1.990 . S
N257 C256 1.314 . S
N257 C260 1.279 . S
C258 C256 1.353 . S
C258 C261 1.348 . S
C258 H306 0.929 . S
C259 C260 1.358 . S
C259 C261 1.356 . S
C259 H307 0.930 . S
C260 N257 1.279 . S
C260 C259 1.358 . S
C260 H263 0.930 . S
C261 C258 1.348 . S
C261 C259 1.356 . S
H262 C256 0.930 . S
H263 C260 0.930 . S
C264 C266 1.348 . S
C264 C267 1.356 . S
C264 O294 1.325 . S
N265 C268 1.314 . S
N265 C269 1.279 . S
C266 C264 1.348 . S
C266 C268 1.353 . S
C266 H308 0.929 . S
C267 C264 1.356 . S
C267 C269 1.358 . S
C267 H309 0.930 . S
C268 N265 1.314 . S
C268 C266 1.353 . S
C268 H310 0.930 . S
C269 N265 1.279 . S
C269 C267 1.358 . S
C269 H311 0.930 . S
C270 C271 1.348 . S
C270 C272 1.356 . S
C270 O295 1.325 . S
C271 C270 1.348 . S
C271 C273 1.353 . S
C271 H312 0.929 . S
C272 C270 1.356 . S
C272 C274 1.358 . S
C272 H313 0.930 . S
C273 C271 1.353 . S
C273 N275 1.314 . S
C273 H314 0.930 . S
C274 C272 1.358 . S
C274 N275 1.279 . S
C274 H315 0.930 . S
N275 C273 1.314 . S
N275 C274 1.279 . S
C276 C278 1.353 . S
C276 N279 1.314 . S
C276 H282 0.930 . S
C277 N279 1.279 . S
C277 C280 1.358 . S
C277 H283 0.930 . S
C278 C276 1.353 . S
C278 C281 1.348 . S
C278 H316 0.929 . S
N279 Li234 1.990 . S
N279 C276 1.314 . S
N279 C277 1.279 . S
C280 C277 1.358 . S
C280 C281 1.356 . S
C280 H317 0.930 . S
C281 C278 1.348 . S
C281 C280 1.356 . S
H282 C276 0.930 . S
H283 C277 0.930 . S
C284 N285 1.314 . S
C284 C286 1.353 . S
C284 H290 0.930 . S
N285 Li235 1.990 . S
N285 C284 1.314 . S
N285 C288 1.279 . S
C286 C284 1.353 . S
C286 C289 1.348 . S
C286 H318 0.929 . S
C287 C288 1.358 . S
C287 C289 1.356 . S
C287 H319 0.930 . S
C288 N285 1.279 . S
C288 C287 1.358 . S
C288 H291 0.930 . S
C289 C286 1.348 . S
C289 C287 1.356 . S
H290 C284 0.930 . S
H291 C288 0.930 . S
O292 Li232 1.956 . S
O292 Li233 1.970 . S
O292 Li234 1.961 . S
O292 C236 1.325 . S
O293 Li232 1.970 . S
O293 Li233 1.956 . S
O293 Li235 1.961 . S
O293 C242 1.325 . S
O294 Li232 1.961 . S
O294 Li234 1.956 . S
O294 Li235 1.970 . S
O294 C264 1.325 . S
O295 Li233 1.961 . S
O295 Li234 1.970 . S
O295 Li235 1.956 . S
O295 C270 1.325 . S
H296 C238 0.929 . S
H297 C239 0.930 . S
H298 C240 0.930 . S
H299 C241 0.930 . S
H300 C243 0.930 . S
H301 C245 0.929 . S
H302 C246 0.930 . S
H303 C247 0.930 . S
H304 C250 0.930 . S
H305 C253 0.929 . S
H306 C258 0.929 . S
H307 C259 0.930 . S
H308 C266 0.929 . S
H309 C267 0.930 . S
H310 C268 0.930 . S
H311 C269 0.930 . S
H312 C271 0.929 . S
H313 C272 0.930 . S
H314 C273 0.930 . S
H315 C274 0.930 . S
H316 C278 0.929 . S
H317 C280 0.930 . S
H318 C286 0.929 . S
H319 C287 0.930 . S
Li320 N337 1.990 . S
Li320 O380 1.958 . S
Li320 O381 1.970 1_556 S
Li320 O382 1.961 . S
Li321 N345 1.990 . S
Li321 O380 1.928 1_554 S
Li321 O381 1.956 . S
Li321 O383 1.961 . S
Li322 N367 1.990 . S
Li322 O380 1.994 . S
Li322 O382 1.956 . S
Li322 O383 1.970 1_556 S
Li323 N373 1.990 . S
Li323 O381 1.961 . S
Li323 O382 1.970 1_554 S
Li323 O383 1.956 . S
C324 C326 1.348 1_556 S
C324 C327 1.356 . S
C324 O380 1.333 . S
N325 C328 1.314 1_556 S
N325 C329 1.279 . S
C326 C324 1.348 1_554 S
C326 C328 1.353 . S
C326 H384 0.929 . S
C327 C324 1.356 . S
C327 C329 1.358 . S
C327 H385 0.930 . S
C328 N325 1.314 1_554 S
C328 C326 1.353 . S
C328 H386 0.930 . S
C329 N325 1.279 . S
C329 C327 1.358 . S
C329 H387 0.930 . S
C330 C333 1.348 . S
C330 C334 1.356 . S
C330 O381 1.325 . S
C331 N332 1.279 . S
C331 C334 1.358 . S
C331 H388 0.930 . S
N332 C331 1.279 . S
N332 C335 1.314 . S
C333 C330 1.348 . S
C333 C335 1.353 . S
C333 H389 0.929 . S
C334 C330 1.356 . S
C334 C331 1.358 . S
C334 H390 0.930 . S
C335 N332 1.314 . S
C335 C333 1.353 . S
C335 H391 0.930 . S
C336 N337 1.314 . S
C336 C341 1.353 . S
C336 H342 0.930 . S
N337 Li320 1.990 . S
N337 C336 1.314 . S
N337 C339 1.279 . S
C338 C339 1.358 . S
C338 C340 1.356 . S
C338 H392 0.930 . S
C339 N337 1.279 . S
C339 C338 1.358 . S
C339 H343 0.930 . S
C340 C338 1.356 . S
C340 C341 1.348 . S
C341 C336 1.353 . S
C341 C340 1.348 . S
C341 H393 0.929 . S
H342 C336 0.930 . S
H343 C339 0.930 . S
C344 N345 1.314 . S
C344 C346 1.353 . S
C344 H350 0.930 . S
N345 Li321 1.990 . S
N345 C344 1.314 . S
N345 C348 1.279 . S
C346 C344 1.353 . S
C346 C349 1.348 . S
C346 H394 0.929 . S
C347 C348 1.358 . S
C347 C349 1.356 . S
C347 H395 0.930 . S
C348 N345 1.279 . S
C348 C347 1.358 . S
C348 H351 0.930 . S
C349 C346 1.348 . S
C349 C347 1.356 . S
H350 C344 0.930 . S
H351 C348 0.930 . S
C352 C354 1.348 . S
C352 C355 1.356 . S
C352 O382 1.325 . S
N353 C356 1.314 . S
N353 C357 1.279 . S
C354 C352 1.348 . S
C354 C356 1.353 . S
C354 H396 0.929 . S
C355 C352 1.356 . S
C355 C357 1.358 . S
C355 H397 0.930 . S
C356 N353 1.314 . S
C356 C354 1.353 . S
C356 H398 0.930 . S
C357 N353 1.279 . S
C357 C355 1.358 . S
C357 H399 0.930 . S
C358 C359 1.348 1_554 S
C358 C360 1.356 . S
C358 O383 1.325 . S
C359 C358 1.348 1_556 S
C359 C361 1.353 . S
C359 H400 0.929 . S
C360 C358 1.356 . S
C360 C362 1.358 . S
C360 H401 0.930 . S
C361 C359 1.353 . S
C361 N363 1.314 1_556 S
C361 H402 0.930 . S
C362 C360 1.358 . S
C362 N363 1.279 . S
C362 H403 0.930 . S
N363 C361 1.314 1_554 S
N363 C362 1.279 . S
C364 C366 1.353 . S
C364 N367 1.314 . S
C364 H370 0.930 . S
C365 N367 1.279 . S
C365 C368 1.358 . S
C365 H371 0.930 . S
C366 C364 1.353 . S
C366 C369 1.348 . S
C366 H404 0.929 . S
N367 Li322 1.990 . S
N367 C364 1.314 . S
N367 C365 1.279 . S
C368 C365 1.358 . S
C368 C369 1.356 . S
C368 H405 0.930 . S
C369 C366 1.348 . S
C369 C368 1.356 . S
H370 C364 0.930 . S
H371 C365 0.930 . S
C372 N373 1.314 . S
C372 C374 1.353 . S
C372 H378 0.930 . S
N373 Li323 1.990 . S
N373 C372 1.314 . S
N373 C376 1.279 . S
C374 C372 1.353 . S
C374 C377 1.348 . S
C374 H406 0.929 . S
C375 C376 1.358 . S
C375 C377 1.356 . S
C375 H407 0.930 . S
C376 N373 1.279 . S
C376 C375 1.358 . S
C376 H379 0.930 . S
C377 C374 1.348 . S
C377 C375 1.356 . S
H378 C372 0.930 . S
H379 C376 0.930 . S
O380 Li320 1.958 . S
O380 Li321 1.928 1_556 S
O380 Li322 1.994 . S
O380 C324 1.333 . S
O381 Li320 1.970 1_554 S
O381 Li321 1.956 . S
O381 Li323 1.961 . S
O381 C330 1.325 . S
O382 Li320 1.961 . S
O382 Li322 1.956 . S
O382 Li323 1.970 1_556 S
O382 C352 1.325 . S
O383 Li321 1.961 . S
O383 Li322 1.970 1_554 S
O383 Li323 1.956 . S
O383 C358 1.325 . S
H384 C326 0.929 . S
H385 C327 0.930 . S
H386 C328 0.930 . S
H387 C329 0.930 . S
H388 C331 0.930 . S
H389 C333 0.929 . S
H390 C334 0.930 . S
H391 C335 0.930 . S
H392 C338 0.930 . S
H393 C341 0.929 . S
H394 C346 0.929 . S
H395 C347 0.930 . S
H396 C354 0.929 . S
H397 C355 0.930 . S
H398 C356 0.930 . S
H399 C357 0.930 . S
H400 C359 0.929 . S
H401 C360 0.930 . S
H402 C361 0.930 . S
H403 C362 0.930 . S
H404 C366 0.929 . S
H405 C368 0.930 . S
H406 C374 0.929 . S
H407 C375 0.930 . S
Li408 N425 1.990 . S
Li408 O468 1.956 . S
Li408 O469 1.970 1_545 S
Li408 O470 1.961 . S
Li409 N433 1.990 . S
Li409 O468 1.970 1_565 S
Li409 O469 1.956 . S
Li409 O471 1.961 . S
Li410 N455 1.990 . S
Li410 O468 1.961 . S
Li410 O470 1.956 . S
Li410 O471 1.970 1_545 S
Li411 N461 1.990 . S
Li411 O469 1.961 . S
Li411 O470 1.970 1_565 S
Li411 O471 1.956 . S
C412 C414 1.348 . S
C412 C415 1.356 . S
C412 O468 1.325 . S
N413 C416 1.314 . S
N413 C417 1.279 . S
C414 C412 1.348 . S
C414 C416 1.353 . S
C414 H472 0.929 . S
C415 C412 1.356 . S
C415 C417 1.358 . S
C415 H473 0.930 . S
C416 N413 1.314 . S
C416 C414 1.353 . S
C416 H474 0.930 . S
C417 N413 1.279 . S
C417 C415 1.358 . S
C417 H475 0.930 . S
C418 C421 1.348 1_565 S
C418 C422 1.356 . S
C418 O469 1.325 . S
C419 N420 1.279 . S
C419 C422 1.358 . S
C419 H476 0.930 . S
N420 C419 1.279 . S
N420 C423 1.314 1_565 S
C421 C418 1.348 1_545 S
C421 C423 1.353 . S
C421 H477 0.929 . S
C422 C418 1.356 . S
C422 C419 1.358 . S
C422 H478 0.930 . S
C423 N420 1.314 1_545 S
C423 C421 1.353 . S
C423 H479 0.930 . S
C424 N425 1.314 . S
C424 C429 1.353 . S
C424 H430 0.930 . S
N425 Li408 1.990 . S
N425 C424 1.314 . S
N425 C427 1.279 . S
C426 C427 1.358 . S
C426 C428 1.356 . S
C426 H480 0.930 . S
C427 N425 1.279 . S
C427 C426 1.358 . S
C427 H431 0.930 . S
C428 C426 1.356 . S
C428 C429 1.348 . S
C429 C424 1.353 . S
C429 C428 1.348 . S
C429 H481 0.929 . S
H430 C424 0.930 . S
H431 C427 0.930 . S
C432 N433 1.314 . S
C432 C434 1.353 . S
C432 H438 0.930 . S
N433 Li409 1.990 . S
N433 C432 1.314 . S
N433 C436 1.279 . S
C434 C432 1.353 . S
C434 C437 1.348 . S
C434 H482 0.929 . S
C435 C436 1.358 . S
C435 C437 1.356 . S
C435 H483 0.930 . S
C436 N433 1.279 . S
C436 C435 1.358 . S
C436 H439 0.930 . S
C437 C434 1.348 . S
C437 C435 1.356 . S
H438 C432 0.930 . S
H439 C436 0.930 . S
C440 C442 1.348 1_545 S
C440 C443 1.356 . S
C440 O470 1.325 . S
N441 C444 1.314 1_545 S
N441 C445 1.279 . S
C442 C440 1.348 1_565 S
C442 C444 1.353 . S
C442 H484 0.929 . S
C443 C440 1.356 . S
C443 C445 1.358 . S
C443 H485 0.930 . S
C444 N441 1.314 1_565 S
C444 C442 1.353 . S
C444 H486 0.930 . S
C445 N441 1.279 . S
C445 C443 1.358 . S
C445 H487 0.930 . S
C446 C447 1.348 . S
C446 C448 1.356 . S
C446 O471 1.325 . S
C447 C446 1.348 . S
C447 C449 1.353 . S
C447 H488 0.929 . S
C448 C446 1.356 . S
C448 C450 1.358 . S
C448 H489 0.930 . S
C449 C447 1.353 . S
C449 N451 1.314 . S
C449 H490 0.930 . S
C450 C448 1.358 . S
C450 N451 1.279 . S
C450 H491 0.930 . S
N451 C449 1.314 . S
N451 C450 1.279 . S
C452 C454 1.353 . S
C452 N455 1.314 . S
C452 H458 0.930 . S
C453 N455 1.279 . S
C453 C456 1.358 . S
C453 H459 0.930 . S
C454 C452 1.353 . S
C454 C457 1.348 . S
C454 H492 0.929 . S
N455 Li410 1.990 . S
N455 C452 1.314 . S
N455 C453 1.279 . S
C456 C453 1.358 . S
C456 C457 1.356 . S
C456 H493 0.930 . S
C457 C454 1.348 . S
C457 C456 1.356 . S
H458 C452 0.930 . S
H459 C453 0.930 . S
C460 N461 1.314 . S
C460 C462 1.353 . S
C460 H466 0.930 . S
N461 Li411 1.990 . S
N461 C460 1.314 . S
N461 C464 1.279 . S
C462 C460 1.353 . S
C462 C465 1.348 . S
C462 H494 0.929 . S
C463 C464 1.358 . S
C463 C465 1.356 . S
C463 H495 0.930 . S
C464 N461 1.279 . S
C464 C463 1.358 . S
C464 H467 0.930 . S
C465 C462 1.348 . S
C465 C463 1.356 . S
H466 C460 0.930 . S
H467 C464 0.930 . S
O468 Li408 1.956 . S
O468 Li409 1.970 1_545 S
O468 Li410 1.961 . S
O468 C412 1.325 . S
O469 Li408 1.970 1_565 S
O469 Li409 1.956 . S
O469 Li411 1.961 . S
O469 C418 1.325 . S
O470 Li408 1.961 . S
O470 Li410 1.956 . S
O470 Li411 1.970 1_545 S
O470 C440 1.325 . S
O471 Li409 1.961 . S
O471 Li410 1.970 1_565 S
O471 Li411 1.956 . S
O471 C446 1.325 . S
H472 C414 0.929 . S
H473 C415 0.930 . S
H474 C416 0.930 . S
H475 C417 0.930 . S
H476 C419 0.930 . S
H477 C421 0.929 . S
H478 C422 0.930 . S
H479 C423 0.930 . S
H480 C426 0.930 . S
H481 C429 0.929 . S
H482 C434 0.929 . S
H483 C435 0.930 . S
H484 C442 0.929 . S
H485 C443 0.930 . S
H486 C444 0.930 . S
H487 C445 0.930 . S
H488 C447 0.929 . S
H489 C448 0.930 . S
H490 C449 0.930 . S
H491 C450 0.930 . S
H492 C454 0.929 . S
H493 C456 0.930 . S
H494 C462 0.929 . S
H495 C463 0.930 . S
Li496 N513 1.990 . S
Li496 O556 1.956 . S
Li496 O557 1.970 . S
Li496 O558 1.961 . S
Li497 N521 1.990 . S
Li497 O556 1.970 . S
Li497 O557 1.956 . S
Li497 O559 1.961 . S
Li498 N543 1.990 . S
Li498 O556 1.961 . S
Li498 O558 1.956 . S
Li498 O559 1.970 . S
Li499 N549 1.990 . S
Li499 O557 1.961 . S
Li499 O558 1.970 . S
Li499 O559 1.956 . S
C500 C502 1.348 . S
C500 C503 1.356 . S
C500 O556 1.325 . S
N501 C504 1.314 . S
N501 C505 1.279 . S
C502 C500 1.348 . S
C502 C504 1.353 . S
C502 H560 0.929 . S
C503 C500 1.356 . S
C503 C505 1.358 . S
C503 H561 0.930 . S
C504 N501 1.314 . S
C504 C502 1.353 . S
C504 H562 0.930 . S
C505 N501 1.279 . S
C505 C503 1.358 . S
C505 H563 0.930 . S
C506 C509 1.348 . S
C506 C510 1.356 . S
C506 O557 1.325 . S
C507 N508 1.279 . S
C507 C510 1.358 . S
C507 H564 0.930 . S
N508 C507 1.279 . S
N508 C511 1.314 . S
C509 C506 1.348 . S
C509 C511 1.353 . S
C509 H565 0.929 . S
C510 C506 1.356 . S
C510 C507 1.358 . S
C510 H566 0.930 . S
C511 N508 1.314 . S
C511 C509 1.353 . S
C511 H567 0.930 . S
C512 N513 1.314 . S
C512 C517 1.353 . S
C512 H518 0.930 . S
N513 Li496 1.990 . S
N513 C512 1.314 . S
N513 C515 1.279 . S
C514 C515 1.358 . S
C514 C516 1.356 . S
C514 H568 0.930 . S
C515 N513 1.279 . S
C515 C514 1.358 . S
C515 H519 0.930 . S
C516 C514 1.356 . S
C516 C517 1.348 . S
C517 C512 1.353 . S
C517 C516 1.348 . S
C517 H569 0.929 . S
H518 C512 0.930 . S
H519 C515 0.930 . S
C520 N521 1.314 . S
C520 C522 1.353 . S
C520 H526 0.930 . S
N521 Li497 1.990 . S
N521 C520 1.314 . S
N521 C524 1.279 . S
C522 C520 1.353 . S
C522 C525 1.348 . S
C522 H570 0.929 . S
C523 C524 1.358 . S
C523 C525 1.356 . S
C523 H571 0.930 . S
C524 N521 1.279 . S
C524 C523 1.358 . S
C524 H527 0.930 . S
C525 C522 1.348 . S
C525 C523 1.356 . S
H526 C520 0.930 . S
H527 C524 0.930 . S
C528 C530 1.348 . S
C528 C531 1.356 . S
C528 O558 1.325 . S
N529 C532 1.314 . S
N529 C533 1.279 . S
C530 C528 1.348 . S
C530 C532 1.353 . S
C530 H572 0.929 . S
C531 C528 1.356 . S
C531 C533 1.358 . S
C531 H573 0.930 . S
C532 N529 1.314 . S
C532 C530 1.353 . S
C532 H574 0.930 . S
C533 N529 1.279 . S
C533 C531 1.358 . S
C533 H575 0.930 . S
C534 C535 1.348 . S
C534 C536 1.356 . S
C534 O559 1.325 . S
C535 C534 1.348 . S
C535 C537 1.353 . S
C535 H576 0.929 . S
C536 C534 1.356 . S
C536 C538 1.358 . S
C536 H577 0.930 . S
C537 C535 1.353 . S
C537 N539 1.314 . S
C537 H578 0.930 . S
C538 C536 1.358 . S
C538 N539 1.279 . S
C538 H579 0.930 . S
N539 C537 1.314 . S
N539 C538 1.279 . S
C540 C542 1.353 . S
C540 N543 1.314 . S
C540 H546 0.930 . S
C541 N543 1.279 . S
C541 C544 1.358 . S
C541 H547 0.930 . S
C542 C540 1.353 . S
C542 C545 1.348 . S
C542 H580 0.929 . S
N543 Li498 1.990 . S
N543 C540 1.314 . S
N543 C541 1.279 . S
C544 C541 1.358 . S
C544 C545 1.356 . S
C544 H581 0.930 . S
C545 C542 1.348 . S
C545 C544 1.356 . S
H546 C540 0.930 . S
H547 C541 0.930 . S
C548 N549 1.314 . S
C548 C550 1.353 . S
C548 H554 0.930 . S
N549 Li499 1.990 . S
N549 C548 1.314 . S
N549 C552 1.279 . S
C550 C548 1.353 . S
C550 C553 1.348 . S
C550 H582 0.929 . S
C551 C552 1.358 . S
C551 C553 1.356 . S
C551 H583 0.930 . S
C552 N549 1.279 . S
C552 C551 1.358 . S
C552 H555 0.930 . S
C553 C550 1.348 . S
C553 C551 1.356 . S
H554 C548 0.930 . S
H555 C552 0.930 . S
O556 Li496 1.956 . S
O556 Li497 1.970 . S
O556 Li498 1.961 . S
O556 C500 1.325 . S
O557 Li496 1.970 . S
O557 Li497 1.956 . S
O557 Li499 1.961 . S
O557 C506 1.325 . S
O558 Li496 1.961 . S
O558 Li498 1.956 . S
O558 Li499 1.970 . S
O558 C528 1.325 . S
O559 Li497 1.961 . S
O559 Li498 1.970 . S
O559 Li499 1.956 . S
O559 C534 1.325 . S
H560 C502 0.929 . S
H561 C503 0.930 . S
H562 C504 0.930 . S
H563 C505 0.930 . S
H564 C507 0.930 . S
H565 C509 0.929 . S
H566 C510 0.930 . S
H567 C511 0.930 . S
H568 C514 0.930 . S
H569 C517 0.929 . S
H570 C522 0.929 . S
H571 C523 0.930 . S
H572 C530 0.929 . S
H573 C531 0.930 . S
H574 C532 0.930 . S
H575 C533 0.930 . S
H576 C535 0.929 . S
H577 C536 0.930 . S
H578 C537 0.930 . S
H579 C538 0.930 . S
H580 C542 0.929 . S
H581 C544 0.930 . S
H582 C550 0.929 . S
H583 C551 0.930 . S
Li584 N601 1.990 . S
Li584 O644 1.956 . S
Li584 O645 1.970 . S
Li584 O646 1.961 . S
Li585 N609 1.990 . S
Li585 O644 1.970 . S
Li585 O645 1.956 . S
Li585 O647 1.961 . S
Li586 N631 1.990 . S
Li586 O644 1.961 . S
Li586 O646 1.956 . S
Li586 O647 1.970 . S
Li587 N637 1.990 . S
Li587 O645 1.961 . S
Li587 O646 1.970 . S
Li587 O647 1.956 . S
C588 C590 1.348 . S
C588 C591 1.356 . S
C588 O644 1.325 . S
N589 C592 1.314 . S
N589 C593 1.279 . S
C590 C588 1.348 . S
C590 C592 1.353 . S
C590 H648 0.929 . S
C591 C588 1.356 . S
C591 C593 1.358 . S
C591 H649 0.930 . S
C592 N589 1.314 . S
C592 C590 1.353 . S
C592 H650 0.930 . S
C593 N589 1.279 . S
C593 C591 1.358 . S
C593 H651 0.930 . S
C594 C597 1.348 . S
C594 C598 1.356 . S
C594 O645 1.325 . S
C595 N596 1.279 . S
C595 C598 1.358 . S
C595 H652 0.930 . S
N596 C595 1.279 . S
N596 C599 1.314 . S
C597 C594 1.348 . S
C597 C599 1.353 . S
C597 H653 0.929 . S
C598 C594 1.356 . S
C598 C595 1.358 . S
C598 H654 0.930 . S
C599 N596 1.314 . S
C599 C597 1.353 . S
C599 H655 0.930 . S
C600 N601 1.314 . S
C600 C605 1.353 . S
C600 H606 0.930 . S
N601 Li584 1.990 . S
N601 C600 1.314 . S
N601 C603 1.279 . S
C602 C603 1.358 . S
C602 C604 1.356 . S
C602 H656 0.930 . S
C603 N601 1.279 . S
C603 C602 1.358 . S
C603 H607 0.930 . S
C604 C602 1.356 . S
C604 C605 1.348 . S
C605 C600 1.353 . S
C605 C604 1.348 . S
C605 H657 0.929 . S
H606 C600 0.930 . S
H607 C603 0.930 . S
C608 N609 1.314 . S
C608 C610 1.353 . S
C608 H614 0.930 . S
N609 Li585 1.990 . S
N609 C608 1.314 . S
N609 C612 1.279 . S
C610 C608 1.353 . S
C610 C613 1.348 . S
C610 H658 0.929 . S
C611 C612 1.358 . S
C611 C613 1.356 . S
C611 H659 0.930 . S
C612 N609 1.279 . S
C612 C611 1.358 . S
C612 H615 0.930 . S
C613 C610 1.348 . S
C613 C611 1.356 . S
H614 C608 0.930 . S
H615 C612 0.930 . S
C616 C618 1.348 . S
C616 C619 1.356 . S
C616 O646 1.325 . S
N617 C620 1.314 . S
N617 C621 1.279 . S
C618 C616 1.348 . S
C618 C620 1.353 . S
C618 H660 0.929 . S
C619 C616 1.356 . S
C619 C621 1.358 . S
C619 H661 0.930 . S
C620 N617 1.314 . S
C620 C618 1.353 . S
C620 H662 0.930 . S
C621 N617 1.279 . S
C621 C619 1.358 . S
C621 H663 0.930 . S
C622 C623 1.348 . S
C622 C624 1.356 . S
C622 O647 1.325 . S
C623 C622 1.348 . S
C623 C625 1.353 . S
C623 H664 0.929 . S
C624 C622 1.356 . S
C624 C626 1.358 . S
C624 H665 0.930 . S
C625 C623 1.353 . S
C625 N627 1.314 . S
C625 H666 0.930 . S
C626 C624 1.358 . S
C626 N627 1.279 . S
C626 H667 0.930 . S
N627 C625 1.314 . S
N627 C626 1.279 . S
C628 C630 1.353 . S
C628 N631 1.314 . S
C628 H634 0.930 . S
C629 N631 1.279 . S
C629 C632 1.358 . S
C629 H635 0.930 . S
C630 C628 1.353 . S
C630 C633 1.348 . S
C630 H668 0.929 . S
N631 Li586 1.990 . S
N631 C628 1.314 . S
N631 C629 1.279 . S
C632 C629 1.358 . S
C632 C633 1.356 . S
C632 H669 0.930 . S
C633 C630 1.348 . S
C633 C632 1.356 . S
H634 C628 0.930 . S
H635 C629 0.930 . S
C636 N637 1.314 . S
C636 C638 1.353 . S
C636 H642 0.930 . S
N637 Li587 1.990 . S
N637 C636 1.314 . S
N637 C640 1.279 . S
C638 C636 1.353 . S
C638 C641 1.348 . S
C638 H670 0.929 . S
C639 C640 1.358 . S
C639 C641 1.356 . S
C639 H671 0.930 . S
C640 N637 1.279 . S
C640 C639 1.358 . S
C640 H643 0.930 . S
C641 C638 1.348 . S
C641 C639 1.356 . S
H642 C636 0.930 . S
H643 C640 0.930 . S
O644 Li584 1.956 . S
O644 Li585 1.970 . S
O644 Li586 1.961 . S
O644 C588 1.325 . S
O645 Li584 1.970 . S
O645 Li585 1.956 . S
O645 Li587 1.961 . S
O645 C594 1.325 . S
O646 Li584 1.961 . S
O646 Li586 1.956 . S
O646 Li587 1.970 . S
O646 C616 1.325 . S
O647 Li585 1.961 . S
O647 Li586 1.970 . S
O647 Li587 1.956 . S
O647 C622 1.325 . S
H648 C590 0.929 . S
H649 C591 0.930 . S
H650 C592 0.930 . S
H651 C593 0.930 . S
H652 C595 0.930 . S
H653 C597 0.929 . S
H654 C598 0.930 . S
H655 C599 0.930 . S
H656 C602 0.930 . S
H657 C605 0.929 . S
H658 C610 0.929 . S
H659 C611 0.930 . S
H660 C618 0.929 . S
H661 C619 0.930 . S
H662 C620 0.930 . S
H663 C621 0.930 . S
H664 C623 0.929 . S
H665 C624 0.930 . S
H666 C625 0.930 . S
H667 C626 0.930 . S
H668 C630 0.929 . S
H669 C632 0.930 . S
H670 C638 0.929 . S
H671 C639 0.930 . S
Li672 N689 1.990 . S
Li672 O732 1.956 . S
Li672 O733 1.970 . S
Li672 O734 1.961 . S
Li673 N697 1.990 . S
Li673 O732 1.970 . S
Li673 O733 1.956 . S
Li673 O735 1.961 . S
Li674 N719 1.990 . S
Li674 O732 1.961 . S
Li674 O734 1.956 . S
Li674 O735 1.970 . S
Li675 N725 1.990 . S
Li675 O733 1.961 . S
Li675 O734 1.970 . S
Li675 O735 1.956 . S
C676 C678 1.348 . S
C676 C679 1.356 . S
C676 O732 1.325 . S
N677 C680 1.314 . S
N677 C681 1.279 . S
C678 C676 1.348 . S
C678 C680 1.353 . S
C678 H736 0.929 . S
C679 C676 1.356 . S
C679 C681 1.358 . S
C679 H737 0.930 . S
C680 N677 1.314 . S
C680 C678 1.353 . S
C680 H738 0.930 . S
C681 N677 1.279 . S
C681 C679 1.358 . S
C681 H739 0.930 . S
C682 C685 1.348 . S
C682 C686 1.356 . S
C682 O733 1.325 . S
C683 N684 1.279 . S
C683 C686 1.358 . S
C683 H740 0.930 . S
N684 C683 1.279 . S
N684 C687 1.314 . S
C685 C682 1.348 . S
C685 C687 1.353 . S
C685 H741 0.929 . S
C686 C682 1.356 . S
C686 C683 1.358 . S
C686 H742 0.930 . S
C687 N684 1.314 . S
C687 C685 1.353 . S
C687 H743 0.930 . S
C688 N689 1.314 . S
C688 C693 1.353 . S
C688 H694 0.930 . S
N689 Li672 1.990 . S
N689 C688 1.314 . S
N689 C691 1.279 . S
C690 C691 1.358 . S
C690 C692 1.356 . S
C690 H744 0.930 . S
C691 N689 1.279 . S
C691 C690 1.358 . S
C691 H695 0.930 . S
C692 C690 1.356 . S
C692 C693 1.348 . S
C693 C688 1.353 . S
C693 C692 1.348 . S
C693 H745 0.929 . S
H694 C688 0.930 . S
H695 C691 0.930 . S
C696 N697 1.314 . S
C696 C698 1.353 . S
C696 H702 0.930 . S
N697 Li673 1.990 . S
N697 C696 1.314 . S
N697 C700 1.279 . S
C698 C696 1.353 . S
C698 C701 1.348 . S
C698 H746 0.929 . S
C699 C700 1.358 . S
C699 C701 1.356 . S
C699 H747 0.930 . S
C700 N697 1.279 . S
C700 C699 1.358 . S
C700 H703 0.930 . S
C701 C698 1.348 . S
C701 C699 1.356 . S
H702 C696 0.930 . S
H703 C700 0.930 . S
C704 C706 1.348 . S
C704 C707 1.356 . S
C704 O734 1.325 . S
N705 C708 1.314 . S
N705 C709 1.279 . S
C706 C704 1.348 . S
C706 C708 1.353 . S
C706 H748 0.929 . S
C707 C704 1.356 . S
C707 C709 1.358 . S
C707 H749 0.930 . S
C708 N705 1.314 . S
C708 C706 1.353 . S
C708 H750 0.930 . S
C709 N705 1.279 . S
C709 C707 1.358 . S
C709 H751 0.930 . S
C710 C711 1.348 . S
C710 C712 1.356 . S
C710 O735 1.325 . S
C711 C710 1.348 . S
C711 C713 1.353 . S
C711 H752 0.929 . S
C712 C710 1.356 . S
C712 C714 1.358 . S
C712 H753 0.930 . S
C713 C711 1.353 . S
C713 N715 1.314 . S
C713 H754 0.930 . S
C714 C712 1.358 . S
C714 N715 1.279 . S
C714 H755 0.930 . S
N715 C713 1.314 . S
N715 C714 1.279 . S
C716 C718 1.353 . S
C716 N719 1.314 . S
C716 H722 0.930 . S
C717 N719 1.279 . S
C717 C720 1.358 . S
C717 H723 0.930 . S
C718 C716 1.353 . S
C718 C721 1.348 . S
C718 H756 0.929 . S
N719 Li674 1.990 . S
N719 C716 1.314 . S
N719 C717 1.279 . S
C720 C717 1.358 . S
C720 C721 1.356 . S
C720 H757 0.930 . S
C721 C718 1.348 . S
C721 C720 1.356 . S
H722 C716 0.930 . S
H723 C717 0.930 . S
C724 N725 1.314 . S
C724 C726 1.353 . S
C724 H730 0.930 . S
N725 Li675 1.990 . S
N725 C724 1.314 . S
N725 C728 1.279 . S
C726 C724 1.353 . S
C726 C729 1.348 . S
C726 H758 0.929 . S
C727 C728 1.358 . S
C727 C729 1.356 . S
C727 H759 0.930 . S
C728 N725 1.279 . S
C728 C727 1.358 . S
C728 H731 0.930 . S
C729 C726 1.348 . S
C729 C727 1.356 . S
H730 C724 0.930 . S
H731 C728 0.930 . S
O732 Li672 1.956 . S
O732 Li673 1.970 . S
O732 Li674 1.961 . S
O732 C676 1.325 . S
O733 Li672 1.970 . S
O733 Li673 1.956 . S
O733 Li675 1.961 . S
O733 C682 1.325 . S
O734 Li672 1.961 . S
O734 Li674 1.956 . S
O734 Li675 1.970 . S
O734 C704 1.325 . S
O735 Li673 1.961 . S
O735 Li674 1.970 . S
O735 Li675 1.956 . S
O735 C710 1.325 . S
H736 C678 0.929 . S
H737 C679 0.930 . S
H738 C680 0.930 . S
H739 C681 0.930 . S
H740 C683 0.930 . S
H741 C685 0.929 . S
H742 C686 0.930 . S
H743 C687 0.930 . S
H744 C690 0.930 . S
H745 C693 0.929 . S
H746 C698 0.929 . S
H747 C699 0.930 . S
H748 C706 0.929 . S
H749 C707 0.930 . S
H750 C708 0.930 . S
H751 C709 0.930 . S
H752 C711 0.929 . S
H753 C712 0.930 . S
H754 C713 0.930 . S
H755 C714 0.930 . S
H756 C718 0.929 . S
H757 C720 0.930 . S
H758 C726 0.929 . S
H759 C727 0.930 . S
Li760 N777 1.990 . S
Li760 O820 1.956 . S
Li760 O821 1.970 1_565 S
Li760 O822 1.961 . S
Li761 N785 1.990 . S
Li761 O820 1.970 1_545 S
Li761 O821 1.956 . S
Li761 O823 1.961 . S
Li762 N807 1.990 . S
Li762 O820 1.961 . S
Li762 O822 1.956 . S
Li762 O823 1.970 1_565 S
Li763 N813 1.990 . S
Li763 O821 1.961 . S
Li763 O822 1.970 1_545 S
Li763 O823 1.956 . S
C764 C766 1.348 . S
C764 C767 1.356 . S
C764 O820 1.325 . S
N765 C768 1.314 . S
N765 C769 1.279 . S
C766 C764 1.348 . S
C766 C768 1.353 . S
C766 H824 0.929 . S
C767 C764 1.356 . S
C767 C769 1.358 . S
C767 H825 0.930 . S
C768 N765 1.314 . S
C768 C766 1.353 . S
C768 H826 0.930 . S
C769 N765 1.279 . S
C769 C767 1.358 . S
C769 H827 0.930 . S
C770 C773 1.348 1_545 S
C770 C774 1.356 . S
C770 O821 1.325 . S
C771 N772 1.279 . S
C771 C774 1.358 . S
C771 H828 0.930 . S
N772 C771 1.279 . S
N772 C775 1.314 1_545 S
C773 C770 1.348 1_565 S
C773 C775 1.353 . S
C773 H829 0.929 . S
C774 C770 1.356 . S
C774 C771 1.358 . S
C774 H830 0.930 . S
C775 N772 1.314 1_565 S
C775 C773 1.353 . S
C775 H831 0.930 . S
C776 N777 1.314 . S
C776 C781 1.353 . S
C776 H782 0.930 . S
N777 Li760 1.990 . S
N777 C776 1.314 . S
N777 C779 1.279 . S
C778 C779 1.358 . S
C778 C780 1.356 . S
C778 H832 0.930 . S
C779 N777 1.279 . S
C779 C778 1.358 . S
C779 H783 0.930 . S
C780 C778 1.356 . S
C780 C781 1.348 . S
C781 C776 1.353 . S
C781 C780 1.348 . S
C781 H833 0.929 . S
H782 C776 0.930 . S
H783 C779 0.930 . S
C784 N785 1.314 . S
C784 C786 1.353 . S
C784 H790 0.930 . S
N785 Li761 1.990 . S
N785 C784 1.314 . S
N785 C788 1.279 . S
C786 C784 1.353 . S
C786 C789 1.348 . S
C786 H834 0.929 . S
C787 C788 1.358 . S
C787 C789 1.356 . S
C787 H835 0.930 . S
C788 N785 1.279 . S
C788 C787 1.358 . S
C788 H791 0.930 . S
C789 C786 1.348 . S
C789 C787 1.356 . S
H790 C784 0.930 . S
H791 C788 0.930 . S
C792 C794 1.348 1_565 S
C792 C795 1.356 . S
C792 O822 1.325 . S
N793 C796 1.314 1_565 S
N793 C797 1.279 . S
C794 C792 1.348 1_545 S
C794 C796 1.353 . S
C794 H836 0.929 . S
C795 C792 1.356 . S
C795 C797 1.358 . S
C795 H837 0.930 . S
C796 N793 1.314 1_545 S
C796 C794 1.353 . S
C796 H838 0.930 . S
C797 N793 1.279 . S
C797 C795 1.358 . S
C797 H839 0.930 . S
C798 C799 1.348 . S
C798 C800 1.356 . S
C798 O823 1.325 . S
C799 C798 1.348 . S
C799 C801 1.353 . S
C799 H840 0.929 . S
C800 C798 1.356 . S
C800 C802 1.358 . S
C800 H841 0.930 . S
C801 C799 1.353 . S
C801 N803 1.314 . S
C801 H842 0.930 . S
C802 C800 1.358 . S
C802 N803 1.279 . S
C802 H843 0.930 . S
N803 C801 1.314 . S
N803 C802 1.279 . S
C804 C806 1.353 . S
C804 N807 1.314 . S
C804 H810 0.930 . S
C805 N807 1.279 . S
C805 C808 1.358 . S
C805 H811 0.930 . S
C806 C804 1.353 . S
C806 C809 1.348 . S
C806 H844 0.929 . S
N807 Li762 1.990 . S
N807 C804 1.314 . S
N807 C805 1.279 . S
C808 C805 1.358 . S
C808 C809 1.356 . S
C808 H845 0.930 . S
C809 C806 1.348 . S
C809 C808 1.356 . S
H810 C804 0.930 . S
H811 C805 0.930 . S
C812 N813 1.314 . S
C812 C814 1.353 . S
C812 H818 0.930 . S
N813 Li763 1.990 . S
N813 C812 1.314 . S
N813 C816 1.279 . S
C814 C812 1.353 . S
C814 C817 1.348 . S
C814 H846 0.929 . S
C815 C816 1.358 . S
C815 C817 1.356 . S
C815 H847 0.930 . S
C816 N813 1.279 . S
C816 C815 1.358 . S
C816 H819 0.930 . S
C817 C814 1.348 . S
C817 C815 1.356 . S
H818 C812 0.930 . S
H819 C816 0.930 . S
O820 Li760 1.956 . S
O820 Li761 1.970 1_565 S
O820 Li762 1.961 . S
O820 C764 1.325 . S
O821 Li760 1.970 1_545 S
O821 Li761 1.956 . S
O821 Li763 1.961 . S
O821 C770 1.325 . S
O822 Li760 1.961 . S
O822 Li762 1.956 . S
O822 Li763 1.970 1_565 S
O822 C792 1.325 . S
O823 Li761 1.961 . S
O823 Li762 1.970 1_545 S
O823 Li763 1.956 . S
O823 C798 1.325 . S
H824 C766 0.929 . S
H825 C767 0.930 . S
H826 C768 0.930 . S
H827 C769 0.930 . S
H828 C771 0.930 . S
H829 C773 0.929 . S
H830 C774 0.930 . S
H831 C775 0.930 . S
H832 C778 0.930 . S
H833 C781 0.929 . S
H834 C786 0.929 . S
H835 C787 0.930 . S
H836 C794 0.929 . S
H837 C795 0.930 . S
H838 C796 0.930 . S
H839 C797 0.930 . S
H840 C799 0.929 . S
H841 C800 0.930 . S
H842 C801 0.930 . S
H843 C802 0.930 . S
H844 C806 0.929 . S
H845 C808 0.930 . S
H846 C814 0.929 . S
H847 C815 0.930 . S
Li848 N865 1.990 . S
Li848 O908 1.956 . S
Li848 O909 1.970 1_455 S
Li848 O910 1.961 . S
Li849 N873 1.990 . S
Li849 O908 1.970 1_655 S
Li849 O909 1.956 . S
Li849 O911 1.961 . S
Li850 N895 1.990 . S
Li850 O908 1.961 . S
Li850 O910 1.956 . S
Li850 O911 1.970 1_455 S
Li851 N901 1.990 . S
Li851 O909 1.961 . S
Li851 O910 1.970 1_655 S
Li851 O911 1.956 . S
C852 C854 1.348 . S
C852 C855 1.356 . S
C852 O908 1.325 . S
N853 C856 1.314 . S
N853 C857 1.279 . S
C854 C852 1.348 . S
C854 C856 1.353 . S
C854 H912 0.929 . S
C855 C852 1.356 . S
C855 C857 1.358 . S
C855 H913 0.930 . S
C856 N853 1.314 . S
C856 C854 1.353 . S
C856 H914 0.930 . S
C857 N853 1.279 . S
C857 C855 1.358 . S
C857 H915 0.930 . S
C858 C861 1.348 1_655 S
C858 C862 1.356 . S
C858 O909 1.325 . S
C859 N860 1.279 . S
C859 C862 1.358 . S
C859 H916 0.930 . S
N860 C859 1.279 . S
N860 C863 1.314 1_655 S
C861 C858 1.348 1_455 S
C861 C863 1.353 . S
C861 H917 0.929 . S
C862 C858 1.356 . S
C862 C859 1.358 . S
C862 H918 0.930 . S
C863 N860 1.314 1_455 S
C863 C861 1.353 . S
C863 H919 0.930 . S
C864 N865 1.314 . S
C864 C869 1.353 . S
C864 H870 0.930 . S
N865 Li848 1.990 . S
N865 C864 1.314 . S
N865 C867 1.279 . S
C866 C867 1.358 . S
C866 C868 1.356 . S
C866 H920 0.930 . S
C867 N865 1.279 . S
C867 C866 1.358 . S
C867 H871 0.930 . S
C868 C866 1.356 . S
C868 C869 1.348 . S
C869 C864 1.353 . S
C869 C868 1.348 . S
C869 H921 0.929 . S
H870 C864 0.930 . S
H871 C867 0.930 . S
C872 N873 1.314 . S
C872 C874 1.353 . S
C872 H878 0.930 . S
N873 Li849 1.990 . S
N873 C872 1.314 . S
N873 C876 1.279 . S
C874 C872 1.353 . S
C874 C877 1.348 . S
C874 H922 0.929 . S
C875 C876 1.358 . S
C875 C877 1.356 . S
C875 H923 0.930 . S
C876 N873 1.279 . S
C876 C875 1.358 . S
C876 H879 0.930 . S
C877 C874 1.348 . S
C877 C875 1.356 . S
H878 C872 0.930 . S
H879 C876 0.930 . S
C880 C882 1.348 1_455 S
C880 C883 1.356 . S
C880 O910 1.325 . S
N881 C884 1.314 1_455 S
N881 C885 1.279 . S
C882 C880 1.348 1_655 S
C882 C884 1.353 . S
C882 H924 0.929 . S
C883 C880 1.356 . S
C883 C885 1.358 . S
C883 H925 0.930 . S
C884 N881 1.314 1_655 S
C884 C882 1.353 . S
C884 H926 0.930 . S
C885 N881 1.279 . S
C885 C883 1.358 . S
C885 H927 0.930 . S
C886 C887 1.348 . S
C886 C888 1.356 . S
C886 O911 1.325 . S
C887 C886 1.348 . S
C887 C889 1.353 . S
C887 H928 0.929 . S
C888 C886 1.356 . S
C888 C890 1.358 . S
C888 H929 0.930 . S
C889 C887 1.353 . S
C889 N891 1.314 . S
C889 H930 0.930 . S
C890 C888 1.358 . S
C890 N891 1.279 . S
C890 H931 0.930 . S
N891 C889 1.314 . S
N891 C890 1.279 . S
C892 C894 1.353 . S
C892 N895 1.314 . S
C892 H898 0.930 . S
C893 N895 1.279 . S
C893 C896 1.358 . S
C893 H899 0.930 . S
C894 C892 1.353 . S
C894 C897 1.348 . S
C894 H932 0.929 . S
N895 Li850 1.990 . S
N895 C892 1.314 . S
N895 C893 1.279 . S
C896 C893 1.358 . S
C896 C897 1.356 . S
C896 H933 0.930 . S
C897 C894 1.348 . S
C897 C896 1.356 . S
H898 C892 0.930 . S
H899 C893 0.930 . S
C900 N901 1.314 . S
C900 C902 1.353 . S
C900 H906 0.930 . S
N901 Li851 1.990 . S
N901 C900 1.314 . S
N901 C904 1.279 . S
C902 C900 1.353 . S
C902 C905 1.348 . S
C902 H934 0.929 . S
C903 C904 1.358 . S
C903 C905 1.356 . S
C903 H935 0.930 . S
C904 N901 1.279 . S
C904 C903 1.358 . S
C904 H907 0.930 . S
C905 C902 1.348 . S
C905 C903 1.356 . S
H906 C900 0.930 . S
H907 C904 0.930 . S
O908 Li848 1.956 . S
O908 Li849 1.970 1_455 S
O908 Li850 1.961 . S
O908 C852 1.325 . S
O909 Li848 1.970 1_655 S
O909 Li849 1.956 . S
O909 Li851 1.961 . S
O909 C858 1.325 . S
O910 Li848 1.961 . S
O910 Li850 1.956 . S
O910 Li851 1.970 1_455 S
O910 C880 1.325 . S
O911 Li849 1.961 . S
O911 Li850 1.970 1_655 S
O911 Li851 1.956 . S
O911 C886 1.325 . S
H912 C854 0.929 . S
H913 C855 0.930 . S
H914 C856 0.930 . S
H915 C857 0.930 . S
H916 C859 0.930 . S
H917 C861 0.929 . S
H918 C862 0.930 . S
H919 C863 0.930 . S
H920 C866 0.930 . S
H921 C869 0.929 . S
H922 C874 0.929 . S
H923 C875 0.930 . S
H924 C882 0.929 . S
H925 C883 0.930 . S
H926 C884 0.930 . S
H927 C885 0.930 . S
H928 C887 0.929 . S
H929 C888 0.930 . S
H930 C889 0.930 . S
H931 C890 0.930 . S
H932 C894 0.929 . S
H933 C896 0.930 . S
H934 C902 0.929 . S
H935 C903 0.930 . S
Li936 N953 1.990 . S
Li936 O996 1.956 . S
Li936 O997 1.970 . S
Li936 O998 1.961 . S
Li937 N961 1.990 . S
Li937 O996 1.970 . S
Li937 O997 1.956 . S
Li937 O999 1.961 . S
Li938 N983 1.990 . S
Li938 O996 1.961 . S
Li938 O998 1.956 . S
Li938 O999 1.970 . S
Li939 N989 1.990 . S
Li939 O997 1.961 . S
Li939 O998 1.970 . S
Li939 O999 1.956 . S
C940 C942 1.348 . S
C940 C943 1.356 . S
C940 O996 1.325 . S
N941 C944 1.314 . S
N941 C945 1.279 . S
C942 C940 1.348 . S
C942 C944 1.353 . S
C942 H1000 0.929 . S
C943 C940 1.356 . S
C943 C945 1.358 . S
C943 H1001 0.930 . S
C944 N941 1.314 . S
C944 C942 1.353 . S
C944 H1002 0.930 . S
C945 N941 1.279 . S
C945 C943 1.358 . S
C945 H1003 0.930 . S
C946 C949 1.348 . S
C946 C950 1.356 . S
C946 O997 1.325 . S
C947 N948 1.279 . S
C947 C950 1.358 . S
C947 H1004 0.930 . S
N948 C947 1.279 . S
N948 C951 1.314 . S
C949 C946 1.348 . S
C949 C951 1.353 . S
C949 H1005 0.929 . S
C950 C946 1.356 . S
C950 C947 1.358 . S
C950 H1006 0.930 . S
C951 N948 1.314 . S
C951 C949 1.353 . S
C951 H1007 0.930 . S
C952 N953 1.314 . S
C952 C957 1.353 . S
C952 H958 0.930 . S
N953 Li936 1.990 . S
N953 C952 1.314 . S
N953 C955 1.279 . S
C954 C955 1.358 . S
C954 C956 1.356 . S
C954 H1008 0.930 . S
C955 N953 1.279 . S
C955 C954 1.358 . S
C955 H959 0.930 . S
C956 C954 1.356 . S
C956 C957 1.348 . S
C957 C952 1.353 . S
C957 C956 1.348 . S
C957 H1009 0.929 . S
H958 C952 0.930 . S
H959 C955 0.930 . S
C960 N961 1.314 . S
C960 C962 1.353 . S
C960 H966 0.930 . S
N961 Li937 1.990 . S
N961 C960 1.314 . S
N961 C964 1.279 . S
C962 C960 1.353 . S
C962 C965 1.348 . S
C962 H1010 0.929 . S
C963 C964 1.358 . S
C963 C965 1.356 . S
C963 H1011 0.930 . S
C964 N961 1.279 . S
C964 C963 1.358 . S
C964 H967 0.930 . S
C965 C962 1.348 . S
C965 C963 1.356 . S
H966 C960 0.930 . S
H967 C964 0.930 . S
C968 C970 1.348 . S
C968 C971 1.356 . S
C968 O998 1.325 . S
N969 C972 1.314 . S
N969 C973 1.279 . S
C970 C968 1.348 . S
C970 C972 1.353 . S
C970 H1012 0.929 . S
C971 C968 1.356 . S
C971 C973 1.358 . S
C971 H1013 0.930 . S
C972 N969 1.314 . S
C972 C970 1.353 . S
C972 H1014 0.930 . S
C973 N969 1.279 . S
C973 C971 1.358 . S
C973 H1015 0.930 . S
C974 C975 1.348 . S
C974 C976 1.356 . S
C974 O999 1.325 . S
C975 C974 1.348 . S
C975 C977 1.353 . S
C975 H1016 0.929 . S
C976 C974 1.356 . S
C976 C978 1.358 . S
C976 H1017 0.930 . S
C977 C975 1.353 . S
C977 N979 1.314 . S
C977 H1018 0.930 . S
C978 C976 1.358 . S
C978 N979 1.279 . S
C978 H1019 0.930 . S
N979 C977 1.314 . S
N979 C978 1.279 . S
C980 C982 1.353 . S
C980 N983 1.314 . S
C980 H986 0.930 . S
C981 N983 1.279 . S
C981 C984 1.358 . S
C981 H987 0.930 . S
C982 C980 1.353 . S
C982 C985 1.348 . S
C982 H1020 0.929 . S
N983 Li938 1.990 . S
N983 C980 1.314 . S
N983 C981 1.279 . S
C984 C981 1.358 . S
C984 C985 1.356 . S
C984 H1021 0.930 . S
C985 C982 1.348 . S
C985 C984 1.356 . S
H986 C980 0.930 . S
H987 C981 0.930 . S
C988 N989 1.314 . S
C988 C990 1.353 . S
C988 H994 0.930 . S
N989 Li939 1.990 . S
N989 C988 1.314 . S
N989 C992 1.279 . S
C990 C988 1.353 . S
C990 C993 1.348 . S
C990 H1022 0.929 . S
C991 C992 1.358 . S
C991 C993 1.356 . S
C991 H1023 0.930 . S
C992 N989 1.279 . S
C992 C991 1.358 . S
C992 H995 0.930 . S
C993 C990 1.348 . S
C993 C991 1.356 . S
H994 C988 0.930 . S
H995 C992 0.930 . S
O996 Li936 1.956 . S
O996 Li937 1.970 . S
O996 Li938 1.961 . S
O996 C940 1.325 . S
O997 Li936 1.970 . S
O997 Li937 1.956 . S
O997 Li939 1.961 . S
O997 C946 1.325 . S
O998 Li936 1.961 . S
O998 Li938 1.956 . S
O998 Li939 1.970 . S
O998 C968 1.325 . S
O999 Li937 1.961 . S
O999 Li938 1.970 . S
O999 Li939 1.956 . S
O999 C974 1.325 . S
H1000 C942 0.929 . S
H1001 C943 0.930 . S
H1002 C944 0.930 . S
H1003 C945 0.930 . S
H1004 C947 0.930 . S
H1005 C949 0.929 . S
H1006 C950 0.930 . S
H1007 C951 0.930 . S
H1008 C954 0.930 . S
H1009 C957 0.929 . S
H1010 C962 0.929 . S
H1011 C963 0.930 . S
H1012 C970 0.929 . S
H1013 C971 0.930 . S
H1014 C972 0.930 . S
H1015 C973 0.930 . S
H1016 C975 0.929 . S
H1017 C976 0.930 . S
H1018 C977 0.930 . S
H1019 C978 0.930 . S
H1020 C982 0.929 . S
H1021 C984 0.930 . S
H1022 C990 0.929 . S
H1023 C991 0.930 . S
Li1024 N1041 1.990 . S
Li1024 O1084 1.956 . S
Li1024 O1085 1.970 1_455 S
Li1024 O1086 1.961 . S
Li1025 N1049 1.990 . S
Li1025 O1084 1.970 1_655 S
Li1025 O1085 1.956 . S
Li1025 O1087 1.961 . S
Li1026 N1071 1.990 . S
Li1026 O1084 1.961 . S
Li1026 O1086 1.956 . S
Li1026 O1087 1.970 1_455 S
Li1027 N1077 1.990 . S
Li1027 O1085 1.961 . S
Li1027 O1086 1.970 1_655 S
Li1027 O1087 1.956 . S
C1028 C1030 1.348 1_455 S
C1028 C1031 1.356 . S
C1028 O1084 1.325 . S
N1029 C1032 1.314 1_455 S
N1029 C1033 1.279 . S
C1030 C1028 1.348 1_655 S
C1030 C1032 1.353 . S
C1030 H1088 0.929 . S
C1031 C1028 1.356 . S
C1031 C1033 1.358 . S
C1031 H1089 0.930 . S
C1032 N1029 1.314 1_655 S
C1032 C1030 1.353 . S
C1032 H1090 0.930 . S
C1033 N1029 1.279 . S
C1033 C1031 1.358 . S
C1033 H1091 0.930 . S
C1034 C1037 1.348 . S
C1034 C1038 1.356 . S
C1034 O1085 1.325 . S
C1035 N1036 1.279 . S
C1035 C1038 1.358 . S
C1035 H1092 0.930 . S
N1036 C1035 1.279 . S
N1036 C1039 1.314 . S
C1037 C1034 1.348 . S
C1037 C1039 1.353 . S
C1037 H1093 0.929 . S
C1038 C1034 1.356 . S
C1038 C1035 1.358 . S
C1038 H1094 0.930 . S
C1039 N1036 1.314 . S
C1039 C1037 1.353 . S
C1039 H1095 0.930 . S
C1040 N1041 1.314 . S
C1040 C1045 1.353 . S
C1040 H1046 0.930 . S
N1041 Li1024 1.990 . S
N1041 C1040 1.314 . S
N1041 C1043 1.279 . S
C1042 C1043 1.358 . S
C1042 C1044 1.356 . S
C1042 H1096 0.930 . S
C1043 N1041 1.279 . S
C1043 C1042 1.358 . S
C1043 H1047 0.930 . S
C1044 C1042 1.356 . S
C1044 C1045 1.348 . S
C1045 C1040 1.353 . S
C1045 C1044 1.348 . S
C1045 H1097 0.929 . S
H1046 C1040 0.930 . S
H1047 C1043 0.930 . S
C1048 N1049 1.314 . S
C1048 C1050 1.353 . S
C1048 H1054 0.930 . S
N1049 Li1025 1.990 . S
N1049 C1048 1.314 . S
N1049 C1052 1.279 . S
C1050 C1048 1.353 . S
C1050 C1053 1.348 . S
C1050 H1098 0.929 . S
C1051 C1052 1.358 . S
C1051 C1053 1.356 . S
C1051 H1099 0.930 . S
C1052 N1049 1.279 . S
C1052 C1051 1.358 . S
C1052 H1055 0.930 . S
C1053 C1050 1.348 . S
C1053 C1051 1.356 . S
H1054 C1048 0.930 . S
H1055 C1052 0.930 . S
C1056 C1058 1.348 . S
C1056 C1059 1.356 . S
C1056 O1086 1.325 . S
N1057 C1060 1.314 . S
N1057 C1061 1.279 . S
C1058 C1056 1.348 . S
C1058 C1060 1.353 . S
C1058 H1100 0.929 . S
C1059 C1056 1.356 . S
C1059 C1061 1.358 . S
C1059 H1101 0.930 . S
C1060 N1057 1.314 . S
C1060 C1058 1.353 . S
C1060 H1102 0.930 . S
C1061 N1057 1.279 . S
C1061 C1059 1.358 . S
C1061 H1103 0.930 . S
C1062 C1063 1.348 1_655 S
C1062 C1064 1.356 . S
C1062 O1087 1.325 . S
C1063 C1062 1.348 1_455 S
C1063 C1065 1.353 . S
C1063 H1104 0.929 . S
C1064 C1062 1.356 . S
C1064 C1066 1.358 . S
C1064 H1105 0.930 . S
C1065 C1063 1.353 . S
C1065 N1067 1.314 1_455 S
C1065 H1106 0.930 . S
C1066 C1064 1.358 . S
C1066 N1067 1.279 . S
C1066 H1107 0.930 . S
N1067 C1065 1.314 1_655 S
N1067 C1066 1.279 . S
C1068 C1070 1.353 . S
C1068 N1071 1.314 . S
C1068 H1074 0.930 . S
C1069 N1071 1.279 . S
C1069 C1072 1.358 . S
C1069 H1075 0.930 . S
C1070 C1068 1.353 . S
C1070 C1073 1.348 . S
C1070 H1108 0.929 . S
N1071 Li1026 1.990 . S
N1071 C1068 1.314 . S
N1071 C1069 1.279 . S
C1072 C1069 1.358 . S
C1072 C1073 1.356 . S
C1072 H1109 0.930 . S
C1073 C1070 1.348 . S
C1073 C1072 1.356 . S
H1074 C1068 0.930 . S
H1075 C1069 0.930 . S
C1076 N1077 1.314 . S
C1076 C1078 1.353 . S
C1076 H1082 0.930 . S
N1077 Li1027 1.990 . S
N1077 C1076 1.314 . S
N1077 C1080 1.279 . S
C1078 C1076 1.353 . S
C1078 C1081 1.348 . S
C1078 H1110 0.929 . S
C1079 C1080 1.358 . S
C1079 C1081 1.356 . S
C1079 H1111 0.930 . S
C1080 N1077 1.279 . S
C1080 C1079 1.358 . S
C1080 H1083 0.930 . S
C1081 C1078 1.348 . S
C1081 C1079 1.356 . S
H1082 C1076 0.930 . S
H1083 C1080 0.930 . S
O1084 Li1024 1.956 . S
O1084 Li1025 1.970 1_455 S
O1084 Li1026 1.961 . S
O1084 C1028 1.325 . S
O1085 Li1024 1.970 1_655 S
O1085 Li1025 1.956 . S
O1085 Li1027 1.961 . S
O1085 C1034 1.325 . S
O1086 Li1024 1.961 . S
O1086 Li1026 1.956 . S
O1086 Li1027 1.970 1_455 S
O1086 C1056 1.325 . S
O1087 Li1025 1.961 . S
O1087 Li1026 1.970 1_655 S
O1087 Li1027 1.956 . S
O1087 C1062 1.325 . S
H1088 C1030 0.929 . S
H1089 C1031 0.930 . S
H1090 C1032 0.930 . S
H1091 C1033 0.930 . S
H1092 C1035 0.930 . S
H1093 C1037 0.929 . S
H1094 C1038 0.930 . S
H1095 C1039 0.930 . S
H1096 C1042 0.930 . S
H1097 C1045 0.929 . S
H1098 C1050 0.929 . S
H1099 C1051 0.930 . S
H1100 C1058 0.929 . S
H1101 C1059 0.930 . S
H1102 C1060 0.930 . S
H1103 C1061 0.930 . S
H1104 C1063 0.929 . S
H1105 C1064 0.930 . S
H1106 C1065 0.930 . S
H1107 C1066 0.930 . S
H1108 C1070 0.929 . S
H1109 C1072 0.930 . S
H1110 C1078 0.929 . S
H1111 C1079 0.930 . S
Li1112 N1129 1.990 . S
Li1112 O1172 1.956 . S
Li1112 O1173 1.970 . S
Li1112 O1174 1.961 . S
Li1113 N1137 1.990 . S
Li1113 O1172 1.970 . S
Li1113 O1173 1.956 . S
Li1113 O1175 1.961 . S
Li1114 N1159 1.990 . S
Li1114 O1172 1.961 . S
Li1114 O1174 1.956 . S
Li1114 O1175 1.970 . S
Li1115 N1165 1.990 . S
Li1115 O1173 1.961 . S
Li1115 O1174 1.970 . S
Li1115 O1175 1.956 . S
C1116 C1118 1.348 . S
C1116 C1119 1.356 . S
C1116 O1172 1.325 . S
N1117 C1120 1.314 . S
N1117 C1121 1.279 . S
C1118 C1116 1.348 . S
C1118 C1120 1.353 . S
C1118 H1176 0.929 . S
C1119 C1116 1.356 . S
C1119 C1121 1.358 . S
C1119 H1177 0.930 . S
C1120 N1117 1.314 . S
C1120 C1118 1.353 . S
C1120 H1178 0.930 . S
C1121 N1117 1.279 . S
C1121 C1119 1.358 . S
C1121 H1179 0.930 . S
C1122 C1125 1.348 . S
C1122 C1126 1.356 . S
C1122 O1173 1.325 . S
C1123 N1124 1.279 . S
C1123 C1126 1.358 . S
C1123 H1180 0.930 . S
N1124 C1123 1.279 . S
N1124 C1127 1.314 . S
C1125 C1122 1.348 . S
C1125 C1127 1.353 . S
C1125 H1181 0.929 . S
C1126 C1122 1.356 . S
C1126 C1123 1.358 . S
C1126 H1182 0.930 . S
C1127 N1124 1.314 . S
C1127 C1125 1.353 . S
C1127 H1183 0.930 . S
C1128 N1129 1.314 . S
C1128 C1133 1.353 . S
C1128 H1134 0.930 . S
N1129 Li1112 1.990 . S
N1129 C1128 1.314 . S
N1129 C1131 1.279 . S
C1130 C1131 1.358 . S
C1130 C1132 1.356 . S
C1130 H1184 0.930 . S
C1131 N1129 1.279 . S
C1131 C1130 1.358 . S
C1131 H1135 0.930 . S
C1132 C1130 1.356 . S
C1132 C1133 1.348 . S
C1133 C1128 1.353 . S
C1133 C1132 1.348 . S
C1133 H1185 0.929 . S
H1134 C1128 0.930 . S
H1135 C1131 0.930 . S
C1136 N1137 1.314 . S
C1136 C1138 1.353 . S
C1136 H1142 0.930 . S
N1137 Li1113 1.990 . S
N1137 C1136 1.314 . S
N1137 C1140 1.279 . S
C1138 C1136 1.353 . S
C1138 C1141 1.348 . S
C1138 H1186 0.929 . S
C1139 C1140 1.358 . S
C1139 C1141 1.356 . S
C1139 H1187 0.930 . S
C1140 N1137 1.279 . S
C1140 C1139 1.358 . S
C1140 H1143 0.930 . S
C1141 C1138 1.348 . S
C1141 C1139 1.356 . S
H1142 C1136 0.930 . S
H1143 C1140 0.930 . S
C1144 C1146 1.348 . S
C1144 C1147 1.356 . S
C1144 O1174 1.325 . S
N1145 C1148 1.314 . S
N1145 C1149 1.279 . S
C1146 C1144 1.348 . S
C1146 C1148 1.353 . S
C1146 H1188 0.929 . S
C1147 C1144 1.356 . S
C1147 C1149 1.358 . S
C1147 H1189 0.930 . S
C1148 N1145 1.314 . S
C1148 C1146 1.353 . S
C1148 H1190 0.930 . S
C1149 N1145 1.279 . S
C1149 C1147 1.358 . S
C1149 H1191 0.930 . S
C1150 C1151 1.348 . S
C1150 C1152 1.356 . S
C1150 O1175 1.325 . S
C1151 C1150 1.348 . S
C1151 C1153 1.353 . S
C1151 H1192 0.929 . S
C1152 C1150 1.356 . S
C1152 C1154 1.358 . S
C1152 H1193 0.930 . S
C1153 C1151 1.353 . S
C1153 N1155 1.314 . S
C1153 H1194 0.930 . S
C1154 C1152 1.358 . S
C1154 N1155 1.279 . S
C1154 H1195 0.930 . S
N1155 C1153 1.314 . S
N1155 C1154 1.279 . S
C1156 C1158 1.353 . S
C1156 N1159 1.314 . S
C1156 H1162 0.930 . S
C1157 N1159 1.279 . S
C1157 C1160 1.358 . S
C1157 H1163 0.930 . S
C1158 C1156 1.353 . S
C1158 C1161 1.348 . S
C1158 H1196 0.929 . S
N1159 Li1114 1.990 . S
N1159 C1156 1.314 . S
N1159 C1157 1.279 . S
C1160 C1157 1.358 . S
C1160 C1161 1.356 . S
C1160 H1197 0.930 . S
C1161 C1158 1.348 . S
C1161 C1160 1.356 . S
H1162 C1156 0.930 . S
H1163 C1157 0.930 . S
C1164 N1165 1.314 . S
C1164 C1166 1.353 . S
C1164 H1170 0.930 . S
N1165 Li1115 1.990 . S
N1165 C1164 1.314 . S
N1165 C1168 1.279 . S
C1166 C1164 1.353 . S
C1166 C1169 1.348 . S
C1166 H1198 0.929 . S
C1167 C1168 1.358 . S
C1167 C1169 1.356 . S
C1167 H1199 0.930 . S
C1168 N1165 1.279 . S
C1168 C1167 1.358 . S
C1168 H1171 0.930 . S
C1169 C1166 1.348 . S
C1169 C1167 1.356 . S
H1170 C1164 0.930 . S
H1171 C1168 0.930 . S
O1172 Li1112 1.956 . S
O1172 Li1113 1.970 . S
O1172 Li1114 1.961 . S
O1172 C1116 1.325 . S
O1173 Li1112 1.970 . S
O1173 Li1113 1.956 . S
O1173 Li1115 1.961 . S
O1173 C1122 1.325 . S
O1174 Li1112 1.961 . S
O1174 Li1114 1.956 . S
O1174 Li1115 1.970 . S
O1174 C1144 1.325 . S
O1175 Li1113 1.961 . S
O1175 Li1114 1.970 . S
O1175 Li1115 1.956 . S
O1175 C1150 1.325 . S
H1176 C1118 0.929 . S
H1177 C1119 0.930 . S
H1178 C1120 0.930 . S
H1179 C1121 0.930 . S
H1180 C1123 0.930 . S
H1181 C1125 0.929 . S
H1182 C1126 0.930 . S
H1183 C1127 0.930 . S
H1184 C1130 0.930 . S
H1185 C1133 0.929 . S
H1186 C1138 0.929 . S
H1187 C1139 0.930 . S
H1188 C1146 0.929 . S
H1189 C1147 0.930 . S
H1190 C1148 0.930 . S
H1191 C1149 0.930 . S
H1192 C1151 0.929 . S
H1193 C1152 0.930 . S
H1194 C1153 0.930 . S
H1195 C1154 0.930 . S
H1196 C1158 0.929 . S
H1197 C1160 0.930 . S
H1198 C1166 0.929 . S
H1199 C1167 0.930 . S
H1200 C1208 0.950 . S
H1201 C1213 0.950 . S
H1202 C1210 0.950 . S
H1203 C1212 0.950 . S
H1204 C1214 0.950 . S
H1205 C1216 0.950 . S
H1206 C1218 0.950 . S
H1207 C1219 0.950 . S
C1208 H1200 0.950 . S
C1208 C1209 1.386 . S
C1208 C1210 1.391 . S
C1209 C1208 1.386 . S
C1209 C1213 1.393 . S
C1210 H1202 0.950 . S
C1210 C1208 1.391 . S
C1210 C1211 1.400 . S
C1211 C1210 1.400 . S
C1211 C1212 1.398 . S
C1211 C1217 1.491 . S
C1212 H1203 0.950 . S
C1212 C1211 1.398 . S
C1212 C1213 1.391 . S
C1213 H1201 0.950 . S
C1213 C1209 1.393 . S
C1213 C1212 1.391 . S
C1214 H1204 0.950 . S
C1214 C1215 1.386 . S
C1214 C1216 1.391 . S
C1215 C1214 1.386 . S
C1215 C1219 1.393 . S
C1216 H1205 0.950 . S
C1216 C1214 1.391 . S
C1216 C1217 1.400 . S
C1217 C1211 1.491 . S
C1217 C1216 1.400 . S
C1217 C1218 1.398 . S
C1218 H1206 0.950 . S
C1218 C1217 1.398 . S
C1218 C1219 1.391 . S
C1219 H1207 0.950 . S
C1219 C1215 1.393 . S
C1219 C1218 1.391 . S
H1220 C1228 0.944 1_655 S
H1221 C1233 0.950 . S
H1222 C1230 0.950 . S
H1223 C1232 0.950 . S
H1224 C1234 0.950 . S
H1225 C1236 0.950 . S
H1226 C1238 0.950 . S
H1227 C1239 0.950 . S
C1228 H1220 0.944 1_455 S
C1228 C1229 1.383 1_455 S
C1228 C1230 1.400 . S
C1229 C1228 1.383 1_655 S
C1229 C1233 1.393 1_655 S
C1230 H1222 0.950 . S
C1230 C1228 1.400 . S
C1230 C1231 1.400 . S
C1231 C1230 1.400 . S
C1231 C1232 1.398 . S
C1231 C1237 1.491 . S
C1232 H1223 0.950 . S
C1232 C1231 1.398 . S
C1232 C1233 1.391 . S
C1233 H1221 0.950 . S
C1233 C1229 1.393 1_455 S
C1233 C1232 1.391 . S
C1234 H1224 0.950 . S
C1234 C1235 1.386 . S
C1234 C1236 1.391 . S
C1235 C1234 1.386 . S
C1235 C1239 1.393 . S
C1236 H1225 0.950 . S
C1236 C1234 1.391 . S
C1236 C1237 1.400 . S
C1237 C1231 1.491 . S
C1237 C1236 1.400 . S
C1237 C1238 1.398 . S
C1238 H1226 0.950 . S
C1238 C1237 1.398 . S
C1238 C1239 1.391 . S
C1239 H1227 0.950 . S
C1239 C1235 1.393 . S
C1239 C1238 1.391 . S
H1240 C1248 0.950 . S
H1241 C1253 0.950 . S
H1242 C1250 0.950 . S
H1243 C1252 0.950 . S
H1244 C1254 0.950 . S
H1245 C1256 0.950 . S
H1246 C1258 0.950 . S
H1247 C1259 0.950 . S
C1248 H1240 0.950 . S
C1248 C1249 1.386 . S
C1248 C1250 1.391 . S
C1249 C1248 1.386 . S
C1249 C1253 1.393 . S
C1250 H1242 0.950 . S
C1250 C1248 1.391 . S
C1250 C1251 1.400 . S
C1251 C1250 1.400 . S
C1251 C1252 1.398 . S
C1251 C1257 1.491 . S
C1252 H1243 0.950 . S
C1252 C1251 1.398 . S
C1252 C1253 1.391 . S
C1253 H1241 0.950 . S
C1253 C1249 1.393 . S
C1253 C1252 1.391 . S
C1254 H1244 0.950 . S
C1254 C1255 1.386 . S
C1254 C1256 1.391 . S
C1255 C1254 1.386 . S
C1255 C1259 1.393 . S
C1256 H1245 0.950 . S
C1256 C1254 1.391 . S
C1256 C1257 1.400 . S
C1257 C1251 1.491 . S
C1257 C1256 1.400 . S
C1257 C1258 1.398 . S
C1258 H1246 0.950 . S
C1258 C1257 1.398 . S
C1258 C1259 1.391 . S
C1259 H1247 0.950 . S
C1259 C1255 1.393 . S
C1259 C1258 1.391 . S
H1260 C1268 0.950 . S
H1261 C1273 0.950 . S
H1262 C1270 0.950 . S
H1263 C1272 0.950 . S
H1264 C1274 0.950 . S
H1265 C1276 0.950 . S
H1266 C1278 0.950 . S
H1267 C1279 0.950 . S
C1268 H1260 0.950 . S
C1268 C1269 1.386 1_655 S
C1268 C1270 1.391 . S
C1269 C1268 1.386 1_455 S
C1269 C1273 1.393 . S
C1270 H1262 0.950 . S
C1270 C1268 1.391 . S
C1270 C1271 1.400 . S
C1271 C1270 1.400 . S
C1271 C1272 1.398 1_655 S
C1271 C1277 1.491 . S
C1272 H1263 0.950 . S
C1272 C1271 1.398 1_455 S
C1272 C1273 1.391 . S
C1273 H1261 0.950 . S
C1273 C1269 1.393 . S
C1273 C1272 1.391 . S
C1274 H1264 0.950 . S
C1274 C1275 1.386 . S
C1274 C1276 1.391 . S
C1275 C1274 1.386 . S
C1275 C1279 1.393 . S
C1276 H1265 0.950 . S
C1276 C1274 1.391 . S
C1276 C1277 1.400 . S
C1277 C1271 1.491 . S
C1277 C1276 1.400 . S
C1277 C1278 1.398 . S
C1278 H1266 0.950 . S
C1278 C1277 1.398 . S
C1278 C1279 1.391 . S
C1279 H1267 0.950 . S
C1279 C1275 1.393 . S
C1279 C1278 1.391 . S
H1280 C1288 0.950 . S
H1281 C1293 0.950 . S
H1282 C1290 0.950 . S
H1283 C1292 0.950 . S
H1284 C1294 0.950 . S
H1285 C1296 0.950 . S
H1286 C1298 0.950 . S
H1287 C1299 0.950 . S
C1288 H1280 0.950 . S
C1288 C1289 1.386 . S
C1288 C1290 1.391 . S
C1289 C1288 1.386 . S
C1289 C1293 1.393 . S
C1290 H1282 0.950 . S
C1290 C1288 1.391 . S
C1290 C1291 1.400 . S
C1291 C1290 1.400 . S
C1291 C1292 1.398 . S
C1291 C1297 1.491 . S
C1292 H1283 0.950 . S
C1292 C1291 1.398 . S
C1292 C1293 1.391 . S
C1293 H1281 0.950 . S
C1293 C1289 1.393 . S
C1293 C1292 1.391 . S
C1294 H1284 0.950 . S
C1294 C1295 1.386 . S
C1294 C1296 1.391 . S
C1295 C1294 1.386 . S
C1295 C1299 1.393 . S
C1296 H1285 0.950 . S
C1296 C1294 1.391 . S
C1296 C1297 1.400 . S
C1297 C1291 1.491 . S
C1297 C1296 1.400 . S
C1297 C1298 1.398 . S
C1298 H1286 0.950 . S
C1298 C1297 1.398 . S
C1298 C1299 1.391 . S
C1299 H1287 0.950 . S
C1299 C1295 1.393 . S
C1299 C1298 1.391 . S
H1300 C1308 0.950 . S
H1301 C1313 0.950 . S
H1302 C1310 0.950 . S
H1303 C1312 0.950 . S
H1304 C1314 0.950 . S
H1305 C1316 0.950 . S
H1306 C1318 0.950 . S
H1307 C1319 0.950 . S
C1308 H1300 0.950 . S
C1308 C1309 1.386 . S
C1308 C1310 1.391 . S
C1309 C1308 1.386 . S
C1309 C1313 1.393 . S
C1310 H1302 0.950 . S
C1310 C1308 1.391 . S
C1310 C1311 1.400 . S
C1311 C1310 1.400 . S
C1311 C1312 1.398 . S
C1311 C1317 1.491 . S
C1312 H1303 0.950 . S
C1312 C1311 1.398 . S
C1312 C1313 1.391 . S
C1313 H1301 0.950 . S
C1313 C1309 1.393 . S
C1313 C1312 1.391 . S
C1314 H1304 0.950 . S
C1314 C1315 1.386 . S
C1314 C1316 1.391 . S
C1315 C1314 1.386 . S
C1315 C1319 1.393 . S
C1316 H1305 0.950 . S
C1316 C1314 1.391 . S
C1316 C1317 1.400 . S
C1317 C1311 1.491 . S
C1317 C1316 1.400 . S
C1317 C1318 1.398 . S
C1318 H1306 0.950 . S
C1318 C1317 1.398 . S
C1318 C1319 1.391 . S
C1319 H1307 0.950 . S
C1319 C1315 1.393 . S
C1319 C1318 1.391 . S
H1320 C1328 0.950 . S
H1321 C1333 0.950 . S
H1322 C1330 0.950 . S
H1323 C1332 0.950 . S
H1324 C1334 0.950 . S
H1325 C1336 0.950 . S
H1326 C1338 0.950 . S
H1327 C1339 0.950 . S
C1328 H1320 0.950 . S
C1328 C1329 1.386 . S
C1328 C1330 1.391 . S
C1329 C1328 1.386 . S
C1329 C1333 1.393 . S
C1330 H1322 0.950 . S
C1330 C1328 1.391 . S
C1330 C1331 1.400 . S
C1331 C1330 1.400 . S
C1331 C1332 1.398 . S
C1331 C1337 1.491 . S
C1332 H1323 0.950 . S
C1332 C1331 1.398 . S
C1332 C1333 1.391 . S
C1333 H1321 0.950 . S
C1333 C1329 1.393 . S
C1333 C1332 1.391 . S
C1334 H1324 0.950 . S
C1334 C1335 1.386 . S
C1334 C1336 1.391 . S
C1335 C1334 1.386 . S
C1335 C1339 1.393 . S
C1336 H1325 0.950 . S
C1336 C1334 1.391 . S
C1336 C1337 1.400 . S
C1337 C1331 1.491 . S
C1337 C1336 1.400 . S
C1337 C1338 1.398 . S
C1338 H1326 0.950 . S
C1338 C1337 1.398 . S
C1338 C1339 1.391 . S
C1339 H1327 0.950 . S
C1339 C1335 1.393 . S
C1339 C1338 1.391 . S
H1340 C1348 0.950 . S
H1341 C1353 0.950 1_545 S
H1342 C1350 0.950 . S
H1343 C1352 0.950 1_545 S
H1344 C1354 0.950 . S
H1345 C1356 0.950 1_545 S
H1346 C1358 0.950 . S
H1347 C1359 0.950 . S
C1348 H1340 0.950 . S
C1348 C1349 1.386 . S
C1348 C1350 1.391 . S
C1349 C1348 1.386 . S
C1349 C1353 1.393 . S
C1350 H1342 0.950 . S
C1350 C1348 1.391 . S
C1350 C1351 1.400 . S
C1351 C1350 1.400 . S
C1351 C1352 1.398 . S
C1351 C1357 1.491 . S
C1352 H1343 0.950 1_565 S
C1352 C1351 1.398 . S
C1352 C1353 1.391 . S
C1353 H1341 0.950 1_565 S
C1353 C1349 1.393 . S
C1353 C1352 1.391 . S
C1354 H1344 0.950 . S
C1354 C1355 1.386 1_545 S
C1354 C1356 1.391 1_545 S
C1355 C1354 1.386 1_565 S
C1355 C1359 1.393 . S
C1356 H1345 0.950 1_565 S
C1356 C1354 1.391 1_565 S
C1356 C1357 1.400 . S
C1357 C1351 1.491 . S
C1357 C1356 1.400 . S
C1357 C1358 1.398 . S
C1358 H1346 0.950 . S
C1358 C1357 1.398 . S
C1358 C1359 1.391 . S
C1359 H1347 0.950 . S
C1359 C1355 1.393 . S
C1359 C1358 1.391 . S
H1360 C1368 0.950 . S
H1361 C1373 0.950 . S
H1362 C1370 0.950 . S
H1363 C1372 0.950 . S
H1364 C1374 0.950 . S
H1365 C1376 0.950 . S
H1366 C1378 0.950 . S
H1367 C1379 0.950 . S
C1368 H1360 0.950 . S
C1368 C1369 1.386 . S
C1368 C1370 1.391 . S
C1369 C1368 1.386 . S
C1369 C1373 1.393 . S
C1370 H1362 0.950 . S
C1370 C1368 1.391 . S
C1370 C1371 1.400 . S
C1371 C1370 1.400 . S
C1371 C1372 1.398 . S
C1371 C1377 1.491 . S
C1372 H1363 0.950 . S
C1372 C1371 1.398 . S
C1372 C1373 1.391 . S
C1373 H1361 0.950 . S
C1373 C1369 1.393 . S
C1373 C1372 1.391 . S
C1374 H1364 0.950 . S
C1374 C1375 1.386 . S
C1374 C1376 1.391 . S
C1375 C1374 1.386 . S
C1375 C1379 1.393 . S
C1376 H1365 0.950 . S
C1376 C1374 1.391 . S
C1376 C1377 1.400 . S
C1377 C1371 1.491 . S
C1377 C1376 1.400 . S
C1377 C1378 1.398 . S
C1378 H1366 0.950 . S
C1378 C1377 1.398 . S
C1378 C1379 1.391 . S
C1379 H1367 0.950 . S
C1379 C1375 1.393 . S
C1379 C1378 1.391 . S
H1380 C1388 0.950 . S
H1381 C1393 0.950 . S
H1382 C1390 0.950 . S
H1383 C1392 0.950 . S
H1384 C1394 0.950 . S
H1385 C1396 0.950 . S
H1386 C1398 0.950 . S
H1387 C1399 0.950 . S
C1388 H1380 0.950 . S
C1388 C1389 1.386 . S
C1388 C1390 1.391 . S
C1389 C1388 1.386 . S
C1389 C1393 1.393 . S
C1390 H1382 0.950 . S
C1390 C1388 1.391 . S
C1390 C1391 1.400 . S
C1391 C1390 1.400 . S
C1391 C1392 1.398 . S
C1391 C1397 1.491 . S
C1392 H1383 0.950 . S
C1392 C1391 1.398 . S
C1392 C1393 1.391 . S
C1393 H1381 0.950 . S
C1393 C1389 1.393 . S
C1393 C1392 1.391 . S
C1394 H1384 0.950 . S
C1394 C1395 1.386 . S
C1394 C1396 1.391 . S
C1395 C1394 1.386 . S
C1395 C1399 1.393 . S
C1396 H1385 0.950 . S
C1396 C1394 1.391 . S
C1396 C1397 1.400 . S
C1397 C1391 1.491 . S
C1397 C1396 1.400 . S
C1397 C1398 1.398 . S
C1398 H1386 0.950 . S
C1398 C1397 1.398 . S
C1398 C1399 1.391 . S
C1399 H1387 0.950 . S
C1399 C1395 1.393 . S
C1399 C1398 1.391 . S
H1400 C1408 0.950 . S
H1401 C1413 0.950 . S
H1402 C1410 0.950 . S
H1403 C1412 0.950 . S
H1404 C1414 0.950 . S
H1405 C1416 0.950 . S
H1406 C1418 0.950 . S
H1407 C1419 0.950 . S
C1408 H1400 0.950 . S
C1408 C1409 1.386 . S
C1408 C1410 1.391 . S
C1409 C1408 1.386 . S
C1409 C1413 1.393 . S
C1410 H1402 0.950 . S
C1410 C1408 1.391 . S
C1410 C1411 1.400 . S
C1411 C1410 1.400 . S
C1411 C1412 1.398 . S
C1411 C1417 1.491 . S
C1412 H1403 0.950 . S
C1412 C1411 1.398 . S
C1412 C1413 1.391 . S
C1413 H1401 0.950 . S
C1413 C1409 1.393 . S
C1413 C1412 1.391 . S
C1414 H1404 0.950 . S
C1414 C1415 1.386 . S
C1414 C1416 1.391 . S
C1415 C1414 1.386 . S
C1415 C1419 1.393 . S
C1416 H1405 0.950 . S
C1416 C1414 1.391 . S
C1416 C1417 1.400 . S
C1417 C1411 1.491 . S
C1417 C1416 1.400 . S
C1417 C1418 1.398 . S
C1418 H1406 0.950 . S
C1418 C1417 1.398 . S
C1418 C1419 1.391 . S
C1419 H1407 0.950 . S
C1419 C1415 1.393 . S
C1419 C1418 1.391 . S
H1420 C1428 0.950 . S
H1421 C1433 0.950 . S
H1422 C1430 0.950 . S
H1423 C1432 0.950 . S
H1424 C1434 0.950 . S
H1425 C1436 0.950 . S
H1426 C1438 0.950 . S
H1427 C1439 0.950 . S
C1428 H1420 0.950 . S
C1428 C1429 1.386 . S
C1428 C1430 1.391 . S
C1429 C1428 1.386 . S
C1429 C1433 1.393 . S
C1430 H1422 0.950 . S
C1430 C1428 1.391 . S
C1430 C1431 1.400 . S
C1431 C1430 1.400 . S
C1431 C1432 1.398 . S
C1431 C1437 1.491 . S
C1432 H1423 0.950 . S
C1432 C1431 1.398 . S
C1432 C1433 1.391 . S
C1433 H1421 0.950 . S
C1433 C1429 1.393 . S
C1433 C1432 1.391 . S
C1434 H1424 0.950 . S
C1434 C1435 1.386 . S
C1434 C1436 1.391 . S
C1435 C1434 1.386 . S
C1435 C1439 1.393 . S
C1436 H1425 0.950 . S
C1436 C1434 1.391 . S
C1436 C1437 1.400 . S
C1437 C1431 1.491 . S
C1437 C1436 1.400 . S
C1437 C1438 1.398 . S
C1438 H1426 0.950 . S
C1438 C1437 1.398 . S
C1438 C1439 1.391 . S
C1439 H1427 0.950 . S
C1439 C1435 1.393 . S
C1439 C1438 1.391 . S
H1440 C1448 0.950 . S
H1441 C1453 0.950 . S
H1442 C1450 0.950 . S
H1443 C1452 0.950 . S
H1444 C1454 0.950 . S
H1445 C1456 0.950 . S
H1446 C1458 0.950 . S
H1447 C1459 0.950 . S
C1448 H1440 0.950 . S
C1448 C1449 1.386 . S
C1448 C1450 1.391 . S
C1449 C1448 1.386 . S
C1449 C1453 1.393 . S
C1450 H1442 0.950 . S
C1450 C1448 1.391 . S
C1450 C1451 1.400 . S
C1451 C1450 1.400 . S
C1451 C1452 1.398 . S
C1451 C1457 1.491 . S
C1452 H1443 0.950 . S
C1452 C1451 1.398 . S
C1452 C1453 1.391 . S
C1453 H1441 0.950 . S
C1453 C1449 1.393 . S
C1453 C1452 1.391 . S
C1454 H1444 0.950 . S
C1454 C1455 1.386 . S
C1454 C1456 1.391 . S
C1455 C1454 1.386 . S
C1455 C1459 1.393 . S
C1456 H1445 0.950 . S
C1456 C1454 1.391 . S
C1456 C1457 1.400 . S
C1457 C1451 1.491 . S
C1457 C1456 1.400 . S
C1457 C1458 1.398 . S
C1458 H1446 0.950 . S
C1458 C1457 1.398 . S
C1458 C1459 1.391 . S
C1459 H1447 0.950 . S
C1459 C1455 1.393 . S
C1459 C1458 1.391 . S
H1460 C1468 0.950 . S
H1461 C1473 0.950 . S
H1462 C1470 0.950 . S
H1463 C1472 0.950 . S
H1464 C1474 0.950 . S
H1465 C1476 0.950 . S
H1466 C1478 0.950 . S
H1467 C1479 0.950 . S
C1468 H1460 0.950 . S
C1468 C1469 1.386 . S
C1468 C1470 1.391 . S
C1469 C1468 1.386 . S
C1469 C1473 1.393 . S
C1470 H1462 0.950 . S
C1470 C1468 1.391 . S
C1470 C1471 1.400 . S
C1471 C1470 1.400 . S
C1471 C1472 1.398 . S
C1471 C1477 1.491 . S
C1472 H1463 0.950 . S
C1472 C1471 1.398 . S
C1472 C1473 1.391 . S
C1473 H1461 0.950 . S
C1473 C1469 1.393 . S
C1473 C1472 1.391 . S
C1474 H1464 0.950 . S
C1474 C1475 1.386 . S
C1474 C1476 1.391 . S
C1475 C1474 1.386 . S
C1475 C1479 1.393 . S
C1476 H1465 0.950 . S
C1476 C1474 1.391 . S
C1476 C1477 1.400 . S
C1477 C1471 1.491 . S
C1477 C1476 1.400 . S
C1477 C1478 1.398 . S
C1478 H1466 0.950 . S
C1478 C1477 1.398 . S
C1478 C1479 1.391 . S
C1479 H1467 0.950 . S
C1479 C1475 1.393 . S
C1479 C1478 1.391 . S
H1480 C1488 0.950 . S
H1481 C1493 0.950 . S
H1482 C1490 0.950 . S
H1483 C1492 0.950 . S
H1484 C1494 0.950 . S
H1485 C1496 0.950 . S
H1486 C1498 0.950 . S
H1487 C1499 0.950 . S
C1488 H1480 0.950 . S
C1488 C1489 1.386 . S
C1488 C1490 1.391 . S
C1489 C1488 1.386 . S
C1489 C1493 1.393 . S
C1490 H1482 0.950 . S
C1490 C1488 1.391 . S
C1490 C1491 1.400 . S
C1491 C1490 1.400 . S
C1491 C1492 1.398 . S
C1491 C1497 1.491 . S
C1492 H1483 0.950 . S
C1492 C1491 1.398 . S
C1492 C1493 1.391 . S
C1493 H1481 0.950 . S
C1493 C1489 1.393 . S
C1493 C1492 1.391 . S
C1494 H1484 0.950 . S
C1494 C1495 1.386 . S
C1494 C1496 1.391 . S
C1495 C1494 1.386 . S
C1495 C1499 1.393 . S
C1496 H1485 0.950 . S
C1496 C1494 1.391 . S
C1496 C1497 1.400 . S
C1497 C1491 1.491 . S
C1497 C1496 1.400 . S
C1497 C1498 1.398 . S
C1498 H1486 0.950 . S
C1498 C1497 1.398 . S
C1498 C1499 1.391 . S
C1499 H1487 0.950 . S
C1499 C1495 1.393 . S
C1499 C1498 1.391 . S
H1500 C1508 0.950 . S
H1501 C1513 0.950 1_455 S
H1502 C1510 0.950 . S
H1503 C1512 0.950 1_455 S
H1504 C1514 0.950 . S
H1505 C1516 0.959 . S
H1506 C1518 0.950 . S
H1507 C1519 0.950 . S
C1508 H1500 0.950 . S
C1508 C1509 1.386 . S
C1508 C1510 1.391 . S
C1509 C1508 1.386 . S
C1509 C1513 1.393 . S
C1510 H1502 0.950 . S
C1510 C1508 1.391 . S
C1510 C1511 1.400 . S
C1511 C1510 1.400 . S
C1511 C1512 1.398 . S
C1511 C1517 1.491 . S
C1512 H1503 0.950 1_655 S
C1512 C1511 1.398 . S
C1512 C1513 1.391 . S
C1513 H1501 0.950 1_655 S
C1513 C1509 1.393 . S
C1513 C1512 1.391 . S
C1514 H1504 0.950 . S
C1514 C1515 1.386 1_455 S
C1514 C1516 1.393 . S
C1515 C1514 1.386 1_655 S
C1515 C1519 1.393 . S
C1516 H1505 0.959 . S
C1516 C1514 1.393 . S
C1516 C1517 1.390 1_455 S
C1517 C1511 1.491 . S
C1517 C1516 1.390 1_655 S
C1517 C1518 1.398 . S
C1518 H1506 0.950 . S
C1518 C1517 1.398 . S
C1518 C1519 1.391 . S
C1519 H1507 0.950 . S
C1519 C1515 1.393 . S
C1519 C1518 1.391 . S
H1520 C1528 0.950 . S
H1521 C1533 0.950 . S
H1522 C1530 0.950 . S
H1523 C1532 0.950 . S
H1524 C1534 0.950 . S
H1525 C1536 0.950 . S
H1526 C1538 0.950 . S
H1527 C1539 0.950 . S
C1528 H1520 0.950 . S
C1528 C1529 1.386 . S
C1528 C1530 1.391 . S
C1529 C1528 1.386 . S
C1529 C1533 1.393 . S
C1530 H1522 0.950 . S
C1530 C1528 1.391 . S
C1530 C1531 1.400 . S
C1531 C1530 1.400 . S
C1531 C1532 1.398 . S
C1531 C1537 1.491 . S
C1532 H1523 0.950 . S
C1532 C1531 1.398 . S
C1532 C1533 1.391 . S
C1533 H1521 0.950 . S
C1533 C1529 1.393 . S
C1533 C1532 1.391 . S
C1534 H1524 0.950 . S
C1534 C1535 1.386 . S
C1534 C1536 1.391 . S
C1535 C1534 1.386 . S
C1535 C1539 1.393 . S
C1536 H1525 0.950 . S
C1536 C1534 1.391 . S
C1536 C1537 1.400 . S
C1537 C1531 1.491 . S
C1537 C1536 1.400 . S
C1537 C1538 1.398 . S
C1538 H1526 0.950 . S
C1538 C1537 1.398 . S
C1538 C1539 1.391 . S
C1539 H1527 0.950 . S
C1539 C1535 1.393 . S
C1539 C1538 1.391 . S
H1540 C1548 0.950 . S
H1541 C1553 0.950 . S
H1542 C1550 0.950 . S
H1543 C1552 0.950 . S
H1544 C1554 0.950 . S
H1545 C1556 0.950 . S
H1546 C1558 0.950 . S
H1547 C1559 0.950 . S
C1548 H1540 0.950 . S
C1548 C1549 1.386 . S
C1548 C1550 1.391 . S
C1549 C1548 1.386 . S
C1549 C1553 1.393 . S
C1550 H1542 0.950 . S
C1550 C1548 1.391 . S
C1550 C1551 1.400 . S
C1551 C1550 1.400 . S
C1551 C1552 1.398 . S
C1551 C1557 1.491 . S
C1552 H1543 0.950 . S
C1552 C1551 1.398 . S
C1552 C1553 1.391 . S
C1553 H1541 0.950 . S
C1553 C1549 1.393 . S
C1553 C1552 1.391 . S
C1554 H1544 0.950 . S
C1554 C1555 1.386 . S
C1554 C1556 1.391 . S
C1555 C1554 1.386 . S
C1555 C1559 1.393 . S
C1556 H1545 0.950 . S
C1556 C1554 1.391 . S
C1556 C1557 1.400 . S
C1557 C1551 1.491 . S
C1557 C1556 1.400 . S
C1557 C1558 1.398 . S
C1558 H1546 0.950 . S
C1558 C1557 1.398 . S
C1558 C1559 1.391 . S
C1559 H1547 0.950 . S
C1559 C1555 1.393 . S
C1559 C1558 1.391 . S
H1560 C1568 0.950 . S
H1561 C1573 0.950 . S
H1562 C1570 0.950 1_545 S
H1563 C1572 0.950 . S
H1564 C1574 0.950 1_554 S
H1565 C1576 0.950 1_554 S
H1566 C1578 0.950 . S
H1567 C1579 0.950 . S
C1568 H1560 0.950 . S
C1568 C1569 1.386 . S
C1568 C1570 1.391 1_545 S
C1569 C1568 1.386 . S
C1569 C1573 1.393 1_545 S
C1570 H1562 0.950 1_565 S
C1570 C1568 1.391 1_565 S
C1570 C1571 1.400 . S
C1571 C1570 1.400 . S
C1571 C1572 1.398 . S
C1571 C1577 1.491 . S
C1572 H1563 0.950 . S
C1572 C1571 1.398 . S
C1572 C1573 1.391 . S
C1573 H1561 0.950 . S
C1573 C1569 1.393 1_565 S
C1573 C1572 1.391 . S
C1574 H1564 0.950 1_556 S
C1574 C1575 1.386 . S
C1574 C1576 1.391 . S
C1575 C1574 1.386 . S
C1575 C1579 1.393 . S
C1576 H1565 0.950 1_556 S
C1576 C1574 1.391 . S
C1576 C1577 1.400 . S
C1577 C1571 1.491 . S
C1577 C1576 1.400 . S
C1577 C1578 1.398 . S
C1578 H1566 0.950 . S
C1578 C1577 1.398 . S
C1578 C1579 1.391 . S
C1579 H1567 0.950 . S
C1579 C1575 1.393 . S
C1579 C1578 1.391 . S
H1580 C1588 0.950 . S
H1581 C1593 0.950 . S
H1582 C1590 0.950 . S
H1583 C1592 0.950 . S
H1584 C1594 0.950 . S
H1585 C1596 0.950 . S
H1586 C1598 0.950 . S
H1587 C1599 0.950 . S
C1588 H1580 0.950 . S
C1588 C1589 1.386 . S
C1588 C1590 1.391 . S
C1589 C1588 1.386 . S
C1589 C1593 1.393 . S
C1590 H1582 0.950 . S
C1590 C1588 1.391 . S
C1590 C1591 1.400 . S
C1591 C1590 1.400 . S
C1591 C1592 1.398 . S
C1591 C1597 1.491 . S
C1592 H1583 0.950 . S
C1592 C1591 1.398 . S
C1592 C1593 1.391 . S
C1593 H1581 0.950 . S
C1593 C1589 1.393 . S
C1593 C1592 1.391 . S
C1594 H1584 0.950 . S
C1594 C1595 1.386 . S
C1594 C1596 1.391 . S
C1595 C1594 1.386 . S
C1595 C1599 1.393 . S
C1596 H1585 0.950 . S
C1596 C1594 1.391 . S
C1596 C1597 1.400 . S
C1597 C1591 1.491 . S
C1597 C1596 1.400 . S
C1597 C1598 1.398 . S
C1598 H1586 0.950 . S
C1598 C1597 1.398 . S
C1598 C1599 1.391 . S
C1599 H1587 0.950 . S
C1599 C1595 1.393 . S
C1599 C1598 1.391 . S
H1600 C1608 0.950 . S
H1601 C1613 0.950 . S
H1602 C1610 0.950 . S
H1603 C1612 0.950 . S
H1604 C1614 0.950 . S
H1605 C1616 0.950 . S
H1606 C1618 0.950 . S
H1607 C1619 0.950 . S
C1608 H1600 0.950 . S
C1608 C1609 1.386 . S
C1608 C1610 1.391 1_565 S
C1609 C1608 1.386 . S
C1609 C1613 1.393 1_565 S
C1610 H1602 0.950 . S
C1610 C1608 1.391 1_545 S
C1610 C1611 1.400 . S
C1611 C1610 1.400 . S
C1611 C1612 1.398 . S
C1611 C1617 1.491 . S
C1612 H1603 0.950 . S
C1612 C1611 1.398 . S
C1612 C1613 1.391 . S
C1613 H1601 0.950 . S
C1613 C1609 1.393 1_545 S
C1613 C1612 1.391 . S
C1614 H1604 0.950 . S
C1614 C1615 1.386 . S
C1614 C1616 1.391 . S
C1615 C1614 1.386 . S
C1615 C1619 1.393 . S
C1616 H1605 0.950 . S
C1616 C1614 1.391 . S
C1616 C1617 1.400 . S
C1617 C1611 1.491 . S
C1617 C1616 1.400 . S
C1617 C1618 1.398 . S
C1618 H1606 0.950 . S
C1618 C1617 1.398 . S
C1618 C1619 1.391 . S
C1619 H1607 0.950 . S
C1619 C1615 1.393 . S
C1619 C1618 1.391 . S
H1620 C1628 0.950 . S
H1621 C1633 0.950 . S
H1622 C1630 0.950 . S
H1623 C1632 0.950 . S
H1624 C1634 0.950 . S
H1625 C1636 0.950 . S
H1626 C1638 0.950 . S
H1627 C1639 0.950 . S
C1628 H1620 0.950 . S
C1628 C1629 1.386 . S
C1628 C1630 1.391 . S
C1629 C1628 1.386 . S
C1629 C1633 1.393 . S
C1630 H1622 0.950 . S
C1630 C1628 1.391 . S
C1630 C1631 1.400 . S
C1631 C1630 1.400 . S
C1631 C1632 1.398 . S
C1631 C1637 1.491 . S
C1632 H1623 0.950 . S
C1632 C1631 1.398 . S
C1632 C1633 1.391 . S
C1633 H1621 0.950 . S
C1633 C1629 1.393 . S
C1633 C1632 1.391 . S
C1634 H1624 0.950 . S
C1634 C1635 1.386 . S
C1634 C1636 1.391 . S
C1635 C1634 1.386 . S
C1635 C1639 1.393 . S
C1636 H1625 0.950 . S
C1636 C1634 1.391 . S
C1636 C1637 1.400 . S
C1637 C1631 1.491 . S
C1637 C1636 1.400 . S
C1637 C1638 1.398 . S
C1638 H1626 0.950 . S
C1638 C1637 1.398 . S
C1638 C1639 1.391 . S
C1639 H1627 0.950 . S
C1639 C1635 1.393 . S
C1639 C1638 1.391 . S
H1640 C1648 0.950 . S
H1641 C1653 0.950 . S
H1642 C1650 0.950 . S
H1643 C1652 0.950 . S
H1644 C1654 0.950 . S
H1645 C1656 0.950 . S
H1646 C1658 0.950 . S
H1647 C1659 0.950 . S
C1648 H1640 0.950 . S
C1648 C1649 1.386 1_545 S
C1648 C1650 1.391 . S
C1649 C1648 1.386 1_565 S
C1649 C1653 1.393 . S
C1650 H1642 0.950 . S
C1650 C1648 1.391 . S
C1650 C1651 1.400 . S
C1651 C1650 1.400 . S
C1651 C1652 1.398 1_545 S
C1651 C1657 1.491 . S
C1652 H1643 0.950 . S
C1652 C1651 1.398 1_565 S
C1652 C1653 1.391 . S
C1653 H1641 0.950 . S
C1653 C1649 1.393 . S
C1653 C1652 1.391 . S
C1654 H1644 0.950 . S
C1654 C1655 1.386 . S
C1654 C1656 1.391 . S
C1655 C1654 1.386 . S
C1655 C1659 1.393 . S
C1656 H1645 0.950 . S
C1656 C1654 1.391 . S
C1656 C1657 1.400 . S
C1657 C1651 1.491 . S
C1657 C1656 1.400 . S
C1657 C1658 1.398 . S
C1658 H1646 0.950 . S
C1658 C1657 1.398 . S
C1658 C1659 1.391 . S
C1659 H1647 0.950 . S
C1659 C1655 1.393 . S
C1659 C1658 1.391 . S
H1660 C1668 0.950 . S
H1661 C1673 0.950 . S
H1662 C1670 0.950 . S
H1663 C1672 0.950 . S
H1664 C1674 0.950 . S
H1665 C1676 0.950 . S
H1666 C1678 0.950 . S
H1667 C1679 0.950 . S
C1668 H1660 0.950 . S
C1668 C1669 1.386 . S
C1668 C1670 1.391 . S
C1669 C1668 1.386 . S
C1669 C1673 1.393 . S
C1670 H1662 0.950 . S
C1670 C1668 1.391 . S
C1670 C1671 1.400 . S
C1671 C1670 1.400 . S
C1671 C1672 1.398 . S
C1671 C1677 1.491 . S
C1672 H1663 0.950 . S
C1672 C1671 1.398 . S
C1672 C1673 1.391 . S
C1673 H1661 0.950 . S
C1673 C1669 1.393 . S
C1673 C1672 1.391 . S
C1674 H1664 0.950 . S
C1674 C1675 1.386 . S
C1674 C1676 1.391 . S
C1675 C1674 1.386 . S
C1675 C1679 1.393 . S
C1676 H1665 0.950 . S
C1676 C1674 1.391 . S
C1676 C1677 1.400 . S
C1677 C1671 1.491 . S
C1677 C1676 1.400 . S
C1677 C1678 1.398 . S
C1678 H1666 0.950 . S
C1678 C1677 1.398 . S
C1678 C1679 1.391 . S
C1679 H1667 0.950 . S
C1679 C1675 1.393 . S
C1679 C1678 1.391 . S
H1680 C1688 0.950 . S
H1681 C1693 0.950 . S
H1682 C1690 0.950 . S
H1683 C1692 0.950 . S
H1684 C1694 0.950 . S
H1685 C1696 0.950 . S
H1686 C1698 0.950 . S
H1687 C1699 0.950 . S
C1688 H1680 0.950 . S
C1688 C1689 1.386 . S
C1688 C1690 1.391 . S
C1689 C1688 1.386 . S
C1689 C1693 1.393 . S
C1690 H1682 0.950 . S
C1690 C1688 1.391 . S
C1690 C1691 1.400 . S
C1691 C1690 1.400 . S
C1691 C1692 1.398 . S
C1691 C1697 1.491 . S
C1692 H1683 0.950 . S
C1692 C1691 1.398 . S
C1692 C1693 1.391 . S
C1693 H1681 0.950 . S
C1693 C1689 1.393 . S
C1693 C1692 1.391 . S
C1694 H1684 0.950 . S
C1694 C1695 1.386 . S
C1694 C1696 1.391 . S
C1695 C1694 1.386 . S
C1695 C1699 1.393 . S
C1696 H1685 0.950 . S
C1696 C1694 1.391 . S
C1696 C1697 1.400 . S
C1697 C1691 1.491 . S
C1697 C1696 1.400 . S
C1697 C1698 1.398 . S
C1698 H1686 0.950 . S
C1698 C1697 1.398 . S
C1698 C1699 1.391 . S
C1699 H1687 0.950 . S
C1699 C1695 1.393 . S
C1699 C1698 1.391 . S
H1700 C1708 0.950 . S
H1701 C1713 0.950 . S
H1702 C1710 0.947 1_565 S
H1703 C1712 0.950 . S
H1704 C1714 0.950 . S
H1705 C1716 0.950 . S
H1706 C1718 0.950 1_565 S
H1707 C1719 0.950 1_565 S
C1708 H1700 0.950 . S
C1708 C1709 1.386 . S
C1708 C1710 1.391 . S
C1709 C1708 1.386 . S
C1709 C1713 1.393 . S
C1710 H1702 0.947 1_545 S
C1710 C1708 1.391 . S
C1710 C1711 1.400 . S
C1711 C1710 1.400 . S
C1711 C1712 1.398 . S
C1711 C1717 1.491 . S
C1712 H1703 0.950 . S
C1712 C1711 1.398 . S
C1712 C1713 1.391 . S
C1713 H1701 0.950 . S
C1713 C1709 1.393 . S
C1713 C1712 1.391 . S
C1714 H1704 0.950 . S
C1714 C1715 1.386 . S
C1714 C1716 1.391 . S
C1715 C1714 1.386 . S
C1715 C1719 1.393 . S
C1716 H1705 0.950 . S
C1716 C1714 1.391 . S
C1716 C1717 1.400 . S
C1717 C1711 1.491 . S
C1717 C1716 1.400 . S
C1717 C1718 1.398 . S
C1718 H1706 0.950 1_545 S
C1718 C1717 1.398 . S
C1718 C1719 1.391 . S
C1719 H1707 0.950 1_545 S
C1719 C1715 1.393 . S
C1719 C1718 1.391 . S
H1720 C1728 0.950 . S
H1721 C1733 0.950 . S
H1722 C1730 0.950 . S
H1723 C1732 0.950 . S
H1724 C1734 0.950 . S
H1725 C1736 0.950 . S
H1726 C1738 0.950 . S
H1727 C1739 0.950 . S
C1728 H1720 0.950 . S
C1728 C1729 1.386 . S
C1728 C1730 1.391 . S
C1729 C1728 1.386 . S
C1729 C1733 1.393 . S
C1730 H1722 0.950 . S
C1730 C1728 1.391 . S
C1730 C1731 1.400 . S
C1731 C1730 1.400 . S
C1731 C1732 1.398 . S
C1731 C1737 1.491 . S
C1732 H1723 0.950 . S
C1732 C1731 1.398 . S
C1732 C1733 1.391 . S
C1733 H1721 0.950 . S
C1733 C1729 1.393 . S
C1733 C1732 1.391 . S
C1734 H1724 0.950 . S
C1734 C1735 1.386 . S
C1734 C1736 1.391 . S
C1735 C1734 1.386 . S
C1735 C1739 1.393 . S
C1736 H1725 0.950 . S
C1736 C1734 1.391 . S
C1736 C1737 1.400 . S
C1737 C1731 1.491 . S
C1737 C1736 1.400 . S
C1737 C1738 1.398 . S
C1738 H1726 0.950 . S
C1738 C1737 1.398 . S
C1738 C1739 1.391 . S
C1739 H1727 0.950 . S
C1739 C1735 1.393 . S
C1739 C1738 1.391 . S
H1740 C1748 0.950 . S
H1741 C1753 0.950 . S
H1742 C1750 0.950 . S
H1743 C1752 0.950 . S
H1744 C1754 0.950 . S
H1745 C1756 0.950 . S
H1746 C1758 0.950 . S
H1747 C1759 0.950 . S
C1748 H1740 0.950 . S
C1748 C1749 1.386 . S
C1748 C1750 1.391 . S
C1749 C1748 1.386 . S
C1749 C1753 1.393 . S
C1750 H1742 0.950 . S
C1750 C1748 1.391 . S
C1750 C1751 1.400 . S
C1751 C1750 1.400 . S
C1751 C1752 1.398 . S
C1751 C1757 1.491 . S
C1752 H1743 0.950 . S
C1752 C1751 1.398 . S
C1752 C1753 1.391 . S
C1753 H1741 0.950 . S
C1753 C1749 1.393 . S
C1753 C1752 1.391 . S
C1754 H1744 0.950 . S
C1754 C1755 1.386 . S
C1754 C1756 1.391 . S
C1755 C1754 1.386 . S
C1755 C1759 1.393 . S
C1756 H1745 0.950 . S
C1756 C1754 1.391 . S
C1756 C1757 1.400 . S
C1757 C1751 1.491 . S
C1757 C1756 1.400 . S
C1757 C1758 1.398 . S
C1758 H1746 0.950 . S
C1758 C1757 1.398 . S
C1758 C1759 1.391 . S
C1759 H1747 0.950 . S
C1759 C1755 1.393 . S
C1759 C1758 1.391 . S
H1760 C1768 0.950 . S
H1761 C1773 0.950 . S
H1762 C1770 0.950 . S
H1763 C1772 0.950 . S
H1764 C1774 0.950 . S
H1765 C1776 0.950 . S
H1766 C1778 0.950 . S
H1767 C1779 0.950 . S
C1768 H1760 0.950 . S
C1768 C1769 1.386 . S
C1768 C1770 1.391 . S
C1769 C1768 1.386 . S
C1769 C1773 1.393 . S
C1770 H1762 0.950 . S
C1770 C1768 1.391 . S
C1770 C1771 1.400 . S
C1771 C1770 1.400 . S
C1771 C1772 1.398 . S
C1771 C1777 1.491 . S
C1772 H1763 0.950 . S
C1772 C1771 1.398 . S
C1772 C1773 1.391 . S
C1773 H1761 0.950 . S
C1773 C1769 1.393 . S
C1773 C1772 1.391 . S
C1774 H1764 0.950 . S
C1774 C1775 1.386 . S
C1774 C1776 1.391 . S
C1775 C1774 1.386 . S
C1775 C1779 1.393 . S
C1776 H1765 0.950 . S
C1776 C1774 1.391 . S
C1776 C1777 1.400 . S
C1777 C1771 1.491 . S
C1777 C1776 1.400 . S
C1777 C1778 1.398 . S
C1778 H1766 0.950 . S
C1778 C1777 1.398 . S
C1778 C1779 1.391 . S
C1779 H1767 0.950 . S
C1779 C1775 1.393 . S
C1779 C1778 1.391 . S
H1780 C1788 0.950 . S
H1781 C1793 0.950 . S
H1782 C1790 0.950 . S
H1783 C1792 0.902 1_465 S
H1784 C1794 0.950 1_565 S
H1785 C1796 0.950 1_565 S
H1786 C1798 0.950 . S
H1787 C1799 0.950 . S
C1788 H1780 0.950 . S
C1788 C1789 1.386 1_655 S
C1788 C1790 1.391 . S
C1789 C1788 1.386 1_455 S
C1789 C1793 1.393 . S
C1790 H1782 0.950 . S
C1790 C1788 1.391 . S
C1790 C1791 1.400 . S
C1791 C1790 1.400 . S
C1791 C1792 1.447 . S
C1791 C1797 1.491 . S
C1792 H1783 0.902 1_645 S
C1792 C1791 1.447 . S
C1792 C1793 1.357 1_655 S
C1793 H1781 0.950 . S
C1793 C1789 1.393 . S
C1793 C1792 1.357 1_455 S
C1794 H1784 0.950 1_545 S
C1794 C1795 1.386 . S
C1794 C1796 1.391 . S
C1795 C1794 1.386 . S
C1795 C1799 1.393 . S
C1796 H1785 0.950 1_545 S
C1796 C1794 1.391 . S
C1796 C1797 1.400 . S
C1797 C1791 1.491 . S
C1797 C1796 1.400 . S
C1797 C1798 1.398 . S
C1798 H1786 0.950 . S
C1798 C1797 1.398 . S
C1798 C1799 1.391 . S
C1799 H1787 0.950 . S
C1799 C1795 1.393 . S
C1799 C1798 1.391 . S
H1800 C1808 0.950 . S
H1801 C1813 0.950 . S
H1802 C1810 0.950 . S
H1803 C1812 0.950 . S
H1804 C1814 0.950 . S
H1805 C1816 0.950 . S
H1806 C1818 0.950 . S
H1807 C1819 0.950 . S
C1808 H1800 0.950 . S
C1808 C1809 1.386 . S
C1808 C1810 1.391 . S
C1809 C1808 1.386 . S
C1809 C1813 1.393 . S
C1810 H1802 0.950 . S
C1810 C1808 1.391 . S
C1810 C1811 1.400 . S
C1811 C1810 1.400 . S
C1811 C1812 1.398 . S
C1811 C1817 1.491 . S
C1812 H1803 0.950 . S
C1812 C1811 1.398 . S
C1812 C1813 1.391 . S
C1813 H1801 0.950 . S
C1813 C1809 1.393 . S
C1813 C1812 1.391 . S
C1814 H1804 0.950 . S
C1814 C1815 1.386 . S
C1814 C1816 1.391 . S
C1815 C1814 1.386 . S
C1815 C1819 1.393 . S
C1816 H1805 0.950 . S
C1816 C1814 1.391 . S
C1816 C1817 1.400 . S
C1817 C1811 1.491 . S
C1817 C1816 1.400 . S
C1817 C1818 1.398 . S
C1818 H1806 0.950 . S
C1818 C1817 1.398 . S
C1818 C1819 1.391 . S
C1819 H1807 0.950 . S
C1819 C1815 1.393 . S
C1819 C1818 1.391 . S
H1820 C1828 0.950 . S
H1821 C1833 0.950 . S
H1822 C1830 0.950 . S
H1823 C1832 0.969 . S
H1824 C1834 0.950 . S
H1825 C1836 0.950 . S
H1826 C1838 0.950 . S
H1827 C1839 0.950 . S
C1828 H1820 0.950 . S
C1828 C1829 1.386 1_455 S
C1828 C1830 1.391 . S
C1829 C1828 1.386 1_655 S
C1829 C1833 1.393 . S
C1830 H1822 0.950 . S
C1830 C1828 1.391 . S
C1830 C1831 1.400 . S
C1831 C1830 1.400 . S
C1831 C1832 1.354 1_455 S
C1831 C1837 1.491 . S
C1832 H1823 0.969 . S
C1832 C1831 1.354 1_655 S
C1832 C1833 1.418 . S
C1833 H1821 0.950 . S
C1833 C1829 1.393 . S
C1833 C1832 1.418 . S
C1834 H1824 0.950 . S
C1834 C1835 1.386 . S
C1834 C1836 1.391 . S
C1835 C1834 1.386 . S
C1835 C1839 1.393 . S
C1836 H1825 0.950 . S
C1836 C1834 1.391 . S
C1836 C1837 1.400 . S
C1837 C1831 1.491 . S
C1837 C1836 1.400 . S
C1837 C1838 1.398 . S
C1838 H1826 0.950 . S
C1838 C1837 1.398 . S
C1838 C1839 1.391 . S
C1839 H1827 0.950 . S
C1839 C1835 1.393 . S
C1839 C1838 1.391 . S
H1840 C1848 0.950 . S
H1841 C1853 0.950 . S
H1842 C1850 0.950 . S
H1843 C1852 0.950 . S
H1844 C1854 0.950 . S
H1845 C1856 0.950 . S
H1846 C1858 0.950 . S
H1847 C1859 0.950 . S
C1848 H1840 0.950 . S
C1848 C1849 1.386 . S
C1848 C1850 1.391 . S
C1849 C1848 1.386 . S
C1849 C1853 1.393 . S
C1850 H1842 0.950 . S
C1850 C1848 1.391 . S
C1850 C1851 1.400 . S
C1851 C1850 1.400 . S
C1851 C1852 1.398 . S
C1851 C1857 1.491 . S
C1852 H1843 0.950 . S
C1852 C1851 1.398 . S
C1852 C1853 1.391 . S
C1853 H1841 0.950 . S
C1853 C1849 1.393 . S
C1853 C1852 1.391 . S
C1854 H1844 0.950 . S
C1854 C1855 1.386 . S
C1854 C1856 1.391 . S
C1855 C1854 1.386 . S
C1855 C1859 1.393 . S
C1856 H1845 0.950 . S
C1856 C1854 1.391 . S
C1856 C1857 1.400 . S
C1857 C1851 1.491 . S
C1857 C1856 1.400 . S
C1857 C1858 1.398 . S
C1858 H1846 0.950 . S
C1858 C1857 1.398 . S
C1858 C1859 1.391 . S
C1859 H1847 0.950 . S
C1859 C1855 1.393 . S
C1859 C1858 1.391 . S
H1860 C1868 0.950 . S
H1861 C1873 0.950 . S
H1862 C1870 0.950 . S
H1863 C1872 0.950 . S
H1864 C1874 0.950 . S
H1865 C1876 0.950 . S
H1866 C1878 0.950 . S
H1867 C1879 0.950 . S
C1868 H1860 0.950 . S
C1868 C1869 1.386 . S
C1868 C1870 1.391 . S
C1869 C1868 1.386 . S
C1869 C1873 1.393 1_554 S
C1870 H1862 0.950 . S
C1870 C1868 1.391 . S
C1870 C1871 1.400 1_554 S
C1871 C1870 1.400 1_556 S
C1871 C1872 1.398 . S
C1871 C1877 1.491 . S
C1872 H1863 0.950 . S
C1872 C1871 1.398 . S
C1872 C1873 1.391 . S
C1873 H1861 0.950 . S
C1873 C1869 1.393 1_556 S
C1873 C1872 1.391 . S
C1874 H1864 0.950 . S
C1874 C1875 1.386 . S
C1874 C1876 1.391 . S
C1875 C1874 1.386 . S
C1875 C1879 1.393 . S
C1876 H1865 0.950 . S
C1876 C1874 1.391 . S
C1876 C1877 1.400 . S
C1877 C1871 1.491 . S
C1877 C1876 1.400 . S
C1877 C1878 1.398 . S
C1878 H1866 0.950 . S
C1878 C1877 1.398 . S
C1878 C1879 1.391 . S
C1879 H1867 0.950 . S
C1879 C1875 1.393 . S
C1879 C1878 1.391 . S
H1880 C1888 0.950 . S
H1881 C1893 0.950 . S
H1882 C1890 0.950 . S
H1883 C1892 0.950 . S
H1884 C1894 0.950 . S
H1885 C1896 0.950 . S
H1886 C1898 0.950 . S
H1887 C1899 0.950 . S
C1888 H1880 0.950 . S
C1888 C1889 1.386 . S
C1888 C1890 1.391 . S
C1889 C1888 1.386 . S
C1889 C1893 1.393 . S
C1890 H1882 0.950 . S
C1890 C1888 1.391 . S
C1890 C1891 1.400 . S
C1891 C1890 1.400 . S
C1891 C1892 1.398 . S
C1891 C1897 1.491 . S
C1892 H1883 0.950 . S
C1892 C1891 1.398 . S
C1892 C1893 1.391 . S
C1893 H1881 0.950 . S
C1893 C1889 1.393 . S
C1893 C1892 1.391 . S
C1894 H1884 0.950 . S
C1894 C1895 1.386 . S
C1894 C1896 1.391 . S
C1895 C1894 1.386 . S
C1895 C1899 1.393 . S
C1896 H1885 0.950 . S
C1896 C1894 1.391 . S
C1896 C1897 1.400 . S
C1897 C1891 1.491 . S
C1897 C1896 1.400 . S
C1897 C1898 1.398 . S
C1898 H1886 0.950 . S
C1898 C1897 1.398 . S
C1898 C1899 1.391 . S
C1899 H1887 0.950 . S
C1899 C1895 1.393 . S
C1899 C1898 1.391 . S
H1900 C1908 0.950 . S
H1901 C1913 0.950 . S
H1902 C1910 0.950 . S
H1903 C1912 0.950 . S
H1904 C1914 0.950 . S
H1905 C1916 0.950 . S
H1906 C1918 0.950 . S
H1907 C1919 0.950 . S
C1908 H1900 0.950 . S
C1908 C1909 1.386 1_556 S
C1908 C1910 1.391 . S
C1909 C1908 1.386 1_554 S
C1909 C1913 1.393 . S
C1910 H1902 0.950 . S
C1910 C1908 1.391 . S
C1910 C1911 1.400 . S
C1911 C1910 1.400 . S
C1911 C1912 1.398 1_556 S
C1911 C1917 1.491 . S
C1912 H1903 0.950 . S
C1912 C1911 1.398 1_554 S
C1912 C1913 1.391 . S
C1913 H1901 0.950 . S
C1913 C1909 1.393 . S
C1913 C1912 1.391 . S
C1914 H1904 0.950 . S
C1914 C1915 1.386 . S
C1914 C1916 1.391 . S
C1915 C1914 1.386 . S
C1915 C1919 1.393 . S
C1916 H1905 0.950 . S
C1916 C1914 1.391 . S
C1916 C1917 1.400 . S
C1917 C1911 1.491 . S
C1917 C1916 1.400 . S
C1917 C1918 1.398 . S
C1918 H1906 0.950 . S
C1918 C1917 1.398 . S
C1918 C1919 1.391 . S
C1919 H1907 0.950 . S
C1919 C1915 1.393 . S
C1919 C1918 1.391 . S
H1920 C1928 0.950 . S
H1921 C1933 0.950 . S
H1922 C1930 0.950 . S
H1923 C1932 0.950 . S
H1924 C1934 0.950 . S
H1925 C1936 0.950 . S
H1926 C1938 0.950 . S
H1927 C1939 0.950 . S
C1928 H1920 0.950 . S
C1928 C1929 1.386 . S
C1928 C1930 1.391 . S
C1929 C1928 1.386 . S
C1929 C1933 1.393 . S
C1930 H1922 0.950 . S
C1930 C1928 1.391 . S
C1930 C1931 1.400 . S
C1931 C1930 1.400 . S
C1931 C1932 1.398 . S
C1931 C1937 1.491 . S
C1932 H1923 0.950 . S
C1932 C1931 1.398 . S
C1932 C1933 1.391 . S
C1933 H1921 0.950 . S
C1933 C1929 1.393 . S
C1933 C1932 1.391 . S
C1934 H1924 0.950 . S
C1934 C1935 1.386 . S
C1934 C1936 1.391 . S
C1935 C1934 1.386 . S
C1935 C1939 1.393 . S
C1936 H1925 0.950 . S
C1936 C1934 1.391 . S
C1936 C1937 1.400 . S
C1937 C1931 1.491 . S
C1937 C1936 1.400 . S
C1937 C1938 1.398 . S
C1938 H1926 0.950 . S
C1938 C1937 1.398 . S
C1938 C1939 1.391 . S
C1939 H1927 0.950 . S
C1939 C1935 1.393 . S
C1939 C1938 1.391 . S
H1940 C1948 0.950 . S
H1941 C1953 0.950 . S
H1942 C1950 0.950 . S
H1943 C1952 0.950 . S
H1944 C1954 0.950 . S
H1945 C1956 0.950 . S
H1946 C1958 0.950 . S
H1947 C1959 0.950 . S
C1948 H1940 0.950 . S
C1948 C1949 1.386 . S
C1948 C1950 1.391 1_556 S
C1949 C1948 1.386 . S
C1949 C1953 1.393 1_556 S
C1950 H1942 0.950 . S
C1950 C1948 1.391 1_554 S
C1950 C1951 1.400 . S
C1951 C1950 1.400 . S
C1951 C1952 1.398 . S
C1951 C1957 1.491 . S
C1952 H1943 0.950 . S
C1952 C1951 1.398 . S
C1952 C1953 1.391 . S
C1953 H1941 0.950 . S
C1953 C1949 1.393 1_554 S
C1953 C1952 1.391 . S
C1954 H1944 0.950 . S
C1954 C1955 1.386 . S
C1954 C1956 1.391 . S
C1955 C1954 1.386 . S
C1955 C1959 1.393 . S
C1956 H1945 0.950 . S
C1956 C1954 1.391 . S
C1956 C1957 1.400 . S
C1957 C1951 1.491 . S
C1957 C1956 1.400 . S
C1957 C1958 1.398 . S
C1958 H1946 0.950 . S
C1958 C1957 1.398 . S
C1958 C1959 1.391 . S
C1959 H1947 0.950 . S
C1959 C1955 1.393 . S
C1959 C1958 1.391 . S
H1960 C1968 0.950 . S
H1961 C1973 0.950 . S
H1962 C1970 0.950 . S
H1963 C1972 0.950 . S
H1964 C1974 0.950 . S
H1965 C1976 0.950 . S
H1966 C1978 0.950 . S
H1967 C1979 0.950 . S
C1968 H1960 0.950 . S
C1968 C1969 1.386 . S
C1968 C1970 1.391 . S
C1969 C1968 1.386 . S
C1969 C1973 1.393 . S
C1970 H1962 0.950 . S
C1970 C1968 1.391 . S
C1970 C1971 1.400 . S
C1971 C1970 1.400 . S
C1971 C1972 1.398 . S
C1971 C1977 1.491 . S
C1972 H1963 0.950 . S
C1972 C1971 1.398 . S
C1972 C1973 1.391 . S
C1973 H1961 0.950 . S
C1973 C1969 1.393 . S
C1973 C1972 1.391 . S
C1974 H1964 0.950 . S
C1974 C1975 1.386 . S
C1974 C1976 1.391 . S
C1975 C1974 1.386 . S
C1975 C1979 1.393 . S
C1976 H1965 0.950 . S
C1976 C1974 1.391 . S
C1976 C1977 1.400 . S
C1977 C1971 1.491 . S
C1977 C1976 1.400 . S
C1977 C1978 1.398 . S
C1978 H1966 0.950 . S
C1978 C1977 1.398 . S
C1978 C1979 1.391 . S
C1979 H1967 0.950 . S
C1979 C1975 1.393 . S
C1979 C1978 1.391 . S
H1980 C1988 0.950 . S
H1981 C1993 0.950 . S
H1982 C1990 0.950 1_556 S
H1983 C1992 0.950 . S
H1984 C1994 0.950 . S
H1985 C1996 0.950 . S
H1986 C1998 0.950 . S
H1987 C1999 0.950 . S
C1988 H1980 0.950 . S
C1988 C1989 1.386 . S
C1988 C1990 1.391 1_556 S
C1989 C1988 1.386 . S
C1989 C1993 1.393 1_556 S
C1990 H1982 0.950 1_554 S
C1990 C1988 1.391 1_554 S
C1990 C1991 1.400 . S
C1991 C1990 1.400 . S
C1991 C1992 1.398 . S
C1991 C1997 1.491 . S
C1992 H1983 0.950 . S
C1992 C1991 1.398 . S
C1992 C1993 1.391 . S
C1993 H1981 0.950 . S
C1993 C1989 1.393 1_554 S
C1993 C1992 1.391 . S
C1994 H1984 0.950 . S
C1994 C1995 1.386 . S
C1994 C1996 1.391 . S
C1995 C1994 1.386 . S
C1995 C1999 1.393 . S
C1996 H1985 0.950 . S
C1996 C1994 1.391 . S
C1996 C1997 1.400 . S
C1997 C1991 1.491 . S
C1997 C1996 1.400 . S
C1997 C1998 1.398 . S
C1998 H1986 0.950 . S
C1998 C1997 1.398 . S
C1998 C1999 1.391 . S
C1999 H1987 0.950 . S
C1999 C1995 1.393 . S
C1999 C1998 1.391 . S
H2000 C2008 0.950 . S
H2001 C2013 0.950 . S
H2002 C2010 0.950 . S
H2003 C2012 0.950 . S
H2004 C2014 0.950 . S
H2005 C2016 0.950 . S
H2006 C2018 0.950 . S
H2007 C2019 0.950 . S
C2008 H2000 0.950 . S
C2008 C2009 1.386 . S
C2008 C2010 1.391 . S
C2009 C2008 1.386 . S
C2009 C2013 1.393 . S
C2010 H2002 0.950 . S
C2010 C2008 1.391 . S
C2010 C2011 1.400 . S
C2011 C2010 1.400 . S
C2011 C2012 1.398 . S
C2011 C2017 1.491 . S
C2012 H2003 0.950 . S
C2012 C2011 1.398 . S
C2012 C2013 1.391 . S
C2013 H2001 0.950 . S
C2013 C2009 1.393 . S
C2013 C2012 1.391 . S
C2014 H2004 0.950 . S
C2014 C2015 1.386 . S
C2014 C2016 1.391 . S
C2015 C2014 1.386 . S
C2015 C2019 1.393 . S
C2016 H2005 0.950 . S
C2016 C2014 1.391 . S
C2016 C2017 1.400 . S
C2017 C2011 1.491 . S
C2017 C2016 1.400 . S
C2017 C2018 1.398 . S
C2018 H2006 0.950 . S
C2018 C2017 1.398 . S
C2018 C2019 1.391 . S
C2019 H2007 0.950 . S
C2019 C2015 1.393 . S
C2019 C2018 1.391 . S
H2020 C2028 0.950 . S
H2021 C2033 0.950 . S
H2022 C2030 0.950 . S
H2023 C2032 0.950 . S
H2024 C2034 0.950 . S
H2025 C2036 0.950 . S
H2026 C2038 0.950 . S
H2027 C2039 0.950 . S
C2028 H2020 0.950 . S
C2028 C2029 1.386 . S
C2028 C2030 1.391 . S
C2029 C2028 1.386 . S
C2029 C2033 1.393 . S
C2030 H2022 0.950 . S
C2030 C2028 1.391 . S
C2030 C2031 1.400 . S
C2031 C2030 1.400 . S
C2031 C2032 1.398 . S
C2031 C2037 1.491 . S
C2032 H2023 0.950 . S
C2032 C2031 1.398 . S
C2032 C2033 1.391 . S
C2033 H2021 0.950 . S
C2033 C2029 1.393 . S
C2033 C2032 1.391 . S
C2034 H2024 0.950 . S
C2034 C2035 1.386 . S
C2034 C2036 1.391 . S
C2035 C2034 1.386 . S
C2035 C2039 1.393 . S
C2036 H2025 0.950 . S
C2036 C2034 1.391 . S
C2036 C2037 1.400 . S
C2037 C2031 1.491 . S
C2037 C2036 1.400 . S
C2037 C2038 1.398 . S
C2038 H2026 0.950 . S
C2038 C2037 1.398 . S
C2038 C2039 1.391 . S
C2039 H2027 0.950 . S
C2039 C2035 1.393 . S
C2039 C2038 1.391 . S
H2040 C2048 0.950 . S
H2041 C2053 0.950 . S
H2042 C2050 0.950 . S
H2043 C2052 0.950 . S
H2044 C2054 0.950 . S
H2045 C2056 0.950 . S
H2046 C2058 0.950 . S
H2047 C2059 0.950 . S
C2048 H2040 0.950 . S
C2048 C2049 1.386 . S
C2048 C2050 1.391 . S
C2049 C2048 1.386 . S
C2049 C2053 1.393 . S
C2050 H2042 0.950 . S
C2050 C2048 1.391 . S
C2050 C2051 1.400 . S
C2051 C2050 1.400 . S
C2051 C2052 1.398 . S
C2051 C2057 1.491 . S
C2052 H2043 0.950 . S
C2052 C2051 1.398 . S
C2052 C2053 1.391 . S
C2053 H2041 0.950 . S
C2053 C2049 1.393 . S
C2053 C2052 1.391 . S
C2054 H2044 0.950 . S
C2054 C2055 1.386 . S
C2054 C2056 1.391 . S
C2055 C2054 1.386 . S
C2055 C2059 1.393 . S
C2056 H2045 0.950 . S
C2056 C2054 1.391 . S
C2056 C2057 1.400 . S
C2057 C2051 1.491 . S
C2057 C2056 1.400 . S
C2057 C2058 1.398 . S
C2058 H2046 0.950 . S
C2058 C2057 1.398 . S
C2058 C2059 1.391 . S
C2059 H2047 0.950 . S
C2059 C2055 1.393 . S
C2059 C2058 1.391 . S
H2060 C2068 0.950 . S
H2061 C2073 0.950 . S
H2062 C2070 0.950 . S
H2063 C2072 0.950 . S
H2064 C2074 0.950 . S
H2065 C2076 0.950 . S
H2066 C2078 0.950 . S
H2067 C2079 0.950 . S
C2068 H2060 0.950 . S
C2068 C2069 1.386 . S
C2068 C2070 1.391 . S
C2069 C2068 1.386 . S
C2069 C2073 1.393 . S
C2070 H2062 0.950 . S
C2070 C2068 1.391 . S
C2070 C2071 1.400 . S
C2071 C2070 1.400 . S
C2071 C2072 1.398 . S
C2071 C2077 1.491 . S
C2072 H2063 0.950 . S
C2072 C2071 1.398 . S
C2072 C2073 1.391 . S
C2073 H2061 0.950 . S
C2073 C2069 1.393 . S
C2073 C2072 1.391 . S
C2074 H2064 0.950 . S
C2074 C2075 1.386 . S
C2074 C2076 1.391 . S
C2075 C2074 1.386 . S
C2075 C2079 1.393 . S
C2076 H2065 0.950 . S
C2076 C2074 1.391 . S
C2076 C2077 1.400 . S
C2077 C2071 1.491 . S
C2077 C2076 1.400 . S
C2077 C2078 1.398 . S
C2078 H2066 0.950 . S
C2078 C2077 1.398 . S
C2078 C2079 1.391 . S
C2079 H2067 0.950 . S
C2079 C2075 1.393 . S
C2079 C2078 1.391 . S
H2080 C2088 0.950 . S
H2081 C2093 0.950 . S
H2082 C2090 0.950 . S
H2083 C2092 0.950 . S
H2084 C2094 0.950 1_554 S
H2085 C2096 0.950 . S
H2086 C2098 0.950 . S
H2087 C2099 0.950 . S
C2088 H2080 0.950 . S
C2088 C2089 1.386 . S
C2088 C2090 1.391 . S
C2089 C2088 1.386 . S
C2089 C2093 1.393 . S
C2090 H2082 0.950 . S
C2090 C2088 1.391 . S
C2090 C2091 1.400 . S
C2091 C2090 1.400 . S
C2091 C2092 1.398 . S
C2091 C2097 1.491 . S
C2092 H2083 0.950 . S
C2092 C2091 1.398 . S
C2092 C2093 1.391 . S
C2093 H2081 0.950 . S
C2093 C2089 1.393 . S
C2093 C2092 1.391 . S
C2094 H2084 0.950 1_556 S
C2094 C2095 1.386 . S
C2094 C2096 1.391 . S
C2095 C2094 1.386 . S
C2095 C2099 1.393 . S
C2096 H2085 0.950 . S
C2096 C2094 1.391 . S
C2096 C2097 1.400 . S
C2097 C2091 1.491 . S
C2097 C2096 1.400 . S
C2097 C2098 1.398 . S
C2098 H2086 0.950 . S
C2098 C2097 1.398 . S
C2098 C2099 1.391 . S
C2099 H2087 0.950 . S
C2099 C2095 1.393 . S
C2099 C2098 1.391 . S
H2100 C2108 0.950 . S
H2101 C2113 0.950 . S
H2102 C2110 0.950 . S
H2103 C2112 0.950 . S
H2104 C2114 0.950 . S
H2105 C2116 0.950 . S
H2106 C2118 0.950 . S
H2107 C2119 0.950 . S
C2108 H2100 0.950 . S
C2108 C2109 1.386 . S
C2108 C2110 1.391 . S
C2109 C2108 1.386 . S
C2109 C2113 1.393 . S
C2110 H2102 0.950 . S
C2110 C2108 1.391 . S
C2110 C2111 1.400 . S
C2111 C2110 1.400 . S
C2111 C2112 1.398 . S
C2111 C2117 1.491 . S
C2112 H2103 0.950 . S
C2112 C2111 1.398 . S
C2112 C2113 1.391 . S
C2113 H2101 0.950 . S
C2113 C2109 1.393 . S
C2113 C2112 1.391 . S
C2114 H2104 0.950 . S
C2114 C2115 1.386 . S
C2114 C2116 1.391 . S
C2115 C2114 1.386 . S
C2115 C2119 1.393 . S
C2116 H2105 0.950 . S
C2116 C2114 1.391 . S
C2116 C2117 1.400 . S
C2117 C2111 1.491 . S
C2117 C2116 1.400 . S
C2117 C2118 1.398 . S
C2118 H2106 0.950 . S
C2118 C2117 1.398 . S
C2118 C2119 1.391 . S
C2119 H2107 0.950 . S
C2119 C2115 1.393 . S
C2119 C2118 1.391 . S
H2120 C2128 0.950 . S
H2121 C2133 0.950 . S
H2122 C2130 0.950 . S
H2123 C2132 0.950 . S
H2124 C2134 0.950 . S
H2125 C2136 0.950 . S
H2126 C2138 0.973 . S
H2127 C2139 0.950 1_556 S
C2128 H2120 0.950 . S
C2128 C2129 1.386 . S
C2128 C2130 1.391 . S
C2129 C2128 1.386 . S
C2129 C2133 1.393 . S
C2130 H2122 0.950 . S
C2130 C2128 1.391 . S
C2130 C2131 1.400 . S
C2131 C2130 1.400 . S
C2131 C2132 1.398 . S
C2131 C2137 1.491 . S
C2132 H2123 0.950 . S
C2132 C2131 1.398 . S
C2132 C2133 1.391 . S
C2133 H2121 0.950 . S
C2133 C2129 1.393 . S
C2133 C2132 1.391 . S
C2134 H2124 0.950 . S
C2134 C2135 1.386 . S
C2134 C2136 1.391 . S
C2135 C2134 1.386 . S
C2135 C2139 1.393 . S
C2136 H2125 0.950 . S
C2136 C2134 1.391 . S
C2136 C2137 1.400 . S
C2137 C2131 1.491 . S
C2137 C2136 1.400 . S
C2137 C2138 1.398 . S
C2138 H2126 0.973 . S
C2138 C2137 1.398 . S
C2138 C2139 1.391 . S
C2139 H2127 0.950 1_554 S
C2139 C2135 1.393 . S
C2139 C2138 1.391 . S
H2140 C2148 0.950 . S
H2141 C2153 0.950 . S
H2142 C2150 0.950 1_545 S
H2143 C2152 0.950 . S
H2144 C2154 0.950 1_556 S
H2145 C2156 0.950 . S
H2146 C2158 0.950 . S
H2147 C2159 0.950 . S
C2148 H2140 0.950 . S
C2148 C2149 1.386 . S
C2148 C2150 1.391 1_545 S
C2149 C2148 1.386 . S
C2149 C2153 1.393 1_545 S
C2150 H2142 0.950 1_565 S
C2150 C2148 1.391 1_565 S
C2150 C2151 1.400 . S
C2151 C2150 1.400 . S
C2151 C2152 1.398 . S
C2151 C2157 1.491 . S
C2152 H2143 0.950 . S
C2152 C2151 1.398 . S
C2152 C2153 1.391 . S
C2153 H2141 0.950 . S
C2153 C2149 1.393 1_565 S
C2153 C2152 1.391 . S
C2154 H2144 0.950 1_554 S
C2154 C2155 1.386 . S
C2154 C2156 1.391 . S
C2155 C2154 1.386 . S
C2155 C2159 1.393 . S
C2156 H2145 0.950 . S
C2156 C2154 1.391 . S
C2156 C2157 1.400 . S
C2157 C2151 1.491 . S
C2157 C2156 1.400 . S
C2157 C2158 1.398 . S
C2158 H2146 0.950 . S
C2158 C2157 1.398 . S
C2158 C2159 1.391 . S
C2159 H2147 0.950 . S
C2159 C2155 1.393 . S
C2159 C2158 1.391 . S
C1215 C193 1.509 . S
C1209 C50 1.514 . S
C1235 C252 1.500 . S
C1229 C61 1.499 . S
C1249 C67 1.508 . S
C1255 C369 1.508 . S
C1275 C437 1.505 . S
C1269 C41 1.504 . S
C1295 C516 1.498 . S
C1289 C95 1.498 . S
C1315 C641 1.517 . S
C1309 C113 1.514 . S
C1329 C106 1.490 . S
C1335 C701 1.490 . S
C1355 C809 1.518 . S
C1349 C86 1.518 . S
C1369 C104 1.494 . S
C1375 C905 1.494 . S
C1395 C965 1.517 . S
C1389 C88 1.517 . S
C1409 C94 1.519 . S
C1415 C868 1.520 . S
C1435 C985 1.502 . S
C1429 C112 1.501 . S
C1449 C70 1.496 . S
C1455 C1053 1.497 . S
C1469 C40 1.513 . S
C1475 C1044 1.513 . S
C1489 C49 1.510 . S
C1495 C1073 1.510 . S
C1509 C59 1.516 . S
C1515 C1081 1.517 . S
C1529 C34 1.493 . S
C1535 C465 1.493 . S
C1549 C133 1.497 . S
C1555 C428 1.498 . S
C1575 C164 1.516 . S
C1569 C139 1.514 . S
C1595 C261 1.508 . S
C1589 C77 1.508 . S
C1609 C43 1.495 . S
C1615 C525 1.499 . S
C1635 C817 1.502 . S
C1629 C103 1.496 . S
C1655 C545 1.527 . S
C1649 C85 1.527 . S
C1675 C729 1.496 . S
C1669 C115 1.493 . S
C1695 C721 1.509 . S
C1689 C131 1.509 . S
C1709 C142 1.497 . S
C1715 C789 1.497 . S
C1729 C76 1.507 . S
C1735 C553 1.508 . S
C1755 C604 1.506 . S
C1749 C122 1.507 . S
C1769 C32 1.500 . S
C1775 C349 1.500 . S
C1795 C457 1.519 . S
C1789 C5 1.519 . S
C1815 C173 1.489 . S
C1809 C16 1.484 . S
C1835 C289 1.517 . S
C1829 C23 1.518 . S
C1849 C14 1.497 . S
C1855 C993 1.497 . S
C1869 C25 1.515 . S
C1875 C877 1.516 . S
C1889 C31 1.520 . S
C1895 C956 1.520 . S
C1909 C4 1.504 . S
C1915 C897 1.503 . S
C1935 C1141 1.497 . S
C1929 C79 1.497 . S
C1955 C1132 1.513 . S
C1949 C121 1.510 . S
C1975 C1161 1.507 . S
C1969 C130 1.507 . S
C1989 C140 1.515 . S
C1995 C1169 1.517 . S
C2009 C97 1.495 . S
C2015 C633 1.495 . S
C2035 C613 1.499 . S
C2029 C52 1.500 . S
C2055 C692 1.515 . S
C2049 C58 1.516 . S
C2075 C780 1.511 . S
C2069 C68 1.516 . S
C2089 C124 1.497 . S
C2095 C340 1.500 . S
C2115 C281 1.504 . S
C2109 C13 1.504 . S
C2129 C22 1.526 . S
C2135 C377 1.526 . S
C2155 C201 1.497 . S
C2149 C7 1.494 . S
