# Generated by pormake.
# Topology sit, (3,6)-cn, num edge types: 1
# Building blocks:
#     Node 0, Type 0, BuildingBlock: INOVEN_clean_linker_0, # of connection points: 3
#     Node 1, Type 0, BuildingBlock: INOVEN_clean_linker_0, # of connection points: 3
#     Node 2, Type 0, BuildingBlock: INOVEN_clean_linker_0, # of connection points: 3
#     Node 3, Type 0, BuildingBlock: INOVEN_clean_linker_0, # of connection points: 3
#     Node 4, Type 1, BuildingBlock: MIDCAF_clean_sbu_0, # of connection points: 6
#     Node 5, Type 1, BuildingBlock: MIDCAF_clean_sbu_0, # of connection points: 6
#     Edge 6, Type (0, 1), BuildingBlock: XIVTED_clean_linker_0, # of connection points: 2
#     Edge 7, Type (0, 1), BuildingBlock: XIVTED_clean_linker_0, # of connection points: 2
#     Edge 8, Type (0, 1), BuildingBlock: XIVTED_clean_linker_0, # of connection points: 2
#     Edge 9, Type (0, 1), BuildingBlock: XIVTED_clean_linker_0, # of connection points: 2
#     Edge 10, Type (0, 1), BuildingBlock: XIVTED_clean_linker_0, # of connection points: 2
#     Edge 11, Type (0, 1), BuildingBlock: XIVTED_clean_linker_0, # of connection points: 2
#     Edge 12, Type (0, 1), BuildingBlock: XIVTED_clean_linker_0, # of connection points: 2
#     Edge 13, Type (0, 1), BuildingBlock: XIVTED_clean_linker_0, # of connection points: 2
#     Edge 14, Type (0, 1), BuildingBlock: XIVTED_clean_linker_0, # of connection points: 2
#     Edge 15, Type (0, 1), BuildingBlock: XIVTED_clean_linker_0, # of connection points: 2
#     Edge 16, Type (0, 1), BuildingBlock: XIVTED_clean_linker_0, # of connection points: 2
#     Edge 17, Type (0, 1), BuildingBlock: XIVTED_clean_linker_0, # of connection points: 2
# Relax obj value: 0.072
# Max RMSD: 0.181
# Mean RMSD: 0.108
data_MOF--net-sit--node1-MIDCAF_clean_sbu_0--node2-INOVEN_clean_linker_0--edge1-XIVTED_clean_linker_0
_symmetry_space_group_name_H-M    P1
_symmetry_Int_Tables_number       1
_symmetry_cell_setting            triclinic
loop_
_symmetry_equiv_pos_as_xyz
'x, y, z'
_cell_length_a     22.870675
_cell_length_b     31.326293
_cell_length_c     37.293453
_cell_angle_alpha  89.923808
_cell_angle_beta   86.278749
_cell_angle_gamma 84.516089
loop_
_atom_site_label
_atom_site_type_symbol
_atom_site_fract_x
_atom_site_fract_y
_atom_site_fract_z
_atom_type_partial_charge
H0 H -0.05118 0.32236 0.03335 0.0
H1 H 0.01569 0.43578 0.98905 0.0
H2 H 0.1331 0.33836 0.03566 0.0
N3 N 0.04738 0.28754 0.05695 0.0
N4 N 0.09553 0.27142 0.06696 0.0
C5 C -0.0147 0.34154 0.02759 0.0
C6 C -0.02389 0.38081 0.00996 0.0
C7 C 0.04132 0.32663 0.03775 0.0
C8 C 0.08925 0.35074 0.02914 0.0
C9 C 0.08056 0.39011 0.011 0.0
C10 C 0.02333 0.40542 0.00275 0.0
H11 H 0.88201 0.75609 0.03818 0.0
H12 H 0.00943 0.66037 0.98808 0.0
H13 H 0.06619 0.77496 0.03104 0.0
N14 N -0.04111 0.80809 0.05777 0.0
N15 N -0.00319 0.83362 0.06136 0.0
C16 C 0.92707 0.7443 0.03031 0.0
C17 C 0.93975 0.70508 0.01162 0.0
C18 C -0.02759 0.76951 0.03772 0.0
C19 C 0.03079 0.75555 0.02604 0.0
C20 C 0.04397 0.71622 0.00822 0.0
C21 C -0.00131 0.69075 0.00197 0.0
H22 H 0.45096 0.81075 0.52337 0.0
H23 H 0.51895 0.92485 0.48128 0.0
H24 H 0.63432 0.82769 0.5298 0.0
N25 N 0.54805 0.77654 0.54927 0.0
N26 N 0.59534 0.76119 0.56099 0.0
C27 C 0.48755 0.83001 0.51828 0.0
C28 C 0.47894 0.86945 0.50084 0.0
C29 C 0.54293 0.81532 0.5296 0.0
C30 C 0.59093 0.83977 0.52222 0.0
C31 C 0.58289 0.87926 0.50419 0.0
C32 C 0.52619 0.89428 0.49473 0.0
H33 H 0.38136 0.25303 0.53901 0.0
H34 H 0.50898 0.15614 0.49077 0.0
H35 H 0.56608 0.27019 0.53444 0.0
N36 N 0.45842 0.30437 0.55967 0.0
N37 N 0.49645 0.32981 0.56326 0.0
C38 C 0.42651 0.24081 0.53184 0.0
C39 C 0.43924 0.20151 0.51327 0.0
C40 C 0.47199 0.26557 0.53992 0.0
C41 C 0.53054 0.25106 0.52906 0.0
C42 C 0.54369 0.21161 0.51144 0.0
C43 C 0.49826 0.18657 0.50458 0.0
Zn44 Zn 0.0286 0.12459 0.34803 0.0
Zn45 Zn 0.02473 0.96923 0.34614 0.0
Zn46 Zn 0.02643 0.04681 0.34709 0.0
C47 C 0.00129 0.99408 0.27813 0.0
C48 C 0.93582 0.99675 0.39452 0.0
O49 O 0.10174 0.06072 0.37791 0.0
O50 O 0.07382 0.12861 0.39104 0.0
C51 C 0.06357 0.10193 0.27909 0.0
O52 O 0.02252 1.0275 0.29014 0.0
O53 O -0.00917 0.96374 0.2991 0.0
O54 O -0.02864 0.96372 0.38938 0.0
O55 O 0.94508 1.03168 0.37774 0.0
O56 O 0.07083 0.13162 0.30068 0.0
O57 O 0.04035 0.06821 0.29066 0.0
O58 O 0.94473 0.07696 0.37461 0.0
O59 O 0.94366 0.14341 0.35469 0.0
C60 C 0.91865 0.11506 0.37225 0.0
O61 O 0.10345 1.0157 0.37303 0.0
O62 O 0.10841 0.94985 0.35127 0.0
C63 C 0.10778 0.0952 0.39551 0.0
C64 C 0.13013 0.97767 0.36939 0.0
Zn65 Zn 0.53063 0.62498 0.84682 0.0
Zn66 Zn 0.52671 0.46832 0.84737 0.0
Zn67 Zn 0.5281 0.54642 0.8472 0.0
C68 C 0.50294 0.49189 0.77906 0.0
C69 C 0.43765 0.49734 0.8955 0.0
O70 O 0.60393 0.5609 0.87729 0.0
O71 O 0.57827 0.62953 0.88871 0.0
C72 C 0.56398 0.60003 0.77788 0.0
O73 O 0.52363 0.52575 0.79062 0.0
O74 O 0.49323 0.46171 0.80036 0.0
O75 O 0.47287 0.46409 0.89061 0.0
O76 O 0.447 0.53198 0.87833 0.0
O77 O 0.57069 0.63068 0.79862 0.0
O78 O 0.54172 0.56635 0.79037 0.0
O79 O 0.44675 0.57722 0.87469 0.0
O80 O 0.44584 0.64376 0.85492 0.0
C81 C 0.42091 0.61544 0.87256 0.0
O82 O 0.60485 0.51576 0.87359 0.0
O83 O 0.61033 0.44925 0.85319 0.0
C84 C 0.61143 0.59587 0.89377 0.0
C85 C 0.63163 0.47769 0.87086 0.0
H86 H 0.19005 0.23756 0.09837 0.0
H87 H -0.00246 0.08893 0.22227 0.0
H88 H 0.00864 0.21946 0.08384 0.0
H89 H 0.16243 0.13209 0.24961 0.0
H90 H 0.0136 0.11753 0.16142 0.0
H91 H 0.19252 0.18037 0.14351 0.0
C92 C 0.15122 0.22087 0.10427 0.0
C93 C 0.09902 0.23369 0.08812 0.0
C94 C 0.04695 0.11975 0.18049 0.0
C95 C 0.10092 0.16877 0.13945 0.0
C96 C 0.03802 0.10311 0.215 0.0
C97 C 0.07866 0.10848 0.24074 0.0
C98 C 0.09675 0.14188 0.17202 0.0
C99 C 0.12993 0.12771 0.23041 0.0
C100 C 0.15247 0.18841 0.12997 0.0
C101 C 0.04962 0.21108 0.09626 0.0
N102 N 0.13722 0.14419 0.19696 0.0
N103 N 0.05157 0.18009 0.12177 0.0
H104 H 0.89594 0.86148 0.10108 0.0
H105 H 0.07457 1.00835 0.21922 0.0
H106 H 0.07441 0.88864 0.07345 0.0
H107 H 0.90504 0.96629 0.25121 0.0
H108 H 0.06467 0.98227 0.15798 0.0
H109 H 0.88818 0.91672 0.14779 0.0
C110 C 0.93314 0.87971 0.10445 0.0
C111 C -0.01357 0.87028 0.08395 0.0
C112 C 0.029 0.97972 0.17819 0.0
C113 C -0.02181 0.93292 0.13758 0.0
C114 C 0.03449 0.99492 0.21296 0.0
C115 C -0.00932 0.98907 0.24004 0.0
C116 C -0.02049 0.95849 0.17087 0.0
C117 C 0.93996 0.97093 0.23096 0.0
C118 C 0.92879 0.91121 0.13113 0.0
C119 C 0.03298 0.895 0.08913 0.0
N120 N 0.93607 0.95579 0.19726 0.0
N121 N 0.02827 0.92476 0.1159 0.0
H122 H 0.50841 0.70873 0.5763 0.0
H123 H 0.66546 0.62514 0.74771 0.0
H124 H 0.68729 0.72927 0.59578 0.0
H125 H 0.49629 0.58881 0.72152 0.0
H126 H 0.68192 0.65114 0.68654 0.0
H127 H 0.50973 0.65376 0.62278 0.0
C128 C 0.54838 0.70111 0.59 0.0
C129 C 0.59773 0.72405 0.58287 0.0
C130 C 0.64172 0.6366 0.69373 0.0
C131 C 0.59922 0.66152 0.63627 0.0
C132 C 0.63246 0.62168 0.7286 0.0
C133 C 0.57944 0.60508 0.73942 0.0
C134 C 0.59679 0.63608 0.66983 0.0
C135 C 0.53786 0.6013 0.71396 0.0
C136 C 0.54916 0.66962 0.61649 0.0
C137 C 0.6484 0.71249 0.60095 0.0
N138 N 0.54687 0.61758 0.68042 0.0
N139 N 0.64758 0.68256 0.62734 0.0
H140 H 0.39577 0.35784 0.60309 0.0
H141 H 0.57469 0.50659 0.71952 0.0
H142 H 0.57399 0.38507 0.57478 0.0
H143 H 0.40697 0.46254 0.75306 0.0
H144 H 0.56405 0.48003 0.65851 0.0
H145 H 0.38828 0.41335 0.64958 0.0
C146 C 0.43295 0.37614 0.60625 0.0
C147 C 0.48612 0.36665 0.58563 0.0
C148 C 0.52893 0.47714 0.67902 0.0
C149 C 0.47818 0.4296 0.639 0.0
C150 C 0.53483 0.4926 0.71366 0.0
C151 C 0.4918 0.48633 0.7411 0.0
C152 C 0.47976 0.4553 0.67219 0.0
C153 C 0.44133 0.4675 0.73252 0.0
C154 C 0.42876 0.4078 0.63281 0.0
C155 C 0.53266 0.39147 0.59055 0.0
N156 N 0.43701 0.45218 0.69893 0.0
N157 N 0.52811 0.42139 0.61719 0.0
H158 H 0.09416 0.43273 0.94731 0.0
H159 H 0.42996 0.4588 0.96043 0.0
H160 H 0.18267 0.40117 0.04416 0.0
H161 H 0.32481 0.52649 0.88281 0.0
H162 H 0.33998 0.44065 0.99366 0.0
H163 H 0.17723 0.46977 0.92493 0.0
C164 C 0.13056 0.43419 0.96429 0.0
C165 C 0.13096 0.41387 -0.00206 0.0
C166 C 0.33644 0.46025 0.96981 0.0
C167 C 0.22768 0.45542 0.97158 0.0
C168 C 0.38767 0.47058 0.9509 0.0
C169 C 0.38435 0.4941 0.91899 0.0
C170 C 0.28172 0.47265 0.95611 0.0
C171 C 0.3289 0.50848 0.90747 0.0
C172 C 0.17826 0.4553 0.9513 0.0
C173 C 0.18061 0.41582 0.01792 0.0
N174 N 0.2796 0.49696 0.92577 0.0
N175 N 0.2273 0.43587 0.00427 0.0
H176 H 0.83247 0.6928 0.04669 0.0
H177 H 0.72617 0.56408 0.88137 0.0
H178 H 0.93778 0.66174 0.94806 0.0
H179 H 0.60662 0.6357 0.95837 0.0
H180 H 0.80889 0.58155 0.91568 0.0
H181 H 0.7531 0.6558 0.02322 0.0
C182 C 0.83919 0.67807 0.02031 0.0
C183 C 0.8921 0.68052 -0.00058 0.0
C184 C 0.76443 0.59279 0.92537 0.0
C185 C 0.80223 0.6374 0.97293 0.0
C186 C 0.71744 0.58258 0.90599 0.0
C187 C 0.65999 0.59864 0.9172 0.0
C188 C 0.75351 0.61933 0.95593 0.0
C189 C 0.65061 0.62296 0.94893 0.0
C190 C 0.7941 0.65668 0.0071 0.0
C191 C 0.89851 0.6601 0.96561 0.0
N192 N 0.697 0.6329 0.96712 0.0
N193 N 0.85413 0.63958 0.95345 0.0
H194 H 0.91065 0.45838 0.01745 0.0
H195 H 0.71912 0.4144 0.85445 0.0
H196 H 0.91463 0.3341 0.96723 0.0
H197 H 0.65915 0.51067 0.93454 0.0
H198 H 0.79994 0.38957 0.89145 0.0
H199 H 0.82479 0.48311 0.98405 0.0
C200 C 0.89272 0.43621 -0.00018 0.0
C201 C 0.91922 0.39419 0.99504 0.0
C202 C 0.76933 0.4164 0.90073 0.0
C203 C 0.82292 0.42229 0.95644 0.0
C204 C 0.72359 0.43073 0.87958 0.0
C205 C 0.68358 0.46543 0.89107 0.0
C206 C 0.77508 0.43702 0.93351 0.0
C207 C 0.69063 0.48505 0.92406 0.0
C208 C 0.84405 0.45027 0.98081 0.0
C209 C 0.89488 0.3666 0.97186 0.0
N210 N 0.73585 0.47074 0.94414 0.0
N211 N 0.84844 0.38131 0.95301 0.0
H212 H 0.11374 0.76365 0.96585 0.0
H213 H 0.37914 0.58154 0.93547 0.0
H214 H 0.10901 0.63902 0.01471 0.0
H215 H 0.33809 0.68014 0.85777 0.0
H216 H 0.28843 0.60597 0.97109 0.0
H217 H 0.2073 0.73872 0.93359 0.0
C218 C 0.13309 0.73128 0.97024 0.0
C219 C 0.10397 0.70324 0.99283 0.0
C220 C 0.29908 0.62189 0.94603 0.0
C221 C 0.20996 0.67448 0.95588 0.0
C222 C 0.35016 0.60751 0.92543 0.0
C223 C 0.36483 0.62785 0.89305 0.0
C224 C 0.26365 0.65768 0.93459 0.0
C225 C 0.32785 0.66321 0.88237 0.0
C226 C 0.18595 0.71695 0.95158 0.0
C227 C 0.13024 0.66143 -0.00269 0.0
N228 N 0.27897 0.67713 0.90318 0.0
N229 N 0.18194 0.6482 0.97891 0.0
H230 H 0.68148 0.89089 0.54074 0.0
H231 H 0.82353 1.02766 0.38201 0.0
H232 H 0.6001 0.92356 0.44166 0.0
H233 H 0.92654 0.95499 0.45798 0.0
H234 H 0.73354 1.00724 0.41429 0.0
H235 H 0.76542 0.92955 0.51963 0.0
C236 C 0.681 0.90624 0.51472 0.0
C237 C 0.63343 0.90389 0.49303 0.0
C238 C 0.77586 0.99643 0.42424 0.0
C239 C 0.72834 0.94895 0.46929 0.0
C240 C 0.82697 1.00837 0.40605 0.0
C241 C 0.88206 0.99282 0.41747 0.0
C242 C 0.78029 0.9687 0.45383 0.0
C243 C 0.88457 0.96739 0.4484 0.0
C244 C 0.72861 0.92859 0.50287 0.0
C245 C 0.63495 0.9251 0.45976 0.0
N246 N 0.83432 0.95577 0.46541 0.0
N247 N 0.68157 0.94661 0.44894 0.0
H248 H 0.43952 0.15913 0.44914 0.0
H249 H 0.10125 0.13241 0.46128 0.0
H250 H 0.33006 0.19001 0.54622 0.0
H251 H 0.22344 0.06643 0.38244 0.0
H252 H 0.18392 0.15008 0.4951 0.0
H253 H 0.36161 0.12204 0.4262 0.0
C254 C 0.39954 0.15748 0.46608 0.0
C255 C 0.3918 0.1776 0.49996 0.0
C256 C 0.19271 0.13094 0.47086 0.0
C257 C 0.301 0.13604 0.4729 0.0
C258 C 0.14564 0.12088 0.4516 0.0
C259 C 0.15597 0.09799 0.41919 0.0
C260 C 0.25041 0.11891 0.45701 0.0
C261 C 0.21394 0.08393 0.40748 0.0
C262 C 0.35479 0.13634 0.45274 0.0
C263 C 0.33786 0.17546 0.51983 0.0
N264 N 0.2592 0.09518 0.42616 0.0
N265 N 0.29422 0.15542 0.50582 0.0
H266 H 0.41658 0.82402 0.45746 0.0
H267 H 0.16038 1.00959 0.43291 0.0
H268 H 0.4142 0.94707 0.50959 0.0
H269 H 0.21578 0.91339 0.35197 0.0
H270 H 0.24389 0.98335 0.4674 0.0
H271 H 0.33009 0.85106 0.42592 0.0
C272 C 0.39704 0.85647 0.46272 0.0
C273 C 0.42219 0.88348 0.486 0.0
C274 C 0.23804 0.96839 0.44187 0.0
C275 C 0.32437 0.91462 0.44994 0.0
C276 C 0.19113 0.98382 0.42192 0.0
C277 C 0.18256 0.96463 0.389 0.0
C278 C 0.2753 0.93268 0.42923 0.0
C279 C 0.22139 0.92945 0.37704 0.0
C280 C 0.34829 0.87201 0.44447 0.0
C281 C 0.39595 0.92545 0.49163 0.0
N282 N 0.26602 0.91445 0.39725 0.0
N283 N 0.34828 0.93985 0.47364 0.0
H284 H 0.60805 0.13425 0.51855 0.0
H285 H 0.83556 0.17919 0.35674 0.0
H286 H 0.6139 0.2583 0.46882 0.0
H287 H 0.87644 0.08129 0.4351 0.0
H288 H 0.74668 0.20395 0.39371 0.0
H289 H 0.70121 0.10967 0.48517 0.0
C290 C 0.62956 0.1564 0.501 0.0
C291 C 0.60375 0.1983 0.49636 0.0
C292 C 0.77491 0.1768 0.40264 0.0
C293 C 0.70861 0.17038 0.45782 0.0
C294 C 0.82529 0.16251 0.38149 0.0
C295 C 0.86236 0.1274 0.3925 0.0
C296 C 0.76155 0.15573 0.43493 0.0
C297 C 0.84763 0.10729 0.42499 0.0
C298 C 0.68241 0.14242 0.48202 0.0
C299 C 0.63287 0.22589 0.47333 0.0
N300 N 0.79803 0.1216 0.44508 0.0
N301 N 0.68351 0.21126 0.45453 0.0
loop_
_geom_bond_atom_site_label_1
_geom_bond_atom_site_label_2
_geom_bond_distance
_geom_bond_site_symmetry_2
_ccdc_geom_bond_type
H0 C5 0.929 . S
H1 C10 0.931 . S
H2 C8 0.930 . S
N3 N4 1.234 . S
N3 C7 1.453 . S
N4 N3 1.234 . S
C5 H0 0.929 . S
C5 C6 1.373 1_554 S
C5 C7 1.368 . S
C6 C5 1.373 1_556 S
C6 C10 1.397 . S
C7 N3 1.453 . S
C7 C5 1.368 . S
C7 C8 1.373 . S
C8 H2 0.930 . S
C8 C7 1.373 . S
C8 C9 1.371 1_554 S
C9 C8 1.371 1_556 S
C9 C10 1.383 . S
C10 H1 0.931 . S
C10 C6 1.397 . S
C10 C9 1.383 . S
H11 C16 0.929 . S
H12 C21 0.931 . S
H13 C19 0.930 . S
N14 N15 1.234 1_655 S
N14 C18 1.453 . S
N15 N14 1.234 1_455 S
C16 H11 0.929 . S
C16 C17 1.373 1_554 S
C16 C18 1.368 . S
C17 C16 1.373 1_556 S
C17 C21 1.397 1_655 S
C18 N14 1.453 . S
C18 C16 1.368 . S
C18 C19 1.373 1_655 S
C19 H13 0.930 . S
C19 C18 1.373 1_455 S
C19 C20 1.354 1_554 S
C20 C19 1.354 1_556 S
C20 C21 1.393 . S
C21 H12 0.931 . S
C21 C17 1.397 1_455 S
C21 C20 1.393 . S
H22 C27 0.929 . S
H23 C32 0.931 . S
H24 C30 0.930 . S
N25 N26 1.234 . S
N25 C29 1.453 . S
N26 N25 1.234 . S
C27 H22 0.929 . S
C27 C28 1.373 . S
C27 C29 1.368 . S
C28 C27 1.373 . S
C28 C32 1.397 . S
C29 N25 1.453 . S
C29 C27 1.368 . S
C29 C30 1.373 . S
C30 H24 0.930 . S
C30 C29 1.373 . S
C30 C31 1.371 . S
C31 C30 1.371 . S
C31 C32 1.383 . S
C32 H23 0.931 . S
C32 C28 1.397 . S
C32 C31 1.383 . S
H33 C38 0.929 . S
H34 C43 0.931 . S
H35 C41 0.930 . S
N36 N37 1.234 . S
N36 C40 1.453 . S
N37 N36 1.234 . S
C38 H33 0.929 . S
C38 C39 1.373 . S
C38 C40 1.368 . S
C39 C38 1.373 . S
C39 C43 1.397 . S
C40 N36 1.453 . S
C40 C38 1.368 . S
C40 C41 1.373 . S
C41 H35 0.930 . S
C41 C40 1.373 . S
C41 C42 1.371 . S
C42 C41 1.371 . S
C42 C43 1.383 . S
C43 H34 0.931 . S
C43 C39 1.397 . S
C43 C42 1.383 . S
Zn44 O50 1.920 . S
Zn44 O56 1.898 . S
Zn44 O59 1.905 1_455 S
Zn45 O53 1.905 . S
Zn45 O54 1.898 . S
Zn45 O62 1.920 . S
Zn46 O49 2.080 . S
Zn46 O52 2.114 1_545 S
Zn46 O55 2.120 1_545 S
Zn46 O57 2.120 . S
Zn46 O58 2.114 1_455 S
Zn46 O61 2.080 1_545 S
C47 O52 1.166 . S
C47 O53 1.182 . S
C48 O54 1.167 . S
C48 O55 1.299 . S
O49 Zn46 2.080 . S
O49 C63 1.305 . S
O50 Zn44 1.920 . S
O50 C63 1.234 . S
C51 O56 1.167 . S
C51 O57 1.299 . S
O52 Zn46 2.114 1_565 S
O52 C47 1.166 . S
O53 Zn45 1.905 . S
O53 C47 1.182 . S
O54 Zn45 1.898 . S
O54 C48 1.167 . S
O55 Zn46 2.120 1_565 S
O55 C48 1.299 . S
O56 Zn44 1.898 . S
O56 C51 1.167 . S
O57 Zn46 2.120 . S
O57 C51 1.299 . S
O58 Zn46 2.114 1_655 S
O58 C60 1.166 . S
O59 Zn44 1.905 1_655 S
O59 C60 1.182 . S
C60 O58 1.166 . S
C60 O59 1.182 . S
O61 Zn46 2.080 1_565 S
O61 C64 1.305 . S
O62 Zn45 1.920 . S
O62 C64 1.234 . S
C63 O49 1.305 . S
C63 O50 1.234 . S
C64 O61 1.305 . S
C64 O62 1.234 . S
Zn65 O71 1.920 . S
Zn65 O77 1.898 . S
Zn65 O80 1.905 . S
Zn66 O74 1.905 . S
Zn66 O75 1.898 . S
Zn66 O83 1.920 . S
Zn67 O70 2.080 . S
Zn67 O73 2.114 . S
Zn67 O76 2.120 . S
Zn67 O78 2.120 . S
Zn67 O79 2.114 . S
Zn67 O82 2.080 . S
C68 O73 1.166 . S
C68 O74 1.182 . S
C69 O75 1.167 . S
C69 O76 1.299 . S
O70 Zn67 2.080 . S
O70 C84 1.305 . S
O71 Zn65 1.920 . S
O71 C84 1.234 . S
C72 O77 1.167 . S
C72 O78 1.299 . S
O73 Zn67 2.114 . S
O73 C68 1.166 . S
O74 Zn66 1.905 . S
O74 C68 1.182 . S
O75 Zn66 1.898 . S
O75 C69 1.167 . S
O76 Zn67 2.120 . S
O76 C69 1.299 . S
O77 Zn65 1.898 . S
O77 C72 1.167 . S
O78 Zn67 2.120 . S
O78 C72 1.299 . S
O79 Zn67 2.114 . S
O79 C81 1.166 . S
O80 Zn65 1.905 . S
O80 C81 1.182 . S
C81 O79 1.166 . S
C81 O80 1.182 . S
O82 Zn67 2.080 . S
O82 C85 1.305 . S
O83 Zn66 1.920 . S
O83 C85 1.234 . S
C84 O70 1.305 . S
C84 O71 1.234 . S
C85 O82 1.305 . S
C85 O83 1.234 . S
H86 C92 0.930 . S
H87 C96 0.930 . S
H88 C101 0.929 . S
H89 C99 0.929 . S
H90 C94 0.929 . S
H91 C100 0.929 . S
C92 H86 0.930 . S
C92 C93 1.367 . S
C92 C100 1.378 . S
C93 C92 1.367 . S
C93 C101 1.433 . S
C94 H90 0.929 . S
C94 C96 1.378 . S
C94 C98 1.350 . S
C95 C98 1.463 . S
C95 C100 1.350 . S
C95 N103 1.427 . S
C96 H87 0.930 . S
C96 C94 1.378 . S
C96 C97 1.367 . S
C97 C96 1.367 . S
C97 C99 1.433 . S
C98 C94 1.350 . S
C98 C95 1.463 . S
C98 N102 1.427 . S
C99 H89 0.929 . S
C99 C97 1.433 . S
C99 N102 1.384 . S
C100 H91 0.929 . S
C100 C92 1.378 . S
C100 C95 1.350 . S
C101 H88 0.929 . S
C101 C93 1.433 . S
C101 N103 1.384 . S
N102 C98 1.427 . S
N102 C99 1.384 . S
N103 C95 1.427 . S
N103 C101 1.384 . S
H104 C110 0.930 . S
H105 C114 0.930 . S
H106 C119 0.929 . S
H107 C117 0.929 . S
H108 C112 0.929 . S
H109 C118 0.929 . S
C110 H104 0.930 . S
C110 C111 1.367 1_655 S
C110 C118 1.378 . S
C111 C110 1.367 1_455 S
C111 C119 1.433 . S
C112 H108 0.929 . S
C112 C114 1.378 . S
C112 C116 1.350 . S
C113 C116 1.463 . S
C113 C118 1.350 1_455 S
C113 N121 1.427 . S
C114 H105 0.930 . S
C114 C112 1.378 . S
C114 C115 1.367 . S
C115 C114 1.367 . S
C115 C117 1.433 1_455 S
C116 C112 1.350 . S
C116 C113 1.463 . S
C116 N120 1.427 1_455 S
C117 H107 0.929 . S
C117 C115 1.433 1_655 S
C117 N120 1.384 . S
C118 H109 0.929 . S
C118 C110 1.378 . S
C118 C113 1.350 1_655 S
C119 H106 0.929 . S
C119 C111 1.433 . S
C119 N121 1.384 . S
N120 C116 1.427 1_655 S
N120 C117 1.384 . S
N121 C113 1.427 . S
N121 C119 1.384 . S
H122 C128 0.930 . S
H123 C132 0.930 . S
H124 C137 0.929 . S
H125 C135 0.929 . S
H126 C130 0.929 . S
H127 C136 0.929 . S
C128 H122 0.930 . S
C128 C129 1.367 . S
C128 C136 1.378 . S
C129 C128 1.367 . S
C129 C137 1.433 . S
C130 H126 0.929 . S
C130 C132 1.378 . S
C130 C134 1.350 . S
C131 C134 1.463 . S
C131 C136 1.350 . S
C131 N139 1.427 . S
C132 H123 0.930 . S
C132 C130 1.378 . S
C132 C133 1.367 . S
C133 C132 1.367 . S
C133 C135 1.433 . S
C134 C130 1.350 . S
C134 C131 1.463 . S
C134 N138 1.427 . S
C135 H125 0.929 . S
C135 C133 1.433 . S
C135 N138 1.384 . S
C136 H127 0.929 . S
C136 C128 1.378 . S
C136 C131 1.350 . S
C137 H124 0.929 . S
C137 C129 1.433 . S
C137 N139 1.384 . S
N138 C134 1.427 . S
N138 C135 1.384 . S
N139 C131 1.427 . S
N139 C137 1.384 . S
H140 C146 0.930 . S
H141 C150 0.930 . S
H142 C155 0.929 . S
H143 C153 0.929 . S
H144 C148 0.929 . S
H145 C154 0.929 . S
C146 H140 0.930 . S
C146 C147 1.367 . S
C146 C154 1.378 . S
C147 C146 1.367 . S
C147 C155 1.433 . S
C148 H144 0.929 . S
C148 C150 1.378 . S
C148 C152 1.350 . S
C149 C152 1.463 . S
C149 C154 1.350 . S
C149 N157 1.427 . S
C150 H141 0.930 . S
C150 C148 1.378 . S
C150 C151 1.367 . S
C151 C150 1.367 . S
C151 C153 1.433 . S
C152 C148 1.350 . S
C152 C149 1.463 . S
C152 N156 1.427 . S
C153 H143 0.929 . S
C153 C151 1.433 . S
C153 N156 1.384 . S
C154 H145 0.929 . S
C154 C146 1.378 . S
C154 C149 1.350 . S
C155 H142 0.929 . S
C155 C147 1.433 . S
C155 N157 1.384 . S
N156 C152 1.427 . S
N156 C153 1.384 . S
N157 C149 1.427 . S
N157 C155 1.384 . S
H158 C164 0.930 . S
H159 C168 0.930 . S
H160 C173 0.929 . S
H161 C171 0.929 . S
H162 C166 0.929 . S
H163 C172 0.929 . S
C164 H158 0.930 . S
C164 C165 1.367 . S
C164 C172 1.378 . S
C165 C164 1.367 . S
C165 C173 1.433 1_556 S
C166 H162 0.929 . S
C166 C168 1.378 . S
C166 C170 1.350 . S
C167 C170 1.463 . S
C167 C172 1.350 . S
C167 N175 1.427 . S
C168 H159 0.930 . S
C168 C166 1.378 . S
C168 C169 1.367 . S
C169 C168 1.367 . S
C169 C171 1.433 . S
C170 C166 1.350 . S
C170 C167 1.463 . S
C170 N174 1.427 . S
C171 H161 0.929 . S
C171 C169 1.433 . S
C171 N174 1.384 . S
C172 H163 0.929 . S
C172 C164 1.378 . S
C172 C167 1.350 . S
C173 H160 0.929 . S
C173 C165 1.433 1_554 S
C173 N175 1.384 1_554 S
N174 C170 1.427 . S
N174 C171 1.384 . S
N175 C167 1.427 . S
N175 C173 1.384 1_556 S
H176 C182 0.930 . S
H177 C186 0.930 . S
H178 C191 0.929 . S
H179 C189 0.929 . S
H180 C184 0.929 . S
H181 C190 0.929 1_554 S
C182 H176 0.930 . S
C182 C183 1.367 1_554 S
C182 C190 1.378 1_554 S
C183 C182 1.367 1_556 S
C183 C191 1.433 . S
C184 H180 0.929 . S
C184 C186 1.378 . S
C184 C188 1.350 . S
C185 C188 1.463 . S
C185 C190 1.350 . S
C185 N193 1.427 . S
C186 H177 0.930 . S
C186 C184 1.378 . S
C186 C187 1.367 . S
C187 C186 1.367 . S
C187 C189 1.433 . S
C188 C184 1.350 . S
C188 C185 1.463 . S
C188 N192 1.427 . S
C189 H179 0.929 . S
C189 C187 1.433 . S
C189 N192 1.384 . S
C190 H181 0.929 1_556 S
C190 C182 1.378 1_556 S
C190 C185 1.350 . S
C191 H178 0.929 . S
C191 C183 1.433 . S
C191 N193 1.384 . S
N192 C188 1.427 . S
N192 C189 1.384 . S
N193 C185 1.427 . S
N193 C191 1.384 . S
H194 C200 0.930 . S
H195 C204 0.930 . S
H196 C209 0.929 . S
H197 C207 0.929 . S
H198 C202 0.929 . S
H199 C208 0.929 . S
C200 H194 0.930 . S
C200 C201 1.367 . S
C200 C208 1.378 1_455 S
C201 C200 1.367 . S
C201 C209 1.433 1_455 S
C202 H198 0.929 . S
C202 C204 1.378 . S
C202 C206 1.350 . S
C203 C206 1.463 . S
C203 C208 1.350 . S
C203 N211 1.427 . S
C204 H195 0.930 . S
C204 C202 1.378 . S
C204 C205 1.367 . S
C205 C204 1.367 . S
C205 C207 1.433 . S
C206 C202 1.350 . S
C206 C203 1.463 . S
C206 N210 1.427 . S
C207 H197 0.929 . S
C207 C205 1.433 . S
C207 N210 1.384 . S
C208 H199 0.929 . S
C208 C200 1.378 1_655 S
C208 C203 1.350 . S
C209 H196 0.929 . S
C209 C201 1.433 1_655 S
C209 N211 1.384 . S
N210 C206 1.427 . S
N210 C207 1.384 . S
N211 C203 1.427 . S
N211 C209 1.384 . S
H212 C218 0.930 . S
H213 C222 0.930 . S
H214 C227 0.929 1_554 S
H215 C225 0.929 . S
H216 C220 0.929 . S
H217 C226 0.929 . S
C218 H212 0.930 . S
C218 C219 1.367 . S
C218 C226 1.378 . S
C219 C218 1.367 . S
C219 C227 1.433 . S
C220 H216 0.929 . S
C220 C222 1.378 . S
C220 C224 1.350 . S
C221 C224 1.463 . S
C221 C226 1.350 . S
C221 N229 1.427 . S
C222 H213 0.930 . S
C222 C220 1.378 . S
C222 C223 1.367 . S
C223 C222 1.367 . S
C223 C225 1.433 . S
C224 C220 1.350 . S
C224 C221 1.463 . S
C224 N228 1.427 . S
C225 H215 0.929 . S
C225 C223 1.433 . S
C225 N228 1.384 . S
C226 H217 0.929 . S
C226 C218 1.378 . S
C226 C221 1.350 . S
C227 H214 0.929 1_556 S
C227 C219 1.433 . S
C227 N229 1.384 . S
N228 C224 1.427 . S
N228 C225 1.384 . S
N229 C221 1.427 . S
N229 C227 1.384 . S
H230 C236 0.930 . S
H231 C240 0.930 . S
H232 C245 0.929 . S
H233 C243 0.929 . S
H234 C238 0.929 . S
H235 C244 0.929 . S
C236 H230 0.930 . S
C236 C237 1.367 . S
C236 C244 1.378 . S
C237 C236 1.367 . S
C237 C245 1.433 . S
C238 H234 0.929 . S
C238 C240 1.378 . S
C238 C242 1.350 . S
C239 C242 1.463 . S
C239 C244 1.350 . S
C239 N247 1.427 . S
C240 H231 0.930 . S
C240 C238 1.378 . S
C240 C241 1.367 . S
C241 C240 1.367 . S
C241 C243 1.433 . S
C242 C238 1.350 . S
C242 C239 1.463 . S
C242 N246 1.427 . S
C243 H233 0.929 . S
C243 C241 1.433 . S
C243 N246 1.384 . S
C244 H235 0.929 . S
C244 C236 1.378 . S
C244 C239 1.350 . S
C245 H232 0.929 . S
C245 C237 1.433 . S
C245 N247 1.384 . S
N246 C242 1.427 . S
N246 C243 1.384 . S
N247 C239 1.427 . S
N247 C245 1.384 . S
H248 C254 0.930 . S
H249 C258 0.930 . S
H250 C263 0.929 . S
H251 C261 0.929 . S
H252 C256 0.929 . S
H253 C262 0.929 . S
C254 H248 0.930 . S
C254 C255 1.367 . S
C254 C262 1.378 . S
C255 C254 1.367 . S
C255 C263 1.433 . S
C256 H252 0.929 . S
C256 C258 1.378 . S
C256 C260 1.350 . S
C257 C260 1.463 . S
C257 C262 1.350 . S
C257 N265 1.427 . S
C258 H249 0.930 . S
C258 C256 1.378 . S
C258 C259 1.367 . S
C259 C258 1.367 . S
C259 C261 1.433 . S
C260 C256 1.350 . S
C260 C257 1.463 . S
C260 N264 1.427 . S
C261 H251 0.929 . S
C261 C259 1.433 . S
C261 N264 1.384 . S
C262 H253 0.929 . S
C262 C254 1.378 . S
C262 C257 1.350 . S
C263 H250 0.929 . S
C263 C255 1.433 . S
C263 N265 1.384 . S
N264 C260 1.427 . S
N264 C261 1.384 . S
N265 C257 1.427 . S
N265 C263 1.384 . S
H266 C272 0.930 . S
H267 C276 0.930 . S
H268 C281 0.929 . S
H269 C279 0.929 . S
H270 C274 0.929 . S
H271 C280 0.929 . S
C272 H266 0.930 . S
C272 C273 1.367 . S
C272 C280 1.378 . S
C273 C272 1.367 . S
C273 C281 1.433 . S
C274 H270 0.929 . S
C274 C276 1.378 . S
C274 C278 1.350 . S
C275 C278 1.463 . S
C275 C280 1.350 . S
C275 N283 1.427 . S
C276 H267 0.930 . S
C276 C274 1.378 . S
C276 C277 1.367 . S
C277 C276 1.367 . S
C277 C279 1.433 . S
C278 C274 1.350 . S
C278 C275 1.463 . S
C278 N282 1.427 . S
C279 H269 0.929 . S
C279 C277 1.433 . S
C279 N282 1.384 . S
C280 H271 0.929 . S
C280 C272 1.378 . S
C280 C275 1.350 . S
C281 H268 0.929 . S
C281 C273 1.433 . S
C281 N283 1.384 . S
N282 C278 1.427 . S
N282 C279 1.384 . S
N283 C275 1.427 . S
N283 C281 1.384 . S
H284 C290 0.930 . S
H285 C294 0.930 . S
H286 C299 0.929 . S
H287 C297 0.929 . S
H288 C292 0.929 . S
H289 C298 0.929 . S
C290 H284 0.930 . S
C290 C291 1.367 . S
C290 C298 1.378 . S
C291 C290 1.367 . S
C291 C299 1.433 . S
C292 H288 0.929 . S
C292 C294 1.378 . S
C292 C296 1.350 . S
C293 C296 1.463 . S
C293 C298 1.350 . S
C293 N301 1.427 . S
C294 H285 0.930 . S
C294 C292 1.378 . S
C294 C295 1.367 . S
C295 C294 1.367 . S
C295 C297 1.433 . S
C296 C292 1.350 . S
C296 C293 1.463 . S
C296 N300 1.427 . S
C297 H287 0.929 . S
C297 C295 1.433 . S
C297 N300 1.384 . S
C298 H289 0.929 . S
C298 C290 1.378 . S
C298 C293 1.350 . S
C299 H286 0.929 . S
C299 C291 1.433 . S
C299 N301 1.384 . S
N300 C296 1.427 . S
N300 C297 1.384 . S
N301 C293 1.427 . S
N301 C299 1.384 . S
C97 C51 1.401 . S
C93 N4 1.535 . S
C115 C47 1.399 . S
C111 N15 1.500 . S
C133 C72 1.422 . S
C129 N26 1.532 . S
C147 N37 1.495 . S
C151 C68 1.410 . S
C165 C9 1.248 . S
C169 C69 1.128 . S
C187 C84 1.133 . S
C183 C17 1.271 . S
C201 C6 1.717 . S
C205 C85 1.570 . S
C223 C81 1.621 . S
C219 C20 1.753 . S
C241 C48 1.123 1_655 S
C237 C31 1.255 . S
C255 C39 1.270 . S
C259 C63 1.145 . S
C277 C64 1.576 . S
C273 C28 1.720 . S
C295 C60 1.615 . S
C291 C42 1.744 . S
