# Generated by pormake.
# Topology tsx, (6,3)-cn, num edge types: 1
# Building blocks:
#     Node 0, Type 0, BuildingBlock: LEVNOQ01_clean_sbu_1, # of connection points: 6
#     Node 1, Type 0, BuildingBlock: LEVNOQ01_clean_sbu_1, # of connection points: 6
#     Node 2, Type 1, BuildingBlock: PAMTOO_clean_linker_0, # of connection points: 3
#     Node 3, Type 1, BuildingBlock: PAMTOO_clean_linker_0, # of connection points: 3
#     Node 4, Type 1, BuildingBlock: PAMTOO_clean_linker_0, # of connection points: 3
#     Node 5, Type 1, BuildingBlock: PAMTOO_clean_linker_0, # of connection points: 3
#     Edge 6, Type (0, 1), BuildingBlock: TEMPAE_clean_linker_10, # of connection points: 2
#     Edge 7, Type (0, 1), BuildingBlock: TEMPAE_clean_linker_10, # of connection points: 2
#     Edge 8, Type (0, 1), BuildingBlock: TEMPAE_clean_linker_10, # of connection points: 2
#     Edge 9, Type (0, 1), BuildingBlock: TEMPAE_clean_linker_10, # of connection points: 2
#     Edge 10, Type (0, 1), BuildingBlock: TEMPAE_clean_linker_10, # of connection points: 2
#     Edge 11, Type (0, 1), BuildingBlock: TEMPAE_clean_linker_10, # of connection points: 2
#     Edge 12, Type (0, 1), BuildingBlock: TEMPAE_clean_linker_10, # of connection points: 2
#     Edge 13, Type (0, 1), BuildingBlock: TEMPAE_clean_linker_10, # of connection points: 2
#     Edge 14, Type (0, 1), BuildingBlock: TEMPAE_clean_linker_10, # of connection points: 2
#     Edge 15, Type (0, 1), BuildingBlock: TEMPAE_clean_linker_10, # of connection points: 2
#     Edge 16, Type (0, 1), BuildingBlock: TEMPAE_clean_linker_10, # of connection points: 2
#     Edge 17, Type (0, 1), BuildingBlock: TEMPAE_clean_linker_10, # of connection points: 2
# Relax obj value: 0.128
# Max RMSD: 0.146
# Mean RMSD: 0.138
data_MOF--net-tsx--node1-LEVNOQ01_clean_sbu_1--node2-PAMTOO_clean_linker_0--edge1-TEMPAE_clean_linker_10
_symmetry_space_group_name_H-M    P1
_symmetry_Int_Tables_number       1
_symmetry_cell_setting            triclinic
loop_
_symmetry_equiv_pos_as_xyz
'x, y, z'
_cell_length_a     18.73859
_cell_length_b     23.439826
_cell_length_c     35.345142
_cell_angle_alpha  89.470876
_cell_angle_beta   91.748402
_cell_angle_gamma 89.567909
loop_
_atom_site_label
_atom_site_type_symbol
_atom_site_fract_x
_atom_site_fract_y
_atom_site_fract_z
_atom_type_partial_charge
O0 O 0.14845 0.01621 0.07319 0.0
Mg1 Mg 0.18915 0.04629 0.02227 0.0
O2 O 0.03829 0.02085 0.0498 0.0
Mg3 Mg 0.05462 0.04406 -0.0146 0.0
O4 O 0.13953 0.11641 -0.00212 0.0
O5 O 0.24588 0.1176 0.02953 0.0
O6 O 0.08046 0.07474 0.92194 0.0
O7 O 0.97212 0.11722 -0.00827 0.0
Mg8 Mg 0.97388 0.02278 0.9321 0.0
O9 O 0.96359 0.97201 -0.02187 0.0
O10 O 0.0503 -0.0031 0.89331 0.0
O11 O 0.93498 0.10877 0.93257 0.0
O12 O 0.88968 0.97114 0.92676 0.0
C13 C 0.19799 0.95425 0.97415 0.0
C14 C 0.08207 0.01115 0.0776 0.0
C15 C 0.19587 0.14367 0.01024 0.0
C16 C 0.08391 0.043 0.89299 0.0
C17 C 0.93614 0.13644 0.9632 0.0
C18 C 0.90926 0.95046 0.95938 0.0
O19 O 0.24182 -0.01084 -0.01179 0.0
O20 O 0.13129 0.9655 0.97465 0.0
O21 O 0.63975 0.49457 0.55211 0.0
Mg22 Mg 0.65846 0.5305 0.49748 0.0
O23 O 0.53391 0.53398 0.54753 0.0
Mg24 Mg 0.54017 0.54192 0.48252 0.0
O25 O 0.63551 0.61414 0.48665 0.0
O26 O 0.74142 0.58064 0.50867 0.0
O27 O 0.54685 0.54826 0.41694 0.0
O28 O 0.47168 0.62768 0.48565 0.0
Mg29 Mg 0.38669 0.53232 0.44531 0.0
O30 O 0.44577 0.47908 0.47946 0.0
O31 O 0.43693 0.53968 0.39269 0.0
O32 O 0.35821 0.60648 0.47373 0.0
O33 O 0.33556 0.45818 0.45852 0.0
C34 C 0.65339 0.43777 0.46036 0.0
C35 C 0.58223 0.50865 0.5675 0.0
C36 C 0.70147 0.62297 0.49802 0.0
C37 C 0.50351 0.54569 0.38841 0.0
C38 C 0.4054 0.64154 0.48449 0.0
C39 C 0.39267 0.44391 0.47769 0.0
O40 O 0.69441 0.4785 0.45363 0.0
O41 O 0.59646 0.44906 0.47769 0.0
H42 H 0.09244 0.9219 0.35292 0.0
H43 H 0.93435 0.0542 0.36494 0.0
H44 H 0.05666 -0.00433 0.46186 0.0
H45 H 0.90862 0.03829 0.48517 0.0
C46 C 0.8952 0.05351 0.45592 0.0
O47 O 0.95739 0.06606 0.43774 0.0
H48 H 0.86534 0.01871 0.44128 0.0
C49 C 0.06311 0.95054 0.37078 0.0
C50 C 0.08052 0.95293 0.40975 0.0
C51 C 1.0107 -0.01307 0.35422 0.0
C52 C 0.97481 0.02568 0.37713 0.0
C53 C 0.99128 0.02811 0.41594 0.0
C54 C 0.04434 -0.00753 0.432 0.0
H55 H 0.21094 0.11988 0.60996 0.0
H56 H 0.02019 0.01826 0.60626 0.0
H57 H 0.12663 0.05765 0.50379 0.0
H58 H 0.04812 0.9233 0.56036 0.0
C59 C 0.0341 0.94141 0.53183 0.0
O60 O 0.02264 -0.0005 0.53416 0.0
H61 H 0.08011 0.93308 0.51351 0.0
C62 C 0.17099 0.09592 0.59423 0.0
C63 C 0.17503 0.09292 0.55466 0.0
C64 C 0.11536 0.0697 0.61352 0.0
C65 C 0.06418 0.0387 0.59247 0.0
C66 C 0.06946 0.03303 0.55326 0.0
C67 C 0.124 0.06094 0.53424 0.0
H68 H 0.62361 0.41469 0.85918 0.0
H69 H 0.48768 0.56363 0.85369 0.0
H70 H 0.54771 0.48917 0.96146 0.0
H71 H 0.38479 0.53332 0.9509 0.0
C72 C 0.39769 0.56238 0.9273 0.0
O73 O 0.4707 0.56901 0.92619 0.0
H74 H 0.37635 0.54256 0.90078 0.0
C75 C 0.59217 0.44685 0.87314 0.0
C76 C 0.59049 0.44724 0.91284 0.0
C77 C 0.55584 0.48899 0.85148 0.0
C78 C 0.51699 0.5312 0.86993 0.0
C79 C 0.51257 0.53036 0.90935 0.0
C80 C 0.55015 0.48896 0.93093 0.0
H81 H 0.69461 0.62523 0.11231 0.0
H82 H 0.54652 0.48575 0.10618 0.0
H83 H 0.59598 0.57896 0.00553 0.0
H84 H 0.43872 0.54403 0.0115 0.0
C85 C 0.44824 0.50983 0.03298 0.0
O86 O 0.52011 0.49601 0.034 0.0
H87 H 0.43173 0.5261 0.06093 0.0
C88 C 0.65951 0.59758 0.09598 0.0
C89 C 0.65034 0.60701 0.05689 0.0
C90 C 0.62209 0.55433 0.11435 0.0
C91 C 0.57772 0.51842 0.09265 0.0
C92 C 0.56831 0.52743 0.05361 0.0
C93 C 0.60504 0.57133 0.03559 0.0
C94 C 0.23748 0.22585 0.97277 0.0
C95 C 0.20348 0.20523 0.00475 0.0
C96 C 0.26876 0.28015 0.97293 0.0
C97 C 0.26628 0.31371 0.00601 0.0
C98 C 0.22642 0.29476 0.03706 0.0
C99 C 0.19566 0.24048 0.03606 0.0
C100 C 0.3102 0.29912 0.93916 0.0
C101 C 0.22253 0.32902 0.07292 0.0
C102 C 0.42773 0.40308 0.03245 0.0
C103 C 0.40318 0.45844 0.02372 0.0
C104 C 0.38411 0.35564 0.0259 0.0
C105 C 0.31392 0.36375 0.01061 0.0
C106 C 0.28872 0.41949 0.00186 0.0
C107 C 0.33328 0.46623 0.0092 0.0
C108 C 0.41271 0.29689 0.03617 0.0
C109 C 0.21438 0.42981 -0.01454 0.0
H110 H 0.24467 0.19782 0.94892 0.0
H111 H 0.17046 0.22371 0.06101 0.0
H112 H 0.29938 0.34476 0.93244 0.0
H113 H 0.36823 0.29454 0.94581 0.0
H114 H 0.29704 0.27331 0.91371 0.0
H115 H 0.18129 0.31248 0.09202 0.0
H116 H 0.27503 0.32711 0.08831 0.0
H117 H 0.21057 0.3745 0.06635 0.0
H118 H 0.48079 0.39673 0.0449 0.0
H119 H 0.31321 0.5091 0.00385 0.0
H120 H 0.40963 0.26883 0.01108 0.0
H121 H 0.37956 0.27735 0.05824 0.0
H122 H 0.46901 0.29783 0.04694 0.0
H123 H 0.20489 0.40279 0.96022 0.0
H124 H 0.20519 0.47518 -0.02279 0.0
H125 H 0.17445 0.41761 0.00655 0.0
C126 C 0.17689 0.85527 0.94997 0.0
C127 C 0.22442 0.89849 0.96084 0.0
C128 C 0.20207 0.80033 0.94161 0.0
C129 C 0.27632 0.78855 0.94435 0.0
C130 C 0.3246 0.83261 0.95381 0.0
C131 C 0.29809 0.88703 0.96177 0.0
C132 C 0.14918 0.75438 0.9312 0.0
C133 C 0.40417 0.82176 0.95714 0.0
C134 C 0.34086 0.63804 0.96691 0.0
C135 C 0.36299 0.61978 0.93152 0.0
C136 C 0.31107 0.69253 0.97128 0.0
C137 C 0.30367 0.72955 0.93948 0.0
C138 C 0.32586 0.71118 0.90363 0.0
C139 C 0.3557 0.65649 0.90014 0.0
C140 C 0.28879 0.71086 0.01007 0.0
C141 C 0.3191 0.74957 0.86915 0.0
H142 H 0.11992 0.86383 0.94906 0.0
H143 H 0.33533 0.92024 0.96988 0.0
H144 H 0.1645 0.73337 0.90461 0.0
H145 H 0.14973 0.72106 0.95371 0.0
H146 H 0.0939 0.77142 0.92748 0.0
H147 H 0.43469 0.86139 0.96278 0.0
H148 H 0.41608 0.79092 -0.01947 0.0
H149 H 0.4235 0.80249 0.93077 0.0
H150 H 0.34723 0.60987 -0.00877 0.0
H151 H 0.37386 0.64237 0.87291 0.0
H152 H 0.23172 0.72387 0.0091 0.0
H153 H 0.32023 0.74848 0.01923 0.0
H154 H 0.29657 0.67643 0.03166 0.0
H155 H 0.26295 0.76418 0.86487 0.0
H156 H 0.33618 0.72794 0.84306 0.0
H157 H 0.35219 0.78815 0.87344 0.0
C158 C 0.80409 0.88622 0.95742 0.0
C159 C 0.87023 0.90086 0.97421 0.0
C160 C 0.76709 0.83794 0.96931 0.0
C161 C 0.79717 0.80305 -0.00145 0.0
C162 C 0.86383 0.81753 0.01577 0.0
C163 C 0.89949 0.86659 0.00353 0.0
C164 C 0.69559 0.8245 0.95068 0.0
C165 C 0.89752 0.78102 0.04698 0.0
C166 C 0.67419 0.71105 0.05574 0.0
C167 C 0.68403 0.65728 0.03962 0.0
C168 C 0.70998 0.75893 0.04225 0.0
C169 C 0.75731 0.75271 0.01213 0.0
C170 C 0.7661 0.69871 -0.00495 0.0
C171 C 0.72876 0.6515 0.00887 0.0
C172 C 0.69786 0.81598 0.06063 0.0
C173 C 0.81623 0.6906 0.96287 0.0
H174 H 0.78087 0.91266 0.93486 0.0
H175 H 0.95077 0.87748 0.01643 0.0
H176 H 0.69709 0.7814 0.93804 0.0
H177 H 0.65365 0.82412 0.97217 0.0
H178 H 0.67991 0.85589 0.92814 0.0
H179 H 0.95034 0.79735 0.05681 0.0
H180 H 0.86191 0.7793 0.07146 0.0
H181 H 0.90442 0.73665 0.03694 0.0
H182 H 0.63872 0.71546 0.07923 0.0
H183 H 0.73627 0.60978 -0.00347 0.0
H184 H 0.68017 0.84807 0.03899 0.0
H185 H 0.74863 0.83137 0.07372 0.0
H186 H 0.65721 0.81385 0.08282 0.0
H187 H 0.80149 0.72009 0.93914 0.0
H188 H 0.81578 0.64619 0.95215 0.0
H189 H 0.87148 0.70116 0.97245 0.0
C190 C 0.8569 0.20329 -0.00199 0.0
C191 C 0.89303 0.18919 0.96519 0.0
C192 C 0.80676 0.24837 -0.00239 0.0
C193 C 0.79397 0.28036 0.96383 0.0
C194 C 0.83409 0.26844 0.93148 0.0
C195 C 0.88248 0.22266 0.93246 0.0
C196 C 0.76453 0.25939 0.03249 0.0
C197 C 0.82332 0.30216 0.89507 0.0
C198 C 0.61864 0.34692 0.93127 0.0
C199 C 0.63385 0.40498 0.93467 0.0
C200 C 0.66785 0.30542 0.94442 0.0
C201 C 0.73446 0.32267 0.96039 0.0
C202 C 0.74746 0.38137 0.96659 0.0
C203 C 0.69653 0.422 0.95379 0.0
C204 C 0.65107 0.24328 0.93808 0.0
C205 C 0.81772 0.40163 -0.01667 0.0
H206 H 0.86479 0.17716 0.02328 0.0
H207 H 0.911 0.2121 0.90718 0.0
H208 H 0.7619 0.30572 0.03846 0.0
H209 H 0.70893 0.24458 0.02762 0.0
H210 H 0.78768 0.23673 0.0578 0.0
H211 H 0.86351 0.29104 0.87381 0.0
H212 H 0.76941 0.29365 0.88262 0.0
H213 H 0.82648 0.34858 0.90068 0.0
H214 H 0.56983 0.33409 0.91653 0.0
H215 H 0.70807 0.46712 0.9562 0.0
H216 H 0.66663 0.21733 0.96345 0.0
H217 H 0.68217 0.22727 0.91409 0.0
H218 H 0.59345 0.23661 0.93134 0.0
H219 H 0.83556 0.37431 0.00765 0.0
H220 H 0.81438 0.4466 -0.00716 0.0
H221 H 0.8591 0.39879 0.96161 0.0
C222 C 0.70976 0.72665 0.47738 0.0
C223 C 0.73309 0.68071 0.50043 0.0
C224 C 0.74708 0.77886 0.4779 0.0
C225 C 0.80864 0.78471 0.50194 0.0
C226 C 0.82991 0.73914 0.52637 0.0
C227 C 0.79189 0.68819 0.52536 0.0
C228 C 0.72235 0.8268 0.45182 0.0
C229 C 0.89472 0.74316 0.55279 0.0
C230 C 0.97216 0.87334 0.4872 0.0
C231 C 0.96793 0.91166 0.51721 0.0
C232 C 0.91597 0.83596 0.47861 0.0
C233 C 0.85451 0.83639 0.50101 0.0
C234 C 0.84718 0.87891 0.5289 0.0
C235 C 0.90429 0.9159 0.53684 0.0
C236 C 0.92611 0.79188 0.44835 0.0
C237 C 0.78225 0.88155 0.55305 0.0
H238 H 0.66423 0.72119 0.45814 0.0
H239 H 0.80948 0.65338 0.54387 0.0
H240 H 0.72348 0.86817 0.46683 0.0
H241 H 0.75912 0.83027 0.42791 0.0
H242 H 0.66753 0.81962 0.44007 0.0
H243 H 0.90272 0.70427 0.57067 0.0
H244 H 0.94333 0.74956 0.53615 0.0
H245 H 0.88942 0.78034 0.57171 0.0
H246 H 0.02131 0.8699 0.47201 0.0
H247 H 0.901 0.94566 0.56005 0.0
H248 H 0.87605 0.78597 0.43135 0.0
H249 H 0.94038 0.75029 0.46195 0.0
H250 H 0.96942 0.8038 0.42906 0.0
H251 H 0.73283 0.8739 0.53582 0.0
H252 H 0.77751 0.9234 0.5673 0.0
H253 H 0.78637 0.8477 0.57518 0.0
C254 C 0.74293 0.36853 0.43678 0.0
C255 C 0.67789 0.3784 0.45436 0.0
C256 C 0.77318 0.31376 0.43573 0.0
C257 C 0.73726 0.26743 0.4524 0.0
C258 C 0.66984 0.2765 0.46853 0.0
C259 C 0.64085 0.33199 0.46931 0.0
C260 C 0.84529 0.30607 0.41837 0.0
C261 C 0.62959 0.22797 0.48613 0.0
C262 C 0.80359 0.12002 0.42577 0.0
C263 C 0.84944 0.10642 0.45663 0.0
C264 C 0.76462 0.17143 0.42458 0.0
C265 C 0.77266 0.2104 0.45475 0.0
C266 C 0.81872 0.19659 0.48612 0.0
C267 C 0.85681 0.14478 0.48659 0.0
C268 C 0.71646 0.18476 0.39058 0.0
C269 C 0.82943 0.2373 0.51864 0.0
H270 H 0.77174 0.40409 0.42494 0.0
H271 H 0.59053 0.33926 0.48287 0.0
H272 H 0.88524 0.29283 0.44063 0.0
H273 H 0.84315 0.27181 0.39695 0.0
H274 H 0.86416 0.3458 0.40466 0.0
H275 H 0.5777 0.24206 0.49739 0.0
H276 H 0.61952 0.19426 0.46484 0.0
H277 H 0.6622 0.20842 0.50963 0.0
H278 H 0.79917 0.09068 0.40228 0.0
H279 H 0.89339 0.13458 0.51009 0.0
H280 H 0.73719 0.22218 0.37505 0.0
H281 H 0.66214 0.19615 0.39977 0.0
H282 H 0.71241 0.14833 0.37076 0.0
H283 H 0.85358 0.27738 0.5083 0.0
H284 H 0.8646 0.21905 0.54163 0.0
H285 H 0.77723 0.2487 0.53061 0.0
C286 C 0.35318 0.37523 0.52551 0.0
C287 C 0.39597 0.3867 0.49473 0.0
C288 C 0.33283 0.31927 0.53404 0.0
C289 C 0.35495 0.27398 0.51067 0.0
C290 C 0.40364 0.28489 0.48163 0.0
C291 C 0.42356 0.34146 0.47394 0.0
C292 C 0.28197 0.30952 0.56577 0.0
C293 C 0.42921 0.23796 0.45634 0.0
C294 C 0.29879 0.13178 0.55067 0.0
C295 C 0.22891 0.12811 0.5354 0.0
C296 C 0.34398 0.17633 0.54018 0.0
C297 C 0.31864 0.21788 0.5137 0.0
C298 C 0.25145 0.21032 0.4949 0.0
C299 C 0.20726 0.16548 0.50604 0.0
C300 C 0.41573 0.18189 0.56027 0.0
C301 C 0.22306 0.25286 0.46573 0.0
H302 H 0.33104 0.41053 0.54109 0.0
H303 H 0.45562 0.35071 0.44963 0.0
H304 H 0.2283 0.29918 0.55367 0.0
H305 H 0.30005 0.27284 0.58375 0.0
H306 H 0.27688 0.34765 0.58396 0.0
H307 H 0.47786 0.25062 0.44124 0.0
H308 H 0.44081 0.19824 0.47276 0.0
H309 H 0.38669 0.2283 0.43487 0.0
H310 H 0.31639 0.10203 0.57276 0.0
H311 H 0.1535 0.16274 0.49398 0.0
H312 H 0.41138 0.21325 0.58343 0.0
H313 H 0.45657 0.19769 0.54075 0.0
H314 H 0.43429 0.14058 0.57288 0.0
H315 H 0.20781 0.29291 0.48005 0.0
H316 H 0.1754 0.23662 0.44989 0.0
H317 H 0.2647 0.26356 0.44525 0.0
C318 C 0.32064 0.71151 0.51014 0.0
C319 C 0.38135 0.70098 0.48902 0.0
C320 C 0.27882 0.76073 0.50366 0.0
C321 C 0.29737 0.79945 0.47466 0.0
C322 C 0.36289 0.79203 0.45619 0.0
C323 C 0.4046 0.74288 0.46386 0.0
C324 C 0.21046 0.76762 0.52474 0.0
C325 C 0.38459 0.83213 0.42502 0.0
C326 C 0.14082 0.85736 0.41509 0.0
C327 C 0.13629 0.91416 0.42691 0.0
C328 C 0.19339 0.82017 0.43023 0.0
C329 C 0.2422 0.83973 0.45858 0.0
C330 C 0.23715 0.89665 0.47133 0.0
C331 C 0.18477 0.93338 0.45504 0.0
C332 C 0.19648 0.75972 0.41581 0.0
C333 C 0.28713 0.91883 0.50198 0.0
H334 H 0.30252 0.67886 0.52948 0.0
H335 H 0.45096 0.73433 0.4471 0.0
H336 H 0.20122 0.81292 0.53213 0.0
H337 H 0.16475 0.7539 0.5064 0.0
H338 H 0.21105 0.74136 0.55108 0.0
H339 H 0.44175 0.82666 0.41828 0.0
H340 H 0.35176 0.82348 0.39906 0.0
H341 H 0.37495 0.87716 0.43287 0.0
H342 H 0.10262 0.84165 0.3941 0.0
H343 H 0.18221 0.97733 0.46416 0.0
H344 H 0.18742 0.72919 0.43931 0.0
H345 H 0.25018 0.75048 0.40485 0.0
H346 H 0.156 0.75183 0.39287 0.0
H347 H 0.28779 0.88979 0.52696 0.0
H348 H 0.27192 0.96236 0.51117 0.0
H349 H 0.3423 0.92012 0.49151 0.0
C350 C 0.10832 0.98606 0.14523 0.0
C351 C 0.05728 -0.00241 0.11618 0.0
C352 C 0.08888 0.98017 0.18294 0.0
C353 C 0.01618 0.98507 0.19212 0.0
C354 C 0.96361 -0.00682 0.16283 0.0
C355 C 0.98481 -0.00027 0.12509 0.0
C356 C 0.14691 0.97148 0.21317 0.0
C357 C 0.88541 -0.00286 0.1715 0.0
C358 C 0.99049 0.93553 0.29299 0.0
C359 C 0.99793 -0.013 0.31259 0.0
C360 C 0.98948 0.93458 0.25325 0.0
C361 C 0.99749 0.98623 0.23277 0.0
C362 C 1.00009 0.03863 0.25243 0.0
C363 C 0.99989 0.03838 0.29212 0.0
C364 C 0.98487 0.87794 0.23342 0.0
C365 C 1.0093 0.09466 0.23179 0.0
H366 H 0.16442 0.98348 0.13876 0.0
H367 H 0.94491 0.00816 0.10286 0.0
H368 H 0.14803 0.00857 0.23248 0.0
H369 H 0.13589 0.93304 0.23048 0.0
H370 H 0.20065 0.96652 0.20111 0.0
H371 H 0.85082 -0.00587 0.14551 0.0
H372 H 0.87067 0.96283 0.19157 0.0
H373 H 0.87438 0.03851 0.18523 0.0
H374 H 0.98783 0.89578 0.30881 0.0
H375 H 1.00593 0.07822 0.30718 0.0
H376 H 0.03867 0.86519 0.22414 0.0
H377 H 0.9493 0.88113 0.2078 0.0
H378 H 0.96488 0.8438 0.25227 0.0
H379 H 0.0638 0.09646 0.2204 0.0
H380 H 1.00195 0.13185 0.25058 0.0
H381 H 0.97075 0.09841 0.20746 0.0
C382 C 0.16253 0.04741 0.83779 0.0
C383 C 0.10165 0.06641 0.85592 0.0
C384 C 0.16959 0.05657 0.79875 0.0
C385 C 0.11293 0.08303 0.77745 0.0
C386 C 0.05321 0.10512 0.79625 0.0
C387 C 0.04876 0.09704 0.83545 0.0
C388 C 0.23526 0.03429 0.7799 0.0
C389 C 0.99071 0.13214 0.77465 0.0
C390 C 0.13501 0.12389 0.67418 0.0
C391 C 0.11179 0.07429 0.65553 0.0
C392 C 0.13675 0.12721 0.71382 0.0
C393 C 0.11183 0.08081 0.7354 0.0
C394 C 0.08566 0.03156 0.71684 0.0
C395 C 0.0872 0.02848 0.67727 0.0
C396 C 0.16648 0.17992 0.7326 0.0
C397 C 0.0565 0.98175 0.73881 0.0
H398 H 0.20276 0.02295 0.85373 0.0
H399 H 1.00099 0.11052 0.84961 0.0
H400 H 0.22179 -0.00502 0.76407 0.0
H401 H 0.25484 0.06605 0.75925 0.0
H402 H 0.27901 0.02394 0.80082 0.0
H403 H 0.95334 0.15391 0.79371 0.0
H404 H 1.00907 0.16349 0.75347 0.0
H405 H 0.96094 0.09856 0.75901 0.0
H406 H 0.15223 0.16034 0.65787 0.0
H407 H 0.07019 -0.01043 0.66351 0.0
H408 H 0.21231 0.16795 0.75175 0.0
H409 H 0.12554 0.20004 0.75025 0.0
H410 H 0.18467 0.212 0.71173 0.0
H411 H 0.09971 0.96186 0.75669 0.0
H412 H 0.0333 0.94854 0.71999 0.0
H413 H 0.01459 -0.0033 0.75799 0.0
C414 C 0.63364 0.48198 0.63128 0.0
C415 C 0.57432 0.49918 0.60865 0.0
C416 C 0.62939 0.47736 0.6707 0.0
C417 C 0.56396 0.48954 0.68797 0.0
C418 C 0.50311 0.50482 0.66525 0.0
C419 C 0.50911 0.50984 0.62582 0.0
C420 C 0.69566 0.46147 0.69397 0.0
C421 C 0.43217 0.51726 0.68269 0.0
C422 C 0.54448 0.4387 0.78951 0.0
C423 C 0.55801 0.4889 0.80965 0.0
C424 C 0.54505 0.43838 0.74981 0.0
C425 C 0.5605 0.48932 0.72994 0.0
C426 C 0.57459 0.54005 0.75022 0.0
C427 C 0.57272 0.53929 0.78984 0.0
C428 C 0.52897 0.38366 0.72916 0.0
C429 C 0.59242 0.595 0.73009 0.0
H430 H 0.6843 0.47368 0.61829 0.0
H431 H 0.46295 0.52281 0.60851 0.0
H432 H 0.71105 0.4975 0.71259 0.0
H433 H 0.68502 0.42433 0.71258 0.0
H434 H 0.74155 0.45084 0.67608 0.0
H435 H 0.3888 0.52429 0.66098 0.0
H436 H 0.41706 0.48144 0.70148 0.0
H437 H 0.43653 0.55593 0.70044 0.0
H438 H 0.53233 0.39987 0.80484 0.0
H439 H 0.58382 0.57799 0.80545 0.0
H440 H 0.57542 0.37084 0.71238 0.0
H441 H 0.48308 0.39029 0.70897 0.0
H442 H 0.51627 0.34811 0.74878 0.0
H443 H 0.64087 0.58884 0.71326 0.0
H444 H 0.60201 0.63066 0.75005 0.0
H445 H 0.54819 0.60739 0.71003 0.0
C446 C 0.60406 0.5467 0.34284 0.0
C447 C 0.53054 0.54722 0.34945 0.0
C448 C 0.62913 0.54592 0.30575 0.0
C449 C 0.57948 0.54577 0.27475 0.0
C450 C 0.50539 0.5463 0.28129 0.0
C451 C 0.48192 0.54708 0.31846 0.0
C452 C 0.70852 0.5454 0.29969 0.0
C453 C 0.45066 0.5463 0.24896 0.0
C454 C 0.61856 0.60191 0.17721 0.0
C455 C 0.6224 0.55138 0.15634 0.0
C456 C 0.60981 0.60055 0.21639 0.0
C457 C 0.60381 0.54737 0.23517 0.0
C458 C 0.61143 0.49612 0.21472 0.0
C459 C 0.6207 0.49874 0.17547 0.0
C460 C 0.60196 0.65619 0.23714 0.0
C461 C 0.60554 0.43857 0.23383 0.0
H462 H 0.64202 0.54648 0.36661 0.0
H463 H 0.42503 0.54747 0.32316 0.0
H464 H 0.72329 0.50788 0.28261 0.0
H465 H 0.7236 0.58403 0.2835 0.0
H466 H 0.74012 0.54408 0.32679 0.0
H467 H 0.39502 0.54559 0.25894 0.0
H468 H 0.45707 0.58486 0.23097 0.0
H469 H 0.45893 0.50859 0.23083 0.0
H470 H 0.61859 0.64284 0.1627 0.0
H471 H 0.62465 0.45955 0.15959 0.0
H472 H 0.63517 0.65574 0.26366 0.0
H473 H 0.54555 0.662 0.24508 0.0
H474 H 0.61742 0.69342 0.21961 0.0
H475 H 0.63872 0.43694 0.26036 0.0
H476 H 0.62221 0.40324 0.21523 0.0
H477 H 0.54935 0.43144 0.2416 0.0
loop_
_geom_bond_atom_site_label_1
_geom_bond_atom_site_label_2
_geom_bond_distance
_geom_bond_site_symmetry_2
_ccdc_geom_bond_type
O0 Mg1 1.990 . S
O0 C14 1.253 . S
Mg1 O0 1.990 . S
Mg1 O4 2.180 . S
Mg1 O5 2.117 . S
Mg1 O19 2.030 1_545 S
O2 Mg3 2.072 . S
O2 C14 1.260 . S
Mg3 O2 2.072 . S
Mg3 O4 2.099 . S
Mg3 O6 2.079 1_554 S
Mg3 O7 2.072 . S
Mg3 O9 2.099 1_444 S
Mg3 O20 2.079 1_544 S
O4 Mg1 2.180 . S
O4 Mg3 2.099 . S
O4 C15 1.279 . S
O5 Mg1 2.117 . S
O5 C15 1.250 . S
O6 Mg3 2.079 1_556 S
O6 C16 1.264 . S
O7 Mg3 2.072 . S
O7 C17 1.260 1_454 S
Mg8 O9 2.180 1_545 S
Mg8 O10 2.030 . S
Mg8 O11 1.990 . S
Mg8 O12 2.117 1_545 S
O9 Mg3 2.099 1_666 S
O9 Mg8 2.180 1_565 S
O9 C18 1.279 1_556 S
O10 Mg8 2.030 . S
O10 C16 1.248 1_655 S
O11 Mg8 1.990 . S
O11 C17 1.253 . S
O12 Mg8 2.117 1_565 S
O12 C18 1.250 1_556 S
C13 O19 1.248 . S
C13 O20 1.264 1_554 S
C14 O0 1.253 . S
C14 O2 1.260 . S
C15 O4 1.279 . S
C15 O5 1.250 . S
C16 O6 1.264 . S
C16 O10 1.248 1_455 S
C17 O7 1.260 1_656 S
C17 O11 1.253 . S
C18 O9 1.279 1_554 S
C18 O12 1.250 1_554 S
O19 Mg1 2.030 1_565 S
O19 C13 1.248 . S
O20 Mg3 2.079 1_566 S
O20 C13 1.264 1_556 S
O21 Mg22 1.990 . S
O21 C35 1.253 . S
Mg22 O21 1.990 . S
Mg22 O25 2.180 . S
Mg22 O26 2.117 . S
Mg22 O40 2.030 . S
O23 Mg24 2.072 . S
O23 C35 1.260 . S
Mg24 O23 2.072 . S
Mg24 O25 2.099 . S
Mg24 O27 2.079 . S
Mg24 O28 2.072 . S
Mg24 O30 2.099 . S
Mg24 O41 2.079 . S
O25 Mg22 2.180 . S
O25 Mg24 2.099 . S
O25 C36 1.279 . S
O26 Mg22 2.117 . S
O26 C36 1.250 . S
O27 Mg24 2.079 . S
O27 C37 1.264 . S
O28 Mg24 2.072 . S
O28 C38 1.260 . S
Mg29 O30 2.180 . S
Mg29 O31 2.030 . S
Mg29 O32 1.990 . S
Mg29 O33 2.117 . S
O30 Mg24 2.099 . S
O30 Mg29 2.180 . S
O30 C39 1.279 . S
O31 Mg29 2.030 . S
O31 C37 1.248 . S
O32 Mg29 1.990 . S
O32 C38 1.253 . S
O33 Mg29 2.117 . S
O33 C39 1.250 . S
C34 O40 1.248 . S
C34 O41 1.264 . S
C35 O21 1.253 . S
C35 O23 1.260 . S
C36 O25 1.279 . S
C36 O26 1.250 . S
C37 O27 1.264 . S
C37 O31 1.248 . S
C38 O28 1.260 . S
C38 O32 1.253 . S
C39 O30 1.279 . S
C39 O33 1.250 . S
O40 Mg22 2.030 . S
O40 C34 1.248 . S
O41 Mg24 2.079 . S
O41 C34 1.264 . S
H42 C49 0.929 . S
H43 C52 0.930 1_655 S
H44 C54 0.929 . S
H45 C46 0.969 . S
C46 H45 0.969 . S
C46 O47 1.550 1_655 S
C46 H48 0.973 . S
O47 C46 1.550 1_455 S
O47 C53 1.412 . S
H48 C46 0.973 . S
C49 H42 0.929 . S
C49 C50 1.400 . S
C49 C51 1.364 . S
C50 C49 1.400 . S
C50 C54 1.377 . S
C51 C49 1.364 . S
C51 C52 1.374 1_565 S
C52 H43 0.930 1_455 S
C52 C51 1.374 1_545 S
C52 C53 1.383 . S
C53 O47 1.412 . S
C53 C52 1.383 . S
C53 C54 1.394 1_545 S
C54 H44 0.929 . S
C54 C50 1.377 . S
C54 C53 1.394 1_565 S
H55 C62 0.929 . S
H56 C65 0.930 . S
H57 C67 0.929 . S
H58 C59 0.969 . S
C59 H58 0.969 . S
C59 O60 1.550 . S
C59 H61 0.973 1_545 S
O60 C59 1.550 . S
O60 C66 1.412 . S
H61 C59 0.973 1_565 S
C62 H55 0.929 . S
C62 C63 1.400 . S
C62 C64 1.364 . S
C63 C62 1.400 . S
C63 C67 1.377 . S
C64 C62 1.364 . S
C64 C65 1.374 1_455 S
C65 H56 0.930 . S
C65 C64 1.374 1_655 S
C65 C66 1.383 . S
C66 O60 1.412 . S
C66 C65 1.383 . S
C66 C67 1.394 1_655 S
C67 H57 0.929 . S
C67 C63 1.377 . S
C67 C66 1.394 1_455 S
H68 C75 0.929 . S
H69 C78 0.930 . S
H70 C80 0.929 1_554 S
H71 C72 0.969 . S
C72 H71 0.969 . S
C72 O73 1.550 . S
C72 H74 0.973 . S
O73 C72 1.550 . S
O73 C79 1.412 . S
H74 C72 0.973 . S
C75 H68 0.929 . S
C75 C76 1.400 . S
C75 C77 1.364 . S
C76 C75 1.400 . S
C76 C80 1.377 . S
C77 C75 1.364 . S
C77 C78 1.374 . S
C78 H69 0.930 . S
C78 C77 1.374 . S
C78 C79 1.383 . S
C79 O73 1.412 . S
C79 C78 1.383 . S
C79 C80 1.394 . S
C80 H70 0.929 1_556 S
C80 C76 1.377 . S
C80 C79 1.394 . S
H81 C88 0.929 . S
H82 C91 0.930 . S
H83 C93 0.929 . S
H84 C85 0.969 . S
C85 H84 0.969 . S
C85 O86 1.550 . S
C85 H87 0.973 . S
O86 C85 1.550 . S
O86 C92 1.412 . S
H87 C85 0.973 . S
C88 H81 0.929 . S
C88 C89 1.400 . S
C88 C90 1.364 . S
C89 C88 1.400 . S
C89 C93 1.377 . S
C90 C88 1.364 . S
C90 C91 1.374 . S
C91 H82 0.930 . S
C91 C90 1.374 . S
C91 C92 1.383 . S
C92 O86 1.412 . S
C92 C91 1.383 . S
C92 C93 1.394 . S
C93 H83 0.929 . S
C93 C89 1.377 . S
C93 C92 1.394 . S
C94 C95 1.391 1_556 S
C94 C96 1.394 . S
C94 H110 0.931 . S
C95 C94 1.391 1_554 S
C95 C99 1.376 . S
C96 C94 1.394 . S
C96 C97 1.369 1_556 S
C96 C100 1.531 . S
C97 C96 1.369 1_554 S
C97 C98 1.410 . S
C97 C105 1.503 . S
C98 C97 1.410 . S
C98 C99 1.392 . S
C98 C101 1.511 . S
C99 C95 1.376 . S
C99 C98 1.392 . S
C99 H111 0.929 . S
C100 C96 1.531 . S
C100 H112 0.960 . S
C100 H113 0.962 . S
C100 H114 0.960 . S
C101 C98 1.511 . S
C101 H115 0.961 . S
C101 H116 0.961 . S
C101 H117 0.961 . S
C102 C103 1.370 . S
C102 C104 1.363 . S
C102 H118 0.931 . S
C103 C102 1.370 . S
C103 C107 1.408 1_554 S
C104 C102 1.363 . S
C104 C105 1.370 . S
C104 C108 1.524 . S
C105 C97 1.503 . S
C105 C104 1.370 . S
C105 C106 1.403 1_554 S
C106 C105 1.403 1_556 S
C106 C107 1.404 . S
C106 C109 1.539 . S
C107 C103 1.408 1_556 S
C107 C106 1.404 . S
C107 H119 0.930 . S
C108 C104 1.524 . S
C108 H120 0.956 . S
C108 H121 0.961 . S
C108 H122 0.961 . S
C109 C106 1.539 . S
C109 H123 0.958 . S
C109 H124 0.961 . S
C109 H125 0.960 . S
H110 C94 0.931 . S
H111 C99 0.929 . S
H112 C100 0.960 . S
H113 C100 0.962 . S
H114 C100 0.960 . S
H115 C101 0.961 . S
H116 C101 0.961 . S
H117 C101 0.961 . S
H118 C102 0.931 . S
H119 C107 0.930 . S
H120 C108 0.956 . S
H121 C108 0.961 . S
H122 C108 0.961 . S
H123 C109 0.958 . S
H124 C109 0.961 . S
H125 C109 0.960 . S
C126 C127 1.391 1_556 S
C126 C128 1.394 . S
C126 H142 0.931 . S
C127 C126 1.391 1_554 S
C127 C131 1.376 . S
C128 C126 1.394 . S
C128 C129 1.369 . S
C128 C132 1.531 . S
C129 C128 1.369 . S
C129 C130 1.410 1_556 S
C129 C137 1.503 . S
C130 C129 1.410 1_554 S
C130 C131 1.392 . S
C130 C133 1.511 . S
C131 C127 1.376 . S
C131 C130 1.392 . S
C131 H143 0.929 . S
C132 C128 1.531 . S
C132 H144 0.960 . S
C132 H145 0.962 . S
C132 H146 0.960 . S
C133 C130 1.511 . S
C133 H147 0.961 . S
C133 H148 0.961 . S
C133 H149 0.961 . S
C134 C135 1.370 1_554 S
C134 C136 1.363 . S
C134 H150 0.931 . S
C135 C134 1.370 1_556 S
C135 C139 1.408 . S
C136 C134 1.363 . S
C136 C137 1.370 1_554 S
C136 C140 1.524 . S
C137 C129 1.503 . S
C137 C136 1.370 1_556 S
C137 C138 1.403 . S
C138 C137 1.403 . S
C138 C139 1.404 . S
C138 C141 1.539 . S
C139 C135 1.408 . S
C139 C138 1.404 . S
C139 H151 0.930 . S
C140 C136 1.524 . S
C140 H152 0.956 . S
C140 H153 0.961 . S
C140 H154 0.961 . S
C141 C138 1.539 . S
C141 H155 0.958 . S
C141 H156 0.961 . S
C141 H157 0.960 . S
H142 C126 0.931 . S
H143 C131 0.929 . S
H144 C132 0.960 . S
H145 C132 0.962 . S
H146 C132 0.960 . S
H147 C133 0.961 . S
H148 C133 0.961 . S
H149 C133 0.961 . S
H150 C134 0.931 . S
H151 C139 0.930 . S
H152 C140 0.956 . S
H153 C140 0.961 . S
H154 C140 0.961 . S
H155 C141 0.958 . S
H156 C141 0.961 . S
H157 C141 0.960 . S
C158 C159 1.391 1_556 S
C158 C160 1.394 1_556 S
C158 H174 0.931 . S
C159 C158 1.391 1_554 S
C159 C163 1.376 . S
C160 C158 1.394 1_554 S
C160 C161 1.369 . S
C160 C164 1.531 1_554 S
C161 C160 1.369 . S
C161 C162 1.410 . S
C161 C169 1.503 . S
C162 C161 1.410 . S
C162 C163 1.392 . S
C162 C165 1.511 . S
C163 C159 1.376 . S
C163 C162 1.392 . S
C163 H175 0.929 . S
C164 C160 1.531 1_556 S
C164 H176 0.960 . S
C164 H177 0.962 . S
C164 H178 0.960 . S
C165 C162 1.511 . S
C165 H179 0.961 . S
C165 H180 0.961 . S
C165 H181 0.961 . S
C166 C167 1.370 . S
C166 C168 1.363 . S
C166 H182 0.931 . S
C167 C166 1.370 . S
C167 C171 1.408 . S
C168 C166 1.363 . S
C168 C169 1.370 . S
C168 C172 1.524 . S
C169 C161 1.503 . S
C169 C168 1.370 . S
C169 C170 1.403 . S
C170 C169 1.403 . S
C170 C171 1.404 . S
C170 C173 1.539 1_554 S
C171 C167 1.408 . S
C171 C170 1.404 . S
C171 H183 0.930 . S
C172 C168 1.524 . S
C172 H184 0.956 . S
C172 H185 0.961 . S
C172 H186 0.961 . S
C173 C170 1.539 1_556 S
C173 H187 0.958 . S
C173 H188 0.961 . S
C173 H189 0.960 . S
H174 C158 0.931 . S
H175 C163 0.929 . S
H176 C164 0.960 . S
H177 C164 0.962 . S
H178 C164 0.960 . S
H179 C165 0.961 . S
H180 C165 0.961 . S
H181 C165 0.961 . S
H182 C166 0.931 . S
H183 C171 0.930 . S
H184 C172 0.956 . S
H185 C172 0.961 . S
H186 C172 0.961 . S
H187 C173 0.958 . S
H188 C173 0.961 . S
H189 C173 0.960 . S
C190 C191 1.391 1_554 S
C190 C192 1.394 . S
C190 H206 0.931 . S
C191 C190 1.391 1_556 S
C191 C195 1.376 . S
C192 C190 1.394 . S
C192 C193 1.369 1_554 S
C192 C196 1.531 . S
C193 C192 1.369 1_556 S
C193 C194 1.410 . S
C193 C201 1.503 . S
C194 C193 1.410 . S
C194 C195 1.392 . S
C194 C197 1.511 . S
C195 C191 1.376 . S
C195 C194 1.392 . S
C195 H207 0.929 . S
C196 C192 1.531 . S
C196 H208 0.960 . S
C196 H209 0.962 . S
C196 H210 0.960 . S
C197 C194 1.511 . S
C197 H211 0.961 . S
C197 H212 0.961 . S
C197 H213 0.961 . S
C198 C199 1.370 . S
C198 C200 1.363 . S
C198 H214 0.931 . S
C199 C198 1.370 . S
C199 C203 1.408 1_556 S
C200 C198 1.363 . S
C200 C201 1.370 . S
C200 C204 1.524 . S
C201 C193 1.503 . S
C201 C200 1.370 . S
C201 C202 1.403 1_556 S
C202 C201 1.403 1_554 S
C202 C203 1.404 . S
C202 C205 1.539 . S
C203 C199 1.408 1_554 S
C203 C202 1.404 . S
C203 H215 0.930 . S
C204 C200 1.524 . S
C204 H216 0.956 . S
C204 H217 0.961 . S
C204 H218 0.961 . S
C205 C202 1.539 . S
C205 H219 0.958 . S
C205 H220 0.961 . S
C205 H221 0.960 . S
H206 C190 0.931 . S
H207 C195 0.929 . S
H208 C196 0.960 . S
H209 C196 0.962 . S
H210 C196 0.960 . S
H211 C197 0.961 . S
H212 C197 0.961 . S
H213 C197 0.961 . S
H214 C198 0.931 . S
H215 C203 0.930 . S
H216 C204 0.956 . S
H217 C204 0.961 . S
H218 C204 0.961 . S
H219 C205 0.958 . S
H220 C205 0.961 . S
H221 C205 0.960 . S
C222 C223 1.391 . S
C222 C224 1.394 . S
C222 H238 0.931 . S
C223 C222 1.391 . S
C223 C227 1.376 . S
C224 C222 1.394 . S
C224 C225 1.369 . S
C224 C228 1.531 . S
C225 C224 1.369 . S
C225 C226 1.410 . S
C225 C233 1.503 . S
C226 C225 1.410 . S
C226 C227 1.392 . S
C226 C229 1.511 . S
C227 C223 1.376 . S
C227 C226 1.392 . S
C227 H239 0.929 . S
C228 C224 1.531 . S
C228 H240 0.960 . S
C228 H241 0.962 . S
C228 H242 0.960 . S
C229 C226 1.511 . S
C229 H243 0.961 . S
C229 H244 0.961 . S
C229 H245 0.961 . S
C230 C231 1.370 . S
C230 C232 1.363 . S
C230 H246 0.931 . S
C231 C230 1.370 . S
C231 C235 1.408 . S
C232 C230 1.363 . S
C232 C233 1.370 . S
C232 C236 1.524 . S
C233 C225 1.503 . S
C233 C232 1.370 . S
C233 C234 1.403 . S
C234 C233 1.403 . S
C234 C235 1.404 . S
C234 C237 1.539 . S
C235 C231 1.408 . S
C235 C234 1.404 . S
C235 H247 0.930 . S
C236 C232 1.524 . S
C236 H248 0.956 . S
C236 H249 0.961 . S
C236 H250 0.961 . S
C237 C234 1.539 . S
C237 H251 0.958 . S
C237 H252 0.961 . S
C237 H253 0.960 . S
H238 C222 0.931 . S
H239 C227 0.929 . S
H240 C228 0.960 . S
H241 C228 0.962 . S
H242 C228 0.960 . S
H243 C229 0.961 . S
H244 C229 0.961 . S
H245 C229 0.961 . S
H246 C230 0.931 . S
H247 C235 0.930 . S
H248 C236 0.956 . S
H249 C236 0.961 . S
H250 C236 0.961 . S
H251 C237 0.958 . S
H252 C237 0.961 . S
H253 C237 0.960 . S
C254 C255 1.391 . S
C254 C256 1.394 . S
C254 H270 0.931 . S
C255 C254 1.391 . S
C255 C259 1.376 . S
C256 C254 1.394 . S
C256 C257 1.369 . S
C256 C260 1.531 . S
C257 C256 1.369 . S
C257 C258 1.410 . S
C257 C265 1.503 . S
C258 C257 1.410 . S
C258 C259 1.392 . S
C258 C261 1.511 . S
C259 C255 1.376 . S
C259 C258 1.392 . S
C259 H271 0.929 . S
C260 C256 1.531 . S
C260 H272 0.960 . S
C260 H273 0.962 . S
C260 H274 0.960 . S
C261 C258 1.511 . S
C261 H275 0.961 . S
C261 H276 0.961 . S
C261 H277 0.961 . S
C262 C263 1.370 . S
C262 C264 1.363 . S
C262 H278 0.931 . S
C263 C262 1.370 . S
C263 C267 1.408 . S
C264 C262 1.363 . S
C264 C265 1.370 . S
C264 C268 1.524 . S
C265 C257 1.503 . S
C265 C264 1.370 . S
C265 C266 1.403 . S
C266 C265 1.403 . S
C266 C267 1.404 . S
C266 C269 1.539 . S
C267 C263 1.408 . S
C267 C266 1.404 . S
C267 H279 0.930 . S
C268 C264 1.524 . S
C268 H280 0.956 . S
C268 H281 0.961 . S
C268 H282 0.961 . S
C269 C266 1.539 . S
C269 H283 0.958 . S
C269 H284 0.961 . S
C269 H285 0.960 . S
H270 C254 0.931 . S
H271 C259 0.929 . S
H272 C260 0.960 . S
H273 C260 0.962 . S
H274 C260 0.960 . S
H275 C261 0.961 . S
H276 C261 0.961 . S
H277 C261 0.961 . S
H278 C262 0.931 . S
H279 C267 0.930 . S
H280 C268 0.956 . S
H281 C268 0.961 . S
H282 C268 0.961 . S
H283 C269 0.958 . S
H284 C269 0.961 . S
H285 C269 0.960 . S
C286 C287 1.391 . S
C286 C288 1.394 . S
C286 H302 0.931 . S
C287 C286 1.391 . S
C287 C291 1.376 . S
C288 C286 1.394 . S
C288 C289 1.369 . S
C288 C292 1.531 . S
C289 C288 1.369 . S
C289 C290 1.410 . S
C289 C297 1.503 . S
C290 C289 1.410 . S
C290 C291 1.392 . S
C290 C293 1.511 . S
C291 C287 1.376 . S
C291 C290 1.392 . S
C291 H303 0.929 . S
C292 C288 1.531 . S
C292 H304 0.960 . S
C292 H305 0.962 . S
C292 H306 0.960 . S
C293 C290 1.511 . S
C293 H307 0.961 . S
C293 H308 0.961 . S
C293 H309 0.961 . S
C294 C295 1.370 . S
C294 C296 1.363 . S
C294 H310 0.931 . S
C295 C294 1.370 . S
C295 C299 1.408 . S
C296 C294 1.363 . S
C296 C297 1.370 . S
C296 C300 1.524 . S
C297 C289 1.503 . S
C297 C296 1.370 . S
C297 C298 1.403 . S
C298 C297 1.403 . S
C298 C299 1.404 . S
C298 C301 1.539 . S
C299 C295 1.408 . S
C299 C298 1.404 . S
C299 H311 0.930 . S
C300 C296 1.524 . S
C300 H312 0.956 . S
C300 H313 0.961 . S
C300 H314 0.961 . S
C301 C298 1.539 . S
C301 H315 0.958 . S
C301 H316 0.961 . S
C301 H317 0.960 . S
H302 C286 0.931 . S
H303 C291 0.929 . S
H304 C292 0.960 . S
H305 C292 0.962 . S
H306 C292 0.960 . S
H307 C293 0.961 . S
H308 C293 0.961 . S
H309 C293 0.961 . S
H310 C294 0.931 . S
H311 C299 0.930 . S
H312 C300 0.956 . S
H313 C300 0.961 . S
H314 C300 0.961 . S
H315 C301 0.958 . S
H316 C301 0.961 . S
H317 C301 0.960 . S
C318 C319 1.391 . S
C318 C320 1.394 . S
C318 H334 0.931 . S
C319 C318 1.391 . S
C319 C323 1.376 . S
C320 C318 1.394 . S
C320 C321 1.369 . S
C320 C324 1.531 . S
C321 C320 1.369 . S
C321 C322 1.410 . S
C321 C329 1.503 . S
C322 C321 1.410 . S
C322 C323 1.392 . S
C322 C325 1.511 . S
C323 C319 1.376 . S
C323 C322 1.392 . S
C323 H335 0.929 . S
C324 C320 1.531 . S
C324 H336 0.960 . S
C324 H337 0.962 . S
C324 H338 0.960 . S
C325 C322 1.511 . S
C325 H339 0.961 . S
C325 H340 0.961 . S
C325 H341 0.961 . S
C326 C327 1.370 . S
C326 C328 1.363 . S
C326 H342 0.931 . S
C327 C326 1.370 . S
C327 C331 1.408 . S
C328 C326 1.363 . S
C328 C329 1.370 . S
C328 C332 1.524 . S
C329 C321 1.503 . S
C329 C328 1.370 . S
C329 C330 1.403 . S
C330 C329 1.403 . S
C330 C331 1.404 . S
C330 C333 1.539 . S
C331 C327 1.408 . S
C331 C330 1.404 . S
C331 H343 0.930 . S
C332 C328 1.524 . S
C332 H344 0.956 . S
C332 H345 0.961 . S
C332 H346 0.961 . S
C333 C330 1.539 . S
C333 H347 0.958 . S
C333 H348 0.961 . S
C333 H349 0.960 . S
H334 C318 0.931 . S
H335 C323 0.929 . S
H336 C324 0.960 . S
H337 C324 0.962 . S
H338 C324 0.960 . S
H339 C325 0.961 . S
H340 C325 0.961 . S
H341 C325 0.961 . S
H342 C326 0.931 . S
H343 C331 0.930 . S
H344 C332 0.956 . S
H345 C332 0.961 . S
H346 C332 0.961 . S
H347 C333 0.958 . S
H348 C333 0.961 . S
H349 C333 0.960 . S
C350 C351 1.391 . S
C350 C352 1.394 . S
C350 H366 0.931 . S
C351 C350 1.391 . S
C351 C355 1.387 . S
C352 C350 1.394 . S
C352 C353 1.369 . S
C352 C356 1.531 . S
C353 C352 1.369 . S
C353 C354 1.410 1_455 S
C353 C361 1.503 . S
C354 C353 1.410 1_655 S
C354 C355 1.392 1_655 S
C354 C357 1.511 . S
C355 C351 1.387 . S
C355 C354 1.392 1_455 S
C355 H367 0.918 1_455 S
C356 C352 1.531 . S
C356 H368 0.960 . S
C356 H369 0.962 1_545 S
C356 H370 0.960 . S
C357 C354 1.511 . S
C357 H371 0.961 1_545 S
C357 H372 0.961 1_545 S
C357 H373 0.961 . S
C358 C359 1.370 . S
C358 C360 1.363 . S
C358 H374 0.931 . S
C359 C358 1.370 . S
C359 C363 1.408 1_565 S
C360 C358 1.363 . S
C360 C361 1.370 1_565 S
C360 C364 1.524 . S
C361 C353 1.503 . S
C361 C360 1.370 1_545 S
C361 C362 1.403 . S
C362 C361 1.403 . S
C362 C363 1.404 . S
C362 C365 1.539 . S
C363 C359 1.408 1_545 S
C363 C362 1.404 . S
C363 H375 0.930 . S
C364 C360 1.524 . S
C364 H376 0.956 . S
C364 H377 0.961 . S
C364 H378 0.961 . S
C365 C362 1.539 . S
C365 H379 0.958 . S
C365 H380 0.961 . S
C365 H381 0.960 . S
H366 C350 0.931 . S
H367 C355 0.918 1_655 S
H368 C356 0.960 . S
H369 C356 0.962 1_565 S
H370 C356 0.960 . S
H371 C357 0.961 1_565 S
H372 C357 0.961 1_565 S
H373 C357 0.961 . S
H374 C358 0.931 . S
H375 C363 0.930 . S
H376 C364 0.956 . S
H377 C364 0.961 . S
H378 C364 0.961 . S
H379 C365 0.958 . S
H380 C365 0.961 . S
H381 C365 0.960 . S
C382 C383 1.391 . S
C382 C384 1.394 . S
C382 H398 0.931 . S
C383 C382 1.391 . S
C383 C387 1.376 1_455 S
C384 C382 1.394 . S
C384 C385 1.369 . S
C384 C388 1.531 . S
C385 C384 1.369 . S
C385 C386 1.410 1_455 S
C385 C393 1.503 . S
C386 C385 1.410 1_655 S
C386 C387 1.392 . S
C386 C389 1.511 . S
C387 C383 1.376 1_655 S
C387 C386 1.392 . S
C387 H399 0.929 . S
C388 C384 1.531 . S
C388 H400 0.960 . S
C388 H401 0.962 . S
C388 H402 0.960 1_545 S
C389 C386 1.511 . S
C389 H403 0.961 . S
C389 H404 0.961 . S
C389 H405 0.961 . S
C390 C391 1.370 . S
C390 C392 1.363 . S
C390 H406 0.931 . S
C391 C390 1.370 . S
C391 C395 1.408 1_455 S
C392 C390 1.363 . S
C392 C393 1.370 . S
C392 C396 1.524 . S
C393 C385 1.503 . S
C393 C392 1.370 . S
C393 C394 1.399 1_455 S
C394 C393 1.399 1_655 S
C394 C395 1.405 . S
C394 C397 1.543 1_545 S
C395 C391 1.408 1_655 S
C395 C394 1.405 . S
C395 H407 0.930 . S
C396 C392 1.524 . S
C396 H408 0.956 . S
C396 H409 0.961 . S
C396 H410 0.961 . S
C397 C394 1.543 1_565 S
C397 H411 0.958 1_655 S
C397 H412 0.961 . S
C397 H413 0.960 . S
H398 C382 0.931 . S
H399 C387 0.929 . S
H400 C388 0.960 . S
H401 C388 0.962 . S
H402 C388 0.960 1_565 S
H403 C389 0.961 . S
H404 C389 0.961 . S
H405 C389 0.961 . S
H406 C390 0.931 . S
H407 C395 0.930 . S
H408 C396 0.956 . S
H409 C396 0.961 . S
H410 C396 0.961 . S
H411 C397 0.958 1_455 S
H412 C397 0.961 . S
H413 C397 0.960 . S
C414 C415 1.391 . S
C414 C416 1.394 . S
C414 H430 0.931 . S
C415 C414 1.391 . S
C415 C419 1.376 . S
C416 C414 1.394 . S
C416 C417 1.369 . S
C416 C420 1.531 . S
C417 C416 1.369 . S
C417 C418 1.410 . S
C417 C425 1.503 . S
C418 C417 1.410 . S
C418 C419 1.392 . S
C418 C421 1.511 . S
C419 C415 1.376 . S
C419 C418 1.392 . S
C419 H431 0.929 . S
C420 C416 1.531 . S
C420 H432 0.960 . S
C420 H433 0.962 . S
C420 H434 0.960 . S
C421 C418 1.511 . S
C421 H435 0.961 . S
C421 H436 0.961 . S
C421 H437 0.961 . S
C422 C423 1.370 . S
C422 C424 1.363 . S
C422 H438 0.931 . S
C423 C422 1.370 . S
C423 C427 1.408 . S
C424 C422 1.363 . S
C424 C425 1.370 . S
C424 C428 1.524 . S
C425 C417 1.503 . S
C425 C424 1.370 . S
C425 C426 1.403 . S
C426 C425 1.403 . S
C426 C427 1.404 . S
C426 C429 1.539 . S
C427 C423 1.408 . S
C427 C426 1.404 . S
C427 H439 0.930 . S
C428 C424 1.524 . S
C428 H440 0.956 . S
C428 H441 0.961 . S
C428 H442 0.961 . S
C429 C426 1.539 . S
C429 H443 0.958 . S
C429 H444 0.961 . S
C429 H445 0.960 . S
H430 C414 0.931 . S
H431 C419 0.929 . S
H432 C420 0.960 . S
H433 C420 0.962 . S
H434 C420 0.960 . S
H435 C421 0.961 . S
H436 C421 0.961 . S
H437 C421 0.961 . S
H438 C422 0.931 . S
H439 C427 0.930 . S
H440 C428 0.956 . S
H441 C428 0.961 . S
H442 C428 0.961 . S
H443 C429 0.958 . S
H444 C429 0.961 . S
H445 C429 0.960 . S
C446 C447 1.391 . S
C446 C448 1.394 . S
C446 H462 0.931 . S
C447 C446 1.391 . S
C447 C451 1.376 . S
C448 C446 1.394 . S
C448 C449 1.369 . S
C448 C452 1.531 . S
C449 C448 1.369 . S
C449 C450 1.410 . S
C449 C457 1.503 . S
C450 C449 1.410 . S
C450 C451 1.392 . S
C450 C453 1.511 . S
C451 C447 1.376 . S
C451 C450 1.392 . S
C451 H463 0.929 . S
C452 C448 1.531 . S
C452 H464 0.960 . S
C452 H465 0.962 . S
C452 H466 0.960 . S
C453 C450 1.511 . S
C453 H467 0.961 . S
C453 H468 0.961 . S
C453 H469 0.961 . S
C454 C455 1.370 . S
C454 C456 1.363 . S
C454 H470 0.931 . S
C455 C454 1.370 . S
C455 C459 1.408 . S
C456 C454 1.363 . S
C456 C457 1.370 . S
C456 C460 1.524 . S
C457 C449 1.503 . S
C457 C456 1.370 . S
C457 C458 1.403 . S
C458 C457 1.403 . S
C458 C459 1.404 . S
C458 C461 1.539 . S
C459 C455 1.408 . S
C459 C458 1.404 . S
C459 H471 0.930 . S
C460 C456 1.524 . S
C460 H472 0.956 . S
C460 H473 0.961 . S
C460 H474 0.961 . S
C461 C458 1.539 . S
C461 H475 0.958 . S
C461 H476 0.961 . S
C461 H477 0.960 . S
H462 C446 0.931 . S
H463 C451 0.929 . S
H464 C452 0.960 . S
H465 C452 0.962 . S
H466 C452 0.960 . S
H467 C453 0.961 . S
H468 C453 0.961 . S
H469 C453 0.961 . S
H470 C454 0.931 . S
H471 C459 0.930 . S
H472 C460 0.956 . S
H473 C460 0.961 . S
H474 C460 0.961 . S
H475 C461 0.958 . S
H476 C461 0.961 . S
H477 C461 0.960 . S
C103 C85 1.321 . S
C95 C15 1.309 . S
C127 C13 1.449 . S
C135 C72 1.332 . S
C159 C18 1.325 . S
C167 C89 1.542 . S
C191 C17 1.440 . S
C199 C76 1.481 . S
C223 C36 1.228 . S
C231 C59 1.292 1_565 S
C255 C34 1.447 . S
C263 C46 1.358 . S
C295 C63 1.547 . S
C287 C39 1.267 . S
C327 C50 1.473 . S
C319 C38 1.448 . S
C351 C14 1.532 . S
C359 C51 1.617 . S
C383 C16 1.388 . S
C391 C64 1.470 . S
C423 C77 1.617 . S
C415 C35 1.545 . S
C447 C37 1.402 . S
C455 C90 1.469 . S
