# Generated by pormake.
# Topology ssb, (4,4)-cn, num edge types: 1
# Building blocks:
#     Node 0, Type 0, BuildingBlock: NAHDIM_clean_linker_0, # of connection points: 4
#     Node 1, Type 0, BuildingBlock: NAHDIM_clean_linker_0, # of connection points: 4
#     Node 2, Type 0, BuildingBlock: NAHDIM_clean_linker_0, # of connection points: 4
#     Node 3, Type 0, BuildingBlock: NAHDIM_clean_linker_0, # of connection points: 4
#     Node 4, Type 0, BuildingBlock: NAHDIM_clean_linker_0, # of connection points: 4
#     Node 5, Type 0, BuildingBlock: NAHDIM_clean_linker_0, # of connection points: 4
#     Node 6, Type 0, BuildingBlock: NAHDIM_clean_linker_0, # of connection points: 4
#     Node 7, Type 0, BuildingBlock: NAHDIM_clean_linker_0, # of connection points: 4
#     Node 8, Type 1, BuildingBlock: KOZSID_clean_sbu_0, # of connection points: 4
#     Node 9, Type 1, BuildingBlock: KOZSID_clean_sbu_0, # of connection points: 4
#     Node 10, Type 1, BuildingBlock: KOZSID_clean_sbu_0, # of connection points: 4
#     Node 11, Type 1, BuildingBlock: KOZSID_clean_sbu_0, # of connection points: 4
#     Node 12, Type 1, BuildingBlock: KOZSID_clean_sbu_0, # of connection points: 4
#     Node 13, Type 1, BuildingBlock: KOZSID_clean_sbu_0, # of connection points: 4
#     Node 14, Type 1, BuildingBlock: KOZSID_clean_sbu_0, # of connection points: 4
#     Node 15, Type 1, BuildingBlock: KOZSID_clean_sbu_0, # of connection points: 4
#     Edge 16, Type (0, 1), BuildingBlock: UVAHIK_clean_linker_0, # of connection points: 2
#     Edge 17, Type (0, 1), BuildingBlock: UVAHIK_clean_linker_0, # of connection points: 2
#     Edge 18, Type (0, 1), BuildingBlock: UVAHIK_clean_linker_0, # of connection points: 2
#     Edge 19, Type (0, 1), BuildingBlock: UVAHIK_clean_linker_0, # of connection points: 2
#     Edge 20, Type (0, 1), BuildingBlock: UVAHIK_clean_linker_0, # of connection points: 2
#     Edge 21, Type (0, 1), BuildingBlock: UVAHIK_clean_linker_0, # of connection points: 2
#     Edge 22, Type (0, 1), BuildingBlock: UVAHIK_clean_linker_0, # of connection points: 2
#     Edge 23, Type (0, 1), BuildingBlock: UVAHIK_clean_linker_0, # of connection points: 2
#     Edge 24, Type (0, 1), BuildingBlock: UVAHIK_clean_linker_0, # of connection points: 2
#     Edge 25, Type (0, 1), BuildingBlock: UVAHIK_clean_linker_0, # of connection points: 2
#     Edge 26, Type (0, 1), BuildingBlock: UVAHIK_clean_linker_0, # of connection points: 2
#     Edge 27, Type (0, 1), BuildingBlock: UVAHIK_clean_linker_0, # of connection points: 2
#     Edge 28, Type (0, 1), BuildingBlock: UVAHIK_clean_linker_0, # of connection points: 2
#     Edge 29, Type (0, 1), BuildingBlock: UVAHIK_clean_linker_0, # of connection points: 2
#     Edge 30, Type (0, 1), BuildingBlock: UVAHIK_clean_linker_0, # of connection points: 2
#     Edge 31, Type (0, 1), BuildingBlock: UVAHIK_clean_linker_0, # of connection points: 2
#     Edge 32, Type (0, 1), BuildingBlock: UVAHIK_clean_linker_0, # of connection points: 2
#     Edge 33, Type (0, 1), BuildingBlock: UVAHIK_clean_linker_0, # of connection points: 2
#     Edge 34, Type (0, 1), BuildingBlock: UVAHIK_clean_linker_0, # of connection points: 2
#     Edge 35, Type (0, 1), BuildingBlock: UVAHIK_clean_linker_0, # of connection points: 2
#     Edge 36, Type (0, 1), BuildingBlock: UVAHIK_clean_linker_0, # of connection points: 2
#     Edge 37, Type (0, 1), BuildingBlock: UVAHIK_clean_linker_0, # of connection points: 2
#     Edge 38, Type (0, 1), BuildingBlock: UVAHIK_clean_linker_0, # of connection points: 2
#     Edge 39, Type (0, 1), BuildingBlock: UVAHIK_clean_linker_0, # of connection points: 2
#     Edge 40, Type (0, 1), BuildingBlock: UVAHIK_clean_linker_0, # of connection points: 2
#     Edge 41, Type (0, 1), BuildingBlock: UVAHIK_clean_linker_0, # of connection points: 2
#     Edge 42, Type (0, 1), BuildingBlock: UVAHIK_clean_linker_0, # of connection points: 2
#     Edge 43, Type (0, 1), BuildingBlock: UVAHIK_clean_linker_0, # of connection points: 2
#     Edge 44, Type (0, 1), BuildingBlock: UVAHIK_clean_linker_0, # of connection points: 2
#     Edge 45, Type (0, 1), BuildingBlock: UVAHIK_clean_linker_0, # of connection points: 2
#     Edge 46, Type (0, 1), BuildingBlock: UVAHIK_clean_linker_0, # of connection points: 2
#     Edge 47, Type (0, 1), BuildingBlock: UVAHIK_clean_linker_0, # of connection points: 2
# Relax obj value: 0.004
# Max RMSD: 0.050
# Mean RMSD: 0.032
data_MOF--net-ssb--node1-KOZSID_clean_sbu_0--node2-NAHDIM_clean_linker_0--edge1-UVAHIK_clean_linker_0
_symmetry_space_group_name_H-M    P1
_symmetry_Int_Tables_number       1
_symmetry_cell_setting            triclinic
loop_
_symmetry_equiv_pos_as_xyz
'x, y, z'
_cell_length_a     86.150844
_cell_length_b     86.09984
_cell_length_c     62.886996
_cell_angle_alpha  91.646765
_cell_angle_beta   93.389297
_cell_angle_gamma 90.024354
loop_
_atom_site_label
_atom_site_type_symbol
_atom_site_fract_x
_atom_site_fract_y
_atom_site_fract_z
_atom_type_partial_charge
C0 C 0.30148 0.15842 0.32095 0.0
C1 C 0.29755 0.16609 0.34226 0.0
C2 C 0.28223 0.18807 0.33085 0.0
C3 C 0.29006 0.20103 0.34017 0.0
C4 C 0.28968 0.21533 0.32997 0.0
C5 C 0.28147 0.21654 0.3099 0.0
C6 C 0.27316 0.20354 0.30081 0.0
C7 C 0.27342 0.1895 0.31165 0.0
C8 C 0.29841 0.229 0.34037 0.0
C9 C 0.26451 0.20427 0.27928 0.0
C10 C 0.37909 0.23244 0.25281 0.0
C11 C 0.36519 0.23226 0.2365 0.0
C12 C 0.34251 0.24669 0.24643 0.0
C13 C 0.33029 0.23769 0.23702 0.0
C14 C 0.3156 0.23797 0.24551 0.0
C15 C 0.31326 0.24723 0.26402 0.0
C16 C 0.32554 0.25662 0.27322 0.0
C17 C 0.33996 0.25645 0.26397 0.0
C18 C 0.3027 0.22807 0.23501 0.0
C19 C 0.32361 0.26637 0.29321 0.0
C20 C 0.25428 0.33189 0.23009 0.0
C21 C 0.24949 0.3177 0.2203 0.0
C22 C 0.24819 0.30434 0.23235 0.0
C23 C 0.25183 0.30522 0.25461 0.0
C24 C 0.25634 0.31961 0.26454 0.0
C25 C 0.25731 0.33283 0.25214 0.0
C26 C 0.24282 0.28931 0.22136 0.0
C27 C 0.2602 0.321 0.28824 0.0
C28 C 0.17334 0.23758 0.34619 0.0
C29 C 0.17943 0.25426 0.3485 0.0
C30 C 0.19255 0.26556 0.31929 0.0
C31 C 0.19381 0.26257 0.29755 0.0
C32 C 0.20738 0.2664 0.28762 0.0
C33 C 0.2198 0.27374 0.29977 0.0
C34 C 0.21812 0.27785 0.32146 0.0
C35 C 0.20449 0.27366 0.33105 0.0
C36 C 0.20868 0.26211 0.26436 0.0
C37 C 0.23092 0.28621 0.33461 0.0
C38 C 0.28275 0.23094 0.29763 0.0
C39 C 0.29634 0.23305 0.287 0.0
C40 C 0.29843 0.24607 0.27473 0.0
C41 C 0.28662 0.25742 0.27287 0.0
C42 C 0.28823 0.27059 0.26045 0.0
C43 C 0.27656 0.28175 0.25888 0.0
C44 C 0.26271 0.28004 0.26936 0.0
C45 C 0.25064 0.29116 0.26756 0.0
C46 C 0.23695 0.28896 0.27796 0.0
C47 C 0.23493 0.27591 0.2902 0.0
C48 C 0.24692 0.26475 0.29242 0.0
C49 C 0.24529 0.25154 0.30479 0.0
C50 C 0.25709 0.24057 0.30678 0.0
C51 C 0.27085 0.24223 0.29615 0.0
C52 C 0.27279 0.25549 0.28367 0.0
C53 C 0.26082 0.2668 0.28187 0.0
C54 C 0.27977 0.35196 0.20528 0.0
C55 C 0.26324 0.34592 0.20004 0.0
O56 O 0.28354 0.17395 0.33979 0.0
O57 O 0.17972 0.26043 0.32841 0.0
O58 O 0.25562 0.34495 0.21877 0.0
O59 O 0.35692 0.24594 0.23901 0.0
H60 H 0.30705 0.17443 0.34734 0.0
H61 H 0.30278 0.16742 0.30887 0.0
H62 H 0.2921 0.15024 0.31505 0.0
H63 H 0.31263 0.15197 0.32276 0.0
H64 H 0.2966 0.19988 0.35529 0.0
H65 H 0.26736 0.17937 0.30471 0.0
H66 H 0.30889 0.23133 0.3315 0.0
H67 H 0.30218 0.22687 0.35724 0.0
H68 H 0.29104 0.23958 0.33978 0.0
H69 H 0.25963 0.19281 0.27374 0.0
H70 H 0.2724 0.2084 0.26728 0.0
H71 H 0.25482 0.21271 0.28008 0.0
H72 H 0.35788 0.22199 0.2397 0.0
H73 H 0.38574 0.22142 0.25169 0.0
H74 H 0.37494 0.23366 0.26917 0.0
H75 H 0.38695 0.24234 0.25014 0.0
H76 H 0.33231 0.23041 0.22311 0.0
H77 H 0.34953 0.26343 0.27094 0.0
H78 H 0.30049 0.21808 0.24519 0.0
H79 H 0.30563 0.22349 0.21905 0.0
H80 H 0.29177 0.23489 0.23329 0.0
H81 H 0.33468 0.27198 0.29931 0.0
H82 H 0.31925 0.25908 0.30587 0.0
H83 H 0.31488 0.2756 0.28993 0.0
H84 H 0.2642 0.33427 0.1921 0.0
H85 H 0.2465 0.31712 0.20333 0.0
H86 H 0.26075 0.34392 0.25955 0.0
H87 H 0.25229 0.28058 0.2227 0.0
H88 H 0.23946 0.29078 0.20421 0.0
H89 H 0.23272 0.28459 0.22928 0.0
H90 H 0.26447 0.33278 0.29332 0.0
H91 H 0.26921 0.31234 0.29299 0.0
H92 H 0.24967 0.31841 0.29689 0.0
H93 H 0.19136 0.25366 0.3563 0.0
H94 H 0.17317 0.23224 0.36206 0.0
H95 H 0.18107 0.23052 0.3362 0.0
H96 H 0.16139 0.2373 0.33848 0.0
H97 H 0.18435 0.25661 0.28856 0.0
H98 H 0.20321 0.27662 0.34771 0.0
H99 H 0.21868 0.25414 0.2625 0.0
H100 H 0.21094 0.2727 0.25537 0.0
H101 H 0.19798 0.25637 0.25718 0.0
H102 H 0.22712 0.29019 0.35044 0.0
H103 H 0.23494 0.29642 0.32602 0.0
H104 H 0.24099 0.2783 0.33709 0.0
H105 H 0.30545 0.22435 0.28823 0.0
H106 H 0.29857 0.27242 0.25184 0.0
H107 H 0.2785 0.2917 0.24922 0.0
H108 H 0.22766 0.29742 0.2763 0.0
H109 H 0.23488 0.24952 0.31315 0.0
H110 H 0.25524 0.23071 0.31662 0.0
H111 H 0.27953 0.36364 0.21325 0.0
H112 H 0.28618 0.3527 0.19052 0.0
H113 H 0.28615 0.34388 0.21614 0.0
C114 C 0.69008 0.19438 0.1479 0.0
C115 C 0.68173 0.20676 0.16095 0.0
C116 C 0.69989 0.22434 0.17934 0.0
C117 C 0.69451 0.23379 0.19575 0.0
C118 C 0.70407 0.23723 0.21414 0.0
C119 C 0.71928 0.231 0.216 0.0
C120 C 0.72483 0.22171 0.19913 0.0
C121 C 0.71507 0.21861 0.18085 0.0
C122 C 0.69785 0.24726 0.23175 0.0
C123 C 0.74095 0.21481 0.2006 0.0
C124 C 0.74095 0.15062 0.34589 0.0
C125 C 0.74464 0.16203 0.32964 0.0
C126 C 0.73477 0.18572 0.31336 0.0
C127 C 0.74707 0.18708 0.29978 0.0
C128 C 0.74772 0.19947 0.28591 0.0
C129 C 0.73613 0.21112 0.28611 0.0
C130 C 0.72386 0.20997 0.29998 0.0
C131 C 0.72328 0.19718 0.31331 0.0
C132 C 0.76077 0.19995 0.27088 0.0
C133 C 0.71139 0.22223 0.3007 0.0
C134 C 0.81395 0.27085 0.338 0.0
C135 C 0.8184 0.26259 0.31974 0.0
C136 C 0.80884 0.26233 0.30087 0.0
C137 C 0.79485 0.27097 0.29999 0.0
C138 C 0.79085 0.28006 0.31793 0.0
C139 C 0.80046 0.27985 0.33673 0.0
C140 C 0.81369 0.25275 0.28193 0.0
C141 C 0.77622 0.2897 0.31739 0.0
C142 C 0.78321 0.30109 0.13233 0.0
C143 C 0.78047 0.31027 0.15294 0.0
C144 C 0.78914 0.30061 0.1875 0.0
C145 C 0.79776 0.28786 0.19451 0.0
C146 C 0.79442 0.28055 0.21333 0.0
C147 C 0.78255 0.28662 0.22582 0.0
C148 C 0.77457 0.30027 0.21955 0.0
C149 C 0.77781 0.30702 0.20024 0.0
C150 C 0.80337 0.26615 0.21954 0.0
C151 C 0.7623 0.30741 0.23289 0.0
C152 C 0.72909 0.23351 0.236 0.0
C153 C 0.72731 0.22315 0.25239 0.0
C154 C 0.73674 0.22415 0.27123 0.0
C155 C 0.74788 0.23619 0.27426 0.0
C156 C 0.75714 0.23789 0.29335 0.0
C157 C 0.76882 0.24907 0.29564 0.0
C158 C 0.77169 0.259 0.27892 0.0
C159 C 0.78407 0.26986 0.28068 0.0
C160 C 0.78695 0.27915 0.26346 0.0
C161 C 0.77775 0.27793 0.2444 0.0
C162 C 0.76508 0.2674 0.24253 0.0
C163 C 0.75551 0.26593 0.22364 0.0
C164 C 0.7434 0.25519 0.2217 0.0
C165 C 0.7407 0.24515 0.23831 0.0
C166 C 0.75011 0.24651 0.25755 0.0
C167 C 0.76217 0.25779 0.25977 0.0
C168 C 0.82555 0.25169 0.38374 0.0
C169 C 0.83226 0.25902 0.36437 0.0
O170 O 0.69025 0.22043 0.16227 0.0
O171 O 0.79189 0.30638 0.16828 0.0
O172 O 0.82234 0.27063 0.357 0.0
O173 O 0.73355 0.17356 0.32652 0.0
H174 H 0.68062 0.20217 0.17721 0.0
H175 H 0.70114 0.19104 0.15648 0.0
H176 H 0.69273 0.1988 0.13209 0.0
H177 H 0.68275 0.18377 0.14554 0.0
H178 H 0.68273 0.2382 0.19425 0.0
H179 H 0.71917 0.2115 0.16785 0.0
H180 H 0.69694 0.24027 0.24619 0.0
H181 H 0.68621 0.25212 0.22723 0.0
H182 H 0.70603 0.25699 0.23599 0.0
H183 H 0.74333 0.20748 0.18634 0.0
H184 H 0.7424 0.20761 0.21494 0.0
H185 H 0.74975 0.22425 0.20234 0.0
H186 H 0.74835 0.15659 0.31445 0.0
H187 H 0.73945 0.13918 0.33687 0.0
H188 H 0.72819 0.152 0.34859 0.0
H189 H 0.75842 0.15442 0.37007 0.0
H190 H 0.75618 0.17845 0.29968 0.0
H191 H 0.71385 0.1961 0.32385 0.0
H192 H 0.76916 0.2092 0.27638 0.0
H193 H 0.7562 0.20271 0.25455 0.0
H194 H 0.76716 0.18877 0.27012 0.0
H195 H 0.70364 0.22055 0.31395 0.0
H196 H 0.70421 0.22183 0.28544 0.0
H197 H 0.71676 0.23396 0.30253 0.0
H198 H 0.83314 0.24935 0.35244 0.0
H199 H 0.82931 0.25639 0.31995 0.0
H200 H 0.7973 0.28647 0.35073 0.0
H201 H 0.8039 0.24536 0.27529 0.0
H202 H 0.82379 0.24516 0.28603 0.0
H203 H 0.81694 0.26065 0.26932 0.0
H204 H 0.77547 0.29722 0.33195 0.0
H205 H 0.76592 0.2819 0.31594 0.0
H206 H 0.7757 0.29713 0.30322 0.0
H207 H 0.76875 0.30689 0.15791 0.0
H208 H 0.77403 0.30375 0.11981 0.0
H209 H 0.78282 0.28844 0.13526 0.0
H210 H 0.79476 0.30396 0.12648 0.0
H211 H 0.80667 0.28322 0.18465 0.0
H212 H 0.77149 0.31724 0.19502 0.0
H213 H 0.79533 0.25675 0.2236 0.0
H214 H 0.8111 0.26893 0.23387 0.0
H215 H 0.81067 0.26177 0.20668 0.0
H216 H 0.75896 0.31922 0.22763 0.0
H217 H 0.76653 0.30815 0.24992 0.0
H218 H 0.75177 0.29994 0.23168 0.0
H219 H 0.71891 0.21377 0.25006 0.0
H220 H 0.75555 0.23046 0.30666 0.0
H221 H 0.77571 0.24966 0.3106 0.0
H222 H 0.79676 0.28711 0.26469 0.0
H223 H 0.75726 0.27304 0.21006 0.0
H224 H 0.73641 0.25462 0.20681 0.0
H225 H 0.83361 0.24273 0.39036 0.0
H226 H 0.81428 0.24598 0.37888 0.0
H227 H 0.82347 0.26059 0.39638 0.0
C228 C 0.75076 0.85429 0.3195 0.0
C229 C 0.73389 0.85107 0.3248 0.0
C230 C 0.7303 0.82275 0.32064 0.0
C231 C 0.72698 0.80928 0.3314 0.0
C232 C 0.72458 0.79498 0.3204 0.0
C233 C 0.72597 0.79408 0.29809 0.0
C234 C 0.72942 0.80764 0.28707 0.0
C235 C 0.73138 0.82185 0.2984 0.0
C236 C 0.7206 0.78083 0.33262 0.0
C237 C 0.7311 0.8071 0.26329 0.0
C238 C 0.63921 0.72981 0.19638 0.0
C239 C 0.64827 0.74503 0.19515 0.0
C240 C 0.6638 0.75484 0.22648 0.0
C241 C 0.67667 0.76059 0.21649 0.0
C242 C 0.6908 0.76354 0.22821 0.0
C243 C 0.69206 0.76049 0.25027 0.0
C244 C 0.67892 0.75521 0.26045 0.0
C245 C 0.66488 0.75265 0.24842 0.0
C246 C 0.7044 0.76978 0.217 0.0
C247 C 0.6798 0.75198 0.28395 0.0
C248 C 0.75444 0.68164 0.20901 0.0
C249 C 0.75581 0.69715 0.20291 0.0
C250 C 0.75656 0.70937 0.21817 0.0
C251 C 0.75535 0.70611 0.23995 0.0
C252 C 0.75366 0.69057 0.24613 0.0
C253 C 0.75336 0.67853 0.23057 0.0
C254 C 0.75873 0.72577 0.21093 0.0
C255 C 0.75217 0.68668 0.26916 0.0
C256 C 0.83687 0.7719 0.34738 0.0
C257 C 0.83156 0.75494 0.34635 0.0
C258 C 0.81621 0.7453 0.31468 0.0
C259 C 0.81393 0.74862 0.29313 0.0
C260 C 0.79987 0.74493 0.28174 0.0
C261 C 0.78795 0.73746 0.29217 0.0
C262 C 0.79056 0.73321 0.31365 0.0
C263 C 0.80471 0.73714 0.32471 0.0
C264 C 0.79757 0.74938 0.25873 0.0
C265 C 0.77826 0.72478 0.325 0.0
C266 C 0.72391 0.77899 0.2862 0.0
C267 C 0.70971 0.77614 0.27484 0.0
C268 C 0.7072 0.76249 0.26255 0.0
C269 C 0.7191 0.75122 0.26167 0.0
C270 C 0.71691 0.73727 0.24965 0.0
C271 C 0.72894 0.72659 0.24806 0.0
C272 C 0.74357 0.7294 0.25857 0.0
C273 C 0.75612 0.71904 0.25613 0.0
C274 C 0.77029 0.72177 0.26765 0.0
C275 C 0.77248 0.73494 0.28099 0.0
C276 C 0.76033 0.74586 0.28275 0.0
C277 C 0.76244 0.75967 0.29508 0.0
C278 C 0.75056 0.77055 0.29622 0.0
C279 C 0.73602 0.76794 0.28533 0.0
C280 C 0.7336 0.75402 0.27298 0.0
C281 C 0.7458 0.74302 0.27159 0.0
C282 C 0.73857 0.67287 0.16254 0.0
C283 C 0.7548 0.66982 0.17286 0.0
O284 O 0.73249 0.8362 0.33236 0.0
O285 O 0.82968 0.75003 0.32515 0.0
O286 O 0.75415 0.66937 0.19482 0.0
O287 O 0.6501 0.75157 0.21556 0.0
H288 H 0.72628 0.85233 0.31002 0.0
H289 H 0.7542 0.84654 0.30621 0.0
H290 H 0.75895 0.85229 0.33344 0.0
H291 H 0.75197 0.86649 0.31452 0.0
H292 H 0.72614 0.81004 0.34852 0.0
H293 H 0.73391 0.8321 0.28969 0.0
H294 H 0.71023 0.77488 0.32482 0.0
H295 H 0.71825 0.7838 0.34943 0.0
H296 H 0.73042 0.77249 0.33255 0.0
H297 H 0.73533 0.8183 0.25741 0.0
H298 H 0.71967 0.80435 0.25496 0.0
H299 H 0.73932 0.79776 0.25895 0.0
H300 H 0.65973 0.74203 0.18881 0.0
H301 H 0.63815 0.72366 0.18059 0.0
H302 H 0.62739 0.7321 0.20192 0.0
H303 H 0.64544 0.72203 0.20781 0.0
H304 H 0.67565 0.76291 0.19963 0.0
H305 H 0.65476 0.74848 0.25599 0.0
H306 H 0.70965 0.7799 0.22615 0.0
H307 H 0.70098 0.77339 0.20056 0.0
H308 H 0.71347 0.76069 0.21608 0.0
H309 H 0.66878 0.74706 0.28921 0.0
H310 H 0.68243 0.76292 0.29324 0.0
H311 H 0.68939 0.74371 0.28773 0.0
H312 H 0.76284 0.67919 0.16861 0.0
H313 H 0.75637 0.69994 0.18633 0.0
H314 H 0.75222 0.66656 0.23516 0.0
H315 H 0.74774 0.73233 0.21232 0.0
H316 H 0.76196 0.72608 0.1941 0.0
H317 H 0.7679 0.73186 0.22117 0.0
H318 H 0.74933 0.67423 0.2711 0.0
H319 H 0.74298 0.69394 0.27611 0.0
H320 H 0.76329 0.68936 0.27837 0.0
H321 H 0.82035 0.75458 0.35427 0.0
H322 H 0.8384 0.77618 0.36422 0.0
H323 H 0.82795 0.77922 0.33902 0.0
H324 H 0.84803 0.77322 0.33962 0.0
H325 H 0.82304 0.75461 0.28544 0.0
H326 H 0.80674 0.73381 0.34111 0.0
H327 H 0.78739 0.75722 0.25674 0.0
H328 H 0.79507 0.73883 0.24855 0.0
H329 H 0.80793 0.7553 0.25301 0.0
H330 H 0.78255 0.7211 0.34108 0.0
H331 H 0.7742 0.71437 0.31542 0.0
H332 H 0.76808 0.73252 0.32674 0.0
H333 H 0.70055 0.78476 0.27534 0.0
H334 H 0.70593 0.73452 0.24113 0.0
H335 H 0.72665 0.71614 0.2384 0.0
H336 H 0.77989 0.7138 0.26569 0.0
H337 H 0.77337 0.76235 0.30379 0.0
H338 H 0.75295 0.78105 0.30572 0.0
H339 H 0.73903 0.67323 0.14494 0.0
H340 H 0.73411 0.68421 0.16835 0.0
H341 H 0.73032 0.66361 0.16653 0.0
C342 C 0.31196 0.80888 0.1355 0.0
C343 C 0.32234 0.7994 0.15091 0.0
C344 C 0.30743 0.78184 0.17091 0.0
C345 C 0.31398 0.77263 0.187 0.0
C346 C 0.30576 0.76947 0.20502 0.0
C347 C 0.29064 0.77561 0.20674 0.0
C348 C 0.28387 0.78467 0.1902 0.0
C349 C 0.29233 0.78757 0.17236 0.0
C350 C 0.31324 0.75969 0.2223 0.0
C351 C 0.26775 0.79137 0.19144 0.0
C352 C 0.27021 0.85793 0.33716 0.0
C353 C 0.26678 0.84613 0.31983 0.0
C354 C 0.27708 0.82227 0.30438 0.0
C355 C 0.26445 0.82001 0.2894 0.0
C356 C 0.26388 0.80718 0.27519 0.0
C357 C 0.27595 0.79601 0.27641 0.0
C358 C 0.28857 0.79808 0.29166 0.0
C359 C 0.28902 0.81128 0.30536 0.0
C360 C 0.25037 0.8057 0.25878 0.0
C361 C 0.30156 0.78637 0.29345 0.0
C362 C 0.1939 0.73859 0.31023 0.0
C363 C 0.19429 0.75051 0.29542 0.0
C364 C 0.20514 0.75026 0.27965 0.0
C365 C 0.21622 0.73812 0.27907 0.0
C366 C 0.21611 0.72631 0.29422 0.0
C367 C 0.20488 0.72666 0.30952 0.0
C368 C 0.20469 0.763 0.26358 0.0
C369 C 0.22784 0.71331 0.29421 0.0
C370 C 0.2266 0.70272 0.11076 0.0
C371 C 0.22891 0.69558 0.1327 0.0
C372 C 0.2205 0.70667 0.16606 0.0
C373 C 0.21228 0.71961 0.17299 0.0
C374 C 0.21592 0.72666 0.19303 0.0
C375 C 0.22776 0.72021 0.20666 0.0
C376 C 0.2352 0.70631 0.20039 0.0
C377 C 0.23161 0.69976 0.18 0.0
C378 C 0.20751 0.74133 0.19929 0.0
C379 C 0.24735 0.69875 0.2149 0.0
C380 C 0.28198 0.7729 0.22602 0.0
C381 C 0.28421 0.78347 0.24321 0.0
C382 C 0.27543 0.78254 0.26112 0.0
C383 C 0.26457 0.77034 0.26242 0.0
C384 C 0.25601 0.76871 0.28058 0.0
C385 C 0.24426 0.75764 0.28088 0.0
C386 C 0.24054 0.74792 0.26295 0.0
C387 C 0.22763 0.73772 0.26227 0.0
C388 C 0.22427 0.7282 0.24419 0.0
C389 C 0.23325 0.72885 0.22644 0.0
C390 C 0.24615 0.73904 0.22677 0.0
C391 C 0.2553 0.74017 0.20905 0.0
C392 C 0.26741 0.75086 0.20906 0.0
C393 C 0.2706 0.7611 0.22656 0.0
C394 C 0.26182 0.75988 0.24481 0.0
C395 C 0.24968 0.74873 0.245 0.0
C396 C 0.17683 0.76231 0.34219 0.0
C397 C 0.17109 0.7483 0.32835 0.0
O398 O 0.31571 0.78501 0.15393 0.0
O399 O 0.2177 0.70137 0.14568 0.0
O400 O 0.18324 0.73806 0.32534 0.0
O401 O 0.27816 0.83486 0.31797 0.0
H402 H 0.32364 0.80606 0.1664 0.0
H403 H 0.30115 0.81243 0.14302 0.0
H404 H 0.30882 0.802 0.12064 0.0
H405 H 0.31804 0.81967 0.13133 0.0
H406 H 0.32562 0.76813 0.18552 0.0
H407 H 0.28714 0.79426 0.1595 0.0
H408 H 0.3147 0.76674 0.23735 0.0
H409 H 0.32478 0.75518 0.21813 0.0
H410 H 0.30556 0.74972 0.22529 0.0
H411 H 0.26437 0.79857 0.17754 0.0
H412 H 0.26713 0.79865 0.20622 0.0
H413 H 0.25915 0.78182 0.19216 0.0
H414 H 0.26287 0.85116 0.30426 0.0
H415 H 0.27138 0.86925 0.32885 0.0
H416 H 0.28301 0.85696 0.3418 0.0
H417 H 0.25289 0.85409 0.35846 0.0
H418 H 0.255 0.82828 0.28848 0.0
H419 H 0.2987 0.81306 0.31698 0.0
H420 H 0.24235 0.79647 0.26344 0.0
H421 H 0.25448 0.80238 0.24288 0.0
H422 H 0.24366 0.81668 0.25735 0.0
H423 H 0.30965 0.78878 0.30758 0.0
H424 H 0.30827 0.78658 0.27892 0.0
H425 H 0.2967 0.77449 0.29449 0.0
H426 H 0.16627 0.75243 0.31272 0.0
H427 H 0.18618 0.76006 0.29589 0.0
H428 H 0.20459 0.71757 0.32106 0.0
H429 H 0.21477 0.77089 0.26702 0.0
H430 H 0.1939 0.77002 0.26402 0.0
H431 H 0.20553 0.75803 0.2472 0.0
H432 H 0.22713 0.70583 0.30823 0.0
H433 H 0.23978 0.71816 0.29413 0.0
H434 H 0.2258 0.70597 0.2795 0.0
H435 H 0.24074 0.69922 0.13916 0.0
H436 H 0.23548 0.69823 0.10005 0.0
H437 H 0.22786 0.71555 0.11233 0.0
H438 H 0.21483 0.69999 0.10341 0.0
H439 H 0.20352 0.72465 0.1622 0.0
H440 H 0.2376 0.68937 0.17488 0.0
H441 H 0.21602 0.75076 0.2036 0.0
H442 H 0.20087 0.73922 0.21352 0.0
H443 H 0.1993 0.74536 0.18632 0.0
H444 H 0.25022 0.68682 0.20917 0.0
H445 H 0.24328 0.69818 0.23129 0.0
H446 H 0.25814 0.70585 0.21577 0.0
H447 H 0.2923 0.79304 0.24213 0.0
H448 H 0.25815 0.77616 0.29461 0.0
H449 H 0.23787 0.75705 0.29516 0.0
H450 H 0.21408 0.72075 0.24351 0.0
H451 H 0.25312 0.73294 0.19483 0.0
H452 H 0.27398 0.75126 0.19493 0.0
H453 H 0.16711 0.77052 0.34467 0.0
H454 H 0.18605 0.76858 0.33428 0.0
H455 H 0.18171 0.75851 0.35795 0.0
C456 C 0.1856 0.69433 0.64322 0.0
C457 C 0.17885 0.70881 0.65392 0.0
C458 C 0.19896 0.72536 0.66982 0.0
C459 C 0.19344 0.73375 0.68715 0.0
C460 C 0.20333 0.7374 0.70514 0.0
C461 C 0.21897 0.73231 0.70576 0.0
C462 C 0.22459 0.72399 0.68804 0.0
C463 C 0.21451 0.72078 0.67011 0.0
C464 C 0.19702 0.74646 0.72361 0.0
C465 C 0.24112 0.71816 0.68827 0.0
C466 C 0.23801 0.65256 0.83558 0.0
C467 C 0.24253 0.66393 0.81963 0.0
C468 C 0.23469 0.68864 0.80416 0.0
C469 C 0.24707 0.6892 0.79055 0.0
C470 C 0.24832 0.70134 0.77634 0.0
C471 C 0.23725 0.7135 0.77613 0.0
C472 C 0.22504 0.71323 0.79022 0.0
C473 C 0.22387 0.70073 0.80395 0.0
C474 C 0.26134 0.70101 0.76126 0.0
C475 C 0.21312 0.72604 0.79058 0.0
C476 C 0.31504 0.77763 0.82304 0.0
C477 C 0.31837 0.76794 0.80557 0.0
C478 C 0.30808 0.76687 0.78744 0.0
C479 C 0.29427 0.77578 0.78674 0.0
C480 C 0.29119 0.786 0.80398 0.0
C481 C 0.30172 0.78689 0.82187 0.0
C482 C 0.31191 0.75618 0.76906 0.0
C483 C 0.27667 0.7958 0.8036 0.0
C484 C 0.26873 0.81659 0.63241 0.0
C485 C 0.2714 0.82844 0.65088 0.0
C486 C 0.28098 0.81393 0.68156 0.0
C487 C 0.29043 0.80087 0.68421 0.0
C488 C 0.28837 0.79067 0.70083 0.0
C489 C 0.27684 0.79391 0.71546 0.0
C490 C 0.26768 0.80748 0.71336 0.0
C491 C 0.26982 0.81734 0.69636 0.0
C492 C 0.29843 0.77638 0.70266 0.0
C493 C 0.25564 0.81155 0.72907 0.0
C494 C 0.22925 0.73504 0.7253 0.0
C495 C 0.22834 0.72455 0.74174 0.0
C496 C 0.23803 0.72596 0.76032 0.0
C497 C 0.24886 0.73834 0.76277 0.0
C498 C 0.25862 0.7403 0.78137 0.0
C499 C 0.2697 0.75211 0.78324 0.0
C500 C 0.27139 0.76246 0.76662 0.0
C501 C 0.28294 0.77419 0.76809 0.0
C502 C 0.28426 0.78434 0.75134 0.0
C503 C 0.27438 0.78307 0.73292 0.0
C504 C 0.2628 0.77136 0.73109 0.0
C505 C 0.25274 0.76967 0.71273 0.0
C506 C 0.24156 0.75795 0.71094 0.0
C507 C 0.24017 0.74734 0.7273 0.0
C508 C 0.25006 0.74894 0.74607 0.0
C509 C 0.26136 0.76099 0.74798 0.0
C510 C 0.32325 0.7619 0.8703 0.0
C511 C 0.33207 0.76629 0.85093 0.0
O512 O 0.18915 0.72109 0.65309 0.0
O513 O 0.28315 0.8232 0.66489 0.0
O514 O 0.32456 0.77862 0.84102 0.0
O515 O 0.23271 0.67663 0.81743 0.0
H516 H 0.17714 0.70598 0.67084 0.0
H517 H 0.19659 0.69094 0.65201 0.0
H518 H 0.18816 0.69659 0.62648 0.0
H519 H 0.1773 0.68446 0.64338 0.0
H520 H 0.18134 0.73725 0.68662 0.0
H521 H 0.21857 0.71427 0.65653 0.0
H522 H 0.19684 0.73892 0.73762 0.0
H523 H 0.18506 0.75079 0.71986 0.0
H524 H 0.20474 0.75651 0.72814 0.0
H525 H 0.24342 0.71115 0.67369 0.0
H526 H 0.24362 0.71094 0.70242 0.0
H527 H 0.24928 0.72817 0.68956 0.0
H528 H 0.2454 0.65848 0.80403 0.0
H529 H 0.23513 0.64153 0.82611 0.0
H530 H 0.22557 0.65521 0.83898 0.0
H531 H 0.25627 0.65401 0.85899 0.0
H532 H 0.25573 0.68011 0.79067 0.0
H533 H 0.21441 0.70031 0.81455 0.0
H534 H 0.26961 0.71062 0.76561 0.0
H535 H 0.25666 0.70276 0.74467 0.0
H536 H 0.26787 0.68989 0.76171 0.0
H537 H 0.20554 0.72516 0.80419 0.0
H538 H 0.20568 0.72546 0.77555 0.0
H539 H 0.21898 0.73756 0.79155 0.0
H540 H 0.33212 0.75581 0.84018 0.0
H541 H 0.32908 0.76136 0.8059 0.0
H542 H 0.29942 0.79456 0.83529 0.0
H543 H 0.30283 0.74705 0.76661 0.0
H544 H 0.32339 0.75046 0.77174 0.0
H545 H 0.31195 0.76282 0.75419 0.0
H546 H 0.27593 0.80313 0.81834 0.0
H547 H 0.26625 0.78816 0.80175 0.0
H548 H 0.27639 0.80345 0.78968 0.0
H549 H 0.2603 0.82964 0.65894 0.0
H550 H 0.25936 0.82063 0.62097 0.0
H551 H 0.26512 0.80527 0.6386 0.0
H552 H 0.27955 0.81481 0.62388 0.0
H553 H 0.29918 0.7985 0.67287 0.0
H554 H 0.26294 0.82782 0.69485 0.0
H555 H 0.29103 0.76586 0.70328 0.0
H556 H 0.30582 0.77717 0.71773 0.0
H557 H 0.3061 0.77495 0.68915 0.0
H558 H 0.25024 0.82306 0.72611 0.0
H559 H 0.26103 0.81162 0.74556 0.0
H560 H 0.24635 0.80258 0.72803 0.0
H561 H 0.22019 0.71493 0.73982 0.0
H562 H 0.25787 0.73263 0.79462 0.0
H563 H 0.27698 0.75296 0.79786 0.0
H564 H 0.29322 0.79324 0.75255 0.0
H565 H 0.25341 0.77735 0.69949 0.0
H566 H 0.23414 0.75722 0.69644 0.0
H567 H 0.32909 0.75204 0.87852 0.0
H568 H 0.31122 0.75827 0.86509 0.0
H569 H 0.32264 0.77194 0.88173 0.0
C570 C 0.22523 0.35961 0.80993 0.0
C571 C 0.22286 0.35018 0.82978 0.0
C572 C 0.23549 0.32568 0.82536 0.0
C573 C 0.22762 0.31389 0.83512 0.0
C574 C 0.22635 0.29897 0.82562 0.0
C575 C 0.23293 0.29599 0.80581 0.0
C576 C 0.24127 0.30785 0.79624 0.0
C577 C 0.24263 0.32256 0.80636 0.0
C578 C 0.21762 0.28653 0.83642 0.0
C579 C 0.24824 0.30519 0.77498 0.0
C580 C 0.13222 0.28017 0.74538 0.0
C581 C 0.14426 0.27918 0.72847 0.0
C582 C 0.16715 0.26448 0.73892 0.0
C583 C 0.17914 0.27287 0.73046 0.0
C584 C 0.19423 0.2727 0.7401 0.0
C585 C 0.19724 0.26413 0.75878 0.0
C586 C 0.18519 0.2553 0.76699 0.0
C587 C 0.17031 0.25536 0.75664 0.0
C588 C 0.20685 0.28195 0.73061 0.0
C589 C 0.18788 0.24623 0.78706 0.0
C590 C 0.24475 0.17888 0.72709 0.0
C591 C 0.25514 0.18987 0.71984 0.0
C592 C 0.26045 0.20237 0.73316 0.0
C593 C 0.25555 0.20365 0.75422 0.0
C594 C 0.24625 0.19182 0.7621 0.0
C595 C 0.24092 0.17961 0.74835 0.0
C596 C 0.27076 0.21456 0.72448 0.0
C597 C 0.24128 0.19249 0.78471 0.0
C598 C 0.33792 0.27527 0.85691 0.0
C599 C 0.33257 0.25832 0.85561 0.0
C600 C 0.31889 0.24668 0.82382 0.0
C601 C 0.31668 0.24905 0.802 0.0
C602 C 0.30308 0.24396 0.79057 0.0
C603 C 0.29157 0.23611 0.80129 0.0
C604 C 0.29435 0.23247 0.82297 0.0
C605 C 0.30805 0.23777 0.83406 0.0
C606 C 0.30062 0.24775 0.76734 0.0
C607 C 0.28249 0.2237 0.83467 0.0
C608 C 0.23013 0.28088 0.79432 0.0
C609 C 0.21586 0.27878 0.78289 0.0
C610 C 0.21267 0.26531 0.77052 0.0
C611 C 0.22404 0.25354 0.76938 0.0
C612 C 0.22145 0.24009 0.75649 0.0
C613 C 0.23267 0.22852 0.75567 0.0
C614 C 0.24696 0.22997 0.76764 0.0
C615 C 0.25841 0.21821 0.76701 0.0
C616 C 0.27272 0.22028 0.77845 0.0
C617 C 0.27586 0.23384 0.79071 0.0
C618 C 0.26438 0.24552 0.79206 0.0
C619 C 0.26708 0.25916 0.80463 0.0
C620 C 0.25582 0.27067 0.80561 0.0
C621 C 0.24149 0.26908 0.79388 0.0
C622 C 0.23845 0.25538 0.78129 0.0
C623 C 0.24991 0.24358 0.7804 0.0
C624 C 0.22039 0.16194 0.68454 0.0
C625 C 0.2369 0.16685 0.69213 0.0
O626 O 0.23538 0.34035 0.83354 0.0
O627 O 0.33147 0.25334 0.83441 0.0
O628 O 0.23797 0.16756 0.71421 0.0
O629 O 0.15237 0.26536 0.7305 0.0
H630 H 0.21197 0.34324 0.82673 0.0
H631 H 0.22549 0.35172 0.79568 0.0
H632 H 0.23637 0.36616 0.81168 0.0
H633 H 0.2155 0.36793 0.80723 0.0
H634 H 0.22219 0.31653 0.84991 0.0
H635 H 0.24871 0.33185 0.79907 0.0
H636 H 0.2065 0.28401 0.82714 0.0
H637 H 0.21498 0.29008 0.85294 0.0
H638 H 0.22449 0.27561 0.83688 0.0
H639 H 0.25341 0.31594 0.76904 0.0
H640 H 0.23919 0.3008 0.76298 0.0
H641 H 0.25745 0.29621 0.77642 0.0
H642 H 0.15224 0.28933 0.73131 0.0
H643 H 0.12565 0.29125 0.74421 0.0
H644 H 0.13817 0.27978 0.76152 0.0
H645 H 0.12391 0.27028 0.74339 0.0
H646 H 0.17661 0.27965 0.71641 0.0
H647 H 0.16091 0.24885 0.76288 0.0
H648 H 0.21761 0.27491 0.72974 0.0
H649 H 0.20968 0.29234 0.74099 0.0
H650 H 0.20328 0.28592 0.71439 0.0
H651 H 0.17696 0.24116 0.79239 0.0
H652 H 0.19313 0.25387 0.8001 0.0
H653 H 0.19618 0.23664 0.78425 0.0
H654 H 0.23873 0.17849 0.68546 0.0
H655 H 0.25896 0.18895 0.70377 0.0
H656 H 0.23323 0.17085 0.75396 0.0
H657 H 0.26498 0.22607 0.72525 0.0
H658 H 0.27351 0.21192 0.70772 0.0
H659 H 0.28181 0.21544 0.73446 0.0
H660 H 0.23634 0.18126 0.7894 0.0
H661 H 0.23229 0.20162 0.78628 0.0
H662 H 0.2513 0.19564 0.79594 0.0
H663 H 0.32101 0.25806 0.86263 0.0
H664 H 0.33883 0.2796 0.87376 0.0
H665 H 0.32934 0.28258 0.8479 0.0
H666 H 0.34941 0.27653 0.84998 0.0
H667 H 0.32533 0.2556 0.79416 0.0
H668 H 0.31009 0.23518 0.85073 0.0
H669 H 0.29091 0.25615 0.7653 0.0
H670 H 0.29731 0.23708 0.7578 0.0
H671 H 0.31117 0.25285 0.76094 0.0
H672 H 0.28712 0.2202 0.85068 0.0
H673 H 0.2786 0.21316 0.82523 0.0
H674 H 0.27213 0.23116 0.83663 0.0
H675 H 0.20716 0.28789 0.78341 0.0
H676 H 0.2107 0.23835 0.74689 0.0
H677 H 0.22997 0.21844 0.74542 0.0
H678 H 0.28156 0.21134 0.7776 0.0
H679 H 0.27792 0.26113 0.81391 0.0
H680 H 0.25851 0.28088 0.8156 0.0
H681 H 0.21918 0.1613 0.66684 0.0
H682 H 0.21193 0.17061 0.69027 0.0
H683 H 0.21748 0.15042 0.69081 0.0
C684 C 0.80807 0.30007 0.64144 0.0
C685 C 0.82041 0.30059 0.66011 0.0
C686 C 0.80971 0.28641 0.68942 0.0
C687 C 0.81248 0.27397 0.70288 0.0
C688 C 0.80341 0.27167 0.72032 0.0
C689 C 0.79079 0.28177 0.72385 0.0
C690 C 0.78785 0.29438 0.71021 0.0
C691 C 0.79748 0.29672 0.69336 0.0
C692 C 0.8073 0.25843 0.73491 0.0
C693 C 0.77444 0.30535 0.71331 0.0
C694 C 0.77484 0.36566 0.8486 0.0
C695 C 0.77025 0.35341 0.83226 0.0
C696 C 0.77596 0.32675 0.82124 0.0
C697 C 0.76389 0.32591 0.80515 0.0
C698 C 0.76248 0.31311 0.79089 0.0
C699 C 0.77317 0.30069 0.79292 0.0
C700 C 0.78497 0.30119 0.80956 0.0
C701 C 0.78621 0.31425 0.82352 0.0
C702 C 0.74976 0.31307 0.77328 0.0
C703 C 0.79645 0.28808 0.8123 0.0
C704 C 0.69616 0.23469 0.82421 0.0
C705 C 0.69334 0.24655 0.80967 0.0
C706 C 0.70308 0.24853 0.79283 0.0
C707 C 0.71599 0.23855 0.79073 0.0
C708 C 0.71864 0.22637 0.80515 0.0
C709 C 0.70851 0.22448 0.82156 0.0
C710 C 0.69954 0.26125 0.77724 0.0
C711 C 0.73221 0.21544 0.80331 0.0
C712 C 0.73735 0.19898 0.63201 0.0
C713 C 0.73507 0.18868 0.651 0.0
C714 C 0.726 0.20358 0.68147 0.0
C715 C 0.7168 0.2167 0.68459 0.0
C716 C 0.71912 0.22627 0.70294 0.0
C717 C 0.73075 0.22237 0.71872 0.0
C718 C 0.73962 0.20869 0.7161 0.0
C719 C 0.73714 0.19942 0.69748 0.0
C720 C 0.70934 0.24068 0.70532 0.0
C721 C 0.75178 0.20396 0.73292 0.0
C722 C 0.78064 0.27916 0.7417 0.0
C723 C 0.78227 0.28917 0.75959 0.0
C724 C 0.77261 0.28789 0.77654 0.0
C725 C 0.76152 0.27576 0.77626 0.0
C726 C 0.75217 0.27364 0.79352 0.0
C727 C 0.74091 0.26199 0.79276 0.0
C728 C 0.73841 0.2522 0.77457 0.0
C729 C 0.72661 0.24071 0.7733 0.0
C730 C 0.7245 0.23114 0.75502 0.0
C731 C 0.73381 0.23276 0.73776 0.0
C732 C 0.74558 0.24426 0.73864 0.0
C733 C 0.75494 0.24641 0.72139 0.0
C734 C 0.76642 0.25781 0.72234 0.0
C735 C 0.76903 0.26749 0.74061 0.0
C736 C 0.75959 0.26566 0.75808 0.0
C737 C 0.7479 0.25398 0.75714 0.0
C738 C 0.69528 0.24507 0.8735 0.0
C739 C 0.68286 0.24411 0.85506 0.0
O740 O 0.81895 0.28784 0.67279 0.0
O741 O 0.72358 0.19503 0.6631 0.0
O742 O 0.68689 0.23258 0.84057 0.0
O743 O 0.77818 0.33947 0.83447 0.0
H744 H 0.81887 0.3115 0.66969 0.0
H745 H 0.79621 0.30092 0.6473 0.0
H746 H 0.80876 0.28904 0.63195 0.0
H747 H 0.80974 0.30998 0.63087 0.0
H748 H 0.82197 0.26611 0.69979 0.0
H749 H 0.7952 0.30648 0.68322 0.0
H750 H 0.80712 0.26241 0.75185 0.0
H751 H 0.8189 0.25337 0.73216 0.0
H752 H 0.79845 0.24912 0.73213 0.0
H753 H 0.77229 0.31304 0.69956 0.0
H754 H 0.77703 0.31276 0.72782 0.0
H755 H 0.76363 0.29873 0.71567 0.0
H756 H 0.76965 0.35748 0.81553 0.0
H757 H 0.78019 0.37517 0.83952 0.0
H758 H 0.78621 0.36182 0.85656 0.0
H759 H 0.75466 0.36895 0.86507 0.0
H760 H 0.75563 0.33531 0.80339 0.0
H761 H 0.79539 0.31488 0.83606 0.0
H762 H 0.7416 0.30333 0.77538 0.0
H763 H 0.75482 0.31123 0.75757 0.0
H764 H 0.74304 0.32408 0.77303 0.0
H765 H 0.80383 0.2894 0.82733 0.0
H766 H 0.8041 0.28773 0.79869 0.0
H767 H 0.79019 0.27679 0.81221 0.0
H768 H 0.68228 0.25561 0.84743 0.0
H769 H 0.68338 0.25408 0.81123 0.0
H770 H 0.7104 0.21521 0.83272 0.0
H771 H 0.70877 0.27026 0.77909 0.0
H772 H 0.68816 0.26688 0.7797 0.0
H773 H 0.69945 0.25647 0.76064 0.0
H774 H 0.73342 0.20744 0.81685 0.0
H775 H 0.74316 0.22217 0.80264 0.0
H776 H 0.73063 0.2084 0.78827 0.0
H777 H 0.74643 0.1883 0.66036 0.0
H778 H 0.74648 0.19406 0.62203 0.0
H779 H 0.7411 0.21079 0.63781 0.0
H780 H 0.72633 0.20005 0.62204 0.0
H781 H 0.70802 0.21963 0.6723 0.0
H782 H 0.74378 0.18884 0.69561 0.0
H783 H 0.71698 0.25106 0.70758 0.0
H784 H 0.70256 0.23988 0.71972 0.0
H785 H 0.70115 0.24237 0.69127 0.0
H786 H 0.75694 0.19245 0.72919 0.0
H787 H 0.74658 0.20352 0.74864 0.0
H788 H 0.76122 0.21277 0.73435 0.0
H789 H 0.79079 0.29848 0.75995 0.0
H790 H 0.7535 0.28095 0.80781 0.0
H791 H 0.73408 0.26087 0.80654 0.0
H792 H 0.71541 0.22238 0.75413 0.0
H793 H 0.75347 0.23934 0.7069 0.0
H794 H 0.77318 0.25898 0.7085 0.0
H795 H 0.6962 0.23382 0.88171 0.0
H796 H 0.69239 0.25439 0.8852 0.0
H797 H 0.70675 0.24784 0.86734 0.0
C798 C 0.78309 0.65518 0.79638 0.0
C799 C 0.78766 0.66537 0.81611 0.0
C800 C 0.77617 0.69052 0.81185 0.0
C801 C 0.78489 0.70225 0.82271 0.0
C802 C 0.78608 0.71699 0.814 0.0
C803 C 0.77853 0.71985 0.79388 0.0
C804 C 0.76937 0.70804 0.78316 0.0
C805 C 0.76813 0.69353 0.79249 0.0
C806 C 0.79575 0.72936 0.82601 0.0
C807 C 0.76137 0.71055 0.76153 0.0
C808 C 0.87534 0.72606 0.73956 0.0
C809 C 0.86372 0.73111 0.72176 0.0
C810 C 0.84295 0.74722 0.73454 0.0
C811 C 0.8299 0.74038 0.72366 0.0
C812 C 0.81518 0.74156 0.73197 0.0
C813 C 0.81357 0.74971 0.75159 0.0
C814 C 0.82662 0.7572 0.76209 0.0
C815 C 0.84115 0.75604 0.7532 0.0
C816 C 0.80143 0.7338 0.72007 0.0
C817 C 0.82533 0.76594 0.78305 0.0
C818 C 0.76767 0.83692 0.7208 0.0
C819 C 0.75692 0.82593 0.71182 0.0
C820 C 0.75193 0.8136 0.72386 0.0
C821 C 0.75752 0.81247 0.74537 0.0
C822 C 0.7673 0.82424 0.75489 0.0
C823 C 0.77229 0.8363 0.74241 0.0
C824 C 0.7411 0.80148 0.71342 0.0
C825 C 0.77307 0.82369 0.77798 0.0
C826 C 0.67392 0.74657 0.82996 0.0
C827 C 0.68028 0.76302 0.83419 0.0
C828 C 0.69408 0.77504 0.80621 0.0
C829 C 0.69532 0.77261 0.78435 0.0
C830 C 0.70921 0.77591 0.77482 0.0
C831 C 0.72196 0.78216 0.78749 0.0
C832 C 0.72034 0.78574 0.80935 0.0
C833 C 0.70639 0.78209 0.81853 0.0
C834 C 0.71046 0.77215 0.7514 0.0
C835 C 0.73355 0.79288 0.82312 0.0
C836 C 0.78133 0.73465 0.78321 0.0
C837 C 0.79524 0.73606 0.77313 0.0
C838 C 0.79854 0.7493 0.76191 0.0
C839 C 0.78765 0.76154 0.76056 0.0
C840 C 0.79042 0.77485 0.74894 0.0
C841 C 0.77964 0.78685 0.74778 0.0
C842 C 0.76564 0.78601 0.75819 0.0
C843 C 0.75462 0.79818 0.75715 0.0
C844 C 0.74064 0.7968 0.76715 0.0
C845 C 0.73735 0.78349 0.77831 0.0
C846 C 0.74837 0.77133 0.77992 0.0
C847 C 0.74552 0.75786 0.79129 0.0
C848 C 0.75638 0.74593 0.79265 0.0
C849 C 0.77039 0.74687 0.78241 0.0
C850 C 0.77355 0.76035 0.77097 0.0
C851 C 0.76254 0.7726 0.76976 0.0
C852 C 0.79029 0.85416 0.68151 0.0
C853 C 0.77423 0.84867 0.68729 0.0
O854 O 0.77601 0.67607 0.81963 0.0
O855 O 0.6809 0.77038 0.81493 0.0
O856 O 0.77403 0.84813 0.70928 0.0
O857 O 0.85741 0.74533 0.72748 0.0
H858 H 0.79869 0.67155 0.81317 0.0
H859 H 0.78184 0.66244 0.78207 0.0
H860 H 0.77187 0.64916 0.79834 0.0
H861 H 0.79223 0.64636 0.79365 0.0
H862 H 0.79098 0.69972 0.83779 0.0
H863 H 0.76134 0.68431 0.78438 0.0
H864 H 0.80659 0.73126 0.81771 0.0
H865 H 0.79898 0.72607 0.84264 0.0
H866 H 0.78932 0.74053 0.82633 0.0
H867 H 0.75566 0.69982 0.75467 0.0
H868 H 0.7699 0.71461 0.75033 0.0
H869 H 0.7524 0.71972 0.76285 0.0
H870 H 0.85456 0.72196 0.71989 0.0
H871 H 0.88056 0.71467 0.7353 0.0
H872 H 0.86929 0.7248 0.75453 0.0
H873 H 0.88477 0.73482 0.74247 0.0
H874 H 0.83126 0.73403 0.70876 0.0
H875 H 0.85132 0.76146 0.76126 0.0
H876 H 0.79148 0.74198 0.71871 0.0
H877 H 0.7977 0.72369 0.72909 0.0
H878 H 0.80419 0.72965 0.70384 0.0
H879 H 0.83668 0.77073 0.78948 0.0
H880 H 0.82074 0.75811 0.79494 0.0
H881 H 0.81698 0.77567 0.78097 0.0
H882 H 0.77259 0.83687 0.67979 0.0
H883 H 0.75256 0.82676 0.6954 0.0
H884 H 0.78028 0.84504 0.74932 0.0
H885 H 0.74662 0.78984 0.71435 0.0
H886 H 0.738 0.80387 0.69643 0.0
H887 H 0.73027 0.80105 0.72209 0.0
H888 H 0.77861 0.8348 0.78377 0.0
H889 H 0.78176 0.81425 0.77993 0.0
H890 H 0.76331 0.82107 0.7881 0.0
H891 H 0.69212 0.76181 0.84209 0.0
H892 H 0.67342 0.74036 0.84515 0.0
H893 H 0.68167 0.73997 0.81948 0.0
H894 H 0.66208 0.74688 0.82195 0.0
H895 H 0.68559 0.76746 0.77495 0.0
H896 H 0.70515 0.78461 0.83532 0.0
H897 H 0.71987 0.76353 0.74925 0.0
H898 H 0.71359 0.7828 0.74308 0.0
H899 H 0.69945 0.76737 0.74376 0.0
H900 H 0.72987 0.79663 0.83911 0.0
H901 H 0.73832 0.80307 0.81523 0.0
H902 H 0.74306 0.78427 0.82522 0.0
H903 H 0.80359 0.72662 0.77384 0.0
H904 H 0.80097 0.77613 0.7406 0.0
H905 H 0.78242 0.79678 0.73854 0.0
H906 H 0.73215 0.80609 0.76604 0.0
H907 H 0.73488 0.75639 0.79933 0.0
H908 H 0.7536 0.73589 0.80171 0.0
H909 H 0.79082 0.85462 0.66393 0.0
H910 H 0.7993 0.84592 0.68759 0.0
H911 H 0.79296 0.86588 0.68869 0.0
C912 C 0.02862 0.31288 0.54373 0.0
C913 C 0.03378 0.32721 0.55198 0.0
C914 C 0.02602 0.33819 0.54032 0.0
C915 C 0.01661 0.32997 0.52569 0.0
N916 N 0.01775 0.31438 0.52744 0.0
Co917 Co 0.00674 0.29803 0.50877 0.0
N918 N 0.99592 0.31418 0.49088 0.0
C919 C 0.99729 0.3298 0.49336 0.0
C920 C 0.98826 0.3379 0.47886 0.0
C921 C 0.98049 0.32681 0.46649 0.0
C922 C 0.98522 0.31253 0.47428 0.0
N923 N 0.99593 0.28167 0.48992 0.0
C924 C 0.98527 0.2831 0.47334 0.0
C925 C 0.98028 0.26867 0.46511 0.0
C926 C 0.98809 0.25777 0.47679 0.0
C927 C 0.99729 0.26607 0.49152 0.0
N928 N 0.01739 0.28186 0.52679 0.0
C929 C 0.01577 0.26624 0.52462 0.0
C930 C 0.02477 0.25813 0.53914 0.0
C931 C 0.03275 0.26921 0.55124 0.0
C932 C 0.02812 0.28349 0.54332 0.0
N933 N 0.98909 0.29826 0.5277 0.0
C934 C 0.96398 0.29854 0.55458 0.0
C935 C 0.97033 0.28456 0.54736 0.0
C936 C 0.98268 0.28469 0.53397 0.0
C937 C 0.9705 0.31238 0.54816 0.0
C938 C 0.98297 0.31198 0.53493 0.0
N939 N 0.02449 0.29784 0.49004 0.0
C940 C 0.04557 0.28389 0.47459 0.0
C941 C 0.05201 0.29774 0.46826 0.0
C942 C 0.04411 0.31158 0.47194 0.0
C943 C 0.03048 0.31138 0.48292 0.0
C944 C 0.03177 0.28418 0.48507 0.0
H945 H 0.02524 0.32235 0.48587 0.0
H946 H 0.02739 0.27323 0.48935 0.0
H947 H 0.9868 0.27364 0.5289 0.0
H948 H 0.98738 0.32292 0.53066 0.0
C949 C 0.00702 0.33652 0.50967 0.0
C950 C 0.03468 0.29819 0.55155 0.0
C951 C 0.97895 0.29778 0.4656 0.0
C952 C 0.00648 0.25952 0.50791 0.0
H953 H 0.04243 0.32947 0.56489 0.0
H954 H 0.02729 0.35068 0.54204 0.0
H955 H 0.98731 0.35037 0.47757 0.0
H956 H 0.97216 0.32897 0.45335 0.0
H957 H 0.97161 0.26616 0.45234 0.0
H958 H 0.98686 0.24527 0.47514 0.0
H959 H 0.02572 0.24566 0.54041 0.0
H960 H 0.04125 0.26701 0.56417 0.0
H961 H 0.9659 0.27348 0.55209 0.0
H962 H 0.96588 0.32355 0.55299 0.0
H963 H 0.05123 0.27288 0.47156 0.0
H964 H 0.04873 0.32254 0.46705 0.0
C965 C 0.69453 0.03157 0.5417 0.0
C966 C 0.68025 0.03705 0.54772 0.0
C967 C 0.66917 0.02801 0.53699 0.0
C968 C 0.67729 0.01756 0.52513 0.0
N969 N 0.69287 0.01933 0.5277 0.0
Co970 Co 0.70896 0.00636 0.5139 0.0
N971 N 0.69275 0.99506 0.49516 0.0
C972 C 0.67726 0.99769 0.49427 0.0
C973 C 0.66907 0.98861 0.47928 0.0
C974 C 0.67999 0.97965 0.46997 0.0
C975 C 0.69425 0.9837 0.48004 0.0
N976 N 0.72501 0.99268 0.50118 0.0
C977 C 0.72339 0.98089 0.48646 0.0
C978 C 0.73749 0.97358 0.48339 0.0
C979 C 0.74839 0.98106 0.49656 0.0
C980 C 0.74037 0.99237 0.50701 0.0
N981 N 0.72528 0.01853 0.53134 0.0
C982 C 0.74084 0.01641 0.53161 0.0
C983 C 0.74918 0.02713 0.54411 0.0
C984 C 0.7383 0.03687 0.55202 0.0
C985 C 0.72391 0.03144 0.5439 0.0
N986 N 0.70726 0.99096 0.53672 0.0
C987 C 0.70583 0.96815 0.56776 0.0
C988 C 0.71882 0.9777 0.5671 0.0
C989 C 0.71934 0.98884 0.55156 0.0
C990 C 0.69339 0.97029 0.55295 0.0
C991 C 0.69424 0.98185 0.53786 0.0
N992 N 0.71071 0.02168 0.49135 0.0
C993 C 0.72676 0.03612 0.46871 0.0
C994 C 0.71424 0.04557 0.4625 0.0
C995 C 0.69975 0.04254 0.4704 0.0
C996 C 0.69821 0.03046 0.48455 0.0
C997 C 0.72477 0.02436 0.48306 0.0
H998 H 0.68687 0.02859 0.49008 0.0
H999 H 0.73489 0.01783 0.48764 0.0
H1000 H 0.72982 0.99537 0.55188 0.0
H1001 H 0.68422 0.98303 0.52727 0.0
C1002 C 0.6707 0.0077 0.50908 0.0
C1003 C 0.70928 0.03888 0.54866 0.0
C1004 C 0.7088 0.9761 0.47518 0.0
C1005 C 0.74713 0.00378 0.52076 0.0
H1006 H 0.67805 0.04687 0.55824 0.0
H1007 H 0.65668 0.0294 0.53703 0.0
H1008 H 0.65661 0.98828 0.47585 0.0
H1009 H 0.67768 0.97092 0.45745 0.0
H1010 H 0.7397 0.96386 0.47272 0.0
H1011 H 0.76074 0.9787 0.49807 0.0
H1012 H 0.76167 0.02776 0.54716 0.0
H1013 H 0.74067 0.04683 0.56262 0.0
H1014 H 0.7288 0.97628 0.57819 0.0
H1015 H 0.68306 0.96312 0.55306 0.0
H1016 H 0.73823 0.03812 0.46311 0.0
H1017 H 0.68969 0.04946 0.46574 0.0
C1018 C 0.02586 0.73316 0.52328 0.0
C1019 C 0.03111 0.7482 0.52791 0.0
C1020 C 0.02249 0.75771 0.51489 0.0
C1021 C 0.01246 0.748 0.50318 0.0
N1022 N 0.01404 0.73284 0.50805 0.0
Co1023 Co 0.00184 0.71478 0.49488 0.0
N1024 N 0.98948 0.72877 0.4753 0.0
C1025 C 0.99103 0.74434 0.47376 0.0
C1026 C 0.98053 0.75077 0.45936 0.0
C1027 C 0.97156 0.73864 0.45146 0.0
C1028 C 0.97716 0.72546 0.46154 0.0
N1029 N 0.98962 0.69674 0.48171 0.0
C1030 C 0.97716 0.69657 0.46751 0.0
C1031 C 0.97171 0.68161 0.46299 0.0
C1032 C 0.98092 0.67195 0.47505 0.0
C1033 C 0.99141 0.68155 0.48616 0.0
N1034 N 0.01416 0.7008 0.51452 0.0
C1035 C 0.01284 0.68517 0.51558 0.0
C1036 C 0.02318 0.6787 0.53013 0.0
C1037 C 0.03171 0.69087 0.53882 0.0
C1038 C 0.02601 0.70417 0.52909 0.0
N1039 N 0.98607 0.71759 0.5164 0.0
C1040 C 0.96345 0.72168 0.54669 0.0
C1041 C 0.96944 0.70696 0.54206 0.0
C1042 C 0.98062 0.70519 0.52695 0.0
C1043 C 0.96892 0.73427 0.53575 0.0
C1044 C 0.98016 0.732 0.5209 0.0
N1045 N 0.01766 0.71199 0.47331 0.0
C1046 C 0.03586 0.69586 0.45478 0.0
C1047 C 0.04126 0.7087 0.44433 0.0
C1048 C 0.03452 0.72312 0.44836 0.0
C1049 C 0.02291 0.7245 0.4628 0.0
C1050 C 0.02403 0.69773 0.46895 0.0
H1051 H 0.01858 0.73588 0.4654 0.0
H1052 H 0.02036 0.6875 0.47631 0.0
H1053 H 0.9847 0.69368 0.52408 0.0
H1054 H 0.98383 0.74209 0.51323 0.0
C1055 C 0.00173 0.75273 0.48713 0.0
C1056 C 0.03268 0.71959 0.53353 0.0
C1057 C 0.96975 0.71028 0.45859 0.0
C1058 C 0.00222 0.67682 0.50206 0.0
H1059 H 0.04033 0.7519 0.53938 0.0
H1060 H 0.02353 0.77019 0.5139 0.0
H1061 H 0.97922 0.76291 0.45559 0.0
H1062 H 0.96173 0.73949 0.44002 0.0
H1063 H 0.96188 0.67811 0.45242 0.0
H1064 H 0.97978 0.65948 0.47612 0.0
H1065 H 0.02457 0.66653 0.53366 0.0
H1066 H 0.04127 0.68997 0.55066 0.0
H1067 H 0.96574 0.69684 0.55028 0.0
H1068 H 0.96447 0.74588 0.53845 0.0
H1069 H 0.0407 0.68442 0.45199 0.0
H1070 H 0.03848 0.73346 0.44086 0.0
C1071 C 0.31397 0.98066 0.54624 0.0
C1072 C 0.32836 0.97541 0.55407 0.0
C1073 C 0.33927 0.9845 0.54558 0.0
C1074 C 0.33096 0.99475 0.53312 0.0
N1075 N 0.3154 0.99281 0.53322 0.0
Co1076 Co 0.29907 0.00533 0.51749 0.0
N1077 N 0.31507 0.01676 0.50203 0.0
C1078 C 0.33061 0.01443 0.50354 0.0
C1079 C 0.33869 0.02384 0.49087 0.0
C1080 C 0.32764 0.03271 0.48061 0.0
C1081 C 0.31339 0.02817 0.48765 0.0
N1082 N 0.28274 0.0185 0.50281 0.0
C1083 C 0.28415 0.03026 0.48917 0.0
C1084 C 0.2698 0.03672 0.48335 0.0
C1085 C 0.259 0.02897 0.49399 0.0
C1086 C 0.2673 0.01824 0.5056 0.0
N1087 N 0.28298 0.99309 0.5317 0.0
C1088 C 0.26737 0.99482 0.52944 0.0
C1089 C 0.25924 0.98419 0.54021 0.0
C1090 C 0.27031 0.97489 0.54957 0.0
C1091 C 0.28459 0.98043 0.54395 0.0
N1092 N 0.30043 0.02105 0.54137 0.0
C1093 C 0.3015 0.04425 0.57387 0.0
C1094 C 0.2883 0.03506 0.56979 0.0
C1095 C 0.28796 0.02374 0.55353 0.0
C1096 C 0.31429 0.04157 0.56174 0.0
C1097 C 0.31361 0.02981 0.54587 0.0
N1098 N 0.29768 0.98966 0.49381 0.0
C1099 C 0.28203 0.9745 0.46776 0.0
C1100 C 0.29481 0.96537 0.46301 0.0
C1101 C 0.30921 0.96891 0.4734 0.0
C1102 C 0.31042 0.98117 0.48849 0.0
C1103 C 0.28369 0.98646 0.48311 0.0
H1104 H 0.3217 0.98343 0.49591 0.0
H1105 H 0.27339 0.99272 0.4864 0.0
H1106 H 0.27732 0.01753 0.55103 0.0
H1107 H 0.32388 0.02818 0.53744 0.0
C1108 C 0.33735 0.00459 0.51871 0.0
C1109 C 0.29934 0.97319 0.55047 0.0
C1110 C 0.29872 0.03568 0.48122 0.0
C1111 C 0.26077 0.00691 0.51774 0.0
H1112 H 0.33076 0.96569 0.56428 0.0
H1113 H 0.35178 0.98328 0.54743 0.0
H1114 H 0.35116 0.02455 0.48979 0.0
H1115 H 0.3299 0.04178 0.46966 0.0
H1116 H 0.26735 0.04601 0.47243 0.0
H1117 H 0.24654 0.03075 0.49307 0.0
H1118 H 0.24676 0.9833 0.5411 0.0
H1119 H 0.26811 0.96508 0.55937 0.0
H1120 H 0.27804 0.03692 0.57872 0.0
H1121 H 0.32478 0.04846 0.56453 0.0
H1122 H 0.27061 0.97209 0.46021 0.0
H1123 H 0.31947 0.96224 0.46995 0.0
C1124 C 0.52886 0.81453 0.03643 0.0
C1125 C 0.53316 0.82904 0.04505 0.0
C1126 C 0.52563 0.83977 0.03267 0.0
C1127 C 0.51719 0.83125 0.0173 0.0
N1128 N 0.51865 0.8157 0.01929 0.0
Co1129 Co 0.50915 0.79911 -0.0004 0.0
N1130 N 0.49789 0.8149 0.98155 0.0
C1131 C 0.49813 0.83051 0.98467 0.0
C1132 C 0.48823 0.83824 0.97078 0.0
C1133 C 0.48096 0.82687 0.95832 0.0
C1134 C 0.48697 0.81283 0.96527 0.0
N1135 N 0.50026 0.78257 0.97939 0.0
C1136 C 0.48983 0.78371 0.96256 0.0
C1137 C 0.48693 0.7694 0.95237 0.0
C1138 C 0.49556 0.75876 0.96354 0.0
C1139 C 0.50326 0.76717 0.97973 0.0
N1140 N 0.51971 0.78322 0.01816 0.0
C1141 C 0.51887 0.76758 0.01542 0.0
C1142 C 0.52746 0.75965 0.03054 0.0
C1143 C 0.53425 0.77086 0.04371 0.0
C1144 C 0.52934 0.78509 0.03588 0.0
N1145 N 0.49072 0.7979 0.01689 0.0
C1146 C 0.46455 0.79616 0.04153 0.0
C1147 C 0.47071 0.78281 0.03215 0.0
C1148 C 0.48371 0.78392 0.02002 0.0
C1149 C 0.47168 0.81041 0.03827 0.0
C1150 C 0.48462 0.81101 0.02596 0.0
N1151 N 0.52772 0.80034 0.98237 0.0
C1152 C 0.55085 0.7884 0.96936 0.0
C1153 C 0.55551 0.80243 0.96126 0.0
C1154 C 0.54586 0.81531 0.96317 0.0
C1155 C 0.53215 0.81405 0.97387 0.0
C1156 C 0.53695 0.78757 0.9795 0.0
H1157 H 0.52548 0.82439 0.97526 0.0
H1158 H 0.53407 0.77646 0.98505 0.0
H1159 H 0.48789 0.77332 0.01333 0.0
H1160 H 0.48945 0.82223 0.02392 0.0
C1161 C 0.50745 0.83748 0.00119 0.0
C1162 C 0.53492 0.80002 0.04499 0.0
C1163 C 0.48143 0.79778 0.95675 0.0
C1164 C 0.51153 0.76077 0.99708 0.0
H1165 H 0.54098 0.8316 0.05881 0.0
H1166 H 0.52625 0.85229 0.03464 0.0
H1167 H 0.48623 0.85064 0.97019 0.0
H1168 H 0.47201 0.82872 0.94586 0.0
H1169 H 0.47894 0.76687 0.93878 0.0
H1170 H 0.49559 0.74628 0.96083 0.0
H1171 H 0.52914 0.74722 0.03134 0.0
H1172 H 0.54234 0.7687 0.0571 0.0
H1173 H 0.46567 0.77148 0.03436 0.0
H1174 H 0.46718 0.82112 0.04493 0.0
H1175 H 0.55788 0.77805 0.96776 0.0
H1176 H 0.54905 0.82639 0.95692 0.0
C1177 C 0.20256 0.53276 0.04632 0.0
C1178 C 0.18879 0.53833 0.05404 0.0
C1179 C 0.17699 0.53072 0.04268 0.0
C1180 C 0.18419 0.521 0.02874 0.0
N1181 N 0.1999 0.5218 0.03063 0.0
Co1182 Co 0.21495 0.50992 0.01324 0.0
N1183 N 0.19757 0.49949 0.99563 0.0
C1184 C 0.18215 0.50201 0.99687 0.0
C1185 C 0.17304 0.49277 0.9831 0.0
C1186 C 0.18323 0.48365 0.97263 0.0
C1187 C 0.19803 0.4879 0.98065 0.0
N1188 N 0.23003 0.49777 0.99617 0.0
C1189 C 0.22734 0.4862 0.98139 0.0
C1190 C 0.24107 0.48032 0.97393 0.0
C1191 C 0.25291 0.48824 0.98476 0.0
C1192 C 0.24576 0.49845 0.99811 0.0
N1193 N 0.23237 0.52048 0.03062 0.0
C1194 C 0.24782 0.51855 0.02867 0.0
C1195 C 0.25691 0.52771 0.04257 0.0
C1196 C 0.24667 0.53619 0.05386 0.0
C1197 C 0.23188 0.5317 0.04611 0.0
N1198 N 0.21494 0.49277 0.03367 0.0
C1199 C 0.2153 0.46662 0.05947 0.0
C1200 C 0.22909 0.47304 0.05325 0.0
C1201 C 0.22866 0.4861 0.0407 0.0
C1202 C 0.20128 0.47377 0.05331 0.0
C1203 C 0.20135 0.48672 0.04031 0.0
N1204 N 0.215 0.52707 0.99263 0.0
C1205 C 0.22906 0.54307 0.96927 0.0
C1206 C 0.21557 0.55109 0.96311 0.0
C1207 C 0.20176 0.54711 0.97217 0.0
C1208 C 0.2017 0.53501 0.98665 0.0
C1209 C 0.22855 0.53136 0.98403 0.0
H1210 H 0.19078 0.5323 0.99275 0.0
H1211 H 0.23934 0.52603 0.98823 0.0
H1212 H 0.23961 0.49042 0.03662 0.0
H1213 H 0.19031 0.49148 0.03552 0.0
C1214 C 0.17656 0.51188 0.01264 0.0
C1215 C 0.21779 0.53899 0.0533 0.0
C1216 C 0.21208 0.47996 0.9746 0.0
C1217 C 0.25346 0.50826 0.01338 0.0
H1218 H 0.18739 0.54727 0.06621 0.0
H1219 H 0.16463 0.53243 0.04396 0.0
H1220 H 0.16047 0.49226 0.98152 0.0
H1221 H 0.1801 0.47456 0.96091 0.0
H1222 H 0.24239 0.47103 0.96222 0.0
H1223 H 0.26527 0.48645 0.98349 0.0
H1224 H 0.26948 0.52834 0.04406 0.0
H1225 H 0.24972 0.5449 0.06615 0.0
H1226 H 0.24022 0.46797 0.05805 0.0
H1227 H 0.19033 0.46913 0.05797 0.0
H1228 H 0.24008 0.54597 0.96291 0.0
H1229 H 0.19102 0.55309 0.96782 0.0
C1230 C 0.47427 0.22848 0.98107 0.0
C1231 C 0.46754 0.24252 0.97532 0.0
C1232 C 0.47641 0.25395 0.9854 0.0
C1233 C 0.48795 0.24626 0.99672 0.0
N1234 N 0.48721 0.23062 0.99412 0.0
Co1235 Co 0.50071 0.21493 0.00922 0.0
N1236 N 0.51308 0.23167 0.02531 0.0
C1237 C 0.51174 0.24717 0.02279 0.0
C1238 C 0.52227 0.25579 0.03532 0.0
C1239 C 0.53106 0.24516 0.04625 0.0
C1240 C 0.52536 0.2306 0.03968 0.0
N1241 N 0.51345 0.19922 0.02543 0.0
C1242 C 0.5252 0.20122 0.04059 0.0
C1243 C 0.53078 0.18707 0.04786 0.0
C1244 C 0.52228 0.17576 0.03689 0.0
C1245 C 0.51204 0.18359 0.02361 0.0
N1246 N 0.489 0.19824 0.99218 0.0
C1247 C 0.49192 0.18283 0.99221 0.0
C1248 C 0.48191 0.17425 0.97879 0.0
C1249 C 0.4719 0.18481 0.96979 0.0
C1250 C 0.47641 0.19926 0.97835 0.0
N1251 N 0.51613 0.21545 0.98689 0.0
C1252 C 0.54087 0.21793 0.95967 0.0
C1253 C 0.53803 0.20403 0.96976 0.0
C1254 C 0.5256 0.203 0.98299 0.0
C1255 C 0.53044 0.23015 0.96231 0.0
C1256 C 0.51833 0.22871 0.97586 0.0
N1257 N 0.48541 0.21453 0.03148 0.0
C1258 C 0.46645 0.20092 0.05095 0.0
C1259 C 0.46284 0.21462 0.06198 0.0
C1260 C 0.4707 0.22821 0.05757 0.0
C1261 C 0.48176 0.22793 0.04232 0.0
C1262 C 0.47786 0.20109 0.036 0.0
H1263 H 0.4871 0.23877 0.03944 0.0
H1264 H 0.48038 0.19024 0.02826 0.0
H1265 H 0.52415 0.19211 0.99028 0.0
H1266 H 0.51117 0.23867 0.97741 0.0
C1267 C 0.49979 0.25332 0.00967 0.0
C1268 C 0.46777 0.21345 0.97412 0.0
C1269 C 0.53214 0.21614 0.0474 0.0
C1270 C 0.50235 0.17664 0.00749 0.0
H1271 H 0.45718 0.24428 0.96507 0.0
H1272 H 0.47457 0.26636 0.98476 0.0
H1273 H 0.52333 0.26832 0.03652 0.0
H1274 H 0.5406 0.24782 0.05776 0.0
H1275 H 0.54034 0.18505 0.05938 0.0
H1276 H 0.52381 0.16332 0.03786 0.0
H1277 H 0.48141 0.16173 0.97668 0.0
H1278 H 0.46205 0.18214 0.9588 0.0
H1279 H 0.54567 0.19414 0.96814 0.0
H1280 H 0.53174 0.24098 0.95423 0.0
H1281 H 0.46069 0.19011 0.05408 0.0
H1282 H 0.46813 0.23911 0.06565 0.0
C1283 C 0.78097 0.52685 0.04639 0.0
C1284 C 0.76662 0.5335 0.04996 0.0
C1285 C 0.75599 0.5262 0.03621 0.0
C1286 C 0.7644 0.51567 0.02495 0.0
N1287 N 0.77978 0.51569 0.03075 0.0
Co1288 Co 0.79634 0.50316 0.01716 0.0
N1289 N 0.78053 0.49189 0.9977 0.0
C1290 C 0.7649 0.49345 0.99743 0.0
C1291 C 0.75696 0.4835 0.98331 0.0
C1292 C 0.76818 0.47486 0.97418 0.0
C1293 C 0.78238 0.48016 0.98323 0.0
N1294 N 0.81296 0.49124 0.0027 0.0
C1295 C 0.81177 0.48008 0.98702 0.0
C1296 C 0.82626 0.47501 0.98127 0.0
C1297 C 0.83701 0.48316 0.99392 0.0
C1298 C 0.8285 0.49274 0.00655 0.0
N1299 N 0.81206 0.51372 0.0375 0.0
C1300 C 0.82757 0.51117 0.03895 0.0
C1301 C 0.83535 0.51977 0.05489 0.0
C1302 C 0.82413 0.52832 0.06421 0.0
C1303 C 0.81013 0.52449 0.05326 0.0
N1304 N 0.79442 0.48648 0.0379 0.0
C1305 C 0.79108 0.46131 0.06497 0.0
C1306 C 0.80555 0.46502 0.05746 0.0
C1307 C 0.80698 0.47764 0.04426 0.0
C1308 C 0.77847 0.47087 0.05934 0.0
C1309 C 0.78034 0.48318 0.04579 0.0
N1310 N 0.79821 0.51993 0.99642 0.0
C1311 C 0.81296 0.54073 0.9821 0.0
C1312 C 0.79994 0.54557 0.96973 0.0
C1313 C 0.78624 0.53694 0.97033 0.0
C1314 C 0.78563 0.52434 0.98367 0.0
C1315 C 0.81189 0.52791 0.99507 0.0
H1316 H 0.77475 0.51849 0.98352 0.0
H1317 H 0.82224 0.52484 0.00409 0.0
H1318 H 0.81833 0.47985 0.0391 0.0
H1319 H 0.77015 0.48971 0.0417 0.0
C1320 C 0.75807 0.50489 0.0099 0.0
C1321 C 0.79537 0.53165 0.05813 0.0
C1322 C 0.79724 0.47356 0.97769 0.0
C1323 C 0.83461 0.50175 0.02387 0.0
H1324 H 0.76406 0.54268 0.06131 0.0
H1325 H 0.74357 0.52822 0.03474 0.0
H1326 H 0.74451 0.48264 0.98002 0.0
H1327 H 0.76613 0.46567 0.96224 0.0
H1328 H 0.82877 0.4661 0.96948 0.0
H1329 H 0.84952 0.48184 0.99441 0.0
H1330 H 0.84774 0.52007 0.05892 0.0
H1331 H 0.82605 0.5366 0.07738 0.0
H1332 H 0.81571 0.45797 0.06117 0.0
H1333 H 0.76709 0.46883 0.06516 0.0
H1334 H 0.82387 0.54699 0.98222 0.0
H1335 H 0.77595 0.53988 0.96056 0.0
C1336 C 0.17208 0.26431 0.38458 0.0
C1337 C 0.16911 0.26385 0.36237 0.0
C1338 C 0.16149 0.27126 0.39786 0.0
C1339 C 0.12754 0.29722 0.39967 0.0
H1340 H 0.11431 0.26923 0.44229 0.0
C1341 C 0.0684 0.30305 0.4378 0.0
C1342 C 0.0671 0.29761 0.45841 0.0
C1343 C 0.08243 0.30148 0.42784 0.0
C1344 C 0.11804 0.27742 0.43088 0.0
H1345 H 0.15279 0.27045 0.33662 0.0
H1346 H 0.1344 0.28282 0.35983 0.0
H1347 H 0.13648 0.26246 0.42192 0.0
H1348 H 0.07942 0.28729 0.48543 0.0
H1349 H 0.10411 0.28514 0.46854 0.0
H1350 H 0.10903 0.31219 0.40858 0.0
C1351 C 0.14504 0.27799 0.36692 0.0
C1352 C 0.13076 0.27348 0.41914 0.0
C1353 C 0.15555 0.2709 0.35365 0.0
C1354 C 0.08017 0.29134 0.46937 0.0
C1355 C 0.09425 0.29004 0.45961 0.0
C1356 C 0.1149 0.3013 0.41165 0.0
C1357 C 0.14773 0.2779 0.38916 0.0
C1358 C 0.13545 0.28318 0.40316 0.0
C1359 C 0.09545 0.29467 0.43849 0.0
C1360 C 0.10981 0.29129 0.42714 0.0
H1361 H 0.18235 0.25879 0.39169 0.0
H1362 H 0.16384 0.27107 0.41496 0.0
H1363 H 0.13102 0.30495 0.38751 0.0
H1364 H 0.05841 0.30791 0.4291 0.0
H1365 H 0.08283 0.30501 0.41149 0.0
C1366 C 0.74496 0.17238 0.36806 0.0
C1367 C 0.75646 0.16646 0.34494 0.0
C1368 C 0.73874 0.15647 0.38357 0.0
C1369 C 0.75068 0.11184 0.39677 0.0
H1370 H 0.708 0.11086 0.41313 0.0
C1371 C 0.72558 0.057 0.43075 0.0
C1372 C 0.71662 0.05886 0.44858 0.0
C1373 C 0.72942 0.06981 0.41902 0.0
C1374 C 0.71999 0.11105 0.40886 0.0
H1375 H 0.77524 0.14542 0.33114 0.0
H1376 H 0.76519 0.12134 0.35806 0.0
H1377 H 0.71727 0.13305 0.39394 0.0
H1378 H 0.7042 0.07549 0.46771 0.0
H1379 H 0.71103 0.09798 0.44728 0.0
H1380 H 0.75356 0.09 0.41172 0.0
C1381 C 0.76073 0.13299 0.36008 0.0
C1382 C 0.7253 0.12377 0.39792 0.0
C1383 C 0.76763 0.14805 0.34383 0.0
C1384 C 0.71102 0.07371 0.45392 0.0
C1385 C 0.71494 0.08658 0.44223 0.0
C1386 C 0.74543 0.09921 0.40773 0.0
C1387 C 0.74614 0.13704 0.37903 0.0
C1388 C 0.74064 0.12415 0.39156 0.0
C1389 C 0.72449 0.08481 0.42493 0.0
C1390 C 0.72997 0.09854 0.41367 0.0
H1391 H 0.73978 0.18378 0.36945 0.0
H1392 H 0.73053 0.15862 0.39566 0.0
H1393 H 0.76269 0.11199 0.39263 0.0
H1394 H 0.72985 0.04565 0.42608 0.0
H1395 H 0.73646 0.06799 0.40546 0.0
C1396 C 0.84187 0.74173 0.37965 0.0
C1397 C 0.84348 0.74497 0.35812 0.0
C1398 C 0.85373 0.73414 0.39138 0.0
C1399 C 0.89006 0.71144 0.38663 0.0
H1400 H 0.9024 0.73191 0.44071 0.0
C1401 C 0.95207 0.70865 0.42569 0.0
C1402 C 0.954 0.70914 0.44796 0.0
C1403 C 0.93719 0.7096 0.4157 0.0
C1404 C 0.89896 0.7258 0.42589 0.0
H1405 H 0.85872 0.74281 0.33199 0.0
H1406 H 0.8794 0.72954 0.35241 0.0
H1407 H 0.87856 0.73972 0.42136 0.0
H1408 H 0.94231 0.71025 0.47744 0.0
H1409 H 0.91616 0.71171 0.46003 0.0
H1410 H 0.91077 0.69783 0.39092 0.0
C1411 C 0.86886 0.73256 0.36014 0.0
C1412 C 0.88527 0.7303 0.41477 0.0
C1413 C 0.85704 0.74019 0.34844 0.0
C1414 C 0.94094 0.70987 0.46019 0.0
C1415 C 0.92606 0.71081 0.45023 0.0
C1416 C 0.90376 0.70691 0.39778 0.0
C1417 C 0.86746 0.72971 0.38184 0.0
C1418 C 0.88086 0.72342 0.39479 0.0
C1419 C 0.92404 0.71107 0.42787 0.0
C1420 C 0.90855 0.7143 0.41731 0.0
H1421 H 0.83162 0.74545 0.38755 0.0
H1422 H 0.85228 0.73202 0.40804 0.0
H1423 H 0.88683 0.70577 0.37141 0.0
H1424 H 0.9621 0.70815 0.41609 0.0
H1425 H 0.93608 0.70996 0.39848 0.0
C1426 C 0.2668 0.83645 0.35774 0.0
C1427 C 0.2551 0.84167 0.33307 0.0
C1428 C 0.27267 0.85279 0.37494 0.0
C1429 C 0.25978 0.89736 0.38823 0.0
H1430 H 0.30254 0.89959 0.41119 0.0
C1431 C 0.2838 0.95329 0.42877 0.0
C1432 C 0.2928 0.95187 0.44796 0.0
C1433 C 0.28026 0.94023 0.41575 0.0
C1434 C 0.29052 0.89906 0.40507 0.0
H1435 H 0.23575 0.86199 0.31725 0.0
H1436 H 0.24529 0.88679 0.34683 0.0
H1437 H 0.29365 0.87686 0.38957 0.0
H1438 H 0.30561 0.93581 0.46825 0.0
H1439 H 0.29929 0.91288 0.44554 0.0
H1440 H 0.25652 0.9194 0.40372 0.0
C1441 C 0.25004 0.87529 0.34904 0.0
C1442 C 0.28543 0.88603 0.39274 0.0
C1443 C 0.24346 0.85977 0.33103 0.0
C1444 C 0.29875 0.93724 0.45344 0.0
C1445 C 0.29512 0.92412 0.44044 0.0
C1446 C 0.26482 0.91031 0.40056 0.0
C1447 C 0.26479 0.87194 0.3701 0.0
C1448 C 0.27006 0.88519 0.38403 0.0
C1449 C 0.28552 0.92543 0.4217 0.0
C1450 C 0.2803 0.91142 0.40892 0.0
H1451 H 0.27227 0.82521 0.35944 0.0
H1452 H 0.28097 0.85106 0.38823 0.0
H1453 H 0.24775 0.89687 0.38223 0.0
H1454 H 0.27927 0.96448 0.424 0.0
H1455 H 0.27316 0.9417 0.40114 0.0
C1456 C 0.14952 0.71024 0.65317 0.0
C1457 C 0.16333 0.71297 0.64308 0.0
C1458 C 0.13508 0.71292 0.64265 0.0
C1459 C 0.11584 0.73217 0.59592 0.0
H1460 H 0.08399 0.70106 0.60218 0.0
C1461 C 0.06125 0.72467 0.53839 0.0
C1462 C 0.04716 0.7213 0.54737 0.0
C1463 C 0.07508 0.72538 0.55115 0.0
C1464 C 0.09267 0.70997 0.60049 0.0
H1465 H 0.17289 0.72082 0.61416 0.0
H1466 H 0.14766 0.72523 0.59552 0.0
H1467 H 0.10882 0.69909 0.6224 0.0
H1468 H 0.03616 0.71657 0.57653 0.0
H1469 H 0.06042 0.71769 0.59899 0.0
H1470 H 0.09971 0.74277 0.57349 0.0
C1471 C 0.14796 0.72131 0.61175 0.0
C1472 C 0.10692 0.70887 0.61211 0.0
C1473 C 0.16241 0.7187 0.62235 0.0
C1474 C 0.04698 0.71907 0.56935 0.0
C1475 C 0.06082 0.71966 0.5821 0.0
C1476 C 0.10159 0.73322 0.58417 0.0
C1477 C 0.1341 0.71825 0.62168 0.0
C1478 C 0.11872 0.7199 0.60991 0.0
C1479 C 0.07505 0.72263 0.57308 0.0
C1480 C 0.08989 0.72208 0.58627 0.0
H1481 H 0.14987 0.7058 0.66914 0.0
H1482 H 0.12467 0.71069 0.65092 0.0
H1483 H 0.12458 0.74099 0.59406 0.0
H1484 H 0.06156 0.72642 0.52143 0.0
H1485 H 0.08587 0.72755 0.54372 0.0
C1486 C 0.256 0.15802 0.66524 0.0
C1487 C 0.24848 0.15528 0.68399 0.0
C1488 C 0.26526 0.14652 0.65628 0.0
C1489 C 0.26811 0.10425 0.6536 0.0
H1490 H 0.30643 0.11136 0.62592 0.0
C1491 C 0.29683 0.05395 0.61062 0.0
C1492 C 0.30132 0.05698 0.59008 0.0
C1493 C 0.2938 0.06617 0.62481 0.0
C1494 C 0.29572 0.10921 0.63353 0.0
H1495 H 0.24495 0.1385 0.7083 0.0
H1496 H 0.26127 0.11853 0.69289 0.0
H1497 H 0.29452 0.1327 0.64572 0.0
H1498 H 0.30706 0.07498 0.56851 0.0
H1499 H 0.30132 0.09645 0.59308 0.0
H1500 H 0.26881 0.08107 0.64093 0.0
C1501 C 0.25998 0.12952 0.68503 0.0
C1502 C 0.28892 0.12142 0.64486 0.0
C1503 C 0.25073 0.14098 0.69394 0.0
C1504 C 0.30369 0.0724 0.58436 0.0
C1505 C 0.30043 0.08467 0.59847 0.0
C1506 C 0.27483 0.09213 0.64226 0.0
C1507 C 0.26705 0.13202 0.66584 0.0
C1508 C 0.27499 0.11906 0.6549 0.0
C1509 C 0.2949 0.08167 0.61857 0.0
C1510 C 0.28866 0.09445 0.63197 0.0
H1511 H 0.2543 0.16888 0.65714 0.0
H1512 H 0.27041 0.14872 0.64135 0.0
H1513 H 0.25719 0.10213 0.66072 0.0
H1514 H 0.2951 0.04212 0.61541 0.0
H1515 H 0.28997 0.06345 0.64037 0.0
C1516 C 0.8466 0.31323 0.6557 0.0
C1517 C 0.83656 0.30047 0.65186 0.0
C1518 C 0.86146 0.31309 0.64788 0.0
C1519 C 0.89076 0.28647 0.62507 0.0
H1520 H 0.90615 0.32427 0.60159 0.0
C1521 C 0.93868 0.28736 0.56509 0.0
C1522 C 0.95047 0.29865 0.5683 0.0
C1523 C 0.92585 0.28758 0.57765 0.0
C1524 C 0.90208 0.31368 0.60833 0.0
H1525 H 0.83432 0.27744 0.63719 0.0
H1526 H 0.85989 0.27741 0.62276 0.0
H1527 H 0.88164 0.32472 0.61908 0.0
H1528 H 0.95807 0.31883 0.58769 0.0
H1529 H 0.93536 0.31942 0.60919 0.0
H1530 H 0.91096 0.27535 0.61346 0.0
C1531 C 0.85651 0.28742 0.63222 0.0
C1532 C 0.88805 0.31393 0.61842 0.0
C1533 C 0.84176 0.28749 0.64025 0.0
C1534 C 0.9491 0.31012 0.58449 0.0
C1535 C 0.93615 0.31044 0.59689 0.0
C1536 C 0.90467 0.2862 0.61475 0.0
C1537 C 0.86657 0.30022 0.63589 0.0
C1538 C 0.88209 0.30026 0.62664 0.0
C1539 C 0.9244 0.29917 0.59356 0.0
C1540 C 0.91035 0.29975 0.60603 0.0
H1541 H 0.84295 0.32334 0.66477 0.0
H1542 H 0.86897 0.32305 0.65133 0.0
H1543 H 0.88674 0.27581 0.63166 0.0
H1544 H 0.93914 0.27853 0.55254 0.0
H1545 H 0.91684 0.27889 0.57453 0.0
C1546 C 0.75418 0.85665 0.65868 0.0
C1547 C 0.76189 0.85968 0.67868 0.0
C1548 C 0.7443 0.86776 0.64938 0.0
C1549 C 0.73983 0.90991 0.64972 0.0
H1550 H 0.70196 0.9013 0.61493 0.0
C1551 C 0.70987 0.95891 0.60485 0.0
C1552 C 0.70591 0.95558 0.58325 0.0
C1553 C 0.713 0.94691 0.61888 0.0
C1554 C 0.71254 0.90387 0.62457 0.0
H1555 H 0.76508 0.87655 0.70483 0.0
H1556 H 0.74764 0.89581 0.68882 0.0
H1557 H 0.71457 0.88046 0.63525 0.0
H1558 H 0.70111 0.93723 0.55952 0.0
H1559 H 0.707 0.91615 0.58391 0.0
H1560 H 0.73831 0.93302 0.63859 0.0
C1561 C 0.74928 0.8849 0.68025 0.0
C1562 C 0.71974 0.89195 0.63619 0.0
C1563 C 0.75916 0.87384 0.6895 0.0
C1564 C 0.70408 0.94005 0.57617 0.0
C1565 C 0.70742 0.928 0.59017 0.0
C1566 C 0.73271 0.92175 0.63811 0.0
C1567 C 0.74206 0.88216 0.65985 0.0
C1568 C 0.73355 0.89484 0.64875 0.0
C1569 C 0.71251 0.93133 0.61149 0.0
C1570 C 0.71905 0.91888 0.62524 0.0
H1571 H 0.75625 0.84591 0.64992 0.0
H1572 H 0.73906 0.86538 0.63354 0.0
H1573 H 0.75065 0.91246 0.65882 0.0
H1574 H 0.71118 0.97084 0.61067 0.0
H1575 H 0.71648 0.94987 0.63532 0.0
C1576 C 0.87054 0.72006 0.68585 0.0
C1577 C 0.87171 0.73231 0.7011 0.0
C1578 C 0.8791 0.72034 0.66769 0.0
C1579 C 0.91507 0.73669 0.64942 0.0
H1580 H 0.89894 0.7218 0.59365 0.0
C1581 C 0.95259 0.73717 0.5768 0.0
C1582 C 0.95182 0.72399 0.56305 0.0
C1583 C 0.94191 0.73924 0.59247 0.0
C1584 C 0.90365 0.72587 0.60917 0.0
H1585 H 0.88269 0.7545 0.70929 0.0
H1586 H 0.89756 0.75511 0.67741 0.0
H1587 H 0.88161 0.72382 0.62298 0.0
H1588 H 0.9389 0.70282 0.55473 0.0
H1589 H 0.92056 0.70618 0.58256 0.0
H1590 H 0.93714 0.73843 0.63588 0.0
C1591 C 0.89004 0.74525 0.67953 0.0
C1592 C 0.89372 0.72706 0.62594 0.0
C1593 C 0.88145 0.74498 0.69768 0.0
C1594 C 0.93997 0.713 0.56523 0.0
C1595 C 0.92932 0.71504 0.581 0.0
C1596 C 0.925 0.73546 0.63271 0.0
C1597 C 0.88914 0.73282 0.6645 0.0
C1598 C 0.89935 0.73239 0.64629 0.0
C1599 C 0.93024 0.72813 0.59492 0.0
C1600 C 0.91944 0.72995 0.61241 0.0
H1601 H 0.86328 0.71006 0.68825 0.0
H1602 H 0.87832 0.71049 0.65657 0.0
H1603 H 0.91985 0.74057 0.66499 0.0
H1604 H 0.96164 0.7458 0.57575 0.0
H1605 H 0.94283 0.74956 0.60273 0.0
C1606 C 0.29095 0.84716 0.63681 0.0
C1607 C 0.27571 0.84406 0.64243 0.0
C1608 C 0.29451 0.8612 0.62754 0.0
C1609 C 0.27611 0.89229 0.59616 0.0
H1610 H 0.31359 0.91567 0.61276 0.0
C1611 C 0.29461 0.94459 0.54881 0.0
C1612 C 0.29923 0.95794 0.56082 0.0
C1613 C 0.29292 0.93045 0.55876 0.0
C1614 C 0.30306 0.90928 0.60801 0.0
H1615 H 0.25225 0.85309 0.64237 0.0
H1616 H 0.25847 0.87764 0.62634 0.0
H1617 H 0.30803 0.89168 0.63088 0.0
H1618 H 0.30593 0.96719 0.59235 0.0
H1619 H 0.30301 0.94237 0.60994 0.0
H1620 H 0.27099 0.90991 0.57354 0.0
C1621 C 0.26767 0.86924 0.62914 0.0
C1622 C 0.29994 0.8955 0.61825 0.0
C1623 C 0.26413 0.85526 0.63848 0.0
C1624 C 0.30251 0.95693 0.58284 0.0
C1625 C 0.30086 0.94275 0.59282 0.0
C1626 C 0.27926 0.90599 0.58587 0.0
C1627 C 0.28287 0.87233 0.62341 0.0
C1628 C 0.28638 0.8869 0.6125 0.0
C1629 C 0.29579 0.92942 0.58093 0.0
C1630 C 0.29275 0.91467 0.59168 0.0
H1631 H 0.30004 0.8386 0.63926 0.0
H1632 H 0.30628 0.86316 0.62304 0.0
H1633 H 0.26566 0.88584 0.59118 0.0
H1634 H 0.292 0.94522 0.53179 0.0
H1635 H 0.28921 0.92035 0.54912 0.0
C1636 C 0.13425 0.29468 0.69713 0.0
C1637 C 0.13629 0.28015 0.70648 0.0
C1638 C 0.12519 0.29609 0.67814 0.0
C1639 C 0.09243 0.27674 0.64845 0.0
H1640 H 0.10053 0.30656 0.60535 0.0
C1641 C 0.04397 0.29723 0.58972 0.0
C1642 C 0.04744 0.298 0.56832 0.0
C1643 C 0.05585 0.2951 0.60541 0.0
C1644 C 0.09818 0.2981 0.61717 0.0
H1645 H 0.13059 0.25564 0.70313 0.0
H1646 H 0.11505 0.25802 0.66965 0.0
H1647 H 0.12036 0.30173 0.63382 0.0
H1648 H 0.06572 0.29751 0.5462 0.0
H1649 H 0.0867 0.29383 0.57374 0.0
H1650 H 0.07032 0.27305 0.63184 0.0
C1651 C 0.12037 0.26836 0.6771 0.0
C1652 C 0.10947 0.29541 0.63355 0.0
C1653 C 0.12938 0.26696 0.69616 0.0
C1654 C 0.06293 0.29708 0.56275 0.0
C1655 C 0.07486 0.29498 0.57846 0.0
C1656 C 0.08117 0.27944 0.63213 0.0
C1657 C 0.11788 0.283 0.66813 0.0
C1658 C 0.10663 0.28485 0.64954 0.0
C1659 C 0.0714 0.29367 0.59992 0.0
C1660 C 0.0838 0.29033 0.61652 0.0
H1661 H 0.13924 0.30505 0.70495 0.0
H1662 H 0.12332 0.30757 0.67187 0.0
H1663 H 0.08978 0.26866 0.6606 0.0
H1664 H 0.03202 0.29785 0.59418 0.0
H1665 H 0.05285 0.2944 0.62184 0.0
C1666 C 0.7154 0.16915 0.6347 0.0
C1667 C 0.73053 0.17241 0.64329 0.0
C1668 C 0.71161 0.1544 0.62608 0.0
C1669 C 0.71043 0.12617 0.59582 0.0
H1670 H 0.72714 0.08875 0.62127 0.0
C1671 C 0.71275 0.06763 0.5494 0.0
C1672 C 0.70955 0.05411 0.56021 0.0
C1673 C 0.71387 0.08194 0.5604 0.0
C1674 C 0.72224 0.09907 0.61408 0.0
H1675 H 0.75355 0.16283 0.64941 0.0
H1676 H 0.74697 0.13707 0.6343 0.0
H1677 H 0.73156 0.11384 0.6397 0.0
H1678 H 0.70494 0.04463 0.59067 0.0
H1679 H 0.70679 0.06976 0.6101 0.0
H1680 H 0.70111 0.11142 0.57021 0.0
C1681 C 0.73795 0.14582 0.63461 0.0
C1682 C 0.72491 0.11346 0.62453 0.0
C1683 C 0.74174 0.16057 0.64319 0.0
C1684 C 0.70736 0.05502 0.58212 0.0
C1685 C 0.70852 0.06934 0.59317 0.0
C1686 C 0.70779 0.11179 0.58536 0.0
C1687 C 0.72288 0.14259 0.62576 0.0
C1688 C 0.71919 0.12719 0.6154 0.0
C1689 C 0.71188 0.08295 0.58245 0.0
C1690 C 0.71382 0.0981 0.59424 0.0
H1691 H 0.70658 0.17812 0.63435 0.0
H1692 H 0.69986 0.15225 0.61955 0.0
H1693 H 0.70597 0.13653 0.58826 0.0
H1694 H 0.71459 0.06705 0.5325 0.0
H1695 H 0.7167 0.09216 0.55173 0.0
C1696 C 0.8502 0.2779 0.38545 0.0
C1697 C 0.84822 0.26582 0.37003 0.0
C1698 C 0.86505 0.28343 0.39179 0.0
C1699 C 0.9063 0.27123 0.39259 0.0
H1700 H 0.91328 0.31341 0.41442 0.0
C1701 C 0.96592 0.29175 0.42957 0.0
C1702 C 0.96503 0.29764 0.4505 0.0
C1703 C 0.95241 0.28989 0.41628 0.0
C1704 C 0.91149 0.30162 0.40826 0.0
H1705 H 0.86012 0.25078 0.34812 0.0
H1706 H 0.88604 0.26078 0.3586 0.0
H1707 H 0.88819 0.30634 0.39667 0.0
H1708 H 0.94977 0.30716 0.47364 0.0
H1709 H 0.92613 0.30428 0.45025 0.0
H1710 H 0.92965 0.26659 0.40425 0.0
C1711 C 0.87619 0.26562 0.36641 0.0
C1712 C 0.8971 0.29752 0.39822 0.0
C1713 C 0.86133 0.25994 0.36029 0.0
C1714 C 0.95065 0.30256 0.45754 0.0
C1715 C 0.93719 0.30096 0.44416 0.0
C1716 C 0.92075 0.27541 0.40233 0.0
C1717 C 0.87828 0.27721 0.38257 0.0
C1718 C 0.89417 0.28215 0.39078 0.0
C1719 C 0.93789 0.29423 0.4236 0.0
C1720 C 0.92335 0.29053 0.41072 0.0
H1721 H 0.84028 0.2828 0.39301 0.0
H1722 H 0.86614 0.29221 0.40445 0.0
H1723 H 0.90448 0.25924 0.38739 0.0
H1724 H 0.97697 0.28803 0.42383 0.0
H1725 H 0.95326 0.28478 0.40045 0.0
C1726 C 0.73657 0.86392 0.36171 0.0
C1727 C 0.72873 0.86271 0.34148 0.0
C1728 C 0.73243 0.87535 0.37655 0.0
C1729 C 0.7122 0.91328 0.37925 0.0
H1730 H 0.71724 0.90724 0.44011 0.0
C1731 C 0.71537 0.96467 0.43987 0.0
C1732 C 0.70875 0.96291 0.45948 0.0
C1733 C 0.71612 0.95204 0.42553 0.0
C1734 C 0.71556 0.90909 0.42317 0.0
H1735 H 0.7097 0.87184 0.32152 0.0
H1736 H 0.70207 0.8914 0.34765 0.0
H1737 H 0.72094 0.88541 0.41548 0.0
H1738 H 0.69754 0.94692 0.4796 0.0
H1739 H 0.69854 0.92478 0.45434 0.0
H1740 H 0.7065 0.93686 0.38694 0.0
C1741 C 0.71185 0.88394 0.35179 0.0
C1742 C 0.7179 0.8966 0.40901 0.0
C1743 C 0.71614 0.87266 0.33684 0.0
C1744 C 0.70266 0.94845 0.46447 0.0
C1745 C 0.70336 0.93581 0.4501 0.0
C1746 C 0.70975 0.92572 0.39339 0.0
C1747 C 0.72014 0.88566 0.37168 0.0
C1748 C 0.71649 0.89859 0.38685 0.0
C1749 C 0.71021 0.93742 0.4305 0.0
C1750 C 0.71166 0.92386 0.41552 0.0
H1751 H 0.74615 0.85624 0.36589 0.0
H1752 H 0.7392 0.87637 0.39159 0.0
H1753 H 0.71116 0.91536 0.36233 0.0
H1754 H 0.72019 0.97576 0.43585 0.0
H1755 H 0.7217 0.95367 0.41077 0.0
C1756 C 0.14256 0.74324 0.33244 0.0
C1757 C 0.15812 0.74012 0.33881 0.0
C1758 C 0.13046 0.7364 0.34265 0.0
C1759 C 0.12156 0.7196 0.39354 0.0
H1760 H 0.08331 0.7072 0.36195 0.0
C1761 C 0.06799 0.69957 0.43629 0.0
C1762 C 0.05425 0.70741 0.42996 0.0
C1763 C 0.08098 0.7002 0.424 0.0
C1764 C 0.09392 0.71059 0.37098 0.0
H1765 H 0.17322 0.72768 0.36122 0.0
H1766 H 0.15201 0.71552 0.37898 0.0
H1767 H 0.10579 0.71477 0.34274 0.0
H1768 H 0.04298 0.72118 0.40522 0.0
H1769 H 0.06561 0.72233 0.38385 0.0
H1770 H 0.10957 0.7158 0.42178 0.0
C1771 C 0.14919 0.72324 0.36601 0.0
C1772 C 0.10678 0.71497 0.36 0.0
C1773 C 0.16133 0.73009 0.35577 0.0
C1774 C 0.05348 0.71516 0.41058 0.0
C1775 C 0.0664 0.71569 0.39825 0.0
C1776 C 0.10871 0.71518 0.40452 0.0
C1777 C 0.13361 0.72636 0.3596 0.0
C1778 C 0.12062 0.7199 0.37116 0.0
C1779 C 0.08041 0.70855 0.40508 0.0
C1780 C 0.09463 0.711 0.39337 0.0
H1781 H 0.13976 0.75116 0.31971 0.0
H1782 H 0.11861 0.73936 0.33763 0.0
H1783 H 0.13198 0.72349 0.40264 0.0
H1784 H 0.06892 0.69357 0.45121 0.0
H1785 H 0.09159 0.69446 0.42956 0.0
C1786 C 0.28314 0.14518 0.36113 0.0
C1787 C 0.29678 0.15385 0.35897 0.0
C1788 C 0.28309 0.13292 0.37527 0.0
C1789 C 0.30929 0.10455 0.40076 0.0
H1790 H 0.27593 0.09836 0.43845 0.0
C1791 C 0.30193 0.04776 0.44596 0.0
C1792 C 0.29867 0.04943 0.46749 0.0
C1793 C 0.30165 0.0607 0.433 0.0
C1794 C 0.28536 0.09999 0.42807 0.0
H1795 H 0.32107 0.15625 0.36953 0.0
H1796 H 0.32099 0.13485 0.39421 0.0
H1797 H 0.27545 0.12097 0.41569 0.0
H1798 H 0.29254 0.06566 0.4925 0.0
H1799 H 0.29191 0.08836 0.4698 0.0
H1800 H 0.3192 0.08361 0.41308 0.0
C1801 C 0.31032 0.13762 0.38512 0.0
C1802 C 0.28502 0.11285 0.41494 0.0
C1803 C 0.31034 0.14994 0.37115 0.0
C1804 C 0.29506 0.06418 0.47589 0.0
C1805 C 0.29464 0.07709 0.4629 0.0
C1806 C 0.30955 0.09163 0.41372 0.0
C1807 C 0.29674 0.12889 0.3872 0.0
C1808 C 0.29701 0.11529 0.4012 0.0
C1809 C 0.29795 0.07549 0.44132 0.0
C1810 C 0.29761 0.08922 0.42754 0.0
H1811 H 0.27262 0.14769 0.35158 0.0
H1812 H 0.27251 0.12627 0.37635 0.0
H1813 H 0.31862 0.10604 0.39017 0.0
H1814 H 0.30463 0.03644 0.4392 0.0
H1815 H 0.3041 0.05909 0.41639 0.0
C1816 C 0.67336 0.77204 0.87096 0.0
C1817 C 0.66999 0.77197 0.84883 0.0
C1818 C 0.66295 0.77861 0.88484 0.0
C1819 C 0.62865 0.80414 0.88825 0.0
H1820 H 0.61771 0.77648 0.93258 0.0
C1821 C 0.57077 0.80846 0.92989 0.0
C1822 C 0.57038 0.80336 0.95083 0.0
C1823 C 0.58451 0.80738 0.91915 0.0
C1824 C 0.6208 0.78457 0.92066 0.0
H1825 H 0.65312 0.77874 0.82386 0.0
H1826 H 0.63499 0.79034 0.84812 0.0
H1827 H 0.63917 0.76986 0.91077 0.0
H1828 H 0.58408 0.79428 0.97761 0.0
H1829 H 0.60822 0.79293 0.95925 0.0
H1830 H 0.61013 0.81879 0.89802 0.0
C1831 C 0.6458 0.78557 0.8547 0.0
C1832 C 0.63312 0.78073 0.9081 0.0
C1833 C 0.65616 0.77891 0.84083 0.0
C1834 C 0.5841 0.79806 0.96132 0.0
C1835 C 0.59787 0.79722 0.95075 0.0
C1836 C 0.61638 0.80809 0.90098 0.0
C1837 C 0.64895 0.7852 0.87686 0.0
C1838 C 0.637 0.79032 0.89153 0.0
C1839 C 0.59814 0.80138 0.9293 0.0
C1840 C 0.61213 0.79819 0.9171 0.0
H1841 H 0.68384 0.7666 0.87754 0.0
H1842 H 0.66569 0.77822 0.90185 0.0
H1843 H 0.6315 0.81181 0.87569 0.0
H1844 H 0.56028 0.81254 0.92149 0.0
H1845 H 0.58421 0.81055 0.9026 0.0
C1846 C 0.26418 0.64742 0.83197 0.0
C1847 C 0.25499 0.66683 0.8346 0.0
C1848 C 0.2562 0.63269 0.84782 0.0
C1849 C 0.22245 0.62585 0.88981 0.0
H1850 H 0.24968 0.59088 0.90129 0.0
C1851 C 0.21119 0.57864 0.95202 0.0
C1852 C 0.21626 0.56349 0.94733 0.0
C1853 C 0.21409 0.59076 0.93833 0.0
C1854 C 0.24176 0.60038 0.89795 0.0
H1855 H 0.2408 0.6851 0.86093 0.0
H1856 H 0.22981 0.66028 0.88651 0.0
H1857 H 0.25828 0.61164 0.8797 0.0
H1858 H 0.22723 0.54884 0.92406 0.0
H1859 H 0.23185 0.56973 0.89991 0.0
H1860 H 0.20596 0.61449 0.90847 0.0
C1861 C 0.23729 0.65762 0.87368 0.0
C1862 C 0.24671 0.61234 0.88548 0.0
C1863 C 0.24469 0.67326 0.85862 0.0
C1864 C 0.2234 0.56047 0.92817 0.0
C1865 C 0.22614 0.57248 0.91443 0.0
C1866 C 0.21742 0.61378 0.90229 0.0
C1867 C 0.24262 0.63766 0.86783 0.0
C1868 C 0.23711 0.62515 0.88114 0.0
C1869 C 0.22201 0.58787 0.91966 0.0
C1870 C 0.227 0.60083 0.90638 0.0
H1871 H 0.2712 0.64436 0.81877 0.0
H1872 H 0.25955 0.62073 0.84511 0.0
H1873 H 0.21477 0.63557 0.88666 0.0
H1874 H 0.20571 0.58125 0.96677 0.0
H1875 H 0.2108 0.60246 0.9429 0.0
C1876 C 0.35792 0.24353 0.85948 0.0
C1877 C 0.34402 0.24837 0.86821 0.0
C1878 C 0.36928 0.23586 0.87192 0.0
C1879 C 0.38393 0.23373 0.92721 0.0
H1880 H 0.41001 0.2011 0.905 0.0
C1881 C 0.4389 0.21377 0.97487 0.0
C1882 C 0.45216 0.21272 0.96307 0.0
C1883 C 0.42418 0.21475 0.96445 0.0
C1884 C 0.40283 0.21022 0.91142 0.0
H1885 H 0.33106 0.24893 0.89669 0.0
H1886 H 0.35097 0.23544 0.91854 0.0
H1887 H 0.38651 0.20887 0.88438 0.0
H1888 H 0.4608 0.21145 0.93151 0.0
H1889 H 0.43509 0.21338 0.9131 0.0
H1890 H 0.40051 0.23559 0.95379 0.0
C1891 C 0.35301 0.23753 0.90203 0.0
C1892 C 0.38938 0.21464 0.89963 0.0
C1893 C 0.3416 0.24516 0.88954 0.0
C1894 C 0.4506 0.21215 0.94078 0.0
C1895 C 0.4359 0.21316 0.93033 0.0
C1896 C 0.39739 0.22935 0.93895 0.0
C1897 C 0.36707 0.23302 0.89343 0.0
C1898 C 0.38001 0.22671 0.90717 0.0
C1899 C 0.42254 0.21477 0.94206 0.0
C1900 C 0.40721 0.21782 0.93094 0.0
H1901 H 0.36022 0.24613 0.84321 0.0
H1902 H 0.3801 0.2328 0.86494 0.0
H1903 H 0.37706 0.2432 0.93334 0.0
H1904 H 0.43999 0.21424 0.99214 0.0
H1905 H 0.41411 0.2158 0.97392 0.0
C1906 C 0.75051 0.37363 0.83534 0.0
C1907 C 0.75628 0.35361 0.84267 0.0
C1908 C 0.75898 0.38877 0.85255 0.0
C1909 C 0.78844 0.39496 0.90606 0.0
H1910 H 0.76835 0.43517 0.90289 0.0
C1911 C 0.79734 0.44498 0.96969 0.0
C1912 C 0.79731 0.4602 0.96234 0.0
C1913 C 0.79476 0.43241 0.95532 0.0
C1914 C 0.77429 0.4241 0.90373 0.0
H1915 H 0.76482 0.33653 0.87484 0.0
H1916 H 0.77679 0.36216 0.90189 0.0
H1917 H 0.75869 0.41394 0.87976 0.0
H1918 H 0.79534 0.47442 0.93456 0.0
H1919 H 0.79099 0.45246 0.90927 0.0
H1920 H 0.80372 0.40523 0.93079 0.0
C1921 C 0.77116 0.36445 0.88649 0.0
C1922 C 0.76877 0.41187 0.89036 0.0
C1923 C 0.76306 0.34845 0.87029 0.0
C1924 C 0.79544 0.46271 0.94044 0.0
C1925 C 0.79284 0.45018 0.92607 0.0
C1926 C 0.79393 0.40723 0.91959 0.0
C1927 C 0.76956 0.38421 0.87736 0.0
C1928 C 0.77577 0.39716 0.89134 0.0
C1929 C 0.79202 0.43492 0.93341 0.0
C1930 C 0.7869 0.42195 0.91854 0.0
H1931 H 0.74541 0.37616 0.81969 0.0
H1932 H 0.75783 0.40067 0.84768 0.0
H1933 H 0.79421 0.38382 0.90706 0.0
H1934 H 0.79864 0.4429 0.98661 0.0
H1935 H 0.79409 0.42083 0.96148 0.0
C1936 C 0.66383 0.21693 0.13107 0.0
C1937 C 0.66567 0.20981 0.15088 0.0
C1938 C 0.64903 0.21878 0.12113 0.0
C1939 C 0.60916 0.20269 0.12075 0.0
H1940 H 0.59866 0.23871 0.0872 0.0
C1941 C 0.54759 0.21246 0.08192 0.0
C1942 C 0.54705 0.21658 0.06048 0.0
C1943 C 0.56175 0.2125 0.09397 0.0
C1944 C 0.60147 0.22856 0.09644 0.0
H1945 H 0.65348 0.19937 0.17605 0.0
H1946 H 0.62761 0.20296 0.15902 0.0
H1947 H 0.62394 0.23746 0.10674 0.0
H1948 H 0.56052 0.22424 0.03478 0.0
H1949 H 0.58536 0.22446 0.05588 0.0
H1950 H 0.58664 0.19384 0.11046 0.0
C1951 C 0.6376 0.20683 0.15091 0.0
C1952 C 0.61596 0.22781 0.10759 0.0
C1953 C 0.6524 0.20488 0.16076 0.0
C1954 C 0.56076 0.22104 0.05133 0.0
C1955 C 0.57489 0.22122 0.06341 0.0
C1956 C 0.59463 0.2035 0.10973 0.0
C1957 C 0.63573 0.21361 0.13083 0.0
C1958 C 0.62005 0.2148 0.11974 0.0
C1959 C 0.57556 0.21683 0.08481 0.0
C1960 C 0.59069 0.21637 0.09731 0.0
H1961 H 0.67388 0.22078 0.12308 0.0
H1962 H 0.64807 0.22386 0.10556 0.0
H1963 H 0.61199 0.19237 0.12961 0.0
H1964 H 0.53707 0.20909 0.08923 0.0
H1965 H 0.5619 0.20921 0.11047 0.0
C1966 C 0.77065 0.65463 0.14697 0.0
C1967 C 0.76107 0.65463 0.16427 0.0
C1968 C 0.77597 0.64068 0.1382 0.0
C1969 C 0.7666 0.59896 0.13317 0.0
H1970 H 0.80813 0.59594 0.11272 0.0
C1971 C 0.78816 0.54264 0.09341 0.0
C1972 C 0.79497 0.54468 0.07399 0.0
C1973 C 0.78577 0.5554 0.10704 0.0
C1974 C 0.7965 0.59663 0.11831 0.0
H1975 H 0.7491 0.63998 0.18553 0.0
H1976 H 0.75865 0.61555 0.17047 0.0
H1977 H 0.80035 0.61953 0.13172 0.0
H1978 H 0.80522 0.56124 0.05373 0.0
H1979 H 0.8011 0.58367 0.07754 0.0
H1980 H 0.76267 0.57617 0.11949 0.0
C1981 C 0.76208 0.62637 0.1637 0.0
C1982 C 0.79202 0.61014 0.12915 0.0
C1983 C 0.75672 0.64034 0.17245 0.0
C1984 C 0.80003 0.55948 0.06876 0.0
C1985 C 0.7977 0.57225 0.0824 0.0
C1986 C 0.7711 0.58544 0.1224 0.0
C1987 C 0.77174 0.62638 0.14643 0.0
C1988 C 0.77693 0.61157 0.13642 0.0
C1989 C 0.7902 0.5704 0.10145 0.0
C1990 C 0.78602 0.58421 0.11458 0.0
H1991 H 0.7739 0.66545 0.14005 0.0
H1992 H 0.78309 0.64112 0.1246 0.0
H1993 H 0.75483 0.59974 0.13826 0.0
H1994 H 0.78419 0.53125 0.09763 0.0
H1995 H 0.78015 0.55359 0.12173 0.0
C1996 C 0.34009 0.7871 0.12448 0.0
C1997 C 0.33818 0.79716 0.14213 0.0
C1998 C 0.35444 0.78602 0.11527 0.0
C1999 C 0.39031 0.8085 0.10997 0.0
H2000 H 0.40606 0.76944 0.0879 0.0
C2001 C 0.45002 0.80426 0.07346 0.0
C2002 C 0.45073 0.7953 0.05451 0.0
C2003 C 0.43687 0.80377 0.08539 0.0
C2004 C 0.40175 0.78045 0.09384 0.0
H2005 H 0.34979 0.81385 0.16408 0.0
H2006 H 0.37494 0.81177 0.14825 0.0
H2007 H 0.38212 0.76971 0.10684 0.0
H2008 H 0.43817 0.77876 0.03325 0.0
H2009 H 0.41518 0.77794 0.05404 0.0
H2010 H 0.4098 0.81927 0.09681 0.0
C2011 C 0.36532 0.80483 0.14138 0.0
C2012 C 0.38804 0.78061 0.10469 0.0
C2013 C 0.35097 0.80594 0.15056 0.0
C2014 C 0.43807 0.78566 0.04792 0.0
C2015 C 0.4249 0.78518 0.05985 0.0
C2016 C 0.404 0.80834 0.09914 0.0
C2017 C 0.36717 0.79501 0.12346 0.0
C2018 C 0.38211 0.79465 0.11277 0.0
C2019 C 0.4241 0.79432 0.07865 0.0
C2020 C 0.40984 0.79433 0.09083 0.0
H2021 H 0.33037 0.78035 0.11752 0.0
H2022 H 0.3554 0.7785 0.1013 0.0
H2023 H 0.38593 0.81955 0.11565 0.0
H2024 H 0.4597 0.8116 0.07917 0.0
H2025 H 0.43673 0.81075 0.09999 0.0
C2026 C 0.24697 0.37001 0.19226 0.0
C2027 C 0.25464 0.35668 0.18479 0.0
C2028 C 0.24035 0.3806 0.17792 0.0
C2029 C 0.24559 0.3951 0.125 0.0
H2030 H 0.20492 0.41375 0.12964 0.0
C2031 C 0.22339 0.43915 0.06419 0.0
C2032 C 0.21588 0.45238 0.07204 0.0
C2033 C 0.22595 0.42632 0.07697 0.0
C2034 C 0.21636 0.40876 0.12824 0.0
H2035 H 0.26156 0.34414 0.15656 0.0
H2036 H 0.25008 0.36269 0.13151 0.0
H2037 H 0.21358 0.39354 0.15421 0.0
H2038 H 0.20459 0.4625 0.09894 0.0
H2039 H 0.2095 0.44023 0.12174 0.0
H2040 H 0.24877 0.41055 0.09973 0.0
C2041 C 0.24904 0.36484 0.14843 0.0
C2042 C 0.22128 0.39716 0.14227 0.0
C2043 C 0.25552 0.35418 0.16273 0.0
C2044 C 0.21035 0.45235 0.09257 0.0
C2045 C 0.21313 0.43957 0.10555 0.0
C2046 C 0.24077 0.40676 0.11117 0.0
C2047 C 0.24155 0.37825 0.15588 0.0
C2048 C 0.23595 0.39021 0.14075 0.0
C2049 C 0.22135 0.42655 0.09808 0.0
C2050 C 0.22608 0.41375 0.11255 0.0
H2051 H 0.2464 0.37243 0.20919 0.0
H2052 H 0.23484 0.39095 0.18411 0.0
H2053 H 0.25708 0.39018 0.12371 0.0
H2054 H 0.2276 0.43889 0.04829 0.0
H2055 H 0.23189 0.41635 0.07043 0.0
C2056 C 0.37308 0.2434 0.20158 0.0
C2057 C 0.37076 0.23046 0.21417 0.0
C2058 C 0.38003 0.24163 0.18214 0.0
C2059 C 0.39423 0.21192 0.14302 0.0
H2060 H 0.42427 0.24418 0.13378 0.0
C2061 C 0.43599 0.2092 0.07342 0.0
C2062 C 0.45108 0.21499 0.07818 0.0
C2063 C 0.42456 0.21101 0.08823 0.0
C2064 C 0.41603 0.23499 0.13619 0.0
H2065 H 0.37372 0.20558 0.21615 0.0
H2066 H 0.38644 0.20253 0.18275 0.0
H2067 H 0.40676 0.24752 0.16221 0.0
H2068 H 0.46633 0.22641 0.10238 0.0
H2069 H 0.44668 0.22909 0.12844 0.0
H2070 H 0.4043 0.19901 0.11768 0.0
C2071 C 0.38241 0.21397 0.1874 0.0
C2072 C 0.40573 0.23704 0.15231 0.0
C2073 C 0.37522 0.21571 0.20664 0.0
C2074 C 0.45471 0.22205 0.09823 0.0
C2075 C 0.4434 0.22369 0.11306 0.0
C2076 C 0.4047 0.20979 0.12699 0.0
C2077 C 0.38524 0.22696 0.1751 0.0
C2078 C 0.39487 0.22542 0.15625 0.0
C2079 C 0.42808 0.21851 0.10812 0.0
C2080 C 0.41597 0.22116 0.12374 0.0
H2081 H 0.36988 0.25496 0.20695 0.0
H2082 H 0.38171 0.25186 0.17292 0.0
H2083 H 0.38584 0.20285 0.14531 0.0
H2084 H 0.43291 0.20379 0.05797 0.0
H2085 H 0.41288 0.20693 0.08386 0.0
C2086 C 0.76701 0.33489 0.14158 0.0
C2087 C 0.78073 0.3275 0.14898 0.0
C2088 C 0.76733 0.35029 0.13529 0.0
C2089 C 0.78974 0.38658 0.13891 0.0
H2090 H 0.77148 0.39289 0.08199 0.0
C2091 C 0.80088 0.44193 0.09191 0.0
C2092 C 0.78896 0.4472 0.07764 0.0
C2093 C 0.79921 0.42805 0.10256 0.0
C2094 C 0.77637 0.39149 0.09808 0.0
H2095 H 0.80557 0.33045 0.15562 0.0
H2096 H 0.80606 0.35754 0.14503 0.0
H2097 H 0.76945 0.36762 0.0978 0.0
H2098 H 0.76575 0.44199 0.06386 0.0
H2099 H 0.76252 0.41846 0.08325 0.0
H2100 H 0.79652 0.41051 0.13933 0.0
C2101 C 0.79504 0.35142 0.14435 0.0
C2102 C 0.77524 0.37696 0.10708 0.0
C2103 C 0.79476 0.33594 0.1504 0.0
C2104 C 0.77513 0.43849 0.07489 0.0
C2105 C 0.77338 0.42478 0.08577 0.0
C2106 C 0.79068 0.40123 0.13002 0.0
C2107 C 0.78138 0.35862 0.13634 0.0
C2108 C 0.78199 0.37433 0.12751 0.0
C2109 C 0.78551 0.41919 0.09939 0.0
C2110 C 0.78408 0.40384 0.10941 0.0
H2111 H 0.7561 0.32858 0.14006 0.0
H2112 H 0.75663 0.35562 0.12922 0.0
H2113 H 0.79498 0.38483 0.15475 0.0
H2114 H 0.81159 0.44844 0.09475 0.0
H2115 H 0.80886 0.42407 0.1128 0.0
C2116 C 0.63198 0.76926 0.18721 0.0
C2117 C 0.63971 0.75591 0.17994 0.0
C2118 C 0.62288 0.77816 0.17302 0.0
C2119 C 0.61174 0.78258 0.11474 0.0
H2120 H 0.57332 0.79776 0.13671 0.0
C2121 C 0.56257 0.80505 0.05778 0.0
C2122 C 0.54754 0.80031 0.06211 0.0
C2123 C 0.57489 0.80351 0.07308 0.0
C2124 C 0.58393 0.7935 0.13022 0.0
H2125 H 0.64441 0.74185 0.15199 0.0
H2126 H 0.62787 0.75668 0.12749 0.0
H2127 H 0.59323 0.78728 0.16095 0.0
H2128 H 0.53325 0.79103 0.08584 0.0
H2129 H 0.5547 0.78762 0.11225 0.0
H2130 H 0.60186 0.78755 0.08378 0.0
C2131 C 0.62916 0.76069 0.14397 0.0
C2132 C 0.59556 0.78772 0.14426 0.0
C2133 C 0.63854 0.75203 0.15807 0.0
C2134 C 0.54481 0.79471 0.08224 0.0
C2135 C 0.55713 0.79291 0.0974 0.0
C2136 C 0.59998 0.78806 0.10065 0.0
C2137 C 0.62094 0.77373 0.15129 0.0
C2138 C 0.60949 0.78181 0.13668 0.0
C2139 C 0.57242 0.79698 0.0929 0.0
C2140 C 0.58574 0.79323 0.10813 0.0
H2141 H 0.63267 0.77274 0.20392 0.0
H2142 H 0.61712 0.78834 0.17923 0.0
H2143 H 0.62244 0.77854 0.10829 0.0
H2144 H 0.56485 0.8095 0.04232 0.0
H2145 H 0.58639 0.80712 0.06917 0.0
C2146 C 0.24145 0.66909 0.13224 0.0
C2147 C 0.22787 0.67808 0.13074 0.0
C2148 C 0.24079 0.65309 0.12806 0.0
C2149 C 0.21397 0.61932 0.11971 0.0
H2150 H 0.24506 0.60461 0.08182 0.0
C2151 C 0.21648 0.5557 0.08644 0.0
C2152 C 0.21897 0.55426 0.06464 0.0
C2153 C 0.21796 0.57021 0.09698 0.0
C2154 C 0.23629 0.60854 0.09239 0.0
H2155 H 0.2029 0.6774 0.12435 0.0
H2156 H 0.20172 0.64945 0.11664 0.0
H2157 H 0.24679 0.63095 0.09675 0.0
H2158 H 0.22481 0.56642 0.03659 0.0
H2159 H 0.22734 0.59181 0.05487 0.0
H2160 H 0.20316 0.59699 0.11456 0.0
C2161 C 0.21286 0.65469 0.12143 0.0
C2162 C 0.23739 0.62358 0.10118 0.0
C2163 C 0.21352 0.67069 0.12571 0.0
C2164 C 0.22291 0.56738 0.05346 0.0
C2165 C 0.22444 0.58183 0.06396 0.0
C2166 C 0.21288 0.60423 0.11091 0.0
C2167 C 0.22654 0.64577 0.12208 0.0
C2168 C 0.22611 0.62924 0.11466 0.0
C2169 C 0.22206 0.58339 0.08585 0.0
C2170 C 0.22387 0.59882 0.0968 0.0
H2171 H 0.25265 0.67451 0.13611 0.0
H2172 H 0.25151 0.6465 0.129 0.0
H2173 H 0.20519 0.62331 0.13022 0.0
H2174 H 0.2135 0.54561 0.09526 0.0
H2175 H 0.21616 0.57106 0.11388 0.0
C2176 C 0.35209 0.7854 0.86739 0.0
C2177 C 0.34864 0.77076 0.8578 0.0
C2178 C 0.36717 0.78891 0.87555 0.0
C2179 C 0.40211 0.76961 0.89761 0.0
H2180 H 0.42142 0.81003 0.89338 0.0
C2181 C 0.45379 0.78919 0.9536 0.0
C2182 C 0.46628 0.79632 0.94441 0.0
C2183 C 0.43983 0.78651 0.94168 0.0
C2184 C 0.41621 0.79866 0.89456 0.0
H2185 H 0.35824 0.74836 0.84918 0.0
H2186 H 0.38462 0.75451 0.8633 0.0
H2187 H 0.39654 0.80442 0.87379 0.0
H2188 H 0.47421 0.80632 0.9158 0.0
H2189 H 0.44957 0.80181 0.8948 0.0
H2190 H 0.42166 0.76384 0.91841 0.0
C2191 C 0.37567 0.76327 0.86452 0.0
C2192 C 0.40193 0.79549 0.88349 0.0
C2193 C 0.36061 0.75978 0.85631 0.0
C2194 C 0.46458 0.80098 0.9232 0.0
C2195 C 0.45054 0.79839 0.91127 0.0
C2196 C 0.41629 0.77281 0.90875 0.0
C2197 C 0.37907 0.7778 0.8745 0.0
C2198 C 0.39467 0.78096 0.88506 0.0
C2199 C 0.43809 0.79093 0.92032 0.0
C2200 C 0.42341 0.78742 0.90756 0.0
H2201 H 0.34303 0.79398 0.86907 0.0
H2202 H 0.36936 0.80012 0.88342 0.0
H2203 H 0.39675 0.75837 0.89933 0.0
H2204 H 0.45495 0.78547 0.96994 0.0
H2205 H 0.43037 0.78094 0.94918 0.0
C2206 C 0.23397 0.36902 0.85842 0.0
C2207 C 0.22108 0.36094 0.84887 0.0
C2208 C 0.23201 0.38017 0.87462 0.0
C2209 C 0.20237 0.40687 0.89376 0.0
H2210 H 0.2327 0.41417 0.94103 0.0
C2211 C 0.20756 0.46538 0.93992 0.0
C2212 C 0.211 0.46522 0.96195 0.0
C2213 C 0.20754 0.45155 0.92779 0.0
C2214 C 0.22401 0.41218 0.92808 0.0
H2215 H 0.19612 0.35796 0.84899 0.0
H2216 H 0.19269 0.37724 0.87752 0.0
H2217 H 0.23511 0.39128 0.91768 0.0
H2218 H 0.21703 0.45086 0.98883 0.0
H2219 H 0.21686 0.42649 0.96765 0.0
H2220 H 0.19126 0.42772 0.90413 0.0
C2221 C 0.20429 0.37508 0.87238 0.0
C2222 C 0.22549 0.39916 0.91457 0.0
C2223 C 0.20626 0.36396 0.85616 0.0
C2224 C 0.21429 0.45111 0.9718 0.0
C2225 C 0.21428 0.43725 0.95968 0.0
C2226 C 0.20089 0.41986 0.90725 0.0
C2227 C 0.2171 0.38351 0.88151 0.0
C2228 C 0.21482 0.39649 0.89706 0.0
C2229 C 0.21103 0.43734 0.9375 0.0
C2230 C 0.21184 0.42282 0.92434 0.0
H2231 H 0.2455 0.36702 0.85291 0.0
H2232 H 0.24209 0.3866 0.88111 0.0
H2233 H 0.19403 0.40525 0.88031 0.0
H2234 H 0.20517 0.47624 0.9321 0.0
H2235 H 0.20525 0.45205 0.9107 0.0
C2236 C 0.66149 0.22544 0.86455 0.0
C2237 C 0.66713 0.24074 0.86348 0.0
C2238 C 0.64741 0.22255 0.87371 0.0
C2239 C 0.62267 0.23832 0.91383 0.0
H2240 H 0.58988 0.21281 0.88607 0.0
C2241 C 0.56285 0.23438 0.9486 0.0
C2242 C 0.55496 0.22005 0.94742 0.0
C2243 C 0.57628 0.23647 0.93768 0.0
C2244 C 0.59901 0.21977 0.89419 0.0
H2245 H 0.66266 0.26486 0.87164 0.0
H2246 H 0.63817 0.25976 0.888 0.0
H2247 H 0.61384 0.21717 0.86807 0.0
H2248 H 0.55504 0.19669 0.93353 0.0
H2249 H 0.57887 0.20017 0.91506 0.0
H2250 H 0.60822 0.24066 0.94014 0.0
C2251 C 0.64454 0.25009 0.88142 0.0
C2252 C 0.61268 0.22231 0.88382 0.0
C2253 C 0.65847 0.253 0.87198 0.0
C2254 C 0.56089 0.20784 0.93497 0.0
C2255 C 0.57446 0.2099 0.92416 0.0
C2256 C 0.60913 0.23563 0.92429 0.0
C2257 C 0.63892 0.23483 0.88247 0.0
C2258 C 0.62455 0.23175 0.89347 0.0
C2259 C 0.58237 0.22423 0.92549 0.0
C2260 C 0.59703 0.22648 0.91452 0.0
H2261 H 0.66804 0.21569 0.85857 0.0
H2262 H 0.6434 0.21067 0.87456 0.0
H2263 H 0.63177 0.24541 0.92178 0.0
H2264 H 0.55883 0.24399 0.9583 0.0
H2265 H 0.58186 0.24776 0.9388 0.0
C2266 C 0.80544 0.64963 0.84043 0.0
C2267 C 0.79046 0.65536 0.83531 0.0
C2268 C 0.80797 0.63924 0.85693 0.0
C2269 C 0.79127 0.62429 0.90483 0.0
H2270 H 0.81362 0.58656 0.89118 0.0
C2271 C 0.78751 0.56941 0.95425 0.0
C2272 C 0.80048 0.55956 0.95643 0.0
C2273 C 0.78766 0.5822 0.94113 0.0
C2274 C 0.80763 0.59714 0.89548 0.0
H2275 H 0.76631 0.6545 0.8432 0.0
H2276 H 0.77077 0.63652 0.87228 0.0
H2277 H 0.81149 0.60718 0.8655 0.0
H2278 H 0.82399 0.55574 0.94681 0.0
H2279 H 0.82448 0.5784 0.92455 0.0
H2280 H 0.78738 0.6143 0.9348 0.0
C2281 C 0.7806 0.64028 0.86374 0.0
C2282 C 0.80637 0.60894 0.88071 0.0
C2283 C 0.77804 0.65055 0.84711 0.0
C2284 C 0.81381 0.5631 0.94562 0.0
C2285 C 0.81402 0.576 0.93263 0.0
C2286 C 0.79266 0.61255 0.91971 0.0
C2287 C 0.79555 0.63438 0.86864 0.0
C2288 C 0.79796 0.62251 0.88509 0.0
C2289 C 0.80087 0.5856 0.93002 0.0
C2290 C 0.80061 0.5987 0.91506 0.0
H2291 H 0.81516 0.65297 0.83137 0.0
H2292 H 0.81961 0.6349 0.86042 0.0
H2293 H 0.78489 0.63473 0.90871 0.0
H2294 H 0.77714 0.56725 0.96266 0.0
H2295 H 0.77725 0.58919 0.93934 0.0
loop_
_geom_bond_atom_site_label_1
_geom_bond_atom_site_label_2
_geom_bond_distance
_geom_bond_site_symmetry_2
_ccdc_geom_bond_type
C0 C1 1.560 . S
C0 H61 0.959 . S
C0 H62 0.959 . S
C0 H63 0.960 . S
C1 C0 1.560 . S
C1 O56 1.426 . S
C1 H60 0.980 . S
C2 C3 1.407 . S
C2 C7 1.418 . S
C2 O56 1.334 . S
C3 C2 1.407 . S
C3 C4 1.360 . S
C3 H64 0.929 . S
C4 C3 1.360 . S
C4 C5 1.401 . S
C4 C8 1.527 . S
C5 C4 1.401 . S
C5 C6 1.405 . S
C5 C38 1.587 . S
C6 C5 1.405 . S
C6 C7 1.332 . S
C6 C9 1.496 . S
C7 C2 1.418 . S
C7 C6 1.332 . S
C7 H65 0.929 . S
C8 C4 1.527 . S
C8 H66 0.959 . S
C8 H67 0.961 . S
C8 H68 0.961 . S
C9 C6 1.496 . S
C9 H69 0.960 . S
C9 H70 0.960 . S
C9 H71 0.961 . S
C10 C11 1.517 . S
C10 H73 0.961 . S
C10 H74 0.960 . S
C10 H75 0.959 . S
C11 C10 1.517 . S
C11 O59 1.468 . S
C11 H72 0.980 . S
C12 C13 1.349 . S
C12 C17 1.367 . S
C12 O59 1.408 . S
C13 C12 1.349 . S
C13 C14 1.407 . S
C13 H76 0.930 . S
C14 C13 1.407 . S
C14 C15 1.449 . S
C14 C18 1.535 . S
C15 C14 1.449 . S
C15 C16 1.384 . S
C15 C40 1.553 . S
C16 C15 1.384 . S
C16 C17 1.364 . S
C16 C19 1.450 . S
C17 C12 1.367 . S
C17 C16 1.364 . S
C17 H77 0.931 . S
C18 C14 1.535 . S
C18 H78 0.959 . S
C18 H79 0.961 . S
C18 H80 0.959 . S
C19 C16 1.450 . S
C19 H81 0.960 . S
C19 H82 0.960 . S
C19 H83 0.960 . S
C20 C21 1.309 . S
C20 C25 1.304 . S
C20 O58 1.435 . S
C21 C20 1.309 . S
C21 C22 1.476 . S
C21 H85 0.930 . S
C22 C21 1.476 . S
C22 C23 1.400 . S
C22 C26 1.567 . S
C23 C22 1.400 . S
C23 C24 1.373 . S
C23 C45 1.432 . S
C24 C23 1.373 . S
C24 C25 1.339 . S
C24 C27 1.530 . S
C25 C20 1.304 . S
C25 C24 1.339 . S
C25 H86 0.930 . S
C26 C22 1.567 . S
C26 H87 0.961 . S
C26 H88 0.960 . S
C26 H89 0.958 . S
C27 C24 1.530 . S
C27 H90 0.961 . S
C27 H91 0.960 . S
C27 H92 0.960 . S
C28 C29 1.530 . S
C28 H94 0.961 . S
C28 H95 0.961 . S
C28 H96 0.959 . S
C29 C28 1.530 . S
C29 O57 1.412 . S
C29 H93 0.980 . S
C30 C31 1.288 . S
C30 C35 1.377 . S
C30 O57 1.393 . S
C31 C30 1.288 . S
C31 C32 1.369 . S
C31 H97 0.932 . S
C32 C31 1.369 . S
C32 C33 1.398 . S
C32 C36 1.527 . S
C33 C32 1.398 . S
C33 C34 1.380 . S
C33 C47 1.497 . S
C34 C33 1.380 . S
C34 C35 1.383 . S
C34 C37 1.603 . S
C35 C30 1.377 . S
C35 C34 1.383 . S
C35 H98 0.929 . S
C36 C32 1.527 . S
C36 H99 0.961 . S
C36 H100 0.959 . S
C36 H101 0.959 . S
C37 C34 1.603 . S
C37 H102 0.960 . S
C37 H103 0.962 . S
C37 H104 0.961 . S
C38 C5 1.587 . S
C38 C39 1.360 . S
C38 C51 1.412 . S
C39 C38 1.360 . S
C39 C40 1.365 . S
C39 H105 0.929 . S
C40 C15 1.553 . S
C40 C39 1.365 . S
C40 C41 1.404 . S
C41 C40 1.404 . S
C41 C42 1.395 . S
C41 C52 1.451 . S
C42 C41 1.395 . S
C42 C43 1.322 . S
C42 H106 0.930 . S
C43 C42 1.322 . S
C43 C44 1.459 . S
C43 H107 0.929 . S
C44 C43 1.459 . S
C44 C45 1.445 . S
C44 C53 1.395 . S
C45 C23 1.432 . S
C45 C44 1.445 . S
C45 C46 1.370 . S
C46 C45 1.370 . S
C46 C47 1.438 . S
C46 H108 0.930 . S
C47 C33 1.497 . S
C47 C46 1.438 . S
C47 C48 1.360 . S
C48 C47 1.360 . S
C48 C49 1.401 . S
C48 C53 1.446 . S
C49 C48 1.401 . S
C49 C50 1.347 . S
C49 H109 0.929 . S
C50 C49 1.347 . S
C50 C51 1.455 . S
C50 H110 0.930 . S
C51 C38 1.412 . S
C51 C50 1.455 . S
C51 C52 1.331 . S
C52 C41 1.451 . S
C52 C51 1.331 . S
C52 C53 1.497 . S
C53 C44 1.395 . S
C53 C48 1.446 . S
C53 C52 1.497 . S
C54 C55 1.582 . S
C54 H111 0.962 . S
C54 H112 0.959 . S
C54 H113 0.958 . S
C55 C54 1.582 . S
C55 O58 1.458 . S
C55 H84 0.980 . S
O56 C1 1.426 . S
O56 C2 1.334 . S
O57 C29 1.412 . S
O57 C30 1.393 . S
O58 C20 1.435 . S
O58 C55 1.458 . S
O59 C11 1.468 . S
O59 C12 1.408 . S
H60 C1 0.980 . S
H61 C0 0.959 . S
H62 C0 0.959 . S
H63 C0 0.960 . S
H64 C3 0.929 . S
H65 C7 0.929 . S
H66 C8 0.959 . S
H67 C8 0.961 . S
H68 C8 0.961 . S
H69 C9 0.960 . S
H70 C9 0.960 . S
H71 C9 0.961 . S
H72 C11 0.980 . S
H73 C10 0.961 . S
H74 C10 0.960 . S
H75 C10 0.959 . S
H76 C13 0.930 . S
H77 C17 0.931 . S
H78 C18 0.959 . S
H79 C18 0.961 . S
H80 C18 0.959 . S
H81 C19 0.960 . S
H82 C19 0.960 . S
H83 C19 0.960 . S
H84 C55 0.980 . S
H85 C21 0.930 . S
H86 C25 0.930 . S
H87 C26 0.961 . S
H88 C26 0.960 . S
H89 C26 0.958 . S
H90 C27 0.961 . S
H91 C27 0.960 . S
H92 C27 0.960 . S
H93 C29 0.980 . S
H94 C28 0.961 . S
H95 C28 0.961 . S
H96 C28 0.959 . S
H97 C31 0.932 . S
H98 C35 0.929 . S
H99 C36 0.961 . S
H100 C36 0.959 . S
H101 C36 0.959 . S
H102 C37 0.960 . S
H103 C37 0.962 . S
H104 C37 0.961 . S
H105 C39 0.929 . S
H106 C42 0.930 . S
H107 C43 0.929 . S
H108 C46 0.930 . S
H109 C49 0.929 . S
H110 C50 0.930 . S
H111 C54 0.962 . S
H112 C54 0.959 . S
H113 C54 0.958 . S
C114 C115 1.560 . S
C114 H175 0.959 . S
C114 H176 0.959 . S
C114 H177 0.960 . S
C115 C114 1.560 . S
C115 O170 1.426 . S
C115 H174 0.980 . S
C116 C117 1.407 . S
C116 C121 1.418 . S
C116 O170 1.334 . S
C117 C116 1.407 . S
C117 C118 1.360 . S
C117 H178 0.929 . S
C118 C117 1.360 . S
C118 C119 1.401 . S
C118 C122 1.527 . S
C119 C118 1.401 . S
C119 C120 1.405 . S
C119 C152 1.587 . S
C120 C119 1.405 . S
C120 C121 1.332 . S
C120 C123 1.496 . S
C121 C116 1.418 . S
C121 C120 1.332 . S
C121 H179 0.929 . S
C122 C118 1.527 . S
C122 H180 0.959 . S
C122 H181 0.961 . S
C122 H182 0.961 . S
C123 C120 1.496 . S
C123 H183 0.960 . S
C123 H184 0.960 . S
C123 H185 0.961 . S
C124 C125 1.517 . S
C124 H187 0.961 . S
C124 H188 0.960 . S
C124 H189 0.959 . S
C125 C124 1.517 . S
C125 O173 1.468 . S
C125 H186 0.980 . S
C126 C127 1.349 . S
C126 C131 1.367 . S
C126 O173 1.408 . S
C127 C126 1.349 . S
C127 C128 1.407 . S
C127 H190 0.930 . S
C128 C127 1.407 . S
C128 C129 1.449 . S
C128 C132 1.535 . S
C129 C128 1.449 . S
C129 C130 1.384 . S
C129 C154 1.553 . S
C130 C129 1.384 . S
C130 C131 1.364 . S
C130 C133 1.450 . S
C131 C126 1.367 . S
C131 C130 1.364 . S
C131 H191 0.931 . S
C132 C128 1.535 . S
C132 H192 0.959 . S
C132 H193 0.961 . S
C132 H194 0.959 . S
C133 C130 1.450 . S
C133 H195 0.960 . S
C133 H196 0.960 . S
C133 H197 0.960 . S
C134 C135 1.309 . S
C134 C139 1.304 . S
C134 O172 1.435 . S
C135 C134 1.309 . S
C135 C136 1.476 . S
C135 H199 0.930 . S
C136 C135 1.476 . S
C136 C137 1.400 . S
C136 C140 1.567 . S
C137 C136 1.400 . S
C137 C138 1.373 . S
C137 C159 1.432 . S
C138 C137 1.373 . S
C138 C139 1.339 . S
C138 C141 1.530 . S
C139 C134 1.304 . S
C139 C138 1.339 . S
C139 H200 0.930 . S
C140 C136 1.567 . S
C140 H201 0.961 . S
C140 H202 0.960 . S
C140 H203 0.958 . S
C141 C138 1.530 . S
C141 H204 0.961 . S
C141 H205 0.960 . S
C141 H206 0.960 . S
C142 C143 1.530 . S
C142 H208 0.961 . S
C142 H209 0.961 . S
C142 H210 0.959 . S
C143 C142 1.530 . S
C143 O171 1.412 . S
C143 H207 0.980 . S
C144 C145 1.288 . S
C144 C149 1.377 . S
C144 O171 1.393 . S
C145 C144 1.288 . S
C145 C146 1.369 . S
C145 H211 0.932 . S
C146 C145 1.369 . S
C146 C147 1.398 . S
C146 C150 1.527 . S
C147 C146 1.398 . S
C147 C148 1.380 . S
C147 C161 1.497 . S
C148 C147 1.380 . S
C148 C149 1.383 . S
C148 C151 1.603 . S
C149 C144 1.377 . S
C149 C148 1.383 . S
C149 H212 0.929 . S
C150 C146 1.527 . S
C150 H213 0.961 . S
C150 H214 0.959 . S
C150 H215 0.959 . S
C151 C148 1.603 . S
C151 H216 0.960 . S
C151 H217 0.962 . S
C151 H218 0.961 . S
C152 C119 1.587 . S
C152 C153 1.360 . S
C152 C165 1.412 . S
C153 C152 1.360 . S
C153 C154 1.365 . S
C153 H219 0.929 . S
C154 C129 1.553 . S
C154 C153 1.365 . S
C154 C155 1.404 . S
C155 C154 1.404 . S
C155 C156 1.395 . S
C155 C166 1.451 . S
C156 C155 1.395 . S
C156 C157 1.322 . S
C156 H220 0.930 . S
C157 C156 1.322 . S
C157 C158 1.459 . S
C157 H221 0.929 . S
C158 C157 1.459 . S
C158 C159 1.445 . S
C158 C167 1.395 . S
C159 C137 1.432 . S
C159 C158 1.445 . S
C159 C160 1.370 . S
C160 C159 1.370 . S
C160 C161 1.438 . S
C160 H222 0.930 . S
C161 C147 1.497 . S
C161 C160 1.438 . S
C161 C162 1.360 . S
C162 C161 1.360 . S
C162 C163 1.401 . S
C162 C167 1.446 . S
C163 C162 1.401 . S
C163 C164 1.347 . S
C163 H223 0.929 . S
C164 C163 1.347 . S
C164 C165 1.455 . S
C164 H224 0.930 . S
C165 C152 1.412 . S
C165 C164 1.455 . S
C165 C166 1.331 . S
C166 C155 1.451 . S
C166 C165 1.331 . S
C166 C167 1.497 . S
C167 C158 1.395 . S
C167 C162 1.446 . S
C167 C166 1.497 . S
C168 C169 1.582 . S
C168 H225 0.962 . S
C168 H226 0.959 . S
C168 H227 0.958 . S
C169 C168 1.582 . S
C169 O172 1.458 . S
C169 H198 0.980 . S
O170 C115 1.426 . S
O170 C116 1.334 . S
O171 C143 1.412 . S
O171 C144 1.393 . S
O172 C134 1.435 . S
O172 C169 1.458 . S
O173 C125 1.468 . S
O173 C126 1.408 . S
H174 C115 0.980 . S
H175 C114 0.959 . S
H176 C114 0.959 . S
H177 C114 0.960 . S
H178 C117 0.929 . S
H179 C121 0.929 . S
H180 C122 0.959 . S
H181 C122 0.961 . S
H182 C122 0.961 . S
H183 C123 0.960 . S
H184 C123 0.960 . S
H185 C123 0.961 . S
H186 C125 0.980 . S
H187 C124 0.961 . S
H188 C124 0.960 . S
H189 C124 0.959 . S
H190 C127 0.930 . S
H191 C131 0.931 . S
H192 C132 0.959 . S
H193 C132 0.961 . S
H194 C132 0.959 . S
H195 C133 0.960 . S
H196 C133 0.960 . S
H197 C133 0.960 . S
H198 C169 0.980 . S
H199 C135 0.930 . S
H200 C139 0.930 . S
H201 C140 0.961 . S
H202 C140 0.960 . S
H203 C140 0.958 . S
H204 C141 0.961 . S
H205 C141 0.960 . S
H206 C141 0.960 . S
H207 C143 0.980 . S
H208 C142 0.961 . S
H209 C142 0.961 . S
H210 C142 0.959 . S
H211 C145 0.932 . S
H212 C149 0.929 . S
H213 C150 0.961 . S
H214 C150 0.959 . S
H215 C150 0.959 . S
H216 C151 0.960 . S
H217 C151 0.962 . S
H218 C151 0.961 . S
H219 C153 0.929 . S
H220 C156 0.930 . S
H221 C157 0.929 . S
H222 C160 0.930 . S
H223 C163 0.929 . S
H224 C164 0.930 . S
H225 C168 0.962 . S
H226 C168 0.959 . S
H227 C168 0.958 . S
C228 C229 1.560 . S
C228 H289 0.959 . S
C228 H290 0.959 . S
C228 H291 0.960 . S
C229 C228 1.560 . S
C229 O284 1.426 . S
C229 H288 0.980 . S
C230 C231 1.407 . S
C230 C235 1.418 . S
C230 O284 1.334 . S
C231 C230 1.407 . S
C231 C232 1.360 . S
C231 H292 0.929 . S
C232 C231 1.360 . S
C232 C233 1.401 . S
C232 C236 1.527 . S
C233 C232 1.401 . S
C233 C234 1.405 . S
C233 C266 1.587 . S
C234 C233 1.405 . S
C234 C235 1.332 . S
C234 C237 1.496 . S
C235 C230 1.418 . S
C235 C234 1.332 . S
C235 H293 0.929 . S
C236 C232 1.527 . S
C236 H294 0.959 . S
C236 H295 0.961 . S
C236 H296 0.961 . S
C237 C234 1.496 . S
C237 H297 0.960 . S
C237 H298 0.960 . S
C237 H299 0.961 . S
C238 C239 1.517 . S
C238 H301 0.961 . S
C238 H302 0.960 . S
C238 H303 0.959 . S
C239 C238 1.517 . S
C239 O287 1.468 . S
C239 H300 0.980 . S
C240 C241 1.349 . S
C240 C245 1.367 . S
C240 O287 1.408 . S
C241 C240 1.349 . S
C241 C242 1.407 . S
C241 H304 0.930 . S
C242 C241 1.407 . S
C242 C243 1.449 . S
C242 C246 1.535 . S
C243 C242 1.449 . S
C243 C244 1.384 . S
C243 C268 1.553 . S
C244 C243 1.384 . S
C244 C245 1.364 . S
C244 C247 1.450 . S
C245 C240 1.367 . S
C245 C244 1.364 . S
C245 H305 0.931 . S
C246 C242 1.535 . S
C246 H306 0.959 . S
C246 H307 0.961 . S
C246 H308 0.959 . S
C247 C244 1.450 . S
C247 H309 0.960 . S
C247 H310 0.960 . S
C247 H311 0.960 . S
C248 C249 1.309 . S
C248 C253 1.304 . S
C248 O286 1.435 . S
C249 C248 1.309 . S
C249 C250 1.476 . S
C249 H313 0.930 . S
C250 C249 1.476 . S
C250 C251 1.400 . S
C250 C254 1.567 . S
C251 C250 1.400 . S
C251 C252 1.373 . S
C251 C273 1.432 . S
C252 C251 1.373 . S
C252 C253 1.339 . S
C252 C255 1.530 . S
C253 C248 1.304 . S
C253 C252 1.339 . S
C253 H314 0.930 . S
C254 C250 1.567 . S
C254 H315 0.961 . S
C254 H316 0.960 . S
C254 H317 0.958 . S
C255 C252 1.530 . S
C255 H318 0.961 . S
C255 H319 0.960 . S
C255 H320 0.960 . S
C256 C257 1.530 . S
C256 H322 0.961 . S
C256 H323 0.961 . S
C256 H324 0.959 . S
C257 C256 1.530 . S
C257 O285 1.412 . S
C257 H321 0.980 . S
C258 C259 1.288 . S
C258 C263 1.377 . S
C258 O285 1.393 . S
C259 C258 1.288 . S
C259 C260 1.369 . S
C259 H325 0.932 . S
C260 C259 1.369 . S
C260 C261 1.398 . S
C260 C264 1.527 . S
C261 C260 1.398 . S
C261 C262 1.380 . S
C261 C275 1.497 . S
C262 C261 1.380 . S
C262 C263 1.383 . S
C262 C265 1.603 . S
C263 C258 1.377 . S
C263 C262 1.383 . S
C263 H326 0.929 . S
C264 C260 1.527 . S
C264 H327 0.961 . S
C264 H328 0.959 . S
C264 H329 0.959 . S
C265 C262 1.603 . S
C265 H330 0.960 . S
C265 H331 0.962 . S
C265 H332 0.961 . S
C266 C233 1.587 . S
C266 C267 1.360 . S
C266 C279 1.412 . S
C267 C266 1.360 . S
C267 C268 1.365 . S
C267 H333 0.929 . S
C268 C243 1.553 . S
C268 C267 1.365 . S
C268 C269 1.404 . S
C269 C268 1.404 . S
C269 C270 1.395 . S
C269 C280 1.451 . S
C270 C269 1.395 . S
C270 C271 1.322 . S
C270 H334 0.930 . S
C271 C270 1.322 . S
C271 C272 1.459 . S
C271 H335 0.929 . S
C272 C271 1.459 . S
C272 C273 1.445 . S
C272 C281 1.395 . S
C273 C251 1.432 . S
C273 C272 1.445 . S
C273 C274 1.370 . S
C274 C273 1.370 . S
C274 C275 1.438 . S
C274 H336 0.930 . S
C275 C261 1.497 . S
C275 C274 1.438 . S
C275 C276 1.360 . S
C276 C275 1.360 . S
C276 C277 1.401 . S
C276 C281 1.446 . S
C277 C276 1.401 . S
C277 C278 1.347 . S
C277 H337 0.929 . S
C278 C277 1.347 . S
C278 C279 1.455 . S
C278 H338 0.930 . S
C279 C266 1.412 . S
C279 C278 1.455 . S
C279 C280 1.331 . S
C280 C269 1.451 . S
C280 C279 1.331 . S
C280 C281 1.497 . S
C281 C272 1.395 . S
C281 C276 1.446 . S
C281 C280 1.497 . S
C282 C283 1.582 . S
C282 H339 0.962 . S
C282 H340 0.959 . S
C282 H341 0.958 . S
C283 C282 1.582 . S
C283 O286 1.458 . S
C283 H312 0.980 . S
O284 C229 1.426 . S
O284 C230 1.334 . S
O285 C257 1.412 . S
O285 C258 1.393 . S
O286 C248 1.435 . S
O286 C283 1.458 . S
O287 C239 1.468 . S
O287 C240 1.408 . S
H288 C229 0.980 . S
H289 C228 0.959 . S
H290 C228 0.959 . S
H291 C228 0.960 . S
H292 C231 0.929 . S
H293 C235 0.929 . S
H294 C236 0.959 . S
H295 C236 0.961 . S
H296 C236 0.961 . S
H297 C237 0.960 . S
H298 C237 0.960 . S
H299 C237 0.961 . S
H300 C239 0.980 . S
H301 C238 0.961 . S
H302 C238 0.960 . S
H303 C238 0.959 . S
H304 C241 0.930 . S
H305 C245 0.931 . S
H306 C246 0.959 . S
H307 C246 0.961 . S
H308 C246 0.959 . S
H309 C247 0.960 . S
H310 C247 0.960 . S
H311 C247 0.960 . S
H312 C283 0.980 . S
H313 C249 0.930 . S
H314 C253 0.930 . S
H315 C254 0.961 . S
H316 C254 0.960 . S
H317 C254 0.958 . S
H318 C255 0.961 . S
H319 C255 0.960 . S
H320 C255 0.960 . S
H321 C257 0.980 . S
H322 C256 0.961 . S
H323 C256 0.961 . S
H324 C256 0.959 . S
H325 C259 0.932 . S
H326 C263 0.929 . S
H327 C264 0.961 . S
H328 C264 0.959 . S
H329 C264 0.959 . S
H330 C265 0.960 . S
H331 C265 0.962 . S
H332 C265 0.961 . S
H333 C267 0.929 . S
H334 C270 0.930 . S
H335 C271 0.929 . S
H336 C274 0.930 . S
H337 C277 0.929 . S
H338 C278 0.930 . S
H339 C282 0.962 . S
H340 C282 0.959 . S
H341 C282 0.958 . S
C342 C343 1.560 . S
C342 H403 0.959 . S
C342 H404 0.959 . S
C342 H405 0.960 . S
C343 C342 1.560 . S
C343 O398 1.426 . S
C343 H402 0.980 . S
C344 C345 1.407 . S
C344 C349 1.418 . S
C344 O398 1.334 . S
C345 C344 1.407 . S
C345 C346 1.360 . S
C345 H406 0.929 . S
C346 C345 1.360 . S
C346 C347 1.401 . S
C346 C350 1.527 . S
C347 C346 1.401 . S
C347 C348 1.405 . S
C347 C380 1.587 . S
C348 C347 1.405 . S
C348 C349 1.332 . S
C348 C351 1.496 . S
C349 C344 1.418 . S
C349 C348 1.332 . S
C349 H407 0.929 . S
C350 C346 1.527 . S
C350 H408 0.959 . S
C350 H409 0.961 . S
C350 H410 0.961 . S
C351 C348 1.496 . S
C351 H411 0.960 . S
C351 H412 0.960 . S
C351 H413 0.961 . S
C352 C353 1.517 . S
C352 H415 0.961 . S
C352 H416 0.960 . S
C352 H417 0.959 . S
C353 C352 1.517 . S
C353 O401 1.468 . S
C353 H414 0.980 . S
C354 C355 1.349 . S
C354 C359 1.367 . S
C354 O401 1.408 . S
C355 C354 1.349 . S
C355 C356 1.407 . S
C355 H418 0.930 . S
C356 C355 1.407 . S
C356 C357 1.449 . S
C356 C360 1.535 . S
C357 C356 1.449 . S
C357 C358 1.384 . S
C357 C382 1.553 . S
C358 C357 1.384 . S
C358 C359 1.364 . S
C358 C361 1.450 . S
C359 C354 1.367 . S
C359 C358 1.364 . S
C359 H419 0.931 . S
C360 C356 1.535 . S
C360 H420 0.959 . S
C360 H421 0.961 . S
C360 H422 0.959 . S
C361 C358 1.450 . S
C361 H423 0.960 . S
C361 H424 0.960 . S
C361 H425 0.960 . S
C362 C363 1.309 . S
C362 C367 1.304 . S
C362 O400 1.435 . S
C363 C362 1.309 . S
C363 C364 1.476 . S
C363 H427 0.930 . S
C364 C363 1.476 . S
C364 C365 1.400 . S
C364 C368 1.567 . S
C365 C364 1.400 . S
C365 C366 1.373 . S
C365 C387 1.432 . S
C366 C365 1.373 . S
C366 C367 1.339 . S
C366 C369 1.530 . S
C367 C362 1.304 . S
C367 C366 1.339 . S
C367 H428 0.930 . S
C368 C364 1.567 . S
C368 H429 0.961 . S
C368 H430 0.960 . S
C368 H431 0.958 . S
C369 C366 1.530 . S
C369 H432 0.961 . S
C369 H433 0.960 . S
C369 H434 0.960 . S
C370 C371 1.530 . S
C370 H436 0.961 . S
C370 H437 0.961 . S
C370 H438 0.959 . S
C371 C370 1.530 . S
C371 O399 1.412 . S
C371 H435 0.980 . S
C372 C373 1.288 . S
C372 C377 1.377 . S
C372 O399 1.393 . S
C373 C372 1.288 . S
C373 C374 1.369 . S
C373 H439 0.932 . S
C374 C373 1.369 . S
C374 C375 1.398 . S
C374 C378 1.527 . S
C375 C374 1.398 . S
C375 C376 1.380 . S
C375 C389 1.497 . S
C376 C375 1.380 . S
C376 C377 1.383 . S
C376 C379 1.603 . S
C377 C372 1.377 . S
C377 C376 1.383 . S
C377 H440 0.929 . S
C378 C374 1.527 . S
C378 H441 0.961 . S
C378 H442 0.959 . S
C378 H443 0.959 . S
C379 C376 1.603 . S
C379 H444 0.960 . S
C379 H445 0.962 . S
C379 H446 0.961 . S
C380 C347 1.587 . S
C380 C381 1.360 . S
C380 C393 1.412 . S
C381 C380 1.360 . S
C381 C382 1.365 . S
C381 H447 0.929 . S
C382 C357 1.553 . S
C382 C381 1.365 . S
C382 C383 1.404 . S
C383 C382 1.404 . S
C383 C384 1.395 . S
C383 C394 1.451 . S
C384 C383 1.395 . S
C384 C385 1.322 . S
C384 H448 0.930 . S
C385 C384 1.322 . S
C385 C386 1.459 . S
C385 H449 0.929 . S
C386 C385 1.459 . S
C386 C387 1.445 . S
C386 C395 1.395 . S
C387 C365 1.432 . S
C387 C386 1.445 . S
C387 C388 1.370 . S
C388 C387 1.370 . S
C388 C389 1.438 . S
C388 H450 0.930 . S
C389 C375 1.497 . S
C389 C388 1.438 . S
C389 C390 1.360 . S
C390 C389 1.360 . S
C390 C391 1.401 . S
C390 C395 1.446 . S
C391 C390 1.401 . S
C391 C392 1.347 . S
C391 H451 0.929 . S
C392 C391 1.347 . S
C392 C393 1.455 . S
C392 H452 0.930 . S
C393 C380 1.412 . S
C393 C392 1.455 . S
C393 C394 1.331 . S
C394 C383 1.451 . S
C394 C393 1.331 . S
C394 C395 1.497 . S
C395 C386 1.395 . S
C395 C390 1.446 . S
C395 C394 1.497 . S
C396 C397 1.582 . S
C396 H453 0.962 . S
C396 H454 0.959 . S
C396 H455 0.958 . S
C397 C396 1.582 . S
C397 O400 1.458 . S
C397 H426 0.980 . S
O398 C343 1.426 . S
O398 C344 1.334 . S
O399 C371 1.412 . S
O399 C372 1.393 . S
O400 C362 1.435 . S
O400 C397 1.458 . S
O401 C353 1.468 . S
O401 C354 1.408 . S
H402 C343 0.980 . S
H403 C342 0.959 . S
H404 C342 0.959 . S
H405 C342 0.960 . S
H406 C345 0.929 . S
H407 C349 0.929 . S
H408 C350 0.959 . S
H409 C350 0.961 . S
H410 C350 0.961 . S
H411 C351 0.960 . S
H412 C351 0.960 . S
H413 C351 0.961 . S
H414 C353 0.980 . S
H415 C352 0.961 . S
H416 C352 0.960 . S
H417 C352 0.959 . S
H418 C355 0.930 . S
H419 C359 0.931 . S
H420 C360 0.959 . S
H421 C360 0.961 . S
H422 C360 0.959 . S
H423 C361 0.960 . S
H424 C361 0.960 . S
H425 C361 0.960 . S
H426 C397 0.980 . S
H427 C363 0.930 . S
H428 C367 0.930 . S
H429 C368 0.961 . S
H430 C368 0.960 . S
H431 C368 0.958 . S
H432 C369 0.961 . S
H433 C369 0.960 . S
H434 C369 0.960 . S
H435 C371 0.980 . S
H436 C370 0.961 . S
H437 C370 0.961 . S
H438 C370 0.959 . S
H439 C373 0.932 . S
H440 C377 0.929 . S
H441 C378 0.961 . S
H442 C378 0.959 . S
H443 C378 0.959 . S
H444 C379 0.960 . S
H445 C379 0.962 . S
H446 C379 0.961 . S
H447 C381 0.929 . S
H448 C384 0.930 . S
H449 C385 0.929 . S
H450 C388 0.930 . S
H451 C391 0.929 . S
H452 C392 0.930 . S
H453 C396 0.962 . S
H454 C396 0.959 . S
H455 C396 0.958 . S
C456 C457 1.560 . S
C456 H517 0.959 . S
C456 H518 0.959 . S
C456 H519 0.960 . S
C457 C456 1.560 . S
C457 O512 1.426 . S
C457 H516 0.980 . S
C458 C459 1.407 . S
C458 C463 1.418 . S
C458 O512 1.334 . S
C459 C458 1.407 . S
C459 C460 1.360 . S
C459 H520 0.929 . S
C460 C459 1.360 . S
C460 C461 1.401 . S
C460 C464 1.527 . S
C461 C460 1.401 . S
C461 C462 1.405 . S
C461 C494 1.587 . S
C462 C461 1.405 . S
C462 C463 1.332 . S
C462 C465 1.496 . S
C463 C458 1.418 . S
C463 C462 1.332 . S
C463 H521 0.929 . S
C464 C460 1.527 . S
C464 H522 0.959 . S
C464 H523 0.961 . S
C464 H524 0.961 . S
C465 C462 1.496 . S
C465 H525 0.960 . S
C465 H526 0.960 . S
C465 H527 0.961 . S
C466 C467 1.517 . S
C466 H529 0.961 . S
C466 H530 0.960 . S
C466 H531 0.959 . S
C467 C466 1.517 . S
C467 O515 1.468 . S
C467 H528 0.980 . S
C468 C469 1.349 . S
C468 C473 1.367 . S
C468 O515 1.408 . S
C469 C468 1.349 . S
C469 C470 1.407 . S
C469 H532 0.930 . S
C470 C469 1.407 . S
C470 C471 1.449 . S
C470 C474 1.535 . S
C471 C470 1.449 . S
C471 C472 1.384 . S
C471 C496 1.553 . S
C472 C471 1.384 . S
C472 C473 1.364 . S
C472 C475 1.450 . S
C473 C468 1.367 . S
C473 C472 1.364 . S
C473 H533 0.931 . S
C474 C470 1.535 . S
C474 H534 0.959 . S
C474 H535 0.961 . S
C474 H536 0.959 . S
C475 C472 1.450 . S
C475 H537 0.960 . S
C475 H538 0.960 . S
C475 H539 0.960 . S
C476 C477 1.309 . S
C476 C481 1.304 . S
C476 O514 1.435 . S
C477 C476 1.309 . S
C477 C478 1.476 . S
C477 H541 0.930 . S
C478 C477 1.476 . S
C478 C479 1.400 . S
C478 C482 1.567 . S
C479 C478 1.400 . S
C479 C480 1.373 . S
C479 C501 1.432 . S
C480 C479 1.373 . S
C480 C481 1.339 . S
C480 C483 1.530 . S
C481 C476 1.304 . S
C481 C480 1.339 . S
C481 H542 0.930 . S
C482 C478 1.567 . S
C482 H543 0.961 . S
C482 H544 0.960 . S
C482 H545 0.958 . S
C483 C480 1.530 . S
C483 H546 0.961 . S
C483 H547 0.960 . S
C483 H548 0.960 . S
C484 C485 1.530 . S
C484 H550 0.961 . S
C484 H551 0.961 . S
C484 H552 0.959 . S
C485 C484 1.530 . S
C485 O513 1.412 . S
C485 H549 0.980 . S
C486 C487 1.288 . S
C486 C491 1.377 . S
C486 O513 1.393 . S
C487 C486 1.288 . S
C487 C488 1.369 . S
C487 H553 0.932 . S
C488 C487 1.369 . S
C488 C489 1.398 . S
C488 C492 1.527 . S
C489 C488 1.398 . S
C489 C490 1.380 . S
C489 C503 1.497 . S
C490 C489 1.380 . S
C490 C491 1.383 . S
C490 C493 1.603 . S
C491 C486 1.377 . S
C491 C490 1.383 . S
C491 H554 0.929 . S
C492 C488 1.527 . S
C492 H555 0.961 . S
C492 H556 0.959 . S
C492 H557 0.959 . S
C493 C490 1.603 . S
C493 H558 0.960 . S
C493 H559 0.962 . S
C493 H560 0.961 . S
C494 C461 1.587 . S
C494 C495 1.360 . S
C494 C507 1.412 . S
C495 C494 1.360 . S
C495 C496 1.365 . S
C495 H561 0.929 . S
C496 C471 1.553 . S
C496 C495 1.365 . S
C496 C497 1.404 . S
C497 C496 1.404 . S
C497 C498 1.395 . S
C497 C508 1.451 . S
C498 C497 1.395 . S
C498 C499 1.322 . S
C498 H562 0.930 . S
C499 C498 1.322 . S
C499 C500 1.459 . S
C499 H563 0.929 . S
C500 C499 1.459 . S
C500 C501 1.445 . S
C500 C509 1.395 . S
C501 C479 1.432 . S
C501 C500 1.445 . S
C501 C502 1.370 . S
C502 C501 1.370 . S
C502 C503 1.438 . S
C502 H564 0.930 . S
C503 C489 1.497 . S
C503 C502 1.438 . S
C503 C504 1.360 . S
C504 C503 1.360 . S
C504 C505 1.401 . S
C504 C509 1.446 . S
C505 C504 1.401 . S
C505 C506 1.347 . S
C505 H565 0.929 . S
C506 C505 1.347 . S
C506 C507 1.455 . S
C506 H566 0.930 . S
C507 C494 1.412 . S
C507 C506 1.455 . S
C507 C508 1.331 . S
C508 C497 1.451 . S
C508 C507 1.331 . S
C508 C509 1.497 . S
C509 C500 1.395 . S
C509 C504 1.446 . S
C509 C508 1.497 . S
C510 C511 1.582 . S
C510 H567 0.962 . S
C510 H568 0.959 . S
C510 H569 0.958 . S
C511 C510 1.582 . S
C511 O514 1.458 . S
C511 H540 0.980 . S
O512 C457 1.426 . S
O512 C458 1.334 . S
O513 C485 1.412 . S
O513 C486 1.393 . S
O514 C476 1.435 . S
O514 C511 1.458 . S
O515 C467 1.468 . S
O515 C468 1.408 . S
H516 C457 0.980 . S
H517 C456 0.959 . S
H518 C456 0.959 . S
H519 C456 0.960 . S
H520 C459 0.929 . S
H521 C463 0.929 . S
H522 C464 0.959 . S
H523 C464 0.961 . S
H524 C464 0.961 . S
H525 C465 0.960 . S
H526 C465 0.960 . S
H527 C465 0.961 . S
H528 C467 0.980 . S
H529 C466 0.961 . S
H530 C466 0.960 . S
H531 C466 0.959 . S
H532 C469 0.930 . S
H533 C473 0.931 . S
H534 C474 0.959 . S
H535 C474 0.961 . S
H536 C474 0.959 . S
H537 C475 0.960 . S
H538 C475 0.960 . S
H539 C475 0.960 . S
H540 C511 0.980 . S
H541 C477 0.930 . S
H542 C481 0.930 . S
H543 C482 0.961 . S
H544 C482 0.960 . S
H545 C482 0.958 . S
H546 C483 0.961 . S
H547 C483 0.960 . S
H548 C483 0.960 . S
H549 C485 0.980 . S
H550 C484 0.961 . S
H551 C484 0.961 . S
H552 C484 0.959 . S
H553 C487 0.932 . S
H554 C491 0.929 . S
H555 C492 0.961 . S
H556 C492 0.959 . S
H557 C492 0.959 . S
H558 C493 0.960 . S
H559 C493 0.962 . S
H560 C493 0.961 . S
H561 C495 0.929 . S
H562 C498 0.930 . S
H563 C499 0.929 . S
H564 C502 0.930 . S
H565 C505 0.929 . S
H566 C506 0.930 . S
H567 C510 0.962 . S
H568 C510 0.959 . S
H569 C510 0.958 . S
C570 C571 1.560 . S
C570 H631 0.959 . S
C570 H632 0.959 . S
C570 H633 0.960 . S
C571 C570 1.560 . S
C571 O626 1.426 . S
C571 H630 0.980 . S
C572 C573 1.407 . S
C572 C577 1.418 . S
C572 O626 1.334 . S
C573 C572 1.407 . S
C573 C574 1.360 . S
C573 H634 0.929 . S
C574 C573 1.360 . S
C574 C575 1.401 . S
C574 C578 1.527 . S
C575 C574 1.401 . S
C575 C576 1.405 . S
C575 C608 1.587 . S
C576 C575 1.405 . S
C576 C577 1.332 . S
C576 C579 1.496 . S
C577 C572 1.418 . S
C577 C576 1.332 . S
C577 H635 0.929 . S
C578 C574 1.527 . S
C578 H636 0.959 . S
C578 H637 0.961 . S
C578 H638 0.961 . S
C579 C576 1.496 . S
C579 H639 0.960 . S
C579 H640 0.960 . S
C579 H641 0.961 . S
C580 C581 1.517 . S
C580 H643 0.961 . S
C580 H644 0.960 . S
C580 H645 0.959 . S
C581 C580 1.517 . S
C581 O629 1.468 . S
C581 H642 0.980 . S
C582 C583 1.349 . S
C582 C587 1.367 . S
C582 O629 1.408 . S
C583 C582 1.349 . S
C583 C584 1.407 . S
C583 H646 0.930 . S
C584 C583 1.407 . S
C584 C585 1.449 . S
C584 C588 1.535 . S
C585 C584 1.449 . S
C585 C586 1.384 . S
C585 C610 1.553 . S
C586 C585 1.384 . S
C586 C587 1.364 . S
C586 C589 1.450 . S
C587 C582 1.367 . S
C587 C586 1.364 . S
C587 H647 0.931 . S
C588 C584 1.535 . S
C588 H648 0.959 . S
C588 H649 0.961 . S
C588 H650 0.959 . S
C589 C586 1.450 . S
C589 H651 0.960 . S
C589 H652 0.960 . S
C589 H653 0.960 . S
C590 C591 1.309 . S
C590 C595 1.304 . S
C590 O628 1.435 . S
C591 C590 1.309 . S
C591 C592 1.476 . S
C591 H655 0.930 . S
C592 C591 1.476 . S
C592 C593 1.400 . S
C592 C596 1.567 . S
C593 C592 1.400 . S
C593 C594 1.373 . S
C593 C615 1.432 . S
C594 C593 1.373 . S
C594 C595 1.339 . S
C594 C597 1.530 . S
C595 C590 1.304 . S
C595 C594 1.339 . S
C595 H656 0.930 . S
C596 C592 1.567 . S
C596 H657 0.961 . S
C596 H658 0.960 . S
C596 H659 0.958 . S
C597 C594 1.530 . S
C597 H660 0.961 . S
C597 H661 0.960 . S
C597 H662 0.960 . S
C598 C599 1.530 . S
C598 H664 0.961 . S
C598 H665 0.961 . S
C598 H666 0.959 . S
C599 C598 1.530 . S
C599 O627 1.412 . S
C599 H663 0.980 . S
C600 C601 1.288 . S
C600 C605 1.377 . S
C600 O627 1.393 . S
C601 C600 1.288 . S
C601 C602 1.369 . S
C601 H667 0.932 . S
C602 C601 1.369 . S
C602 C603 1.398 . S
C602 C606 1.527 . S
C603 C602 1.398 . S
C603 C604 1.380 . S
C603 C617 1.497 . S
C604 C603 1.380 . S
C604 C605 1.383 . S
C604 C607 1.603 . S
C605 C600 1.377 . S
C605 C604 1.383 . S
C605 H668 0.929 . S
C606 C602 1.527 . S
C606 H669 0.961 . S
C606 H670 0.959 . S
C606 H671 0.959 . S
C607 C604 1.603 . S
C607 H672 0.960 . S
C607 H673 0.962 . S
C607 H674 0.961 . S
C608 C575 1.587 . S
C608 C609 1.360 . S
C608 C621 1.412 . S
C609 C608 1.360 . S
C609 C610 1.365 . S
C609 H675 0.929 . S
C610 C585 1.553 . S
C610 C609 1.365 . S
C610 C611 1.404 . S
C611 C610 1.404 . S
C611 C612 1.395 . S
C611 C622 1.451 . S
C612 C611 1.395 . S
C612 C613 1.322 . S
C612 H676 0.930 . S
C613 C612 1.322 . S
C613 C614 1.459 . S
C613 H677 0.929 . S
C614 C613 1.459 . S
C614 C615 1.445 . S
C614 C623 1.395 . S
C615 C593 1.432 . S
C615 C614 1.445 . S
C615 C616 1.370 . S
C616 C615 1.370 . S
C616 C617 1.438 . S
C616 H678 0.930 . S
C617 C603 1.497 . S
C617 C616 1.438 . S
C617 C618 1.360 . S
C618 C617 1.360 . S
C618 C619 1.401 . S
C618 C623 1.446 . S
C619 C618 1.401 . S
C619 C620 1.347 . S
C619 H679 0.929 . S
C620 C619 1.347 . S
C620 C621 1.455 . S
C620 H680 0.930 . S
C621 C608 1.412 . S
C621 C620 1.455 . S
C621 C622 1.331 . S
C622 C611 1.451 . S
C622 C621 1.331 . S
C622 C623 1.497 . S
C623 C614 1.395 . S
C623 C618 1.446 . S
C623 C622 1.497 . S
C624 C625 1.582 . S
C624 H681 0.962 . S
C624 H682 0.959 . S
C624 H683 0.958 . S
C625 C624 1.582 . S
C625 O628 1.458 . S
C625 H654 0.980 . S
O626 C571 1.426 . S
O626 C572 1.334 . S
O627 C599 1.412 . S
O627 C600 1.393 . S
O628 C590 1.435 . S
O628 C625 1.458 . S
O629 C581 1.468 . S
O629 C582 1.408 . S
H630 C571 0.980 . S
H631 C570 0.959 . S
H632 C570 0.959 . S
H633 C570 0.960 . S
H634 C573 0.929 . S
H635 C577 0.929 . S
H636 C578 0.959 . S
H637 C578 0.961 . S
H638 C578 0.961 . S
H639 C579 0.960 . S
H640 C579 0.960 . S
H641 C579 0.961 . S
H642 C581 0.980 . S
H643 C580 0.961 . S
H644 C580 0.960 . S
H645 C580 0.959 . S
H646 C583 0.930 . S
H647 C587 0.931 . S
H648 C588 0.959 . S
H649 C588 0.961 . S
H650 C588 0.959 . S
H651 C589 0.960 . S
H652 C589 0.960 . S
H653 C589 0.960 . S
H654 C625 0.980 . S
H655 C591 0.930 . S
H656 C595 0.930 . S
H657 C596 0.961 . S
H658 C596 0.960 . S
H659 C596 0.958 . S
H660 C597 0.961 . S
H661 C597 0.960 . S
H662 C597 0.960 . S
H663 C599 0.980 . S
H664 C598 0.961 . S
H665 C598 0.961 . S
H666 C598 0.959 . S
H667 C601 0.932 . S
H668 C605 0.929 . S
H669 C606 0.961 . S
H670 C606 0.959 . S
H671 C606 0.959 . S
H672 C607 0.960 . S
H673 C607 0.962 . S
H674 C607 0.961 . S
H675 C609 0.929 . S
H676 C612 0.930 . S
H677 C613 0.929 . S
H678 C616 0.930 . S
H679 C619 0.929 . S
H680 C620 0.930 . S
H681 C624 0.962 . S
H682 C624 0.959 . S
H683 C624 0.958 . S
C684 C685 1.560 . S
C684 H745 0.959 . S
C684 H746 0.959 . S
C684 H747 0.960 . S
C685 C684 1.560 . S
C685 O740 1.426 . S
C685 H744 0.980 . S
C686 C687 1.407 . S
C686 C691 1.418 . S
C686 O740 1.334 . S
C687 C686 1.407 . S
C687 C688 1.360 . S
C687 H748 0.929 . S
C688 C687 1.360 . S
C688 C689 1.401 . S
C688 C692 1.527 . S
C689 C688 1.401 . S
C689 C690 1.405 . S
C689 C722 1.587 . S
C690 C689 1.405 . S
C690 C691 1.332 . S
C690 C693 1.496 . S
C691 C686 1.418 . S
C691 C690 1.332 . S
C691 H749 0.929 . S
C692 C688 1.527 . S
C692 H750 0.959 . S
C692 H751 0.961 . S
C692 H752 0.961 . S
C693 C690 1.496 . S
C693 H753 0.960 . S
C693 H754 0.960 . S
C693 H755 0.961 . S
C694 C695 1.517 . S
C694 H757 0.961 . S
C694 H758 0.960 . S
C694 H759 0.959 . S
C695 C694 1.517 . S
C695 O743 1.468 . S
C695 H756 0.980 . S
C696 C697 1.349 . S
C696 C701 1.367 . S
C696 O743 1.408 . S
C697 C696 1.349 . S
C697 C698 1.407 . S
C697 H760 0.930 . S
C698 C697 1.407 . S
C698 C699 1.449 . S
C698 C702 1.535 . S
C699 C698 1.449 . S
C699 C700 1.384 . S
C699 C724 1.553 . S
C700 C699 1.384 . S
C700 C701 1.364 . S
C700 C703 1.450 . S
C701 C696 1.367 . S
C701 C700 1.364 . S
C701 H761 0.931 . S
C702 C698 1.535 . S
C702 H762 0.959 . S
C702 H763 0.961 . S
C702 H764 0.959 . S
C703 C700 1.450 . S
C703 H765 0.960 . S
C703 H766 0.960 . S
C703 H767 0.960 . S
C704 C705 1.309 . S
C704 C709 1.304 . S
C704 O742 1.435 . S
C705 C704 1.309 . S
C705 C706 1.476 . S
C705 H769 0.930 . S
C706 C705 1.476 . S
C706 C707 1.400 . S
C706 C710 1.567 . S
C707 C706 1.400 . S
C707 C708 1.373 . S
C707 C729 1.432 . S
C708 C707 1.373 . S
C708 C709 1.339 . S
C708 C711 1.530 . S
C709 C704 1.304 . S
C709 C708 1.339 . S
C709 H770 0.930 . S
C710 C706 1.567 . S
C710 H771 0.961 . S
C710 H772 0.960 . S
C710 H773 0.958 . S
C711 C708 1.530 . S
C711 H774 0.961 . S
C711 H775 0.960 . S
C711 H776 0.960 . S
C712 C713 1.530 . S
C712 H778 0.961 . S
C712 H779 0.961 . S
C712 H780 0.959 . S
C713 C712 1.530 . S
C713 O741 1.412 . S
C713 H777 0.980 . S
C714 C715 1.288 . S
C714 C719 1.377 . S
C714 O741 1.393 . S
C715 C714 1.288 . S
C715 C716 1.369 . S
C715 H781 0.932 . S
C716 C715 1.369 . S
C716 C717 1.398 . S
C716 C720 1.527 . S
C717 C716 1.398 . S
C717 C718 1.380 . S
C717 C731 1.497 . S
C718 C717 1.380 . S
C718 C719 1.383 . S
C718 C721 1.603 . S
C719 C714 1.377 . S
C719 C718 1.383 . S
C719 H782 0.929 . S
C720 C716 1.527 . S
C720 H783 0.961 . S
C720 H784 0.959 . S
C720 H785 0.959 . S
C721 C718 1.603 . S
C721 H786 0.960 . S
C721 H787 0.962 . S
C721 H788 0.961 . S
C722 C689 1.587 . S
C722 C723 1.360 . S
C722 C735 1.412 . S
C723 C722 1.360 . S
C723 C724 1.365 . S
C723 H789 0.929 . S
C724 C699 1.553 . S
C724 C723 1.365 . S
C724 C725 1.404 . S
C725 C724 1.404 . S
C725 C726 1.395 . S
C725 C736 1.451 . S
C726 C725 1.395 . S
C726 C727 1.322 . S
C726 H790 0.930 . S
C727 C726 1.322 . S
C727 C728 1.459 . S
C727 H791 0.929 . S
C728 C727 1.459 . S
C728 C729 1.445 . S
C728 C737 1.395 . S
C729 C707 1.432 . S
C729 C728 1.445 . S
C729 C730 1.370 . S
C730 C729 1.370 . S
C730 C731 1.438 . S
C730 H792 0.930 . S
C731 C717 1.497 . S
C731 C730 1.438 . S
C731 C732 1.360 . S
C732 C731 1.360 . S
C732 C733 1.401 . S
C732 C737 1.446 . S
C733 C732 1.401 . S
C733 C734 1.347 . S
C733 H793 0.929 . S
C734 C733 1.347 . S
C734 C735 1.455 . S
C734 H794 0.930 . S
C735 C722 1.412 . S
C735 C734 1.455 . S
C735 C736 1.331 . S
C736 C725 1.451 . S
C736 C735 1.331 . S
C736 C737 1.497 . S
C737 C728 1.395 . S
C737 C732 1.446 . S
C737 C736 1.497 . S
C738 C739 1.582 . S
C738 H795 0.962 . S
C738 H796 0.959 . S
C738 H797 0.958 . S
C739 C738 1.582 . S
C739 O742 1.458 . S
C739 H768 0.980 . S
O740 C685 1.426 . S
O740 C686 1.334 . S
O741 C713 1.412 . S
O741 C714 1.393 . S
O742 C704 1.435 . S
O742 C739 1.458 . S
O743 C695 1.468 . S
O743 C696 1.408 . S
H744 C685 0.980 . S
H745 C684 0.959 . S
H746 C684 0.959 . S
H747 C684 0.960 . S
H748 C687 0.929 . S
H749 C691 0.929 . S
H750 C692 0.959 . S
H751 C692 0.961 . S
H752 C692 0.961 . S
H753 C693 0.960 . S
H754 C693 0.960 . S
H755 C693 0.961 . S
H756 C695 0.980 . S
H757 C694 0.961 . S
H758 C694 0.960 . S
H759 C694 0.959 . S
H760 C697 0.930 . S
H761 C701 0.931 . S
H762 C702 0.959 . S
H763 C702 0.961 . S
H764 C702 0.959 . S
H765 C703 0.960 . S
H766 C703 0.960 . S
H767 C703 0.960 . S
H768 C739 0.980 . S
H769 C705 0.930 . S
H770 C709 0.930 . S
H771 C710 0.961 . S
H772 C710 0.960 . S
H773 C710 0.958 . S
H774 C711 0.961 . S
H775 C711 0.960 . S
H776 C711 0.960 . S
H777 C713 0.980 . S
H778 C712 0.961 . S
H779 C712 0.961 . S
H780 C712 0.959 . S
H781 C715 0.932 . S
H782 C719 0.929 . S
H783 C720 0.961 . S
H784 C720 0.959 . S
H785 C720 0.959 . S
H786 C721 0.960 . S
H787 C721 0.962 . S
H788 C721 0.961 . S
H789 C723 0.929 . S
H790 C726 0.930 . S
H791 C727 0.929 . S
H792 C730 0.930 . S
H793 C733 0.929 . S
H794 C734 0.930 . S
H795 C738 0.962 . S
H796 C738 0.959 . S
H797 C738 0.958 . S
C798 C799 1.560 . S
C798 H859 0.959 . S
C798 H860 0.959 . S
C798 H861 0.960 . S
C799 C798 1.560 . S
C799 O854 1.426 . S
C799 H858 0.980 . S
C800 C801 1.407 . S
C800 C805 1.418 . S
C800 O854 1.334 . S
C801 C800 1.407 . S
C801 C802 1.360 . S
C801 H862 0.929 . S
C802 C801 1.360 . S
C802 C803 1.401 . S
C802 C806 1.527 . S
C803 C802 1.401 . S
C803 C804 1.405 . S
C803 C836 1.587 . S
C804 C803 1.405 . S
C804 C805 1.332 . S
C804 C807 1.496 . S
C805 C800 1.418 . S
C805 C804 1.332 . S
C805 H863 0.929 . S
C806 C802 1.527 . S
C806 H864 0.959 . S
C806 H865 0.961 . S
C806 H866 0.961 . S
C807 C804 1.496 . S
C807 H867 0.960 . S
C807 H868 0.960 . S
C807 H869 0.961 . S
C808 C809 1.517 . S
C808 H871 0.961 . S
C808 H872 0.960 . S
C808 H873 0.959 . S
C809 C808 1.517 . S
C809 O857 1.468 . S
C809 H870 0.980 . S
C810 C811 1.349 . S
C810 C815 1.367 . S
C810 O857 1.408 . S
C811 C810 1.349 . S
C811 C812 1.407 . S
C811 H874 0.930 . S
C812 C811 1.407 . S
C812 C813 1.449 . S
C812 C816 1.535 . S
C813 C812 1.449 . S
C813 C814 1.384 . S
C813 C838 1.553 . S
C814 C813 1.384 . S
C814 C815 1.364 . S
C814 C817 1.450 . S
C815 C810 1.367 . S
C815 C814 1.364 . S
C815 H875 0.931 . S
C816 C812 1.535 . S
C816 H876 0.959 . S
C816 H877 0.961 . S
C816 H878 0.959 . S
C817 C814 1.450 . S
C817 H879 0.960 . S
C817 H880 0.960 . S
C817 H881 0.960 . S
C818 C819 1.309 . S
C818 C823 1.304 . S
C818 O856 1.435 . S
C819 C818 1.309 . S
C819 C820 1.476 . S
C819 H883 0.930 . S
C820 C819 1.476 . S
C820 C821 1.400 . S
C820 C824 1.567 . S
C821 C820 1.400 . S
C821 C822 1.373 . S
C821 C843 1.432 . S
C822 C821 1.373 . S
C822 C823 1.339 . S
C822 C825 1.530 . S
C823 C818 1.304 . S
C823 C822 1.339 . S
C823 H884 0.930 . S
C824 C820 1.567 . S
C824 H885 0.961 . S
C824 H886 0.960 . S
C824 H887 0.958 . S
C825 C822 1.530 . S
C825 H888 0.961 . S
C825 H889 0.960 . S
C825 H890 0.960 . S
C826 C827 1.530 . S
C826 H892 0.961 . S
C826 H893 0.961 . S
C826 H894 0.959 . S
C827 C826 1.530 . S
C827 O855 1.412 . S
C827 H891 0.980 . S
C828 C829 1.288 . S
C828 C833 1.377 . S
C828 O855 1.393 . S
C829 C828 1.288 . S
C829 C830 1.369 . S
C829 H895 0.932 . S
C830 C829 1.369 . S
C830 C831 1.398 . S
C830 C834 1.527 . S
C831 C830 1.398 . S
C831 C832 1.380 . S
C831 C845 1.497 . S
C832 C831 1.380 . S
C832 C833 1.383 . S
C832 C835 1.603 . S
C833 C828 1.377 . S
C833 C832 1.383 . S
C833 H896 0.929 . S
C834 C830 1.527 . S
C834 H897 0.961 . S
C834 H898 0.959 . S
C834 H899 0.959 . S
C835 C832 1.603 . S
C835 H900 0.960 . S
C835 H901 0.962 . S
C835 H902 0.961 . S
C836 C803 1.587 . S
C836 C837 1.360 . S
C836 C849 1.412 . S
C837 C836 1.360 . S
C837 C838 1.365 . S
C837 H903 0.929 . S
C838 C813 1.553 . S
C838 C837 1.365 . S
C838 C839 1.404 . S
C839 C838 1.404 . S
C839 C840 1.395 . S
C839 C850 1.451 . S
C840 C839 1.395 . S
C840 C841 1.322 . S
C840 H904 0.930 . S
C841 C840 1.322 . S
C841 C842 1.459 . S
C841 H905 0.929 . S
C842 C841 1.459 . S
C842 C843 1.445 . S
C842 C851 1.395 . S
C843 C821 1.432 . S
C843 C842 1.445 . S
C843 C844 1.370 . S
C844 C843 1.370 . S
C844 C845 1.438 . S
C844 H906 0.930 . S
C845 C831 1.497 . S
C845 C844 1.438 . S
C845 C846 1.360 . S
C846 C845 1.360 . S
C846 C847 1.401 . S
C846 C851 1.446 . S
C847 C846 1.401 . S
C847 C848 1.347 . S
C847 H907 0.929 . S
C848 C847 1.347 . S
C848 C849 1.455 . S
C848 H908 0.930 . S
C849 C836 1.412 . S
C849 C848 1.455 . S
C849 C850 1.331 . S
C850 C839 1.451 . S
C850 C849 1.331 . S
C850 C851 1.497 . S
C851 C842 1.395 . S
C851 C846 1.446 . S
C851 C850 1.497 . S
C852 C853 1.582 . S
C852 H909 0.962 . S
C852 H910 0.959 . S
C852 H911 0.958 . S
C853 C852 1.582 . S
C853 O856 1.458 . S
C853 H882 0.980 . S
O854 C799 1.426 . S
O854 C800 1.334 . S
O855 C827 1.412 . S
O855 C828 1.393 . S
O856 C818 1.435 . S
O856 C853 1.458 . S
O857 C809 1.468 . S
O857 C810 1.408 . S
H858 C799 0.980 . S
H859 C798 0.959 . S
H860 C798 0.959 . S
H861 C798 0.960 . S
H862 C801 0.929 . S
H863 C805 0.929 . S
H864 C806 0.959 . S
H865 C806 0.961 . S
H866 C806 0.961 . S
H867 C807 0.960 . S
H868 C807 0.960 . S
H869 C807 0.961 . S
H870 C809 0.980 . S
H871 C808 0.961 . S
H872 C808 0.960 . S
H873 C808 0.959 . S
H874 C811 0.930 . S
H875 C815 0.931 . S
H876 C816 0.959 . S
H877 C816 0.961 . S
H878 C816 0.959 . S
H879 C817 0.960 . S
H880 C817 0.960 . S
H881 C817 0.960 . S
H882 C853 0.980 . S
H883 C819 0.930 . S
H884 C823 0.930 . S
H885 C824 0.961 . S
H886 C824 0.960 . S
H887 C824 0.958 . S
H888 C825 0.961 . S
H889 C825 0.960 . S
H890 C825 0.960 . S
H891 C827 0.980 . S
H892 C826 0.961 . S
H893 C826 0.961 . S
H894 C826 0.959 . S
H895 C829 0.932 . S
H896 C833 0.929 . S
H897 C834 0.961 . S
H898 C834 0.959 . S
H899 C834 0.959 . S
H900 C835 0.960 . S
H901 C835 0.962 . S
H902 C835 0.961 . S
H903 C837 0.929 . S
H904 C840 0.930 . S
H905 C841 0.929 . S
H906 C844 0.930 . S
H907 C847 0.929 . S
H908 C848 0.930 . S
H909 C852 0.962 . S
H910 C852 0.959 . S
H911 C852 0.958 . S
C912 C913 1.443 . S
C912 N916 1.376 . S
C912 C950 1.389 . S
C913 C912 1.443 . S
C913 C914 1.340 . S
C913 H953 0.951 . S
C914 C913 1.340 . S
C914 C915 1.439 . S
C914 H954 0.950 . S
C915 C914 1.439 . S
C915 N916 1.374 . S
C915 C949 1.395 . S
N916 C912 1.376 . S
N916 C915 1.374 . S
N916 Co917 2.008 . S
Co917 N916 2.008 . S
Co917 N918 1.995 1_455 S
Co917 N923 2.008 1_455 S
Co917 N928 1.995 . S
Co917 N933 2.282 1_455 S
Co917 N939 2.282 . S
N918 Co917 1.995 1_655 S
N918 C919 1.376 . S
N918 C922 1.383 . S
C919 N918 1.376 . S
C919 C920 1.446 . S
C919 C949 1.391 1_655 S
C920 C919 1.446 . S
C920 C921 1.339 . S
C920 H955 0.949 . S
C921 C920 1.339 . S
C921 C922 1.439 . S
C921 H956 0.950 . S
C922 N918 1.383 . S
C922 C921 1.439 . S
C922 C951 1.392 . S
N923 Co917 2.008 1_655 S
N923 C924 1.376 . S
N923 C927 1.374 . S
C924 N923 1.376 . S
C924 C925 1.443 . S
C924 C951 1.389 . S
C925 C924 1.443 . S
C925 C926 1.340 . S
C925 H957 0.951 . S
C926 C925 1.340 . S
C926 C927 1.439 . S
C926 H958 0.950 . S
C927 N923 1.374 . S
C927 C926 1.439 . S
C927 C952 1.395 1_655 S
N928 Co917 1.995 . S
N928 C929 1.376 . S
N928 C932 1.383 . S
C929 N928 1.376 . S
C929 C930 1.446 . S
C929 C952 1.391 . S
C930 C929 1.446 . S
C930 C931 1.339 . S
C930 H959 0.949 . S
C931 C930 1.339 . S
C931 C932 1.439 . S
C931 H960 0.950 . S
C932 N928 1.383 . S
C932 C931 1.439 . S
C932 C950 1.392 . S
N933 Co917 2.282 1_655 S
N933 C936 1.332 . S
N933 C938 1.332 . S
C934 C935 1.386 . S
C934 C937 1.388 . S
C935 C934 1.386 . S
C935 C936 1.382 . S
C935 H961 0.950 . S
C936 N933 1.332 . S
C936 C935 1.382 . S
C936 H947 0.952 . S
C937 C934 1.388 . S
C937 C938 1.382 . S
C937 H962 0.950 . S
C938 N933 1.332 . S
C938 C937 1.382 . S
C938 H948 0.948 . S
N939 Co917 2.282 . S
N939 C943 1.332 . S
N939 C944 1.332 . S
C940 C941 1.388 . S
C940 C944 1.382 . S
C940 H963 0.950 . S
C941 C940 1.388 . S
C941 C942 1.386 . S
C942 C941 1.386 . S
C942 C943 1.382 . S
C942 H964 0.950 . S
C943 N939 1.332 . S
C943 C942 1.382 . S
C943 H945 0.952 . S
C944 N939 1.332 . S
C944 C940 1.382 . S
C944 H946 0.948 . S
H945 C943 0.952 . S
H946 C944 0.948 . S
H947 C936 0.952 . S
H948 C938 0.948 . S
C949 C915 1.395 . S
C949 C919 1.391 1_455 S
C950 C912 1.389 . S
C950 C932 1.392 . S
C951 C922 1.392 . S
C951 C924 1.389 . S
C952 C927 1.395 1_455 S
C952 C929 1.391 . S
H953 C913 0.951 . S
H954 C914 0.950 . S
H955 C920 0.949 . S
H956 C921 0.950 . S
H957 C925 0.951 . S
H958 C926 0.950 . S
H959 C930 0.949 . S
H960 C931 0.950 . S
H961 C935 0.950 . S
H962 C937 0.950 . S
H963 C940 0.950 . S
H964 C942 0.950 . S
C965 C966 1.443 . S
C965 N969 1.376 . S
C965 C1003 1.389 . S
C966 C965 1.443 . S
C966 C967 1.340 . S
C966 H1006 0.951 . S
C967 C966 1.340 . S
C967 C968 1.439 . S
C967 H1007 0.950 . S
C968 C967 1.439 . S
C968 N969 1.374 . S
C968 C1002 1.395 . S
N969 C965 1.376 . S
N969 C968 1.374 . S
N969 Co970 2.008 . S
Co970 N969 2.008 . S
Co970 N971 1.995 1_545 S
Co970 N976 2.008 1_545 S
Co970 N981 1.995 . S
Co970 N986 2.282 1_545 S
Co970 N992 2.282 . S
N971 Co970 1.995 1_565 S
N971 C972 1.376 . S
N971 C975 1.383 . S
C972 N971 1.376 . S
C972 C973 1.446 . S
C972 C1002 1.391 1_565 S
C973 C972 1.446 . S
C973 C974 1.339 . S
C973 H1008 0.949 . S
C974 C973 1.339 . S
C974 C975 1.439 . S
C974 H1009 0.950 . S
C975 N971 1.383 . S
C975 C974 1.439 . S
C975 C1004 1.392 . S
N976 Co970 2.008 1_565 S
N976 C977 1.376 . S
N976 C980 1.374 . S
C977 N976 1.376 . S
C977 C978 1.443 . S
C977 C1004 1.389 . S
C978 C977 1.443 . S
C978 C979 1.340 . S
C978 H1010 0.951 . S
C979 C978 1.340 . S
C979 C980 1.439 . S
C979 H1011 0.950 . S
C980 N976 1.374 . S
C980 C979 1.439 . S
C980 C1005 1.395 1_565 S
N981 Co970 1.995 . S
N981 C982 1.376 . S
N981 C985 1.383 . S
C982 N981 1.376 . S
C982 C983 1.446 . S
C982 C1005 1.391 . S
C983 C982 1.446 . S
C983 C984 1.339 . S
C983 H1012 0.949 . S
C984 C983 1.339 . S
C984 C985 1.439 . S
C984 H1013 0.950 . S
C985 N981 1.383 . S
C985 C984 1.439 . S
C985 C1003 1.392 . S
N986 Co970 2.282 1_565 S
N986 C989 1.332 . S
N986 C991 1.332 . S
C987 C988 1.386 . S
C987 C990 1.388 . S
C988 C987 1.386 . S
C988 C989 1.382 . S
C988 H1014 0.950 . S
C989 N986 1.332 . S
C989 C988 1.382 . S
C989 H1000 0.952 . S
C990 C987 1.388 . S
C990 C991 1.382 . S
C990 H1015 0.950 . S
C991 N986 1.332 . S
C991 C990 1.382 . S
C991 H1001 0.948 . S
N992 Co970 2.282 . S
N992 C996 1.332 . S
N992 C997 1.332 . S
C993 C994 1.388 . S
C993 C997 1.382 . S
C993 H1016 0.950 . S
C994 C993 1.388 . S
C994 C995 1.386 . S
C995 C994 1.386 . S
C995 C996 1.382 . S
C995 H1017 0.950 . S
C996 N992 1.332 . S
C996 C995 1.382 . S
C996 H998 0.952 . S
C997 N992 1.332 . S
C997 C993 1.382 . S
C997 H999 0.948 . S
H998 C996 0.952 . S
H999 C997 0.948 . S
H1000 C989 0.952 . S
H1001 C991 0.948 . S
C1002 C968 1.395 . S
C1002 C972 1.391 1_545 S
C1003 C965 1.389 . S
C1003 C985 1.392 . S
C1004 C975 1.392 . S
C1004 C977 1.389 . S
C1005 C980 1.395 1_545 S
C1005 C982 1.391 . S
H1006 C966 0.951 . S
H1007 C967 0.950 . S
H1008 C973 0.949 . S
H1009 C974 0.950 . S
H1010 C978 0.951 . S
H1011 C979 0.950 . S
H1012 C983 0.949 . S
H1013 C984 0.950 . S
H1014 C988 0.950 . S
H1015 C990 0.950 . S
H1016 C993 0.950 . S
H1017 C995 0.950 . S
C1018 C1019 1.443 . S
C1018 N1022 1.376 . S
C1018 C1056 1.389 . S
C1019 C1018 1.443 . S
C1019 C1020 1.340 . S
C1019 H1059 0.951 . S
C1020 C1019 1.340 . S
C1020 C1021 1.439 . S
C1020 H1060 0.950 . S
C1021 C1020 1.439 . S
C1021 N1022 1.374 . S
C1021 C1055 1.395 . S
N1022 C1018 1.376 . S
N1022 C1021 1.374 . S
N1022 Co1023 2.008 . S
Co1023 N1022 2.008 . S
Co1023 N1024 1.995 1_455 S
Co1023 N1029 2.008 1_455 S
Co1023 N1034 1.995 . S
Co1023 N1039 2.282 1_455 S
Co1023 N1045 2.282 . S
N1024 Co1023 1.995 1_655 S
N1024 C1025 1.376 . S
N1024 C1028 1.383 . S
C1025 N1024 1.376 . S
C1025 C1026 1.446 . S
C1025 C1055 1.391 1_655 S
C1026 C1025 1.446 . S
C1026 C1027 1.339 . S
C1026 H1061 0.949 . S
C1027 C1026 1.339 . S
C1027 C1028 1.439 . S
C1027 H1062 0.950 . S
C1028 N1024 1.383 . S
C1028 C1027 1.439 . S
C1028 C1057 1.392 . S
N1029 Co1023 2.008 1_655 S
N1029 C1030 1.376 . S
N1029 C1033 1.374 . S
C1030 N1029 1.376 . S
C1030 C1031 1.443 . S
C1030 C1057 1.389 . S
C1031 C1030 1.443 . S
C1031 C1032 1.340 . S
C1031 H1063 0.951 . S
C1032 C1031 1.340 . S
C1032 C1033 1.439 . S
C1032 H1064 0.950 . S
C1033 N1029 1.374 . S
C1033 C1032 1.439 . S
C1033 C1058 1.395 1_655 S
N1034 Co1023 1.995 . S
N1034 C1035 1.376 . S
N1034 C1038 1.383 . S
C1035 N1034 1.376 . S
C1035 C1036 1.446 . S
C1035 C1058 1.391 . S
C1036 C1035 1.446 . S
C1036 C1037 1.339 . S
C1036 H1065 0.949 . S
C1037 C1036 1.339 . S
C1037 C1038 1.439 . S
C1037 H1066 0.950 . S
C1038 N1034 1.383 . S
C1038 C1037 1.439 . S
C1038 C1056 1.392 . S
N1039 Co1023 2.282 1_655 S
N1039 C1042 1.332 . S
N1039 C1044 1.332 . S
C1040 C1041 1.386 . S
C1040 C1043 1.388 . S
C1041 C1040 1.386 . S
C1041 C1042 1.382 . S
C1041 H1067 0.950 . S
C1042 N1039 1.332 . S
C1042 C1041 1.382 . S
C1042 H1053 0.952 . S
C1043 C1040 1.388 . S
C1043 C1044 1.382 . S
C1043 H1068 0.950 . S
C1044 N1039 1.332 . S
C1044 C1043 1.382 . S
C1044 H1054 0.948 . S
N1045 Co1023 2.282 . S
N1045 C1049 1.332 . S
N1045 C1050 1.332 . S
C1046 C1047 1.388 . S
C1046 C1050 1.382 . S
C1046 H1069 0.950 . S
C1047 C1046 1.388 . S
C1047 C1048 1.386 . S
C1048 C1047 1.386 . S
C1048 C1049 1.382 . S
C1048 H1070 0.950 . S
C1049 N1045 1.332 . S
C1049 C1048 1.382 . S
C1049 H1051 0.952 . S
C1050 N1045 1.332 . S
C1050 C1046 1.382 . S
C1050 H1052 0.948 . S
H1051 C1049 0.952 . S
H1052 C1050 0.948 . S
H1053 C1042 0.952 . S
H1054 C1044 0.948 . S
C1055 C1021 1.395 . S
C1055 C1025 1.391 1_455 S
C1056 C1018 1.389 . S
C1056 C1038 1.392 . S
C1057 C1028 1.392 . S
C1057 C1030 1.389 . S
C1058 C1033 1.395 1_455 S
C1058 C1035 1.391 . S
H1059 C1019 0.951 . S
H1060 C1020 0.950 . S
H1061 C1026 0.949 . S
H1062 C1027 0.950 . S
H1063 C1031 0.951 . S
H1064 C1032 0.950 . S
H1065 C1036 0.949 . S
H1066 C1037 0.950 . S
H1067 C1041 0.950 . S
H1068 C1043 0.950 . S
H1069 C1046 0.950 . S
H1070 C1048 0.950 . S
C1071 C1072 1.443 . S
C1071 N1075 1.376 . S
C1071 C1109 1.389 . S
C1072 C1071 1.443 . S
C1072 C1073 1.340 . S
C1072 H1112 0.951 . S
C1073 C1072 1.340 . S
C1073 C1074 1.439 . S
C1073 H1113 0.950 . S
C1074 C1073 1.439 . S
C1074 N1075 1.374 . S
C1074 C1108 1.395 1_565 S
N1075 C1071 1.376 . S
N1075 C1074 1.374 . S
N1075 Co1076 2.008 1_565 S
Co1076 N1075 2.008 1_545 S
Co1076 N1077 1.995 . S
Co1076 N1082 2.008 . S
Co1076 N1087 1.995 1_545 S
Co1076 N1092 2.282 . S
Co1076 N1098 2.282 1_545 S
N1077 Co1076 1.995 . S
N1077 C1078 1.376 . S
N1077 C1081 1.383 . S
C1078 N1077 1.376 . S
C1078 C1079 1.446 . S
C1078 C1108 1.391 . S
C1079 C1078 1.446 . S
C1079 C1080 1.339 . S
C1079 H1114 0.949 . S
C1080 C1079 1.339 . S
C1080 C1081 1.439 . S
C1080 H1115 0.950 . S
C1081 N1077 1.383 . S
C1081 C1080 1.439 . S
C1081 C1110 1.392 . S
N1082 Co1076 2.008 . S
N1082 C1083 1.376 . S
N1082 C1086 1.374 . S
C1083 N1082 1.376 . S
C1083 C1084 1.443 . S
C1083 C1110 1.389 . S
C1084 C1083 1.443 . S
C1084 C1085 1.340 . S
C1084 H1116 0.951 . S
C1085 C1084 1.340 . S
C1085 C1086 1.439 . S
C1085 H1117 0.950 . S
C1086 N1082 1.374 . S
C1086 C1085 1.439 . S
C1086 C1111 1.395 . S
N1087 Co1076 1.995 1_565 S
N1087 C1088 1.376 . S
N1087 C1091 1.383 . S
C1088 N1087 1.376 . S
C1088 C1089 1.446 . S
C1088 C1111 1.391 1_565 S
C1089 C1088 1.446 . S
C1089 C1090 1.339 . S
C1089 H1118 0.949 . S
C1090 C1089 1.339 . S
C1090 C1091 1.439 . S
C1090 H1119 0.950 . S
C1091 N1087 1.383 . S
C1091 C1090 1.439 . S
C1091 C1109 1.392 . S
N1092 Co1076 2.282 . S
N1092 C1095 1.332 . S
N1092 C1097 1.332 . S
C1093 C1094 1.386 . S
C1093 C1096 1.388 . S
C1094 C1093 1.386 . S
C1094 C1095 1.382 . S
C1094 H1120 0.950 . S
C1095 N1092 1.332 . S
C1095 C1094 1.382 . S
C1095 H1106 0.952 . S
C1096 C1093 1.388 . S
C1096 C1097 1.382 . S
C1096 H1121 0.950 . S
C1097 N1092 1.332 . S
C1097 C1096 1.382 . S
C1097 H1107 0.948 . S
N1098 Co1076 2.282 1_565 S
N1098 C1102 1.332 . S
N1098 C1103 1.332 . S
C1099 C1100 1.388 . S
C1099 C1103 1.382 . S
C1099 H1122 0.950 . S
C1100 C1099 1.388 . S
C1100 C1101 1.386 . S
C1101 C1100 1.386 . S
C1101 C1102 1.382 . S
C1101 H1123 0.950 . S
C1102 N1098 1.332 . S
C1102 C1101 1.382 . S
C1102 H1104 0.952 . S
C1103 N1098 1.332 . S
C1103 C1099 1.382 . S
C1103 H1105 0.948 . S
H1104 C1102 0.952 . S
H1105 C1103 0.948 . S
H1106 C1095 0.952 . S
H1107 C1097 0.948 . S
C1108 C1074 1.395 1_545 S
C1108 C1078 1.391 . S
C1109 C1071 1.389 . S
C1109 C1091 1.392 . S
C1110 C1081 1.392 . S
C1110 C1083 1.389 . S
C1111 C1086 1.395 . S
C1111 C1088 1.391 1_545 S
H1112 C1072 0.951 . S
H1113 C1073 0.950 . S
H1114 C1079 0.949 . S
H1115 C1080 0.950 . S
H1116 C1084 0.951 . S
H1117 C1085 0.950 . S
H1118 C1089 0.949 . S
H1119 C1090 0.950 . S
H1120 C1094 0.950 . S
H1121 C1096 0.950 . S
H1122 C1099 0.950 . S
H1123 C1101 0.950 . S
C1124 C1125 1.443 . S
C1124 N1128 1.376 . S
C1124 C1162 1.389 . S
C1125 C1124 1.443 . S
C1125 C1126 1.340 . S
C1125 H1165 0.951 . S
C1126 C1125 1.340 . S
C1126 C1127 1.439 . S
C1126 H1166 0.950 . S
C1127 C1126 1.439 . S
C1127 N1128 1.374 . S
C1127 C1161 1.395 1_554 S
N1128 C1124 1.376 . S
N1128 C1127 1.374 . S
N1128 Co1129 2.021 . S
Co1129 N1128 2.021 . S
Co1129 N1130 1.980 1_554 S
Co1129 N1135 1.996 1_554 S
Co1129 N1140 2.010 . S
Co1129 N1145 2.302 . S
Co1129 N1151 2.263 1_554 S
N1130 Co1129 1.980 1_556 S
N1130 C1131 1.376 . S
N1130 C1134 1.383 . S
C1131 N1130 1.376 . S
C1131 C1132 1.446 . S
C1131 C1161 1.391 . S
C1132 C1131 1.446 . S
C1132 C1133 1.339 . S
C1132 H1167 0.949 . S
C1133 C1132 1.339 . S
C1133 C1134 1.439 . S
C1133 H1168 0.950 . S
C1134 N1130 1.383 . S
C1134 C1133 1.439 . S
C1134 C1163 1.392 . S
N1135 Co1129 1.996 1_556 S
N1135 C1136 1.376 . S
N1135 C1139 1.374 . S
C1136 N1135 1.376 . S
C1136 C1137 1.443 . S
C1136 C1163 1.389 . S
C1137 C1136 1.443 . S
C1137 C1138 1.340 . S
C1137 H1169 0.951 . S
C1138 C1137 1.340 . S
C1138 C1139 1.439 . S
C1138 H1170 0.950 . S
C1139 N1135 1.374 . S
C1139 C1138 1.439 . S
C1139 C1164 1.395 1_556 S
N1140 Co1129 2.010 . S
N1140 C1141 1.376 . S
N1140 C1144 1.383 . S
C1141 N1140 1.376 . S
C1141 C1142 1.446 . S
C1141 C1164 1.391 . S
C1142 C1141 1.446 . S
C1142 C1143 1.339 . S
C1142 H1171 0.949 . S
C1143 C1142 1.339 . S
C1143 C1144 1.439 . S
C1143 H1172 0.950 . S
C1144 N1140 1.383 . S
C1144 C1143 1.439 . S
C1144 C1162 1.392 . S
N1145 Co1129 2.302 . S
N1145 C1148 1.332 . S
N1145 C1150 1.332 . S
C1146 C1147 1.386 . S
C1146 C1149 1.388 . S
C1147 C1146 1.386 . S
C1147 C1148 1.382 . S
C1147 H1173 0.950 . S
C1148 N1145 1.332 . S
C1148 C1147 1.382 . S
C1148 H1159 0.952 . S
C1149 C1146 1.388 . S
C1149 C1150 1.382 . S
C1149 H1174 0.950 . S
C1150 N1145 1.332 . S
C1150 C1149 1.382 . S
C1150 H1160 0.948 . S
N1151 Co1129 2.263 1_556 S
N1151 C1155 1.332 . S
N1151 C1156 1.332 . S
C1152 C1153 1.388 . S
C1152 C1156 1.382 . S
C1152 H1175 0.950 . S
C1153 C1152 1.388 . S
C1153 C1154 1.386 . S
C1154 C1153 1.386 . S
C1154 C1155 1.382 . S
C1154 H1176 0.950 . S
C1155 N1151 1.332 . S
C1155 C1154 1.382 . S
C1155 H1157 0.952 . S
C1156 N1151 1.332 . S
C1156 C1152 1.382 . S
C1156 H1158 0.948 . S
H1157 C1155 0.952 . S
H1158 C1156 0.948 . S
H1159 C1148 0.952 . S
H1160 C1150 0.948 . S
C1161 C1127 1.395 1_556 S
C1161 C1131 1.391 . S
C1162 C1124 1.389 . S
C1162 C1144 1.392 . S
C1163 C1134 1.392 . S
C1163 C1136 1.389 . S
C1164 C1139 1.395 1_554 S
C1164 C1141 1.391 . S
H1165 C1125 0.951 . S
H1166 C1126 0.950 . S
H1167 C1132 0.949 . S
H1168 C1133 0.950 . S
H1169 C1137 0.951 . S
H1170 C1138 0.950 . S
H1171 C1142 0.949 . S
H1172 C1143 0.950 . S
H1173 C1147 0.950 . S
H1174 C1149 0.950 . S
H1175 C1152 0.950 . S
H1176 C1154 0.950 . S
C1177 C1178 1.443 . S
C1177 N1181 1.376 . S
C1177 C1215 1.389 . S
C1178 C1177 1.443 . S
C1178 C1179 1.340 . S
C1178 H1218 0.951 . S
C1179 C1178 1.340 . S
C1179 C1180 1.439 . S
C1179 H1219 0.950 . S
C1180 C1179 1.439 . S
C1180 N1181 1.374 . S
C1180 C1214 1.395 . S
N1181 C1177 1.376 . S
N1181 C1180 1.374 . S
N1181 Co1182 2.008 . S
Co1182 N1181 2.008 . S
Co1182 N1183 1.995 1_554 S
Co1182 N1188 2.008 . S
Co1182 N1193 1.995 . S
Co1182 N1198 2.282 . S
Co1182 N1204 2.282 1_554 S
N1183 Co1182 1.995 1_556 S
N1183 C1184 1.376 . S
N1183 C1187 1.383 . S
C1184 N1183 1.376 . S
C1184 C1185 1.446 . S
C1184 C1214 1.391 1_556 S
C1185 C1184 1.446 . S
C1185 C1186 1.339 . S
C1185 H1220 0.949 . S
C1186 C1185 1.339 . S
C1186 C1187 1.439 . S
C1186 H1221 0.950 . S
C1187 N1183 1.383 . S
C1187 C1186 1.439 . S
C1187 C1216 1.392 . S
N1188 Co1182 2.008 . S
N1188 C1189 1.376 1_554 S
N1188 C1192 1.374 . S
C1189 N1188 1.376 1_556 S
C1189 C1190 1.443 . S
C1189 C1216 1.389 . S
C1190 C1189 1.443 . S
C1190 C1191 1.340 . S
C1190 H1222 0.951 . S
C1191 C1190 1.340 . S
C1191 C1192 1.439 1_556 S
C1191 H1223 0.950 . S
C1192 N1188 1.374 . S
C1192 C1191 1.439 1_554 S
C1192 C1217 1.395 . S
N1193 Co1182 1.995 . S
N1193 C1194 1.376 . S
N1193 C1197 1.383 . S
C1194 N1193 1.376 . S
C1194 C1195 1.446 . S
C1194 C1217 1.391 . S
C1195 C1194 1.446 . S
C1195 C1196 1.339 . S
C1195 H1224 0.949 . S
C1196 C1195 1.339 . S
C1196 C1197 1.439 . S
C1196 H1225 0.950 . S
C1197 N1193 1.383 . S
C1197 C1196 1.439 . S
C1197 C1215 1.392 . S
N1198 Co1182 2.282 . S
N1198 C1201 1.332 . S
N1198 C1203 1.332 . S
C1199 C1200 1.386 . S
C1199 C1202 1.388 . S
C1200 C1199 1.386 . S
C1200 C1201 1.382 . S
C1200 H1226 0.950 . S
C1201 N1198 1.332 . S
C1201 C1200 1.382 . S
C1201 H1212 0.952 . S
C1202 C1199 1.388 . S
C1202 C1203 1.382 . S
C1202 H1227 0.950 . S
C1203 N1198 1.332 . S
C1203 C1202 1.382 . S
C1203 H1213 0.948 . S
N1204 Co1182 2.282 1_556 S
N1204 C1208 1.332 . S
N1204 C1209 1.332 . S
C1205 C1206 1.388 . S
C1205 C1209 1.382 . S
C1205 H1228 0.950 . S
C1206 C1205 1.388 . S
C1206 C1207 1.386 . S
C1207 C1206 1.386 . S
C1207 C1208 1.382 . S
C1207 H1229 0.950 . S
C1208 N1204 1.332 . S
C1208 C1207 1.382 . S
C1208 H1210 0.952 . S
C1209 N1204 1.332 . S
C1209 C1205 1.382 . S
C1209 H1211 0.948 . S
H1210 C1208 0.952 . S
H1211 C1209 0.948 . S
H1212 C1201 0.952 . S
H1213 C1203 0.948 . S
C1214 C1180 1.395 . S
C1214 C1184 1.391 1_554 S
C1215 C1177 1.389 . S
C1215 C1197 1.392 . S
C1216 C1187 1.392 . S
C1216 C1189 1.389 . S
C1217 C1192 1.395 . S
C1217 C1194 1.391 . S
H1218 C1178 0.951 . S
H1219 C1179 0.950 . S
H1220 C1185 0.949 . S
H1221 C1186 0.950 . S
H1222 C1190 0.951 . S
H1223 C1191 0.950 . S
H1224 C1195 0.949 . S
H1225 C1196 0.950 . S
H1226 C1200 0.950 . S
H1227 C1202 0.950 . S
H1228 C1205 0.950 . S
H1229 C1207 0.950 . S
C1230 C1231 1.443 . S
C1230 N1234 1.369 1_556 S
C1230 C1268 1.389 . S
C1231 C1230 1.443 . S
C1231 C1232 1.340 . S
C1231 H1271 0.951 . S
C1232 C1231 1.340 . S
C1232 C1233 1.439 1_556 S
C1232 H1272 0.950 . S
C1233 C1232 1.439 1_554 S
C1233 N1234 1.377 . S
C1233 C1267 1.395 . S
N1234 C1230 1.369 1_554 S
N1234 C1233 1.377 . S
N1234 Co1235 2.014 . S
Co1235 N1234 2.014 . S
Co1235 N1236 1.995 . S
Co1235 N1241 2.008 . S
Co1235 N1246 1.995 1_554 S
Co1235 N1251 2.282 1_554 S
Co1235 N1257 2.282 . S
N1236 Co1235 1.995 . S
N1236 C1237 1.376 . S
N1236 C1240 1.383 . S
C1237 N1236 1.376 . S
C1237 C1238 1.446 . S
C1237 C1267 1.391 . S
C1238 C1237 1.446 . S
C1238 C1239 1.339 . S
C1238 H1273 0.949 . S
C1239 C1238 1.339 . S
C1239 C1240 1.439 . S
C1239 H1274 0.950 . S
C1240 N1236 1.383 . S
C1240 C1239 1.439 . S
C1240 C1269 1.392 . S
N1241 Co1235 2.008 . S
N1241 C1242 1.376 . S
N1241 C1245 1.374 . S
C1242 N1241 1.376 . S
C1242 C1243 1.443 . S
C1242 C1269 1.389 . S
C1243 C1242 1.443 . S
C1243 C1244 1.340 . S
C1243 H1275 0.951 . S
C1244 C1243 1.340 . S
C1244 C1245 1.439 . S
C1244 H1276 0.950 . S
C1245 N1241 1.374 . S
C1245 C1244 1.439 . S
C1245 C1270 1.395 . S
N1246 Co1235 1.995 1_556 S
N1246 C1247 1.376 . S
N1246 C1250 1.383 . S
C1247 N1246 1.376 . S
C1247 C1248 1.446 . S
C1247 C1270 1.391 1_556 S
C1248 C1247 1.446 . S
C1248 C1249 1.339 . S
C1248 H1277 0.949 . S
C1249 C1248 1.339 . S
C1249 C1250 1.439 . S
C1249 H1278 0.950 . S
C1250 N1246 1.383 . S
C1250 C1249 1.439 . S
C1250 C1268 1.392 . S
N1251 Co1235 2.282 1_556 S
N1251 C1254 1.332 . S
N1251 C1256 1.332 . S
C1252 C1253 1.386 . S
C1252 C1255 1.388 . S
C1253 C1252 1.386 . S
C1253 C1254 1.382 . S
C1253 H1279 0.950 . S
C1254 N1251 1.332 . S
C1254 C1253 1.382 . S
C1254 H1265 0.952 . S
C1255 C1252 1.388 . S
C1255 C1256 1.382 . S
C1255 H1280 0.950 . S
C1256 N1251 1.332 . S
C1256 C1255 1.382 . S
C1256 H1266 0.948 . S
N1257 Co1235 2.282 . S
N1257 C1261 1.332 . S
N1257 C1262 1.332 . S
C1258 C1259 1.388 . S
C1258 C1262 1.382 . S
C1258 H1281 0.950 . S
C1259 C1258 1.388 . S
C1259 C1260 1.386 . S
C1260 C1259 1.386 . S
C1260 C1261 1.382 . S
C1260 H1282 0.950 . S
C1261 N1257 1.332 . S
C1261 C1260 1.382 . S
C1261 H1263 0.952 . S
C1262 N1257 1.332 . S
C1262 C1258 1.382 . S
C1262 H1264 0.948 . S
H1263 C1261 0.952 . S
H1264 C1262 0.948 . S
H1265 C1254 0.952 . S
H1266 C1256 0.948 . S
C1267 C1233 1.395 . S
C1267 C1237 1.391 . S
C1268 C1230 1.389 . S
C1268 C1250 1.392 . S
C1269 C1240 1.392 . S
C1269 C1242 1.389 . S
C1270 C1245 1.395 . S
C1270 C1247 1.391 1_554 S
H1271 C1231 0.951 . S
H1272 C1232 0.950 . S
H1273 C1238 0.949 . S
H1274 C1239 0.950 . S
H1275 C1243 0.951 . S
H1276 C1244 0.950 . S
H1277 C1248 0.949 . S
H1278 C1249 0.950 . S
H1279 C1253 0.950 . S
H1280 C1255 0.950 . S
H1281 C1258 0.950 . S
H1282 C1260 0.950 . S
C1283 C1284 1.443 . S
C1283 N1287 1.376 . S
C1283 C1321 1.389 . S
C1284 C1283 1.443 . S
C1284 C1285 1.340 . S
C1284 H1324 0.951 . S
C1285 C1284 1.340 . S
C1285 C1286 1.439 . S
C1285 H1325 0.950 . S
C1286 C1285 1.439 . S
C1286 N1287 1.374 . S
C1286 C1320 1.395 . S
N1287 C1283 1.376 . S
N1287 C1286 1.374 . S
N1287 Co1288 2.008 . S
Co1288 N1287 2.008 . S
Co1288 N1289 1.995 1_554 S
Co1288 N1294 2.008 . S
Co1288 N1299 1.995 . S
Co1288 N1304 2.282 . S
Co1288 N1310 2.282 1_554 S
N1289 Co1288 1.995 1_556 S
N1289 C1290 1.376 . S
N1289 C1293 1.383 . S
C1290 N1289 1.376 . S
C1290 C1291 1.446 . S
C1290 C1320 1.391 1_556 S
C1291 C1290 1.446 . S
C1291 C1292 1.339 . S
C1291 H1326 0.949 . S
C1292 C1291 1.339 . S
C1292 C1293 1.439 . S
C1292 H1327 0.950 . S
C1293 N1289 1.383 . S
C1293 C1292 1.439 . S
C1293 C1322 1.392 . S
N1294 Co1288 2.008 . S
N1294 C1295 1.376 1_554 S
N1294 C1298 1.374 . S
C1295 N1294 1.376 1_556 S
C1295 C1296 1.443 . S
C1295 C1322 1.389 . S
C1296 C1295 1.443 . S
C1296 C1297 1.340 . S
C1296 H1328 0.951 . S
C1297 C1296 1.340 . S
C1297 C1298 1.439 1_556 S
C1297 H1329 0.950 . S
C1298 N1294 1.374 . S
C1298 C1297 1.439 1_554 S
C1298 C1323 1.395 . S
N1299 Co1288 1.995 . S
N1299 C1300 1.376 . S
N1299 C1303 1.383 . S
C1300 N1299 1.376 . S
C1300 C1301 1.446 . S
C1300 C1323 1.391 . S
C1301 C1300 1.446 . S
C1301 C1302 1.339 . S
C1301 H1330 0.949 . S
C1302 C1301 1.339 . S
C1302 C1303 1.439 . S
C1302 H1331 0.950 . S
C1303 N1299 1.383 . S
C1303 C1302 1.439 . S
C1303 C1321 1.392 . S
N1304 Co1288 2.282 . S
N1304 C1307 1.332 . S
N1304 C1309 1.332 . S
C1305 C1306 1.386 . S
C1305 C1308 1.388 . S
C1306 C1305 1.386 . S
C1306 C1307 1.382 . S
C1306 H1332 0.950 . S
C1307 N1304 1.332 . S
C1307 C1306 1.382 . S
C1307 H1318 0.952 . S
C1308 C1305 1.388 . S
C1308 C1309 1.382 . S
C1308 H1333 0.950 . S
C1309 N1304 1.332 . S
C1309 C1308 1.382 . S
C1309 H1319 0.948 . S
N1310 Co1288 2.282 1_556 S
N1310 C1314 1.332 . S
N1310 C1315 1.332 . S
C1311 C1312 1.388 . S
C1311 C1315 1.382 . S
C1311 H1334 0.950 . S
C1312 C1311 1.388 . S
C1312 C1313 1.386 . S
C1313 C1312 1.386 . S
C1313 C1314 1.382 . S
C1313 H1335 0.950 . S
C1314 N1310 1.332 . S
C1314 C1313 1.382 . S
C1314 H1316 0.952 . S
C1315 N1310 1.332 . S
C1315 C1311 1.382 . S
C1315 H1317 0.948 . S
H1316 C1314 0.952 . S
H1317 C1315 0.948 . S
H1318 C1307 0.952 . S
H1319 C1309 0.948 . S
C1320 C1286 1.395 . S
C1320 C1290 1.391 1_554 S
C1321 C1283 1.389 . S
C1321 C1303 1.392 . S
C1322 C1293 1.392 . S
C1322 C1295 1.389 . S
C1323 C1298 1.395 . S
C1323 C1300 1.391 . S
H1324 C1284 0.951 . S
H1325 C1285 0.950 . S
H1326 C1291 0.949 . S
H1327 C1292 0.950 . S
H1328 C1296 0.951 . S
H1329 C1297 0.950 . S
H1330 C1301 0.949 . S
H1331 C1302 0.950 . S
H1332 C1306 0.950 . S
H1333 C1308 0.950 . S
H1334 C1311 0.950 . S
H1335 C1313 0.950 . S
C1336 C1337 1.349 . S
C1336 C1338 1.327 . S
C1336 H1361 0.950 . S
C1337 C1336 1.349 . S
C1337 C1353 1.349 . S
C1338 C1336 1.327 . S
C1338 C1357 1.429 . S
C1338 H1362 0.950 . S
C1339 C1356 1.574 . S
C1339 C1358 1.368 . S
C1339 H1363 0.949 . S
H1340 C1344 0.949 . S
C1341 C1342 1.349 . S
C1341 C1343 1.327 . S
C1341 H1364 0.950 . S
C1342 C1341 1.349 . S
C1342 C1354 1.349 . S
C1343 C1341 1.327 . S
C1343 C1359 1.429 . S
C1343 H1365 0.950 . S
C1344 H1340 0.949 . S
C1344 C1352 1.574 . S
C1344 C1360 1.368 . S
H1345 C1353 0.950 . S
H1346 C1351 0.950 . S
H1347 C1352 0.949 . S
H1348 C1354 0.950 . S
H1349 C1355 0.950 . S
H1350 C1356 0.949 . S
C1351 H1346 0.950 . S
C1351 C1353 1.327 . S
C1351 C1357 1.429 . S
C1352 C1344 1.574 . S
C1352 H1347 0.949 . S
C1352 C1358 1.368 . S
C1353 C1337 1.349 . S
C1353 H1345 0.950 . S
C1353 C1351 1.327 . S
C1354 C1342 1.349 . S
C1354 H1348 0.950 . S
C1354 C1355 1.327 . S
C1355 H1349 0.950 . S
C1355 C1354 1.327 . S
C1355 C1359 1.429 . S
C1356 C1339 1.574 . S
C1356 H1350 0.949 . S
C1356 C1360 1.368 . S
C1357 C1338 1.429 . S
C1357 C1351 1.429 . S
C1357 C1358 1.523 . S
C1358 C1339 1.368 . S
C1358 C1352 1.368 . S
C1358 C1357 1.523 . S
C1359 C1343 1.429 . S
C1359 C1355 1.429 . S
C1359 C1360 1.523 . S
C1360 C1344 1.368 . S
C1360 C1356 1.368 . S
C1360 C1359 1.523 . S
H1361 C1336 0.950 . S
H1362 C1338 0.950 . S
H1363 C1339 0.949 . S
H1364 C1341 0.950 . S
H1365 C1343 0.950 . S
C1366 C1367 1.349 . S
C1366 C1368 1.327 . S
C1366 H1391 0.950 . S
C1367 C1366 1.349 . S
C1367 C1383 1.349 . S
C1368 C1366 1.327 . S
C1368 C1387 1.429 . S
C1368 H1392 0.950 . S
C1369 C1386 1.574 . S
C1369 C1388 1.368 . S
C1369 H1393 0.949 . S
H1370 C1374 0.949 . S
C1371 C1372 1.349 . S
C1371 C1373 1.327 . S
C1371 H1394 0.950 . S
C1372 C1371 1.349 . S
C1372 C1384 1.349 . S
C1373 C1371 1.327 . S
C1373 C1389 1.429 . S
C1373 H1395 0.950 . S
C1374 H1370 0.949 . S
C1374 C1382 1.574 . S
C1374 C1390 1.368 . S
H1375 C1383 0.950 . S
H1376 C1381 0.950 . S
H1377 C1382 0.949 . S
H1378 C1384 0.950 . S
H1379 C1385 0.950 . S
H1380 C1386 0.949 . S
C1381 H1376 0.950 . S
C1381 C1383 1.327 . S
C1381 C1387 1.429 . S
C1382 C1374 1.574 . S
C1382 H1377 0.949 . S
C1382 C1388 1.368 . S
C1383 C1367 1.349 . S
C1383 H1375 0.950 . S
C1383 C1381 1.327 . S
C1384 C1372 1.349 . S
C1384 H1378 0.950 . S
C1384 C1385 1.327 . S
C1385 H1379 0.950 . S
C1385 C1384 1.327 . S
C1385 C1389 1.429 . S
C1386 C1369 1.574 . S
C1386 H1380 0.949 . S
C1386 C1390 1.368 . S
C1387 C1368 1.429 . S
C1387 C1381 1.429 . S
C1387 C1388 1.523 . S
C1388 C1369 1.368 . S
C1388 C1382 1.368 . S
C1388 C1387 1.523 . S
C1389 C1373 1.429 . S
C1389 C1385 1.429 . S
C1389 C1390 1.523 . S
C1390 C1374 1.368 . S
C1390 C1386 1.368 . S
C1390 C1389 1.523 . S
H1391 C1366 0.950 . S
H1392 C1368 0.950 . S
H1393 C1369 0.949 . S
H1394 C1371 0.950 . S
H1395 C1373 0.950 . S
C1396 C1397 1.349 . S
C1396 C1398 1.327 . S
C1396 H1421 0.950 . S
C1397 C1396 1.349 . S
C1397 C1413 1.349 . S
C1398 C1396 1.327 . S
C1398 C1417 1.429 . S
C1398 H1422 0.950 . S
C1399 C1416 1.574 . S
C1399 C1418 1.368 . S
C1399 H1423 0.949 . S
H1400 C1404 0.949 . S
C1401 C1402 1.349 . S
C1401 C1403 1.327 . S
C1401 H1424 0.950 . S
C1402 C1401 1.349 . S
C1402 C1414 1.349 . S
C1403 C1401 1.327 . S
C1403 C1419 1.429 . S
C1403 H1425 0.950 . S
C1404 H1400 0.949 . S
C1404 C1412 1.574 . S
C1404 C1420 1.368 . S
H1405 C1413 0.950 . S
H1406 C1411 0.950 . S
H1407 C1412 0.949 . S
H1408 C1414 0.950 . S
H1409 C1415 0.950 . S
H1410 C1416 0.949 . S
C1411 H1406 0.950 . S
C1411 C1413 1.327 . S
C1411 C1417 1.429 . S
C1412 C1404 1.574 . S
C1412 H1407 0.949 . S
C1412 C1418 1.368 . S
C1413 C1397 1.349 . S
C1413 H1405 0.950 . S
C1413 C1411 1.327 . S
C1414 C1402 1.349 . S
C1414 H1408 0.950 . S
C1414 C1415 1.327 . S
C1415 H1409 0.950 . S
C1415 C1414 1.327 . S
C1415 C1419 1.429 . S
C1416 C1399 1.574 . S
C1416 H1410 0.949 . S
C1416 C1420 1.368 . S
C1417 C1398 1.429 . S
C1417 C1411 1.429 . S
C1417 C1418 1.523 . S
C1418 C1399 1.368 . S
C1418 C1412 1.368 . S
C1418 C1417 1.523 . S
C1419 C1403 1.429 . S
C1419 C1415 1.429 . S
C1419 C1420 1.523 . S
C1420 C1404 1.368 . S
C1420 C1416 1.368 . S
C1420 C1419 1.523 . S
H1421 C1396 0.950 . S
H1422 C1398 0.950 . S
H1423 C1399 0.949 . S
H1424 C1401 0.950 . S
H1425 C1403 0.950 . S
C1426 C1427 1.349 . S
C1426 C1428 1.327 . S
C1426 H1451 0.950 . S
C1427 C1426 1.349 . S
C1427 C1443 1.349 . S
C1428 C1426 1.327 . S
C1428 C1447 1.429 . S
C1428 H1452 0.950 . S
C1429 C1446 1.574 . S
C1429 C1448 1.368 . S
C1429 H1453 0.949 . S
H1430 C1434 0.949 . S
C1431 C1432 1.349 . S
C1431 C1433 1.327 . S
C1431 H1454 0.950 . S
C1432 C1431 1.349 . S
C1432 C1444 1.349 . S
C1433 C1431 1.327 . S
C1433 C1449 1.429 . S
C1433 H1455 0.950 . S
C1434 H1430 0.949 . S
C1434 C1442 1.574 . S
C1434 C1450 1.368 . S
H1435 C1443 0.950 . S
H1436 C1441 0.950 . S
H1437 C1442 0.949 . S
H1438 C1444 0.950 . S
H1439 C1445 0.950 . S
H1440 C1446 0.949 . S
C1441 H1436 0.950 . S
C1441 C1443 1.327 . S
C1441 C1447 1.429 . S
C1442 C1434 1.574 . S
C1442 H1437 0.949 . S
C1442 C1448 1.368 . S
C1443 C1427 1.349 . S
C1443 H1435 0.950 . S
C1443 C1441 1.327 . S
C1444 C1432 1.349 . S
C1444 H1438 0.950 . S
C1444 C1445 1.327 . S
C1445 H1439 0.950 . S
C1445 C1444 1.327 . S
C1445 C1449 1.429 . S
C1446 C1429 1.574 . S
C1446 H1440 0.949 . S
C1446 C1450 1.368 . S
C1447 C1428 1.429 . S
C1447 C1441 1.429 . S
C1447 C1448 1.523 . S
C1448 C1429 1.368 . S
C1448 C1442 1.368 . S
C1448 C1447 1.523 . S
C1449 C1433 1.429 . S
C1449 C1445 1.429 . S
C1449 C1450 1.523 . S
C1450 C1434 1.368 . S
C1450 C1446 1.368 . S
C1450 C1449 1.523 . S
H1451 C1426 0.950 . S
H1452 C1428 0.950 . S
H1453 C1429 0.949 . S
H1454 C1431 0.950 . S
H1455 C1433 0.950 . S
C1456 C1457 1.349 . S
C1456 C1458 1.327 . S
C1456 H1481 0.950 . S
C1457 C1456 1.349 . S
C1457 C1473 1.349 . S
C1458 C1456 1.327 . S
C1458 C1477 1.429 . S
C1458 H1482 0.950 . S
C1459 C1476 1.574 . S
C1459 C1478 1.368 . S
C1459 H1483 0.949 . S
H1460 C1464 0.949 . S
C1461 C1462 1.349 . S
C1461 C1463 1.327 . S
C1461 H1484 0.950 . S
C1462 C1461 1.349 . S
C1462 C1474 1.349 . S
C1463 C1461 1.327 . S
C1463 C1479 1.429 . S
C1463 H1485 0.950 . S
C1464 H1460 0.949 . S
C1464 C1472 1.574 . S
C1464 C1480 1.368 . S
H1465 C1473 0.950 . S
H1466 C1471 0.950 . S
H1467 C1472 0.949 . S
H1468 C1474 0.950 . S
H1469 C1475 0.950 . S
H1470 C1476 0.949 . S
C1471 H1466 0.950 . S
C1471 C1473 1.327 . S
C1471 C1477 1.429 . S
C1472 C1464 1.574 . S
C1472 H1467 0.949 . S
C1472 C1478 1.368 . S
C1473 C1457 1.349 . S
C1473 H1465 0.950 . S
C1473 C1471 1.327 . S
C1474 C1462 1.349 . S
C1474 H1468 0.950 . S
C1474 C1475 1.327 . S
C1475 H1469 0.950 . S
C1475 C1474 1.327 . S
C1475 C1479 1.429 . S
C1476 C1459 1.574 . S
C1476 H1470 0.949 . S
C1476 C1480 1.368 . S
C1477 C1458 1.429 . S
C1477 C1471 1.429 . S
C1477 C1478 1.523 . S
C1478 C1459 1.368 . S
C1478 C1472 1.368 . S
C1478 C1477 1.523 . S
C1479 C1463 1.429 . S
C1479 C1475 1.429 . S
C1479 C1480 1.523 . S
C1480 C1464 1.368 . S
C1480 C1476 1.368 . S
C1480 C1479 1.523 . S
H1481 C1456 0.950 . S
H1482 C1458 0.950 . S
H1483 C1459 0.949 . S
H1484 C1461 0.950 . S
H1485 C1463 0.950 . S
C1486 C1487 1.349 . S
C1486 C1488 1.327 . S
C1486 H1511 0.950 . S
C1487 C1486 1.349 . S
C1487 C1503 1.349 . S
C1488 C1486 1.327 . S
C1488 C1507 1.429 . S
C1488 H1512 0.950 . S
C1489 C1506 1.574 . S
C1489 C1508 1.368 . S
C1489 H1513 0.949 . S
H1490 C1494 0.949 . S
C1491 C1492 1.349 . S
C1491 C1493 1.327 . S
C1491 H1514 0.950 . S
C1492 C1491 1.349 . S
C1492 C1504 1.349 . S
C1493 C1491 1.327 . S
C1493 C1509 1.429 . S
C1493 H1515 0.950 . S
C1494 H1490 0.949 . S
C1494 C1502 1.574 . S
C1494 C1510 1.368 . S
H1495 C1503 0.950 . S
H1496 C1501 0.950 . S
H1497 C1502 0.949 . S
H1498 C1504 0.950 . S
H1499 C1505 0.950 . S
H1500 C1506 0.949 . S
C1501 H1496 0.950 . S
C1501 C1503 1.327 . S
C1501 C1507 1.429 . S
C1502 C1494 1.574 . S
C1502 H1497 0.949 . S
C1502 C1508 1.368 . S
C1503 C1487 1.349 . S
C1503 H1495 0.950 . S
C1503 C1501 1.327 . S
C1504 C1492 1.349 . S
C1504 H1498 0.950 . S
C1504 C1505 1.327 . S
C1505 H1499 0.950 . S
C1505 C1504 1.327 . S
C1505 C1509 1.429 . S
C1506 C1489 1.574 . S
C1506 H1500 0.949 . S
C1506 C1510 1.368 . S
C1507 C1488 1.429 . S
C1507 C1501 1.429 . S
C1507 C1508 1.523 . S
C1508 C1489 1.368 . S
C1508 C1502 1.368 . S
C1508 C1507 1.523 . S
C1509 C1493 1.429 . S
C1509 C1505 1.429 . S
C1509 C1510 1.523 . S
C1510 C1494 1.368 . S
C1510 C1506 1.368 . S
C1510 C1509 1.523 . S
H1511 C1486 0.950 . S
H1512 C1488 0.950 . S
H1513 C1489 0.949 . S
H1514 C1491 0.950 . S
H1515 C1493 0.950 . S
C1516 C1517 1.349 . S
C1516 C1518 1.327 . S
C1516 H1541 0.950 . S
C1517 C1516 1.349 . S
C1517 C1533 1.349 . S
C1518 C1516 1.327 . S
C1518 C1537 1.429 . S
C1518 H1542 0.950 . S
C1519 C1536 1.574 . S
C1519 C1538 1.368 . S
C1519 H1543 0.949 . S
H1520 C1524 0.949 . S
C1521 C1522 1.349 . S
C1521 C1523 1.327 . S
C1521 H1544 0.950 . S
C1522 C1521 1.349 . S
C1522 C1534 1.349 . S
C1523 C1521 1.327 . S
C1523 C1539 1.429 . S
C1523 H1545 0.950 . S
C1524 H1520 0.949 . S
C1524 C1532 1.574 . S
C1524 C1540 1.368 . S
H1525 C1533 0.950 . S
H1526 C1531 0.950 . S
H1527 C1532 0.949 . S
H1528 C1534 0.950 . S
H1529 C1535 0.950 . S
H1530 C1536 0.949 . S
C1531 H1526 0.950 . S
C1531 C1533 1.327 . S
C1531 C1537 1.429 . S
C1532 C1524 1.574 . S
C1532 H1527 0.949 . S
C1532 C1538 1.368 . S
C1533 C1517 1.349 . S
C1533 H1525 0.950 . S
C1533 C1531 1.327 . S
C1534 C1522 1.349 . S
C1534 H1528 0.950 . S
C1534 C1535 1.327 . S
C1535 H1529 0.950 . S
C1535 C1534 1.327 . S
C1535 C1539 1.429 . S
C1536 C1519 1.574 . S
C1536 H1530 0.949 . S
C1536 C1540 1.368 . S
C1537 C1518 1.429 . S
C1537 C1531 1.429 . S
C1537 C1538 1.523 . S
C1538 C1519 1.368 . S
C1538 C1532 1.368 . S
C1538 C1537 1.523 . S
C1539 C1523 1.429 . S
C1539 C1535 1.429 . S
C1539 C1540 1.523 . S
C1540 C1524 1.368 . S
C1540 C1536 1.368 . S
C1540 C1539 1.523 . S
H1541 C1516 0.950 . S
H1542 C1518 0.950 . S
H1543 C1519 0.949 . S
H1544 C1521 0.950 . S
H1545 C1523 0.950 . S
C1546 C1547 1.349 . S
C1546 C1548 1.327 . S
C1546 H1571 0.950 . S
C1547 C1546 1.349 . S
C1547 C1563 1.349 . S
C1548 C1546 1.327 . S
C1548 C1567 1.429 . S
C1548 H1572 0.950 . S
C1549 C1566 1.574 . S
C1549 C1568 1.368 . S
C1549 H1573 0.949 . S
H1550 C1554 0.949 . S
C1551 C1552 1.349 . S
C1551 C1553 1.327 . S
C1551 H1574 0.950 . S
C1552 C1551 1.349 . S
C1552 C1564 1.349 . S
C1553 C1551 1.327 . S
C1553 C1569 1.429 . S
C1553 H1575 0.950 . S
C1554 H1550 0.949 . S
C1554 C1562 1.574 . S
C1554 C1570 1.368 . S
H1555 C1563 0.950 . S
H1556 C1561 0.950 . S
H1557 C1562 0.949 . S
H1558 C1564 0.950 . S
H1559 C1565 0.950 . S
H1560 C1566 0.949 . S
C1561 H1556 0.950 . S
C1561 C1563 1.327 . S
C1561 C1567 1.429 . S
C1562 C1554 1.574 . S
C1562 H1557 0.949 . S
C1562 C1568 1.368 . S
C1563 C1547 1.349 . S
C1563 H1555 0.950 . S
C1563 C1561 1.327 . S
C1564 C1552 1.349 . S
C1564 H1558 0.950 . S
C1564 C1565 1.327 . S
C1565 H1559 0.950 . S
C1565 C1564 1.327 . S
C1565 C1569 1.429 . S
C1566 C1549 1.574 . S
C1566 H1560 0.949 . S
C1566 C1570 1.368 . S
C1567 C1548 1.429 . S
C1567 C1561 1.429 . S
C1567 C1568 1.523 . S
C1568 C1549 1.368 . S
C1568 C1562 1.368 . S
C1568 C1567 1.523 . S
C1569 C1553 1.429 . S
C1569 C1565 1.429 . S
C1569 C1570 1.523 . S
C1570 C1554 1.368 . S
C1570 C1566 1.368 . S
C1570 C1569 1.523 . S
H1571 C1546 0.950 . S
H1572 C1548 0.950 . S
H1573 C1549 0.949 . S
H1574 C1551 0.950 . S
H1575 C1553 0.950 . S
C1576 C1577 1.349 . S
C1576 C1578 1.327 . S
C1576 H1601 0.950 . S
C1577 C1576 1.349 . S
C1577 C1593 1.349 . S
C1578 C1576 1.327 . S
C1578 C1597 1.429 . S
C1578 H1602 0.950 . S
C1579 C1596 1.574 . S
C1579 C1598 1.368 . S
C1579 H1603 0.949 . S
H1580 C1584 0.949 . S
C1581 C1582 1.349 . S
C1581 C1583 1.327 . S
C1581 H1604 0.950 . S
C1582 C1581 1.349 . S
C1582 C1594 1.349 . S
C1583 C1581 1.327 . S
C1583 C1599 1.429 . S
C1583 H1605 0.950 . S
C1584 H1580 0.949 . S
C1584 C1592 1.574 . S
C1584 C1600 1.368 . S
H1585 C1593 0.950 . S
H1586 C1591 0.950 . S
H1587 C1592 0.949 . S
H1588 C1594 0.950 . S
H1589 C1595 0.950 . S
H1590 C1596 0.949 . S
C1591 H1586 0.950 . S
C1591 C1593 1.327 . S
C1591 C1597 1.429 . S
C1592 C1584 1.574 . S
C1592 H1587 0.949 . S
C1592 C1598 1.368 . S
C1593 C1577 1.349 . S
C1593 H1585 0.950 . S
C1593 C1591 1.327 . S
C1594 C1582 1.349 . S
C1594 H1588 0.950 . S
C1594 C1595 1.327 . S
C1595 H1589 0.950 . S
C1595 C1594 1.327 . S
C1595 C1599 1.429 . S
C1596 C1579 1.574 . S
C1596 H1590 0.949 . S
C1596 C1600 1.368 . S
C1597 C1578 1.429 . S
C1597 C1591 1.429 . S
C1597 C1598 1.523 . S
C1598 C1579 1.368 . S
C1598 C1592 1.368 . S
C1598 C1597 1.523 . S
C1599 C1583 1.429 . S
C1599 C1595 1.429 . S
C1599 C1600 1.523 . S
C1600 C1584 1.368 . S
C1600 C1596 1.368 . S
C1600 C1599 1.523 . S
H1601 C1576 0.950 . S
H1602 C1578 0.950 . S
H1603 C1579 0.949 . S
H1604 C1581 0.950 . S
H1605 C1583 0.950 . S
C1606 C1607 1.349 . S
C1606 C1608 1.327 . S
C1606 H1631 0.950 . S
C1607 C1606 1.349 . S
C1607 C1623 1.349 . S
C1608 C1606 1.327 . S
C1608 C1627 1.429 . S
C1608 H1632 0.950 . S
C1609 C1626 1.574 . S
C1609 C1628 1.368 . S
C1609 H1633 0.949 . S
H1610 C1614 0.949 . S
C1611 C1612 1.349 . S
C1611 C1613 1.327 . S
C1611 H1634 0.950 . S
C1612 C1611 1.349 . S
C1612 C1624 1.349 . S
C1613 C1611 1.327 . S
C1613 C1629 1.429 . S
C1613 H1635 0.950 . S
C1614 H1610 0.949 . S
C1614 C1622 1.574 . S
C1614 C1630 1.368 . S
H1615 C1623 0.950 . S
H1616 C1621 0.950 . S
H1617 C1622 0.949 . S
H1618 C1624 0.950 . S
H1619 C1625 0.950 . S
H1620 C1626 0.949 . S
C1621 H1616 0.950 . S
C1621 C1623 1.327 . S
C1621 C1627 1.429 . S
C1622 C1614 1.574 . S
C1622 H1617 0.949 . S
C1622 C1628 1.368 . S
C1623 C1607 1.349 . S
C1623 H1615 0.950 . S
C1623 C1621 1.327 . S
C1624 C1612 1.349 . S
C1624 H1618 0.950 . S
C1624 C1625 1.327 . S
C1625 H1619 0.950 . S
C1625 C1624 1.327 . S
C1625 C1629 1.429 . S
C1626 C1609 1.574 . S
C1626 H1620 0.949 . S
C1626 C1630 1.368 . S
C1627 C1608 1.429 . S
C1627 C1621 1.429 . S
C1627 C1628 1.523 . S
C1628 C1609 1.368 . S
C1628 C1622 1.368 . S
C1628 C1627 1.523 . S
C1629 C1613 1.429 . S
C1629 C1625 1.429 . S
C1629 C1630 1.523 . S
C1630 C1614 1.368 . S
C1630 C1626 1.368 . S
C1630 C1629 1.523 . S
H1631 C1606 0.950 . S
H1632 C1608 0.950 . S
H1633 C1609 0.949 . S
H1634 C1611 0.950 . S
H1635 C1613 0.950 . S
C1636 C1637 1.349 . S
C1636 C1638 1.327 . S
C1636 H1661 0.950 . S
C1637 C1636 1.349 . S
C1637 C1653 1.349 . S
C1638 C1636 1.327 . S
C1638 C1657 1.429 . S
C1638 H1662 0.950 . S
C1639 C1656 1.574 . S
C1639 C1658 1.368 . S
C1639 H1663 0.949 . S
H1640 C1644 0.949 . S
C1641 C1642 1.349 . S
C1641 C1643 1.327 . S
C1641 H1664 0.950 . S
C1642 C1641 1.349 . S
C1642 C1654 1.349 . S
C1643 C1641 1.327 . S
C1643 C1659 1.429 . S
C1643 H1665 0.950 . S
C1644 H1640 0.949 . S
C1644 C1652 1.574 . S
C1644 C1660 1.368 . S
H1645 C1653 0.950 . S
H1646 C1651 0.950 . S
H1647 C1652 0.949 . S
H1648 C1654 0.950 . S
H1649 C1655 0.950 . S
H1650 C1656 0.949 . S
C1651 H1646 0.950 . S
C1651 C1653 1.327 . S
C1651 C1657 1.429 . S
C1652 C1644 1.574 . S
C1652 H1647 0.949 . S
C1652 C1658 1.368 . S
C1653 C1637 1.349 . S
C1653 H1645 0.950 . S
C1653 C1651 1.327 . S
C1654 C1642 1.349 . S
C1654 H1648 0.950 . S
C1654 C1655 1.327 . S
C1655 H1649 0.950 . S
C1655 C1654 1.327 . S
C1655 C1659 1.429 . S
C1656 C1639 1.574 . S
C1656 H1650 0.949 . S
C1656 C1660 1.368 . S
C1657 C1638 1.429 . S
C1657 C1651 1.429 . S
C1657 C1658 1.523 . S
C1658 C1639 1.368 . S
C1658 C1652 1.368 . S
C1658 C1657 1.523 . S
C1659 C1643 1.429 . S
C1659 C1655 1.429 . S
C1659 C1660 1.523 . S
C1660 C1644 1.368 . S
C1660 C1656 1.368 . S
C1660 C1659 1.523 . S
H1661 C1636 0.950 . S
H1662 C1638 0.950 . S
H1663 C1639 0.949 . S
H1664 C1641 0.950 . S
H1665 C1643 0.950 . S
C1666 C1667 1.349 . S
C1666 C1668 1.327 . S
C1666 H1691 0.950 . S
C1667 C1666 1.349 . S
C1667 C1683 1.349 . S
C1668 C1666 1.327 . S
C1668 C1687 1.429 . S
C1668 H1692 0.950 . S
C1669 C1686 1.574 . S
C1669 C1688 1.368 . S
C1669 H1693 0.949 . S
H1670 C1674 0.949 . S
C1671 C1672 1.349 . S
C1671 C1673 1.327 . S
C1671 H1694 0.950 . S
C1672 C1671 1.349 . S
C1672 C1684 1.349 . S
C1673 C1671 1.327 . S
C1673 C1689 1.429 . S
C1673 H1695 0.950 . S
C1674 H1670 0.949 . S
C1674 C1682 1.574 . S
C1674 C1690 1.368 . S
H1675 C1683 0.950 . S
H1676 C1681 0.950 . S
H1677 C1682 0.949 . S
H1678 C1684 0.950 . S
H1679 C1685 0.950 . S
H1680 C1686 0.949 . S
C1681 H1676 0.950 . S
C1681 C1683 1.327 . S
C1681 C1687 1.429 . S
C1682 C1674 1.574 . S
C1682 H1677 0.949 . S
C1682 C1688 1.368 . S
C1683 C1667 1.349 . S
C1683 H1675 0.950 . S
C1683 C1681 1.327 . S
C1684 C1672 1.349 . S
C1684 H1678 0.950 . S
C1684 C1685 1.327 . S
C1685 H1679 0.950 . S
C1685 C1684 1.327 . S
C1685 C1689 1.429 . S
C1686 C1669 1.574 . S
C1686 H1680 0.949 . S
C1686 C1690 1.368 . S
C1687 C1668 1.429 . S
C1687 C1681 1.429 . S
C1687 C1688 1.523 . S
C1688 C1669 1.368 . S
C1688 C1682 1.368 . S
C1688 C1687 1.523 . S
C1689 C1673 1.429 . S
C1689 C1685 1.429 . S
C1689 C1690 1.523 . S
C1690 C1674 1.368 . S
C1690 C1686 1.368 . S
C1690 C1689 1.523 . S
H1691 C1666 0.950 . S
H1692 C1668 0.950 . S
H1693 C1669 0.949 . S
H1694 C1671 0.950 . S
H1695 C1673 0.950 . S
C1696 C1697 1.349 . S
C1696 C1698 1.327 . S
C1696 H1721 0.950 . S
C1697 C1696 1.349 . S
C1697 C1713 1.349 . S
C1698 C1696 1.327 . S
C1698 C1717 1.429 . S
C1698 H1722 0.950 . S
C1699 C1716 1.574 . S
C1699 C1718 1.368 . S
C1699 H1723 0.949 . S
H1700 C1704 0.949 . S
C1701 C1702 1.349 . S
C1701 C1703 1.327 . S
C1701 H1724 0.950 . S
C1702 C1701 1.349 . S
C1702 C1714 1.349 . S
C1703 C1701 1.327 . S
C1703 C1719 1.429 . S
C1703 H1725 0.950 . S
C1704 H1700 0.949 . S
C1704 C1712 1.574 . S
C1704 C1720 1.368 . S
H1705 C1713 0.950 . S
H1706 C1711 0.950 . S
H1707 C1712 0.949 . S
H1708 C1714 0.950 . S
H1709 C1715 0.950 . S
H1710 C1716 0.949 . S
C1711 H1706 0.950 . S
C1711 C1713 1.327 . S
C1711 C1717 1.429 . S
C1712 C1704 1.574 . S
C1712 H1707 0.949 . S
C1712 C1718 1.368 . S
C1713 C1697 1.349 . S
C1713 H1705 0.950 . S
C1713 C1711 1.327 . S
C1714 C1702 1.349 . S
C1714 H1708 0.950 . S
C1714 C1715 1.327 . S
C1715 H1709 0.950 . S
C1715 C1714 1.327 . S
C1715 C1719 1.429 . S
C1716 C1699 1.574 . S
C1716 H1710 0.949 . S
C1716 C1720 1.368 . S
C1717 C1698 1.429 . S
C1717 C1711 1.429 . S
C1717 C1718 1.523 . S
C1718 C1699 1.368 . S
C1718 C1712 1.368 . S
C1718 C1717 1.523 . S
C1719 C1703 1.429 . S
C1719 C1715 1.429 . S
C1719 C1720 1.523 . S
C1720 C1704 1.368 . S
C1720 C1716 1.368 . S
C1720 C1719 1.523 . S
H1721 C1696 0.950 . S
H1722 C1698 0.950 . S
H1723 C1699 0.949 . S
H1724 C1701 0.950 . S
H1725 C1703 0.950 . S
C1726 C1727 1.349 . S
C1726 C1728 1.327 . S
C1726 H1751 0.950 . S
C1727 C1726 1.349 . S
C1727 C1743 1.349 . S
C1728 C1726 1.327 . S
C1728 C1747 1.429 . S
C1728 H1752 0.950 . S
C1729 C1746 1.574 . S
C1729 C1748 1.368 . S
C1729 H1753 0.949 . S
H1730 C1734 0.949 . S
C1731 C1732 1.349 . S
C1731 C1733 1.327 . S
C1731 H1754 0.950 . S
C1732 C1731 1.349 . S
C1732 C1744 1.349 . S
C1733 C1731 1.327 . S
C1733 C1749 1.429 . S
C1733 H1755 0.950 . S
C1734 H1730 0.949 . S
C1734 C1742 1.574 . S
C1734 C1750 1.368 . S
H1735 C1743 0.950 . S
H1736 C1741 0.950 . S
H1737 C1742 0.949 . S
H1738 C1744 0.950 . S
H1739 C1745 0.950 . S
H1740 C1746 0.949 . S
C1741 H1736 0.950 . S
C1741 C1743 1.327 . S
C1741 C1747 1.429 . S
C1742 C1734 1.574 . S
C1742 H1737 0.949 . S
C1742 C1748 1.368 . S
C1743 C1727 1.349 . S
C1743 H1735 0.950 . S
C1743 C1741 1.327 . S
C1744 C1732 1.349 . S
C1744 H1738 0.950 . S
C1744 C1745 1.327 . S
C1745 H1739 0.950 . S
C1745 C1744 1.327 . S
C1745 C1749 1.429 . S
C1746 C1729 1.574 . S
C1746 H1740 0.949 . S
C1746 C1750 1.368 . S
C1747 C1728 1.429 . S
C1747 C1741 1.429 . S
C1747 C1748 1.523 . S
C1748 C1729 1.368 . S
C1748 C1742 1.368 . S
C1748 C1747 1.523 . S
C1749 C1733 1.429 . S
C1749 C1745 1.429 . S
C1749 C1750 1.523 . S
C1750 C1734 1.368 . S
C1750 C1746 1.368 . S
C1750 C1749 1.523 . S
H1751 C1726 0.950 . S
H1752 C1728 0.950 . S
H1753 C1729 0.949 . S
H1754 C1731 0.950 . S
H1755 C1733 0.950 . S
C1756 C1757 1.349 . S
C1756 C1758 1.327 . S
C1756 H1781 0.950 . S
C1757 C1756 1.349 . S
C1757 C1773 1.349 . S
C1758 C1756 1.327 . S
C1758 C1777 1.429 . S
C1758 H1782 0.950 . S
C1759 C1776 1.574 . S
C1759 C1778 1.368 . S
C1759 H1783 0.949 . S
H1760 C1764 0.949 . S
C1761 C1762 1.349 . S
C1761 C1763 1.327 . S
C1761 H1784 0.950 . S
C1762 C1761 1.349 . S
C1762 C1774 1.349 . S
C1763 C1761 1.327 . S
C1763 C1779 1.429 . S
C1763 H1785 0.950 . S
C1764 H1760 0.949 . S
C1764 C1772 1.574 . S
C1764 C1780 1.368 . S
H1765 C1773 0.950 . S
H1766 C1771 0.950 . S
H1767 C1772 0.949 . S
H1768 C1774 0.950 . S
H1769 C1775 0.950 . S
H1770 C1776 0.949 . S
C1771 H1766 0.950 . S
C1771 C1773 1.327 . S
C1771 C1777 1.429 . S
C1772 C1764 1.574 . S
C1772 H1767 0.949 . S
C1772 C1778 1.368 . S
C1773 C1757 1.349 . S
C1773 H1765 0.950 . S
C1773 C1771 1.327 . S
C1774 C1762 1.349 . S
C1774 H1768 0.950 . S
C1774 C1775 1.327 . S
C1775 H1769 0.950 . S
C1775 C1774 1.327 . S
C1775 C1779 1.429 . S
C1776 C1759 1.574 . S
C1776 H1770 0.949 . S
C1776 C1780 1.368 . S
C1777 C1758 1.429 . S
C1777 C1771 1.429 . S
C1777 C1778 1.523 . S
C1778 C1759 1.368 . S
C1778 C1772 1.368 . S
C1778 C1777 1.523 . S
C1779 C1763 1.429 . S
C1779 C1775 1.429 . S
C1779 C1780 1.523 . S
C1780 C1764 1.368 . S
C1780 C1776 1.368 . S
C1780 C1779 1.523 . S
H1781 C1756 0.950 . S
H1782 C1758 0.950 . S
H1783 C1759 0.949 . S
H1784 C1761 0.950 . S
H1785 C1763 0.950 . S
C1786 C1787 1.349 . S
C1786 C1788 1.327 . S
C1786 H1811 0.950 . S
C1787 C1786 1.349 . S
C1787 C1803 1.349 . S
C1788 C1786 1.327 . S
C1788 C1807 1.429 . S
C1788 H1812 0.950 . S
C1789 C1806 1.574 . S
C1789 C1808 1.368 . S
C1789 H1813 0.949 . S
H1790 C1794 0.949 . S
C1791 C1792 1.349 . S
C1791 C1793 1.327 . S
C1791 H1814 0.950 . S
C1792 C1791 1.349 . S
C1792 C1804 1.349 . S
C1793 C1791 1.327 . S
C1793 C1809 1.429 . S
C1793 H1815 0.950 . S
C1794 H1790 0.949 . S
C1794 C1802 1.574 . S
C1794 C1810 1.368 . S
H1795 C1803 0.950 . S
H1796 C1801 0.950 . S
H1797 C1802 0.949 . S
H1798 C1804 0.950 . S
H1799 C1805 0.950 . S
H1800 C1806 0.949 . S
C1801 H1796 0.950 . S
C1801 C1803 1.327 . S
C1801 C1807 1.429 . S
C1802 C1794 1.574 . S
C1802 H1797 0.949 . S
C1802 C1808 1.368 . S
C1803 C1787 1.349 . S
C1803 H1795 0.950 . S
C1803 C1801 1.327 . S
C1804 C1792 1.349 . S
C1804 H1798 0.950 . S
C1804 C1805 1.327 . S
C1805 H1799 0.950 . S
C1805 C1804 1.327 . S
C1805 C1809 1.429 . S
C1806 C1789 1.574 . S
C1806 H1800 0.949 . S
C1806 C1810 1.368 . S
C1807 C1788 1.429 . S
C1807 C1801 1.429 . S
C1807 C1808 1.523 . S
C1808 C1789 1.368 . S
C1808 C1802 1.368 . S
C1808 C1807 1.523 . S
C1809 C1793 1.429 . S
C1809 C1805 1.429 . S
C1809 C1810 1.523 . S
C1810 C1794 1.368 . S
C1810 C1806 1.368 . S
C1810 C1809 1.523 . S
H1811 C1786 0.950 . S
H1812 C1788 0.950 . S
H1813 C1789 0.949 . S
H1814 C1791 0.950 . S
H1815 C1793 0.950 . S
C1816 C1817 1.349 . S
C1816 C1818 1.327 . S
C1816 H1841 0.950 . S
C1817 C1816 1.349 . S
C1817 C1833 1.349 . S
C1818 C1816 1.327 . S
C1818 C1837 1.429 . S
C1818 H1842 0.950 . S
C1819 C1836 1.574 . S
C1819 C1838 1.368 . S
C1819 H1843 0.949 . S
H1820 C1824 0.949 . S
C1821 C1822 1.349 . S
C1821 C1823 1.327 . S
C1821 H1844 0.950 . S
C1822 C1821 1.349 . S
C1822 C1834 1.349 . S
C1823 C1821 1.327 . S
C1823 C1839 1.429 . S
C1823 H1845 0.950 . S
C1824 H1820 0.949 . S
C1824 C1832 1.574 . S
C1824 C1840 1.368 . S
H1825 C1833 0.950 . S
H1826 C1831 0.950 . S
H1827 C1832 0.949 . S
H1828 C1834 0.950 . S
H1829 C1835 0.950 . S
H1830 C1836 0.949 . S
C1831 H1826 0.950 . S
C1831 C1833 1.327 . S
C1831 C1837 1.429 . S
C1832 C1824 1.574 . S
C1832 H1827 0.949 . S
C1832 C1838 1.368 . S
C1833 C1817 1.349 . S
C1833 H1825 0.950 . S
C1833 C1831 1.327 . S
C1834 C1822 1.349 . S
C1834 H1828 0.950 . S
C1834 C1835 1.327 . S
C1835 H1829 0.950 . S
C1835 C1834 1.327 . S
C1835 C1839 1.429 . S
C1836 C1819 1.574 . S
C1836 H1830 0.949 . S
C1836 C1840 1.368 . S
C1837 C1818 1.429 . S
C1837 C1831 1.429 . S
C1837 C1838 1.523 . S
C1838 C1819 1.368 . S
C1838 C1832 1.368 . S
C1838 C1837 1.523 . S
C1839 C1823 1.429 . S
C1839 C1835 1.429 . S
C1839 C1840 1.523 . S
C1840 C1824 1.368 . S
C1840 C1836 1.368 . S
C1840 C1839 1.523 . S
H1841 C1816 0.950 . S
H1842 C1818 0.950 . S
H1843 C1819 0.949 . S
H1844 C1821 0.950 . S
H1845 C1823 0.950 . S
C1846 C1847 1.349 . S
C1846 C1848 1.327 . S
C1846 H1871 0.950 . S
C1847 C1846 1.349 . S
C1847 C1863 1.349 . S
C1848 C1846 1.327 . S
C1848 C1867 1.429 . S
C1848 H1872 0.950 . S
C1849 C1866 1.574 . S
C1849 C1868 1.368 . S
C1849 H1873 0.949 . S
H1850 C1854 0.949 . S
C1851 C1852 1.349 . S
C1851 C1853 1.327 . S
C1851 H1874 0.950 . S
C1852 C1851 1.349 . S
C1852 C1864 1.349 . S
C1853 C1851 1.327 . S
C1853 C1869 1.429 . S
C1853 H1875 0.950 . S
C1854 H1850 0.949 . S
C1854 C1862 1.574 . S
C1854 C1870 1.368 . S
H1855 C1863 0.950 . S
H1856 C1861 0.950 . S
H1857 C1862 0.949 . S
H1858 C1864 0.950 . S
H1859 C1865 0.950 . S
H1860 C1866 0.949 . S
C1861 H1856 0.950 . S
C1861 C1863 1.327 . S
C1861 C1867 1.429 . S
C1862 C1854 1.574 . S
C1862 H1857 0.949 . S
C1862 C1868 1.368 . S
C1863 C1847 1.349 . S
C1863 H1855 0.950 . S
C1863 C1861 1.327 . S
C1864 C1852 1.349 . S
C1864 H1858 0.950 . S
C1864 C1865 1.327 . S
C1865 H1859 0.950 . S
C1865 C1864 1.327 . S
C1865 C1869 1.429 . S
C1866 C1849 1.574 . S
C1866 H1860 0.949 . S
C1866 C1870 1.368 . S
C1867 C1848 1.429 . S
C1867 C1861 1.429 . S
C1867 C1868 1.523 . S
C1868 C1849 1.368 . S
C1868 C1862 1.368 . S
C1868 C1867 1.523 . S
C1869 C1853 1.429 . S
C1869 C1865 1.429 . S
C1869 C1870 1.523 . S
C1870 C1854 1.368 . S
C1870 C1866 1.368 . S
C1870 C1869 1.523 . S
H1871 C1846 0.950 . S
H1872 C1848 0.950 . S
H1873 C1849 0.949 . S
H1874 C1851 0.950 . S
H1875 C1853 0.950 . S
C1876 C1877 1.349 . S
C1876 C1878 1.327 . S
C1876 H1901 0.950 . S
C1877 C1876 1.349 . S
C1877 C1893 1.349 . S
C1878 C1876 1.327 . S
C1878 C1897 1.429 . S
C1878 H1902 0.950 . S
C1879 C1896 1.574 . S
C1879 C1898 1.368 . S
C1879 H1903 0.949 . S
H1880 C1884 0.949 . S
C1881 C1882 1.349 . S
C1881 C1883 1.327 . S
C1881 H1904 0.950 . S
C1882 C1881 1.349 . S
C1882 C1894 1.349 . S
C1883 C1881 1.327 . S
C1883 C1899 1.429 . S
C1883 H1905 0.950 . S
C1884 H1880 0.949 . S
C1884 C1892 1.574 . S
C1884 C1900 1.368 . S
H1885 C1893 0.950 . S
H1886 C1891 0.950 . S
H1887 C1892 0.949 . S
H1888 C1894 0.950 . S
H1889 C1895 0.950 . S
H1890 C1896 0.949 . S
C1891 H1886 0.950 . S
C1891 C1893 1.327 . S
C1891 C1897 1.429 . S
C1892 C1884 1.574 . S
C1892 H1887 0.949 . S
C1892 C1898 1.368 . S
C1893 C1877 1.349 . S
C1893 H1885 0.950 . S
C1893 C1891 1.327 . S
C1894 C1882 1.349 . S
C1894 H1888 0.950 . S
C1894 C1895 1.327 . S
C1895 H1889 0.950 . S
C1895 C1894 1.327 . S
C1895 C1899 1.429 . S
C1896 C1879 1.574 . S
C1896 H1890 0.949 . S
C1896 C1900 1.368 . S
C1897 C1878 1.429 . S
C1897 C1891 1.429 . S
C1897 C1898 1.523 . S
C1898 C1879 1.368 . S
C1898 C1892 1.368 . S
C1898 C1897 1.523 . S
C1899 C1883 1.429 . S
C1899 C1895 1.429 . S
C1899 C1900 1.523 . S
C1900 C1884 1.368 . S
C1900 C1896 1.368 . S
C1900 C1899 1.523 . S
H1901 C1876 0.950 . S
H1902 C1878 0.950 . S
H1903 C1879 0.949 . S
H1904 C1881 0.950 . S
H1905 C1883 0.950 . S
C1906 C1907 1.349 . S
C1906 C1908 1.327 . S
C1906 H1931 0.950 . S
C1907 C1906 1.349 . S
C1907 C1923 1.349 . S
C1908 C1906 1.327 . S
C1908 C1927 1.429 . S
C1908 H1932 0.950 . S
C1909 C1926 1.574 . S
C1909 C1928 1.368 . S
C1909 H1933 0.949 . S
H1910 C1914 0.949 . S
C1911 C1912 1.349 . S
C1911 C1913 1.327 . S
C1911 H1934 0.950 . S
C1912 C1911 1.349 . S
C1912 C1924 1.349 . S
C1913 C1911 1.327 . S
C1913 C1929 1.429 . S
C1913 H1935 0.950 . S
C1914 H1910 0.949 . S
C1914 C1922 1.574 . S
C1914 C1930 1.368 . S
H1915 C1923 0.950 . S
H1916 C1921 0.950 . S
H1917 C1922 0.949 . S
H1918 C1924 0.950 . S
H1919 C1925 0.950 . S
H1920 C1926 0.949 . S
C1921 H1916 0.950 . S
C1921 C1923 1.327 . S
C1921 C1927 1.429 . S
C1922 C1914 1.574 . S
C1922 H1917 0.949 . S
C1922 C1928 1.368 . S
C1923 C1907 1.349 . S
C1923 H1915 0.950 . S
C1923 C1921 1.327 . S
C1924 C1912 1.349 . S
C1924 H1918 0.950 . S
C1924 C1925 1.327 . S
C1925 H1919 0.950 . S
C1925 C1924 1.327 . S
C1925 C1929 1.429 . S
C1926 C1909 1.574 . S
C1926 H1920 0.949 . S
C1926 C1930 1.368 . S
C1927 C1908 1.429 . S
C1927 C1921 1.429 . S
C1927 C1928 1.523 . S
C1928 C1909 1.368 . S
C1928 C1922 1.368 . S
C1928 C1927 1.523 . S
C1929 C1913 1.429 . S
C1929 C1925 1.429 . S
C1929 C1930 1.523 . S
C1930 C1914 1.368 . S
C1930 C1926 1.368 . S
C1930 C1929 1.523 . S
H1931 C1906 0.950 . S
H1932 C1908 0.950 . S
H1933 C1909 0.949 . S
H1934 C1911 0.950 . S
H1935 C1913 0.950 . S
C1936 C1937 1.349 . S
C1936 C1938 1.327 . S
C1936 H1961 0.950 . S
C1937 C1936 1.349 . S
C1937 C1953 1.349 . S
C1938 C1936 1.327 . S
C1938 C1957 1.429 . S
C1938 H1962 0.950 . S
C1939 C1956 1.574 . S
C1939 C1958 1.368 . S
C1939 H1963 0.949 . S
H1940 C1944 0.949 . S
C1941 C1942 1.349 . S
C1941 C1943 1.327 . S
C1941 H1964 0.950 . S
C1942 C1941 1.349 . S
C1942 C1954 1.349 . S
C1943 C1941 1.327 . S
C1943 C1959 1.429 . S
C1943 H1965 0.950 . S
C1944 H1940 0.949 . S
C1944 C1952 1.574 . S
C1944 C1960 1.368 . S
H1945 C1953 0.950 . S
H1946 C1951 0.950 . S
H1947 C1952 0.949 . S
H1948 C1954 0.950 . S
H1949 C1955 0.950 . S
H1950 C1956 0.949 . S
C1951 H1946 0.950 . S
C1951 C1953 1.327 . S
C1951 C1957 1.429 . S
C1952 C1944 1.574 . S
C1952 H1947 0.949 . S
C1952 C1958 1.368 . S
C1953 C1937 1.349 . S
C1953 H1945 0.950 . S
C1953 C1951 1.327 . S
C1954 C1942 1.349 . S
C1954 H1948 0.950 . S
C1954 C1955 1.327 . S
C1955 H1949 0.950 . S
C1955 C1954 1.327 . S
C1955 C1959 1.429 . S
C1956 C1939 1.574 . S
C1956 H1950 0.949 . S
C1956 C1960 1.368 . S
C1957 C1938 1.429 . S
C1957 C1951 1.429 . S
C1957 C1958 1.523 . S
C1958 C1939 1.368 . S
C1958 C1952 1.368 . S
C1958 C1957 1.523 . S
C1959 C1943 1.429 . S
C1959 C1955 1.429 . S
C1959 C1960 1.523 . S
C1960 C1944 1.368 . S
C1960 C1956 1.368 . S
C1960 C1959 1.523 . S
H1961 C1936 0.950 . S
H1962 C1938 0.950 . S
H1963 C1939 0.949 . S
H1964 C1941 0.950 . S
H1965 C1943 0.950 . S
C1966 C1967 1.349 . S
C1966 C1968 1.327 . S
C1966 H1991 0.950 . S
C1967 C1966 1.349 . S
C1967 C1983 1.349 . S
C1968 C1966 1.327 . S
C1968 C1987 1.429 . S
C1968 H1992 0.950 . S
C1969 C1986 1.574 . S
C1969 C1988 1.368 . S
C1969 H1993 0.949 . S
H1970 C1974 0.949 . S
C1971 C1972 1.349 . S
C1971 C1973 1.327 . S
C1971 H1994 0.950 . S
C1972 C1971 1.349 . S
C1972 C1984 1.349 . S
C1973 C1971 1.327 . S
C1973 C1989 1.429 . S
C1973 H1995 0.950 . S
C1974 H1970 0.949 . S
C1974 C1982 1.574 . S
C1974 C1990 1.368 . S
H1975 C1983 0.950 . S
H1976 C1981 0.950 . S
H1977 C1982 0.949 . S
H1978 C1984 0.950 . S
H1979 C1985 0.950 . S
H1980 C1986 0.949 . S
C1981 H1976 0.950 . S
C1981 C1983 1.327 . S
C1981 C1987 1.429 . S
C1982 C1974 1.574 . S
C1982 H1977 0.949 . S
C1982 C1988 1.368 . S
C1983 C1967 1.349 . S
C1983 H1975 0.950 . S
C1983 C1981 1.327 . S
C1984 C1972 1.349 . S
C1984 H1978 0.950 . S
C1984 C1985 1.327 . S
C1985 H1979 0.950 . S
C1985 C1984 1.327 . S
C1985 C1989 1.429 . S
C1986 C1969 1.574 . S
C1986 H1980 0.949 . S
C1986 C1990 1.368 . S
C1987 C1968 1.429 . S
C1987 C1981 1.429 . S
C1987 C1988 1.523 . S
C1988 C1969 1.368 . S
C1988 C1982 1.368 . S
C1988 C1987 1.523 . S
C1989 C1973 1.429 . S
C1989 C1985 1.429 . S
C1989 C1990 1.523 . S
C1990 C1974 1.368 . S
C1990 C1986 1.368 . S
C1990 C1989 1.523 . S
H1991 C1966 0.950 . S
H1992 C1968 0.950 . S
H1993 C1969 0.949 . S
H1994 C1971 0.950 . S
H1995 C1973 0.950 . S
C1996 C1997 1.349 . S
C1996 C1998 1.327 . S
C1996 H2021 0.950 . S
C1997 C1996 1.349 . S
C1997 C2013 1.349 . S
C1998 C1996 1.327 . S
C1998 C2017 1.429 . S
C1998 H2022 0.950 . S
C1999 C2016 1.574 . S
C1999 C2018 1.368 . S
C1999 H2023 0.949 . S
H2000 C2004 0.949 . S
C2001 C2002 1.349 . S
C2001 C2003 1.327 . S
C2001 H2024 0.950 . S
C2002 C2001 1.349 . S
C2002 C2014 1.349 . S
C2003 C2001 1.327 . S
C2003 C2019 1.429 . S
C2003 H2025 0.950 . S
C2004 H2000 0.949 . S
C2004 C2012 1.574 . S
C2004 C2020 1.368 . S
H2005 C2013 0.950 . S
H2006 C2011 0.950 . S
H2007 C2012 0.949 . S
H2008 C2014 0.950 . S
H2009 C2015 0.950 . S
H2010 C2016 0.949 . S
C2011 H2006 0.950 . S
C2011 C2013 1.327 . S
C2011 C2017 1.429 . S
C2012 C2004 1.574 . S
C2012 H2007 0.949 . S
C2012 C2018 1.368 . S
C2013 C1997 1.349 . S
C2013 H2005 0.950 . S
C2013 C2011 1.327 . S
C2014 C2002 1.349 . S
C2014 H2008 0.950 . S
C2014 C2015 1.327 . S
C2015 H2009 0.950 . S
C2015 C2014 1.327 . S
C2015 C2019 1.429 . S
C2016 C1999 1.574 . S
C2016 H2010 0.949 . S
C2016 C2020 1.368 . S
C2017 C1998 1.429 . S
C2017 C2011 1.429 . S
C2017 C2018 1.523 . S
C2018 C1999 1.368 . S
C2018 C2012 1.368 . S
C2018 C2017 1.523 . S
C2019 C2003 1.429 . S
C2019 C2015 1.429 . S
C2019 C2020 1.523 . S
C2020 C2004 1.368 . S
C2020 C2016 1.368 . S
C2020 C2019 1.523 . S
H2021 C1996 0.950 . S
H2022 C1998 0.950 . S
H2023 C1999 0.949 . S
H2024 C2001 0.950 . S
H2025 C2003 0.950 . S
C2026 C2027 1.349 . S
C2026 C2028 1.327 . S
C2026 H2051 0.950 . S
C2027 C2026 1.349 . S
C2027 C2043 1.349 . S
C2028 C2026 1.327 . S
C2028 C2047 1.429 . S
C2028 H2052 0.950 . S
C2029 C2046 1.574 . S
C2029 C2048 1.368 . S
C2029 H2053 0.949 . S
H2030 C2034 0.949 . S
C2031 C2032 1.349 . S
C2031 C2033 1.327 . S
C2031 H2054 0.950 . S
C2032 C2031 1.349 . S
C2032 C2044 1.349 . S
C2033 C2031 1.327 . S
C2033 C2049 1.429 . S
C2033 H2055 0.950 . S
C2034 H2030 0.949 . S
C2034 C2042 1.574 . S
C2034 C2050 1.368 . S
H2035 C2043 0.950 . S
H2036 C2041 0.950 . S
H2037 C2042 0.949 . S
H2038 C2044 0.950 . S
H2039 C2045 0.950 . S
H2040 C2046 0.949 . S
C2041 H2036 0.950 . S
C2041 C2043 1.327 . S
C2041 C2047 1.429 . S
C2042 C2034 1.574 . S
C2042 H2037 0.949 . S
C2042 C2048 1.368 . S
C2043 C2027 1.349 . S
C2043 H2035 0.950 . S
C2043 C2041 1.327 . S
C2044 C2032 1.349 . S
C2044 H2038 0.950 . S
C2044 C2045 1.327 . S
C2045 H2039 0.950 . S
C2045 C2044 1.327 . S
C2045 C2049 1.429 . S
C2046 C2029 1.574 . S
C2046 H2040 0.949 . S
C2046 C2050 1.368 . S
C2047 C2028 1.429 . S
C2047 C2041 1.429 . S
C2047 C2048 1.523 . S
C2048 C2029 1.368 . S
C2048 C2042 1.368 . S
C2048 C2047 1.523 . S
C2049 C2033 1.429 . S
C2049 C2045 1.429 . S
C2049 C2050 1.523 . S
C2050 C2034 1.368 . S
C2050 C2046 1.368 . S
C2050 C2049 1.523 . S
H2051 C2026 0.950 . S
H2052 C2028 0.950 . S
H2053 C2029 0.949 . S
H2054 C2031 0.950 . S
H2055 C2033 0.950 . S
C2056 C2057 1.349 . S
C2056 C2058 1.327 . S
C2056 H2081 0.950 . S
C2057 C2056 1.349 . S
C2057 C2073 1.349 . S
C2058 C2056 1.327 . S
C2058 C2077 1.429 . S
C2058 H2082 0.950 . S
C2059 C2076 1.574 . S
C2059 C2078 1.368 . S
C2059 H2083 0.949 . S
H2060 C2064 0.949 . S
C2061 C2062 1.349 . S
C2061 C2063 1.327 . S
C2061 H2084 0.950 . S
C2062 C2061 1.349 . S
C2062 C2074 1.349 . S
C2063 C2061 1.327 . S
C2063 C2079 1.429 . S
C2063 H2085 0.950 . S
C2064 H2060 0.949 . S
C2064 C2072 1.574 . S
C2064 C2080 1.368 . S
H2065 C2073 0.950 . S
H2066 C2071 0.950 . S
H2067 C2072 0.949 . S
H2068 C2074 0.950 . S
H2069 C2075 0.950 . S
H2070 C2076 0.949 . S
C2071 H2066 0.950 . S
C2071 C2073 1.327 . S
C2071 C2077 1.429 . S
C2072 C2064 1.574 . S
C2072 H2067 0.949 . S
C2072 C2078 1.368 . S
C2073 C2057 1.349 . S
C2073 H2065 0.950 . S
C2073 C2071 1.327 . S
C2074 C2062 1.349 . S
C2074 H2068 0.950 . S
C2074 C2075 1.327 . S
C2075 H2069 0.950 . S
C2075 C2074 1.327 . S
C2075 C2079 1.429 . S
C2076 C2059 1.574 . S
C2076 H2070 0.949 . S
C2076 C2080 1.368 . S
C2077 C2058 1.429 . S
C2077 C2071 1.429 . S
C2077 C2078 1.523 . S
C2078 C2059 1.368 . S
C2078 C2072 1.368 . S
C2078 C2077 1.523 . S
C2079 C2063 1.429 . S
C2079 C2075 1.429 . S
C2079 C2080 1.523 . S
C2080 C2064 1.368 . S
C2080 C2076 1.368 . S
C2080 C2079 1.523 . S
H2081 C2056 0.950 . S
H2082 C2058 0.950 . S
H2083 C2059 0.949 . S
H2084 C2061 0.950 . S
H2085 C2063 0.950 . S
C2086 C2087 1.349 . S
C2086 C2088 1.327 . S
C2086 H2111 0.950 . S
C2087 C2086 1.349 . S
C2087 C2103 1.349 . S
C2088 C2086 1.327 . S
C2088 C2107 1.429 . S
C2088 H2112 0.950 . S
C2089 C2106 1.574 . S
C2089 C2108 1.368 . S
C2089 H2113 0.949 . S
H2090 C2094 0.949 . S
C2091 C2092 1.349 . S
C2091 C2093 1.327 . S
C2091 H2114 0.950 . S
C2092 C2091 1.349 . S
C2092 C2104 1.349 . S
C2093 C2091 1.327 . S
C2093 C2109 1.429 . S
C2093 H2115 0.950 . S
C2094 H2090 0.949 . S
C2094 C2102 1.574 . S
C2094 C2110 1.368 . S
H2095 C2103 0.950 . S
H2096 C2101 0.950 . S
H2097 C2102 0.949 . S
H2098 C2104 0.950 . S
H2099 C2105 0.950 . S
H2100 C2106 0.949 . S
C2101 H2096 0.950 . S
C2101 C2103 1.327 . S
C2101 C2107 1.429 . S
C2102 C2094 1.574 . S
C2102 H2097 0.949 . S
C2102 C2108 1.368 . S
C2103 C2087 1.349 . S
C2103 H2095 0.950 . S
C2103 C2101 1.327 . S
C2104 C2092 1.349 . S
C2104 H2098 0.950 . S
C2104 C2105 1.327 . S
C2105 H2099 0.950 . S
C2105 C2104 1.327 . S
C2105 C2109 1.429 . S
C2106 C2089 1.574 . S
C2106 H2100 0.949 . S
C2106 C2110 1.368 . S
C2107 C2088 1.429 . S
C2107 C2101 1.429 . S
C2107 C2108 1.523 . S
C2108 C2089 1.368 . S
C2108 C2102 1.368 . S
C2108 C2107 1.523 . S
C2109 C2093 1.429 . S
C2109 C2105 1.429 . S
C2109 C2110 1.523 . S
C2110 C2094 1.368 . S
C2110 C2106 1.368 . S
C2110 C2109 1.523 . S
H2111 C2086 0.950 . S
H2112 C2088 0.950 . S
H2113 C2089 0.949 . S
H2114 C2091 0.950 . S
H2115 C2093 0.950 . S
C2116 C2117 1.349 . S
C2116 C2118 1.327 . S
C2116 H2141 0.950 . S
C2117 C2116 1.349 . S
C2117 C2133 1.349 . S
C2118 C2116 1.327 . S
C2118 C2137 1.429 . S
C2118 H2142 0.950 . S
C2119 C2136 1.574 . S
C2119 C2138 1.368 . S
C2119 H2143 0.949 . S
H2120 C2124 0.949 . S
C2121 C2122 1.349 . S
C2121 C2123 1.327 . S
C2121 H2144 0.950 . S
C2122 C2121 1.349 . S
C2122 C2134 1.349 . S
C2123 C2121 1.327 . S
C2123 C2139 1.429 . S
C2123 H2145 0.950 . S
C2124 H2120 0.949 . S
C2124 C2132 1.574 . S
C2124 C2140 1.368 . S
H2125 C2133 0.950 . S
H2126 C2131 0.950 . S
H2127 C2132 0.949 . S
H2128 C2134 0.950 . S
H2129 C2135 0.950 . S
H2130 C2136 0.949 . S
C2131 H2126 0.950 . S
C2131 C2133 1.327 . S
C2131 C2137 1.429 . S
C2132 C2124 1.574 . S
C2132 H2127 0.949 . S
C2132 C2138 1.368 . S
C2133 C2117 1.349 . S
C2133 H2125 0.950 . S
C2133 C2131 1.327 . S
C2134 C2122 1.349 . S
C2134 H2128 0.950 . S
C2134 C2135 1.327 . S
C2135 H2129 0.950 . S
C2135 C2134 1.327 . S
C2135 C2139 1.429 . S
C2136 C2119 1.574 . S
C2136 H2130 0.949 . S
C2136 C2140 1.368 . S
C2137 C2118 1.429 . S
C2137 C2131 1.429 . S
C2137 C2138 1.523 . S
C2138 C2119 1.368 . S
C2138 C2132 1.368 . S
C2138 C2137 1.523 . S
C2139 C2123 1.429 . S
C2139 C2135 1.429 . S
C2139 C2140 1.523 . S
C2140 C2124 1.368 . S
C2140 C2136 1.368 . S
C2140 C2139 1.523 . S
H2141 C2116 0.950 . S
H2142 C2118 0.950 . S
H2143 C2119 0.949 . S
H2144 C2121 0.950 . S
H2145 C2123 0.950 . S
C2146 C2147 1.349 . S
C2146 C2148 1.327 . S
C2146 H2171 0.950 . S
C2147 C2146 1.349 . S
C2147 C2163 1.349 . S
C2148 C2146 1.327 . S
C2148 C2167 1.429 . S
C2148 H2172 0.950 . S
C2149 C2166 1.574 . S
C2149 C2168 1.368 . S
C2149 H2173 0.949 . S
H2150 C2154 0.949 . S
C2151 C2152 1.349 . S
C2151 C2153 1.327 . S
C2151 H2174 0.950 . S
C2152 C2151 1.349 . S
C2152 C2164 1.349 . S
C2153 C2151 1.327 . S
C2153 C2169 1.429 . S
C2153 H2175 0.950 . S
C2154 H2150 0.949 . S
C2154 C2162 1.574 . S
C2154 C2170 1.368 . S
H2155 C2163 0.950 . S
H2156 C2161 0.950 . S
H2157 C2162 0.949 . S
H2158 C2164 0.950 . S
H2159 C2165 0.950 . S
H2160 C2166 0.949 . S
C2161 H2156 0.950 . S
C2161 C2163 1.327 . S
C2161 C2167 1.429 . S
C2162 C2154 1.574 . S
C2162 H2157 0.949 . S
C2162 C2168 1.368 . S
C2163 C2147 1.349 . S
C2163 H2155 0.950 . S
C2163 C2161 1.327 . S
C2164 C2152 1.349 . S
C2164 H2158 0.950 . S
C2164 C2165 1.327 . S
C2165 H2159 0.950 . S
C2165 C2164 1.327 . S
C2165 C2169 1.429 . S
C2166 C2149 1.574 . S
C2166 H2160 0.949 . S
C2166 C2170 1.368 . S
C2167 C2148 1.429 . S
C2167 C2161 1.429 . S
C2167 C2168 1.523 . S
C2168 C2149 1.368 . S
C2168 C2162 1.368 . S
C2168 C2167 1.523 . S
C2169 C2153 1.429 . S
C2169 C2165 1.429 . S
C2169 C2170 1.523 . S
C2170 C2154 1.368 . S
C2170 C2166 1.368 . S
C2170 C2169 1.523 . S
H2171 C2146 0.950 . S
H2172 C2148 0.950 . S
H2173 C2149 0.949 . S
H2174 C2151 0.950 . S
H2175 C2153 0.950 . S
C2176 C2177 1.349 . S
C2176 C2178 1.327 . S
C2176 H2201 0.950 . S
C2177 C2176 1.349 . S
C2177 C2193 1.349 . S
C2178 C2176 1.327 . S
C2178 C2197 1.429 . S
C2178 H2202 0.950 . S
C2179 C2196 1.574 . S
C2179 C2198 1.368 . S
C2179 H2203 0.949 . S
H2180 C2184 0.949 . S
C2181 C2182 1.349 . S
C2181 C2183 1.327 . S
C2181 H2204 0.950 . S
C2182 C2181 1.349 . S
C2182 C2194 1.349 . S
C2183 C2181 1.327 . S
C2183 C2199 1.429 . S
C2183 H2205 0.950 . S
C2184 H2180 0.949 . S
C2184 C2192 1.574 . S
C2184 C2200 1.368 . S
H2185 C2193 0.950 . S
H2186 C2191 0.950 . S
H2187 C2192 0.949 . S
H2188 C2194 0.950 . S
H2189 C2195 0.950 . S
H2190 C2196 0.949 . S
C2191 H2186 0.950 . S
C2191 C2193 1.327 . S
C2191 C2197 1.429 . S
C2192 C2184 1.574 . S
C2192 H2187 0.949 . S
C2192 C2198 1.368 . S
C2193 C2177 1.349 . S
C2193 H2185 0.950 . S
C2193 C2191 1.327 . S
C2194 C2182 1.349 . S
C2194 H2188 0.950 . S
C2194 C2195 1.327 . S
C2195 H2189 0.950 . S
C2195 C2194 1.327 . S
C2195 C2199 1.429 . S
C2196 C2179 1.574 . S
C2196 H2190 0.949 . S
C2196 C2200 1.368 . S
C2197 C2178 1.429 . S
C2197 C2191 1.429 . S
C2197 C2198 1.523 . S
C2198 C2179 1.368 . S
C2198 C2192 1.368 . S
C2198 C2197 1.523 . S
C2199 C2183 1.429 . S
C2199 C2195 1.429 . S
C2199 C2200 1.523 . S
C2200 C2184 1.368 . S
C2200 C2196 1.368 . S
C2200 C2199 1.523 . S
H2201 C2176 0.950 . S
H2202 C2178 0.950 . S
H2203 C2179 0.949 . S
H2204 C2181 0.950 . S
H2205 C2183 0.950 . S
C2206 C2207 1.349 . S
C2206 C2208 1.327 . S
C2206 H2231 0.950 . S
C2207 C2206 1.349 . S
C2207 C2223 1.349 . S
C2208 C2206 1.327 . S
C2208 C2227 1.429 . S
C2208 H2232 0.950 . S
C2209 C2226 1.574 . S
C2209 C2228 1.368 . S
C2209 H2233 0.949 . S
H2210 C2214 0.949 . S
C2211 C2212 1.349 . S
C2211 C2213 1.327 . S
C2211 H2234 0.950 . S
C2212 C2211 1.349 . S
C2212 C2224 1.349 . S
C2213 C2211 1.327 . S
C2213 C2229 1.429 . S
C2213 H2235 0.950 . S
C2214 H2210 0.949 . S
C2214 C2222 1.574 . S
C2214 C2230 1.368 . S
H2215 C2223 0.950 . S
H2216 C2221 0.950 . S
H2217 C2222 0.949 . S
H2218 C2224 0.950 . S
H2219 C2225 0.950 . S
H2220 C2226 0.949 . S
C2221 H2216 0.950 . S
C2221 C2223 1.327 . S
C2221 C2227 1.429 . S
C2222 C2214 1.574 . S
C2222 H2217 0.949 . S
C2222 C2228 1.368 . S
C2223 C2207 1.349 . S
C2223 H2215 0.950 . S
C2223 C2221 1.327 . S
C2224 C2212 1.349 . S
C2224 H2218 0.950 . S
C2224 C2225 1.327 . S
C2225 H2219 0.950 . S
C2225 C2224 1.327 . S
C2225 C2229 1.429 . S
C2226 C2209 1.574 . S
C2226 H2220 0.949 . S
C2226 C2230 1.368 . S
C2227 C2208 1.429 . S
C2227 C2221 1.429 . S
C2227 C2228 1.523 . S
C2228 C2209 1.368 . S
C2228 C2222 1.368 . S
C2228 C2227 1.523 . S
C2229 C2213 1.429 . S
C2229 C2225 1.429 . S
C2229 C2230 1.523 . S
C2230 C2214 1.368 . S
C2230 C2226 1.368 . S
C2230 C2229 1.523 . S
H2231 C2206 0.950 . S
H2232 C2208 0.950 . S
H2233 C2209 0.949 . S
H2234 C2211 0.950 . S
H2235 C2213 0.950 . S
C2236 C2237 1.349 . S
C2236 C2238 1.327 . S
C2236 H2261 0.950 . S
C2237 C2236 1.349 . S
C2237 C2253 1.349 . S
C2238 C2236 1.327 . S
C2238 C2257 1.429 . S
C2238 H2262 0.950 . S
C2239 C2256 1.574 . S
C2239 C2258 1.368 . S
C2239 H2263 0.949 . S
H2240 C2244 0.949 . S
C2241 C2242 1.349 . S
C2241 C2243 1.327 . S
C2241 H2264 0.950 . S
C2242 C2241 1.349 . S
C2242 C2254 1.349 . S
C2243 C2241 1.327 . S
C2243 C2259 1.429 . S
C2243 H2265 0.950 . S
C2244 H2240 0.949 . S
C2244 C2252 1.574 . S
C2244 C2260 1.368 . S
H2245 C2253 0.950 . S
H2246 C2251 0.950 . S
H2247 C2252 0.949 . S
H2248 C2254 0.950 . S
H2249 C2255 0.950 . S
H2250 C2256 0.949 . S
C2251 H2246 0.950 . S
C2251 C2253 1.327 . S
C2251 C2257 1.429 . S
C2252 C2244 1.574 . S
C2252 H2247 0.949 . S
C2252 C2258 1.368 . S
C2253 C2237 1.349 . S
C2253 H2245 0.950 . S
C2253 C2251 1.327 . S
C2254 C2242 1.349 . S
C2254 H2248 0.950 . S
C2254 C2255 1.327 . S
C2255 H2249 0.950 . S
C2255 C2254 1.327 . S
C2255 C2259 1.429 . S
C2256 C2239 1.574 . S
C2256 H2250 0.949 . S
C2256 C2260 1.368 . S
C2257 C2238 1.429 . S
C2257 C2251 1.429 . S
C2257 C2258 1.523 . S
C2258 C2239 1.368 . S
C2258 C2252 1.368 . S
C2258 C2257 1.523 . S
C2259 C2243 1.429 . S
C2259 C2255 1.429 . S
C2259 C2260 1.523 . S
C2260 C2244 1.368 . S
C2260 C2256 1.368 . S
C2260 C2259 1.523 . S
H2261 C2236 0.950 . S
H2262 C2238 0.950 . S
H2263 C2239 0.949 . S
H2264 C2241 0.950 . S
H2265 C2243 0.950 . S
C2266 C2267 1.349 . S
C2266 C2268 1.327 . S
C2266 H2291 0.950 . S
C2267 C2266 1.349 . S
C2267 C2283 1.349 . S
C2268 C2266 1.327 . S
C2268 C2287 1.429 . S
C2268 H2292 0.950 . S
C2269 C2286 1.574 . S
C2269 C2288 1.368 . S
C2269 H2293 0.949 . S
H2270 C2274 0.949 . S
C2271 C2272 1.349 . S
C2271 C2273 1.327 . S
C2271 H2294 0.950 . S
C2272 C2271 1.349 . S
C2272 C2284 1.349 . S
C2273 C2271 1.327 . S
C2273 C2289 1.429 . S
C2273 H2295 0.950 . S
C2274 H2270 0.949 . S
C2274 C2282 1.574 . S
C2274 C2290 1.368 . S
H2275 C2283 0.950 . S
H2276 C2281 0.950 . S
H2277 C2282 0.949 . S
H2278 C2284 0.950 . S
H2279 C2285 0.950 . S
H2280 C2286 0.949 . S
C2281 H2276 0.950 . S
C2281 C2283 1.327 . S
C2281 C2287 1.429 . S
C2282 C2274 1.574 . S
C2282 H2277 0.949 . S
C2282 C2288 1.368 . S
C2283 C2267 1.349 . S
C2283 H2275 0.950 . S
C2283 C2281 1.327 . S
C2284 C2272 1.349 . S
C2284 H2278 0.950 . S
C2284 C2285 1.327 . S
C2285 H2279 0.950 . S
C2285 C2284 1.327 . S
C2285 C2289 1.429 . S
C2286 C2269 1.574 . S
C2286 H2280 0.949 . S
C2286 C2290 1.368 . S
C2287 C2268 1.429 . S
C2287 C2281 1.429 . S
C2287 C2288 1.523 . S
C2288 C2269 1.368 . S
C2288 C2282 1.368 . S
C2288 C2287 1.523 . S
C2289 C2273 1.429 . S
C2289 C2285 1.429 . S
C2289 C2290 1.523 . S
C2290 C2274 1.368 . S
C2290 C2286 1.368 . S
C2290 C2289 1.523 . S
H2291 C2266 0.950 . S
H2292 C2268 0.950 . S
H2293 C2269 0.949 . S
H2294 C2271 0.950 . S
H2295 C2273 0.950 . S
C1342 C941 1.450 . S
C1337 C29 1.176 . S
C1372 C994 1.497 . S
C1367 C125 0.839 . S
C1402 C1057 1.548 . S
C1397 C257 1.254 . S
C1432 C1100 1.429 . S
C1427 C353 0.809 . S
C1457 C457 1.163 . S
C1462 C1056 1.502 . S
C1492 C1093 1.511 . S
C1487 C625 1.193 . S
C1522 C934 1.429 . S
C1517 C685 1.115 . S
C1552 C987 1.387 . S
C1547 C853 1.084 . S
C1582 C1040 1.659 . S
C1577 C809 1.075 . S
C1612 C1109 1.762 . S
C1607 C485 1.474 . S
C1642 C950 1.757 . S
C1637 C581 1.125 . S
C1672 C1003 1.679 . S
C1667 C713 1.385 . S
C1702 C951 1.727 . S
C1697 C169 1.269 . S
C1732 C1004 1.734 . S
C1727 C229 1.344 . S
C1762 C1047 1.648 . S
C1757 C397 1.194 . S
C1792 C1110 1.639 . S
C1787 C1 1.273 . S
C1822 C1153 1.416 . S
C1817 C827 1.139 . S
C1847 C467 1.102 . S
C1852 C1206 1.864 . S
C1877 C599 1.291 . S
C1882 C1268 1.576 . S
C1907 C695 1.096 . S
C1912 C1322 1.842 . S
C1937 C115 1.145 . S
C1942 C1269 1.468 . S
C1967 C283 1.529 . S
C1972 C1321 1.925 . S
C1997 C343 1.126 . S
C2002 C1146 1.456 . S
C2032 C1199 1.762 . S
C2027 C55 1.378 . S
C2062 C1259 1.616 . S
C2057 C11 1.043 . S
C2087 C143 1.089 . S
C2092 C1305 1.309 . S
C2117 C239 1.152 . S
C2122 C1162 1.799 . S
C2147 C371 1.077 . S
C2152 C1215 1.288 . S
C2182 C1163 1.673 . S
C2177 C511 1.223 . S
C2212 C1216 1.354 . S
C2207 C571 1.034 . S
C2237 C739 1.228 . S
C2242 C1252 1.680 . S
C2272 C1312 1.199 . S
C2267 C799 0.954 . S
