# Generated by pormake.
# Topology dag, (6,3)-cn, num edge types: 1
# Building blocks:
#     Node 0, Type 0, BuildingBlock: IZENUY_clean_sbu_0, # of connection points: 6
#     Node 1, Type 0, BuildingBlock: IZENUY_clean_sbu_0, # of connection points: 6
#     Node 2, Type 0, BuildingBlock: IZENUY_clean_sbu_0, # of connection points: 6
#     Node 3, Type 0, BuildingBlock: IZENUY_clean_sbu_0, # of connection points: 6
#     Node 4, Type 1, BuildingBlock: BETDAH_clean_linker_0, # of connection points: 3
#     Node 5, Type 1, BuildingBlock: BETDAH_clean_linker_0, # of connection points: 3
#     Node 6, Type 1, BuildingBlock: BETDAH_clean_linker_0, # of connection points: 3
#     Node 7, Type 1, BuildingBlock: BETDAH_clean_linker_0, # of connection points: 3
#     Node 8, Type 1, BuildingBlock: BETDAH_clean_linker_0, # of connection points: 3
#     Node 9, Type 1, BuildingBlock: BETDAH_clean_linker_0, # of connection points: 3
#     Node 10, Type 1, BuildingBlock: BETDAH_clean_linker_0, # of connection points: 3
#     Node 11, Type 1, BuildingBlock: BETDAH_clean_linker_0, # of connection points: 3
#     Edge 12, Type (0, 1), BuildingBlock: XIVTED_clean_linker_0, # of connection points: 2
#     Edge 13, Type (0, 1), BuildingBlock: XIVTED_clean_linker_0, # of connection points: 2
#     Edge 14, Type (0, 1), BuildingBlock: XIVTED_clean_linker_0, # of connection points: 2
#     Edge 15, Type (0, 1), BuildingBlock: XIVTED_clean_linker_0, # of connection points: 2
#     Edge 16, Type (0, 1), BuildingBlock: XIVTED_clean_linker_0, # of connection points: 2
#     Edge 17, Type (0, 1), BuildingBlock: XIVTED_clean_linker_0, # of connection points: 2
#     Edge 18, Type (0, 1), BuildingBlock: XIVTED_clean_linker_0, # of connection points: 2
#     Edge 19, Type (0, 1), BuildingBlock: XIVTED_clean_linker_0, # of connection points: 2
#     Edge 20, Type (0, 1), BuildingBlock: XIVTED_clean_linker_0, # of connection points: 2
#     Edge 21, Type (0, 1), BuildingBlock: XIVTED_clean_linker_0, # of connection points: 2
#     Edge 22, Type (0, 1), BuildingBlock: XIVTED_clean_linker_0, # of connection points: 2
#     Edge 23, Type (0, 1), BuildingBlock: XIVTED_clean_linker_0, # of connection points: 2
#     Edge 24, Type (0, 1), BuildingBlock: XIVTED_clean_linker_0, # of connection points: 2
#     Edge 25, Type (0, 1), BuildingBlock: XIVTED_clean_linker_0, # of connection points: 2
#     Edge 26, Type (0, 1), BuildingBlock: XIVTED_clean_linker_0, # of connection points: 2
#     Edge 27, Type (0, 1), BuildingBlock: XIVTED_clean_linker_0, # of connection points: 2
#     Edge 28, Type (0, 1), BuildingBlock: XIVTED_clean_linker_0, # of connection points: 2
#     Edge 29, Type (0, 1), BuildingBlock: XIVTED_clean_linker_0, # of connection points: 2
#     Edge 30, Type (0, 1), BuildingBlock: XIVTED_clean_linker_0, # of connection points: 2
#     Edge 31, Type (0, 1), BuildingBlock: XIVTED_clean_linker_0, # of connection points: 2
#     Edge 32, Type (0, 1), BuildingBlock: XIVTED_clean_linker_0, # of connection points: 2
#     Edge 33, Type (0, 1), BuildingBlock: XIVTED_clean_linker_0, # of connection points: 2
#     Edge 34, Type (0, 1), BuildingBlock: XIVTED_clean_linker_0, # of connection points: 2
#     Edge 35, Type (0, 1), BuildingBlock: XIVTED_clean_linker_0, # of connection points: 2
# Relax obj value: 0.094
# Max RMSD: 0.103
# Mean RMSD: 0.088
data_MOF--net-dag--node1-IZENUY_clean_sbu_0--node2-BETDAH_clean_linker_0--edge1-XIVTED_clean_linker_0
_symmetry_space_group_name_H-M    P1
_symmetry_Int_Tables_number       1
_symmetry_cell_setting            triclinic
loop_
_symmetry_equiv_pos_as_xyz
'x, y, z'
_cell_length_a     38.616841
_cell_length_b     41.223569
_cell_length_c     35.603975
_cell_angle_alpha  94.000067
_cell_angle_beta   89.798443
_cell_angle_gamma 90.067769
loop_
_atom_site_label
_atom_site_type_symbol
_atom_site_fract_x
_atom_site_fract_y
_atom_site_fract_z
_atom_type_partial_charge
Fe0 Fe 0.2001 0.86496 0.08555 0.0
Fe1 Fe 0.12833 0.89175 0.06849 0.0
O2 O 0.1559 0.85831 0.07385 0.0
Fe3 Fe 0.13929 0.81829 0.06737 0.0
O4 O 0.15041 0.81026 0.115 0.0
O5 O 0.20371 0.8289 0.11314 0.0
O6 O 0.18882 0.88795 0.12929 0.0
C7 C 0.16991 0.91288 0.13073 0.0
C8 C 0.20571 0.81356 0.03321 0.0
O9 O 0.15067 0.91901 0.10345 0.0
C10 C 0.1075 0.84656 0.00969 0.0
O11 O 0.20438 0.90228 0.05999 0.0
O12 O 0.15469 0.90494 0.03052 0.0
O13 O 0.17998 0.80047 0.04844 0.0
O14 O 0.21418 0.84253 0.04261 0.0
C15 C 0.08497 0.85302 0.10622 0.0
O16 O 0.10121 0.87088 0.03232 0.0
O17 O 0.1268 0.82387 0.0191 0.0
C18 C 0.18635 0.91198 0.03326 0.0
O19 O 0.1 0.88022 0.10609 0.0
O20 O 0.09569 0.82892 0.0853 0.0
C21 C 0.18039 0.81274 0.12872 0.0
Fe22 Fe 0.65542 0.65999 0.48476 0.0
Fe23 Fe 0.60573 0.71715 0.50544 0.0
O24 O 0.61408 0.67475 0.49911 0.0
Fe25 Fe 0.58065 0.64694 0.50758 0.0
O26 O 0.60903 0.6148 0.52192 0.0
O27 O 0.6604 0.63703 0.52638 0.0
O28 O 0.6794 0.69324 0.51022 0.0
C29 C 0.6704 0.71385 0.53657 0.0
C30 C 0.60827 0.61788 0.44342 0.0
O31 O 0.63926 0.72262 0.54069 0.0
C32 C 0.54531 0.69647 0.47296 0.0
O33 O 0.6538 0.68128 0.44228 0.0
O34 O 0.63539 0.72829 0.46769 0.0
O35 O 0.58153 0.63028 0.45915 0.0
O36 O 0.63827 0.62439 0.45649 0.0
C37 C 0.57213 0.69097 0.56735 0.0
O38 O 0.5714 0.71454 0.47033 0.0
O39 O 0.5454 0.67362 0.49479 0.0
C40 C 0.64912 0.71133 0.44052 0.0
O41 O 0.57479 0.71349 0.54489 0.0
O42 O 0.57864 0.66188 0.55641 0.0
C43 C 0.63944 0.6152 0.53475 0.0
Fe44 Fe 0.86782 0.18501 0.98672 0.0
Fe45 Fe 0.87847 0.1115 0.97468 0.0
O46 O 0.85102 0.14568 0.9748 0.0
Fe47 Fe 0.8066 0.14032 0.96332 0.0
O48 O 0.811 0.16529 0.92373 0.0
O49 O 0.83896 0.20527 0.95473 0.0
O50 O 0.89936 0.18183 0.94859 0.0
C51 C 0.92097 0.15899 0.9438 0.0
C52 C 0.80549 0.18864 0.02369 0.0
O53 O 0.91728 0.13295 0.96019 0.0
C54 C 0.81646 0.08934 0.00642 0.0
O55 O 0.89949 0.17154 0.02072 0.0
O56 O 0.88827 0.11955 0.02424 0.0
O57 O 0.79128 0.17497 0.99468 0.0
O58 O 0.83796 0.1908 0.02585 0.0
C59 C 0.84081 0.09477 0.91207 0.0
O60 O 0.84461 0.08359 0.98895 0.0
O61 O 0.79972 0.11506 0.00247 0.0
C62 C 0.90059 0.14596 0.03847 0.0
O63 O 0.87036 0.10159 0.92527 0.0
O64 O 0.81372 0.1044 0.92985 0.0
C65 C 0.82249 0.19403 0.9259 0.0
Fe66 Fe 0.41877 0.34821 0.54455 0.0
Fe67 Fe 0.34345 0.33509 0.5646 0.0
O68 O 0.38519 0.32027 0.55232 0.0
Fe69 Fe 0.39364 0.27784 0.54771 0.0
O70 O 0.42705 0.28151 0.58376 0.0
O71 O 0.45378 0.32222 0.55965 0.0
O72 O 0.41601 0.36595 0.59273 0.0
C73 C 0.38844 0.37816 0.60677 0.0
C74 C 0.42935 0.30293 0.48618 0.0
O75 O 0.35936 0.3716 0.59158 0.0
C76 C 0.3295 0.27963 0.51511 0.0
O77 O 0.39051 0.37963 0.52793 0.0
O78 O 0.33971 0.35634 0.5216 0.0
O79 O 0.42547 0.28071 0.5089 0.0
O80 O 0.42277 0.33222 0.49622 0.0
C81 C 0.3494 0.28577 0.61177 0.0
O82 O 0.32026 0.30096 0.54044 0.0
O83 O 0.36076 0.27106 0.51159 0.0
C84 C 0.36052 0.37852 0.51386 0.0
O85 O 0.34425 0.31552 0.60817 0.0
O86 O 0.36329 0.2678 0.58548 0.0
C87 C 0.45306 0.29976 0.58197 0.0
H88 H 0.0707 0.08781 0.2382 0.0
H89 H 0.14283 0.13075 0.31858 0.0
H90 H 0.05561 0.18621 0.28376 0.0
C91 C 0.07806 0.10813 0.25753 0.0
C92 C 0.05913 0.13717 0.25837 0.0
C93 C 0.10807 0.10568 0.2792 0.0
C94 C 0.11923 0.13252 0.30249 0.0
C95 C 0.09986 0.16155 0.30446 0.0
C96 C 0.07004 0.16362 0.28242 0.0
N97 N 0.10978 0.18954 0.32737 0.0
C98 C 0.13876 0.19175 0.3504 0.0
H99 H 0.4379 0.60156 0.73438 0.0
H100 H 0.38287 0.68201 0.79001 0.0
H101 H 0.33977 0.58581 0.78752 0.0
C102 C 0.41636 0.61053 0.75171 0.0
C103 C 0.38962 0.58918 0.76024 0.0
C104 C 0.41427 0.64397 0.76236 0.0
C105 C 0.38522 0.65615 0.78269 0.0
C106 C 0.35848 0.63484 0.79187 0.0
C107 C 0.36083 0.60173 0.78054 0.0
N108 N 0.32736 0.64603 0.80945 0.0
C109 C 0.32496 0.67139 0.83709 0.0
H110 H 0.84965 0.91349 0.16134 0.0
H111 H 0.82009 0.81961 0.19735 0.0
H112 H 0.7433 0.88344 0.15617 0.0
C113 C 0.82984 0.89599 0.16765 0.0
C114 C 0.79533 0.90249 0.15878 0.0
C115 C 0.83937 0.86592 0.18088 0.0
C116 C 0.81331 0.843 0.18738 0.0
C117 C 0.77858 0.84965 0.17891 0.0
C118 C 0.76993 0.87896 0.16384 0.0
N119 N 0.75225 0.82621 0.18253 0.0
C120 C 0.74645 0.81142 0.21577 0.0
H121 H 0.64948 0.39811 0.64686 0.0
H122 H 0.713 0.3255 0.69288 0.0
H123 H 0.75926 0.41388 0.65833 0.0
C124 C 0.67479 0.39013 0.65555 0.0
C125 C 0.70394 0.40976 0.65049 0.0
C126 C 0.67792 0.35971 0.67043 0.0
C127 C 0.71052 0.3492 0.6818 0.0
C128 C 0.73984 0.36922 0.67821 0.0
C129 C 0.73643 0.39911 0.66208 0.0
N130 N 0.77319 0.35975 0.68984 0.0
C131 C 0.77834 0.33721 0.71645 0.0
H132 H 0.55829 0.38882 0.3163 0.0
H133 H 0.65937 0.4089 0.27212 0.0
H134 H 0.61893 0.31157 0.26237 0.0
C135 C 0.58173 0.38092 0.30158 0.0
C136 C 0.58563 0.34778 0.29038 0.0
C137 C 0.60827 0.40341 0.29602 0.0
C138 C 0.63812 0.39238 0.27641 0.0
C139 C 0.64166 0.35976 0.26298 0.0
C140 C 0.61563 0.33715 0.27073 0.0
N141 N 0.67272 0.3507 0.2436 0.0
C142 C 0.6782 0.32206 0.22142 0.0
H143 H 0.15381 0.10338 0.89746 0.0
H144 H 0.18834 0.19854 0.87109 0.0
H145 H 0.26158 0.1285 0.9067 0.0
C146 C 0.17461 0.1206 0.89382 0.0
C147 C 0.20862 0.11187 0.90237 0.0
C148 C 0.16678 0.15186 0.88295 0.0
C149 C 0.19384 0.17432 0.87952 0.0
C150 C 0.22805 0.16565 0.88784 0.0
C151 C 0.23518 0.13481 0.90003 0.0
N152 N 0.25563 0.18788 0.88479 0.0
C153 C 0.2633 0.20091 0.85088 0.0
H154 H 0.3446 0.60117 0.41853 0.0
H155 H 0.29075 0.66448 0.34829 0.0
H156 H 0.24578 0.5722 0.37155 0.0
C157 C 0.322 0.60609 0.40187 0.0
C158 C 0.29538 0.58292 0.39742 0.0
C159 C 0.32034 0.63541 0.38435 0.0
C160 C 0.29187 0.64172 0.3617 0.0
C161 C 0.26481 0.61876 0.35717 0.0
C162 C 0.26682 0.58956 0.37497 0.0
N163 N 0.23504 0.6242 0.33528 0.0
C164 C 0.23027 0.65154 0.31531 0.0
H165 H 0.93071 0.90228 0.82079 0.0
H166 H 0.93157 0.80054 0.78464 0.0
H167 H 0.84928 0.86206 0.74997 0.0
C168 C 0.9197 0.88166 0.80439 0.0
C169 C 0.88883 0.88588 0.78462 0.0
C170 C 0.93535 0.851 0.80496 0.0
C171 C 0.91978 0.8244 0.78491 0.0
C172 C 0.88912 0.82811 0.76475 0.0
C173 C 0.87334 0.85896 0.76485 0.0
N174 N 0.87489 0.79991 0.74555 0.0
C175 C 0.84819 0.79955 0.71951 0.0
H176 H 0.19796 0.97254 0.1267 0.0
H177 H 0.09024 0.04454 0.29612 0.0
H178 H 0.14911 0.91049 0.20368 0.0
H179 H 0.17159 0.09913 0.24656 0.0
H180 H 0.11617 0.9941 0.26869 0.0
H181 H 0.19386 0.01816 0.17428 0.0
C182 C 0.18714 0.96849 0.15412 0.0
C183 C 0.17387 0.93801 0.1616 0.0
C184 C 0.12904 0.01698 0.26476 0.0
C185 C 0.16805 0.99001 0.21564 0.0
C186 C 0.11433 0.04569 0.28055 0.0
C187 C 0.12892 0.0758 0.27347 0.0
C188 C 0.1579 0.01861 0.24082 0.0
C189 C 0.15977 0.07626 0.25273 0.0
C190 C 0.18482 0.99444 0.18127 0.0
C191 C 0.15975 0.93377 0.19718 0.0
N192 N 0.17283 0.04809 0.23633 0.0
N193 N 0.15652 0.95973 0.22274 0.0
H194 H 0.58945 0.66392 0.63169 0.0
H195 H 0.40445 0.69539 0.71907 0.0
H196 H 0.51698 0.73061 0.58708 0.0
H197 H 0.48426 0.64034 0.76998 0.0
H198 H 0.4483 0.71844 0.67863 0.0
H199 H 0.55548 0.66446 0.68952 0.0
C200 C 0.56663 0.67919 0.6345 0.0
C201 C 0.55572 0.69696 0.60459 0.0
C202 C 0.45641 0.70206 0.6994 0.0
C203 C 0.51596 0.69703 0.67029 0.0
C204 C 0.43141 0.68914 0.72271 0.0
C205 C 0.44081 0.66565 0.74745 0.0
C206 C 0.49084 0.69112 0.70082 0.0
C207 C 0.47598 0.65811 0.75087 0.0
C208 C 0.54718 0.67953 0.66752 0.0
C209 C 0.52615 0.71654 0.6096 0.0
N210 N 0.4996 0.67031 0.72731 0.0
N211 N 0.50678 0.71548 0.64155 0.0
H212 H 0.80734 0.02612 0.98327 0.0
H213 H 0.80949 0.96526 0.18351 0.0
H214 H 0.79367 0.09472 0.07915 0.0
H215 H 0.76336 0.90718 0.09144 0.0
H216 H 0.80423 0.01344 0.1471 0.0
H217 H 0.79155 0.98189 0.02245 0.0
C218 C 0.80041 0.03178 0.01252 0.0
C219 C 0.80176 0.06382 0.02826 0.0
C220 C 0.79452 0.99028 0.13528 0.0
C221 C 0.78467 0.01362 0.07327 0.0
C222 C 0.79765 0.96289 0.15591 0.0
C223 C 0.78695 0.93239 0.14023 0.0
C224 C 0.78154 0.98681 0.09845 0.0
C225 C 0.77179 0.93037 0.10444 0.0
C226 C 0.7913 0.00666 0.03478 0.0
C227 C 0.79269 0.07018 0.06618 0.0
N228 N 0.77018 0.95714 0.08437 0.0
N229 N 0.78523 0.04511 0.08778 0.0
H230 H 0.46316 0.31308 0.65686 0.0
H231 H 0.66846 0.3016 0.63071 0.0
H232 H 0.51437 0.27604 0.55515 0.0
H233 H 0.61696 0.37096 0.70786 0.0
H234 H 0.61245 0.27534 0.61645 0.0
H235 H 0.51967 0.31754 0.6885 0.0
C236 C 0.48624 0.30474 0.64172 0.0
C237 C 0.48443 0.29402 0.6036 0.0
C238 C 0.61359 0.29573 0.63731 0.0
C239 C 0.54869 0.29938 0.63906 0.0
C240 C 0.6455 0.31048 0.64567 0.0
C241 C 0.64707 0.33846 0.67032 0.0
C242 C 0.58325 0.30902 0.65395 0.0
C243 C 0.61662 0.34944 0.68861 0.0
C244 C 0.51839 0.30751 0.6596 0.0
C245 C 0.51493 0.28421 0.58472 0.0
N246 N 0.58583 0.33492 0.67972 0.0
N247 N 0.54592 0.28737 0.60256 0.0
H248 H 0.55232 0.57784 0.43181 0.0
H249 H 0.63573 0.45993 0.26992 0.0
H250 H 0.65547 0.59498 0.39043 0.0
H251 H 0.5754 0.42549 0.36176 0.0
H252 H 0.63367 0.51484 0.30106 0.0
H253 H 0.54982 0.52742 0.39132 0.0
C254 C 0.57415 0.57138 0.41363 0.0
C255 C 0.6043 0.59046 0.41471 0.0
C256 C 0.62064 0.49511 0.31391 0.0
C257 C 0.6014 0.53304 0.36831 0.0
C258 C 0.62198 0.46367 0.2964 0.0
C259 C 0.60568 0.43759 0.31297 0.0
C260 C 0.6022 0.50069 0.34771 0.0
C261 C 0.58764 0.44452 0.34704 0.0
C262 C 0.57276 0.54253 0.39078 0.0
C263 C 0.63188 0.58077 0.39067 0.0
N264 N 0.58629 0.47533 0.36309 0.0
N265 N 0.62984 0.55261 0.36844 0.0
H266 H 0.95455 0.11388 0.8986 0.0
H267 H 0.13289 0.20614 0.91314 0.0
H268 H 0.9615 0.21381 0.94241 0.0
H269 H 0.11657 0.1176 0.84361 0.0
H270 H 0.06994 0.21333 0.91814 0.0
H271 H 0.01275 0.11774 0.87262 0.0
C272 C 0.96827 0.13683 0.90221 0.0
C273 C 0.95344 0.16348 0.92286 0.0
C274 C 0.08015 0.19273 0.90108 0.0
C275 C 0.02054 0.16798 0.89397 0.0
C276 C 0.11608 0.18873 0.89803 0.0
C277 C 0.1299 0.16093 0.87847 0.0
C278 C 0.05807 0.16861 0.88467 0.0
C279 C 0.10695 0.13904 0.85961 0.0
C280 C 0.0015 0.13909 0.88733 0.0
C281 C 0.97214 0.19273 0.92659 0.0
N282 N 0.07223 0.14304 0.86372 0.0
N283 N 0.0051 0.19403 0.91295 0.0
H284 H 0.38842 0.43888 0.52043 0.0
H285 H 0.27775 0.52108 0.36917 0.0
H286 H 0.30428 0.38453 0.46671 0.0
H287 H 0.31906 0.57384 0.46813 0.0
H288 H 0.28941 0.46984 0.3982 0.0
H289 H 0.36773 0.48762 0.49362 0.0
C290 C 0.36565 0.43708 0.5027 0.0
C291 C 0.34809 0.40747 0.49571 0.0
C292 C 0.29546 0.49274 0.41356 0.0
C293 C 0.32419 0.46367 0.46489 0.0
C294 C 0.28876 0.52197 0.39715 0.0
C295 C 0.2981 0.55183 0.41594 0.0
C296 C 0.31198 0.49357 0.44862 0.0
C297 C 0.31243 0.55145 0.45206 0.0
C298 C 0.35368 0.46509 0.4877 0.0
C299 C 0.31852 0.40691 0.47279 0.0
N300 N 0.31937 0.52281 0.46694 0.0
N301 N 0.30756 0.43468 0.4578 0.0
H302 H 0.08321 0.79141 0.97047 0.0
H303 H 0.99097 0.8922 0.81494 0.0
H304 H 0.08925 0.89567 0.96718 0.0
H305 H 0.95167 0.80023 0.84798 0.0
H306 H 0.03835 0.88845 0.85964 0.0
H307 H 0.04594 0.78936 0.91437 0.0
C308 C 0.07716 0.81373 0.95755 0.0
C309 C 0.08886 0.8438 0.97357 0.0
C310 C 0.01951 0.86895 0.85677 0.0
C311 C 0.04693 0.8416 0.90972 0.0
C312 C 0.99234 0.87113 0.83142 0.0
C313 C 0.96682 0.84681 0.82815 0.0
C314 C 0.02145 0.84214 0.87886 0.0
C315 C 0.97069 0.81957 0.84945 0.0
C316 C 0.05584 0.81257 0.92578 0.0
C317 C 0.0803 0.87205 0.95592 0.0
N318 N 0.99733 0.81809 0.87417 0.0
N319 N 0.0598 0.87028 0.92501 0.0
H320 H 0.78961 0.04928 0.89754 0.0
H321 H 0.9167 0.94219 0.76318 0.0
H322 H 0.88808 0.08152 0.85627 0.0
H323 H 0.82558 0.90367 0.81422 0.0
H324 H 0.89768 0.9972 0.78323 0.0
H325 H 0.79392 0.00028 0.85448 0.0
C326 C 0.81164 0.0465 0.87867 0.0
C327 C 0.83877 0.06927 0.88078 0.0
C328 C 0.88137 0.97685 0.78943 0.0
C329 C 0.84397 0.01329 0.83182 0.0
C330 C 0.89213 0.94549 0.77774 0.0
C331 C 0.87273 0.91851 0.78729 0.0
C332 C 0.85126 0.98128 0.81148 0.0
C333 C 0.84117 0.92396 0.80629 0.0
C334 C 0.8142 0.01843 0.8543 0.0
C335 C 0.86681 0.06435 0.8559 0.0
N336 N 0.8317 0.95475 0.81846 0.0
N337 N 0.86886 0.03678 0.83282 0.0
H338 H 0.48295 0.26076 0.46817 0.0
H339 H 0.51615 0.34652 0.2775 0.0
H340 H 0.41556 0.33057 0.42111 0.0
H341 H 0.59631 0.29914 0.33718 0.0
H342 H 0.47276 0.32362 0.31827 0.0
H343 H 0.51815 0.25909 0.41026 0.0
C344 C 0.47505 0.275 0.44524 0.0
C345 C 0.44665 0.29616 0.44945 0.0
C346 C 0.49974 0.31744 0.32185 0.0
C347 C 0.48642 0.29429 0.3835 0.0
C348 C 0.52443 0.33023 0.29832 0.0
C349 C 0.55977 0.32491 0.3043 0.0
C350 C 0.51053 0.29958 0.35192 0.0
C351 C 0.56926 0.30378 0.33174 0.0
C352 C 0.49518 0.27416 0.41234 0.0
C353 C 0.43757 0.31427 0.4191 0.0
N354 N 0.54481 0.29246 0.3552 0.0
N355 N 0.45753 0.31313 0.3876 0.0
H356 H 0.23862 0.95631 0.04784 0.0
H357 H 0.18604 0.0537 0.87053 0.0
H358 H 0.1648 0.92316 0.96288 0.0
H359 H 0.24665 0.09558 0.96323 0.0
H360 H 0.18961 0.00084 0.89709 0.0
H361 H 0.2531 0.00234 0.01043 0.0
C362 C 0.22605 0.95833 0.02095 0.0
C363 C 0.20012 0.93626 0.00862 0.0
C364 C 0.20251 0.02146 0.91146 0.0
C365 C 0.21638 0.98859 0.96598 0.0
C366 C 0.20042 0.05162 0.89633 0.0
C367 C 0.21554 0.07907 0.91511 0.0
C368 C 0.21958 0.01873 0.94587 0.0
C369 C 0.23449 0.07498 0.948 0.0
C370 C 0.23417 0.98465 0.99975 0.0
C371 C 0.18455 0.93997 0.97367 0.0
N372 N 0.23553 0.04541 0.96272 0.0
N373 N 0.19269 0.9658 0.95378 0.0
H374 H 0.48679 0.71722 0.50836 0.0
H375 H 0.37211 0.64974 0.33576 0.0
H376 H 0.52881 0.6906 0.39836 0.0
H377 H 0.33397 0.67248 0.44828 0.0
H378 H 0.4267 0.67763 0.35302 0.0
H379 H 0.42849 0.71496 0.48195 0.0
C380 C 0.48362 0.71189 0.47832 0.0
C381 C 0.51234 0.7042 0.45535 0.0
C382 C 0.40606 0.67729 0.37366 0.0
C383 C 0.44579 0.70008 0.4251 0.0
C384 C 0.37491 0.6616 0.36371 0.0
C385 C 0.34882 0.65895 0.39075 0.0
C386 C 0.41095 0.69011 0.41093 0.0
C387 C 0.35363 0.67414 0.42674 0.0
C388 C 0.45038 0.71034 0.46324 0.0
C389 C 0.50712 0.69696 0.41677 0.0
N390 N 0.38427 0.68872 0.43593 0.0
N391 N 0.47433 0.69443 0.40289 0.0
H392 H 0.33432 0.40553 0.64651 0.0
H393 H 0.44567 0.54773 0.75169 0.0
H394 H 0.4456 0.41119 0.6362 0.0
H395 H 0.33534 0.55169 0.73283 0.0
H396 H 0.44665 0.49304 0.71998 0.0
H397 H 0.33521 0.4537 0.68996 0.0
C398 C 0.35905 0.41675 0.6536 0.0
C399 C 0.3899 0.40459 0.63709 0.0
C400 C 0.42225 0.50586 0.72321 0.0
C401 C 0.391 0.46007 0.68697 0.0
C402 C 0.42163 0.53714 0.74114 0.0
C403 C 0.39038 0.55462 0.74484 0.0
C404 C 0.39137 0.49184 0.70918 0.0
C405 C 0.36 0.53923 0.73125 0.0
C406 C 0.35949 0.44434 0.67842 0.0
C407 C 0.42117 0.41991 0.64797 0.0
N408 N 0.36131 0.50888 0.71394 0.0
N409 N 0.4209 0.44712 0.67197 0.0
H410 H 0.04658 0.79821 0.11574 0.0
H411 H 0.87082 0.80951 0.15408 0.0
H412 H 0.0471 0.90186 0.14324 0.0
H413 H 0.89321 0.90369 0.20907 0.0
H414 H 0.93228 0.80107 0.14281 0.0
H415 H 0.98904 0.79511 0.1433 0.0
C416 C 0.03454 0.82038 0.12754 0.0
C417 C 0.0515 0.85045 0.1264 0.0
C418 C 0.92422 0.82321 0.15841 0.0
C419 C 0.98473 0.8473 0.15717 0.0
C420 C 0.88883 0.82798 0.16497 0.0
C421 C 0.87676 0.85746 0.18228 0.0
C422 C 0.94783 0.84815 0.16931 0.0
C423 C 0.90134 0.88077 0.19511 0.0
C424 C 0.00137 0.81864 0.14306 0.0
C425 C 0.0349 0.87819 0.14295 0.0
N426 N 0.93557 0.87583 0.18785 0.0
N427 N 0.00235 0.87597 0.15725 0.0
H428 H 0.60352 0.55953 0.54252 0.0
H429 H 0.73428 0.46948 0.66909 0.0
H430 H 0.70202 0.60483 0.57025 0.0
H431 H 0.66492 0.42035 0.58901 0.0
H432 H 0.72181 0.52108 0.6408 0.0
H433 H 0.62288 0.51057 0.5695 0.0
C434 C 0.62927 0.55934 0.55448 0.0
C435 C 0.65126 0.58644 0.55383 0.0
C436 C 0.70967 0.49884 0.62941 0.0
C437 C 0.67364 0.52979 0.58498 0.0
C438 C 0.71678 0.46945 0.64539 0.0
C439 C 0.69999 0.44068 0.63192 0.0
C440 C 0.68543 0.49925 0.60018 0.0
C441 C 0.6776 0.44203 0.60115 0.0
C442 C 0.64037 0.53115 0.56969 0.0
C443 C 0.68431 0.58444 0.56999 0.0
N444 N 0.67069 0.47082 0.58669 0.0
N445 N 0.69457 0.55648 0.58511 0.0
H446 H 0.93475 0.1972 0.07476 0.0
H447 H 0.00866 0.09242 0.23754 0.0
H448 H 0.9099 0.09595 0.08458 0.0
H449 H 0.04377 0.18918 0.21745 0.0
H450 H 0.96632 0.09569 0.18705 0.0
H451 H 0.96876 0.19691 0.1323 0.0
C452 C 0.93631 0.1749 0.08906 0.0
C453 C 0.91974 0.14642 0.07448 0.0
C454 C 0.98308 0.11631 0.19395 0.0
C455 C 0.95869 0.14601 0.14061 0.0
C456 C 0.00731 0.11445 0.22272 0.0
C457 C 0.03009 0.14045 0.23157 0.0
C458 C 0.98154 0.14439 0.17384 0.0
C459 C 0.02665 0.16862 0.21188 0.0
C460 C 0.95576 0.17478 0.12197 0.0
C461 C 0.9225 0.11838 0.09453 0.0
N462 N 0.00307 0.16972 0.18377 0.0
N463 N 0.94178 0.11884 0.12645 0.0
H464 H 0.24473 0.79909 0.15639 0.0
H465 H 0.16861 0.67904 0.30387 0.0
H466 H 0.13569 0.78204 0.17397 0.0
H467 H 0.27713 0.68506 0.27685 0.0
H468 H 0.15681 0.7226 0.26229 0.0
H469 H 0.25791 0.76308 0.20634 0.0
C470 C 0.22357 0.78801 0.17093 0.0
C471 C 0.18907 0.79326 0.16068 0.0
C472 C 0.18326 0.71462 0.26558 0.0
C473 C 0.20394 0.75218 0.21773 0.0
C474 C 0.18993 0.68988 0.2893 0.0
C475 C 0.22375 0.67875 0.29333 0.0
C476 C 0.21072 0.72807 0.24575 0.0
C477 C 0.25067 0.69323 0.27413 0.0
C478 C 0.23111 0.76742 0.19935 0.0
C479 C 0.16269 0.77837 0.18057 0.0
N480 N 0.24357 0.71715 0.25088 0.0
N481 N 0.17069 0.75842 0.20797 0.0
H482 H 0.74093 0.70742 0.53126 0.0
H483 H 0.77923 0.81132 0.72506 0.0
H484 H 0.66085 0.7554 0.59938 0.0
H485 H 0.85875 0.77183 0.65013 0.0
H486 H 0.73522 0.79308 0.67844 0.0
H487 H 0.78441 0.73214 0.57381 0.0
C488 C 0.73245 0.7232 0.55512 0.0
C489 C 0.69712 0.72924 0.56175 0.0
C490 C 0.76231 0.78874 0.67197 0.0
C491 C 0.7469 0.75767 0.61075 0.0
C492 C 0.7873 0.79926 0.69845 0.0
C493 C 0.82233 0.79309 0.69097 0.0
C494 C 0.77268 0.7717 0.63816 0.0
C495 C 0.83182 0.77711 0.65656 0.0
C496 C 0.75734 0.73741 0.57938 0.0
C497 C 0.68777 0.75002 0.59312 0.0
N498 N 0.8071 0.76674 0.63146 0.0
N499 N 0.71249 0.76335 0.61654 0.0
H500 H 0.8262 0.20802 0.09487 0.0
H501 H 0.65143 0.30106 0.15368 0.0
H502 H 0.73615 0.20457 0.02321 0.0
H503 H 0.73472 0.28572 0.23052 0.0
H504 H 0.68008 0.26404 0.10605 0.0
H505 H 0.79195 0.23537 0.14513 0.0
C506 C 0.79916 0.21302 0.08967 0.0
C507 C 0.78414 0.20426 0.05457 0.0
C508 C 0.69178 0.26829 0.13355 0.0
C509 C 0.74457 0.23575 0.11231 0.0
C510 C 0.67535 0.28921 0.1607 0.0
C511 C 0.69078 0.29599 0.19588 0.0
C512 C 0.72405 0.25466 0.1417 0.0
C513 C 0.72199 0.28073 0.20367 0.0
C514 C 0.77953 0.22851 0.11853 0.0
C515 C 0.74884 0.21102 0.04975 0.0
N516 N 0.73779 0.26101 0.17667 0.0
N517 N 0.73032 0.22667 0.07818 0.0
H518 H 0.35142 0.22202 0.63068 0.0
H519 H 0.2579 0.2624 0.83023 0.0
H520 H 0.31795 0.31792 0.67216 0.0
H521 H 0.29258 0.16639 0.79213 0.0
H522 H 0.27841 0.28274 0.77099 0.0
H523 H 0.32913 0.20048 0.68856 0.0
C524 C 0.33943 0.23852 0.65186 0.0
C525 C 0.33655 0.27181 0.64644 0.0
C526 C 0.28148 0.25718 0.77542 0.0
C527 C 0.31099 0.24739 0.71257 0.0
C528 C 0.26971 0.24567 0.80913 0.0
C529 C 0.27367 0.21286 0.81556 0.0
C530 C 0.29735 0.23562 0.74819 0.0
C531 C 0.28915 0.19194 0.78779 0.0
C532 C 0.32668 0.22622 0.68487 0.0
C533 C 0.32075 0.29206 0.67492 0.0
N534 N 0.30055 0.20367 0.7552 0.0
N535 N 0.30861 0.27954 0.70663 0.0
H536 H 0.65041 0.77645 0.42794 0.0
H537 H 0.74944 0.74804 0.22987 0.0
H538 H 0.68032 0.68208 0.378 0.0
H539 H 0.71862 0.84252 0.27759 0.0
H540 H 0.7261 0.72362 0.28554 0.0
H541 H 0.67619 0.80149 0.37407 0.0
C542 C 0.66226 0.76099 0.40566 0.0
C543 C 0.6632 0.7271 0.4076 0.0
C544 C 0.72461 0.74972 0.28405 0.0
C545 C 0.69291 0.75559 0.34601 0.0
C546 C 0.73807 0.76357 0.25243 0.0
C547 C 0.73596 0.79714 0.2497 0.0
C548 C 0.70883 0.76972 0.31286 0.0
C549 C 0.72077 0.81645 0.27913 0.0
C550 C 0.67707 0.7753 0.37496 0.0
C551 C 0.67899 0.7083 0.37786 0.0
N552 N 0.70763 0.80244 0.30957 0.0
N553 N 0.69321 0.72279 0.3484 0.0
H554 H 0.84208 0.25744 0.92141 0.0
H555 H 0.75534 0.27545 0.71971 0.0
H556 H 0.78637 0.17966 0.8605 0.0
H557 H 0.81428 0.35095 0.77991 0.0
H558 H 0.76537 0.23991 0.77127 0.0
H559 H 0.83095 0.29223 0.87024 0.0
C560 C 0.8274 0.24767 0.89733 0.0
C561 C 0.8151 0.21554 0.89534 0.0
C562 C 0.77615 0.26422 0.77321 0.0
C563 C 0.80235 0.25536 0.83641 0.0
C564 C 0.77046 0.28437 0.74386 0.0
C565 C 0.78419 0.31582 0.74595 0.0
C566 C 0.79563 0.27588 0.80465 0.0
C567 C 0.80343 0.32665 0.77754 0.0
C568 C 0.82109 0.26757 0.86805 0.0
C569 C 0.79631 0.20427 0.86331 0.0
N570 N 0.80861 0.30669 0.80574 0.0
N571 N 0.79052 0.22415 0.83509 0.0
H572 H 0.33782 0.23925 0.45069 0.0
H573 H 0.13339 0.21363 0.42277 0.0
H574 H 0.25949 0.2823 0.52527 0.0
H575 H 0.20763 0.18687 0.33555 0.0
H576 H 0.18079 0.2319 0.46454 0.0
H577 H 0.29185 0.2136 0.41141 0.0
C578 C 0.31104 0.24319 0.4589 0.0
C579 C 0.30253 0.2631 0.49124 0.0
C580 C 0.18687 0.22181 0.4364 0.0
C581 C 0.25 0.23373 0.44668 0.0
C582 C 0.15986 0.21125 0.41273 0.0
C583 C 0.16695 0.1988 0.37603 0.0
C584 C 0.22119 0.21997 0.42309 0.0
C585 C 0.20143 0.19632 0.36392 0.0
C586 C 0.28485 0.22859 0.43646 0.0
C587 C 0.26737 0.26737 0.5005 0.0
N588 N 0.22743 0.20699 0.38741 0.0
N589 N 0.2425 0.25283 0.47837 0.0
H590 H 0.25258 0.83473 0.98212 0.0
H591 H 0.30544 0.65451 0.905 0.0
H592 H 0.20861 0.74735 0.02266 0.0
H593 H 0.32122 0.7375 0.83982 0.0
H594 H 0.28004 0.69016 0.95563 0.0
H595 H 0.287 0.8011 0.93624 0.0
C596 C 0.25034 0.8085 0.98155 0.0
C597 C 0.22757 0.79381 0.00614 0.0
C598 C 0.28939 0.7007 0.93048 0.0
C599 C 0.26702 0.75538 0.95414 0.0
C600 C 0.30409 0.68044 0.90181 0.0
C601 C 0.3154 0.69334 0.86863 0.0
C602 C 0.28599 0.7341 0.92581 0.0
C603 C 0.31287 0.72689 0.86532 0.0
C604 C 0.2699 0.78939 0.95533 0.0
C605 C 0.22561 0.75974 0.00409 0.0
N606 N 0.29822 0.74625 0.89362 0.0
N607 N 0.2451 0.74173 0.97862 0.0
loop_
_geom_bond_atom_site_label_1
_geom_bond_atom_site_label_2
_geom_bond_distance
_geom_bond_site_symmetry_2
_ccdc_geom_bond_type
Fe0 O2 1.918 . S
Fe0 O5 1.997 . S
Fe0 O6 2.002 . S
Fe0 O11 1.976 . S
Fe0 O14 1.996 . S
Fe1 O2 1.918 . S
Fe1 O9 1.997 . S
Fe1 O12 1.996 . S
Fe1 O16 1.976 1_554 S
Fe1 O19 2.002 . S
O2 Fe0 1.918 . S
O2 Fe1 1.918 . S
O2 Fe3 1.918 . S
Fe3 O2 1.918 . S
Fe3 O4 2.002 . S
Fe3 O13 1.976 . S
Fe3 O17 1.996 1_554 S
Fe3 O20 1.997 . S
O4 Fe3 2.002 . S
O4 C21 1.295 . S
O5 Fe0 1.997 . S
O5 C21 1.235 . S
O6 Fe0 2.002 . S
O6 C7 1.295 . S
C7 O6 1.295 . S
C7 O9 1.235 . S
C8 O13 1.287 . S
C8 O14 1.255 . S
O9 Fe1 1.997 . S
O9 C7 1.235 . S
C10 O16 1.287 . S
C10 O17 1.255 . S
O11 Fe0 1.976 . S
O11 C18 1.287 . S
O12 Fe1 1.996 . S
O12 C18 1.255 . S
O13 Fe3 1.976 . S
O13 C8 1.287 . S
O14 Fe0 1.996 . S
O14 C8 1.255 . S
C15 O19 1.295 . S
C15 O20 1.235 . S
O16 Fe1 1.976 1_556 S
O16 C10 1.287 . S
O17 Fe3 1.996 1_556 S
O17 C10 1.255 . S
C18 O11 1.287 . S
C18 O12 1.255 . S
O19 Fe1 2.002 . S
O19 C15 1.295 . S
O20 Fe3 1.997 . S
O20 C15 1.235 . S
C21 O4 1.295 . S
C21 O5 1.235 . S
Fe22 O24 1.918 . S
Fe22 O27 1.997 . S
Fe22 O28 2.002 . S
Fe22 O33 1.976 . S
Fe22 O36 1.996 . S
Fe23 O24 1.918 . S
Fe23 O31 1.997 . S
Fe23 O34 1.996 . S
Fe23 O38 1.976 . S
Fe23 O41 2.002 . S
O24 Fe22 1.918 . S
O24 Fe23 1.918 . S
O24 Fe25 1.918 . S
Fe25 O24 1.918 . S
Fe25 O26 2.002 . S
Fe25 O35 1.976 . S
Fe25 O39 1.996 . S
Fe25 O42 1.997 . S
O26 Fe25 2.002 . S
O26 C43 1.295 . S
O27 Fe22 1.997 . S
O27 C43 1.235 . S
O28 Fe22 2.002 . S
O28 C29 1.295 . S
C29 O28 1.295 . S
C29 O31 1.235 . S
C30 O35 1.287 . S
C30 O36 1.255 . S
O31 Fe23 1.997 . S
O31 C29 1.235 . S
C32 O38 1.287 . S
C32 O39 1.255 . S
O33 Fe22 1.976 . S
O33 C40 1.287 . S
O34 Fe23 1.996 . S
O34 C40 1.255 . S
O35 Fe25 1.976 . S
O35 C30 1.287 . S
O36 Fe22 1.996 . S
O36 C30 1.255 . S
C37 O41 1.295 . S
C37 O42 1.235 . S
O38 Fe23 1.976 . S
O38 C32 1.287 . S
O39 Fe25 1.996 . S
O39 C32 1.255 . S
C40 O33 1.287 . S
C40 O34 1.255 . S
O41 Fe23 2.002 . S
O41 C37 1.295 . S
O42 Fe25 1.997 . S
O42 C37 1.235 . S
C43 O26 1.295 . S
C43 O27 1.235 . S
Fe44 O46 1.918 . S
Fe44 O49 1.997 1_554 S
Fe44 O50 2.002 1_554 S
Fe44 O55 1.976 . S
Fe44 O58 1.996 . S
Fe45 O46 1.918 . S
Fe45 O53 1.997 1_554 S
Fe45 O56 1.996 . S
Fe45 O60 1.976 . S
Fe45 O63 2.002 1_554 S
O46 Fe44 1.918 . S
O46 Fe45 1.918 . S
O46 Fe47 1.918 1_554 S
Fe47 O46 1.918 1_556 S
Fe47 O48 2.002 . S
Fe47 O57 1.976 1_556 S
Fe47 O61 1.996 1_556 S
Fe47 O64 1.997 . S
O48 Fe47 2.002 . S
O48 C65 1.295 . S
O49 Fe44 1.997 1_556 S
O49 C65 1.235 . S
O50 Fe44 2.002 1_556 S
O50 C51 1.295 . S
C51 O50 1.295 . S
C51 O53 1.235 . S
C52 O57 1.287 . S
C52 O58 1.255 . S
O53 Fe45 1.997 1_556 S
O53 C51 1.235 . S
C54 O60 1.287 . S
C54 O61 1.255 . S
O55 Fe44 1.976 . S
O55 C62 1.287 . S
O56 Fe45 1.996 . S
O56 C62 1.255 . S
O57 Fe47 1.976 1_554 S
O57 C52 1.287 . S
O58 Fe44 1.996 . S
O58 C52 1.255 . S
C59 O63 1.295 . S
C59 O64 1.235 . S
O60 Fe45 1.976 . S
O60 C54 1.287 . S
O61 Fe47 1.996 1_554 S
O61 C54 1.255 . S
C62 O55 1.287 . S
C62 O56 1.255 . S
O63 Fe45 2.002 1_556 S
O63 C59 1.295 . S
O64 Fe47 1.997 . S
O64 C59 1.235 . S
C65 O48 1.295 . S
C65 O49 1.235 . S
Fe66 O68 1.918 . S
Fe66 O71 1.997 . S
Fe66 O72 2.002 . S
Fe66 O77 1.976 . S
Fe66 O80 1.996 . S
Fe67 O68 1.918 . S
Fe67 O75 1.997 . S
Fe67 O78 1.996 . S
Fe67 O82 1.976 . S
Fe67 O85 2.002 . S
O68 Fe66 1.918 . S
O68 Fe67 1.918 . S
O68 Fe69 1.918 . S
Fe69 O68 1.918 . S
Fe69 O70 2.002 . S
Fe69 O79 1.976 . S
Fe69 O83 1.996 . S
Fe69 O86 1.997 . S
O70 Fe69 2.002 . S
O70 C87 1.295 . S
O71 Fe66 1.997 . S
O71 C87 1.235 . S
O72 Fe66 2.002 . S
O72 C73 1.295 . S
C73 O72 1.295 . S
C73 O75 1.235 . S
C74 O79 1.287 . S
C74 O80 1.255 . S
O75 Fe67 1.997 . S
O75 C73 1.235 . S
C76 O82 1.287 . S
C76 O83 1.255 . S
O77 Fe66 1.976 . S
O77 C84 1.287 . S
O78 Fe67 1.996 . S
O78 C84 1.255 . S
O79 Fe69 1.976 . S
O79 C74 1.287 . S
O80 Fe66 1.996 . S
O80 C74 1.255 . S
C81 O85 1.295 . S
C81 O86 1.235 . S
O82 Fe67 1.976 . S
O82 C76 1.287 . S
O83 Fe69 1.996 . S
O83 C76 1.255 . S
C84 O77 1.287 . S
C84 O78 1.255 . S
O85 Fe67 2.002 . S
O85 C81 1.295 . S
O86 Fe69 1.997 . S
O86 C81 1.235 . S
C87 O70 1.295 . S
C87 O71 1.235 . S
H88 C91 0.929 . S
H89 C94 0.929 . S
H90 C96 0.930 . S
C91 H88 0.929 . S
C91 C92 1.398 . S
C91 C93 1.396 . S
C92 C91 1.398 . S
C92 C96 1.407 . S
C93 C91 1.396 . S
C93 C94 1.394 . S
C94 H89 0.929 . S
C94 C93 1.394 . S
C94 C95 1.382 . S
C95 C94 1.382 . S
C95 C96 1.392 . S
C95 N97 1.420 . S
C96 H90 0.930 . S
C96 C92 1.407 . S
C96 C95 1.392 . S
N97 C95 1.420 . S
N97 C98 1.244 . S
C98 N97 1.244 . S
H99 C102 0.929 . S
H100 C105 0.929 . S
H101 C107 0.930 . S
C102 H99 0.929 . S
C102 C103 1.398 . S
C102 C104 1.396 . S
C103 C102 1.398 . S
C103 C107 1.407 . S
C104 C102 1.396 . S
C104 C105 1.394 . S
C105 H100 0.929 . S
C105 C104 1.394 . S
C105 C106 1.382 . S
C106 C105 1.382 . S
C106 C107 1.392 . S
C106 N108 1.420 . S
C107 H101 0.930 . S
C107 C103 1.407 . S
C107 C106 1.392 . S
N108 C106 1.420 . S
N108 C109 1.244 . S
C109 N108 1.244 . S
H110 C113 0.929 . S
H111 C116 0.929 . S
H112 C118 0.930 . S
C113 H110 0.929 . S
C113 C114 1.398 . S
C113 C115 1.396 . S
C114 C113 1.398 . S
C114 C118 1.407 . S
C115 C113 1.396 . S
C115 C116 1.394 . S
C116 H111 0.929 . S
C116 C115 1.394 . S
C116 C117 1.382 . S
C117 C116 1.382 . S
C117 C118 1.392 . S
C117 N119 1.420 . S
C118 H112 0.930 . S
C118 C114 1.407 . S
C118 C117 1.392 . S
N119 C117 1.420 . S
N119 C120 1.244 . S
C120 N119 1.244 . S
H121 C124 0.929 . S
H122 C127 0.929 . S
H123 C129 0.930 . S
C124 H121 0.929 . S
C124 C125 1.398 . S
C124 C126 1.396 . S
C125 C124 1.398 . S
C125 C129 1.407 . S
C126 C124 1.396 . S
C126 C127 1.394 . S
C127 H122 0.929 . S
C127 C126 1.394 . S
C127 C128 1.382 . S
C128 C127 1.382 . S
C128 C129 1.392 . S
C128 N130 1.420 . S
C129 H123 0.930 . S
C129 C125 1.407 . S
C129 C128 1.392 . S
N130 C128 1.420 . S
N130 C131 1.244 . S
C131 N130 1.244 . S
H132 C135 0.929 . S
H133 C138 0.929 . S
H134 C140 0.930 . S
C135 H132 0.929 . S
C135 C136 1.398 . S
C135 C137 1.396 . S
C136 C135 1.398 . S
C136 C140 1.407 . S
C137 C135 1.396 . S
C137 C138 1.394 . S
C138 H133 0.929 . S
C138 C137 1.394 . S
C138 C139 1.382 . S
C139 C138 1.382 . S
C139 C140 1.392 . S
C139 N141 1.420 . S
C140 H134 0.930 . S
C140 C136 1.407 . S
C140 C139 1.392 . S
N141 C139 1.420 . S
N141 C142 1.244 . S
C142 N141 1.244 . S
H143 C146 0.929 . S
H144 C149 0.929 . S
H145 C151 0.930 . S
C146 H143 0.929 . S
C146 C147 1.398 . S
C146 C148 1.396 . S
C147 C146 1.398 . S
C147 C151 1.407 . S
C148 C146 1.396 . S
C148 C149 1.394 . S
C149 H144 0.929 . S
C149 C148 1.394 . S
C149 C150 1.382 . S
C150 C149 1.382 . S
C150 C151 1.392 . S
C150 N152 1.420 . S
C151 H145 0.930 . S
C151 C147 1.407 . S
C151 C150 1.392 . S
N152 C150 1.420 . S
N152 C153 1.244 . S
C153 N152 1.244 . S
H154 C157 0.929 . S
H155 C160 0.929 . S
H156 C162 0.930 . S
C157 H154 0.929 . S
C157 C158 1.398 . S
C157 C159 1.396 . S
C158 C157 1.398 . S
C158 C162 1.407 . S
C159 C157 1.396 . S
C159 C160 1.394 . S
C160 H155 0.929 . S
C160 C159 1.394 . S
C160 C161 1.382 . S
C161 C160 1.382 . S
C161 C162 1.392 . S
C161 N163 1.420 . S
C162 H156 0.930 . S
C162 C158 1.407 . S
C162 C161 1.392 . S
N163 C161 1.420 . S
N163 C164 1.244 . S
C164 N163 1.244 . S
H165 C168 0.929 . S
H166 C171 0.929 . S
H167 C173 0.930 . S
C168 H165 0.929 . S
C168 C169 1.398 . S
C168 C170 1.396 . S
C169 C168 1.398 . S
C169 C173 1.407 . S
C170 C168 1.396 . S
C170 C171 1.394 . S
C171 H166 0.929 . S
C171 C170 1.394 . S
C171 C172 1.382 . S
C172 C171 1.382 . S
C172 C173 1.392 . S
C172 N174 1.420 . S
C173 H167 0.930 . S
C173 C169 1.407 . S
C173 C172 1.392 . S
N174 C172 1.420 . S
N174 C175 1.244 . S
C175 N174 1.244 . S
H176 C182 0.930 . S
H177 C186 0.930 . S
H178 C191 0.929 . S
H179 C189 0.929 . S
H180 C184 0.905 1_565 S
H181 C190 0.929 . S
C182 H176 0.930 . S
C182 C183 1.367 . S
C182 C190 1.378 1_565 S
C183 C182 1.367 . S
C183 C191 1.433 . S
C184 H180 0.905 1_545 S
C184 C186 1.378 . S
C184 C188 1.350 . S
C185 C188 1.448 1_565 S
C185 C190 1.345 1_565 S
C185 N193 1.447 . S
C186 H177 0.930 . S
C186 C184 1.378 . S
C186 C187 1.367 . S
C187 C186 1.367 . S
C187 C189 1.433 . S
C188 C184 1.350 . S
C188 C185 1.448 1_545 S
C188 N192 1.427 . S
C189 H179 0.929 . S
C189 C187 1.433 . S
C189 N192 1.384 . S
C190 H181 0.929 . S
C190 C182 1.378 1_545 S
C190 C185 1.345 1_545 S
C191 H178 0.929 . S
C191 C183 1.433 . S
C191 N193 1.384 . S
N192 C188 1.427 . S
N192 C189 1.384 . S
N193 C185 1.447 . S
N193 C191 1.384 . S
H194 C200 0.930 . S
H195 C204 0.930 . S
H196 C209 0.929 . S
H197 C207 0.929 . S
H198 C202 0.929 . S
H199 C208 0.929 . S
C200 H194 0.930 . S
C200 C201 1.367 . S
C200 C208 1.378 . S
C201 C200 1.367 . S
C201 C209 1.433 . S
C202 H198 0.929 . S
C202 C204 1.378 . S
C202 C206 1.350 . S
C203 C206 1.463 . S
C203 C208 1.350 . S
C203 N211 1.427 . S
C204 H195 0.930 . S
C204 C202 1.378 . S
C204 C205 1.367 . S
C205 C204 1.367 . S
C205 C207 1.433 . S
C206 C202 1.350 . S
C206 C203 1.463 . S
C206 N210 1.427 . S
C207 H197 0.929 . S
C207 C205 1.433 . S
C207 N210 1.384 . S
C208 H199 0.929 . S
C208 C200 1.378 . S
C208 C203 1.350 . S
C209 H196 0.929 . S
C209 C201 1.433 . S
C209 N211 1.384 . S
N210 C206 1.427 . S
N210 C207 1.384 . S
N211 C203 1.427 . S
N211 C209 1.384 . S
H212 C218 0.930 . S
H213 C222 0.930 . S
H214 C227 0.929 . S
H215 C225 0.929 . S
H216 C220 0.929 . S
H217 C226 0.929 . S
C218 H212 0.930 . S
C218 C219 1.367 . S
C218 C226 1.378 1_545 S
C219 C218 1.367 . S
C219 C227 1.433 . S
C220 H216 0.929 . S
C220 C222 1.378 . S
C220 C224 1.350 . S
C221 C224 1.463 . S
C221 C226 1.350 . S
C221 N229 1.427 1_565 S
C222 H213 0.930 . S
C222 C220 1.378 . S
C222 C223 1.367 . S
C223 C222 1.367 . S
C223 C225 1.433 . S
C224 C220 1.350 . S
C224 C221 1.463 . S
C224 N228 1.427 . S
C225 H215 0.929 . S
C225 C223 1.433 . S
C225 N228 1.384 . S
C226 H217 0.929 . S
C226 C218 1.378 1_565 S
C226 C221 1.350 . S
C227 H214 0.929 . S
C227 C219 1.433 . S
C227 N229 1.384 . S
N228 C224 1.427 . S
N228 C225 1.384 . S
N229 C221 1.427 1_545 S
N229 C227 1.384 . S
H230 C236 0.930 . S
H231 C240 0.930 . S
H232 C245 0.929 . S
H233 C243 0.929 . S
H234 C238 0.929 . S
H235 C244 0.929 . S
C236 H230 0.930 . S
C236 C237 1.367 . S
C236 C244 1.378 . S
C237 C236 1.367 . S
C237 C245 1.433 . S
C238 H234 0.929 . S
C238 C240 1.378 . S
C238 C242 1.350 . S
C239 C242 1.463 . S
C239 C244 1.350 . S
C239 N247 1.427 . S
C240 H231 0.930 . S
C240 C238 1.378 . S
C240 C241 1.367 . S
C241 C240 1.367 . S
C241 C243 1.433 . S
C242 C238 1.350 . S
C242 C239 1.463 . S
C242 N246 1.427 . S
C243 H233 0.929 . S
C243 C241 1.433 . S
C243 N246 1.384 . S
C244 H235 0.929 . S
C244 C236 1.378 . S
C244 C239 1.350 . S
C245 H232 0.929 . S
C245 C237 1.433 . S
C245 N247 1.384 . S
N246 C242 1.427 . S
N246 C243 1.384 . S
N247 C239 1.427 . S
N247 C245 1.384 . S
H248 C254 0.930 . S
H249 C258 0.930 . S
H250 C263 0.929 . S
H251 C261 0.929 . S
H252 C256 0.929 . S
H253 C262 0.929 . S
C254 H248 0.930 . S
C254 C255 1.367 . S
C254 C262 1.378 . S
C255 C254 1.367 . S
C255 C263 1.433 . S
C256 H252 0.929 . S
C256 C258 1.378 . S
C256 C260 1.350 . S
C257 C260 1.463 . S
C257 C262 1.350 . S
C257 N265 1.427 . S
C258 H249 0.930 . S
C258 C256 1.378 . S
C258 C259 1.367 . S
C259 C258 1.367 . S
C259 C261 1.433 . S
C260 C256 1.350 . S
C260 C257 1.463 . S
C260 N264 1.427 . S
C261 H251 0.929 . S
C261 C259 1.433 . S
C261 N264 1.384 . S
C262 H253 0.929 . S
C262 C254 1.378 . S
C262 C257 1.350 . S
C263 H250 0.929 . S
C263 C255 1.433 . S
C263 N265 1.384 . S
N264 C260 1.427 . S
N264 C261 1.384 . S
N265 C257 1.427 . S
N265 C263 1.384 . S
H266 C272 0.930 . S
H267 C276 0.930 . S
H268 C281 0.929 1_654 S
H269 C279 0.929 . S
H270 C274 0.929 . S
H271 C280 0.929 . S
C272 H266 0.930 . S
C272 C273 1.367 . S
C272 C280 1.378 1_655 S
C273 C272 1.367 . S
C273 C281 1.433 1_655 S
C274 H270 0.929 . S
C274 C276 1.378 . S
C274 C278 1.350 . S
C275 C278 1.463 . S
C275 C280 1.350 . S
C275 N283 1.427 . S
C276 H267 0.930 . S
C276 C274 1.378 . S
C276 C277 1.367 . S
C277 C276 1.367 . S
C277 C279 1.433 . S
C278 C274 1.350 . S
C278 C275 1.463 . S
C278 N282 1.427 . S
C279 H269 0.929 . S
C279 C277 1.433 . S
C279 N282 1.384 . S
C280 H271 0.929 . S
C280 C272 1.378 1_455 S
C280 C275 1.350 . S
C281 H268 0.929 1_456 S
C281 C273 1.433 1_455 S
C281 N283 1.384 . S
N282 C278 1.427 . S
N282 C279 1.384 . S
N283 C275 1.427 . S
N283 C281 1.384 . S
H284 C290 0.930 . S
H285 C294 0.930 . S
H286 C299 0.929 . S
H287 C297 0.929 . S
H288 C292 0.929 . S
H289 C298 0.929 . S
C290 H284 0.930 . S
C290 C291 1.367 . S
C290 C298 1.378 . S
C291 C290 1.367 . S
C291 C299 1.433 . S
C292 H288 0.929 . S
C292 C294 1.378 . S
C292 C296 1.350 . S
C293 C296 1.463 . S
C293 C298 1.350 . S
C293 N301 1.427 . S
C294 H285 0.930 . S
C294 C292 1.378 . S
C294 C295 1.367 . S
C295 C294 1.367 . S
C295 C297 1.433 . S
C296 C292 1.350 . S
C296 C293 1.463 . S
C296 N300 1.427 . S
C297 H287 0.929 . S
C297 C295 1.433 . S
C297 N300 1.384 . S
C298 H289 0.929 . S
C298 C290 1.378 . S
C298 C293 1.350 . S
C299 H286 0.929 . S
C299 C291 1.433 . S
C299 N301 1.384 . S
N300 C296 1.427 . S
N300 C297 1.384 . S
N301 C293 1.427 . S
N301 C299 1.384 . S
H302 C308 0.930 . S
H303 C312 0.930 . S
H304 C317 0.929 . S
H305 C315 0.929 . S
H306 C310 0.929 1_455 S
H307 C316 0.919 1_655 S
C308 H302 0.930 . S
C308 C309 1.367 . S
C308 C316 1.378 . S
C309 C308 1.367 . S
C309 C317 1.433 . S
C310 H306 0.929 1_655 S
C310 C312 1.378 . S
C310 C314 1.350 . S
C311 C314 1.463 1_455 S
C311 C316 1.350 . S
C311 N319 1.427 . S
C312 H303 0.930 . S
C312 C310 1.378 . S
C312 C313 1.367 . S
C313 C312 1.367 . S
C313 C315 1.433 . S
C314 C310 1.350 . S
C314 C311 1.463 1_655 S
C314 N318 1.427 . S
C315 H305 0.929 . S
C315 C313 1.433 . S
C315 N318 1.384 . S
C316 H307 0.919 1_455 S
C316 C308 1.378 . S
C316 C311 1.350 . S
C317 H304 0.929 . S
C317 C309 1.433 . S
C317 N319 1.384 . S
N318 C314 1.427 . S
N318 C315 1.384 . S
N319 C311 1.427 . S
N319 C317 1.384 . S
H320 C326 0.930 . S
H321 C330 0.930 . S
H322 C335 0.929 . S
H323 C333 0.929 . S
H324 C328 0.929 1_545 S
H325 C334 0.901 1_565 S
C326 H320 0.930 . S
C326 C327 1.367 . S
C326 C334 1.400 . S
C327 C326 1.367 . S
C327 C335 1.433 . S
C328 H324 0.929 1_565 S
C328 C330 1.378 . S
C328 C332 1.350 . S
C329 C332 1.463 1_545 S
C329 C334 1.355 . S
C329 N337 1.427 . S
C330 H321 0.930 . S
C330 C328 1.378 . S
C330 C331 1.367 . S
C331 C330 1.367 . S
C331 C333 1.433 . S
C332 C328 1.350 . S
C332 C329 1.463 1_565 S
C332 N336 1.427 . S
C333 H323 0.929 . S
C333 C331 1.433 . S
C333 N336 1.384 . S
C334 H325 0.901 1_545 S
C334 C326 1.400 . S
C334 C329 1.355 . S
C335 H322 0.929 . S
C335 C327 1.433 . S
C335 N337 1.384 . S
N336 C332 1.427 . S
N336 C333 1.384 . S
N337 C329 1.427 . S
N337 C335 1.384 . S
H338 C344 0.930 . S
H339 C348 0.930 . S
H340 C353 0.929 . S
H341 C351 0.929 . S
H342 C346 0.929 . S
H343 C352 0.929 . S
C344 H338 0.930 . S
C344 C345 1.367 . S
C344 C352 1.378 . S
C345 C344 1.367 . S
C345 C353 1.433 . S
C346 H342 0.929 . S
C346 C348 1.378 . S
C346 C350 1.350 . S
C347 C350 1.463 . S
C347 C352 1.350 . S
C347 N355 1.427 . S
C348 H339 0.930 . S
C348 C346 1.378 . S
C348 C349 1.367 . S
C349 C348 1.367 . S
C349 C351 1.433 . S
C350 C346 1.350 . S
C350 C347 1.463 . S
C350 N354 1.427 . S
C351 H341 0.929 . S
C351 C349 1.433 . S
C351 N354 1.384 . S
C352 H343 0.929 . S
C352 C344 1.378 . S
C352 C347 1.350 . S
C353 H340 0.929 . S
C353 C345 1.433 . S
C353 N355 1.384 . S
N354 C350 1.427 . S
N354 C351 1.384 . S
N355 C347 1.427 . S
N355 C353 1.384 . S
H356 C362 0.930 . S
H357 C366 0.930 . S
H358 C371 0.929 . S
H359 C369 0.929 . S
H360 C364 0.929 . S
H361 C370 0.929 1_554 S
C362 H356 0.930 . S
C362 C363 1.367 1_554 S
C362 C370 1.378 1_564 S
C363 C362 1.367 1_556 S
C363 C371 1.433 . S
C364 H360 0.929 . S
C364 C366 1.378 . S
C364 C368 1.350 . S
C365 C368 1.463 . S
C365 C370 1.350 . S
C365 N373 1.427 1_545 S
C366 H357 0.930 . S
C366 C364 1.378 . S
C366 C367 1.367 . S
C367 C366 1.367 . S
C367 C369 1.433 . S
C368 C364 1.350 . S
C368 C365 1.463 . S
C368 N372 1.427 . S
C369 H359 0.929 . S
C369 C367 1.433 . S
C369 N372 1.384 . S
C370 H361 0.929 1_556 S
C370 C362 1.378 1_546 S
C370 C365 1.350 . S
C371 H358 0.929 . S
C371 C363 1.433 . S
C371 N373 1.384 . S
N372 C368 1.427 . S
N372 C369 1.384 . S
N373 C365 1.427 1_565 S
N373 C371 1.384 . S
H374 C380 0.930 . S
H375 C384 0.930 . S
H376 C389 0.929 . S
H377 C387 0.929 . S
H378 C382 0.929 . S
H379 C388 0.929 . S
C380 H374 0.930 . S
C380 C381 1.367 . S
C380 C388 1.378 . S
C381 C380 1.367 . S
C381 C389 1.433 . S
C382 H378 0.929 . S
C382 C384 1.378 . S
C382 C386 1.350 . S
C383 C386 1.463 . S
C383 C388 1.350 . S
C383 N391 1.427 . S
C384 H375 0.930 . S
C384 C382 1.378 . S
C384 C385 1.367 . S
C385 C384 1.367 . S
C385 C387 1.433 . S
C386 C382 1.350 . S
C386 C383 1.463 . S
C386 N390 1.427 . S
C387 H377 0.929 . S
C387 C385 1.433 . S
C387 N390 1.384 . S
C388 H379 0.929 . S
C388 C380 1.378 . S
C388 C383 1.350 . S
C389 H376 0.929 . S
C389 C381 1.433 . S
C389 N391 1.384 . S
N390 C386 1.427 . S
N390 C387 1.384 . S
N391 C383 1.427 . S
N391 C389 1.384 . S
H392 C398 0.930 . S
H393 C402 0.930 . S
H394 C407 0.929 . S
H395 C405 0.929 . S
H396 C400 0.929 . S
H397 C406 0.929 . S
C398 H392 0.930 . S
C398 C399 1.367 . S
C398 C406 1.378 . S
C399 C398 1.367 . S
C399 C407 1.433 . S
C400 H396 0.929 . S
C400 C402 1.378 . S
C400 C404 1.350 . S
C401 C404 1.463 . S
C401 C406 1.350 . S
C401 N409 1.427 . S
C402 H393 0.930 . S
C402 C400 1.378 . S
C402 C403 1.367 . S
C403 C402 1.367 . S
C403 C405 1.433 . S
C404 C400 1.350 . S
C404 C401 1.463 . S
C404 N408 1.427 . S
C405 H395 0.929 . S
C405 C403 1.433 . S
C405 N408 1.384 . S
C406 H397 0.929 . S
C406 C398 1.378 . S
C406 C401 1.350 . S
C407 H394 0.929 . S
C407 C399 1.433 . S
C407 N409 1.384 . S
N408 C404 1.427 . S
N408 C405 1.384 . S
N409 C401 1.427 . S
N409 C407 1.384 . S
H410 C416 0.930 . S
H411 C420 0.930 . S
H412 C425 0.929 1_455 S
H413 C423 0.929 . S
H414 C418 0.929 . S
H415 C424 0.929 . S
C416 H410 0.930 . S
C416 C417 1.367 . S
C416 C424 1.378 1_455 S
C417 C416 1.367 . S
C417 C425 1.433 1_455 S
C418 H414 0.929 . S
C418 C420 1.378 . S
C418 C422 1.350 . S
C419 C422 1.463 . S
C419 C424 1.350 . S
C419 N427 1.427 . S
C420 H411 0.930 . S
C420 C418 1.378 . S
C420 C421 1.367 . S
C421 C420 1.367 . S
C421 C423 1.433 . S
C422 C418 1.350 . S
C422 C419 1.463 . S
C422 N426 1.427 . S
C423 H413 0.929 . S
C423 C421 1.433 . S
C423 N426 1.384 . S
C424 H415 0.929 . S
C424 C416 1.378 1_655 S
C424 C419 1.350 . S
C425 H412 0.929 1_655 S
C425 C417 1.433 1_655 S
C425 N427 1.384 . S
N426 C422 1.427 . S
N426 C423 1.384 . S
N427 C419 1.427 . S
N427 C425 1.384 . S
H428 C434 0.930 . S
H429 C438 0.930 . S
H430 C443 0.929 . S
H431 C441 0.929 . S
H432 C436 0.929 . S
H433 C442 0.929 . S
C434 H428 0.930 . S
C434 C435 1.367 . S
C434 C442 1.378 . S
C435 C434 1.367 . S
C435 C443 1.433 . S
C436 H432 0.929 . S
C436 C438 1.378 . S
C436 C440 1.350 . S
C437 C440 1.463 . S
C437 C442 1.350 . S
C437 N445 1.427 . S
C438 H429 0.930 . S
C438 C436 1.378 . S
C438 C439 1.367 . S
C439 C438 1.367 . S
C439 C441 1.433 . S
C440 C436 1.350 . S
C440 C437 1.463 . S
C440 N444 1.427 . S
C441 H431 0.929 . S
C441 C439 1.433 . S
C441 N444 1.384 . S
C442 H433 0.929 . S
C442 C434 1.378 . S
C442 C437 1.350 . S
C443 H430 0.929 . S
C443 C435 1.433 . S
C443 N445 1.384 . S
N444 C440 1.427 . S
N444 C441 1.384 . S
N445 C437 1.427 . S
N445 C443 1.384 . S
H446 C452 0.930 . S
H447 C456 0.930 . S
H448 C461 0.929 . S
H449 C459 0.929 . S
H450 C454 0.929 . S
H451 C460 0.929 . S
C452 H446 0.930 . S
C452 C453 1.367 . S
C452 C460 1.378 . S
C453 C452 1.367 . S
C453 C461 1.433 . S
C454 H450 0.929 . S
C454 C456 1.378 . S
C454 C458 1.350 . S
C455 C458 1.463 1_655 S
C455 C460 1.350 . S
C455 N463 1.427 . S
C456 H447 0.930 . S
C456 C454 1.378 . S
C456 C457 1.367 . S
C457 C456 1.367 . S
C457 C459 1.433 . S
C458 C454 1.350 . S
C458 C455 1.463 1_455 S
C458 N462 1.427 . S
C459 H449 0.929 . S
C459 C457 1.433 . S
C459 N462 1.384 . S
C460 H451 0.929 . S
C460 C452 1.378 . S
C460 C455 1.350 . S
C461 H448 0.929 . S
C461 C453 1.433 . S
C461 N463 1.384 . S
N462 C458 1.427 . S
N462 C459 1.384 . S
N463 C455 1.427 . S
N463 C461 1.384 . S
H464 C470 0.930 . S
H465 C474 0.930 . S
H466 C479 0.929 . S
H467 C477 0.929 . S
H468 C472 0.929 . S
H469 C478 0.929 . S
C470 H464 0.930 . S
C470 C471 1.367 . S
C470 C478 1.378 . S
C471 C470 1.367 . S
C471 C479 1.433 . S
C472 H468 0.929 . S
C472 C474 1.378 . S
C472 C476 1.350 . S
C473 C476 1.463 . S
C473 C478 1.350 . S
C473 N481 1.427 . S
C474 H465 0.930 . S
C474 C472 1.378 . S
C474 C475 1.367 . S
C475 C474 1.367 . S
C475 C477 1.433 . S
C476 C472 1.350 . S
C476 C473 1.463 . S
C476 N480 1.427 . S
C477 H467 0.929 . S
C477 C475 1.433 . S
C477 N480 1.384 . S
C478 H469 0.929 . S
C478 C470 1.378 . S
C478 C473 1.350 . S
C479 H466 0.929 . S
C479 C471 1.433 . S
C479 N481 1.384 . S
N480 C476 1.427 . S
N480 C477 1.384 . S
N481 C473 1.427 . S
N481 C479 1.384 . S
H482 C488 0.930 . S
H483 C492 0.930 . S
H484 C497 0.929 . S
H485 C495 0.929 . S
H486 C490 0.929 . S
H487 C496 0.929 . S
C488 H482 0.930 . S
C488 C489 1.367 . S
C488 C496 1.378 . S
C489 C488 1.367 . S
C489 C497 1.433 . S
C490 H486 0.929 . S
C490 C492 1.378 . S
C490 C494 1.350 . S
C491 C494 1.463 . S
C491 C496 1.350 . S
C491 N499 1.427 . S
C492 H483 0.930 . S
C492 C490 1.378 . S
C492 C493 1.367 . S
C493 C492 1.367 . S
C493 C495 1.433 . S
C494 C490 1.350 . S
C494 C491 1.463 . S
C494 N498 1.427 . S
C495 H485 0.929 . S
C495 C493 1.433 . S
C495 N498 1.384 . S
C496 H487 0.929 . S
C496 C488 1.378 . S
C496 C491 1.350 . S
C497 H484 0.929 . S
C497 C489 1.433 . S
C497 N499 1.384 . S
N498 C494 1.427 . S
N498 C495 1.384 . S
N499 C491 1.427 . S
N499 C497 1.384 . S
H500 C506 0.930 . S
H501 C510 0.930 . S
H502 C515 0.929 . S
H503 C513 0.929 . S
H504 C508 0.929 . S
H505 C514 0.929 . S
C506 H500 0.930 . S
C506 C507 1.367 . S
C506 C514 1.378 . S
C507 C506 1.367 . S
C507 C515 1.433 . S
C508 H504 0.929 . S
C508 C510 1.378 . S
C508 C512 1.350 . S
C509 C512 1.463 . S
C509 C514 1.350 . S
C509 N517 1.427 . S
C510 H501 0.930 . S
C510 C508 1.378 . S
C510 C511 1.367 . S
C511 C510 1.367 . S
C511 C513 1.433 . S
C512 C508 1.350 . S
C512 C509 1.463 . S
C512 N516 1.427 . S
C513 H503 0.929 . S
C513 C511 1.433 . S
C513 N516 1.384 . S
C514 H505 0.929 . S
C514 C506 1.378 . S
C514 C509 1.350 . S
C515 H502 0.929 . S
C515 C507 1.433 . S
C515 N517 1.384 . S
N516 C512 1.427 . S
N516 C513 1.384 . S
N517 C509 1.427 . S
N517 C515 1.384 . S
H518 C524 0.930 . S
H519 C528 0.930 . S
H520 C533 0.929 . S
H521 C531 0.929 . S
H522 C526 0.929 . S
H523 C532 0.929 . S
C524 H518 0.930 . S
C524 C525 1.367 . S
C524 C532 1.378 . S
C525 C524 1.367 . S
C525 C533 1.433 . S
C526 H522 0.929 . S
C526 C528 1.378 . S
C526 C530 1.350 . S
C527 C530 1.463 . S
C527 C532 1.350 . S
C527 N535 1.427 . S
C528 H519 0.930 . S
C528 C526 1.378 . S
C528 C529 1.367 . S
C529 C528 1.367 . S
C529 C531 1.433 . S
C530 C526 1.350 . S
C530 C527 1.463 . S
C530 N534 1.427 . S
C531 H521 0.929 . S
C531 C529 1.433 . S
C531 N534 1.384 . S
C532 H523 0.929 . S
C532 C524 1.378 . S
C532 C527 1.350 . S
C533 H520 0.929 . S
C533 C525 1.433 . S
C533 N535 1.384 . S
N534 C530 1.427 . S
N534 C531 1.384 . S
N535 C527 1.427 . S
N535 C533 1.384 . S
H536 C542 0.930 . S
H537 C546 0.930 . S
H538 C551 0.929 . S
H539 C549 0.929 . S
H540 C544 0.929 . S
H541 C550 0.929 . S
C542 H536 0.930 . S
C542 C543 1.367 . S
C542 C550 1.378 . S
C543 C542 1.367 . S
C543 C551 1.433 . S
C544 H540 0.929 . S
C544 C546 1.378 . S
C544 C548 1.350 . S
C545 C548 1.463 . S
C545 C550 1.350 . S
C545 N553 1.427 . S
C546 H537 0.930 . S
C546 C544 1.378 . S
C546 C547 1.367 . S
C547 C546 1.367 . S
C547 C549 1.433 . S
C548 C544 1.350 . S
C548 C545 1.463 . S
C548 N552 1.427 . S
C549 H539 0.929 . S
C549 C547 1.433 . S
C549 N552 1.384 . S
C550 H541 0.929 . S
C550 C542 1.378 . S
C550 C545 1.350 . S
C551 H538 0.929 . S
C551 C543 1.433 . S
C551 N553 1.384 . S
N552 C548 1.427 . S
N552 C549 1.384 . S
N553 C545 1.427 . S
N553 C551 1.384 . S
H554 C560 0.930 . S
H555 C564 0.930 . S
H556 C569 0.929 . S
H557 C567 0.929 . S
H558 C562 0.929 . S
H559 C568 0.929 . S
C560 H554 0.930 . S
C560 C561 1.367 . S
C560 C568 1.378 . S
C561 C560 1.367 . S
C561 C569 1.433 . S
C562 H558 0.929 . S
C562 C564 1.378 . S
C562 C566 1.350 . S
C563 C566 1.463 . S
C563 C568 1.350 . S
C563 N571 1.427 . S
C564 H555 0.930 . S
C564 C562 1.378 . S
C564 C565 1.367 . S
C565 C564 1.367 . S
C565 C567 1.433 . S
C566 C562 1.350 . S
C566 C563 1.463 . S
C566 N570 1.427 . S
C567 H557 0.929 . S
C567 C565 1.433 . S
C567 N570 1.384 . S
C568 H559 0.929 . S
C568 C560 1.378 . S
C568 C563 1.350 . S
C569 H556 0.929 . S
C569 C561 1.433 . S
C569 N571 1.384 . S
N570 C566 1.427 . S
N570 C567 1.384 . S
N571 C563 1.427 . S
N571 C569 1.384 . S
H572 C578 0.930 . S
H573 C582 0.930 . S
H574 C587 0.929 . S
H575 C585 0.929 . S
H576 C580 0.929 . S
H577 C586 0.929 . S
C578 H572 0.930 . S
C578 C579 1.367 . S
C578 C586 1.378 . S
C579 C578 1.367 . S
C579 C587 1.433 . S
C580 H576 0.929 . S
C580 C582 1.378 . S
C580 C584 1.350 . S
C581 C584 1.463 . S
C581 C586 1.350 . S
C581 N589 1.427 . S
C582 H573 0.930 . S
C582 C580 1.378 . S
C582 C583 1.367 . S
C583 C582 1.367 . S
C583 C585 1.433 . S
C584 C580 1.350 . S
C584 C581 1.463 . S
C584 N588 1.427 . S
C585 H575 0.929 . S
C585 C583 1.433 . S
C585 N588 1.384 . S
C586 H577 0.929 . S
C586 C578 1.378 . S
C586 C581 1.350 . S
C587 H574 0.929 . S
C587 C579 1.433 . S
C587 N589 1.384 . S
N588 C584 1.427 . S
N588 C585 1.384 . S
N589 C581 1.427 . S
N589 C587 1.384 . S
H590 C596 0.930 . S
H591 C600 0.930 . S
H592 C605 0.929 . S
H593 C603 0.929 . S
H594 C598 0.929 . S
H595 C604 0.929 . S
C596 H590 0.930 . S
C596 C597 1.367 . S
C596 C604 1.378 . S
C597 C596 1.367 . S
C597 C605 1.433 1_556 S
C598 H594 0.929 . S
C598 C600 1.378 . S
C598 C602 1.350 . S
C599 C602 1.463 . S
C599 C604 1.350 . S
C599 N607 1.427 . S
C600 H591 0.930 . S
C600 C598 1.378 . S
C600 C601 1.367 . S
C601 C600 1.367 . S
C601 C603 1.433 . S
C602 C598 1.350 . S
C602 C599 1.463 . S
C602 N606 1.427 . S
C603 H593 0.929 . S
C603 C601 1.433 . S
C603 N606 1.384 . S
C604 H595 0.929 . S
C604 C596 1.378 . S
C604 C599 1.350 . S
C605 H592 0.929 . S
C605 C597 1.433 1_554 S
C605 N607 1.384 1_554 S
N606 C602 1.427 . S
N606 C603 1.384 . S
N607 C599 1.427 . S
N607 C605 1.384 1_556 S
C183 C7 1.449 . S
C187 C93 1.401 . S
C201 C37 1.399 . S
C205 C104 1.319 . S
C219 C54 1.339 . S
C223 C114 1.289 . S
C241 C126 1.381 . S
C237 C87 1.399 . S
C259 C137 1.365 . S
C255 C30 1.421 . S
C273 C51 1.413 . S
C277 C148 1.386 . S
C291 C84 1.378 . S
C295 C158 1.319 . S
C309 C10 1.367 . S
C313 C170 1.282 . S
C327 C59 1.331 . S
C331 C169 1.318 . S
C349 C136 1.158 . S
C345 C74 1.193 . S
C367 C147 1.293 . S
C363 C18 1.339 1_556 S
C381 C32 1.404 . S
C385 C159 1.369 . S
C403 C103 1.303 . S
C399 C73 1.327 . S
C417 C15 1.416 . S
C421 C115 1.379 . S
C439 C125 1.331 . S
C435 C43 1.355 . S
C457 C92 1.152 . S
C453 C62 1.199 . S
C475 C164 1.455 . S
C471 C21 1.473 . S
C493 C175 1.437 . S
C489 C29 1.433 . S
C507 C52 1.357 . S
C511 C142 1.351 . S
C529 C153 1.393 . S
C525 C81 1.424 . S
C547 C120 1.422 . S
C543 C40 1.445 . S
C561 C65 1.424 . S
C565 C131 1.395 . S
C583 C98 1.356 . S
C579 C76 1.363 . S
C601 C109 1.440 . S
C597 C8 1.444 1_556 S
