# Generated by pormake.
# Topology rtl, (3,6)-cn, num edge types: 1
# Building blocks:
#     Node 0, Type 0, BuildingBlock: BETDIP_clean_linker_0, # of connection points: 3
#     Node 1, Type 0, BuildingBlock: BETDIP_clean_linker_0, # of connection points: 3
#     Node 2, Type 0, BuildingBlock: BETDIP_clean_linker_0, # of connection points: 3
#     Node 3, Type 0, BuildingBlock: BETDIP_clean_linker_0, # of connection points: 3
#     Node 4, Type 1, BuildingBlock: LEVNOQ01_clean_sbu_1, # of connection points: 6
#     Node 5, Type 1, BuildingBlock: LEVNOQ01_clean_sbu_1, # of connection points: 6
#     Edge 6, Type (0, 1), BuildingBlock: ZUJKAS_clean_linker_0, # of connection points: 2
#     Edge 7, Type (0, 1), BuildingBlock: ZUJKAS_clean_linker_0, # of connection points: 2
#     Edge 8, Type (0, 1), BuildingBlock: ZUJKAS_clean_linker_0, # of connection points: 2
#     Edge 9, Type (0, 1), BuildingBlock: ZUJKAS_clean_linker_0, # of connection points: 2
#     Edge 10, Type (0, 1), BuildingBlock: ZUJKAS_clean_linker_0, # of connection points: 2
#     Edge 11, Type (0, 1), BuildingBlock: ZUJKAS_clean_linker_0, # of connection points: 2
#     Edge 12, Type (0, 1), BuildingBlock: ZUJKAS_clean_linker_0, # of connection points: 2
#     Edge 13, Type (0, 1), BuildingBlock: ZUJKAS_clean_linker_0, # of connection points: 2
#     Edge 14, Type (0, 1), BuildingBlock: ZUJKAS_clean_linker_0, # of connection points: 2
#     Edge 15, Type (0, 1), BuildingBlock: ZUJKAS_clean_linker_0, # of connection points: 2
#     Edge 16, Type (0, 1), BuildingBlock: ZUJKAS_clean_linker_0, # of connection points: 2
#     Edge 17, Type (0, 1), BuildingBlock: ZUJKAS_clean_linker_0, # of connection points: 2
# Relax obj value: 0.017
# Max RMSD: 0.120
# Mean RMSD: 0.091
data_MOF--net-rtl--node1-LEVNOQ01_clean_sbu_1--node2-BETDIP_clean_linker_0--edge1-ZUJKAS_clean_linker_0
_symmetry_space_group_name_H-M    P1
_symmetry_Int_Tables_number       1
_symmetry_cell_setting            triclinic
loop_
_symmetry_equiv_pos_as_xyz
'x, y, z'
_cell_length_a     46.397751
_cell_length_b     46.308133
_cell_length_c     29.288188
_cell_angle_alpha  90.868223
_cell_angle_beta   98.740098
_cell_angle_gamma 89.752478
loop_
_atom_site_label
_atom_site_type_symbol
_atom_site_fract_x
_atom_site_fract_y
_atom_site_fract_z
_atom_type_partial_charge
H0 H 0.20708 0.81881 0.0087 0.0
H1 H 0.2153 0.82882 0.15645 0.0
H2 H 0.15536 0.88213 0.06921 0.0
H3 H 0.25531 0.80409 0.15894 0.0
C4 C 0.25551 0.7921 0.12692 0.0
C5 C 0.2009 0.82974 0.03874 0.0
C6 C 0.17929 0.85139 0.03321 0.0
C7 C 0.21451 0.82169 0.08283 0.0
C8 C 0.20581 0.83509 0.12206 0.0
C9 C 0.18457 0.85699 0.11725 0.0
C10 C 0.17164 0.86514 0.07282 0.0
N11 N 0.23642 0.79979 0.08607 0.0
H12 H 0.70426 0.71158 0.66139 0.0
H13 H 0.69514 0.72236 0.51441 0.0
H14 H 0.64604 0.65672 0.57062 0.0
H15 H 0.74231 0.73677 0.53267 0.0
C16 C 0.74252 0.74928 0.56439 0.0
C17 C 0.69435 0.70513 0.62684 0.0
C18 C 0.67397 0.68254 0.62057 0.0
C19 C 0.70293 0.71887 0.58882 0.0
C20 C 0.68985 0.7108 0.54386 0.0
C21 C 0.66909 0.68846 0.53678 0.0
C22 C 0.66165 0.67424 0.57548 0.0
N23 N 0.72444 0.74095 0.59701 0.0
H24 H 0.7938 0.21038 0.91303 0.0
H25 H 0.80266 0.21465 0.06125 0.0
H26 H 0.85111 0.15145 0.99511 0.0
H27 H 0.75859 0.23601 0.04641 0.0
C28 C 0.75915 0.24857 0.01555 0.0
C29 C 0.80345 0.20228 0.94642 0.0
C30 C 0.82305 0.17894 0.94912 0.0
C31 C 0.79559 0.21502 0.98643 0.0
C32 C 0.80807 0.20465 0.03003 0.0
C33 C 0.82788 0.18139 0.03352 0.0
C34 C 0.83514 0.16872 0.99279 0.0
N35 N 0.77571 0.23867 0.98134 0.0
H36 H 0.2905 0.321 0.40439 0.0
H37 H 0.29744 0.31542 0.55181 0.0
H38 H 0.3509 0.37552 0.49187 0.0
H39 H 0.28514 0.2687 0.53396 0.0
C40 C 0.26915 0.27013 0.50288 0.0
C41 C 0.30049 0.32814 0.43853 0.0
C42 C 0.32131 0.35033 0.4435 0.0
C43 C 0.29251 0.31479 0.47727 0.0
C44 C 0.30475 0.32452 0.52178 0.0
C45 C 0.32569 0.34673 0.52764 0.0
C46 C 0.33399 0.35923 0.4881 0.0
N47 N 0.27177 0.29198 0.47019 0.0
O48 O 0.98555 0.07942 0.59303 0.0
Mg49 Mg 0.02133 0.05221 0.59357 0.0
O50 O 0.96768 0.03623 0.57824 0.0
Mg51 Mg 0.00087 0.0136 0.53291 0.0
O52 O 0.03875 0.04907 0.53336 0.0
O53 O 0.05691 0.07661 0.59499 0.0
O54 O 0.03373 0.99104 0.48755 0.0
O55 O 0.97659 0.03974 0.47033 0.0
Mg56 Mg 0.97935 0.97447 0.47072 0.0
O57 O 0.96329 0.9779 0.53224 0.0
O58 O 0.01572 0.94833 0.46816 0.0
O59 O 0.96806 0.00503 0.41835 0.0
O60 O 0.94425 0.94976 0.4718 0.0
C61 C 0.03342 0.99584 0.63696 0.0
C62 C 0.9646 0.0622 0.59206 0.0
C63 C 0.05755 0.06804 0.55313 0.0
C64 C 0.03671 0.96571 0.471 0.0
C65 C 0.96727 0.03154 0.42899 0.0
C66 C 0.94427 0.95877 0.51363 0.0
O67 O 0.0313 0.02224 0.64746 0.0
O68 O 0.02539 0.98754 0.59531 0.0
O69 O 0.53653 0.51006 0.14448 0.0
Mg70 Mg 0.52472 0.47823 0.09298 0.0
O71 O 0.52291 0.54436 0.09468 0.0
Mg72 Mg 0.4976 0.51693 0.03299 0.0
O73 O 0.5363 0.4829 0.02877 0.0
O74 O 0.55936 0.45409 0.08431 0.0
O75 O 0.47345 0.48724 0.97231 0.0
O76 O 0.52339 0.54283 0.98342 0.0
Mg77 Mg 0.45617 0.54751 0.96574 0.0
O78 O 0.46054 0.55212 0.03619 0.0
O79 O 0.4352 0.5104 0.93664 0.0
O80 O 0.48994 0.56549 0.93517 0.0
O81 O 0.42808 0.57638 0.98564 0.0
C82 C 0.46778 0.46713 0.09702 0.0
C83 C 0.53473 0.53659 0.13487 0.0
C84 C 0.55627 0.4637 0.0428 0.0
C85 C 0.45003 0.48757 0.94312 0.0
C86 C 0.51644 0.5597 0.94933 0.0
C87 C 0.43937 0.57086 0.02761 0.0
O88 O 0.48981 0.45113 0.09795 0.0
O89 O 0.46854 0.49265 0.08132 0.0
H90 H 0.26371 0.22328 0.55458 0.0
H91 H 0.22689 0.18523 0.54103 0.0
H92 H 0.18703 0.22725 0.41672 0.0
H93 H 0.22387 0.26559 0.43025 0.0
H94 H 0.14742 0.2112 0.47535 0.0
H95 H 0.21878 0.11925 0.44498 0.0
H96 H 0.23258 0.13927 0.49656 0.0
H97 H 0.22983 0.15641 0.44129 0.0
C98 C 0.24722 0.22429 0.52418 0.0
C99 C 0.24675 0.24726 0.4934 0.0
C100 C 0.22634 0.20244 0.51626 0.0
C101 C 0.20459 0.20307 0.47732 0.0
C102 C 0.20385 0.22617 0.44665 0.0
H103 H 0.05206 0.08584 0.46302 0.0
H104 H 0.0869 0.11659 0.43023 0.0
C105 C 0.22489 0.24804 0.45446 0.0
C106 C 0.18176 0.18041 0.4708 0.0
H107 H 0.17326 0.10722 0.47108 0.0
C108 C 0.15282 0.18846 0.47308 0.0
C109 C 0.18886 0.15079 0.46746 0.0
C110 C 0.21917 0.14091 0.46193 0.0
C111 C 0.13132 0.1676 0.4762 0.0
C112 C 0.13899 0.13798 0.47648 0.0
C113 C 0.16743 0.12993 0.47081 0.0
C114 C 0.11961 0.1158 0.49139 0.0
C115 C 0.10114 0.17736 0.48282 0.0
C116 C 0.12705 0.1043 0.53559 0.0
C117 C 0.10734 0.08711 0.55419 0.0
C118 C 0.07991 0.0807 0.52877 0.0
C119 C 0.07318 0.09036 0.48312 0.0
C120 C 0.09291 0.10804 0.46459 0.0
H121 H 0.09934 0.20126 0.48517 0.0
H122 H 0.08506 0.16954 0.45332 0.0
H123 H 0.0952 0.16799 0.5148 0.0
H124 H 0.14752 0.10997 0.55679 0.0
H125 H 0.11309 0.07982 0.5894 0.0
H126 H 0.29384 0.77296 0.19938 0.0
H127 H 0.33076 0.73484 0.19943 0.0
H128 H 0.30311 0.7202 0.05363 0.0
H129 H 0.26636 0.75829 0.05328 0.0
H130 H 0.3236 0.67581 0.17403 0.0
H131 H 0.39178 0.73257 0.06411 0.0
H132 H 0.36448 0.75089 0.09177 0.0
H133 H 0.35402 0.73053 0.0391 0.0
C134 C 0.29572 0.76161 0.16734 0.0
C135 C 0.27735 0.7687 0.12632 0.0
C136 C 0.31676 0.73985 0.16745 0.0
C137 C 0.31997 0.725 0.12642 0.0
C138 C 0.30137 0.73178 0.08551 0.0
H139 H 0.38452 0.56723 0.04549 0.0
H140 H 0.35893 0.60428 0.0838 0.0
C141 C 0.28027 0.75347 0.08541 0.0
C142 C 0.34246 0.70211 0.12626 0.0
H143 H 0.40009 0.68182 0.07325 0.0
C144 C 0.34061 0.67725 0.15253 0.0
C145 C 0.36504 0.70427 0.09904 0.0
C146 C 0.36921 0.73112 0.07225 0.0
C147 C 0.35965 0.65377 0.15003 0.0
C148 C 0.38088 0.65512 0.12018 0.0
C149 C 0.38381 0.68069 0.09611 0.0
C150 C 0.39762 0.62933 0.10841 0.0
C151 C 0.35648 0.62752 0.17869 0.0
C152 C 0.42812 0.63045 0.11072 0.0
C153 C 0.44286 0.60897 0.08901 0.0
C154 C 0.42717 0.58638 0.0644 0.0
C155 C 0.39711 0.58414 0.06518 0.0
C156 C 0.38247 0.60536 0.08708 0.0
H157 H 0.34747 0.63343 0.21063 0.0
H158 H 0.34104 0.6122 0.15839 0.0
H159 H 0.37769 0.61634 0.18845 0.0
H160 H 0.44021 0.64889 0.12661 0.0
H161 H 0.46594 0.61147 0.08784 0.0
H162 H 0.78273 0.76514 0.51211 0.0
H163 H 0.81815 0.80441 0.52642 0.0
H164 H 0.78606 0.82661 0.65315 0.0
H165 H 0.75034 0.78724 0.63885 0.0
H166 H 0.79218 0.87433 0.59679 0.0
H167 H 0.89285 0.8085 0.62146 0.0
H168 H 0.86887 0.7983 0.56982 0.0
H169 H 0.85739 0.79355 0.62525 0.0
C170 C 0.78335 0.77827 0.54318 0.0
C171 C 0.76392 0.77304 0.57443 0.0
C172 C 0.80372 0.80056 0.5515 0.0
C173 C 0.80514 0.81808 0.59132 0.0
C174 C 0.78554 0.81313 0.62248 0.0
H175 H 0.95104 0.9407 0.60365 0.0
H176 H 0.91651 0.91036 0.63776 0.0
C177 C 0.76516 0.79066 0.61425 0.0
C178 C 0.82619 0.84236 0.59851 0.0
H179 H 0.89791 0.85769 0.5971 0.0
C180 C 0.8154 0.87074 0.59799 0.0
C181 C 0.85655 0.83775 0.60114 0.0
C182 C 0.86965 0.80786 0.60496 0.0
C183 C 0.83388 0.89448 0.59585 0.0
C184 C 0.86378 0.88965 0.59367 0.0
C185 C 0.87496 0.86145 0.59841 0.0
C186 C 0.88254 0.91234 0.57835 0.0
C187 C 0.821 0.92447 0.59395 0.0
C188 C 0.87469 0.9239 0.53423 0.0
C189 C 0.8943 0.94077 0.51481 0.0
C190 C 0.92218 0.94663 0.53911 0.0
C191 C 0.92953 0.93673 0.5845 0.0
C192 C 0.9099 0.91935 0.60383 0.0
H193 H 0.80193 0.92566 0.61272 0.0
H194 H 0.83734 0.94079 0.60897 0.0
H195 H 0.81328 0.93001 0.55739 0.0
H196 H 0.85406 0.91833 0.51346 0.0
H197 H 0.88815 0.94809 0.47969 0.0
H198 H 0.75466 0.28724 0.94413 0.0
H199 H 0.72347 0.33027 0.9338 0.0
H200 H 0.68954 0.31093 0.05906 0.0
H201 H 0.72105 0.26833 0.07003 0.0
H202 H 0.66406 0.3361 0.92318 0.0
H203 H 0.71419 0.3943 0.08133 0.0
H204 H 0.7311 0.36314 0.05864 0.0
H205 H 0.70291 0.3587 0.094 0.0
C206 C 0.74063 0.29224 0.96955 0.0
C207 C 0.74037 0.27454 0.00811 0.0
C208 C 0.72281 0.31682 0.96357 0.0
C209 C 0.70457 0.32415 -0.0039 0.0
C210 C 0.70398 0.30616 0.03413 0.0
H211 H 0.54772 0.41292 -0.00236 0.0
H212 H 0.58598 0.38255 0.97382 0.0
C213 C 0.72184 0.28172 0.04023 0.0
C214 C 0.68559 0.35018 0.99017 0.0
H215 H 0.66592 0.40953 0.04858 0.0
C216 C 0.66475 0.35246 0.95022 0.0
C217 C 0.68694 0.37196 0.02481 0.0
C218 C 0.71022 0.3721 0.06685 0.0
C219 C 0.644 0.37488 0.94548 0.0
C220 C 0.64375 0.3952 0.98204 0.0
C221 C 0.66582 0.39392 0.02056 0.0
C222 C 0.6192 0.41575 0.98412 0.0
C223 C 0.62234 0.37626 0.90163 0.0
C224 C 0.62467 0.4449 -0.00337 0.0
C225 C 0.60268 0.46227 0.01056 0.0
C226 C 0.57491 0.45076 0.01177 0.0
C227 C 0.56877 0.42247 -0.0044 0.0
C228 C 0.59071 0.40508 0.98198 0.0
H229 H 0.632 0.36765 0.87171 0.0
H230 H 0.60322 0.36263 0.90521 0.0
H231 H 0.6147 0.39869 0.89412 0.0
H232 H 0.64649 0.4536 -0.0011 0.0
H233 H 0.60807 0.48379 0.02416 0.0
H234 H 0.16907 0.83102 0.19299 0.0
H235 H 0.15116 0.85418 0.25903 0.0
H236 H 0.16225 0.9379 0.20149 0.0
H237 H 0.17944 0.91476 0.1348 0.0
H238 H 0.17471 0.89236 0.32504 0.0
H239 H 0.07804 0.94156 0.21894 0.0
H240 H 0.10064 0.91505 0.19574 0.0
H241 H 0.11214 0.95213 0.20255 0.0
C242 C 0.16784 0.85437 0.19462 0.0
C243 C 0.17537 0.8711 0.15859 0.0
C244 C 0.1576 0.86758 0.23232 0.0
C245 C 0.15482 0.89777 0.23484 0.0
C246 C 0.16342 0.91456 0.19973 0.0
H247 H 0.07275 0.00195 0.43288 0.0
H248 H 0.10691 0.98807 0.37997 0.0
C249 C 0.17333 0.90134 0.16173 0.0
C250 C 0.1423 0.91144 0.2737 0.0
H251 H 0.08534 0.95276 0.2986 0.0
C252 C 0.15526 0.9057 0.31923 0.0
C253 C 0.11688 0.92885 0.26616 0.0
C254 C 0.10092 0.93458 0.21826 0.0
C255 C 0.14325 0.91654 0.35731 0.0
C256 C 0.11765 0.93351 0.34965 0.0
C257 C 0.10519 0.93999 0.30429 0.0
C258 C 0.10148 0.94211 0.38763 0.0
C259 C 0.15779 0.90949 0.40547 0.0
C260 C 0.08768 0.92087 0.41011 0.0
C261 C 0.06804 0.92869 0.43985 0.0
C262 C 0.06193 0.95794 0.44786 0.0
C263 C 0.07721 0.97926 0.42767 0.0
C264 C 0.09661 0.97137 0.39732 0.0
H265 H 0.18089 0.90291 0.40604 0.0
H266 H 0.15697 0.92829 0.42925 0.0
H267 H 0.14607 0.89131 0.41867 0.0
H268 H 0.09079 0.89818 0.40261 0.0
H269 H 0.05659 0.9118 0.45489 0.0
H270 H 0.65855 0.70705 0.69891 0.0
H271 H 0.63983 0.68271 0.7619 0.0
H272 H 0.6509 0.60017 0.69642 0.0
H273 H 0.66916 0.62447 0.63297 0.0
H274 H 0.59787 0.60535 0.71768 0.0
H275 H 0.67634 0.63695 0.87154 0.0
H276 H 0.66199 0.66777 0.83925 0.0
H277 H 0.68383 0.64177 0.8134 0.0
C278 C 0.65752 0.68368 0.69845 0.0
C279 C 0.6652 0.66768 0.66092 0.0
C280 C 0.64699 0.66976 0.73463 0.0
C281 C 0.64436 0.63953 0.73437 0.0
C282 C 0.65283 0.62349 0.69752 0.0
H283 H 0.5739 0.54312 0.95184 0.0
H284 H 0.60825 0.56068 0.90216 0.0
C285 C 0.66312 0.6374 0.66117 0.0
C286 C 0.62995 0.62496 0.76974 0.0
H287 H 0.62943 0.61991 0.88602 0.0
C288 C 0.60512 0.60819 0.75446 0.0
C289 C 0.63951 0.62831 0.81782 0.0
C290 C 0.66707 0.64443 0.83648 0.0
C291 C 0.58885 0.59588 0.78574 0.0
C292 C 0.59727 0.60088 0.83365 0.0
C293 C 0.62286 0.6164 0.84922 0.0
C294 C 0.57825 0.59201 0.86727 0.0
C295 C 0.56237 0.57805 0.76717 0.0
C296 C 0.55054 0.6045 0.86507 0.0
C297 C 0.53104 0.59457 0.89301 0.0
C298 C 0.53884 0.572 0.92415 0.0
C299 C 0.56723 0.56049 0.92815 0.0
C300 C 0.58683 0.57046 0.89982 0.0
H301 H 0.56351 0.56963 0.73176 0.0
H302 H 0.55997 0.55955 0.78998 0.0
H303 H 0.54257 0.59175 0.76555 0.0
H304 H 0.5437 0.62151 0.84075 0.0
H305 H 0.50953 0.60425 0.88942 0.0
H306 H 0.84884 0.21263 0.11226 0.0
H307 H 0.87413 0.1941 0.18577 0.0
H308 H 0.86375 0.1071 0.13162 0.0
H309 H 0.83789 0.12519 0.05875 0.0
H310 H 0.85411 0.14741 0.24709 0.0
H311 H 0.95463 0.12152 0.17306 0.0
H312 H 0.92787 0.14736 0.14745 0.0
H313 H 0.92119 0.10933 0.13915 0.0
C314 C 0.85151 0.18952 0.11624 0.0
C315 C 0.84155 0.17041 0.07937 0.0
C316 C 0.86609 0.17901 0.15817 0.0
C317 C 0.8711 0.1493 0.16377 0.0
C318 C 0.86044 0.13016 0.12766 0.0
H319 H 0.94668 0.01943 0.33884 0.0
H320 H 0.92503 0.05226 0.27928 0.0
C321 C 0.84578 0.14057 0.08597 0.0
C322 C 0.8881 0.13792 0.20668 0.0
H323 H 0.95035 0.10061 0.24545 0.0
C324 C 0.87539 0.1376 0.24719 0.0
C325 C 0.91587 0.12532 0.20655 0.0
C326 C 0.9309 0.12604 0.16438 0.0
C327 C 0.88901 0.12333 0.28685 0.0
C328 C 0.9162 0.10951 0.28593 0.0
C329 C 0.9295 0.11119 0.24609 0.0
C330 C 0.92961 0.09031 0.32349 0.0
C331 C 0.87351 0.12171 0.32843 0.0
C332 C 0.93965 0.10083 0.36834 0.0
C333 C 0.95215 0.08193 0.40294 0.0
C334 C 0.95483 0.05228 0.39305 0.0
C335 C 0.94498 0.04208 0.34789 0.0
C336 C 0.93258 0.06085 0.31363 0.0
H337 H 0.8507 0.12972 0.32098 0.0
H338 H 0.87324 0.09912 0.34057 0.0
H339 H 0.88536 0.13506 0.35697 0.0
H340 H 0.93796 0.1236 0.3765 0.0
H341 H 0.95959 0.09049 0.4373 0.0
H342 H 0.34003 0.31495 0.60677 0.0
H343 H 0.36047 0.33246 0.68404 0.0
H344 H 0.36397 0.41877 0.63194 0.0
H345 H 0.34157 0.40203 0.55576 0.0
H346 H 0.41074 0.35693 0.71844 0.0
H347 H 0.3223 0.43396 0.73896 0.0
H348 H 0.31921 0.40781 0.69226 0.0
H349 H 0.33775 0.44159 0.68801 0.0
C350 C 0.34457 0.33778 0.61187 0.0
C351 C 0.33882 0.35705 0.57479 0.0
C352 C 0.35659 0.3477 0.65606 0.0
C353 C 0.36324 0.37706 0.66413 0.0
C354 C 0.35831 0.39616 0.62698 0.0
H355 H 0.48011 0.46083 0.88197 0.0
H356 H 0.45944 0.42899 0.81793 0.0
C357 C 0.3459 0.3864 0.58307 0.0
C358 C 0.37554 0.38785 0.71113 0.0
H359 H 0.36732 0.44102 0.78989 0.0
C360 C 0.40105 0.37509 0.73442 0.0
C361 C 0.36259 0.41107 0.73263 0.0
C362 C 0.33378 0.42415 0.71186 0.0
C363 C 0.41456 0.38568 0.77768 0.0
C364 C 0.40276 0.41029 0.7975 0.0
C365 C 0.37667 0.42231 0.77484 0.0
C366 C 0.41727 0.4249 0.84057 0.0
C367 C 0.44113 0.37014 0.80169 0.0
C368 C 0.40074 0.43317 0.87508 0.0
C369 C 0.41228 0.45206 0.91074 0.0
C370 C 0.44085 0.4624 0.91338 0.0
C371 C 0.45823 0.45254 0.88112 0.0
C372 C 0.4464 0.43423 0.84458 0.0
H373 H 0.44067 0.34688 0.79172 0.0
H374 H 0.46095 0.37965 0.79108 0.0
H375 H 0.44286 0.37197 0.83985 0.0
H376 H 0.37828 0.4263 0.87298 0.0
H377 H 0.39843 0.45971 0.93505 0.0
H378 H 0.69449 0.68443 0.45796 0.0
H379 H 0.67223 0.66777 0.38111 0.0
H380 H 0.59078 0.65427 0.43159 0.0
H381 H 0.61229 0.67246 0.50757 0.0
H382 H 0.65243 0.61626 0.35743 0.0
H383 H 0.56118 0.69242 0.31233 0.0
H384 H 0.59007 0.69916 0.35992 0.0
H385 H 0.55957 0.67665 0.36737 0.0
C386 C 0.67162 0.67864 0.45246 0.0
C387 C 0.65525 0.67975 0.48919 0.0
C388 C 0.65895 0.66895 0.40849 0.0
C389 C 0.62965 0.66016 0.40017 0.0
C390 C 0.61318 0.66161 0.4366 0.0
H391 H 0.55179 0.52665 0.2261 0.0
H392 H 0.57546 0.55965 0.28523 0.0
C393 C 0.62573 0.67153 0.48042 0.0
C394 C 0.61708 0.64683 0.35496 0.0
H395 H 0.55635 0.64587 0.27253 0.0
C396 C 0.63167 0.62314 0.3385 0.0
C397 C 0.59023 0.65599 0.3295 0.0
C398 C 0.57456 0.68267 0.34296 0.0
C399 C 0.61941 0.60738 0.29909 0.0
C400 C 0.59141 0.61499 0.27607 0.0
C401 C 0.57758 0.63974 0.29066 0.0
C402 C 0.57533 0.59597 0.23965 0.0
C403 C 0.63638 0.5823 0.28301 0.0
C404 C 0.56607 0.60579 0.19459 0.0
C405 C 0.55212 0.58686 0.16032 0.0
C406 C 0.54724 0.55788 0.1708 0.0
C407 C 0.55558 0.54865 0.21647 0.0
C408 C 0.56927 0.56748 0.25043 0.0
H409 H 0.66021 0.58518 0.29383 0.0
H410 H 0.62988 0.56217 0.29877 0.0
H411 H 0.632 0.57961 0.24484 0.0
H412 H 0.57024 0.62784 0.1857 0.0
H413 H 0.54583 0.59467 0.12556 0.0
H414 H 0.8294 0.12142 0.92943 0.0
H415 H 0.84713 0.09983 0.86198 0.0
H416 H 0.85303 0.18445 0.8048 0.0
H417 H 0.83602 0.20629 0.87252 0.0
H418 H 0.82599 0.10406 0.76298 0.0
H419 H 0.93667 0.15006 0.81579 0.0
H420 H 0.91015 0.14811 0.85478 0.0
H421 H 0.9074 0.17585 0.81209 0.0
C422 C 0.83451 0.13544 0.9025 0.0
C423 C 0.83158 0.16561 0.90657 0.0
C424 C 0.84438 0.12304 0.86385 0.0
C425 C 0.85165 0.14058 0.82871 0.0
C426 C 0.84778 0.17058 0.83181 0.0
H427 H 0.94307 0.11637 0.59753 0.0
H428 H 0.91084 0.13393 0.65042 0.0
C429 C 0.83787 0.183 0.87038 0.0
C430 C 0.86484 0.12772 0.79007 0.0
H431 H 0.92766 0.12668 0.74293 0.0
C432 C 0.84822 0.10892 0.75848 0.0
C433 C 0.89391 0.13393 0.78467 0.0
C434 C 0.91323 0.15287 0.81879 0.0
C435 C 0.85973 0.0968 0.7207 0.0
C436 C 0.88869 0.1034 0.71498 0.0
C437 C 0.90535 0.12187 0.74707 0.0
C438 C 0.90263 0.09168 0.67619 0.0
C439 C 0.84068 0.07762 0.68673 0.0
C440 C 0.9077 0.0619 0.67156 0.0
C441 C 0.92591 0.05172 0.64071 0.0
C442 C 0.93964 0.07129 0.6148 0.0
C443 C 0.93287 0.10082 0.61724 0.0
C444 C 0.9145 0.11089 0.64752 0.0
H445 H 0.81719 0.08052 0.68933 0.0
H446 H 0.84405 0.08203 0.65076 0.0
H447 H 0.8465 0.05471 0.69409 0.0
H448 H 0.89917 0.04671 0.69385 0.0
H449 H 0.931 0.02888 0.63986 0.0
H450 H 0.33394 0.32318 0.36531 0.0
H451 H 0.35232 0.34497 0.29975 0.0
H452 H 0.34857 0.42925 0.36311 0.0
H453 H 0.32976 0.4077 0.42862 0.0
H454 H 0.32691 0.4237 0.2601 0.0
H455 H 0.43778 0.37944 0.31907 0.0
H456 H 0.40816 0.35416 0.31499 0.0
H457 H 0.41064 0.38305 0.35693 0.0
C458 C 0.33656 0.3464 0.36495 0.0
C459 C 0.33058 0.3637 0.40227 0.0
C460 C 0.34717 0.35878 0.32761 0.0
C461 C 0.35193 0.38865 0.32686 0.0
C462 C 0.34504 0.40615 0.36317 0.0
H463 H 0.43152 0.49974 0.14285 0.0
H464 H 0.39952 0.48169 0.19545 0.0
C465 C 0.33454 0.39377 0.40066 0.0
C466 C 0.3659 0.4013 0.28965 0.0
H467 H 0.43043 0.40302 0.24761 0.0
C468 C 0.34954 0.41927 0.25721 0.0
C469 C 0.39543 0.39555 0.28635 0.0
C470 C 0.41421 0.37719 0.3213 0.0
C471 C 0.36185 0.43106 0.22058 0.0
C472 C 0.39138 0.42507 0.21707 0.0
C473 C 0.40773 0.40741 0.25006 0.0
C474 C 0.40617 0.43652 0.17963 0.0
C475 C 0.343 0.44917 0.18543 0.0
C476 C 0.42012 0.41723 0.15269 0.0
C477 C 0.43869 0.42745 0.1234 0.0
C478 C 0.44352 0.45722 0.12009 0.0
C479 C 0.42795 0.47669 0.14444 0.0
C480 C 0.40961 0.46639 0.17442 0.0
H481 H 0.31943 0.44523 0.18573 0.0
H482 H 0.34736 0.47235 0.19369 0.0
H483 H 0.34796 0.44471 0.15008 0.0
H484 H 0.41774 0.39412 0.15603 0.0
H485 H 0.45029 0.41196 0.10482 0.0
H486 H 0.12156 0.86419 0.00603 0.0
H487 H 0.09831 0.88183 0.93139 0.0
H488 H 0.17994 0.87432 0.87868 0.0
H489 H 0.20378 0.85791 0.95419 0.0
H490 H 0.15568 0.92549 0.85949 0.0
H491 H 0.07145 0.84227 0.80958 0.0
H492 H 0.0692 0.85691 0.86595 0.0
H493 H 0.10131 0.8372 0.85604 0.0
C494 C 0.13465 0.86628 0.97863 0.0
C495 C 0.16465 0.8598 0.98635 0.0
C496 C 0.12115 0.87593 0.93562 0.0
C497 C 0.13719 0.87892 0.899 0.0
C498 C 0.16702 0.87192 0.90625 0.0
H499 H 0.05078 0.93937 0.62646 0.0
H500 H 0.07721 0.90835 0.68638 0.0
C501 C 0.1806 0.86239 0.94941 0.0
C502 C 0.12337 0.89186 0.85479 0.0
H503 H 0.06288 0.88844 0.77204 0.0
C504 C 0.13565 0.91707 0.84 0.0
C505 C 0.09746 0.88071 0.82872 0.0
C506 C 0.08428 0.8526 0.84063 0.0
C507 C 0.12194 0.93225 0.80157 0.0
C508 C 0.09488 0.92234 0.77776 0.0
C509 C 0.08339 0.89627 0.79078 0.0
C510 C 0.0774 0.93997 0.7416 0.0
C511 C 0.13638 0.95908 0.78723 0.0
C512 C 0.06795 0.96755 0.7531 0.0
C513 C 0.05297 0.98518 0.71924 0.0
C514 C 0.04685 0.9756 0.67296 0.0
C515 C 0.05522 0.94743 0.66173 0.0
C516 C 0.07035 0.92972 0.69587 0.0
H517 H 0.1603 0.95874 0.79907 0.0
H518 H 0.1324 0.9615 0.74912 0.0
H519 H 0.12729 0.97831 0.80313 0.0
H520 H 0.07252 0.97563 0.78836 0.0
H521 H 0.0466 0.0066 0.72934 0.0
loop_
_geom_bond_atom_site_label_1
_geom_bond_atom_site_label_2
_geom_bond_distance
_geom_bond_site_symmetry_2
_ccdc_geom_bond_type
H0 C5 0.930 . S
H1 C8 0.930 . S
H2 C10 0.930 . S
H3 C4 1.016 . S
C4 H3 1.016 . S
C4 N11 1.286 . S
C5 H0 0.930 . S
C5 C6 1.397 . S
C5 C7 1.361 . S
C6 C5 1.397 . S
C6 C10 1.390 . S
C7 C5 1.361 . S
C7 C8 1.393 . S
C7 N11 1.413 . S
C8 H1 0.930 . S
C8 C7 1.393 . S
C8 C9 1.399 . S
C9 C8 1.399 . S
C9 C10 1.381 . S
C10 H2 0.930 . S
C10 C6 1.390 . S
C10 C9 1.381 . S
N11 C4 1.286 . S
N11 C7 1.413 . S
H12 C17 0.930 . S
H13 C20 0.930 . S
H14 C22 0.930 . S
H15 C16 1.016 . S
C16 H15 1.016 . S
C16 N23 1.286 . S
C17 H12 0.930 . S
C17 C18 1.397 . S
C17 C19 1.361 . S
C18 C17 1.397 . S
C18 C22 1.390 . S
C19 C17 1.361 . S
C19 C20 1.393 . S
C19 N23 1.413 . S
C20 H13 0.930 . S
C20 C19 1.393 . S
C20 C21 1.399 . S
C21 C20 1.399 . S
C21 C22 1.381 . S
C22 H14 0.930 . S
C22 C18 1.390 . S
C22 C21 1.381 . S
N23 C16 1.286 . S
N23 C19 1.413 . S
H24 C29 0.930 . S
H25 C32 0.930 . S
H26 C34 0.930 . S
H27 C28 1.016 . S
C28 H27 1.016 . S
C28 N35 1.286 1_554 S
C29 H24 0.930 . S
C29 C30 1.397 . S
C29 C31 1.361 . S
C30 C29 1.397 . S
C30 C34 1.390 1_556 S
C31 C29 1.361 . S
C31 C32 1.393 1_556 S
C31 N35 1.413 . S
C32 H25 0.930 . S
C32 C31 1.393 1_554 S
C32 C33 1.399 . S
C33 C32 1.399 . S
C33 C34 1.381 . S
C34 H26 0.930 . S
C34 C30 1.390 1_554 S
C34 C33 1.381 . S
N35 C28 1.286 1_556 S
N35 C31 1.413 . S
H36 C41 0.930 . S
H37 C44 0.930 . S
H38 C46 0.930 . S
H39 C40 1.016 . S
C40 H39 1.016 . S
C40 N47 1.286 . S
C41 H36 0.930 . S
C41 C42 1.397 . S
C41 C43 1.361 . S
C42 C41 1.397 . S
C42 C46 1.390 . S
C43 C41 1.361 . S
C43 C44 1.393 . S
C43 N47 1.413 . S
C44 H37 0.930 . S
C44 C43 1.393 . S
C44 C45 1.399 . S
C45 C44 1.399 . S
C45 C46 1.381 . S
C46 H38 0.930 . S
C46 C42 1.390 . S
C46 C45 1.381 . S
N47 C40 1.286 . S
N47 C43 1.413 . S
O48 Mg49 1.990 . S
O48 C62 1.253 1_455 S
Mg49 O48 1.990 . S
Mg49 O52 2.180 . S
Mg49 O53 2.117 . S
Mg49 O67 2.030 . S
O50 Mg51 2.072 1_655 S
O50 C62 1.260 . S
Mg51 O50 2.072 1_455 S
Mg51 O52 2.099 . S
Mg51 O54 2.079 1_545 S
Mg51 O55 2.072 1_455 S
Mg51 O57 2.099 1_445 S
Mg51 O68 2.079 1_545 S
O52 Mg49 2.180 . S
O52 Mg51 2.099 . S
O52 C63 1.279 . S
O53 Mg49 2.117 . S
O53 C63 1.250 . S
O54 Mg51 2.079 1_565 S
O54 C64 1.264 . S
O55 Mg51 2.072 1_655 S
O55 C65 1.260 . S
Mg56 O57 2.180 . S
Mg56 O58 2.030 1_655 S
Mg56 O59 1.990 1_565 S
Mg56 O60 2.117 . S
O57 Mg51 2.099 1_665 S
O57 Mg56 2.180 . S
O57 C66 1.279 . S
O58 Mg56 2.030 1_455 S
O58 C64 1.248 . S
O59 Mg56 1.990 1_545 S
O59 C65 1.253 . S
O60 Mg56 2.117 . S
O60 C66 1.250 . S
C61 O67 1.248 1_565 S
C61 O68 1.264 . S
C62 O48 1.253 1_655 S
C62 O50 1.260 . S
C63 O52 1.279 . S
C63 O53 1.250 . S
C64 O54 1.264 . S
C64 O58 1.248 . S
C65 O55 1.260 . S
C65 O59 1.253 . S
C66 O57 1.279 . S
C66 O60 1.250 . S
O67 Mg49 2.030 . S
O67 C61 1.248 1_545 S
O68 Mg51 2.079 1_565 S
O68 C61 1.264 . S
O69 Mg70 1.990 . S
O69 C83 1.253 . S
Mg70 O69 1.990 . S
Mg70 O73 2.180 . S
Mg70 O74 2.117 . S
Mg70 O88 2.030 . S
O71 Mg72 2.072 . S
O71 C83 1.260 . S
Mg72 O71 2.072 . S
Mg72 O73 2.099 . S
Mg72 O75 2.079 1_554 S
Mg72 O76 2.072 . S
Mg72 O78 2.099 . S
Mg72 O89 2.079 . S
O73 Mg70 2.180 . S
O73 Mg72 2.099 . S
O73 C84 1.279 . S
O74 Mg70 2.117 . S
O74 C84 1.250 . S
O75 Mg72 2.079 1_556 S
O75 C85 1.264 . S
O76 Mg72 2.072 . S
O76 C86 1.261 1_554 S
Mg77 O78 2.180 1_556 S
Mg77 O79 2.030 . S
Mg77 O80 1.990 . S
Mg77 O81 2.117 1_556 S
O78 Mg72 2.099 . S
O78 Mg77 2.180 1_554 S
O78 C87 1.279 . S
O79 Mg77 2.030 . S
O79 C85 1.248 . S
O80 Mg77 1.990 . S
O80 C86 1.253 . S
O81 Mg77 2.117 1_554 S
O81 C87 1.250 . S
C82 O88 1.248 . S
C82 O89 1.264 . S
C83 O69 1.253 . S
C83 O71 1.260 . S
C84 O73 1.279 . S
C84 O74 1.250 . S
C85 O75 1.264 . S
C85 O79 1.248 . S
C86 O76 1.261 1_556 S
C86 O80 1.253 . S
C87 O78 1.279 . S
C87 O81 1.250 . S
O88 Mg70 2.030 . S
O88 C82 1.248 . S
O89 Mg72 2.079 . S
O89 C82 1.264 . S
H90 C98 0.929 . S
H91 C100 0.930 . S
H92 C102 0.930 . S
H93 C105 0.929 . S
H94 C108 0.930 . S
H95 C110 0.960 . S
H96 C110 0.960 . S
H97 C110 0.960 . S
C98 H90 0.929 . S
C98 C99 1.377 . S
C98 C100 1.384 . S
C99 C98 1.377 . S
C99 C105 1.390 . S
C100 H91 0.930 . S
C100 C98 1.384 . S
C100 C101 1.372 . S
C101 C100 1.372 . S
C101 C102 1.400 . S
C101 C106 1.490 . S
C102 H92 0.930 . S
C102 C101 1.400 . S
C102 C105 1.386 . S
H103 C119 0.930 . S
H104 C120 0.931 . S
C105 H93 0.929 . S
C105 C99 1.390 . S
C105 C102 1.386 . S
C106 C101 1.490 . S
C106 C108 1.395 . S
C106 C109 1.403 . S
H107 C113 0.930 . S
C108 H94 0.930 . S
C108 C106 1.395 . S
C108 C111 1.403 . S
C109 C106 1.403 . S
C109 C110 1.524 . S
C109 C113 1.400 . S
C110 H95 0.960 . S
C110 H96 0.960 . S
C110 H97 0.960 . S
C110 C109 1.524 . S
C111 C108 1.403 . S
C111 C112 1.392 . S
C111 C115 1.495 . S
C112 C111 1.392 . S
C112 C113 1.385 . S
C112 C114 1.478 . S
C113 H107 0.930 . S
C113 C109 1.400 . S
C113 C112 1.385 . S
C114 C112 1.478 . S
C114 C116 1.381 . S
C114 C120 1.383 . S
C115 C111 1.495 . S
C115 H121 0.959 . S
C115 H122 0.961 . S
C115 H123 0.960 . S
C116 C114 1.381 . S
C116 C117 1.394 . S
C116 H124 0.930 . S
C117 C116 1.394 . S
C117 C118 1.383 . S
C117 H125 0.929 . S
C118 C117 1.383 . S
C118 C119 1.377 . S
C119 H103 0.930 . S
C119 C118 1.377 . S
C119 C120 1.379 . S
C120 H104 0.931 . S
C120 C114 1.383 . S
C120 C119 1.379 . S
H121 C115 0.959 . S
H122 C115 0.961 . S
H123 C115 0.960 . S
H124 C116 0.930 . S
H125 C117 0.929 . S
H126 C134 0.929 . S
H127 C136 0.930 . S
H128 C138 0.930 . S
H129 C141 0.929 . S
H130 C144 0.930 . S
H131 C146 0.960 . S
H132 C146 0.963 . S
H133 C146 0.960 . S
C134 H126 0.929 . S
C134 C135 1.377 . S
C134 C136 1.384 . S
C135 C134 1.377 . S
C135 C141 1.390 . S
C136 H127 0.930 . S
C136 C134 1.384 . S
C136 C137 1.372 . S
C137 C136 1.372 . S
C137 C138 1.400 . S
C137 C142 1.490 . S
C138 H128 0.930 . S
C138 C137 1.400 . S
C138 C141 1.386 . S
H139 C155 0.930 . S
H140 C156 0.931 . S
C141 H129 0.929 . S
C141 C135 1.390 . S
C141 C138 1.386 . S
C142 C137 1.490 . S
C142 C144 1.395 . S
C142 C145 1.403 . S
H143 C149 0.930 . S
C144 H130 0.930 . S
C144 C142 1.395 . S
C144 C147 1.403 . S
C145 C142 1.403 . S
C145 C146 1.524 1_554 S
C145 C149 1.400 . S
C146 H131 0.960 . S
C146 H132 0.963 . S
C146 H133 0.960 . S
C146 C145 1.524 1_556 S
C147 C144 1.403 . S
C147 C148 1.392 . S
C147 C151 1.495 . S
C148 C147 1.392 . S
C148 C149 1.385 . S
C148 C150 1.478 . S
C149 H143 0.930 . S
C149 C145 1.400 . S
C149 C148 1.385 . S
C150 C148 1.478 . S
C150 C152 1.381 . S
C150 C156 1.383 . S
C151 C147 1.495 . S
C151 H157 0.959 . S
C151 H158 0.961 . S
C151 H159 0.960 . S
C152 C150 1.381 . S
C152 C153 1.394 . S
C152 H160 0.930 . S
C153 C152 1.394 . S
C153 C154 1.383 . S
C153 H161 0.929 . S
C154 C153 1.383 . S
C154 C155 1.377 . S
C155 H139 0.930 . S
C155 C154 1.377 . S
C155 C156 1.379 . S
C156 H140 0.931 . S
C156 C150 1.383 . S
C156 C155 1.379 . S
H157 C151 0.959 . S
H158 C151 0.961 . S
H159 C151 0.960 . S
H160 C152 0.930 . S
H161 C153 0.929 . S
H162 C170 0.929 . S
H163 C172 0.930 . S
H164 C174 0.930 . S
H165 C177 0.929 . S
H166 C180 0.930 . S
H167 C182 0.960 . S
H168 C182 0.960 . S
H169 C182 0.960 . S
C170 H162 0.929 . S
C170 C171 1.377 . S
C170 C172 1.384 . S
C171 C170 1.377 . S
C171 C177 1.390 . S
C172 H163 0.930 . S
C172 C170 1.384 . S
C172 C173 1.372 . S
C173 C172 1.372 . S
C173 C174 1.400 . S
C173 C178 1.490 . S
C174 H164 0.930 . S
C174 C173 1.400 . S
C174 C177 1.386 . S
H175 C191 0.930 . S
H176 C192 0.931 . S
C177 H165 0.929 . S
C177 C171 1.390 . S
C177 C174 1.386 . S
C178 C173 1.490 . S
C178 C180 1.395 . S
C178 C181 1.403 . S
H179 C185 0.930 . S
C180 H166 0.930 . S
C180 C178 1.395 . S
C180 C183 1.403 . S
C181 C178 1.403 . S
C181 C182 1.524 . S
C181 C185 1.400 . S
C182 H167 0.960 . S
C182 H168 0.960 . S
C182 H169 0.960 . S
C182 C181 1.524 . S
C183 C180 1.403 . S
C183 C184 1.392 . S
C183 C187 1.495 . S
C184 C183 1.392 . S
C184 C185 1.385 . S
C184 C186 1.478 . S
C185 H179 0.930 . S
C185 C181 1.400 . S
C185 C184 1.385 . S
C186 C184 1.478 . S
C186 C188 1.381 . S
C186 C192 1.383 . S
C187 C183 1.495 . S
C187 H193 0.959 . S
C187 H194 0.961 . S
C187 H195 0.960 . S
C188 C186 1.381 . S
C188 C189 1.394 . S
C188 H196 0.930 . S
C189 C188 1.394 . S
C189 C190 1.383 . S
C189 H197 0.929 . S
C190 C189 1.383 . S
C190 C191 1.377 . S
C191 H175 0.930 . S
C191 C190 1.377 . S
C191 C192 1.379 . S
C192 H176 0.931 . S
C192 C186 1.383 . S
C192 C191 1.379 . S
H193 C187 0.959 . S
H194 C187 0.961 . S
H195 C187 0.960 . S
H196 C188 0.930 . S
H197 C189 0.929 . S
H198 C206 0.929 . S
H199 C208 0.930 . S
H200 C210 0.930 . S
H201 C213 0.929 . S
H202 C216 0.930 . S
H203 C218 0.960 . S
H204 C218 0.960 . S
H205 C218 0.960 . S
C206 H198 0.929 . S
C206 C207 1.377 . S
C206 C208 1.384 . S
C207 C206 1.377 . S
C207 C213 1.390 . S
C208 H199 0.930 . S
C208 C206 1.384 . S
C208 C209 1.372 . S
C209 C208 1.372 . S
C209 C210 1.400 . S
C209 C214 1.490 . S
C210 H200 0.930 . S
C210 C209 1.400 . S
C210 C213 1.386 . S
H211 C227 0.930 . S
H212 C228 0.931 . S
C213 H201 0.929 . S
C213 C207 1.390 . S
C213 C210 1.386 . S
C214 C209 1.490 . S
C214 C216 1.395 1_554 S
C214 C217 1.403 . S
H215 C221 0.930 . S
C216 H202 0.930 . S
C216 C214 1.395 1_556 S
C216 C219 1.403 . S
C217 C214 1.403 . S
C217 C218 1.524 . S
C217 C221 1.400 . S
C218 H203 0.960 . S
C218 H204 0.960 . S
C218 H205 0.960 . S
C218 C217 1.524 . S
C219 C216 1.403 . S
C219 C220 1.392 1_556 S
C219 C223 1.495 . S
C220 C219 1.392 1_554 S
C220 C221 1.385 . S
C220 C222 1.478 . S
C221 H215 0.930 . S
C221 C217 1.400 . S
C221 C220 1.385 . S
C222 C220 1.478 . S
C222 C224 1.381 . S
C222 C228 1.383 . S
C223 C219 1.495 . S
C223 H229 0.959 . S
C223 H230 0.961 . S
C223 H231 0.960 . S
C224 C222 1.381 . S
C224 C225 1.394 . S
C224 H232 0.930 . S
C225 C224 1.394 . S
C225 C226 1.383 . S
C225 H233 0.929 . S
C226 C225 1.383 . S
C226 C227 1.377 . S
C227 H211 0.930 . S
C227 C226 1.377 . S
C227 C228 1.379 . S
C228 H212 0.931 . S
C228 C222 1.383 . S
C228 C227 1.379 . S
H229 C223 0.959 . S
H230 C223 0.961 . S
H231 C223 0.960 . S
H232 C224 0.930 . S
H233 C225 0.929 . S
H234 C242 0.929 . S
H235 C244 0.930 . S
H236 C246 0.930 . S
H237 C249 0.929 . S
H238 C252 0.930 . S
H239 C254 0.960 . S
H240 C254 0.960 . S
H241 C254 0.960 . S
C242 H234 0.929 . S
C242 C243 1.377 . S
C242 C244 1.384 . S
C243 C242 1.377 . S
C243 C249 1.390 . S
C244 H235 0.930 . S
C244 C242 1.384 . S
C244 C245 1.372 . S
C245 C244 1.372 . S
C245 C246 1.400 . S
C245 C250 1.490 . S
C246 H236 0.930 . S
C246 C245 1.400 . S
C246 C249 1.386 . S
H247 C263 0.930 1_545 S
H248 C264 0.931 . S
C249 H237 0.929 . S
C249 C243 1.390 . S
C249 C246 1.386 . S
C250 C245 1.490 . S
C250 C252 1.395 . S
C250 C253 1.403 . S
H251 C257 0.930 . S
C252 H238 0.930 . S
C252 C250 1.395 . S
C252 C255 1.403 . S
C253 C250 1.403 . S
C253 C254 1.524 . S
C253 C257 1.400 . S
C254 H239 0.960 . S
C254 H240 0.960 . S
C254 H241 0.960 . S
C254 C253 1.524 . S
C255 C252 1.403 . S
C255 C256 1.392 . S
C255 C259 1.495 . S
C256 C255 1.392 . S
C256 C257 1.385 . S
C256 C258 1.478 . S
C257 H251 0.930 . S
C257 C253 1.400 . S
C257 C256 1.385 . S
C258 C256 1.478 . S
C258 C260 1.381 . S
C258 C264 1.383 . S
C259 C255 1.495 . S
C259 H265 0.959 . S
C259 H266 0.961 . S
C259 H267 0.960 . S
C260 C258 1.381 . S
C260 C261 1.394 . S
C260 H268 0.930 . S
C261 C260 1.394 . S
C261 C262 1.383 . S
C261 H269 0.929 . S
C262 C261 1.383 . S
C262 C263 1.377 . S
C263 H247 0.930 1_565 S
C263 C262 1.377 . S
C263 C264 1.379 . S
C264 H248 0.931 . S
C264 C258 1.383 . S
C264 C263 1.379 . S
H265 C259 0.959 . S
H266 C259 0.961 . S
H267 C259 0.960 . S
H268 C260 0.930 . S
H269 C261 0.929 . S
H270 C278 0.929 . S
H271 C280 0.930 . S
H272 C282 0.930 . S
H273 C285 0.929 . S
H274 C288 0.930 . S
H275 C290 0.960 . S
H276 C290 0.960 . S
H277 C290 0.960 . S
C278 H270 0.929 . S
C278 C279 1.377 . S
C278 C280 1.384 . S
C279 C278 1.377 . S
C279 C285 1.390 . S
C280 H271 0.930 . S
C280 C278 1.384 . S
C280 C281 1.372 . S
C281 C280 1.372 . S
C281 C282 1.400 . S
C281 C286 1.490 . S
C282 H272 0.930 . S
C282 C281 1.400 . S
C282 C285 1.386 . S
H283 C299 0.930 . S
H284 C300 0.931 . S
C285 H273 0.929 . S
C285 C279 1.390 . S
C285 C282 1.386 . S
C286 C281 1.490 . S
C286 C288 1.395 . S
C286 C289 1.403 . S
H287 C293 0.930 . S
C288 H274 0.930 . S
C288 C286 1.395 . S
C288 C291 1.403 . S
C289 C286 1.403 . S
C289 C290 1.524 . S
C289 C293 1.400 . S
C290 H275 0.960 . S
C290 H276 0.960 . S
C290 H277 0.960 . S
C290 C289 1.524 . S
C291 C288 1.403 . S
C291 C292 1.392 . S
C291 C295 1.495 . S
C292 C291 1.392 . S
C292 C293 1.385 . S
C292 C294 1.478 . S
C293 H287 0.930 . S
C293 C289 1.400 . S
C293 C292 1.385 . S
C294 C292 1.478 . S
C294 C296 1.381 . S
C294 C300 1.383 . S
C295 C291 1.495 . S
C295 H301 0.959 . S
C295 H302 0.961 . S
C295 H303 0.960 . S
C296 C294 1.381 . S
C296 C297 1.394 . S
C296 H304 0.930 . S
C297 C296 1.394 . S
C297 C298 1.383 . S
C297 H305 0.929 . S
C298 C297 1.383 . S
C298 C299 1.377 . S
C299 H283 0.930 . S
C299 C298 1.377 . S
C299 C300 1.379 . S
C300 H284 0.931 . S
C300 C294 1.383 . S
C300 C299 1.379 . S
H301 C295 0.959 . S
H302 C295 0.961 . S
H303 C295 0.960 . S
H304 C296 0.930 . S
H305 C297 0.929 . S
H306 C314 0.929 . S
H307 C316 0.930 . S
H308 C318 0.930 . S
H309 C321 0.929 . S
H310 C324 0.930 . S
H311 C326 0.960 . S
H312 C326 0.960 . S
H313 C326 0.960 . S
C314 H306 0.929 . S
C314 C315 1.377 . S
C314 C316 1.384 . S
C315 C314 1.377 . S
C315 C321 1.390 . S
C316 H307 0.930 . S
C316 C314 1.384 . S
C316 C317 1.372 . S
C317 C316 1.372 . S
C317 C318 1.400 . S
C317 C322 1.490 . S
C318 H308 0.930 . S
C318 C317 1.400 . S
C318 C321 1.386 . S
H319 C335 0.930 . S
H320 C336 0.931 . S
C321 H309 0.929 . S
C321 C315 1.390 . S
C321 C318 1.386 . S
C322 C317 1.490 . S
C322 C324 1.395 . S
C322 C325 1.403 . S
H323 C329 0.930 . S
C324 H310 0.930 . S
C324 C322 1.395 . S
C324 C327 1.403 . S
C325 C322 1.403 . S
C325 C326 1.524 . S
C325 C329 1.400 . S
C326 H311 0.960 . S
C326 H312 0.960 . S
C326 H313 0.960 . S
C326 C325 1.524 . S
C327 C324 1.403 . S
C327 C328 1.392 . S
C327 C331 1.495 . S
C328 C327 1.392 . S
C328 C329 1.385 . S
C328 C330 1.478 . S
C329 H323 0.930 . S
C329 C325 1.400 . S
C329 C328 1.385 . S
C330 C328 1.478 . S
C330 C332 1.381 . S
C330 C336 1.383 . S
C331 C327 1.495 . S
C331 H337 0.959 . S
C331 H338 0.961 . S
C331 H339 0.960 . S
C332 C330 1.381 . S
C332 C333 1.394 . S
C332 H340 0.930 . S
C333 C332 1.394 . S
C333 C334 1.383 . S
C333 H341 0.929 . S
C334 C333 1.383 . S
C334 C335 1.377 . S
C335 H319 0.930 . S
C335 C334 1.377 . S
C335 C336 1.379 . S
C336 H320 0.931 . S
C336 C330 1.383 . S
C336 C335 1.379 . S
H337 C331 0.959 . S
H338 C331 0.961 . S
H339 C331 0.960 . S
H340 C332 0.930 . S
H341 C333 0.929 . S
H342 C350 0.929 . S
H343 C352 0.930 . S
H344 C354 0.930 . S
H345 C357 0.929 . S
H346 C360 0.930 . S
H347 C362 0.960 . S
H348 C362 0.960 . S
H349 C362 0.960 . S
C350 H342 0.929 . S
C350 C351 1.377 . S
C350 C352 1.384 . S
C351 C350 1.377 . S
C351 C357 1.390 . S
C352 H343 0.930 . S
C352 C350 1.384 . S
C352 C353 1.372 . S
C353 C352 1.372 . S
C353 C354 1.400 . S
C353 C358 1.490 . S
C354 H344 0.930 . S
C354 C353 1.400 . S
C354 C357 1.386 . S
H355 C371 0.930 . S
H356 C372 0.931 . S
C357 H345 0.929 . S
C357 C351 1.390 . S
C357 C354 1.386 . S
C358 C353 1.490 . S
C358 C360 1.395 . S
C358 C361 1.403 . S
H359 C365 0.930 . S
C360 H346 0.930 . S
C360 C358 1.395 . S
C360 C363 1.403 . S
C361 C358 1.403 . S
C361 C362 1.524 . S
C361 C365 1.400 . S
C362 H347 0.960 . S
C362 H348 0.960 . S
C362 H349 0.960 . S
C362 C361 1.524 . S
C363 C360 1.403 . S
C363 C364 1.392 . S
C363 C367 1.495 . S
C364 C363 1.392 . S
C364 C365 1.385 . S
C364 C366 1.478 . S
C365 H359 0.930 . S
C365 C361 1.400 . S
C365 C364 1.385 . S
C366 C364 1.478 . S
C366 C368 1.381 . S
C366 C372 1.383 . S
C367 C363 1.495 . S
C367 H373 0.959 . S
C367 H374 0.961 . S
C367 H375 0.960 . S
C368 C366 1.381 . S
C368 C369 1.394 . S
C368 H376 0.930 . S
C369 C368 1.394 . S
C369 C370 1.383 . S
C369 H377 0.929 . S
C370 C369 1.383 . S
C370 C371 1.377 . S
C371 H355 0.930 . S
C371 C370 1.377 . S
C371 C372 1.379 . S
C372 H356 0.931 . S
C372 C366 1.383 . S
C372 C371 1.379 . S
H373 C367 0.959 . S
H374 C367 0.961 . S
H375 C367 0.960 . S
H376 C368 0.930 . S
H377 C369 0.929 . S
H378 C386 0.929 . S
H379 C388 0.930 . S
H380 C390 0.930 . S
H381 C393 0.929 . S
H382 C396 0.930 . S
H383 C398 0.960 . S
H384 C398 0.960 . S
H385 C398 0.960 . S
C386 H378 0.929 . S
C386 C387 1.377 . S
C386 C388 1.384 . S
C387 C386 1.377 . S
C387 C393 1.390 . S
C388 H379 0.930 . S
C388 C386 1.384 . S
C388 C389 1.372 . S
C389 C388 1.372 . S
C389 C390 1.400 . S
C389 C394 1.490 . S
C390 H380 0.930 . S
C390 C389 1.400 . S
C390 C393 1.386 . S
H391 C407 0.930 . S
H392 C408 0.931 . S
C393 H381 0.929 . S
C393 C387 1.390 . S
C393 C390 1.386 . S
C394 C389 1.490 . S
C394 C396 1.395 . S
C394 C397 1.403 . S
H395 C401 0.930 . S
C396 H382 0.930 . S
C396 C394 1.395 . S
C396 C399 1.403 . S
C397 C394 1.403 . S
C397 C398 1.524 . S
C397 C401 1.400 . S
C398 H383 0.960 . S
C398 H384 0.960 . S
C398 H385 0.960 . S
C398 C397 1.524 . S
C399 C396 1.403 . S
C399 C400 1.392 . S
C399 C403 1.495 . S
C400 C399 1.392 . S
C400 C401 1.385 . S
C400 C402 1.478 . S
C401 H395 0.930 . S
C401 C397 1.400 . S
C401 C400 1.385 . S
C402 C400 1.478 . S
C402 C404 1.381 . S
C402 C408 1.383 . S
C403 C399 1.495 . S
C403 H409 0.959 . S
C403 H410 0.961 . S
C403 H411 0.960 . S
C404 C402 1.381 . S
C404 C405 1.394 . S
C404 H412 0.930 . S
C405 C404 1.394 . S
C405 C406 1.383 . S
C405 H413 0.929 . S
C406 C405 1.383 . S
C406 C407 1.377 . S
C407 H391 0.930 . S
C407 C406 1.377 . S
C407 C408 1.379 . S
C408 H392 0.931 . S
C408 C402 1.383 . S
C408 C407 1.379 . S
H409 C403 0.959 . S
H410 C403 0.961 . S
H411 C403 0.960 . S
H412 C404 0.930 . S
H413 C405 0.929 . S
H414 C422 0.929 . S
H415 C424 0.930 . S
H416 C426 0.930 . S
H417 C429 0.929 . S
H418 C432 0.930 . S
H419 C434 0.960 . S
H420 C434 0.960 . S
H421 C434 0.960 . S
C422 H414 0.929 . S
C422 C423 1.377 . S
C422 C424 1.384 . S
C423 C422 1.377 . S
C423 C429 1.390 . S
C424 H415 0.930 . S
C424 C422 1.384 . S
C424 C425 1.372 . S
C425 C424 1.372 . S
C425 C426 1.400 . S
C425 C430 1.490 . S
C426 H416 0.930 . S
C426 C425 1.400 . S
C426 C429 1.386 . S
H427 C443 0.930 . S
H428 C444 0.931 . S
C429 H417 0.929 . S
C429 C423 1.390 . S
C429 C426 1.386 . S
C430 C425 1.490 . S
C430 C432 1.395 . S
C430 C433 1.403 . S
H431 C437 0.930 . S
C432 H418 0.930 . S
C432 C430 1.395 . S
C432 C435 1.403 . S
C433 C430 1.403 . S
C433 C434 1.524 . S
C433 C437 1.400 . S
C434 H419 0.960 . S
C434 H420 0.960 . S
C434 H421 0.960 . S
C434 C433 1.524 . S
C435 C432 1.403 . S
C435 C436 1.392 . S
C435 C439 1.495 . S
C436 C435 1.392 . S
C436 C437 1.385 . S
C436 C438 1.478 . S
C437 H431 0.930 . S
C437 C433 1.400 . S
C437 C436 1.385 . S
C438 C436 1.478 . S
C438 C440 1.381 . S
C438 C444 1.383 . S
C439 C435 1.495 . S
C439 H445 0.959 . S
C439 H446 0.961 . S
C439 H447 0.960 . S
C440 C438 1.381 . S
C440 C441 1.394 . S
C440 H448 0.930 . S
C441 C440 1.394 . S
C441 C442 1.383 . S
C441 H449 0.929 . S
C442 C441 1.383 . S
C442 C443 1.377 . S
C443 H427 0.930 . S
C443 C442 1.377 . S
C443 C444 1.379 . S
C444 H428 0.931 . S
C444 C438 1.383 . S
C444 C443 1.379 . S
H445 C439 0.959 . S
H446 C439 0.961 . S
H447 C439 0.960 . S
H448 C440 0.930 . S
H449 C441 0.929 . S
H450 C458 0.929 . S
H451 C460 0.930 . S
H452 C462 0.930 . S
H453 C465 0.929 . S
H454 C468 0.930 . S
H455 C470 0.960 . S
H456 C470 0.960 . S
H457 C470 0.960 . S
C458 H450 0.929 . S
C458 C459 1.377 . S
C458 C460 1.384 . S
C459 C458 1.377 . S
C459 C465 1.390 . S
C460 H451 0.930 . S
C460 C458 1.384 . S
C460 C461 1.372 . S
C461 C460 1.372 . S
C461 C462 1.400 . S
C461 C466 1.490 . S
C462 H452 0.930 . S
C462 C461 1.400 . S
C462 C465 1.386 . S
H463 C479 0.930 . S
H464 C480 0.931 . S
C465 H453 0.929 . S
C465 C459 1.390 . S
C465 C462 1.386 . S
C466 C461 1.490 . S
C466 C468 1.395 . S
C466 C469 1.403 . S
H467 C473 0.930 . S
C468 H454 0.930 . S
C468 C466 1.395 . S
C468 C471 1.403 . S
C469 C466 1.403 . S
C469 C470 1.524 . S
C469 C473 1.400 . S
C470 H455 0.960 . S
C470 H456 0.960 . S
C470 H457 0.960 . S
C470 C469 1.524 . S
C471 C468 1.403 . S
C471 C472 1.392 . S
C471 C475 1.495 . S
C472 C471 1.392 . S
C472 C473 1.385 . S
C472 C474 1.478 . S
C473 H467 0.930 . S
C473 C469 1.400 . S
C473 C472 1.385 . S
C474 C472 1.478 . S
C474 C476 1.381 . S
C474 C480 1.383 . S
C475 C471 1.495 . S
C475 H481 0.959 . S
C475 H482 0.961 . S
C475 H483 0.960 . S
C476 C474 1.381 . S
C476 C477 1.394 . S
C476 H484 0.930 . S
C477 C476 1.394 . S
C477 C478 1.383 . S
C477 H485 0.929 . S
C478 C477 1.383 . S
C478 C479 1.377 . S
C479 H463 0.930 . S
C479 C478 1.377 . S
C479 C480 1.379 . S
C480 H464 0.931 . S
C480 C474 1.383 . S
C480 C479 1.379 . S
H481 C475 0.959 . S
H482 C475 0.961 . S
H483 C475 0.960 . S
H484 C476 0.930 . S
H485 C477 0.929 . S
H486 C494 0.929 1_554 S
H487 C496 0.930 . S
H488 C498 0.930 . S
H489 C501 0.929 . S
H490 C504 0.930 . S
H491 C506 0.960 . S
H492 C506 0.960 . S
H493 C506 0.960 . S
C494 H486 0.929 1_556 S
C494 C495 1.377 . S
C494 C496 1.384 . S
C495 C494 1.377 . S
C495 C501 1.390 . S
C496 H487 0.930 . S
C496 C494 1.384 . S
C496 C497 1.372 . S
C497 C496 1.372 . S
C497 C498 1.400 . S
C497 C502 1.490 . S
C498 H488 0.930 . S
C498 C497 1.400 . S
C498 C501 1.386 . S
H499 C515 0.930 . S
H500 C516 0.931 . S
C501 H489 0.929 . S
C501 C495 1.390 . S
C501 C498 1.386 . S
C502 C497 1.490 . S
C502 C504 1.395 . S
C502 C505 1.403 . S
H503 C509 0.930 . S
C504 H490 0.930 . S
C504 C502 1.395 . S
C504 C507 1.403 . S
C505 C502 1.403 . S
C505 C506 1.524 . S
C505 C509 1.400 . S
C506 H491 0.960 . S
C506 H492 0.960 . S
C506 H493 0.960 . S
C506 C505 1.524 . S
C507 C504 1.403 . S
C507 C508 1.392 . S
C507 C511 1.495 . S
C508 C507 1.392 . S
C508 C509 1.385 . S
C508 C510 1.478 . S
C509 H503 0.930 . S
C509 C505 1.400 . S
C509 C508 1.385 . S
C510 C508 1.478 . S
C510 C512 1.381 . S
C510 C516 1.383 . S
C511 C507 1.495 . S
C511 H517 0.959 . S
C511 H518 0.961 . S
C511 H519 0.960 . S
C512 C510 1.381 . S
C512 C513 1.394 . S
C512 H520 0.930 . S
C513 C512 1.394 . S
C513 C514 1.383 . S
C513 H521 0.929 . S
C514 C513 1.383 . S
C514 C515 1.377 . S
C515 H499 0.930 . S
C515 C514 1.377 . S
C515 C516 1.379 . S
C516 H500 0.931 . S
C516 C510 1.383 . S
C516 C515 1.379 . S
H517 C511 0.959 . S
H518 C511 0.961 . S
H519 C511 0.960 . S
H520 C512 0.930 . S
H521 C513 0.929 . S
C118 C63 1.205 . S
C99 C40 1.438 . S
C135 C4 1.469 . S
C154 C87 1.320 . S
C171 C16 1.617 . S
C190 C66 1.423 . S
C207 C28 1.616 . S
C226 C84 1.451 . S
C262 C64 1.510 . S
C243 C9 1.512 . S
C298 C86 1.537 . S
C279 C18 1.626 . S
C315 C33 1.600 . S
C334 C65 1.554 . S
C351 C45 1.520 . S
C370 C85 1.494 . S
C406 C83 1.460 . S
C387 C21 1.532 . S
C442 C62 1.511 . S
C423 C30 1.550 . S
C478 C82 1.445 . S
C459 C42 1.462 . S
C495 C6 1.458 1_556 S
C514 C61 1.378 . S
