# Generated by pormake.
# Topology ftw, (4,12)-cn, num edge types: 1
# Building blocks:
#     Node 0, Type 0, BuildingBlock: MUDLON_clean_linker_0, # of connection points: 4
#     Node 1, Type 0, BuildingBlock: MUDLON_clean_linker_0, # of connection points: 4
#     Node 2, Type 0, BuildingBlock: MUDLON_clean_linker_0, # of connection points: 4
#     Node 3, Type 1, BuildingBlock: QEWDON_clean_sbu_0, # of connection points: 12
#     Edge 4, Type (0, 1), BuildingBlock: EZIPEK_clean_linker_0, # of connection points: 2
#     Edge 5, Type (0, 1), BuildingBlock: EZIPEK_clean_linker_0, # of connection points: 2
#     Edge 6, Type (0, 1), BuildingBlock: EZIPEK_clean_linker_0, # of connection points: 2
#     Edge 7, Type (0, 1), BuildingBlock: EZIPEK_clean_linker_0, # of connection points: 2
#     Edge 8, Type (0, 1), BuildingBlock: EZIPEK_clean_linker_0, # of connection points: 2
#     Edge 9, Type (0, 1), BuildingBlock: EZIPEK_clean_linker_0, # of connection points: 2
#     Edge 10, Type (0, 1), BuildingBlock: EZIPEK_clean_linker_0, # of connection points: 2
#     Edge 11, Type (0, 1), BuildingBlock: EZIPEK_clean_linker_0, # of connection points: 2
#     Edge 12, Type (0, 1), BuildingBlock: EZIPEK_clean_linker_0, # of connection points: 2
#     Edge 13, Type (0, 1), BuildingBlock: EZIPEK_clean_linker_0, # of connection points: 2
#     Edge 14, Type (0, 1), BuildingBlock: EZIPEK_clean_linker_0, # of connection points: 2
#     Edge 15, Type (0, 1), BuildingBlock: EZIPEK_clean_linker_0, # of connection points: 2
# Relax obj value: 0.102
# Max RMSD: 0.248
# Mean RMSD: 0.184
data_MOF--net-ftw--node1-QEWDON_clean_sbu_0--node2-MUDLON_clean_linker_0--edge1-EZIPEK_clean_linker_0
_symmetry_space_group_name_H-M    P1
_symmetry_Int_Tables_number       1
_symmetry_cell_setting            triclinic
loop_
_symmetry_equiv_pos_as_xyz
'x, y, z'
_cell_length_a     23.772545
_cell_length_b     27.360997
_cell_length_c     25.970453
_cell_angle_alpha  90.137916
_cell_angle_beta   90.13115
_cell_angle_gamma 90.206781
loop_
_atom_site_label
_atom_site_type_symbol
_atom_site_fract_x
_atom_site_fract_y
_atom_site_fract_z
_atom_type_partial_charge
H0 H 0.93424 0.75916 0.54952 0.0
N1 N 0.0053 0.70139 0.49797 0.0
H2 H 0.94725 0.79409 0.6363 0.0
H3 H 0.10093 0.69847 0.55574 0.0
H4 H 0.11371 0.73253 0.64306 0.0
H5 H 0.10025 0.73999 0.4554 0.0
H6 H 0.10746 0.78208 0.37153 0.0
H7 H 0.92245 0.72017 0.43127 0.0
H8 H 0.92952 0.76159 0.34737 0.0
H9 H 0.92012 0.64309 0.52485 0.0
H10 H 0.09109 0.64088 0.47122 0.0
H11 H 0.91836 0.55375 0.52687 0.0
H12 H 0.08962 0.55114 0.47116 0.0
H13 H 0.05587 0.25255 0.52977 0.0
H14 H 0.05359 0.20738 0.61133 0.0
H15 H 0.93892 0.31366 0.674 0.0
H16 H 0.9383 0.35703 0.59146 0.0
H17 H 0.08151 0.31886 0.44022 0.0
H18 H 0.08064 0.27107 0.35957 0.0
H19 H 0.90567 0.23611 0.38354 0.0
H20 H 0.90676 0.28424 0.46408 0.0
H21 H 0.91117 0.39409 0.47932 0.0
H22 H 0.91471 0.48341 0.47546 0.0
H23 H 0.08912 0.47997 0.52305 0.0
N24 N -0.00535 0.33306 0.50494 0.0
H25 H 0.08507 0.39028 0.52482 0.0
C26 C 0.01652 0.72629 0.54613 0.0
C27 C 0.97394 0.75409 0.56928 0.0
C28 C 0.98135 0.7739 0.61875 0.0
C29 C 0.03146 0.76595 0.64626 0.0
C30 C 0.0748 0.73928 0.62254 0.0
C31 C 0.06755 0.71988 0.57275 0.0
C32 C 0.01067 0.7272 0.44967 0.0
C33 C 0.06283 0.74486 0.43217 0.0
C34 C 0.06689 0.7688 0.38437 0.0
C35 C 0.01896 0.77512 0.35312 0.0
C36 C 0.96698 0.7573 0.37072 0.0
C37 C 0.96292 0.73374 0.41853 0.0
C38 C 0.00546 0.64857 0.49762 0.0
C39 C 0.95716 0.62309 0.51304 0.0
C40 C 0.95624 0.57187 0.51378 0.0
C41 C 0.00373 0.54458 0.4988 0.0
C42 C 0.05237 0.5705 0.48351 0.0
C43 C 0.05326 0.62191 0.48308 0.0
C44 C -0.00298 0.30829 0.55414 0.0
C45 C 0.0302 0.26624 0.56096 0.0
C46 C 0.02916 0.24054 0.60764 0.0
C47 C -0.00376 0.25715 0.64902 0.0
C48 C 0.96472 0.30014 0.64277 0.0
C49 C 0.96443 0.32496 0.59566 0.0
C50 C -0.00588 0.30521 0.45771 0.0
C51 C 0.04306 0.30095 0.42795 0.0
C52 C 0.04255 0.27364 0.38221 0.0
C53 C -0.00687 0.24996 0.3657 0.0
C54 C 0.94423 0.25398 0.3957 0.0
C55 C 0.94476 0.28144 0.44137 0.0
C56 C -0.00221 0.38573 0.50235 0.0
C57 C 0.95014 0.41278 0.48863 0.0
C58 C 0.95226 0.46397 0.48692 0.0
C59 C 0.00218 0.48956 0.49927 0.0
C60 C 0.0501 0.46197 0.51264 0.0
C61 C 0.0479 0.41064 0.51404 0.0
H62 H 0.48455 0.89625 0.27296 0.0
N63 N 0.53447 0.9697 0.32311 0.0
H64 H 0.39771 0.89902 0.22111 0.0
H65 H 0.46853 0.04986 0.30626 0.0
H66 H 0.37994 0.05202 0.25762 0.0
H67 H 0.56862 0.95487 0.2256 0.0
H68 H 0.65831 0.97784 0.18675 0.0
H69 H 0.61899 0.0268 0.36703 0.0
H70 H 0.70843 0.04902 0.32765 0.0
H71 H 0.54459 0.8935 0.38577 0.0
H72 H 0.51098 0.04798 0.38534 0.0
H73 H 0.5344 0.89192 0.47932 0.0
H74 H 0.49769 0.04666 0.47851 0.0
H75 H 0.46821 0.89227 0.77706 0.0
H76 H 0.38894 0.90326 0.83649 0.0
H77 H 0.35338 0.04297 0.76734 0.0
H78 H 0.4338 0.03228 0.70862 0.0
H79 H 0.53511 0.04342 0.75081 0.0
H80 H 0.62112 0.06162 0.80047 0.0
H81 H 0.68093 0.91555 0.77151 0.0
H82 H 0.59481 0.89731 0.72234 0.0
H83 H 0.46766 0.89063 0.64034 0.0
H84 H 0.46967 0.89587 0.54649 0.0
H85 H 0.54412 0.03999 0.558 0.0
N86 N 0.50681 0.95521 0.70806 0.0
H87 H 0.53843 0.03539 0.65167 0.0
C88 C 0.48264 0.97256 0.29408 0.0
C89 C 0.46178 0.93032 0.26976 0.0
C90 C 0.41228 0.93186 0.24043 0.0
C91 C 0.38173 0.97551 0.23621 0.0
C92 C 0.4024 0.01779 0.26091 0.0
C93 C 0.45281 0.01652 0.28899 0.0
C94 C 0.58518 0.9894 0.29934 0.0
C95 C 0.59796 0.97642 0.24815 0.0
C96 C 0.64945 0.98931 0.22584 0.0
C97 C 0.69007 0.01509 0.25427 0.0
C98 C 0.67746 0.02936 0.30492 0.0
C99 C 0.62579 0.01657 0.32734 0.0
C100 C 0.52836 0.97059 0.37848 0.0
C101 C 0.53453 0.92701 0.40597 0.0
C102 C 0.52804 0.92621 0.45947 0.0
C103 C 0.51463 0.96913 0.48691 0.0
C104 C 0.5084 0.01293 0.45907 0.0
C105 C 0.51521 0.01367 0.40548 0.0
C106 C 0.45649 0.96113 0.73828 0.0
C107 C 0.4428 0.92493 0.77432 0.0
C108 C 0.39777 0.93123 0.80815 0.0
C109 C 0.36515 0.97381 0.80622 0.0
C110 C 0.37791 0.00974 0.76927 0.0
C111 C 0.42355 0.00362 0.73573 0.0
C112 C 0.55867 0.96875 0.73324 0.0
C113 C 0.56698 0.01553 0.75471 0.0
C114 C 0.61595 0.02597 0.78283 0.0
C115 C 0.65715 0.98987 0.78945 0.0
C116 C 0.64962 0.94384 0.76654 0.0
C117 C 0.60072 0.93342 0.73867 0.0
C118 C 0.50337 0.96216 0.65307 0.0
C119 C 0.48349 0.92362 0.62243 0.0
C120 C 0.48543 0.92652 0.56873 0.0
C121 C 0.50811 0.968 0.54422 0.0
C122 C 0.52604 0.00754 0.57517 0.0
C123 C 0.52321 0.00486 0.62901 0.0
H124 H 0.39567 0.24545 0.1142 0.0
N125 N 0.46979 0.29827 0.0632 0.0
H126 H 0.30016 0.22298 0.08702 0.0
H127 H 0.42141 0.31863 0.96924 0.0
H128 H 0.3239 0.30167 0.94485 0.0
H129 H 0.51754 0.22221 0.10811 0.0
H130 H 0.60702 0.18354 0.08442 0.0
H131 H 0.52796 0.31378 0.9735 0.0
H132 H 0.61871 0.27729 0.9516 0.0
H133 H 0.4884 0.3334 0.15727 0.0
H134 H 0.47393 0.37749 0.99836 0.0
H135 H 0.51159 0.41823 0.18124 0.0
H136 H 0.49549 0.46065 0.02181 0.0
H137 H 0.50923 0.72875 0.18006 0.0
H138 H 0.42806 0.77793 0.15253 0.0
H139 H 0.39771 0.67767 0.02714 0.0
H140 H 0.47875 0.62895 0.05386 0.0
H141 H 0.57091 0.67008 0.03309 0.0
H142 H 0.65414 0.71097 0.99884 0.0
H143 H 0.72461 0.71969 0.15175 0.0
H144 H 0.64115 0.6777 0.1864 0.0
H145 H 0.48819 0.5911 0.19439 0.0
H146 H 0.46781 0.50388 0.18164 0.0
H147 H 0.58247 0.50121 0.05305 0.0
N148 N 0.55004 0.6492 0.13477 0.0
H149 H 0.60197 0.58662 0.0646 0.0
C150 C 0.41504 0.28482 0.04464 0.0
C151 C 0.38043 0.2572 0.07691 0.0
C152 C 0.32612 0.24472 0.06152 0.0
C153 C 0.30507 0.2608 0.01398 0.0
C154 C 0.33953 0.28885 0.98162 0.0
C155 C 0.39493 0.29931 0.99605 0.0
C156 C 0.51693 0.27157 0.04346 0.0
C157 C 0.5387 0.2334 0.07316 0.0
C158 C 0.58943 0.21146 0.05969 0.0
C159 C 0.61934 0.22811 0.01667 0.0
C160 C 0.59605 0.26427 0.98505 0.0
C161 C 0.54454 0.28537 0.99789 0.0
C162 C 0.47937 0.34874 0.0762 0.0
C163 C 0.48957 0.36129 0.12776 0.0
C164 C 0.50263 0.40951 0.14134 0.0
C165 C 0.50598 0.44568 0.10321 0.0
C166 C 0.49424 0.43325 0.05185 0.0
C167 C 0.48128 0.38534 0.03843 0.0
C168 C 0.49969 0.67492 0.11971 0.0
C169 C 0.48475 0.71723 0.14694 0.0
C170 C 0.43903 0.74533 0.13109 0.0
C171 C 0.40761 0.73126 0.08779 0.0
C172 C 0.42192 0.6889 0.06055 0.0
C173 C 0.4678 0.66097 0.07617 0.0
C174 C 0.59974 0.67109 0.11272 0.0
C175 C 0.60412 0.68051 0.05945 0.0
C176 C 0.65176 0.70335 0.0397 0.0
C177 C 0.69505 0.71811 0.07291 0.0
C178 C 0.69141 0.70815 0.12574 0.0
C179 C 0.64402 0.68456 0.14545 0.0
C180 C 0.54563 0.59651 0.13027 0.0
C181 C 0.50944 0.57146 0.16389 0.0
C182 C 0.49795 0.52176 0.15671 0.0
C183 C 0.52282 0.49629 0.11576 0.0
C184 C 0.56165 0.52042 0.08414 0.0
C185 C 0.57284 0.56987 0.09102 0.0
Zn186 Zn 0.07942 0.04889 0.988 0.0
Zn187 Zn 0.08751 0.0856 0.10409 0.0
O188 O 0.04999 0.03362 0.06198 0.0
H189 H 0.0388 0.00241 0.07596 0.0
C190 C 0.9738 0.14626 0.83986 0.0
O191 O 0.94142 0.10726 0.83897 0.0
Zn192 Zn 0.94059 0.92287 0.08541 0.0
Zn193 Zn 0.93836 0.91759 0.96074 0.0
O194 O 0.96499 0.95896 0.02186 0.0
H195 H 0.96376 0.99412 0.01909 0.0
Zn196 Zn 0.95462 0.12927 0.94936 0.0
O197 O -0.00657 0.10956 0.01846 0.0
Zn198 Zn 0.9353 0.10805 0.07547 0.0
H199 H 0.97916 0.11835 0.9849 0.0
Zn200 Zn 0.10836 0.85661 0.963 0.0
O201 O 0.07504 0.90862 1.01299 0.0
H202 H 0.08673 0.8854 0.98711 0.0
Zn203 Zn 0.12623 0.91181 0.07672 0.0
C204 C 0.04519 0.83146 0.86078 0.0
O205 O -0.00099 0.82963 0.88842 0.0
O206 O 0.10145 0.1208 0.97823 0.0
O207 O 0.11245 0.14226 0.05972 0.0
O208 O 0.90252 0.85211 0.98138 0.0
O209 O 0.88886 0.86841 0.0645 0.0
O210 O 0.87296 0.15127 0.96026 0.0
O211 O 0.86483 0.13922 0.04478 0.0
C212 C 0.17313 0.01115 0.12618 0.0
O213 O 0.18357 0.8305 0.99161 0.0
O214 O 0.19839 0.87613 0.06214 0.0
O215 O 0.88076 0.94828 0.90998 0.0
C216 C 0.11464 0.15256 1.01192 0.0
O217 O 0.13667 0.00859 0.94283 0.0
C218 C 0.8884 0.01188 0.13415 0.0
O219 O -0.00869 0.16216 0.88327 0.0
C220 C 0.88033 0.8423 0.02463 0.0
O221 O 0.09152 0.84314 0.88258 0.0
C222 C -0.00016 0.14236 0.17216 0.0
O223 O 0.15868 0.05549 0.13308 0.0
O224 O 0.13993 0.98295 0.10085 0.0
C225 C 0.84472 0.15321 1.00173 0.0
O226 O 0.89464 0.96576 0.13162 0.0
O227 O 0.91508 0.03845 0.10143 0.0
C228 C 0.04316 0.87234 0.15403 0.0
O229 O 0.96002 0.14602 0.13931 0.0
O230 O 0.044 0.11696 0.16389 0.0
C231 C 0.21392 0.84382 0.02971 0.0
O232 O 0.09355 0.87484 0.13797 0.0
O233 O 0.00374 0.89171 0.12775 0.0
C234 C 0.85581 0.98886 0.91598 0.0
O235 O 0.87084 0.01833 0.95362 0.0
C236 C 0.18769 0.00465 0.95718 0.0
O237 O 0.20101 0.01608 1.00472 0.0
C238 C -0.00456 0.17023 0.31637 0.0
C239 C -0.00763 0.22208 0.31614 0.0
C240 C -0.00422 0.22181 0.22153 0.0
C241 C -0.00451 0.16985 0.22164 0.0
N242 N 0.98405 0.0945 0.26838 0.0
N243 N 0.97918 0.29691 0.26898 0.0
C244 C -0.00776 0.144 0.2689 0.0
C245 C -0.01057 0.24776 0.26879 0.0
N246 N 0.00314 0.14611 0.36186 0.0
N247 N 0.00457 0.24646 0.17652 0.0
H248 H 0.97481 0.31724 0.30276 0.0
H249 H 0.97026 0.31683 0.23586 0.0
H250 H 0.00902 0.22896 0.14109 0.0
H251 H 0.012 0.28394 0.17473 0.0
H252 H 0.01205 0.10895 0.36416 0.0
H253 H 0.00488 0.16397 0.39737 0.0
H254 H 0.97525 0.07412 0.30121 0.0
H255 H 0.98103 0.0742 0.23441 0.0
C256 C 0.79315 0.9945 0.24647 0.0
C257 C 0.74697 0.02421 0.23164 0.0
C258 C 0.80719 0.06481 0.16752 0.0
C259 C 0.84948 0.02957 0.17627 0.0
N260 N 0.89342 0.97893 0.23965 0.0
N261 N 0.71051 0.09067 0.18094 0.0
C262 C 0.84572 0.00033 0.22112 0.0
C263 C 0.75433 0.06068 0.19328 0.0
N264 N 0.78581 0.95829 0.28203 0.0
N265 N 0.82005 0.10475 0.1391 0.0
H266 H 0.67261 0.09049 0.20114 0.0
H267 H 0.71074 0.11426 0.14955 0.0
H268 H 0.86181 0.11173 0.13041 0.0
H269 H 0.79292 0.13383 0.13241 0.0
H270 H 0.8159 0.9317 0.28969 0.0
H271 H 0.74804 0.95248 0.30143 0.0
H272 H 0.89546 0.96022 0.27446 0.0
H273 H 0.93248 0.98501 0.22245 0.0
C274 C 0.03611 0.77221 0.25687 0.0
C275 C 0.02308 0.79991 0.30165 0.0
C276 C 0.02198 0.87511 0.24943 0.0
C277 C 0.03183 0.84711 0.20418 0.0
N278 N 0.04034 0.76847 0.16331 0.0
N279 N -0.00494 0.87644 0.33964 0.0
C280 C 0.0367 0.79544 0.20756 0.0
C281 C 0.01334 0.85099 0.29756 0.0
N282 N 0.04908 0.72377 0.26168 0.0
N283 N 0.02362 0.925 0.24688 0.0
H284 H -0.00973 0.86055 0.37585 0.0
H285 H 0.98073 0.91232 0.33795 0.0
H286 H 0.02903 0.94398 0.21244 0.0
H287 H 0.02353 0.94764 0.27914 0.0
H288 H 0.06525 0.70262 0.23187 0.0
H289 H 0.04719 0.70521 0.29668 0.0
H290 H 0.03815 0.73049 0.16225 0.0
H291 H 0.04093 0.78432 0.1268 0.0
C292 C 0.32998 0.0076 0.15901 0.0
C293 C 0.32959 0.97813 0.2038 0.0
C294 C 0.22886 0.96034 0.18967 0.0
C295 C 0.22787 0.99481 0.14875 0.0
N296 N 0.2769 0.05592 0.09836 0.0
N297 N 0.27856 0.92793 0.26405 0.0
C298 C 0.27836 0.01952 0.13436 0.0
C299 C 0.27921 0.95406 0.21921 0.0
N300 N 0.38015 0.02329 0.13919 0.0
N301 N 0.18095 0.93527 0.20189 0.0
H302 H 0.31402 0.92321 0.28714 0.0
H303 H 0.24235 0.91347 0.28056 0.0
H304 H 0.14192 0.94347 0.18596 0.0
H305 H 0.18002 0.90506 0.22615 0.0
H306 H 0.38391 0.04064 0.10371 0.0
H307 H 0.41891 0.01464 0.15567 0.0
H308 H 0.31036 0.07974 0.09171 0.0
H309 H 0.24105 0.06499 0.07746 0.0
C310 C 0.06329 0.82787 0.71332 0.0
C311 C 0.03679 0.78261 0.70121 0.0
C312 C 0.02308 0.76701 0.7937 0.0
C313 C 0.04415 0.81447 0.8057 0.0
N314 N 0.07873 0.8925 0.7763 0.0
N315 N 0.98533 0.71145 0.72926 0.0
C316 C 0.0632 0.84545 0.76532 0.0
C317 C 0.01481 0.75297 0.74127 0.0
N318 N 0.08898 0.85388 0.67509 0.0
N319 N 0.01389 0.73415 0.83241 0.0
H320 H 0.98066 0.69845 0.6917 0.0
H321 H 0.96206 0.69173 0.7561 0.0
H322 H 0.02146 0.74208 0.8711 0.0
H323 H 0.00438 0.69746 0.826 0.0
H324 H 0.11458 0.88418 0.68187 0.0
H325 H 0.08798 0.8431 0.63654 0.0
H326 H 0.08722 0.91864 0.74831 0.0
H327 H 0.07889 0.90678 0.81356 0.0
C328 C 0.27075 0.95132 0.84422 0.0
C329 C 0.31941 0.9816 0.84468 0.0
C330 C 0.27885 0.02981 0.91505 0.0
C331 C 0.23305 0.99629 0.91847 0.0
N332 N 0.19168 0.91957 0.89245 0.0
N333 N 0.37533 0.04276 0.88842 0.0
C334 C 0.23068 0.9555 0.88468 0.0
C335 C 0.32515 0.01879 0.88251 0.0
N336 N 0.26179 0.91962 0.80427 0.0
N337 N 0.27705 0.07352 0.94062 0.0
H338 H 0.41056 0.03536 0.86589 0.0
H339 H 0.3837 0.06645 0.91899 0.0
H340 H 0.24228 0.08517 0.96167 0.0
H341 H 0.30749 0.10065 0.93631 0.0
H342 H 0.22424 0.90044 0.79912 0.0
H343 H 0.28977 0.91589 0.77364 0.0
H344 H 0.19235 0.88632 0.87286 0.0
H345 H 0.16216 0.92106 0.922 0.0
C346 C 0.93859 0.20963 0.71332 0.0
C347 C -0.00823 0.22818 0.69783 0.0
C348 C 0.03498 0.18832 0.77301 0.0
C349 C 0.98081 0.1756 0.79175 0.0
N350 N 0.88002 0.18532 0.78474 0.0
N351 N 0.08967 0.24223 0.71837 0.0
C352 C 0.93229 0.18944 0.76331 0.0
C353 C 0.03983 0.21956 0.72926 0.0
N354 N 0.89435 0.20939 0.67961 0.0
N355 N 0.08173 0.16871 0.79533 0.0
H356 H 0.09461 0.26612 0.68748 0.0
H357 H 0.12449 0.24091 0.74276 0.0
H358 H 0.0793 0.14376 0.82551 0.0
H359 H 0.12209 0.17304 0.78042 0.0
H360 H 0.85633 0.19183 0.68737 0.0
H361 H 0.89758 0.22187 0.64181 0.0
H362 H 0.84394 0.19932 0.76741 0.0
H363 H 0.87336 0.17305 0.82223 0.0
C364 C 0.70201 0.98888 0.87691 0.0
C365 C 0.70661 -0.00159 0.8234 0.0
C366 C 0.80885 0.00808 0.83183 0.0
C367 C 0.80435 -0.00165 0.88532 0.0
N368 N 0.74646 0.9889 0.96101 0.0
N369 N 0.76103 0.02711 0.75152 0.0
C370 C 0.75078 0.99199 0.9086 0.0
C371 C 0.7591 0.01132 0.8014 0.0
N372 N 0.65143 0.97447 0.89696 0.0
N373 N 0.86086 0.01286 0.81 0.0
H374 H 0.72525 0.02944 0.72832 0.0
H375 H 0.7969 0.0416 0.73436 0.0
H376 H 0.89794 0.01289 0.83156 0.0
H377 H 0.8677 0.0144 0.77047 0.0
H378 H 0.64652 0.96075 0.93402 0.0
H379 H 0.61433 0.97336 0.87545 0.0
H380 H 0.70839 0.99027 0.98066 0.0
H381 H 0.7811 0.98859 0.98562 0.0
C382 C 0.23467 0.21628 0.95781 0.0
C383 C 0.24639 0.24819 0.99974 0.0
C384 C 0.15108 0.23631 0.03271 0.0
C385 C 0.144 0.19833 0.99623 0.0
N386 N 0.16112 0.17693 0.90791 0.0
N387 N 0.20996 0.30292 0.06427 0.0
C388 C 0.17975 0.19679 0.95298 0.0
C389 C 0.20219 0.26339 0.03278 0.0
N390 N 0.27617 0.20162 0.925 0.0
N391 N 0.1096 0.24476 0.0678 0.0
H392 H 0.24694 0.32361 0.06366 0.0
H393 H 0.1788 0.31744 0.08778 0.0
H394 H 0.07054 0.22736 0.0648 0.0
H395 H 0.11357 0.2683 0.09913 0.0
H396 H 0.26985 0.17519 0.89661 0.0
H397 H 0.31785 0.21295 0.92823 0.0
H398 H 0.18455 0.17736 0.87405 0.0
H399 H 0.11917 0.16666 0.90317 0.0
C400 C 0.36495 0.80013 0.03786 0.0
C401 C 0.35813 0.76004 0.07195 0.0
C402 C 0.25636 0.77244 0.07357 0.0
C403 C 0.26365 0.8146 0.04253 0.0
N404 N 0.32337 0.87209 0.99857 0.0
N405 N 0.29974 0.71084 0.12738 0.0
C406 C 0.31757 0.82947 0.02553 0.0
C407 C 0.30443 0.74688 0.09116 0.0
N408 N 0.41649 0.80932 0.0166 0.0
N409 N 0.20332 0.75643 0.08546 0.0
H410 H 0.33386 0.69032 0.14025 0.0
H411 H 0.2629 0.70335 0.1475 0.0
H412 H 0.16689 0.77503 0.07481 0.0
H413 H 0.19486 0.72294 0.10277 0.0
H414 H 0.42332 0.83471 0.9875 0.0
H415 H 0.45232 0.7892 0.02579 0.0
H416 H 0.36198 0.88789 0.98956 0.0
H417 H 0.28912 0.89349 0.98761 0.0
C418 C 0.68985 0.17512 0.97165 0.0
C419 C 0.6779 0.21176 1.00867 0.0
C420 C 0.77736 0.21614 0.03292 0.0
C421 C 0.788 0.17506 1.00106 0.0
N422 N 0.75466 0.11289 0.94222 0.0
N423 N 0.70861 0.26636 0.07644 0.0
C424 C 0.74451 0.15418 0.9704 0.0
C425 C 0.72124 0.23211 0.0398 0.0
N426 N 0.64889 0.16038 0.9379 0.0
N427 N 0.8213 0.24129 0.05467 0.0
H428 H 0.66885 0.28192 0.0803 0.0
H429 H 0.73671 0.27745 0.10501 0.0
H430 H 0.86328 0.23167 0.04917 0.0
H431 H 0.81682 0.27444 0.07395 0.0
H432 H 0.65637 0.13797 0.90622 0.0
H433 H 0.60777 0.17346 0.9393 0.0
H434 H 0.72348 0.09323 0.92303 0.0
H435 H 0.79383 0.096 0.94079 0.0
C436 C 0.73284 0.79718 0.03979 0.0
C437 C 0.74227 0.74761 0.05308 0.0
C438 C 0.84356 0.7579 0.04009 0.0
C439 C 0.83374 0.80715 0.02651 0.0
N440 N 0.7696 0.87028 0.99961 0.0
N441 N 0.80333 0.67749 0.05492 0.0
C442 C 0.77841 0.82556 0.0216 0.0
C443 C 0.79675 0.72684 0.04969 0.0
N444 N 0.68125 0.81797 0.04745 0.0
N445 N 0.89748 0.74148 0.04532 0.0
H446 H 0.76962 0.65388 0.06183 0.0
H447 H 0.84113 0.65949 0.04827 0.0
H448 H 0.9324 0.76309 0.03645 0.0
H449 H 0.90772 0.70755 0.06071 0.0
H450 H 0.67385 0.85531 0.04409 0.0
H451 H 0.64657 0.79875 0.06143 0.0
H452 H 0.72984 0.88343 0.99013 0.0
H453 H 0.8023 0.89233 0.98619 0.0
loop_
_geom_bond_atom_site_label_1
_geom_bond_atom_site_label_2
_geom_bond_distance
_geom_bond_site_symmetry_2
_ccdc_geom_bond_type
H0 C27 0.929 . S
N1 C26 1.433 . S
N1 C32 1.435 . S
N1 C38 1.423 1_455 S
H2 C28 0.930 . S
H3 C31 0.931 . S
H4 C30 0.929 . S
H5 C33 0.930 . S
H6 C34 0.932 . S
H7 C37 0.929 . S
H8 C36 0.931 . S
H9 C39 0.929 . S
H10 C43 0.932 . S
H11 C40 0.931 . S
H12 C42 0.929 . S
H13 C45 0.929 . S
H14 C46 0.930 . S
H15 C48 0.929 . S
H16 C49 0.931 . S
H17 C51 0.930 . S
H18 C52 0.932 . S
H19 C54 0.931 . S
H20 C55 0.929 . S
H21 C57 0.929 . S
H22 C58 0.931 . S
H23 C60 0.929 . S
N24 C44 1.433 . S
N24 C50 1.435 . S
N24 C56 1.423 1_455 S
H25 C61 0.932 . S
C26 N1 1.433 . S
C26 C27 1.363 1_455 S
C26 C31 1.370 . S
C27 H0 0.929 . S
C27 C26 1.363 1_655 S
C27 C28 1.385 . S
C28 H2 0.930 . S
C28 C27 1.385 . S
C28 C29 1.357 1_655 S
C29 C28 1.357 1_455 S
C29 C30 1.406 . S
C30 H4 0.929 . S
C30 C29 1.406 . S
C30 C31 1.391 . S
C31 H3 0.931 . S
C31 C26 1.370 . S
C31 C30 1.391 . S
C32 N1 1.435 . S
C32 C33 1.358 . S
C32 C37 1.371 1_455 S
C33 H5 0.930 . S
C33 C32 1.358 . S
C33 C34 1.405 . S
C34 H6 0.932 . S
C34 C33 1.405 . S
C34 C35 1.383 . S
C35 C34 1.383 . S
C35 C36 1.393 1_455 S
C36 H8 0.931 . S
C36 C35 1.393 1_655 S
C36 C37 1.382 . S
C37 H7 0.929 . S
C37 C32 1.371 1_655 S
C37 C36 1.382 . S
C38 N1 1.423 1_655 S
C38 C39 1.362 . S
C38 C43 1.388 1_655 S
C39 H9 0.929 . S
C39 C38 1.362 . S
C39 C40 1.376 . S
C40 H11 0.931 . S
C40 C39 1.376 . S
C40 C41 1.396 . S
C41 C40 1.396 . S
C41 C42 1.348 1_655 S
C41 C59 1.472 . S
C42 H12 0.929 . S
C42 C41 1.348 1_455 S
C42 C43 1.443 . S
C43 H10 0.932 . S
C43 C38 1.388 1_455 S
C43 C42 1.443 . S
C44 N24 1.433 . S
C44 C45 1.363 1_455 S
C44 C49 1.370 . S
C45 H13 0.929 . S
C45 C44 1.363 1_655 S
C45 C46 1.385 . S
C46 H14 0.930 . S
C46 C45 1.385 . S
C46 C47 1.357 1_655 S
C47 C46 1.357 1_455 S
C47 C48 1.406 . S
C48 H15 0.929 . S
C48 C47 1.406 . S
C48 C49 1.391 . S
C49 H16 0.931 . S
C49 C44 1.370 . S
C49 C48 1.391 . S
C50 N24 1.435 . S
C50 C51 1.358 . S
C50 C55 1.371 1_455 S
C51 H17 0.930 . S
C51 C50 1.358 . S
C51 C52 1.405 . S
C52 H18 0.932 . S
C52 C51 1.405 . S
C52 C53 1.383 . S
C53 C52 1.383 . S
C53 C54 1.393 1_455 S
C54 H19 0.931 . S
C54 C53 1.393 1_655 S
C54 C55 1.382 . S
C55 H20 0.929 . S
C55 C50 1.371 1_655 S
C55 C54 1.382 . S
C56 N24 1.423 1_655 S
C56 C57 1.362 . S
C56 C61 1.388 1_655 S
C57 H21 0.929 . S
C57 C56 1.362 . S
C57 C58 1.376 . S
C58 H22 0.931 . S
C58 C57 1.376 . S
C58 C59 1.396 . S
C59 C41 1.472 . S
C59 C58 1.396 . S
C59 C60 1.348 1_655 S
C60 H23 0.929 . S
C60 C59 1.348 1_455 S
C60 C61 1.443 . S
C61 H25 0.932 . S
C61 C56 1.388 1_455 S
C61 C60 1.443 . S
H62 C89 0.929 . S
N63 C88 1.433 . S
N63 C94 1.435 . S
N63 C100 1.423 . S
H64 C90 0.930 . S
H65 C93 0.931 . S
H66 C92 0.929 . S
H67 C95 0.930 . S
H68 C96 0.932 . S
H69 C99 0.929 . S
H70 C98 0.931 . S
H71 C101 0.929 . S
H72 C105 0.932 1_545 S
H73 C102 0.931 . S
H74 C104 0.929 1_545 S
H75 C107 0.929 . S
H76 C108 0.930 . S
H77 C110 0.929 . S
H78 C111 0.931 . S
H79 C113 0.930 . S
H80 C114 0.932 . S
H81 C116 0.931 . S
H82 C117 0.929 . S
H83 C119 0.929 . S
H84 C120 0.931 . S
H85 C122 0.929 1_545 S
N86 C106 1.433 . S
N86 C112 1.435 . S
N86 C118 1.423 . S
H87 C123 0.932 1_545 S
C88 N63 1.433 . S
C88 C89 1.363 . S
C88 C93 1.370 1_565 S
C89 H62 0.929 . S
C89 C88 1.363 . S
C89 C90 1.385 . S
C90 H64 0.930 . S
C90 C89 1.385 . S
C90 C91 1.357 . S
C91 C90 1.357 . S
C91 C92 1.406 1_565 S
C92 H66 0.929 . S
C92 C91 1.406 1_545 S
C92 C93 1.391 . S
C93 H65 0.931 . S
C93 C88 1.370 1_545 S
C93 C92 1.391 . S
C94 N63 1.435 . S
C94 C95 1.358 1_565 S
C94 C99 1.371 . S
C95 H67 0.930 . S
C95 C94 1.358 1_545 S
C95 C96 1.405 . S
C96 H68 0.932 . S
C96 C95 1.405 . S
C96 C97 1.371 1_545 S
C97 C96 1.371 1_565 S
C97 C98 1.408 . S
C98 H70 0.931 . S
C98 C97 1.408 . S
C98 C99 1.382 . S
C99 H69 0.929 . S
C99 C94 1.371 . S
C99 C98 1.382 . S
C100 N63 1.423 . S
C100 C101 1.362 . S
C100 C105 1.388 . S
C101 H71 0.929 . S
C101 C100 1.362 . S
C101 C102 1.376 . S
C102 H73 0.931 . S
C102 C101 1.376 . S
C102 C103 1.396 . S
C103 C102 1.396 . S
C103 C104 1.348 . S
C103 C121 1.472 . S
C104 H74 0.929 1_565 S
C104 C103 1.348 . S
C104 C105 1.443 . S
C105 H72 0.932 1_565 S
C105 C100 1.388 . S
C105 C104 1.443 . S
C106 N86 1.433 . S
C106 C107 1.363 . S
C106 C111 1.370 1_565 S
C107 H75 0.929 . S
C107 C106 1.363 . S
C107 C108 1.385 . S
C108 H76 0.930 . S
C108 C107 1.385 . S
C108 C109 1.357 . S
C109 C108 1.357 . S
C109 C110 1.406 1_565 S
C110 H77 0.929 . S
C110 C109 1.406 1_545 S
C110 C111 1.391 . S
C111 H78 0.931 . S
C111 C106 1.370 1_545 S
C111 C110 1.391 . S
C112 N86 1.435 . S
C112 C113 1.358 1_565 S
C112 C117 1.371 . S
C113 H79 0.930 . S
C113 C112 1.358 1_545 S
C113 C114 1.405 . S
C114 H80 0.932 . S
C114 C113 1.405 . S
C114 C115 1.372 1_545 S
C115 C114 1.372 1_565 S
C115 C116 1.408 . S
C116 H81 0.931 . S
C116 C115 1.408 . S
C116 C117 1.382 . S
C117 H82 0.929 . S
C117 C112 1.371 . S
C117 C116 1.382 . S
C118 N86 1.423 . S
C118 C119 1.362 . S
C118 C123 1.388 . S
C119 H83 0.929 . S
C119 C118 1.362 . S
C119 C120 1.376 . S
C120 H84 0.931 . S
C120 C119 1.376 . S
C120 C121 1.396 . S
C121 C103 1.472 . S
C121 C120 1.396 . S
C121 C122 1.348 . S
C122 H85 0.929 1_565 S
C122 C121 1.348 . S
C122 C123 1.443 . S
C123 H87 0.932 1_565 S
C123 C118 1.388 . S
C123 C122 1.443 . S
H124 C151 0.929 . S
N125 C150 1.433 . S
N125 C156 1.435 . S
N125 C162 1.423 . S
H126 C152 0.930 . S
H127 C155 0.925 1_556 S
H128 C154 0.929 . S
H129 C157 0.930 . S
H130 C158 0.932 . S
H131 C161 0.929 . S
H132 C160 0.931 . S
H133 C163 0.929 . S
H134 C167 0.932 1_556 S
H135 C164 0.931 . S
H136 C166 0.929 . S
H137 C169 0.929 . S
H138 C170 0.930 . S
H139 C172 0.929 . S
H140 C173 0.925 1_556 S
H141 C175 0.930 . S
H142 C176 0.932 . S
H143 C178 0.931 . S
H144 C179 0.929 . S
H145 C181 0.929 . S
H146 C182 0.931 . S
H147 C184 0.929 . S
N148 C168 1.433 . S
N148 C174 1.435 . S
N148 C180 1.423 . S
H149 C185 0.932 1_556 S
C150 N125 1.433 . S
C150 C151 1.363 . S
C150 C155 1.378 . S
C151 H124 0.929 . S
C151 C150 1.363 . S
C151 C152 1.385 . S
C152 H126 0.930 . S
C152 C151 1.385 . S
C152 C153 1.357 . S
C153 C152 1.357 . S
C153 C154 1.406 1_554 S
C154 H128 0.929 . S
C154 C153 1.406 1_556 S
C154 C155 1.390 1_556 S
C155 H127 0.925 1_554 S
C155 C150 1.378 . S
C155 C154 1.390 1_554 S
C156 N125 1.435 . S
C156 C157 1.358 1_554 S
C156 C161 1.371 . S
C157 H129 0.930 . S
C157 C156 1.358 1_556 S
C157 C158 1.405 . S
C158 H130 0.932 . S
C158 C157 1.405 . S
C158 C159 1.383 1_556 S
C159 C158 1.383 1_554 S
C159 C160 1.393 . S
C160 H132 0.931 . S
C160 C159 1.393 . S
C160 C161 1.382 . S
C161 H131 0.929 . S
C161 C156 1.371 . S
C161 C160 1.382 . S
C162 N125 1.423 . S
C162 C163 1.362 . S
C162 C167 1.388 . S
C163 H133 0.929 . S
C163 C162 1.362 . S
C163 C164 1.376 . S
C164 H135 0.931 . S
C164 C163 1.376 . S
C164 C165 1.396 . S
C165 C164 1.396 . S
C165 C166 1.348 . S
C165 C183 1.472 . S
C166 H136 0.929 . S
C166 C165 1.348 . S
C166 C167 1.443 . S
C167 H134 0.932 1_554 S
C167 C162 1.388 . S
C167 C166 1.443 . S
C168 N148 1.433 . S
C168 C169 1.363 . S
C168 C173 1.378 . S
C169 H137 0.929 . S
C169 C168 1.363 . S
C169 C170 1.385 . S
C170 H138 0.930 . S
C170 C169 1.385 . S
C170 C171 1.357 . S
C171 C170 1.357 . S
C171 C172 1.406 1_554 S
C172 H139 0.929 . S
C172 C171 1.406 1_556 S
C172 C173 1.390 1_556 S
C173 H140 0.925 1_554 S
C173 C168 1.378 . S
C173 C172 1.390 1_554 S
C174 N148 1.435 . S
C174 C175 1.358 1_554 S
C174 C179 1.371 . S
C175 H141 0.930 . S
C175 C174 1.358 1_556 S
C175 C176 1.405 . S
C176 H142 0.932 . S
C176 C175 1.405 . S
C176 C177 1.383 1_556 S
C177 C176 1.383 1_554 S
C177 C178 1.393 . S
C178 H143 0.931 . S
C178 C177 1.393 . S
C178 C179 1.382 . S
C179 H144 0.929 . S
C179 C174 1.371 . S
C179 C178 1.382 . S
C180 N148 1.423 . S
C180 C181 1.362 . S
C180 C185 1.388 . S
C181 H145 0.929 . S
C181 C180 1.362 . S
C181 C182 1.376 . S
C182 H146 0.931 . S
C182 C181 1.376 . S
C182 C183 1.396 . S
C183 C165 1.472 . S
C183 C182 1.396 . S
C183 C184 1.348 . S
C184 H147 0.929 . S
C184 C183 1.348 . S
C184 C185 1.443 . S
C185 H149 0.932 1_554 S
C185 C180 1.388 . S
C185 C184 1.443 . S
Zn186 O188 1.933 1_556 S
Zn186 O206 1.985 . S
Zn186 O217 1.955 . S
Zn187 O188 1.911 . S
Zn187 O207 1.970 . S
Zn187 O223 1.945 . S
Zn187 O230 1.981 . S
O188 Zn186 1.933 1_554 S
O188 Zn187 1.911 . S
O188 H189 0.841 . S
H189 O188 0.841 . S
C190 O191 1.246 . S
C190 O219 1.276 1_455 S
O191 C190 1.246 . S
Zn192 O194 1.911 . S
Zn192 O209 1.970 . S
Zn192 O226 1.945 . S
Zn192 O233 1.981 1_655 S
Zn193 O194 1.933 1_556 S
Zn193 O208 1.985 . S
Zn193 O215 1.955 . S
O194 Zn192 1.911 . S
O194 Zn193 1.933 1_554 S
O194 H195 0.841 . S
H195 O194 0.841 . S
Zn196 O197 1.933 1_556 S
Zn196 O210 1.985 . S
Zn196 O219 1.955 . S
O197 Zn196 1.933 1_554 S
O197 Zn198 1.911 . S
O197 H199 0.841 1_655 S
Zn198 O197 1.911 . S
Zn198 O211 1.970 . S
Zn198 O227 1.981 . S
Zn198 O229 1.945 . S
H199 O197 0.841 1_455 S
Zn200 O201 1.933 1_556 S
Zn200 O213 1.985 . S
Zn200 O221 1.955 . S
O201 Zn200 1.933 1_554 S
O201 H202 0.841 . S
O201 Zn203 1.911 . S
H202 O201 0.841 . S
Zn203 O201 1.911 . S
Zn203 O214 1.970 . S
Zn203 O224 1.981 . S
Zn203 O232 1.945 . S
C204 O205 1.243 1_455 S
C204 O221 1.276 . S
O205 C204 1.243 1_655 S
O206 Zn186 1.985 . S
O206 C216 1.245 1_556 S
O207 Zn187 1.970 . S
O207 C216 1.263 . S
O208 Zn193 1.985 . S
O208 C220 1.245 1_556 S
O209 Zn192 1.970 . S
O209 C220 1.263 . S
O210 Zn196 1.985 . S
O210 C225 1.245 1_556 S
O211 Zn198 1.970 . S
O211 C225 1.263 . S
C212 O223 1.263 . S
C212 O224 1.244 1_545 S
O213 Zn200 1.985 . S
O213 C231 1.245 1_556 S
O214 Zn203 1.970 . S
O214 C231 1.263 . S
O215 Zn193 1.955 . S
O215 C234 1.276 1_565 S
C216 O206 1.245 1_554 S
C216 O207 1.263 . S
O217 Zn186 1.955 . S
O217 C236 1.276 1_545 S
C218 O226 1.263 1_545 S
C218 O227 1.244 . S
O219 C190 1.276 1_655 S
O219 Zn196 1.955 . S
C220 O208 1.245 1_554 S
C220 O209 1.263 . S
O221 Zn200 1.955 . S
O221 C204 1.276 . S
C222 O229 1.262 1_455 S
C222 O230 1.245 . S
O223 Zn187 1.945 . S
O223 C212 1.263 . S
O224 Zn203 1.981 . S
O224 C212 1.244 1_565 S
C225 O210 1.245 1_554 S
C225 O211 1.263 . S
O226 Zn192 1.945 . S
O226 C218 1.263 1_565 S
O227 Zn198 1.981 . S
O227 C218 1.244 . S
C228 O232 1.262 . S
C228 O233 1.245 . S
O229 Zn198 1.945 . S
O229 C222 1.262 1_655 S
O230 Zn187 1.981 . S
O230 C222 1.245 . S
C231 O213 1.245 1_554 S
C231 O214 1.263 . S
O232 Zn203 1.945 . S
O232 C228 1.262 . S
O233 Zn192 1.981 1_455 S
O233 C228 1.245 . S
C234 O215 1.276 1_545 S
C234 O235 1.246 . S
O235 C234 1.246 . S
C236 O217 1.276 1_565 S
C236 O237 1.246 . S
O237 C236 1.246 . S
C238 C239 1.363 . S
C238 C244 1.379 . S
C238 N246 1.356 . S
C239 C238 1.363 . S
C239 C245 1.363 . S
C240 C241 1.363 . S
C240 C245 1.379 . S
C240 N247 1.356 . S
C241 C240 1.363 . S
C241 C244 1.363 . S
N242 C244 1.356 . S
N242 H254 0.984 . S
N242 H255 0.985 . S
N243 C245 1.356 . S
N243 H248 0.984 . S
N243 H249 0.985 . S
C244 C238 1.379 . S
C244 C241 1.363 . S
C244 N242 1.356 . S
C245 C239 1.363 . S
C245 C240 1.379 . S
C245 N243 1.356 . S
N246 C238 1.356 . S
N246 H252 0.984 . S
N246 H253 0.984 . S
N247 C240 1.356 . S
N247 H250 0.984 . S
N247 H251 0.985 . S
H248 N243 0.984 . S
H249 N243 0.985 . S
H250 N247 0.984 . S
H251 N247 0.985 . S
H252 N246 0.984 . S
H253 N246 0.984 . S
H254 N242 0.984 . S
H255 N242 0.985 . S
C256 C257 1.363 1_565 S
C256 C262 1.379 . S
C256 N264 1.356 . S
C257 C256 1.363 1_545 S
C257 C263 1.363 . S
C258 C259 1.363 . S
C258 C263 1.379 . S
C258 N265 1.356 . S
C259 C258 1.363 . S
C259 C262 1.363 1_545 S
N260 C262 1.356 . S
N260 H272 0.984 . S
N260 H273 0.985 . S
N261 C263 1.356 . S
N261 H266 0.984 . S
N261 H267 0.985 . S
C262 C256 1.379 . S
C262 C259 1.363 1_565 S
C262 N260 1.356 . S
C263 C257 1.363 . S
C263 C258 1.379 . S
C263 N261 1.356 . S
N264 C256 1.356 . S
N264 H270 0.984 . S
N264 H271 0.984 . S
N265 C258 1.356 . S
N265 H268 0.984 . S
N265 H269 0.985 . S
H266 N261 0.984 . S
H267 N261 0.985 . S
H268 N265 0.984 . S
H269 N265 0.985 . S
H270 N264 0.984 . S
H271 N264 0.984 . S
H272 N260 0.984 . S
H273 N260 0.985 . S
C274 C275 1.363 . S
C274 C280 1.379 . S
C274 N282 1.356 . S
C275 C274 1.363 . S
C275 C281 1.363 1_455 S
C276 C277 1.363 1_655 S
C276 C281 1.379 . S
C276 N283 1.356 . S
C277 C276 1.363 1_455 S
C277 C280 1.363 . S
N278 C280 1.356 . S
N278 H290 0.984 . S
N278 H291 0.985 . S
N279 C281 1.356 . S
N279 H284 0.984 . S
N279 H285 0.985 . S
C280 C274 1.379 . S
C280 C277 1.363 . S
C280 N278 1.356 . S
C281 C275 1.363 1_655 S
C281 C276 1.379 . S
C281 N279 1.356 . S
N282 C274 1.356 . S
N282 H288 0.984 . S
N282 H289 0.984 . S
N283 C276 1.356 . S
N283 H286 0.984 . S
N283 H287 0.985 . S
H284 N279 0.984 . S
H285 N279 0.985 . S
H286 N283 0.984 . S
H287 N283 0.985 . S
H288 N282 0.984 . S
H289 N282 0.984 . S
H290 N278 0.984 . S
H291 N278 0.985 . S
C292 C293 1.349 1_545 S
C292 C298 1.379 . S
C292 N300 1.356 . S
C293 C292 1.349 1_565 S
C293 C299 1.379 . S
C294 C295 1.363 . S
C294 C299 1.379 . S
C294 N301 1.356 . S
C295 C294 1.363 . S
C295 C298 1.363 1_565 S
N296 C298 1.356 . S
N296 H308 0.984 . S
N296 H309 0.985 . S
N297 C299 1.356 . S
N297 H302 0.984 . S
N297 H303 0.985 . S
C298 C292 1.379 . S
C298 C295 1.363 1_545 S
C298 N296 1.356 . S
C299 C293 1.379 . S
C299 C294 1.379 . S
C299 N297 1.356 . S
N300 C292 1.356 . S
N300 H306 0.984 . S
N300 H307 0.984 . S
N301 C294 1.356 . S
N301 H304 0.984 . S
N301 H305 0.985 . S
H302 N297 0.984 . S
H303 N297 0.985 . S
H304 N301 0.984 . S
H305 N301 0.985 . S
H306 N300 0.984 . S
H307 N300 0.984 . S
H308 N296 0.984 . S
H309 N296 0.985 . S
C310 C311 1.363 . S
C310 C316 1.379 . S
C310 N318 1.356 . S
C311 C310 1.363 . S
C311 C317 1.363 1_455 S
C312 C313 1.363 1_655 S
C312 C317 1.379 . S
C312 N319 1.356 . S
C313 C312 1.363 1_455 S
C313 C316 1.363 . S
N314 C316 1.356 . S
N314 H326 0.984 . S
N314 H327 0.985 . S
N315 C317 1.356 . S
N315 H320 0.984 . S
N315 H321 0.985 . S
C316 C310 1.379 . S
C316 C313 1.363 . S
C316 N314 1.356 . S
C317 C311 1.363 1_655 S
C317 C312 1.379 . S
C317 N315 1.356 . S
N318 C310 1.356 . S
N318 H324 0.984 . S
N318 H325 0.984 . S
N319 C312 1.356 . S
N319 H322 0.984 . S
N319 H323 0.985 . S
H320 N315 0.984 . S
H321 N315 0.985 . S
H322 N319 0.984 . S
H323 N319 0.985 . S
H324 N318 0.984 . S
H325 N318 0.984 . S
H326 N314 0.984 . S
H327 N314 0.985 . S
C328 C329 1.363 . S
C328 C334 1.379 . S
C328 N336 1.356 . S
C329 C328 1.363 . S
C329 C335 1.363 1_565 S
C330 C331 1.363 1_545 S
C330 C335 1.379 . S
C330 N337 1.356 . S
C331 C330 1.363 1_565 S
C331 C334 1.363 . S
N332 C334 1.356 . S
N332 H344 0.984 . S
N332 H345 0.985 . S
N333 C335 1.356 . S
N333 H338 0.984 . S
N333 H339 0.985 . S
C334 C328 1.379 . S
C334 C331 1.363 . S
C334 N332 1.356 . S
C335 C329 1.363 1_545 S
C335 C330 1.379 . S
C335 N333 1.356 . S
N336 C328 1.356 . S
N336 H342 0.984 . S
N336 H343 0.984 . S
N337 C330 1.356 . S
N337 H340 0.984 . S
N337 H341 0.985 . S
H338 N333 0.984 . S
H339 N333 0.985 . S
H340 N337 0.984 . S
H341 N337 0.985 . S
H342 N336 0.984 . S
H343 N336 0.984 . S
H344 N332 0.984 . S
H345 N332 0.985 . S
C346 C347 1.363 1_655 S
C346 C352 1.379 1_655 S
C346 N354 1.356 . S
C347 C346 1.363 1_455 S
C347 C353 1.363 . S
C348 C349 1.363 . S
C348 C353 1.379 . S
C348 N355 1.356 . S
C349 C348 1.363 . S
C349 C352 1.363 . S
N350 C352 1.356 1_655 S
N350 H362 0.984 . S
N350 H363 0.985 . S
N351 C353 1.356 . S
N351 H356 0.984 . S
N351 H357 0.985 . S
C352 C346 1.379 1_455 S
C352 C349 1.363 . S
C352 N350 1.356 1_455 S
C353 C347 1.363 . S
C353 C348 1.379 . S
C353 N351 1.356 . S
N354 C346 1.356 . S
N354 H360 0.984 . S
N354 H361 0.984 . S
N355 C348 1.356 . S
N355 H358 0.984 . S
N355 H359 0.985 . S
H356 N351 0.984 . S
H357 N351 0.985 . S
H358 N355 0.984 . S
H359 N355 0.985 . S
H360 N354 0.984 . S
H361 N354 0.984 . S
H362 N350 0.984 . S
H363 N350 0.985 . S
C364 C365 1.363 1_565 S
C364 C370 1.379 . S
C364 N372 1.356 . S
C365 C364 1.363 1_545 S
C365 C371 1.363 . S
C366 C367 1.363 . S
C366 C371 1.379 . S
C366 N373 1.356 . S
C367 C366 1.363 . S
C367 C370 1.363 1_545 S
N368 C370 1.356 . S
N368 H380 0.984 . S
N368 H381 0.985 . S
N369 C371 1.356 . S
N369 H374 0.984 . S
N369 H375 0.985 . S
C370 C364 1.379 . S
C370 C367 1.363 1_565 S
C370 N368 1.356 . S
C371 C365 1.363 . S
C371 C366 1.379 . S
C371 N369 1.356 . S
N372 C364 1.356 . S
N372 H378 0.984 . S
N372 H379 0.984 . S
N373 C366 1.356 . S
N373 H376 0.984 . S
N373 H377 0.985 . S
H374 N369 0.984 . S
H375 N369 0.985 . S
H376 N373 0.984 . S
H377 N373 0.985 . S
H378 N372 0.984 . S
H379 N372 0.984 . S
H380 N368 0.984 . S
H381 N368 0.985 . S
C382 C383 1.363 1_556 S
C382 C388 1.379 . S
C382 N390 1.356 . S
C383 C382 1.363 1_554 S
C383 C389 1.363 . S
C384 C385 1.363 . S
C384 C389 1.379 . S
C384 N391 1.356 . S
C385 C384 1.363 . S
C385 C388 1.363 1_554 S
N386 C388 1.356 . S
N386 H398 0.984 . S
N386 H399 0.985 . S
N387 C389 1.356 . S
N387 H392 0.984 . S
N387 H393 0.985 . S
C388 C382 1.379 . S
C388 C385 1.363 1_556 S
C388 N386 1.356 . S
C389 C383 1.363 . S
C389 C384 1.379 . S
C389 N387 1.356 . S
N390 C382 1.356 . S
N390 H396 0.984 . S
N390 H397 0.984 . S
N391 C384 1.356 . S
N391 H394 0.984 . S
N391 H395 0.985 . S
H392 N387 0.984 . S
H393 N387 0.985 . S
H394 N391 0.984 . S
H395 N391 0.985 . S
H396 N390 0.984 . S
H397 N390 0.984 . S
H398 N386 0.984 . S
H399 N386 0.985 . S
C400 C401 1.363 1_556 S
C400 C406 1.379 . S
C400 N408 1.356 . S
C401 C400 1.363 1_554 S
C401 C407 1.363 . S
C402 C403 1.363 . S
C402 C407 1.379 . S
C402 N409 1.356 . S
C403 C402 1.363 . S
C403 C406 1.363 1_554 S
N404 C406 1.356 . S
N404 H416 0.984 . S
N404 H417 0.985 . S
N405 C407 1.356 . S
N405 H410 0.984 . S
N405 H411 0.985 . S
C406 C400 1.379 . S
C406 C403 1.363 1_556 S
C406 N404 1.356 . S
C407 C401 1.363 . S
C407 C402 1.379 . S
C407 N405 1.356 . S
N408 C400 1.356 . S
N408 H414 0.984 . S
N408 H415 0.984 . S
N409 C402 1.356 . S
N409 H412 0.984 . S
N409 H413 0.985 . S
H410 N405 0.984 . S
H411 N405 0.985 . S
H412 N409 0.984 . S
H413 N409 0.985 . S
H414 N408 0.984 . S
H415 N408 0.984 . S
H416 N404 0.984 . S
H417 N404 0.985 . S
C418 C419 1.363 1_556 S
C418 C424 1.379 . S
C418 N426 1.356 . S
C419 C418 1.363 1_554 S
C419 C425 1.363 . S
C420 C421 1.363 . S
C420 C425 1.379 . S
C420 N427 1.356 . S
C421 C420 1.363 . S
C421 C424 1.363 1_554 S
N422 C424 1.356 . S
N422 H434 0.984 . S
N422 H435 0.985 . S
N423 C425 1.356 . S
N423 H428 0.984 . S
N423 H429 0.985 . S
C424 C418 1.379 . S
C424 C421 1.363 1_556 S
C424 N422 1.356 . S
C425 C419 1.363 . S
C425 C420 1.379 . S
C425 N423 1.356 . S
N426 C418 1.356 . S
N426 H432 0.984 . S
N426 H433 0.984 . S
N427 C420 1.356 . S
N427 H430 0.984 . S
N427 H431 0.985 . S
H428 N423 0.984 . S
H429 N423 0.985 . S
H430 N427 0.984 . S
H431 N427 0.985 . S
H432 N426 0.984 . S
H433 N426 0.984 . S
H434 N422 0.984 . S
H435 N422 0.985 . S
C436 C437 1.363 . S
C436 C442 1.379 . S
C436 N444 1.356 . S
C437 C436 1.363 . S
C437 C443 1.363 1_554 S
C438 C439 1.363 1_556 S
C438 C443 1.379 . S
C438 N445 1.356 . S
C439 C438 1.363 1_554 S
C439 C442 1.363 . S
N440 C442 1.356 . S
N440 H452 0.984 . S
N440 H453 0.985 . S
N441 C443 1.356 . S
N441 H446 0.984 . S
N441 H447 0.985 . S
C442 C436 1.379 . S
C442 C439 1.363 . S
C442 N440 1.356 . S
C443 C437 1.363 1_556 S
C443 C438 1.379 . S
C443 N441 1.356 . S
N444 C436 1.356 . S
N444 H450 0.984 . S
N444 H451 0.984 . S
N445 C438 1.356 . S
N445 H448 0.984 . S
N445 H449 0.985 . S
H446 N441 0.984 . S
H447 N441 0.985 . S
H448 N445 0.984 . S
H449 N445 0.985 . S
H450 N444 0.984 . S
H451 N444 0.984 . S
H452 N440 0.984 . S
H453 N440 0.985 . S
C241 C222 2.226 . S
C239 C53 2.272 . S
C259 C218 1.382 . S
C257 C97 1.577 1_545 S
C277 C228 2.227 . S
C275 C35 2.269 . S
C295 C212 1.461 1_565 S
C293 C91 1.551 . S
C311 C29 2.367 . S
C313 C204 2.305 . S
C331 C236 1.550 . S
C329 C109 1.669 . S
C347 C47 2.382 . S
C349 C190 2.306 . S
C365 C115 1.701 1_545 S
C367 C234 1.471 . S
C383 C153 1.222 . S
C385 C216 1.196 . S
C401 C171 1.190 . S
C403 C231 1.211 . S
C421 C225 1.076 . S
C419 C159 1.076 . S
C439 C220 1.189 . S
C437 C177 1.303 . S
