# Generated by pormake.
# Topology ctn, (3,4)-cn, num edge types: 1
# Building blocks:
#     Node 0, Type 0, BuildingBlock: MIDCAF_clean_linker_0, # of connection points: 3
#     Node 1, Type 0, BuildingBlock: MIDCAF_clean_linker_0, # of connection points: 3
#     Node 2, Type 0, BuildingBlock: MIDCAF_clean_linker_0, # of connection points: 3
#     Node 3, Type 0, BuildingBlock: MIDCAF_clean_linker_0, # of connection points: 3
#     Node 4, Type 0, BuildingBlock: MIDCAF_clean_linker_0, # of connection points: 3
#     Node 5, Type 0, BuildingBlock: MIDCAF_clean_linker_0, # of connection points: 3
#     Node 6, Type 0, BuildingBlock: MIDCAF_clean_linker_0, # of connection points: 3
#     Node 7, Type 0, BuildingBlock: MIDCAF_clean_linker_0, # of connection points: 3
#     Node 8, Type 0, BuildingBlock: MIDCAF_clean_linker_0, # of connection points: 3
#     Node 9, Type 0, BuildingBlock: MIDCAF_clean_linker_0, # of connection points: 3
#     Node 10, Type 0, BuildingBlock: MIDCAF_clean_linker_0, # of connection points: 3
#     Node 11, Type 0, BuildingBlock: MIDCAF_clean_linker_0, # of connection points: 3
#     Node 12, Type 0, BuildingBlock: MIDCAF_clean_linker_0, # of connection points: 3
#     Node 13, Type 0, BuildingBlock: MIDCAF_clean_linker_0, # of connection points: 3
#     Node 14, Type 0, BuildingBlock: MIDCAF_clean_linker_0, # of connection points: 3
#     Node 15, Type 0, BuildingBlock: MIDCAF_clean_linker_0, # of connection points: 3
#     Node 16, Type 1, BuildingBlock: QUQFOY_clean_sbu_1, # of connection points: 4
#     Node 17, Type 1, BuildingBlock: QUQFOY_clean_sbu_1, # of connection points: 4
#     Node 18, Type 1, BuildingBlock: QUQFOY_clean_sbu_1, # of connection points: 4
#     Node 19, Type 1, BuildingBlock: QUQFOY_clean_sbu_1, # of connection points: 4
#     Node 20, Type 1, BuildingBlock: QUQFOY_clean_sbu_1, # of connection points: 4
#     Node 21, Type 1, BuildingBlock: QUQFOY_clean_sbu_1, # of connection points: 4
#     Node 22, Type 1, BuildingBlock: QUQFOY_clean_sbu_1, # of connection points: 4
#     Node 23, Type 1, BuildingBlock: QUQFOY_clean_sbu_1, # of connection points: 4
#     Node 24, Type 1, BuildingBlock: QUQFOY_clean_sbu_1, # of connection points: 4
#     Node 25, Type 1, BuildingBlock: QUQFOY_clean_sbu_1, # of connection points: 4
#     Node 26, Type 1, BuildingBlock: QUQFOY_clean_sbu_1, # of connection points: 4
#     Node 27, Type 1, BuildingBlock: QUQFOY_clean_sbu_1, # of connection points: 4
#     Edge 28, Type (0, 1), BuildingBlock: MIFKUJ_clean_linker_0, # of connection points: 2
#     Edge 29, Type (0, 1), BuildingBlock: MIFKUJ_clean_linker_0, # of connection points: 2
#     Edge 30, Type (0, 1), BuildingBlock: MIFKUJ_clean_linker_0, # of connection points: 2
#     Edge 31, Type (0, 1), BuildingBlock: MIFKUJ_clean_linker_0, # of connection points: 2
#     Edge 32, Type (0, 1), BuildingBlock: MIFKUJ_clean_linker_0, # of connection points: 2
#     Edge 33, Type (0, 1), BuildingBlock: MIFKUJ_clean_linker_0, # of connection points: 2
#     Edge 34, Type (0, 1), BuildingBlock: MIFKUJ_clean_linker_0, # of connection points: 2
#     Edge 35, Type (0, 1), BuildingBlock: MIFKUJ_clean_linker_0, # of connection points: 2
#     Edge 36, Type (0, 1), BuildingBlock: MIFKUJ_clean_linker_0, # of connection points: 2
#     Edge 37, Type (0, 1), BuildingBlock: MIFKUJ_clean_linker_0, # of connection points: 2
#     Edge 38, Type (0, 1), BuildingBlock: MIFKUJ_clean_linker_0, # of connection points: 2
#     Edge 39, Type (0, 1), BuildingBlock: MIFKUJ_clean_linker_0, # of connection points: 2
#     Edge 40, Type (0, 1), BuildingBlock: MIFKUJ_clean_linker_0, # of connection points: 2
#     Edge 41, Type (0, 1), BuildingBlock: MIFKUJ_clean_linker_0, # of connection points: 2
#     Edge 42, Type (0, 1), BuildingBlock: MIFKUJ_clean_linker_0, # of connection points: 2
#     Edge 43, Type (0, 1), BuildingBlock: MIFKUJ_clean_linker_0, # of connection points: 2
#     Edge 44, Type (0, 1), BuildingBlock: MIFKUJ_clean_linker_0, # of connection points: 2
#     Edge 45, Type (0, 1), BuildingBlock: MIFKUJ_clean_linker_0, # of connection points: 2
#     Edge 46, Type (0, 1), BuildingBlock: MIFKUJ_clean_linker_0, # of connection points: 2
#     Edge 47, Type (0, 1), BuildingBlock: MIFKUJ_clean_linker_0, # of connection points: 2
#     Edge 48, Type (0, 1), BuildingBlock: MIFKUJ_clean_linker_0, # of connection points: 2
#     Edge 49, Type (0, 1), BuildingBlock: MIFKUJ_clean_linker_0, # of connection points: 2
#     Edge 50, Type (0, 1), BuildingBlock: MIFKUJ_clean_linker_0, # of connection points: 2
#     Edge 51, Type (0, 1), BuildingBlock: MIFKUJ_clean_linker_0, # of connection points: 2
#     Edge 52, Type (0, 1), BuildingBlock: MIFKUJ_clean_linker_0, # of connection points: 2
#     Edge 53, Type (0, 1), BuildingBlock: MIFKUJ_clean_linker_0, # of connection points: 2
#     Edge 54, Type (0, 1), BuildingBlock: MIFKUJ_clean_linker_0, # of connection points: 2
#     Edge 55, Type (0, 1), BuildingBlock: MIFKUJ_clean_linker_0, # of connection points: 2
#     Edge 56, Type (0, 1), BuildingBlock: MIFKUJ_clean_linker_0, # of connection points: 2
#     Edge 57, Type (0, 1), BuildingBlock: MIFKUJ_clean_linker_0, # of connection points: 2
#     Edge 58, Type (0, 1), BuildingBlock: MIFKUJ_clean_linker_0, # of connection points: 2
#     Edge 59, Type (0, 1), BuildingBlock: MIFKUJ_clean_linker_0, # of connection points: 2
#     Edge 60, Type (0, 1), BuildingBlock: MIFKUJ_clean_linker_0, # of connection points: 2
#     Edge 61, Type (0, 1), BuildingBlock: MIFKUJ_clean_linker_0, # of connection points: 2
#     Edge 62, Type (0, 1), BuildingBlock: MIFKUJ_clean_linker_0, # of connection points: 2
#     Edge 63, Type (0, 1), BuildingBlock: MIFKUJ_clean_linker_0, # of connection points: 2
#     Edge 64, Type (0, 1), BuildingBlock: MIFKUJ_clean_linker_0, # of connection points: 2
#     Edge 65, Type (0, 1), BuildingBlock: MIFKUJ_clean_linker_0, # of connection points: 2
#     Edge 66, Type (0, 1), BuildingBlock: MIFKUJ_clean_linker_0, # of connection points: 2
#     Edge 67, Type (0, 1), BuildingBlock: MIFKUJ_clean_linker_0, # of connection points: 2
#     Edge 68, Type (0, 1), BuildingBlock: MIFKUJ_clean_linker_0, # of connection points: 2
#     Edge 69, Type (0, 1), BuildingBlock: MIFKUJ_clean_linker_0, # of connection points: 2
#     Edge 70, Type (0, 1), BuildingBlock: MIFKUJ_clean_linker_0, # of connection points: 2
#     Edge 71, Type (0, 1), BuildingBlock: MIFKUJ_clean_linker_0, # of connection points: 2
#     Edge 72, Type (0, 1), BuildingBlock: MIFKUJ_clean_linker_0, # of connection points: 2
#     Edge 73, Type (0, 1), BuildingBlock: MIFKUJ_clean_linker_0, # of connection points: 2
#     Edge 74, Type (0, 1), BuildingBlock: MIFKUJ_clean_linker_0, # of connection points: 2
#     Edge 75, Type (0, 1), BuildingBlock: MIFKUJ_clean_linker_0, # of connection points: 2
# Relax obj value: 0.035
# Max RMSD: 0.142
# Mean RMSD: 0.064
data_MOF--net-ctn--node1-QUQFOY_clean_sbu_1--node2-MIDCAF_clean_linker_0--edge1-MIFKUJ_clean_linker_0
_symmetry_space_group_name_H-M    P1
_symmetry_Int_Tables_number       1
_symmetry_cell_setting            triclinic
loop_
_symmetry_equiv_pos_as_xyz
'x, y, z'
_cell_length_a     83.358376
_cell_length_b     83.299972
_cell_length_c     83.496236
_cell_angle_alpha  92.7186
_cell_angle_beta   90.08999
_cell_angle_gamma 94.416857
loop_
_atom_site_label
_atom_site_type_symbol
_atom_site_fract_x
_atom_site_fract_y
_atom_site_fract_z
_atom_type_partial_charge
C0 C 0.03257 0.13068 0.1291 0.0
C1 C 0.0305 0.11811 0.13973 0.0
C2 C 0.04177 0.10638 0.13956 0.0
C3 C 0.05447 0.10689 0.12866 0.0
H4 H 0.09301 0.08274 0.11432 0.0
H5 H 0.1087 0.0593 0.11178 0.0
H6 H 0.12737 0.07528 0.06652 0.0
H7 H 0.11151 0.09861 0.06885 0.0
H8 H 0.09826 0.12909 0.05362 0.0
H9 H 0.09445 0.14418 0.02971 0.0
H10 H 0.05349 0.1649 0.0517 0.0
H11 H 0.05713 0.14987 0.07551 0.0
H12 H 0.04624 0.14084 0.1099 0.0
H13 H 0.02426 0.14006 0.12909 0.0
H14 H 0.04045 0.09639 0.14742 0.0
H15 H 0.06263 0.09738 0.12861 0.0
N16 N 0.07934 0.10716 0.10464 0.0
N17 N 0.08973 0.11619 0.08029 0.0
N18 N 0.06852 0.12883 0.09269 0.0
C19 C 0.09 0.10589 0.09243 0.0
C20 C 0.07906 0.12774 0.08036 0.0
C21 C 0.0686 0.11864 0.1049 0.0
C22 C 0.10082 0.09253 0.0917 0.0
C23 C 0.10055 0.08138 0.10387 0.0
C24 C 0.10963 0.06796 0.10247 0.0
C25 C 0.11916 0.06535 0.08888 0.0
C26 C 0.11992 0.07681 0.07701 0.0
C27 C 0.11087 0.09024 0.07841 0.0
C28 C 0.0779 0.13809 0.06647 0.0
C29 C 0.08853 0.13697 0.05344 0.0
C30 C 0.0864 0.14567 0.03975 0.0
C31 C 0.07356 0.15556 0.03878 0.0
C32 C 0.06333 0.15715 0.05202 0.0
C33 C 0.0655 0.14857 0.06571 0.0
C34 C 0.05617 0.1191 0.11758 0.0
C35 C 0.04524 0.13117 0.11814 0.0
C36 C 0.24947 0.68521 0.25179 0.0
C37 C 0.23784 0.68082 0.23982 0.0
C38 C 0.23634 0.6911 0.22709 0.0
C39 C 0.24634 0.70531 0.22626 0.0
H40 H 0.24674 0.75498 0.2143 0.0
H41 H 0.24024 0.77575 0.1964 0.0
H42 H 0.29032 0.79362 0.19595 0.0
H43 H 0.2967 0.77322 0.21436 0.0
H44 H 0.3168 0.7639 0.24756 0.0
H45 H 0.34203 0.76511 0.26255 0.0
H46 H 0.33266 0.71506 0.27341 0.0
H47 H 0.30735 0.71394 0.25891 0.0
H48 H 0.26849 0.70219 0.26021 0.0
H49 H 0.25073 0.67783 0.26197 0.0
H50 H 0.22768 0.68803 0.21754 0.0
H51 H 0.24503 0.71283 0.21618 0.0
N52 N 0.26579 0.7361 0.22746 0.0
N53 N 0.29058 0.75019 0.23409 0.0
N54 N 0.2837 0.72505 0.24472 0.0
C55 C 0.27628 0.74929 0.2261 0.0
C56 C 0.29436 0.73808 0.24344 0.0
C57 C 0.26942 0.72395 0.23678 0.0
C58 C 0.27226 0.76236 0.2157 0.0
C59 C 0.25636 0.76338 0.21045 0.0
C60 C 0.25264 0.77527 0.20011 0.0
C61 C 0.26476 0.78633 0.1946 0.0
C62 C 0.28062 0.78548 0.2001 0.0
C63 C 0.28431 0.77369 0.2106 0.0
C64 C 0.30996 0.73886 0.2521 0.0
C65 C 0.32013 0.75315 0.25313 0.0
C66 C 0.33465 0.75382 0.26165 0.0
C67 C 0.33934 0.7402 0.26926 0.0
C68 C 0.32928 0.72586 0.26798 0.0
C69 C 0.31477 0.72522 0.25957 0.0
C70 C 0.25821 0.70943 0.23803 0.0
C71 C 0.25959 0.69927 0.25084 0.0
C72 C 0.92459 0.39698 0.05078 0.0
C73 C 0.91984 0.3992 0.03495 0.0
C74 C 0.9115 0.41273 0.03171 0.0
C75 C 0.90851 0.42412 0.04398 0.0
H76 H 0.88631 0.4659 0.05433 0.0
H77 H 0.87229 0.48968 0.04902 0.0
H78 H 0.88532 0.51016 0.09615 0.0
H79 H 0.89924 0.48632 0.10163 0.0
H80 H 0.92824 0.47219 0.11985 0.0
H81 H 0.94977 0.4748 0.13979 0.0
H82 H 0.96454 0.42807 0.12405 0.0
H83 H 0.94288 0.42523 0.1044 0.0
H84 H 0.92599 0.4065 0.07497 0.0
H85 H 0.93118 0.38676 0.05364 0.0
H86 H 0.90756 0.41466 0.01963 0.0
H87 H 0.90247 0.43466 0.04101 0.0
N88 N 0.90356 0.44772 0.07011 0.0
N89 N 0.91297 0.4602 0.09449 0.0
N90 N 0.92212 0.43545 0.08563 0.0
C91 C 0.90347 0.46019 0.08123 0.0
C92 C 0.92232 0.44783 0.09679 0.0
C93 C 0.91278 0.43524 0.0723 0.0
C94 C 0.89402 0.47419 0.07838 0.0
C95 C 0.88611 0.47539 0.06364 0.0
C96 C 0.87814 0.48907 0.06054 0.0
C97 C 0.8778 0.50183 0.07212 0.0
C98 C 0.88528 0.50047 0.08703 0.0
C99 C 0.89334 0.48682 0.09012 0.0
C100 C 0.93392 0.44859 0.11034 0.0
C101 C 0.9359 0.46235 0.12079 0.0
C102 C 0.94831 0.4639 0.13216 0.0
C103 C 0.95899 0.45173 0.13336 0.0
C104 C 0.95647 0.43762 0.12351 0.0
C105 C 0.94408 0.43606 0.11215 0.0
C106 C 0.91395 0.42227 0.05969 0.0
C107 C 0.92171 0.40838 0.063 0.0
C108 C 0.73996 0.78389 0.18243 0.0
C109 C 0.72955 0.76988 0.18016 0.0
C110 C 0.7161 0.76772 0.19016 0.0
C111 C 0.71311 0.77933 0.2022 0.0
H112 H 0.68757 0.78592 0.24434 0.0
H113 H 0.66687 0.7808 0.26448 0.0
H114 H 0.67602 0.8295 0.28426 0.0
H115 H 0.69651 0.83476 0.26411 0.0
H116 H 0.72854 0.85493 0.25339 0.0
H117 H 0.74399 0.88089 0.25403 0.0
H118 H 0.75816 0.87196 0.20482 0.0
H119 H 0.74321 0.84567 0.2044 0.0
H120 H 0.74514 0.80626 0.1957 0.0
H121 H 0.75033 0.78596 0.17479 0.0
H122 H 0.70794 0.75697 0.18874 0.0
H123 H 0.70262 0.77729 0.20969 0.0
N124 N 0.70896 0.80277 0.22845 0.0
N125 N 0.71444 0.82878 0.24009 0.0
N126 N 0.72843 0.82065 0.21717 0.0
C127 C 0.70603 0.81415 0.24007 0.0
C128 C 0.72562 0.83215 0.22868 0.0
C129 C 0.72018 0.80592 0.21698 0.0
C130 C 0.6937 0.81078 0.25252 0.0
C131 C 0.6852 0.79555 0.25299 0.0
C132 C 0.67339 0.79257 0.26459 0.0
C133 C 0.66977 0.80477 0.27591 0.0
C134 C 0.67837 0.81992 0.27555 0.0
C135 C 0.6902 0.82289 0.26402 0.0
C136 C 0.73468 0.84817 0.22887 0.0
C137 C 0.73491 0.8585 0.24268 0.0
C138 C 0.7437 0.87348 0.24301 0.0
C139 C 0.75233 0.8786 0.22946 0.0
C140 C 0.75189 0.86834 0.21556 0.0
C141 C 0.74325 0.85326 0.2153 0.0
C142 C 0.72343 0.79345 0.20439 0.0
C143 C 0.7369 0.79557 0.19436 0.0
C144 C 0.07123 0.91998 0.47859 0.0
C145 C 0.05556 0.9167 0.48442 0.0
C146 C 0.04275 0.92367 0.47704 0.0
C147 C 0.04562 0.93406 0.46452 0.0
H148 H 0.02821 0.94921 0.41791 0.0
H149 H 0.00675 0.95761 0.40089 0.0
H150 H 0.03291 0.00395 0.39652 0.0
H151 H 0.05438 0.99564 0.41337 0.0
H152 H 0.09432 0.99459 0.41803 0.0
H153 H 0.1181 0.01338 0.42244 0.0
H154 H 0.12838 0.99064 0.46627 0.0
H155 H 0.1048 0.9718 0.46195 0.0
H156 H 0.08639 0.93316 0.46234 0.0
H157 H 0.08134 0.91454 0.48367 0.0
H158 H 0.03054 0.92163 0.48132 0.0
H159 H 0.03556 0.93963 0.45947 0.0
N160 N 0.05306 0.95451 0.43745 0.0
N161 N 0.0705 0.97543 0.42806 0.0
N162 N 0.07923 0.95911 0.44788 0.0
C163 C 0.05592 0.96691 0.42756 0.0
C164 C 0.08223 0.97157 0.43816 0.0
C165 C 0.06473 0.9505 0.44758 0.0
C166 C 0.04302 0.97174 0.417 0.0
C167 C 0.02939 0.96118 0.41331 0.0
C168 C 0.01714 0.96594 0.40353 0.0
C169 C 0.01817 0.98144 0.39749 0.0
C170 C 0.03176 0.99199 0.40118 0.0
C171 C 0.0441 0.98717 0.41073 0.0
C172 C 0.09755 0.98178 0.43972 0.0
C173 C 0.10176 0.99346 0.42851 0.0
C174 C 0.11539 0.00416 0.43096 0.0
C175 C 0.12492 0.0035 0.44475 0.0
C176 C 0.1211 0.99147 0.45562 0.0
C177 C 0.10762 0.98065 0.45309 0.0
C178 C 0.06138 0.93792 0.45928 0.0
C179 C 0.07412 0.93057 0.46626 0.0
C180 C 0.22655 0.77451 0.86422 0.0
C181 C 0.21255 0.7822 0.86823 0.0
C182 C 0.19983 0.78126 0.85706 0.0
C183 C 0.2012 0.77317 0.84214 0.0
H184 H 0.1881 0.77746 0.79415 0.0
H185 H 0.16874 0.78192 0.77323 0.0
H186 H 0.18397 0.74082 0.74547 0.0
H187 H 0.20338 0.73625 0.76638 0.0
H188 H 0.24477 0.73158 0.77658 0.0
H189 H 0.26528 0.71257 0.77221 0.0
H190 H 0.26297 0.70163 0.82234 0.0
H191 H 0.24324 0.72134 0.82679 0.0
H192 H 0.23889 0.76065 0.84662 0.0
H193 H 0.23672 0.77519 0.87238 0.0
H194 H 0.18874 0.78676 0.85983 0.0
H195 H 0.19119 0.77279 0.83381 0.0
N196 N 0.20696 0.76052 0.80988 0.0
N197 N 0.22003 0.74279 0.7926 0.0
N198 N 0.22836 0.74693 0.81944 0.0
C199 C 0.20845 0.75325 0.7951 0.0
C200 C 0.23002 0.73957 0.80473 0.0
C201 C 0.21688 0.75746 0.8221 0.0
C202 C 0.19726 0.75644 0.782 0.0
C203 C 0.1874 0.76939 0.78357 0.0
C204 C 0.17638 0.77203 0.77154 0.0
C205 C 0.17484 0.7617 0.75775 0.0
C206 C 0.18483 0.74889 0.75605 0.0
C207 C 0.19599 0.74634 0.768 0.0
C208 C 0.24242 0.72797 0.80203 0.0
C209 C 0.24872 0.72513 0.78666 0.0
C210 C 0.26042 0.71413 0.78415 0.0
C211 C 0.26587 0.70544 0.79689 0.0
C212 C 0.25943 0.70829 0.81226 0.0
C213 C 0.24799 0.71953 0.81482 0.0
C214 C 0.21526 0.76563 0.83809 0.0
C215 C 0.22785 0.76624 0.84938 0.0
C216 C 0.95433 0.63649 0.48115 0.0
C217 C 0.94836 0.63655 0.4969 0.0
C218 C 0.93782 0.62356 0.50139 0.0
C219 C 0.93344 0.61078 0.49046 0.0
H220 H 0.90485 0.56896 0.48559 0.0
H221 H 0.88374 0.54861 0.49244 0.0
H222 H 0.88347 0.52854 0.44381 0.0
H223 H 0.90471 0.54889 0.43684 0.0
H224 H 0.93715 0.55736 0.41628 0.0
H225 H 0.95618 0.55052 0.39537 0.0
H226 H 0.98883 0.59061 0.41201 0.0
H227 H 0.96995 0.59747 0.43299 0.0
H228 H 0.95498 0.6239 0.45826 0.0
H229 H 0.96225 0.64643 0.4772 0.0
H230 H 0.93322 0.62303 0.51349 0.0
H231 H 0.92547 0.60088 0.49443 0.0
N232 N 0.92319 0.58573 0.46671 0.0
N233 N 0.92877 0.57037 0.44343 0.0
N234 N 0.94462 0.59421 0.45025 0.0
C235 C 0.91965 0.57263 0.45669 0.0
C236 C 0.94131 0.5811 0.44014 0.0
C237 C 0.93557 0.59664 0.46352 0.0
C238 C 0.90649 0.56055 0.46066 0.0
C239 C 0.90028 0.56028 0.4763 0.0
C240 C 0.88827 0.54857 0.48028 0.0
C241 C 0.88206 0.53701 0.46866 0.0
C242 C 0.88803 0.53739 0.45296 0.0
C243 C 0.90022 0.54898 0.44901 0.0
C244 C 0.95206 0.57788 0.42644 0.0
C245 C 0.94831 0.56482 0.41542 0.0
C246 C 0.95917 0.56094 0.40337 0.0
C247 C 0.97402 0.56996 0.40217 0.0
C248 C 0.97755 0.58332 0.41282 0.0
C249 C 0.96667 0.58728 0.42478 0.0
C250 C 0.93965 0.61058 0.47482 0.0
C251 C 0.95009 0.62361 0.47026 0.0
C252 C 0.84026 0.80317 0.76926 0.0
C253 C 0.84067 0.80966 0.75402 0.0
C254 C 0.82691 0.81645 0.74841 0.0
C255 C 0.81301 0.81659 0.75778 0.0
H256 H 0.77386 0.84474 0.77014 0.0
H257 H 0.75319 0.86344 0.76637 0.0
H258 H 0.72019 0.83449 0.79493 0.0
H259 H 0.74089 0.81577 0.79893 0.0
H260 H 0.75773 0.7941 0.82533 0.0
H261 H 0.75695 0.77833 0.84924 0.0
H262 H 0.80669 0.76876 0.84191 0.0
H263 H 0.80739 0.78405 0.81791 0.0
H264 H 0.82656 0.79806 0.79022 0.0
H265 H 0.85074 0.79816 0.77412 0.0
H266 H 0.82676 0.8214 0.73666 0.0
H267 H 0.80257 0.82177 0.75305 0.0
N268 N 0.7855 0.81854 0.77919 0.0
N269 N 0.77104 0.809 0.80138 0.0
N270 N 0.79664 0.80044 0.79584 0.0
C271 C 0.77205 0.8183 0.78841 0.0
C272 C 0.78333 0.80004 0.80518 0.0
C273 C 0.79782 0.80957 0.78281 0.0
C274 C 0.75906 0.82881 0.78494 0.0
C275 C 0.76216 0.84222 0.77549 0.0
C276 C 0.75037 0.85297 0.77336 0.0
C277 C 0.73517 0.85039 0.7804 0.0
C278 C 0.73181 0.83667 0.78931 0.0
C279 C 0.74369 0.82603 0.79166 0.0
C280 C 0.7826 0.79034 0.81963 0.0
C281 C 0.76848 0.78859 0.82879 0.0
C282 C 0.76806 0.77962 0.84255 0.0
C283 C 0.78175 0.77225 0.84748 0.0
C284 C 0.79584 0.77402 0.83831 0.0
C285 C 0.79625 0.7829 0.82456 0.0
C286 C 0.81256 0.80985 0.77291 0.0
C287 C 0.82638 0.8032 0.77855 0.0
C288 C 0.3362 0.30046 0.26656 0.0
C289 C 0.33984 0.31325 0.25643 0.0
C290 C 0.32904 0.32537 0.25566 0.0
C291 C 0.31504 0.32477 0.26487 0.0
H292 H 0.26492 0.33388 0.26372 0.0
H293 H 0.24386 0.35155 0.25827 0.0
H294 H 0.22781 0.34884 0.30735 0.0
H295 H 0.24846 0.33064 0.3126 0.0
H296 H 0.25863 0.29658 0.32931 0.0
H297 H 0.25846 0.28074 0.35313 0.0
H298 H 0.30856 0.27275 0.34556 0.0
H299 H 0.30863 0.28809 0.32158 0.0
H300 H 0.31999 0.28999 0.28365 0.0
H301 H 0.34402 0.2907 0.2672 0.0
H302 H 0.33153 0.33552 0.24818 0.0
H303 H 0.30709 0.33441 0.26415 0.0
N304 N 0.2848 0.32078 0.28234 0.0
N305 N 0.27141 0.31198 0.30542 0.0
N306 N 0.29668 0.30306 0.29889 0.0
C307 C 0.27179 0.32085 0.29214 0.0
C308 C 0.28383 0.30303 0.30885 0.0
C309 C 0.29727 0.31189 0.28563 0.0
C310 C 0.25846 0.33093 0.28863 0.0
C311 C 0.25684 0.33697 0.27333 0.0
C312 C 0.24479 0.34718 0.27022 0.0
C313 C 0.23418 0.35177 0.2824 0.0
C314 C 0.23559 0.34541 0.29761 0.0
C315 C 0.24752 0.33504 0.30066 0.0
C316 C 0.28362 0.29357 0.32346 0.0
C317 C 0.26961 0.29143 0.33272 0.0
C318 C 0.26953 0.28243 0.34644 0.0
C319 C 0.28349 0.27543 0.35125 0.0
C320 C 0.29751 0.2777 0.34205 0.0
C321 C 0.29756 0.28659 0.32831 0.0
C322 C 0.31163 0.31215 0.27523 0.0
C323 C 0.32234 0.29998 0.27592 0.0
C324 C 0.4436 0.91384 0.53725 0.0
C325 C 0.43136 0.91005 0.52584 0.0
C326 C 0.41638 0.91646 0.52808 0.0
C327 C 0.4138 0.92673 0.54145 0.0
H328 H 0.3874 0.96579 0.55775 0.0
H329 H 0.37109 0.98851 0.55487 0.0
H330 H 0.39339 0.01232 0.59723 0.0
H331 H 0.40985 0.98965 0.60013 0.0
H332 H 0.43259 0.96892 0.62161 0.0
H333 H 0.45267 0.9695 0.64303 0.0
H334 H 0.47722 0.93286 0.61682 0.0
H335 H 0.45737 0.93223 0.59545 0.0
H336 H 0.45069 0.92647 0.55924 0.0
H337 H 0.45519 0.90889 0.53586 0.0
H338 H 0.40676 0.91365 0.51942 0.0
H339 H 0.40219 0.93162 0.54289 0.0
N340 N 0.41256 0.95233 0.56707 0.0
N341 N 0.42104 0.9622 0.59279 0.0
N342 N 0.43332 0.94069 0.58015 0.0
C343 C 0.4112 0.9629 0.57985 0.0
C344 C 0.43207 0.95101 0.59305 0.0
C345 C 0.42364 0.94121 0.56716 0.0
C346 C 0.40006 0.97591 0.57909 0.0
C347 C 0.38875 0.97577 0.56657 0.0
C348 C 0.3793 0.98875 0.56497 0.0
C349 C 0.38101 0.00222 0.5758 0.0
C350 C 0.39193 0.00216 0.58862 0.0
C351 C 0.4013 0.98912 0.5903 0.0
C352 C 0.44341 0.95065 0.6067 0.0
C353 C 0.44219 0.96089 0.62046 0.0
C354 C 0.45362 0.96116 0.63278 0.0
C355 C 0.46654 0.95129 0.63151 0.0
C356 C 0.46749 0.94073 0.61801 0.0
C357 C 0.45604 0.94037 0.60579 0.0
C358 C 0.42605 0.93042 0.55294 0.0
C359 C 0.44095 0.92381 0.55069 0.0
C360 C 0.23951 0.28243 0.68053 0.0
C361 C 0.22863 0.26887 0.67761 0.0
C362 C 0.21488 0.26693 0.68725 0.0
C363 C 0.21215 0.27824 0.69966 0.0
H364 H 0.17912 0.2913 0.73611 0.0
H365 H 0.15769 0.28695 0.75582 0.0
H366 H 0.18476 0.31853 0.79023 0.0
H367 H 0.20606 0.32316 0.77053 0.0
H368 H 0.23135 0.35001 0.75542 0.0
H369 H 0.2469 0.37594 0.7571 0.0
H370 H 0.25989 0.36967 0.70721 0.0
H371 H 0.24483 0.34343 0.70571 0.0
H372 H 0.24538 0.3041 0.69474 0.0
H373 H 0.25011 0.28434 0.67316 0.0
H374 H 0.20634 0.25653 0.68532 0.0
H375 H 0.20148 0.27632 0.70692 0.0
N376 N 0.2089 0.30042 0.72714 0.0
N377 N 0.21599 0.32528 0.74068 0.0
N378 N 0.22937 0.31804 0.71708 0.0
C379 C 0.20674 0.31112 0.7396 0.0
C380 C 0.22725 0.32888 0.72941 0.0
C381 C 0.22031 0.30374 0.71589 0.0
C382 C 0.19423 0.30763 0.75175 0.0
C383 C 0.18055 0.29721 0.74792 0.0
C384 C 0.16828 0.29477 0.75914 0.0
C385 C 0.16964 0.30242 0.77449 0.0
C386 C 0.18351 0.31243 0.77849 0.0
C387 C 0.19562 0.31514 0.76719 0.0
C388 C 0.23686 0.34461 0.73043 0.0
C389 C 0.23753 0.35415 0.7448 0.0
C390 C 0.24637 0.3691 0.74573 0.0
C391 C 0.25462 0.37499 0.73227 0.0
C392 C 0.25391 0.36544 0.71789 0.0
C393 C 0.24521 0.3504 0.71701 0.0
C394 C 0.22304 0.29182 0.7026 0.0
C395 C 0.23671 0.29381 0.69283 0.0
C396 C 0.75811 0.18175 0.74388 0.0
C397 C 0.74279 0.18033 0.73667 0.0
C398 C 0.73758 0.19353 0.72874 0.0
C399 C 0.74746 0.20784 0.7281 0.0
H400 H 0.75983 0.24681 0.69831 0.0
H401 H 0.75465 0.26731 0.67942 0.0
H402 H 0.78537 0.30235 0.70711 0.0
H403 H 0.79079 0.28182 0.726 0.0
H404 H 0.82377 0.26028 0.73934 0.0
H405 H 0.84899 0.26152 0.75433 0.0
H406 H 0.82856 0.22504 0.78511 0.0
H407 H 0.80367 0.22334 0.76975 0.0
H408 H 0.77965 0.19663 0.74903 0.0
H409 H 0.76264 0.17172 0.74981 0.0
H410 H 0.72577 0.19292 0.72322 0.0
H411 H 0.74304 0.21781 0.72198 0.0
N412 N 0.76971 0.23625 0.72521 0.0
N413 N 0.7931 0.25182 0.73381 0.0
N414 N 0.78679 0.22643 0.74411 0.0
C415 C 0.77955 0.25001 0.72461 0.0
C416 C 0.79677 0.24005 0.74361 0.0
C417 C 0.77325 0.22441 0.73497 0.0
C418 C 0.7758 0.26266 0.71362 0.0
C419 C 0.76541 0.2589 0.70046 0.0
C420 C 0.76248 0.27059 0.68961 0.0
C421 C 0.76964 0.28635 0.69183 0.0
C422 C 0.77965 0.29029 0.70521 0.0
C423 C 0.78282 0.27851 0.71593 0.0
C424 C 0.81175 0.24165 0.75329 0.0
C425 C 0.82466 0.25258 0.74936 0.0
C426 C 0.83911 0.25333 0.758 0.0
C427 C 0.84088 0.2433 0.77089 0.0
C428 C 0.82779 0.23267 0.77503 0.0
C429 C 0.81345 0.23178 0.76628 0.0
C430 C 0.76272 0.20928 0.73547 0.0
C431 C 0.76791 0.19605 0.74335 0.0
C432 C 0.53323 0.62474 0.63123 0.0
C433 C 0.53256 0.61202 0.64172 0.0
C434 C 0.54534 0.60197 0.64187 0.0
C435 C 0.55814 0.6041 0.63124 0.0
H436 H 0.59754 0.58263 0.61551 0.0
H437 H 0.6138 0.55975 0.61171 0.0
H438 H 0.63064 0.57754 0.5665 0.0
H439 H 0.61417 0.60034 0.57008 0.0
H440 H 0.59864 0.6299 0.55574 0.0
H441 H 0.59346 0.6453 0.5324 0.0
H442 H 0.5533 0.66515 0.55678 0.0
H443 H 0.55828 0.64973 0.58003 0.0
H444 H 0.54588 0.63644 0.61222 0.0
H445 H 0.52352 0.63264 0.6308 0.0
H446 H 0.54527 0.59223 0.65002 0.0
H447 H 0.56754 0.59582 0.63142 0.0
N448 N 0.58232 0.60637 0.60671 0.0
N449 N 0.59198 0.61677 0.58265 0.0
N450 N 0.57016 0.62776 0.59567 0.0
C451 C 0.59295 0.60611 0.59439 0.0
C452 C 0.58068 0.6277 0.58325 0.0
C453 C 0.57093 0.61719 0.60749 0.0
C454 C 0.60435 0.59328 0.59301 0.0
C455 C 0.60482 0.58181 0.60481 0.0
C456 C 0.61423 0.5687 0.6027 0.0
C457 C 0.62339 0.56674 0.58873 0.0
C458 C 0.62349 0.57857 0.57726 0.0
C459 C 0.6141 0.5917 0.57938 0.0
C460 C 0.57877 0.63838 0.56974 0.0
C461 C 0.5888 0.63767 0.55622 0.0
C462 C 0.58589 0.64655 0.54285 0.0
C463 C 0.57285 0.65628 0.54269 0.0
C464 C 0.56326 0.65752 0.55644 0.0
C465 C 0.56619 0.64872 0.56981 0.0
C466 C 0.55844 0.6163 0.62013 0.0
C467 C 0.54603 0.62685 0.62052 0.0
C468 C 0.57762 0.42178 0.98032 0.0
C469 C 0.56401 0.41078 0.97977 0.0
C470 C 0.55298 0.41105 0.96707 0.0
C471 C 0.55517 0.42263 0.9555 0.0
H472 H 0.53293 0.44335 0.91583 0.0
H473 H 0.51027 0.45022 0.89942 0.0
H474 H 0.53149 0.49899 0.89735 0.0
H475 H 0.55407 0.49226 0.91355 0.0
H476 H 0.58892 0.50098 0.92506 0.0
H477 H 0.61154 0.521 0.92972 0.0
H478 H 0.63598 0.48711 0.95662 0.0
H479 H 0.61345 0.46699 0.95195 0.0
H480 H 0.5904 0.44173 0.96976 0.0
H481 H 0.5864 0.4217 0.98989 0.0
H482 H 0.54233 0.40271 0.96643 0.0
H483 H 0.5462 0.42286 0.94613 0.0
N484 N 0.55788 0.4503 0.93528 0.0
N485 N 0.57256 0.47359 0.92695 0.0
N486 N 0.58367 0.45765 0.94576 0.0
C487 C 0.55901 0.46341 0.92611 0.0
C488 C 0.58499 0.47073 0.93665 0.0
C489 C 0.57021 0.44737 0.94518 0.0
C490 C 0.54533 0.46725 0.916 0.0
C491 C 0.53275 0.45553 0.91187 0.0
C492 C 0.51982 0.45942 0.90245 0.0
C493 C 0.51911 0.47515 0.89724 0.0
C494 C 0.53165 0.48683 0.90138 0.0
C495 C 0.54465 0.48291 0.91056 0.0
C496 C 0.59929 0.4824 0.93824 0.0
C497 C 0.59917 0.4977 0.93183 0.0
C498 C 0.61208 0.50921 0.93456 0.0
C499 C 0.62544 0.50563 0.94362 0.0
C500 C 0.62587 0.49016 0.94951 0.0
C501 C 0.6129 0.47867 0.94691 0.0
C502 C 0.56853 0.43404 0.95636 0.0
C503 C 0.57991 0.43322 0.96871 0.0
C504 C 0.72125 0.27289 0.35999 0.0
C505 C 0.70662 0.2791 0.36455 0.0
C506 C 0.6936 0.2772 0.35371 0.0
C507 C 0.69527 0.26962 0.33858 0.0
H508 H 0.67256 0.26164 0.29521 0.0
H509 H 0.65236 0.26486 0.27478 0.0
H510 H 0.68468 0.24885 0.23806 0.0
H511 H 0.70505 0.24554 0.25853 0.0
H512 H 0.73509 0.22629 0.27063 0.0
H513 H 0.75617 0.208 0.26567 0.0
H514 H 0.76866 0.21172 0.31603 0.0
H515 H 0.74798 0.2303 0.32094 0.0
H516 H 0.73438 0.26072 0.34174 0.0
H517 H 0.73162 0.27434 0.36789 0.0
H518 H 0.68206 0.28155 0.3569 0.0
H519 H 0.68501 0.26847 0.33053 0.0
N520 N 0.70093 0.2579 0.30605 0.0
N521 N 0.71533 0.24229 0.28786 0.0
N522 N 0.72449 0.24706 0.31438 0.0
C523 C 0.7026 0.25117 0.29107 0.0
C524 C 0.72631 0.24013 0.29949 0.0
C525 C 0.71184 0.25598 0.31775 0.0
C526 C 0.69044 0.25329 0.27853 0.0
C527 C 0.67544 0.25883 0.28279 0.0
C528 C 0.66381 0.2606 0.27111 0.0
C529 C 0.66695 0.25706 0.25486 0.0
C530 C 0.682 0.25175 0.25051 0.0
C531 C 0.6936 0.24977 0.26224 0.0
C532 C 0.73973 0.22974 0.29621 0.0
C533 C 0.74241 0.22332 0.28064 0.0
C534 C 0.75446 0.21276 0.2778 0.0
C535 C 0.76409 0.20832 0.29045 0.0
C536 C 0.76166 0.21504 0.30594 0.0
C537 C 0.74967 0.22565 0.30877 0.0
C538 C 0.70996 0.26359 0.33397 0.0
C539 C 0.72287 0.26515 0.34492 0.0
C540 C 0.45773 0.13647 0.98174 0.0
C541 C 0.4459 0.14193 0.99217 0.0
C542 C 0.43017 0.13462 0.99103 0.0
C543 C 0.42645 0.12172 0.98002 0.0
H544 H 0.39273 0.08349 0.9714 0.0
H545 H 0.37095 0.06418 0.97894 0.0
H546 H 0.39002 0.02762 0.94763 0.0
H547 H 0.41193 0.04684 0.94011 0.0
H548 H 0.43944 0.05932 0.91493 0.0
H549 H 0.45972 0.05098 0.8959 0.0
H550 H 0.49339 0.089 0.9152 0.0
H551 H 0.47325 0.09736 0.9343 0.0
H552 H 0.46347 0.1196 0.96294 0.0
H553 H 0.46991 0.14203 0.98227 0.0
H554 H 0.42085 0.13855 0.999 0.0
H555 H 0.41428 0.11612 0.97968 0.0
N556 N 0.42123 0.09174 0.96111 0.0
N557 N 0.4291 0.07397 0.94051 0.0
N558 N 0.44547 0.09739 0.94759 0.0
C559 C 0.41831 0.07793 0.95192 0.0
C560 C 0.44267 0.08368 0.93821 0.0
C561 C 0.43477 0.10154 0.95901 0.0
C562 C 0.40418 0.0667 0.95524 0.0
C563 C 0.39224 0.07139 0.96599 0.0
C564 C 0.37969 0.06035 0.97026 0.0
C565 C 0.37887 0.04438 0.96395 0.0
C566 C 0.39049 0.03981 0.95282 0.0
C567 C 0.40298 0.05087 0.94846 0.0
C568 C 0.45471 0.07899 0.92619 0.0
C569 C 0.45114 0.06595 0.91511 0.0
C570 C 0.46272 0.06121 0.90415 0.0
C571 C 0.47813 0.06931 0.90413 0.0
C572 C 0.48166 0.08243 0.91508 0.0
C573 C 0.47006 0.08726 0.92595 0.0
C574 C 0.43837 0.11598 0.96982 0.0
C575 C 0.45398 0.12369 0.97061 0.0
O576 O 0.23775 0.88289 0.01952 0.0
Cd577 Cd 0.24708 0.8985 0.03767 0.0
Cd578 Cd 0.22453 0.91724 0.02759 0.0
O579 O 0.21803 0.89736 0.01261 0.0
O580 O 0.25947 0.88529 0.05168 0.0
O581 O 0.23773 0.89698 0.05979 0.0
C582 C 0.2492 0.88796 0.06283 0.0
C583 C 0.20488 0.93097 0.0411 0.0
C584 C 0.22554 0.88469 0.01085 0.0
C585 C 0.2591 0.92982 0.02444 0.0
O586 O 0.24445 0.93176 0.02146 0.0
O587 O 0.26288 0.91743 0.03144 0.0
O588 O 0.20659 0.93141 0.02579 0.0
O589 O 0.21402 0.92212 0.04882 0.0
O590 O 0.13861 0.52795 0.27126 0.0
Cd591 Cd 0.12387 0.50888 0.27892 0.0
Cd592 Cd 0.10425 0.51646 0.25549 0.0
O593 O 0.12304 0.5332 0.25111 0.0
O594 O 0.13756 0.49454 0.29025 0.0
O595 O 0.1248 0.48731 0.26741 0.0
C596 C 0.13432 0.48384 0.27877 0.0
C597 C 0.09123 0.5022 0.23392 0.0
C598 C 0.13588 0.5362 0.25929 0.0
C599 C 0.0919 0.51912 0.28926 0.0
O600 O 0.08943 0.52117 0.27452 0.0
O601 O 0.10501 0.51392 0.29382 0.0
O602 O 0.08994 0.5174 0.23662 0.0
O603 O 0.10044 0.49504 0.24327 0.0
O604 O 0.76359 0.67761 0.9947 0.0
Cd605 Cd 0.7556 0.66182 0.01176 0.0
Cd606 Cd 0.77918 0.64485 -5e-05 0.0
O607 O 0.78456 0.6648 0.98671 0.0
O608 O 0.74217 0.67417 0.02681 0.0
O609 O 0.76494 0.66442 0.03402 0.0
C610 C 0.7527 0.67241 0.0378 0.0
C611 C 0.7985 0.63299 0.01451 0.0
C612 C 0.77595 0.67669 0.9859 0.0
C613 C 0.74568 0.62977 0.99566 0.0
O614 O 0.76041 0.62903 0.99206 0.0
O615 O 0.74119 0.64166 0.00413 0.0
O616 O 0.79824 0.63194 0.99905 0.0
O617 O 0.78822 0.6416 0.02176 0.0
O618 O 0.90388 0.03122 0.27387 0.0
Cd619 Cd 0.89072 0.03833 0.25498 0.0
Cd620 Cd 0.87164 0.04833 0.27838 0.0
O621 O 0.89021 0.04282 0.29317 0.0
O622 O 0.90579 0.03838 0.23657 0.0
O623 O 0.89563 0.06043 0.24665 0.0
C624 C 0.90499 0.05376 0.23643 0.0
C625 C 0.86153 0.07361 0.28087 0.0
C626 C 0.90197 0.03491 0.28863 0.0
C627 C 0.85803 0.02134 0.25597 0.0
O628 O 0.85614 0.02963 0.26893 0.0
O629 O 0.87085 0.02356 0.2479 0.0
O630 O 0.85819 0.06284 0.29121 0.0
O631 O 0.87098 0.07011 0.26917 0.0
O632 O 0.26436 0.17436 0.49422 0.0
Cd633 Cd 0.25693 0.1581 0.51115 0.0
Cd634 Cd 0.28019 0.14187 0.49792 0.0
O635 O 0.28585 0.16257 0.486 0.0
O636 O 0.24295 0.1701 0.52596 0.0
O637 O 0.26596 0.16119 0.53355 0.0
C638 C 0.25344 0.16884 0.53709 0.0
C639 C 0.29892 0.12961 0.51285 0.0
C640 C 0.27687 0.17419 0.48554 0.0
C641 C 0.24698 0.12671 0.49359 0.0
O642 O 0.26142 0.12672 0.48879 0.0
O643 O 0.24287 0.13763 0.50357 0.0
O644 O 0.29935 0.12909 0.49739 0.0
O645 O 0.28819 0.13779 0.51993 0.0
O646 O 0.40384 0.52802 0.77582 0.0
Cd647 Cd 0.39031 0.53603 0.75762 0.0
Cd648 Cd 0.37231 0.54579 0.78189 0.0
O649 O 0.39125 0.5397 0.79585 0.0
O650 O 0.40455 0.53551 0.73855 0.0
O651 O 0.39607 0.55805 0.74938 0.0
C652 C 0.40457 0.55099 0.73865 0.0
C653 C 0.36345 0.57158 0.78362 0.0
C654 C 0.40257 0.53148 0.79071 0.0
C655 C 0.35731 0.51962 0.7597 0.0
O656 O 0.35613 0.52742 0.77306 0.0
O657 O 0.36972 0.52206 0.75106 0.0
O658 O 0.36016 0.56155 0.79469 0.0
O659 O 0.37216 0.56707 0.77169 0.0
O660 O 0.73142 0.37795 0.51615 0.0
Cd661 Cd 0.7422 0.39354 0.53369 0.0
Cd662 Cd 0.72088 0.41317 0.52244 0.0
O663 O 0.71238 0.39307 0.50884 0.0
O664 O 0.75474 0.37926 0.54639 0.0
O665 O 0.73505 0.39273 0.55673 0.0
C666 C 0.74601 0.3828 0.55858 0.0
C667 C 0.70319 0.42896 0.53642 0.0
C668 C 0.71917 0.37993 0.50759 0.0
C669 C 0.75585 0.42326 0.51832 0.0
O670 O 0.74145 0.42558 0.51465 0.0
O671 O 0.75883 0.41149 0.52669 0.0
O672 O 0.70409 0.42869 0.521 0.0
O673 O 0.71204 0.41972 0.54401 0.0
O674 O 0.64399 0.02921 0.773 0.0
Cd675 Cd 0.62947 0.01039 0.78142 0.0
Cd676 Cd 0.60965 0.01751 0.75804 0.0
O677 O 0.62899 0.03297 0.75197 0.0
O678 O 0.6438 0.99632 0.79227 0.0
O679 O 0.62943 0.98842 0.77053 0.0
C680 C 0.63969 0.98526 0.78136 0.0
C681 C 0.5948 0.00315 0.73769 0.0
C682 C 0.64166 0.03649 0.76027 0.0
C683 C 0.59834 0.02165 0.79227 0.0
O684 O 0.59586 0.0237 0.77752 0.0
O685 O 0.61118 0.01586 0.79675 0.0
O686 O 0.59455 0.01854 0.73982 0.0
O687 O 0.60407 0.99581 0.74683 0.0
O688 O 0.98805 0.27939 0.91882 0.0
Cd689 Cd 0.99611 0.26164 0.90341 0.0
Cd690 Cd 0.0062 0.28705 0.88707 0.0
O691 O 0.99896 0.30047 0.9067 0.0
O692 O 0.99608 0.24219 0.91634 0.0
O693 O 0.01831 0.25446 0.90685 0.0
C694 C 0.01155 0.24317 0.9152 0.0
C695 C 0.03181 0.29133 0.87638 0.0
C696 C 0.9909 0.29456 0.91823 0.0
C697 C 0.98047 0.26418 0.8717 0.0
O698 O 0.98845 0.27777 0.87138 0.0
O699 O 0.9824 0.25501 0.88318 0.0
O700 O 0.02084 0.30109 0.87402 0.0
O701 O 0.02838 0.27934 0.88536 0.0
O702 O 0.4843 0.77684 0.41655 0.0
Cd703 Cd 0.4926 0.75785 0.40316 0.0
Cd704 Cd 0.50509 0.78106 0.38518 0.0
O705 O 0.49753 0.79609 0.40358 0.0
O706 O 0.49213 0.73949 0.41757 0.0
O707 O 0.51463 0.75093 0.40776 0.0
C708 C 0.50763 0.74034 0.41676 0.0
C709 C 0.53125 0.78468 0.37552 0.0
C710 C 0.48828 0.7917 0.41492 0.0
C711 C 0.47895 0.75821 0.37032 0.0
O712 O 0.48789 0.77115 0.36905 0.0
O713 O 0.47955 0.75025 0.38289 0.0
O714 O 0.52056 0.79448 0.37236 0.0
O715 O 0.52716 0.7729 0.38457 0.0
O716 O 0.99103 0.78035 0.66297 0.0
Cd717 Cd 0.0097 0.77255 0.64933 0.0
Cd718 Cd 0.00036 0.79496 0.62861 0.0
O719 O 0.98488 0.79956 0.64726 0.0
O720 O 0.02394 0.76174 0.66377 0.0
O721 O 0.03173 0.78405 0.65157 0.0
C722 C 0.03505 0.77291 0.66105 0.0
C723 C 0.01014 0.81675 0.61388 0.0
C724 C 0.98257 0.7919 0.65997 0.0
C725 C 0.99842 0.75971 0.61713 0.0
O726 O 0.99605 0.77419 0.61436 0.0
O727 O 0.00407 0.75623 0.63054 0.0
O728 O 0.99529 0.81126 0.61318 0.0
O729 O 0.01954 0.81023 0.62356 0.0
O730 O 0.4867 0.28718 0.16032 0.0
Cd731 Cd 0.50399 0.27765 0.14571 0.0
Cd732 Cd 0.49354 0.29899 0.12552 0.0
O733 O 0.48045 0.3065 0.14486 0.0
O734 O 0.51682 0.26555 0.1604 0.0
O735 O 0.52715 0.28646 0.14747 0.0
C736 C 0.52908 0.27529 0.15737 0.0
C737 C 0.50803 0.31755 0.11016 0.0
C738 C 0.47876 0.29927 0.15786 0.0
C739 C 0.48827 0.26417 0.11519 0.0
O740 O 0.48481 0.27845 0.11285 0.0
O741 O 0.49669 0.26126 0.12727 0.0
O742 O 0.49253 0.3162 0.11004 0.0
O743 O 0.51545 0.30872 0.11961 0.0
H744 H 0.19845 0.81059 0.87403 0.0
H745 H 0.19759 0.82651 0.89919 0.0
H746 H 0.22415 0.7918 0.92264 0.0
H747 H 0.22416 0.7752 0.89773 0.0
H748 H 0.20206 0.80204 0.94216 0.0
H749 H 0.24268 0.82744 0.90928 0.0
H750 H 0.25388 0.8396 0.88494 0.0
H751 H 0.22037 0.87622 0.88903 0.0
H752 H 0.20882 0.86414 0.91328 0.0
H753 H 0.23635 0.85468 0.00575 0.0
H754 H 0.23094 0.83604 0.98253 0.0
H755 H 0.19905 0.86865 0.96309 0.0
H756 H 0.20433 0.88736 0.98628 0.0
H757 H 0.22263 0.85952 0.94181 0.0
H758 H 0.18352 0.8342 0.97657 0.0
H759 H 0.17399 0.82194 0.00146 0.0
H760 H 0.20689 0.78504 0.99456 0.0
H761 H 0.21679 0.79722 0.96973 0.0
C762 C 0.20383 0.80611 0.88458 0.0
C763 C 0.21147 0.79161 0.88377 0.0
C764 C 0.2035 0.81537 0.89894 0.0
C765 C 0.2111 0.81053 0.91274 0.0
C766 C 0.21831 0.79584 0.91213 0.0
C767 C 0.21847 0.78645 0.89781 0.0
C768 C 0.21198 0.82105 0.92763 0.0
C769 C 0.20671 0.81457 0.94211 0.0
C770 C 0.21783 0.83747 0.92755 0.0
C771 C 0.22477 0.84478 0.91299 0.0
C772 C 0.23762 0.83801 0.90491 0.0
C773 C 0.24404 0.8449 0.89115 0.0
C774 C 0.23781 0.85865 0.88542 0.0
C775 C 0.22517 0.86556 0.89347 0.0
C776 C 0.21868 0.8587 0.90723 0.0
C777 C 0.228 0.8578 0.99666 0.0
C778 C 0.22084 0.87255 0.99783 0.0
C779 C 0.22488 0.84709 0.98343 0.0
C780 C 0.21458 0.85097 0.97113 0.0
C781 C 0.20703 0.86545 0.97248 0.0
C782 C 0.21003 0.8761 0.98577 0.0
C783 C 0.21268 0.84053 0.95629 0.0
C784 C 0.21786 0.84703 0.94182 0.0
C785 C 0.20698 0.82411 0.95646 0.0
C786 C 0.201 0.81671 0.97135 0.0
C787 C 0.18882 0.82355 0.98042 0.0
C788 C 0.18333 0.8166 0.99451 0.0
C789 C 0.18985 0.80274 0.99961 0.0
C790 C 0.20186 0.79578 0.99061 0.0
C791 C 0.2074 0.8027 0.97651 0.0
H792 H 0.18559 0.79737 0.01052 0.0
H793 H 0.2428 0.86397 0.87476 0.0
H794 H 0.96936 0.56113 0.37043 0.0
H795 H 0.98937 0.55212 0.35126 0.0
H796 H 0.02586 0.55822 0.38824 0.0
H797 H 0.00598 0.56747 0.40734 0.0
H798 H 0.03743 0.56945 0.36146 0.0
H799 H 0.00812 0.52066 0.37621 0.0
H800 H 0.98402 0.50224 0.38025 0.0
H801 H 0.97279 0.50207 0.33003 0.0
H802 H 0.99671 0.52068 0.32572 0.0
H803 H 0.09527 0.52318 0.32185 0.0
H804 H 0.07503 0.53143 0.34115 0.0
H805 H 0.04045 0.53251 0.30282 0.0
H806 H 0.06058 0.52439 0.28344 0.0
H807 H 0.02813 0.51733 0.33029 0.0
H808 H 0.05784 0.56652 0.31607 0.0
H809 H 0.08242 0.5844 0.31249 0.0
H810 H 0.09343 0.58297 0.36264 0.0
H811 H 0.06902 0.56487 0.36647 0.0
C812 C 0.98165 0.56051 0.37444 0.0
C813 C 0.98613 0.56498 0.39035 0.0
C814 C 0.99306 0.55534 0.36351 0.0
C815 C 0.00907 0.55428 0.36838 0.0
C816 C 0.01359 0.55896 0.38422 0.0
C817 C 0.00224 0.56427 0.3951 0.0
C818 C 0.02114 0.54832 0.35701 0.0
C819 C 0.03547 0.55795 0.35482 0.0
C820 C 0.01849 0.53343 0.34813 0.0
C821 C 0.00412 0.52219 0.35067 0.0
C822 C 0.00044 0.51679 0.36605 0.0
C823 C 0.98683 0.5063 0.36838 0.0
C824 C 0.97686 0.50102 0.35541 0.0
C825 C 0.98051 0.50619 0.34007 0.0
C826 C 0.9941 0.5167 0.33767 0.0
C827 C 0.08333 0.52507 0.31755 0.0
C828 C 0.07954 0.52322 0.30111 0.0
C829 C 0.07181 0.52982 0.32857 0.0
C830 C 0.05632 0.53267 0.32335 0.0
C831 C 0.05236 0.53038 0.30704 0.0
C832 C 0.0639 0.5258 0.296 0.0
C833 C 0.04433 0.53845 0.33482 0.0
C834 C 0.03004 0.52879 0.337 0.0
C835 C 0.04707 0.55324 0.34378 0.0
C836 C 0.0617 0.5642 0.34152 0.0
C837 C 0.06558 0.5699 0.32631 0.0
C838 C 0.07946 0.5801 0.32424 0.0
C839 C 0.0895 0.58478 0.33732 0.0
C840 C 0.08565 0.57931 0.35251 0.0
C841 C 0.07179 0.56909 0.35464 0.0
H842 H 0.10025 0.59268 0.33569 0.0
H843 H 0.96632 0.4929 0.35725 0.0
H844 H 0.76748 0.77921 0.8763 0.0
H845 H 0.7676 0.76388 0.90054 0.0
H846 H 0.7961 0.72913 0.87638 0.0
H847 H 0.79539 0.74394 0.8519 0.0
H848 H 0.77327 0.71426 0.89284 0.0
H849 H 0.81283 0.75822 0.90377 0.0
H850 H 0.82343 0.78669 0.90635 0.0
H851 H 0.78852 0.79604 0.94271 0.0
H852 H 0.77757 0.76765 0.94019 0.0
H853 H 0.79701 0.67506 0.96091 0.0
H854 H 0.79946 0.69267 0.93831 0.0
H855 H 0.76487 0.72276 0.96006 0.0
H856 H 0.76226 0.70519 0.98272 0.0
H857 H 0.79121 0.74018 0.94525 0.0
H858 H 0.75154 0.69587 0.93343 0.0
H859 H 0.74171 0.66717 0.93088 0.0
H860 H 0.77812 0.65841 0.8959 0.0
H861 H 0.78832 0.68703 0.89844 0.0
C862 C 0.77361 0.7682 0.87608 0.0
C863 C 0.78149 0.76284 0.86217 0.0
C864 C 0.77383 0.75956 0.89002 0.0
C865 C 0.78209 0.74551 0.89036 0.0
C866 C 0.78974 0.74 0.87642 0.0
C867 C 0.78944 0.74856 0.86247 0.0
C868 C 0.78258 0.73636 0.90515 0.0
C869 C 0.77741 0.71991 0.90423 0.0
C870 C 0.7877 0.74378 0.9201 0.0
C871 C 0.79428 0.76084 0.92167 0.0
C872 C 0.80733 0.76637 0.91223 0.0
C873 C 0.81342 0.78249 0.91369 0.0
C874 C 0.80663 0.79318 0.92465 0.0
C875 C 0.79376 0.78775 0.9342 0.0
C876 C 0.78761 0.77165 0.93277 0.0
C877 C 0.79013 0.68558 0.96106 0.0
C878 C 0.77931 0.68863 0.97354 0.0
C879 C 0.79152 0.69559 0.94811 0.0
C880 C 0.78219 0.70886 0.94746 0.0
C881 C 0.77213 0.71253 0.96035 0.0
C882 C 0.77063 0.70245 0.97325 0.0
C883 C 0.782 0.71816 0.93282 0.0
C884 C 0.78714 0.7346 0.9338 0.0
C885 C 0.77698 0.71074 0.91788 0.0
C886 C 0.7708 0.69355 0.91626 0.0
C887 C 0.75753 0.68779 0.9253 0.0
C888 C 0.75188 0.67155 0.92384 0.0
C889 C 0.75932 0.66096 0.91326 0.0
C890 C 0.77239 0.66662 0.9041 0.0
C891 C 0.77811 0.68285 0.90554 0.0
H892 H 0.75492 0.64839 0.91214 0.0
H893 H 0.81136 0.80565 0.92577 0.0
H894 H 0.00409 0.9653 0.3713 0.0
H895 H 0.98357 0.97462 0.35358 0.0
H896 H 0.9825 0.01851 0.38297 0.0
H897 H 0.0031 0.00931 0.40066 0.0
H898 H 0.9512 0.00308 0.3734 0.0
H899 H 0.00252 0.0212 0.35101 0.0
H900 H 0.02978 0.01749 0.34076 0.0
H901 H 0.01005 0.98377 0.30407 0.0
H902 H 0.98267 0.9871 0.31426 0.0
H903 H 0.90823 0.04748 0.31911 0.0
H904 H 0.9275 0.0387 0.33839 0.0
H905 H 0.94001 0.00102 0.30443 0.0
H906 H 0.92141 0.01025 0.28492 0.0
H907 H 0.96579 0.01378 0.31711 0.0
H908 H 0.91502 0.99436 0.33865 0.0
H909 H 0.88741 0.9962 0.34877 0.0
H910 H 0.90509 0.0297 0.38657 0.0
H911 H 0.9328 0.02821 0.37655 0.0
C912 C 0.99935 0.97686 0.37404 0.0
C913 C 0.00519 0.98664 0.38727 0.0
C914 C 0.98771 0.98218 0.36391 0.0
C915 C 0.98163 0.99727 0.36697 0.0
C916 C 0.98708 0.00684 0.38045 0.0
C917 C 0.99888 0.00162 0.39045 0.0
C918 C 0.96999 0.0033 0.35577 0.0
C919 C 0.95437 0.00562 0.36113 0.0
C920 C 0.97412 0.0062 0.3397 0.0
C921 C 0.99056 0.00428 0.3335 0.0
C922 C 0.004 0.01289 0.34084 0.0
C923 C 0.01947 0.01087 0.33503 0.0
C924 C 0.02165 0.00037 0.3218 0.0
C925 C 0.00835 0.99188 0.31433 0.0
C926 C 0.99285 0.99384 0.32011 0.0
C927 C 0.9151 0.03732 0.3158 0.0
C928 C 0.91334 0.02957 0.30051 0.0
C929 C 0.92604 0.03223 0.32686 0.0
C930 C 0.93508 0.01902 0.32298 0.0
C931 C 0.93324 0.01126 0.30772 0.0
C932 C 0.92257 0.01654 0.29657 0.0
C933 C 0.94674 0.01344 0.33459 0.0
C934 C 0.96247 0.01125 0.32934 0.0
C935 C 0.9426 0.0104 0.35069 0.0
C936 C 0.92596 0.0113 0.35675 0.0
C937 C 0.91301 0.00221 0.34905 0.0
C938 C 0.89734 0.00318 0.35478 0.0
C939 C 0.8945 0.0131 0.36828 0.0
C940 C 0.90731 0.02204 0.3761 0.0
C941 C 0.923 0.02113 0.37041 0.0
H942 H 0.88236 0.01383 0.3727 0.0
H943 H 0.03363 0.99882 0.31732 0.0
H944 H 0.25677 0.25544 0.67038 0.0
H945 H 0.26186 0.23625 0.64822 0.0
H946 H 0.21239 0.23622 0.6329 0.0
H947 H 0.20719 0.25519 0.65522 0.0
H948 H 0.22156 0.20663 0.63086 0.0
H949 H 0.24342 0.25828 0.61424 0.0
H950 H 0.26042 0.28386 0.61658 0.0
H951 H 0.3028 0.25772 0.61791 0.0
H952 H 0.28602 0.23196 0.6158 0.0
H953 H 0.22656 0.18164 0.54894 0.0
H954 H 0.22342 0.19605 0.57473 0.0
H955 H 0.27224 0.1881 0.58747 0.0
H956 H 0.27551 0.17357 0.56157 0.0
H957 H 0.26513 0.21999 0.59217 0.0
H958 H 0.24235 0.16803 0.60596 0.0
H959 H 0.2246 0.14302 0.60256 0.0
H960 H 0.18305 0.17043 0.60536 0.0
H961 H 0.20056 0.19564 0.60854 0.0
C962 C 0.247 0.25135 0.66226 0.0
C963 C 0.23161 0.25688 0.66446 0.0
C964 C 0.24992 0.2404 0.64961 0.0
C965 C 0.23757 0.23496 0.63875 0.0
C966 C 0.2221 0.24023 0.64113 0.0
C967 C 0.21914 0.25106 0.65388 0.0
C968 C 0.24077 0.22403 0.62475 0.0
C969 C 0.231 0.20962 0.62233 0.0
C970 C 0.25334 0.22774 0.61381 0.0
C971 C 0.26345 0.2432 0.61505 0.0
C972 C 0.25636 0.25799 0.61516 0.0
C973 C 0.26595 0.27252 0.61642 0.0
C974 C 0.28268 0.27241 0.61744 0.0
C975 C 0.28984 0.25778 0.61716 0.0
C976 C 0.28029 0.24321 0.61592 0.0
C977 C 0.2366 0.18281 0.55727 0.0
C978 C 0.2513 0.17648 0.55321 0.0
C979 C 0.23475 0.19099 0.57204 0.0
C980 C 0.24756 0.19304 0.58305 0.0
C981 C 0.2622 0.18659 0.57914 0.0
C982 C 0.26403 0.17826 0.56438 0.0
C983 C 0.2458 0.20272 0.59821 0.0
C984 C 0.25583 0.21691 0.60082 0.0
C985 C 0.23336 0.1989 0.60921 0.0
C986 C 0.22278 0.18375 0.60737 0.0
C987 C 0.22943 0.16874 0.60572 0.0
C988 C 0.21941 0.15452 0.60386 0.0
C989 C 0.20271 0.15514 0.60371 0.0
C990 C 0.19599 0.16998 0.60547 0.0
C991 C 0.20596 0.18423 0.60732 0.0
H992 H 0.19498 0.14412 0.60227 0.0
H993 H 0.29009 0.28367 0.61841 0.0
H994 H 0.51562 0.63325 0.65985 0.0
H995 H 0.49127 0.627 0.67563 0.0
H996 H 0.49256 0.57662 0.66154 0.0
H997 H 0.51662 0.58277 0.64569 0.0
H998 H 0.46229 0.5874 0.65862 0.0
H999 H 0.50579 0.5905 0.69783 0.0
H1000 H 0.52892 0.60419 0.71272 0.0
H1001 H 0.49931 0.64117 0.73008 0.0
H1002 H 0.47604 0.62779 0.7151 0.0
H1003 H 0.42155 0.53904 0.7136 0.0
H1004 H 0.44029 0.5538 0.69629 0.0
H1005 H 0.42971 0.59861 0.72056 0.0
H1006 H 0.41089 0.58379 0.73817 0.0
H1007 H 0.46176 0.59628 0.71779 0.0
H1008 H 0.41709 0.59061 0.68233 0.0
H1009 H 0.39386 0.57686 0.66767 0.0
H1010 H 0.42505 0.54528 0.64313 0.0
H1011 H 0.44845 0.55867 0.65781 0.0
C1012 C 0.51065 0.62086 0.66012 0.0
C1013 C 0.51809 0.60848 0.65165 0.0
C1014 C 0.49681 0.61731 0.66916 0.0
C1015 C 0.49016 0.60135 0.66977 0.0
C1016 C 0.49749 0.58902 0.66121 0.0
C1017 C 0.51133 0.59253 0.6523 0.0
C1018 C 0.47564 0.59721 0.67939 0.0
C1019 C 0.46215 0.5893 0.67156 0.0
C1020 C 0.47527 0.60026 0.69619 0.0
C1021 C 0.48925 0.60827 0.70518 0.0
C1022 C 0.50426 0.60163 0.7047 0.0
C1023 C 0.51738 0.60931 0.71318 0.0
C1024 C 0.5156 0.62357 0.72229 0.0
C1025 C 0.50068 0.63015 0.72298 0.0
C1026 C 0.48752 0.62252 0.7145 0.0
C1027 C 0.42303 0.55205 0.71517 0.0
C1028 C 0.41474 0.56025 0.72727 0.0
C1029 C 0.4337 0.56049 0.70519 0.0
C1030 C 0.43628 0.57733 0.70701 0.0
C1031 C 0.42783 0.58562 0.71891 0.0
C1032 C 0.41706 0.57715 0.72892 0.0
C1033 C 0.44859 0.58592 0.69708 0.0
C1034 C 0.46168 0.59469 0.70481 0.0
C1035 C 0.44857 0.58372 0.68016 0.0
C1036 C 0.43453 0.57561 0.67125 0.0
C1037 C 0.41899 0.58066 0.67389 0.0
C1038 C 0.40579 0.57294 0.66556 0.0
C1039 C 0.40798 0.56019 0.65449 0.0
C1040 C 0.42337 0.55516 0.65171 0.0
C1041 C 0.43662 0.56283 0.66001 0.0
H1042 H 0.39774 0.55423 0.64806 0.0
H1043 H 0.52577 0.6295 0.72886 0.0
H1044 H 0.76015 0.31689 0.69696 0.0
H1045 H 0.75608 0.3367 0.67667 0.0
H1046 H 0.77001 0.30282 0.63956 0.0
H1047 H 0.77381 0.28297 0.65967 0.0
H1048 H 0.78562 0.33575 0.63919 0.0
H1049 H 0.73285 0.30624 0.64307 0.0
H1050 H 0.70872 0.29661 0.65792 0.0
H1051 H 0.69968 0.34544 0.67152 0.0
H1052 H 0.72392 0.35535 0.65693 0.0
H1053 H 0.76314 0.35711 0.56373 0.0
H1054 H 0.76722 0.34433 0.58881 0.0
H1055 H 0.73897 0.37887 0.61369 0.0
H1056 H 0.73429 0.39145 0.58825 0.0
H1057 H 0.73121 0.35036 0.62406 0.0
H1058 H 0.78087 0.3807 0.6177 0.0
H1059 H 0.80523 0.39163 0.60402 0.0
H1060 H 0.82099 0.34393 0.59707 0.0
H1061 H 0.79661 0.33268 0.61051 0.0
C1062 C 0.76234 0.31374 0.68446 0.0
C1063 C 0.76721 0.29842 0.67981 0.0
C1064 C 0.75999 0.32501 0.67293 0.0
C1065 C 0.76275 0.32116 0.65667 0.0
C1066 C 0.76783 0.30597 0.65207 0.0
C1067 C 0.7699 0.29464 0.66352 0.0
C1068 C 0.76031 0.33284 0.64427 0.0
C1069 C 0.77375 0.33894 0.6358 0.0
C1070 C 0.74488 0.33749 0.6404 0.0
C1071 C 0.7303 0.33152 0.64909 0.0
C1072 C 0.72581 0.31491 0.64936 0.0
C1073 C 0.71209 0.30941 0.6577 0.0
C1074 C 0.7027 0.3204 0.66571 0.0
C1075 C 0.70698 0.33693 0.66535 0.0
C1076 C 0.7207 0.3425 0.65704 0.0
C1077 C 0.75784 0.36207 0.57452 0.0
C1078 C 0.74848 0.37536 0.57403 0.0
C1079 C 0.76027 0.3548 0.58892 0.0
C1080 C 0.75374 0.36086 0.60325 0.0
C1081 C 0.74423 0.37406 0.6028 0.0
C1082 C 0.74159 0.38124 0.58828 0.0
C1083 C 0.75651 0.3529 0.61847 0.0
C1084 C 0.74316 0.3475 0.62755 0.0
C1085 C 0.7721 0.34914 0.62311 0.0
C1086 C 0.78684 0.35584 0.61505 0.0
C1087 C 0.78947 0.37252 0.61316 0.0
C1088 C 0.8033 0.37878 0.60546 0.0
C1089 C 0.81464 0.36848 0.59966 0.0
C1090 C 0.8122 0.3519 0.60158 0.0
C1091 C 0.79839 0.34558 0.60926 0.0
H1092 H 0.82533 0.37334 0.5937 0.0
H1093 H 0.69208 0.31612 0.67215 0.0
H1094 H 0.49881 0.95382 0.62634 0.0
H1095 H 0.52035 0.95777 0.64624 0.0
H1096 H 0.48526 0.95571 0.6842 0.0
H1097 H 0.46356 0.95212 0.66419 0.0
H1098 H 0.50534 0.97992 0.69 0.0
H1099 H 0.51128 0.92501 0.6768 0.0
H1100 H 0.5137 0.90047 0.65956 0.0
H1101 H 0.55798 0.92109 0.64042 0.0
H1102 H 0.55573 0.94587 0.65737 0.0
H1103 H 0.58489 0.97095 0.73616 0.0
H1104 H 0.56289 0.95771 0.71958 0.0
H1105 H 0.55788 0.00221 0.6963 0.0
H1106 H 0.57945 0.01552 0.71295 0.0
H1107 H 0.55598 0.95222 0.68784 0.0
H1108 H 0.51926 0.00896 0.69336 0.0
H1109 H 0.51594 0.03177 0.71269 0.0
H1110 H 0.53092 0.00377 0.75112 0.0
H1111 H 0.53409 0.98072 0.73207 0.0
C1112 C 0.4957 0.95394 0.63893 0.0
C1113 C 0.47952 0.95264 0.64374 0.0
C1114 C 0.50803 0.95612 0.65031 0.0
C1115 C 0.50447 0.95678 0.66675 0.0
C1116 C 0.48831 0.9552 0.67159 0.0
C1117 C 0.47593 0.95319 0.66018 0.0
C1118 C 0.51758 0.96055 0.67871 0.0
C1119 C 0.51632 0.97374 0.6896 0.0
C1120 C 0.53181 0.95225 0.67852 0.0
C1121 C 0.53328 0.93735 0.66831 0.0
C1122 C 0.52148 0.92437 0.66884 0.0
C1123 C 0.52283 0.9104 0.65912 0.0
C1124 C 0.53597 0.90923 0.64888 0.0
C1125 C 0.54781 0.92202 0.64836 0.0
C1126 C 0.54652 0.93602 0.65804 0.0
C1127 C 0.57926 0.9778 0.7273 0.0
C1128 C 0.58371 0.99431 0.72598 0.0
C1129 C 0.5667 0.97024 0.71787 0.0
C1130 C 0.55852 0.9791 0.70701 0.0
C1131 C 0.56378 0.99526 0.70489 0.0
C1132 C 0.57616 0.00283 0.71437 0.0
C1133 C 0.54388 0.97196 0.69849 0.0
C1134 C 0.54486 0.95819 0.68833 0.0
C1135 C 0.5292 0.97941 0.69965 0.0
C1136 C 0.52701 0.99314 0.71125 0.0
C1137 C 0.52175 0.00763 0.70595 0.0
C1138 C 0.51991 0.02061 0.71686 0.0
C1139 C 0.52325 0.01923 0.73312 0.0
C1140 C 0.52838 0.00485 0.73851 0.0
C1141 C 0.53021 0.99182 0.72766 0.0
H1142 H 0.52184 0.02931 0.74154 0.0
H1143 H 0.537 0.89841 0.64137 0.0
H1144 H 0.86147 0.26973 0.77918 0.0
H1145 H 0.88667 0.27046 0.79425 0.0
H1146 H 0.88026 0.21903 0.79877 0.0
H1147 H 0.85536 0.21802 0.78317 0.0
H1148 H 0.88761 0.23701 0.82797 0.0
H1149 H 0.90742 0.23197 0.7742 0.0
H1150 H 0.91029 0.23915 0.74599 0.0
H1151 H 0.93058 0.28641 0.76105 0.0
H1152 H 0.92761 0.27959 0.78938 0.0
H1153 H 0.96343 0.23492 0.86605 0.0
H1154 H 0.94125 0.22854 0.84699 0.0
H1155 H 0.94681 0.2771 0.83084 0.0
H1156 H 0.96925 0.28336 0.84933 0.0
H1157 H 0.9403 0.25747 0.80635 0.0
H1158 H 0.91791 0.26459 0.85922 0.0
H1159 H 0.91415 0.25907 0.88779 0.0
H1160 H 0.89783 0.20998 0.87498 0.0
H1161 H 0.90169 0.21517 0.84632 0.0
C1162 C 0.86551 0.25852 0.78312 0.0
C1163 C 0.85632 0.24382 0.77994 0.0
C1164 C 0.87989 0.25898 0.7918 0.0
C1165 C 0.88532 0.24478 0.79754 0.0
C1166 C 0.87622 0.23011 0.79446 0.0
C1167 C 0.86193 0.2296 0.78563 0.0
C1168 C 0.90028 0.24539 0.80715 0.0
C1169 C 0.89921 0.24119 0.8232 0.0
C1170 C 0.91528 0.2512 0.80095 0.0
C1171 C 0.91717 0.25531 0.78392 0.0
C1172 C 0.91238 0.24394 0.77151 0.0
C1173 C 0.91404 0.24794 0.75549 0.0
C1174 C 0.92058 0.26324 0.75173 0.0
C1175 C 0.92551 0.27457 0.76398 0.0
C1176 C 0.92385 0.27063 0.78002 0.0
C1177 C 0.96003 0.24417 0.8583 0.0
C1178 C 0.96803 0.25968 0.8593 0.0
C1179 C 0.9473 0.24053 0.84747 0.0
C1180 C 0.94215 0.25244 0.83769 0.0
C1181 C 0.95053 0.26772 0.83825 0.0
C1182 C 0.96336 0.27129 0.84889 0.0
C1183 C 0.92764 0.24935 0.82733 0.0
C1184 C 0.92877 0.25308 0.81112 0.0
C1185 C 0.91262 0.24335 0.83345 0.0
C1186 C 0.91027 0.24022 0.85065 0.0
C1187 C 0.91364 0.25259 0.86251 0.0
C1188 C 0.91147 0.24953 0.87871 0.0
C1189 C 0.90581 0.23417 0.8832 0.0
C1190 C 0.90225 0.22186 0.87148 0.0
C1191 C 0.90442 0.22486 0.85526 0.0
H1192 H 0.90414 0.23182 0.89574 0.0
H1193 H 0.92186 0.26631 0.73932 0.0
H1194 H 0.41361 0.88252 0.51587 0.0
H1195 H 0.42092 0.86248 0.49515 0.0
H1196 H 0.46327 0.89291 0.48401 0.0
H1197 H 0.4561 0.91285 0.50477 0.0
H1198 H 0.44653 0.8774 0.45649 0.0
H1199 H 0.46793 0.8653 0.50833 0.0
H1200 H 0.46558 0.85968 0.53699 0.0
H1201 H 0.43288 0.81837 0.52538 0.0
H1202 H 0.43485 0.82392 0.49663 0.0
H1203 H 0.49784 0.82383 0.41868 0.0
H1204 H 0.48606 0.84406 0.4362 0.0
H1205 H 0.45128 0.80757 0.45285 0.0
H1206 H 0.46335 0.78721 0.43579 0.0
H1207 H 0.46186 0.82573 0.47702 0.0
H1208 H 0.44142 0.83585 0.42539 0.0
H1209 H 0.44258 0.84117 0.3966 0.0
H1210 H 0.47144 0.88538 0.40711 0.0
H1211 H 0.47064 0.88021 0.43596 0.0
C1212 C 0.42428 0.88503 0.50874 0.0
C1213 C 0.43437 0.89912 0.51191 0.0
C1214 C 0.42847 0.87359 0.497 0.0
C1215 C 0.44268 0.87621 0.48818 0.0
C1216 C 0.45225 0.8907 0.4907 0.0
C1217 C 0.4482 0.90201 0.50257 0.0
C1218 C 0.44836 0.86336 0.47729 0.0
C1219 C 0.44999 0.86612 0.46093 0.0
C1220 C 0.45247 0.84854 0.48311 0.0
C1221 C 0.45139 0.84513 0.50036 0.0
C1222 C 0.46013 0.85511 0.5119 0.0
C1223 C 0.45889 0.85192 0.52816 0.0
C1224 C 0.44905 0.83871 0.53301 0.0
C1225 C 0.44047 0.82862 0.5216 0.0
C1226 C 0.44165 0.83178 0.50533 0.0
C1227 C 0.48771 0.82012 0.4261 0.0
C1228 C 0.48152 0.80392 0.42583 0.0
C1229 C 0.4809 0.83171 0.43603 0.0
C1230 C 0.46757 0.8274 0.44563 0.0
C1231 C 0.46151 0.8112 0.44552 0.0
C1232 C 0.46844 0.79957 0.43576 0.0
C1233 C 0.46017 0.83971 0.45607 0.0
C1234 C 0.45826 0.83689 0.47242 0.0
C1235 C 0.45561 0.85438 0.45017 0.0
C1236 C 0.45609 0.85757 0.43283 0.0
C1237 C 0.44812 0.84665 0.42155 0.0
C1238 C 0.44869 0.84965 0.40523 0.0
C1239 C 0.45711 0.86359 0.40003 0.0
C1240 C 0.46494 0.87458 0.41116 0.0
C1241 C 0.46441 0.87163 0.4275 0.0
H1242 H 0.45754 0.86589 0.38738 0.0
H1243 H 0.4481 0.83626 0.5456 0.0
H1244 H 0.17118 0.29351 0.80546 0.0
H1245 H 0.14907 0.29145 0.82491 0.0
H1246 H 0.1163 0.30574 0.78918 0.0
H1247 H 0.13823 0.30745 0.76963 0.0
H1248 H 0.11719 0.32344 0.82168 0.0
H1249 H 0.11245 0.26984 0.79517 0.0
H1250 H 0.12305 0.24404 0.7864 0.0
H1251 H 0.13397 0.23483 0.83524 0.0
H1252 H 0.12364 0.26072 0.84427 0.0
H1253 H 0.03911 0.30934 0.85073 0.0
H1254 H 0.06413 0.3113 0.83577 0.0
H1255 H 0.08522 0.28031 0.86864 0.0
H1256 H 0.05974 0.27764 0.88325 0.0
H1257 H 0.09293 0.27137 0.8403 0.0
H1258 H 0.09605 0.32253 0.86798 0.0
H1259 H 0.08702 0.34857 0.8782 0.0
H1260 H 0.08156 0.3632 0.83 0.0
H1261 H 0.09034 0.33716 0.81947 0.0
C1262 C 0.15922 0.29611 0.80179 0.0
C1263 C 0.15632 0.30057 0.78608 0.0
C1264 C 0.14666 0.29493 0.81286 0.0
C1265 C 0.13113 0.29847 0.80842 0.0
C1266 C 0.12823 0.30298 0.79277 0.0
C1267 C 0.1407 0.30385 0.78163 0.0
C1268 C 0.11785 0.29766 0.82012 0.0
C1269 C 0.11175 0.31209 0.8257 0.0
C1270 C 0.11133 0.28287 0.82581 0.0
C1271 C 0.11746 0.2673 0.82037 0.0
C1272 C 0.11726 0.26239 0.80402 0.0
C1273 C 0.12318 0.24774 0.799 0.0
C1274 C 0.12923 0.23783 0.81025 0.0
C1275 C 0.12931 0.24254 0.82654 0.0
C1276 C 0.12342 0.25719 0.83161 0.0
C1277 C 0.04912 0.30307 0.8549 0.0
C1278 C 0.04749 0.2934 0.86821 0.0
C1279 C 0.06349 0.30428 0.84637 0.0
C1280 C 0.07675 0.29623 0.85124 0.0
C1281 C 0.07521 0.28669 0.86467 0.0
C1282 C 0.06067 0.28521 0.87304 0.0
C1283 C 0.09184 0.29721 0.84173 0.0
C1284 C 0.09839 0.28281 0.83654 0.0
C1285 C 0.09901 0.3121 0.83667 0.0
C1286 C 0.09375 0.32783 0.84293 0.0
C1287 C 0.09282 0.33125 0.85955 0.0
C1288 C 0.08776 0.34603 0.8654 0.0
C1289 C 0.08369 0.35752 0.85476 0.0
C1290 C 0.08471 0.35428 0.83823 0.0
C1291 C 0.08975 0.33952 0.83231 0.0
H1292 H 0.07977 0.36895 0.85931 0.0
H1293 H 0.1338 0.22649 0.80634 0.0
H1294 H 0.59309 0.67325 0.52251 0.0
H1295 H 0.58573 0.68647 0.49817 0.0
H1296 H 0.53586 0.67075 0.50544 0.0
H1297 H 0.54312 0.65738 0.52949 0.0
H1298 H 0.5451 0.66587 0.4742 0.0
H1299 H 0.54993 0.70875 0.5159 0.0
H1300 H 0.56442 0.72589 0.53698 0.0
H1301 H 0.59994 0.74163 0.50274 0.0
H1302 H 0.58575 0.72441 0.4815 0.0
H1303 H 0.49594 0.71644 0.43569 0.0
H1304 H 0.51093 0.70102 0.4538 0.0
H1305 H 0.55545 0.72532 0.43847 0.0
H1306 H 0.54042 0.74107 0.42034 0.0
H1307 H 0.55395 0.72516 0.47056 0.0
H1308 H 0.5467 0.68565 0.4279 0.0
H1309 H 0.53216 0.66872 0.40673 0.0
H1310 H 0.50169 0.64648 0.44212 0.0
H1311 H 0.51589 0.66344 0.46351 0.0
C1312 C 0.58058 0.67257 0.51884 0.0
C1313 C 0.56866 0.6644 0.52798 0.0
C1314 C 0.57639 0.68016 0.505 0.0
C1315 C 0.56024 0.67964 0.50006 0.0
C1316 C 0.54839 0.67129 0.50903 0.0
C1317 C 0.55254 0.6638 0.52287 0.0
C1318 C 0.55541 0.68796 0.48571 0.0
C1319 C 0.54698 0.67884 0.4734 0.0
C1320 C 0.5584 0.7048 0.48441 0.0
C1321 C 0.5669 0.71515 0.49717 0.0
C1322 C 0.56091 0.71576 0.5129 0.0
C1323 C 0.56905 0.72551 0.52487 0.0
C1324 C 0.58313 0.7348 0.52121 0.0
C1325 C 0.58906 0.7344 0.50557 0.0
C1326 C 0.58097 0.72465 0.49356 0.0
C1327 C 0.50894 0.7184 0.43599 0.0
C1328 C 0.51698 0.72999 0.42657 0.0
C1329 C 0.51751 0.7095 0.44631 0.0
C1330 C 0.53434 0.71187 0.44737 0.0
C1331 C 0.54248 0.72325 0.43779 0.0
C1332 C 0.53387 0.73219 0.42741 0.0
C1333 C 0.54314 0.70314 0.45927 0.0
C1334 C 0.55234 0.71215 0.47113 0.0
C1335 C 0.54091 0.68618 0.46012 0.0
C1336 C 0.53233 0.6759 0.44731 0.0
C1337 C 0.53683 0.67723 0.43117 0.0
C1338 C 0.52866 0.66761 0.41913 0.0
C1339 C 0.516 0.65655 0.42308 0.0
C1340 C 0.5115 0.65506 0.43908 0.0
C1341 C 0.51963 0.66465 0.45117 0.0
H1342 H 0.50968 0.64912 0.41374 0.0
H1343 H 0.58941 0.74234 0.53049 0.0
H1344 H 0.86061 0.78515 0.75056 0.0
H1345 H 0.88543 0.7847 0.73519 0.0
H1346 H 0.87879 0.83217 0.71907 0.0
H1347 H 0.85407 0.83296 0.73483 0.0
H1348 H 0.88728 0.80993 0.6945 0.0
H1349 H 0.90559 0.82924 0.74693 0.0
H1350 H 0.90752 0.82874 0.77637 0.0
H1351 H 0.92772 0.78286 0.77215 0.0
H1352 H 0.92569 0.78297 0.74267 0.0
H1353 H 0.96469 0.8181 0.65967 0.0
H1354 H 0.9414 0.82345 0.67626 0.0
H1355 H 0.94672 0.7798 0.70095 0.0
H1356 H 0.97028 0.77461 0.68476 0.0
H1357 H 0.93914 0.80272 0.72151 0.0
H1358 H 0.91897 0.7817 0.67007 0.0
H1359 H 0.9163 0.78071 0.64062 0.0
H1360 H 0.89893 0.82797 0.64283 0.0
H1361 H 0.9017 0.82933 0.67231 0.0
C1362 C 0.86449 0.7956 0.74391 0.0
C1363 C 0.85541 0.80917 0.74407 0.0
C1364 C 0.87865 0.79528 0.73508 0.0
C1365 C 0.88401 0.80848 0.72617 0.0
C1366 C 0.87482 0.82188 0.72592 0.0
C1367 C 0.86068 0.82227 0.73486 0.0
C1368 C 0.89924 0.80816 0.71714 0.0
C1369 C 0.89869 0.80866 0.70039 0.0
C1370 C 0.914 0.8061 0.72487 0.0
C1371 C 0.91536 0.80606 0.74259 0.0
C1372 C 0.91033 0.81899 0.75228 0.0
C1373 C 0.91146 0.81879 0.76897 0.0
C1374 C 0.91771 0.80576 0.77612 0.0
C1375 C 0.92288 0.79293 0.76659 0.0
C1376 C 0.92175 0.79307 0.74989 0.0
C1377 C 0.96099 0.8097 0.66873 0.0
C1378 C 0.96927 0.79586 0.67082 0.0
C1379 C 0.94762 0.81274 0.67815 0.0
C1380 C 0.94213 0.80187 0.68964 0.0
C1381 C 0.95071 0.78834 0.69212 0.0
C1382 C 0.96418 0.78538 0.68283 0.0
C1383 C 0.9272 0.80427 0.69879 0.0
C1384 C 0.92778 0.80416 0.71559 0.0
C1385 C 0.91242 0.8065 0.69109 0.0
C1386 C 0.91071 0.80569 0.67337 0.0
C1387 C 0.9147 0.79193 0.66427 0.0
C1388 C 0.91315 0.79129 0.64757 0.0
C1389 C 0.90749 0.80429 0.63985 0.0
C1390 C 0.90333 0.81793 0.64882 0.0
C1391 C 0.90488 0.81863 0.66553 0.0
H1392 H 0.9063 0.80377 0.62693 0.0
H1393 H 0.91858 0.80563 0.78905 0.0
H1394 H 0.02969 0.89529 0.49015 0.0
H1395 H 0.02418 0.88043 0.51432 0.0
H1396 H 0.0695 0.89988 0.53472 0.0
H1397 H 0.07483 0.91544 0.51098 0.0
H1398 H 0.06169 0.86489 0.53728 0.0
H1399 H 0.04008 0.91611 0.54862 0.0
H1400 H 0.02394 0.93872 0.5427 0.0
H1401 H 0.98112 0.90654 0.54013 0.0
H1402 H 0.99706 0.88368 0.5458 0.0
H1403 H 0.04045 0.83223 0.61262 0.0
H1404 H 0.05043 0.85146 0.5929 0.0
H1405 H 0.00348 0.84819 0.57057 0.0
H1406 H 0.99338 0.8296 0.5904 0.0
H1407 H 0.01503 0.87773 0.57108 0.0
H1408 H 0.03559 0.82643 0.5561 0.0
H1409 H 0.05075 0.80265 0.56018 0.0
H1410 H 0.09418 0.83331 0.56777 0.0
H1411 H 0.07922 0.85729 0.56393 0.0
C1412 C 0.03845 0.89656 0.4998 0.0
C1413 C 0.05267 0.90668 0.49859 0.0
C1414 C 0.03532 0.88796 0.51355 0.0
C1415 C 0.04641 0.88917 0.52627 0.0
C1416 C 0.06084 0.89879 0.52497 0.0
C1417 C 0.06388 0.90759 0.51132 0.0
C1418 C 0.04266 0.88067 0.54109 0.0
C1419 C 0.05168 0.86783 0.54488 0.0
C1420 C 0.02943 0.88441 0.55075 0.0
C1421 C 0.01979 0.89816 0.54751 0.0
C1422 C 0.02724 0.91383 0.54667 0.0
C1423 C 0.01812 0.9267 0.54338 0.0
C1424 C 0.00152 0.92406 0.54101 0.0
C1425 C 0.99399 0.90856 0.54196 0.0
C1426 C 0.00305 0.89565 0.54523 0.0
C1427 C 0.03224 0.83579 0.60361 0.0
C1428 C 0.01615 0.82934 0.60303 0.0
C1429 C 0.03797 0.8467 0.5923 0.0
C1430 C 0.02776 0.85109 0.58009 0.0
C1431 C 0.01159 0.84502 0.57986 0.0
C1432 C 0.00584 0.83433 0.59121 0.0
C1433 C 0.03378 0.86156 0.56714 0.0
C1434 C 0.0252 0.87485 0.56368 0.0
C1435 C 0.04726 0.85804 0.55762 0.0
C1436 C 0.05625 0.84365 0.55993 0.0
C1437 C 0.04835 0.8281 0.55877 0.0
C1438 C 0.05691 0.81459 0.56101 0.0
C1439 C 0.07341 0.81647 0.56429 0.0
C1440 C 0.08139 0.83187 0.56527 0.0
C1441 C 0.07288 0.84542 0.56306 0.0
H1442 H 0.08002 0.806 0.56602 0.0
H1443 H 0.99448 0.93404 0.53846 0.0
H1444 H 0.15359 0.73872 0.74379 0.0
H1445 H 0.13206 0.74245 0.7248 0.0
H1446 H 0.1464 0.79337 0.72502 0.0
H1447 H 0.16779 0.78971 0.74438 0.0
H1448 H 0.11538 0.78935 0.72746 0.0
H1449 H 0.15342 0.76714 0.69216 0.0
H1450 H 0.17282 0.74805 0.68247 0.0
H1451 H 0.1353 0.70968 0.68012 0.0
H1452 H 0.1157 0.72849 0.69002 0.0
H1453 H 0.05891 0.7975 0.6636 0.0
H1454 H 0.08484 0.7974 0.67759 0.0
H1455 H 0.07312 0.74812 0.68966 0.0
H1456 H 0.04726 0.74815 0.67592 0.0
H1457 H 0.10486 0.7541 0.67841 0.0
H1458 H 0.06796 0.7766 0.71683 0.0
H1459 H 0.04889 0.79618 0.72621 0.0
H1460 H 0.08537 0.83497 0.72162 0.0
H1461 H 0.1046 0.81562 0.71199 0.0
C1462 C 0.1523 0.75067 0.73961 0.0
C1463 C 0.1624 0.76391 0.7455 0.0
C1464 C 0.14 0.7528 0.72872 0.0
C1465 C 0.13774 0.76816 0.72325 0.0
C1466 C 0.14792 0.7814 0.72903 0.0
C1467 C 0.16012 0.7793 0.74009 0.0
C1468 C 0.12424 0.77044 0.71214 0.0
C1469 C 0.11331 0.78187 0.71655 0.0
C1470 C 0.12138 0.76059 0.69797 0.0
C1471 C 0.13311 0.74922 0.69194 0.0
C1472 C 0.14932 0.75461 0.68968 0.0
C1473 C 0.16035 0.74384 0.68414 0.0
C1474 C 0.1553 0.72765 0.68071 0.0
C1475 C 0.1392 0.72221 0.68279 0.0
C1476 C 0.12812 0.73293 0.68834 0.0
C1477 C 0.06192 0.78662 0.66916 0.0
C1478 C 0.05102 0.77286 0.66874 0.0
C1479 C 0.0767 0.7866 0.67715 0.0
C1480 C 0.08083 0.77276 0.68469 0.0
C1481 C 0.07016 0.7589 0.68389 0.0
C1482 C 0.05535 0.75897 0.6761 0.0
C1483 C 0.09599 0.77274 0.69394 0.0
C1484 C 0.10719 0.76174 0.68917 0.0
C1485 C 0.09919 0.78308 0.70767 0.0
C1486 C 0.08765 0.79469 0.7135 0.0
C1487 C 0.07187 0.78932 0.71768 0.0
C1488 C 0.06104 0.80037 0.72307 0.0
C1489 C 0.0659 0.81681 0.72445 0.0
C1490 C 0.08161 0.82223 0.7205 0.0
C1491 C 0.09248 0.81123 0.71508 0.0
H1492 H 0.0575 0.82535 0.72863 0.0
H1493 H 0.16387 0.71933 0.67642 0.0
H1494 H 0.97812 0.65284 0.50056 0.0
H1495 H 0.98653 0.67405 0.52063 0.0
H1496 H 0.93883 0.67097 0.5408 0.0
H1497 H 0.93003 0.6505 0.52014 0.0
H1498 H 0.9494 0.70086 0.54056 0.0
H1499 H 0.97071 0.6529 0.55792 0.0
H1500 H 0.9859 0.62865 0.55547 0.0
H1501 H 0.02942 0.65815 0.54743 0.0
H1502 H 0.01443 0.68257 0.54962 0.0
H1503 H 0.99432 0.72719 0.62081 0.0
H1504 H 0.98569 0.70624 0.60042 0.0
H1505 H 0.98497 0.7422 0.56493 0.0
H1506 H 0.99303 0.76322 0.58532 0.0
H1507 H 0.99776 0.6951 0.5739 0.0
H1508 H 0.95546 0.73257 0.53804 0.0
H1509 H 0.93828 0.75514 0.54278 0.0
H1510 H 0.93303 0.7435 0.59215 0.0
H1511 H 0.94999 0.72075 0.58765 0.0
C1512 C 0.96932 0.65686 0.50907 0.0
C1513 C 0.9534 0.64986 0.50877 0.0
C1514 C 0.97422 0.66885 0.52068 0.0
C1515 C 0.9634 0.67388 0.53242 0.0
C1516 C 0.94742 0.66721 0.53193 0.0
C1517 C 0.94245 0.65537 0.5202 0.0
C1518 C 0.96874 0.68599 0.5453 0.0
C1519 C 0.95998 0.6996 0.54784 0.0
C1520 C 0.98235 0.68419 0.55504 0.0
C1521 C 0.99142 0.66954 0.55379 0.0
C1522 C 0.9835 0.6542 0.55552 0.0
C1523 C 0.99207 0.64043 0.55419 0.0
C1524 C 0.00861 0.64185 0.55125 0.0
C1525 C 0.01661 0.65706 0.54968 0.0
C1526 C 0.00808 0.67087 0.55098 0.0
C1527 C 0.99236 0.73062 0.60865 0.0
C1528 C 0.99419 0.74687 0.6047 0.0
C1529 C 0.98745 0.71863 0.59701 0.0
C1530 C 0.98442 0.72268 0.58121 0.0
C1531 C 0.98685 0.73883 0.57712 0.0
C1532 C 0.99153 0.75083 0.58878 0.0
C1533 C 0.97852 0.71004 0.56904 0.0
C1534 C 0.98719 0.69636 0.56661 0.0
C1535 C 0.96453 0.71152 0.55974 0.0
C1536 C 0.95413 0.72506 0.56253 0.0
C1537 C 0.95059 0.73479 0.54989 0.0
C1538 C 0.94089 0.74762 0.55254 0.0
C1539 C 0.93461 0.75078 0.56777 0.0
C1540 C 0.93795 0.74108 0.58037 0.0
C1541 C 0.94762 0.72823 0.57778 0.0
H1542 H 0.92712 0.76073 0.5698 0.0
H1543 H 0.01523 0.63118 0.55023 0.0
H1544 H 0.78174 0.88576 0.21573 0.0
H1545 H 0.79832 0.91117 0.21778 0.0
H1546 H 0.76231 0.93229 0.24732 0.0
H1547 H 0.74515 0.90721 0.24448 0.0
H1548 H 0.77465 0.95375 0.22786 0.0
H1549 H 0.79617 0.91757 0.26369 0.0
H1550 H 0.8068 0.89228 0.27165 0.0
H1551 H 0.84596 0.89916 0.2387 0.0
H1552 H 0.83544 0.92439 0.23039 0.0
H1553 H 0.82766 0.01529 0.26787 0.0
H1554 H 0.8085 0.99224 0.26088 0.0
H1555 H 0.8416 0.97476 0.22571 0.0
H1556 H 0.86076 0.99776 0.2325 0.0
H1557 H 0.83067 0.95188 0.24747 0.0
H1558 H 0.80892 0.98954 0.21302 0.0
H1559 H 0.79803 0.01519 0.20664 0.0
H1560 H 0.75899 0.006 0.23926 0.0
H1561 H 0.76978 0.98038 0.24601 0.0
C1562 C 0.77715 0.89588 0.22239 0.0
C1563 C 0.76212 0.89434 0.23005 0.0
C1564 C 0.78676 0.91037 0.22372 0.0
C1565 C 0.78172 0.92354 0.233 0.0
C1566 C 0.76651 0.92225 0.2402 0.0
C1567 C 0.75679 0.90782 0.23872 0.0
C1568 C 0.79255 0.93843 0.23566 0.0
C1569 C 0.78684 0.95336 0.23231 0.0
C1570 C 0.80853 0.93792 0.24129 0.0
C1571 C 0.81492 0.92278 0.2463 0.0
C1572 C 0.80698 0.91363 0.25806 0.0
C1573 C 0.813 0.89931 0.26265 0.0
C1574 C 0.82702 0.89409 0.25565 0.0
C1575 C 0.83508 0.9032 0.24409 0.0
C1576 C 0.82911 0.91752 0.23945 0.0
C1577 C 0.83078 0.00665 0.25851 0.0
C1578 C 0.84577 0.00833 0.25079 0.0
C1579 C 0.8198 0.99353 0.2545 0.0
C1580 C 0.82366 0.98184 0.24277 0.0
C1581 C 0.83842 0.98367 0.23479 0.0
C1582 C 0.84933 0.99685 0.23867 0.0
C1583 C 0.8128 0.96713 0.23959 0.0
C1584 C 0.8185 0.95224 0.24293 0.0
C1585 C 0.79678 0.96773 0.2342 0.0
C1586 C 0.79025 0.98311 0.23014 0.0
C1587 C 0.7981 0.99305 0.21894 0.0
C1588 C 0.79192 0.00758 0.21524 0.0
C1589 C 0.77785 0.01225 0.22258 0.0
C1590 C 0.7699 0.00238 0.2336 0.0
C1591 C 0.77603 0.98785 0.23736 0.0
H1592 H 0.77309 0.02349 0.21969 0.0
H1593 H 0.83166 0.88301 0.25922 0.0
H1594 H 0.76109 0.1808 0.27103 0.0
H1595 H 0.77972 0.15965 0.26837 0.0
H1596 H 0.81242 0.18646 0.30168 0.0
H1597 H 0.79419 0.20808 0.30384 0.0
H1598 H 0.82884 0.17205 0.27834 0.0
H1599 H 0.78645 0.15637 0.31442 0.0
H1600 H 0.75831 0.15111 0.32298 0.0
H1601 H 0.75036 0.11496 0.28481 0.0
H1602 H 0.77841 0.12017 0.27588 0.0
H1603 H 0.84515 0.08592 0.30622 0.0
H1604 H 0.83097 0.11048 0.30767 0.0
H1605 H 0.84621 0.12076 0.2596 0.0
H1606 H 0.86085 0.09635 0.25826 0.0
H1607 H 0.80643 0.11728 0.2912 0.0
H1608 H 0.84744 0.16139 0.25469 0.0
H1609 H 0.8763 0.16729 0.24913 0.0
H1610 H 0.88859 0.14746 0.29367 0.0
H1611 H 0.85981 0.14164 0.2996 0.0
C1612 C 0.7724 0.18241 0.27752 0.0
C1613 C 0.77606 0.19611 0.28777 0.0
C1614 C 0.78298 0.17021 0.2761 0.0
C1615 C 0.79733 0.17134 0.28505 0.0
C1616 C 0.80137 0.1853 0.29472 0.0
C1617 C 0.79085 0.19756 0.29608 0.0
C1618 C 0.80762 0.15756 0.28504 0.0
C1619 C 0.82396 0.16006 0.2811 0.0
C1620 C 0.80133 0.14199 0.28901 0.0
C1621 C 0.78448 0.13877 0.29439 0.0
C1622 C 0.77867 0.14738 0.30778 0.0
C1623 C 0.76274 0.14439 0.31271 0.0
C1624 C 0.75254 0.13273 0.30442 0.0
C1625 C 0.75827 0.124 0.2912 0.0
C1626 C 0.77418 0.12696 0.28621 0.0
C1627 C 0.84565 0.09349 0.29602 0.0
C1628 C 0.85409 0.08917 0.28211 0.0
C1629 C 0.8375 0.10752 0.29685 0.0
C1630 C 0.83752 0.11751 0.28377 0.0
C1631 C 0.8462 0.11339 0.26995 0.0
C1632 C 0.85452 0.0994 0.26917 0.0
C1633 C 0.8277 0.13167 0.28435 0.0
C1634 C 0.81137 0.12924 0.28838 0.0
C1635 C 0.83413 0.14735 0.28087 0.0
C1636 C 0.85147 0.15092 0.27749 0.0
C1637 C 0.85631 0.15833 0.26332 0.0
C1638 C 0.87265 0.16166 0.2601 0.0
C1639 C 0.88427 0.1577 0.27101 0.0
C1640 C 0.87958 0.15046 0.28519 0.0
C1641 C 0.86325 0.14712 0.28848 0.0
H1642 H 0.89692 0.16027 0.26849 0.0
H1643 H 0.74022 0.13044 0.30825 0.0
H1644 H 0.38296 0.01399 0.97308 0.0
H1645 H 0.36268 0.99451 0.98352 0.0
H1646 H 0.32637 0.02811 0.97807 0.0
H1647 H 0.34671 0.04777 0.96782 0.0
H1648 H 0.32367 0.01512 0.00626 0.0
H1649 H 0.32889 0.99488 0.95201 0.0
H1650 H 0.34324 0.98553 0.92794 0.0
H1651 H 0.36057 0.94693 0.95376 0.0
H1652 H 0.3465 0.95619 0.97807 0.0
H1653 H 0.25517 0.95952 0.01317 0.0
H1654 H 0.27595 0.97897 0.00358 0.0
H1655 H 0.31239 0.94696 0.01429 0.0
H1656 H 0.29166 0.92736 0.02394 0.0
H1657 H 0.31517 0.95889 0.98375 0.0
H1658 H 0.30913 0.9793 0.03796 0.0
H1659 H 0.29417 0.98876 0.0616 0.0
H1660 H 0.27753 0.02721 0.03507 0.0
H1661 H 0.29221 0.01784 0.01119 0.0
C1662 C 0.37061 0.01713 0.97391 0.0
C1663 C 0.36638 0.03235 0.96955 0.0
C1664 C 0.35904 0.006 0.97989 0.0
C1665 C 0.34297 0.00978 0.9814 0.0
C1666 C 0.3387 0.02495 0.97702 0.0
C1667 C 0.35031 0.03616 0.97116 0.0
C1668 C 0.33069 0.99802 0.9879 0.0
C1669 C 0.32165 0.0029 0.00119 0.0
C1670 C 0.32833 0.98196 0.98152 0.0
C1671 C 0.33677 0.97632 0.9669 0.0
C1672 C 0.33587 0.98447 0.95259 0.0
C1673 C 0.34393 0.97917 0.9389 0.0
C1674 C 0.35285 0.96567 0.93933 0.0
C1675 C 0.35368 0.9574 0.95345 0.0
C1676 C 0.34565 0.96266 0.96719 0.0
C1677 C 0.26761 0.95662 0.01357 0.0
C1678 C 0.27177 0.94188 0.01932 0.0
C1679 C 0.27947 0.96778 0.00814 0.0
C1680 C 0.29569 0.96441 0.00832 0.0
C1681 C 0.29992 0.94976 0.01408 0.0
C1682 C 0.28807 0.93862 0.01964 0.0
C1683 C 0.30816 0.97603 0.00204 0.0
C1684 C 0.31722 0.97112 0.98881 0.0
C1685 C 0.31045 0.99209 0.00838 0.0
C1686 C 0.30164 0.99777 0.02274 0.0
C1687 C 0.30217 0.98969 0.03712 0.0
C1688 C 0.29376 0.99505 0.05057 0.0
C1689 C 0.28487 0.00855 0.04982 0.0
C1690 C 0.2844 0.01674 0.03563 0.0
C1691 C 0.29278 0.01142 0.02214 0.0
H1692 H 0.27838 0.01268 0.06025 0.0
H1693 H 0.35908 0.96158 0.92872 0.0
H1694 H 0.20337 0.35254 0.29403 0.0
H1695 H 0.18498 0.37367 0.29118 0.0
H1696 H 0.21925 0.3989 0.26079 0.0
H1697 H 0.23807 0.37841 0.26437 0.0
H1698 H 0.20922 0.41897 0.28182 0.0
H1699 H 0.18333 0.37886 0.24601 0.0
H1700 H 0.17105 0.352 0.23726 0.0
H1701 H 0.13471 0.35562 0.27336 0.0
H1702 H 0.1469 0.38242 0.28248 0.0
H1703 H 0.13512 0.46132 0.25383 0.0
H1704 H 0.15056 0.4374 0.25246 0.0
H1705 H 0.16598 0.44753 0.30149 0.0
H1706 H 0.15097 0.47155 0.30283 0.0
H1707 H 0.15119 0.40993 0.26806 0.0
H1708 H 0.20477 0.44075 0.30536 0.0
H1709 H 0.2177 0.46806 0.31122 0.0
H1710 H 0.20008 0.48351 0.26657 0.0
H1711 H 0.18725 0.45626 0.26035 0.0
C1712 C 0.20703 0.36261 0.28678 0.0
C1713 C 0.22227 0.36376 0.27949 0.0
C1714 C 0.19639 0.37458 0.28497 0.0
C1715 C 0.20065 0.38783 0.27564 0.0
C1716 C 0.21567 0.38879 0.26803 0.0
C1717 C 0.22637 0.37693 0.26996 0.0
C1718 C 0.19 0.40125 0.27472 0.0
C1719 C 0.19655 0.41695 0.27875 0.0
C1720 C 0.1735 0.39871 0.27047 0.0
C1721 C 0.16612 0.3826 0.26501 0.0
C1722 C 0.17279 0.37388 0.25216 0.0
C1723 C 0.16583 0.35867 0.24712 0.0
C1724 C 0.15213 0.35209 0.25477 0.0
C1725 C 0.14533 0.36072 0.26746 0.0
C1726 C 0.15225 0.37594 0.27255 0.0
C1727 C 0.14168 0.45834 0.26436 0.0
C1728 C 0.14201 0.46842 0.27837 0.0
C1729 C 0.15045 0.44466 0.26357 0.0
C1730 C 0.15965 0.44086 0.27677 0.0
C1731 C 0.15923 0.45042 0.29105 0.0
C1732 C 0.15062 0.46414 0.2918 0.0
C1733 C 0.17041 0.42749 0.27546 0.0
C1734 C 0.16388 0.41187 0.27105 0.0
C1735 C 0.18705 0.43011 0.27895 0.0
C1736 C 0.19493 0.4465 0.28248 0.0
C1737 C 0.20372 0.44996 0.29677 0.0
C1738 C 0.21102 0.46543 0.30015 0.0
C1739 C 0.20967 0.47752 0.2893 0.0
C1740 C 0.20107 0.47415 0.275 0.0
C1741 C 0.19377 0.4587 0.27155 0.0
H1742 H 0.21531 0.48949 0.29195 0.0
H1743 H 0.14676 0.34031 0.25085 0.0
H1744 H 0.14966 0.01376 0.42529 0.0
H1745 H 0.17127 0.0349 0.43171 0.0
H1746 H 0.1511 0.04267 0.47873 0.0
H1747 H 0.12969 0.02152 0.47247 0.0
H1748 H 0.15875 0.0714 0.46102 0.0
H1749 H 0.18189 0.02267 0.47683 0.0
H1750 H 0.19049 0.99521 0.47188 0.0
H1751 H 0.22236 0.01208 0.43488 0.0
H1752 H 0.21376 0.03962 0.43946 0.0
H1753 H 0.2175 0.1183 0.50617 0.0
H1754 H 0.19744 0.09747 0.49591 0.0
H1755 H 0.2287 0.08603 0.45651 0.0
H1756 H 0.24911 0.10645 0.4671 0.0
H1757 H 0.2158 0.05952 0.46718 0.0
H1758 H 0.19505 0.10809 0.4517 0.0
H1759 H 0.18655 0.13575 0.45498 0.0
H1760 H 0.15034 0.11998 0.48851 0.0
H1761 H 0.15877 0.09225 0.48561 0.0
C1762 C 0.14991 0.02 0.43698 0.0
C1763 C 0.13813 0.01599 0.44844 0.0
C1764 C 0.16222 0.03199 0.44063 0.0
C1765 C 0.16272 0.04026 0.45569 0.0
C1766 C 0.15087 0.03639 0.46705 0.0
C1767 C 0.13875 0.02426 0.46351 0.0
C1768 C 0.17555 0.05303 0.45974 0.0
C1769 C 0.17122 0.06885 0.46249 0.0
C1770 C 0.19184 0.04968 0.46106 0.0
C1771 C 0.19704 0.03315 0.45835 0.0
C1772 C 0.19061 0.02049 0.46753 0.0
C1773 C 0.19551 0.00492 0.46482 0.0
C1774 C 0.20692 0.00189 0.45304 0.0
C1775 C 0.2135 0.01444 0.44398 0.0
C1776 C 0.20862 0.03003 0.44663 0.0
C1777 C 0.2201 0.11136 0.49532 0.0
C1778 C 0.23486 0.11406 0.48741 0.0
C1779 C 0.20858 0.09951 0.4894 0.0
C1780 C 0.21142 0.09039 0.47524 0.0
C1781 C 0.22622 0.09295 0.46741 0.0
C1782 C 0.23786 0.10464 0.47347 0.0
C1783 C 0.19902 0.078 0.46882 0.0
C1784 C 0.20339 0.06222 0.46557 0.0
C1785 C 0.18278 0.08145 0.46676 0.0
C1786 C 0.17763 0.09811 0.46853 0.0
C1787 C 0.18535 0.11054 0.45986 0.0
C1788 C 0.18053 0.12623 0.46164 0.0
C1789 C 0.16793 0.12963 0.47197 0.0
C1790 C 0.1601 0.11733 0.48052 0.0
C1791 C 0.16488 0.10162 0.4788 0.0
H1792 H 0.16422 0.14178 0.47334 0.0
H1793 H 0.21071 0.98983 0.45096 0.0
H1794 H 0.73866 0.16103 0.76218 0.0
H1795 H 0.72225 0.13558 0.7634 0.0
H1796 H 0.70636 0.13989 0.71472 0.0
H1797 H 0.72312 0.16523 0.71321 0.0
H1798 H 0.68138 0.13132 0.73589 0.0
H1799 H 0.73309 0.11412 0.72112 0.0
H1800 H 0.76249 0.11319 0.72342 0.0
H1801 H 0.75701 0.09478 0.77044 0.0
H1802 H 0.72758 0.09583 0.76851 0.0
H1803 H 0.6424 0.05255 0.73238 0.0
H1804 H 0.66033 0.07589 0.72577 0.0
H1805 H 0.68467 0.07418 0.77124 0.0
H1806 H 0.66713 0.0506 0.77773 0.0
H1807 H 0.70576 0.08093 0.74871 0.0
H1808 H 0.65511 0.10049 0.76513 0.0
H1809 H 0.62572 0.10217 0.76412 0.0
H1810 H 0.62915 0.1168 0.71554 0.0
H1811 H 0.65856 0.11501 0.7162 0.0
C1812 C 0.73185 0.1565 0.75164 0.0
C1813 C 0.73233 0.16512 0.73754 0.0
C1814 C 0.72243 0.14198 0.75239 0.0
C1815 C 0.71326 0.13579 0.73908 0.0
C1816 C 0.71339 0.14448 0.7251 0.0
C1817 C 0.72291 0.15899 0.7243 0.0
C1818 C 0.70345 0.12028 0.73994 0.0
C1819 C 0.6867 0.12022 0.73839 0.0
C1820 C 0.71043 0.10593 0.74356 0.0
C1821 C 0.72813 0.10517 0.74471 0.0
C1822 C 0.73816 0.10999 0.732 0.0
C1823 C 0.75483 0.10942 0.73323 0.0
C1824 C 0.76162 0.10396 0.74708 0.0
C1825 C 0.75174 0.09902 0.75972 0.0
C1826 C 0.73506 0.09958 0.75856 0.0
C1827 C 0.65166 0.05705 0.74091 0.0
C1828 C 0.65326 0.04979 0.75564 0.0
C1829 C 0.66186 0.07044 0.73715 0.0
C1830 C 0.67365 0.07696 0.74814 0.0
C1831 C 0.67563 0.06938 0.76259 0.0
C1832 C 0.66556 0.05591 0.7663 0.0
C1833 C 0.68361 0.09197 0.74491 0.0
C1834 C 0.70041 0.09197 0.74603 0.0
C1835 C 0.67666 0.10631 0.74105 0.0
C1836 C 0.659 0.10744 0.74065 0.0
C1837 C 0.64958 0.10395 0.7542 0.0
C1838 C 0.63292 0.10494 0.7537 0.0
C1839 C 0.62556 0.10954 0.73976 0.0
C1840 C 0.63486 0.11321 0.72632 0.0
C1841 C 0.65152 0.11222 0.72675 0.0
H1842 H 0.61266 0.1103 0.7394 0.0
H1843 H 0.77453 0.10353 0.74801 0.0
H1844 H 0.34926 0.00331 0.5679 0.0
H1845 H 0.33567 0.02683 0.56023 0.0
H1846 H 0.37936 0.05714 0.56937 0.0
H1847 H 0.39294 0.03371 0.57723 0.0
H1848 H 0.35368 0.07286 0.57832 0.0
H1849 H 0.37006 0.04234 0.53172 0.0
H1850 H 0.37174 0.01788 0.51417 0.0
H1851 H 0.32034 0.0136 0.50866 0.0
H1852 H 0.31835 0.03792 0.52638 0.0
H1853 H 0.32602 0.11634 0.50226 0.0
H1854 H 0.34132 0.09707 0.51573 0.0
H1855 H 0.3106 0.10081 0.5571 0.0
H1856 H 0.29554 0.12053 0.54382 0.0
H1857 H 0.33073 0.06861 0.52329 0.0
H1858 H 0.33019 0.08973 0.59044 0.0
H1859 H 0.33102 0.11509 0.60704 0.0
H1860 H 0.35528 0.14037 0.56931 0.0
H1861 H 0.35479 0.11513 0.55258 0.0
C1862 C 0.3559 0.01502 0.56842 0.0
C1863 C 0.37219 0.01665 0.57302 0.0
C1864 C 0.34814 0.02844 0.56406 0.0
C1865 C 0.35659 0.0437 0.56397 0.0
C1866 C 0.37261 0.0455 0.56935 0.0
C1867 C 0.38035 0.03209 0.57385 0.0
C1868 C 0.34916 0.05747 0.55708 0.0
C1869 C 0.3486 0.07195 0.56631 0.0
C1870 C 0.34287 0.0564 0.54127 0.0
C1871 C 0.34405 0.04185 0.5305 0.0
C1872 C 0.35911 0.03612 0.52685 0.0
C1873 C 0.36012 0.02229 0.51686 0.0
C1874 C 0.34616 0.01416 0.51033 0.0
C1875 C 0.33115 0.01989 0.51374 0.0
C1876 C 0.33007 0.0337 0.52375 0.0
C1877 C 0.32272 0.11331 0.51435 0.0
C1878 C 0.30954 0.1199 0.52196 0.0
C1879 C 0.33144 0.10224 0.52202 0.0
C1880 C 0.32711 0.09742 0.53742 0.0
C1881 C 0.31433 0.10448 0.54531 0.0
C1882 C 0.30571 0.11573 0.5377 0.0
C1883 C 0.33513 0.08409 0.54453 0.0
C1884 C 0.33575 0.0696 0.53532 0.0
C1885 C 0.3418 0.08534 0.56019 0.0
C1886 C 0.34229 0.10056 0.5702 0.0
C1887 C 0.33575 0.10069 0.58571 0.0
C1888 C 0.33615 0.11505 0.59514 0.0
C1889 C 0.34315 0.12934 0.58921 0.0
C1890 C 0.3498 0.1293 0.57386 0.0
C1891 C 0.34944 0.11498 0.56439 0.0
H1892 H 0.34344 0.14044 0.59653 0.0
H1893 H 0.34696 0.00346 0.5026 0.0
H1894 H 0.64127 0.55102 0.60984 0.0
H1895 H 0.65402 0.52571 0.60479 0.0
H1896 H 0.63752 0.52372 0.55569 0.0
H1897 H 0.62448 0.54868 0.56072 0.0
H1898 H 0.63174 0.49495 0.56939 0.0
H1899 H 0.67633 0.53552 0.56543 0.0
H1900 H 0.69458 0.55854 0.57544 0.0
H1901 H 0.70907 0.53111 0.6145 0.0
H1902 H 0.69073 0.50798 0.60483 0.0
H1903 H 0.68054 0.44631 0.52346 0.0
H1904 H 0.66596 0.4674 0.53663 0.0
H1905 H 0.68836 0.45895 0.58176 0.0
H1906 H 0.7032 0.43772 0.56854 0.0
H1907 H 0.69049 0.49087 0.57531 0.0
H1908 H 0.64884 0.44885 0.57681 0.0
H1909 H 0.6309 0.42575 0.5665 0.0
H1910 H 0.61082 0.45556 0.53226 0.0
H1911 H 0.62881 0.47879 0.54221 0.0
C1912 C 0.64035 0.54516 0.59798 0.0
C1913 C 0.63193 0.5519 0.58565 0.0
C1914 C 0.64771 0.53075 0.5951 0.0
C1915 C 0.64676 0.52287 0.57985 0.0
C1916 C 0.63839 0.5296 0.56755 0.0
C1917 C 0.63109 0.54397 0.5704 0.0
C1918 C 0.65433 0.50753 0.57654 0.0
C1919 C 0.64459 0.49406 0.57061 0.0
C1920 C 0.67101 0.50622 0.57872 0.0
C1921 C 0.68202 0.52011 0.58453 0.0
C1922 C 0.6833 0.53445 0.57624 0.0
C1923 C 0.69368 0.54751 0.58183 0.0
C1924 C 0.70293 0.54631 0.59563 0.0
C1925 C 0.70186 0.53203 0.60384 0.0
C1926 C 0.69149 0.51895 0.5983 0.0
C1927 C 0.68223 0.44874 0.53624 0.0
C1928 C 0.69304 0.44035 0.54496 0.0
C1929 C 0.67382 0.46078 0.54377 0.0
C1930 C 0.67597 0.46467 0.56021 0.0
C1931 C 0.68649 0.45609 0.56907 0.0
C1932 C 0.69489 0.44392 0.56152 0.0
C1933 C 0.66796 0.47843 0.56766 0.0
C1934 C 0.67759 0.49162 0.57439 0.0
C1935 C 0.65116 0.47949 0.56623 0.0
C1936 C 0.64026 0.46556 0.56021 0.0
C1937 C 0.64069 0.45046 0.56701 0.0
C1938 C 0.63049 0.43734 0.56124 0.0
C1939 C 0.61974 0.43918 0.54872 0.0
C1940 C 0.61915 0.45415 0.54196 0.0
C1941 C 0.62933 0.46731 0.54768 0.0
H1942 H 0.61186 0.42901 0.54427 0.0
H1943 H 0.71097 0.55642 0.59994 0.0
H1944 H 0.69027 0.30592 0.37126 0.0
H1945 H 0.68883 0.32124 0.39673 0.0
H1946 H 0.71883 0.28851 0.41884 0.0
H1947 H 0.71957 0.27252 0.39358 0.0
H1948 H 0.69607 0.29684 0.43906 0.0
H1949 H 0.73446 0.32503 0.40566 0.0
H1950 H 0.74422 0.33812 0.38126 0.0
H1951 H 0.70835 0.37229 0.38674 0.0
H1952 H 0.69824 0.35925 0.41107 0.0
H1953 H 0.72984 0.34987 0.50239 0.0
H1954 H 0.72388 0.33115 0.47937 0.0
H1955 H 0.69074 0.36322 0.46112 0.0
H1956 H 0.69663 0.38205 0.48408 0.0
H1957 H 0.71341 0.35517 0.43918 0.0
H1958 H 0.67672 0.32755 0.47453 0.0
H1959 H 0.66841 0.31446 0.49939 0.0
H1960 H 0.70284 0.27928 0.49087 0.0
H1961 H 0.71152 0.29229 0.46607 0.0
C1962 C 0.6963 0.30174 0.38159 0.0
C1963 C 0.70513 0.28801 0.38029 0.0
C1964 C 0.69561 0.31064 0.39613 0.0
C1965 C 0.70397 0.3062 0.40963 0.0
C1966 C 0.71236 0.29222 0.40855 0.0
C1967 C 0.71293 0.2832 0.39404 0.0
C1968 C 0.70453 0.31651 0.42465 0.0
C1969 C 0.69999 0.30956 0.43912 0.0
C1970 C 0.70941 0.33318 0.42469 0.0
C1971 C 0.71549 0.34106 0.41008 0.0
C1972 C 0.72858 0.33526 0.40159 0.0
C1973 C 0.73419 0.34268 0.38779 0.0
C1974 C 0.72688 0.356 0.38243 0.0
C1975 C 0.71398 0.36195 0.39089 0.0
C1976 C 0.70831 0.35456 0.40469 0.0
C1977 C 0.72106 0.35282 0.49364 0.0
C1978 C 0.71381 0.36753 0.49502 0.0
C1979 C 0.71762 0.34207 0.48052 0.0
C1980 C 0.70686 0.3458 0.46855 0.0
C1981 C 0.69909 0.36013 0.47023 0.0
C1982 C 0.70245 0.37085 0.48339 0.0
C1983 C 0.70492 0.33553 0.45359 0.0
C1984 C 0.7093 0.34249 0.43911 0.0
C1985 C 0.7001 0.31887 0.45361 0.0
C1986 C 0.69487 0.31099 0.4685 0.0
C1987 C 0.68262 0.3171 0.47802 0.0
C1988 C 0.67782 0.30968 0.49209 0.0
C1989 C 0.68512 0.29607 0.49673 0.0
C1990 C 0.6972 0.28983 0.48727 0.0
C1991 C 0.70205 0.29721 0.4732 0.0
H1992 H 0.68138 0.29034 0.50762 0.0
H1993 H 0.73124 0.36173 0.37174 0.0
H1994 H 0.47488 0.06169 0.87206 0.0
H1995 H 0.49554 0.05292 0.85355 0.0
H1996 H 0.53002 0.05589 0.8924 0.0
H1997 H 0.50947 0.06493 0.91089 0.0
H1998 H 0.5432 0.06866 0.86699 0.0
H1999 H 0.51249 0.01932 0.87714 0.0
H2000 H 0.488 0.00094 0.87904 0.0
H2001 H 0.47899 0.00442 0.82873 0.0
H2002 H 0.50331 0.02302 0.82656 0.0
H2003 H 0.60146 0.02442 0.82497 0.0
H2004 H 0.58112 0.03202 0.84446 0.0
H2005 H 0.54729 0.03612 0.80602 0.0
H2006 H 0.56749 0.02863 0.78647 0.0
H2007 H 0.53428 0.01908 0.83177 0.0
H2008 H 0.56499 0.06915 0.82227 0.0
H2009 H 0.58982 0.08712 0.82075 0.0
H2010 H 0.59922 0.0814 0.87065 0.0
H2011 H 0.57455 0.0632 0.87241 0.0
C2012 C 0.48685 0.06037 0.87665 0.0
C2013 C 0.49058 0.06396 0.8929 0.0
C2014 C 0.49863 0.05533 0.86608 0.0
C2015 C 0.51427 0.05354 0.87164 0.0
C2016 C 0.51804 0.0572 0.88785 0.0
C2017 C 0.5063 0.06238 0.89839 0.0
C2018 C 0.52679 0.04809 0.86049 0.0
C2019 C 0.54133 0.05768 0.85947 0.0
C2020 C 0.52426 0.03391 0.85048 0.0
C2021 C 0.50965 0.02269 0.85172 0.0
C2022 C 0.50522 0.01627 0.8665 0.0
C2023 C 0.49138 0.00579 0.86762 0.0
C2024 C 0.48192 0.00155 0.85402 0.0
C2025 C 0.48631 0.00774 0.83926 0.0
C2026 C 0.50013 0.01824 0.83807 0.0
C2027 C 0.58968 0.02692 0.82067 0.0
C2028 C 0.5861 0.02599 0.80417 0.0
C2029 C 0.57811 0.03129 0.83181 0.0
C2030 C 0.56277 0.0347 0.82663 0.0
C2031 C 0.55907 0.03352 0.81022 0.0
C2032 C 0.57066 0.02932 0.79908 0.0
C2033 C 0.55057 0.03967 0.8383 0.0
C2034 C 0.53612 0.03 0.83937 0.0
C2035 C 0.55322 0.05369 0.84845 0.0
C2036 C 0.56803 0.06467 0.84743 0.0
C2037 C 0.57243 0.07161 0.83288 0.0
C2038 C 0.58646 0.08186 0.83199 0.0
C2039 C 0.59612 0.08536 0.84558 0.0
C2040 C 0.59174 0.07866 0.86012 0.0
C2041 C 0.57774 0.06838 0.86108 0.0
H2042 H 0.60697 0.0933 0.84487 0.0
H2043 H 0.47121 0.99343 0.85491 0.0
H2044 H 0.26872 0.28121 0.38009 0.0
H2045 H 0.26872 0.26507 0.40378 0.0
H2046 H 0.29876 0.23201 0.37917 0.0
H2047 H 0.29813 0.24758 0.3552 0.0
H2048 H 0.27584 0.21592 0.39423 0.0
H2049 H 0.31389 0.2604 0.40832 0.0
H2050 H 0.32365 0.289 0.41245 0.0
H2051 H 0.28716 0.29571 0.44786 0.0
H2052 H 0.27704 0.26719 0.44378 0.0
H2053 H 0.29868 0.17442 0.46112 0.0
H2054 H 0.30121 0.19313 0.43943 0.0
H2055 H 0.26482 0.2209 0.46131 0.0
H2056 H 0.26212 0.20222 0.48307 0.0
H2057 H 0.29124 0.2399 0.44815 0.0
H2058 H 0.25317 0.19507 0.43319 0.0
H2059 H 0.24423 0.16625 0.42912 0.0
H2060 H 0.28213 0.16015 0.39512 0.0
H2061 H 0.29145 0.1889 0.39917 0.0
C2062 C 0.27519 0.27041 0.37966 0.0
C2063 C 0.28348 0.26573 0.36575 0.0
C2064 C 0.27535 0.26131 0.39329 0.0
C2065 C 0.28395 0.24746 0.39334 0.0
C2066 C 0.29211 0.24269 0.37944 0.0
C2067 C 0.29186 0.25171 0.36579 0.0
C2068 C 0.28416 0.23768 0.40773 0.0
C2069 C 0.27944 0.22115 0.40596 0.0
C2070 C 0.28853 0.24454 0.42312 0.0
C2071 C 0.29461 0.2617 0.42563 0.0
C2072 C 0.30787 0.26801 0.4169 0.0
C2073 C 0.31348 0.2842 0.41925 0.0
C2074 C 0.306 0.29418 0.43038 0.0
C2075 C 0.29293 0.28797 0.43922 0.0
C2076 C 0.28726 0.27179 0.43691 0.0
C2077 C 0.2914 0.18465 0.4615 0.0
C2078 C 0.28008 0.18674 0.47375 0.0
C2079 C 0.29284 0.1953 0.44907 0.0
C2080 C 0.28306 0.20824 0.44871 0.0
C2081 C 0.27244 0.21094 0.46139 0.0
C2082 C 0.27088 0.20022 0.47377 0.0
C2083 C 0.28306 0.21823 0.43453 0.0
C2084 C 0.28772 0.23474 0.43637 0.0
C2085 C 0.27876 0.21136 0.41916 0.0
C2086 C 0.27311 0.19409 0.41661 0.0
C2087 C 0.25968 0.18755 0.42495 0.0
C2088 C 0.25453 0.17124 0.42263 0.0
C2089 C 0.26264 0.16136 0.4119 0.0
C2090 C 0.27588 0.1678 0.40344 0.0
C2091 C 0.28109 0.18411 0.40574 0.0
H2092 H 0.25863 0.14873 0.41012 0.0
H2093 H 0.31037 0.30671 0.43219 0.0
H2094 H 0.50635 0.45916 0.87029 0.0
H2095 H 0.48532 0.46778 0.85272 0.0
H2096 H 0.48028 0.50955 0.88432 0.0
H2097 H 0.5013 0.50103 0.90187 0.0
H2098 H 0.45045 0.49357 0.87303 0.0
H2099 H 0.50191 0.51464 0.85293 0.0
H2100 H 0.52958 0.51238 0.84316 0.0
H2101 H 0.51178 0.48009 0.80443 0.0
H2102 H 0.484 0.48198 0.81412 0.0
H2103 H 0.4088 0.54197 0.82186 0.0
H2104 H 0.42777 0.53164 0.84047 0.0
H2105 H 0.44062 0.49648 0.80402 0.0
H2106 H 0.42224 0.50719 0.78522 0.0
H2107 H 0.46632 0.50833 0.81807 0.0
H2108 H 0.41522 0.48693 0.83685 0.0
H2109 H 0.38729 0.48772 0.84635 0.0
H2110 H 0.40353 0.51834 0.88691 0.0
H2111 H 0.43156 0.5179 0.87753 0.0
C2112 C 0.50058 0.47005 0.87358 0.0
C2113 C 0.50548 0.4795 0.88736 0.0
C2114 C 0.48865 0.47499 0.86353 0.0
C2115 C 0.48137 0.48935 0.8672 0.0
C2116 C 0.48578 0.49844 0.8813 0.0
C2117 C 0.49783 0.49362 0.89124 0.0
C2118 C 0.46974 0.49536 0.85596 0.0
C2119 C 0.4539 0.49695 0.86105 0.0
C2120 C 0.47422 0.49937 0.84024 0.0
C2121 C 0.4909 0.49832 0.83435 0.0
C2122 C 0.50391 0.50695 0.84241 0.0
C2123 C 0.51961 0.50576 0.83688 0.0
C2124 C 0.52244 0.49606 0.82321 0.0
C2125 C 0.50957 0.48757 0.81503 0.0
C2126 C 0.49384 0.48871 0.82053 0.0
C2127 C 0.41569 0.53204 0.81783 0.0
C2128 C 0.41403 0.5254 0.80208 0.0
C2129 C 0.42645 0.52607 0.82851 0.0
C2130 C 0.43546 0.51308 0.82376 0.0
C2131 C 0.43383 0.5065 0.808 0.0
C2132 C 0.4233 0.51263 0.79725 0.0
C2133 C 0.44684 0.50653 0.83503 0.0
C2134 C 0.46273 0.50488 0.82999 0.0
C2135 C 0.44231 0.50224 0.85071 0.0
C2136 C 0.42547 0.5025 0.8564 0.0
C2137 C 0.41282 0.49392 0.84773 0.0
C2138 C 0.39698 0.4943 0.85311 0.0
C2139 C 0.39363 0.50311 0.8672 0.0
C2140 C 0.40614 0.51153 0.87598 0.0
C2141 C 0.42201 0.51122 0.87065 0.0
H2142 H 0.38135 0.50338 0.87134 0.0
H2143 H 0.53461 0.49515 0.81894 0.0
H2144 H 0.70791 0.75517 0.15858 0.0
H2145 H 0.71308 0.73612 0.13638 0.0
H2146 H 0.76314 0.7381 0.15017 0.0
H2147 H 0.75806 0.75743 0.17225 0.0
H2148 H 0.7609 0.74044 0.11928 0.0
H2149 H 0.73666 0.70451 0.15651 0.0
H2150 H 0.71632 0.69427 0.17567 0.0
H2151 H 0.68049 0.68982 0.13839 0.0
H2152 H 0.70057 0.70025 0.11904 0.0
H2153 H 0.7752 0.67664 0.0619 0.0
H2154 H 0.77246 0.69076 0.08809 0.0
H2155 H 0.72339 0.69896 0.07656 0.0
H2156 H 0.72604 0.68499 0.05043 0.0
H2157 H 0.72728 0.68937 0.10796 0.0
H2158 H 0.75149 0.72808 0.07181 0.0
H2159 H 0.77213 0.73815 0.05286 0.0
H2160 H 0.80865 0.73667 0.08897 0.0
H2161 H 0.78823 0.72637 0.10808 0.0
C2162 C 0.71997 0.75138 0.15699 0.0
C2163 C 0.73257 0.75775 0.16715 0.0
C2164 C 0.72291 0.74046 0.14433 0.0
C2165 C 0.73846 0.73547 0.14173 0.0
C2166 C 0.75105 0.74175 0.15194 0.0
C2167 C 0.74814 0.7528 0.16452 0.0
C2168 C 0.74168 0.72432 0.12789 0.0
C2169 C 0.75375 0.72912 0.11702 0.0
C2170 C 0.73223 0.70963 0.12476 0.0
C2171 C 0.72011 0.70328 0.13634 0.0
C2172 C 0.72442 0.70145 0.15241 0.0
C2173 C 0.71294 0.6956 0.16331 0.0
C2174 C 0.69712 0.69143 0.15825 0.0
C2175 C 0.69275 0.69307 0.14228 0.0
C2176 C 0.70419 0.69893 0.13134 0.0
C2177 C 0.76379 0.68132 0.06502 0.0
C2178 C 0.75087 0.67981 0.05407 0.0
C2179 C 0.76226 0.6894 0.07995 0.0
C2180 C 0.74775 0.69598 0.08418 0.0
C2181 C 0.73468 0.69396 0.07351 0.0
C2182 C 0.73624 0.68604 0.05856 0.0
C2183 C 0.7463 0.70565 0.09938 0.0
C2184 C 0.73455 0.70058 0.11045 0.0
C2185 C 0.75611 0.72003 0.10276 0.0
C2186 C 0.76837 0.72627 0.0913 0.0
C2187 C 0.76394 0.72976 0.07566 0.0
C2188 C 0.7756 0.73554 0.0649 0.0
C2189 C 0.7917 0.738 0.06969 0.0
C2190 C 0.79618 0.73473 0.08527 0.0
C2191 C 0.78457 0.72893 0.09607 0.0
H2192 H 0.80071 0.74247 0.06135 0.0
H2193 H 0.68824 0.6869 0.16671 0.0
H2194 H 0.99947 0.12384 0.13244 0.0
H2195 H 0.97547 0.11875 0.1487 0.0
H2196 H 0.00476 0.10275 0.18659 0.0
H2197 H 0.02887 0.10857 0.17073 0.0
H2198 H 0.96334 0.09124 0.15753 0.0
H2199 H 0.98756 0.10733 0.22247 0.0
H2200 H 0.00602 0.12799 0.23641 0.0
H2201 H 0.999 0.16077 0.19932 0.0
H2202 H 0.98032 0.14041 0.18527 0.0
H2203 H 0.9259 0.04274 0.21427 0.0
H2204 H 0.94409 0.05846 0.19723 0.0
H2205 H 0.92542 0.10233 0.21618 0.0
H2206 H 0.90726 0.08658 0.23364 0.0
H2207 H 0.95738 0.10551 0.21547 0.0
H2208 H 0.91629 0.08853 0.17783 0.0
H2209 H 0.89649 0.06963 0.16335 0.0
H2210 H 0.9346 0.04245 0.14468 0.0
H2211 H 0.95463 0.06105 0.15923 0.0
C2212 C 0.00088 0.11969 0.14441 0.0
C2213 C 0.01612 0.11657 0.15025 0.0
C2214 C 0.98711 0.11665 0.15365 0.0
C2215 C 0.98828 0.11045 0.16891 0.0
C2216 C 0.00353 0.10778 0.17496 0.0
C2217 C 0.01731 0.11091 0.16578 0.0
C2218 C 0.97354 0.10534 0.1779 0.0
C2219 C 0.96197 0.0945 0.17016 0.0
C2220 C 0.9715 0.10989 0.19428 0.0
C2221 C 0.98261 0.12228 0.20276 0.0
C2222 C 0.98988 0.11897 0.21733 0.0
C2223 C 0.0004 0.13063 0.22524 0.0
C2224 C 0.00371 0.14567 0.21874 0.0
C2225 C 0.99647 0.1491 0.20432 0.0
C2226 C 0.98593 0.13749 0.19637 0.0
C2227 C 0.92551 0.05572 0.21474 0.0
C2228 C 0.9151 0.06341 0.2253 0.0
C2229 C 0.93589 0.0647 0.20491 0.0
C2230 C 0.93598 0.08156 0.20526 0.0
C2231 C 0.9255 0.08932 0.21568 0.0
C2232 C 0.9151 0.08031 0.2256 0.0
C2233 C 0.94762 0.09094 0.19523 0.0
C2234 C 0.95861 0.10252 0.20276 0.0
C2235 C 0.94895 0.08737 0.17856 0.0
C2236 C 0.93696 0.07616 0.1697 0.0
C2237 C 0.92045 0.07846 0.17072 0.0
C2238 C 0.90918 0.06781 0.16249 0.0
C2239 C 0.91428 0.05484 0.15312 0.0
C2240 C 0.93066 0.05251 0.15194 0.0
C2241 C 0.94198 0.06312 0.16016 0.0
H2242 H 0.90553 0.0466 0.14675 0.0
H2243 H 0.01187 0.15467 0.22488 0.0
H2244 H 0.27739 0.81766 0.1926 0.0
H2245 H 0.27269 0.83623 0.17163 0.0
H2246 H 0.2384 0.80081 0.14892 0.0
H2247 H 0.24374 0.78187 0.16925 0.0
H2248 H 0.25745 0.81226 0.12757 0.0
H2249 H 0.22682 0.83568 0.16945 0.0
H2250 H 0.2215 0.84705 0.19655 0.0
H2251 H 0.25814 0.88536 0.19037 0.0
H2252 H 0.26384 0.87409 0.1633 0.0
H2253 H 0.22651 0.88559 0.08653 0.0
H2254 H 0.22732 0.86976 0.11052 0.0
H2255 H 0.27513 0.85721 0.09809 0.0
H2256 H 0.27429 0.87262 0.07405 0.0
H2257 H 0.24608 0.86954 0.13703 0.0
H2258 H 0.27867 0.81832 0.10453 0.0
H2259 H 0.28118 0.80621 0.07719 0.0
H2260 H 0.23515 0.82187 0.06451 0.0
H2261 H 0.23226 0.83387 0.09183 0.0
C2262 C 0.2689 0.81378 0.18311 0.0
C2263 C 0.26099 0.79821 0.18263 0.0
C2264 C 0.26605 0.82452 0.17124 0.0
C2265 C 0.25506 0.81999 0.15876 0.0
C2266 C 0.24691 0.8046 0.15844 0.0
C2267 C 0.24986 0.79382 0.1702 0.0
C2268 C 0.25284 0.83085 0.14545 0.0
C2269 C 0.2549 0.82477 0.12969 0.0
C2270 C 0.24925 0.84711 0.14813 0.0
C2271 C 0.24585 0.85395 0.16439 0.0
C2272 C 0.23383 0.84646 0.17391 0.0
C2273 C 0.23073 0.8529 0.18926 0.0
C2274 C 0.2395 0.8669 0.19519 0.0
C2275 C 0.25137 0.87451 0.18577 0.0
C2276 C 0.25452 0.86811 0.17041 0.0
C2277 C 0.23725 0.8796 0.08903 0.0
C2278 C 0.25025 0.88016 0.0783 0.0
C2279 C 0.23771 0.87059 0.10274 0.0
C2280 C 0.25116 0.86206 0.10591 0.0
C2281 C 0.2645 0.86342 0.0957 0.0
C2282 C 0.264 0.87227 0.08197 0.0
C2283 C 0.25102 0.85097 0.1193 0.0
C2284 C 0.24854 0.85701 0.13501 0.0
C2285 C 0.25382 0.83452 0.11659 0.0
C2286 C 0.25533 0.82712 0.10019 0.0
C2287 C 0.26905 0.81911 0.09593 0.0
C2288 C 0.27055 0.81228 0.08043 0.0
C2289 C 0.25835 0.81331 0.06911 0.0
C2290 C 0.24461 0.82113 0.07328 0.0
C2291 C 0.24305 0.82796 0.08876 0.0
H2292 H 0.25954 0.80803 0.05712 0.0
H2293 H 0.23709 0.87186 0.20708 0.0
H2294 H 0.97198 0.42995 0.15236 0.0
H2295 H 0.99688 0.4339 0.16819 0.0
H2296 H 0.00338 0.48309 0.15398 0.0
H2297 H 0.97889 0.47911 0.13782 0.0
H2298 H 0.03094 0.46815 0.15113 0.0
H2299 H 0.98913 0.47386 0.19096 0.0
H2300 H 0.96489 0.46472 0.20593 0.0
H2301 H 0.98865 0.4243 0.22173 0.0
H2302 H 0.01297 0.43311 0.20668 0.0
H2303 H 0.07668 0.51475 0.2088 0.0
H2304 H 0.05717 0.50098 0.19013 0.0
H2305 H 0.06353 0.45584 0.21173 0.0
H2306 H 0.08324 0.46967 0.2306 0.0
H2307 H 0.0318 0.46248 0.21 0.0
H2308 H 0.07551 0.46013 0.17401 0.0
H2309 H 0.09977 0.47005 0.15955 0.0
H2310 H 0.07276 0.50448 0.13669 0.0
H2311 H 0.04838 0.49494 0.15119 0.0
C2312 C 0.97875 0.44159 0.1526 0.0
C2313 C 0.97342 0.45425 0.1439 0.0
C2314 C 0.99292 0.44385 0.1617 0.0
C2315 C 0.00195 0.4588 0.16228 0.0
C2316 C 0.9966 0.47144 0.15367 0.0
C2317 C 0.98249 0.46921 0.1446 0.0
C2318 C 0.017 0.46148 0.17181 0.0
C2319 C 0.03115 0.46696 0.16401 0.0
C2320 C 0.01738 0.45931 0.18851 0.0
C2321 C 0.00277 0.45402 0.19753 0.0
C2322 C 0.98913 0.46295 0.19751 0.0
C2323 C 0.97539 0.45784 0.20603 0.0
C2324 C 0.97521 0.4439 0.21473 0.0
C2325 C 0.98879 0.43507 0.21496 0.0
C2326 C 0.00255 0.44011 0.20644 0.0
C2327 C 0.07417 0.50184 0.20941 0.0
C2328 C 0.08143 0.49329 0.2212 0.0
C2329 C 0.06308 0.49396 0.19867 0.0
C2330 C 0.05897 0.47737 0.19949 0.0
C2331 C 0.0666 0.46865 0.21088 0.0
C2332 C 0.07788 0.47653 0.22158 0.0
C2333 C 0.0456 0.46973 0.1894 0.0
C2334 C 0.03175 0.4633 0.19706 0.0
C2335 C 0.04548 0.47107 0.17258 0.0
C2336 C 0.06011 0.47685 0.16376 0.0
C2337 C 0.07475 0.4699 0.16599 0.0
C2338 C 0.08853 0.47544 0.15776 0.0
C2339 C 0.08781 0.4879 0.14722 0.0
C2340 C 0.0733 0.49482 0.14485 0.0
C2341 C 0.05949 0.48933 0.15305 0.0
H2342 H 0.09849 0.49217 0.14086 0.0
H2343 H 0.96456 0.43997 0.22132 0.0
H2344 H 0.36867 0.75552 0.26227 0.0
H2345 H 0.39338 0.75693 0.27826 0.0
H2346 H 0.36919 0.72747 0.31336 0.0
H2347 H 0.3443 0.72665 0.29787 0.0
H2348 H 0.38589 0.75185 0.32772 0.0
H2349 H 0.39643 0.71226 0.28639 0.0
H2350 H 0.39887 0.70125 0.25864 0.0
H2351 H 0.4356 0.73862 0.24932 0.0
H2352 H 0.43322 0.75 0.27697 0.0
H2353 H 0.45404 0.73496 0.37169 0.0
H2354 H 0.43151 0.72993 0.35291 0.0
H2355 H 0.4533 0.76546 0.32208 0.0
H2356 H 0.47591 0.77064 0.3408 0.0
H2357 H 0.43831 0.73749 0.30533 0.0
H2358 H 0.42671 0.77731 0.34674 0.0
H2359 H 0.42437 0.78767 0.37473 0.0
H2360 H 0.38935 0.74869 0.38395 0.0
H2361 H 0.39168 0.73796 0.35606 0.0
C2362 C 0.36857 0.74945 0.27345 0.0
C2363 C 0.3545 0.74093 0.27875 0.0
C2364 C 0.38276 0.7501 0.28249 0.0
C2365 C 0.3832 0.74211 0.2969 0.0
C2366 C 0.36916 0.73366 0.30224 0.0
C2367 C 0.35497 0.73308 0.29328 0.0
C2368 C 0.3981 0.74297 0.30674 0.0
C2369 C 0.39728 0.74846 0.32285 0.0
C2370 C 0.41306 0.73889 0.30033 0.0
C2371 C 0.41453 0.73208 0.2837 0.0
C2372 C 0.40493 0.71821 0.27838 0.0
C2373 C 0.40632 0.71189 0.26268 0.0
C2374 C 0.41735 0.71926 0.25221 0.0
C2375 C 0.42704 0.73294 0.25744 0.0
C2376 C 0.42569 0.73932 0.27313 0.0
C2377 C 0.45422 0.7415 0.36078 0.0
C2378 C 0.46669 0.75334 0.35783 0.0
C2379 C 0.44132 0.73863 0.35008 0.0
C2380 C 0.44069 0.74748 0.33625 0.0
C2381 C 0.45358 0.75854 0.33273 0.0
C2382 C 0.46645 0.76152 0.34348 0.0
C2383 C 0.42596 0.74622 0.32622 0.0
C2384 C 0.42685 0.74076 0.31012 0.0
C2385 C 0.41102 0.75023 0.33263 0.0
C2386 C 0.4095 0.75674 0.34937 0.0
C2387 C 0.41861 0.77088 0.35478 0.0
C2388 C 0.41727 0.77683 0.37062 0.0
C2389 C 0.40675 0.76882 0.38113 0.0
C2390 C 0.39751 0.75487 0.3758 0.0
C2391 C 0.39883 0.74885 0.35998 0.0
H2392 H 0.40572 0.77344 0.39339 0.0
H2393 H 0.41841 0.71434 0.24006 0.0
H2394 H 0.91843 0.36624 0.03436 0.0
H2395 H 0.92955 0.34818 0.01401 0.0
H2396 H 0.94367 0.38886 0.98569 0.0
H2397 H 0.93252 0.40696 0.00594 0.0
H2398 H 0.93217 0.36343 0.96692 0.0
H2399 H 0.97068 0.37318 0.00979 0.0
H2400 H 0.98007 0.37417 0.03787 0.0
H2401 H 0.96858 0.32317 0.03999 0.0
H2402 H 0.95889 0.32193 0.01198 0.0
H2403 H 0.99103 0.32747 0.91876 0.0
H2404 H 0.97816 0.345 0.93836 0.0
H2405 H 0.96233 0.3037 0.9651 0.0
H2406 H 0.97521 0.28607 0.94565 0.0
H2407 H 0.97446 0.32923 0.98455 0.0
H2408 H 0.93635 0.31962 0.94128 0.0
H2409 H 0.92729 0.31891 0.91311 0.0
H2410 H 0.93857 0.36999 0.91163 0.0
H2411 H 0.94792 0.37097 0.93974 0.0
C2412 C 0.92381 0.37131 0.02374 0.0
C2413 C 0.92471 0.38803 0.02179 0.0
C2414 C 0.93016 0.36099 0.01214 0.0
C2415 C 0.9377 0.36722 0.99849 0.0
C2416 C 0.93793 0.38381 0.99615 0.0
C2417 C 0.93151 0.39413 0.00771 0.0
C2418 C 0.94595 0.35657 0.98699 0.0
C2419 C 0.94154 0.35609 0.97074 0.0
C2420 C 0.958 0.34679 0.99203 0.0
C2421 C 0.96391 0.34749 0.00885 0.0
C2422 C 0.97004 0.3622 0.01629 0.0
C2423 C 0.97543 0.36281 0.03218 0.0
C2424 C 0.97488 0.34875 0.04072 0.0
C2425 C 0.96897 0.33406 0.03337 0.0
C2426 C 0.96354 0.33339 0.01748 0.0
C2427 C 0.98491 0.32211 0.92887 0.0
C2428 C 0.98408 0.30536 0.9306 0.0
C2429 C 0.97749 0.33214 0.94 0.0
C2430 C 0.96912 0.32561 0.95305 0.0
C2431 C 0.96869 0.30897 0.95508 0.0
C2432 C 0.97603 0.29892 0.94392 0.0
C2433 C 0.96067 0.33609 0.96451 0.0
C2434 C 0.96506 0.33655 0.98075 0.0
C2435 C 0.94866 0.34588 0.95944 0.0
C2436 C 0.94299 0.34534 0.94256 0.0
C2437 C 0.93702 0.33068 0.9349 0.0
C2438 C 0.93181 0.33023 0.91896 0.0
C2439 C 0.93239 0.34438 0.91057 0.0
C2440 C 0.93815 0.35903 0.91814 0.0
C2441 C 0.94339 0.35954 0.93408 0.0
H2442 H 0.92835 0.34401 0.89822 0.0
H2443 H 0.97906 0.34924 0.05303 0.0
H2444 H 0.64659 0.8247 0.28495 0.0
H2445 H 0.62535 0.82013 0.30464 0.0
H2446 H 0.64231 0.77372 0.31362 0.0
H2447 H 0.66364 0.77822 0.29379 0.0
H2448 H 0.61036 0.77164 0.31076 0.0
H2449 H 0.64919 0.80553 0.34089 0.0
H2450 H 0.66845 0.82911 0.34647 0.0
H2451 H 0.63019 0.8606 0.34393 0.0
H2452 H 0.61073 0.83722 0.3381 0.0
H2453 H 0.55505 0.76374 0.37579 0.0
H2454 H 0.58084 0.76607 0.36167 0.0
H2455 H 0.5696 0.81204 0.34472 0.0
H2456 H 0.54395 0.80986 0.35878 0.0
H2457 H 0.60103 0.8123 0.35445 0.0
H2458 H 0.56319 0.77851 0.32103 0.0
H2459 H 0.54396 0.75495 0.31517 0.0
H2460 H 0.58081 0.72318 0.32418 0.0
H2461 H 0.60021 0.74658 0.33031 0.0
C2462 C 0.64593 0.8136 0.29124 0.0
C2463 C 0.65686 0.80187 0.2879 0.0
C2464 C 0.63378 0.811 0.30251 0.0
C2465 C 0.63241 0.7967 0.31082 0.0
C2466 C 0.64319 0.78487 0.3074 0.0
C2467 C 0.65533 0.78743 0.29604 0.0
C2468 C 0.61939 0.79402 0.32272 0.0
C2469 C 0.60852 0.78036 0.32053 0.0
C2470 C 0.61686 0.8055 0.33534 0.0
C2471 C 0.62851 0.81961 0.33895 0.0
C2472 C 0.6449 0.81749 0.34141 0.0
C2473 C 0.65585 0.83082 0.34464 0.0
C2474 C 0.65055 0.84634 0.34553 0.0
C2475 C 0.63428 0.84857 0.34323 0.0
C2476 C 0.62328 0.83528 0.33999 0.0
C2477 C 0.55817 0.77442 0.3692 0.0
C2478 C 0.54743 0.78657 0.3683 0.0
C2479 C 0.57287 0.77571 0.36111 0.0
C2480 C 0.57704 0.78916 0.35203 0.0
C2481 C 0.56661 0.80156 0.35166 0.0
C2482 C 0.55192 0.80026 0.35965 0.0
C2483 C 0.59188 0.79012 0.34226 0.0
C2484 C 0.60306 0.80346 0.34485 0.0
C2485 C 0.59472 0.77833 0.33004 0.0
C2486 C 0.58309 0.76428 0.32632 0.0
C2487 C 0.56715 0.7665 0.32189 0.0
C2488 C 0.55623 0.75318 0.3185 0.0
C2489 C 0.56115 0.73757 0.31936 0.0
C2490 C 0.57701 0.73527 0.32356 0.0
C2491 C 0.58797 0.74855 0.32699 0.0
H2492 H 0.55268 0.72727 0.31672 0.0
H2493 H 0.65905 0.85665 0.34803 0.0
H2494 H 0.09493 0.17258 0.01975 0.0
H2495 H 0.08891 0.18615 0.99519 0.0
H2496 H 0.03874 0.17003 0.99951 0.0
H2497 H 0.04467 0.1564 0.02382 0.0
H2498 H 0.04987 0.16615 0.96854 0.0
H2499 H 0.0519 0.20753 0.01191 0.0
H2500 H 0.0652 0.224 0.03417 0.0
H2501 H 0.10224 0.24142 0.00226 0.0
H2502 H 0.08926 0.22487 0.97984 0.0
H2503 H 0.00034 0.21742 0.93192 0.0
H2504 H 0.01558 0.20116 0.94897 0.0
H2505 H 0.05967 0.22781 0.9359 0.0
H2506 H 0.04437 0.24441 0.91884 0.0
H2507 H 0.05758 0.22576 0.96773 0.0
H2508 H 0.05259 0.18836 0.92325 0.0
H2509 H 0.0392 0.17213 0.9009 0.0
H2510 H 0.00829 0.1471 0.93414 0.0
H2511 H 0.02133 0.16334 0.95669 0.0
C2512 C 0.08266 0.17186 0.01536 0.0
C2513 C 0.07024 0.16357 0.02377 0.0
C2514 C 0.07923 0.17964 0.00139 0.0
C2515 C 0.06336 0.17914 0.99559 0.0
C2516 C 0.05106 0.17055 0.00377 0.0
C2517 C 0.05444 0.16291 0.01775 0.0
C2518 C 0.05924 0.18792 0.9813 0.0
C2519 C 0.05153 0.17918 0.96832 0.0
C2520 C 0.06196 0.20486 0.9808 0.0
C2521 C 0.06974 0.21481 0.99426 0.0
C2522 C 0.06296 0.21476 0.00968 0.0
C2523 C 0.07042 0.22413 0.02231 0.0
C2524 C 0.08459 0.23371 0.01964 0.0
C2525 C 0.09129 0.23397 0.00432 0.0
C2526 C 0.08389 0.2246 0.99165 0.0
C2527 C 0.0133 0.21971 0.93246 0.0
C2528 C 0.02114 0.23223 0.92405 0.0
C2529 C 0.02203 0.21032 0.94216 0.0
C2530 C 0.0388 0.21313 0.9436 0.0
C2531 C 0.04674 0.22539 0.93492 0.0
C2532 C 0.03799 0.23481 0.92514 0.0
C2533 C 0.04764 0.20403 0.95517 0.0
C2534 C 0.05625 0.21269 0.96767 0.0
C2535 C 0.0458 0.187 0.95519 0.0
C2536 C 0.03791 0.17714 0.94167 0.0
C2537 C 0.04287 0.17947 0.9258 0.0
C2538 C 0.03535 0.17026 0.91309 0.0
C2539 C 0.02289 0.15861 0.9161 0.0
C2540 C 0.01795 0.15613 0.93183 0.0
C2541 C 0.02542 0.16532 0.94458 0.0
H2542 H 0.01708 0.15149 0.90624 0.0
H2543 H 0.09035 0.24096 0.02944 0.0
H2544 H 0.36955 0.30444 0.26515 0.0
H2545 H 0.39383 0.30442 0.24899 0.0
H2546 H 0.369 0.32458 0.21021 0.0
H2547 H 0.34429 0.32358 0.22589 0.0
H2548 H 0.38528 0.3018 0.19874 0.0
H2549 H 0.3979 0.34725 0.23473 0.0
H2550 H 0.40106 0.36224 0.26086 0.0
H2551 H 0.43651 0.33087 0.27504 0.0
H2552 H 0.43341 0.31554 0.24907 0.0
H2553 H 0.45538 0.31991 0.15358 0.0
H2554 H 0.43286 0.32493 0.17133 0.0
H2555 H 0.4515 0.29446 0.20613 0.0
H2556 H 0.47407 0.28922 0.18838 0.0
H2557 H 0.43877 0.32397 0.21927 0.0
H2558 H 0.42435 0.27791 0.18307 0.0
H2559 H 0.42126 0.26397 0.1564 0.0
H2560 H 0.38897 0.29848 0.14212 0.0
H2561 H 0.39206 0.31278 0.16865 0.0
C2562 C 0.36916 0.30871 0.25312 0.0
C2563 C 0.35489 0.31395 0.24683 0.0
C2564 C 0.38317 0.30894 0.24398 0.0
C2565 C 0.38335 0.31476 0.22847 0.0
C2566 C 0.36918 0.32012 0.22218 0.0
C2567 C 0.35509 0.31969 0.23124 0.0
C2568 C 0.3981 0.31453 0.21854 0.0
C2569 C 0.3969 0.30692 0.20317 0.0
C2570 C 0.41337 0.32094 0.22437 0.0
C2571 C 0.41531 0.33016 0.23999 0.0
C2572 C 0.40628 0.34347 0.24346 0.0
C2573 C 0.40808 0.35204 0.25824 0.0
C2574 C 0.41895 0.34749 0.26962 0.0
C2575 C 0.42808 0.33437 0.26622 0.0
C2576 C 0.42632 0.32575 0.25147 0.0
C2577 C 0.45487 0.31447 0.16511 0.0
C2578 C 0.46644 0.30404 0.16951 0.0
C2579 C 0.44197 0.31734 0.17522 0.0
C2580 C 0.44049 0.30994 0.18993 0.0
C2581 C 0.45248 0.30026 0.19479 0.0
C2582 C 0.46531 0.29724 0.18461 0.0
C2583 C 0.42581 0.31128 0.19964 0.0
C2584 C 0.42707 0.31902 0.21491 0.0
C2585 C 0.41055 0.30518 0.19367 0.0
C2586 C 0.40858 0.29651 0.17777 0.0
C2587 C 0.4167 0.28261 0.17419 0.0
C2588 C 0.41493 0.27463 0.15911 0.0
C2589 C 0.40496 0.28036 0.14755 0.0
C2590 C 0.3967 0.29407 0.15107 0.0
C2591 C 0.39846 0.30211 0.16613 0.0
H2592 H 0.4036 0.27417 0.13589 0.0
H2593 H 0.42033 0.35414 0.28105 0.0
H2594 H 0.56508 0.41853 0.01173 0.0
H2595 H 0.55876 0.40089 0.03372 0.0
H2596 H 0.54976 0.36047 0.99974 0.0
H2597 H 0.55558 0.37833 0.97761 0.0
H2598 H 0.52733 0.3596 0.02021 0.0
H2599 H 0.58401 0.36492 0.02503 0.0
H2600 H 0.61125 0.3787 0.02676 0.0
H2601 H 0.59884 0.40354 0.0707 0.0
H2602 H 0.57143 0.39009 0.06912 0.0
H2603 H 0.53893 0.31596 0.09945 0.0
H2604 H 0.55144 0.33027 0.0771 0.0
H2605 H 0.50941 0.35699 0.07296 0.0
H2606 H 0.49671 0.34244 0.09484 0.0
H2607 H 0.56016 0.36027 0.06991 0.0
H2608 H 0.49968 0.36061 0.03483 0.0
H2609 H 0.47398 0.34396 0.03186 0.0
H2610 H 0.49709 0.30244 0.04583 0.0
H2611 H 0.52298 0.31878 0.04865 0.0
C2612 C 0.56195 0.40584 0.00898 0.0
C2613 C 0.56088 0.39975 0.993 0.0
C2614 C 0.55842 0.39573 0.02156 0.0
C2615 C 0.55407 0.37926 0.01844 0.0
C2616 C 0.55313 0.37312 0.00246 0.0
C2617 C 0.55644 0.38331 0.98983 0.0
C2618 C 0.54949 0.36875 0.03185 0.0
C2619 C 0.53459 0.35969 0.03101 0.0
C2620 C 0.55912 0.36847 0.04583 0.0
C2621 C 0.57562 0.37656 0.04689 0.0
C2622 C 0.58705 0.37341 0.03501 0.0
C2623 C 0.60253 0.38115 0.03597 0.0
C2624 C 0.60677 0.39201 0.04882 0.0
C2625 C 0.59554 0.39513 0.06075 0.0
C2626 C 0.58003 0.38743 0.05984 0.0
C2627 C 0.53249 0.32507 0.09392 0.0
C2628 C 0.51678 0.32796 0.09873 0.0
C2629 C 0.53963 0.33321 0.08114 0.0
C2630 C 0.53118 0.34439 0.0731 0.0
C2631 C 0.51597 0.34809 0.0787 0.0
C2632 C 0.50876 0.33983 0.09127 0.0
C2633 C 0.53779 0.35171 0.05841 0.0
C2634 C 0.55303 0.36011 0.05902 0.0
C2635 C 0.52874 0.35095 0.04399 0.0
C2636 C 0.51324 0.34097 0.04207 0.0
C2637 C 0.4993 0.34791 0.03718 0.0
C2638 C 0.48469 0.33853 0.03554 0.0
C2639 C 0.48389 0.32216 0.03869 0.0
C2640 C 0.49771 0.31513 0.04344 0.0
C2641 C 0.51235 0.32445 0.04508 0.0
H2642 H 0.47257 0.31492 0.03743 0.0
H2643 H 0.61876 0.39799 0.04954 0.0
H2644 H 0.63546 0.24581 0.25573 0.0
H2645 H 0.61441 0.24907 0.23598 0.0
H2646 H 0.64888 0.27531 0.20663 0.0
H2647 H 0.67009 0.27205 0.22643 0.0
H2648 H 0.61942 0.29024 0.21166 0.0
H2649 H 0.63733 0.23919 0.19403 0.0
H2650 H 0.64496 0.2115 0.19721 0.0
H2651 H 0.59738 0.19745 0.21362 0.0
H2652 H 0.58952 0.22513 0.21077 0.0
H2653 H 0.55846 0.2909 0.15099 0.0
H2654 H 0.58416 0.28795 0.16447 0.0
H2655 H 0.56049 0.25346 0.19533 0.0
H2656 H 0.53506 0.25597 0.18167 0.0
H2657 H 0.58767 0.24313 0.1859 0.0
H2658 H 0.5707 0.29398 0.20746 0.0
H2659 H 0.56253 0.32172 0.20601 0.0
H2660 H 0.60749 0.33614 0.18389 0.0
H2661 H 0.61584 0.30842 0.18504 0.0
C2662 C 0.63855 0.25228 0.24507 0.0
C2663 C 0.65439 0.25869 0.2426 0.0
C2664 C 0.62655 0.25406 0.23377 0.0
C2665 C 0.63013 0.26234 0.21982 0.0
C2666 C 0.64592 0.26884 0.21731 0.0
C2667 C 0.658 0.26689 0.22855 0.0
C2668 C 0.61718 0.2644 0.20811 0.0
C2669 C 0.61266 0.27999 0.20573 0.0
C2670 C 0.60823 0.25098 0.20067 0.0
C2671 C 0.61287 0.23428 0.20228 0.0
C2672 C 0.62852 0.23023 0.19843 0.0
C2673 C 0.63289 0.21453 0.20015 0.0
C2674 C 0.62167 0.20273 0.20564 0.0
C2675 C 0.60606 0.2066 0.20938 0.0
C2676 C 0.60163 0.22229 0.20769 0.0
C2677 C 0.55878 0.28268 0.16063 0.0
C2678 C 0.54473 0.27369 0.16528 0.0
C2679 C 0.57345 0.28104 0.16836 0.0
C2680 C 0.57425 0.27059 0.18103 0.0
C2681 C 0.56022 0.26155 0.18556 0.0
C2682 C 0.54565 0.26305 0.17776 0.0
C2683 C 0.58954 0.26898 0.18978 0.0
C2684 C 0.59455 0.25345 0.19159 0.0
C2685 C 0.59881 0.28245 0.19685 0.0
C2686 C 0.5938 0.2991 0.19615 0.0
C2687 C 0.57878 0.30304 0.20217 0.0
C2688 C 0.57413 0.31876 0.20142 0.0
C2689 C 0.58446 0.33067 0.19481 0.0
C2690 C 0.59949 0.3269 0.18897 0.0
C2691 C 0.60419 0.31119 0.18968 0.0
H2692 H 0.58084 0.34284 0.19425 0.0
H2693 H 0.62507 0.19059 0.20697 0.0
H2694 H 0.42972 0.1685 -1e-05 0.0
H2695 H 0.4365 0.18927 0.02124 0.0
H2696 H 0.47822 0.16488 0.03382 0.0
H2697 H 0.4715 0.14408 0.01265 0.0
H2698 H 0.45926 0.17383 0.06027 0.0
H2699 H 0.48381 0.1972 0.01363 0.0
H2700 H 0.48412 0.20638 0.98598 0.0
H2701 H 0.44868 0.23955 0.99845 0.0
H2702 H 0.44799 0.23039 0.02614 0.0
H2703 H 0.49997 0.23451 0.11095 0.0
H2704 H 0.49211 0.21357 0.09034 0.0
H2705 H 0.45624 0.24308 0.0726 0.0
H2706 H 0.46449 0.26429 0.09276 0.0
H2707 H 0.4716 0.23131 0.04866 0.0
H2708 H 0.44661 0.20879 0.09492 0.0
H2709 H 0.44511 0.19961 0.12256 0.0
H2710 H 0.47942 0.16497 0.11114 0.0
H2711 H 0.48129 0.17409 0.08347 0.0
C2712 C 0.44033 0.1676 0.00731 0.0
C2713 C 0.45013 0.15475 0.00466 0.0
C2714 C 0.44421 0.17947 0.01936 0.0
C2715 C 0.45789 0.17859 0.02901 0.0
C2716 C 0.46763 0.16574 0.02647 0.0
C2717 C 0.46385 0.15397 0.01432 0.0
C2718 C 0.46201 0.19105 0.04186 0.0
C2719 C 0.46215 0.18638 0.05778 0.0
C2720 C 0.46529 0.20744 0.03854 0.0
C2721 C 0.46573 0.21299 0.02191 0.0
C2722 C 0.47598 0.20635 0.01044 0.0
C2723 C 0.47624 0.21157 0.99477 0.0
C2724 C 0.46639 0.22351 0.99045 0.0
C2725 C 0.45628 0.23028 0.00181 0.0
C2726 C 0.45596 0.22509 0.01749 0.0
C2727 C 0.49032 0.23647 0.10274 0.0
C2728 C 0.48285 0.25104 0.10347 0.0
C2729 C 0.48578 0.22446 0.091 0.0
C2730 C 0.47344 0.22666 0.08002 0.0
C2731 C 0.46581 0.24112 0.08091 0.0
C2732 C 0.47052 0.25322 0.09247 0.0
C2733 C 0.46886 0.21417 0.06722 0.0
C2734 C 0.46865 0.21879 0.05126 0.0
C2735 C 0.46532 0.19776 0.07054 0.0
C2736 C 0.4642 0.19223 0.08716 0.0
C2737 C 0.45392 0.1993 0.09833 0.0
C2738 C 0.45299 0.19409 0.114 0.0
C2739 C 0.46219 0.18175 0.11862 0.0
C2740 C 0.47232 0.17455 0.10756 0.0
C2741 C 0.4733 0.17972 0.09187 0.0
H2742 H 0.46145 0.17774 0.13075 0.0
H2743 H 0.46661 0.22754 0.97831 0.0
H2744 H 0.24715 0.40268 0.74883 0.0
H2745 H 0.26341 0.42825 0.75179 0.0
H2746 H 0.29924 0.40942 0.72037 0.0
H2747 H 0.28356 0.38346 0.71818 0.0
H2748 H 0.31333 0.42398 0.745 0.0
H2749 H 0.2729 0.43788 0.70861 0.0
H2750 H 0.2454 0.4404 0.69862 0.0
H2751 H 0.23585 0.47126 0.7396 0.0
H2752 H 0.26324 0.46875 0.74995 0.0
H2753 H 0.35834 0.4977 0.73441 0.0
H2754 H 0.33933 0.4745 0.72804 0.0
H2755 H 0.30908 0.48893 0.76715 0.0
H2756 H 0.32811 0.51223 0.77373 0.0
H2757 H 0.29204 0.47725 0.73802 0.0
H2758 H 0.33283 0.46204 0.77437 0.0
H2759 H 0.36076 0.45981 0.78326 0.0
H2760 H 0.36986 0.43139 0.74045 0.0
H2761 H 0.34203 0.43366 0.7312 0.0
C2762 C 0.25855 0.4039 0.74264 0.0
C2763 C 0.26405 0.39093 0.73331 0.0
C2764 C 0.26773 0.41865 0.74415 0.0
C2765 C 0.28247 0.42086 0.73613 0.0
C2766 C 0.28788 0.40803 0.72663 0.0
C2767 C 0.27881 0.39321 0.72527 0.0
C2768 C 0.29265 0.43625 0.7383 0.0
C2769 C 0.3087 0.43559 0.7432 0.0
C2770 C 0.28656 0.45147 0.73631 0.0
C2771 C 0.27008 0.453 0.73013 0.0
C2772 C 0.2649 0.4451 0.71556 0.0
C2773 C 0.24934 0.44654 0.70982 0.0
C2774 C 0.23887 0.45595 0.71849 0.0
C2775 C 0.24396 0.46396 0.7329 0.0
C2776 C 0.25951 0.46255 0.7387 0.0
C2777 C 0.34755 0.49611 0.74155 0.0
C2778 C 0.34482 0.50674 0.7547 0.0
C2779 C 0.33671 0.48283 0.73789 0.0
C2780 C 0.32293 0.47996 0.74723 0.0
C2781 C 0.31969 0.49097 0.75982 0.0
C2782 C 0.3306 0.50422 0.76359 0.0
C2783 C 0.31258 0.46483 0.74459 0.0
C2784 C 0.29658 0.46558 0.7397 0.0
C2785 C 0.31871 0.44966 0.7464 0.0
C2786 C 0.3354 0.44816 0.75202 0.0
C2787 C 0.34082 0.45542 0.7668 0.0
C2788 C 0.35663 0.45414 0.77191 0.0
C2789 C 0.36709 0.4455 0.76241 0.0
C2790 C 0.36175 0.43809 0.74779 0.0
C2791 C 0.34596 0.43937 0.74261 0.0
H2792 H 0.37933 0.44452 0.76638 0.0
H2793 H 0.22683 0.45706 0.71403 0.0
H2794 H 0.28959 0.6976 0.81747 0.0
H2795 H 0.30792 0.67645 0.81374 0.0
H2796 H 0.28909 0.66534 0.76599 0.0
H2797 H 0.26964 0.68545 0.77017 0.0
H2798 H 0.29196 0.6391 0.77865 0.0
H2799 H 0.32802 0.68571 0.77458 0.0
H2800 H 0.34128 0.71247 0.78221 0.0
H2801 H 0.35916 0.69407 0.8254 0.0
H2802 H 0.34582 0.66723 0.81814 0.0
H2803 H 0.35733 0.5901 0.75855 0.0
H2804 H 0.34297 0.61477 0.75943 0.0
H2805 H 0.34003 0.61356 0.8109 0.0
H2806 H 0.35389 0.58863 0.8101 0.0
H2807 H 0.34967 0.64649 0.79408 0.0
H2808 H 0.30962 0.60019 0.79752 0.0
H2809 H 0.29735 0.5737 0.78756 0.0
H2810 H 0.28853 0.59293 0.74182 0.0
H2811 H 0.30099 0.61949 0.75147 0.0
C2812 C 0.28915 0.69056 0.80622 0.0
C2813 C 0.27797 0.69329 0.79417 0.0
C2814 C 0.29992 0.67862 0.80398 0.0
C2815 C 0.30016 0.66942 0.78945 0.0
C2816 C 0.28923 0.67229 0.77729 0.0
C2817 C 0.2782 0.68399 0.77965 0.0
C2818 C 0.31116 0.65623 0.7873 0.0
C2819 C 0.30463 0.6409 0.78178 0.0
C2820 C 0.32774 0.65837 0.79145 0.0
C2821 C 0.3358 0.67448 0.79587 0.0
C2822 C 0.33468 0.68739 0.78576 0.0
C2823 C 0.34223 0.70257 0.79001 0.0
C2824 C 0.35102 0.70498 0.80429 0.0
C2825 C 0.35233 0.69219 0.81434 0.0
C2826 C 0.34479 0.67699 0.81016 0.0
C2827 C 0.35383 0.59523 0.77007 0.0
C2828 C 0.35664 0.58744 0.78426 0.0
C2829 C 0.34565 0.60928 0.77054 0.0
C2830 C 0.34049 0.61591 0.78523 0.0
C2831 C 0.344 0.60861 0.79947 0.0
C2832 C 0.35183 0.59437 0.79898 0.0
C2833 C 0.33031 0.62966 0.78566 0.0
C2834 C 0.33702 0.64496 0.79084 0.0
C2835 C 0.31401 0.62764 0.78087 0.0
C2836 C 0.30641 0.61174 0.77514 0.0
C2837 C 0.30521 0.59872 0.78529 0.0
C2838 C 0.29819 0.5837 0.77971 0.0
C2839 C 0.29221 0.58161 0.76405 0.0
C2840 C 0.2932 0.59455 0.75394 0.0
C2841 C 0.30023 0.60959 0.75946 0.0
H2842 H 0.28678 0.56998 0.75975 0.0
H2843 H 0.35685 0.71674 0.80756 0.0
H2844 H 0.88184 0.51789 0.49424 0.0
H2845 H 0.86057 0.4978 0.50192 0.0
H2846 H 0.83251 0.50809 0.46071 0.0
H2847 H 0.85381 0.52819 0.45293 0.0
H2848 H 0.81546 0.50794 0.49044 0.0
H2849 H 0.84988 0.47491 0.45904 0.0
H2850 H 0.87575 0.4642 0.45159 0.0
H2851 H 0.87969 0.44551 0.49837 0.0
H2852 H 0.85394 0.45632 0.50618 0.0
H2853 H 0.75488 0.44464 0.49468 0.0
H2854 H 0.77666 0.46329 0.48574 0.0
H2855 H 0.8085 0.44614 0.52084 0.0
H2856 H 0.78687 0.42697 0.52944 0.0
H2857 H 0.82393 0.44991 0.4941 0.0
H2858 H 0.79084 0.48273 0.52636 0.0
H2859 H 0.76572 0.49405 0.53537 0.0
H2860 H 0.76011 0.51397 0.48938 0.0
H2861 H 0.78509 0.50258 0.48001 0.0
C2862 C 0.87113 0.51584 0.48683 0.0
C2863 C 0.86941 0.52456 0.47301 0.0
C2864 C 0.85906 0.50434 0.49117 0.0
C2865 C 0.84505 0.50146 0.48183 0.0
C2866 C 0.84328 0.51016 0.46803 0.0
C2867 C 0.85545 0.52153 0.46357 0.0
C2868 C 0.83208 0.48962 0.48669 0.0
C2869 C 0.81719 0.4952 0.49102 0.0
C2870 C 0.83462 0.47314 0.48795 0.0
C2871 C 0.85006 0.46656 0.48324 0.0
C2872 C 0.85633 0.46864 0.46779 0.0
C2873 C 0.87096 0.46252 0.46349 0.0
C2874 C 0.87938 0.45422 0.47451 0.0
C2875 C 0.87317 0.45197 0.48985 0.0
C2876 C 0.85855 0.45807 0.49421 0.0
C2877 C 0.76652 0.44483 0.5005 0.0
C2878 C 0.76914 0.43441 0.51284 0.0
C2879 C 0.77895 0.45556 0.49543 0.0
C2880 C 0.79414 0.45635 0.50283 0.0
C2881 C 0.79686 0.44577 0.51498 0.0
C2882 C 0.78449 0.43485 0.51991 0.0
C2883 C 0.80718 0.46818 0.49784 0.0
C2884 C 0.82213 0.46263 0.49351 0.0
C2885 C 0.80477 0.48476 0.49683 0.0
C2886 C 0.78976 0.49167 0.50244 0.0
C2887 C 0.78419 0.48942 0.51813 0.0
C2888 C 0.76998 0.49587 0.52331 0.0
C2889 C 0.7613 0.50468 0.51294 0.0
C2890 C 0.76683 0.50711 0.49739 0.0
C2891 C 0.78102 0.50068 0.49214 0.0
H2892 H 0.75031 0.50966 0.51698 0.0
H2893 H 0.8907 0.44949 0.47116 0.0
H2894 H 0.74001 0.88252 0.78743 0.0
H2895 H 0.72022 0.90274 0.78696 0.0
H2896 H 0.68375 0.86611 0.77055 0.0
H2897 H 0.70352 0.84566 0.7713 0.0
H2898 H 0.68779 0.89865 0.75343 0.0
H2899 H 0.67841 0.87496 0.80449 0.0
H2900 H 0.68687 0.86505 0.83031 0.0
H2901 H 0.70813 0.91224 0.84428 0.0
H2902 H 0.70003 0.92237 0.81841 0.0
H2903 H 0.62976 0.95722 0.76443 0.0
H2904 H 0.64254 0.93165 0.76384 0.0
H2905 H 0.67926 0.95292 0.79654 0.0
H2906 H 0.66622 0.9781 0.79769 0.0
H2907 H 0.67119 0.92437 0.80497 0.0
H2908 H 0.68456 0.94765 0.75426 0.0
H2909 H 0.67872 0.95863 0.72814 0.0
H2910 H 0.65267 0.91394 0.71317 0.0
H2911 H 0.65821 0.90276 0.7393 0.0
C2912 C 0.7278 0.8788 0.7836 0.0
C2913 C 0.72325 0.86258 0.77937 0.0
C2914 C 0.71654 0.89032 0.78339 0.0
C2915 C 0.70059 0.88585 0.77875 0.0
C2916 C 0.69604 0.86973 0.77415 0.0
C2917 C 0.70727 0.8581 0.77464 0.0
C2918 C 0.68874 0.89816 0.77915 0.0
C2919 C 0.68382 0.90409 0.76466 0.0
C2920 C 0.68397 0.9054 0.79383 0.0
C2921 C 0.68873 0.89939 0.80946 0.0
C2922 C 0.68502 0.88319 0.81301 0.0
C2923 C 0.68972 0.87754 0.82766 0.0
C2924 C 0.69806 0.888 0.83891 0.0
C2925 C 0.70168 0.90415 0.83555 0.0
C2926 C 0.69702 0.90985 0.8209 0.0
C2927 C 0.64052 0.95637 0.77153 0.0
C2928 C 0.64701 0.96965 0.78109 0.0
C2929 C 0.64785 0.94179 0.77113 0.0
C2930 C 0.662 0.94039 0.77999 0.0
C2931 C 0.66834 0.95364 0.78964 0.0
C2932 C 0.66089 0.96807 0.79026 0.0
C2933 C 0.67047 0.92531 0.77921 0.0
C2934 C 0.67482 0.91882 0.79367 0.0
C2935 C 0.67495 0.91775 0.76448 0.0
C2936 C 0.67162 0.92445 0.74879 0.0
C2937 C 0.67748 0.94022 0.74544 0.0
C2938 C 0.67424 0.94646 0.73063 0.0
C2939 C 0.66528 0.93701 0.71903 0.0
C2940 C 0.65958 0.92126 0.72219 0.0
C2941 C 0.66277 0.91496 0.73699 0.0
H2942 H 0.66279 0.94186 0.70756 0.0
H2943 H 0.70169 0.8836 0.85025 0.0
H2944 H 0.62228 0.53648 0.95459 0.0
H2945 H 0.64362 0.55713 0.96227 0.0
H2946 H 0.67937 0.52399 0.94954 0.0
H2947 H 0.65795 0.50312 0.94211 0.0
H2948 H 0.68703 0.53931 0.97705 0.0
H2949 H 0.67175 0.55528 0.92551 0.0
H2950 H 0.65327 0.56211 0.90422 0.0
H2951 H 0.63844 0.60183 0.93378 0.0
H2952 H 0.65667 0.59511 0.95536 0.0
H2953 H 0.75147 0.60106 0.98036 0.0
H2954 H 0.7317 0.57964 0.97059 0.0
H2955 H 0.69323 0.60749 0.98791 0.0
H2956 H 0.71289 0.62904 0.99771 0.0
H2957 H 0.68827 0.59442 0.95673 0.0
H2958 H 0.70368 0.57709 0.00864 0.0
H2959 H 0.72337 0.57037 0.02888 0.0
H2960 H 0.7393 0.53295 0.99697 0.0
H2961 H 0.71986 0.53961 0.97644 0.0
C2962 C 0.6347 0.53366 0.95324 0.0
C2963 C 0.63848 0.51825 0.94764 0.0
C2964 C 0.64688 0.54547 0.95763 0.0
C2965 C 0.6631 0.54219 0.95624 0.0
C2966 C 0.66693 0.52679 0.95068 0.0
C2967 C 0.65472 0.51489 0.94644 0.0
C2968 C 0.676 0.55479 0.96099 0.0
C2969 C 0.68745 0.55127 0.9724 0.0
C2970 C 0.67643 0.57047 0.95508 0.0
C2971 C 0.66549 0.5746 0.94211 0.0
C2972 C 0.66446 0.5654 0.92752 0.0
C2973 C 0.65405 0.56926 0.91539 0.0
C2974 C 0.64466 0.58237 0.91766 0.0
C2975 C 0.64571 0.59167 0.93205 0.0
C2976 C 0.65609 0.58785 0.94423 0.0
C2977 C 0.7388 0.60265 0.9821 0.0
C2978 C 0.73374 0.61675 0.98985 0.0
C2979 C 0.72754 0.59037 0.97655 0.0
C2980 C 0.71105 0.59198 0.97863 0.0
C2981 C 0.70594 0.60606 0.98621 0.0
C2982 C 0.71719 0.61832 0.99185 0.0
C2983 C 0.69908 0.57896 0.97289 0.0
C2984 C 0.68784 0.5824 0.96128 0.0
C2985 C 0.69897 0.56318 0.97848 0.0
C2986 C 0.71042 0.55895 0.99095 0.0
C2987 C 0.71146 0.5675 0.0059 0.0
C2988 C 0.72256 0.56369 0.01743 0.0
C2989 C 0.73262 0.55128 0.0142 0.0
C2990 C 0.73152 0.54259 0.99945 0.0
C2991 C 0.72045 0.54636 0.98787 0.0
H2992 H 0.74123 0.54838 0.02312 0.0
H2993 H 0.63661 0.58534 0.90825 0.0
H2994 H 0.24622 0.6518 0.25007 0.0
H2995 H 0.22911 0.62697 0.25216 0.0
H2996 H 0.18924 0.64976 0.2324 0.0
H2997 H 0.20599 0.67503 0.23132 0.0
H2998 H 0.17918 0.63326 0.25624 0.0
H2999 H 0.21096 0.62172 0.21017 0.0
H3000 H 0.2358 0.61955 0.19447 0.0
H3001 H 0.25166 0.58517 0.22657 0.0
H3002 H 0.22701 0.58729 0.2426 0.0
H3003 H 0.13051 0.56062 0.23976 0.0
H3004 H 0.14836 0.5846 0.23509 0.0
H3005 H 0.18463 0.56707 0.26517 0.0
H3006 H 0.16678 0.54306 0.27011 0.0
H3007 H 0.19615 0.58049 0.23524 0.0
H3008 H 0.16385 0.59327 0.28149 0.0
H3009 H 0.1383 0.59526 0.29602 0.0
H3010 H 0.12261 0.6274 0.26151 0.0
H3011 H 0.148 0.6254 0.24664 0.0
C3012 C 0.23376 0.65164 0.24635 0.0
C3013 C 0.2275 0.66549 0.24057 0.0
C3014 C 0.22404 0.63732 0.24731 0.0
C3015 C 0.20794 0.63638 0.24217 0.0
C3016 C 0.20165 0.65015 0.23636 0.0
C3017 C 0.21131 0.66457 0.23559 0.0
C3018 C 0.19755 0.62119 0.24335 0.0
C3019 C 0.18281 0.62179 0.25139 0.0
C3020 C 0.20237 0.60613 0.2373 0.0
C3021 C 0.2172 0.60478 0.22767 0.0
C3022 C 0.2198 0.61379 0.21395 0.0
C3023 C 0.23383 0.61255 0.20498 0.0
C3024 C 0.24531 0.60226 0.20955 0.0
C3025 C 0.24276 0.59315 0.22306 0.0
C3026 C 0.22875 0.59435 0.23209 0.0
C3027 C 0.14235 0.56176 0.24526 0.0
C3028 C 0.14721 0.54998 0.25538 0.0
C3029 C 0.1525 0.57548 0.2426 0.0
C3030 C 0.16772 0.57759 0.24988 0.0
C3031 C 0.17289 0.5656 0.25947 0.0
C3032 C 0.16267 0.55195 0.26231 0.0
C3033 C 0.17793 0.59269 0.24807 0.0
C3034 C 0.19258 0.59204 0.23996 0.0
C3035 C 0.17296 0.60773 0.25386 0.0
C3036 C 0.15775 0.60905 0.26286 0.0
C3037 C 0.1549 0.60065 0.27693 0.0
C3038 C 0.14045 0.6018 0.28524 0.0
C3039 C 0.12882 0.61142 0.27967 0.0
C3040 C 0.13163 0.61994 0.2658 0.0
C3041 C 0.14604 0.61881 0.25743 0.0
H3042 H 0.11764 0.6123 0.28612 0.0
H3043 H 0.25617 0.60132 0.20259 0.0
H3044 H 0.88047 0.51828 0.04466 0.0
H3045 H 0.86808 0.54289 0.03846 0.0
H3046 H 0.84576 0.54402 0.08503 0.0
H3047 H 0.85795 0.51914 0.09124 0.0
H3048 H 0.82472 0.54953 0.06066 0.0
H3049 H 0.87712 0.56992 0.0786 0.0
H3050 H 0.90676 0.57144 0.0797 0.0
H3051 H 0.909 0.58277 0.03008 0.0
H3052 H 0.87936 0.58108 0.02861 0.0
H3053 H 0.79705 0.62619 0.04627 0.0
H3054 H 0.81192 0.60635 0.05968 0.0
H3055 H 0.83857 0.59761 0.0163 0.0
H3056 H 0.82385 0.61737 0.00286 0.0
H3057 H 0.85762 0.59769 0.0431 0.0
H3058 H 0.8061 0.57357 0.02404 0.0
H3059 H 0.77648 0.57115 0.02186 0.0
H3060 H 0.77274 0.56625 0.0727 0.0
H3061 H 0.80235 0.56884 0.07521 0.0
C3062 C 0.87283 0.52369 0.05355 0.0
C3063 C 0.87016 0.51676 0.06843 0.0
C3064 C 0.86589 0.53784 0.05005 0.0
C3065 C 0.85616 0.54538 0.06137 0.0
C3066 C 0.85331 0.53842 0.07618 0.0
C3067 C 0.86033 0.52428 0.07973 0.0
C3068 C 0.84875 0.56034 0.05746 0.0
C3069 C 0.83191 0.5602 0.05717 0.0
C3070 C 0.85815 0.57413 0.05262 0.0
C3071 C 0.876 0.57526 0.05347 0.0
C3072 C 0.88392 0.57262 0.06789 0.0
C3073 C 0.90073 0.57353 0.06858 0.0
C3074 C 0.90975 0.57718 0.05496 0.0
C3075 C 0.90199 0.57995 0.04062 0.0
C3076 C 0.88519 0.57903 0.03985 0.0
C3077 C 0.80632 0.62029 0.0397 0.0
C3078 C 0.8092 0.62323 0.02347 0.0
C3079 C 0.81473 0.6089 0.04735 0.0
C3080 C 0.82618 0.60036 0.0389 0.0
C3081 C 0.82976 0.60404 0.02302 0.0
C3082 C 0.8213 0.61531 0.01535 0.0
C3083 C 0.83362 0.58677 0.04606 0.0
C3084 C 0.85045 0.58714 0.04691 0.0
C3085 C 0.82422 0.57315 0.05132 0.0
C3086 C 0.80642 0.57161 0.04984 0.0
C3087 C 0.79895 0.57212 0.03477 0.0
C3088 C 0.78217 0.57069 0.03347 0.0
C3089 C 0.77273 0.56861 0.04714 0.0
C3090 C 0.78006 0.5679 0.06213 0.0
C3091 C 0.79684 0.56935 0.0635 0.0
H3092 H 0.75974 0.56749 0.04611 0.0
H3093 H 0.92276 0.57787 0.05552 0.0
H3094 H 0.13613 0.05023 0.1112 0.0
H3095 H 0.14924 0.02497 0.10738 0.0
H3096 H 0.13436 0.02142 0.05775 0.0
H3097 H 0.12095 0.04633 0.06156 0.0
H3098 H 0.12895 0.99285 0.07191 0.0
H3099 H 0.17259 0.03466 0.06861 0.0
H3100 H 0.18985 0.05833 0.0788 0.0
H3101 H 0.20378 0.03215 0.11899 0.0
H3102 H 0.18642 0.00837 0.10913 0.0
H3103 H 0.18122 0.94662 0.02764 0.0
H3104 H 0.165 0.96657 0.04048 0.0
H3105 H 0.1868 0.95915 0.08617 0.0
H3106 H 0.20329 0.93907 0.07327 0.0
H3107 H 0.18776 0.99092 0.07973 0.0
H3108 H 0.14757 0.94752 0.08026 0.0
H3109 H 0.1307 0.92379 0.06961 0.0
H3110 H 0.11033 0.9526 0.03466 0.0
H3111 H 0.12724 0.97647 0.04494 0.0
C3112 C 0.1356 0.04401 0.0995 0.0
C3113 C 0.12759 0.05034 0.08665 0.0
C3114 C 0.14316 0.02964 0.09732 0.0
C3115 C 0.14283 0.02136 0.08227 0.0
C3116 C 0.13475 0.02761 0.06948 0.0
C3117 C 0.12725 0.04195 0.07163 0.0
C3118 C 0.15096 0.00625 0.07959 0.0
C3119 C 0.14182 0.99242 0.07356 0.0
C3120 C 0.16764 0.00554 0.08233 0.0
C3121 C 0.17805 0.01982 0.08825 0.0
C3122 C 0.17922 0.034 0.0797 0.0
C3123 C 0.18904 0.04743 0.08539 0.0
C3124 C 0.19786 0.04677 0.09956 0.0
C3125 C 0.19691 0.03266 0.10804 0.0
C3126 C 0.18709 0.0192 0.1024 0.0
C3127 C 0.1824 0.949 0.04047 0.0
C3128 C 0.19356 0.94129 0.04944 0.0
C3129 C 0.17304 0.96037 0.04782 0.0
C3130 C 0.17459 0.96427 0.06431 0.0
C3131 C 0.18539 0.95626 0.07343 0.0
C3132 C 0.19472 0.94476 0.06607 0.0
C3133 C 0.16584 0.97766 0.07151 0.0
C3134 C 0.17484 0.99119 0.0784 0.0
C3135 C 0.14902 0.9781 0.06956 0.0
C3136 C 0.13875 0.96378 0.06334 0.0
C3137 C 0.13957 0.94878 0.07023 0.0
C3138 C 0.12999 0.9353 0.06427 0.0
C3139 C 0.11946 0.93668 0.05146 0.0
C3140 C 0.11848 0.95155 0.04459 0.0
C3141 C 0.12805 0.96507 0.0505 0.0
H3142 H 0.11205 0.92623 0.04686 0.0
H3143 H 0.20546 0.05717 0.10395 0.0
loop_
_geom_bond_atom_site_label_1
_geom_bond_atom_site_label_2
_geom_bond_distance
_geom_bond_site_symmetry_2
_ccdc_geom_bond_type
C0 C1 1.384 . S
C0 H13 0.947 . S
C0 C35 1.382 . S
C1 C0 1.384 . S
C1 C2 1.378 . S
C2 C1 1.378 . S
C2 C3 1.378 . S
C2 H14 0.952 . S
C3 C2 1.378 . S
C3 H15 0.950 . S
C3 C34 1.383 . S
H4 C23 0.947 . S
H5 C24 0.946 . S
H6 C26 0.953 . S
H7 C27 0.945 . S
H8 C29 0.952 . S
H9 C30 0.949 . S
H10 C32 0.950 . S
H11 C33 0.948 . S
H12 C35 0.951 . S
H13 C0 0.947 . S
H14 C2 0.952 . S
H15 C3 0.950 . S
N16 C19 1.382 . S
N16 C21 1.363 . S
N17 C19 1.371 . S
N17 C20 1.372 . S
N18 C20 1.361 . S
N18 C21 1.377 . S
C19 N16 1.382 . S
C19 N17 1.371 . S
C19 C22 1.480 . S
C20 N17 1.372 . S
C20 N18 1.361 . S
C20 C28 1.457 . S
C21 N16 1.363 . S
C21 N18 1.377 . S
C21 C34 1.479 . S
C22 C19 1.480 . S
C22 C23 1.383 . S
C22 C27 1.385 . S
C23 H4 0.947 . S
C23 C22 1.383 . S
C23 C24 1.388 . S
C24 H5 0.946 . S
C24 C23 1.388 . S
C24 C25 1.384 . S
C25 C24 1.384 . S
C25 C26 1.377 . S
C26 H6 0.953 . S
C26 C25 1.377 . S
C26 C27 1.369 . S
C27 H7 0.945 . S
C27 C22 1.385 . S
C27 C26 1.369 . S
C28 C20 1.457 . S
C28 C29 1.372 . S
C28 C33 1.364 . S
C29 H8 0.952 . S
C29 C28 1.372 . S
C29 C30 1.389 . S
C30 H9 0.949 . S
C30 C29 1.389 . S
C30 C31 1.387 . S
C31 C30 1.387 . S
C31 C32 1.372 . S
C32 H10 0.950 . S
C32 C31 1.372 . S
C32 C33 1.379 . S
C33 H11 0.948 . S
C33 C28 1.364 . S
C33 C32 1.379 . S
C34 C3 1.383 . S
C34 C21 1.479 . S
C34 C35 1.398 . S
C35 C0 1.382 . S
C35 H12 0.951 . S
C35 C34 1.398 . S
C36 C37 1.384 . S
C36 H49 0.947 . S
C36 C71 1.382 . S
C37 C36 1.384 . S
C37 C38 1.378 . S
C38 C37 1.378 . S
C38 C39 1.378 . S
C38 H50 0.952 . S
C39 C38 1.378 . S
C39 H51 0.950 . S
C39 C70 1.383 . S
H40 C59 0.947 . S
H41 C60 0.946 . S
H42 C62 0.953 . S
H43 C63 0.945 . S
H44 C65 0.952 . S
H45 C66 0.949 . S
H46 C68 0.950 . S
H47 C69 0.948 . S
H48 C71 0.951 . S
H49 C36 0.947 . S
H50 C38 0.952 . S
H51 C39 0.950 . S
N52 C55 1.382 . S
N52 C57 1.363 . S
N53 C55 1.371 . S
N53 C56 1.372 . S
N54 C56 1.361 . S
N54 C57 1.377 . S
C55 N52 1.382 . S
C55 N53 1.371 . S
C55 C58 1.480 . S
C56 N53 1.372 . S
C56 N54 1.361 . S
C56 C64 1.457 . S
C57 N52 1.363 . S
C57 N54 1.377 . S
C57 C70 1.479 . S
C58 C55 1.480 . S
C58 C59 1.383 . S
C58 C63 1.385 . S
C59 H40 0.947 . S
C59 C58 1.383 . S
C59 C60 1.388 . S
C60 H41 0.946 . S
C60 C59 1.388 . S
C60 C61 1.384 . S
C61 C60 1.384 . S
C61 C62 1.377 . S
C62 H42 0.953 . S
C62 C61 1.377 . S
C62 C63 1.369 . S
C63 H43 0.945 . S
C63 C58 1.385 . S
C63 C62 1.369 . S
C64 C56 1.457 . S
C64 C65 1.372 . S
C64 C69 1.364 . S
C65 H44 0.952 . S
C65 C64 1.372 . S
C65 C66 1.389 . S
C66 H45 0.949 . S
C66 C65 1.389 . S
C66 C67 1.387 . S
C67 C66 1.387 . S
C67 C68 1.372 . S
C68 H46 0.950 . S
C68 C67 1.372 . S
C68 C69 1.379 . S
C69 H47 0.948 . S
C69 C64 1.364 . S
C69 C68 1.379 . S
C70 C39 1.383 . S
C70 C57 1.479 . S
C70 C71 1.398 . S
C71 C36 1.382 . S
C71 H48 0.951 . S
C71 C70 1.398 . S
C72 C73 1.384 . S
C72 H85 0.947 . S
C72 C107 1.382 . S
C73 C72 1.384 . S
C73 C74 1.378 . S
C74 C73 1.378 . S
C74 C75 1.378 . S
C74 H86 0.952 . S
C75 C74 1.378 . S
C75 H87 0.950 . S
C75 C106 1.383 . S
H76 C95 0.947 . S
H77 C96 0.946 . S
H78 C98 0.953 . S
H79 C99 0.945 . S
H80 C101 0.952 . S
H81 C102 0.949 . S
H82 C104 0.950 . S
H83 C105 0.948 . S
H84 C107 0.951 . S
H85 C72 0.947 . S
H86 C74 0.952 . S
H87 C75 0.950 . S
N88 C91 1.382 . S
N88 C93 1.363 . S
N89 C91 1.371 . S
N89 C92 1.372 . S
N90 C92 1.361 . S
N90 C93 1.377 . S
C91 N88 1.382 . S
C91 N89 1.371 . S
C91 C94 1.480 . S
C92 N89 1.372 . S
C92 N90 1.361 . S
C92 C100 1.457 . S
C93 N88 1.363 . S
C93 N90 1.377 . S
C93 C106 1.479 . S
C94 C91 1.480 . S
C94 C95 1.383 . S
C94 C99 1.385 . S
C95 H76 0.947 . S
C95 C94 1.383 . S
C95 C96 1.388 . S
C96 H77 0.946 . S
C96 C95 1.388 . S
C96 C97 1.384 . S
C97 C96 1.384 . S
C97 C98 1.377 . S
C98 H78 0.953 . S
C98 C97 1.377 . S
C98 C99 1.369 . S
C99 H79 0.945 . S
C99 C94 1.385 . S
C99 C98 1.369 . S
C100 C92 1.457 . S
C100 C101 1.372 . S
C100 C105 1.364 . S
C101 H80 0.952 . S
C101 C100 1.372 . S
C101 C102 1.389 . S
C102 H81 0.949 . S
C102 C101 1.389 . S
C102 C103 1.387 . S
C103 C102 1.387 . S
C103 C104 1.372 . S
C104 H82 0.950 . S
C104 C103 1.372 . S
C104 C105 1.379 . S
C105 H83 0.948 . S
C105 C100 1.364 . S
C105 C104 1.379 . S
C106 C75 1.383 . S
C106 C93 1.479 . S
C106 C107 1.398 . S
C107 C72 1.382 . S
C107 H84 0.951 . S
C107 C106 1.398 . S
C108 C109 1.384 . S
C108 H121 0.947 . S
C108 C143 1.382 . S
C109 C108 1.384 . S
C109 C110 1.378 . S
C110 C109 1.378 . S
C110 C111 1.378 . S
C110 H122 0.952 . S
C111 C110 1.378 . S
C111 H123 0.950 . S
C111 C142 1.383 . S
H112 C131 0.947 . S
H113 C132 0.946 . S
H114 C134 0.953 . S
H115 C135 0.945 . S
H116 C137 0.952 . S
H117 C138 0.949 . S
H118 C140 0.950 . S
H119 C141 0.948 . S
H120 C143 0.951 . S
H121 C108 0.947 . S
H122 C110 0.952 . S
H123 C111 0.950 . S
N124 C127 1.382 . S
N124 C129 1.363 . S
N125 C127 1.371 . S
N125 C128 1.372 . S
N126 C128 1.361 . S
N126 C129 1.377 . S
C127 N124 1.382 . S
C127 N125 1.371 . S
C127 C130 1.480 . S
C128 N125 1.372 . S
C128 N126 1.361 . S
C128 C136 1.457 . S
C129 N124 1.363 . S
C129 N126 1.377 . S
C129 C142 1.479 . S
C130 C127 1.480 . S
C130 C131 1.383 . S
C130 C135 1.385 . S
C131 H112 0.947 . S
C131 C130 1.383 . S
C131 C132 1.388 . S
C132 H113 0.946 . S
C132 C131 1.388 . S
C132 C133 1.384 . S
C133 C132 1.384 . S
C133 C134 1.377 . S
C134 H114 0.953 . S
C134 C133 1.377 . S
C134 C135 1.369 . S
C135 H115 0.945 . S
C135 C130 1.385 . S
C135 C134 1.369 . S
C136 C128 1.457 . S
C136 C137 1.372 . S
C136 C141 1.364 . S
C137 H116 0.952 . S
C137 C136 1.372 . S
C137 C138 1.389 . S
C138 H117 0.949 . S
C138 C137 1.389 . S
C138 C139 1.387 . S
C139 C138 1.387 . S
C139 C140 1.372 . S
C140 H118 0.950 . S
C140 C139 1.372 . S
C140 C141 1.379 . S
C141 H119 0.948 . S
C141 C136 1.364 . S
C141 C140 1.379 . S
C142 C111 1.383 . S
C142 C129 1.479 . S
C142 C143 1.398 . S
C143 C108 1.382 . S
C143 H120 0.951 . S
C143 C142 1.398 . S
C144 C145 1.384 . S
C144 H157 0.947 . S
C144 C179 1.382 . S
C145 C144 1.384 . S
C145 C146 1.378 . S
C146 C145 1.378 . S
C146 C147 1.378 . S
C146 H158 0.952 . S
C147 C146 1.378 . S
C147 H159 0.950 . S
C147 C178 1.383 . S
H148 C167 0.947 . S
H149 C168 0.946 . S
H150 C170 0.953 . S
H151 C171 0.945 . S
H152 C173 0.952 . S
H153 C174 0.949 1_545 S
H154 C176 0.950 . S
H155 C177 0.948 . S
H156 C179 0.951 . S
H157 C144 0.947 . S
H158 C146 0.952 . S
H159 C147 0.950 . S
N160 C163 1.382 . S
N160 C165 1.363 . S
N161 C163 1.371 . S
N161 C164 1.372 . S
N162 C164 1.361 . S
N162 C165 1.377 . S
C163 N160 1.382 . S
C163 N161 1.371 . S
C163 C166 1.480 . S
C164 N161 1.372 . S
C164 N162 1.361 . S
C164 C172 1.457 . S
C165 N160 1.363 . S
C165 N162 1.377 . S
C165 C178 1.479 . S
C166 C163 1.480 . S
C166 C167 1.383 . S
C166 C171 1.385 . S
C167 H148 0.947 . S
C167 C166 1.383 . S
C167 C168 1.388 . S
C168 H149 0.946 . S
C168 C167 1.388 . S
C168 C169 1.384 . S
C169 C168 1.384 . S
C169 C170 1.377 . S
C170 H150 0.953 . S
C170 C169 1.377 . S
C170 C171 1.369 . S
C171 H151 0.945 . S
C171 C166 1.385 . S
C171 C170 1.369 . S
C172 C164 1.457 . S
C172 C173 1.372 . S
C172 C177 1.364 . S
C173 H152 0.952 . S
C173 C172 1.372 . S
C173 C174 1.389 . S
C174 H153 0.949 1_565 S
C174 C173 1.389 . S
C174 C175 1.387 . S
C175 C174 1.387 . S
C175 C176 1.372 . S
C176 H154 0.950 . S
C176 C175 1.372 . S
C176 C177 1.379 . S
C177 H155 0.948 . S
C177 C172 1.364 . S
C177 C176 1.379 . S
C178 C147 1.383 . S
C178 C165 1.479 . S
C178 C179 1.398 . S
C179 C144 1.382 . S
C179 H156 0.951 . S
C179 C178 1.398 . S
C180 C181 1.384 . S
C180 H193 0.947 . S
C180 C215 1.382 . S
C181 C180 1.384 . S
C181 C182 1.378 . S
C182 C181 1.378 . S
C182 C183 1.378 . S
C182 H194 0.952 . S
C183 C182 1.378 . S
C183 H195 0.950 . S
C183 C214 1.383 . S
H184 C203 0.947 . S
H185 C204 0.946 . S
H186 C206 0.953 . S
H187 C207 0.945 . S
H188 C209 0.952 . S
H189 C210 0.949 . S
H190 C212 0.950 . S
H191 C213 0.948 . S
H192 C215 0.951 . S
H193 C180 0.947 . S
H194 C182 0.952 . S
H195 C183 0.950 . S
N196 C199 1.382 . S
N196 C201 1.363 . S
N197 C199 1.371 . S
N197 C200 1.372 . S
N198 C200 1.361 . S
N198 C201 1.377 . S
C199 N196 1.382 . S
C199 N197 1.371 . S
C199 C202 1.480 . S
C200 N197 1.372 . S
C200 N198 1.361 . S
C200 C208 1.457 . S
C201 N196 1.363 . S
C201 N198 1.377 . S
C201 C214 1.479 . S
C202 C199 1.480 . S
C202 C203 1.383 . S
C202 C207 1.385 . S
C203 H184 0.947 . S
C203 C202 1.383 . S
C203 C204 1.388 . S
C204 H185 0.946 . S
C204 C203 1.388 . S
C204 C205 1.384 . S
C205 C204 1.384 . S
C205 C206 1.377 . S
C206 H186 0.953 . S
C206 C205 1.377 . S
C206 C207 1.369 . S
C207 H187 0.945 . S
C207 C202 1.385 . S
C207 C206 1.369 . S
C208 C200 1.457 . S
C208 C209 1.372 . S
C208 C213 1.364 . S
C209 H188 0.952 . S
C209 C208 1.372 . S
C209 C210 1.389 . S
C210 H189 0.949 . S
C210 C209 1.389 . S
C210 C211 1.387 . S
C211 C210 1.387 . S
C211 C212 1.372 . S
C212 H190 0.950 . S
C212 C211 1.372 . S
C212 C213 1.379 . S
C213 H191 0.948 . S
C213 C208 1.364 . S
C213 C212 1.379 . S
C214 C183 1.383 . S
C214 C201 1.479 . S
C214 C215 1.398 . S
C215 C180 1.382 . S
C215 H192 0.951 . S
C215 C214 1.398 . S
C216 C217 1.384 . S
C216 H229 0.947 . S
C216 C251 1.382 . S
C217 C216 1.384 . S
C217 C218 1.378 . S
C218 C217 1.378 . S
C218 C219 1.378 . S
C218 H230 0.952 . S
C219 C218 1.378 . S
C219 H231 0.950 . S
C219 C250 1.383 . S
H220 C239 0.947 . S
H221 C240 0.946 . S
H222 C242 0.953 . S
H223 C243 0.945 . S
H224 C245 0.952 . S
H225 C246 0.949 . S
H226 C248 0.950 . S
H227 C249 0.948 . S
H228 C251 0.951 . S
H229 C216 0.947 . S
H230 C218 0.952 . S
H231 C219 0.950 . S
N232 C235 1.382 . S
N232 C237 1.363 . S
N233 C235 1.371 . S
N233 C236 1.372 . S
N234 C236 1.361 . S
N234 C237 1.377 . S
C235 N232 1.382 . S
C235 N233 1.371 . S
C235 C238 1.480 . S
C236 N233 1.372 . S
C236 N234 1.361 . S
C236 C244 1.457 . S
C237 N232 1.363 . S
C237 N234 1.377 . S
C237 C250 1.479 . S
C238 C235 1.480 . S
C238 C239 1.383 . S
C238 C243 1.385 . S
C239 H220 0.947 . S
C239 C238 1.383 . S
C239 C240 1.388 . S
C240 H221 0.946 . S
C240 C239 1.388 . S
C240 C241 1.384 . S
C241 C240 1.384 . S
C241 C242 1.377 . S
C242 H222 0.953 . S
C242 C241 1.377 . S
C242 C243 1.369 . S
C243 H223 0.945 . S
C243 C238 1.385 . S
C243 C242 1.369 . S
C244 C236 1.457 . S
C244 C245 1.372 . S
C244 C249 1.364 . S
C245 H224 0.952 . S
C245 C244 1.372 . S
C245 C246 1.389 . S
C246 H225 0.949 . S
C246 C245 1.389 . S
C246 C247 1.387 . S
C247 C246 1.387 . S
C247 C248 1.372 . S
C248 H226 0.950 . S
C248 C247 1.372 . S
C248 C249 1.379 . S
C249 H227 0.948 . S
C249 C244 1.364 . S
C249 C248 1.379 . S
C250 C219 1.383 . S
C250 C237 1.479 . S
C250 C251 1.398 . S
C251 C216 1.382 . S
C251 H228 0.951 . S
C251 C250 1.398 . S
C252 C253 1.384 . S
C252 H265 0.947 . S
C252 C287 1.382 . S
C253 C252 1.384 . S
C253 C254 1.378 . S
C254 C253 1.378 . S
C254 C255 1.378 . S
C254 H266 0.952 . S
C255 C254 1.378 . S
C255 H267 0.950 . S
C255 C286 1.383 . S
H256 C275 0.947 . S
H257 C276 0.946 . S
H258 C278 0.953 . S
H259 C279 0.945 . S
H260 C281 0.952 . S
H261 C282 0.949 . S
H262 C284 0.950 . S
H263 C285 0.948 . S
H264 C287 0.951 . S
H265 C252 0.947 . S
H266 C254 0.952 . S
H267 C255 0.950 . S
N268 C271 1.382 . S
N268 C273 1.363 . S
N269 C271 1.371 . S
N269 C272 1.372 . S
N270 C272 1.361 . S
N270 C273 1.377 . S
C271 N268 1.382 . S
C271 N269 1.371 . S
C271 C274 1.480 . S
C272 N269 1.372 . S
C272 N270 1.361 . S
C272 C280 1.457 . S
C273 N268 1.363 . S
C273 N270 1.377 . S
C273 C286 1.479 . S
C274 C271 1.480 . S
C274 C275 1.383 . S
C274 C279 1.385 . S
C275 H256 0.947 . S
C275 C274 1.383 . S
C275 C276 1.388 . S
C276 H257 0.946 . S
C276 C275 1.388 . S
C276 C277 1.384 . S
C277 C276 1.384 . S
C277 C278 1.377 . S
C278 H258 0.953 . S
C278 C277 1.377 . S
C278 C279 1.369 . S
C279 H259 0.945 . S
C279 C274 1.385 . S
C279 C278 1.369 . S
C280 C272 1.457 . S
C280 C281 1.372 . S
C280 C285 1.364 . S
C281 H260 0.952 . S
C281 C280 1.372 . S
C281 C282 1.389 . S
C282 H261 0.949 . S
C282 C281 1.389 . S
C282 C283 1.387 . S
C283 C282 1.387 . S
C283 C284 1.372 . S
C284 H262 0.950 . S
C284 C283 1.372 . S
C284 C285 1.379 . S
C285 H263 0.948 . S
C285 C280 1.364 . S
C285 C284 1.379 . S
C286 C255 1.383 . S
C286 C273 1.479 . S
C286 C287 1.398 . S
C287 C252 1.382 . S
C287 H264 0.951 . S
C287 C286 1.398 . S
C288 C289 1.384 . S
C288 H301 0.947 . S
C288 C323 1.382 . S
C289 C288 1.384 . S
C289 C290 1.378 . S
C290 C289 1.378 . S
C290 C291 1.378 . S
C290 H302 0.952 . S
C291 C290 1.378 . S
C291 H303 0.950 . S
C291 C322 1.383 . S
H292 C311 0.947 . S
H293 C312 0.946 . S
H294 C314 0.953 . S
H295 C315 0.945 . S
H296 C317 0.952 . S
H297 C318 0.949 . S
H298 C320 0.950 . S
H299 C321 0.948 . S
H300 C323 0.951 . S
H301 C288 0.947 . S
H302 C290 0.952 . S
H303 C291 0.950 . S
N304 C307 1.382 . S
N304 C309 1.363 . S
N305 C307 1.371 . S
N305 C308 1.372 . S
N306 C308 1.361 . S
N306 C309 1.377 . S
C307 N304 1.382 . S
C307 N305 1.371 . S
C307 C310 1.480 . S
C308 N305 1.372 . S
C308 N306 1.361 . S
C308 C316 1.457 . S
C309 N304 1.363 . S
C309 N306 1.377 . S
C309 C322 1.479 . S
C310 C307 1.480 . S
C310 C311 1.383 . S
C310 C315 1.385 . S
C311 H292 0.947 . S
C311 C310 1.383 . S
C311 C312 1.388 . S
C312 H293 0.946 . S
C312 C311 1.388 . S
C312 C313 1.384 . S
C313 C312 1.384 . S
C313 C314 1.377 . S
C314 H294 0.953 . S
C314 C313 1.377 . S
C314 C315 1.369 . S
C315 H295 0.945 . S
C315 C310 1.385 . S
C315 C314 1.369 . S
C316 C308 1.457 . S
C316 C317 1.372 . S
C316 C321 1.364 . S
C317 H296 0.952 . S
C317 C316 1.372 . S
C317 C318 1.389 . S
C318 H297 0.949 . S
C318 C317 1.389 . S
C318 C319 1.387 . S
C319 C318 1.387 . S
C319 C320 1.372 . S
C320 H298 0.950 . S
C320 C319 1.372 . S
C320 C321 1.379 . S
C321 H299 0.948 . S
C321 C316 1.364 . S
C321 C320 1.379 . S
C322 C291 1.383 . S
C322 C309 1.479 . S
C322 C323 1.398 . S
C323 C288 1.382 . S
C323 H300 0.951 . S
C323 C322 1.398 . S
C324 C325 1.384 . S
C324 H337 0.947 . S
C324 C359 1.382 . S
C325 C324 1.384 . S
C325 C326 1.378 . S
C326 C325 1.378 . S
C326 C327 1.378 . S
C326 H338 0.952 . S
C327 C326 1.378 . S
C327 H339 0.950 . S
C327 C358 1.383 . S
H328 C347 0.947 . S
H329 C348 0.946 . S
H330 C350 0.953 . S
H331 C351 0.945 . S
H332 C353 0.952 . S
H333 C354 0.949 . S
H334 C356 0.950 . S
H335 C357 0.948 . S
H336 C359 0.951 . S
H337 C324 0.947 . S
H338 C326 0.952 . S
H339 C327 0.950 . S
N340 C343 1.382 . S
N340 C345 1.363 . S
N341 C343 1.371 . S
N341 C344 1.372 . S
N342 C344 1.361 . S
N342 C345 1.377 . S
C343 N340 1.382 . S
C343 N341 1.371 . S
C343 C346 1.480 . S
C344 N341 1.372 . S
C344 N342 1.361 . S
C344 C352 1.457 . S
C345 N340 1.363 . S
C345 N342 1.377 . S
C345 C358 1.479 . S
C346 C343 1.480 . S
C346 C347 1.383 . S
C346 C351 1.385 . S
C347 H328 0.947 . S
C347 C346 1.383 . S
C347 C348 1.388 . S
C348 H329 0.946 . S
C348 C347 1.388 . S
C348 C349 1.384 . S
C349 C348 1.384 . S
C349 C350 1.377 . S
C350 H330 0.953 . S
C350 C349 1.377 . S
C350 C351 1.369 . S
C351 H331 0.945 . S
C351 C346 1.385 . S
C351 C350 1.369 . S
C352 C344 1.457 . S
C352 C353 1.372 . S
C352 C357 1.364 . S
C353 H332 0.952 . S
C353 C352 1.372 . S
C353 C354 1.389 . S
C354 H333 0.949 . S
C354 C353 1.389 . S
C354 C355 1.387 . S
C355 C354 1.387 . S
C355 C356 1.372 . S
C356 H334 0.950 . S
C356 C355 1.372 . S
C356 C357 1.379 . S
C357 H335 0.948 . S
C357 C352 1.364 . S
C357 C356 1.379 . S
C358 C327 1.383 . S
C358 C345 1.479 . S
C358 C359 1.398 . S
C359 C324 1.382 . S
C359 H336 0.951 . S
C359 C358 1.398 . S
C360 C361 1.384 . S
C360 H373 0.947 . S
C360 C395 1.382 . S
C361 C360 1.384 . S
C361 C362 1.378 . S
C362 C361 1.378 . S
C362 C363 1.378 . S
C362 H374 0.952 . S
C363 C362 1.378 . S
C363 H375 0.950 . S
C363 C394 1.383 . S
H364 C383 0.947 . S
H365 C384 0.946 . S
H366 C386 0.953 . S
H367 C387 0.945 . S
H368 C389 0.952 . S
H369 C390 0.949 . S
H370 C392 0.950 . S
H371 C393 0.948 . S
H372 C395 0.951 . S
H373 C360 0.947 . S
H374 C362 0.952 . S
H375 C363 0.950 . S
N376 C379 1.382 . S
N376 C381 1.363 . S
N377 C379 1.371 . S
N377 C380 1.372 . S
N378 C380 1.361 . S
N378 C381 1.377 . S
C379 N376 1.382 . S
C379 N377 1.371 . S
C379 C382 1.480 . S
C380 N377 1.372 . S
C380 N378 1.361 . S
C380 C388 1.457 . S
C381 N376 1.363 . S
C381 N378 1.377 . S
C381 C394 1.479 . S
C382 C379 1.480 . S
C382 C383 1.383 . S
C382 C387 1.385 . S
C383 H364 0.947 . S
C383 C382 1.383 . S
C383 C384 1.388 . S
C384 H365 0.946 . S
C384 C383 1.388 . S
C384 C385 1.384 . S
C385 C384 1.384 . S
C385 C386 1.377 . S
C386 H366 0.953 . S
C386 C385 1.377 . S
C386 C387 1.369 . S
C387 H367 0.945 . S
C387 C382 1.385 . S
C387 C386 1.369 . S
C388 C380 1.457 . S
C388 C389 1.372 . S
C388 C393 1.364 . S
C389 H368 0.952 . S
C389 C388 1.372 . S
C389 C390 1.389 . S
C390 H369 0.949 . S
C390 C389 1.389 . S
C390 C391 1.387 . S
C391 C390 1.387 . S
C391 C392 1.372 . S
C392 H370 0.950 . S
C392 C391 1.372 . S
C392 C393 1.379 . S
C393 H371 0.948 . S
C393 C388 1.364 . S
C393 C392 1.379 . S
C394 C363 1.383 . S
C394 C381 1.479 . S
C394 C395 1.398 . S
C395 C360 1.382 . S
C395 H372 0.951 . S
C395 C394 1.398 . S
C396 C397 1.384 . S
C396 H409 0.947 . S
C396 C431 1.382 . S
C397 C396 1.384 . S
C397 C398 1.378 . S
C398 C397 1.378 . S
C398 C399 1.378 . S
C398 H410 0.952 . S
C399 C398 1.378 . S
C399 H411 0.950 . S
C399 C430 1.383 . S
H400 C419 0.947 . S
H401 C420 0.946 . S
H402 C422 0.953 . S
H403 C423 0.945 . S
H404 C425 0.952 . S
H405 C426 0.949 . S
H406 C428 0.950 . S
H407 C429 0.948 . S
H408 C431 0.951 . S
H409 C396 0.947 . S
H410 C398 0.952 . S
H411 C399 0.950 . S
N412 C415 1.382 . S
N412 C417 1.363 . S
N413 C415 1.371 . S
N413 C416 1.372 . S
N414 C416 1.361 . S
N414 C417 1.377 . S
C415 N412 1.382 . S
C415 N413 1.371 . S
C415 C418 1.480 . S
C416 N413 1.372 . S
C416 N414 1.361 . S
C416 C424 1.457 . S
C417 N412 1.363 . S
C417 N414 1.377 . S
C417 C430 1.479 . S
C418 C415 1.480 . S
C418 C419 1.383 . S
C418 C423 1.385 . S
C419 H400 0.947 . S
C419 C418 1.383 . S
C419 C420 1.388 . S
C420 H401 0.946 . S
C420 C419 1.388 . S
C420 C421 1.384 . S
C421 C420 1.384 . S
C421 C422 1.377 . S
C422 H402 0.953 . S
C422 C421 1.377 . S
C422 C423 1.369 . S
C423 H403 0.945 . S
C423 C418 1.385 . S
C423 C422 1.369 . S
C424 C416 1.457 . S
C424 C425 1.372 . S
C424 C429 1.364 . S
C425 H404 0.952 . S
C425 C424 1.372 . S
C425 C426 1.389 . S
C426 H405 0.949 . S
C426 C425 1.389 . S
C426 C427 1.387 . S
C427 C426 1.387 . S
C427 C428 1.372 . S
C428 H406 0.950 . S
C428 C427 1.372 . S
C428 C429 1.379 . S
C429 H407 0.948 . S
C429 C424 1.364 . S
C429 C428 1.379 . S
C430 C399 1.383 . S
C430 C417 1.479 . S
C430 C431 1.398 . S
C431 C396 1.382 . S
C431 H408 0.951 . S
C431 C430 1.398 . S
C432 C433 1.384 . S
C432 H445 0.947 . S
C432 C467 1.382 . S
C433 C432 1.384 . S
C433 C434 1.378 . S
C434 C433 1.378 . S
C434 C435 1.378 . S
C434 H446 0.952 . S
C435 C434 1.378 . S
C435 H447 0.950 . S
C435 C466 1.383 . S
H436 C455 0.947 . S
H437 C456 0.946 . S
H438 C458 0.953 . S
H439 C459 0.945 . S
H440 C461 0.952 . S
H441 C462 0.949 . S
H442 C464 0.950 . S
H443 C465 0.948 . S
H444 C467 0.951 . S
H445 C432 0.947 . S
H446 C434 0.952 . S
H447 C435 0.950 . S
N448 C451 1.382 . S
N448 C453 1.363 . S
N449 C451 1.371 . S
N449 C452 1.372 . S
N450 C452 1.361 . S
N450 C453 1.377 . S
C451 N448 1.382 . S
C451 N449 1.371 . S
C451 C454 1.480 . S
C452 N449 1.372 . S
C452 N450 1.361 . S
C452 C460 1.457 . S
C453 N448 1.363 . S
C453 N450 1.377 . S
C453 C466 1.479 . S
C454 C451 1.480 . S
C454 C455 1.383 . S
C454 C459 1.385 . S
C455 H436 0.947 . S
C455 C454 1.383 . S
C455 C456 1.388 . S
C456 H437 0.946 . S
C456 C455 1.388 . S
C456 C457 1.384 . S
C457 C456 1.384 . S
C457 C458 1.377 . S
C458 H438 0.953 . S
C458 C457 1.377 . S
C458 C459 1.369 . S
C459 H439 0.945 . S
C459 C454 1.385 . S
C459 C458 1.369 . S
C460 C452 1.457 . S
C460 C461 1.372 . S
C460 C465 1.364 . S
C461 H440 0.952 . S
C461 C460 1.372 . S
C461 C462 1.389 . S
C462 H441 0.949 . S
C462 C461 1.389 . S
C462 C463 1.387 . S
C463 C462 1.387 . S
C463 C464 1.372 . S
C464 H442 0.950 . S
C464 C463 1.372 . S
C464 C465 1.379 . S
C465 H443 0.948 . S
C465 C460 1.364 . S
C465 C464 1.379 . S
C466 C435 1.383 . S
C466 C453 1.479 . S
C466 C467 1.398 . S
C467 C432 1.382 . S
C467 H444 0.951 . S
C467 C466 1.398 . S
C468 C469 1.384 . S
C468 H481 0.947 . S
C468 C503 1.382 . S
C469 C468 1.384 . S
C469 C470 1.378 . S
C470 C469 1.378 . S
C470 C471 1.378 . S
C470 H482 0.952 . S
C471 C470 1.378 . S
C471 H483 0.950 . S
C471 C502 1.383 . S
H472 C491 0.947 . S
H473 C492 0.946 . S
H474 C494 0.953 . S
H475 C495 0.945 . S
H476 C497 0.952 . S
H477 C498 0.949 . S
H478 C500 0.950 . S
H479 C501 0.948 . S
H480 C503 0.951 . S
H481 C468 0.947 . S
H482 C470 0.952 . S
H483 C471 0.950 . S
N484 C487 1.382 . S
N484 C489 1.363 . S
N485 C487 1.371 . S
N485 C488 1.372 . S
N486 C488 1.361 . S
N486 C489 1.377 . S
C487 N484 1.382 . S
C487 N485 1.371 . S
C487 C490 1.480 . S
C488 N485 1.372 . S
C488 N486 1.361 . S
C488 C496 1.457 . S
C489 N484 1.363 . S
C489 N486 1.377 . S
C489 C502 1.479 . S
C490 C487 1.480 . S
C490 C491 1.383 . S
C490 C495 1.385 . S
C491 H472 0.947 . S
C491 C490 1.383 . S
C491 C492 1.388 . S
C492 H473 0.946 . S
C492 C491 1.388 . S
C492 C493 1.384 . S
C493 C492 1.384 . S
C493 C494 1.377 . S
C494 H474 0.953 . S
C494 C493 1.377 . S
C494 C495 1.369 . S
C495 H475 0.945 . S
C495 C490 1.385 . S
C495 C494 1.369 . S
C496 C488 1.457 . S
C496 C497 1.372 . S
C496 C501 1.364 . S
C497 H476 0.952 . S
C497 C496 1.372 . S
C497 C498 1.389 . S
C498 H477 0.949 . S
C498 C497 1.389 . S
C498 C499 1.387 . S
C499 C498 1.387 . S
C499 C500 1.372 . S
C500 H478 0.950 . S
C500 C499 1.372 . S
C500 C501 1.379 . S
C501 H479 0.948 . S
C501 C496 1.364 . S
C501 C500 1.379 . S
C502 C471 1.383 . S
C502 C489 1.479 . S
C502 C503 1.398 . S
C503 C468 1.382 . S
C503 H480 0.951 . S
C503 C502 1.398 . S
C504 C505 1.384 . S
C504 H517 0.947 . S
C504 C539 1.382 . S
C505 C504 1.384 . S
C505 C506 1.378 . S
C506 C505 1.378 . S
C506 C507 1.378 . S
C506 H518 0.952 . S
C507 C506 1.378 . S
C507 H519 0.950 . S
C507 C538 1.383 . S
H508 C527 0.947 . S
H509 C528 0.946 . S
H510 C530 0.953 . S
H511 C531 0.945 . S
H512 C533 0.952 . S
H513 C534 0.949 . S
H514 C536 0.950 . S
H515 C537 0.948 . S
H516 C539 0.951 . S
H517 C504 0.947 . S
H518 C506 0.952 . S
H519 C507 0.950 . S
N520 C523 1.382 . S
N520 C525 1.363 . S
N521 C523 1.371 . S
N521 C524 1.372 . S
N522 C524 1.361 . S
N522 C525 1.377 . S
C523 N520 1.382 . S
C523 N521 1.371 . S
C523 C526 1.480 . S
C524 N521 1.372 . S
C524 N522 1.361 . S
C524 C532 1.457 . S
C525 N520 1.363 . S
C525 N522 1.377 . S
C525 C538 1.479 . S
C526 C523 1.480 . S
C526 C527 1.383 . S
C526 C531 1.385 . S
C527 H508 0.947 . S
C527 C526 1.383 . S
C527 C528 1.388 . S
C528 H509 0.946 . S
C528 C527 1.388 . S
C528 C529 1.384 . S
C529 C528 1.384 . S
C529 C530 1.377 . S
C530 H510 0.953 . S
C530 C529 1.377 . S
C530 C531 1.369 . S
C531 H511 0.945 . S
C531 C526 1.385 . S
C531 C530 1.369 . S
C532 C524 1.457 . S
C532 C533 1.372 . S
C532 C537 1.364 . S
C533 H512 0.952 . S
C533 C532 1.372 . S
C533 C534 1.389 . S
C534 H513 0.949 . S
C534 C533 1.389 . S
C534 C535 1.387 . S
C535 C534 1.387 . S
C535 C536 1.372 . S
C536 H514 0.950 . S
C536 C535 1.372 . S
C536 C537 1.379 . S
C537 H515 0.948 . S
C537 C532 1.364 . S
C537 C536 1.379 . S
C538 C507 1.383 . S
C538 C525 1.479 . S
C538 C539 1.398 . S
C539 C504 1.382 . S
C539 H516 0.951 . S
C539 C538 1.398 . S
C540 C541 1.384 . S
C540 H553 0.947 . S
C540 C575 1.382 . S
C541 C540 1.384 . S
C541 C542 1.378 . S
C542 C541 1.378 . S
C542 C543 1.378 . S
C542 H554 0.952 . S
C543 C542 1.378 . S
C543 H555 0.950 . S
C543 C574 1.383 . S
H544 C563 0.947 . S
H545 C564 0.946 . S
H546 C566 0.953 . S
H547 C567 0.945 . S
H548 C569 0.952 . S
H549 C570 0.949 . S
H550 C572 0.950 . S
H551 C573 0.948 . S
H552 C575 0.951 . S
H553 C540 0.947 . S
H554 C542 0.952 . S
H555 C543 0.950 . S
N556 C559 1.382 . S
N556 C561 1.363 . S
N557 C559 1.371 . S
N557 C560 1.372 . S
N558 C560 1.361 . S
N558 C561 1.377 . S
C559 N556 1.382 . S
C559 N557 1.371 . S
C559 C562 1.480 . S
C560 N557 1.372 . S
C560 N558 1.361 . S
C560 C568 1.457 . S
C561 N556 1.363 . S
C561 N558 1.377 . S
C561 C574 1.479 . S
C562 C559 1.480 . S
C562 C563 1.383 . S
C562 C567 1.385 . S
C563 H544 0.947 . S
C563 C562 1.383 . S
C563 C564 1.388 . S
C564 H545 0.946 . S
C564 C563 1.388 . S
C564 C565 1.384 . S
C565 C564 1.384 . S
C565 C566 1.377 . S
C566 H546 0.953 . S
C566 C565 1.377 . S
C566 C567 1.369 . S
C567 H547 0.945 . S
C567 C562 1.385 . S
C567 C566 1.369 . S
C568 C560 1.457 . S
C568 C569 1.372 . S
C568 C573 1.364 . S
C569 H548 0.952 . S
C569 C568 1.372 . S
C569 C570 1.389 . S
C570 H549 0.949 . S
C570 C569 1.389 . S
C570 C571 1.387 . S
C571 C570 1.387 . S
C571 C572 1.372 . S
C572 H550 0.950 . S
C572 C571 1.372 . S
C572 C573 1.379 . S
C573 H551 0.948 . S
C573 C568 1.364 . S
C573 C572 1.379 . S
C574 C543 1.383 . S
C574 C561 1.479 . S
C574 C575 1.398 . S
C575 C540 1.382 . S
C575 H552 0.951 . S
C575 C574 1.398 . S
O576 Cd577 2.223 . S
O576 C584 1.315 . S
Cd577 O576 2.223 . S
Cd577 O580 2.297 . S
Cd577 O581 2.439 . S
Cd577 O587 2.240 . S
Cd578 O579 2.240 . S
Cd578 O586 2.223 . S
Cd578 O588 2.297 . S
Cd578 O589 2.439 . S
O579 Cd578 2.240 . S
O579 C584 1.279 . S
O580 Cd577 2.297 . S
O580 C582 1.247 . S
O581 Cd577 2.439 . S
O581 C582 1.208 . S
C582 O580 1.247 . S
C582 O581 1.208 . S
C583 O588 1.247 . S
C583 O589 1.208 . S
C584 O576 1.315 . S
C584 O579 1.279 . S
C585 O586 1.315 . S
C585 O587 1.279 . S
O586 Cd578 2.223 . S
O586 C585 1.315 . S
O587 Cd577 2.240 . S
O587 C585 1.279 . S
O588 Cd578 2.297 . S
O588 C583 1.247 . S
O589 Cd578 2.439 . S
O589 C583 1.208 . S
O590 Cd591 2.223 . S
O590 C598 1.315 . S
Cd591 O590 2.223 . S
Cd591 O594 2.297 . S
Cd591 O595 2.439 . S
Cd591 O601 2.240 . S
Cd592 O593 2.240 . S
Cd592 O600 2.223 . S
Cd592 O602 2.297 . S
Cd592 O603 2.439 . S
O593 Cd592 2.240 . S
O593 C598 1.279 . S
O594 Cd591 2.297 . S
O594 C596 1.247 . S
O595 Cd591 2.439 . S
O595 C596 1.208 . S
C596 O594 1.247 . S
C596 O595 1.208 . S
C597 O602 1.247 . S
C597 O603 1.208 . S
C598 O590 1.315 . S
C598 O593 1.279 . S
C599 O600 1.315 . S
C599 O601 1.279 . S
O600 Cd592 2.223 . S
O600 C599 1.315 . S
O601 Cd591 2.240 . S
O601 C599 1.279 . S
O602 Cd592 2.297 . S
O602 C597 1.247 . S
O603 Cd592 2.439 . S
O603 C597 1.208 . S
O604 Cd605 2.223 1_556 S
O604 C612 1.315 . S
Cd605 O604 2.223 1_554 S
Cd605 O608 2.297 . S
Cd605 O609 2.439 . S
Cd605 O615 2.240 . S
Cd606 O607 2.240 . S
Cd606 O614 2.223 . S
Cd606 O616 2.297 1_556 S
Cd606 O617 2.439 1_556 S
O607 Cd606 2.240 . S
O607 C612 1.279 . S
O608 Cd605 2.297 . S
O608 C610 1.247 . S
O609 Cd605 2.439 . S
O609 C610 1.208 . S
C610 O608 1.247 . S
C610 O609 1.208 . S
C611 O616 1.247 . S
C611 O617 1.208 . S
C612 O604 1.315 . S
C612 O607 1.279 . S
C613 O614 1.315 . S
C613 O615 1.279 1_556 S
O614 Cd606 2.223 . S
O614 C613 1.315 . S
O615 Cd605 2.240 . S
O615 C613 1.279 1_554 S
O616 Cd606 2.297 1_554 S
O616 C611 1.247 . S
O617 Cd606 2.439 1_554 S
O617 C611 1.208 . S
O618 Cd619 2.223 . S
O618 C626 1.315 . S
Cd619 O618 2.223 . S
Cd619 O622 2.297 . S
Cd619 O623 2.439 . S
Cd619 O629 2.240 . S
Cd620 O621 2.240 . S
Cd620 O628 2.223 . S
Cd620 O630 2.297 . S
Cd620 O631 2.439 . S
O621 Cd620 2.240 . S
O621 C626 1.279 . S
O622 Cd619 2.297 . S
O622 C624 1.247 . S
O623 Cd619 2.439 . S
O623 C624 1.208 . S
C624 O622 1.247 . S
C624 O623 1.208 . S
C625 O630 1.247 . S
C625 O631 1.208 . S
C626 O618 1.315 . S
C626 O621 1.279 . S
C627 O628 1.315 . S
C627 O629 1.279 . S
O628 Cd620 2.223 . S
O628 C627 1.315 . S
O629 Cd619 2.240 . S
O629 C627 1.279 . S
O630 Cd620 2.297 . S
O630 C625 1.247 . S
O631 Cd620 2.439 . S
O631 C625 1.208 . S
O632 Cd633 2.223 . S
O632 C640 1.315 . S
Cd633 O632 2.223 . S
Cd633 O636 2.297 . S
Cd633 O637 2.439 . S
Cd633 O643 2.240 . S
Cd634 O635 2.240 . S
Cd634 O642 2.223 . S
Cd634 O644 2.297 . S
Cd634 O645 2.439 . S
O635 Cd634 2.240 . S
O635 C640 1.279 . S
O636 Cd633 2.297 . S
O636 C638 1.247 . S
O637 Cd633 2.439 . S
O637 C638 1.208 . S
C638 O636 1.247 . S
C638 O637 1.208 . S
C639 O644 1.247 . S
C639 O645 1.208 . S
C640 O632 1.315 . S
C640 O635 1.279 . S
C641 O642 1.315 . S
C641 O643 1.279 . S
O642 Cd634 2.223 . S
O642 C641 1.315 . S
O643 Cd633 2.240 . S
O643 C641 1.279 . S
O644 Cd634 2.297 . S
O644 C639 1.247 . S
O645 Cd634 2.439 . S
O645 C639 1.208 . S
O646 Cd647 2.223 . S
O646 C654 1.315 . S
Cd647 O646 2.223 . S
Cd647 O650 2.297 . S
Cd647 O651 2.439 . S
Cd647 O657 2.240 . S
Cd648 O649 2.240 . S
Cd648 O656 2.223 . S
Cd648 O658 2.297 . S
Cd648 O659 2.439 . S
O649 Cd648 2.240 . S
O649 C654 1.279 . S
O650 Cd647 2.297 . S
O650 C652 1.247 . S
O651 Cd647 2.439 . S
O651 C652 1.208 . S
C652 O650 1.247 . S
C652 O651 1.208 . S
C653 O658 1.247 . S
C653 O659 1.208 . S
C654 O646 1.315 . S
C654 O649 1.279 . S
C655 O656 1.315 . S
C655 O657 1.279 . S
O656 Cd648 2.223 . S
O656 C655 1.315 . S
O657 Cd647 2.240 . S
O657 C655 1.279 . S
O658 Cd648 2.297 . S
O658 C653 1.247 . S
O659 Cd648 2.439 . S
O659 C653 1.208 . S
O660 Cd661 2.223 . S
O660 C668 1.315 . S
Cd661 O660 2.223 . S
Cd661 O664 2.297 . S
Cd661 O665 2.439 . S
Cd661 O671 2.240 . S
Cd662 O663 2.240 . S
Cd662 O670 2.223 . S
Cd662 O672 2.297 . S
Cd662 O673 2.439 . S
O663 Cd662 2.240 . S
O663 C668 1.279 . S
O664 Cd661 2.297 . S
O664 C666 1.247 . S
O665 Cd661 2.439 . S
O665 C666 1.208 . S
C666 O664 1.247 . S
C666 O665 1.208 . S
C667 O672 1.247 . S
C667 O673 1.208 . S
C668 O660 1.315 . S
C668 O663 1.279 . S
C669 O670 1.315 . S
C669 O671 1.279 . S
O670 Cd662 2.223 . S
O670 C669 1.315 . S
O671 Cd661 2.240 . S
O671 C669 1.279 . S
O672 Cd662 2.297 . S
O672 C667 1.247 . S
O673 Cd662 2.439 . S
O673 C667 1.208 . S
O674 Cd675 2.223 1_545 S
O674 C682 1.315 . S
Cd675 O674 2.223 1_565 S
Cd675 O678 2.297 . S
Cd675 O679 2.439 . S
Cd675 O685 2.240 1_565 S
Cd676 O677 2.240 . S
Cd676 O684 2.223 . S
Cd676 O686 2.297 . S
Cd676 O687 2.439 1_545 S
O677 Cd676 2.240 . S
O677 C682 1.279 . S
O678 Cd675 2.297 . S
O678 C680 1.247 . S
O679 Cd675 2.439 . S
O679 C680 1.208 . S
C680 O678 1.247 . S
C680 O679 1.208 . S
C681 O686 1.247 1_565 S
C681 O687 1.208 . S
C682 O674 1.315 . S
C682 O677 1.279 . S
C683 O684 1.315 . S
C683 O685 1.279 . S
O684 Cd676 2.223 . S
O684 C683 1.315 . S
O685 Cd675 2.240 1_545 S
O685 C683 1.279 . S
O686 Cd676 2.297 . S
O686 C681 1.247 1_545 S
O687 Cd676 2.439 1_565 S
O687 C681 1.208 . S
O688 Cd689 2.223 . S
O688 C696 1.315 . S
Cd689 O688 2.223 . S
Cd689 O692 2.297 1_655 S
Cd689 O693 2.439 1_655 S
Cd689 O699 2.240 . S
Cd690 O691 2.240 . S
Cd690 O698 2.223 1_455 S
Cd690 O700 2.297 . S
Cd690 O701 2.439 . S
O691 Cd690 2.240 . S
O691 C696 1.279 1_455 S
O692 Cd689 2.297 1_455 S
O692 C694 1.247 . S
O693 Cd689 2.439 1_455 S
O693 C694 1.208 . S
C694 O692 1.247 . S
C694 O693 1.208 . S
C695 O700 1.247 . S
C695 O701 1.208 . S
C696 O688 1.315 . S
C696 O691 1.279 1_655 S
C697 O698 1.315 . S
C697 O699 1.279 . S
O698 Cd690 2.223 1_655 S
O698 C697 1.315 . S
O699 Cd689 2.240 . S
O699 C697 1.279 . S
O700 Cd690 2.297 . S
O700 C695 1.247 . S
O701 Cd690 2.439 . S
O701 C695 1.208 . S
O702 Cd703 2.223 . S
O702 C710 1.315 . S
Cd703 O702 2.223 . S
Cd703 O706 2.297 . S
Cd703 O707 2.439 . S
Cd703 O713 2.240 . S
Cd704 O705 2.240 . S
Cd704 O712 2.223 . S
Cd704 O714 2.297 . S
Cd704 O715 2.439 . S
O705 Cd704 2.240 . S
O705 C710 1.279 . S
O706 Cd703 2.297 . S
O706 C708 1.247 . S
O707 Cd703 2.439 . S
O707 C708 1.208 . S
C708 O706 1.247 . S
C708 O707 1.208 . S
C709 O714 1.247 . S
C709 O715 1.208 . S
C710 O702 1.315 . S
C710 O705 1.279 . S
C711 O712 1.315 . S
C711 O713 1.279 . S
O712 Cd704 2.223 . S
O712 C711 1.315 . S
O713 Cd703 2.240 . S
O713 C711 1.279 . S
O714 Cd704 2.297 . S
O714 C709 1.247 . S
O715 Cd704 2.439 . S
O715 C709 1.208 . S
O716 Cd717 2.223 1_655 S
O716 C724 1.315 . S
Cd717 O716 2.223 1_455 S
Cd717 O720 2.297 . S
Cd717 O721 2.439 . S
Cd717 O727 2.240 . S
Cd718 O719 2.240 . S
Cd718 O726 2.223 . S
Cd718 O728 2.297 1_655 S
Cd718 O729 2.439 1_655 S
O719 Cd718 2.240 . S
O719 C724 1.279 . S
O720 Cd717 2.297 . S
O720 C722 1.247 . S
O721 Cd717 2.439 . S
O721 C722 1.208 . S
C722 O720 1.247 . S
C722 O721 1.208 . S
C723 O728 1.247 . S
C723 O729 1.208 . S
C724 O716 1.315 . S
C724 O719 1.279 . S
C725 O726 1.315 . S
C725 O727 1.279 1_655 S
O726 Cd718 2.223 . S
O726 C725 1.315 . S
O727 Cd717 2.240 . S
O727 C725 1.279 1_455 S
O728 Cd718 2.297 1_455 S
O728 C723 1.247 . S
O729 Cd718 2.439 1_455 S
O729 C723 1.208 . S
O730 Cd731 2.223 . S
O730 C738 1.315 . S
Cd731 O730 2.223 . S
Cd731 O734 2.297 . S
Cd731 O735 2.439 . S
Cd731 O741 2.240 . S
Cd732 O733 2.240 . S
Cd732 O740 2.223 . S
Cd732 O742 2.297 . S
Cd732 O743 2.439 . S
O733 Cd732 2.240 . S
O733 C738 1.279 . S
O734 Cd731 2.297 . S
O734 C736 1.247 . S
O735 Cd731 2.439 . S
O735 C736 1.208 . S
C736 O734 1.247 . S
C736 O735 1.208 . S
C737 O742 1.247 . S
C737 O743 1.208 . S
C738 O730 1.315 . S
C738 O733 1.279 . S
C739 O740 1.315 . S
C739 O741 1.279 . S
O740 Cd732 2.223 . S
O740 C739 1.315 . S
O741 Cd731 2.240 . S
O741 C739 1.279 . S
O742 Cd732 2.297 . S
O742 C737 1.247 . S
O743 Cd732 2.439 . S
O743 C737 1.208 . S
H744 C762 0.951 . S
H745 C764 0.951 . S
H746 C766 0.950 . S
H747 C767 0.950 . S
H748 C769 0.950 . S
H749 C772 0.950 . S
H750 C773 0.950 . S
H751 C775 0.950 . S
H752 C776 0.950 . S
H753 C777 0.951 . S
H754 C779 0.951 . S
H755 C781 0.950 . S
H756 C782 0.950 . S
H757 C784 0.950 . S
H758 C787 0.950 . S
H759 C788 0.948 1_554 S
H760 C790 0.982 . S
H761 C791 0.950 . S
C762 H744 0.951 . S
C762 C763 1.366 . S
C762 C764 1.388 . S
C763 C762 1.366 . S
C763 C767 1.385 . S
C764 H745 0.951 . S
C764 C762 1.388 . S
C764 C765 1.366 . S
C765 C764 1.366 . S
C765 C766 1.414 . S
C765 C768 1.499 . S
C766 H746 0.950 . S
C766 C765 1.414 . S
C766 C767 1.374 . S
C767 H747 0.950 . S
C767 C763 1.385 . S
C767 C766 1.374 . S
C768 C765 1.499 . S
C768 C769 1.373 . S
C768 C770 1.389 . S
C769 H748 0.950 . S
C769 C768 1.373 . S
C769 C785 1.377 . S
C770 C768 1.389 . S
C770 C771 1.524 . S
C770 C784 1.377 . S
C771 C770 1.524 . S
C771 C772 1.397 . S
C771 C776 1.363 . S
C772 H749 0.950 . S
C772 C771 1.397 . S
C772 C773 1.334 . S
C773 H750 0.950 . S
C773 C772 1.334 . S
C773 C774 1.287 . S
C774 C773 1.287 . S
C774 C775 1.524 . S
C774 H793 0.913 . S
C775 H751 0.950 . S
C775 C774 1.524 . S
C775 C776 1.415 . S
C776 H752 0.950 . S
C776 C771 1.363 . S
C776 C775 1.415 . S
C777 H753 0.951 . S
C777 C778 1.366 . S
C777 C779 1.388 1_554 S
C778 C777 1.366 . S
C778 C782 1.385 1_554 S
C779 H754 0.951 . S
C779 C777 1.388 1_556 S
C779 C780 1.366 . S
C780 C779 1.366 . S
C780 C781 1.414 . S
C780 C783 1.499 . S
C781 H755 0.950 . S
C781 C780 1.414 . S
C781 C782 1.374 . S
C782 H756 0.950 . S
C782 C778 1.385 1_556 S
C782 C781 1.374 . S
C783 C780 1.499 . S
C783 C784 1.373 . S
C783 C785 1.389 . S
C784 H757 0.950 . S
C784 C770 1.377 . S
C784 C783 1.373 . S
C785 C769 1.377 . S
C785 C783 1.389 . S
C785 C786 1.524 . S
C786 C785 1.524 . S
C786 C787 1.397 . S
C786 C791 1.363 . S
C787 H758 0.950 . S
C787 C786 1.397 . S
C787 C788 1.334 . S
C788 H759 0.948 1_556 S
C788 C787 1.334 . S
C788 C789 1.282 1_556 S
C789 C788 1.282 1_554 S
C789 C790 1.520 1_554 S
C789 H792 1.009 . S
C790 H760 0.982 . S
C790 C789 1.520 1_556 S
C790 C791 1.415 . S
C791 H761 0.950 . S
C791 C786 1.363 . S
C791 C790 1.415 . S
H792 C789 1.009 . S
H793 C774 0.913 . S
H794 C812 0.951 . S
H795 C814 0.951 . S
H796 C816 0.950 . S
H797 C817 0.950 . S
H798 C819 0.950 . S
H799 C822 0.981 . S
H800 C823 0.950 . S
H801 C825 0.950 . S
H802 C826 0.950 . S
H803 C827 0.951 . S
H804 C829 0.951 . S
H805 C831 0.950 . S
H806 C832 0.950 . S
H807 C834 0.950 . S
H808 C837 0.950 . S
H809 C838 0.950 . S
H810 C840 0.950 . S
H811 C841 0.950 . S
C812 H794 0.951 . S
C812 C813 1.366 . S
C812 C814 1.388 . S
C813 C812 1.366 . S
C813 C817 1.385 . S
C814 H795 0.951 . S
C814 C812 1.388 . S
C814 C815 1.366 . S
C815 C814 1.366 . S
C815 C816 1.414 1_655 S
C815 C818 1.499 1_655 S
C816 H796 0.950 . S
C816 C815 1.414 1_455 S
C816 C817 1.374 1_455 S
C817 H797 0.950 . S
C817 C813 1.385 . S
C817 C816 1.374 1_655 S
C818 C815 1.499 1_455 S
C818 C819 1.373 . S
C818 C820 1.389 . S
C819 H798 0.950 . S
C819 C818 1.373 . S
C819 C835 1.377 . S
C820 C818 1.389 . S
C820 C821 1.524 . S
C820 C834 1.377 . S
C821 C820 1.524 . S
C821 C822 1.401 . S
C821 C826 1.363 1_455 S
C822 H799 0.981 . S
C822 C821 1.401 . S
C822 C823 1.303 1_455 S
C823 H800 0.950 . S
C823 C822 1.303 1_655 S
C823 C824 1.287 . S
C824 C823 1.287 . S
C824 C825 1.524 . S
C824 H843 0.913 . S
C825 H801 0.950 . S
C825 C824 1.524 . S
C825 C826 1.415 . S
C826 H802 0.950 . S
C826 C821 1.363 1_655 S
C826 C825 1.415 . S
C827 H803 0.951 . S
C827 C828 1.366 . S
C827 C829 1.388 . S
C828 C827 1.366 . S
C828 C832 1.385 . S
C829 H804 0.951 . S
C829 C827 1.388 . S
C829 C830 1.366 . S
C830 C829 1.366 . S
C830 C831 1.414 . S
C830 C833 1.499 . S
C831 H805 0.950 . S
C831 C830 1.414 . S
C831 C832 1.374 . S
C832 H806 0.950 . S
C832 C828 1.385 . S
C832 C831 1.374 . S
C833 C830 1.499 . S
C833 C834 1.373 . S
C833 C835 1.389 . S
C834 H807 0.950 . S
C834 C820 1.377 . S
C834 C833 1.373 . S
C835 C819 1.377 . S
C835 C833 1.389 . S
C835 C836 1.524 . S
C836 C835 1.524 . S
C836 C837 1.397 . S
C836 C841 1.363 . S
C837 H808 0.950 . S
C837 C836 1.397 . S
C837 C838 1.334 . S
C838 H809 0.950 . S
C838 C837 1.334 . S
C838 C839 1.287 . S
C839 C838 1.287 . S
C839 C840 1.524 . S
C839 H842 0.999 . S
C840 H810 0.950 . S
C840 C839 1.524 . S
C840 C841 1.415 . S
C841 H811 0.950 . S
C841 C836 1.363 . S
C841 C840 1.415 . S
H842 C839 0.999 . S
H843 C824 0.913 . S
H844 C862 0.951 . S
H845 C864 0.951 . S
H846 C866 0.950 . S
H847 C867 0.950 . S
H848 C869 0.950 . S
H849 C872 0.950 . S
H850 C873 0.950 . S
H851 C875 0.950 . S
H852 C876 0.950 . S
H853 C877 0.951 . S
H854 C879 0.951 . S
H855 C881 0.950 . S
H856 C882 0.950 . S
H857 C884 0.950 . S
H858 C887 0.950 . S
H859 C888 0.950 . S
H860 C890 0.950 . S
H861 C891 0.950 . S
C862 H844 0.951 . S
C862 C863 1.366 . S
C862 C864 1.388 . S
C863 C862 1.366 . S
C863 C867 1.385 . S
C864 H845 0.951 . S
C864 C862 1.388 . S
C864 C865 1.366 . S
C865 C864 1.366 . S
C865 C866 1.414 . S
C865 C868 1.499 . S
C866 H846 0.950 . S
C866 C865 1.414 . S
C866 C867 1.374 . S
C867 H847 0.950 . S
C867 C863 1.385 . S
C867 C866 1.374 . S
C868 C865 1.499 . S
C868 C869 1.373 . S
C868 C870 1.389 . S
C869 H848 0.950 . S
C869 C868 1.373 . S
C869 C885 1.377 . S
C870 C868 1.389 . S
C870 C871 1.524 . S
C870 C884 1.377 . S
C871 C870 1.524 . S
C871 C872 1.397 . S
C871 C876 1.363 . S
C872 H849 0.950 . S
C872 C871 1.397 . S
C872 C873 1.334 . S
C873 H850 0.950 . S
C873 C872 1.334 . S
C873 C874 1.287 . S
C874 C873 1.287 . S
C874 C875 1.524 . S
C874 H893 0.913 . S
C875 H851 0.950 . S
C875 C874 1.524 . S
C875 C876 1.415 . S
C876 H852 0.950 . S
C876 C871 1.363 . S
C876 C875 1.415 . S
C877 H853 0.951 . S
C877 C878 1.366 . S
C877 C879 1.388 . S
C878 C877 1.366 . S
C878 C882 1.385 . S
C879 H854 0.951 . S
C879 C877 1.388 . S
C879 C880 1.366 . S
C880 C879 1.366 . S
C880 C881 1.414 . S
C880 C883 1.499 . S
C881 H855 0.950 . S
C881 C880 1.414 . S
C881 C882 1.374 . S
C882 H856 0.950 . S
C882 C878 1.385 . S
C882 C881 1.374 . S
C883 C880 1.499 . S
C883 C884 1.373 . S
C883 C885 1.389 . S
C884 H857 0.950 . S
C884 C870 1.377 . S
C884 C883 1.373 . S
C885 C869 1.377 . S
C885 C883 1.389 . S
C885 C886 1.524 . S
C886 C885 1.524 . S
C886 C887 1.397 . S
C886 C891 1.363 . S
C887 H858 0.950 . S
C887 C886 1.397 . S
C887 C888 1.334 . S
C888 H859 0.950 . S
C888 C887 1.334 . S
C888 C889 1.287 . S
C889 C888 1.287 . S
C889 C890 1.524 . S
C889 H892 0.999 . S
C890 H860 0.950 . S
C890 C889 1.524 . S
C890 C891 1.415 . S
C891 H861 0.950 . S
C891 C886 1.363 . S
C891 C890 1.415 . S
H892 C889 0.999 . S
H893 C874 0.913 . S
H894 C912 0.951 . S
H895 C914 0.951 . S
H896 C916 0.950 1_545 S
H897 C917 0.950 . S
H898 C919 0.950 . S
H899 C922 0.950 . S
H900 C923 0.950 . S
H901 C925 0.950 . S
H902 C926 0.950 . S
H903 C927 0.951 . S
H904 C929 0.951 . S
H905 C931 0.950 1_565 S
H906 C932 0.950 . S
H907 C934 0.950 . S
H908 C937 0.950 . S
H909 C938 0.950 . S
H910 C940 0.950 . S
H911 C941 0.950 . S
C912 H894 0.951 . S
C912 C913 1.366 . S
C912 C914 1.388 1_455 S
C913 C912 1.366 . S
C913 C917 1.385 . S
C914 H895 0.951 . S
C914 C912 1.388 1_655 S
C914 C915 1.366 . S
C915 C914 1.366 . S
C915 C916 1.414 1_655 S
C915 C918 1.499 . S
C916 H896 0.950 1_565 S
C916 C915 1.414 1_455 S
C916 C917 1.374 . S
C917 H897 0.950 . S
C917 C913 1.385 . S
C917 C916 1.374 . S
C918 C915 1.499 . S
C918 C919 1.373 1_565 S
C918 C920 1.389 . S
C919 H898 0.950 . S
C919 C918 1.373 1_545 S
C919 C935 1.377 . S
C920 C918 1.389 . S
C920 C921 1.524 . S
C920 C934 1.377 . S
C921 C920 1.524 . S
C921 C922 1.397 1_655 S
C921 C926 1.363 . S
C922 H899 0.950 . S
C922 C921 1.397 1_455 S
C922 C923 1.334 . S
C923 H900 0.950 . S
C923 C922 1.334 . S
C923 C924 1.283 1_455 S
C924 C923 1.283 1_655 S
C924 C925 1.531 . S
C924 H943 0.909 1_655 S
C925 H901 0.950 . S
C925 C924 1.531 . S
C925 C926 1.415 . S
C926 H902 0.950 . S
C926 C921 1.363 . S
C926 C925 1.415 . S
C927 H903 0.951 . S
C927 C928 1.366 . S
C927 C929 1.388 . S
C928 C927 1.366 . S
C928 C932 1.385 . S
C929 H904 0.951 . S
C929 C927 1.388 . S
C929 C930 1.366 . S
C930 C929 1.366 . S
C930 C931 1.414 . S
C930 C933 1.499 . S
C931 H905 0.950 1_545 S
C931 C930 1.414 . S
C931 C932 1.374 . S
C932 H906 0.950 . S
C932 C928 1.385 . S
C932 C931 1.374 . S
C933 C930 1.499 . S
C933 C934 1.373 1_545 S
C933 C935 1.389 . S
C934 H907 0.950 . S
C934 C920 1.377 . S
C934 C933 1.373 1_565 S
C935 C919 1.377 . S
C935 C933 1.389 . S
C935 C936 1.524 . S
C936 C935 1.524 . S
C936 C937 1.397 . S
C936 C941 1.363 . S
C937 H908 0.950 . S
C937 C936 1.397 . S
C937 C938 1.334 . S
C938 H909 0.950 . S
C938 C937 1.334 . S
C938 C939 1.287 . S
C939 C938 1.287 . S
C939 C940 1.524 . S
C939 H942 0.999 . S
C940 H910 0.950 . S
C940 C939 1.524 . S
C940 C941 1.415 . S
C941 H911 0.950 . S
C941 C936 1.363 . S
C941 C940 1.415 . S
H942 C939 0.999 . S
H943 C924 0.909 1_455 S
H944 C962 0.951 . S
H945 C964 0.951 . S
H946 C966 0.950 . S
H947 C967 0.950 . S
H948 C969 0.950 . S
H949 C972 0.950 . S
H950 C973 0.950 . S
H951 C975 0.950 . S
H952 C976 0.950 . S
H953 C977 0.951 . S
H954 C979 0.951 . S
H955 C981 0.950 . S
H956 C982 0.950 . S
H957 C984 0.950 . S
H958 C987 0.950 . S
H959 C988 0.950 . S
H960 C990 0.950 . S
H961 C991 0.950 . S
C962 H944 0.951 . S
C962 C963 1.366 . S
C962 C964 1.388 . S
C963 C962 1.366 . S
C963 C967 1.385 . S
C964 H945 0.951 . S
C964 C962 1.388 . S
C964 C965 1.366 . S
C965 C964 1.366 . S
C965 C966 1.414 . S
C965 C968 1.499 . S
C966 H946 0.950 . S
C966 C965 1.414 . S
C966 C967 1.374 . S
C967 H947 0.950 . S
C967 C963 1.385 . S
C967 C966 1.374 . S
C968 C965 1.499 . S
C968 C969 1.373 . S
C968 C970 1.389 . S
C969 H948 0.950 . S
C969 C968 1.373 . S
C969 C985 1.377 . S
C970 C968 1.389 . S
C970 C971 1.524 . S
C970 C984 1.377 . S
C971 C970 1.524 . S
C971 C972 1.397 . S
C971 C976 1.363 . S
C972 H949 0.950 . S
C972 C971 1.397 . S
C972 C973 1.334 . S
C973 H950 0.950 . S
C973 C972 1.334 . S
C973 C974 1.287 . S
C974 C973 1.287 . S
C974 C975 1.524 . S
C974 H993 0.913 . S
C975 H951 0.950 . S
C975 C974 1.524 . S
C975 C976 1.415 . S
C976 H952 0.950 . S
C976 C971 1.363 . S
C976 C975 1.415 . S
C977 H953 0.951 . S
C977 C978 1.366 . S
C977 C979 1.388 . S
C978 C977 1.366 . S
C978 C982 1.385 . S
C979 H954 0.951 . S
C979 C977 1.388 . S
C979 C980 1.366 . S
C980 C979 1.366 . S
C980 C981 1.414 . S
C980 C983 1.499 . S
C981 H955 0.950 . S
C981 C980 1.414 . S
C981 C982 1.374 . S
C982 H956 0.950 . S
C982 C978 1.385 . S
C982 C981 1.374 . S
C983 C980 1.499 . S
C983 C984 1.373 . S
C983 C985 1.389 . S
C984 H957 0.950 . S
C984 C970 1.377 . S
C984 C983 1.373 . S
C985 C969 1.377 . S
C985 C983 1.389 . S
C985 C986 1.524 . S
C986 C985 1.524 . S
C986 C987 1.397 . S
C986 C991 1.363 . S
C987 H958 0.950 . S
C987 C986 1.397 . S
C987 C988 1.334 . S
C988 H959 0.950 . S
C988 C987 1.334 . S
C988 C989 1.287 . S
C989 C988 1.287 . S
C989 C990 1.524 . S
C989 H992 0.999 . S
C990 H960 0.950 . S
C990 C989 1.524 . S
C990 C991 1.415 . S
C991 H961 0.950 . S
C991 C986 1.363 . S
C991 C990 1.415 . S
H992 C989 0.999 . S
H993 C974 0.913 . S
H994 C1012 0.951 . S
H995 C1014 0.951 . S
H996 C1016 0.950 . S
H997 C1017 0.950 . S
H998 C1019 0.950 . S
H999 C1022 0.950 . S
H1000 C1023 0.950 . S
H1001 C1025 0.950 . S
H1002 C1026 0.950 . S
H1003 C1027 0.951 . S
H1004 C1029 0.951 . S
H1005 C1031 0.950 . S
H1006 C1032 0.950 . S
H1007 C1034 0.950 . S
H1008 C1037 0.950 . S
H1009 C1038 0.950 . S
H1010 C1040 0.950 . S
H1011 C1041 0.950 . S
C1012 H994 0.951 . S
C1012 C1013 1.366 . S
C1012 C1014 1.388 . S
C1013 C1012 1.366 . S
C1013 C1017 1.385 . S
C1014 H995 0.951 . S
C1014 C1012 1.388 . S
C1014 C1015 1.366 . S
C1015 C1014 1.366 . S
C1015 C1016 1.414 . S
C1015 C1018 1.499 . S
C1016 H996 0.950 . S
C1016 C1015 1.414 . S
C1016 C1017 1.374 . S
C1017 H997 0.950 . S
C1017 C1013 1.385 . S
C1017 C1016 1.374 . S
C1018 C1015 1.499 . S
C1018 C1019 1.373 . S
C1018 C1020 1.389 . S
C1019 H998 0.950 . S
C1019 C1018 1.373 . S
C1019 C1035 1.377 . S
C1020 C1018 1.389 . S
C1020 C1021 1.524 . S
C1020 C1034 1.377 . S
C1021 C1020 1.524 . S
C1021 C1022 1.397 . S
C1021 C1026 1.363 . S
C1022 H999 0.950 . S
C1022 C1021 1.397 . S
C1022 C1023 1.334 . S
C1023 H1000 0.950 . S
C1023 C1022 1.334 . S
C1023 C1024 1.287 . S
C1024 C1023 1.287 . S
C1024 C1025 1.524 . S
C1024 H1043 0.913 . S
C1025 H1001 0.950 . S
C1025 C1024 1.524 . S
C1025 C1026 1.415 . S
C1026 H1002 0.950 . S
C1026 C1021 1.363 . S
C1026 C1025 1.415 . S
C1027 H1003 0.951 . S
C1027 C1028 1.366 . S
C1027 C1029 1.388 . S
C1028 C1027 1.366 . S
C1028 C1032 1.385 . S
C1029 H1004 0.951 . S
C1029 C1027 1.388 . S
C1029 C1030 1.366 . S
C1030 C1029 1.366 . S
C1030 C1031 1.414 . S
C1030 C1033 1.499 . S
C1031 H1005 0.950 . S
C1031 C1030 1.414 . S
C1031 C1032 1.374 . S
C1032 H1006 0.950 . S
C1032 C1028 1.385 . S
C1032 C1031 1.374 . S
C1033 C1030 1.499 . S
C1033 C1034 1.373 . S
C1033 C1035 1.389 . S
C1034 H1007 0.950 . S
C1034 C1020 1.377 . S
C1034 C1033 1.373 . S
C1035 C1019 1.377 . S
C1035 C1033 1.389 . S
C1035 C1036 1.524 . S
C1036 C1035 1.524 . S
C1036 C1037 1.397 . S
C1036 C1041 1.363 . S
C1037 H1008 0.950 . S
C1037 C1036 1.397 . S
C1037 C1038 1.334 . S
C1038 H1009 0.950 . S
C1038 C1037 1.334 . S
C1038 C1039 1.287 . S
C1039 C1038 1.287 . S
C1039 C1040 1.524 . S
C1039 H1042 0.999 . S
C1040 H1010 0.950 . S
C1040 C1039 1.524 . S
C1040 C1041 1.415 . S
C1041 H1011 0.950 . S
C1041 C1036 1.363 . S
C1041 C1040 1.415 . S
H1042 C1039 0.999 . S
H1043 C1024 0.913 . S
H1044 C1062 0.951 . S
H1045 C1064 0.951 . S
H1046 C1066 0.950 . S
H1047 C1067 0.950 . S
H1048 C1069 0.950 . S
H1049 C1072 0.950 . S
H1050 C1073 0.950 . S
H1051 C1075 0.950 . S
H1052 C1076 0.950 . S
H1053 C1077 0.951 . S
H1054 C1079 0.951 . S
H1055 C1081 0.950 . S
H1056 C1082 0.950 . S
H1057 C1084 0.950 . S
H1058 C1087 0.950 . S
H1059 C1088 0.950 . S
H1060 C1090 0.950 . S
H1061 C1091 0.950 . S
C1062 H1044 0.951 . S
C1062 C1063 1.366 . S
C1062 C1064 1.388 . S
C1063 C1062 1.366 . S
C1063 C1067 1.385 . S
C1064 H1045 0.951 . S
C1064 C1062 1.388 . S
C1064 C1065 1.366 . S
C1065 C1064 1.366 . S
C1065 C1066 1.414 . S
C1065 C1068 1.499 . S
C1066 H1046 0.950 . S
C1066 C1065 1.414 . S
C1066 C1067 1.374 . S
C1067 H1047 0.950 . S
C1067 C1063 1.385 . S
C1067 C1066 1.374 . S
C1068 C1065 1.499 . S
C1068 C1069 1.373 . S
C1068 C1070 1.389 . S
C1069 H1048 0.950 . S
C1069 C1068 1.373 . S
C1069 C1085 1.377 . S
C1070 C1068 1.389 . S
C1070 C1071 1.524 . S
C1070 C1084 1.377 . S
C1071 C1070 1.524 . S
C1071 C1072 1.397 . S
C1071 C1076 1.363 . S
C1072 H1049 0.950 . S
C1072 C1071 1.397 . S
C1072 C1073 1.334 . S
C1073 H1050 0.950 . S
C1073 C1072 1.334 . S
C1073 C1074 1.287 . S
C1074 C1073 1.287 . S
C1074 C1075 1.524 . S
C1074 H1093 0.913 . S
C1075 H1051 0.950 . S
C1075 C1074 1.524 . S
C1075 C1076 1.415 . S
C1076 H1052 0.950 . S
C1076 C1071 1.363 . S
C1076 C1075 1.415 . S
C1077 H1053 0.951 . S
C1077 C1078 1.366 . S
C1077 C1079 1.388 . S
C1078 C1077 1.366 . S
C1078 C1082 1.385 . S
C1079 H1054 0.951 . S
C1079 C1077 1.388 . S
C1079 C1080 1.366 . S
C1080 C1079 1.366 . S
C1080 C1081 1.414 . S
C1080 C1083 1.499 . S
C1081 H1055 0.950 . S
C1081 C1080 1.414 . S
C1081 C1082 1.374 . S
C1082 H1056 0.950 . S
C1082 C1078 1.385 . S
C1082 C1081 1.374 . S
C1083 C1080 1.499 . S
C1083 C1084 1.373 . S
C1083 C1085 1.389 . S
C1084 H1057 0.950 . S
C1084 C1070 1.377 . S
C1084 C1083 1.373 . S
C1085 C1069 1.377 . S
C1085 C1083 1.389 . S
C1085 C1086 1.524 . S
C1086 C1085 1.524 . S
C1086 C1087 1.397 . S
C1086 C1091 1.363 . S
C1087 H1058 0.950 . S
C1087 C1086 1.397 . S
C1087 C1088 1.334 . S
C1088 H1059 0.950 . S
C1088 C1087 1.334 . S
C1088 C1089 1.287 . S
C1089 C1088 1.287 . S
C1089 C1090 1.524 . S
C1089 H1092 0.999 . S
C1090 H1060 0.950 . S
C1090 C1089 1.524 . S
C1090 C1091 1.415 . S
C1091 H1061 0.950 . S
C1091 C1086 1.363 . S
C1091 C1090 1.415 . S
H1092 C1089 0.999 . S
H1093 C1074 0.913 . S
H1094 C1112 0.951 . S
H1095 C1114 0.951 . S
H1096 C1116 0.950 . S
H1097 C1117 0.950 . S
H1098 C1119 0.950 . S
H1099 C1122 0.950 . S
H1100 C1123 0.950 . S
H1101 C1125 0.950 . S
H1102 C1126 0.950 . S
H1103 C1127 0.951 . S
H1104 C1129 0.951 . S
H1105 C1131 0.950 . S
H1106 C1132 0.950 . S
H1107 C1134 0.950 . S
H1108 C1137 0.952 . S
H1109 C1138 0.950 . S
H1110 C1140 0.950 . S
H1111 C1141 0.950 . S
C1112 H1094 0.951 . S
C1112 C1113 1.366 . S
C1112 C1114 1.388 . S
C1113 C1112 1.366 . S
C1113 C1117 1.385 . S
C1114 H1095 0.951 . S
C1114 C1112 1.388 . S
C1114 C1115 1.366 . S
C1115 C1114 1.366 . S
C1115 C1116 1.414 . S
C1115 C1118 1.499 . S
C1116 H1096 0.950 . S
C1116 C1115 1.414 . S
C1116 C1117 1.374 . S
C1117 H1097 0.950 . S
C1117 C1113 1.385 . S
C1117 C1116 1.374 . S
C1118 C1115 1.499 . S
C1118 C1119 1.373 . S
C1118 C1120 1.389 . S
C1119 H1098 0.950 . S
C1119 C1118 1.373 . S
C1119 C1135 1.377 . S
C1120 C1118 1.389 . S
C1120 C1121 1.524 . S
C1120 C1134 1.377 . S
C1121 C1120 1.524 . S
C1121 C1122 1.397 . S
C1121 C1126 1.363 . S
C1122 H1099 0.950 . S
C1122 C1121 1.397 . S
C1122 C1123 1.334 . S
C1123 H1100 0.950 . S
C1123 C1122 1.334 . S
C1123 C1124 1.287 . S
C1124 C1123 1.287 . S
C1124 C1125 1.524 . S
C1124 H1143 0.913 . S
C1125 H1101 0.950 . S
C1125 C1124 1.524 . S
C1125 C1126 1.415 . S
C1126 H1102 0.950 . S
C1126 C1121 1.363 . S
C1126 C1125 1.415 . S
C1127 H1103 0.951 . S
C1127 C1128 1.366 . S
C1127 C1129 1.388 . S
C1128 C1127 1.366 . S
C1128 C1132 1.385 . S
C1129 H1104 0.951 . S
C1129 C1127 1.388 . S
C1129 C1130 1.366 . S
C1130 C1129 1.366 . S
C1130 C1131 1.414 . S
C1130 C1133 1.499 . S
C1131 H1105 0.950 . S
C1131 C1130 1.414 . S
C1131 C1132 1.374 . S
C1132 H1106 0.950 . S
C1132 C1128 1.385 . S
C1132 C1131 1.374 . S
C1133 C1130 1.499 . S
C1133 C1134 1.373 . S
C1133 C1135 1.389 . S
C1134 H1107 0.950 . S
C1134 C1120 1.377 . S
C1134 C1133 1.373 . S
C1135 C1119 1.377 . S
C1135 C1133 1.389 . S
C1135 C1136 1.524 . S
C1136 C1135 1.524 . S
C1136 C1137 1.383 1_565 S
C1136 C1141 1.363 . S
C1137 H1108 0.952 . S
C1137 C1136 1.383 1_545 S
C1137 C1138 1.346 . S
C1138 H1109 0.950 . S
C1138 C1137 1.346 . S
C1138 C1139 1.287 . S
C1139 C1138 1.287 . S
C1139 C1140 1.524 1_545 S
C1139 H1142 0.999 . S
C1140 H1110 0.950 . S
C1140 C1139 1.524 1_565 S
C1140 C1141 1.415 . S
C1141 H1111 0.950 . S
C1141 C1136 1.363 . S
C1141 C1140 1.415 . S
H1142 C1139 0.999 . S
H1143 C1124 0.913 . S
H1144 C1162 0.951 . S
H1145 C1164 0.951 . S
H1146 C1166 0.950 . S
H1147 C1167 0.950 . S
H1148 C1169 0.950 . S
H1149 C1172 0.950 . S
H1150 C1173 0.950 . S
H1151 C1175 0.950 . S
H1152 C1176 0.950 . S
H1153 C1177 0.951 . S
H1154 C1179 0.951 . S
H1155 C1181 0.950 . S
H1156 C1182 0.950 . S
H1157 C1184 0.950 . S
H1158 C1187 0.950 . S
H1159 C1188 0.950 . S
H1160 C1190 0.950 . S
H1161 C1191 0.950 . S
C1162 H1144 0.951 . S
C1162 C1163 1.366 . S
C1162 C1164 1.388 . S
C1163 C1162 1.366 . S
C1163 C1167 1.385 . S
C1164 H1145 0.951 . S
C1164 C1162 1.388 . S
C1164 C1165 1.366 . S
C1165 C1164 1.366 . S
C1165 C1166 1.414 . S
C1165 C1168 1.499 . S
C1166 H1146 0.950 . S
C1166 C1165 1.414 . S
C1166 C1167 1.374 . S
C1167 H1147 0.950 . S
C1167 C1163 1.385 . S
C1167 C1166 1.374 . S
C1168 C1165 1.499 . S
C1168 C1169 1.373 . S
C1168 C1170 1.389 . S
C1169 H1148 0.950 . S
C1169 C1168 1.373 . S
C1169 C1185 1.377 . S
C1170 C1168 1.389 . S
C1170 C1171 1.524 . S
C1170 C1184 1.377 . S
C1171 C1170 1.524 . S
C1171 C1172 1.397 . S
C1171 C1176 1.363 . S
C1172 H1149 0.950 . S
C1172 C1171 1.397 . S
C1172 C1173 1.334 . S
C1173 H1150 0.950 . S
C1173 C1172 1.334 . S
C1173 C1174 1.287 . S
C1174 C1173 1.287 . S
C1174 C1175 1.524 . S
C1174 H1193 0.913 . S
C1175 H1151 0.950 . S
C1175 C1174 1.524 . S
C1175 C1176 1.415 . S
C1176 H1152 0.950 . S
C1176 C1171 1.363 . S
C1176 C1175 1.415 . S
C1177 H1153 0.951 . S
C1177 C1178 1.366 . S
C1177 C1179 1.388 . S
C1178 C1177 1.366 . S
C1178 C1182 1.385 . S
C1179 H1154 0.951 . S
C1179 C1177 1.388 . S
C1179 C1180 1.366 . S
C1180 C1179 1.366 . S
C1180 C1181 1.414 . S
C1180 C1183 1.499 . S
C1181 H1155 0.950 . S
C1181 C1180 1.414 . S
C1181 C1182 1.374 . S
C1182 H1156 0.950 . S
C1182 C1178 1.385 . S
C1182 C1181 1.374 . S
C1183 C1180 1.499 . S
C1183 C1184 1.373 . S
C1183 C1185 1.389 . S
C1184 H1157 0.950 . S
C1184 C1170 1.377 . S
C1184 C1183 1.373 . S
C1185 C1169 1.377 . S
C1185 C1183 1.389 . S
C1185 C1186 1.524 . S
C1186 C1185 1.524 . S
C1186 C1187 1.397 . S
C1186 C1191 1.363 . S
C1187 H1158 0.950 . S
C1187 C1186 1.397 . S
C1187 C1188 1.334 . S
C1188 H1159 0.950 . S
C1188 C1187 1.334 . S
C1188 C1189 1.287 . S
C1189 C1188 1.287 . S
C1189 C1190 1.524 . S
C1189 H1192 0.999 . S
C1190 H1160 0.950 . S
C1190 C1189 1.524 . S
C1190 C1191 1.415 . S
C1191 H1161 0.950 . S
C1191 C1186 1.363 . S
C1191 C1190 1.415 . S
H1192 C1189 0.999 . S
H1193 C1174 0.913 . S
H1194 C1212 0.951 . S
H1195 C1214 0.951 . S
H1196 C1216 0.950 . S
H1197 C1217 0.950 . S
H1198 C1219 0.950 . S
H1199 C1222 0.950 . S
H1200 C1223 0.950 . S
H1201 C1225 0.950 . S
H1202 C1226 0.950 . S
H1203 C1227 0.951 . S
H1204 C1229 0.951 . S
H1205 C1231 0.950 . S
H1206 C1232 0.950 . S
H1207 C1234 0.950 . S
H1208 C1237 0.950 . S
H1209 C1238 0.950 . S
H1210 C1240 0.950 . S
H1211 C1241 0.950 . S
C1212 H1194 0.951 . S
C1212 C1213 1.366 . S
C1212 C1214 1.388 . S
C1213 C1212 1.366 . S
C1213 C1217 1.385 . S
C1214 H1195 0.951 . S
C1214 C1212 1.388 . S
C1214 C1215 1.366 . S
C1215 C1214 1.366 . S
C1215 C1216 1.414 . S
C1215 C1218 1.499 . S
C1216 H1196 0.950 . S
C1216 C1215 1.414 . S
C1216 C1217 1.374 . S
C1217 H1197 0.950 . S
C1217 C1213 1.385 . S
C1217 C1216 1.374 . S
C1218 C1215 1.499 . S
C1218 C1219 1.373 . S
C1218 C1220 1.389 . S
C1219 H1198 0.950 . S
C1219 C1218 1.373 . S
C1219 C1235 1.377 . S
C1220 C1218 1.389 . S
C1220 C1221 1.524 . S
C1220 C1234 1.377 . S
C1221 C1220 1.524 . S
C1221 C1222 1.397 . S
C1221 C1226 1.363 . S
C1222 H1199 0.950 . S
C1222 C1221 1.397 . S
C1222 C1223 1.334 . S
C1223 H1200 0.950 . S
C1223 C1222 1.334 . S
C1223 C1224 1.287 . S
C1224 C1223 1.287 . S
C1224 C1225 1.524 . S
C1224 H1243 0.913 . S
C1225 H1201 0.950 . S
C1225 C1224 1.524 . S
C1225 C1226 1.415 . S
C1226 H1202 0.950 . S
C1226 C1221 1.363 . S
C1226 C1225 1.415 . S
C1227 H1203 0.951 . S
C1227 C1228 1.366 . S
C1227 C1229 1.388 . S
C1228 C1227 1.366 . S
C1228 C1232 1.385 . S
C1229 H1204 0.951 . S
C1229 C1227 1.388 . S
C1229 C1230 1.366 . S
C1230 C1229 1.366 . S
C1230 C1231 1.414 . S
C1230 C1233 1.499 . S
C1231 H1205 0.950 . S
C1231 C1230 1.414 . S
C1231 C1232 1.374 . S
C1232 H1206 0.950 . S
C1232 C1228 1.385 . S
C1232 C1231 1.374 . S
C1233 C1230 1.499 . S
C1233 C1234 1.373 . S
C1233 C1235 1.389 . S
C1234 H1207 0.950 . S
C1234 C1220 1.377 . S
C1234 C1233 1.373 . S
C1235 C1219 1.377 . S
C1235 C1233 1.389 . S
C1235 C1236 1.524 . S
C1236 C1235 1.524 . S
C1236 C1237 1.397 . S
C1236 C1241 1.363 . S
C1237 H1208 0.950 . S
C1237 C1236 1.397 . S
C1237 C1238 1.334 . S
C1238 H1209 0.950 . S
C1238 C1237 1.334 . S
C1238 C1239 1.287 . S
C1239 C1238 1.287 . S
C1239 C1240 1.524 . S
C1239 H1242 0.999 . S
C1240 H1210 0.950 . S
C1240 C1239 1.524 . S
C1240 C1241 1.415 . S
C1241 H1211 0.950 . S
C1241 C1236 1.363 . S
C1241 C1240 1.415 . S
H1242 C1239 0.999 . S
H1243 C1224 0.913 . S
H1244 C1262 0.951 . S
H1245 C1264 0.951 . S
H1246 C1266 0.950 . S
H1247 C1267 0.950 . S
H1248 C1269 0.950 . S
H1249 C1272 0.950 . S
H1250 C1273 0.950 . S
H1251 C1275 0.950 . S
H1252 C1276 0.950 . S
H1253 C1277 0.951 . S
H1254 C1279 0.951 . S
H1255 C1281 0.950 . S
H1256 C1282 0.950 . S
H1257 C1284 0.950 . S
H1258 C1287 0.950 . S
H1259 C1288 0.950 . S
H1260 C1290 0.950 . S
H1261 C1291 0.950 . S
C1262 H1244 0.951 . S
C1262 C1263 1.366 . S
C1262 C1264 1.388 . S
C1263 C1262 1.366 . S
C1263 C1267 1.385 . S
C1264 H1245 0.951 . S
C1264 C1262 1.388 . S
C1264 C1265 1.366 . S
C1265 C1264 1.366 . S
C1265 C1266 1.414 . S
C1265 C1268 1.499 . S
C1266 H1246 0.950 . S
C1266 C1265 1.414 . S
C1266 C1267 1.374 . S
C1267 H1247 0.950 . S
C1267 C1263 1.385 . S
C1267 C1266 1.374 . S
C1268 C1265 1.499 . S
C1268 C1269 1.373 . S
C1268 C1270 1.389 . S
C1269 H1248 0.950 . S
C1269 C1268 1.373 . S
C1269 C1285 1.377 . S
C1270 C1268 1.389 . S
C1270 C1271 1.524 . S
C1270 C1284 1.377 . S
C1271 C1270 1.524 . S
C1271 C1272 1.397 . S
C1271 C1276 1.363 . S
C1272 H1249 0.950 . S
C1272 C1271 1.397 . S
C1272 C1273 1.334 . S
C1273 H1250 0.950 . S
C1273 C1272 1.334 . S
C1273 C1274 1.287 . S
C1274 C1273 1.287 . S
C1274 C1275 1.524 . S
C1274 H1293 0.913 . S
C1275 H1251 0.950 . S
C1275 C1274 1.524 . S
C1275 C1276 1.415 . S
C1276 H1252 0.950 . S
C1276 C1271 1.363 . S
C1276 C1275 1.415 . S
C1277 H1253 0.951 . S
C1277 C1278 1.366 . S
C1277 C1279 1.388 . S
C1278 C1277 1.366 . S
C1278 C1282 1.385 . S
C1279 H1254 0.951 . S
C1279 C1277 1.388 . S
C1279 C1280 1.366 . S
C1280 C1279 1.366 . S
C1280 C1281 1.414 . S
C1280 C1283 1.499 . S
C1281 H1255 0.950 . S
C1281 C1280 1.414 . S
C1281 C1282 1.374 . S
C1282 H1256 0.950 . S
C1282 C1278 1.385 . S
C1282 C1281 1.374 . S
C1283 C1280 1.499 . S
C1283 C1284 1.373 . S
C1283 C1285 1.389 . S
C1284 H1257 0.950 . S
C1284 C1270 1.377 . S
C1284 C1283 1.373 . S
C1285 C1269 1.377 . S
C1285 C1283 1.389 . S
C1285 C1286 1.524 . S
C1286 C1285 1.524 . S
C1286 C1287 1.397 . S
C1286 C1291 1.363 . S
C1287 H1258 0.950 . S
C1287 C1286 1.397 . S
C1287 C1288 1.334 . S
C1288 H1259 0.950 . S
C1288 C1287 1.334 . S
C1288 C1289 1.287 . S
C1289 C1288 1.287 . S
C1289 C1290 1.524 . S
C1289 H1292 0.999 . S
C1290 H1260 0.950 . S
C1290 C1289 1.524 . S
C1290 C1291 1.415 . S
C1291 H1261 0.950 . S
C1291 C1286 1.363 . S
C1291 C1290 1.415 . S
H1292 C1289 0.999 . S
H1293 C1274 0.913 . S
H1294 C1312 0.951 . S
H1295 C1314 0.951 . S
H1296 C1316 0.950 . S
H1297 C1317 0.950 . S
H1298 C1319 0.950 . S
H1299 C1322 0.950 . S
H1300 C1323 0.950 . S
H1301 C1325 0.950 . S
H1302 C1326 0.950 . S
H1303 C1327 0.951 . S
H1304 C1329 0.951 . S
H1305 C1331 0.950 . S
H1306 C1332 0.950 . S
H1307 C1334 0.950 . S
H1308 C1337 0.950 . S
H1309 C1338 0.950 . S
H1310 C1340 0.950 . S
H1311 C1341 0.950 . S
C1312 H1294 0.951 . S
C1312 C1313 1.366 . S
C1312 C1314 1.388 . S
C1313 C1312 1.366 . S
C1313 C1317 1.385 . S
C1314 H1295 0.951 . S
C1314 C1312 1.388 . S
C1314 C1315 1.366 . S
C1315 C1314 1.366 . S
C1315 C1316 1.414 . S
C1315 C1318 1.499 . S
C1316 H1296 0.950 . S
C1316 C1315 1.414 . S
C1316 C1317 1.374 . S
C1317 H1297 0.950 . S
C1317 C1313 1.385 . S
C1317 C1316 1.374 . S
C1318 C1315 1.499 . S
C1318 C1319 1.373 . S
C1318 C1320 1.389 . S
C1319 H1298 0.950 . S
C1319 C1318 1.373 . S
C1319 C1335 1.377 . S
C1320 C1318 1.389 . S
C1320 C1321 1.524 . S
C1320 C1334 1.377 . S
C1321 C1320 1.524 . S
C1321 C1322 1.397 . S
C1321 C1326 1.363 . S
C1322 H1299 0.950 . S
C1322 C1321 1.397 . S
C1322 C1323 1.334 . S
C1323 H1300 0.950 . S
C1323 C1322 1.334 . S
C1323 C1324 1.287 . S
C1324 C1323 1.287 . S
C1324 C1325 1.524 . S
C1324 H1343 0.913 . S
C1325 H1301 0.950 . S
C1325 C1324 1.524 . S
C1325 C1326 1.415 . S
C1326 H1302 0.950 . S
C1326 C1321 1.363 . S
C1326 C1325 1.415 . S
C1327 H1303 0.951 . S
C1327 C1328 1.366 . S
C1327 C1329 1.388 . S
C1328 C1327 1.366 . S
C1328 C1332 1.385 . S
C1329 H1304 0.951 . S
C1329 C1327 1.388 . S
C1329 C1330 1.366 . S
C1330 C1329 1.366 . S
C1330 C1331 1.414 . S
C1330 C1333 1.499 . S
C1331 H1305 0.950 . S
C1331 C1330 1.414 . S
C1331 C1332 1.374 . S
C1332 H1306 0.950 . S
C1332 C1328 1.385 . S
C1332 C1331 1.374 . S
C1333 C1330 1.499 . S
C1333 C1334 1.373 . S
C1333 C1335 1.389 . S
C1334 H1307 0.950 . S
C1334 C1320 1.377 . S
C1334 C1333 1.373 . S
C1335 C1319 1.377 . S
C1335 C1333 1.389 . S
C1335 C1336 1.524 . S
C1336 C1335 1.524 . S
C1336 C1337 1.397 . S
C1336 C1341 1.363 . S
C1337 H1308 0.950 . S
C1337 C1336 1.397 . S
C1337 C1338 1.334 . S
C1338 H1309 0.950 . S
C1338 C1337 1.334 . S
C1338 C1339 1.287 . S
C1339 C1338 1.287 . S
C1339 C1340 1.524 . S
C1339 H1342 0.999 . S
C1340 H1310 0.950 . S
C1340 C1339 1.524 . S
C1340 C1341 1.415 . S
C1341 H1311 0.950 . S
C1341 C1336 1.363 . S
C1341 C1340 1.415 . S
H1342 C1339 0.999 . S
H1343 C1324 0.913 . S
H1344 C1362 0.951 . S
H1345 C1364 0.951 . S
H1346 C1366 0.950 . S
H1347 C1367 0.950 . S
H1348 C1369 0.950 . S
H1349 C1372 0.950 . S
H1350 C1373 0.950 . S
H1351 C1375 0.950 . S
H1352 C1376 0.950 . S
H1353 C1377 0.951 . S
H1354 C1379 0.951 . S
H1355 C1381 0.950 . S
H1356 C1382 0.950 . S
H1357 C1384 0.950 . S
H1358 C1387 0.950 . S
H1359 C1388 0.950 . S
H1360 C1390 0.950 . S
H1361 C1391 0.950 . S
C1362 H1344 0.951 . S
C1362 C1363 1.366 . S
C1362 C1364 1.388 . S
C1363 C1362 1.366 . S
C1363 C1367 1.385 . S
C1364 H1345 0.951 . S
C1364 C1362 1.388 . S
C1364 C1365 1.366 . S
C1365 C1364 1.366 . S
C1365 C1366 1.414 . S
C1365 C1368 1.499 . S
C1366 H1346 0.950 . S
C1366 C1365 1.414 . S
C1366 C1367 1.374 . S
C1367 H1347 0.950 . S
C1367 C1363 1.385 . S
C1367 C1366 1.374 . S
C1368 C1365 1.499 . S
C1368 C1369 1.373 . S
C1368 C1370 1.389 . S
C1369 H1348 0.950 . S
C1369 C1368 1.373 . S
C1369 C1385 1.377 . S
C1370 C1368 1.389 . S
C1370 C1371 1.524 . S
C1370 C1384 1.377 . S
C1371 C1370 1.524 . S
C1371 C1372 1.397 . S
C1371 C1376 1.363 . S
C1372 H1349 0.950 . S
C1372 C1371 1.397 . S
C1372 C1373 1.334 . S
C1373 H1350 0.950 . S
C1373 C1372 1.334 . S
C1373 C1374 1.287 . S
C1374 C1373 1.287 . S
C1374 C1375 1.524 . S
C1374 H1393 0.913 . S
C1375 H1351 0.950 . S
C1375 C1374 1.524 . S
C1375 C1376 1.415 . S
C1376 H1352 0.950 . S
C1376 C1371 1.363 . S
C1376 C1375 1.415 . S
C1377 H1353 0.951 . S
C1377 C1378 1.366 . S
C1377 C1379 1.388 . S
C1378 C1377 1.366 . S
C1378 C1382 1.385 . S
C1379 H1354 0.951 . S
C1379 C1377 1.388 . S
C1379 C1380 1.366 . S
C1380 C1379 1.366 . S
C1380 C1381 1.414 . S
C1380 C1383 1.499 . S
C1381 H1355 0.950 . S
C1381 C1380 1.414 . S
C1381 C1382 1.374 . S
C1382 H1356 0.950 . S
C1382 C1378 1.385 . S
C1382 C1381 1.374 . S
C1383 C1380 1.499 . S
C1383 C1384 1.373 . S
C1383 C1385 1.389 . S
C1384 H1357 0.950 . S
C1384 C1370 1.377 . S
C1384 C1383 1.373 . S
C1385 C1369 1.377 . S
C1385 C1383 1.389 . S
C1385 C1386 1.524 . S
C1386 C1385 1.524 . S
C1386 C1387 1.397 . S
C1386 C1391 1.363 . S
C1387 H1358 0.950 . S
C1387 C1386 1.397 . S
C1387 C1388 1.334 . S
C1388 H1359 0.950 . S
C1388 C1387 1.334 . S
C1388 C1389 1.287 . S
C1389 C1388 1.287 . S
C1389 C1390 1.524 . S
C1389 H1392 0.999 . S
C1390 H1360 0.950 . S
C1390 C1389 1.524 . S
C1390 C1391 1.415 . S
C1391 H1361 0.950 . S
C1391 C1386 1.363 . S
C1391 C1390 1.415 . S
H1392 C1389 0.999 . S
H1393 C1374 0.913 . S
H1394 C1412 0.951 . S
H1395 C1414 0.951 . S
H1396 C1416 0.950 . S
H1397 C1417 0.950 . S
H1398 C1419 0.950 . S
H1399 C1422 0.950 . S
H1400 C1423 0.950 . S
H1401 C1425 0.950 . S
H1402 C1426 0.950 . S
H1403 C1427 0.951 . S
H1404 C1429 0.951 . S
H1405 C1431 0.950 . S
H1406 C1432 0.950 . S
H1407 C1434 0.950 . S
H1408 C1437 0.950 . S
H1409 C1438 0.950 . S
H1410 C1440 0.950 . S
H1411 C1441 0.950 . S
C1412 H1394 0.951 . S
C1412 C1413 1.366 . S
C1412 C1414 1.388 . S
C1413 C1412 1.366 . S
C1413 C1417 1.385 . S
C1414 H1395 0.951 . S
C1414 C1412 1.388 . S
C1414 C1415 1.366 . S
C1415 C1414 1.366 . S
C1415 C1416 1.414 . S
C1415 C1418 1.499 . S
C1416 H1396 0.950 . S
C1416 C1415 1.414 . S
C1416 C1417 1.374 . S
C1417 H1397 0.950 . S
C1417 C1413 1.385 . S
C1417 C1416 1.374 . S
C1418 C1415 1.499 . S
C1418 C1419 1.373 . S
C1418 C1420 1.389 . S
C1419 H1398 0.950 . S
C1419 C1418 1.373 . S
C1419 C1435 1.377 . S
C1420 C1418 1.389 . S
C1420 C1421 1.524 . S
C1420 C1434 1.377 . S
C1421 C1420 1.524 . S
C1421 C1422 1.397 . S
C1421 C1426 1.363 . S
C1422 H1399 0.950 . S
C1422 C1421 1.397 . S
C1422 C1423 1.334 . S
C1423 H1400 0.950 . S
C1423 C1422 1.334 . S
C1423 C1424 1.287 1_455 S
C1424 C1423 1.287 1_655 S
C1424 C1425 1.524 . S
C1424 H1443 0.913 . S
C1425 H1401 0.950 . S
C1425 C1424 1.524 . S
C1425 C1426 1.415 1_655 S
C1426 H1402 0.950 . S
C1426 C1421 1.363 . S
C1426 C1425 1.415 1_455 S
C1427 H1403 0.951 . S
C1427 C1428 1.366 . S
C1427 C1429 1.388 . S
C1428 C1427 1.366 . S
C1428 C1432 1.385 . S
C1429 H1404 0.951 . S
C1429 C1427 1.388 . S
C1429 C1430 1.366 . S
C1430 C1429 1.366 . S
C1430 C1431 1.414 . S
C1430 C1433 1.499 . S
C1431 H1405 0.950 . S
C1431 C1430 1.414 . S
C1431 C1432 1.374 . S
C1432 H1406 0.950 . S
C1432 C1428 1.385 . S
C1432 C1431 1.374 . S
C1433 C1430 1.499 . S
C1433 C1434 1.373 . S
C1433 C1435 1.389 . S
C1434 H1407 0.950 . S
C1434 C1420 1.377 . S
C1434 C1433 1.373 . S
C1435 C1419 1.377 . S
C1435 C1433 1.389 . S
C1435 C1436 1.524 . S
C1436 C1435 1.524 . S
C1436 C1437 1.397 . S
C1436 C1441 1.363 . S
C1437 H1408 0.950 . S
C1437 C1436 1.397 . S
C1437 C1438 1.334 . S
C1438 H1409 0.950 . S
C1438 C1437 1.334 . S
C1438 C1439 1.287 . S
C1439 C1438 1.287 . S
C1439 C1440 1.524 . S
C1439 H1442 0.999 . S
C1440 H1410 0.950 . S
C1440 C1439 1.524 . S
C1440 C1441 1.415 . S
C1441 H1411 0.950 . S
C1441 C1436 1.363 . S
C1441 C1440 1.415 . S
H1442 C1439 0.999 . S
H1443 C1424 0.913 . S
H1444 C1462 0.951 . S
H1445 C1464 0.951 . S
H1446 C1466 0.950 . S
H1447 C1467 0.950 . S
H1448 C1469 0.950 . S
H1449 C1472 0.950 . S
H1450 C1473 0.950 . S
H1451 C1475 0.950 . S
H1452 C1476 0.950 . S
H1453 C1477 0.951 . S
H1454 C1479 0.951 . S
H1455 C1481 0.950 . S
H1456 C1482 0.950 . S
H1457 C1484 0.950 . S
H1458 C1487 0.950 . S
H1459 C1488 0.950 . S
H1460 C1490 0.950 . S
H1461 C1491 0.950 . S
C1462 H1444 0.951 . S
C1462 C1463 1.366 . S
C1462 C1464 1.388 . S
C1463 C1462 1.366 . S
C1463 C1467 1.385 . S
C1464 H1445 0.951 . S
C1464 C1462 1.388 . S
C1464 C1465 1.366 . S
C1465 C1464 1.366 . S
C1465 C1466 1.414 . S
C1465 C1468 1.499 . S
C1466 H1446 0.950 . S
C1466 C1465 1.414 . S
C1466 C1467 1.374 . S
C1467 H1447 0.950 . S
C1467 C1463 1.385 . S
C1467 C1466 1.374 . S
C1468 C1465 1.499 . S
C1468 C1469 1.373 . S
C1468 C1470 1.389 . S
C1469 H1448 0.950 . S
C1469 C1468 1.373 . S
C1469 C1485 1.377 . S
C1470 C1468 1.389 . S
C1470 C1471 1.524 . S
C1470 C1484 1.377 . S
C1471 C1470 1.524 . S
C1471 C1472 1.397 . S
C1471 C1476 1.363 . S
C1472 H1449 0.950 . S
C1472 C1471 1.397 . S
C1472 C1473 1.334 . S
C1473 H1450 0.950 . S
C1473 C1472 1.334 . S
C1473 C1474 1.287 . S
C1474 C1473 1.287 . S
C1474 C1475 1.524 . S
C1474 H1493 0.913 . S
C1475 H1451 0.950 . S
C1475 C1474 1.524 . S
C1475 C1476 1.415 . S
C1476 H1452 0.950 . S
C1476 C1471 1.363 . S
C1476 C1475 1.415 . S
C1477 H1453 0.951 . S
C1477 C1478 1.366 . S
C1477 C1479 1.388 . S
C1478 C1477 1.366 . S
C1478 C1482 1.385 . S
C1479 H1454 0.951 . S
C1479 C1477 1.388 . S
C1479 C1480 1.366 . S
C1480 C1479 1.366 . S
C1480 C1481 1.414 . S
C1480 C1483 1.499 . S
C1481 H1455 0.950 . S
C1481 C1480 1.414 . S
C1481 C1482 1.374 . S
C1482 H1456 0.950 . S
C1482 C1478 1.385 . S
C1482 C1481 1.374 . S
C1483 C1480 1.499 . S
C1483 C1484 1.373 . S
C1483 C1485 1.389 . S
C1484 H1457 0.950 . S
C1484 C1470 1.377 . S
C1484 C1483 1.373 . S
C1485 C1469 1.377 . S
C1485 C1483 1.389 . S
C1485 C1486 1.524 . S
C1486 C1485 1.524 . S
C1486 C1487 1.397 . S
C1486 C1491 1.363 . S
C1487 H1458 0.950 . S
C1487 C1486 1.397 . S
C1487 C1488 1.334 . S
C1488 H1459 0.950 . S
C1488 C1487 1.334 . S
C1488 C1489 1.287 . S
C1489 C1488 1.287 . S
C1489 C1490 1.524 . S
C1489 H1492 0.999 . S
C1490 H1460 0.950 . S
C1490 C1489 1.524 . S
C1490 C1491 1.415 . S
C1491 H1461 0.950 . S
C1491 C1486 1.363 . S
C1491 C1490 1.415 . S
H1492 C1489 0.999 . S
H1493 C1474 0.913 . S
H1494 C1512 0.951 . S
H1495 C1514 0.951 . S
H1496 C1516 0.950 . S
H1497 C1517 0.950 . S
H1498 C1519 0.950 . S
H1499 C1522 0.950 . S
H1500 C1523 0.950 . S
H1501 C1525 0.950 . S
H1502 C1526 0.950 . S
H1503 C1527 0.951 . S
H1504 C1529 0.951 . S
H1505 C1531 0.950 . S
H1506 C1532 0.950 1_455 S
H1507 C1534 0.950 . S
H1508 C1537 0.950 . S
H1509 C1538 0.950 . S
H1510 C1540 0.950 . S
H1511 C1541 0.950 . S
C1512 H1494 0.951 . S
C1512 C1513 1.366 . S
C1512 C1514 1.388 . S
C1513 C1512 1.366 . S
C1513 C1517 1.385 . S
C1514 H1495 0.951 . S
C1514 C1512 1.388 . S
C1514 C1515 1.366 . S
C1515 C1514 1.366 . S
C1515 C1516 1.414 . S
C1515 C1518 1.499 . S
C1516 H1496 0.950 . S
C1516 C1515 1.414 . S
C1516 C1517 1.374 . S
C1517 H1497 0.950 . S
C1517 C1513 1.385 . S
C1517 C1516 1.374 . S
C1518 C1515 1.499 . S
C1518 C1519 1.373 . S
C1518 C1520 1.389 . S
C1519 H1498 0.950 . S
C1519 C1518 1.373 . S
C1519 C1535 1.377 . S
C1520 C1518 1.389 . S
C1520 C1521 1.524 . S
C1520 C1534 1.377 . S
C1521 C1520 1.524 . S
C1521 C1522 1.397 . S
C1521 C1526 1.363 1_655 S
C1522 H1499 0.950 . S
C1522 C1521 1.397 . S
C1522 C1523 1.334 . S
C1523 H1500 0.950 . S
C1523 C1522 1.334 . S
C1523 C1524 1.287 1_655 S
C1524 C1523 1.287 1_455 S
C1524 C1525 1.524 . S
C1524 H1543 0.913 . S
C1525 H1501 0.950 . S
C1525 C1524 1.524 . S
C1525 C1526 1.415 . S
C1526 H1502 0.950 . S
C1526 C1521 1.363 1_455 S
C1526 C1525 1.415 . S
C1527 H1503 0.951 . S
C1527 C1528 1.366 . S
C1527 C1529 1.388 . S
C1528 C1527 1.366 . S
C1528 C1532 1.385 . S
C1529 H1504 0.951 . S
C1529 C1527 1.388 . S
C1529 C1530 1.366 . S
C1530 C1529 1.366 . S
C1530 C1531 1.414 . S
C1530 C1533 1.499 . S
C1531 H1505 0.950 . S
C1531 C1530 1.414 . S
C1531 C1532 1.374 . S
C1532 H1506 0.950 1_655 S
C1532 C1528 1.385 . S
C1532 C1531 1.374 . S
C1533 C1530 1.499 . S
C1533 C1534 1.373 . S
C1533 C1535 1.389 . S
C1534 H1507 0.950 . S
C1534 C1520 1.377 . S
C1534 C1533 1.373 . S
C1535 C1519 1.377 . S
C1535 C1533 1.389 . S
C1535 C1536 1.524 . S
C1536 C1535 1.524 . S
C1536 C1537 1.397 . S
C1536 C1541 1.363 . S
C1537 H1508 0.950 . S
C1537 C1536 1.397 . S
C1537 C1538 1.334 . S
C1538 H1509 0.950 . S
C1538 C1537 1.334 . S
C1538 C1539 1.287 . S
C1539 C1538 1.287 . S
C1539 C1540 1.524 . S
C1539 H1542 0.999 . S
C1540 H1510 0.950 . S
C1540 C1539 1.524 . S
C1540 C1541 1.415 . S
C1541 H1511 0.950 . S
C1541 C1536 1.363 . S
C1541 C1540 1.415 . S
H1542 C1539 0.999 . S
H1543 C1524 0.913 . S
H1544 C1562 0.951 . S
H1545 C1564 0.951 . S
H1546 C1566 0.950 . S
H1547 C1567 0.950 . S
H1548 C1569 0.950 . S
H1549 C1572 0.950 . S
H1550 C1573 0.950 . S
H1551 C1575 0.950 . S
H1552 C1576 0.950 . S
H1553 C1577 0.951 . S
H1554 C1579 0.951 . S
H1555 C1581 0.950 . S
H1556 C1582 0.960 . S
H1557 C1584 0.950 . S
H1558 C1587 0.950 . S
H1559 C1588 0.950 . S
H1560 C1590 0.950 . S
H1561 C1591 0.950 . S
C1562 H1544 0.951 . S
C1562 C1563 1.366 . S
C1562 C1564 1.388 . S
C1563 C1562 1.366 . S
C1563 C1567 1.385 . S
C1564 H1545 0.951 . S
C1564 C1562 1.388 . S
C1564 C1565 1.366 . S
C1565 C1564 1.366 . S
C1565 C1566 1.414 . S
C1565 C1568 1.499 . S
C1566 H1546 0.950 . S
C1566 C1565 1.414 . S
C1566 C1567 1.374 . S
C1567 H1547 0.950 . S
C1567 C1563 1.385 . S
C1567 C1566 1.374 . S
C1568 C1565 1.499 . S
C1568 C1569 1.373 . S
C1568 C1570 1.389 . S
C1569 H1548 0.950 . S
C1569 C1568 1.373 . S
C1569 C1585 1.377 . S
C1570 C1568 1.389 . S
C1570 C1571 1.524 . S
C1570 C1584 1.377 . S
C1571 C1570 1.524 . S
C1571 C1572 1.397 . S
C1571 C1576 1.363 . S
C1572 H1549 0.950 . S
C1572 C1571 1.397 . S
C1572 C1573 1.334 . S
C1573 H1550 0.950 . S
C1573 C1572 1.334 . S
C1573 C1574 1.287 . S
C1574 C1573 1.287 . S
C1574 C1575 1.524 . S
C1574 H1593 0.913 . S
C1575 H1551 0.950 . S
C1575 C1574 1.524 . S
C1575 C1576 1.415 . S
C1576 H1552 0.950 . S
C1576 C1571 1.363 . S
C1576 C1575 1.415 . S
C1577 H1553 0.951 . S
C1577 C1578 1.366 . S
C1577 C1579 1.388 . S
C1578 C1577 1.366 . S
C1578 C1582 1.340 1_545 S
C1579 H1554 0.951 . S
C1579 C1577 1.388 . S
C1579 C1580 1.366 1_545 S
C1580 C1579 1.366 1_565 S
C1580 C1581 1.414 . S
C1580 C1583 1.499 . S
C1581 H1555 0.950 . S
C1581 C1580 1.414 . S
C1581 C1582 1.410 . S
C1582 H1556 0.960 . S
C1582 C1578 1.340 1_565 S
C1582 C1581 1.410 . S
C1583 C1580 1.499 . S
C1583 C1584 1.373 . S
C1583 C1585 1.389 . S
C1584 H1557 0.950 . S
C1584 C1570 1.377 . S
C1584 C1583 1.373 . S
C1585 C1569 1.377 . S
C1585 C1583 1.389 . S
C1585 C1586 1.524 . S
C1586 C1585 1.524 . S
C1586 C1587 1.397 . S
C1586 C1591 1.363 . S
C1587 H1558 0.950 . S
C1587 C1586 1.397 . S
C1587 C1588 1.334 1_565 S
C1588 H1559 0.950 . S
C1588 C1587 1.334 1_545 S
C1588 C1589 1.287 . S
C1589 C1588 1.287 . S
C1589 C1590 1.524 . S
C1589 H1592 0.999 . S
C1590 H1560 0.950 . S
C1590 C1589 1.524 . S
C1590 C1591 1.415 1_545 S
C1591 H1561 0.950 . S
C1591 C1586 1.363 . S
C1591 C1590 1.415 1_565 S
H1592 C1589 0.999 . S
H1593 C1574 0.913 . S
H1594 C1612 0.951 . S
H1595 C1614 0.951 . S
H1596 C1616 0.950 . S
H1597 C1617 0.950 . S
H1598 C1619 0.950 . S
H1599 C1622 0.950 . S
H1600 C1623 0.950 . S
H1601 C1625 0.950 . S
H1602 C1626 0.950 . S
H1603 C1627 0.951 . S
H1604 C1629 0.951 . S
H1605 C1631 0.950 . S
H1606 C1632 0.950 . S
H1607 C1634 0.950 . S
H1608 C1637 0.950 . S
H1609 C1638 0.950 . S
H1610 C1640 0.950 . S
H1611 C1641 0.950 . S
C1612 H1594 0.951 . S
C1612 C1613 1.366 . S
C1612 C1614 1.388 . S
C1613 C1612 1.366 . S
C1613 C1617 1.385 . S
C1614 H1595 0.951 . S
C1614 C1612 1.388 . S
C1614 C1615 1.366 . S
C1615 C1614 1.366 . S
C1615 C1616 1.414 . S
C1615 C1618 1.499 . S
C1616 H1596 0.950 . S
C1616 C1615 1.414 . S
C1616 C1617 1.374 . S
C1617 H1597 0.950 . S
C1617 C1613 1.385 . S
C1617 C1616 1.374 . S
C1618 C1615 1.499 . S
C1618 C1619 1.373 . S
C1618 C1620 1.389 . S
C1619 H1598 0.950 . S
C1619 C1618 1.373 . S
C1619 C1635 1.377 . S
C1620 C1618 1.389 . S
C1620 C1621 1.524 . S
C1620 C1634 1.377 . S
C1621 C1620 1.524 . S
C1621 C1622 1.397 . S
C1621 C1626 1.363 . S
C1622 H1599 0.950 . S
C1622 C1621 1.397 . S
C1622 C1623 1.334 . S
C1623 H1600 0.950 . S
C1623 C1622 1.334 . S
C1623 C1624 1.287 . S
C1624 C1623 1.287 . S
C1624 C1625 1.524 . S
C1624 H1643 0.913 . S
C1625 H1601 0.950 . S
C1625 C1624 1.524 . S
C1625 C1626 1.415 . S
C1626 H1602 0.950 . S
C1626 C1621 1.363 . S
C1626 C1625 1.415 . S
C1627 H1603 0.951 . S
C1627 C1628 1.366 . S
C1627 C1629 1.388 . S
C1628 C1627 1.366 . S
C1628 C1632 1.385 . S
C1629 H1604 0.951 . S
C1629 C1627 1.388 . S
C1629 C1630 1.366 . S
C1630 C1629 1.366 . S
C1630 C1631 1.414 . S
C1630 C1633 1.499 . S
C1631 H1605 0.950 . S
C1631 C1630 1.414 . S
C1631 C1632 1.374 . S
C1632 H1606 0.950 . S
C1632 C1628 1.385 . S
C1632 C1631 1.374 . S
C1633 C1630 1.499 . S
C1633 C1634 1.373 . S
C1633 C1635 1.389 . S
C1634 H1607 0.950 . S
C1634 C1620 1.377 . S
C1634 C1633 1.373 . S
C1635 C1619 1.377 . S
C1635 C1633 1.389 . S
C1635 C1636 1.524 . S
C1636 C1635 1.524 . S
C1636 C1637 1.397 . S
C1636 C1641 1.363 . S
C1637 H1608 0.950 . S
C1637 C1636 1.397 . S
C1637 C1638 1.334 . S
C1638 H1609 0.950 . S
C1638 C1637 1.334 . S
C1638 C1639 1.287 . S
C1639 C1638 1.287 . S
C1639 C1640 1.524 . S
C1639 H1642 0.999 . S
C1640 H1610 0.950 . S
C1640 C1639 1.524 . S
C1640 C1641 1.415 . S
C1641 H1611 0.950 . S
C1641 C1636 1.363 . S
C1641 C1640 1.415 . S
H1642 C1639 0.999 . S
H1643 C1624 0.913 . S
H1644 C1662 0.951 . S
H1645 C1664 0.951 . S
H1646 C1666 0.950 . S
H1647 C1667 0.950 . S
H1648 C1669 0.950 . S
H1649 C1672 0.948 . S
H1650 C1673 0.950 . S
H1651 C1675 0.950 . S
H1652 C1676 0.950 . S
H1653 C1677 0.951 . S
H1654 C1679 0.951 . S
H1655 C1681 0.950 . S
H1656 C1682 0.950 . S
H1657 C1684 0.950 . S
H1658 C1687 0.918 1_565 S
H1659 C1688 0.976 . S
H1660 C1690 0.950 . S
H1661 C1691 0.950 . S
C1662 H1644 0.951 . S
C1662 C1663 1.366 . S
C1662 C1664 1.388 . S
C1663 C1662 1.366 . S
C1663 C1667 1.385 . S
C1664 H1645 0.951 . S
C1664 C1662 1.388 . S
C1664 C1665 1.366 . S
C1665 C1664 1.366 . S
C1665 C1666 1.414 . S
C1665 C1668 1.499 . S
C1666 H1646 0.950 . S
C1666 C1665 1.414 . S
C1666 C1667 1.374 . S
C1667 H1647 0.950 . S
C1667 C1663 1.385 . S
C1667 C1666 1.374 . S
C1668 C1665 1.499 . S
C1668 C1669 1.373 . S
C1668 C1670 1.389 1_545 S
C1669 H1648 0.950 . S
C1669 C1668 1.373 . S
C1669 C1685 1.417 1_556 S
C1670 C1668 1.389 1_565 S
C1670 C1671 1.524 . S
C1670 C1684 1.377 . S
C1671 C1670 1.524 . S
C1671 C1672 1.397 . S
C1671 C1676 1.363 . S
C1672 H1649 0.948 . S
C1672 C1671 1.397 . S
C1672 C1673 1.334 . S
C1673 H1650 0.950 . S
C1673 C1672 1.334 . S
C1673 C1674 1.287 . S
C1674 C1673 1.287 . S
C1674 C1675 1.524 . S
C1674 H1693 0.913 . S
C1675 H1651 0.950 . S
C1675 C1674 1.524 . S
C1675 C1676 1.415 . S
C1676 H1652 0.950 . S
C1676 C1671 1.363 . S
C1676 C1675 1.415 . S
C1677 H1653 0.951 . S
C1677 C1678 1.366 . S
C1677 C1679 1.388 . S
C1678 C1677 1.366 . S
C1678 C1682 1.385 . S
C1679 H1654 0.951 . S
C1679 C1677 1.388 . S
C1679 C1680 1.366 . S
C1680 C1679 1.366 . S
C1680 C1681 1.414 . S
C1680 C1683 1.499 1_554 S
C1681 H1655 0.950 . S
C1681 C1680 1.414 . S
C1681 C1682 1.374 . S
C1682 H1656 0.950 . S
C1682 C1678 1.385 . S
C1682 C1681 1.374 . S
C1683 C1680 1.499 1_556 S
C1683 C1684 1.373 . S
C1683 C1685 1.333 1_566 S
C1684 H1657 0.950 . S
C1684 C1670 1.377 . S
C1684 C1683 1.373 . S
C1685 C1669 1.417 1_554 S
C1685 C1683 1.333 1_544 S
C1685 C1686 1.545 . S
C1686 C1685 1.545 . S
C1686 C1687 1.416 . S
C1686 C1691 1.363 . S
C1687 H1658 0.918 1_545 S
C1687 C1686 1.416 . S
C1687 C1688 1.348 . S
C1688 H1659 0.976 . S
C1688 C1687 1.348 . S
C1688 C1689 1.287 . S
C1689 C1688 1.287 . S
C1689 C1690 1.524 . S
C1689 H1692 0.999 . S
C1690 H1660 0.950 . S
C1690 C1689 1.524 . S
C1690 C1691 1.415 . S
C1691 H1661 0.950 . S
C1691 C1686 1.363 . S
C1691 C1690 1.415 . S
H1692 C1689 0.999 . S
H1693 C1674 0.913 . S
H1694 C1712 0.951 . S
H1695 C1714 0.951 . S
H1696 C1716 0.950 . S
H1697 C1717 0.950 . S
H1698 C1719 0.950 . S
H1699 C1722 0.950 . S
H1700 C1723 0.950 . S
H1701 C1725 0.950 . S
H1702 C1726 0.950 . S
H1703 C1727 0.951 . S
H1704 C1729 0.951 . S
H1705 C1731 0.950 . S
H1706 C1732 0.950 . S
H1707 C1734 0.950 . S
H1708 C1737 0.950 . S
H1709 C1738 0.950 . S
H1710 C1740 0.950 . S
H1711 C1741 0.950 . S
C1712 H1694 0.951 . S
C1712 C1713 1.366 . S
C1712 C1714 1.388 . S
C1713 C1712 1.366 . S
C1713 C1717 1.385 . S
C1714 H1695 0.951 . S
C1714 C1712 1.388 . S
C1714 C1715 1.366 . S
C1715 C1714 1.366 . S
C1715 C1716 1.414 . S
C1715 C1718 1.499 . S
C1716 H1696 0.950 . S
C1716 C1715 1.414 . S
C1716 C1717 1.374 . S
C1717 H1697 0.950 . S
C1717 C1713 1.385 . S
C1717 C1716 1.374 . S
C1718 C1715 1.499 . S
C1718 C1719 1.373 . S
C1718 C1720 1.389 . S
C1719 H1698 0.950 . S
C1719 C1718 1.373 . S
C1719 C1735 1.377 . S
C1720 C1718 1.389 . S
C1720 C1721 1.524 . S
C1720 C1734 1.377 . S
C1721 C1720 1.524 . S
C1721 C1722 1.397 . S
C1721 C1726 1.363 . S
C1722 H1699 0.950 . S
C1722 C1721 1.397 . S
C1722 C1723 1.334 . S
C1723 H1700 0.950 . S
C1723 C1722 1.334 . S
C1723 C1724 1.287 . S
C1724 C1723 1.287 . S
C1724 C1725 1.524 . S
C1724 H1743 0.913 . S
C1725 H1701 0.950 . S
C1725 C1724 1.524 . S
C1725 C1726 1.415 . S
C1726 H1702 0.950 . S
C1726 C1721 1.363 . S
C1726 C1725 1.415 . S
C1727 H1703 0.951 . S
C1727 C1728 1.366 . S
C1727 C1729 1.388 . S
C1728 C1727 1.366 . S
C1728 C1732 1.385 . S
C1729 H1704 0.951 . S
C1729 C1727 1.388 . S
C1729 C1730 1.366 . S
C1730 C1729 1.366 . S
C1730 C1731 1.414 . S
C1730 C1733 1.499 . S
C1731 H1705 0.950 . S
C1731 C1730 1.414 . S
C1731 C1732 1.374 . S
C1732 H1706 0.950 . S
C1732 C1728 1.385 . S
C1732 C1731 1.374 . S
C1733 C1730 1.499 . S
C1733 C1734 1.373 . S
C1733 C1735 1.389 . S
C1734 H1707 0.950 . S
C1734 C1720 1.377 . S
C1734 C1733 1.373 . S
C1735 C1719 1.377 . S
C1735 C1733 1.389 . S
C1735 C1736 1.524 . S
C1736 C1735 1.524 . S
C1736 C1737 1.397 . S
C1736 C1741 1.363 . S
C1737 H1708 0.950 . S
C1737 C1736 1.397 . S
C1737 C1738 1.334 . S
C1738 H1709 0.950 . S
C1738 C1737 1.334 . S
C1738 C1739 1.287 . S
C1739 C1738 1.287 . S
C1739 C1740 1.524 . S
C1739 H1742 0.999 . S
C1740 H1710 0.950 . S
C1740 C1739 1.524 . S
C1740 C1741 1.415 . S
C1741 H1711 0.950 . S
C1741 C1736 1.363 . S
C1741 C1740 1.415 . S
H1742 C1739 0.999 . S
H1743 C1724 0.913 . S
H1744 C1762 0.951 . S
H1745 C1764 0.951 . S
H1746 C1766 0.950 . S
H1747 C1767 0.950 . S
H1748 C1769 0.950 . S
H1749 C1772 0.950 . S
H1750 C1773 0.953 . S
H1751 C1775 0.950 . S
H1752 C1776 0.950 . S
H1753 C1777 0.951 . S
H1754 C1779 0.951 . S
H1755 C1781 0.950 . S
H1756 C1782 0.950 . S
H1757 C1784 0.950 . S
H1758 C1787 0.950 . S
H1759 C1788 0.950 . S
H1760 C1790 0.950 . S
H1761 C1791 0.950 . S
C1762 H1744 0.951 . S
C1762 C1763 1.366 . S
C1762 C1764 1.388 . S
C1763 C1762 1.366 . S
C1763 C1767 1.385 . S
C1764 H1745 0.951 . S
C1764 C1762 1.388 . S
C1764 C1765 1.366 . S
C1765 C1764 1.366 . S
C1765 C1766 1.414 . S
C1765 C1768 1.499 . S
C1766 H1746 0.950 . S
C1766 C1765 1.414 . S
C1766 C1767 1.374 . S
C1767 H1747 0.950 . S
C1767 C1763 1.385 . S
C1767 C1766 1.374 . S
C1768 C1765 1.499 . S
C1768 C1769 1.373 . S
C1768 C1770 1.389 . S
C1769 H1748 0.950 . S
C1769 C1768 1.373 . S
C1769 C1785 1.377 . S
C1770 C1768 1.389 . S
C1770 C1771 1.524 . S
C1770 C1784 1.377 . S
C1771 C1770 1.524 . S
C1771 C1772 1.397 . S
C1771 C1776 1.363 . S
C1772 H1749 0.950 . S
C1772 C1771 1.397 . S
C1772 C1773 1.331 1_545 S
C1773 H1750 0.953 . S
C1773 C1772 1.331 1_565 S
C1773 C1774 1.285 . S
C1774 C1773 1.285 . S
C1774 C1775 1.494 1_565 S
C1774 H1793 0.951 . S
C1775 H1751 0.950 . S
C1775 C1774 1.494 1_545 S
C1775 C1776 1.415 . S
C1776 H1752 0.950 . S
C1776 C1771 1.363 . S
C1776 C1775 1.415 . S
C1777 H1753 0.951 . S
C1777 C1778 1.366 . S
C1777 C1779 1.388 . S
C1778 C1777 1.366 . S
C1778 C1782 1.385 . S
C1779 H1754 0.951 . S
C1779 C1777 1.388 . S
C1779 C1780 1.366 . S
C1780 C1779 1.366 . S
C1780 C1781 1.414 . S
C1780 C1783 1.499 . S
C1781 H1755 0.950 . S
C1781 C1780 1.414 . S
C1781 C1782 1.374 . S
C1782 H1756 0.950 . S
C1782 C1778 1.385 . S
C1782 C1781 1.374 . S
C1783 C1780 1.499 . S
C1783 C1784 1.373 . S
C1783 C1785 1.389 . S
C1784 H1757 0.950 . S
C1784 C1770 1.377 . S
C1784 C1783 1.373 . S
C1785 C1769 1.377 . S
C1785 C1783 1.389 . S
C1785 C1786 1.524 . S
C1786 C1785 1.524 . S
C1786 C1787 1.397 . S
C1786 C1791 1.363 . S
C1787 H1758 0.950 . S
C1787 C1786 1.397 . S
C1787 C1788 1.334 . S
C1788 H1759 0.950 . S
C1788 C1787 1.334 . S
C1788 C1789 1.287 . S
C1789 C1788 1.287 . S
C1789 C1790 1.524 . S
C1789 H1792 0.999 . S
C1790 H1760 0.950 . S
C1790 C1789 1.524 . S
C1790 C1791 1.415 . S
C1791 H1761 0.950 . S
C1791 C1786 1.363 . S
C1791 C1790 1.415 . S
H1792 C1789 0.999 . S
H1793 C1774 0.951 . S
H1794 C1812 0.951 . S
H1795 C1814 0.951 . S
H1796 C1816 0.950 . S
H1797 C1817 0.950 . S
H1798 C1819 0.950 . S
H1799 C1822 0.950 . S
H1800 C1823 0.950 . S
H1801 C1825 0.950 . S
H1802 C1826 0.950 . S
H1803 C1827 0.951 . S
H1804 C1829 0.951 . S
H1805 C1831 0.950 . S
H1806 C1832 0.950 . S
H1807 C1834 0.950 . S
H1808 C1837 0.950 . S
H1809 C1838 0.950 . S
H1810 C1840 0.950 . S
H1811 C1841 0.950 . S
C1812 H1794 0.951 . S
C1812 C1813 1.366 . S
C1812 C1814 1.388 . S
C1813 C1812 1.366 . S
C1813 C1817 1.385 . S
C1814 H1795 0.951 . S
C1814 C1812 1.388 . S
C1814 C1815 1.366 . S
C1815 C1814 1.366 . S
C1815 C1816 1.414 . S
C1815 C1818 1.499 . S
C1816 H1796 0.950 . S
C1816 C1815 1.414 . S
C1816 C1817 1.374 . S
C1817 H1797 0.950 . S
C1817 C1813 1.385 . S
C1817 C1816 1.374 . S
C1818 C1815 1.499 . S
C1818 C1819 1.373 . S
C1818 C1820 1.389 . S
C1819 H1798 0.950 . S
C1819 C1818 1.373 . S
C1819 C1835 1.377 . S
C1820 C1818 1.389 . S
C1820 C1821 1.524 . S
C1820 C1834 1.377 . S
C1821 C1820 1.524 . S
C1821 C1822 1.397 . S
C1821 C1826 1.363 . S
C1822 H1799 0.950 . S
C1822 C1821 1.397 . S
C1822 C1823 1.334 . S
C1823 H1800 0.950 . S
C1823 C1822 1.334 . S
C1823 C1824 1.287 . S
C1824 C1823 1.287 . S
C1824 C1825 1.524 . S
C1824 H1843 0.913 . S
C1825 H1801 0.950 . S
C1825 C1824 1.524 . S
C1825 C1826 1.415 . S
C1826 H1802 0.950 . S
C1826 C1821 1.363 . S
C1826 C1825 1.415 . S
C1827 H1803 0.951 . S
C1827 C1828 1.366 . S
C1827 C1829 1.388 . S
C1828 C1827 1.366 . S
C1828 C1832 1.385 . S
C1829 H1804 0.951 . S
C1829 C1827 1.388 . S
C1829 C1830 1.366 . S
C1830 C1829 1.366 . S
C1830 C1831 1.414 . S
C1830 C1833 1.499 . S
C1831 H1805 0.950 . S
C1831 C1830 1.414 . S
C1831 C1832 1.374 . S
C1832 H1806 0.950 . S
C1832 C1828 1.385 . S
C1832 C1831 1.374 . S
C1833 C1830 1.499 . S
C1833 C1834 1.373 . S
C1833 C1835 1.389 . S
C1834 H1807 0.950 . S
C1834 C1820 1.377 . S
C1834 C1833 1.373 . S
C1835 C1819 1.377 . S
C1835 C1833 1.389 . S
C1835 C1836 1.524 . S
C1836 C1835 1.524 . S
C1836 C1837 1.397 . S
C1836 C1841 1.363 . S
C1837 H1808 0.950 . S
C1837 C1836 1.397 . S
C1837 C1838 1.334 . S
C1838 H1809 0.950 . S
C1838 C1837 1.334 . S
C1838 C1839 1.287 . S
C1839 C1838 1.287 . S
C1839 C1840 1.524 . S
C1839 H1842 0.999 . S
C1840 H1810 0.950 . S
C1840 C1839 1.524 . S
C1840 C1841 1.415 . S
C1841 H1811 0.950 . S
C1841 C1836 1.363 . S
C1841 C1840 1.415 . S
H1842 C1839 0.999 . S
H1843 C1824 0.913 . S
H1844 C1862 0.951 . S
H1845 C1864 0.951 . S
H1846 C1866 0.950 . S
H1847 C1867 0.950 . S
H1848 C1869 0.950 . S
H1849 C1872 0.950 . S
H1850 C1873 0.950 . S
H1851 C1875 0.950 . S
H1852 C1876 0.950 . S
H1853 C1877 0.951 . S
H1854 C1879 0.951 . S
H1855 C1881 0.950 . S
H1856 C1882 0.950 . S
H1857 C1884 0.950 . S
H1858 C1887 0.950 . S
H1859 C1888 0.950 . S
H1860 C1890 0.950 . S
H1861 C1891 0.950 . S
C1862 H1844 0.951 . S
C1862 C1863 1.366 . S
C1862 C1864 1.388 . S
C1863 C1862 1.366 . S
C1863 C1867 1.385 . S
C1864 H1845 0.951 . S
C1864 C1862 1.388 . S
C1864 C1865 1.366 1_565 S
C1865 C1864 1.366 1_545 S
C1865 C1866 1.414 . S
C1865 C1868 1.499 . S
C1866 H1846 0.950 . S
C1866 C1865 1.414 . S
C1866 C1867 1.374 1_545 S
C1867 H1847 0.950 . S
C1867 C1863 1.385 . S
C1867 C1866 1.374 1_565 S
C1868 C1865 1.499 . S
C1868 C1869 1.373 . S
C1868 C1870 1.389 . S
C1869 H1848 0.950 . S
C1869 C1868 1.373 . S
C1869 C1885 1.377 . S
C1870 C1868 1.389 . S
C1870 C1871 1.524 . S
C1870 C1884 1.377 . S
C1871 C1870 1.524 . S
C1871 C1872 1.397 . S
C1871 C1876 1.363 . S
C1872 H1849 0.950 . S
C1872 C1871 1.397 . S
C1872 C1873 1.334 1_545 S
C1873 H1850 0.950 . S
C1873 C1872 1.334 1_565 S
C1873 C1874 1.287 . S
C1874 C1873 1.287 . S
C1874 C1875 1.524 . S
C1874 H1893 0.913 . S
C1875 H1851 0.950 . S
C1875 C1874 1.524 . S
C1875 C1876 1.415 1_565 S
C1876 H1852 0.950 . S
C1876 C1871 1.363 . S
C1876 C1875 1.415 1_545 S
C1877 H1853 0.951 . S
C1877 C1878 1.366 . S
C1877 C1879 1.388 . S
C1878 C1877 1.366 . S
C1878 C1882 1.385 . S
C1879 H1854 0.951 . S
C1879 C1877 1.388 . S
C1879 C1880 1.366 . S
C1880 C1879 1.366 . S
C1880 C1881 1.414 . S
C1880 C1883 1.499 . S
C1881 H1855 0.950 . S
C1881 C1880 1.414 . S
C1881 C1882 1.374 . S
C1882 H1856 0.950 . S
C1882 C1878 1.385 . S
C1882 C1881 1.374 . S
C1883 C1880 1.499 . S
C1883 C1884 1.373 . S
C1883 C1885 1.389 . S
C1884 H1857 0.950 . S
C1884 C1870 1.377 . S
C1884 C1883 1.373 . S
C1885 C1869 1.377 . S
C1885 C1883 1.389 . S
C1885 C1886 1.524 . S
C1886 C1885 1.524 . S
C1886 C1887 1.397 . S
C1886 C1891 1.363 . S
C1887 H1858 0.950 . S
C1887 C1886 1.397 . S
C1887 C1888 1.334 . S
C1888 H1859 0.950 . S
C1888 C1887 1.334 . S
C1888 C1889 1.287 . S
C1889 C1888 1.287 . S
C1889 C1890 1.524 . S
C1889 H1892 0.999 . S
C1890 H1860 0.950 . S
C1890 C1889 1.524 . S
C1890 C1891 1.415 . S
C1891 H1861 0.950 . S
C1891 C1886 1.363 . S
C1891 C1890 1.415 . S
H1892 C1889 0.999 . S
H1893 C1874 0.913 . S
H1894 C1912 0.951 . S
H1895 C1914 0.951 . S
H1896 C1916 0.950 . S
H1897 C1917 0.950 . S
H1898 C1919 0.950 . S
H1899 C1922 0.950 . S
H1900 C1923 0.950 . S
H1901 C1925 0.950 . S
H1902 C1926 0.950 . S
H1903 C1927 0.951 . S
H1904 C1929 0.951 . S
H1905 C1931 0.950 . S
H1906 C1932 0.950 . S
H1907 C1934 0.950 . S
H1908 C1937 0.950 . S
H1909 C1938 0.950 . S
H1910 C1940 0.950 . S
H1911 C1941 0.950 . S
C1912 H1894 0.951 . S
C1912 C1913 1.366 . S
C1912 C1914 1.388 . S
C1913 C1912 1.366 . S
C1913 C1917 1.385 . S
C1914 H1895 0.951 . S
C1914 C1912 1.388 . S
C1914 C1915 1.366 . S
C1915 C1914 1.366 . S
C1915 C1916 1.414 . S
C1915 C1918 1.499 . S
C1916 H1896 0.950 . S
C1916 C1915 1.414 . S
C1916 C1917 1.374 . S
C1917 H1897 0.950 . S
C1917 C1913 1.385 . S
C1917 C1916 1.374 . S
C1918 C1915 1.499 . S
C1918 C1919 1.373 . S
C1918 C1920 1.389 . S
C1919 H1898 0.950 . S
C1919 C1918 1.373 . S
C1919 C1935 1.377 . S
C1920 C1918 1.389 . S
C1920 C1921 1.524 . S
C1920 C1934 1.377 . S
C1921 C1920 1.524 . S
C1921 C1922 1.397 . S
C1921 C1926 1.363 . S
C1922 H1899 0.950 . S
C1922 C1921 1.397 . S
C1922 C1923 1.334 . S
C1923 H1900 0.950 . S
C1923 C1922 1.334 . S
C1923 C1924 1.287 . S
C1924 C1923 1.287 . S
C1924 C1925 1.524 . S
C1924 H1943 0.913 . S
C1925 H1901 0.950 . S
C1925 C1924 1.524 . S
C1925 C1926 1.415 . S
C1926 H1902 0.950 . S
C1926 C1921 1.363 . S
C1926 C1925 1.415 . S
C1927 H1903 0.951 . S
C1927 C1928 1.366 . S
C1927 C1929 1.388 . S
C1928 C1927 1.366 . S
C1928 C1932 1.385 . S
C1929 H1904 0.951 . S
C1929 C1927 1.388 . S
C1929 C1930 1.366 . S
C1930 C1929 1.366 . S
C1930 C1931 1.414 . S
C1930 C1933 1.499 . S
C1931 H1905 0.950 . S
C1931 C1930 1.414 . S
C1931 C1932 1.374 . S
C1932 H1906 0.950 . S
C1932 C1928 1.385 . S
C1932 C1931 1.374 . S
C1933 C1930 1.499 . S
C1933 C1934 1.373 . S
C1933 C1935 1.389 . S
C1934 H1907 0.950 . S
C1934 C1920 1.377 . S
C1934 C1933 1.373 . S
C1935 C1919 1.377 . S
C1935 C1933 1.389 . S
C1935 C1936 1.524 . S
C1936 C1935 1.524 . S
C1936 C1937 1.397 . S
C1936 C1941 1.363 . S
C1937 H1908 0.950 . S
C1937 C1936 1.397 . S
C1937 C1938 1.334 . S
C1938 H1909 0.950 . S
C1938 C1937 1.334 . S
C1938 C1939 1.287 . S
C1939 C1938 1.287 . S
C1939 C1940 1.524 . S
C1939 H1942 0.999 . S
C1940 H1910 0.950 . S
C1940 C1939 1.524 . S
C1940 C1941 1.415 . S
C1941 H1911 0.950 . S
C1941 C1936 1.363 . S
C1941 C1940 1.415 . S
H1942 C1939 0.999 . S
H1943 C1924 0.913 . S
H1944 C1962 0.951 . S
H1945 C1964 0.951 . S
H1946 C1966 0.950 . S
H1947 C1967 0.950 . S
H1948 C1969 0.950 . S
H1949 C1972 0.950 . S
H1950 C1973 0.950 . S
H1951 C1975 0.950 . S
H1952 C1976 0.950 . S
H1953 C1977 0.951 . S
H1954 C1979 0.951 . S
H1955 C1981 0.950 . S
H1956 C1982 0.950 . S
H1957 C1984 0.950 . S
H1958 C1987 0.950 . S
H1959 C1988 0.950 . S
H1960 C1990 0.950 . S
H1961 C1991 0.950 . S
C1962 H1944 0.951 . S
C1962 C1963 1.366 . S
C1962 C1964 1.388 . S
C1963 C1962 1.366 . S
C1963 C1967 1.385 . S
C1964 H1945 0.951 . S
C1964 C1962 1.388 . S
C1964 C1965 1.366 . S
C1965 C1964 1.366 . S
C1965 C1966 1.414 . S
C1965 C1968 1.499 . S
C1966 H1946 0.950 . S
C1966 C1965 1.414 . S
C1966 C1967 1.374 . S
C1967 H1947 0.950 . S
C1967 C1963 1.385 . S
C1967 C1966 1.374 . S
C1968 C1965 1.499 . S
C1968 C1969 1.373 . S
C1968 C1970 1.389 . S
C1969 H1948 0.950 . S
C1969 C1968 1.373 . S
C1969 C1985 1.377 . S
C1970 C1968 1.389 . S
C1970 C1971 1.524 . S
C1970 C1984 1.377 . S
C1971 C1970 1.524 . S
C1971 C1972 1.397 . S
C1971 C1976 1.363 . S
C1972 H1949 0.950 . S
C1972 C1971 1.397 . S
C1972 C1973 1.334 . S
C1973 H1950 0.950 . S
C1973 C1972 1.334 . S
C1973 C1974 1.287 . S
C1974 C1973 1.287 . S
C1974 C1975 1.524 . S
C1974 H1993 0.913 . S
C1975 H1951 0.950 . S
C1975 C1974 1.524 . S
C1975 C1976 1.415 . S
C1976 H1952 0.950 . S
C1976 C1971 1.363 . S
C1976 C1975 1.415 . S
C1977 H1953 0.951 . S
C1977 C1978 1.366 . S
C1977 C1979 1.388 . S
C1978 C1977 1.366 . S
C1978 C1982 1.385 . S
C1979 H1954 0.951 . S
C1979 C1977 1.388 . S
C1979 C1980 1.366 . S
C1980 C1979 1.366 . S
C1980 C1981 1.414 . S
C1980 C1983 1.499 . S
C1981 H1955 0.950 . S
C1981 C1980 1.414 . S
C1981 C1982 1.374 . S
C1982 H1956 0.950 . S
C1982 C1978 1.385 . S
C1982 C1981 1.374 . S
C1983 C1980 1.499 . S
C1983 C1984 1.373 . S
C1983 C1985 1.389 . S
C1984 H1957 0.950 . S
C1984 C1970 1.377 . S
C1984 C1983 1.373 . S
C1985 C1969 1.377 . S
C1985 C1983 1.389 . S
C1985 C1986 1.524 . S
C1986 C1985 1.524 . S
C1986 C1987 1.397 . S
C1986 C1991 1.363 . S
C1987 H1958 0.950 . S
C1987 C1986 1.397 . S
C1987 C1988 1.334 . S
C1988 H1959 0.950 . S
C1988 C1987 1.334 . S
C1988 C1989 1.287 . S
C1989 C1988 1.287 . S
C1989 C1990 1.524 . S
C1989 H1992 0.999 . S
C1990 H1960 0.950 . S
C1990 C1989 1.524 . S
C1990 C1991 1.415 . S
C1991 H1961 0.950 . S
C1991 C1986 1.363 . S
C1991 C1990 1.415 . S
H1992 C1989 0.999 . S
H1993 C1974 0.913 . S
H1994 C2012 0.951 . S
H1995 C2014 0.951 . S
H1996 C2016 0.950 . S
H1997 C2017 0.950 . S
H1998 C2019 0.950 . S
H1999 C2022 0.950 . S
H2000 C2023 0.950 . S
H2001 C2025 0.950 1_565 S
H2002 C2026 0.950 . S
H2003 C2027 0.951 . S
H2004 C2029 0.951 . S
H2005 C2031 0.950 . S
H2006 C2032 0.950 . S
H2007 C2034 0.950 . S
H2008 C2037 0.950 . S
H2009 C2038 0.950 . S
H2010 C2040 0.950 . S
H2011 C2041 0.950 . S
C2012 H1994 0.951 . S
C2012 C2013 1.366 . S
C2012 C2014 1.388 . S
C2013 C2012 1.366 . S
C2013 C2017 1.385 . S
C2014 H1995 0.951 . S
C2014 C2012 1.388 . S
C2014 C2015 1.366 . S
C2015 C2014 1.366 . S
C2015 C2016 1.414 . S
C2015 C2018 1.499 . S
C2016 H1996 0.950 . S
C2016 C2015 1.414 . S
C2016 C2017 1.374 . S
C2017 H1997 0.950 . S
C2017 C2013 1.385 . S
C2017 C2016 1.374 . S
C2018 C2015 1.499 . S
C2018 C2019 1.373 . S
C2018 C2020 1.389 . S
C2019 H1998 0.950 . S
C2019 C2018 1.373 . S
C2019 C2035 1.377 . S
C2020 C2018 1.389 . S
C2020 C2021 1.524 . S
C2020 C2034 1.377 . S
C2021 C2020 1.524 . S
C2021 C2022 1.397 . S
C2021 C2026 1.363 . S
C2022 H1999 0.950 . S
C2022 C2021 1.397 . S
C2022 C2023 1.334 . S
C2023 H2000 0.950 . S
C2023 C2022 1.334 . S
C2023 C2024 1.287 . S
C2024 C2023 1.287 . S
C2024 C2025 1.524 . S
C2024 H2043 0.913 1_545 S
C2025 H2001 0.950 1_545 S
C2025 C2024 1.524 . S
C2025 C2026 1.415 . S
C2026 H2002 0.950 . S
C2026 C2021 1.363 . S
C2026 C2025 1.415 . S
C2027 H2003 0.951 . S
C2027 C2028 1.366 . S
C2027 C2029 1.388 . S
C2028 C2027 1.366 . S
C2028 C2032 1.385 . S
C2029 H2004 0.951 . S
C2029 C2027 1.388 . S
C2029 C2030 1.366 . S
C2030 C2029 1.366 . S
C2030 C2031 1.414 . S
C2030 C2033 1.499 . S
C2031 H2005 0.950 . S
C2031 C2030 1.414 . S
C2031 C2032 1.374 . S
C2032 H2006 0.950 . S
C2032 C2028 1.385 . S
C2032 C2031 1.374 . S
C2033 C2030 1.499 . S
C2033 C2034 1.373 . S
C2033 C2035 1.389 . S
C2034 H2007 0.950 . S
C2034 C2020 1.377 . S
C2034 C2033 1.373 . S
C2035 C2019 1.377 . S
C2035 C2033 1.389 . S
C2035 C2036 1.524 . S
C2036 C2035 1.524 . S
C2036 C2037 1.397 . S
C2036 C2041 1.363 . S
C2037 H2008 0.950 . S
C2037 C2036 1.397 . S
C2037 C2038 1.334 . S
C2038 H2009 0.950 . S
C2038 C2037 1.334 . S
C2038 C2039 1.287 . S
C2039 C2038 1.287 . S
C2039 C2040 1.524 . S
C2039 H2042 0.999 . S
C2040 H2010 0.950 . S
C2040 C2039 1.524 . S
C2040 C2041 1.415 . S
C2041 H2011 0.950 . S
C2041 C2036 1.363 . S
C2041 C2040 1.415 . S
H2042 C2039 0.999 . S
H2043 C2024 0.913 1_565 S
H2044 C2062 0.951 . S
H2045 C2064 0.951 . S
H2046 C2066 0.950 . S
H2047 C2067 0.950 . S
H2048 C2069 0.950 . S
H2049 C2072 0.950 . S
H2050 C2073 0.950 . S
H2051 C2075 0.950 . S
H2052 C2076 0.950 . S
H2053 C2077 0.951 . S
H2054 C2079 0.951 . S
H2055 C2081 0.950 . S
H2056 C2082 0.950 . S
H2057 C2084 0.950 . S
H2058 C2087 0.950 . S
H2059 C2088 0.950 . S
H2060 C2090 0.950 . S
H2061 C2091 0.950 . S
C2062 H2044 0.951 . S
C2062 C2063 1.366 . S
C2062 C2064 1.388 . S
C2063 C2062 1.366 . S
C2063 C2067 1.385 . S
C2064 H2045 0.951 . S
C2064 C2062 1.388 . S
C2064 C2065 1.366 . S
C2065 C2064 1.366 . S
C2065 C2066 1.414 . S
C2065 C2068 1.499 . S
C2066 H2046 0.950 . S
C2066 C2065 1.414 . S
C2066 C2067 1.374 . S
C2067 H2047 0.950 . S
C2067 C2063 1.385 . S
C2067 C2066 1.374 . S
C2068 C2065 1.499 . S
C2068 C2069 1.373 . S
C2068 C2070 1.389 . S
C2069 H2048 0.950 . S
C2069 C2068 1.373 . S
C2069 C2085 1.377 . S
C2070 C2068 1.389 . S
C2070 C2071 1.524 . S
C2070 C2084 1.377 . S
C2071 C2070 1.524 . S
C2071 C2072 1.397 . S
C2071 C2076 1.363 . S
C2072 H2049 0.950 . S
C2072 C2071 1.397 . S
C2072 C2073 1.334 . S
C2073 H2050 0.950 . S
C2073 C2072 1.334 . S
C2073 C2074 1.287 . S
C2074 C2073 1.287 . S
C2074 C2075 1.524 . S
C2074 H2093 0.913 . S
C2075 H2051 0.950 . S
C2075 C2074 1.524 . S
C2075 C2076 1.415 . S
C2076 H2052 0.950 . S
C2076 C2071 1.363 . S
C2076 C2075 1.415 . S
C2077 H2053 0.951 . S
C2077 C2078 1.366 . S
C2077 C2079 1.388 . S
C2078 C2077 1.366 . S
C2078 C2082 1.385 . S
C2079 H2054 0.951 . S
C2079 C2077 1.388 . S
C2079 C2080 1.366 . S
C2080 C2079 1.366 . S
C2080 C2081 1.414 . S
C2080 C2083 1.499 . S
C2081 H2055 0.950 . S
C2081 C2080 1.414 . S
C2081 C2082 1.374 . S
C2082 H2056 0.950 . S
C2082 C2078 1.385 . S
C2082 C2081 1.374 . S
C2083 C2080 1.499 . S
C2083 C2084 1.373 . S
C2083 C2085 1.389 . S
C2084 H2057 0.950 . S
C2084 C2070 1.377 . S
C2084 C2083 1.373 . S
C2085 C2069 1.377 . S
C2085 C2083 1.389 . S
C2085 C2086 1.524 . S
C2086 C2085 1.524 . S
C2086 C2087 1.397 . S
C2086 C2091 1.363 . S
C2087 H2058 0.950 . S
C2087 C2086 1.397 . S
C2087 C2088 1.334 . S
C2088 H2059 0.950 . S
C2088 C2087 1.334 . S
C2088 C2089 1.287 . S
C2089 C2088 1.287 . S
C2089 C2090 1.524 . S
C2089 H2092 0.999 . S
C2090 H2060 0.950 . S
C2090 C2089 1.524 . S
C2090 C2091 1.415 . S
C2091 H2061 0.950 . S
C2091 C2086 1.363 . S
C2091 C2090 1.415 . S
H2092 C2089 0.999 . S
H2093 C2074 0.913 . S
H2094 C2112 0.951 . S
H2095 C2114 0.951 . S
H2096 C2116 0.950 . S
H2097 C2117 0.950 . S
H2098 C2119 0.950 . S
H2099 C2122 0.950 . S
H2100 C2123 0.950 . S
H2101 C2125 0.950 . S
H2102 C2126 0.950 . S
H2103 C2127 0.951 . S
H2104 C2129 0.951 . S
H2105 C2131 0.950 . S
H2106 C2132 0.950 . S
H2107 C2134 0.950 . S
H2108 C2137 0.950 . S
H2109 C2138 0.950 . S
H2110 C2140 0.950 . S
H2111 C2141 0.950 . S
C2112 H2094 0.951 . S
C2112 C2113 1.366 . S
C2112 C2114 1.388 . S
C2113 C2112 1.366 . S
C2113 C2117 1.385 . S
C2114 H2095 0.951 . S
C2114 C2112 1.388 . S
C2114 C2115 1.366 . S
C2115 C2114 1.366 . S
C2115 C2116 1.414 . S
C2115 C2118 1.499 . S
C2116 H2096 0.950 . S
C2116 C2115 1.414 . S
C2116 C2117 1.374 . S
C2117 H2097 0.950 . S
C2117 C2113 1.385 . S
C2117 C2116 1.374 . S
C2118 C2115 1.499 . S
C2118 C2119 1.373 . S
C2118 C2120 1.389 . S
C2119 H2098 0.950 . S
C2119 C2118 1.373 . S
C2119 C2135 1.377 . S
C2120 C2118 1.389 . S
C2120 C2121 1.524 . S
C2120 C2134 1.377 . S
C2121 C2120 1.524 . S
C2121 C2122 1.397 . S
C2121 C2126 1.363 . S
C2122 H2099 0.950 . S
C2122 C2121 1.397 . S
C2122 C2123 1.334 . S
C2123 H2100 0.950 . S
C2123 C2122 1.334 . S
C2123 C2124 1.287 . S
C2124 C2123 1.287 . S
C2124 C2125 1.524 . S
C2124 H2143 0.913 . S
C2125 H2101 0.950 . S
C2125 C2124 1.524 . S
C2125 C2126 1.415 . S
C2126 H2102 0.950 . S
C2126 C2121 1.363 . S
C2126 C2125 1.415 . S
C2127 H2103 0.951 . S
C2127 C2128 1.366 . S
C2127 C2129 1.388 . S
C2128 C2127 1.366 . S
C2128 C2132 1.385 . S
C2129 H2104 0.951 . S
C2129 C2127 1.388 . S
C2129 C2130 1.366 . S
C2130 C2129 1.366 . S
C2130 C2131 1.414 . S
C2130 C2133 1.499 . S
C2131 H2105 0.950 . S
C2131 C2130 1.414 . S
C2131 C2132 1.374 . S
C2132 H2106 0.950 . S
C2132 C2128 1.385 . S
C2132 C2131 1.374 . S
C2133 C2130 1.499 . S
C2133 C2134 1.373 . S
C2133 C2135 1.389 . S
C2134 H2107 0.950 . S
C2134 C2120 1.377 . S
C2134 C2133 1.373 . S
C2135 C2119 1.377 . S
C2135 C2133 1.389 . S
C2135 C2136 1.524 . S
C2136 C2135 1.524 . S
C2136 C2137 1.397 . S
C2136 C2141 1.363 . S
C2137 H2108 0.950 . S
C2137 C2136 1.397 . S
C2137 C2138 1.334 . S
C2138 H2109 0.950 . S
C2138 C2137 1.334 . S
C2138 C2139 1.287 . S
C2139 C2138 1.287 . S
C2139 C2140 1.524 . S
C2139 H2142 0.999 . S
C2140 H2110 0.950 . S
C2140 C2139 1.524 . S
C2140 C2141 1.415 . S
C2141 H2111 0.950 . S
C2141 C2136 1.363 . S
C2141 C2140 1.415 . S
H2142 C2139 0.999 . S
H2143 C2124 0.913 . S
H2144 C2162 0.951 . S
H2145 C2164 0.951 . S
H2146 C2166 0.950 . S
H2147 C2167 0.950 . S
H2148 C2169 0.950 . S
H2149 C2172 0.950 . S
H2150 C2173 0.950 . S
H2151 C2175 0.950 . S
H2152 C2176 0.950 . S
H2153 C2177 0.951 . S
H2154 C2179 0.951 . S
H2155 C2181 0.950 . S
H2156 C2182 0.950 . S
H2157 C2184 0.950 . S
H2158 C2187 0.950 . S
H2159 C2188 0.950 . S
H2160 C2190 0.950 . S
H2161 C2191 0.950 . S
C2162 H2144 0.951 . S
C2162 C2163 1.366 . S
C2162 C2164 1.388 . S
C2163 C2162 1.366 . S
C2163 C2167 1.385 . S
C2164 H2145 0.951 . S
C2164 C2162 1.388 . S
C2164 C2165 1.366 . S
C2165 C2164 1.366 . S
C2165 C2166 1.414 . S
C2165 C2168 1.499 . S
C2166 H2146 0.950 . S
C2166 C2165 1.414 . S
C2166 C2167 1.374 . S
C2167 H2147 0.950 . S
C2167 C2163 1.385 . S
C2167 C2166 1.374 . S
C2168 C2165 1.499 . S
C2168 C2169 1.373 . S
C2168 C2170 1.389 . S
C2169 H2148 0.950 . S
C2169 C2168 1.373 . S
C2169 C2185 1.377 . S
C2170 C2168 1.389 . S
C2170 C2171 1.524 . S
C2170 C2184 1.377 . S
C2171 C2170 1.524 . S
C2171 C2172 1.397 . S
C2171 C2176 1.363 . S
C2172 H2149 0.950 . S
C2172 C2171 1.397 . S
C2172 C2173 1.334 . S
C2173 H2150 0.950 . S
C2173 C2172 1.334 . S
C2173 C2174 1.287 . S
C2174 C2173 1.287 . S
C2174 C2175 1.524 . S
C2174 H2193 0.913 . S
C2175 H2151 0.950 . S
C2175 C2174 1.524 . S
C2175 C2176 1.415 . S
C2176 H2152 0.950 . S
C2176 C2171 1.363 . S
C2176 C2175 1.415 . S
C2177 H2153 0.951 . S
C2177 C2178 1.366 . S
C2177 C2179 1.388 . S
C2178 C2177 1.366 . S
C2178 C2182 1.385 . S
C2179 H2154 0.951 . S
C2179 C2177 1.388 . S
C2179 C2180 1.366 . S
C2180 C2179 1.366 . S
C2180 C2181 1.414 . S
C2180 C2183 1.499 . S
C2181 H2155 0.950 . S
C2181 C2180 1.414 . S
C2181 C2182 1.374 . S
C2182 H2156 0.950 . S
C2182 C2178 1.385 . S
C2182 C2181 1.374 . S
C2183 C2180 1.499 . S
C2183 C2184 1.373 . S
C2183 C2185 1.389 . S
C2184 H2157 0.950 . S
C2184 C2170 1.377 . S
C2184 C2183 1.373 . S
C2185 C2169 1.377 . S
C2185 C2183 1.389 . S
C2185 C2186 1.524 . S
C2186 C2185 1.524 . S
C2186 C2187 1.397 . S
C2186 C2191 1.363 . S
C2187 H2158 0.950 . S
C2187 C2186 1.397 . S
C2187 C2188 1.334 . S
C2188 H2159 0.950 . S
C2188 C2187 1.334 . S
C2188 C2189 1.287 . S
C2189 C2188 1.287 . S
C2189 C2190 1.524 . S
C2189 H2192 0.999 . S
C2190 H2160 0.950 . S
C2190 C2189 1.524 . S
C2190 C2191 1.415 . S
C2191 H2161 0.950 . S
C2191 C2186 1.363 . S
C2191 C2190 1.415 . S
H2192 C2189 0.999 . S
H2193 C2174 0.913 . S
H2194 C2212 0.951 . S
H2195 C2214 0.951 . S
H2196 C2216 0.950 . S
H2197 C2217 0.950 . S
H2198 C2219 0.950 1_455 S
H2199 C2222 0.950 . S
H2200 C2223 0.950 . S
H2201 C2225 0.950 . S
H2202 C2226 0.950 . S
H2203 C2227 0.951 . S
H2204 C2229 0.951 . S
H2205 C2231 0.950 . S
H2206 C2232 0.950 . S
H2207 C2234 0.950 . S
H2208 C2237 0.950 . S
H2209 C2238 0.950 . S
H2210 C2240 0.950 . S
H2211 C2241 0.950 1_455 S
C2212 H2194 0.951 . S
C2212 C2213 1.366 . S
C2212 C2214 1.388 . S
C2213 C2212 1.366 . S
C2213 C2217 1.385 . S
C2214 H2195 0.951 . S
C2214 C2212 1.388 . S
C2214 C2215 1.366 . S
C2215 C2214 1.366 . S
C2215 C2216 1.414 . S
C2215 C2218 1.499 . S
C2216 H2196 0.950 . S
C2216 C2215 1.414 . S
C2216 C2217 1.374 . S
C2217 H2197 0.950 . S
C2217 C2213 1.385 . S
C2217 C2216 1.374 . S
C2218 C2215 1.499 . S
C2218 C2219 1.373 1_455 S
C2218 C2220 1.389 1_455 S
C2219 H2198 0.950 1_655 S
C2219 C2218 1.373 1_655 S
C2219 C2235 1.377 . S
C2220 C2218 1.389 1_655 S
C2220 C2221 1.524 . S
C2220 C2234 1.377 . S
C2221 C2220 1.524 . S
C2221 C2222 1.397 1_655 S
C2221 C2226 1.363 . S
C2222 H2199 0.950 . S
C2222 C2221 1.397 1_455 S
C2222 C2223 1.334 . S
C2223 H2200 0.950 . S
C2223 C2222 1.334 . S
C2223 C2224 1.287 . S
C2224 C2223 1.287 . S
C2224 C2225 1.524 1_455 S
C2224 H2243 0.913 . S
C2225 H2201 0.950 . S
C2225 C2224 1.524 1_655 S
C2225 C2226 1.415 . S
C2226 H2202 0.950 . S
C2226 C2221 1.363 . S
C2226 C2225 1.415 . S
C2227 H2203 0.951 . S
C2227 C2228 1.366 . S
C2227 C2229 1.388 . S
C2228 C2227 1.366 . S
C2228 C2232 1.385 . S
C2229 H2204 0.951 . S
C2229 C2227 1.388 . S
C2229 C2230 1.366 . S
C2230 C2229 1.366 . S
C2230 C2231 1.414 . S
C2230 C2233 1.499 . S
C2231 H2205 0.950 . S
C2231 C2230 1.414 . S
C2231 C2232 1.374 . S
C2232 H2206 0.950 . S
C2232 C2228 1.385 . S
C2232 C2231 1.374 . S
C2233 C2230 1.499 . S
C2233 C2234 1.373 . S
C2233 C2235 1.389 . S
C2234 H2207 0.950 . S
C2234 C2220 1.377 . S
C2234 C2233 1.373 . S
C2235 C2219 1.377 . S
C2235 C2233 1.389 . S
C2235 C2236 1.524 . S
C2236 C2235 1.524 . S
C2236 C2237 1.397 . S
C2236 C2241 1.363 . S
C2237 H2208 0.950 . S
C2237 C2236 1.397 . S
C2237 C2238 1.334 . S
C2238 H2209 0.950 . S
C2238 C2237 1.334 . S
C2238 C2239 1.287 . S
C2239 C2238 1.287 . S
C2239 C2240 1.524 . S
C2239 H2242 0.999 . S
C2240 H2210 0.950 . S
C2240 C2239 1.524 . S
C2240 C2241 1.415 . S
C2241 H2211 0.950 1_655 S
C2241 C2236 1.363 . S
C2241 C2240 1.415 . S
H2242 C2239 0.999 . S
H2243 C2224 0.913 . S
H2244 C2262 0.951 . S
H2245 C2264 0.951 . S
H2246 C2266 0.950 . S
H2247 C2267 0.950 . S
H2248 C2269 0.950 . S
H2249 C2272 0.950 . S
H2250 C2273 0.950 . S
H2251 C2275 0.950 . S
H2252 C2276 0.950 . S
H2253 C2277 0.951 . S
H2254 C2279 0.951 . S
H2255 C2281 0.950 . S
H2256 C2282 0.950 . S
H2257 C2284 0.950 . S
H2258 C2287 0.950 . S
H2259 C2288 0.950 . S
H2260 C2290 0.950 . S
H2261 C2291 0.950 . S
C2262 H2244 0.951 . S
C2262 C2263 1.366 . S
C2262 C2264 1.388 . S
C2263 C2262 1.366 . S
C2263 C2267 1.385 . S
C2264 H2245 0.951 . S
C2264 C2262 1.388 . S
C2264 C2265 1.366 . S
C2265 C2264 1.366 . S
C2265 C2266 1.414 . S
C2265 C2268 1.499 . S
C2266 H2246 0.950 . S
C2266 C2265 1.414 . S
C2266 C2267 1.374 . S
C2267 H2247 0.950 . S
C2267 C2263 1.385 . S
C2267 C2266 1.374 . S
C2268 C2265 1.499 . S
C2268 C2269 1.373 . S
C2268 C2270 1.389 . S
C2269 H2248 0.950 . S
C2269 C2268 1.373 . S
C2269 C2285 1.377 . S
C2270 C2268 1.389 . S
C2270 C2271 1.524 . S
C2270 C2284 1.377 . S
C2271 C2270 1.524 . S
C2271 C2272 1.397 . S
C2271 C2276 1.363 . S
C2272 H2249 0.950 . S
C2272 C2271 1.397 . S
C2272 C2273 1.334 . S
C2273 H2250 0.950 . S
C2273 C2272 1.334 . S
C2273 C2274 1.287 . S
C2274 C2273 1.287 . S
C2274 C2275 1.524 . S
C2274 H2293 0.913 . S
C2275 H2251 0.950 . S
C2275 C2274 1.524 . S
C2275 C2276 1.415 . S
C2276 H2252 0.950 . S
C2276 C2271 1.363 . S
C2276 C2275 1.415 . S
C2277 H2253 0.951 . S
C2277 C2278 1.366 . S
C2277 C2279 1.388 . S
C2278 C2277 1.366 . S
C2278 C2282 1.385 . S
C2279 H2254 0.951 . S
C2279 C2277 1.388 . S
C2279 C2280 1.366 . S
C2280 C2279 1.366 . S
C2280 C2281 1.414 . S
C2280 C2283 1.499 . S
C2281 H2255 0.950 . S
C2281 C2280 1.414 . S
C2281 C2282 1.374 . S
C2282 H2256 0.950 . S
C2282 C2278 1.385 . S
C2282 C2281 1.374 . S
C2283 C2280 1.499 . S
C2283 C2284 1.373 . S
C2283 C2285 1.389 . S
C2284 H2257 0.950 . S
C2284 C2270 1.377 . S
C2284 C2283 1.373 . S
C2285 C2269 1.377 . S
C2285 C2283 1.389 . S
C2285 C2286 1.524 . S
C2286 C2285 1.524 . S
C2286 C2287 1.397 . S
C2286 C2291 1.363 . S
C2287 H2258 0.950 . S
C2287 C2286 1.397 . S
C2287 C2288 1.334 . S
C2288 H2259 0.950 . S
C2288 C2287 1.334 . S
C2288 C2289 1.287 . S
C2289 C2288 1.287 . S
C2289 C2290 1.524 . S
C2289 H2292 0.999 . S
C2290 H2260 0.950 . S
C2290 C2289 1.524 . S
C2290 C2291 1.415 . S
C2291 H2261 0.950 . S
C2291 C2286 1.363 . S
C2291 C2290 1.415 . S
H2292 C2289 0.999 . S
H2293 C2274 0.913 . S
H2294 C2312 0.951 . S
H2295 C2314 0.951 . S
H2296 C2316 0.950 . S
H2297 C2317 0.950 . S
H2298 C2319 0.950 . S
H2299 C2322 0.950 . S
H2300 C2323 0.950 . S
H2301 C2325 0.950 . S
H2302 C2326 0.950 . S
H2303 C2327 0.951 . S
H2304 C2329 0.951 . S
H2305 C2331 0.950 . S
H2306 C2332 0.950 . S
H2307 C2334 0.950 . S
H2308 C2337 0.950 . S
H2309 C2338 0.950 . S
H2310 C2340 0.950 . S
H2311 C2341 0.950 . S
C2312 H2294 0.951 . S
C2312 C2313 1.366 . S
C2312 C2314 1.388 . S
C2313 C2312 1.366 . S
C2313 C2317 1.385 . S
C2314 H2295 0.951 . S
C2314 C2312 1.388 . S
C2314 C2315 1.366 . S
C2315 C2314 1.366 . S
C2315 C2316 1.414 . S
C2315 C2318 1.499 . S
C2316 H2296 0.950 . S
C2316 C2315 1.414 . S
C2316 C2317 1.374 . S
C2317 H2297 0.950 . S
C2317 C2313 1.385 . S
C2317 C2316 1.374 . S
C2318 C2315 1.499 . S
C2318 C2319 1.373 1_655 S
C2318 C2320 1.389 . S
C2319 H2298 0.950 . S
C2319 C2318 1.373 1_455 S
C2319 C2335 1.377 . S
C2320 C2318 1.389 . S
C2320 C2321 1.524 . S
C2320 C2334 1.377 1_655 S
C2321 C2320 1.524 . S
C2321 C2322 1.397 . S
C2321 C2326 1.363 . S
C2322 H2299 0.950 . S
C2322 C2321 1.397 . S
C2322 C2323 1.334 . S
C2323 H2300 0.950 . S
C2323 C2322 1.334 . S
C2323 C2324 1.287 . S
C2324 C2323 1.287 . S
C2324 C2325 1.524 . S
C2324 H2343 0.913 . S
C2325 H2301 0.950 . S
C2325 C2324 1.524 . S
C2325 C2326 1.415 . S
C2326 H2302 0.950 . S
C2326 C2321 1.363 . S
C2326 C2325 1.415 . S
C2327 H2303 0.951 . S
C2327 C2328 1.366 . S
C2327 C2329 1.388 . S
C2328 C2327 1.366 . S
C2328 C2332 1.385 . S
C2329 H2304 0.951 . S
C2329 C2327 1.388 . S
C2329 C2330 1.366 . S
C2330 C2329 1.366 . S
C2330 C2331 1.414 . S
C2330 C2333 1.499 . S
C2331 H2305 0.950 . S
C2331 C2330 1.414 . S
C2331 C2332 1.374 . S
C2332 H2306 0.950 . S
C2332 C2328 1.385 . S
C2332 C2331 1.374 . S
C2333 C2330 1.499 . S
C2333 C2334 1.373 . S
C2333 C2335 1.389 . S
C2334 H2307 0.950 . S
C2334 C2320 1.377 1_455 S
C2334 C2333 1.373 . S
C2335 C2319 1.377 . S
C2335 C2333 1.389 . S
C2335 C2336 1.524 . S
C2336 C2335 1.524 . S
C2336 C2337 1.397 . S
C2336 C2341 1.363 . S
C2337 H2308 0.950 . S
C2337 C2336 1.397 . S
C2337 C2338 1.334 . S
C2338 H2309 0.950 . S
C2338 C2337 1.334 . S
C2338 C2339 1.287 . S
C2339 C2338 1.287 . S
C2339 C2340 1.524 . S
C2339 H2342 0.999 . S
C2340 H2310 0.950 . S
C2340 C2339 1.524 . S
C2340 C2341 1.415 . S
C2341 H2311 0.950 . S
C2341 C2336 1.363 . S
C2341 C2340 1.415 . S
H2342 C2339 0.999 . S
H2343 C2324 0.913 . S
H2344 C2362 0.951 . S
H2345 C2364 0.951 . S
H2346 C2366 0.950 . S
H2347 C2367 0.950 . S
H2348 C2369 0.950 . S
H2349 C2372 0.950 . S
H2350 C2373 0.950 . S
H2351 C2375 0.950 . S
H2352 C2376 0.950 . S
H2353 C2377 0.951 . S
H2354 C2379 0.951 . S
H2355 C2381 0.950 . S
H2356 C2382 0.950 . S
H2357 C2384 0.950 . S
H2358 C2387 0.950 . S
H2359 C2388 0.950 . S
H2360 C2390 0.950 . S
H2361 C2391 0.950 . S
C2362 H2344 0.951 . S
C2362 C2363 1.366 . S
C2362 C2364 1.388 . S
C2363 C2362 1.366 . S
C2363 C2367 1.385 . S
C2364 H2345 0.951 . S
C2364 C2362 1.388 . S
C2364 C2365 1.366 . S
C2365 C2364 1.366 . S
C2365 C2366 1.414 . S
C2365 C2368 1.499 . S
C2366 H2346 0.950 . S
C2366 C2365 1.414 . S
C2366 C2367 1.374 . S
C2367 H2347 0.950 . S
C2367 C2363 1.385 . S
C2367 C2366 1.374 . S
C2368 C2365 1.499 . S
C2368 C2369 1.373 . S
C2368 C2370 1.389 . S
C2369 H2348 0.950 . S
C2369 C2368 1.373 . S
C2369 C2385 1.377 . S
C2370 C2368 1.389 . S
C2370 C2371 1.524 . S
C2370 C2384 1.377 . S
C2371 C2370 1.524 . S
C2371 C2372 1.397 . S
C2371 C2376 1.363 . S
C2372 H2349 0.950 . S
C2372 C2371 1.397 . S
C2372 C2373 1.334 . S
C2373 H2350 0.950 . S
C2373 C2372 1.334 . S
C2373 C2374 1.287 . S
C2374 C2373 1.287 . S
C2374 C2375 1.524 . S
C2374 H2393 0.913 . S
C2375 H2351 0.950 . S
C2375 C2374 1.524 . S
C2375 C2376 1.415 . S
C2376 H2352 0.950 . S
C2376 C2371 1.363 . S
C2376 C2375 1.415 . S
C2377 H2353 0.951 . S
C2377 C2378 1.366 . S
C2377 C2379 1.388 . S
C2378 C2377 1.366 . S
C2378 C2382 1.385 . S
C2379 H2354 0.951 . S
C2379 C2377 1.388 . S
C2379 C2380 1.366 . S
C2380 C2379 1.366 . S
C2380 C2381 1.414 . S
C2380 C2383 1.499 . S
C2381 H2355 0.950 . S
C2381 C2380 1.414 . S
C2381 C2382 1.374 . S
C2382 H2356 0.950 . S
C2382 C2378 1.385 . S
C2382 C2381 1.374 . S
C2383 C2380 1.499 . S
C2383 C2384 1.373 . S
C2383 C2385 1.389 . S
C2384 H2357 0.950 . S
C2384 C2370 1.377 . S
C2384 C2383 1.373 . S
C2385 C2369 1.377 . S
C2385 C2383 1.389 . S
C2385 C2386 1.524 . S
C2386 C2385 1.524 . S
C2386 C2387 1.397 . S
C2386 C2391 1.363 . S
C2387 H2358 0.950 . S
C2387 C2386 1.397 . S
C2387 C2388 1.334 . S
C2388 H2359 0.950 . S
C2388 C2387 1.334 . S
C2388 C2389 1.287 . S
C2389 C2388 1.287 . S
C2389 C2390 1.524 . S
C2389 H2392 0.999 . S
C2390 H2360 0.950 . S
C2390 C2389 1.524 . S
C2390 C2391 1.415 . S
C2391 H2361 0.950 . S
C2391 C2386 1.363 . S
C2391 C2390 1.415 . S
H2392 C2389 0.999 . S
H2393 C2374 0.913 . S
H2394 C2412 0.951 . S
H2395 C2414 0.951 . S
H2396 C2416 0.950 1_556 S
H2397 C2417 0.950 . S
H2398 C2419 0.950 . S
H2399 C2422 0.950 . S
H2400 C2423 0.950 . S
H2401 C2425 0.950 . S
H2402 C2426 0.950 . S
H2403 C2427 0.951 . S
H2404 C2429 0.951 . S
H2405 C2431 0.950 . S
H2406 C2432 0.950 . S
H2407 C2434 0.950 . S
H2408 C2437 0.950 . S
H2409 C2438 0.950 . S
H2410 C2440 0.950 . S
H2411 C2441 0.950 . S
C2412 H2394 0.951 . S
C2412 C2413 1.366 . S
C2412 C2414 1.388 . S
C2413 C2412 1.366 . S
C2413 C2417 1.385 . S
C2414 H2395 0.951 . S
C2414 C2412 1.388 . S
C2414 C2415 1.366 . S
C2415 C2414 1.366 . S
C2415 C2416 1.414 . S
C2415 C2418 1.499 1_554 S
C2416 H2396 0.950 1_554 S
C2416 C2415 1.414 . S
C2416 C2417 1.374 . S
C2417 H2397 0.950 . S
C2417 C2413 1.385 . S
C2417 C2416 1.374 . S
C2418 C2415 1.499 1_556 S
C2418 C2419 1.373 . S
C2418 C2420 1.389 . S
C2419 H2398 0.950 . S
C2419 C2418 1.373 . S
C2419 C2435 1.377 . S
C2420 C2418 1.389 . S
C2420 C2421 1.524 1_556 S
C2420 C2434 1.377 . S
C2421 C2420 1.524 1_554 S
C2421 C2422 1.397 . S
C2421 C2426 1.363 . S
C2422 H2399 0.950 . S
C2422 C2421 1.397 . S
C2422 C2423 1.334 . S
C2423 H2400 0.950 . S
C2423 C2422 1.334 . S
C2423 C2424 1.287 . S
C2424 C2423 1.287 . S
C2424 C2425 1.524 . S
C2424 H2443 0.913 . S
C2425 H2401 0.950 . S
C2425 C2424 1.524 . S
C2425 C2426 1.415 . S
C2426 H2402 0.950 . S
C2426 C2421 1.363 . S
C2426 C2425 1.415 . S
C2427 H2403 0.951 . S
C2427 C2428 1.366 . S
C2427 C2429 1.388 . S
C2428 C2427 1.366 . S
C2428 C2432 1.385 . S
C2429 H2404 0.951 . S
C2429 C2427 1.388 . S
C2429 C2430 1.366 . S
C2430 C2429 1.366 . S
C2430 C2431 1.414 . S
C2430 C2433 1.499 . S
C2431 H2405 0.950 . S
C2431 C2430 1.414 . S
C2431 C2432 1.374 . S
C2432 H2406 0.950 . S
C2432 C2428 1.385 . S
C2432 C2431 1.374 . S
C2433 C2430 1.499 . S
C2433 C2434 1.373 . S
C2433 C2435 1.389 . S
C2434 H2407 0.950 . S
C2434 C2420 1.377 . S
C2434 C2433 1.373 . S
C2435 C2419 1.377 . S
C2435 C2433 1.389 . S
C2435 C2436 1.524 . S
C2436 C2435 1.524 . S
C2436 C2437 1.397 . S
C2436 C2441 1.363 . S
C2437 H2408 0.950 . S
C2437 C2436 1.397 . S
C2437 C2438 1.334 . S
C2438 H2409 0.950 . S
C2438 C2437 1.334 . S
C2438 C2439 1.287 . S
C2439 C2438 1.287 . S
C2439 C2440 1.524 . S
C2439 H2442 0.999 . S
C2440 H2410 0.950 . S
C2440 C2439 1.524 . S
C2440 C2441 1.415 . S
C2441 H2411 0.950 . S
C2441 C2436 1.363 . S
C2441 C2440 1.415 . S
H2442 C2439 0.999 . S
H2443 C2424 0.913 . S
H2444 C2462 0.951 . S
H2445 C2464 0.951 . S
H2446 C2466 0.950 . S
H2447 C2467 0.950 . S
H2448 C2469 0.950 . S
H2449 C2472 0.950 . S
H2450 C2473 0.950 . S
H2451 C2475 0.950 . S
H2452 C2476 0.950 . S
H2453 C2477 0.951 . S
H2454 C2479 0.951 . S
H2455 C2481 0.950 . S
H2456 C2482 0.950 . S
H2457 C2484 0.950 . S
H2458 C2487 0.950 . S
H2459 C2488 0.950 . S
H2460 C2490 0.950 . S
H2461 C2491 0.950 . S
C2462 H2444 0.951 . S
C2462 C2463 1.366 . S
C2462 C2464 1.388 . S
C2463 C2462 1.366 . S
C2463 C2467 1.385 . S
C2464 H2445 0.951 . S
C2464 C2462 1.388 . S
C2464 C2465 1.366 . S
C2465 C2464 1.366 . S
C2465 C2466 1.414 . S
C2465 C2468 1.499 . S
C2466 H2446 0.950 . S
C2466 C2465 1.414 . S
C2466 C2467 1.374 . S
C2467 H2447 0.950 . S
C2467 C2463 1.385 . S
C2467 C2466 1.374 . S
C2468 C2465 1.499 . S
C2468 C2469 1.373 . S
C2468 C2470 1.389 . S
C2469 H2448 0.950 . S
C2469 C2468 1.373 . S
C2469 C2485 1.377 . S
C2470 C2468 1.389 . S
C2470 C2471 1.524 . S
C2470 C2484 1.377 . S
C2471 C2470 1.524 . S
C2471 C2472 1.397 . S
C2471 C2476 1.363 . S
C2472 H2449 0.950 . S
C2472 C2471 1.397 . S
C2472 C2473 1.334 . S
C2473 H2450 0.950 . S
C2473 C2472 1.334 . S
C2473 C2474 1.287 . S
C2474 C2473 1.287 . S
C2474 C2475 1.524 . S
C2474 H2493 0.913 . S
C2475 H2451 0.950 . S
C2475 C2474 1.524 . S
C2475 C2476 1.415 . S
C2476 H2452 0.950 . S
C2476 C2471 1.363 . S
C2476 C2475 1.415 . S
C2477 H2453 0.951 . S
C2477 C2478 1.366 . S
C2477 C2479 1.388 . S
C2478 C2477 1.366 . S
C2478 C2482 1.385 . S
C2479 H2454 0.951 . S
C2479 C2477 1.388 . S
C2479 C2480 1.366 . S
C2480 C2479 1.366 . S
C2480 C2481 1.414 . S
C2480 C2483 1.499 . S
C2481 H2455 0.950 . S
C2481 C2480 1.414 . S
C2481 C2482 1.374 . S
C2482 H2456 0.950 . S
C2482 C2478 1.385 . S
C2482 C2481 1.374 . S
C2483 C2480 1.499 . S
C2483 C2484 1.373 . S
C2483 C2485 1.389 . S
C2484 H2457 0.950 . S
C2484 C2470 1.377 . S
C2484 C2483 1.373 . S
C2485 C2469 1.377 . S
C2485 C2483 1.389 . S
C2485 C2486 1.524 . S
C2486 C2485 1.524 . S
C2486 C2487 1.397 . S
C2486 C2491 1.363 . S
C2487 H2458 0.950 . S
C2487 C2486 1.397 . S
C2487 C2488 1.334 . S
C2488 H2459 0.950 . S
C2488 C2487 1.334 . S
C2488 C2489 1.287 . S
C2489 C2488 1.287 . S
C2489 C2490 1.524 . S
C2489 H2492 0.999 . S
C2490 H2460 0.950 . S
C2490 C2489 1.524 . S
C2490 C2491 1.415 . S
C2491 H2461 0.950 . S
C2491 C2486 1.363 . S
C2491 C2490 1.415 . S
H2492 C2489 0.999 . S
H2493 C2474 0.913 . S
H2494 C2512 0.951 . S
H2495 C2514 0.951 . S
H2496 C2516 0.950 . S
H2497 C2517 0.950 . S
H2498 C2519 0.950 . S
H2499 C2522 0.950 . S
H2500 C2523 0.950 . S
H2501 C2525 0.950 . S
H2502 C2526 0.950 . S
H2503 C2527 0.951 . S
H2504 C2529 0.951 . S
H2505 C2531 0.950 . S
H2506 C2532 0.950 . S
H2507 C2534 0.950 . S
H2508 C2537 0.950 . S
H2509 C2538 0.950 . S
H2510 C2540 0.950 . S
H2511 C2541 0.950 . S
C2512 H2494 0.951 . S
C2512 C2513 1.366 . S
C2512 C2514 1.388 . S
C2513 C2512 1.366 . S
C2513 C2517 1.385 . S
C2514 H2495 0.951 . S
C2514 C2512 1.388 . S
C2514 C2515 1.366 . S
C2515 C2514 1.366 . S
C2515 C2516 1.414 . S
C2515 C2518 1.499 . S
C2516 H2496 0.950 . S
C2516 C2515 1.414 . S
C2516 C2517 1.374 . S
C2517 H2497 0.950 . S
C2517 C2513 1.385 . S
C2517 C2516 1.374 . S
C2518 C2515 1.499 . S
C2518 C2519 1.373 . S
C2518 C2520 1.389 . S
C2519 H2498 0.950 . S
C2519 C2518 1.373 . S
C2519 C2535 1.377 1_554 S
C2520 C2518 1.389 . S
C2520 C2521 1.524 . S
C2520 C2534 1.377 1_554 S
C2521 C2520 1.524 . S
C2521 C2522 1.397 . S
C2521 C2526 1.363 . S
C2522 H2499 0.950 . S
C2522 C2521 1.397 . S
C2522 C2523 1.334 . S
C2523 H2500 0.950 . S
C2523 C2522 1.334 . S
C2523 C2524 1.287 . S
C2524 C2523 1.287 . S
C2524 C2525 1.524 . S
C2524 H2543 0.913 . S
C2525 H2501 0.950 . S
C2525 C2524 1.524 . S
C2525 C2526 1.415 . S
C2526 H2502 0.950 . S
C2526 C2521 1.363 . S
C2526 C2525 1.415 . S
C2527 H2503 0.951 . S
C2527 C2528 1.366 . S
C2527 C2529 1.388 . S
C2528 C2527 1.366 . S
C2528 C2532 1.385 . S
C2529 H2504 0.951 . S
C2529 C2527 1.388 . S
C2529 C2530 1.366 . S
C2530 C2529 1.366 . S
C2530 C2531 1.414 . S
C2530 C2533 1.499 . S
C2531 H2505 0.950 . S
C2531 C2530 1.414 . S
C2531 C2532 1.374 . S
C2532 H2506 0.950 . S
C2532 C2528 1.385 . S
C2532 C2531 1.374 . S
C2533 C2530 1.499 . S
C2533 C2534 1.373 . S
C2533 C2535 1.389 . S
C2534 H2507 0.950 . S
C2534 C2520 1.377 1_556 S
C2534 C2533 1.373 . S
C2535 C2519 1.377 1_556 S
C2535 C2533 1.389 . S
C2535 C2536 1.524 . S
C2536 C2535 1.524 . S
C2536 C2537 1.397 . S
C2536 C2541 1.363 . S
C2537 H2508 0.950 . S
C2537 C2536 1.397 . S
C2537 C2538 1.334 . S
C2538 H2509 0.950 . S
C2538 C2537 1.334 . S
C2538 C2539 1.287 . S
C2539 C2538 1.287 . S
C2539 C2540 1.524 . S
C2539 H2542 0.999 . S
C2540 H2510 0.950 . S
C2540 C2539 1.524 . S
C2540 C2541 1.415 . S
C2541 H2511 0.950 . S
C2541 C2536 1.363 . S
C2541 C2540 1.415 . S
H2542 C2539 0.999 . S
H2543 C2524 0.913 . S
H2544 C2562 0.951 . S
H2545 C2564 0.951 . S
H2546 C2566 0.950 . S
H2547 C2567 0.950 . S
H2548 C2569 0.950 . S
H2549 C2572 0.950 . S
H2550 C2573 0.950 . S
H2551 C2575 0.950 . S
H2552 C2576 0.950 . S
H2553 C2577 0.951 . S
H2554 C2579 0.951 . S
H2555 C2581 0.950 . S
H2556 C2582 0.950 . S
H2557 C2584 0.950 . S
H2558 C2587 0.950 . S
H2559 C2588 0.950 . S
H2560 C2590 0.950 . S
H2561 C2591 0.950 . S
C2562 H2544 0.951 . S
C2562 C2563 1.366 . S
C2562 C2564 1.388 . S
C2563 C2562 1.366 . S
C2563 C2567 1.385 . S
C2564 H2545 0.951 . S
C2564 C2562 1.388 . S
C2564 C2565 1.366 . S
C2565 C2564 1.366 . S
C2565 C2566 1.414 . S
C2565 C2568 1.499 . S
C2566 H2546 0.950 . S
C2566 C2565 1.414 . S
C2566 C2567 1.374 . S
C2567 H2547 0.950 . S
C2567 C2563 1.385 . S
C2567 C2566 1.374 . S
C2568 C2565 1.499 . S
C2568 C2569 1.373 . S
C2568 C2570 1.389 . S
C2569 H2548 0.950 . S
C2569 C2568 1.373 . S
C2569 C2585 1.377 . S
C2570 C2568 1.389 . S
C2570 C2571 1.524 . S
C2570 C2584 1.377 . S
C2571 C2570 1.524 . S
C2571 C2572 1.397 . S
C2571 C2576 1.363 . S
C2572 H2549 0.950 . S
C2572 C2571 1.397 . S
C2572 C2573 1.334 . S
C2573 H2550 0.950 . S
C2573 C2572 1.334 . S
C2573 C2574 1.287 . S
C2574 C2573 1.287 . S
C2574 C2575 1.524 . S
C2574 H2593 0.913 . S
C2575 H2551 0.950 . S
C2575 C2574 1.524 . S
C2575 C2576 1.415 . S
C2576 H2552 0.950 . S
C2576 C2571 1.363 . S
C2576 C2575 1.415 . S
C2577 H2553 0.951 . S
C2577 C2578 1.366 . S
C2577 C2579 1.388 . S
C2578 C2577 1.366 . S
C2578 C2582 1.385 . S
C2579 H2554 0.951 . S
C2579 C2577 1.388 . S
C2579 C2580 1.366 . S
C2580 C2579 1.366 . S
C2580 C2581 1.414 . S
C2580 C2583 1.499 . S
C2581 H2555 0.950 . S
C2581 C2580 1.414 . S
C2581 C2582 1.374 . S
C2582 H2556 0.950 . S
C2582 C2578 1.385 . S
C2582 C2581 1.374 . S
C2583 C2580 1.499 . S
C2583 C2584 1.373 . S
C2583 C2585 1.389 . S
C2584 H2557 0.950 . S
C2584 C2570 1.377 . S
C2584 C2583 1.373 . S
C2585 C2569 1.377 . S
C2585 C2583 1.389 . S
C2585 C2586 1.524 . S
C2586 C2585 1.524 . S
C2586 C2587 1.397 . S
C2586 C2591 1.363 . S
C2587 H2558 0.950 . S
C2587 C2586 1.397 . S
C2587 C2588 1.334 . S
C2588 H2559 0.950 . S
C2588 C2587 1.334 . S
C2588 C2589 1.287 . S
C2589 C2588 1.287 . S
C2589 C2590 1.524 . S
C2589 H2592 0.999 . S
C2590 H2560 0.950 . S
C2590 C2589 1.524 . S
C2590 C2591 1.415 . S
C2591 H2561 0.950 . S
C2591 C2586 1.363 . S
C2591 C2590 1.415 . S
H2592 C2589 0.999 . S
H2593 C2574 0.913 . S
H2594 C2612 0.951 . S
H2595 C2614 0.951 1_554 S
H2596 C2616 0.950 . S
H2597 C2617 0.950 . S
H2598 C2619 0.950 1_556 S
H2599 C2622 0.950 . S
H2600 C2623 0.950 . S
H2601 C2625 0.950 . S
H2602 C2626 0.950 . S
H2603 C2627 0.951 . S
H2604 C2629 0.951 . S
H2605 C2631 0.950 . S
H2606 C2632 0.950 . S
H2607 C2634 0.950 . S
H2608 C2637 0.950 . S
H2609 C2638 0.950 . S
H2610 C2640 0.950 1_556 S
H2611 C2641 0.999 . S
C2612 H2594 0.951 . S
C2612 C2613 1.366 . S
C2612 C2614 1.388 . S
C2613 C2612 1.366 . S
C2613 C2617 1.385 . S
C2614 H2595 0.951 1_556 S
C2614 C2612 1.388 . S
C2614 C2615 1.366 . S
C2615 C2614 1.366 . S
C2615 C2616 1.414 . S
C2615 C2618 1.499 1_556 S
C2616 H2596 0.950 . S
C2616 C2615 1.414 . S
C2616 C2617 1.374 . S
C2617 H2597 0.950 . S
C2617 C2613 1.385 . S
C2617 C2616 1.374 . S
C2618 C2615 1.499 1_554 S
C2618 C2619 1.373 . S
C2618 C2620 1.389 . S
C2619 H2598 0.950 1_554 S
C2619 C2618 1.373 . S
C2619 C2635 1.377 . S
C2620 C2618 1.389 . S
C2620 C2621 1.524 . S
C2620 C2634 1.377 . S
C2621 C2620 1.524 . S
C2621 C2622 1.397 . S
C2621 C2626 1.363 . S
C2622 H2599 0.950 . S
C2622 C2621 1.397 . S
C2622 C2623 1.334 . S
C2623 H2600 0.950 . S
C2623 C2622 1.334 . S
C2623 C2624 1.287 . S
C2624 C2623 1.287 . S
C2624 C2625 1.524 . S
C2624 H2643 0.913 . S
C2625 H2601 0.950 . S
C2625 C2624 1.524 . S
C2625 C2626 1.415 . S
C2626 H2602 0.950 . S
C2626 C2621 1.363 . S
C2626 C2625 1.415 . S
C2627 H2603 0.951 . S
C2627 C2628 1.366 . S
C2627 C2629 1.388 . S
C2628 C2627 1.366 . S
C2628 C2632 1.385 . S
C2629 H2604 0.951 . S
C2629 C2627 1.388 . S
C2629 C2630 1.366 . S
C2630 C2629 1.366 . S
C2630 C2631 1.414 . S
C2630 C2633 1.499 . S
C2631 H2605 0.950 . S
C2631 C2630 1.414 . S
C2631 C2632 1.374 . S
C2632 H2606 0.950 . S
C2632 C2628 1.385 . S
C2632 C2631 1.374 . S
C2633 C2630 1.499 . S
C2633 C2634 1.373 . S
C2633 C2635 1.389 . S
C2634 H2607 0.950 . S
C2634 C2620 1.377 . S
C2634 C2633 1.373 . S
C2635 C2619 1.377 . S
C2635 C2633 1.389 . S
C2635 C2636 1.524 . S
C2636 C2635 1.524 . S
C2636 C2637 1.397 . S
C2636 C2641 1.363 . S
C2637 H2608 0.950 . S
C2637 C2636 1.397 . S
C2637 C2638 1.334 . S
C2638 H2609 0.950 . S
C2638 C2637 1.334 . S
C2638 C2639 1.287 . S
C2639 C2638 1.287 . S
C2639 C2640 1.524 . S
C2639 H2642 0.999 . S
C2640 H2610 0.950 1_554 S
C2640 C2639 1.524 . S
C2640 C2641 1.415 . S
C2641 H2611 0.999 . S
C2641 C2636 1.363 . S
C2641 C2640 1.415 . S
H2642 C2639 0.999 . S
H2643 C2624 0.913 . S
H2644 C2662 0.951 . S
H2645 C2664 0.951 . S
H2646 C2666 0.950 . S
H2647 C2667 0.950 . S
H2648 C2669 0.950 . S
H2649 C2672 0.950 . S
H2650 C2673 0.950 . S
H2651 C2675 0.950 . S
H2652 C2676 0.950 . S
H2653 C2677 0.951 . S
H2654 C2679 0.951 . S
H2655 C2681 0.950 . S
H2656 C2682 0.950 . S
H2657 C2684 0.950 . S
H2658 C2687 0.950 . S
H2659 C2688 0.950 . S
H2660 C2690 0.950 . S
H2661 C2691 0.950 . S
C2662 H2644 0.951 . S
C2662 C2663 1.366 . S
C2662 C2664 1.388 . S
C2663 C2662 1.366 . S
C2663 C2667 1.385 . S
C2664 H2645 0.951 . S
C2664 C2662 1.388 . S
C2664 C2665 1.366 . S
C2665 C2664 1.366 . S
C2665 C2666 1.414 . S
C2665 C2668 1.499 . S
C2666 H2646 0.950 . S
C2666 C2665 1.414 . S
C2666 C2667 1.374 . S
C2667 H2647 0.950 . S
C2667 C2663 1.385 . S
C2667 C2666 1.374 . S
C2668 C2665 1.499 . S
C2668 C2669 1.373 . S
C2668 C2670 1.389 . S
C2669 H2648 0.950 . S
C2669 C2668 1.373 . S
C2669 C2685 1.377 . S
C2670 C2668 1.389 . S
C2670 C2671 1.524 . S
C2670 C2684 1.377 . S
C2671 C2670 1.524 . S
C2671 C2672 1.397 . S
C2671 C2676 1.363 . S
C2672 H2649 0.950 . S
C2672 C2671 1.397 . S
C2672 C2673 1.334 . S
C2673 H2650 0.950 . S
C2673 C2672 1.334 . S
C2673 C2674 1.287 . S
C2674 C2673 1.287 . S
C2674 C2675 1.524 . S
C2674 H2693 0.913 . S
C2675 H2651 0.950 . S
C2675 C2674 1.524 . S
C2675 C2676 1.415 . S
C2676 H2652 0.950 . S
C2676 C2671 1.363 . S
C2676 C2675 1.415 . S
C2677 H2653 0.951 . S
C2677 C2678 1.366 . S
C2677 C2679 1.388 . S
C2678 C2677 1.366 . S
C2678 C2682 1.385 . S
C2679 H2654 0.951 . S
C2679 C2677 1.388 . S
C2679 C2680 1.366 . S
C2680 C2679 1.366 . S
C2680 C2681 1.414 . S
C2680 C2683 1.499 . S
C2681 H2655 0.950 . S
C2681 C2680 1.414 . S
C2681 C2682 1.374 . S
C2682 H2656 0.950 . S
C2682 C2678 1.385 . S
C2682 C2681 1.374 . S
C2683 C2680 1.499 . S
C2683 C2684 1.373 . S
C2683 C2685 1.389 . S
C2684 H2657 0.950 . S
C2684 C2670 1.377 . S
C2684 C2683 1.373 . S
C2685 C2669 1.377 . S
C2685 C2683 1.389 . S
C2685 C2686 1.524 . S
C2686 C2685 1.524 . S
C2686 C2687 1.397 . S
C2686 C2691 1.363 . S
C2687 H2658 0.950 . S
C2687 C2686 1.397 . S
C2687 C2688 1.334 . S
C2688 H2659 0.950 . S
C2688 C2687 1.334 . S
C2688 C2689 1.287 . S
C2689 C2688 1.287 . S
C2689 C2690 1.524 . S
C2689 H2692 0.999 . S
C2690 H2660 0.950 . S
C2690 C2689 1.524 . S
C2690 C2691 1.415 . S
C2691 H2661 0.950 . S
C2691 C2686 1.363 . S
C2691 C2690 1.415 . S
H2692 C2689 0.999 . S
H2693 C2674 0.913 . S
H2694 C2712 0.951 . S
H2695 C2714 0.951 . S
H2696 C2716 0.950 . S
H2697 C2717 0.950 . S
H2698 C2719 0.950 . S
H2699 C2722 0.950 1_556 S
H2700 C2723 0.950 . S
H2701 C2725 0.950 . S
H2702 C2726 0.950 . S
H2703 C2727 0.951 . S
H2704 C2729 0.951 . S
H2705 C2731 0.950 . S
H2706 C2732 0.950 . S
H2707 C2734 0.950 . S
H2708 C2737 0.950 . S
H2709 C2738 0.950 . S
H2710 C2740 0.950 . S
H2711 C2741 0.950 . S
C2712 H2694 0.951 . S
C2712 C2713 1.366 . S
C2712 C2714 1.388 1_556 S
C2713 C2712 1.366 . S
C2713 C2717 1.385 . S
C2714 H2695 0.951 . S
C2714 C2712 1.388 1_554 S
C2714 C2715 1.366 . S
C2715 C2714 1.366 . S
C2715 C2716 1.414 . S
C2715 C2718 1.499 . S
C2716 H2696 0.950 . S
C2716 C2715 1.414 . S
C2716 C2717 1.374 1_554 S
C2717 H2697 0.950 . S
C2717 C2713 1.385 . S
C2717 C2716 1.374 1_556 S
C2718 C2715 1.499 . S
C2718 C2719 1.373 . S
C2718 C2720 1.389 . S
C2719 H2698 0.950 . S
C2719 C2718 1.373 . S
C2719 C2735 1.377 . S
C2720 C2718 1.389 . S
C2720 C2721 1.524 . S
C2720 C2734 1.377 . S
C2721 C2720 1.524 . S
C2721 C2722 1.393 . S
C2721 C2726 1.363 . S
C2722 H2699 0.950 1_554 S
C2722 C2721 1.393 . S
C2722 C2723 1.337 1_554 S
C2723 H2700 0.950 . S
C2723 C2722 1.337 1_556 S
C2723 C2724 1.287 . S
C2724 C2723 1.287 . S
C2724 C2725 1.524 1_556 S
C2724 H2743 0.913 . S
C2725 H2701 0.950 . S
C2725 C2724 1.524 1_554 S
C2725 C2726 1.415 . S
C2726 H2702 0.950 . S
C2726 C2721 1.363 . S
C2726 C2725 1.415 . S
C2727 H2703 0.951 . S
C2727 C2728 1.366 . S
C2727 C2729 1.388 . S
C2728 C2727 1.366 . S
C2728 C2732 1.385 . S
C2729 H2704 0.951 . S
C2729 C2727 1.388 . S
C2729 C2730 1.366 . S
C2730 C2729 1.366 . S
C2730 C2731 1.414 . S
C2730 C2733 1.499 . S
C2731 H2705 0.950 . S
C2731 C2730 1.414 . S
C2731 C2732 1.374 . S
C2732 H2706 0.950 . S
C2732 C2728 1.385 . S
C2732 C2731 1.374 . S
C2733 C2730 1.499 . S
C2733 C2734 1.373 . S
C2733 C2735 1.389 . S
C2734 H2707 0.950 . S
C2734 C2720 1.377 . S
C2734 C2733 1.373 . S
C2735 C2719 1.377 . S
C2735 C2733 1.389 . S
C2735 C2736 1.524 . S
C2736 C2735 1.524 . S
C2736 C2737 1.397 . S
C2736 C2741 1.363 . S
C2737 H2708 0.950 . S
C2737 C2736 1.397 . S
C2737 C2738 1.334 . S
C2738 H2709 0.950 . S
C2738 C2737 1.334 . S
C2738 C2739 1.287 . S
C2739 C2738 1.287 . S
C2739 C2740 1.524 . S
C2739 H2742 0.999 . S
C2740 H2710 0.950 . S
C2740 C2739 1.524 . S
C2740 C2741 1.415 . S
C2741 H2711 0.950 . S
C2741 C2736 1.363 . S
C2741 C2740 1.415 . S
H2742 C2739 0.999 . S
H2743 C2724 0.913 . S
H2744 C2762 0.951 . S
H2745 C2764 0.951 . S
H2746 C2766 0.950 . S
H2747 C2767 0.950 . S
H2748 C2769 0.950 . S
H2749 C2772 0.950 . S
H2750 C2773 0.950 . S
H2751 C2775 0.950 . S
H2752 C2776 0.950 . S
H2753 C2777 0.951 . S
H2754 C2779 0.951 . S
H2755 C2781 0.950 . S
H2756 C2782 0.950 . S
H2757 C2784 0.950 . S
H2758 C2787 0.950 . S
H2759 C2788 0.950 . S
H2760 C2790 0.950 . S
H2761 C2791 0.950 . S
C2762 H2744 0.951 . S
C2762 C2763 1.366 . S
C2762 C2764 1.388 . S
C2763 C2762 1.366 . S
C2763 C2767 1.385 . S
C2764 H2745 0.951 . S
C2764 C2762 1.388 . S
C2764 C2765 1.366 . S
C2765 C2764 1.366 . S
C2765 C2766 1.414 . S
C2765 C2768 1.499 . S
C2766 H2746 0.950 . S
C2766 C2765 1.414 . S
C2766 C2767 1.374 . S
C2767 H2747 0.950 . S
C2767 C2763 1.385 . S
C2767 C2766 1.374 . S
C2768 C2765 1.499 . S
C2768 C2769 1.373 . S
C2768 C2770 1.389 . S
C2769 H2748 0.950 . S
C2769 C2768 1.373 . S
C2769 C2785 1.377 . S
C2770 C2768 1.389 . S
C2770 C2771 1.524 . S
C2770 C2784 1.377 . S
C2771 C2770 1.524 . S
C2771 C2772 1.397 . S
C2771 C2776 1.363 . S
C2772 H2749 0.950 . S
C2772 C2771 1.397 . S
C2772 C2773 1.334 . S
C2773 H2750 0.950 . S
C2773 C2772 1.334 . S
C2773 C2774 1.287 . S
C2774 C2773 1.287 . S
C2774 C2775 1.524 . S
C2774 H2793 0.913 . S
C2775 H2751 0.950 . S
C2775 C2774 1.524 . S
C2775 C2776 1.415 . S
C2776 H2752 0.950 . S
C2776 C2771 1.363 . S
C2776 C2775 1.415 . S
C2777 H2753 0.951 . S
C2777 C2778 1.366 . S
C2777 C2779 1.388 . S
C2778 C2777 1.366 . S
C2778 C2782 1.385 . S
C2779 H2754 0.951 . S
C2779 C2777 1.388 . S
C2779 C2780 1.366 . S
C2780 C2779 1.366 . S
C2780 C2781 1.414 . S
C2780 C2783 1.499 . S
C2781 H2755 0.950 . S
C2781 C2780 1.414 . S
C2781 C2782 1.374 . S
C2782 H2756 0.950 . S
C2782 C2778 1.385 . S
C2782 C2781 1.374 . S
C2783 C2780 1.499 . S
C2783 C2784 1.373 . S
C2783 C2785 1.389 . S
C2784 H2757 0.950 . S
C2784 C2770 1.377 . S
C2784 C2783 1.373 . S
C2785 C2769 1.377 . S
C2785 C2783 1.389 . S
C2785 C2786 1.524 . S
C2786 C2785 1.524 . S
C2786 C2787 1.397 . S
C2786 C2791 1.363 . S
C2787 H2758 0.950 . S
C2787 C2786 1.397 . S
C2787 C2788 1.334 . S
C2788 H2759 0.950 . S
C2788 C2787 1.334 . S
C2788 C2789 1.287 . S
C2789 C2788 1.287 . S
C2789 C2790 1.524 . S
C2789 H2792 0.999 . S
C2790 H2760 0.950 . S
C2790 C2789 1.524 . S
C2790 C2791 1.415 . S
C2791 H2761 0.950 . S
C2791 C2786 1.363 . S
C2791 C2790 1.415 . S
H2792 C2789 0.999 . S
H2793 C2774 0.913 . S
H2794 C2812 0.951 . S
H2795 C2814 0.951 . S
H2796 C2816 0.950 . S
H2797 C2817 0.950 . S
H2798 C2819 0.950 . S
H2799 C2822 0.950 . S
H2800 C2823 0.950 . S
H2801 C2825 0.950 . S
H2802 C2826 0.950 . S
H2803 C2827 0.951 . S
H2804 C2829 0.951 . S
H2805 C2831 0.950 . S
H2806 C2832 0.950 . S
H2807 C2834 0.950 . S
H2808 C2837 0.950 . S
H2809 C2838 0.950 . S
H2810 C2840 0.950 . S
H2811 C2841 0.950 . S
C2812 H2794 0.951 . S
C2812 C2813 1.366 . S
C2812 C2814 1.388 . S
C2813 C2812 1.366 . S
C2813 C2817 1.385 . S
C2814 H2795 0.951 . S
C2814 C2812 1.388 . S
C2814 C2815 1.366 . S
C2815 C2814 1.366 . S
C2815 C2816 1.414 . S
C2815 C2818 1.499 . S
C2816 H2796 0.950 . S
C2816 C2815 1.414 . S
C2816 C2817 1.374 . S
C2817 H2797 0.950 . S
C2817 C2813 1.385 . S
C2817 C2816 1.374 . S
C2818 C2815 1.499 . S
C2818 C2819 1.373 . S
C2818 C2820 1.389 . S
C2819 H2798 0.950 . S
C2819 C2818 1.373 . S
C2819 C2835 1.377 . S
C2820 C2818 1.389 . S
C2820 C2821 1.524 . S
C2820 C2834 1.377 . S
C2821 C2820 1.524 . S
C2821 C2822 1.397 . S
C2821 C2826 1.363 . S
C2822 H2799 0.950 . S
C2822 C2821 1.397 . S
C2822 C2823 1.334 . S
C2823 H2800 0.950 . S
C2823 C2822 1.334 . S
C2823 C2824 1.287 . S
C2824 C2823 1.287 . S
C2824 C2825 1.524 . S
C2824 H2843 0.913 . S
C2825 H2801 0.950 . S
C2825 C2824 1.524 . S
C2825 C2826 1.415 . S
C2826 H2802 0.950 . S
C2826 C2821 1.363 . S
C2826 C2825 1.415 . S
C2827 H2803 0.951 . S
C2827 C2828 1.366 . S
C2827 C2829 1.388 . S
C2828 C2827 1.366 . S
C2828 C2832 1.385 . S
C2829 H2804 0.951 . S
C2829 C2827 1.388 . S
C2829 C2830 1.366 . S
C2830 C2829 1.366 . S
C2830 C2831 1.414 . S
C2830 C2833 1.499 . S
C2831 H2805 0.950 . S
C2831 C2830 1.414 . S
C2831 C2832 1.374 . S
C2832 H2806 0.950 . S
C2832 C2828 1.385 . S
C2832 C2831 1.374 . S
C2833 C2830 1.499 . S
C2833 C2834 1.373 . S
C2833 C2835 1.389 . S
C2834 H2807 0.950 . S
C2834 C2820 1.377 . S
C2834 C2833 1.373 . S
C2835 C2819 1.377 . S
C2835 C2833 1.389 . S
C2835 C2836 1.524 . S
C2836 C2835 1.524 . S
C2836 C2837 1.397 . S
C2836 C2841 1.363 . S
C2837 H2808 0.950 . S
C2837 C2836 1.397 . S
C2837 C2838 1.334 . S
C2838 H2809 0.950 . S
C2838 C2837 1.334 . S
C2838 C2839 1.287 . S
C2839 C2838 1.287 . S
C2839 C2840 1.524 . S
C2839 H2842 0.999 . S
C2840 H2810 0.950 . S
C2840 C2839 1.524 . S
C2840 C2841 1.415 . S
C2841 H2811 0.950 . S
C2841 C2836 1.363 . S
C2841 C2840 1.415 . S
H2842 C2839 0.999 . S
H2843 C2824 0.913 . S
H2844 C2862 0.951 . S
H2845 C2864 0.951 . S
H2846 C2866 0.950 . S
H2847 C2867 0.950 . S
H2848 C2869 0.950 . S
H2849 C2872 0.950 . S
H2850 C2873 0.950 . S
H2851 C2875 0.950 . S
H2852 C2876 0.950 . S
H2853 C2877 0.951 . S
H2854 C2879 0.951 . S
H2855 C2881 0.950 . S
H2856 C2882 0.950 . S
H2857 C2884 0.950 . S
H2858 C2887 0.950 . S
H2859 C2888 0.950 . S
H2860 C2890 0.950 . S
H2861 C2891 0.950 . S
C2862 H2844 0.951 . S
C2862 C2863 1.366 . S
C2862 C2864 1.388 . S
C2863 C2862 1.366 . S
C2863 C2867 1.385 . S
C2864 H2845 0.951 . S
C2864 C2862 1.388 . S
C2864 C2865 1.366 . S
C2865 C2864 1.366 . S
C2865 C2866 1.414 . S
C2865 C2868 1.499 . S
C2866 H2846 0.950 . S
C2866 C2865 1.414 . S
C2866 C2867 1.374 . S
C2867 H2847 0.950 . S
C2867 C2863 1.385 . S
C2867 C2866 1.374 . S
C2868 C2865 1.499 . S
C2868 C2869 1.373 . S
C2868 C2870 1.389 . S
C2869 H2848 0.950 . S
C2869 C2868 1.373 . S
C2869 C2885 1.377 . S
C2870 C2868 1.389 . S
C2870 C2871 1.524 . S
C2870 C2884 1.377 . S
C2871 C2870 1.524 . S
C2871 C2872 1.397 . S
C2871 C2876 1.363 . S
C2872 H2849 0.950 . S
C2872 C2871 1.397 . S
C2872 C2873 1.334 . S
C2873 H2850 0.950 . S
C2873 C2872 1.334 . S
C2873 C2874 1.287 . S
C2874 C2873 1.287 . S
C2874 C2875 1.524 . S
C2874 H2893 0.913 . S
C2875 H2851 0.950 . S
C2875 C2874 1.524 . S
C2875 C2876 1.415 . S
C2876 H2852 0.950 . S
C2876 C2871 1.363 . S
C2876 C2875 1.415 . S
C2877 H2853 0.951 . S
C2877 C2878 1.366 . S
C2877 C2879 1.388 . S
C2878 C2877 1.366 . S
C2878 C2882 1.385 . S
C2879 H2854 0.951 . S
C2879 C2877 1.388 . S
C2879 C2880 1.366 . S
C2880 C2879 1.366 . S
C2880 C2881 1.414 . S
C2880 C2883 1.499 . S
C2881 H2855 0.950 . S
C2881 C2880 1.414 . S
C2881 C2882 1.374 . S
C2882 H2856 0.950 . S
C2882 C2878 1.385 . S
C2882 C2881 1.374 . S
C2883 C2880 1.499 . S
C2883 C2884 1.373 . S
C2883 C2885 1.389 . S
C2884 H2857 0.950 . S
C2884 C2870 1.377 . S
C2884 C2883 1.373 . S
C2885 C2869 1.377 . S
C2885 C2883 1.389 . S
C2885 C2886 1.524 . S
C2886 C2885 1.524 . S
C2886 C2887 1.397 . S
C2886 C2891 1.363 . S
C2887 H2858 0.950 . S
C2887 C2886 1.397 . S
C2887 C2888 1.334 . S
C2888 H2859 0.950 . S
C2888 C2887 1.334 . S
C2888 C2889 1.287 . S
C2889 C2888 1.287 . S
C2889 C2890 1.524 . S
C2889 H2892 0.999 . S
C2890 H2860 0.950 . S
C2890 C2889 1.524 . S
C2890 C2891 1.415 . S
C2891 H2861 0.950 . S
C2891 C2886 1.363 . S
C2891 C2890 1.415 . S
H2892 C2889 0.999 . S
H2893 C2874 0.913 . S
H2894 C2912 0.951 . S
H2895 C2914 0.951 . S
H2896 C2916 0.950 . S
H2897 C2917 0.950 . S
H2898 C2919 0.950 . S
H2899 C2922 0.950 . S
H2900 C2923 0.950 . S
H2901 C2925 0.950 . S
H2902 C2926 0.950 . S
H2903 C2927 0.951 . S
H2904 C2929 0.951 . S
H2905 C2931 0.950 . S
H2906 C2932 0.950 . S
H2907 C2934 0.950 . S
H2908 C2937 0.950 . S
H2909 C2938 0.950 . S
H2910 C2940 0.950 . S
H2911 C2941 0.950 . S
C2912 H2894 0.951 . S
C2912 C2913 1.366 . S
C2912 C2914 1.388 . S
C2913 C2912 1.366 . S
C2913 C2917 1.385 . S
C2914 H2895 0.951 . S
C2914 C2912 1.388 . S
C2914 C2915 1.366 . S
C2915 C2914 1.366 . S
C2915 C2916 1.414 . S
C2915 C2918 1.499 . S
C2916 H2896 0.950 . S
C2916 C2915 1.414 . S
C2916 C2917 1.374 . S
C2917 H2897 0.950 . S
C2917 C2913 1.385 . S
C2917 C2916 1.374 . S
C2918 C2915 1.499 . S
C2918 C2919 1.373 . S
C2918 C2920 1.389 . S
C2919 H2898 0.950 . S
C2919 C2918 1.373 . S
C2919 C2935 1.377 . S
C2920 C2918 1.389 . S
C2920 C2921 1.524 . S
C2920 C2934 1.377 . S
C2921 C2920 1.524 . S
C2921 C2922 1.397 . S
C2921 C2926 1.363 . S
C2922 H2899 0.950 . S
C2922 C2921 1.397 . S
C2922 C2923 1.334 . S
C2923 H2900 0.950 . S
C2923 C2922 1.334 . S
C2923 C2924 1.287 . S
C2924 C2923 1.287 . S
C2924 C2925 1.524 . S
C2924 H2943 0.913 . S
C2925 H2901 0.950 . S
C2925 C2924 1.524 . S
C2925 C2926 1.415 . S
C2926 H2902 0.950 . S
C2926 C2921 1.363 . S
C2926 C2925 1.415 . S
C2927 H2903 0.951 . S
C2927 C2928 1.366 . S
C2927 C2929 1.388 . S
C2928 C2927 1.366 . S
C2928 C2932 1.385 . S
C2929 H2904 0.951 . S
C2929 C2927 1.388 . S
C2929 C2930 1.366 . S
C2930 C2929 1.366 . S
C2930 C2931 1.414 . S
C2930 C2933 1.499 . S
C2931 H2905 0.950 . S
C2931 C2930 1.414 . S
C2931 C2932 1.374 . S
C2932 H2906 0.950 . S
C2932 C2928 1.385 . S
C2932 C2931 1.374 . S
C2933 C2930 1.499 . S
C2933 C2934 1.373 . S
C2933 C2935 1.389 . S
C2934 H2907 0.950 . S
C2934 C2920 1.377 . S
C2934 C2933 1.373 . S
C2935 C2919 1.377 . S
C2935 C2933 1.389 . S
C2935 C2936 1.524 . S
C2936 C2935 1.524 . S
C2936 C2937 1.397 . S
C2936 C2941 1.363 . S
C2937 H2908 0.950 . S
C2937 C2936 1.397 . S
C2937 C2938 1.334 . S
C2938 H2909 0.950 . S
C2938 C2937 1.334 . S
C2938 C2939 1.287 . S
C2939 C2938 1.287 . S
C2939 C2940 1.524 . S
C2939 H2942 0.999 . S
C2940 H2910 0.950 . S
C2940 C2939 1.524 . S
C2940 C2941 1.415 . S
C2941 H2911 0.950 . S
C2941 C2936 1.363 . S
C2941 C2940 1.415 . S
H2942 C2939 0.999 . S
H2943 C2924 0.913 . S
H2944 C2962 0.951 . S
H2945 C2964 0.951 . S
H2946 C2966 0.950 . S
H2947 C2967 0.950 . S
H2948 C2969 0.950 . S
H2949 C2972 0.950 . S
H2950 C2973 0.950 . S
H2951 C2975 0.950 . S
H2952 C2976 0.950 . S
H2953 C2977 0.951 . S
H2954 C2979 0.951 . S
H2955 C2981 0.950 . S
H2956 C2982 0.950 . S
H2957 C2984 0.950 . S
H2958 C2987 0.950 . S
H2959 C2988 0.953 . S
H2960 C2990 0.950 . S
H2961 C2991 0.950 . S
C2962 H2944 0.951 . S
C2962 C2963 1.366 . S
C2962 C2964 1.388 . S
C2963 C2962 1.366 . S
C2963 C2967 1.385 . S
C2964 H2945 0.951 . S
C2964 C2962 1.388 . S
C2964 C2965 1.366 . S
C2965 C2964 1.366 . S
C2965 C2966 1.414 . S
C2965 C2968 1.499 . S
C2966 H2946 0.950 . S
C2966 C2965 1.414 . S
C2966 C2967 1.374 . S
C2967 H2947 0.950 . S
C2967 C2963 1.385 . S
C2967 C2966 1.374 . S
C2968 C2965 1.499 . S
C2968 C2969 1.373 . S
C2968 C2970 1.389 . S
C2969 H2948 0.950 . S
C2969 C2968 1.373 . S
C2969 C2985 1.377 . S
C2970 C2968 1.389 . S
C2970 C2971 1.524 . S
C2970 C2984 1.377 . S
C2971 C2970 1.524 . S
C2971 C2972 1.397 . S
C2971 C2976 1.363 . S
C2972 H2949 0.950 . S
C2972 C2971 1.397 . S
C2972 C2973 1.334 . S
C2973 H2950 0.950 . S
C2973 C2972 1.334 . S
C2973 C2974 1.287 . S
C2974 C2973 1.287 . S
C2974 C2975 1.524 . S
C2974 H2993 0.913 . S
C2975 H2951 0.950 . S
C2975 C2974 1.524 . S
C2975 C2976 1.415 . S
C2976 H2952 0.950 . S
C2976 C2971 1.363 . S
C2976 C2975 1.415 . S
C2977 H2953 0.951 . S
C2977 C2978 1.366 . S
C2977 C2979 1.388 . S
C2978 C2977 1.366 . S
C2978 C2982 1.385 . S
C2979 H2954 0.951 . S
C2979 C2977 1.388 . S
C2979 C2980 1.366 . S
C2980 C2979 1.366 . S
C2980 C2981 1.414 . S
C2980 C2983 1.499 . S
C2981 H2955 0.950 . S
C2981 C2980 1.414 . S
C2981 C2982 1.374 . S
C2982 H2956 0.950 . S
C2982 C2978 1.385 . S
C2982 C2981 1.374 . S
C2983 C2980 1.499 . S
C2983 C2984 1.373 . S
C2983 C2985 1.389 . S
C2984 H2957 0.950 . S
C2984 C2970 1.377 . S
C2984 C2983 1.373 . S
C2985 C2969 1.377 . S
C2985 C2983 1.389 . S
C2985 C2986 1.524 . S
C2986 C2985 1.524 . S
C2986 C2987 1.397 . S
C2986 C2991 1.363 . S
C2987 H2958 0.950 . S
C2987 C2986 1.397 . S
C2987 C2988 1.332 1_556 S
C2988 H2959 0.953 . S
C2988 C2987 1.332 1_554 S
C2988 C2989 1.286 1_554 S
C2989 C2988 1.286 1_556 S
C2989 C2990 1.524 . S
C2989 H2992 0.965 1_556 S
C2990 H2960 0.950 . S
C2990 C2989 1.524 . S
C2990 C2991 1.415 . S
C2991 H2961 0.950 . S
C2991 C2986 1.363 . S
C2991 C2990 1.415 . S
H2992 C2989 0.965 1_554 S
H2993 C2974 0.913 . S
H2994 C3012 0.951 . S
H2995 C3014 0.951 . S
H2996 C3016 0.950 . S
H2997 C3017 0.950 . S
H2998 C3019 0.950 . S
H2999 C3022 0.950 . S
H3000 C3023 0.950 . S
H3001 C3025 0.950 . S
H3002 C3026 0.950 . S
H3003 C3027 0.951 . S
H3004 C3029 0.951 . S
H3005 C3031 0.950 . S
H3006 C3032 0.950 . S
H3007 C3034 0.950 . S
H3008 C3037 0.950 . S
H3009 C3038 0.950 . S
H3010 C3040 0.950 . S
H3011 C3041 0.950 . S
C3012 H2994 0.951 . S
C3012 C3013 1.366 . S
C3012 C3014 1.388 . S
C3013 C3012 1.366 . S
C3013 C3017 1.385 . S
C3014 H2995 0.951 . S
C3014 C3012 1.388 . S
C3014 C3015 1.366 . S
C3015 C3014 1.366 . S
C3015 C3016 1.414 . S
C3015 C3018 1.499 . S
C3016 H2996 0.950 . S
C3016 C3015 1.414 . S
C3016 C3017 1.374 . S
C3017 H2997 0.950 . S
C3017 C3013 1.385 . S
C3017 C3016 1.374 . S
C3018 C3015 1.499 . S
C3018 C3019 1.373 . S
C3018 C3020 1.389 . S
C3019 H2998 0.950 . S
C3019 C3018 1.373 . S
C3019 C3035 1.377 . S
C3020 C3018 1.389 . S
C3020 C3021 1.524 . S
C3020 C3034 1.377 . S
C3021 C3020 1.524 . S
C3021 C3022 1.397 . S
C3021 C3026 1.363 . S
C3022 H2999 0.950 . S
C3022 C3021 1.397 . S
C3022 C3023 1.334 . S
C3023 H3000 0.950 . S
C3023 C3022 1.334 . S
C3023 C3024 1.287 . S
C3024 C3023 1.287 . S
C3024 C3025 1.524 . S
C3024 H3043 0.913 . S
C3025 H3001 0.950 . S
C3025 C3024 1.524 . S
C3025 C3026 1.415 . S
C3026 H3002 0.950 . S
C3026 C3021 1.363 . S
C3026 C3025 1.415 . S
C3027 H3003 0.951 . S
C3027 C3028 1.366 . S
C3027 C3029 1.388 . S
C3028 C3027 1.366 . S
C3028 C3032 1.385 . S
C3029 H3004 0.951 . S
C3029 C3027 1.388 . S
C3029 C3030 1.366 . S
C3030 C3029 1.366 . S
C3030 C3031 1.414 . S
C3030 C3033 1.499 . S
C3031 H3005 0.950 . S
C3031 C3030 1.414 . S
C3031 C3032 1.374 . S
C3032 H3006 0.950 . S
C3032 C3028 1.385 . S
C3032 C3031 1.374 . S
C3033 C3030 1.499 . S
C3033 C3034 1.373 . S
C3033 C3035 1.389 . S
C3034 H3007 0.950 . S
C3034 C3020 1.377 . S
C3034 C3033 1.373 . S
C3035 C3019 1.377 . S
C3035 C3033 1.389 . S
C3035 C3036 1.524 . S
C3036 C3035 1.524 . S
C3036 C3037 1.397 . S
C3036 C3041 1.363 . S
C3037 H3008 0.950 . S
C3037 C3036 1.397 . S
C3037 C3038 1.334 . S
C3038 H3009 0.950 . S
C3038 C3037 1.334 . S
C3038 C3039 1.287 . S
C3039 C3038 1.287 . S
C3039 C3040 1.524 . S
C3039 H3042 0.999 . S
C3040 H3010 0.950 . S
C3040 C3039 1.524 . S
C3040 C3041 1.415 . S
C3041 H3011 0.950 . S
C3041 C3036 1.363 . S
C3041 C3040 1.415 . S
H3042 C3039 0.999 . S
H3043 C3024 0.913 . S
H3044 C3062 0.951 . S
H3045 C3064 0.951 . S
H3046 C3066 0.950 . S
H3047 C3067 0.950 . S
H3048 C3069 0.950 . S
H3049 C3072 0.950 . S
H3050 C3073 0.950 . S
H3051 C3075 0.950 1_556 S
H3052 C3076 0.950 . S
H3053 C3077 0.951 . S
H3054 C3079 0.951 . S
H3055 C3081 0.950 . S
H3056 C3082 0.950 . S
H3057 C3084 0.950 . S
H3058 C3087 0.950 . S
H3059 C3088 0.950 . S
H3060 C3090 0.950 . S
H3061 C3091 0.950 . S
C3062 H3044 0.951 . S
C3062 C3063 1.366 . S
C3062 C3064 1.388 . S
C3063 C3062 1.366 . S
C3063 C3067 1.385 . S
C3064 H3045 0.951 . S
C3064 C3062 1.388 . S
C3064 C3065 1.366 . S
C3065 C3064 1.366 . S
C3065 C3066 1.414 . S
C3065 C3068 1.499 . S
C3066 H3046 0.950 . S
C3066 C3065 1.414 . S
C3066 C3067 1.374 . S
C3067 H3047 0.950 . S
C3067 C3063 1.385 . S
C3067 C3066 1.374 . S
C3068 C3065 1.499 . S
C3068 C3069 1.373 . S
C3068 C3070 1.389 . S
C3069 H3048 0.950 . S
C3069 C3068 1.373 . S
C3069 C3085 1.377 . S
C3070 C3068 1.389 . S
C3070 C3071 1.524 . S
C3070 C3084 1.377 . S
C3071 C3070 1.524 . S
C3071 C3072 1.397 . S
C3071 C3076 1.363 . S
C3072 H3049 0.950 . S
C3072 C3071 1.397 . S
C3072 C3073 1.334 . S
C3073 H3050 0.950 . S
C3073 C3072 1.334 . S
C3073 C3074 1.287 . S
C3074 C3073 1.287 . S
C3074 C3075 1.524 . S
C3074 H3093 0.913 . S
C3075 H3051 0.950 1_554 S
C3075 C3074 1.524 . S
C3075 C3076 1.415 . S
C3076 H3052 0.950 . S
C3076 C3071 1.363 . S
C3076 C3075 1.415 . S
C3077 H3053 0.951 . S
C3077 C3078 1.366 . S
C3077 C3079 1.388 . S
C3078 C3077 1.366 . S
C3078 C3082 1.385 . S
C3079 H3054 0.951 . S
C3079 C3077 1.388 . S
C3079 C3080 1.366 . S
C3080 C3079 1.366 . S
C3080 C3081 1.414 . S
C3080 C3083 1.499 . S
C3081 H3055 0.950 . S
C3081 C3080 1.414 . S
C3081 C3082 1.374 . S
C3082 H3056 0.950 . S
C3082 C3078 1.385 . S
C3082 C3081 1.374 . S
C3083 C3080 1.499 . S
C3083 C3084 1.373 . S
C3083 C3085 1.389 . S
C3084 H3057 0.950 . S
C3084 C3070 1.377 . S
C3084 C3083 1.373 . S
C3085 C3069 1.377 . S
C3085 C3083 1.389 . S
C3085 C3086 1.524 . S
C3086 C3085 1.524 . S
C3086 C3087 1.397 . S
C3086 C3091 1.363 . S
C3087 H3058 0.950 . S
C3087 C3086 1.397 . S
C3087 C3088 1.334 . S
C3088 H3059 0.950 . S
C3088 C3087 1.334 . S
C3088 C3089 1.287 . S
C3089 C3088 1.287 . S
C3089 C3090 1.524 . S
C3089 H3092 0.999 . S
C3090 H3060 0.950 . S
C3090 C3089 1.524 . S
C3090 C3091 1.415 . S
C3091 H3061 0.950 . S
C3091 C3086 1.363 . S
C3091 C3090 1.415 . S
H3092 C3089 0.999 . S
H3093 C3074 0.913 . S
H3094 C3112 0.951 . S
H3095 C3114 0.951 . S
H3096 C3116 0.950 . S
H3097 C3117 0.950 . S
H3098 C3119 0.950 . S
H3099 C3122 0.950 . S
H3100 C3123 0.950 . S
H3101 C3125 0.950 . S
H3102 C3126 0.950 . S
H3103 C3127 0.951 . S
H3104 C3129 0.951 . S
H3105 C3131 0.950 . S
H3106 C3132 0.950 . S
H3107 C3134 0.950 . S
H3108 C3137 0.950 . S
H3109 C3138 0.950 . S
H3110 C3140 0.950 . S
H3111 C3141 0.950 1_545 S
C3112 H3094 0.951 . S
C3112 C3113 1.366 . S
C3112 C3114 1.388 . S
C3113 C3112 1.366 . S
C3113 C3117 1.385 . S
C3114 H3095 0.951 . S
C3114 C3112 1.388 . S
C3114 C3115 1.366 . S
C3115 C3114 1.366 . S
C3115 C3116 1.414 . S
C3115 C3118 1.499 . S
C3116 H3096 0.950 . S
C3116 C3115 1.414 . S
C3116 C3117 1.374 . S
C3117 H3097 0.950 . S
C3117 C3113 1.385 . S
C3117 C3116 1.374 . S
C3118 C3115 1.499 . S
C3118 C3119 1.373 . S
C3118 C3120 1.389 . S
C3119 H3098 0.950 . S
C3119 C3118 1.373 . S
C3119 C3135 1.377 . S
C3120 C3118 1.389 . S
C3120 C3121 1.524 . S
C3120 C3134 1.377 . S
C3121 C3120 1.524 . S
C3121 C3122 1.397 . S
C3121 C3126 1.363 . S
C3122 H3099 0.950 . S
C3122 C3121 1.397 . S
C3122 C3123 1.334 . S
C3123 H3100 0.950 . S
C3123 C3122 1.334 . S
C3123 C3124 1.287 . S
C3124 C3123 1.287 . S
C3124 C3125 1.524 . S
C3124 H3143 0.913 . S
C3125 H3101 0.950 . S
C3125 C3124 1.524 . S
C3125 C3126 1.415 . S
C3126 H3102 0.950 . S
C3126 C3121 1.363 . S
C3126 C3125 1.415 . S
C3127 H3103 0.951 . S
C3127 C3128 1.366 . S
C3127 C3129 1.388 . S
C3128 C3127 1.366 . S
C3128 C3132 1.385 . S
C3129 H3104 0.951 . S
C3129 C3127 1.388 . S
C3129 C3130 1.366 . S
C3130 C3129 1.366 . S
C3130 C3131 1.414 . S
C3130 C3133 1.499 1_565 S
C3131 H3105 0.950 . S
C3131 C3130 1.414 . S
C3131 C3132 1.374 . S
C3132 H3106 0.950 . S
C3132 C3128 1.385 . S
C3132 C3131 1.374 . S
C3133 C3130 1.499 1_545 S
C3133 C3134 1.373 . S
C3133 C3135 1.389 . S
C3134 H3107 0.950 . S
C3134 C3120 1.377 . S
C3134 C3133 1.373 . S
C3135 C3119 1.377 . S
C3135 C3133 1.389 . S
C3135 C3136 1.524 1_545 S
C3136 C3135 1.524 1_565 S
C3136 C3137 1.397 . S
C3136 C3141 1.363 . S
C3137 H3108 0.950 . S
C3137 C3136 1.397 . S
C3137 C3138 1.334 . S
C3138 H3109 0.950 . S
C3138 C3137 1.334 . S
C3138 C3139 1.287 . S
C3139 C3138 1.287 . S
C3139 C3140 1.524 . S
C3139 H3142 0.999 . S
C3140 H3110 0.950 . S
C3140 C3139 1.524 . S
C3140 C3141 1.415 . S
C3141 H3111 0.950 1_565 S
C3141 C3136 1.363 . S
C3141 C3140 1.415 . S
H3142 C3139 0.999 . S
H3143 C3124 0.913 . S
C778 C584 1.642 . S
C763 C181 1.650 . S
C828 C599 1.742 . S
C813 C247 1.748 . S
C863 C283 1.748 . S
C878 C612 1.747 . S
C928 C626 1.551 . S
C913 C169 1.599 . S
C978 C638 1.694 . S
C963 C361 1.755 . S
C1028 C652 1.290 . S
C1013 C433 1.298 . S
C1063 C421 1.812 . S
C1078 C666 1.784 . S
C1128 C681 1.486 . S
C1113 C355 1.465 . S
C1163 C427 1.719 . S
C1178 C697 1.716 . S
C1228 C710 1.515 . S
C1213 C325 1.508 . S
C1263 C385 1.629 . S
C1278 C695 1.584 . S
C1328 C708 1.506 . S
C1313 C463 1.510 . S
C1363 C253 1.913 . S
C1378 C724 1.909 . S
C1413 C145 1.600 . S
C1428 C723 1.571 . S
C1463 C205 1.779 . S
C1478 C722 1.724 . S
C1513 C217 1.612 . S
C1528 C725 1.614 . S
C1563 C139 1.746 . S
C1578 C627 1.735 . S
C1613 C535 1.517 . S
C1628 C625 1.490 . S
C1678 C585 1.527 . S
C1663 C565 1.527 . S
C1728 C596 1.792 . S
C1713 C313 1.802 . S
C1763 C175 1.649 1_545 S
C1778 C641 1.623 . S
C1828 C682 1.954 . S
C1813 C397 1.956 . S
C1878 C639 1.506 . S
C1863 C349 1.476 . S
C1928 C667 1.498 . S
C1913 C457 1.520 . S
C1978 C668 1.642 . S
C1963 C505 1.650 . S
C2013 C571 1.748 . S
C2028 C683 1.742 . S
C2063 C319 1.748 . S
C2078 C640 1.747 . S
C2128 C654 1.551 . S
C2113 C493 1.599 . S
C2163 C109 1.755 . S
C2178 C610 1.694 . S
C2228 C624 1.290 . S
C2213 C1 1.298 . S
C2278 C582 1.784 . S
C2263 C61 1.812 . S
C2328 C597 1.485 . S
C2313 C103 1.465 . S
C2363 C67 1.720 . S
C2378 C711 1.717 . S
C2413 C73 1.509 . S
C2428 C696 1.516 . S
C2463 C133 1.629 . S
C2478 C709 1.583 . S
C2513 C31 1.510 . S
C2528 C694 1.505 . S
C2578 C738 1.910 . S
C2563 C289 1.913 . S
C2628 C737 1.571 . S
C2613 C469 1.600 . S
C2678 C736 1.724 . S
C2663 C529 1.779 . S
C2713 C541 1.611 . S
C2728 C739 1.613 . S
C2763 C391 1.746 . S
C2778 C655 1.735 . S
C2828 C653 1.490 . S
C2813 C211 1.516 . S
C2878 C669 1.527 . S
C2863 C241 1.527 . S
C2928 C680 1.791 . S
C2913 C277 1.802 . S
C2963 C499 1.649 . S
C2978 C613 1.623 . S
C3028 C598 1.954 . S
C3013 C37 1.956 . S
C3063 C97 1.477 . S
C3078 C611 1.507 . S
C3128 C583 1.498 . S
C3113 C25 1.520 . S
