# Generated by pormake.
# Topology pts, (4,4)-cn, num edge types: 1
# Building blocks:
#     Node 0, Type 0, BuildingBlock: MUDLON_clean_linker_0, # of connection points: 4
#     Node 1, Type 0, BuildingBlock: MUDLON_clean_linker_0, # of connection points: 4
#     Node 2, Type 1, BuildingBlock: UXUYUI_clean_sbu_0, # of connection points: 4
#     Node 3, Type 1, BuildingBlock: UXUYUI_clean_sbu_0, # of connection points: 4
#     Edge 4, Type (0, 1), BuildingBlock: FUNLAD_clean_linker_0, # of connection points: 2
#     Edge 5, Type (0, 1), BuildingBlock: FUNLAD_clean_linker_0, # of connection points: 2
#     Edge 6, Type (0, 1), BuildingBlock: FUNLAD_clean_linker_0, # of connection points: 2
#     Edge 7, Type (0, 1), BuildingBlock: FUNLAD_clean_linker_0, # of connection points: 2
#     Edge 8, Type (0, 1), BuildingBlock: FUNLAD_clean_linker_0, # of connection points: 2
#     Edge 9, Type (0, 1), BuildingBlock: FUNLAD_clean_linker_0, # of connection points: 2
#     Edge 10, Type (0, 1), BuildingBlock: FUNLAD_clean_linker_0, # of connection points: 2
#     Edge 11, Type (0, 1), BuildingBlock: FUNLAD_clean_linker_0, # of connection points: 2
# Relax obj value: 0.012
# Max RMSD: 0.056
# Mean RMSD: 0.052
data_MOF--net-pts--node1-UXUYUI_clean_sbu_0--node2-MUDLON_clean_linker_0--edge1-FUNLAD_clean_linker_0
_symmetry_space_group_name_H-M    P1
_symmetry_Int_Tables_number       1
_symmetry_cell_setting            triclinic
loop_
_symmetry_equiv_pos_as_xyz
'x, y, z'
_cell_length_a     44.711736
_cell_length_b     44.706172
_cell_length_c     57.249946
_cell_angle_alpha  90.010726
_cell_angle_beta   89.992656
_cell_angle_gamma 90.012497
loop_
_atom_site_label
_atom_site_type_symbol
_atom_site_fract_x
_atom_site_fract_y
_atom_site_fract_z
_atom_type_partial_charge
H0 H 0.64203 0.02318 0.01662 0.0
N1 N 0.61158 0.9715 0.00678 0.0
H2 H 0.67689 0.03093 0.04868 0.0
H3 H 0.62059 0.93557 0.04317 0.0
H4 H 0.65493 0.94349 0.07598 0.0
H5 H 0.64514 0.92834 0.98887 0.0
H6 H 0.6808 0.93229 0.95657 0.0
H7 H 0.61761 0.01952 0.97742 0.0
H8 H 0.6535 0.02383 0.94521 0.0
H9 H 0.58713 0.02253 0.02662 0.0
H10 H 0.56701 0.94573 0.98373 0.0
H11 H 0.53524 0.03763 0.0253 0.0
H12 H 0.51511 0.96201 0.98082 0.0
H13 H 0.36688 0.08294 0.01963 0.0
H14 H 0.33153 0.08103 0.05225 0.0
H15 H 0.35344 0.98796 0.06311 0.0
H16 H 0.38824 0.98994 0.03051 0.0
H17 H 0.3666 0.98606 0.99119 0.0
H18 H 0.33266 0.97798 0.95858 0.0
H19 H 0.35539 0.06516 0.93114 0.0
H20 H 0.38875 0.07341 0.96445 0.0
H21 H 0.44472 0.07286 0.00327 0.0
H22 H 0.49731 0.05812 0.00328 0.0
H23 H 0.4706 0.9651 0.00092 0.0
N24 N 0.39705 0.03783 0.00098 0.0
H25 H 0.41854 0.9803 0.99898 0.0
C26 C 0.62876 0.9786 0.02742 0.0
C27 C 0.64441 0.00579 0.0296 0.0
C28 C 0.66424 0.01029 0.04811 0.0
C29 C 0.6689 0.98775 0.06486 0.0
C30 C 0.65222 0.96113 0.06319 0.0
C31 C 0.63239 0.95664 0.04462 0.0
C32 C 0.62882 0.97352 0.98554 0.0
C33 C 0.64647 0.94902 0.97907 0.0
C34 C 0.66695 0.95142 0.96078 0.0
C35 C 0.67018 0.97849 0.94854 0.0
C36 C 0.65139 0.00265 0.95424 0.0
C37 C 0.63092 1.00024 0.97266 0.0
C38 C 0.58118 0.98251 0.00547 0.0
C39 C 0.57176 0.00893 0.01668 0.0
C40 C 0.5418 0.01784 0.01569 0.0
C41 C 0.52062 0.00106 0.00303 0.0
C42 C 0.53039 0.97519 0.99127 0.0
C43 C 0.56019 0.96596 0.99268 0.0
C44 C 0.38028 0.03676 0.02251 0.0
C45 C 0.36448 0.06234 0.0294 0.0
C46 C 0.34434 0.06119 0.04805 0.0
C47 C 0.33951 0.03426 0.06016 0.0
C48 C 0.35635 0.00893 0.05391 0.0
C49 C 0.37653 0.01013 0.03528 0.0
C50 C 0.3801 0.03056 0.98035 0.0
C51 C 0.36469 0.00329 0.97804 0.0
C52 C 0.3453 0.99863 0.95924 0.0
C53 C 0.34103 0.02104 0.94232 0.0
C54 C 0.35768 0.04766 0.94409 0.0
C55 C 0.37694 0.05234 0.96296 0.0
C56 C 0.42767 0.02783 0.00153 0.0
C57 C 0.45039 0.04931 0.00272 0.0
C58 C 0.48045 0.04076 0.00292 0.0
C59 C 0.4885 0.01031 0.0023 0.0
C60 C 0.46552 0.98877 0.00108 0.0
C61 C 0.43548 0.99743 0.00038 0.0
H62 H 0.92506 0.64734 0.52685 0.0
N63 N 0.96448 0.61378 0.50441 0.0
H64 H 0.93352 0.67797 0.56166 0.0
H65 H 0.01523 0.61391 0.53106 0.0
H66 H 0.02411 0.64476 0.56583 0.0
H67 H 0.0214 0.62947 0.49157 0.0
H68 H 0.03512 0.66291 0.45973 0.0
H69 H 0.92865 0.63586 0.47179 0.0
H70 H 0.94201 0.6702 0.44019 0.0
H71 H 0.91968 0.57702 0.51339 0.0
H72 H 0.01327 0.57812 0.49558 0.0
H73 H 0.92016 0.52244 0.51352 0.0
H74 H 0.01378 0.52352 0.49449 0.0
H75 H 0.91949 0.37093 0.53284 0.0
H76 H 0.92556 0.3381 0.56667 0.0
H77 H 0.02153 0.34141 0.55775 0.0
H78 H 0.01508 0.37327 0.52358 0.0
H79 H 0.01662 0.38672 0.48295 0.0
H80 H 0.03069 0.35267 0.45116 0.0
H81 H 0.93932 0.32145 0.44732 0.0
H82 H 0.92567 0.35542 0.47904 0.0
H83 H 0.92045 0.42721 0.48857 0.0
H84 H 0.92233 0.48176 0.48763 0.0
H85 H 0.01113 0.47923 0.51753 0.0
N86 N 0.96177 0.38982 0.50391 0.0
H87 H 0.00948 0.42464 0.51721 0.0
C88 C 0.96947 0.62861 0.52635 0.0
C89 C 0.94654 0.64633 0.53556 0.0
C90 C 0.95141 0.66371 0.55544 0.0
C91 C 0.97953 0.66384 0.56642 0.0
C92 C 0.00232 0.64533 0.55757 0.0
C93 C 0.99728 0.62767 0.53776 0.0
C94 C 0.97388 0.63002 0.48397 0.0
C95 C 0.00399 0.63761 0.48014 0.0
C96 C 0.01179 0.65707 0.46202 0.0
C97 C 0.98965 0.6695 0.4475 0.0
C98 C 0.9597 0.66082 0.45083 0.0
C99 C 0.95197 0.64127 0.46889 0.0
C100 C 0.96618 0.58165 0.50419 0.0
C101 C 0.94026 0.56538 0.50928 0.0
C102 C 0.94059 0.53418 0.50915 0.0
C103 C 0.96692 0.51842 0.50367 0.0
C104 C 0.99313 0.53483 0.49891 0.0
C105 C 0.99282 0.56617 0.49931 0.0
C106 C 0.96668 0.37465 0.52575 0.0
C107 C 0.94181 0.36501 0.53855 0.0
C108 C 0.94539 0.34632 0.55791 0.0
C109 C 0.97407 0.33693 0.56489 0.0
C110 C 0.99911 0.34782 0.55265 0.0
C111 C 0.99547 0.36639 0.53321 0.0
C112 C 0.97007 0.37337 0.48334 0.0
C113 C 0.99963 0.37279 0.47504 0.0
C114 C 0.00763 0.35328 0.45694 0.0
C115 C 0.98613 0.33431 0.44676 0.0
C116 C 0.95635 0.33601 0.45453 0.0
C117 C 0.94849 0.3553 0.47267 0.0
C118 C 0.9645 0.42188 0.50325 0.0
C119 C 0.94033 0.43853 0.4948 0.0
C120 C 0.94141 0.46971 0.49448 0.0
C121 C 0.96671 0.48507 0.50287 0.0
C122 C 0.99133 0.46824 0.51083 0.0
C123 C 0.99032 0.43691 0.51087 0.0
Li124 Li 0.00794 0.02917 0.26957 0.0
Li125 Li 0.00638 0.97409 0.26858 0.0
Li126 Li 0.03284 0.00294 0.23682 0.0
Li127 Li 0.97805 0.001 0.2397 0.0
C128 C 0.06694 0.00951 0.28275 0.0
N129 N 0.11754 0.02737 0.30677 0.0
C130 C 0.07328 0.99756 0.30477 0.0
C131 C 0.08665 0.03019 0.27281 0.0
C132 C 0.09887 0.00698 0.31667 0.0
C133 C 0.11203 0.03902 0.28525 0.0
C134 C 0.95901 0.99093 0.29339 0.0
C135 C 0.92854 0.95299 0.31161 0.0
N136 N 0.93214 0.96684 0.33257 0.0
C137 C 0.96228 0.00487 0.31509 0.0
C138 C 0.94186 0.96487 0.29158 0.0
C139 C 0.94855 0.99232 0.3347 0.0
C140 C 0.99018 0.08707 0.28116 0.0
N141 N 0.00843 0.06454 0.28827 0.0
C142 C 0.02611 0.09422 0.32016 0.0
C143 C 0.02599 0.06748 0.30753 0.0
C144 C 0.00779 0.1181 0.31304 0.0
C145 C 0.98952 0.11414 0.2933 0.0
H146 H 0.97617 0.08399 0.26594 0.0
H147 H 0.03988 0.04916 0.31317 0.0
C148 C 0.00653 0.9117 0.2758 0.0
N149 N 0.00759 0.93846 0.28704 0.0
C150 C 0.00562 0.88505 0.28849 0.0
C151 C 0.0077 0.91392 0.32415 0.0
C152 C 0.00858 0.94001 0.31075 0.0
C153 C 0.00593 0.88594 0.31302 0.0
H154 H 0.0062 0.91101 0.25694 0.0
H155 H 0.00941 0.96154 0.31929 0.0
C156 C 0.01392 0.06178 0.22418 0.0
N157 N 0.03404 0.11267 0.20168 0.0
C158 C 0.00141 0.07038 0.20284 0.0
C159 C 0.03634 0.07935 0.23424 0.0
C160 C 0.01198 0.09609 0.19168 0.0
C161 C 0.04628 0.10492 0.22257 0.0
C162 C 0.99261 0.95264 0.2163 0.0
C163 C 0.00341 0.95558 0.19351 0.0
C164 C 0.96727 0.93514 0.22055 0.0
C165 C 0.98844 0.94119 0.17526 0.0
C166 C 0.95289 0.92117 0.20183 0.0
N167 N 0.96368 0.92447 0.17976 0.0
C168 C 0.09147 0.98797 0.22394 0.0
C169 C 0.06652 0.01808 0.19602 0.0
C170 C 0.11748 0.98805 0.21045 0.0
N171 N 0.06684 0.0032 0.21672 0.0
C172 C 0.09204 0.01874 0.18195 0.0
C173 C 0.11808 0.00376 0.1892 0.0
H174 H 0.09099 0.97602 0.24036 0.0
H175 H 0.04643 0.02928 0.19031 0.0
C176 C 0.91551 0.9967 0.23335 0.0
N177 N 0.94185 0.00098 0.22199 0.0
C178 C 0.88878 0.99474 0.22084 0.0
C179 C 0.91665 0.00256 0.18518 0.0
C180 C 0.94287 0.00422 0.19839 0.0
C181 C 0.88916 0.99748 0.1964 0.0
H182 H 0.91523 0.99456 0.25213 0.0
H183 H 0.96413 0.00745 0.18977 0.0
O184 O 0.04196 1.00044 0.27086 0.0
O185 O 0.97248 0.00277 0.27403 0.0
O186 O 0.00379 0.03661 0.23529 0.0
O187 O 0.00663 0.96701 0.23432 0.0
H188 H 0.05854 0.9813 0.31265 0.0
H189 H 0.08269 0.03906 0.25554 0.0
H190 H 0.10391 0.99805 0.33379 0.0
H191 H 0.12741 0.05504 0.27776 0.0
H192 H 0.91541 0.93271 0.31049 0.0
H193 H 0.9754 0.02508 0.3168 0.0
H194 H 0.93919 0.95371 0.27494 0.0
H195 H 0.95099 0.00281 0.35162 0.0
H196 H 0.04069 0.09626 0.33518 0.0
H197 H 0.97457 0.13164 0.28741 0.0
H198 H 0.00477 0.86398 0.27919 0.0
H199 H 0.00766 0.9157 0.34301 0.0
H200 H 0.9838 0.0573 0.1949 0.0
H201 H 0.0457 0.07359 0.25101 0.0
H202 H 0.00261 0.10288 0.17509 0.0
H203 H 0.06365 0.11867 0.23016 0.0
H204 H 0.02301 0.969 0.18992 0.0
H205 H 0.95858 0.93269 0.23808 0.0
H206 H 0.99646 0.94339 0.15752 0.0
H207 H 0.93312 0.90777 0.20483 0.0
H208 H 0.13706 0.97635 0.21681 0.0
H209 H 0.09127 0.03058 0.16547 0.0
H210 H 0.86803 0.99122 0.2302 0.0
H211 H 0.91799 0.00448 0.16635 0.0
Li212 Li 0.97583 0.99986 0.76933 0.0
Li213 Li 0.03067 1.00038 0.76862 0.0
Li214 Li 0.00139 0.02765 0.73769 0.0
Li215 Li 0.00537 0.97273 0.73826 0.0
C216 C 0.99106 0.05807 0.78441 0.0
N217 N 0.96708 0.10521 0.80943 0.0
C218 C 0.00091 0.06397 0.80712 0.0
C219 C 0.96942 0.07652 0.77429 0.0
C220 C 0.98839 0.08778 0.81954 0.0
C221 C 0.95747 0.10014 0.78725 0.0
C222 C 0.01735 0.94901 0.78959 0.0
C223 C 0.05806 0.91785 0.80269 0.0
N224 N 0.04577 0.91703 0.82442 0.0
C225 C 0.00498 0.94764 0.81198 0.0
C226 C 0.04396 0.93378 0.78483 0.0
C227 C 0.01973 0.93143 0.82937 0.0
C228 C 0.91543 0.98695 0.78055 0.0
N229 N 0.94146 0.99834 0.78903 0.0
C230 C 0.91934 0.0055 0.82662 0.0
C231 C 0.94385 0.00746 0.8116 0.0
C232 C 0.8921 0.99397 0.81834 0.0
C233 C 0.89025 0.98481 0.79492 0.0
H234 H 0.91432 0.97908 0.76272 0.0
H235 H 0.965 0.01558 0.81812 0.0
C236 C 0.0927 0.00478 0.7778 0.0
N237 N 0.06531 0.00242 0.78792 0.0
C238 C 0.11837 0.00689 0.79162 0.0
C239 C 0.08713 0.00395 0.826 0.0
C240 C 0.0621 0.00204 0.81153 0.0
C241 C 0.11578 0.00661 0.81609 0.0
H242 H 0.0946 0.00543 0.75899 0.0
H243 H 0.04004 1.00031 0.81913 0.0
C244 C 0.94475 0.00656 0.72185 0.0
N245 N 0.89652 0.02482 0.69522 0.0
C246 C 0.93992 0.99421 0.69973 0.0
C247 C 0.92475 0.02785 0.73055 0.0
C248 C 0.9155 0.00383 0.6865 0.0
C249 C 0.90059 0.03688 0.7168 0.0
C250 C 0.05425 0.99238 0.71589 0.0
C251 C 0.05109 0.00568 0.69393 0.0
C252 C 0.07395 0.96839 0.71872 0.0
C253 C 0.0674 0.99442 0.67506 0.0
C254 C 0.08982 0.95774 0.69941 0.0
N255 N 0.08622 0.97085 0.67816 0.0
C256 C 0.01622 0.08697 0.72726 0.0
C257 C 0.98572 0.06439 0.69837 0.0
C258 C 0.01679 0.11377 0.71475 0.0
N259 N 1.00064 0.06306 0.71904 0.0
C260 C 0.98552 0.0908 0.68536 0.0
C261 C 0.00116 0.11596 0.69354 0.0
H262 H 0.02816 0.0852 0.74364 0.0
H263 H 0.97431 0.04491 0.69176 0.0
C264 C 0.00642 0.91046 0.73005 0.0
N265 N 0.00661 0.93757 0.71931 0.0
C266 C 0.00739 0.88418 0.71688 0.0
C267 C 0.00855 0.91416 0.68178 0.0
C268 C 0.00742 0.93985 0.69563 0.0
C269 C 0.00852 0.88583 0.6924 0.0
H270 H 0.00538 0.90919 0.74887 0.0
H271 H 0.00702 0.96163 0.68747 0.0
O272 O 0.00315 0.03483 0.77201 0.0
O273 O 0.00344 0.9651 0.77241 0.0
O274 O 0.96866 0.99745 0.73498 0.0
O275 O 0.03827 0.00294 0.73453 0.0
H276 H 0.01791 0.05021 0.81515 0.0
H277 H 0.96216 0.07292 0.75652 0.0
H278 H 0.99564 0.09243 0.83719 0.0
H279 H 0.94065 0.11453 0.77962 0.0
H280 H 0.07877 0.90613 0.79929 0.0
H281 H 0.98427 0.95903 0.81593 0.0
H282 H 0.0537 0.93441 0.76757 0.0
H283 H 0.01049 0.93031 0.84682 0.0
H284 H 0.92171 0.01283 0.84456 0.0
H285 H 0.86984 0.97529 0.78796 0.0
H286 H 0.13992 0.00938 0.7832 0.0
H287 H 0.08405 0.00326 0.84475 0.0
H288 H 0.95493 0.97748 0.6928 0.0
H289 H 0.92758 0.03701 0.74786 0.0
H290 H 0.91162 0.99459 0.6693 0.0
H291 H 0.88498 0.05337 0.72332 0.0
H292 H 0.03607 0.02434 0.69144 0.0
H293 H 0.07689 0.95802 0.73561 0.0
H294 H 0.06504 0.00438 0.65794 0.0
H295 H 0.10499 0.93906 0.70132 0.0
H296 H 0.02903 0.13268 0.72173 0.0
H297 H 0.97369 0.09136 0.66886 0.0
H298 H 0.00751 0.86282 0.7258 0.0
H299 H 0.00888 0.91648 0.66295 0.0
C300 C 0.29607 0.00739 0.07824 0.0
C301 C 0.31553 0.03209 0.07807 0.0
C302 C 0.27215 0.00611 0.09391 0.0
C303 C 0.26725 0.02944 0.10999 0.0
C304 C 0.28688 0.05398 0.10994 0.0
C305 C 0.31078 0.0553 0.0942 0.0
C306 C 0.24102 0.02987 0.12604 0.0
C307 C 0.22533 0.00526 0.13204 0.0
C308 C 0.1982 0.00589 0.14711 0.0
C309 C 0.1892 0.97941 0.15827 0.0
C310 C 0.16333 0.97872 0.17198 0.0
C311 C 0.14567 0.0045 0.1747 0.0
H312 H 0.18594 0.05233 0.14086 0.0
C313 C 0.15453 0.03098 0.16339 0.0
C314 C 0.18041 0.03168 0.14969 0.0
H315 H 0.14152 0.05128 0.16522 0.0
H316 H 0.29868 0.98947 0.06567 0.0
H317 H 0.25709 0.98725 0.09269 0.0
H318 H 0.2836 0.07236 0.12201 0.0
H319 H 0.32545 0.07458 0.09459 0.0
H320 H 0.23496 0.05134 0.13354 0.0
H321 H 0.23299 0.98343 0.12631 0.0
H322 H 0.2022 0.95911 0.15636 0.0
H323 H 0.15692 0.95783 0.18013 0.0
C324 C 0.99841 0.29076 0.58106 0.0
C325 C 0.97759 0.31412 0.58363 0.0
C326 C 1.0001 0.2678 0.59756 0.0
C327 C 0.98102 0.26768 0.61711 0.0
C328 C 0.96054 0.29122 0.61987 0.0
C329 C 0.95894 0.31428 0.60341 0.0
C330 C 0.9803 0.24228 0.63387 0.0
C331 C 0.00375 0.22397 0.63763 0.0
C332 C 0.00219 0.19713 0.65289 0.0
C333 C 0.02856 0.18621 0.66309 0.0
C334 C 0.02817 0.16016 0.6766 0.0
C335 C 0.00143 0.14418 0.67987 0.0
H336 H 0.95472 0.18839 0.64816 0.0
C337 C 0.97502 0.15503 0.66962 0.0
C338 C 0.97536 0.18121 0.65628 0.0
H339 H 0.95405 0.14326 0.6719 0.0
H340 H 0.01264 0.2895 0.56578 0.0
H341 H 0.01553 0.24962 0.59435 0.0
H342 H 0.94548 0.29162 0.6347 0.0
H343 H 0.94285 0.33206 0.60606 0.0
H344 H 0.95976 0.23889 0.64365 0.0
H345 H 0.02521 0.22903 0.62966 0.0
H346 H 0.04959 0.19781 0.66053 0.0
H347 H 0.04896 0.15214 0.68403 0.0
C348 C 0.71149 0.96722 0.0885 0.0
C349 C 0.69252 0.99128 0.08296 0.0
C350 C 0.73528 0.971 0.10405 0.0
C351 C 0.7406 0.99898 0.11455 0.0
C352 C 0.72145 0.02291 0.10924 0.0
C353 C 0.69759 0.0191 0.09373 0.0
C354 C 0.76697 0.00445 0.12981 0.0
C355 C 0.78086 0.98269 0.14196 0.0
C356 C 0.80818 0.98784 0.15619 0.0
C357 C 0.81448 0.96829 0.17473 0.0
C358 C 0.84054 0.97166 0.18795 0.0
C359 C 0.86113 0.99445 0.18269 0.0
H360 H 0.82521 0.02567 0.13634 0.0
C361 C 0.85498 0.01392 0.16403 0.0
C362 C 0.8288 0.01068 0.15091 0.0
H363 H 0.8704 0.03172 0.1596 0.0
H364 H 0.7087 0.94568 0.08012 0.0
H365 H 0.75004 0.95222 0.10704 0.0
H366 H 0.7251 0.04473 0.11697 0.0
H367 H 0.68327 0.03805 0.09002 0.0
H368 H 0.77466 0.0274 0.13145 0.0
H369 H 0.77145 0.9603 0.14216 0.0
H370 H 0.7992 0.95029 0.17899 0.0
H371 H 0.84486 0.95602 0.20199 0.0
C372 C 0.01121 0.70247 0.58636 0.0
C373 C 0.9853 0.68467 0.58611 0.0
C374 C 0.01511 0.72445 0.60348 0.0
C375 C 0.99312 0.72905 0.62071 0.0
C376 C 0.96801 0.7102 0.62113 0.0
C377 C 0.964 0.6884 0.60392 0.0
C378 C 0.99528 0.7535 0.63823 0.0
C379 C 0.00889 0.77982 0.63374 0.0
C380 C 0.0091 0.80602 0.64989 0.0
C381 C 0.02756 0.83046 0.64436 0.0
C382 C 0.02761 0.85621 0.65822 0.0
C383 C 0.00912 0.85817 0.678 0.0
H384 H 0.9755 0.79022 0.67463 0.0
C385 C 0.9908 0.8337 0.6837 0.0
C386 C 0.99067 0.80797 0.66981 0.0
H387 H 0.97592 0.83471 0.69862 0.0
H388 H 0.02801 0.70012 0.57285 0.0
H389 H 0.03526 0.73785 0.60305 0.0
H390 H 0.95094 0.71298 0.63439 0.0
H391 H 0.94401 0.67473 0.60435 0.0
H392 H 0.98364 0.75003 0.6546 0.0
H393 H 0.0198 0.7829 0.61696 0.0
H394 H 0.04195 0.82975 0.62914 0.0
H395 H 0.04224 0.87454 0.65348 0.0
C396 C 0.29942 0.04173 0.91773 0.0
C397 C 0.31782 0.01747 0.92389 0.0
C398 C 0.27622 0.0381 0.90165 0.0
C399 C 0.27056 0.00996 0.89153 0.0
C400 C 0.28959 0.986 0.89703 0.0
C401 C 0.31289 0.98964 0.91309 0.0
C402 C 0.24517 0.00487 0.87517 0.0
C403 C 0.2201 0.02168 0.87538 0.0
C404 C 0.19383 0.01673 0.85986 0.0
C405 C 0.16675 0.03084 0.86562 0.0
C406 C 0.1415 0.02743 0.85152 0.0
C407 C 0.14267 0.00983 0.8312 0.0
H408 H 0.21561 0.98855 0.83389 0.0
C409 C 0.16979 0.9958 0.8253 0.0
C410 C 0.19513 0.99927 0.83939 0.0
H411 H 0.17143 0.98196 0.80983 0.0
H412 H 0.30241 0.06345 0.92577 0.0
H413 H 0.26285 0.05746 0.89727 0.0
H414 H 0.28607 0.96419 0.88923 0.0
H415 H 0.32696 0.97061 0.91712 0.0
H416 H 0.24666 0.9856 0.86373 0.0
H417 H 0.21791 0.03927 0.88833 0.0
H418 H 0.16508 0.04467 0.88111 0.0
H419 H 0.12118 0.03904 0.85638 0.0
C420 C 0.97629 0.30517 0.41006 0.0
C421 C 0.9948 0.31128 0.42932 0.0
C422 C 0.98247 0.28111 0.39523 0.0
C423 C 0.00745 0.26264 0.39929 0.0
C424 C 0.02639 0.26931 0.41815 0.0
C425 C 0.02026 0.29344 0.43294 0.0
C426 C 0.01295 0.23491 0.38557 0.0
C427 C 0.00205 0.23021 0.36394 0.0
C428 C 0.00524 0.20133 0.35129 0.0
C429 C 0.00373 0.20118 0.32681 0.0
C430 C 0.00501 0.17429 0.31439 0.0
C431 C 0.00745 0.14681 0.32621 0.0
H432 H 0.008 0.17291 0.38204 0.0
C433 C 0.00895 0.14696 0.35075 0.0
C434 C 0.00781 0.17387 0.36316 0.0
H435 H 0.01018 0.12621 0.36045 0.0
H436 H 0.95657 0.31859 0.40676 0.0
H437 H 0.96686 0.27643 0.38127 0.0
H438 H 0.04564 0.25536 0.42182 0.0
H439 H 0.03473 0.29729 0.44781 0.0
H440 H 0.02671 0.2178 0.3937 0.0
H441 H 0.99078 0.24826 0.35481 0.0
H442 H 0.00153 0.22197 0.31724 0.0
H443 H 0.00419 0.17508 0.2955 0.0
C444 C 0.72336 0.9714 0.93629 0.0
C445 C 0.69453 0.98196 0.93112 0.0
C446 C 0.74671 0.97492 0.92036 0.0
C447 C 0.74175 0.9888 0.89861 0.0
C448 C 0.71297 0.99973 0.89359 0.0
C449 C 0.68959 0.99638 0.90967 0.0
C450 C 0.76614 0.99324 0.88117 0.0
C451 C 0.79195 0.97759 0.88134 0.0
C452 C 0.81703 0.98276 0.86479 0.0
C453 C 0.84602 0.97469 0.87179 0.0
C454 C 0.87033 0.97865 0.85682 0.0
C455 C 0.86618 0.99042 0.83431 0.0
H456 H 0.79071 1.00023 0.83591 0.0
C457 C 0.83714 0.9982 0.82711 0.0
C458 C 0.81278 0.99448 0.8422 0.0
H459 H 0.83328 0.00732 0.80984 0.0
H460 H 0.72807 0.96095 0.95296 0.0
H461 H 0.76863 0.96727 0.92558 0.0
H462 H 0.7085 0.0108 0.87713 0.0
H463 H 0.6676 0.00481 0.90523 0.0
H464 H 0.76259 0.01015 0.86786 0.0
H465 H 0.79562 0.96059 0.89453 0.0
H466 H 0.84991 0.96535 0.88899 0.0
H467 H 0.89235 0.97197 0.86273 0.0
C468 C 0.98293 0.69419 0.4083 0.0
C469 C 0.99738 0.69301 0.4301 0.0
C470 C 0.98856 0.71769 0.39278 0.0
C471 C 0.00872 0.74065 0.39878 0.0
C472 C 0.02397 0.73882 0.42015 0.0
C473 C 0.01827 0.71542 0.43569 0.0
C474 C 0.01439 0.76691 0.38345 0.0
C475 C 0.99431 0.77741 0.36791 0.0
C476 C 0.99882 0.80499 0.35376 0.0
C477 C 0.98161 0.80891 0.33348 0.0
C478 C 0.98417 0.83496 0.32015 0.0
C479 C 0.00385 0.85791 0.3269 0.0
H480 H 0.03158 0.82643 0.37641 0.0
C481 C 0.02104 0.85409 0.34724 0.0
C482 C 0.01853 0.82799 0.36056 0.0
H483 H 0.0365 0.87129 0.35288 0.0
H484 H 0.96719 0.67695 0.40324 0.0
H485 H 0.97719 0.7176 0.37611 0.0
H486 H 0.03977 0.75605 0.42518 0.0
H487 H 0.02957 0.71547 0.45242 0.0
H488 H 0.0354 0.77863 0.38596 0.0
H489 H 0.97331 0.76564 0.36546 0.0
H490 H 0.96598 0.79178 0.32796 0.0
H491 H 0.97022 0.83738 0.30479 0.0
loop_
_geom_bond_atom_site_label_1
_geom_bond_atom_site_label_2
_geom_bond_distance
_geom_bond_site_symmetry_2
_ccdc_geom_bond_type
H0 C27 0.929 . S
N1 C26 1.433 . S
N1 C32 1.435 1_554 S
N1 C38 1.423 . S
H2 C28 0.930 . S
H3 C31 0.931 . S
H4 C30 0.929 . S
H5 C33 0.930 . S
H6 C34 0.932 . S
H7 C37 0.929 . S
H8 C36 0.931 . S
H9 C39 0.929 . S
H10 C43 0.932 1_565 S
H11 C40 0.931 . S
H12 C42 0.929 1_565 S
H13 C45 0.929 . S
H14 C46 0.930 . S
H15 C48 0.929 . S
H16 C49 0.931 . S
H17 C51 0.930 . S
H18 C52 0.932 . S
H19 C54 0.931 . S
H20 C55 0.929 . S
H21 C57 0.929 . S
H22 C58 0.931 . S
H23 C60 0.929 1_565 S
N24 C44 1.433 . S
N24 C50 1.435 1_554 S
N24 C56 1.423 . S
H25 C61 0.932 1_565 S
C26 N1 1.433 . S
C26 C27 1.363 . S
C26 C31 1.370 1_545 S
C27 H0 0.929 . S
C27 C26 1.363 . S
C27 C28 1.385 . S
C28 H2 0.930 . S
C28 C27 1.385 . S
C28 C29 1.357 . S
C29 C28 1.357 . S
C29 C30 1.406 1_545 S
C30 H4 0.929 . S
C30 C29 1.406 1_565 S
C30 C31 1.391 . S
C31 H3 0.931 . S
C31 C26 1.370 1_565 S
C31 C30 1.391 . S
C32 N1 1.435 1_556 S
C32 C33 1.358 1_545 S
C32 C37 1.371 . S
C33 H5 0.930 . S
C33 C32 1.358 1_565 S
C33 C34 1.405 . S
C34 H6 0.932 . S
C34 C33 1.405 . S
C34 C35 1.383 1_565 S
C35 C34 1.383 1_545 S
C35 C36 1.393 . S
C36 H8 0.931 . S
C36 C35 1.393 . S
C36 C37 1.382 . S
C37 H7 0.929 . S
C37 C32 1.371 . S
C37 C36 1.382 . S
C38 N1 1.423 . S
C38 C39 1.361 . S
C38 C43 1.390 1_554 S
C39 H9 0.929 . S
C39 C38 1.361 . S
C39 C40 1.376 . S
C40 H11 0.931 . S
C40 C39 1.376 . S
C40 C41 1.396 1_554 S
C41 C40 1.396 1_556 S
C41 C42 1.348 . S
C41 C59 1.472 . S
C42 H12 0.929 1_545 S
C42 C41 1.348 . S
C42 C43 1.443 . S
C43 H10 0.932 1_545 S
C43 C38 1.390 1_556 S
C43 C42 1.443 . S
C44 N24 1.433 . S
C44 C45 1.363 . S
C44 C49 1.370 1_545 S
C45 H13 0.929 . S
C45 C44 1.363 . S
C45 C46 1.385 . S
C46 H14 0.930 . S
C46 C45 1.385 . S
C46 C47 1.357 . S
C47 C46 1.357 . S
C47 C48 1.406 1_545 S
C48 H15 0.929 . S
C48 C47 1.406 1_565 S
C48 C49 1.391 . S
C49 H16 0.931 . S
C49 C44 1.370 1_565 S
C49 C48 1.391 . S
C50 N24 1.435 1_556 S
C50 C51 1.358 1_545 S
C50 C55 1.371 . S
C51 H17 0.930 . S
C51 C50 1.358 1_565 S
C51 C52 1.405 . S
C52 H18 0.932 . S
C52 C51 1.405 . S
C52 C53 1.383 1_565 S
C53 C52 1.383 1_545 S
C53 C54 1.393 . S
C54 H19 0.931 . S
C54 C53 1.393 . S
C54 C55 1.382 . S
C55 H20 0.929 . S
C55 C50 1.371 . S
C55 C54 1.382 . S
C56 N24 1.423 . S
C56 C57 1.361 . S
C56 C61 1.390 1_554 S
C57 H21 0.929 . S
C57 C56 1.361 . S
C57 C58 1.376 . S
C58 H22 0.931 . S
C58 C57 1.376 . S
C58 C59 1.396 1_554 S
C59 C41 1.472 . S
C59 C58 1.396 1_556 S
C59 C60 1.348 . S
C60 H23 0.929 1_545 S
C60 C59 1.348 . S
C60 C61 1.443 . S
C61 H25 0.932 1_545 S
C61 C56 1.390 1_556 S
C61 C60 1.443 . S
H62 C89 0.929 . S
N63 C88 1.433 . S
N63 C94 1.435 . S
N63 C100 1.423 . S
H64 C90 0.930 . S
H65 C93 0.931 . S
H66 C92 0.929 . S
H67 C95 0.930 . S
H68 C96 0.932 . S
H69 C99 0.929 . S
H70 C98 0.931 . S
H71 C101 0.929 . S
H72 C105 0.932 1_455 S
H73 C102 0.931 . S
H74 C104 0.929 1_455 S
H75 C107 0.929 . S
H76 C108 0.930 . S
H77 C110 0.929 . S
H78 C111 0.931 . S
H79 C113 0.930 . S
H80 C114 0.932 . S
H81 C116 0.931 . S
H82 C117 0.929 . S
H83 C119 0.929 . S
H84 C120 0.931 . S
H85 C122 0.929 1_455 S
N86 C106 1.433 . S
N86 C112 1.435 . S
N86 C118 1.423 . S
H87 C123 0.932 1_455 S
C88 N63 1.433 . S
C88 C89 1.363 . S
C88 C93 1.370 1_655 S
C89 H62 0.929 . S
C89 C88 1.363 . S
C89 C90 1.385 . S
C90 H64 0.930 . S
C90 C89 1.385 . S
C90 C91 1.357 . S
C91 C90 1.357 . S
C91 C92 1.406 1_655 S
C92 H66 0.929 . S
C92 C91 1.406 1_455 S
C92 C93 1.391 . S
C93 H65 0.931 . S
C93 C88 1.370 1_455 S
C93 C92 1.391 . S
C94 N63 1.435 . S
C94 C95 1.358 1_655 S
C94 C99 1.371 . S
C95 H67 0.930 . S
C95 C94 1.358 1_455 S
C95 C96 1.405 . S
C96 H68 0.932 . S
C96 C95 1.405 . S
C96 C97 1.383 1_455 S
C97 C96 1.383 1_655 S
C97 C98 1.393 . S
C98 H70 0.931 . S
C98 C97 1.393 . S
C98 C99 1.382 . S
C99 H69 0.929 . S
C99 C94 1.371 . S
C99 C98 1.382 . S
C100 N63 1.423 . S
C100 C101 1.362 . S
C100 C105 1.388 . S
C101 H71 0.929 . S
C101 C100 1.362 . S
C101 C102 1.376 . S
C102 H73 0.931 . S
C102 C101 1.376 . S
C102 C103 1.396 . S
C103 C102 1.396 . S
C103 C104 1.348 . S
C103 C121 1.472 . S
C104 H74 0.929 1_655 S
C104 C103 1.348 . S
C104 C105 1.443 . S
C105 H72 0.932 1_655 S
C105 C100 1.388 . S
C105 C104 1.443 . S
C106 N86 1.433 . S
C106 C107 1.363 . S
C106 C111 1.370 1_655 S
C107 H75 0.929 . S
C107 C106 1.363 . S
C107 C108 1.385 . S
C108 H76 0.930 . S
C108 C107 1.385 . S
C108 C109 1.357 . S
C109 C108 1.357 . S
C109 C110 1.406 1_655 S
C110 H77 0.929 . S
C110 C109 1.406 1_455 S
C110 C111 1.391 . S
C111 H78 0.931 . S
C111 C106 1.370 1_455 S
C111 C110 1.391 . S
C112 N86 1.435 . S
C112 C113 1.358 1_655 S
C112 C117 1.371 . S
C113 H79 0.930 . S
C113 C112 1.358 1_455 S
C113 C114 1.405 . S
C114 H80 0.932 . S
C114 C113 1.405 . S
C114 C115 1.383 1_455 S
C115 C114 1.383 1_655 S
C115 C116 1.393 . S
C116 H81 0.931 . S
C116 C115 1.393 . S
C116 C117 1.382 . S
C117 H82 0.929 . S
C117 C112 1.371 . S
C117 C116 1.382 . S
C118 N86 1.423 . S
C118 C119 1.362 . S
C118 C123 1.388 . S
C119 H83 0.929 . S
C119 C118 1.362 . S
C119 C120 1.376 . S
C120 H84 0.931 . S
C120 C119 1.376 . S
C120 C121 1.396 . S
C121 C103 1.472 . S
C121 C120 1.396 . S
C121 C122 1.348 . S
C122 H85 0.929 1_655 S
C122 C121 1.348 . S
C122 C123 1.443 . S
C123 H87 0.932 1_655 S
C123 C118 1.388 . S
C123 C122 1.443 . S
Li124 N141 1.990 . S
Li124 O184 1.956 1_545 S
Li124 O185 1.970 1_455 S
Li124 O186 1.961 1_455 S
Li125 N149 1.990 . S
Li125 O184 1.970 1_655 S
Li125 O185 1.956 1_565 S
Li125 O187 1.961 1_655 S
Li126 N171 1.990 . S
Li126 O184 1.961 1_545 S
Li126 O186 1.956 1_455 S
Li126 O187 1.970 1_545 S
Li127 N177 1.990 . S
Li127 O185 1.961 1_565 S
Li127 O186 1.970 1_565 S
Li127 O187 1.956 1_655 S
C128 C130 1.348 1_545 S
C128 C131 1.356 . S
C128 O184 1.325 1_545 S
N129 C132 1.314 1_545 S
N129 C133 1.279 . S
C130 C128 1.348 1_565 S
C130 C132 1.353 . S
C130 H188 0.929 . S
C131 C128 1.356 . S
C131 C133 1.358 . S
C131 H189 0.930 . S
C132 N129 1.314 1_565 S
C132 C130 1.353 . S
C132 H190 0.930 . S
C133 N129 1.279 . S
C133 C131 1.358 . S
C133 H191 0.930 . S
C134 C137 1.348 . S
C134 C138 1.356 1_545 S
C134 O185 1.325 . S
C135 N136 1.279 . S
C135 C138 1.358 . S
C135 H192 0.930 . S
N136 C135 1.279 . S
N136 C139 1.314 1_565 S
C137 C134 1.348 . S
C137 C139 1.353 . S
C137 H193 0.929 . S
C138 C134 1.356 1_565 S
C138 C135 1.358 . S
C138 H194 0.930 . S
C139 N136 1.314 1_545 S
C139 C137 1.353 . S
C139 H195 0.930 . S
C140 N141 1.314 1_655 S
C140 C145 1.353 . S
C140 H146 0.930 . S
N141 Li124 1.990 . S
N141 C140 1.314 1_455 S
N141 C143 1.279 . S
C142 C143 1.358 . S
C142 C144 1.356 . S
C142 H196 0.930 . S
C143 N141 1.279 . S
C143 C142 1.358 . S
C143 H147 0.930 . S
C144 C142 1.356 . S
C144 C145 1.348 1_455 S
C145 C140 1.353 . S
C145 C144 1.348 1_655 S
C145 H197 0.929 . S
H146 C140 0.930 . S
H147 C143 0.930 . S
C148 N149 1.314 1_455 S
C148 C150 1.353 . S
C148 H154 0.930 . S
N149 Li125 1.990 . S
N149 C148 1.314 1_655 S
N149 C152 1.279 . S
C150 C148 1.353 . S
C150 C153 1.348 . S
C150 H198 0.929 . S
C151 C152 1.358 . S
C151 C153 1.356 1_655 S
C151 H199 0.930 . S
C152 N149 1.279 . S
C152 C151 1.358 . S
C152 H155 0.930 . S
C153 C150 1.348 . S
C153 C151 1.356 1_455 S
H154 C148 0.930 . S
H155 C152 0.930 . S
C156 C158 1.348 1_455 S
C156 C159 1.356 . S
C156 O186 1.325 1_455 S
N157 C160 1.314 1_455 S
N157 C161 1.279 . S
C158 C156 1.348 1_655 S
C158 C160 1.353 . S
C158 H200 0.929 . S
C159 C156 1.356 . S
C159 C161 1.358 . S
C159 H201 0.930 . S
C160 N157 1.314 1_655 S
C160 C158 1.353 . S
C160 H202 0.930 . S
C161 N157 1.279 . S
C161 C159 1.358 . S
C161 H203 0.930 . S
C162 C163 1.348 . S
C162 C164 1.356 1_455 S
C162 O187 1.325 . S
C163 C162 1.348 . S
C163 C165 1.353 . S
C163 H204 0.929 . S
C164 C162 1.356 1_655 S
C164 C166 1.358 . S
C164 H205 0.930 . S
C165 C163 1.353 . S
C165 N167 1.314 1_455 S
C165 H206 0.930 . S
C166 C164 1.358 . S
C166 N167 1.279 . S
C166 H207 0.930 . S
N167 C165 1.314 1_655 S
N167 C166 1.279 . S
C168 C170 1.353 . S
C168 N171 1.314 1_565 S
C168 H174 0.930 . S
C169 N171 1.279 . S
C169 C172 1.358 . S
C169 H175 0.930 . S
C170 C168 1.353 . S
C170 C173 1.348 1_565 S
C170 H208 0.929 . S
N171 Li126 1.990 . S
N171 C168 1.314 1_545 S
N171 C169 1.279 . S
C172 C169 1.358 . S
C172 C173 1.356 . S
C172 H209 0.930 . S
C173 C170 1.348 1_545 S
C173 C172 1.356 . S
H174 C168 0.930 . S
H175 C169 0.930 . S
C176 N177 1.314 1_545 S
C176 C178 1.353 . S
C176 H182 0.930 . S
N177 Li127 1.990 . S
N177 C176 1.314 1_565 S
N177 C180 1.279 . S
C178 C176 1.353 . S
C178 C181 1.348 . S
C178 H210 0.929 . S
C179 C180 1.358 . S
C179 C181 1.356 1_565 S
C179 H211 0.930 . S
C180 N177 1.279 . S
C180 C179 1.358 . S
C180 H183 0.930 . S
C181 C178 1.348 . S
C181 C179 1.356 1_545 S
H182 C176 0.930 . S
H183 C180 0.930 . S
O184 Li124 1.956 1_565 S
O184 Li125 1.970 1_455 S
O184 Li126 1.961 1_565 S
O184 C128 1.325 1_565 S
O185 Li124 1.970 1_655 S
O185 Li125 1.956 1_545 S
O185 Li127 1.961 1_545 S
O185 C134 1.325 . S
O186 Li124 1.961 1_655 S
O186 Li126 1.956 1_655 S
O186 Li127 1.970 1_545 S
O186 C156 1.325 1_655 S
O187 Li125 1.961 1_455 S
O187 Li126 1.970 1_565 S
O187 Li127 1.956 1_455 S
O187 C162 1.325 . S
H188 C130 0.929 . S
H189 C131 0.930 . S
H190 C132 0.930 . S
H191 C133 0.930 . S
H192 C135 0.930 . S
H193 C137 0.929 . S
H194 C138 0.930 . S
H195 C139 0.930 . S
H196 C142 0.930 . S
H197 C145 0.929 . S
H198 C150 0.929 . S
H199 C151 0.930 . S
H200 C158 0.929 . S
H201 C159 0.930 . S
H202 C160 0.930 . S
H203 C161 0.930 . S
H204 C163 0.929 . S
H205 C164 0.930 . S
H206 C165 0.930 . S
H207 C166 0.930 . S
H208 C170 0.929 . S
H209 C172 0.930 . S
H210 C178 0.929 . S
H211 C179 0.930 . S
Li212 N229 1.990 . S
Li212 O272 1.956 1_655 S
Li212 O273 1.970 1_545 S
Li212 O274 1.961 1_545 S
Li213 N237 1.990 . S
Li213 O272 1.970 1_565 S
Li213 O273 1.956 1_455 S
Li213 O275 1.961 1_565 S
Li214 N259 1.990 . S
Li214 O272 1.961 1_655 S
Li214 O274 1.956 1_545 S
Li214 O275 1.970 1_655 S
Li215 N265 1.990 . S
Li215 O273 1.961 1_455 S
Li215 O274 1.970 1_455 S
Li215 O275 1.956 1_565 S
C216 C218 1.348 . S
C216 C219 1.356 1_455 S
C216 O272 1.325 . S
N217 C220 1.314 1_655 S
N217 C221 1.279 . S
C218 C216 1.348 . S
C218 C220 1.353 . S
C218 H276 0.929 . S
C219 C216 1.356 1_655 S
C219 C221 1.358 . S
C219 H277 0.930 . S
C220 N217 1.314 1_455 S
C220 C218 1.353 . S
C220 H278 0.930 . S
C221 N217 1.279 . S
C221 C219 1.358 . S
C221 H279 0.930 . S
C222 C225 1.348 1_455 S
C222 C226 1.356 . S
C222 O273 1.325 1_455 S
C223 N224 1.279 . S
C223 C226 1.358 . S
C223 H280 0.930 . S
N224 C223 1.279 . S
N224 C227 1.314 1_455 S
C225 C222 1.348 1_655 S
C225 C227 1.353 . S
C225 H281 0.929 . S
C226 C222 1.356 . S
C226 C223 1.358 . S
C226 H282 0.930 . S
C227 N224 1.314 1_655 S
C227 C225 1.353 . S
C227 H283 0.930 . S
C228 N229 1.314 1_565 S
C228 C233 1.353 . S
C228 H234 0.930 . S
N229 Li212 1.990 . S
N229 C228 1.314 1_545 S
N229 C231 1.279 . S
C230 C231 1.358 . S
C230 C232 1.356 . S
C230 H284 0.930 . S
C231 N229 1.279 . S
C231 C230 1.358 . S
C231 H235 0.930 . S
C232 C230 1.356 . S
C232 C233 1.348 1_545 S
C233 C228 1.353 . S
C233 C232 1.348 1_565 S
C233 H285 0.929 . S
H234 C228 0.930 . S
H235 C231 0.930 . S
C236 N237 1.314 1_545 S
C236 C238 1.353 . S
C236 H242 0.930 . S
N237 Li213 1.990 . S
N237 C236 1.314 1_565 S
N237 C240 1.279 . S
C238 C236 1.353 . S
C238 C241 1.348 . S
C238 H286 0.929 . S
C239 C240 1.358 . S
C239 C241 1.356 1_565 S
C239 H287 0.930 . S
C240 N237 1.279 . S
C240 C239 1.358 . S
C240 H243 0.930 . S
C241 C238 1.348 . S
C241 C239 1.356 1_545 S
H242 C236 0.930 . S
H243 C240 0.930 . S
C244 C246 1.348 1_545 S
C244 C247 1.356 . S
C244 O274 1.325 1_545 S
N245 C248 1.314 1_545 S
N245 C249 1.279 . S
C246 C244 1.348 1_565 S
C246 C248 1.353 . S
C246 H288 0.929 . S
C247 C244 1.356 . S
C247 C249 1.358 . S
C247 H289 0.930 . S
C248 N245 1.314 1_565 S
C248 C246 1.353 . S
C248 H290 0.930 . S
C249 N245 1.279 . S
C249 C247 1.358 . S
C249 H291 0.930 . S
C250 C251 1.348 . S
C250 C252 1.356 1_545 S
C250 O275 1.325 . S
C251 C250 1.348 . S
C251 C253 1.353 . S
C251 H292 0.929 . S
C252 C250 1.356 1_565 S
C252 C254 1.358 . S
C252 H293 0.930 . S
C253 C251 1.353 . S
C253 N255 1.314 1_545 S
C253 H294 0.930 . S
C254 C252 1.358 . S
C254 N255 1.279 . S
C254 H295 0.930 . S
N255 C253 1.314 1_565 S
N255 C254 1.279 . S
C256 C258 1.353 . S
C256 N259 1.314 1_455 S
C256 H262 0.930 . S
C257 N259 1.279 . S
C257 C260 1.358 . S
C257 H263 0.930 . S
C258 C256 1.353 . S
C258 C261 1.348 . S
C258 H296 0.929 . S
N259 Li214 1.990 . S
N259 C256 1.314 1_655 S
N259 C257 1.279 . S
C260 C257 1.358 . S
C260 C261 1.356 1_655 S
C260 H297 0.930 . S
C261 C258 1.348 . S
C261 C260 1.356 1_455 S
H262 C256 0.930 . S
H263 C257 0.930 . S
C264 N265 1.314 1_655 S
C264 C266 1.353 . S
C264 H270 0.930 . S
N265 Li215 1.990 . S
N265 C264 1.314 1_455 S
N265 C268 1.279 . S
C266 C264 1.353 . S
C266 C269 1.348 1_655 S
C266 H298 0.929 . S
C267 C268 1.358 . S
C267 C269 1.356 . S
C267 H299 0.930 . S
C268 N265 1.279 . S
C268 C267 1.358 . S
C268 H271 0.930 . S
C269 C266 1.348 1_455 S
C269 C267 1.356 . S
H270 C264 0.930 . S
H271 C268 0.930 . S
O272 Li212 1.956 1_455 S
O272 Li213 1.970 1_545 S
O272 Li214 1.961 1_455 S
O272 C216 1.325 . S
O273 Li212 1.970 1_565 S
O273 Li213 1.956 1_655 S
O273 Li215 1.961 1_655 S
O273 C222 1.325 1_655 S
O274 Li212 1.961 1_565 S
O274 Li214 1.956 1_565 S
O274 Li215 1.970 1_655 S
O274 C244 1.325 1_565 S
O275 Li213 1.961 1_545 S
O275 Li214 1.970 1_455 S
O275 Li215 1.956 1_545 S
O275 C250 1.325 . S
H276 C218 0.929 . S
H277 C219 0.930 . S
H278 C220 0.930 . S
H279 C221 0.930 . S
H280 C223 0.930 . S
H281 C225 0.929 . S
H282 C226 0.930 . S
H283 C227 0.930 . S
H284 C230 0.930 . S
H285 C233 0.929 . S
H286 C238 0.929 . S
H287 C239 0.930 . S
H288 C246 0.929 . S
H289 C247 0.930 . S
H290 C248 0.930 . S
H291 C249 0.930 . S
H292 C251 0.929 . S
H293 C252 0.930 . S
H294 C253 0.930 . S
H295 C254 0.930 . S
H296 C258 0.929 . S
H297 C260 0.930 . S
H298 C266 0.929 . S
H299 C267 0.930 . S
C300 C301 1.386 1_565 S
C300 C302 1.383 . S
C300 H316 0.951 . S
C301 C300 1.386 1_545 S
C301 C305 1.383 . S
C302 C300 1.383 . S
C302 C303 1.402 1_565 S
C302 H317 0.951 . S
C303 C302 1.402 1_545 S
C303 C304 1.375 . S
C303 C306 1.481 . S
C304 C303 1.375 . S
C304 C305 1.367 . S
C304 H318 0.951 . S
C305 C301 1.383 . S
C305 C304 1.367 . S
C305 H319 0.950 . S
C306 C303 1.481 . S
C306 C307 1.297 1_545 S
C306 H320 0.950 . S
C307 C306 1.297 1_565 S
C307 C308 1.479 . S
C307 H321 0.950 . S
C308 C307 1.479 . S
C308 C309 1.375 . S
C308 C314 1.404 1_565 S
C309 C308 1.375 . S
C309 C310 1.369 . S
C309 H322 0.950 . S
C310 C309 1.369 . S
C310 C311 1.392 . S
C310 H323 0.951 . S
C311 C310 1.392 . S
C311 C313 1.384 1_565 S
H312 C314 0.949 . S
C313 C311 1.384 1_545 S
C313 C314 1.385 . S
C313 H315 0.950 . S
C314 C308 1.404 1_545 S
C314 H312 0.949 . S
C314 C313 1.385 . S
H315 C313 0.950 . S
H316 C300 0.951 . S
H317 C302 0.951 . S
H318 C304 0.951 . S
H319 C305 0.950 . S
H320 C306 0.950 . S
H321 C307 0.950 . S
H322 C309 0.950 . S
H323 C310 0.951 . S
C324 C325 1.386 1_455 S
C324 C326 1.383 . S
C324 H340 0.951 . S
C325 C324 1.386 1_655 S
C325 C329 1.383 . S
C326 C324 1.383 . S
C326 C327 1.402 1_455 S
C326 H341 0.951 . S
C327 C326 1.402 1_655 S
C327 C328 1.375 . S
C327 C330 1.481 . S
C328 C327 1.375 . S
C328 C329 1.367 . S
C328 H342 0.951 . S
C329 C325 1.383 . S
C329 C328 1.367 . S
C329 H343 0.950 . S
C330 C327 1.481 . S
C330 C331 1.297 1_655 S
C330 H344 0.950 . S
C331 C330 1.297 1_455 S
C331 C332 1.479 . S
C331 H345 0.950 . S
C332 C331 1.479 . S
C332 C333 1.375 . S
C332 C338 1.404 1_455 S
C333 C332 1.375 . S
C333 C334 1.369 . S
C333 H346 0.950 . S
C334 C333 1.369 . S
C334 C335 1.392 . S
C334 H347 0.951 . S
C335 C334 1.392 . S
C335 C337 1.384 1_455 S
H336 C338 0.949 . S
C337 C335 1.384 1_655 S
C337 C338 1.385 . S
C337 H339 0.950 . S
C338 C332 1.404 1_655 S
C338 H336 0.949 . S
C338 C337 1.385 . S
H339 C337 0.950 . S
H340 C324 0.951 . S
H341 C326 0.951 . S
H342 C328 0.951 . S
H343 C329 0.950 . S
H344 C330 0.950 . S
H345 C331 0.950 . S
H346 C333 0.950 . S
H347 C334 0.951 . S
C348 C349 1.383 1_565 S
C348 C350 1.383 . S
C348 H364 0.951 . S
C349 C348 1.383 1_545 S
C349 C353 1.385 . S
C350 C348 1.383 . S
C350 C351 1.387 1_565 S
C350 H365 0.951 . S
C351 C350 1.387 1_545 S
C351 C352 1.390 . S
C351 C354 1.482 . S
C352 C351 1.390 . S
C352 C353 1.367 . S
C352 H366 0.951 . S
C353 C349 1.385 . S
C353 C352 1.367 . S
C353 H367 0.950 . S
C354 C351 1.482 . S
C354 C355 1.297 1_545 S
C354 H368 0.950 . S
C355 C354 1.297 1_565 S
C355 C356 1.479 . S
C355 H369 0.950 . S
C356 C355 1.479 . S
C356 C357 1.375 . S
C356 C362 1.404 1_565 S
C357 C356 1.375 . S
C357 C358 1.369 . S
C357 H370 0.950 . S
C358 C357 1.369 . S
C358 C359 1.392 . S
C358 H371 0.951 . S
C359 C358 1.392 . S
C359 C361 1.384 1_565 S
H360 C362 0.949 . S
C361 C359 1.384 1_545 S
C361 C362 1.385 . S
C361 H363 0.950 . S
C362 C356 1.404 1_545 S
C362 H360 0.949 . S
C362 C361 1.385 . S
H363 C361 0.950 . S
H364 C348 0.951 . S
H365 C350 0.951 . S
H366 C352 0.951 . S
H367 C353 0.950 . S
H368 C354 0.950 . S
H369 C355 0.950 . S
H370 C357 0.950 . S
H371 C358 0.951 . S
C372 C373 1.386 1_455 S
C372 C374 1.383 . S
C372 H388 0.951 . S
C373 C372 1.386 1_655 S
C373 C377 1.383 . S
C374 C372 1.383 . S
C374 C375 1.402 1_455 S
C374 H389 0.951 . S
C375 C374 1.402 1_655 S
C375 C376 1.375 . S
C375 C378 1.481 . S
C376 C375 1.375 . S
C376 C377 1.367 . S
C376 H390 0.951 . S
C377 C373 1.383 . S
C377 C376 1.367 . S
C377 H391 0.950 . S
C378 C375 1.481 . S
C378 C379 1.297 . S
C378 H392 0.950 . S
C379 C378 1.297 . S
C379 C380 1.479 . S
C379 H393 0.950 1_655 S
C380 C379 1.479 . S
C380 C381 1.375 1_655 S
C380 C386 1.404 . S
C381 C380 1.375 1_455 S
C381 C382 1.369 . S
C381 H394 0.950 . S
C382 C381 1.369 . S
C382 C383 1.392 1_455 S
C382 H395 0.951 . S
C383 C382 1.392 1_655 S
C383 C385 1.384 . S
H384 C386 0.949 . S
C385 C383 1.384 . S
C385 C386 1.385 . S
C385 H387 0.950 . S
C386 C380 1.404 . S
C386 H384 0.949 . S
C386 C385 1.385 . S
H387 C385 0.950 . S
H388 C372 0.951 . S
H389 C374 0.951 . S
H390 C376 0.951 . S
H391 C377 0.950 . S
H392 C378 0.950 . S
H393 C379 0.950 1_455 S
H394 C381 0.950 . S
H395 C382 0.951 . S
C396 C397 1.379 1_545 S
C396 C398 1.383 . S
C396 H412 0.951 . S
C397 C396 1.379 1_565 S
C397 C401 1.390 . S
C398 C396 1.383 . S
C398 C399 1.402 1_545 S
C398 H413 0.951 . S
C399 C398 1.402 1_565 S
C399 C400 1.375 . S
C399 C402 1.481 . S
C400 C399 1.375 . S
C400 C401 1.367 . S
C400 H414 0.951 . S
C401 C397 1.390 . S
C401 C400 1.367 . S
C401 H415 0.950 . S
C402 C399 1.481 . S
C402 C403 1.297 1_565 S
C402 H416 0.950 . S
C403 C402 1.297 1_545 S
C403 C404 1.479 . S
C403 H417 0.950 . S
C404 C403 1.479 . S
C404 C405 1.375 . S
C404 C410 1.404 1_545 S
C405 C404 1.375 . S
C405 C406 1.369 . S
C405 H418 0.950 . S
C406 C405 1.369 . S
C406 C407 1.392 . S
C406 H419 0.951 . S
C407 C406 1.392 . S
C407 C409 1.384 1_545 S
H408 C410 0.949 . S
C409 C407 1.384 1_565 S
C409 C410 1.385 . S
C409 H411 0.950 . S
C410 C404 1.404 1_565 S
C410 H408 0.949 . S
C410 C409 1.385 . S
H411 C409 0.950 . S
H412 C396 0.951 . S
H413 C398 0.951 . S
H414 C400 0.951 . S
H415 C401 0.950 . S
H416 C402 0.950 . S
H417 C403 0.950 . S
H418 C405 0.950 . S
H419 C406 0.951 . S
C420 C421 1.386 . S
C420 C422 1.383 . S
C420 H436 0.951 . S
C421 C420 1.386 . S
C421 C425 1.383 1_455 S
C422 C420 1.383 . S
C422 C423 1.402 . S
C422 H437 0.951 . S
C423 C422 1.402 . S
C423 C424 1.371 1_455 S
C423 C426 1.481 . S
C424 C423 1.371 1_655 S
C424 C425 1.368 . S
C424 H438 0.955 . S
C425 C421 1.383 1_655 S
C425 C424 1.368 . S
C425 H439 0.950 . S
C426 C423 1.481 . S
C426 C427 1.297 . S
C426 H440 0.950 . S
C427 C426 1.297 . S
C427 C428 1.479 . S
C427 H441 0.950 . S
C428 C427 1.479 . S
C428 C429 1.375 . S
C428 C434 1.404 . S
C429 C428 1.375 . S
C429 C430 1.369 . S
C429 H442 0.950 . S
C430 C429 1.369 . S
C430 C431 1.392 . S
C430 H443 0.951 . S
C431 C430 1.392 . S
C431 C433 1.384 . S
H432 C434 0.949 . S
C433 C431 1.384 . S
C433 C434 1.385 . S
C433 H435 0.950 . S
C434 C428 1.404 . S
C434 H432 0.949 . S
C434 C433 1.385 . S
H435 C433 0.950 . S
H436 C420 0.951 . S
H437 C422 0.951 . S
H438 C424 0.955 . S
H439 C425 0.950 . S
H440 C426 0.950 . S
H441 C427 0.950 . S
H442 C429 0.950 . S
H443 C430 0.951 . S
C444 C445 1.378 1_565 S
C444 C446 1.383 . S
C444 H460 0.951 . S
C445 C444 1.378 1_545 S
C445 C449 1.391 . S
C446 C444 1.383 . S
C446 C447 1.402 1_565 S
C446 H461 0.951 . S
C447 C446 1.402 1_545 S
C447 C448 1.375 . S
C447 C450 1.481 . S
C448 C447 1.375 . S
C448 C449 1.367 . S
C448 H462 0.951 . S
C449 C445 1.391 . S
C449 C448 1.367 . S
C449 H463 0.950 . S
C450 C447 1.481 . S
C450 C451 1.297 1_545 S
C450 H464 0.950 . S
C451 C450 1.297 1_565 S
C451 C452 1.479 . S
C451 H465 0.950 . S
C452 C451 1.479 . S
C452 C453 1.375 . S
C452 C458 1.404 1_565 S
C453 C452 1.375 . S
C453 C454 1.369 . S
C453 H466 0.950 . S
C454 C453 1.369 . S
C454 C455 1.392 . S
C454 H467 0.951 . S
C455 C454 1.392 . S
C455 C457 1.384 1_565 S
H456 C458 0.949 . S
C457 C455 1.384 1_545 S
C457 C458 1.385 . S
C457 H459 0.950 . S
C458 C452 1.404 1_545 S
C458 H456 0.949 . S
C458 C457 1.385 . S
H459 C457 0.950 . S
H460 C444 0.951 . S
H461 C446 0.951 . S
H462 C448 0.951 . S
H463 C449 0.950 . S
H464 C450 0.950 . S
H465 C451 0.950 . S
H466 C453 0.950 . S
H467 C454 0.951 . S
C468 C469 1.390 . S
C468 C470 1.383 . S
C468 H484 0.951 . S
C469 C468 1.390 . S
C469 C473 1.379 1_655 S
C470 C468 1.383 . S
C470 C471 1.402 . S
C470 H485 0.951 . S
C471 C470 1.402 . S
C471 C472 1.375 1_655 S
C471 C474 1.481 . S
C472 C471 1.375 1_455 S
C472 C473 1.367 . S
C472 H486 0.951 . S
C473 C469 1.379 1_455 S
C473 C472 1.367 . S
C473 H487 0.950 . S
C474 C471 1.481 . S
C474 C475 1.297 . S
C474 H488 0.950 1_655 S
C475 C474 1.297 . S
C475 C476 1.479 . S
C475 H489 0.950 . S
C476 C475 1.479 . S
C476 C477 1.375 . S
C476 C482 1.402 1_655 S
C477 C476 1.375 . S
C477 C478 1.369 . S
C477 H490 0.950 . S
C478 C477 1.369 . S
C478 C479 1.392 . S
C478 H491 0.951 . S
C479 C478 1.392 . S
C479 C481 1.384 1_655 S
H480 C482 0.950 . S
C481 C479 1.384 1_455 S
C481 C482 1.385 . S
C481 H483 0.950 . S
C482 C476 1.402 1_455 S
C482 H480 0.950 . S
C482 C481 1.385 . S
H483 C481 0.950 . S
H484 C468 0.951 . S
H485 C470 0.951 . S
H486 C472 0.951 . S
H487 C473 0.950 . S
H488 C474 0.950 1_455 S
H489 C475 0.950 . S
H490 C477 0.950 . S
H491 C478 0.951 . S
C311 C173 1.751 1_565 S
C301 C47 1.666 . S
C335 C261 1.751 . S
C325 C109 1.664 . S
C359 C181 1.759 1_565 S
C349 C29 1.614 . S
C383 C269 1.766 1_655 S
C373 C91 1.638 . S
C407 C241 1.364 . S
C397 C53 1.366 1_565 S
C431 C144 1.356 . S
C421 C115 1.333 1_455 S
C455 C232 1.365 1_565 S
C445 C35 1.371 . S
C469 C97 1.330 . S
C479 C153 1.360 1_655 S
