# Generated by pormake.
# Topology pyr, (3,6)-cn, num edge types: 1
# Building blocks:
#     Node 0, Type 0, BuildingBlock: VETTIZ_charged_linker_0, # of connection points: 3
#     Node 1, Type 0, BuildingBlock: VETTIZ_charged_linker_0, # of connection points: 3
#     Node 2, Type 0, BuildingBlock: VETTIZ_charged_linker_0, # of connection points: 3
#     Node 3, Type 0, BuildingBlock: VETTIZ_charged_linker_0, # of connection points: 3
#     Node 4, Type 0, BuildingBlock: VETTIZ_charged_linker_0, # of connection points: 3
#     Node 5, Type 0, BuildingBlock: VETTIZ_charged_linker_0, # of connection points: 3
#     Node 6, Type 0, BuildingBlock: VETTIZ_charged_linker_0, # of connection points: 3
#     Node 7, Type 0, BuildingBlock: VETTIZ_charged_linker_0, # of connection points: 3
#     Node 8, Type 1, BuildingBlock: VOLQOD_clean_sbu_1, # of connection points: 6
#     Node 9, Type 1, BuildingBlock: VOLQOD_clean_sbu_1, # of connection points: 6
#     Node 10, Type 1, BuildingBlock: VOLQOD_clean_sbu_1, # of connection points: 6
#     Node 11, Type 1, BuildingBlock: VOLQOD_clean_sbu_1, # of connection points: 6
#     Edge 12, Type (0, 1), BuildingBlock: EZIPEK_clean_linker_0, # of connection points: 2
#     Edge 13, Type (0, 1), BuildingBlock: EZIPEK_clean_linker_0, # of connection points: 2
#     Edge 14, Type (0, 1), BuildingBlock: EZIPEK_clean_linker_0, # of connection points: 2
#     Edge 15, Type (0, 1), BuildingBlock: EZIPEK_clean_linker_0, # of connection points: 2
#     Edge 16, Type (0, 1), BuildingBlock: EZIPEK_clean_linker_0, # of connection points: 2
#     Edge 17, Type (0, 1), BuildingBlock: EZIPEK_clean_linker_0, # of connection points: 2
#     Edge 18, Type (0, 1), BuildingBlock: EZIPEK_clean_linker_0, # of connection points: 2
#     Edge 19, Type (0, 1), BuildingBlock: EZIPEK_clean_linker_0, # of connection points: 2
#     Edge 20, Type (0, 1), BuildingBlock: EZIPEK_clean_linker_0, # of connection points: 2
#     Edge 21, Type (0, 1), BuildingBlock: EZIPEK_clean_linker_0, # of connection points: 2
#     Edge 22, Type (0, 1), BuildingBlock: EZIPEK_clean_linker_0, # of connection points: 2
#     Edge 23, Type (0, 1), BuildingBlock: EZIPEK_clean_linker_0, # of connection points: 2
#     Edge 24, Type (0, 1), BuildingBlock: EZIPEK_clean_linker_0, # of connection points: 2
#     Edge 25, Type (0, 1), BuildingBlock: EZIPEK_clean_linker_0, # of connection points: 2
#     Edge 26, Type (0, 1), BuildingBlock: EZIPEK_clean_linker_0, # of connection points: 2
#     Edge 27, Type (0, 1), BuildingBlock: EZIPEK_clean_linker_0, # of connection points: 2
#     Edge 28, Type (0, 1), BuildingBlock: EZIPEK_clean_linker_0, # of connection points: 2
#     Edge 29, Type (0, 1), BuildingBlock: EZIPEK_clean_linker_0, # of connection points: 2
#     Edge 30, Type (0, 1), BuildingBlock: EZIPEK_clean_linker_0, # of connection points: 2
#     Edge 31, Type (0, 1), BuildingBlock: EZIPEK_clean_linker_0, # of connection points: 2
#     Edge 32, Type (0, 1), BuildingBlock: EZIPEK_clean_linker_0, # of connection points: 2
#     Edge 33, Type (0, 1), BuildingBlock: EZIPEK_clean_linker_0, # of connection points: 2
#     Edge 34, Type (0, 1), BuildingBlock: EZIPEK_clean_linker_0, # of connection points: 2
#     Edge 35, Type (0, 1), BuildingBlock: EZIPEK_clean_linker_0, # of connection points: 2
# Relax obj value: 0.035
# Max RMSD: 0.119
# Mean RMSD: 0.042
data_MOF--net-pry--node1-VOLQOD_clean_sbu_1--node2-VETTIZ_charged_linker_0--edge1-EZIPEK_clean_linker_0
_symmetry_space_group_name_H-M    P1
_symmetry_Int_Tables_number       1
_symmetry_cell_setting            triclinic
loop_
_symmetry_equiv_pos_as_xyz
'x, y, z'
_cell_length_a     35.589252
_cell_length_b     35.581331
_cell_length_c     35.726174
_cell_angle_alpha  90.014423
_cell_angle_beta   90.006223
_cell_angle_gamma 90.018658
loop_
_atom_site_label
_atom_site_type_symbol
_atom_site_fract_x
_atom_site_fract_y
_atom_site_fract_z
_atom_type_partial_charge
C0 C 0.09481 0.06378 0.24438 0.0
C1 C 0.06291 0.07667 0.26356 0.0
C2 C 0.04001 0.10432 0.24695 0.0
C3 C 0.08316 0.10884 0.19469 0.0
C4 C 0.10409 0.07986 0.20984 0.0
C5 C 0.13694 0.06934 0.18558 0.0
H6 H 0.25139 0.11116 0.04073 0.0
C7 C 0.10212 0.12148 0.16013 0.0
C8 C 0.13319 0.0979 0.15421 0.0
H9 H 0.25911 0.01747 0.11699 0.0
H10 H 0.20039 0.03565 0.14605 0.0
H11 H 0.22608 0.17073 0.10067 0.0
H12 H 0.16165 0.10281 0.02451 0.0
H13 H 0.13992 0.1471 0.02591 0.0
H14 H 0.1877 0.1432 0.00932 0.0
H15 H 0.22448 0.17971 0.05127 0.0
H16 H 0.19025 0.19941 0.08283 0.0
C17 C 0.17334 0.0753 0.20862 0.0
C18 C 0.13106 0.02851 0.17148 0.0
C19 C 0.06218 0.24379 0.09818 0.0
C20 C 0.07744 0.2646 0.06847 0.0
C21 C 0.10754 0.24975 0.04773 0.0
C22 C 0.12316 0.21492 0.0572 0.0
C23 C 0.10873 0.19496 0.08798 0.0
C24 C 0.07832 0.20912 0.10753 0.0
C25 C 0.06699 0.18409 0.13956 0.0
C26 C 0.09605 0.15294 0.13639 0.0
C27 C 0.12051 0.15966 0.10627 0.0
C28 C 0.07137 0.20688 0.17625 0.0
C29 C 0.02662 0.1695 0.13224 0.0
C30 C 0.23993 0.09445 0.06337 0.0
C31 C 0.25939 0.06302 0.07688 0.0
C32 C 0.24417 0.04175 0.10636 0.0
C33 C 0.21029 0.05247 0.12319 0.0
C34 C 0.1917 0.08491 0.11047 0.0
C35 C 0.2061 0.1048 0.08047 0.0
C36 C 0.18245 0.13839 0.07073 0.0
C37 C 0.15148 0.13537 0.09981 0.0
C38 C 0.1574 0.10435 0.12332 0.0
C39 C 0.20686 0.17408 0.07632 0.0
C40 C 0.16721 0.13301 0.03045 0.0
H41 H 0.03208 0.14216 0.20178 0.0
H42 H 0.11247 0.04212 0.25641 0.0
H43 H 0.10076 0.02079 0.17088 0.0
H44 H 0.1407 0.0246 0.14228 0.0
H45 H 0.14559 0.00793 0.18983 0.0
H46 H 0.17204 0.10229 0.22431 0.0
H47 H 0.17725 0.05232 0.2293 0.0
H48 H 0.19884 0.07715 0.19122 0.0
H49 H 0.03892 0.25483 0.11435 0.0
H50 H 0.11941 0.26556 0.02467 0.0
H51 H 0.14641 0.2053 0.0407 0.0
H52 H 0.0985 0.22245 0.17634 0.0
H53 H 0.04838 0.22778 0.17919 0.0
H54 H 0.07179 0.18927 0.20157 0.0
H55 H 0.02039 0.16813 0.10174 0.0
H56 H 0.02246 0.14041 0.14236 0.0
H57 H 0.00529 0.18814 0.1453 0.0
H58 H 0.01506 0.11421 0.26126 0.0
C59 C 0.05004 0.12057 0.21263 0.0
C60 C 0.27661 0.92463 0.5745 0.0
C61 C 0.26008 0.95766 0.58831 0.0
C62 C 0.27936 0.97923 0.61522 0.0
C63 C 0.32891 0.9326 0.61732 0.0
C64 C 0.3112 0.91294 0.58901 0.0
C65 C 0.33292 0.87868 0.5773 0.0
H66 H 0.47467 0.75671 0.61017 0.0
C67 C 0.36279 0.91136 0.62829 0.0
C68 C 0.3658 0.88021 0.60436 0.0
H69 H 0.39204 0.75291 0.52187 0.0
H70 H 0.36656 0.81265 0.54218 0.0
H71 H 0.49365 0.84718 0.60304 0.0
H72 H 0.41935 0.78221 0.67255 0.0
H73 H 0.43781 0.81782 0.70099 0.0
H74 H 0.46911 0.78373 0.68046 0.0
H75 H 0.51018 0.8175 0.64017 0.0
H76 H 0.49655 0.86561 0.64864 0.0
C77 C 0.34562 0.88398 0.5361 0.0
C78 C 0.30781 0.84375 0.58406 0.0
C79 C 0.43066 0.94518 0.74863 0.0
C80 C 0.45989 0.9277 0.76833 0.0
C81 C 0.47884 0.897 0.75231 0.0
C82 C 0.46785 0.88292 0.71736 0.0
C83 C 0.43735 0.89953 0.69857 0.0
C84 C 0.41978 0.9306 0.71389 0.0
C85 C 0.38761 0.94425 0.69022 0.0
C86 C 0.38815 0.91563 0.65867 0.0
C87 C 0.41721 0.88944 0.66384 0.0
C88 C 0.3969 0.98441 0.67615 0.0
C89 C 0.35129 0.94159 0.71398 0.0
C90 C 0.45146 0.76926 0.59505 0.0
C91 C 0.43518 0.75067 0.56449 0.0
C92 C 0.40483 0.7672 0.54544 0.0
C93 C 0.39011 0.80168 0.55737 0.0
C94 C 0.40575 0.81951 0.58887 0.0
C95 C 0.43632 0.80361 0.60676 0.0
C96 C 0.44878 0.82619 0.64009 0.0
C97 C 0.42093 0.85849 0.63901 0.0
C98 C 0.39558 0.85416 0.60922 0.0
C99 C 0.48951 0.83976 0.63302 0.0
C100 C 0.44388 0.8014 0.6755 0.0
H101 H 0.32666 0.98385 0.65101 0.0
H102 H 0.26254 0.90801 0.55329 0.0
H103 H 0.29295 0.84608 0.61136 0.0
H104 H 0.32378 0.81726 0.5856 0.0
H105 H 0.2862 0.84101 0.56179 0.0
H106 H 0.34853 0.91425 0.52885 0.0
H107 H 0.32502 0.87149 0.51632 0.0
H108 H 0.37374 0.8719 0.53065 0.0
H109 H 0.41584 0.96887 0.76067 0.0
H110 H 0.5015 0.8834 0.76736 0.0
H111 H 0.48289 0.85905 0.7068 0.0
H112 H 0.42777 0.98922 0.67475 0.0
H113 H 0.38489 0.00614 0.69499 0.0
H114 H 0.38684 0.98937 0.64725 0.0
H115 H 0.35004 0.9142 0.72896 0.0
H116 H 0.32535 0.94307 0.69727 0.0
H117 H 0.35035 0.9643 0.73531 0.0
H118 H 0.26715 0.00506 0.6257 0.0
C119 C 0.31369 0.9668 0.62989 0.0
C120 C 0.58901 0.26692 0.95045 0.0
C121 C 0.55743 0.24836 0.93615 0.0
C122 C 0.53626 0.26511 0.90738 0.0
C123 C 0.58005 0.31733 0.90555 0.0
C124 C 0.59966 0.30136 0.93494 0.0
C125 C 0.63318 0.32429 0.94628 0.0
H126 H 0.75113 0.46871 0.91213 0.0
C127 C 0.6 0.35203 0.89443 0.0
C128 C 0.63079 0.3565 0.9186 0.0
H129 H 0.75896 0.38449 0.99864 0.0
H130 H 0.69913 0.35839 0.97971 0.0
H131 H 0.66186 0.48612 0.92201 0.0
H132 H 0.72376 0.41283 0.8487 0.0
H133 H 0.6889 0.43487 0.82178 0.0
H134 H 0.72439 0.46306 0.84416 0.0
H135 H 0.68739 0.50356 0.88234 0.0
H136 H 0.63934 0.48766 0.87829 0.0
C137 C 0.62725 0.33772 0.98715 0.0
C138 C 0.66881 0.29994 0.94011 0.0
C139 C 0.5621 0.42106 0.77578 0.0
C140 C 0.57754 0.45214 0.75714 0.0
C141 C 0.60692 0.47253 0.77386 0.0
C142 C 0.62193 0.46112 0.80827 0.0
C143 C 0.60756 0.42882 0.82587 0.0
C144 C 0.57748 0.40994 0.81013 0.0
C145 C 0.56577 0.3764 0.83299 0.0
C146 C 0.59446 0.37767 0.86445 0.0
C147 C 0.61906 0.40822 0.85988 0.0
C148 C 0.5253 0.38315 0.84747 0.0
C149 C 0.57025 0.34086 0.80834 0.0
C150 C 0.73943 0.44497 0.92712 0.0
C151 C 0.75921 0.42839 0.95677 0.0
C152 C 0.74378 0.39744 0.97573 0.0
C153 C 0.70923 0.38236 0.96457 0.0
C154 C 0.69027 0.39819 0.93383 0.0
C155 C 0.70508 0.42935 0.91605 0.0
C156 C 0.68145 0.44178 0.88342 0.0
C157 C 0.65005 0.41287 0.88451 0.0
C158 C 0.65561 0.38731 0.91389 0.0
C159 C 0.66682 0.48197 0.89154 0.0
C160 C 0.70567 0.43831 0.8475 0.0
H161 H 0.53068 0.31081 0.86963 0.0
H162 H 0.60548 0.25443 0.97272 0.0
H163 H 0.66588 0.28225 0.91458 0.0
H164 H 0.69443 0.31667 0.93526 0.0
H165 H 0.67367 0.2808 0.96419 0.0
H166 H 0.5969 0.34203 0.99332 0.0
H167 H 0.63813 0.31679 0.00749 0.0
H168 H 0.64038 0.36532 0.99277 0.0
H169 H 0.53942 0.40512 0.76324 0.0
H170 H 0.61896 0.49658 0.75965 0.0
H171 H 0.64481 0.4773 0.81933 0.0
H172 H 0.51985 0.41362 0.85197 0.0
H173 H 0.50409 0.37269 0.82718 0.0
H174 H 0.52022 0.37006 0.87508 0.0
H175 H 0.59689 0.34214 0.79207 0.0
H176 H 0.57191 0.31462 0.82462 0.0
H177 H 0.54671 0.33837 0.78806 0.0
H178 H 0.51173 0.25095 0.89626 0.0
C179 C 0.54741 0.29963 0.89198 0.0
C180 C 0.96764 0.73718 0.4339 0.0
C181 C 0.95718 0.75506 0.46779 0.0
C182 C 0.92202 0.74431 0.4834 0.0
C183 C 0.91354 0.6958 0.43674 0.0
C184 C 0.94624 0.70741 0.41967 0.0
C185 C 0.95456 0.6854 0.38468 0.0
H186 H 0.9008 0.55401 0.25865 0.0
C187 C 0.89746 0.66483 0.41434 0.0
C188 C 0.92154 0.65844 0.38389 0.0
H189 H -0.0 0.62368 0.25619 0.0
H190 H 0.9833 0.65076 0.31617 0.0
H191 H 0.90754 0.53142 0.34566 0.0
H192 H 0.84489 0.6169 0.2879 0.0
H193 H 0.8149 0.59722 0.32167 0.0
H194 H 0.83355 0.56783 0.28507 0.0
H195 H 0.86524 0.52095 0.32042 0.0
H196 H 0.8643 0.53512 0.36897 0.0
C197 C 0.9924 0.6646 0.39029 0.0
C198 C 0.95392 0.71292 0.35104 0.0
C199 C 0.77343 0.60517 0.4526 0.0
C200 C 0.75155 0.57664 0.43647 0.0
C201 C 0.76441 0.55801 0.40423 0.0
C202 C 0.79856 0.56816 0.38767 0.0
C203 C 0.81995 0.59734 0.40351 0.0
C204 C 0.80752 0.61504 0.43567 0.0
C205 C 0.83394 0.64551 0.44835 0.0
C206 C 0.86427 0.64308 0.41854 0.0
C207 C 0.85573 0.61501 0.39228 0.0
C208 C 0.84906 0.6347 0.48754 0.0
C209 C 0.81264 0.68351 0.44703 0.0
C210 C 0.91895 0.57481 0.27147 0.0
C211 C 0.95159 0.58699 0.25324 0.0
C212 C 0.97478 0.61407 0.27022 0.0
C213 C 0.96491 0.62975 0.30483 0.0
C214 C 0.93154 0.61811 0.32246 0.0
C215 C 0.90953 0.59063 0.30605 0.0
C216 C 0.87518 0.58169 0.3288 0.0
C217 C 0.87983 0.60877 0.36127 0.0
C218 C 0.91272 0.63017 0.35729 0.0
C219 C 0.87778 0.54011 0.34155 0.0
C220 C 0.84011 0.59106 0.30479 0.0
H221 H 0.87481 0.70806 0.48238 0.0
H222 H 0.99107 0.74628 0.41721 0.0
H223 H 0.93181 0.7347 0.35485 0.0
H224 H 0.9469 0.6991 0.32429 0.0
H225 H 0.98127 0.72765 0.34802 0.0
H226 H 0.99604 0.65585 0.41998 0.0
H227 H 0.01655 0.68292 0.38286 0.0
H228 H 0.99422 0.6382 0.37412 0.0
H229 H 0.76385 0.61981 0.47742 0.0
H230 H 0.74768 0.53592 0.39164 0.0
H231 H 0.80672 0.55321 0.36291 0.0
H232 H 0.85519 0.60407 0.48895 0.0
H233 H 0.82812 0.64123 0.50966 0.0
H234 H 0.87583 0.64868 0.49453 0.0
H235 H 0.7911 0.6836 0.42445 0.0
H236 H 0.83115 0.70751 0.44029 0.0
H237 H 0.79796 0.68918 0.47388 0.0
H238 H 0.90952 0.75939 0.50645 0.0
C239 C 0.90079 0.71467 0.46865 0.0
C240 C 0.92464 0.78682 0.95825 0.0
C241 C 0.951 0.76452 0.93937 0.0
C242 C 0.97121 0.77971 0.90911 0.0
C243 C 0.93524 0.83742 0.91408 0.0
C244 C 0.91729 0.82315 0.94528 0.0
C245 C 0.88911 0.85013 0.96143 0.0
H246 H 0.76803 0.989 0.92819 0.0
C247 C 0.91839 0.87441 0.90562 0.0
C248 C 0.8918 0.88234 0.93359 0.0
H249 H 0.77968 0.92347 0.02925 0.0
H250 H 0.83896 0.89853 0.00688 0.0
H251 H 0.79878 0.93038 0.86663 0.0
H252 H 0.85374 0.01625 0.93111 0.0
H253 H 0.8814 0.01059 0.89072 0.0
H254 H 0.83336 0.02654 0.88643 0.0
H255 H 0.78934 0.97993 0.86344 0.0
H256 H 0.82664 0.95903 0.8371 0.0
C257 C 0.8501 0.83083 0.96064 0.0
C258 C 0.90225 0.86185 0.00118 0.0
C259 C 0.94724 0.93743 0.78139 0.0
C260 C 0.93286 0.96963 0.76396 0.0
C261 C 0.90659 0.99223 0.78285 0.0
C262 C 0.89376 0.98207 0.81853 0.0
C263 C 0.9073 0.94895 0.8352 0.0
C264 C 0.93427 0.92775 0.81706 0.0
C265 C 0.94584 0.89384 0.83932 0.0
C266 C 0.92168 0.89843 0.87405 0.0
C267 C 0.89859 0.93029 0.87104 0.0
C268 C 0.93498 0.8585 0.81634 0.0
C269 C 0.98829 0.8971 0.84841 0.0
C270 C 0.7836 0.96947 0.94549 0.0
C271 C 0.76872 0.95681 0.97969 0.0
C272 C 0.79033 0.93269 0.00237 0.0
C273 C 0.82438 0.91805 0.98926 0.0
C274 C 0.83698 0.92797 0.95338 0.0
C275 C 0.81819 0.95525 0.93327 0.0
C276 C 0.83868 0.96566 0.8979 0.0
C277 C 0.8711 0.9378 0.89881 0.0
C278 C 0.86901 0.91495 0.93074 0.0
C279 C 0.81209 0.95858 0.86432 0.0
C280 C 0.8524 0.0069 0.90141 0.0
H281 H 0.97909 0.82608 0.87266 0.0
H282 H 0.90948 0.77573 0.98211 0.0
H283 H 0.9325 0.85553 0.00589 0.0
H284 H 0.89972 0.89258 0.00572 0.0
H285 H 0.88609 0.8469 0.02322 0.0
H286 H 0.84397 0.81976 0.93215 0.0
H287 H 0.84914 0.8069 0.98057 0.0
H288 H 0.82682 0.8498 0.96792 0.0
H289 H 0.96764 0.91986 0.76722 0.0
H290 H 0.89543 0.01722 0.76956 0.0
H291 H 0.87319 -0.00013 0.83141 0.0
H292 H 0.90695 0.86222 0.80304 0.0
H293 H 0.95569 0.85323 0.79368 0.0
H294 H 0.93236 0.83285 0.83337 0.0
H295 H 0.99694 0.92701 0.85136 0.0
H296 H 0.99571 0.88402 0.8755 0.0
H297 H 0.0057 0.88443 0.8259 0.0
H298 H 0.99205 0.76288 0.89471 0.0
C299 C 0.96348 0.81619 0.89637 0.0
C300 C 0.73594 0.07571 0.45955 0.0
C301 C 0.75571 0.04602 0.44295 0.0
C302 C 0.7394 0.02579 0.41331 0.0
C303 C 0.68529 0.06711 0.41486 0.0
C304 C 0.70092 0.08593 0.44495 0.0
C305 C 0.67761 0.11899 0.45708 0.0
H306 H 0.54219 0.24423 0.41511 0.0
C307 C 0.65067 0.08716 0.40396 0.0
C308 C 0.64599 0.11758 0.42857 0.0
H309 H 0.61456 0.24288 0.51211 0.0
H310 H 0.63913 0.18214 0.49367 0.0
H311 H 0.51758 0.156 0.42548 0.0
H312 H 0.59864 0.21207 0.3557 0.0
H313 H 0.57605 0.17803 0.32804 0.0
H314 H 0.54889 0.21565 0.34819 0.0
H315 H 0.50408 0.18211 0.38469 0.0
H316 H 0.51688 0.13308 0.38199 0.0
C317 C 0.66329 0.11165 0.49741 0.0
C318 C 0.70195 0.15488 0.45292 0.0
C319 C 0.57715 0.04464 0.28962 0.0
C320 C 0.54419 0.05772 0.27152 0.0
C321 C 0.52976 0.09282 0.28398 0.0
C322 C 0.5442 0.11112 0.31557 0.0
C323 C 0.57479 0.09553 0.33464 0.0
C324 C 0.59107 0.0631 0.3213 0.0
C325 C 0.62507 0.05181 0.34369 0.0
C326 C 0.62548 0.08214 0.37356 0.0
C327 C 0.59621 0.1079 0.36782 0.0
C328 C 0.61768 0.01243 0.36061 0.0
C329 C 0.65999 0.05399 0.31775 0.0
C330 C 0.5632 0.2306 0.43236 0.0
C331 C 0.57727 0.24837 0.46452 0.0
C332 C 0.60391 0.22968 0.48692 0.0
C333 C 0.61815 0.19463 0.4761 0.0
C334 C 0.60538 0.1781 0.44271 0.0
C335 C 0.57722 0.19529 0.42232 0.0
C336 C 0.56519 0.17218 0.38919 0.0
C337 C 0.59192 0.13909 0.39218 0.0
C338 C 0.61596 0.14321 0.42305 0.0
C339 C 0.52372 0.16029 0.39523 0.0
C340 C 0.5722 0.19554 0.35324 0.0
H341 H 0.69338 0.02017 0.37609 0.0
H342 H 0.74832 0.09164 0.48227 0.0
H343 H 0.71729 0.15458 0.42578 0.0
H344 H 0.68549 0.18107 0.45289 0.0
H345 H 0.72312 0.15673 0.47569 0.0
H346 H 0.66142 0.08103 0.50351 0.0
H347 H 0.68235 0.12432 0.51857 0.0
H348 H 0.63442 0.12232 0.50187 0.0
H349 H 0.59337 0.02132 0.27925 0.0
H350 H 0.50802 0.10756 0.26895 0.0
H351 H 0.53137 0.13724 0.32342 0.0
H352 H 0.58816 0.01011 0.37061 0.0
H353 H 0.62227 0.99002 0.33945 0.0
H354 H 0.63523 0.00648 0.38539 0.0
H355 H 0.6562 0.07556 0.29552 0.0
H356 H 0.6857 0.06282 0.33269 0.0
H357 H 0.66526 0.02667 0.30366 0.0
H358 H 0.75457 0.00285 0.40031 0.0
C359 C 0.70412 0.03608 0.39925 0.0
C360 C 0.46021 0.56342 0.2353 0.0
C361 C 0.44423 0.53146 0.25295 0.0
C362 C 0.40829 0.51999 0.23987 0.0
C363 C 0.40947 0.56619 0.19017 0.0
C364 C 0.44299 0.57962 0.20399 0.0
C365 C 0.45672 0.61349 0.18271 0.0
H366 H 0.42011 0.75009 0.05635 0.0
C367 C 0.39809 0.59025 0.15848 0.0
C368 C 0.42566 0.61811 0.15395 0.0
H369 H 0.51977 0.73709 0.12398 0.0
H370 H 0.49624 0.67773 0.14788 0.0
H371 H 0.36033 0.7224 0.11529 0.0
H372 H 0.42008 0.66418 0.02829 0.0
H373 H 0.37512 0.64402 0.02979 0.0
H374 H 0.38014 0.69324 0.01845 0.0
H375 H 0.35097 0.72921 0.06638 0.0
H376 H 0.32799 0.69271 0.09275 0.0
C377 C 0.4585 0.64714 0.21018 0.0
C378 C 0.49482 0.60351 0.16422 0.0
C379 C 0.27508 0.56491 0.09083 0.0
C380 C 0.25556 0.58469 0.06295 0.0
C381 C 0.27176 0.61699 0.04702 0.0
C382 C 0.30689 0.62986 0.05915 0.0
C383 C 0.32572 0.61047 0.08786 0.0
C384 C 0.30988 0.57846 0.10308 0.0
C385 C 0.33296 0.56271 0.13467 0.0
C386 C 0.36588 0.58987 0.13505 0.0
C387 C 0.36133 0.6178 0.10773 0.0
C388 C 0.30934 0.56495 0.17117 0.0
C389 C 0.34533 0.52248 0.12381 0.0
C390 C 0.43686 0.73422 0.07615 0.0
C391 C 0.47132 0.74827 0.08903 0.0
C392 C 0.49288 0.72674 0.1142 0.0
C393 C 0.47912 0.69249 0.12802 0.0
C394 C 0.44373 0.67954 0.1161 0.0
C395 C 0.42387 0.69976 0.08965 0.0
C396 C 0.38784 0.68083 0.07859 0.0
C397 C 0.38862 0.64654 0.10375 0.0
C398 C 0.42106 0.64623 0.12613 0.0
C399 C 0.35487 0.70755 0.08842 0.0
C400 C 0.39053 0.67013 0.03658 0.0
H401 H 0.36467 0.52565 0.19997 0.0
H402 H 0.48498 0.57716 0.24603 0.0
H403 H 0.49616 0.57315 0.15686 0.0
H404 H 0.49926 0.61836 0.1374 0.0
H405 H 0.51867 0.60962 0.18333 0.0
H406 H 0.43335 0.64745 0.22869 0.0
H407 H 0.48378 0.64536 0.22833 0.0
H408 H 0.45855 0.67465 0.19604 0.0
H409 H 0.26279 0.54024 0.10374 0.0
H410 H 0.25684 0.63257 0.02562 0.0
H411 H 0.3176 0.65487 0.04625 0.0
H412 H 0.28705 0.58681 0.16929 0.0
H413 H 0.29525 0.53778 0.17726 0.0
H414 H 0.32635 0.5734 0.19572 0.0
H415 H 0.35546 0.52176 0.09435 0.0
H416 H 0.36888 0.51196 0.14095 0.0
H417 H 0.32149 0.50246 0.12621 0.0
H418 H 0.39151 0.4994 0.25426 0.0
C419 C 0.39153 0.53637 0.20838 0.0
C420 C 0.04697 0.28577 0.58691 0.0
C421 C 0.06207 0.2639 0.55792 0.0
C422 C 0.09203 0.27795 0.53645 0.0
C423 C 0.09435 0.33351 0.57557 0.0
C424 C 0.06358 0.32044 0.59529 0.0
C425 C 0.05304 0.34605 0.62709 0.0
H426 H 0.10401 0.48483 0.74467 0.0
C427 C 0.10723 0.36858 0.59355 0.0
C428 C 0.08279 0.37648 0.62338 0.0
H429 H 0.00533 0.41453 0.75001 0.0
H430 H 0.01969 0.38864 0.68898 0.0
H431 H 0.0921 0.50919 0.66036 0.0
H432 H 0.16177 0.42343 0.70905 0.0
H433 H 0.1885 0.45145 0.67803 0.0
H434 H 0.16647 0.47303 0.71751 0.0
H435 H 0.13875 0.51949 0.67621 0.0
H436 H 0.12979 0.50312 0.62913 0.0
C437 C 0.01297 0.36147 0.6198 0.0
C438 C 0.05716 0.32344 0.66395 0.0
C439 C 0.23289 0.42484 0.55628 0.0
C440 C 0.25292 0.45626 0.56916 0.0
C441 C 0.23607 0.48072 0.59522 0.0
C442 C 0.20055 0.47265 0.61006 0.0
C443 C 0.18177 0.43987 0.59863 0.0
C444 C 0.19719 0.4175 0.571 0.0
C445 C 0.172 0.3852 0.56068 0.0
C446 C 0.13947 0.39128 0.58755 0.0
C447 C 0.14592 0.42273 0.61039 0.0
C448 C 0.15984 0.38998 0.51927 0.0
C449 C 0.19352 0.34827 0.569 0.0
C450 C 0.08551 0.46406 0.73233 0.0
C451 C 0.05403 0.45096 0.75205 0.0
C452 C 0.02995 0.42452 0.7352 0.0
C453 C 0.03848 0.40945 0.70001 0.0
C454 C 0.0715 0.42082 0.68166 0.0
C455 C 0.09355 0.44883 0.69707 0.0
C456 C 0.12651 0.45864 0.6726 0.0
C457 C 0.12162 0.43047 0.64094 0.0
C458 C 0.08976 0.40794 0.64686 0.0
C459 C 0.12188 0.49976 0.65894 0.0
C460 C 0.16289 0.45147 0.6953 0.0
H461 H 0.13148 0.32173 0.52822 0.0
H462 H 0.02387 0.27528 0.60365 0.0
H463 H 0.08343 0.30649 0.6636 0.0
H464 H 0.05926 0.34119 0.6891 0.0
H465 H 0.03321 0.30377 0.66772 0.0
H466 H 0.00665 0.36271 0.58932 0.0
H467 H 0.99128 0.34343 0.63311 0.0
H468 H 0.00952 0.39075 0.62971 0.0
H469 H 0.24515 0.40602 0.53582 0.0
H470 H 0.25107 0.50532 0.60503 0.0
H471 H 0.1895 0.49165 0.63056 0.0
H472 H 0.16018 0.42003 0.51066 0.0
H473 H 0.17891 0.37448 0.5001 0.0
H474 H 0.13056 0.38073 0.51433 0.0
H475 H 0.20846 0.35023 0.5963 0.0
H476 H 0.17509 0.32352 0.57147 0.0
H477 H 0.21482 0.34254 0.54701 0.0
H478 H 0.10377 0.26127 0.51394 0.0
C479 C 0.10812 0.31284 0.54497 0.0
O480 O 0.99152 0.09424 0.54194 0.0
Zn481 Zn 0.97319 0.04075 0.53977 0.0
O482 O 0.00904 0.00812 0.51362 0.0
Zn483 Zn 0.98433 0.98461 0.47051 0.0
Zn484 Zn 0.05207 0.03775 0.49682 0.0
Zn485 Zn 0.02701 0.96923 0.54754 0.0
O486 O 0.98712 0.92782 0.47297 0.0
O487 O 0.01394 0.9181 0.52841 0.0
O488 O 0.92266 0.0402 0.51469 0.0
O489 O 0.92963 0.99825 0.46899 0.0
O490 O 0.00625 0.004 0.42206 0.0
O491 O 0.0545 0.03908 0.44075 0.0
O492 O 0.1011 0.01857 0.51757 0.0
O493 O 0.96538 0.02349 0.59275 0.0
O494 O 0.08297 0.97093 0.55344 0.0
O495 O 0.00386 0.9745 0.59849 0.0
C496 C 0.02176 0.10959 0.5307 0.0
C497 C 0.99878 0.90582 0.4986 0.0
C498 C 0.03405 0.02538 0.41486 0.0
C499 C 0.9095 0.02115 0.48755 0.0
C500 C 0.10865 0.99182 0.53997 0.0
C501 C 0.97979 0.99714 0.61203 0.0
O502 O 0.04725 0.09119 0.51383 0.0
O503 O 0.50027 0.08065 0.97475 0.0
Zn504 Zn 0.47847 0.02942 0.98277 0.0
O505 O 0.50944 0.00118 0.01803 0.0
Zn506 Zn 0.53418 0.96011 0.99176 0.0
Zn507 Zn 0.54747 0.03388 0.04101 0.0
Zn508 Zn 0.47699 0.98035 0.0565 0.0
O509 O 0.52411 0.91033 0.01689 0.0
O510 O 0.47815 0.92417 0.05669 0.0
O511 O 0.4757 0.00345 0.9328 0.0
O512 O 0.51618 0.95611 0.93862 0.0
O513 O 0.58979 0.96751 0.99109 0.0
O514 O 0.59995 0.01427 0.0311 0.0
O515 O 0.54079 0.03697 0.09719 0.0
O516 O 0.42571 0.0364 0.00212 0.0
O517 O 0.49379 0.9969 0.10716 0.0
O518 O 0.4241 0.99867 0.05172 0.0
C519 C 0.52547 0.09953 0.99162 0.0
C520 C 0.4997 0.90039 0.04099 0.0
C521 C 0.61209 0.9888 0.00915 0.0
C522 C 0.49275 0.97503 0.91942 0.0
C523 C 0.51851 0.01968 0.11913 0.0
C524 C 0.40825 0.0215 0.02941 0.0
O525 O 0.54484 0.08587 0.01835 0.0
O526 O 0.54445 0.51564 0.58957 0.0
Zn527 Zn 0.53688 0.53635 0.53759 0.0
O528 O 0.50725 0.50197 0.50653 0.0
Zn529 Zn 0.53848 0.48232 0.46631 0.0
Zn530 Zn 0.48945 0.46013 0.5373 0.0
Zn531 Zn 0.46446 0.52879 0.48471 0.0
O532 O 0.5154 0.49204 0.41625 0.0
O533 O 0.46391 0.52543 0.42806 0.0
O534 O 0.58798 0.54537 0.51513 0.0
O535 O 0.58924 0.50674 0.46611 0.0
O536 O 0.54519 0.4266 0.47068 0.0
O537 O 0.50882 0.41046 0.51861 0.0
O538 O 0.43307 0.45886 0.53918 0.0
O539 O 0.51112 0.58646 0.54204 0.0
O540 O 0.41585 0.50769 0.5043 0.0
O541 O 0.46458 0.58301 0.50046 0.0
C542 C 0.53063 0.48727 0.60633 0.0
C543 C 0.48631 0.50952 0.4052 0.0
C544 C 0.53131 0.40181 0.4923 0.0
C545 C 0.60465 0.53135 0.48688 0.0
C546 C 0.40776 0.48 0.52535 0.0
C547 C 0.48369 0.6012 0.52453 0.0
O548 O 0.50849 0.46447 0.59002 0.0
O549 O 0.97297 0.50529 0.09104 0.0
Zn550 Zn 0.97731 0.4811 0.04025 0.0
O551 O 0.00592 0.51274 0.00543 0.0
Zn552 Zn 0.97436 0.52689 0.96297 0.0
Zn553 Zn 0.02202 0.55847 0.03065 0.0
Zn554 Zn 0.05021 0.48556 0.98782 0.0
O555 O 0.99764 0.51082 0.91427 0.0
O556 O 0.05057 0.48237 0.93155 0.0
O557 O 0.92503 0.47168 0.02095 0.0
O558 O 0.92431 0.50134 0.96609 0.0
O559 O 0.96414 0.58271 0.96207 0.0
O560 O -0.00061 0.6045 0.00779 0.0
O561 O 0.078 0.56333 0.03162 0.0
O562 O 0.00176 0.4305 0.0466 0.0
O563 O 0.09804 0.51046 0.00512 0.0
O564 O 0.05095 0.43283 0.00815 0.0
C565 C 0.98561 0.53618 0.10383 0.0
C566 C 0.02776 0.49325 0.9063 0.0
C567 C 0.97504 0.61001 0.98235 0.0
C568 C 0.90849 0.48112 0.99082 0.0
C569 C 0.10448 0.54154 0.02157 0.0
C570 C 0.03039 0.41536 0.03152 0.0
O571 O 0.00472 0.55869 0.08383 0.0
C572 C 0.04651 0.02463 0.30871 0.0
C573 C 0.05486 0.06309 0.3021 0.0
C574 C 0.04377 0.07698 0.36819 0.0
C575 C 0.04059 0.03793 0.37581 0.0
N576 N 0.04556 0.97388 0.35389 0.0
N577 N 0.07026 0.12418 0.32752 0.0
C578 C 0.04369 0.01146 0.34621 0.0
C579 C 0.05607 0.08881 0.33241 0.0
N580 N 0.04017 0.00094 0.27927 0.0
N581 N 0.03337 0.10296 0.39443 0.0
H582 H 0.08095 0.13372 0.30206 0.0
H583 H 0.07509 0.14259 0.34971 0.0
H584 H 0.022 0.09573 0.42035 0.0
H585 H 0.0319 0.13166 0.38877 0.0
H586 H 0.03033 0.97356 0.28256 0.0
H587 H 0.04127 0.00975 0.25145 0.0
H588 H 0.0516 0.95369 0.33365 0.0
H589 H 0.04475 0.96315 0.38103 0.0
C590 C 0.45262 0.92003 0.83754 0.0
C591 C 0.46875 0.93978 0.807 0.0
C592 C 0.49859 0.98428 0.85017 0.0
C593 C 0.48447 0.96303 0.88073 0.0
N594 N 0.45155 0.90874 0.90447 0.0
N595 N 0.51032 0.98756 0.78325 0.0
C596 C 0.4626 0.93024 0.87468 0.0
C597 C 0.4926 0.97114 0.81302 0.0
N598 N 0.42667 0.89241 0.83097 0.0
N599 N 0.51749 0.01712 0.85673 0.0
H600 H 0.50607 0.97895 0.75565 0.0
H601 H 0.53116 0.00792 0.78583 0.0
H602 H 0.52411 0.02664 0.88355 0.0
H603 H 0.52478 0.03615 0.83585 0.0
H604 H 0.41061 0.87987 0.85186 0.0
H605 H 0.41899 0.88372 0.80415 0.0
H606 H 0.43973 0.88211 0.90181 0.0
H607 H 0.45618 0.91647 0.93225 0.0
C608 C 0.58138 0.44159 0.68805 0.0
C609 C 0.56529 0.46138 0.71858 0.0
C610 C 0.52859 0.50033 0.6753 0.0
C611 C 0.54277 0.47882 0.64497 0.0
N612 N 0.57971 0.42689 0.62179 0.0
N613 N 0.52094 0.5064 0.74265 0.0
C614 C 0.56826 0.44876 0.65118 0.0
C615 C 0.5382 0.48998 0.7126 0.0
N616 N 0.61014 0.41682 0.69427 0.0
N617 N 0.50618 0.53076 0.66834 0.0
H618 H 0.52781 0.49985 0.77028 0.0
H619 H 0.49816 0.52458 0.74049 0.0
H620 H 0.49721 0.5381 0.64152 0.0
H621 H 0.4982 0.55011 0.68868 0.0
H622 H 0.62612 0.40474 0.67306 0.0
H623 H 0.62006 0.41019 0.72094 0.0
H624 H 0.5943 0.40174 0.62492 0.0
H625 H 0.5728 0.43261 0.594 0.0
C626 C 0.94539 0.59313 0.18388 0.0
C627 C 0.96005 0.57332 0.21508 0.0
C628 C 0.99226 0.5292 0.17331 0.0
C629 C 0.97583 0.54776 0.14223 0.0
N630 N 0.93185 0.59291 0.11739 0.0
N631 N 0.99294 0.51999 0.24065 0.0
C632 C 0.95104 0.57855 0.14735 0.0
C633 C 0.98215 0.54052 0.21013 0.0
N634 N 0.92667 0.6263 0.18919 0.0
N635 N 0.01861 0.50182 0.16755 0.0
H636 H 0.98699 0.52815 0.26806 0.0
H637 H 0.00552 0.49364 0.23887 0.0
H638 H 0.02642 0.4926 0.14095 0.0
H639 H 0.03471 0.49005 0.18886 0.0
H640 H 0.91927 0.64436 0.16749 0.0
H641 H 0.92074 0.63728 0.21561 0.0
H642 H 0.91038 0.61261 0.11977 0.0
H643 H 0.93507 0.58281 0.09016 0.0
C644 C 0.30163 0.0268 0.03377 0.0
C645 C 0.29731 0.05409 0.0624 0.0
C646 C 0.36536 0.06419 0.06419 0.0
C647 C 0.36992 0.03425 0.03839 0.0
N648 N 0.34381 0.98507 9e-05 0.0
N649 N 0.32431 0.09659 0.10766 0.0
C650 C 0.33841 0.01509 0.02338 0.0
C651 C 0.32898 0.07238 0.07826 0.0
N652 N 0.27056 0.01264 0.01621 0.0
N653 N 0.39585 0.08511 0.07479 0.0
H654 H 0.29803 0.10414 0.11816 0.0
H655 H 0.34644 0.10733 0.12344 0.0
H656 H 0.42309 0.07953 0.06552 0.0
H657 H 0.39399 0.10977 0.09036 0.0
H658 H 0.27169 0.99551 0.99263 0.0
H659 H 0.24324 0.02023 0.02366 0.0
H660 H 0.32237 0.96718 0.99141 0.0
H661 H 0.37037 0.97666 0.99098 0.0
C662 C 0.21486 0.97733 0.53782 0.0
C663 C 0.22175 0.96856 0.57594 0.0
C664 C 0.15611 0.98233 0.59082 0.0
C665 C 0.14799 0.98551 0.55205 0.0
N666 N 0.16893 0.97922 0.48794 0.0
N667 N 0.19683 0.95496 0.63746 0.0
C668 C 0.17719 0.98135 0.52525 0.0
C669 C 0.19181 0.96893 0.60217 0.0
N670 N 0.24426 0.98265 0.51379 0.0
N671 N 0.13028 0.99339 0.61692 0.0
H672 H 0.22216 0.94353 0.64669 0.0
H673 H 0.17476 0.95116 0.65625 0.0
H674 H 0.10436 0.0051 0.60985 0.0
H675 H 0.1363 0.99489 0.64543 0.0
H676 H 0.24089 0.99268 0.4866 0.0
H677 H 0.27226 0.9806 0.52218 0.0
H678 H 0.18882 0.97234 0.46767 0.0
H679 H 0.14162 0.98056 0.4775 0.0
C680 C 0.8024 0.46945 0.99422 0.0
C681 C 0.79745 0.44162 0.96622 0.0
C682 C 0.86557 0.43693 0.95766 0.0
C683 C 0.87034 0.46687 0.98341 0.0
N684 N 0.84424 0.51467 0.02349 0.0
N685 N 0.82304 0.40137 0.9182 0.0
C686 C 0.83901 0.4839 0.00112 0.0
C687 C 0.8287 0.42603 0.94706 0.0
N688 N 0.77215 0.48157 0.01449 0.0
N689 N 0.89635 0.41817 0.9443 0.0
H690 H 0.79652 0.39161 0.91043 0.0
H691 H 0.84424 0.39245 0.90022 0.0
H692 H 0.92385 0.42555 0.95129 0.0
H693 H 0.89478 0.3935 0.92873 0.0
H694 H 0.77428 0.49871 0.038 0.0
H695 H 0.74477 0.47244 0.0093 0.0
H696 H 0.82239 0.531 0.03398 0.0
H697 H 0.87075 0.52556 0.02966 0.0
C698 C 0.68283 0.58972 0.4443 0.0
C699 C 0.71443 0.56681 0.45241 0.0
C700 C 0.67409 0.52098 0.48414 0.0
C701 C 0.6427 0.54454 0.47716 0.0
N702 N 0.61717 0.60367 0.45609 0.0
N703 N 0.742 0.51457 0.48532 0.0
C704 C 0.64713 0.57978 0.45912 0.0
C705 C 0.7106 0.53355 0.47393 0.0
N706 N 0.68667 0.61997 0.42097 0.0
N707 N 0.66884 0.48635 0.49993 0.0
H708 H 0.76915 0.52302 0.47821 0.0
H709 H 0.74151 0.4923 0.50419 0.0
H710 H 0.64279 0.47701 0.50956 0.0
H711 H 0.68975 0.46598 0.50165 0.0
H712 H 0.6641 0.6352 0.41035 0.0
H713 H 0.71242 0.62846 0.4099 0.0
H714 H 0.61945 0.63143 0.44717 0.0
H715 H 0.59015 0.59668 0.46497 0.0
C716 C 0.04088 0.30906 0.02793 0.0
C717 C 0.0634 0.30293 0.06012 0.0
C718 C 0.05992 0.36991 0.07597 0.0
C719 C 0.04055 0.37653 0.04191 0.0
N720 N 0.01518 0.35385 0.98354 0.0
N721 N 0.0988 0.32752 0.1123 0.0
C722 C 0.03176 0.34648 0.01729 0.0
C723 C 0.07396 0.33333 0.08364 0.0
N724 N 0.02736 0.279 0.00824 0.0
N725 N 0.06475 0.39858 0.10103 0.0
H726 H 0.1097 0.30115 0.11894 0.0
H727 H 0.11097 0.34914 0.12773 0.0
H728 H 0.05625 0.42613 0.09575 0.0
H729 H 0.0747 0.39467 0.12815 0.0
H730 H 0.00768 0.28125 0.98681 0.0
H731 H 0.03353 0.25122 0.01531 0.0
H732 H 0.01202 0.33389 0.96246 0.0
H733 H 0.00654 0.38069 0.97554 0.0
C734 C 0.56245 0.17848 0.93069 0.0
C735 C 0.54807 0.21026 0.94998 0.0
C736 C 0.51754 0.16926 0.99601 0.0
C737 C 0.53389 0.13772 0.97805 0.0
N738 N 0.57559 0.11156 0.93172 0.0
N739 N 0.51554 0.23715 0.00273 0.0
C740 C 0.55732 0.14211 0.94626 0.0
C741 C 0.52661 0.20601 0.98319 0.0
N742 N 0.58059 0.18312 0.89724 0.0
N743 N 0.49256 0.16392 0.02463 0.0
H744 H 0.52032 0.26449 0.99331 0.0
H745 H 0.5036 0.23615 0.0293 0.0
H746 H 0.48601 0.13739 0.03525 0.0
H747 H 0.47647 0.18531 0.03633 0.0
H748 H 0.58784 0.16101 0.87959 0.0
H749 H 0.58631 0.2094 0.88565 0.0
H750 H 0.5963 0.11328 0.91123 0.0
H751 H 0.57212 0.08437 0.9421 0.0
C752 C 0.0094 0.80509 0.46452 0.0
C753 C 0.97935 0.78785 0.48406 0.0
C754 C 0.9713 0.84499 0.52098 0.0
C755 C 0.99365 0.86481 0.49457 0.0
N756 N 0.03726 0.86303 0.44265 0.0
N757 N 0.95838 0.78401 0.54783 0.0
C758 C 0.01378 0.84468 0.46673 0.0
C759 C 0.96797 0.80546 0.51769 0.0
N760 N 0.03741 0.78338 0.45006 0.0
N761 N 0.95169 0.8638 0.548 0.0
H762 H 0.96039 0.75472 0.54698 0.0
H763 H 0.95317 0.79522 0.57429 0.0
H764 H 0.95239 0.89295 0.551 0.0
H765 H 0.93223 0.85055 0.56537 0.0
H766 H 0.06185 0.79444 0.43837 0.0
H767 H 0.03837 0.75448 0.45513 0.0
H768 H 0.04939 0.84983 0.41956 0.0
H769 H 0.04295 0.89172 0.44462 0.0
C770 C 0.42876 0.68089 0.5691 0.0
C771 C 0.44798 0.71246 0.5542 0.0
C772 C 0.49252 0.67102 0.52198 0.0
C773 C 0.47163 0.63954 0.53468 0.0
N774 N 0.41813 0.61361 0.56722 0.0
N775 N 0.49528 0.73875 0.51372 0.0
C776 C 0.43917 0.64423 0.55729 0.0
C777 C 0.47917 0.70787 0.52992 0.0
N778 N 0.40138 0.686 0.59552 0.0
N779 N 0.52526 0.66558 0.50267 0.0
H780 H 0.48662 0.76615 0.51954 0.0
H781 H 0.51548 0.73738 0.49271 0.0
H782 H 0.53499 0.63902 0.49499 0.0
H783 H 0.54403 0.68703 0.49612 0.0
H784 H 0.38929 0.6642 0.61074 0.0
H785 H 0.39246 0.71246 0.60442 0.0
H786 H 0.39172 0.61543 0.5796 0.0
H787 H 0.42594 0.58603 0.56112 0.0
C788 C 0.97705 -0.00032 0.7182 0.0
C789 C 0.94397 0.97848 0.72503 0.0
C790 C 0.93491 0.96898 0.65768 0.0
C791 C 0.967 0.99157 0.65084 0.0
N792 N 0.01599 0.03265 0.67301 0.0
N793 N 0.88848 0.94693 0.70229 0.0
C794 C 0.98735 0.00818 0.68068 0.0
C795 C 0.92197 0.96435 0.69501 0.0
N796 N 0.99898 0.01084 0.74762 0.0
N797 N 0.91755 0.95104 0.62852 0.0
H798 H 0.8787 0.94176 0.72932 0.0
H799 H 0.86904 0.93979 0.68172 0.0
H800 H 0.9256 0.9546 0.60066 0.0
H801 H 0.89678 0.93073 0.63186 0.0
H802 H 0.02557 0.02262 0.74461 0.0
H803 H 0.99154 0.0063 0.7755 0.0
H804 H 0.02951 0.0488 0.69322 0.0
H805 H 0.02471 0.03886 0.64582 0.0
C806 C 0.54605 0.00658 0.22073 0.0
C807 C 0.5282 0.03815 0.23709 0.0
C808 C 0.4954 0.04964 0.17808 0.0
C809 C 0.52127 0.02548 0.15984 0.0
N810 N 0.56967 0.97801 0.16406 0.0
N811 N 0.46587 0.06413 0.23724 0.0
C812 C 0.54607 0.00288 0.18122 0.0
C813 C 0.4967 0.05273 0.21764 0.0
N814 N 0.55691 0.97727 0.24277 0.0
N815 N 0.47018 0.07016 0.15778 0.0
H816 H 0.46439 0.06096 0.26627 0.0
H817 H 0.44063 0.07178 0.22457 0.0
H818 H 0.468 0.06823 0.12871 0.0
H819 H 0.45332 0.09091 0.16972 0.0
H820 H 0.56699 0.95195 0.23208 0.0
H821 H 0.5506 0.97672 0.27133 0.0
H822 H 0.59068 0.96364 0.1785 0.0
H823 H 0.5698 0.97368 0.13516 0.0
C824 C 0.44335 0.48769 0.3103 0.0
C825 C 0.46234 0.51423 0.2876 0.0
C826 C 0.50396 0.52879 0.34007 0.0
C827 C 0.47845 0.51048 0.36461 0.0
N828 N 0.42483 0.46944 0.37276 0.0
N829 N 0.52649 0.53201 0.27635 0.0
C830 C 0.44837 0.48897 0.34968 0.0
C831 C 0.49763 0.52689 0.30092 0.0
N832 N 0.4266 0.45732 0.29407 0.0
N833 N 0.53334 0.54919 0.35396 0.0
H834 H 0.52351 0.52552 0.24798 0.0
H835 H 0.55394 0.53784 0.28472 0.0
H836 H 0.53881 0.55173 0.38254 0.0
H837 H 0.55035 0.56599 0.33709 0.0
H838 H 0.41522 0.43511 0.30935 0.0
H839 H 0.42936 0.45207 0.26543 0.0
H840 H 0.40037 0.45653 0.3631 0.0
H841 H 0.42856 0.46802 0.40169 0.0
C842 C 0.0378 0.49995 0.80034 0.0
C843 C 0.04791 0.46243 0.79152 0.0
C844 C 0.04127 0.44466 0.85733 0.0
C845 C 0.03514 0.48293 0.86681 0.0
N846 N 0.0347 0.54816 0.84814 0.0
N847 N 0.06797 0.40116 0.81274 0.0
C848 C 0.03535 0.51098 0.83852 0.0
C849 C 0.05226 0.43538 0.82036 0.0
N850 N 0.02947 0.52474 0.77233 0.0
N851 N 0.03478 0.4169 0.883 0.0
H852 H 0.07724 0.39343 0.78613 0.0
H853 H 0.07529 0.38197 0.83353 0.0
H854 H 0.02504 0.42212 0.91003 0.0
H855 H 0.03516 0.38841 0.87622 0.0
H856 H 0.01813 0.55128 0.77719 0.0
H857 H 0.03075 0.51758 0.74404 0.0
H858 H 0.0386 0.5698 0.82891 0.0
H859 H 0.03393 0.55739 0.87584 0.0
C860 C 0.71747 0.00365 0.9943 0.0
C861 C 0.72924 0.96578 0.99001 0.0
C862 C 0.66641 0.94449 0.00761 0.0
C863 C 0.65305 0.98197 0.00554 0.0
N864 N 0.66537 0.04714 0.99041 0.0
N865 N 0.71169 0.90028 0.98379 0.0
C866 C 0.67844 0.01171 0.99736 0.0
C867 C 0.70286 0.93615 0.9943 0.0
N868 N 0.7435 0.03181 0.99615 0.0
N869 N 0.64473 0.91692 0.02322 0.0
H870 H 0.73728 0.89298 0.9716 0.0
H871 H 0.69196 0.87862 0.98323 0.0
H872 H 0.61853 0.92222 0.0352 0.0
H873 H 0.65472 0.88983 0.0282 0.0
H874 H 0.73659 0.05949 0.00275 0.0
H875 H 0.77235 0.02679 0.99482 0.0
H876 H 0.6825 0.06876 0.98062 0.0
H877 H 0.63694 0.05411 0.99077 0.0
C878 C 0.82456 0.05606 0.43366 0.0
C879 C 0.79508 0.03873 0.4541 0.0
C880 C 0.84057 0.01162 0.49796 0.0
C881 C 0.87012 0.02702 0.47612 0.0
N882 N 0.89139 0.0603 0.42119 0.0
N883 N 0.77407 0.99678 0.50265 0.0
C884 C 0.86243 0.0481 0.44329 0.0
C885 C 0.80281 0.01561 0.48548 0.0
N886 N 0.81624 0.08124 0.4059 0.0
N887 N 0.84869 0.99353 0.53076 0.0
H888 H 0.74606 -0.00038 0.49451 0.0
H889 H 0.77798 0.97643 0.52319 0.0
H890 H 0.87609 0.98856 0.53988 0.0
H891 H 0.82847 0.98528 0.55013 0.0
H892 H 0.83616 0.09823 0.39293 0.0
H893 H 0.78886 0.08732 0.39745 0.0
H894 H 0.88768 0.07166 0.39461 0.0
H895 H 0.91961 0.05703 0.42835 0.0
C896 C 0.20982 0.55966 0.01538 0.0
C897 C 0.21707 0.57301 0.05211 0.0
C898 C 0.15195 0.56022 0.06972 0.0
C899 C 0.1435 0.55153 0.03186 0.0
N900 N 0.16313 0.54927 0.96717 0.0
N901 N 0.19313 0.59355 0.11202 0.0
C902 C 0.17211 0.55285 0.0042 0.0
C903 C 0.18758 0.57548 0.07869 0.0
N904 N 0.23899 0.55249 0.99154 0.0
N905 N 0.12663 0.55239 0.09745 0.0
H906 H 0.2186 0.606 0.11944 0.0
H907 H 0.17139 0.59946 0.13064 0.0
H908 H 0.10076 0.53957 0.09244 0.0
H909 H 0.133 0.55478 0.12582 0.0
H910 H 0.23558 0.53912 0.96582 0.0
H911 H 0.26703 0.55674 0.99892 0.0
H912 H 0.18233 0.5539 0.94565 0.0
H913 H 0.1357 0.54522 0.95772 0.0
C914 C 0.32152 0.45991 0.58458 0.0
C915 C 0.29251 0.46219 0.55745 0.0
C916 C 0.33965 0.47124 0.5083 0.0
C917 C 0.36805 0.47372 0.53613 0.0
N918 N 0.38396 0.47996 0.60171 0.0
N919 N 0.27328 0.47687 0.49434 0.0
C920 C 0.35847 0.47071 0.57458 0.0
C921 C 0.30134 0.46983 0.51948 0.0
N922 N 0.31419 0.44623 0.61958 0.0
N923 N 0.3492 0.46867 0.47133 0.0
H924 H 0.2449 0.47671 0.50164 0.0
H925 H 0.2783 0.48632 0.46719 0.0
H926 H 0.37698 0.46829 0.46205 0.0
H927 H 0.32976 0.46309 0.45025 0.0
H928 H 0.33524 0.44057 0.63906 0.0
H929 H 0.28771 0.43678 0.62782 0.0
H930 H 0.37696 0.48169 0.62999 0.0
H931 H 0.41083 0.49002 0.59582 0.0
C932 C 0.97364 0.71646 0.98521 0.0
C933 C 0.95583 0.72475 0.95076 0.0
C934 C 0.93906 0.65823 0.94318 0.0
C935 C 0.96134 0.6494 0.97508 0.0
N936 N 0.97858 0.67249 0.03631 0.0
N937 N 0.922 0.70404 0.89592 0.0
C938 C 0.97273 0.67918 0.9991 0.0
C939 C 0.93867 0.69576 0.9294 0.0
N940 N 0.99239 0.74404 0.00422 0.0
N941 N 0.91468 0.63218 0.92899 0.0
H942 H 0.91865 0.73139 0.886 0.0
H943 H 0.91369 0.68365 0.87671 0.0
H944 H 0.90834 0.60725 0.94288 0.0
H945 H 0.89594 0.63759 0.90729 0.0
H946 H 0.0094 0.73861 0.02734 0.0
H947 H 0.9938 0.77178 0.99487 0.0
H948 H 0.98408 0.69367 0.0557 0.0
H949 H 0.97186 0.64689 0.04884 0.0
C950 C 0.48992 0.79364 0.03852 0.0
C951 C 0.48364 0.7863 0.07706 0.0
C952 C 0.49773 0.85196 0.09155 0.0
C953 C 0.49723 0.86056 0.05277 0.0
N954 N 0.48753 0.83989 0.98898 0.0
N955 N 0.47519 0.81031 0.13988 0.0
C956 C 0.49226 0.83146 0.02601 0.0
C957 C 0.48604 0.81589 0.1036 0.0
N958 N 0.49406 0.76447 0.01399 0.0
N959 N 0.51029 0.87792 0.11686 0.0
H960 H 0.46512 0.78471 0.14988 0.0
H961 H 0.4727 0.83215 0.15917 0.0
H962 H 0.5206 0.90421 0.109 0.0
H963 H 0.51444 0.87175 0.14508 0.0
H964 H 0.50216 0.76814 0.98621 0.0
H965 H 0.49312 0.73639 0.0224 0.0
H966 H 0.47982 0.81996 0.96903 0.0
H967 H 0.48777 0.86725 0.97862 0.0
C968 C 0.02529 0.21596 0.5217 0.0
C969 C 0.0491 0.22477 0.5523 0.0
C970 C 0.04905 0.15883 0.57204 0.0
C971 C 0.02871 0.14948 0.53924 0.0
N972 N -0.00033 0.16759 0.48106 0.0
N973 N 0.08769 0.20465 0.60417 0.0
C974 C 0.01726 0.17765 0.51359 0.0
C975 C 0.06191 0.19625 0.577 0.0
N976 N 0.0098 0.2443 0.50098 0.0
N977 N 0.05563 0.13196 0.59862 0.0
H978 H 0.09776 0.23176 0.60895 0.0
H979 H 0.1014 0.1844 0.62016 0.0
H980 H 0.04715 0.10405 0.5956 0.0
H981 H 0.06668 0.13783 0.62497 0.0
H982 H 0.98927 0.24005 0.48066 0.0
H983 H 0.01537 0.27263 0.50612 0.0
H984 H 0.99444 0.18618 0.45918 0.0
H985 H 0.99224 0.1399 0.4749 0.0
C986 C 0.52733 0.29524 0.48189 0.0
C987 C 0.56551 0.28734 0.47362 0.0
C988 C 0.58158 0.35324 0.48463 0.0
C989 C 0.5428 0.36212 0.48734 0.0
N990 N 0.47811 0.34206 0.48153 0.0
N991 N 0.62773 0.31059 0.45922 0.0
C992 C 0.51539 0.33325 0.48423 0.0
C993 C 0.59236 0.31682 0.47281 0.0
N994 N 0.50268 0.26651 0.48834 0.0
N995 N 0.6082 0.37906 0.49468 0.0
H996 H 0.63656 0.28465 0.44891 0.0
H997 H 0.64699 0.33216 0.4546 0.0
H998 H 0.60153 0.40556 0.50526 0.0
H999 H 0.63671 0.37263 0.49651 0.0
H1000 H 0.47542 0.2708 0.49807 0.0
H1001 H 0.51061 0.2383 0.48756 0.0
H1002 H 0.45744 0.32224 0.47541 0.0
H1003 H 0.46812 0.3696 0.48158 0.0
loop_
_geom_bond_atom_site_label_1
_geom_bond_atom_site_label_2
_geom_bond_distance
_geom_bond_site_symmetry_2
_ccdc_geom_bond_type
C0 C1 1.391 . S
C0 C4 1.391 . S
C0 H42 0.948 . S
C1 C0 1.391 . S
C1 C2 1.391 . S
C2 C1 1.391 . S
C2 H58 0.947 . S
C2 C59 1.392 . S
C3 C4 1.391 . S
C3 C7 1.397 . S
C3 C59 1.419 . S
C4 C0 1.391 . S
C4 C3 1.391 . S
C4 C5 1.399 . S
C5 C4 1.399 . S
C5 C8 1.396 . S
C5 C17 1.453 . S
C5 C18 1.684 . S
H6 C30 0.948 . S
C7 C3 1.397 . S
C7 C8 1.394 . S
C7 C26 1.723 . S
C8 C5 1.396 . S
C8 C7 1.394 . S
C8 C38 1.723 . S
H9 C32 0.947 . S
H10 C33 0.948 . S
H11 C39 0.982 . S
H12 C40 0.979 . S
H13 C40 0.980 . S
H14 C40 0.983 . S
H15 C39 0.979 . S
H16 C39 0.977 . S
C17 C5 1.453 . S
C17 H46 0.982 . S
C17 H47 0.979 . S
C17 H48 0.977 . S
C18 C5 1.684 . S
C18 H43 0.979 . S
C18 H44 0.980 . S
C18 H45 0.983 . S
C19 C20 1.391 . S
C19 C24 1.391 . S
C19 H49 0.948 . S
C20 C19 1.391 . S
C20 C21 1.391 . S
C21 C20 1.391 . S
C21 C22 1.392 . S
C21 H50 0.947 . S
C22 C21 1.392 . S
C22 C23 1.419 . S
C22 H51 0.948 . S
C23 C22 1.419 . S
C23 C24 1.391 . S
C23 C27 1.397 . S
C24 C19 1.391 . S
C24 C23 1.391 . S
C24 C25 1.399 . S
C25 C24 1.399 . S
C25 C26 1.396 . S
C25 C28 1.453 . S
C25 C29 1.684 . S
C26 C7 1.723 . S
C26 C25 1.396 . S
C26 C27 1.394 . S
C27 C23 1.397 . S
C27 C26 1.394 . S
C27 C37 1.723 . S
C28 C25 1.453 . S
C28 H52 0.982 . S
C28 H53 0.979 . S
C28 H54 0.977 . S
C29 C25 1.684 . S
C29 H55 0.979 . S
C29 H56 0.980 . S
C29 H57 0.983 . S
C30 H6 0.948 . S
C30 C31 1.391 . S
C30 C35 1.391 . S
C31 C30 1.391 . S
C31 C32 1.391 . S
C32 H9 0.947 . S
C32 C31 1.391 . S
C32 C33 1.392 . S
C33 H10 0.948 . S
C33 C32 1.392 . S
C33 C34 1.419 . S
C34 C33 1.419 . S
C34 C35 1.391 . S
C34 C38 1.397 . S
C35 C30 1.391 . S
C35 C34 1.391 . S
C35 C36 1.399 . S
C36 C35 1.399 . S
C36 C37 1.396 . S
C36 C39 1.453 . S
C36 C40 1.684 . S
C37 C27 1.723 . S
C37 C36 1.396 . S
C37 C38 1.394 . S
C38 C8 1.723 . S
C38 C34 1.397 . S
C38 C37 1.394 . S
C39 H11 0.982 . S
C39 H15 0.979 . S
C39 H16 0.977 . S
C39 C36 1.453 . S
C40 H12 0.979 . S
C40 H13 0.980 . S
C40 H14 0.983 . S
C40 C36 1.684 . S
H41 C59 0.948 . S
H42 C0 0.948 . S
H43 C18 0.979 . S
H44 C18 0.980 . S
H45 C18 0.983 . S
H46 C17 0.982 . S
H47 C17 0.979 . S
H48 C17 0.977 . S
H49 C19 0.948 . S
H50 C21 0.947 . S
H51 C22 0.948 . S
H52 C28 0.982 . S
H53 C28 0.979 . S
H54 C28 0.977 . S
H55 C29 0.979 . S
H56 C29 0.980 . S
H57 C29 0.983 . S
H58 C2 0.947 . S
C59 C2 1.392 . S
C59 C3 1.419 . S
C59 H41 0.948 . S
C60 C61 1.391 . S
C60 C64 1.391 . S
C60 H102 0.948 . S
C61 C60 1.391 . S
C61 C62 1.391 . S
C62 C61 1.391 . S
C62 H118 0.947 . S
C62 C119 1.392 . S
C63 C64 1.391 . S
C63 C67 1.397 . S
C63 C119 1.419 . S
C64 C60 1.391 . S
C64 C63 1.391 . S
C64 C65 1.399 . S
C65 C64 1.399 . S
C65 C68 1.396 . S
C65 C77 1.453 . S
C65 C78 1.684 . S
H66 C90 0.948 . S
C67 C63 1.397 . S
C67 C68 1.394 . S
C67 C86 1.723 . S
C68 C65 1.396 . S
C68 C67 1.394 . S
C68 C98 1.723 . S
H69 C92 0.947 . S
H70 C93 0.948 . S
H71 C99 0.982 . S
H72 C100 0.979 . S
H73 C100 0.980 . S
H74 C100 0.983 . S
H75 C99 0.979 . S
H76 C99 0.977 . S
C77 C65 1.453 . S
C77 H106 0.982 . S
C77 H107 0.979 . S
C77 H108 0.977 . S
C78 C65 1.684 . S
C78 H103 0.979 . S
C78 H104 0.980 . S
C78 H105 0.983 . S
C79 C80 1.391 . S
C79 C84 1.391 . S
C79 H109 0.948 . S
C80 C79 1.391 . S
C80 C81 1.391 . S
C81 C80 1.391 . S
C81 C82 1.392 . S
C81 H110 0.947 . S
C82 C81 1.392 . S
C82 C83 1.419 . S
C82 H111 0.948 . S
C83 C82 1.419 . S
C83 C84 1.391 . S
C83 C87 1.397 . S
C84 C79 1.391 . S
C84 C83 1.391 . S
C84 C85 1.399 . S
C85 C84 1.399 . S
C85 C86 1.396 . S
C85 C88 1.453 . S
C85 C89 1.684 . S
C86 C67 1.723 . S
C86 C85 1.396 . S
C86 C87 1.394 . S
C87 C83 1.397 . S
C87 C86 1.394 . S
C87 C97 1.723 . S
C88 C85 1.453 . S
C88 H112 0.982 . S
C88 H113 0.979 . S
C88 H114 0.977 . S
C89 C85 1.684 . S
C89 H115 0.979 . S
C89 H116 0.980 . S
C89 H117 0.983 . S
C90 H66 0.948 . S
C90 C91 1.391 . S
C90 C95 1.391 . S
C91 C90 1.391 . S
C91 C92 1.391 . S
C92 H69 0.947 . S
C92 C91 1.391 . S
C92 C93 1.392 . S
C93 H70 0.948 . S
C93 C92 1.392 . S
C93 C94 1.419 . S
C94 C93 1.419 . S
C94 C95 1.391 . S
C94 C98 1.397 . S
C95 C90 1.391 . S
C95 C94 1.391 . S
C95 C96 1.399 . S
C96 C95 1.399 . S
C96 C97 1.396 . S
C96 C99 1.453 . S
C96 C100 1.684 . S
C97 C87 1.723 . S
C97 C96 1.396 . S
C97 C98 1.394 . S
C98 C68 1.723 . S
C98 C94 1.397 . S
C98 C97 1.394 . S
C99 H71 0.982 . S
C99 H75 0.979 . S
C99 H76 0.977 . S
C99 C96 1.453 . S
C100 H72 0.979 . S
C100 H73 0.980 . S
C100 H74 0.983 . S
C100 C96 1.684 . S
H101 C119 0.948 . S
H102 C60 0.948 . S
H103 C78 0.979 . S
H104 C78 0.980 . S
H105 C78 0.983 . S
H106 C77 0.982 . S
H107 C77 0.979 . S
H108 C77 0.977 . S
H109 C79 0.948 . S
H110 C81 0.947 . S
H111 C82 0.948 . S
H112 C88 0.982 . S
H113 C88 0.979 . S
H114 C88 0.977 . S
H115 C89 0.979 . S
H116 C89 0.980 . S
H117 C89 0.983 . S
H118 C62 0.947 . S
C119 C62 1.392 . S
C119 C63 1.419 . S
C119 H101 0.948 . S
C120 C121 1.391 . S
C120 C124 1.391 . S
C120 H162 0.948 . S
C121 C120 1.391 . S
C121 C122 1.391 . S
C122 C121 1.391 . S
C122 H178 0.947 . S
C122 C179 1.392 . S
C123 C124 1.391 . S
C123 C127 1.397 . S
C123 C179 1.419 . S
C124 C120 1.391 . S
C124 C123 1.391 . S
C124 C125 1.399 . S
C125 C124 1.399 . S
C125 C128 1.396 . S
C125 C137 1.453 . S
C125 C138 1.684 . S
H126 C150 0.948 . S
C127 C123 1.397 . S
C127 C128 1.394 . S
C127 C146 1.723 . S
C128 C125 1.396 . S
C128 C127 1.394 . S
C128 C158 1.723 . S
H129 C152 0.947 . S
H130 C153 0.948 . S
H131 C159 0.982 . S
H132 C160 0.979 . S
H133 C160 0.980 . S
H134 C160 0.983 . S
H135 C159 0.979 . S
H136 C159 0.977 . S
C137 C125 1.453 . S
C137 H166 0.982 . S
C137 H167 0.979 . S
C137 H168 0.977 . S
C138 C125 1.684 . S
C138 H163 0.979 . S
C138 H164 0.980 . S
C138 H165 0.983 . S
C139 C140 1.391 . S
C139 C144 1.391 . S
C139 H169 0.948 . S
C140 C139 1.391 . S
C140 C141 1.391 . S
C141 C140 1.391 . S
C141 C142 1.392 . S
C141 H170 0.947 . S
C142 C141 1.392 . S
C142 C143 1.419 . S
C142 H171 0.948 . S
C143 C142 1.419 . S
C143 C144 1.391 . S
C143 C147 1.397 . S
C144 C139 1.391 . S
C144 C143 1.391 . S
C144 C145 1.399 . S
C145 C144 1.399 . S
C145 C146 1.396 . S
C145 C148 1.453 . S
C145 C149 1.684 . S
C146 C127 1.723 . S
C146 C145 1.396 . S
C146 C147 1.394 . S
C147 C143 1.397 . S
C147 C146 1.394 . S
C147 C157 1.723 . S
C148 C145 1.453 . S
C148 H172 0.982 . S
C148 H173 0.979 . S
C148 H174 0.977 . S
C149 C145 1.684 . S
C149 H175 0.979 . S
C149 H176 0.980 . S
C149 H177 0.983 . S
C150 H126 0.948 . S
C150 C151 1.391 . S
C150 C155 1.391 . S
C151 C150 1.391 . S
C151 C152 1.391 . S
C152 H129 0.947 . S
C152 C151 1.391 . S
C152 C153 1.392 . S
C153 H130 0.948 . S
C153 C152 1.392 . S
C153 C154 1.419 . S
C154 C153 1.419 . S
C154 C155 1.391 . S
C154 C158 1.397 . S
C155 C150 1.391 . S
C155 C154 1.391 . S
C155 C156 1.399 . S
C156 C155 1.399 . S
C156 C157 1.396 . S
C156 C159 1.453 . S
C156 C160 1.684 . S
C157 C147 1.723 . S
C157 C156 1.396 . S
C157 C158 1.394 . S
C158 C128 1.723 . S
C158 C154 1.397 . S
C158 C157 1.394 . S
C159 H131 0.982 . S
C159 H135 0.979 . S
C159 H136 0.977 . S
C159 C156 1.453 . S
C160 H132 0.979 . S
C160 H133 0.980 . S
C160 H134 0.983 . S
C160 C156 1.684 . S
H161 C179 0.948 . S
H162 C120 0.948 . S
H163 C138 0.979 . S
H164 C138 0.980 . S
H165 C138 0.983 . S
H166 C137 0.982 . S
H167 C137 0.979 . S
H168 C137 0.977 . S
H169 C139 0.948 . S
H170 C141 0.947 . S
H171 C142 0.948 . S
H172 C148 0.982 . S
H173 C148 0.979 . S
H174 C148 0.977 . S
H175 C149 0.979 . S
H176 C149 0.980 . S
H177 C149 0.983 . S
H178 C122 0.947 . S
C179 C122 1.392 . S
C179 C123 1.419 . S
C179 H161 0.948 . S
C180 C181 1.391 . S
C180 C184 1.391 . S
C180 H222 0.948 . S
C181 C180 1.391 . S
C181 C182 1.391 . S
C182 C181 1.391 . S
C182 H238 0.947 . S
C182 C239 1.392 . S
C183 C184 1.391 . S
C183 C187 1.397 . S
C183 C239 1.419 . S
C184 C180 1.391 . S
C184 C183 1.391 . S
C184 C185 1.399 . S
C185 C184 1.399 . S
C185 C188 1.396 . S
C185 C197 1.453 . S
C185 C198 1.684 . S
H186 C210 0.948 . S
C187 C183 1.397 . S
C187 C188 1.394 . S
C187 C206 1.723 . S
C188 C185 1.396 . S
C188 C187 1.394 . S
C188 C218 1.723 . S
H189 C212 0.947 . S
H190 C213 0.948 . S
H191 C219 0.982 . S
H192 C220 0.979 . S
H193 C220 0.980 . S
H194 C220 0.983 . S
H195 C219 0.979 . S
H196 C219 0.977 . S
C197 C185 1.453 . S
C197 H226 0.982 . S
C197 H227 0.979 . S
C197 H228 0.977 . S
C198 C185 1.684 . S
C198 H223 0.979 . S
C198 H224 0.980 . S
C198 H225 0.983 . S
C199 C200 1.391 . S
C199 C204 1.391 . S
C199 H229 0.948 . S
C200 C199 1.391 . S
C200 C201 1.391 . S
C201 C200 1.391 . S
C201 C202 1.392 . S
C201 H230 0.947 . S
C202 C201 1.392 . S
C202 C203 1.419 . S
C202 H231 0.948 . S
C203 C202 1.419 . S
C203 C204 1.391 . S
C203 C207 1.397 . S
C204 C199 1.391 . S
C204 C203 1.391 . S
C204 C205 1.399 . S
C205 C204 1.399 . S
C205 C206 1.396 . S
C205 C208 1.453 . S
C205 C209 1.684 . S
C206 C187 1.723 . S
C206 C205 1.396 . S
C206 C207 1.394 . S
C207 C203 1.397 . S
C207 C206 1.394 . S
C207 C217 1.723 . S
C208 C205 1.453 . S
C208 H232 0.982 . S
C208 H233 0.979 . S
C208 H234 0.977 . S
C209 C205 1.684 . S
C209 H235 0.979 . S
C209 H236 0.980 . S
C209 H237 0.983 . S
C210 H186 0.948 . S
C210 C211 1.391 . S
C210 C215 1.391 . S
C211 C210 1.391 . S
C211 C212 1.391 . S
C212 H189 0.947 . S
C212 C211 1.391 . S
C212 C213 1.392 . S
C213 H190 0.948 . S
C213 C212 1.392 . S
C213 C214 1.419 . S
C214 C213 1.419 . S
C214 C215 1.391 . S
C214 C218 1.397 . S
C215 C210 1.391 . S
C215 C214 1.391 . S
C215 C216 1.399 . S
C216 C215 1.399 . S
C216 C217 1.396 . S
C216 C219 1.453 . S
C216 C220 1.684 . S
C217 C207 1.723 . S
C217 C216 1.396 . S
C217 C218 1.394 . S
C218 C188 1.723 . S
C218 C214 1.397 . S
C218 C217 1.394 . S
C219 H191 0.982 . S
C219 H195 0.979 . S
C219 H196 0.977 . S
C219 C216 1.453 . S
C220 H192 0.979 . S
C220 H193 0.980 . S
C220 H194 0.983 . S
C220 C216 1.684 . S
H221 C239 0.948 . S
H222 C180 0.948 . S
H223 C198 0.979 . S
H224 C198 0.980 . S
H225 C198 0.983 . S
H226 C197 0.982 . S
H227 C197 0.979 . S
H228 C197 0.977 . S
H229 C199 0.948 . S
H230 C201 0.947 . S
H231 C202 0.948 . S
H232 C208 0.982 . S
H233 C208 0.979 . S
H234 C208 0.977 . S
H235 C209 0.979 . S
H236 C209 0.980 . S
H237 C209 0.983 . S
H238 C182 0.947 . S
C239 C182 1.392 . S
C239 C183 1.419 . S
C239 H221 0.948 . S
C240 C241 1.391 . S
C240 C244 1.391 . S
C240 H282 0.948 1_556 S
C241 C240 1.391 . S
C241 C242 1.391 . S
C242 C241 1.391 . S
C242 H298 0.947 1_655 S
C242 C299 1.392 . S
C243 C244 1.391 . S
C243 C247 1.397 . S
C243 C299 1.419 . S
C244 C240 1.391 . S
C244 C243 1.391 . S
C244 C245 1.399 . S
C245 C244 1.399 . S
C245 C248 1.396 . S
C245 C257 1.453 . S
C245 C258 1.684 1_556 S
H246 C270 0.948 . S
C247 C243 1.397 . S
C247 C248 1.394 . S
C247 C266 1.723 . S
C248 C245 1.396 . S
C248 C247 1.394 . S
C248 C278 1.723 . S
H249 C272 0.947 . S
H250 C273 0.948 1_554 S
H251 C279 0.982 . S
H252 C280 0.979 . S
H253 C280 0.980 . S
H254 C280 0.983 . S
H255 C279 0.979 1_545 S
H256 C279 0.983 . S
C257 C245 1.453 . S
C257 H286 0.982 . S
C257 H287 0.972 1_556 S
C257 H288 0.977 . S
C258 C245 1.684 1_554 S
C258 H283 0.979 . S
C258 H284 0.980 . S
C258 H285 0.983 . S
C259 C260 1.391 . S
C259 C264 1.391 . S
C259 H289 0.948 . S
C260 C259 1.391 . S
C260 C261 1.391 1_565 S
C261 C260 1.391 1_545 S
C261 C262 1.392 . S
C261 H290 0.947 . S
C262 C261 1.392 . S
C262 C263 1.419 1_545 S
C262 H291 0.948 . S
C263 C262 1.419 1_565 S
C263 C264 1.391 . S
C263 C267 1.397 . S
C264 C259 1.391 . S
C264 C263 1.391 . S
C264 C265 1.399 . S
C265 C264 1.399 . S
C265 C266 1.396 . S
C265 C268 1.453 . S
C265 C269 1.684 1_655 S
C266 C247 1.723 . S
C266 C265 1.396 . S
C266 C267 1.394 . S
C267 C263 1.397 . S
C267 C266 1.394 . S
C267 C277 1.723 . S
C268 C265 1.453 . S
C268 H292 0.982 . S
C268 H293 0.979 . S
C268 H294 0.977 . S
C269 C265 1.684 1_455 S
C269 H295 0.979 . S
C269 H296 0.980 . S
C269 H297 0.983 . S
C270 H246 0.948 . S
C270 C271 1.391 1_545 S
C270 C275 1.391 1_545 S
C271 C270 1.391 1_565 S
C271 C272 1.391 1_556 S
C272 H249 0.947 . S
C272 C271 1.391 1_554 S
C272 C273 1.392 1_554 S
C273 H250 0.948 1_556 S
C273 C272 1.392 1_556 S
C273 C274 1.419 . S
C274 C273 1.419 . S
C274 C275 1.391 . S
C274 C278 1.397 . S
C275 C270 1.391 1_565 S
C275 C274 1.391 . S
C275 C276 1.399 . S
C276 C275 1.399 . S
C276 C277 1.396 . S
C276 C279 1.453 . S
C276 C280 1.684 1_565 S
C277 C267 1.723 . S
C277 C276 1.396 . S
C277 C278 1.394 . S
C278 C248 1.723 . S
C278 C274 1.397 . S
C278 C277 1.394 . S
C279 H251 0.982 . S
C279 H255 0.979 1_565 S
C279 H256 0.983 . S
C279 C276 1.453 . S
C280 H252 0.979 . S
C280 H253 0.980 . S
C280 H254 0.983 . S
C280 C276 1.684 1_545 S
H281 C299 0.948 . S
H282 C240 0.948 1_554 S
H283 C258 0.979 . S
H284 C258 0.980 . S
H285 C258 0.983 . S
H286 C257 0.982 . S
H287 C257 0.972 1_554 S
H288 C257 0.977 . S
H289 C259 0.948 . S
H290 C261 0.947 . S
H291 C262 0.948 . S
H292 C268 0.982 . S
H293 C268 0.979 . S
H294 C268 0.977 . S
H295 C269 0.979 . S
H296 C269 0.980 . S
H297 C269 0.983 . S
H298 C242 0.947 1_455 S
C299 C242 1.392 . S
C299 C243 1.419 . S
C299 H281 0.948 . S
C300 C301 1.391 . S
C300 C304 1.391 . S
C300 H342 0.948 . S
C301 C300 1.391 . S
C301 C302 1.391 . S
C302 C301 1.391 . S
C302 H358 0.947 1_545 S
C302 C359 1.392 . S
C303 C304 1.391 . S
C303 C307 1.397 . S
C303 C359 1.419 . S
C304 C300 1.391 . S
C304 C303 1.391 . S
C304 C305 1.399 . S
C305 C304 1.399 . S
C305 C308 1.396 . S
C305 C317 1.453 . S
C305 C318 1.684 . S
H306 C330 0.948 . S
C307 C303 1.397 . S
C307 C308 1.394 . S
C307 C326 1.723 . S
C308 C305 1.396 . S
C308 C307 1.394 . S
C308 C338 1.723 . S
H309 C332 0.947 . S
H310 C333 0.948 . S
H311 C339 0.982 . S
H312 C340 0.979 . S
H313 C340 0.980 . S
H314 C340 0.983 . S
H315 C339 0.979 . S
H316 C339 0.977 . S
C317 C305 1.453 . S
C317 H346 0.982 . S
C317 H347 0.979 . S
C317 H348 0.977 . S
C318 C305 1.684 . S
C318 H343 0.979 . S
C318 H344 0.980 . S
C318 H345 0.983 . S
C319 C320 1.391 . S
C319 C324 1.391 . S
C319 H349 0.948 1_545 S
C320 C319 1.391 . S
C320 C321 1.391 . S
C321 C320 1.391 . S
C321 C322 1.392 . S
C321 H350 0.947 . S
C322 C321 1.392 . S
C322 C323 1.419 . S
C322 H351 0.948 . S
C323 C322 1.419 . S
C323 C324 1.391 . S
C323 C327 1.397 . S
C324 C319 1.391 . S
C324 C323 1.391 . S
C324 C325 1.399 . S
C325 C324 1.399 . S
C325 C326 1.396 . S
C325 C328 1.453 1_545 S
C325 C329 1.684 . S
C326 C307 1.723 . S
C326 C325 1.396 . S
C326 C327 1.394 . S
C327 C323 1.397 . S
C327 C326 1.394 . S
C327 C337 1.723 . S
C328 C325 1.453 1_565 S
C328 H352 0.982 . S
C328 H353 0.979 . S
C328 H354 0.977 . S
C329 C325 1.684 . S
C329 H355 0.979 . S
C329 H356 0.980 . S
C329 H357 0.983 1_545 S
C330 H306 0.948 . S
C330 C331 1.391 . S
C330 C335 1.391 . S
C331 C330 1.391 . S
C331 C332 1.391 . S
C332 H309 0.947 . S
C332 C331 1.391 . S
C332 C333 1.392 . S
C333 H310 0.948 . S
C333 C332 1.392 . S
C333 C334 1.419 . S
C334 C333 1.419 . S
C334 C335 1.391 . S
C334 C338 1.397 . S
C335 C330 1.391 . S
C335 C334 1.391 . S
C335 C336 1.399 . S
C336 C335 1.399 . S
C336 C337 1.396 . S
C336 C339 1.453 . S
C336 C340 1.684 . S
C337 C327 1.723 . S
C337 C336 1.396 . S
C337 C338 1.394 . S
C338 C308 1.723 . S
C338 C334 1.397 . S
C338 C337 1.394 . S
C339 H311 0.982 . S
C339 H315 0.979 . S
C339 H316 0.977 . S
C339 C336 1.453 . S
C340 H312 0.979 . S
C340 H313 0.980 . S
C340 H314 0.983 . S
C340 C336 1.684 . S
H341 C359 0.948 . S
H342 C300 0.948 . S
H343 C318 0.979 . S
H344 C318 0.980 . S
H345 C318 0.983 . S
H346 C317 0.982 . S
H347 C317 0.979 . S
H348 C317 0.977 . S
H349 C319 0.948 1_565 S
H350 C321 0.947 . S
H351 C322 0.948 . S
H352 C328 0.982 . S
H353 C328 0.979 . S
H354 C328 0.977 . S
H355 C329 0.979 . S
H356 C329 0.980 . S
H357 C329 0.983 1_565 S
H358 C302 0.947 1_565 S
C359 C302 1.392 . S
C359 C303 1.419 . S
C359 H341 0.948 . S
C360 C361 1.391 . S
C360 C364 1.391 . S
C360 H402 0.948 . S
C361 C360 1.391 . S
C361 C362 1.391 . S
C362 C361 1.391 . S
C362 H418 0.947 . S
C362 C419 1.392 . S
C363 C364 1.391 . S
C363 C367 1.397 . S
C363 C419 1.419 . S
C364 C360 1.391 . S
C364 C363 1.391 . S
C364 C365 1.399 . S
C365 C364 1.399 . S
C365 C368 1.396 . S
C365 C377 1.453 . S
C365 C378 1.684 . S
H366 C390 0.948 . S
C367 C363 1.397 . S
C367 C368 1.394 . S
C367 C386 1.723 . S
C368 C365 1.396 . S
C368 C367 1.394 . S
C368 C398 1.723 . S
H369 C392 0.947 . S
H370 C393 0.948 . S
H371 C399 0.982 . S
H372 C400 0.982 . S
H373 C400 0.981 . S
H374 C400 0.988 . S
H375 C399 0.979 . S
H376 C399 0.977 . S
C377 C365 1.453 . S
C377 H406 0.982 . S
C377 H407 0.979 . S
C377 H408 0.977 . S
C378 C365 1.684 . S
C378 H403 0.979 . S
C378 H404 0.980 . S
C378 H405 0.983 . S
C379 C380 1.391 . S
C379 C384 1.391 . S
C379 H409 0.948 . S
C380 C379 1.391 . S
C380 C381 1.391 . S
C381 C380 1.391 . S
C381 C382 1.392 . S
C381 H410 0.947 1_554 S
C382 C381 1.392 . S
C382 C383 1.419 . S
C382 H411 0.948 . S
C383 C382 1.419 . S
C383 C384 1.391 . S
C383 C387 1.397 . S
C384 C379 1.391 . S
C384 C383 1.391 . S
C384 C385 1.399 . S
C385 C384 1.399 . S
C385 C386 1.396 . S
C385 C388 1.453 . S
C385 C389 1.684 . S
C386 C367 1.723 . S
C386 C385 1.396 . S
C386 C387 1.394 . S
C387 C383 1.397 . S
C387 C386 1.394 . S
C387 C397 1.723 . S
C388 C385 1.453 . S
C388 H412 0.982 . S
C388 H413 0.979 . S
C388 H414 0.977 . S
C389 C385 1.684 . S
C389 H415 0.979 . S
C389 H416 0.980 . S
C389 H417 0.983 . S
C390 H366 0.948 . S
C390 C391 1.391 . S
C390 C395 1.391 . S
C391 C390 1.391 . S
C391 C392 1.391 . S
C392 H369 0.947 . S
C392 C391 1.391 . S
C392 C393 1.392 . S
C393 H370 0.948 . S
C393 C392 1.392 . S
C393 C394 1.419 . S
C394 C393 1.419 . S
C394 C395 1.391 . S
C394 C398 1.397 . S
C395 C390 1.391 . S
C395 C394 1.391 . S
C395 C396 1.399 . S
C396 C395 1.399 . S
C396 C397 1.396 . S
C396 C399 1.453 . S
C396 C400 1.675 1_554 S
C397 C387 1.723 . S
C397 C396 1.396 . S
C397 C398 1.394 . S
C398 C368 1.723 . S
C398 C394 1.397 . S
C398 C397 1.394 . S
C399 H371 0.982 . S
C399 H375 0.979 . S
C399 H376 0.977 . S
C399 C396 1.453 . S
C400 H372 0.982 . S
C400 H373 0.981 . S
C400 H374 0.988 . S
C400 C396 1.675 1_556 S
H401 C419 0.948 . S
H402 C360 0.948 . S
H403 C378 0.979 . S
H404 C378 0.980 . S
H405 C378 0.983 . S
H406 C377 0.982 . S
H407 C377 0.979 . S
H408 C377 0.977 . S
H409 C379 0.948 . S
H410 C381 0.947 1_556 S
H411 C382 0.948 . S
H412 C388 0.982 . S
H413 C388 0.979 . S
H414 C388 0.977 . S
H415 C389 0.979 . S
H416 C389 0.980 . S
H417 C389 0.983 . S
H418 C362 0.947 . S
C419 C362 1.392 . S
C419 C363 1.419 . S
C419 H401 0.948 . S
C420 C421 1.391 . S
C420 C424 1.391 . S
C420 H462 0.948 . S
C421 C420 1.391 . S
C421 C422 1.391 . S
C422 C421 1.391 . S
C422 H478 0.947 . S
C422 C479 1.392 . S
C423 C424 1.391 . S
C423 C427 1.397 . S
C423 C479 1.419 . S
C424 C420 1.391 . S
C424 C423 1.391 . S
C424 C425 1.399 . S
C425 C424 1.399 . S
C425 C428 1.396 . S
C425 C437 1.453 . S
C425 C438 1.684 . S
H426 C450 0.948 . S
C427 C423 1.397 . S
C427 C428 1.394 . S
C427 C446 1.723 . S
C428 C425 1.396 . S
C428 C427 1.394 . S
C428 C458 1.723 . S
H429 C452 0.947 . S
H430 C453 0.948 . S
H431 C459 0.982 . S
H432 C460 0.979 . S
H433 C460 0.980 . S
H434 C460 0.983 . S
H435 C459 0.979 . S
H436 C459 0.977 . S
C437 C425 1.453 . S
C437 H466 0.982 . S
C437 H467 0.979 1_455 S
C437 H468 0.977 . S
C438 C425 1.684 . S
C438 H463 0.979 . S
C438 H464 0.980 . S
C438 H465 0.983 . S
C439 C440 1.391 . S
C439 C444 1.391 . S
C439 H469 0.948 . S
C440 C439 1.391 . S
C440 C441 1.391 . S
C441 C440 1.391 . S
C441 C442 1.392 . S
C441 H470 0.947 . S
C442 C441 1.392 . S
C442 C443 1.419 . S
C442 H471 0.948 . S
C443 C442 1.419 . S
C443 C444 1.391 . S
C443 C447 1.397 . S
C444 C439 1.391 . S
C444 C443 1.391 . S
C444 C445 1.399 . S
C445 C444 1.399 . S
C445 C446 1.396 . S
C445 C448 1.453 . S
C445 C449 1.684 . S
C446 C427 1.723 . S
C446 C445 1.396 . S
C446 C447 1.394 . S
C447 C443 1.397 . S
C447 C446 1.394 . S
C447 C457 1.723 . S
C448 C445 1.453 . S
C448 H472 0.982 . S
C448 H473 0.979 . S
C448 H474 0.977 . S
C449 C445 1.684 . S
C449 H475 0.979 . S
C449 H476 0.980 . S
C449 H477 0.983 . S
C450 H426 0.948 . S
C450 C451 1.391 . S
C450 C455 1.391 . S
C451 C450 1.391 . S
C451 C452 1.391 . S
C452 H429 0.947 . S
C452 C451 1.391 . S
C452 C453 1.392 . S
C453 H430 0.948 . S
C453 C452 1.392 . S
C453 C454 1.419 . S
C454 C453 1.419 . S
C454 C455 1.391 . S
C454 C458 1.397 . S
C455 C450 1.391 . S
C455 C454 1.391 . S
C455 C456 1.399 . S
C456 C455 1.399 . S
C456 C457 1.396 . S
C456 C459 1.453 . S
C456 C460 1.684 . S
C457 C447 1.723 . S
C457 C456 1.396 . S
C457 C458 1.394 . S
C458 C428 1.723 . S
C458 C454 1.397 . S
C458 C457 1.394 . S
C459 H431 0.982 . S
C459 H435 0.979 . S
C459 H436 0.977 . S
C459 C456 1.453 . S
C460 H432 0.979 . S
C460 H433 0.980 . S
C460 H434 0.983 . S
C460 C456 1.684 . S
H461 C479 0.948 . S
H462 C420 0.948 . S
H463 C438 0.979 . S
H464 C438 0.980 . S
H465 C438 0.983 . S
H466 C437 0.982 . S
H467 C437 0.979 1_655 S
H468 C437 0.977 . S
H469 C439 0.948 . S
H470 C441 0.947 . S
H471 C442 0.948 . S
H472 C448 0.982 . S
H473 C448 0.979 . S
H474 C448 0.977 . S
H475 C449 0.979 . S
H476 C449 0.980 . S
H477 C449 0.983 . S
H478 C422 0.947 . S
C479 C422 1.392 . S
C479 C423 1.419 . S
C479 H461 0.948 . S
O480 Zn481 1.953 . S
O480 C496 1.225 1_655 S
Zn481 O480 1.953 . S
Zn481 O482 1.949 1_655 S
Zn481 O488 1.919 . S
Zn481 O493 1.924 . S
O482 Zn481 1.949 1_455 S
O482 Zn483 1.923 1_445 S
O482 Zn484 1.950 . S
O482 Zn485 1.945 1_545 S
Zn483 O482 1.923 1_665 S
Zn483 O486 1.933 . S
Zn483 O489 1.941 1_565 S
Zn483 O490 1.965 1_665 S
Zn484 O482 1.950 . S
Zn484 O491 1.938 . S
Zn484 O492 1.906 1_545 S
Zn484 O502 1.953 . S
Zn485 O482 1.945 1_565 S
Zn485 O487 1.932 1_455 S
Zn485 O494 1.977 . S
Zn485 O495 1.910 1_455 S
O486 Zn483 1.933 . S
O486 C497 1.226 . S
O487 Zn485 1.932 1_655 S
O487 C497 1.307 . S
O488 Zn481 1.919 . S
O488 C499 1.253 . S
O489 Zn483 1.941 1_545 S
O489 C499 1.283 . S
O490 Zn483 1.965 1_445 S
O490 C498 1.303 . S
O491 Zn484 1.938 . S
O491 C498 1.247 . S
O492 Zn484 1.906 1_565 S
O492 C500 1.304 . S
O493 Zn481 1.924 . S
O493 C501 1.311 1_545 S
O494 Zn485 1.977 . S
O494 C500 1.272 . S
O495 Zn485 1.910 1_655 S
O495 C501 1.231 . S
C496 O480 1.225 1_455 S
C496 O502 1.298 . S
C497 O486 1.226 . S
C497 O487 1.307 . S
C498 O490 1.303 . S
C498 O491 1.247 . S
C499 O488 1.253 . S
C499 O489 1.283 . S
C500 O492 1.304 . S
C500 O494 1.272 . S
C501 O493 1.311 1_565 S
C501 O495 1.231 . S
O502 Zn484 1.953 . S
O502 C496 1.298 . S
O503 Zn504 1.953 . S
O503 C519 1.225 . S
Zn504 O503 1.953 . S
Zn504 O505 1.949 1_556 S
Zn504 O511 1.919 . S
Zn504 O516 1.924 1_556 S
O505 Zn504 1.949 1_554 S
O505 Zn506 1.923 1_544 S
O505 Zn507 1.950 . S
O505 Zn508 1.945 1_545 S
Zn506 O505 1.923 1_566 S
Zn506 O509 1.933 1_556 S
Zn506 O512 1.941 . S
Zn506 O513 1.965 . S
Zn507 O505 1.950 . S
Zn507 O514 1.938 . S
Zn507 O515 1.906 . S
Zn507 O525 1.953 . S
Zn508 O505 1.945 1_565 S
Zn508 O510 1.932 . S
Zn508 O517 1.977 1_565 S
Zn508 O518 1.910 1_565 S
O509 Zn506 1.933 1_554 S
O509 C520 1.226 . S
O510 Zn508 1.932 . S
O510 C520 1.307 . S
O511 Zn504 1.919 . S
O511 C522 1.253 1_545 S
O512 Zn506 1.941 . S
O512 C522 1.283 . S
O513 Zn506 1.965 . S
O513 C521 1.303 . S
O514 Zn507 1.938 . S
O514 C521 1.247 1_544 S
O515 Zn507 1.906 . S
O515 C523 1.304 . S
O516 Zn504 1.924 1_554 S
O516 C524 1.311 . S
O517 Zn508 1.977 1_545 S
O517 C523 1.272 . S
O518 Zn508 1.910 1_545 S
O518 C524 1.231 . S
C519 O503 1.225 . S
C519 O525 1.298 1_556 S
C520 O509 1.226 . S
C520 O510 1.307 . S
C521 O513 1.303 . S
C521 O514 1.247 1_566 S
C522 O511 1.253 1_565 S
C522 O512 1.283 . S
C523 O515 1.304 . S
C523 O517 1.272 . S
C524 O516 1.311 . S
C524 O518 1.231 . S
O525 Zn507 1.953 . S
O525 C519 1.298 1_554 S
O526 Zn527 1.953 . S
O526 C542 1.225 . S
Zn527 O526 1.953 . S
Zn527 O528 1.949 . S
Zn527 O534 1.919 . S
Zn527 O539 1.924 . S
O528 Zn527 1.949 . S
O528 Zn529 1.923 . S
O528 Zn530 1.950 . S
O528 Zn531 1.945 . S
Zn529 O528 1.923 . S
Zn529 O532 1.933 . S
Zn529 O535 1.941 . S
Zn529 O536 1.965 . S
Zn530 O528 1.950 . S
Zn530 O537 1.938 . S
Zn530 O538 1.906 . S
Zn530 O548 1.953 . S
Zn531 O528 1.945 . S
Zn531 O533 1.932 . S
Zn531 O540 1.977 . S
Zn531 O541 1.910 . S
O532 Zn529 1.933 . S
O532 C543 1.226 . S
O533 Zn531 1.932 . S
O533 C543 1.307 . S
O534 Zn527 1.919 . S
O534 C545 1.253 . S
O535 Zn529 1.941 . S
O535 C545 1.283 . S
O536 Zn529 1.965 . S
O536 C544 1.303 . S
O537 Zn530 1.938 . S
O537 C544 1.247 . S
O538 Zn530 1.906 . S
O538 C546 1.304 . S
O539 Zn527 1.924 . S
O539 C547 1.311 . S
O540 Zn531 1.977 . S
O540 C546 1.272 . S
O541 Zn531 1.910 . S
O541 C547 1.231 . S
C542 O526 1.225 . S
C542 O548 1.298 . S
C543 O532 1.226 . S
C543 O533 1.307 . S
C544 O536 1.303 . S
C544 O537 1.247 . S
C545 O534 1.253 . S
C545 O535 1.283 . S
C546 O538 1.304 . S
C546 O540 1.272 . S
C547 O539 1.311 . S
C547 O541 1.231 . S
O548 Zn530 1.953 . S
O548 C542 1.298 . S
O549 Zn550 1.953 . S
O549 C565 1.225 . S
Zn550 O549 1.953 . S
Zn550 O551 1.949 1_655 S
Zn550 O557 1.919 . S
Zn550 O562 1.924 . S
O551 Zn550 1.949 1_455 S
O551 Zn552 1.923 1_454 S
O551 Zn553 1.950 . S
O551 Zn554 1.945 1_554 S
Zn552 O551 1.923 1_656 S
Zn552 O555 1.933 1_655 S
Zn552 O558 1.941 . S
Zn552 O559 1.965 . S
Zn553 O551 1.950 . S
Zn553 O560 1.938 . S
Zn553 O561 1.906 . S
Zn553 O571 1.953 . S
Zn554 O551 1.945 1_556 S
Zn554 O556 1.932 . S
Zn554 O563 1.977 1_556 S
Zn554 O564 1.910 1_556 S
O555 Zn552 1.933 1_455 S
O555 C566 1.226 . S
O556 Zn554 1.932 . S
O556 C566 1.307 . S
O557 Zn550 1.919 . S
O557 C568 1.253 1_554 S
O558 Zn552 1.941 . S
O558 C568 1.283 . S
O559 Zn552 1.965 . S
O559 C567 1.303 . S
O560 Zn553 1.938 . S
O560 C567 1.247 1_454 S
O561 Zn553 1.906 . S
O561 C569 1.304 . S
O562 Zn550 1.924 . S
O562 C570 1.311 1_655 S
O563 Zn554 1.977 1_554 S
O563 C569 1.272 . S
O564 Zn554 1.910 1_554 S
O564 C570 1.231 . S
C565 O549 1.225 . S
C565 O571 1.298 1_655 S
C566 O555 1.226 . S
C566 O556 1.307 . S
C567 O559 1.303 . S
C567 O560 1.247 1_656 S
C568 O557 1.253 1_556 S
C568 O558 1.283 . S
C569 O561 1.304 . S
C569 O563 1.272 . S
C570 O562 1.311 1_455 S
C570 O564 1.231 . S
O571 Zn553 1.953 . S
O571 C565 1.298 1_455 S
C572 C573 1.363 . S
C572 C578 1.379 . S
C572 N580 1.356 . S
C573 C572 1.363 . S
C573 C579 1.363 . S
C574 C575 1.363 . S
C574 C579 1.379 . S
C574 N581 1.356 . S
C575 C574 1.363 . S
C575 C578 1.363 . S
N576 C578 1.356 . S
N576 H588 0.984 1_455 S
N576 H589 0.985 . S
N577 C579 1.356 . S
N577 H582 0.984 . S
N577 H583 0.985 . S
C578 C572 1.379 . S
C578 C575 1.363 . S
C578 N576 1.356 . S
C579 C573 1.363 . S
C579 C574 1.379 . S
C579 N577 1.356 . S
N580 C572 1.356 . S
N580 H586 0.984 1_455 S
N580 H587 0.984 . S
N581 C574 1.356 . S
N581 H584 0.984 . S
N581 H585 0.985 . S
H582 N577 0.984 . S
H583 N577 0.985 . S
H584 N581 0.984 . S
H585 N581 0.985 . S
H586 N580 0.984 1_655 S
H587 N580 0.984 . S
H588 N576 0.984 1_655 S
H589 N576 0.985 . S
C590 C591 1.363 . S
C590 C596 1.379 . S
C590 N598 1.356 . S
C591 C590 1.363 . S
C591 C597 1.363 . S
C592 C593 1.363 . S
C592 C597 1.379 . S
C592 N599 1.356 1_565 S
C593 C592 1.363 . S
C593 C596 1.363 . S
N594 C596 1.356 . S
N594 H606 0.984 . S
N594 H607 0.985 . S
N595 C597 1.356 . S
N595 H600 0.984 . S
N595 H601 0.982 1_565 S
C596 C590 1.379 . S
C596 C593 1.363 . S
C596 N594 1.356 . S
C597 C591 1.363 . S
C597 C592 1.379 . S
C597 N595 1.356 . S
N598 C590 1.356 . S
N598 H604 0.984 . S
N598 H605 0.984 . S
N599 C592 1.356 1_545 S
N599 H602 0.984 . S
N599 H603 0.985 . S
H600 N595 0.984 . S
H601 N595 0.982 1_545 S
H602 N599 0.984 . S
H603 N599 0.985 . S
H604 N598 0.984 . S
H605 N598 0.984 . S
H606 N594 0.984 . S
H607 N594 0.985 . S
C608 C609 1.363 . S
C608 C614 1.379 . S
C608 N616 1.356 . S
C609 C608 1.363 . S
C609 C615 1.363 . S
C610 C611 1.363 . S
C610 C615 1.379 . S
C610 N617 1.356 . S
C611 C610 1.363 . S
C611 C614 1.363 . S
N612 C614 1.356 . S
N612 H624 0.984 . S
N612 H625 0.985 . S
N613 C615 1.356 . S
N613 H618 0.984 . S
N613 H619 0.985 . S
C614 C608 1.379 . S
C614 C611 1.363 . S
C614 N612 1.356 . S
C615 C609 1.363 . S
C615 C610 1.379 . S
C615 N613 1.356 . S
N616 C608 1.356 . S
N616 H622 0.984 . S
N616 H623 0.984 . S
N617 C610 1.356 . S
N617 H620 0.984 . S
N617 H621 0.985 . S
H618 N613 0.984 . S
H619 N613 0.985 . S
H620 N617 0.984 . S
H621 N617 0.985 . S
H622 N616 0.984 . S
H623 N616 0.984 . S
H624 N612 0.984 . S
H625 N612 0.985 . S
C626 C627 1.363 . S
C626 C632 1.379 . S
C626 N634 1.356 . S
C627 C626 1.363 . S
C627 C633 1.363 . S
C628 C629 1.363 . S
C628 C633 1.379 . S
C628 N635 1.356 1_655 S
C629 C628 1.363 . S
C629 C632 1.363 . S
N630 C632 1.356 . S
N630 H642 0.984 . S
N630 H643 0.985 . S
N631 C633 1.356 . S
N631 H636 0.984 . S
N631 H637 0.985 1_655 S
C632 C626 1.379 . S
C632 C629 1.363 . S
C632 N630 1.356 . S
C633 C627 1.363 . S
C633 C628 1.379 . S
C633 N631 1.356 . S
N634 C626 1.356 . S
N634 H640 0.984 . S
N634 H641 0.984 . S
N635 C628 1.356 1_455 S
N635 H638 0.986 . S
N635 H639 0.985 . S
H636 N631 0.984 . S
H637 N631 0.985 1_455 S
H638 N635 0.986 . S
H639 N635 0.985 . S
H640 N634 0.984 . S
H641 N634 0.984 . S
H642 N630 0.984 . S
H643 N630 0.985 . S
C644 C645 1.363 . S
C644 C650 1.379 . S
C644 N652 1.356 . S
C645 C644 1.363 . S
C645 C651 1.363 . S
C646 C647 1.363 . S
C646 C651 1.379 . S
C646 N653 1.356 . S
C647 C646 1.363 . S
C647 C650 1.363 . S
N648 C650 1.356 . S
N648 H660 0.984 1_554 S
N648 H661 0.985 . S
N649 C651 1.356 . S
N649 H654 0.984 . S
N649 H655 0.985 . S
C650 C644 1.379 . S
C650 C647 1.363 . S
C650 N648 1.356 . S
C651 C645 1.363 . S
C651 C646 1.379 . S
C651 N649 1.356 . S
N652 C644 1.356 . S
N652 H658 0.984 . S
N652 H659 0.984 . S
N653 C646 1.356 . S
N653 H656 0.984 . S
N653 H657 0.985 . S
H654 N649 0.984 . S
H655 N649 0.985 . S
H656 N653 0.984 . S
H657 N653 0.985 . S
H658 N652 0.984 . S
H659 N652 0.984 . S
H660 N648 0.984 1_556 S
H661 N648 0.985 . S
C662 C663 1.363 . S
C662 C668 1.379 . S
C662 N670 1.356 . S
C663 C662 1.363 . S
C663 C669 1.363 . S
C664 C665 1.363 . S
C664 C669 1.379 . S
C664 N671 1.356 . S
C665 C664 1.363 . S
C665 C668 1.363 . S
N666 C668 1.356 . S
N666 H678 0.984 . S
N666 H679 0.985 . S
N667 C669 1.356 . S
N667 H672 0.984 . S
N667 H673 0.985 . S
C668 C662 1.379 . S
C668 C665 1.363 . S
C668 N666 1.356 . S
C669 C663 1.363 . S
C669 C664 1.379 . S
C669 N667 1.356 . S
N670 C662 1.356 . S
N670 H676 0.984 . S
N670 H677 0.984 . S
N671 C664 1.356 . S
N671 H674 0.984 . S
N671 H675 0.985 . S
H672 N667 0.984 . S
H673 N667 0.985 . S
H674 N671 0.984 . S
H675 N671 0.985 . S
H676 N670 0.984 . S
H677 N670 0.984 . S
H678 N666 0.984 . S
H679 N666 0.985 . S
C680 C681 1.363 . S
C680 C686 1.379 . S
C680 N688 1.356 1_556 S
C681 C680 1.363 . S
C681 C687 1.363 . S
C682 C683 1.363 . S
C682 C687 1.379 . S
C682 N689 1.356 . S
C683 C682 1.363 . S
C683 C686 1.363 . S
N684 C686 1.356 1_554 S
N684 H696 0.984 . S
N684 H697 0.985 . S
N685 C687 1.356 . S
N685 H690 0.984 . S
N685 H691 0.985 . S
C686 C680 1.379 . S
C686 C683 1.363 . S
C686 N684 1.356 1_556 S
C687 C681 1.363 . S
C687 C682 1.379 . S
C687 N685 1.356 . S
N688 C680 1.356 1_554 S
N688 H694 0.984 . S
N688 H695 0.984 1_554 S
N689 C682 1.356 . S
N689 H692 0.984 . S
N689 H693 0.985 . S
H690 N685 0.984 . S
H691 N685 0.985 . S
H692 N689 0.984 . S
H693 N689 0.985 . S
H694 N688 0.984 . S
H695 N688 0.984 1_556 S
H696 N684 0.984 . S
H697 N684 0.985 . S
C698 C699 1.363 . S
C698 C704 1.379 . S
C698 N706 1.356 . S
C699 C698 1.363 . S
C699 C705 1.363 . S
C700 C701 1.363 . S
C700 C705 1.379 . S
C700 N707 1.356 . S
C701 C700 1.363 . S
C701 C704 1.363 . S
N702 C704 1.356 . S
N702 H714 0.984 . S
N702 H715 0.985 . S
N703 C705 1.356 . S
N703 H708 0.984 . S
N703 H709 0.985 . S
C704 C698 1.379 . S
C704 C701 1.363 . S
C704 N702 1.356 . S
C705 C699 1.363 . S
C705 C700 1.379 . S
C705 N703 1.356 . S
N706 C698 1.356 . S
N706 H712 0.984 . S
N706 H713 0.984 . S
N707 C700 1.356 . S
N707 H710 0.984 . S
N707 H711 0.985 . S
H708 N703 0.984 . S
H709 N703 0.985 . S
H710 N707 0.984 . S
H711 N707 0.985 . S
H712 N706 0.984 . S
H713 N706 0.984 . S
H714 N702 0.984 . S
H715 N702 0.985 . S
C716 C717 1.363 . S
C716 C722 1.379 . S
C716 N724 1.356 . S
C717 C716 1.363 . S
C717 C723 1.363 . S
C718 C719 1.363 . S
C718 C723 1.379 . S
C718 N725 1.356 . S
C719 C718 1.363 . S
C719 C722 1.363 . S
N720 C722 1.356 . S
N720 H732 0.984 1_554 S
N720 H733 0.985 . S
N721 C723 1.356 . S
N721 H726 0.984 . S
N721 H727 0.985 . S
C722 C716 1.379 . S
C722 C719 1.363 . S
C722 N720 1.356 . S
C723 C717 1.363 . S
C723 C718 1.379 . S
C723 N721 1.356 . S
N724 C716 1.356 . S
N724 H730 0.984 1_554 S
N724 H731 0.984 . S
N725 C718 1.356 . S
N725 H728 0.984 . S
N725 H729 0.985 . S
H726 N721 0.984 . S
H727 N721 0.985 . S
H728 N725 0.984 . S
H729 N725 0.985 . S
H730 N724 0.984 1_556 S
H731 N724 0.984 . S
H732 N720 0.984 1_556 S
H733 N720 0.985 . S
C734 C735 1.363 . S
C734 C740 1.379 . S
C734 N742 1.356 . S
C735 C734 1.363 . S
C735 C741 1.363 . S
C736 C737 1.363 . S
C736 C741 1.379 . S
C736 N743 1.356 1_556 S
C737 C736 1.363 . S
C737 C740 1.363 . S
N738 C740 1.356 . S
N738 H750 0.984 . S
N738 H751 0.985 . S
N739 C741 1.356 1_554 S
N739 H744 0.984 1_554 S
N739 H745 0.985 . S
C740 C734 1.379 . S
C740 C737 1.363 . S
C740 N738 1.356 . S
C741 C735 1.363 . S
C741 C736 1.379 . S
C741 N739 1.356 1_556 S
N742 C734 1.356 . S
N742 H748 0.984 . S
N742 H749 0.984 . S
N743 C736 1.356 1_554 S
N743 H746 0.984 . S
N743 H747 0.985 . S
H744 N739 0.984 1_556 S
H745 N739 0.985 . S
H746 N743 0.984 . S
H747 N743 0.985 . S
H748 N742 0.984 . S
H749 N742 0.984 . S
H750 N738 0.984 . S
H751 N738 0.985 . S
C752 C753 1.363 . S
C752 C758 1.379 . S
C752 N760 1.356 . S
C753 C752 1.363 . S
C753 C759 1.363 . S
C754 C755 1.363 . S
C754 C759 1.379 . S
C754 N761 1.356 . S
C755 C754 1.363 . S
C755 C758 1.363 . S
N756 C758 1.356 1_455 S
N756 H768 0.984 . S
N756 H769 0.985 . S
N757 C759 1.356 . S
N757 H762 0.984 . S
N757 H763 0.985 . S
C758 C752 1.379 . S
C758 C755 1.363 . S
C758 N756 1.356 1_655 S
C759 C753 1.363 . S
C759 C754 1.379 . S
C759 N757 1.356 . S
N760 C752 1.356 . S
N760 H766 0.984 1_655 S
N760 H767 0.984 . S
N761 C754 1.356 . S
N761 H764 0.984 . S
N761 H765 0.985 . S
H762 N757 0.984 . S
H763 N757 0.985 . S
H764 N761 0.984 . S
H765 N761 0.985 . S
H766 N760 0.984 1_455 S
H767 N760 0.984 . S
H768 N756 0.984 . S
H769 N756 0.985 . S
C770 C771 1.363 . S
C770 C776 1.379 . S
C770 N778 1.356 . S
C771 C770 1.363 . S
C771 C777 1.363 . S
C772 C773 1.363 . S
C772 C777 1.379 . S
C772 N779 1.356 . S
C773 C772 1.363 . S
C773 C776 1.363 . S
N774 C776 1.356 . S
N774 H786 0.984 . S
N774 H787 0.985 . S
N775 C777 1.356 . S
N775 H780 0.984 . S
N775 H781 0.985 . S
C776 C770 1.379 . S
C776 C773 1.363 . S
C776 N774 1.356 . S
C777 C771 1.363 . S
C777 C772 1.379 . S
C777 N775 1.356 . S
N778 C770 1.356 . S
N778 H784 0.984 . S
N778 H785 0.984 . S
N779 C772 1.356 . S
N779 H782 0.984 . S
N779 H783 0.985 . S
H780 N775 0.984 . S
H781 N775 0.985 . S
H782 N779 0.984 . S
H783 N779 0.985 . S
H784 N778 0.984 . S
H785 N778 0.984 . S
H786 N774 0.984 . S
H787 N774 0.985 . S
C788 C789 1.372 . S
C788 C794 1.379 . S
C788 N796 1.356 1_655 S
C789 C788 1.372 . S
C789 C795 1.354 1_565 S
C790 C791 1.355 1_545 S
C790 C795 1.379 . S
C790 N797 1.356 . S
C791 C790 1.355 1_565 S
C791 C794 1.371 . S
N792 C794 1.356 1_455 S
N792 H804 0.984 . S
N792 H805 0.985 . S
N793 C795 1.356 . S
N793 H798 0.984 . S
N793 H799 0.985 . S
C794 C788 1.379 . S
C794 C791 1.371 . S
C794 N792 1.356 1_655 S
C795 C789 1.354 1_545 S
C795 C790 1.379 . S
C795 N793 1.356 . S
N796 C788 1.356 1_455 S
N796 H802 0.984 . S
N796 H803 0.984 . S
N797 C790 1.356 . S
N797 H800 0.984 . S
N797 H801 0.985 . S
H798 N793 0.984 . S
H799 N793 0.985 . S
H800 N797 0.984 . S
H801 N797 0.985 . S
H802 N796 0.984 . S
H803 N796 0.984 . S
H804 N792 0.984 . S
H805 N792 0.985 . S
C806 C807 1.363 1_565 S
C806 C812 1.379 . S
C806 N814 1.356 . S
C807 C806 1.363 1_545 S
C807 C813 1.363 . S
C808 C809 1.363 . S
C808 C813 1.379 . S
C808 N815 1.356 . S
C809 C808 1.363 . S
C809 C812 1.363 1_545 S
N810 C812 1.356 . S
N810 H822 0.984 . S
N810 H823 0.985 . S
N811 C813 1.356 . S
N811 H816 0.984 . S
N811 H817 0.985 . S
C812 C806 1.379 . S
C812 C809 1.363 1_565 S
C812 N810 1.356 . S
C813 C807 1.363 . S
C813 C808 1.379 . S
C813 N811 1.356 . S
N814 C806 1.356 . S
N814 H820 0.984 . S
N814 H821 0.984 . S
N815 C808 1.356 . S
N815 H818 0.984 . S
N815 H819 0.985 . S
H816 N811 0.984 . S
H817 N811 0.985 . S
H818 N815 0.984 . S
H819 N815 0.985 . S
H820 N814 0.984 . S
H821 N814 0.984 . S
H822 N810 0.984 . S
H823 N810 0.985 . S
C824 C825 1.363 . S
C824 C830 1.379 . S
C824 N832 1.356 . S
C825 C824 1.363 . S
C825 C831 1.363 . S
C826 C827 1.363 . S
C826 C831 1.379 . S
C826 N833 1.356 . S
C827 C826 1.363 . S
C827 C830 1.363 . S
N828 C830 1.356 . S
N828 H840 0.984 . S
N828 H841 0.985 . S
N829 C831 1.356 . S
N829 H834 0.984 . S
N829 H835 0.985 . S
C830 C824 1.379 . S
C830 C827 1.363 . S
C830 N828 1.356 . S
C831 C825 1.363 . S
C831 C826 1.379 . S
C831 N829 1.356 . S
N832 C824 1.356 . S
N832 H838 0.984 . S
N832 H839 0.984 . S
N833 C826 1.356 . S
N833 H836 0.984 . S
N833 H837 0.985 . S
H834 N829 0.984 . S
H835 N829 0.985 . S
H836 N833 0.984 . S
H837 N833 0.985 . S
H838 N832 0.984 . S
H839 N832 0.984 . S
H840 N828 0.984 . S
H841 N828 0.985 . S
C842 C843 1.363 . S
C842 C848 1.379 . S
C842 N850 1.356 . S
C843 C842 1.363 . S
C843 C849 1.363 . S
C844 C845 1.363 . S
C844 C849 1.379 . S
C844 N851 1.356 . S
C845 C844 1.363 . S
C845 C848 1.363 . S
N846 C848 1.356 . S
N846 H858 0.984 . S
N846 H859 0.985 . S
N847 C849 1.356 . S
N847 H852 0.984 . S
N847 H853 0.985 . S
C848 C842 1.379 . S
C848 C845 1.363 . S
C848 N846 1.356 . S
C849 C843 1.363 . S
C849 C844 1.379 . S
C849 N847 1.356 . S
N850 C842 1.356 . S
N850 H856 0.984 . S
N850 H857 0.984 . S
N851 C844 1.356 . S
N851 H854 0.984 . S
N851 H855 0.985 . S
H852 N847 0.984 . S
H853 N847 0.985 . S
H854 N851 0.984 . S
H855 N851 0.985 . S
H856 N850 0.984 . S
H857 N850 0.984 . S
H858 N846 0.984 . S
H859 N846 0.985 . S
C860 C861 1.363 1_545 S
C860 C866 1.379 . S
C860 N868 1.356 . S
C861 C860 1.363 1_565 S
C861 C867 1.362 1_556 S
C862 C863 1.363 . S
C862 C867 1.379 1_556 S
C862 N869 1.356 1_556 S
C863 C862 1.363 . S
C863 C866 1.363 1_565 S
N864 C866 1.356 . S
N864 H876 0.984 . S
N864 H877 0.985 . S
N865 C867 1.357 . S
N865 H870 0.984 . S
N865 H871 0.985 . S
C866 C860 1.379 . S
C866 C863 1.363 1_545 S
C866 N864 1.356 . S
C867 C861 1.362 1_554 S
C867 C862 1.379 1_554 S
C867 N865 1.357 . S
N868 C860 1.356 . S
N868 H874 0.984 . S
N868 H875 0.984 . S
N869 C862 1.356 1_554 S
N869 H872 0.984 . S
N869 H873 0.985 . S
H870 N865 0.984 . S
H871 N865 0.985 . S
H872 N869 0.984 . S
H873 N869 0.985 . S
H874 N868 0.984 . S
H875 N868 0.984 . S
H876 N864 0.984 . S
H877 N864 0.985 . S
C878 C879 1.363 . S
C878 C884 1.379 . S
C878 N886 1.356 . S
C879 C878 1.363 . S
C879 C885 1.353 1_545 S
C880 C881 1.363 . S
C880 C885 1.378 1_545 S
C880 N887 1.356 1_545 S
C881 C880 1.363 . S
C881 C884 1.363 . S
N882 C884 1.356 . S
N882 H894 0.984 . S
N882 H895 0.985 . S
N883 C885 1.365 . S
N883 H888 0.984 . S
N883 H889 0.985 . S
C884 C878 1.379 . S
C884 C881 1.363 . S
C884 N882 1.356 . S
C885 C879 1.353 1_565 S
C885 C880 1.378 1_565 S
C885 N883 1.365 . S
N886 C878 1.356 . S
N886 H892 0.984 . S
N886 H893 0.984 . S
N887 C880 1.356 1_565 S
N887 H890 0.984 . S
N887 H891 0.985 . S
H888 N883 0.984 . S
H889 N883 0.985 . S
H890 N887 0.984 . S
H891 N887 0.985 . S
H892 N886 0.984 . S
H893 N886 0.984 . S
H894 N882 0.984 . S
H895 N882 0.985 . S
C896 C897 1.363 . S
C896 C902 1.379 1_554 S
C896 N904 1.356 1_554 S
C897 C896 1.363 . S
C897 C903 1.363 . S
C898 C899 1.363 . S
C898 C903 1.379 . S
C898 N905 1.356 . S
C899 C898 1.363 . S
C899 C902 1.363 1_554 S
N900 C902 1.356 . S
N900 H912 0.984 . S
N900 H913 0.985 . S
N901 C903 1.356 . S
N901 H906 0.984 . S
N901 H907 0.985 . S
C902 C896 1.379 1_556 S
C902 C899 1.363 1_556 S
C902 N900 1.356 . S
C903 C897 1.363 . S
C903 C898 1.379 . S
C903 N901 1.356 . S
N904 C896 1.356 1_556 S
N904 H910 0.984 . S
N904 H911 0.986 . S
N905 C898 1.356 . S
N905 H908 0.984 . S
N905 H909 0.985 . S
H906 N901 0.984 . S
H907 N901 0.985 . S
H908 N905 0.984 . S
H909 N905 0.985 . S
H910 N904 0.984 . S
H911 N904 0.986 . S
H912 N900 0.984 . S
H913 N900 0.985 . S
C914 C915 1.363 . S
C914 C920 1.379 . S
C914 N922 1.356 . S
C915 C914 1.363 . S
C915 C921 1.363 . S
C916 C917 1.363 . S
C916 C921 1.379 . S
C916 N923 1.356 . S
C917 C916 1.363 . S
C917 C920 1.363 . S
N918 C920 1.356 . S
N918 H930 0.984 . S
N918 H931 0.985 . S
N919 C921 1.356 . S
N919 H924 0.984 . S
N919 H925 0.985 . S
C920 C914 1.379 . S
C920 C917 1.363 . S
C920 N918 1.356 . S
C921 C915 1.363 . S
C921 C916 1.379 . S
C921 N919 1.356 . S
N922 C914 1.356 . S
N922 H928 0.984 . S
N922 H929 0.984 . S
N923 C916 1.356 . S
N923 H926 0.984 . S
N923 H927 0.985 . S
H924 N919 0.984 . S
H925 N919 0.985 . S
H926 N923 0.984 . S
H927 N923 0.985 . S
H928 N922 0.984 . S
H929 N922 0.984 . S
H930 N918 0.984 . S
H931 N918 0.985 . S
C932 C933 1.363 1_554 S
C932 C938 1.379 . S
C932 N940 1.356 1_655 S
C933 C932 1.363 1_556 S
C933 C939 1.363 . S
C934 C935 1.363 . S
C934 C939 1.379 . S
C934 N941 1.356 . S
C935 C934 1.363 . S
C935 C938 1.363 1_556 S
N936 C938 1.356 1_455 S
N936 H948 0.984 . S
N936 H949 0.985 . S
N937 C939 1.356 . S
N937 H942 0.984 . S
N937 H943 0.985 . S
C938 C932 1.379 . S
C938 C935 1.363 1_554 S
C938 N936 1.356 1_655 S
C939 C933 1.363 . S
C939 C934 1.379 . S
C939 N937 1.356 . S
N940 C932 1.356 1_455 S
N940 H946 0.984 . S
N940 H947 0.984 . S
N941 C934 1.356 . S
N941 H944 0.984 . S
N941 H945 0.985 . S
H942 N937 0.984 . S
H943 N937 0.985 . S
H944 N941 0.984 . S
H945 N941 0.985 . S
H946 N940 0.984 . S
H947 N940 0.984 . S
H948 N936 0.984 . S
H949 N936 0.985 . S
C950 C951 1.363 . S
C950 C956 1.379 . S
C950 N958 1.356 1_554 S
C951 C950 1.363 . S
C951 C957 1.363 . S
C952 C953 1.363 . S
C952 C957 1.379 . S
C952 N959 1.356 . S
C953 C952 1.363 . S
C953 C956 1.363 . S
N954 C956 1.356 . S
N954 H966 0.984 1_554 S
N954 H967 0.985 . S
N955 C957 1.356 . S
N955 H960 0.984 . S
N955 H961 0.985 . S
C956 C950 1.379 . S
C956 C953 1.363 . S
C956 N954 1.356 . S
C957 C951 1.363 . S
C957 C952 1.379 . S
C957 N955 1.356 . S
N958 C950 1.356 1_556 S
N958 H964 0.984 . S
N958 H965 0.983 1_556 S
N959 C952 1.356 . S
N959 H962 0.984 . S
N959 H963 0.985 . S
H960 N955 0.984 . S
H961 N955 0.985 . S
H962 N959 0.984 . S
H963 N959 0.985 . S
H964 N958 0.984 . S
H965 N958 0.983 1_554 S
H966 N954 0.984 1_556 S
H967 N954 0.985 . S
C968 C969 1.363 . S
C968 C974 1.379 . S
C968 N976 1.356 . S
C969 C968 1.363 . S
C969 C975 1.363 . S
C970 C971 1.363 . S
C970 C975 1.379 . S
C970 N977 1.356 . S
C971 C970 1.363 . S
C971 C974 1.363 . S
N972 C974 1.350 1_655 S
N972 H984 0.993 . S
N972 H985 0.983 1_655 S
N973 C975 1.356 . S
N973 H978 0.984 . S
N973 H979 0.985 . S
C974 C968 1.379 . S
C974 C971 1.363 . S
C974 N972 1.350 1_455 S
C975 C969 1.363 . S
C975 C970 1.379 . S
C975 N973 1.356 . S
N976 C968 1.356 . S
N976 H982 0.984 1_455 S
N976 H983 0.984 . S
N977 C970 1.356 . S
N977 H980 0.984 . S
N977 H981 0.985 . S
H978 N973 0.984 . S
H979 N973 0.985 . S
H980 N977 0.984 . S
H981 N977 0.985 . S
H982 N976 0.984 1_655 S
H983 N976 0.984 . S
H984 N972 0.993 . S
H985 N972 0.983 1_455 S
C986 C987 1.363 . S
C986 C992 1.379 . S
C986 N994 1.356 . S
C987 C986 1.363 . S
C987 C993 1.363 . S
C988 C989 1.363 . S
C988 C993 1.379 . S
C988 N995 1.356 . S
C989 C988 1.363 . S
C989 C992 1.363 . S
N990 C992 1.356 . S
N990 H1002 0.984 . S
N990 H1003 0.985 . S
N991 C993 1.356 . S
N991 H996 0.984 . S
N991 H997 0.985 . S
C992 C986 1.379 . S
C992 C989 1.363 . S
C992 N990 1.356 . S
C993 C987 1.363 . S
C993 C988 1.379 . S
C993 N991 1.356 . S
N994 C986 1.356 . S
N994 H1000 0.984 . S
N994 H1001 0.984 . S
N995 C988 1.356 . S
N995 H998 0.984 . S
N995 H999 0.985 . S
H996 N991 0.984 . S
H997 N991 0.985 . S
H998 N995 0.984 . S
H999 N995 0.985 . S
H1000 N994 0.984 . S
H1001 N994 0.984 . S
H1002 N990 0.984 . S
H1003 N990 0.985 . S
C573 C1 1.613 . S
C575 C498 1.592 . S
C591 C80 1.569 . S
C593 C522 1.564 . S
C611 C542 1.500 . S
C609 C140 1.422 . S
C627 C211 1.432 . S
C629 C565 1.514 . S
C647 C524 1.635 . S
C645 C31 1.690 . S
C665 C500 1.634 . S
C663 C61 1.647 . S
C683 C568 1.593 . S
C681 C151 1.595 . S
C701 C545 1.586 . S
C699 C200 1.573 . S
C717 C20 1.452 . S
C719 C570 1.400 . S
C737 C519 1.656 . S
C735 C121 1.573 . S
C753 C181 1.575 . S
C755 C497 1.649 . S
C771 C91 1.410 . S
C773 C547 1.395 . S
C791 C501 1.771 . S
C789 C260 1.726 . S
C807 C320 1.602 . S
C809 C523 1.713 . S
C825 C361 1.799 . S
C827 C543 1.829 . S
C843 C451 1.723 . S
C845 C566 1.834 . S
C861 C271 1.693 . S
C863 C521 1.661 . S
C881 C499 1.743 . S
C879 C301 1.584 . S
C899 C569 1.576 . S
C897 C380 1.579 . S
C917 C546 1.605 . S
C915 C440 1.571 . S
C933 C241 1.931 . S
C935 C567 1.888 . S
C953 C520 1.681 . S
C951 C391 1.657 . S
C971 C496 1.690 . S
C969 C421 1.585 . S
C987 C331 1.799 . S
C989 C544 1.868 . S
