# Generated by pormake.
# Topology zzz, (3,6)-cn, num edge types: 1
# Building blocks:
#     Node 0, Type 0, BuildingBlock: ESEHIV_clean_linker_0, # of connection points: 3
#     Node 1, Type 0, BuildingBlock: ESEHIV_clean_linker_0, # of connection points: 3
#     Node 2, Type 0, BuildingBlock: ESEHIV_clean_linker_0, # of connection points: 3
#     Node 3, Type 0, BuildingBlock: ESEHIV_clean_linker_0, # of connection points: 3
#     Node 4, Type 0, BuildingBlock: ESEHIV_clean_linker_0, # of connection points: 3
#     Node 5, Type 0, BuildingBlock: ESEHIV_clean_linker_0, # of connection points: 3
#     Node 6, Type 0, BuildingBlock: ESEHIV_clean_linker_0, # of connection points: 3
#     Node 7, Type 0, BuildingBlock: ESEHIV_clean_linker_0, # of connection points: 3
#     Node 8, Type 1, BuildingBlock: KUMJIN_clean_sbu_1, # of connection points: 6
#     Node 9, Type 1, BuildingBlock: KUMJIN_clean_sbu_1, # of connection points: 6
#     Node 10, Type 1, BuildingBlock: KUMJIN_clean_sbu_1, # of connection points: 6
#     Node 11, Type 1, BuildingBlock: KUMJIN_clean_sbu_1, # of connection points: 6
#     Edge 12, Type (0, 1), BuildingBlock: MIFKUJ_clean_linker_0, # of connection points: 2
#     Edge 13, Type (0, 1), BuildingBlock: MIFKUJ_clean_linker_0, # of connection points: 2
#     Edge 14, Type (0, 1), BuildingBlock: MIFKUJ_clean_linker_0, # of connection points: 2
#     Edge 15, Type (0, 1), BuildingBlock: MIFKUJ_clean_linker_0, # of connection points: 2
#     Edge 16, Type (0, 1), BuildingBlock: MIFKUJ_clean_linker_0, # of connection points: 2
#     Edge 17, Type (0, 1), BuildingBlock: MIFKUJ_clean_linker_0, # of connection points: 2
#     Edge 18, Type (0, 1), BuildingBlock: MIFKUJ_clean_linker_0, # of connection points: 2
#     Edge 19, Type (0, 1), BuildingBlock: MIFKUJ_clean_linker_0, # of connection points: 2
#     Edge 20, Type (0, 1), BuildingBlock: MIFKUJ_clean_linker_0, # of connection points: 2
#     Edge 21, Type (0, 1), BuildingBlock: MIFKUJ_clean_linker_0, # of connection points: 2
#     Edge 22, Type (0, 1), BuildingBlock: MIFKUJ_clean_linker_0, # of connection points: 2
#     Edge 23, Type (0, 1), BuildingBlock: MIFKUJ_clean_linker_0, # of connection points: 2
#     Edge 24, Type (0, 1), BuildingBlock: MIFKUJ_clean_linker_0, # of connection points: 2
#     Edge 25, Type (0, 1), BuildingBlock: MIFKUJ_clean_linker_0, # of connection points: 2
#     Edge 26, Type (0, 1), BuildingBlock: MIFKUJ_clean_linker_0, # of connection points: 2
#     Edge 27, Type (0, 1), BuildingBlock: MIFKUJ_clean_linker_0, # of connection points: 2
#     Edge 28, Type (0, 1), BuildingBlock: MIFKUJ_clean_linker_0, # of connection points: 2
#     Edge 29, Type (0, 1), BuildingBlock: MIFKUJ_clean_linker_0, # of connection points: 2
#     Edge 30, Type (0, 1), BuildingBlock: MIFKUJ_clean_linker_0, # of connection points: 2
#     Edge 31, Type (0, 1), BuildingBlock: MIFKUJ_clean_linker_0, # of connection points: 2
#     Edge 32, Type (0, 1), BuildingBlock: MIFKUJ_clean_linker_0, # of connection points: 2
#     Edge 33, Type (0, 1), BuildingBlock: MIFKUJ_clean_linker_0, # of connection points: 2
#     Edge 34, Type (0, 1), BuildingBlock: MIFKUJ_clean_linker_0, # of connection points: 2
#     Edge 35, Type (0, 1), BuildingBlock: MIFKUJ_clean_linker_0, # of connection points: 2
# Relax obj value: 0.310
# Max RMSD: 0.207
# Mean RMSD: 0.180
data_MOF--net-zzz--node1-KUMJIN_clean_sbu_1--node2-ESEHIV_clean_linker_0--edge1-MIFKUJ_clean_linker_0
_symmetry_space_group_name_H-M    P1
_symmetry_Int_Tables_number       1
_symmetry_cell_setting            triclinic
loop_
_symmetry_equiv_pos_as_xyz
'x, y, z'
_cell_length_a     57.64359
_cell_length_b     57.718412
_cell_length_c     21.451107
_cell_angle_alpha  89.933807
_cell_angle_beta   89.743423
_cell_angle_gamma 90.30723
loop_
_atom_site_label
_atom_site_type_symbol
_atom_site_fract_x
_atom_site_fract_y
_atom_site_fract_z
_atom_type_partial_charge
H0 H 0.80353 0.56188 0.17113 0.0
H1 H 0.74216 0.56522 0.05935 0.0
H2 H 0.73757 0.54037 0.24866 0.0
C3 C 0.78487 0.55987 0.16683 0.0
C4 C 0.77194 0.55127 0.21756 0.0
C5 C 0.77429 0.56445 0.10957 0.0
C6 C 0.7503 0.56155 0.10378 0.0
C7 C 0.73674 0.55303 0.15314 0.0
C8 C 0.7477 0.54741 0.21038 0.0
H9 H 0.96666 0.81167 0.14458 0.0
H10 H 0.96702 0.75005 0.03219 0.0
H11 H 0.99283 0.74773 0.21979 0.0
C12 C 0.97003 0.79331 0.13928 0.0
C13 C 0.98013 0.78124 0.18901 0.0
C14 C 0.96553 0.78245 0.08207 0.0
C15 C 0.96963 0.75862 0.07659 0.0
C16 C 0.97896 0.74578 0.12587 0.0
C17 C 0.9846 0.75721 0.18238 0.0
H18 H 0.72628 0.96682 0.23041 0.0
H19 H 0.78041 0.96991 0.09326 0.0
H20 H 0.79076 1.00091 0.27433 0.0
C21 C 0.74397 0.97135 0.21785 0.0
C22 C 0.75746 0.98385 0.26044 0.0
C23 C 0.75187 0.96665 0.15746 0.0
C24 C 0.77433 0.9734 0.14026 0.0
C25 C 0.78878 0.9853 0.18219 0.0
C26 C 0.78015 0.99095 0.24245 0.0
H27 H 0.54962 0.73435 0.17258 0.0
H28 H 0.52908 0.79988 0.25137 0.0
H29 H 0.54846 0.79534 0.05764 0.0
C30 C 0.54663 0.75279 0.16733 0.0
C31 C 0.55014 0.76331 0.109 0.0
C32 C 0.53903 0.76561 0.21907 0.0
C33 C 0.53515 0.78977 0.21212 0.0
C34 C 0.53901 0.80059 0.15345 0.0
C35 C 0.54642 0.78715 0.10291 0.0
H36 H 0.23845 0.46011 0.07046 0.0
H37 H 0.298 0.45547 0.18819 0.0
H38 H 0.28899 0.51537 0.07029 0.0
C39 C 0.25519 0.46685 0.08495 0.0
C40 C 0.26263 0.48845 0.06201 0.0
C41 C 0.26748 0.45523 0.13146 0.0
C42 C 0.28862 0.46445 0.15174 0.0
C43 C 0.29664 0.48616 0.13093 0.0
C44 C 0.28363 0.4982 0.08502 0.0
H45 H 0.05766 0.22817 0.09129 0.0
H46 H 0.05059 0.28215 0.22749 0.0
H47 H 0.02176 0.29112 0.04438 0.0
C48 C 0.05202 0.24546 0.10384 0.0
C49 C 0.03955 0.25852 0.06027 0.0
C50 C 0.05562 0.25348 0.16465 0.0
C51 C 0.04831 0.27586 0.18027 0.0
C52 C 0.03659 0.28987 0.13732 0.0
C53 C 0.03176 0.28098 0.07706 0.0
H54 H 0.2838 0.05597 0.10685 0.0
H55 H 0.21808 0.06322 0.20059 0.0
H56 H 0.22181 0.02841 0.02378 0.0
C57 C 0.26512 0.05389 0.10816 0.0
C58 C 0.25423 0.04327 0.05703 0.0
C59 C 0.25245 0.06047 0.16149 0.0
C60 C 0.22834 0.05743 0.16119 0.0
C61 C 0.21722 0.04506 0.11379 0.0
C62 C 0.23021 0.03789 0.06099 0.0
H63 H 0.48298 0.30906 0.155 0.0
H64 H 0.50064 0.24523 0.06191 0.0
H65 H 0.48655 0.24558 0.25902 0.0
C66 C 0.48584 0.29051 0.1566 0.0
C67 C 0.4839 0.27873 0.21368 0.0
C68 C 0.49197 0.27883 0.10153 0.0
C69 C 0.49583 0.25451 0.10382 0.0
C70 C 0.49316 0.24239 0.1611 0.0
C71 C 0.48744 0.25478 0.21499 0.0
Eu72 Eu 0.98174 0.0221 0.59627 0.0
C73 C 0.0635 0.05291 0.74243 0.0
N74 N 0.06248 0.03625 0.6977 0.0
C75 C 0.09446 0.05426 0.64389 0.0
C76 C 0.0792 0.07168 0.73754 0.0
C77 C 0.07884 0.03585 0.65141 0.0
C78 C 0.09429 0.07255 0.68635 0.0
C79 C 0.05161 0.06636 0.84486 0.0
C80 C 0.04997 0.05032 0.79552 0.0
C81 C 0.06637 0.08567 0.83879 0.0
C82 C 0.08006 0.08838 0.78511 0.0
Eu83 Eu 0.03368 1.00692 0.71248 0.0
N84 N 0.03553 0.03173 0.79955 0.0
C85 C 0.03857 0.06231 0.89909 0.0
C86 C 0.02349 0.02714 0.85308 0.0
C87 C 0.02469 0.04244 0.9035 0.0
H88 H 0.08039 0.02113 0.62088 0.0
H89 H 0.01488 0.03894 0.94562 0.0
H90 H 0.93949 0.98573 0.64182 0.0
H91 H 0.01238 0.03748 0.3579 0.0
H92 H 0.01276 0.01179 0.85644 0.0
H93 H 0.03936 0.07422 0.93805 0.0
H94 H 1.0031 0.04796 0.46688 0.0
H95 H 0.10696 0.05408 0.60609 0.0
H96 H 0.06772 0.09831 0.87592 0.0
H97 H 0.09182 0.10305 0.78177 0.0
H98 H 0.91983 0.95019 0.60347 0.0
H99 H 0.10663 0.08664 0.68089 0.0
H100 H 1.00051 0.99922 0.31682 0.0
N101 N 0.96105 0.98905 0.5617 0.0
C102 C 0.96596 0.98139 0.50339 0.0
C103 C 0.93286 0.95872 0.57501 0.0
C104 C 0.9553 0.96123 0.47962 0.0
C105 C 0.94393 0.9788 0.59652 0.0
C106 C 0.93887 0.94966 0.51673 0.0
N107 N 0.9888 0.01495 0.4891 0.0
C108 C 0.99887 0.03081 0.45012 0.0
C109 C 0.98482 0.98809 0.40385 0.0
C110 C 0.98057 0.9946 0.46619 0.0
C111 C 0.99711 1.00343 0.3652 0.0
C112 C 1.00377 0.02508 0.38814 0.0
H113 H 0.93033 0.93408 0.50023 0.0
H114 H 0.95327 0.93799 0.40049 0.0
H115 H 0.97909 0.9616 0.33393 0.0
O116 O 0.957 0.03998 0.53653 0.0
O117 O 0.9888 0.9848 0.62681 0.0
O118 O 0.028 0.98226 0.63079 0.0
O119 O 0.95333 0.04211 0.63623 0.0
O120 O 0.01804 0.03521 0.56872 0.0
O121 O 0.04167 1.00692 0.60822 0.0
O122 O 0.03638 0.97651 0.77218 0.0
O123 O 0.00969 0.03767 0.72883 0.0
O124 O 1.00446 0.05185 0.63129 0.0
O125 O 0.06749 0.99475 0.74428 0.0
O126 O 0.99831 0.99464 0.75046 0.0
O127 O 0.97042 0.0157 0.69644 0.0
C128 C 0.00793 0.97365 0.61353 0.0
C129 C 0.94472 0.07521 0.57904 0.0
C130 C 0.96356 0.11256 0.56334 0.0
C131 C 0.94235 0.12357 0.57595 0.0
C132 C 0.92373 0.08632 0.59222 0.0
C133 C 0.92259 0.11049 0.59062 0.0
C134 C 0.96457 0.08834 0.56507 0.0
C135 C 0.03682 0.02236 0.56498 0.0
C136 C 0.94641 0.05 0.58277 0.0
C137 C 0.96089 0.9537 0.41916 0.0
C138 C 0.97564 0.96712 0.38132 0.0
C139 C 0.00741 0.05543 0.69118 0.0
C140 C 0.0695 0.95399 0.74781 0.0
C141 C 0.06542 0.91394 0.71292 0.0
C142 C 0.08964 0.91222 0.70821 0.0
C143 C 0.09372 0.95204 0.74257 0.0
C144 C 0.0555 0.93491 0.73212 0.0
C145 C 0.10368 0.93129 0.72243 0.0
C146 C 0.9771 1.00318 0.74468 0.0
C147 C 0.05895 0.97593 0.7688 0.0
H148 H 0.94097 0.14224 0.57321 0.0
H149 H 0.90834 0.07634 0.60384 0.0
H150 H 0.90635 0.1191 0.60044 0.0
H151 H 0.98085 0.07966 0.55585 0.0
H152 H 0.09766 0.89609 0.6943 0.0
H153 H 0.10491 0.96653 0.75413 0.0
H154 H 0.03681 0.93602 0.7369 0.0
H155 H 0.12235 0.9299 0.71871 0.0
Eu156 Eu 0.51813 0.04945 0.70334 0.0
C157 C 0.52169 0.94579 0.65769 0.0
N158 N 0.52702 0.96293 0.6163 0.0
C159 C 0.56226 0.94339 0.58887 0.0
C160 C 0.53714 0.92733 0.66838 0.0
C161 C 0.54617 0.96104 0.57896 0.0
C162 C 0.55798 0.92674 0.63476 0.0
C163 C 0.49313 0.92723 0.72509 0.0
C164 C 0.49996 0.94571 0.68594 0.0
C165 C 0.50885 0.90937 0.73784 0.0
C166 C 0.53087 0.90952 0.70996 0.0
Eu167 Eu 0.49938 0.99317 0.60855 0.0
N168 N 0.48513 0.96328 0.67326 0.0
C169 C 0.47051 0.92702 0.74926 0.0
C170 C 0.46269 0.96259 0.69384 0.0
C171 C 0.45514 0.94463 0.7329 0.0
H172 H 0.54898 0.97283 0.54068 0.0
H173 H 0.43751 0.94439 0.75038 0.0
H174 H 0.46831 0.07865 0.69598 0.0
H175 H 0.60491 0.07842 0.63144 0.0
H176 H 0.45073 0.97607 0.68075 0.0
H177 H 0.46463 0.91314 0.77959 0.0
H178 H 0.57644 0.05614 0.69385 0.0
H179 H 0.57774 0.94239 0.56025 0.0
H180 H 0.50392 0.89506 0.76788 0.0
H181 H 0.54259 0.89531 0.71907 0.0
H182 H 0.45229 0.11306 0.64225 0.0
H183 H 0.57032 0.91288 0.6417 0.0
H184 H 0.59149 0.10954 0.56108 0.0
N185 N 0.50181 0.08252 0.65554 0.0
C186 C 0.51627 0.096 0.6208 0.0
C187 C 0.47027 0.10836 0.63547 0.0
C188 C 0.50794 0.11566 0.5891 0.0
C189 C 0.47934 0.08895 0.66578 0.0
C190 C 0.48455 0.12158 0.59619 0.0
N191 N 0.54713 0.07218 0.65285 0.0
C192 C 0.57034 0.06874 0.66064 0.0
C193 C 0.5552 0.10427 0.58382 0.0
C194 C 0.53956 0.09035 0.61832 0.0
C195 C 0.5789 0.09929 0.58687 0.0
C196 C 0.58654 0.08173 0.62646 0.0
H197 H 0.47746 0.13652 0.57248 0.0
H198 H 0.51709 0.14382 0.52656 0.0
H199 H 0.55852 0.13381 0.52184 0.0
O200 O 0.53565 0.07258 0.7689 0.0
O201 O 0.49691 0.05008 0.61352 0.0
O202 O 0.51308 0.02339 0.55037 0.0
O203 O 0.50191 0.05868 0.79182 0.0
O204 O 0.54828 0.02545 0.67555 0.0
O205 O 0.5351 0.00807 0.58528 0.0
O206 O 0.47388 0.99747 0.53577 0.0
O207 O 0.49905 0.99412 0.71452 0.0
O208 O 0.53092 0.01484 0.74264 0.0
O209 O 0.49153 0.96471 0.54393 0.0
O210 O 0.46847 0.01472 0.64428 0.0
O211 O 0.48244 0.03517 0.72962 0.0
C212 C 0.50569 0.04456 0.55913 0.0
C213 C 0.52646 0.06703 0.87532 0.0
C214 C 0.55007 0.04691 0.9515 0.0
C215 C 0.53937 0.05962 0.99941 0.0
C216 C 0.51584 0.07956 0.92346 0.0
C217 C 0.52224 0.07579 0.98533 0.0
C218 C 0.54335 0.05051 0.88946 0.0
C219 C 0.55216 0.01586 0.6205 0.0
C220 C 0.51934 0.07108 0.81085 0.0
C221 C 0.52323 0.12888 0.55214 0.0
C222 C 0.54681 0.12314 0.54934 0.0
C223 C 0.51753 0.99646 0.74931 0.0
C224 C 0.45187 0.96386 0.51498 0.0
C225 C 0.40964 0.96694 0.51668 0.0
C226 C 0.40818 0.94482 0.48906 0.0
C227 C 0.45011 0.94198 0.48724 0.0
C228 C 0.43161 0.97533 0.53372 0.0
C229 C 0.4283 0.93224 0.47601 0.0
C230 C 0.46522 0.02595 0.69745 0.0
C231 C 0.47445 0.97585 0.51863 0.0
H232 H 0.54421 0.05698 0.04765 0.0
H233 H 0.50259 0.09223 0.91315 0.0
H234 H 0.514 0.08549 0.02239 0.0
H235 H 0.55159 0.04087 0.85213 0.0
H236 H 0.39174 0.9376 0.47438 0.0
H237 H 0.46554 0.93271 0.47296 0.0
H238 H 0.43303 0.99166 0.55811 0.0
H239 H 0.42699 0.91543 0.45396 0.0
Eu240 Eu 0.54174 0.50729 0.60277 0.0
C241 C 0.45232 0.49836 0.75934 0.0
N242 N 0.45615 0.50894 0.70349 0.0
C243 C 0.42192 0.49129 0.66144 0.0
C244 C 0.43316 0.48335 0.76781 0.0
C245 C 0.44117 0.50595 0.65507 0.0
C246 C 0.41793 0.47988 0.71796 0.0
C247 C 0.46477 0.49066 0.86533 0.0
C248 C 0.46815 0.50185 0.80743 0.0
C249 C 0.44576 0.47564 0.87374 0.0
C250 C 0.43001 0.472 0.82516 0.0
Eu251 Eu 0.48912 0.53319 0.69731 0.0
N252 N 0.48674 0.51614 0.79773 0.0
C253 C 0.48044 0.49509 0.91345 0.0
C254 C 0.50119 0.52159 0.84583 0.0
C255 C 0.49857 0.51083 0.90387 0.0
H256 H 0.44382 0.51512 0.61176 0.0
H257 H 0.5103 0.51499 0.94153 0.0
H258 H 0.58612 0.53097 0.68213 0.0
H259 H 0.52309 0.50884 0.35252 0.0
H260 H 0.51432 0.53475 0.84079 0.0
H261 H 0.47832 0.48694 0.95865 0.0
H262 H 0.51729 0.49694 0.46103 0.0
H263 H 0.41014 0.48886 0.62283 0.0
H264 H 0.44302 0.46682 0.91781 0.0
H265 H 0.41546 0.46032 0.8324 0.0
H266 H 0.62028 0.55566 0.66089 0.0
H267 H 0.40305 0.46845 0.72263 0.0
H268 H 0.5561 0.53427 0.32416 0.0
N269 N 0.57429 0.53151 0.58837 0.0
C270 C 0.57862 0.5383 0.5287 0.0
C271 C 0.60868 0.55094 0.62339 0.0
C272 C 0.59853 0.55158 0.51418 0.0
C273 C 0.58912 0.53723 0.63544 0.0
C274 C 0.61344 0.55812 0.56249 0.0
N275 N 0.54436 0.51842 0.49675 0.0
C276 C 0.53061 0.50953 0.45081 0.0
C277 C 0.56809 0.53765 0.41924 0.0
C278 C 0.56326 0.53164 0.48183 0.0
C279 C 0.55301 0.52995 0.37267 0.0
C280 C 0.53429 0.51569 0.38852 0.0
H281 H 0.62884 0.56843 0.55314 0.0
H282 H 0.6188 0.56716 0.43996 0.0
H283 H 0.5925 0.55449 0.35669 0.0
O284 O 0.54433 0.47246 0.56349 0.0
O285 O 0.54041 0.54717 0.60621 0.0
O286 O 0.50142 0.55414 0.61355 0.0
O287 O 0.57497 0.48946 0.59886 0.0
O288 O 0.50489 0.49958 0.56589 0.0
O289 O 0.48416 0.53193 0.59299 0.0
O290 O 0.48507 0.5647 0.75243 0.0
O291 O 0.49185 0.49341 0.68975 0.0
O292 O 0.53088 0.48864 0.69107 0.0
O293 O 0.45628 0.55188 0.69854 0.0
O294 O 0.52549 0.54268 0.73449 0.0
O295 O 0.54773 0.51134 0.70619 0.0
C296 C 0.52249 0.5609 0.59837 0.0
C297 C 0.57056 0.44969 0.6226 0.0
C298 C 0.55991 0.41129 0.66128 0.0
C299 C 0.57873 0.41181 0.70231 0.0
C300 C 0.58936 0.45001 0.66436 0.0
C301 C 0.59329 0.43121 0.70408 0.0
C302 C 0.55588 0.4302 0.62168 0.0
C303 C 0.48804 0.51446 0.55534 0.0
C304 C 0.56571 0.46988 0.58198 0.0
C305 C 0.60328 0.55747 0.452 0.0
C306 C 0.58822 0.55035 0.40467 0.0
C307 C 0.51006 0.48095 0.70431 0.0
C308 C 0.46308 0.59216 0.69526 0.0
C309 C 0.48011 0.62944 0.66517 0.0
C310 C 0.46103 0.63366 0.62645 0.0
C311 C 0.44406 0.59674 0.65637 0.0
C312 C 0.481 0.60868 0.69933 0.0
C313 C 0.44314 0.61732 0.62205 0.0
C314 C 0.54367 0.52918 0.74249 0.0
C315 C 0.46501 0.56957 0.72775 0.0
H316 H 0.58219 0.39718 0.73251 0.0
H317 H 0.60099 0.46479 0.66662 0.0
H318 H 0.60779 0.43164 0.73597 0.0
H319 H 0.54148 0.42947 0.58937 0.0
H320 H 0.45996 0.64959 0.59988 0.0
H321 H 0.43004 0.58428 0.65186 0.0
H322 H 0.49559 0.60559 0.72989 0.0
H323 H 0.42849 0.62062 0.592 0.0
Eu324 Eu 0.02649 0.54108 0.58349 0.0
C325 C 0.04822 0.46978 0.78605 0.0
N326 N 0.03744 0.46679 0.73039 0.0
C327 C 0.0597 0.43255 0.71081 0.0
C328 C 0.06566 0.45432 0.80564 0.0
C329 C 0.04258 0.44829 0.69322 0.0
C330 C 0.07135 0.43561 0.76714 0.0
C331 C 0.05302 0.4919 0.88124 0.0
C332 C 0.04202 0.4885 0.82322 0.0
C333 C 0.07083 0.47695 0.89993 0.0
C334 C 0.07709 0.45818 0.86233 0.0
Eu335 Eu 0.00767 0.49324 0.70662 0.0
N336 N 0.02459 0.50268 0.80425 0.0
C337 C 0.04523 0.50973 0.91993 0.0
C338 C 0.01574 0.51875 0.8444 0.0
C339 C 0.0263 0.523 0.90179 0.0
H340 H 0.03347 0.44557 0.65001 0.0
H341 H 0.01938 0.53606 0.9328 0.0
H342 H 0.04795 0.58885 0.6489 0.0
H343 H 0.96707 0.53207 0.38627 0.0
H344 H 0.99986 0.5276 0.83406 0.0
H345 H 0.05306 0.51269 0.96507 0.0
H346 H 0.99539 0.51874 0.46386 0.0
H347 H 0.06385 0.41802 0.68098 0.0
H348 H 0.07957 0.47949 0.94404 0.0
H349 H 0.09071 0.44667 0.8777 0.0
H350 H 0.04115 0.6312 0.64697 0.0
H351 H 0.08467 0.42342 0.78049 0.0
H352 H 0.95612 0.57342 0.38186 0.0
N353 N 0.02227 0.58158 0.58105 0.0
C354 C 1.00639 0.59018 0.54079 0.0
C355 C 0.03118 0.61985 0.61708 0.0
C356 C 1.00206 0.61416 0.53759 0.0
C357 C 0.03489 0.59593 0.61841 0.0
C358 C 0.01462 0.62899 0.57663 0.0
N359 N 1.00012 0.5521 0.50441 0.0
C360 C 0.9909 0.53684 0.46243 0.0
C361 C 0.979 0.58341 0.45715 0.0
C362 C 0.99504 0.57501 0.50109 0.0
C363 C 0.9686 0.56767 0.41611 0.0
C364 C 0.97476 0.54432 0.41838 0.0
H365 H 0.0119 0.64753 0.57512 0.0
H366 H 0.98202 0.64093 0.49211 0.0
H367 H 0.96179 0.61399 0.42169 0.0
O368 O 0.05505 0.52268 0.54021 0.0
O369 O 0.98729 0.53749 0.59223 0.0
O370 O 0.97916 0.50156 0.63593 0.0
O371 O 0.05185 0.56047 0.52701 0.0
O372 O 0.02249 0.50486 0.54202 0.0
O373 O 0.0088 0.477 0.61138 0.0
O374 O 0.98352 0.48454 0.78185 0.0
O375 O 0.04595 0.49806 0.678 0.0
O376 O 0.04871 0.53711 0.66977 0.0
O377 O 0.99128 0.45906 0.71183 0.0
O378 O 0.99499 0.53069 0.72332 0.0
O379 O 0.02549 0.55199 0.68483 0.0
C380 C 0.97312 0.52003 0.60364 0.0
C381 C 0.08456 0.54124 0.4763 0.0
C382 C 0.11502 0.51925 0.42453 0.0
C383 C 0.1255 0.54015 0.40538 0.0
C384 C 0.09512 0.56196 0.45646 0.0
C385 C 0.1155 0.56136 0.42111 0.0
C386 C 0.09451 0.51994 0.45976 0.0
C387 C 0.0159 0.48353 0.55579 0.0
C388 C 0.06351 0.5416 0.51513 0.0
C389 C 0.98567 0.62256 0.49499 0.0
C390 C 0.97415 0.60722 0.4549 0.0
C391 C 0.05789 0.51731 0.68625 0.0
C392 C 0.95246 0.46244 0.74154 0.0
C393 C 0.91501 0.48031 0.72084 0.0
C394 C 0.90647 0.45876 0.70049 0.0
C395 C 0.94366 0.44104 0.72133 0.0
C396 C 0.93803 0.48193 0.74112 0.0
C397 C 0.92075 0.43927 0.70079 0.0
C398 C 0.00753 0.54994 0.72238 0.0
C399 C 0.97723 0.46506 0.75631 0.0
H400 H 0.14126 0.54007 0.37772 0.0
H401 H 0.08774 0.57858 0.46864 0.0
H402 H 0.12362 0.57737 0.406 0.0
H403 H 0.08654 0.50385 0.47513 0.0
H404 H 0.88878 0.45693 0.68476 0.0
H405 H 0.95463 0.42586 0.72032 0.0
H406 H 0.94467 0.49844 0.75739 0.0
H407 H 0.91406 0.42275 0.68494 0.0
H408 H 0.1782 0.0714 0.10595 0.0
H409 H 0.14318 0.06596 0.16961 0.0
H410 H 0.16773 0.99881 0.22677 0.0
H411 H 0.20234 1.00403 0.16149 0.0
H412 H 0.12195 0.99785 0.22737 0.0
H413 H 0.17977 0.04908 0.30966 0.0
H414 H 0.20606 0.08291 0.3117 0.0
H415 H 0.14775 0.12862 0.29863 0.0
H416 H 0.12111 0.09504 0.29568 0.0
H417 H 0.06867 0.9907 0.52575 0.0
H418 H 0.09576 0.99328 0.43879 0.0
H419 H 0.06913 0.06076 0.39201 0.0
H420 H 0.04284 0.05887 0.48221 0.0
H421 H 0.11417 0.06123 0.38168 0.0
H422 H 0.05576 1.0067 0.30891 0.0
H423 H 0.03211 0.97104 0.31857 0.0
H424 H 0.09383 0.92997 0.32385 0.0
H425 H 0.11793 0.96526 0.31497 0.0
C426 C 0.17545 0.05494 0.12925 0.0
C427 C 0.19283 0.03794 0.12748 0.0
C428 C 0.15562 0.05201 0.16684 0.0
C429 C 0.15296 0.03223 0.20481 0.0
C430 C 0.16925 0.01429 0.19842 0.0
C431 C 0.18896 0.01714 0.16028 0.0
C432 C 0.13485 0.03129 0.25555 0.0
C433 C 0.12024 0.01176 0.26098 0.0
C434 C 0.13245 0.04933 0.30008 0.0
C435 C 0.14846 0.06953 0.30156 0.0
C436 C 0.17257 0.06633 0.30664 0.0
C437 C 0.18753 0.08546 0.30804 0.0
C438 C 0.17859 0.10789 0.30498 0.0
C439 C 0.15466 0.11123 0.30076 0.0
C440 C 0.13961 0.09216 0.29922 0.0
C441 C 0.06842 1.00612 0.49697 0.0
C442 C 0.05301 0.02434 0.5104 0.0
C443 C 0.08389 1.00747 0.44654 0.0
C444 C 0.08417 0.02689 0.40692 0.0
C445 C 0.06913 0.04538 0.42095 0.0
C446 C 0.05386 0.04418 0.47225 0.0
C447 C 0.10071 0.0282 0.35253 0.0
C448 C 0.11531 0.04767 0.34697 0.0
C449 C 0.10328 0.00995 0.30859 0.0
C450 C 0.08868 0.98868 0.31151 0.0
C451 C 0.06431 0.99008 0.31221 0.0
C452 C 0.05082 0.96995 0.3177 0.0
C453 C 0.06145 0.94833 0.32208 0.0
C454 C 0.08562 0.94674 0.32057 0.0
C455 C 0.0992 0.96679 0.31516 0.0
H456 H 0.05095 0.9328 0.32648 0.0
H457 H 0.19021 0.12267 0.30611 0.0
H458 H 0.45943 0.20996 0.1758 0.0
H459 H 0.46333 0.17314 0.2315 0.0
H460 H 0.53766 0.18134 0.23058 0.0
H461 H 0.5337 0.21844 0.1751 0.0
H462 H 0.52113 0.13295 0.21908 0.0
H463 H 0.50949 0.20127 0.34538 0.0
H464 H 0.48821 0.23645 0.37564 0.0
H465 H 0.42844 0.19535 0.42278 0.0
H466 H 0.44889 0.15997 0.38985 0.0
H467 H 0.54117 0.05713 0.48025 0.0
H468 H 0.54126 0.08817 0.40188 0.0
H469 H 0.46886 0.10088 0.44067 0.0
H470 H 0.46937 0.07097 0.52148 0.0
H471 H 0.4867 0.13932 0.43058 0.0
H472 H 0.49388 0.07237 0.29995 0.0
H473 H 0.5108 0.03631 0.25881 0.0
H474 H 0.57404 0.07248 0.21459 0.0
H475 H 0.55768 0.10867 0.25661 0.0
C476 C 0.47666 0.20333 0.18452 0.0
C477 C 0.49627 0.21691 0.16958 0.0
C478 C 0.47888 0.18239 0.21727 0.0
C479 C 0.50078 0.17449 0.23621 0.0
C480 C 0.52056 0.18695 0.2165 0.0
C481 C 0.51832 0.20806 0.18402 0.0
C482 C 0.5027 0.15504 0.28255 0.0
C483 C 0.51384 0.13437 0.26561 0.0
C484 C 0.49273 0.15663 0.34298 0.0
C485 C 0.48068 0.17793 0.36438 0.0
C486 C 0.49173 0.19971 0.36151 0.0
C487 C 0.47981 0.2197 0.37917 0.0
C488 C 0.45705 0.21814 0.40134 0.0
C489 C 0.44609 0.19655 0.4056 0.0
C490 C 0.45779 0.17652 0.38717 0.0
C491 C 0.52522 0.06638 0.47118 0.0
C492 C 0.5052 0.06151 0.50667 0.0
C493 C 0.52522 0.08415 0.42607 0.0
C494 C 0.50494 0.09697 0.41379 0.0
C495 C 0.48482 0.09155 0.44861 0.0
C496 C 0.48502 0.07426 0.4947 0.0
C497 C 0.50465 0.11661 0.36705 0.0
C498 C 0.49398 0.1376 0.38412 0.0
C499 C 0.51459 0.11506 0.30631 0.0
C500 C 0.52464 0.09319 0.28218 0.0
C501 C 0.51149 0.07259 0.28211 0.0
C502 C 0.52097 0.05212 0.25854 0.0
C503 C 0.54352 0.05208 0.23432 0.0
C504 C 0.55661 0.07251 0.23352 0.0
C505 C 0.54724 0.09301 0.25726 0.0
H506 H 0.55082 0.03623 0.21601 0.0
H507 H 0.44792 0.23366 0.4152 0.0
H508 H 0.33992 0.49995 0.08682 0.0
H509 H 0.37461 0.50815 0.15008 0.0
H510 H 0.33341 0.50112 0.31762 0.0
H511 H 0.29902 0.49428 0.25487 0.0
H512 H 0.36259 0.53111 0.34179 0.0
H513 H 0.36981 0.45562 0.24831 0.0
H514 H 0.37211 0.42774 0.16143 0.0
H515 H 0.43253 0.46281 0.09005 0.0
H516 H 0.43043 0.49106 0.1762 0.0
H517 H 0.47192 0.47488 0.49667 0.0
H518 H 0.44121 0.47245 0.41747 0.0
H519 H 0.43969 0.54708 0.40716 0.0
H520 H 0.46891 0.5494 0.48869 0.0
H521 H 0.43266 0.4837 0.30274 0.0
H522 H 0.38736 0.5679 0.38271 0.0
H523 H 0.38414 0.59168 0.47786 0.0
H524 H 0.39603 0.53157 0.5911 0.0
H525 H 0.39903 0.50736 0.49673 0.0
C526 C 0.33823 0.50095 0.13705 0.0
C527 C 0.31668 0.49649 0.16572 0.0
C528 C 0.35817 0.50522 0.17346 0.0
C529 C 0.35704 0.50468 0.23934 0.0
C530 C 0.33514 0.50162 0.26733 0.0
C531 C 0.31534 0.4977 0.23122 0.0
C532 C 0.37836 0.5063 0.2799 0.0
C533 C 0.3779 0.52078 0.3327 0.0
C534 C 0.39845 0.49258 0.26981 0.0
C535 C 0.39981 0.47558 0.21826 0.0
C536 C 0.38351 0.45745 0.21387 0.0
C537 C 0.38478 0.44158 0.1648 0.0
C538 C 0.40242 0.44354 0.12016 0.0
C539 C 0.41886 0.46134 0.12461 0.0
C540 C 0.41764 0.47727 0.17355 0.0
C541 C 0.46499 0.49068 0.47735 0.0
C542 C 0.47244 0.51228 0.5002 0.0
C543 C 0.44748 0.48934 0.43175 0.0
C544 C 0.43738 0.50961 0.40721 0.0
C545 C 0.44635 0.53113 0.42656 0.0
C546 C 0.46326 0.53244 0.4731 0.0
C547 C 0.41677 0.50849 0.36424 0.0
C548 C 0.41738 0.49412 0.31132 0.0
C549 C 0.39643 0.52169 0.37534 0.0
C550 C 0.39361 0.53588 0.43256 0.0
C551 C 0.3891 0.55973 0.42792 0.0
C552 C 0.38737 0.57328 0.48173 0.0
C553 C 0.38997 0.56315 0.54046 0.0
C554 C 0.39411 0.5394 0.54557 0.0
C555 C 0.39581 0.52575 0.49194 0.0
H556 H 0.38874 0.5737 0.58202 0.0
H557 H 0.40337 0.43124 0.0822 0.0
H558 H 0.05275 0.33324 0.1055 0.0
H559 H 0.04809 0.36886 0.16755 0.0
H560 H 0.9997 0.33324 0.2883 0.0
H561 H 1.00412 0.29803 0.22602 0.0
H562 H 0.01127 0.39803 0.2109 0.0
H563 H 0.01726 0.34521 0.44226 0.0
H564 H 0.03449 0.30895 0.48108 0.0
H565 H 0.08402 0.31004 0.33107 0.0
H566 H 0.06764 0.34667 0.29255 0.0
H567 H 0.99731 0.43961 0.55819 0.0
H568 H 0.99954 0.40961 0.47843 0.0
H569 H 0.03916 0.4557 0.36016 0.0
H570 H 0.03652 0.4861 0.43942 0.0
H571 H 0.0345 0.38694 0.43129 0.0
H572 H 0.03153 0.44083 0.20591 0.0
H573 H 0.01639 0.47826 0.16865 0.0
H574 H 0.96223 0.47547 0.30661 0.0
H575 H 0.97683 0.43787 0.34402 0.0
C576 C 0.04036 0.33339 0.14359 0.0
C577 C 0.02855 0.3129 0.16041 0.0
C578 C 0.03786 0.35369 0.17949 0.0
C579 C 0.02381 0.35373 0.23341 0.0
C580 C 0.01082 0.3337 0.24746 0.0
C581 C 0.01316 0.31361 0.21145 0.0
C582 C 0.02416 0.37369 0.27825 0.0
C583 C 0.0166 0.39566 0.2589 0.0
C584 C 0.03098 0.37073 0.34125 0.0
C585 C 0.04097 0.34859 0.36401 0.0
C586 C 0.0319 0.33778 0.41771 0.0
C587 C 0.0416 0.31722 0.43985 0.0
C588 C 0.06036 0.30722 0.4086 0.0
C589 C 0.06948 0.31779 0.35521 0.0
C590 C 0.06 0.33848 0.33322 0.0
C591 C 1.00639 0.44353 0.51511 0.0
C592 C 0.01663 0.46549 0.50553 0.0
C593 C 0.00772 0.42622 0.46936 0.0
C594 C 0.01934 0.43022 0.41251 0.0
C595 C 0.02967 0.45213 0.4028 0.0
C596 C 0.02819 0.46956 0.44847 0.0
C597 C 0.02096 0.41122 0.36465 0.0
C598 C 0.02906 0.38936 0.38339 0.0
C599 C 0.01476 0.41436 0.30119 0.0
C600 C 1.00544 0.43666 0.27813 0.0
C601 C 0.01632 0.44816 0.22806 0.0
C602 C 0.00784 0.4694 0.20695 0.0
C603 C 0.98841 0.47927 0.23538 0.0
C604 C 0.97733 0.46784 0.28476 0.0
C605 C 0.98571 0.44657 0.30595 0.0
H606 H 0.9819 0.49574 0.21907 0.0
H607 H 0.06779 0.29126 0.42568 0.0
H608 H 0.79858 0.01846 0.09638 0.0
H609 H 0.8339 0.02181 0.03313 0.0
H610 H 0.86655 0.96957 0.14595 0.0
H611 H 0.83102 0.96629 0.20972 0.0
H612 H 0.89841 1.00588 0.10031 0.0
H613 H 0.84116 0.95205 0.02279 0.0
H614 H 0.80139 0.94092 0.99281 0.0
H615 H 0.8014 0.99378 0.8518 0.0
H616 H 0.84101 1.00556 0.88183 0.0
H617 H 0.98142 0.97951 0.85707 0.0
H618 H 0.95244 0.97601 0.94101 0.0
H619 H 0.90435 0.01628 0.83275 0.0
H620 H 0.93262 0.01937 0.74914 0.0
H621 H 0.88169 0.98263 0.88239 0.0
H622 H 0.9362 0.03871 0.96038 0.0
H623 H 0.97477 0.05316 0.99139 0.0
H624 H 0.97952 0.99942 0.12929 0.0
H625 H 0.94103 0.98447 0.09854 0.0
C626 C 0.81364 0.00842 0.10937 0.0
C627 C 0.81214 0.99238 0.15864 0.0
C628 C 0.83378 0.01017 0.0728 0.0
C629 C 0.85288 0.99573 0.08407 0.0
C630 C 0.85212 0.98095 0.13631 0.0
C631 C 0.83186 0.97919 0.17306 0.0
C632 C 0.87208 0.99412 0.03683 0.0
C633 C 0.89486 1.00046 0.05289 0.0
C634 C 0.8675 0.9874 0.97453 0.0
C635 C 0.844 0.97979 0.95488 0.0
C636 C 0.83265 0.96138 0.98558 0.0
C637 C 0.81012 0.95496 0.96861 0.0
C638 C 0.79886 0.96667 0.92051 0.0
C639 C 0.81014 0.98475 0.88909 0.0
C640 C 0.83263 0.99129 0.90605 0.0
C641 C 0.96466 0.98756 0.85109 0.0
C642 C 0.9596 0.99982 0.79595 0.0
C643 C 0.94808 0.98566 0.89941 0.0
C644 C 0.9261 0.99611 0.89401 0.0
C645 C 0.92102 0.00798 0.8386 0.0
C646 C 0.93741 0.00979 0.79051 0.0
C647 C 0.90815 0.99487 0.94512 0.0
C648 C 0.88546 0.98789 0.92983 0.0
C649 C 0.91283 1.00128 1.00777 0.0
C650 C 0.93587 0.01031 0.02666 0.0
C651 C 0.94554 0.02987 0.99701 0.0
C652 C 0.96738 0.03817 0.01458 0.0
C653 C 0.97964 0.02715 0.0621 0.0
C654 C 0.97003 0.00789 0.09236 0.0
C655 C 0.94819 0.99951 0.07492 0.0
H656 H 0.99655 0.03359 0.07559 0.0
H657 H 0.78141 0.9617 0.90751 0.0
H658 H 0.49911 0.82011 0.11214 0.0
H659 H 0.49601 0.85656 0.05397 0.0
H660 H 0.56719 0.87277 0.09752 0.0
H661 H 0.57021 0.83625 0.15578 0.0
H662 H 0.54053 0.91259 0.09301 0.0
H663 H 0.55458 0.84644 0.96579 0.0
H664 H 0.54766 0.80724 0.92412 0.0
H665 H 0.4816 0.82869 0.85332 0.0
H666 H 0.48787 0.86791 0.89587 0.0
H667 H 0.55851 0.97915 0.79618 0.0
H668 H 0.56303 0.94883 0.87651 0.0
H669 H 0.48882 0.94486 0.89792 0.0
H670 H 0.48423 0.97524 0.81938 0.0
H671 H 0.51956 0.89997 0.87172 0.0
H672 H 0.5067 0.96715 1.00076 0.0
H673 H 0.51428 1.00544 0.04697 0.0
H674 H 0.57965 0.98158 0.11628 0.0
H675 H 0.5731 0.94347 0.06746 0.0
C676 C 0.51372 0.83199 0.11188 0.0
C677 C 0.53471 0.82556 0.14006 0.0
C678 C 0.51208 0.8527 0.07768 0.0
C679 C 0.53148 0.8674 0.07024 0.0
C680 C 0.55194 0.86186 0.1024 0.0
C681 C 0.5536 0.84107 0.1364 0.0
C682 C 0.53106 0.88714 0.0244 0.0
C683 C 0.53619 0.90979 0.04445 0.0
C684 C 0.52536 0.88364 0.96077 0.0
C685 C 0.52157 0.86007 0.9348 0.0
C686 C 0.53846 0.84276 0.94191 0.0
C687 C 0.53467 0.82053 0.91806 0.0
C688 C 0.51418 0.81546 0.88623 0.0
C689 C 0.49744 0.83263 0.87812 0.0
C690 C 0.5011 0.85486 0.90216 0.0
C691 C 0.54322 0.97214 0.81903 0.0
C692 C 0.52101 0.97975 0.80163 0.0
C693 C 0.54582 0.95483 0.86496 0.0
C694 C 0.52629 0.94486 0.89435 0.0
C695 C 0.50417 0.95245 0.87674 0.0
C696 C 0.50158 0.96981 0.83159 0.0
C697 C 0.52856 0.92548 0.94041 0.0
C698 C 0.52393 0.9028 0.92017 0.0
C699 C 0.53491 0.92901 1.00356 0.0
C700 C 0.53959 0.95249 0.02911 0.0
C701 C 0.52301 0.9702 0.02414 0.0
C702 C 0.52707 0.99187 0.05122 0.0
C703 C 0.54745 0.99595 0.0845 0.0
C704 C 0.5639 0.97842 0.09035 0.0
C705 C 0.5601 0.95683 0.06258 0.0
H706 H 0.55051 0.0127 0.10564 0.0
H707 H 0.51129 0.79826 0.86769 0.0
H708 H 0.70432 0.58607 0.13252 0.0
H709 H 0.66792 0.58129 0.07588 0.0
H710 H 0.67666 0.50714 0.07931 0.0
H711 H 0.71348 0.51209 0.13529 0.0
H712 H 0.66859 0.5201 0.9653 0.0
H713 H 0.63132 0.53694 0.15911 0.0
H714 H 0.62201 0.55842 0.25533 0.0
H715 H 0.6013 0.61723 0.14694 0.0
H716 H 0.61093 0.59634 0.04994 0.0
H717 H 0.565 0.49518 0.80762 0.0
H718 H 0.59362 0.49879 0.89022 0.0
H719 H 0.58758 0.5732 0.88319 0.0
H720 H 0.55791 0.56953 0.80124 0.0
H721 H 0.59334 0.55925 1.00129 0.0
H722 H 0.63297 0.54298 0.80816 0.0
H723 H 0.63957 0.52059 0.71184 0.0
H724 H 0.6543 0.45991 0.82021 0.0
H725 H 0.64755 0.48185 0.91723 0.0
C726 C 0.69793 0.5687 0.1237 0.0
C727 C 0.71155 0.54944 0.13983 0.0
C728 C 0.6771 0.56595 0.09078 0.0
C729 C 0.66922 0.54381 0.07298 0.0
C730 C 0.68219 0.52444 0.09224 0.0
C731 C 0.70308 0.52721 0.12529 0.0
C732 C 0.64896 0.54114 0.02931 0.0
C733 C 0.65204 0.52837 0.97404 0.0
C734 C 0.62738 0.55241 0.03893 0.0
C735 C 0.62213 0.56517 0.09724 0.0
C736 C 0.62508 0.55457 0.15575 0.0
C737 C 0.6197 0.56662 0.21039 0.0
C738 C 0.61121 0.5892 0.207 0.0
C739 C 0.60801 0.59978 0.1492 0.0
C740 C 0.61343 0.58786 0.09445 0.0
C741 C 0.56961 0.51237 0.8238 0.0
C742 C 0.55936 0.53211 0.79713 0.0
C743 C 0.58613 0.51441 0.87106 0.0
C744 C 0.59347 0.5363 0.89207 0.0
C745 C 0.58248 0.55609 0.86758 0.0
C746 C 0.5655 0.55401 0.82072 0.0
C747 C 0.61308 0.53831 0.93779 0.0
C748 C 0.60992 0.55097 0.99302 0.0
C749 C 0.63461 0.52697 0.92823 0.0
C750 C 0.63962 0.51403 0.86997 0.0
C751 C 0.63759 0.52486 0.81146 0.0
C752 C 0.64132 0.51224 0.75674 0.0
C753 C 0.64727 0.48884 0.75992 0.0
C754 C 0.64967 0.47804 0.81784 0.0
C755 C 0.64594 0.49056 0.87271 0.0
H756 H 0.65006 0.47909 0.71749 0.0
H757 H 0.60702 0.59854 0.24903 0.0
H758 H 0.94914 0.70902 0.12593 0.0
H759 H 0.95419 0.67276 0.06797 0.0
H760 H 0.02513 0.69182 0.0279 0.0
H761 H 0.01999 0.72803 0.08596 0.0
H762 H 1.00161 0.68276 0.92322 0.0
H763 H 0.01048 0.64443 0.12061 0.0
H764 H 0.99933 0.63282 0.22732 0.0
H765 H 0.93745 0.60045 0.15749 0.0
H766 H 0.94812 0.61214 0.05036 0.0
H767 H 0.03809 0.58352 0.75922 0.0
H768 H 0.03259 0.61435 0.83498 0.0
H769 H 0.96295 0.59004 0.87087 0.0
H770 H 0.96834 0.55893 0.79376 0.0
H771 H 0.98392 0.60117 0.97896 0.0
H772 H 0.97331 0.63914 0.78495 0.0
H773 H 0.98094 0.65316 0.6782 0.0
H774 H 0.04265 0.68786 0.74062 0.0
H775 H 0.03564 0.67373 0.84758 0.0
C776 C 0.96615 0.70487 0.10749 0.0
C777 C 0.98439 0.72107 0.11221 0.0
C778 C 0.96898 0.68419 0.07374 0.0
C779 C 0.99008 0.67935 0.04329 0.0
C780 C 0.00869 0.69498 0.05098 0.0
C781 C 1.00589 0.71556 0.08508 0.0
C782 C 0.99194 0.65966 0.99772 0.0
C783 C 0.9982 0.66486 0.93587 0.0
C784 C 0.98635 0.63636 0.01304 0.0
C785 C 0.97994 0.62942 0.07751 0.0
C786 C 0.99437 0.63505 0.12804 0.0
C787 C 0.98818 0.6284 0.18861 0.0
C788 C 0.96766 0.61598 0.19921 0.0
C789 C 0.95332 0.61012 0.14924 0.0
C790 C 0.95944 0.61674 0.0886 0.0
C791 C 0.02141 0.58482 0.78227 0.0
C792 C 1.00355 0.56878 0.76933 0.0
C793 C 0.01831 0.60254 0.82605 0.0
C794 C 0.99722 0.60493 0.85845 0.0
C795 C 0.97939 0.58874 0.84654 0.0
C796 C 0.98246 0.57095 0.80226 0.0
C797 C 0.99414 0.62426 0.90474 0.0
C798 C 0.9875 0.61905 0.96646 0.0
C799 C 0.9991 0.64769 0.88927 0.0
C800 C 1.00406 0.65515 0.82427 0.0
C801 C 0.9887 0.64946 0.77579 0.0
C802 C 0.99286 0.65753 0.71527 0.0
C803 C 0.01224 0.67143 0.7027 0.0
C804 C 0.02763 0.67711 0.75046 0.0
C805 C 0.02358 0.66906 0.81103 0.0
H806 H 0.01534 0.67785 0.65599 0.0
H807 H 0.96291 0.61083 0.24613 0.0
H808 H 0.0445 0.20763 0.17636 0.0
H809 H 0.04669 0.18443 0.27 0.0
H810 H 0.08383 0.23922 0.36311 0.0
H811 H 0.08278 0.26259 0.26774 0.0
H812 H 0.08601 0.17587 0.38622 0.0
H813 H 0.04406 0.25319 0.40948 0.0
H814 H 0.0206 0.28339 0.35775 0.0
H815 H 0.97272 0.23156 0.29406 0.0
H816 H 0.99615 0.20107 0.34362 0.0
H817 H 0.98 0.15178 0.61827 0.0
H818 H 0.01161 0.17691 0.58149 0.0
H819 H 0.02569 0.12863 0.43264 0.0
H820 H 0.99423 0.10376 0.46929 0.0
H821 H 0.00852 0.19653 0.47039 0.0
H822 H 0.0798 0.13366 0.37747 0.0
H823 H 0.09804 0.09735 0.41069 0.0
H824 H 0.08208 0.11278 0.6018 0.0
H825 H 0.06433 0.14964 0.57004 0.0
C826 C 0.05435 0.21445 0.21513 0.0
C827 C 0.06307 0.23727 0.21461 0.0
C828 C 0.05555 0.20104 0.26891 0.0
C829 C 0.0652 0.21026 0.3233 0.0
C830 C 0.07635 0.23187 0.32128 0.0
C831 C 0.0754 0.2453 0.26701 0.0
C832 C 0.0578 0.20004 0.38308 0.0
C833 C 0.06939 0.18058 0.40627 0.0
C834 C 0.03608 0.20636 0.40847 0.0
C835 C 0.02186 0.22491 0.38014 0.0
C836 C 0.02859 0.24828 0.38418 0.0
C837 C 0.01533 0.26542 0.35526 0.0
C838 C 0.99518 0.2594 0.32304 0.0
C839 C 0.98831 0.23621 0.31918 0.0
C840 C 1.00156 0.21901 0.34756 0.0
C841 C 0.99001 0.1466 0.57808 0.0
C842 C 0.98439 0.12619 0.54595 0.0
C843 C 0.00825 0.16071 0.55766 0.0
C844 C 0.02117 0.15456 0.50465 0.0
C845 C 0.01637 0.13349 0.47455 0.0
C846 C 0.99822 0.11937 0.4952 0.0
C847 C 0.03638 0.17179 0.47351 0.0
C848 C 0.02592 0.19245 0.45439 0.0
C849 C 0.05883 0.16614 0.45125 0.0
C850 C 0.07066 0.14453 0.47122 0.0
C851 C 0.08045 0.12955 0.42671 0.0
C852 C 0.09067 0.10877 0.4453 0.0
C853 C 0.09118 0.10267 0.50831 0.0
C854 C 0.08166 0.11748 0.55297 0.0
C855 C 0.07155 0.13836 0.53469 0.0
H856 H 0.09896 0.08648 0.52246 0.0
H857 H 0.98483 0.27269 0.30121 0.0
H858 H 0.29492 0.08257 0.17802 0.0
H859 H 0.31919 0.079 0.27037 0.0
H860 H 0.2615 0.05048 0.37345 0.0
H861 H 0.23778 0.0519 0.28198 0.0
H862 H 0.30428 0.07581 0.44631 0.0
H863 H 0.27919 0.00989 0.29948 0.0
H864 H 0.27372 0.99851 0.18947 0.0
H865 H 0.34316 0.02084 0.14639 0.0
H866 H 0.34883 0.03269 0.25595 0.0
H867 H 0.36286 0.95606 0.5263 0.0
H868 H 0.33072 0.98125 0.49773 0.0
H869 H 0.37768 0.0393 0.48303 0.0
H870 H 0.40986 0.01461 0.50676 0.0
H871 H 0.33816 1.00136 0.37529 0.0
H872 H 0.34276 0.08949 0.50077 0.0
H873 H 0.35247 0.10482 0.6047 0.0
H874 H 0.33059 0.04093 0.68919 0.0
H875 H 0.32048 0.02515 0.58581 0.0
C876 C 0.28714 0.07599 0.22054 0.0
C877 C 0.26451 0.06664 0.22087 0.0
C878 C 0.30095 0.07456 0.27384 0.0
C879 C 0.29211 0.06425 0.32831 0.0
C880 C 0.26854 0.05866 0.33191 0.0
C881 C 0.25493 0.05947 0.27856 0.0
C882 C 0.30787 0.05177 0.37023 0.0
C883 C 0.31189 0.05961 0.43114 0.0
C884 C 0.31739 0.03054 0.35026 0.0
C885 C 0.31442 0.0221 0.2856 0.0
C886 C 0.29329 0.01226 0.26649 0.0
C887 C 0.29013 1.00581 0.20426 0.0
C888 C 0.3081 0.00892 0.16103 0.0
C889 C 0.32927 0.01842 0.17995 0.0
C890 C 0.33247 0.02499 0.24206 0.0
C891 C 0.36642 0.97422 0.51792 0.0
C892 C 0.3893 0.98288 0.51762 0.0
C893 C 0.34793 0.98866 0.50258 0.0
C894 C 0.35195 0.01205 0.48824 0.0
C895 C 0.37421 0.02134 0.49482 0.0
C896 C 0.39273 1.00693 0.50879 0.0
C897 C 0.33478 0.0252 0.4522 0.0
C898 C 0.33049 0.01742 0.39148 0.0
C899 C 0.32571 0.04668 0.47239 0.0
C900 C 0.33096 0.05611 0.53526 0.0
C901 C 0.33984 0.07873 0.54149 0.0
C902 C 0.34548 0.08746 0.60032 0.0
C903 C 0.34223 0.07378 0.65343 0.0
C904 C 0.33322 0.05138 0.64786 0.0
C905 C 0.32756 0.04253 0.58913 0.0
H906 H 0.34665 0.08054 0.69892 0.0
H907 H 0.30566 1.00394 0.1129 0.0
H908 H 0.50216 0.32066 0.2473 0.0
H909 H 0.50172 0.33833 0.35018 0.0
H910 H 0.45866 0.28265 0.41991 0.0
H911 H 0.45794 0.26533 0.31575 0.0
H912 H 0.46721 0.35302 0.4355 0.0
H913 H 0.48497 0.26933 0.5655 0.0
H914 H 0.49997 0.22972 0.55009 0.0
H915 H 0.54224 0.25364 0.39747 0.0
H916 H 0.52755 0.29336 0.41224 0.0
H917 H 0.51427 0.40579 0.69089 0.0
H918 H 0.48863 0.37462 0.65581 0.0
H919 H 0.54733 0.34106 0.56929 0.0
H920 H 0.57311 0.37056 0.61192 0.0
H921 H 0.51589 0.31021 0.58668 0.0
H922 H 0.51307 0.39265 0.49837 0.0
H923 H 0.50398 0.43361 0.52138 0.0
H924 H 0.43644 0.41354 0.58803 0.0
H925 H 0.44517 0.37254 0.56534 0.0
C926 C 0.49186 0.31254 0.28366 0.0
C927 C 0.4803 0.29141 0.27325 0.0
C928 C 0.49173 0.32263 0.34266 0.0
C929 C 0.48033 0.31167 0.39261 0.0
C930 C 0.46768 0.29127 0.38194 0.0
C931 C 0.46747 0.28134 0.32253 0.0
C932 C 0.48395 0.32066 0.45629 0.0
C933 C 0.47741 0.34351 0.46926 0.0
C934 C 0.49687 0.30812 0.50081 0.0
C935 C 0.50492 0.28417 0.48944 0.0
C936 C 0.49737 0.26606 0.52848 0.0
C937 C 0.50589 0.24364 0.52004 0.0
C938 C 0.52214 0.2392 0.47305 0.0
C939 C 0.52971 0.25712 0.43397 0.0
C940 C 0.5212 0.27956 0.44214 0.0
C941 C 0.52175 0.39092 0.66811 0.0
C942 C 0.54555 0.39035 0.65443 0.0
C943 C 0.50708 0.37331 0.64693 0.0
C944 C 0.51584 0.35602 0.60742 0.0
C945 C 0.54 0.35427 0.59923 0.0
C946 C 0.55478 0.37121 0.62318 0.0
C947 C 0.50051 0.34307 0.56405 0.0
C948 C 0.50465 0.31939 0.5547 0.0
C949 C 0.48563 0.35492 0.52237 0.0
C950 C 0.47976 0.37965 0.53039 0.0
C951 C 0.4962 0.39708 0.5172 0.0
C952 C 0.49116 0.42025 0.53049 0.0
C953 C 0.4697 0.42612 0.55651 0.0
C954 C 0.45307 0.40893 0.56806 0.0
C955 C 0.45801 0.38576 0.55484 0.0
H956 H 0.46596 0.44396 0.56803 0.0
H957 H 0.52873 0.22184 0.46662 0.0
H958 H 0.24185 0.41722 0.09317 0.0
H959 H 0.2108 0.39888 0.15452 0.0
H960 H 0.23303 0.43748 0.31624 0.0
H961 H 0.26434 0.45425 0.25719 0.0
H962 H 0.20828 0.40482 0.3571 0.0
H963 H 0.19377 0.46122 0.16894 0.0
H964 H 0.1919 0.46593 0.05448 0.0
H965 H 0.15314 0.4025 0.03968 0.0
H966 H 0.1549 0.39736 0.15393 0.0
H967 H 0.16017 0.50689 0.43659 0.0
H968 H 0.17844 0.47121 0.40148 0.0
H969 H 0.11203 0.44493 0.34088 0.0
H970 H 0.09359 0.48093 0.37591 0.0
H971 H 0.14378 0.44442 0.24915 0.0
H972 H 0.14053 0.41332 0.44946 0.0
H973 H 0.14169 0.41292 0.5643 0.0
H974 H 0.21416 0.43037 0.5597 0.0
H975 H 0.21343 0.43125 0.44495 0.0
C976 C 0.24065 0.42083 0.14262 0.0
C977 C 0.25512 0.43767 0.16993 0.0
C978 C 0.22278 0.4105 0.1776 0.0
C979 C 0.21862 0.41776 0.23923 0.0
C980 C 0.23539 0.43171 0.2686 0.0
C981 C 0.25349 0.44146 0.23441 0.0
C982 C 0.19517 0.41644 0.26863 0.0
C983 C 0.1939 0.41305 0.33354 0.0
C984 C 0.17555 0.42568 0.23774 0.0
C985 C 0.17462 0.42882 0.16948 0.0
C986 C 0.18485 0.44833 0.14111 0.0
C987 C 0.18385 0.45105 0.07638 0.0
C988 C 0.17245 0.43453 0.03987 0.0
C989 C 0.16201 0.41525 0.06799 0.0
C990 C 0.16302 0.4124 0.13265 0.0
C991 C 0.14943 0.4934 0.41648 0.0
C992 C 0.12557 0.49674 0.40822 0.0
C993 C 0.15979 0.47284 0.39739 0.0
C994 C 0.14653 0.45521 0.36954 0.0
C995 C 0.12251 0.45817 0.36309 0.0
C996 C 0.11205 0.47873 0.38285 0.0
C997 C 0.15876 0.43597 0.33806 0.0
C998 C 0.15742 0.43506 0.27296 0.0
C999 C 0.17609 0.42317 0.36903 0.0
C1000 C 0.17693 0.42217 0.43828 0.0
C1001 C 0.15673 0.41709 0.47287 0.0
C1002 C 0.15731 0.41681 0.53802 0.0
C1003 C 0.178 0.42156 0.56927 0.0
C1004 C 0.19817 0.42659 0.53542 0.0
C1005 C 0.19769 0.4269 0.47025 0.0
H1006 H 0.1784 0.42139 0.61971 0.0
H1007 H 0.17164 0.43667 0.98982 0.0
H1008 H 0.93861 0.77047 0.98031 0.0
H1009 H 0.94001 0.78885 0.87738 0.0
H1010 H 0.98132 0.84455 0.95279 0.0
H1011 H 0.98131 0.82599 0.05356 0.0
H1012 H 0.95152 0.85906 0.85634 0.0
H1013 H 0.00779 0.79624 0.90807 0.0
H1014 H 0.0156 0.75531 0.93368 0.0
H1015 H 0.98026 0.73371 0.7676 0.0
H1016 H 0.97186 0.77456 0.74177 0.0
H1017 H 0.07041 0.87212 0.7685 0.0
H1018 H 0.03986 0.84358 0.78502 0.0
H1019 H 0.99553 0.88052 0.65762 0.0
H1020 H 0.02607 0.90987 0.64354 0.0
H1021 H 0.01012 0.81423 0.73763 0.0
H1022 H 0.94338 0.88193 0.71818 0.0
H1023 H 0.93881 0.92405 0.70186 0.0
H1024 H 0.99917 0.93724 0.81319 0.0
H1025 H 1.00397 0.89517 0.83045 0.0
C1026 C 0.94768 0.78684 0.97523 0.0
C1027 C 0.96033 0.79638 0.0253 0.0
C1028 C 0.94818 0.79743 0.91651 0.0
C1029 C 0.96093 0.81792 0.9075 0.0
C1030 C 0.97123 0.8288 0.95887 0.0
C1031 C 0.97113 0.81808 0.01696 0.0
C1032 C 0.9679 0.82592 0.84468 0.0
C1033 C 0.96367 0.84905 0.82868 0.0
C1034 C 0.98362 0.81279 0.80839 0.0
C1035 C 0.98897 0.78835 0.8234 0.0
C1036 C 1.00159 0.78273 0.87724 0.0
C1037 C 1.0061 0.75957 0.89182 0.0
C1038 C 0.99839 0.74192 0.85235 0.0
C1039 C 0.98616 0.7474 0.7982 0.0
C1040 C 0.98148 0.77054 0.78364 0.0
C1041 C 0.05448 0.8737 0.74225 0.0
C1042 C 0.05025 0.89342 0.70604 0.0
C1043 C 0.03697 0.8573 0.75146 0.0
C1044 C 0.01506 0.86028 0.72408 0.0
C1045 C 0.01203 0.87822 0.68066 0.0
C1046 C 0.0294 0.89496 0.67266 0.0
C1047 C 0.99497 0.84786 0.75222 0.0
C1048 C 0.99669 0.82386 0.76176 0.0
C1049 C 0.97717 0.86027 0.78327 0.0
C1050 C 0.97406 0.88552 0.77524 0.0
C1051 C 0.95556 0.89386 0.73946 0.0
C1052 C 0.95294 0.91768 0.73007 0.0
C1053 C 0.9687 0.93327 0.75644 0.0
C1054 C 0.98699 0.92512 0.79281 0.0
C1055 C 0.98963 0.90131 0.80254 0.0
H1056 H 0.96677 0.95165 0.74836 0.0
H1057 H 1.00193 0.724 0.86362 0.0
H1058 H 0.74378 0.98575 0.04389 0.0
H1059 H 0.70676 0.98435 0.98999 0.0
H1060 H 0.68352 0.92944 0.11205 0.0
H1061 H 0.72069 0.93081 0.16653 0.0
H1062 H 0.67182 0.95766 0.93536 0.0
H1063 H 0.6347 0.94815 0.17847 0.0
H1064 H 0.64472 0.95162 0.28995 0.0
H1065 H 0.69635 1.00298 0.24537 0.0
H1066 H 0.68672 0.99967 0.13361 0.0
H1067 H 0.5548 1.00249 0.91159 0.0
H1068 H 0.587 0.97589 0.93313 0.0
H1069 H 0.61996 0.02891 0.04398 0.0
H1070 H 0.58777 0.05502 0.02357 0.0
H1071 H 0.62161 0.99 0.10198 0.0
H1072 H 0.63658 0.01406 0.88364 0.0
H1073 H 0.62489 0.01628 0.77316 0.0
H1074 H 0.61704 0.94229 0.76745 0.0
H1075 H 0.62864 0.93968 0.87792 0.0
C1076 C 0.73132 0.97249 0.05712 0.0
C1077 C 0.7348 0.95884 0.11049 0.0
C1078 C 0.71009 0.9717 0.02619 0.0
C1079 C 0.6922 0.95726 0.04832 0.0
C1080 C 0.69703 0.94096 0.09499 0.0
C1081 C 0.71824 0.94178 0.1261 0.0
C1082 C 0.66796 0.96355 0.03407 0.0
C1083 C 0.66058 0.9643 0.97179 0.0
C1084 C 0.65329 0.97229 0.08155 0.0
C1085 C 0.66024 0.97339 0.14787 0.0
C1086 C 0.64834 0.96 0.19252 0.0
C1087 C 0.65392 0.96197 0.25566 0.0
C1088 C 0.67121 0.97744 0.27465 0.0
C1089 C 0.68304 0.99092 0.23052 0.0
C1090 C 0.67762 0.98892 0.16726 0.0
C1091 C 0.56911 0.00831 0.94 0.0
C1092 C 0.56898 0.03067 0.96569 0.0
C1093 C 0.58741 0.99322 0.95219 0.0
C1094 C 0.60598 1.00049 0.98953 0.0
C1095 C 0.60574 0.02285 0.01531 0.0
C1096 C 0.58736 0.03776 1.00377 0.0
C1097 C 0.6258 0.9851 1.00307 0.0
C1098 C 0.63229 0.98252 0.06549 0.0
C1099 C 0.63963 0.97508 0.95564 0.0
C1100 C 0.63336 0.97669 0.88893 0.0
C1101 C 0.63235 0.99829 0.85873 0.0
C1102 C 0.62574 0.99961 0.79617 0.0
C1103 C 0.6202 0.97943 0.76335 0.0
C1104 C 0.62135 0.95789 0.79293 0.0
C1105 C 0.628 0.95647 0.85543 0.0
H1106 H 0.61506 0.98045 0.71498 0.0
H1107 H 0.67531 0.97906 0.32358 0.0
H1108 H 0.53272 0.72086 0.07791 0.0
H1109 H 0.53774 0.70006 0.98051 0.0
H1110 H 0.58433 0.7534 0.91356 0.0
H1111 H 0.5797 0.77428 0.01216 0.0
H1112 H 0.55314 0.74515 0.82929 0.0
H1113 H 0.60531 0.69941 0.93196 0.0
H1114 H 0.62413 0.67681 0.0148 0.0
H1115 H 0.56941 0.62618 1.00735 0.0
H1116 H 0.54992 0.64869 0.92524 0.0
H1117 H 0.52714 0.62386 0.66331 0.0
H1118 H 0.55602 0.65059 0.70578 0.0
H1119 H 0.50213 0.70105 0.73738 0.0
H1120 H 0.47378 0.67493 0.69184 0.0
H1121 H 0.55745 0.65953 0.81644 0.0
H1122 H 0.51842 0.75298 0.76812 0.0
H1123 H 0.50832 0.77671 0.67675 0.0
H1124 H 0.55011 0.7333 0.55942 0.0
H1125 H 0.56064 0.70942 0.64999 0.0
C1126 C 0.54463 0.72787 0.04348 0.0
C1127 C 0.55578 0.74927 0.05295 0.0
C1128 C 0.54749 0.71594 0.98756 0.0
C1129 C 0.56159 0.72506 0.93983 0.0
C1130 C 0.5734 0.74603 0.94977 0.0
C1131 C 0.57064 0.75797 1.00601 0.0
C1132 C 0.56161 0.71367 0.87791 0.0
C1133 C 0.55436 0.72645 0.82589 0.0
C1134 C 0.56482 0.68952 0.87221 0.0
C1135 C 0.5761 0.67583 0.92233 0.0
C1136 C 0.59714 0.68356 0.94828 0.0
C1137 C 0.60795 0.67076 0.99509 0.0
C1138 C 0.59796 0.6501 0.01628 0.0
C1139 C 0.57711 0.6422 0.99078 0.0
C1140 C 0.56619 0.65497 0.94398 0.0
C1141 C 0.52176 0.64107 0.6769 0.0
C1142 C 0.49824 0.64728 0.67497 0.0
C1143 C 0.53825 0.65633 0.70138 0.0
C1144 C 0.53137 0.67786 0.72554 0.0
C1145 C 0.50818 0.68481 0.71818 0.0
C1146 C 0.49182 0.66975 0.69247 0.0
C1147 C 0.54656 0.69076 0.76958 0.0
C1148 C 0.55685 0.67828 0.81846 0.0
C1149 C 0.54722 0.71527 0.77101 0.0
C1150 C 0.54037 0.72937 0.71612 0.0
C1151 C 0.52557 0.74853 0.72295 0.0
C1152 C 0.51971 0.762 0.6712 0.0
C1153 C 0.52859 0.75655 0.61236 0.0
C1154 C 0.54319 0.7375 0.605 0.0
C1155 C 0.54906 0.72394 0.65652 0.0
H1156 H 0.52419 0.76713 0.57249 0.0
H1157 H 0.60643 0.64025 0.0524 0.0
H1158 H 0.77157 0.54293 0.99817 0.0
H1159 H 0.79682 0.54757 0.90834 0.0
H1160 H 0.83423 0.60217 1.00283 0.0
H1161 H 0.80921 0.59676 0.09489 0.0
H1162 H 0.80824 0.5778 0.82608 0.0
H1163 H 0.88849 0.60219 0.95612 0.0
H1164 H 0.9067 0.60117 0.0601 0.0
H1165 H 0.8707 0.53772 0.10234 0.0
H1166 H 0.85201 0.5386 0.99891 0.0
H1167 H 0.92522 0.526 0.69529 0.0
H1168 H 0.90308 0.55978 0.72995 0.0
H1169 H 0.84815 0.51461 0.79403 0.0
H1170 H 0.87059 0.48092 0.76351 0.0
H1171 H 0.89019 0.55771 0.86796 0.0
H1172 H 0.79902 0.54453 0.75486 0.0
H1173 H 0.78326 0.53884 0.64929 0.0
H1174 H 0.84316 0.57237 0.56992 0.0
H1175 H 0.85927 0.57836 0.675 0.0
C1176 C 0.78491 0.55622 0.9995 0.0
C1177 C 0.78848 0.56945 0.05345 0.0
C1178 C 0.79932 0.55897 0.94788 0.0
C1179 C 0.81759 0.57516 0.9486 0.0
C1180 C 0.8205 0.58931 1.00139 0.0
C1181 C 0.80623 0.58624 0.05386 0.0
C1182 C 0.83467 0.57477 0.89654 0.0
C1183 C 0.82627 0.57376 0.83502 0.0
C1184 C 0.85853 0.57072 0.90731 0.0
C1185 C 0.86873 0.57062 0.97039 0.0
C1186 C 0.88439 0.58812 0.98785 0.0
C1187 C 0.89482 0.58754 0.04654 0.0
C1188 C 0.88998 0.56933 0.08762 0.0
C1189 C 0.87447 0.55179 0.0704 0.0
C1190 C 0.86385 0.55238 0.01195 0.0
C1191 C 0.90819 0.5233 0.71553 0.0
C1192 C 0.89968 0.50073 0.72694 0.0
C1193 C 0.89554 0.54264 0.73472 0.0
C1194 C 0.87395 0.53961 0.76379 0.0
C1195 C 0.86464 0.51725 0.77054 0.0
C1196 C 0.87749 0.49798 0.753 0.0
C1197 C 0.86304 0.55841 0.79956 0.0
C1198 C 0.87257 0.56313 0.85813 0.0
C1199 C 0.84019 0.56533 0.78628 0.0
C1200 C 0.8303 0.56202 0.72302 0.0
C1201 C 0.80874 0.55091 0.71501 0.0
C1202 C 0.79978 0.54755 0.65518 0.0
C1203 C 0.81215 0.55533 0.60296 0.0
C1204 C 0.83353 0.56646 0.61043 0.0
C1205 C 0.84264 0.56972 0.6701 0.0
H1206 H 0.80522 0.55265 0.55669 0.0
H1207 H 0.89822 0.56883 0.13285 0.0
H1208 H 0.99668 0.24325 0.02459 0.0
H1209 H 0.98878 0.21196 0.95002 0.0
H1210 H 0.06049 0.21321 0.89206 0.0
H1211 H 0.0684 0.24409 0.96737 0.0
H1212 H 0.99137 0.2011 0.82957 0.0
H1213 H 0.08009 0.15717 0.87746 0.0
H1214 H 0.10978 0.15626 0.95992 0.0
H1215 H 0.05864 0.1755 0.09623 0.0
H1216 H 0.02858 0.17612 0.01488 0.0
H1217 H 0.01713 0.09775 0.63496 0.0
H1218 H 0.01933 0.13606 0.68586 0.0
H1219 H 0.99875 0.10504 0.86034 0.0
H1220 H 0.99571 0.06731 0.8099 0.0
H1221 H 0.04107 0.13243 0.86315 0.0
H1222 H 0.96274 0.13373 0.80024 0.0
H1223 H 0.92757 0.1345 0.73587 0.0
H1224 H 0.95032 0.19805 0.65074 0.0
H1225 H 0.98624 0.19716 0.71253 0.0
C1226 C 0.01049 0.23755 0.99393 0.0
C1227 C 0.0331 0.24641 1.0013 0.0
C1228 C 1.00603 0.21944 0.95165 0.0
C1229 C 0.02412 0.20971 0.91606 0.0
C1230 C 0.04626 0.22 0.91955 0.0
C1231 C 0.05073 0.23795 0.96199 0.0
C1232 C 0.02042 0.18762 0.88011 0.0
C1233 C 1.00246 0.18618 0.83614 0.0
C1234 C 0.03428 0.16773 0.89027 0.0
C1235 C 0.05216 0.16703 0.93981 0.0
C1236 C 0.07517 0.16115 0.92505 0.0
C1237 C 0.09206 0.16067 0.97162 0.0
C1238 C 0.08612 0.16593 0.03321 0.0
C1239 C 0.06324 0.17154 0.04846 0.0
C1240 C 0.04628 0.17196 1.00212 0.0
C1241 C 0.01263 0.09921 0.68386 0.0
C1242 C 0.00661 0.07929 0.71851 0.0
C1243 C 0.01388 0.12113 0.71291 0.0
C1244 C 0.00915 0.12354 0.77706 0.0
C1245 C 1.00253 0.10375 0.81095 0.0
C1246 C 1.00095 0.08208 0.78197 0.0
C1247 C 0.01258 0.14611 0.81056 0.0
C1248 C 0.03041 0.14753 0.85488 0.0
C1249 C 0.99814 0.16569 0.80173 0.0
C1250 C 0.97755 0.1651 0.76032 0.0
C1251 C 0.96067 0.14752 0.76654 0.0
C1252 C 0.94046 0.14808 0.73083 0.0
C1253 C 0.93667 0.16636 0.68945 0.0
C1254 C 0.95323 0.18396 0.68303 0.0
C1255 C 0.97361 0.18334 0.71811 0.0
H1256 H 0.92092 0.16685 0.66223 0.0
H1257 H 0.09923 0.1656 0.06916 0.0
H1258 H 0.27499 1.00205 0.02647 0.0
H1259 H 0.30803 0.99685 0.95467 0.0
H1260 H 0.30137 0.06778 0.89445 0.0
H1261 H 0.26885 0.073 0.96691 0.0
H1262 H 0.32014 1.00123 0.8296 0.0
H1263 H 0.35463 0.09284 0.8931 0.0
H1264 H 0.35102 0.12084 0.97945 0.0
H1265 H 0.33582 0.06533 0.10692 0.0
H1266 H 0.33987 0.03697 0.02174 0.0
H1267 H 0.42209 0.02275 0.64081 0.0
H1268 H 0.38369 0.02435 0.69092 0.0
H1269 H 0.41649 0.03039 0.87072 0.0
H1270 H 0.45443 0.03005 0.8208 0.0
H1271 H 0.38352 0.0571 0.87477 0.0
H1272 H 0.38942 0.97898 0.80465 0.0
H1273 H 0.39456 0.94743 0.72859 0.0
H1274 H 0.33268 0.96826 0.63369 0.0
H1275 H 0.32728 1.00011 0.70854 0.0
C1276 C 0.28008 0.01622 0.99614 0.0
C1277 C 0.26908 0.03783 1.00167 0.0
C1278 C 0.29905 0.01329 0.95519 0.0
C1279 C 0.30755 0.03198 0.91928 0.0
C1280 C 0.29543 0.05309 0.92177 0.0
C1281 C 0.27663 0.05602 0.96281 0.0
C1282 C 0.33043 0.03048 0.88522 0.0
C1283 C 0.33399 0.0135 0.83916 0.0
C1284 C 0.34891 0.04596 0.89874 0.0
C1285 C 0.3473 0.06283 0.95079 0.0
C1286 C 0.35068 0.08661 0.93963 0.0
C1287 C 0.34856 0.10253 0.98839 0.0
C1288 C 0.34313 0.09487 0.04857 0.0
C1289 C 0.33998 0.07124 0.06026 0.0
C1290 C 0.34221 0.05524 0.01176 0.0
C1291 C 0.42106 0.02445 0.69101 0.0
C1292 C 0.44149 0.02639 0.72653 0.0
C1293 C 0.39901 0.02523 0.71989 0.0
C1294 C 0.3968 0.02728 0.7853 0.0
C1295 C 0.41732 0.02901 0.82041 0.0
C1296 C 0.4392 0.02875 0.7916 0.0
C1297 C 0.37347 0.02794 0.81797 0.0
C1298 C 0.36976 0.04484 0.86429 0.0
C1299 C 0.35527 0.01179 0.80608 0.0
C1300 C 0.35823 0.99232 0.76155 0.0
C1301 C 0.37703 0.97701 0.76719 0.0
C1302 C 0.37998 0.95903 0.72431 0.0
C1303 C 0.36407 0.95595 0.67608 0.0
C1304 C 0.34509 0.97076 0.67083 0.0
C1305 C 0.34209 0.98882 0.71343 0.0
H1306 H 0.36639 0.942 0.64299 0.0
H1307 H 0.34139 0.10723 0.08618 0.0
H1308 H 0.45803 0.29617 0.02682 0.0
H1309 H 0.46164 0.32806 0.95161 0.0
H1310 H 0.53582 0.32831 0.97652 0.0
H1311 H 0.53209 0.29633 0.05173 0.0
H1312 H 0.51989 0.37079 0.98979 0.0
H1313 H 0.51049 0.31248 0.83597 0.0
H1314 H 0.49313 0.27941 0.78008 0.0
H1315 H 0.43089 0.31836 0.75045 0.0
H1316 H 0.44775 0.35158 0.80693 0.0
H1317 H 0.54454 0.45685 0.7623 0.0
H1318 H 0.54175 0.42121 0.82245 0.0
H1319 H 0.46783 0.41916 0.7924 0.0
H1320 H 0.47085 0.45431 0.72832 0.0
H1321 H 0.48417 0.37733 0.78076 0.0
H1322 H 0.49536 0.43604 0.93933 0.0
H1323 H 0.51582 0.46903 0.98805 0.0
H1324 H 0.57777 0.42854 1.002 0.0
H1325 H 0.55779 0.39532 0.95333 0.0
C1326 C 0.47518 0.30241 0.01424 0.0
C1327 C 0.49483 0.29324 0.04394 0.0
C1328 C 0.47725 0.32082 0.97143 0.0
C1329 C 0.49904 0.3308 0.9577 0.0
C1330 C 0.51879 0.32105 0.98583 0.0
C1331 C 0.51671 0.30251 0.02827 0.0
C1332 C 0.50098 0.3525 0.91864 0.0
C1333 C 0.5123 0.37202 0.94372 0.0
C1334 C 0.49078 0.3546 0.85877 0.0
C1335 C 0.48028 0.33442 0.8265 0.0
C1336 C 0.49298 0.31389 0.81829 0.0
C1337 C 0.48326 0.29515 0.78629 0.0
C1338 C 0.46089 0.29675 0.76192 0.0
C1339 C 0.4482 0.31712 0.76948 0.0
C1340 C 0.45783 0.33591 0.80148 0.0
C1341 C 0.5276 0.44896 0.76847 0.0
C1342 C 0.50779 0.45897 0.74134 0.0
C1343 C 0.52599 0.42857 0.80385 0.0
C1344 C 0.50446 0.41758 0.81423 0.0
C1345 C 0.48466 0.4273 0.78624 0.0
C1346 C 0.48633 0.44764 0.75002 0.0
C1347 C 0.50286 0.39561 0.8522 0.0
C1348 C 0.49162 0.37607 0.82695 0.0
C1349 C 0.51332 0.3934 0.91171 0.0
C1350 C 0.52511 0.41323 0.94238 0.0
C1351 C 0.51336 0.43419 0.95267 0.0
C1352 C 0.52486 0.45293 0.9802 0.0
C1353 C 0.54807 0.45091 0.99779 0.0
C1354 C 0.5598 0.43009 0.9883 0.0
C1355 C 0.54838 0.41127 0.96094 0.0
H1356 H 0.55695 0.46547 0.0189 0.0
H1357 H 0.45342 0.28224 0.73703 0.0
H1358 H 0.26624 0.49888 0.93658 0.0
H1359 H 0.23409 0.50904 0.86677 0.0
H1360 H 0.18803 0.51322 0.02551 0.0
H1361 H 0.22024 0.5044 0.09455 0.0
H1362 H 0.17242 0.54111 0.95081 0.0
H1363 H 0.2055 0.48827 0.73767 0.0
H1364 H 0.23132 0.45532 0.71522 0.0
H1365 H 0.2222 0.43034 0.90247 0.0
H1366 H 0.19612 0.46295 0.92565 0.0
H1367 H 0.08387 0.55443 0.72656 0.0
H1368 H 0.12102 0.55418 0.78018 0.0
H1369 H 0.12119 0.47939 0.77433 0.0
H1370 H 0.08624 0.48013 0.71087 0.0
H1371 H 0.16086 0.48846 0.77128 0.0
H1372 H 0.10464 0.52102 0.91362 0.0
H1373 H 0.07494 0.54884 0.9492 0.0
H1374 H 0.12349 0.60487 0.92787 0.0
H1375 H 0.15342 0.57755 0.8917 0.0
C1376 C 0.24946 0.50295 0.95652 0.0
C1377 C 0.24588 0.50107 0.0212 0.0
C1378 C 0.23087 0.50831 0.91649 0.0
C1379 C 0.20813 0.51127 0.94009 0.0
C1380 C 0.20512 0.51104 1.00522 0.0
C1381 C 0.22367 0.50607 0.04502 0.0
C1382 C 0.18722 0.51311 0.89799 0.0
C1383 C 0.16997 0.52956 0.91152 0.0
C1384 C 0.18334 0.49783 0.84716 0.0
C1385 C 0.19909 0.47821 0.83359 0.0
C1386 C 0.20899 0.47572 0.77398 0.0
C1387 C 0.22367 0.4571 0.76113 0.0
C1388 C 0.22848 0.4408 0.80746 0.0
C1389 C 0.21854 0.44302 0.86667 0.0
C1390 C 0.20381 0.46156 0.87968 0.0
C1391 C 0.09193 0.53791 0.73615 0.0
C1392 C 0.08122 0.51711 0.7171 0.0
C1393 C 0.11315 0.53774 0.76825 0.0
C1394 C 0.12383 0.51672 0.78531 0.0
C1395 C 0.11355 0.49601 0.76363 0.0
C1396 C 0.09301 0.49631 0.72856 0.0
C1397 C 0.14562 0.51617 0.82476 0.0
C1398 C 0.16315 0.50003 0.81057 0.0
C1399 C 0.14917 0.53092 0.87709 0.0
C1400 C 0.1312 0.54727 0.8994 0.0
C1401 C 0.10894 0.53929 0.9163 0.0
C1402 C 0.09207 0.55494 0.93652 0.0
C1403 C 0.0973 0.57855 0.94053 0.0
C1404 C 0.11945 0.58658 0.92461 0.0
C1405 C 0.13638 0.57103 0.90433 0.0
H1406 H 0.08419 0.59062 0.95611 0.0
H1407 H 0.23986 0.42641 0.79742 0.0
H1408 H 0.96009 0.78373 0.30547 0.0
H1409 H 0.9666 0.81413 0.38396 0.0
H1410 H 0.02177 0.84273 0.27068 0.0
H1411 H 0.01554 0.81218 0.19347 0.0
H1412 H 0.03344 0.84765 0.38651 0.0
H1413 H 0.96512 0.86442 0.26998 0.0
H1414 H 0.92621 0.85729 0.22649 0.0
H1415 H 0.89791 0.85145 0.41139 0.0
H1416 H 0.93675 0.8582 0.45601 0.0
H1417 H 0.03619 0.9615 0.5165 0.0
H1418 H 0.03327 0.92753 0.44904 0.0
H1419 H 0.97502 0.90266 0.55766 0.0
H1420 H 0.9772 0.93752 0.62249 0.0
H1421 H 0.96539 0.89518 0.44536 0.0
H1422 H 0.03665 0.87209 0.55791 0.0
H1423 H 0.07619 0.87961 0.59768 0.0
H1424 H 0.09871 0.8994 0.41414 0.0
H1425 H 0.0594 0.89167 0.3734 0.0
C1426 C 0.97413 0.79603 0.29863 0.0
C1427 C 0.98758 0.7953 0.24387 0.0
C1428 C 0.97762 0.81369 0.34298 0.0
C1429 C 0.99443 0.83121 0.33308 0.0
C1430 C 0.00869 0.82961 0.2799 0.0
C1431 C 1.00522 0.812 0.23583 0.0
C1432 C 0.99656 0.85178 0.37592 0.0
C1433 C 0.01851 0.85805 0.39898 0.0
C1434 C 0.97724 0.8656 0.39296 0.0
C1435 C 0.95389 0.86152 0.36631 0.0
C1436 C 0.95063 0.86142 0.30136 0.0
C1437 C 0.92859 0.85748 0.27651 0.0
C1438 C 0.90961 0.85385 0.31615 0.0
C1439 C 0.91264 0.85421 0.38075 0.0
C1440 C 0.93466 0.85809 0.40585 0.0
C1441 C 0.02297 0.94862 0.52641 0.0
C1442 C 0.00704 0.95211 0.57524 0.0
C1443 C 0.02139 0.92896 0.48799 0.0
C1444 C 1.00431 0.9118 0.49866 0.0
C1445 C 0.98847 0.91534 0.54798 0.0
C1446 C 0.98974 0.93528 0.58541 0.0
C1447 C 1.00221 0.89079 0.45715 0.0
C1448 C 0.98026 0.88458 0.43368 0.0
C1449 C 0.02155 0.87717 0.43908 0.0
C1450 C 0.04509 0.88177 0.46315 0.0
C1451 C 0.05002 0.87833 0.52645 0.0
C1452 C 0.07236 0.88253 0.54903 0.0
C1453 C 0.08985 0.89028 0.50867 0.0
C1454 C 0.08511 0.89353 0.44543 0.0
C1455 C 0.06285 0.88912 0.42252 0.0
H1456 H 0.10712 0.89359 0.52631 0.0
H1457 H 0.89256 0.85081 0.29682 0.0
H1458 H 0.74729 0.02752 0.30311 0.0
H1459 H 0.71727 0.03736 0.38023 0.0
H1460 H 0.70816 0.96475 0.42223 0.0
H1461 H 0.73855 0.9552 0.34763 0.0
H1462 H 0.67454 0.02947 0.37599 0.0
H1463 H 0.68138 0.95362 0.55565 0.0
H1464 H 0.7118 0.93189 0.6107 0.0
H1465 H 0.75926 0.9888 0.58615 0.0
H1466 H 0.72905 0.01101 0.53173 0.0
H1467 H 0.56448 0.00892 0.49895 0.0
H1468 H 0.60284 1.00605 0.45333 0.0
H1469 H 0.63353 0.01967 0.63276 0.0
H1470 H 0.5947 0.02003 0.68031 0.0
H1471 H 0.65974 0.99144 0.57986 0.0
H1472 H 0.62856 0.06193 0.50491 0.0
H1473 H 0.59906 0.0872 0.45767 0.0
H1474 H 0.60389 0.04926 0.28616 0.0
H1475 H 0.63316 0.02351 0.33252 0.0
C1476 C 0.73971 0.01382 0.33127 0.0
C1477 C 0.74569 0.99061 0.32001 0.0
C1478 C 0.72217 0.01939 0.37468 0.0
C1479 C 0.71019 1.00189 0.40794 0.0
C1480 C 0.71725 0.97881 0.39909 0.0
C1481 C 0.73478 0.9733 0.3562 0.0
C1482 C 0.68891 1.00723 0.44654 0.0
C1483 C 0.67151 0.0213 0.42087 0.0
C1484 C 0.68474 0.99711 0.506 0.0
C1485 C 0.70297 0.98392 0.53917 0.0
C1486 C 0.69827 0.96156 0.56227 0.0
C1487 C 0.71549 0.94914 0.59331 0.0
C1488 C 0.73746 0.95893 0.60178 0.0
C1489 C 0.74225 0.9812 0.57937 0.0
C1490 C 0.72509 0.9937 0.54835 0.0
C1491 C 0.5793 0.01102 0.52932 0.0
C1492 C 0.57624 0.01487 0.59369 0.0
C1493 C 0.60145 0.0098 0.50263 0.0
C1494 C 0.62147 0.01346 0.53861 0.0
C1495 C 0.61855 0.01706 0.60324 0.0
C1496 C 0.59624 0.01757 0.63047 0.0
C1497 C 0.64517 0.0131 0.5084 0.0
C1498 C 0.66295 0.99991 0.53549 0.0
C1499 C 0.65001 0.02471 0.45125 0.0
C1500 C 0.63301 0.0407 0.42236 0.0
C1501 C 0.62332 0.05894 0.45714 0.0
C1502 C 0.6066 0.07333 0.43056 0.0
C1503 C 0.59959 0.06982 0.36904 0.0
C1504 C 0.60935 0.05197 0.33382 0.0
C1505 C 0.62603 0.03749 0.36019 0.0
H1506 H 0.58662 0.08096 0.34868 0.0
H1507 H 0.75077 0.94929 0.62579 0.0
H1508 H 0.50008 0.74199 0.25482 0.0
H1509 H 0.49733 0.71147 0.3343 0.0
H1510 H 0.56723 0.72693 0.39234 0.0
H1511 H 0.56995 0.75728 0.31228 0.0
H1512 H 0.56317 0.68265 0.36871 0.0
H1513 H 0.51777 0.73656 0.48211 0.0
H1514 H 0.48614 0.7637 0.50572 0.0
H1515 H 0.43614 0.70895 0.48424 0.0
H1516 H 0.46742 0.68151 0.45955 0.0
H1517 H 0.56229 0.58739 0.58228 0.0
H1518 H 0.56576 0.62589 0.53496 0.0
H1519 H 0.49255 0.62488 0.49348 0.0
H1520 H 0.48884 0.58739 0.54443 0.0
H1521 H 0.50062 0.66518 0.521 0.0
H1522 H 0.54314 0.61737 0.3699 0.0
H1523 H 0.57342 0.5905 0.33413 0.0
H1524 H 0.62578 0.63286 0.42003 0.0
H1525 H 0.59572 0.66047 0.4543 0.0
C1526 C 0.51447 0.73953 0.2864 0.0
C1527 C 0.535 0.75252 0.27838 0.0
C1528 C 0.51296 0.72192 0.33175 0.0
C1529 C 0.53202 0.71673 0.3701 0.0
C1530 C 0.55219 0.73047 0.36383 0.0
C1531 C 0.55367 0.74809 0.31853 0.0
C1532 C 0.53193 0.6955 0.41128 0.0
C1533 C 0.54961 0.67913 0.40273 0.0
C1534 C 0.514 0.69028 0.45486 0.0
C1535 C 0.49507 0.70693 0.46867 0.0
C1536 C 0.50006 0.73029 0.48199 0.0
C1537 C 0.48216 0.74575 0.49563 0.0
C1538 C 0.45915 0.73806 0.49647 0.0
C1539 C 0.45398 0.71489 0.4836 0.0
C1540 C 0.47181 0.69937 0.46981 0.0
C1541 C 0.54697 0.59534 0.56278 0.0
C1542 C 0.52532 0.58403 0.56706 0.0
C1543 C 0.54898 0.61743 0.53494 0.0
C1544 C 0.52954 0.62857 0.50856 0.0
C1545 C 0.50796 0.61712 0.51305 0.0
C1546 C 0.50586 0.59539 0.54209 0.0
C1547 C 0.53134 0.65192 0.4763 0.0
C1548 C 0.51413 0.66878 0.48693 0.0
C1549 C 0.54936 0.65755 0.43353 0.0
C1550 C 0.56726 0.64069 0.41528 0.0
C1551 C 0.5611 0.62081 0.38149 0.0
C1552 C 0.57823 0.60552 0.36132 0.0
C1553 C 0.60152 0.6098 0.37555 0.0
C1554 C 0.60774 0.62953 0.40932 0.0
C1555 C 0.5907 0.64508 0.4287 0.0
H1556 H 0.6148 0.59792 0.36002 0.0
H1557 H 0.44532 0.75006 0.50713 0.0
H1558 H 0.78836 0.5815 0.30429 0.0
H1559 H 0.81908 0.57438 0.38061 0.0
H1560 H 0.81849 0.50188 0.33238 0.0
H1561 H 0.78732 0.50901 0.25703 0.0
H1562 H 0.82793 0.50692 0.45452 0.0
H1563 H 0.85419 0.54131 0.26488 0.0
H1564 H 0.85414 0.57126 0.18323 0.0
H1565 H 0.87922 0.62157 0.31414 0.0
H1566 H 0.87777 0.59233 0.39798 0.0
H1567 H 0.9439 0.4843 0.56869 0.0
H1568 H 0.90711 0.48703 0.51296 0.0
H1569 H 0.91055 0.56161 0.5249 0.0
H1570 H 0.94808 0.55885 0.57611 0.0
H1571 H 0.8991 0.55356 0.41792 0.0
H1572 H 0.85013 0.52083 0.60416 0.0
H1573 H 0.83734 0.49116 0.67991 0.0
H1574 H 0.85721 0.4374 0.55271 0.0
H1575 H 0.86804 0.46687 0.47405 0.0
C1576 C 0.79414 0.56389 0.31188 0.0
C1577 C 0.78507 0.54574 0.27553 0.0
C1578 C 0.81197 0.55986 0.35495 0.0
C1579 C 0.82164 0.53764 0.36168 0.0
C1580 C 0.81151 0.5192 0.3283 0.0
C1581 C 0.79351 0.52323 0.28549 0.0
C1582 C 0.84335 0.53402 0.39928 0.0
C1583 C 0.84353 0.51709 0.44627 0.0
C1584 C 0.86389 0.5472 0.38904 0.0
C1585 C 0.86559 0.56462 0.33807 0.0
C1586 C 0.85947 0.5588 0.27657 0.0
C1587 C 0.85968 0.57568 0.22983 0.0
C1588 C 0.86688 0.59825 0.24327 0.0
C1589 C 0.87366 0.60406 0.30375 0.0
C1590 C 0.87295 0.58738 0.35107 0.0
C1591 C 0.93664 0.50128 0.56006 0.0
C1592 C 0.94916 0.52134 0.5767 0.0
C1593 C 0.91523 0.50286 0.52871 0.0
C1594 C 0.9053 0.52457 0.51478 0.0
C1595 C 0.9175 0.54455 0.53404 0.0
C1596 C 0.93911 0.54298 0.56374 0.0
C1597 C 0.88359 0.52695 0.47558 0.0
C1598 C 0.88348 0.54357 0.4272 0.0
C1599 C 0.86314 0.51342 0.48428 0.0
C1600 C 0.86052 0.49601 0.53417 0.0
C1601 C 0.85206 0.50271 0.5928 0.0
C1602 C 0.84484 0.48594 0.63585 0.0
C1603 C 0.84687 0.46242 0.62164 0.0
C1604 C 0.8558 0.45562 0.56389 0.0
C1605 C 0.86219 0.47234 0.51977 0.0
H1606 H 0.84143 0.44948 0.65528 0.0
H1607 H 0.86718 0.61124 0.20684 0.0
loop_
_geom_bond_atom_site_label_1
_geom_bond_atom_site_label_2
_geom_bond_distance
_geom_bond_site_symmetry_2
_ccdc_geom_bond_type
H0 C3 0.931 . S
H1 C6 0.928 . S
H2 C8 0.930 . S
C3 H0 0.931 . S
C3 C4 1.413 . S
C3 C5 1.360 . S
C4 C3 1.413 . S
C4 C8 1.429 . S
C5 C3 1.360 . S
C5 C6 1.372 . S
C6 H1 0.928 . S
C6 C5 1.372 . S
C6 C7 1.404 . S
C7 C6 1.404 . S
C7 C8 1.391 . S
C8 H2 0.930 . S
C8 C4 1.429 . S
C8 C7 1.391 . S
H9 C12 0.931 . S
H10 C15 0.928 . S
H11 C17 0.930 . S
C12 H9 0.931 . S
C12 C13 1.413 . S
C12 C14 1.360 . S
C13 C12 1.413 . S
C13 C17 1.429 . S
C14 C12 1.360 . S
C14 C15 1.372 . S
C15 H10 0.928 . S
C15 C14 1.372 . S
C15 C16 1.404 . S
C16 C15 1.404 . S
C16 C17 1.391 . S
C17 H11 0.930 . S
C17 C13 1.429 . S
C17 C16 1.391 . S
H18 C21 0.931 . S
H19 C24 0.928 . S
H20 C26 0.930 . S
C21 H18 0.931 . S
C21 C22 1.413 . S
C21 C23 1.360 . S
C22 C21 1.413 . S
C22 C26 1.429 . S
C23 C21 1.360 . S
C23 C24 1.372 . S
C24 H19 0.928 . S
C24 C23 1.372 . S
C24 C25 1.404 . S
C25 C24 1.404 . S
C25 C26 1.391 . S
C26 H20 0.930 . S
C26 C22 1.429 . S
C26 C25 1.391 . S
H27 C30 0.931 . S
H28 C33 0.928 . S
H29 C35 0.930 . S
C30 H27 0.931 . S
C30 C31 1.413 . S
C30 C32 1.360 . S
C31 C30 1.413 . S
C31 C35 1.429 . S
C32 C30 1.360 . S
C32 C33 1.372 . S
C33 H28 0.928 . S
C33 C32 1.372 . S
C33 C34 1.404 . S
C34 C33 1.404 . S
C34 C35 1.391 . S
C35 H29 0.930 . S
C35 C31 1.429 . S
C35 C34 1.391 . S
H36 C39 0.931 . S
H37 C42 0.928 . S
H38 C44 0.930 . S
C39 H36 0.931 . S
C39 C40 1.413 1_554 S
C39 C41 1.360 . S
C40 C39 1.413 1_556 S
C40 C44 1.429 . S
C41 C39 1.360 . S
C41 C42 1.372 . S
C42 H37 0.928 . S
C42 C41 1.372 . S
C42 C43 1.404 . S
C43 C42 1.404 . S
C43 C44 1.391 1_554 S
C44 H38 0.930 . S
C44 C40 1.429 . S
C44 C43 1.391 1_556 S
H45 C48 0.931 . S
H46 C51 0.928 . S
H47 C53 0.930 . S
C48 H45 0.931 . S
C48 C49 1.413 1_554 S
C48 C50 1.360 . S
C49 C48 1.413 1_556 S
C49 C53 1.429 . S
C50 C48 1.360 . S
C50 C51 1.372 . S
C51 H46 0.928 . S
C51 C50 1.372 . S
C51 C52 1.404 . S
C52 C51 1.404 . S
C52 C53 1.391 1_554 S
C53 H47 0.930 . S
C53 C49 1.429 . S
C53 C52 1.391 1_556 S
H54 C57 0.931 . S
H55 C60 0.928 . S
H56 C62 0.930 . S
C57 H54 0.931 . S
C57 C58 1.413 1_554 S
C57 C59 1.360 . S
C58 C57 1.413 1_556 S
C58 C62 1.429 . S
C59 C57 1.360 . S
C59 C60 1.372 . S
C60 H55 0.928 . S
C60 C59 1.372 . S
C60 C61 1.404 . S
C61 C60 1.404 . S
C61 C62 1.391 1_554 S
C62 H56 0.930 . S
C62 C58 1.429 . S
C62 C61 1.391 1_556 S
H63 C66 0.931 . S
H64 C69 0.928 . S
H65 C71 0.930 . S
C66 H63 0.931 . S
C66 C67 1.413 . S
C66 C68 1.360 1_554 S
C67 C66 1.413 . S
C67 C71 1.429 . S
C68 C66 1.360 1_556 S
C68 C69 1.372 . S
C69 H64 0.928 . S
C69 C68 1.372 . S
C69 C70 1.404 1_556 S
C70 C69 1.404 1_554 S
C70 C71 1.391 . S
C71 H65 0.930 . S
C71 C67 1.429 . S
C71 C70 1.391 . S
Eu72 N101 2.600 . S
Eu72 N107 2.562 . S
Eu72 O116 2.462 . S
Eu72 O117 2.373 1_545 S
Eu72 O119 2.432 . S
Eu72 O120 2.291 1_655 S
Eu72 O124 2.335 1_655 S
Eu72 O127 2.372 . S
Eu72 C136 2.787 . S
C73 N74 1.365 . S
C73 C76 1.405 . S
C73 C80 1.448 . S
N74 C73 1.365 . S
N74 C77 1.315 1_545 S
N74 Eu83 2.600 1_545 S
C75 C77 1.387 1_545 S
C75 C78 1.367 . S
C75 H95 0.931 . S
C76 C73 1.405 . S
C76 C78 1.403 . S
C76 C82 1.439 . S
C77 N74 1.315 1_565 S
C77 C75 1.387 1_565 S
C77 H88 0.945 . S
C78 C75 1.367 . S
C78 C76 1.403 . S
C78 H99 0.929 . S
C79 C80 1.430 . S
C79 C81 1.387 . S
C79 C85 1.404 . S
C80 C73 1.448 . S
C80 C79 1.430 . S
C80 N84 1.351 . S
C81 C79 1.387 . S
C81 C82 1.374 . S
C81 H96 0.931 . S
C82 C76 1.439 . S
C82 C81 1.374 . S
C82 H97 0.931 . S
Eu83 N74 2.600 1_565 S
Eu83 N84 2.562 1_565 S
Eu83 O118 2.335 . S
Eu83 O121 2.372 . S
Eu83 O122 2.462 . S
Eu83 O123 2.373 1_565 S
Eu83 O125 2.432 . S
Eu83 O126 2.291 1_465 S
Eu83 C147 2.787 . S
N84 C80 1.351 . S
N84 Eu83 2.562 1_545 S
N84 C86 1.325 . S
C85 C79 1.404 . S
C85 C87 1.366 . S
C85 H93 0.930 . S
C86 N84 1.325 . S
C86 C87 1.416 . S
C86 H92 0.902 1_455 S
C87 C85 1.366 . S
C87 C86 1.416 . S
C87 H89 0.930 . S
H88 C77 0.945 . S
H89 C87 0.930 . S
H90 C105 0.930 . S
H91 C112 0.930 1_455 S
H92 C86 0.902 1_655 S
H93 C85 0.930 . S
H94 C108 0.929 1_455 S
H95 C75 0.931 . S
H96 C81 0.931 . S
H97 C82 0.931 . S
H98 C103 0.931 . S
H99 C78 0.929 . S
H100 C111 0.930 . S
N101 Eu72 2.600 . S
N101 C102 1.365 . S
N101 C105 1.319 . S
C102 N101 1.365 . S
C102 C104 1.405 1_545 S
C102 C110 1.448 . S
C103 H98 0.931 . S
C103 C105 1.397 . S
C103 C106 1.379 . S
C104 C102 1.405 1_565 S
C104 C106 1.400 1_565 S
C104 C137 1.439 . S
C105 H90 0.930 . S
C105 N101 1.319 . S
C105 C103 1.397 . S
C106 C103 1.379 . S
C106 C104 1.400 1_545 S
C106 H113 0.921 1_545 S
N107 Eu72 2.562 . S
N107 C108 1.325 . S
N107 C110 1.351 . S
C108 H94 0.929 1_655 S
C108 N107 1.325 . S
C108 C112 1.416 1_545 S
C109 C110 1.430 1_565 S
C109 C111 1.404 . S
C109 C138 1.387 . S
C110 C102 1.448 . S
C110 N107 1.351 . S
C110 C109 1.430 1_545 S
C111 H100 0.930 . S
C111 C109 1.404 . S
C111 C112 1.366 . S
C112 H91 0.930 1_655 S
C112 C108 1.416 1_565 S
C112 C111 1.366 . S
H113 C106 0.921 1_565 S
H114 C137 0.931 . S
H115 C138 0.931 . S
O116 Eu72 2.462 . S
O116 C136 1.252 . S
O117 Eu72 2.373 1_565 S
O117 C128 1.249 . S
O118 Eu83 2.335 . S
O118 C128 1.264 1_455 S
O119 Eu72 2.432 . S
O119 C136 1.268 . S
O120 Eu72 2.291 1_455 S
O120 C135 1.255 . S
O121 Eu83 2.372 . S
O121 C135 1.257 1_565 S
O122 Eu83 2.462 . S
O122 C147 1.252 . S
O123 Eu83 2.373 1_545 S
O123 C139 1.249 . S
O124 Eu72 2.335 1_455 S
O124 C139 1.264 . S
O125 Eu83 2.432 . S
O125 C147 1.268 . S
O126 Eu83 2.291 1_645 S
O126 C146 1.255 . S
O127 Eu72 2.372 . S
O127 C146 1.257 . S
C128 O117 1.249 . S
C128 O118 1.264 1_655 S
C129 C132 1.382 . S
C129 C134 1.390 . S
C129 C136 1.506 . S
C130 C131 1.398 . S
C130 C134 1.392 . S
C131 C130 1.398 . S
C131 C133 1.372 . S
C131 H148 0.931 . S
C132 C129 1.382 . S
C132 C133 1.390 . S
C132 H149 0.931 . S
C133 C131 1.372 . S
C133 C132 1.390 . S
C133 H150 0.929 . S
C134 C129 1.390 . S
C134 C130 1.392 . S
C134 H151 0.930 1_655 S
C135 O120 1.255 . S
C135 O121 1.257 1_545 S
C136 Eu72 2.787 . S
C136 O116 1.252 . S
C136 O119 1.268 . S
C136 C129 1.506 . S
C137 C104 1.439 . S
C137 H114 0.931 . S
C137 C138 1.374 . S
C138 C109 1.387 . S
C138 H115 0.931 . S
C138 C137 1.374 . S
C139 O123 1.249 . S
C139 O124 1.264 . S
C140 C143 1.382 . S
C140 C144 1.390 . S
C140 C147 1.506 . S
C141 C142 1.398 . S
C141 C144 1.392 . S
C142 C141 1.398 . S
C142 C145 1.372 . S
C142 H152 0.931 . S
C143 C140 1.382 . S
C143 C145 1.390 . S
C143 H153 0.931 . S
C144 C140 1.390 . S
C144 C141 1.392 . S
C144 H154 0.930 . S
C145 C142 1.372 . S
C145 C143 1.390 . S
C145 H155 0.929 . S
C146 O126 1.255 . S
C146 O127 1.257 . S
C147 Eu83 2.787 . S
C147 O122 1.252 . S
C147 O125 1.268 . S
C147 C140 1.506 . S
H148 C131 0.931 . S
H149 C132 0.931 . S
H150 C133 0.929 . S
H151 C134 0.930 1_455 S
H152 C142 0.931 . S
H153 C143 0.931 . S
H154 C144 0.930 . S
H155 C145 0.929 . S
Eu156 N185 2.600 . S
Eu156 N191 2.562 . S
Eu156 O200 2.462 . S
Eu156 O201 2.373 . S
Eu156 O203 2.432 . S
Eu156 O204 2.291 . S
Eu156 O208 2.335 1_545 S
Eu156 O211 2.372 . S
Eu156 C220 2.787 . S
C157 N158 1.365 . S
C157 C160 1.405 . S
C157 C164 1.448 . S
N158 C157 1.365 . S
N158 C161 1.319 . S
N158 Eu167 2.600 . S
C159 C161 1.397 . S
C159 C162 1.367 . S
C159 H179 0.931 . S
C160 C157 1.405 . S
C160 C162 1.403 . S
C160 C166 1.439 . S
C161 N158 1.319 . S
C161 C159 1.397 . S
C161 H172 0.930 . S
C162 C159 1.367 . S
C162 C160 1.403 . S
C162 H183 0.929 . S
C163 C164 1.430 . S
C163 C165 1.387 . S
C163 C169 1.404 . S
C164 C157 1.448 . S
C164 C163 1.430 . S
C164 N168 1.351 . S
C165 C163 1.387 . S
C165 C166 1.374 . S
C165 H180 0.931 . S
C166 C160 1.439 . S
C166 C165 1.374 . S
C166 H181 0.931 . S
Eu167 N158 2.600 . S
Eu167 N168 2.562 . S
Eu167 O202 2.335 1_565 S
Eu167 O205 2.372 . S
Eu167 O206 2.462 . S
Eu167 O207 2.373 . S
Eu167 O209 2.432 . S
Eu167 O210 2.291 1_565 S
Eu167 C231 2.787 . S
N168 C164 1.351 . S
N168 Eu167 2.562 . S
N168 C170 1.325 . S
C169 C163 1.404 . S
C169 C171 1.366 . S
C169 H177 0.930 . S
C170 N168 1.325 . S
C170 C171 1.416 . S
C170 H176 0.929 . S
C171 C169 1.366 . S
C171 C170 1.416 . S
C171 H173 0.930 . S
H172 C161 0.930 . S
H173 C171 0.930 . S
H174 C189 0.930 . S
H175 C196 0.930 . S
H176 C170 0.929 . S
H177 C169 0.930 . S
H178 C192 0.929 . S
H179 C159 0.931 . S
H180 C165 0.931 . S
H181 C166 0.931 . S
H182 C187 0.931 . S
H183 C162 0.929 . S
H184 C195 0.930 . S
N185 Eu156 2.600 . S
N185 C186 1.365 . S
N185 C189 1.319 . S
C186 N185 1.365 . S
C186 C188 1.405 . S
C186 C194 1.448 . S
C187 H182 0.931 . S
C187 C189 1.397 . S
C187 C190 1.367 . S
C188 C186 1.405 . S
C188 C190 1.403 . S
C188 C221 1.439 . S
C189 H174 0.930 . S
C189 N185 1.319 . S
C189 C187 1.397 . S
C190 C187 1.367 . S
C190 C188 1.403 . S
C190 H197 0.929 . S
N191 Eu156 2.562 . S
N191 C192 1.325 . S
N191 C194 1.351 . S
C192 H178 0.929 . S
C192 N191 1.325 . S
C192 C196 1.416 . S
C193 C194 1.430 . S
C193 C195 1.404 . S
C193 C222 1.387 . S
C194 C186 1.448 . S
C194 N191 1.351 . S
C194 C193 1.430 . S
C195 H184 0.930 . S
C195 C193 1.404 . S
C195 C196 1.366 . S
C196 H175 0.930 . S
C196 C192 1.416 . S
C196 C195 1.366 . S
H197 C190 0.929 . S
H198 C221 0.931 . S
H199 C222 0.931 . S
O200 Eu156 2.462 . S
O200 C220 1.252 . S
O201 Eu156 2.373 . S
O201 C212 1.249 . S
O202 Eu167 2.335 1_545 S
O202 C212 1.264 . S
O203 Eu156 2.432 . S
O203 C220 1.268 . S
O204 Eu156 2.291 . S
O204 C219 1.251 1_545 S
O205 Eu167 2.372 . S
O205 C219 1.260 . S
O206 Eu167 2.462 . S
O206 C231 1.252 . S
O207 Eu167 2.373 . S
O207 C223 1.249 . S
O208 Eu156 2.335 1_565 S
O208 C223 1.264 . S
O209 Eu167 2.432 . S
O209 C231 1.268 . S
O210 Eu167 2.291 1_545 S
O210 C230 1.255 . S
O211 Eu156 2.372 . S
O211 C230 1.257 . S
C212 O201 1.249 . S
C212 O202 1.264 . S
C213 C216 1.382 . S
C213 C218 1.390 . S
C213 C220 1.506 . S
C214 C215 1.398 . S
C214 C218 1.392 . S
C215 C214 1.398 . S
C215 C217 1.372 . S
C215 H232 0.931 . S
C216 C213 1.382 . S
C216 C217 1.390 . S
C216 H233 0.931 . S
C217 C215 1.372 . S
C217 C216 1.390 . S
C217 H234 0.929 . S
C218 C213 1.390 . S
C218 C214 1.392 . S
C218 H235 0.930 . S
C219 O204 1.251 1_565 S
C219 O205 1.260 . S
C220 Eu156 2.787 . S
C220 O200 1.252 . S
C220 O203 1.268 . S
C220 C213 1.506 . S
C221 C188 1.439 . S
C221 H198 0.931 . S
C221 C222 1.374 . S
C222 C193 1.387 . S
C222 H199 0.931 . S
C222 C221 1.374 . S
C223 O207 1.249 . S
C223 O208 1.264 . S
C224 C227 1.382 . S
C224 C228 1.390 1_565 S
C224 C231 1.506 . S
C225 C226 1.398 1_545 S
C225 C228 1.392 . S
C226 C225 1.398 1_565 S
C226 C229 1.372 . S
C226 H236 0.931 . S
C227 C224 1.382 . S
C227 C229 1.390 . S
C227 H237 0.931 . S
C228 C224 1.390 1_545 S
C228 C225 1.392 . S
C228 H238 0.930 . S
C229 C226 1.372 . S
C229 C227 1.390 . S
C229 H239 0.929 . S
C230 O210 1.255 . S
C230 O211 1.257 . S
C231 Eu167 2.787 . S
C231 O206 1.252 . S
C231 O209 1.268 . S
C231 C224 1.506 . S
H232 C215 0.931 . S
H233 C216 0.931 . S
H234 C217 0.929 . S
H235 C218 0.930 . S
H236 C226 0.931 . S
H237 C227 0.931 . S
H238 C228 0.930 . S
H239 C229 0.929 . S
Eu240 N269 2.600 . S
Eu240 N275 2.562 . S
Eu240 O284 2.462 . S
Eu240 O285 2.373 . S
Eu240 O287 2.432 . S
Eu240 O288 2.291 . S
Eu240 O292 2.335 . S
Eu240 O295 2.372 . S
Eu240 C304 2.787 . S
C241 N242 1.365 . S
C241 C244 1.405 . S
C241 C248 1.448 . S
N242 C241 1.365 . S
N242 C245 1.319 . S
N242 Eu251 2.600 . S
C243 C245 1.397 . S
C243 C246 1.367 . S
C243 H263 0.931 . S
C244 C241 1.405 . S
C244 C246 1.403 . S
C244 C250 1.439 . S
C245 N242 1.319 . S
C245 C243 1.397 . S
C245 H256 0.930 . S
C246 C243 1.367 . S
C246 C244 1.403 . S
C246 H267 0.929 . S
C247 C248 1.430 . S
C247 C249 1.387 . S
C247 C253 1.404 . S
C248 C241 1.448 . S
C248 C247 1.430 . S
C248 N252 1.351 . S
C249 C247 1.387 . S
C249 C250 1.374 . S
C249 H264 0.931 . S
C250 C244 1.439 . S
C250 C249 1.374 . S
C250 H265 0.931 . S
Eu251 N242 2.600 . S
Eu251 N252 2.562 . S
Eu251 O286 2.335 . S
Eu251 O289 2.372 . S
Eu251 O290 2.462 . S
Eu251 O291 2.373 . S
Eu251 O293 2.432 . S
Eu251 O294 2.291 . S
Eu251 C315 2.787 . S
N252 C248 1.351 . S
N252 Eu251 2.562 . S
N252 C254 1.325 . S
C253 C247 1.404 . S
C253 C255 1.366 . S
C253 H261 0.930 . S
C254 N252 1.325 . S
C254 C255 1.416 . S
C254 H260 0.929 . S
C255 C253 1.366 . S
C255 C254 1.416 . S
C255 H257 0.930 . S
H256 C245 0.930 . S
H257 C255 0.930 . S
H258 C273 0.930 . S
H259 C280 0.930 . S
H260 C254 0.929 . S
H261 C253 0.930 . S
H262 C276 0.929 . S
H263 C243 0.931 . S
H264 C249 0.931 . S
H265 C250 0.931 . S
H266 C271 0.931 . S
H267 C246 0.929 . S
H268 C279 0.930 . S
N269 Eu240 2.600 . S
N269 C270 1.365 . S
N269 C273 1.319 . S
C270 N269 1.365 . S
C270 C272 1.405 . S
C270 C278 1.448 . S
C271 H266 0.931 . S
C271 C273 1.397 . S
C271 C274 1.367 . S
C272 C270 1.405 . S
C272 C274 1.403 . S
C272 C305 1.439 . S
C273 H258 0.930 . S
C273 N269 1.319 . S
C273 C271 1.397 . S
C274 C271 1.367 . S
C274 C272 1.403 . S
C274 H281 0.929 . S
N275 Eu240 2.562 . S
N275 C276 1.325 . S
N275 C278 1.351 . S
C276 H262 0.929 . S
C276 N275 1.325 . S
C276 C280 1.416 . S
C277 C278 1.430 . S
C277 C279 1.404 . S
C277 C306 1.387 . S
C278 C270 1.448 . S
C278 N275 1.351 . S
C278 C277 1.430 . S
C279 H268 0.930 . S
C279 C277 1.404 . S
C279 C280 1.366 . S
C280 H259 0.930 . S
C280 C276 1.416 . S
C280 C279 1.366 . S
H281 C274 0.929 . S
H282 C305 0.931 . S
H283 C306 0.931 . S
O284 Eu240 2.462 . S
O284 C304 1.252 . S
O285 Eu240 2.373 . S
O285 C296 1.249 . S
O286 Eu251 2.335 . S
O286 C296 1.264 . S
O287 Eu240 2.432 . S
O287 C304 1.268 . S
O288 Eu240 2.291 . S
O288 C303 1.255 . S
O289 Eu251 2.372 . S
O289 C303 1.257 . S
O290 Eu251 2.462 . S
O290 C315 1.252 . S
O291 Eu251 2.373 . S
O291 C307 1.249 . S
O292 Eu240 2.335 . S
O292 C307 1.264 . S
O293 Eu251 2.432 . S
O293 C315 1.268 . S
O294 Eu251 2.291 . S
O294 C314 1.255 . S
O295 Eu240 2.372 . S
O295 C314 1.257 . S
C296 O285 1.249 . S
C296 O286 1.264 . S
C297 C300 1.382 . S
C297 C302 1.390 . S
C297 C304 1.506 . S
C298 C299 1.398 . S
C298 C302 1.392 . S
C299 C298 1.398 . S
C299 C301 1.372 . S
C299 H316 0.931 . S
C300 C297 1.382 . S
C300 C301 1.390 . S
C300 H317 0.931 . S
C301 C299 1.372 . S
C301 C300 1.390 . S
C301 H318 0.929 . S
C302 C297 1.390 . S
C302 C298 1.392 . S
C302 H319 0.930 . S
C303 O288 1.255 . S
C303 O289 1.257 . S
C304 Eu240 2.787 . S
C304 O284 1.252 . S
C304 O287 1.268 . S
C304 C297 1.506 . S
C305 C272 1.439 . S
C305 H282 0.931 . S
C305 C306 1.374 . S
C306 C277 1.387 . S
C306 H283 0.931 . S
C306 C305 1.374 . S
C307 O291 1.249 . S
C307 O292 1.264 . S
C308 C311 1.382 . S
C308 C312 1.390 . S
C308 C315 1.506 . S
C309 C310 1.398 . S
C309 C312 1.392 . S
C310 C309 1.398 . S
C310 C313 1.372 . S
C310 H320 0.931 . S
C311 C308 1.382 . S
C311 C313 1.390 . S
C311 H321 0.931 . S
C312 C308 1.390 . S
C312 C309 1.392 . S
C312 H322 0.930 . S
C313 C310 1.372 . S
C313 C311 1.390 . S
C313 H323 0.929 . S
C314 O294 1.255 . S
C314 O295 1.257 . S
C315 Eu251 2.787 . S
C315 O290 1.252 . S
C315 O293 1.268 . S
C315 C308 1.506 . S
H316 C299 0.931 . S
H317 C300 0.931 . S
H318 C301 0.929 . S
H319 C302 0.930 . S
H320 C310 0.931 . S
H321 C311 0.931 . S
H322 C312 0.930 . S
H323 C313 0.929 . S
Eu324 N353 2.600 . S
Eu324 N359 2.562 . S
Eu324 O368 2.462 . S
Eu324 O369 2.373 1_455 S
Eu324 O371 2.432 . S
Eu324 O372 2.291 . S
Eu324 O376 2.335 . S
Eu324 O379 2.372 . S
Eu324 C388 2.787 . S
C325 N326 1.365 1_455 S
C325 C328 1.405 . S
C325 C332 1.448 . S
N326 C325 1.365 1_655 S
N326 C329 1.319 . S
N326 Eu335 2.600 . S
C327 C329 1.397 1_455 S
C327 C330 1.367 . S
C327 H347 0.932 . S
C328 C325 1.405 . S
C328 C330 1.403 . S
C328 C334 1.439 . S
C329 N326 1.319 . S
C329 C327 1.397 1_655 S
C329 H340 0.930 . S
C330 C327 1.367 . S
C330 C328 1.403 . S
C330 H351 0.929 . S
C331 C332 1.430 . S
C331 C333 1.387 . S
C331 C337 1.404 . S
C332 C325 1.448 . S
C332 C331 1.430 . S
C332 N336 1.351 . S
C333 C331 1.387 . S
C333 C334 1.374 . S
C333 H348 0.931 . S
C334 C328 1.439 . S
C334 C333 1.374 . S
C334 H349 0.931 . S
Eu335 N326 2.600 . S
Eu335 N336 2.562 1_655 S
Eu335 O370 2.335 . S
Eu335 O373 2.372 . S
Eu335 O374 2.462 . S
Eu335 O375 2.373 1_655 S
Eu335 O377 2.432 . S
Eu335 O378 2.304 . S
Eu335 C399 2.787 . S
N336 C332 1.351 . S
N336 Eu335 2.562 1_455 S
N336 C338 1.325 . S
C337 C331 1.404 . S
C337 C339 1.366 . S
C337 H345 0.930 . S
C338 N336 1.325 . S
C338 C339 1.416 . S
C338 H344 0.929 1_455 S
C339 C337 1.366 . S
C339 C338 1.416 . S
C339 H341 0.930 . S
H340 C329 0.930 . S
H341 C339 0.930 . S
H342 C357 0.930 . S
H343 C364 0.930 . S
H344 C338 0.929 1_655 S
H345 C337 0.930 . S
H346 C360 0.929 . S
H347 C327 0.932 . S
H348 C333 0.931 . S
H349 C334 0.931 . S
H350 C355 0.931 . S
H351 C330 0.929 . S
H352 C363 0.930 . S
N353 Eu324 2.600 . S
N353 C354 1.365 . S
N353 C357 1.319 . S
C354 N353 1.365 . S
C354 C356 1.405 1_455 S
C354 C362 1.450 . S
C355 H350 0.931 . S
C355 C357 1.397 . S
C355 C358 1.367 1_455 S
C356 C354 1.405 1_655 S
C356 C358 1.403 . S
C356 C389 1.439 . S
C357 H342 0.930 . S
C357 N353 1.319 . S
C357 C355 1.397 . S
C358 C355 1.367 1_655 S
C358 C356 1.403 . S
C358 H365 0.929 . S
N359 Eu324 2.562 . S
N359 C360 1.325 . S
N359 C362 1.361 . S
C360 H346 0.929 . S
C360 N359 1.325 . S
C360 C364 1.416 1_455 S
C361 C362 1.418 1_655 S
C361 C363 1.404 . S
C361 C390 1.387 . S
C362 C354 1.450 . S
C362 N359 1.361 . S
C362 C361 1.418 1_455 S
C363 H352 0.930 . S
C363 C361 1.404 . S
C363 C364 1.366 . S
C364 H343 0.930 . S
C364 C360 1.416 1_655 S
C364 C363 1.366 . S
H365 C358 0.929 . S
H366 C389 0.931 . S
H367 C390 0.931 . S
O368 Eu324 2.462 . S
O368 C388 1.252 . S
O369 Eu324 2.373 1_655 S
O369 C380 1.249 . S
O370 Eu335 2.335 . S
O370 C380 1.264 . S
O371 Eu324 2.432 . S
O371 C388 1.268 . S
O372 Eu324 2.291 . S
O372 C387 1.255 . S
O373 Eu335 2.372 . S
O373 C387 1.257 1_655 S
O374 Eu335 2.462 . S
O374 C399 1.252 . S
O375 Eu335 2.373 1_455 S
O375 C391 1.249 . S
O376 Eu324 2.335 . S
O376 C391 1.264 . S
O377 Eu335 2.432 . S
O377 C399 1.268 . S
O378 Eu335 2.304 . S
O378 C398 1.247 1_655 S
O379 Eu324 2.372 . S
O379 C398 1.257 . S
C380 O369 1.249 . S
C380 O370 1.264 . S
C381 C384 1.382 . S
C381 C386 1.390 . S
C381 C388 1.506 . S
C382 C383 1.398 . S
C382 C386 1.392 . S
C383 C382 1.398 . S
C383 C385 1.372 . S
C383 H400 0.931 . S
C384 C381 1.382 . S
C384 C385 1.390 . S
C384 H401 0.931 . S
C385 C383 1.372 . S
C385 C384 1.390 . S
C385 H402 0.929 . S
C386 C381 1.390 . S
C386 C382 1.392 . S
C386 H403 0.930 . S
C387 O372 1.255 . S
C387 O373 1.257 1_455 S
C388 Eu324 2.787 . S
C388 O368 1.252 . S
C388 O371 1.268 . S
C388 C381 1.506 . S
C389 C356 1.439 . S
C389 H366 0.931 . S
C389 C390 1.374 . S
C390 C361 1.387 . S
C390 H367 0.931 . S
C390 C389 1.374 . S
C391 O375 1.249 . S
C391 O376 1.264 . S
C392 C395 1.382 . S
C392 C396 1.390 . S
C392 C399 1.506 . S
C393 C394 1.398 . S
C393 C396 1.392 . S
C394 C393 1.398 . S
C394 C397 1.372 . S
C394 H404 0.931 . S
C395 C392 1.382 . S
C395 C397 1.390 . S
C395 H405 0.931 . S
C396 C392 1.390 . S
C396 C393 1.392 . S
C396 H406 0.930 . S
C397 C394 1.372 . S
C397 C395 1.390 . S
C397 H407 0.929 . S
C398 O378 1.247 1_455 S
C398 O379 1.257 . S
C399 Eu335 2.787 . S
C399 O374 1.252 . S
C399 O377 1.268 . S
C399 C392 1.506 . S
H400 C383 0.931 . S
H401 C384 0.931 . S
H402 C385 0.929 . S
H403 C386 0.930 . S
H404 C394 0.931 . S
H405 C395 0.931 . S
H406 C396 0.930 . S
H407 C397 0.929 . S
H408 C426 0.951 . S
H409 C428 0.951 . S
H410 C430 0.950 . S
H411 C431 0.950 . S
H412 C433 0.950 . S
H413 C436 0.950 . S
H414 C437 0.950 . S
H415 C439 0.950 . S
H416 C440 0.950 . S
H417 C441 0.951 . S
H418 C443 0.951 . S
H419 C445 0.950 . S
H420 C446 0.950 . S
H421 C448 0.950 . S
H422 C451 0.950 . S
H423 C452 0.950 . S
H424 C454 0.950 . S
H425 C455 0.950 . S
C426 H408 0.951 . S
C426 C427 1.366 . S
C426 C428 1.388 . S
C427 C426 1.366 . S
C427 C431 1.385 . S
C428 H409 0.951 . S
C428 C426 1.388 . S
C428 C429 1.366 . S
C429 C428 1.366 . S
C429 C430 1.414 . S
C429 C432 1.499 . S
C430 H410 0.950 . S
C430 C429 1.414 . S
C430 C431 1.374 . S
C431 H411 0.950 . S
C431 C427 1.385 . S
C431 C430 1.374 . S
C432 C429 1.499 . S
C432 C433 1.373 . S
C432 C434 1.389 . S
C433 H412 0.950 . S
C433 C432 1.373 . S
C433 C449 1.377 . S
C434 C432 1.389 . S
C434 C435 1.524 . S
C434 C448 1.377 . S
C435 C434 1.524 . S
C435 C436 1.397 . S
C435 C440 1.363 . S
C436 H413 0.950 . S
C436 C435 1.397 . S
C436 C437 1.334 . S
C437 H414 0.950 . S
C437 C436 1.334 . S
C437 C438 1.287 . S
C438 C437 1.287 . S
C438 C439 1.524 . S
C438 H457 0.913 . S
C439 H415 0.950 . S
C439 C438 1.524 . S
C439 C440 1.415 . S
C440 H416 0.950 . S
C440 C435 1.363 . S
C440 C439 1.415 . S
C441 H417 0.951 . S
C441 C442 1.366 . S
C441 C443 1.388 . S
C442 C441 1.366 . S
C442 C446 1.385 . S
C443 H418 0.951 . S
C443 C441 1.388 . S
C443 C444 1.366 . S
C444 C443 1.366 . S
C444 C445 1.414 . S
C444 C447 1.499 . S
C445 H419 0.950 . S
C445 C444 1.414 . S
C445 C446 1.374 . S
C446 H420 0.950 . S
C446 C442 1.385 . S
C446 C445 1.374 . S
C447 C444 1.499 . S
C447 C448 1.373 . S
C447 C449 1.389 . S
C448 H421 0.950 . S
C448 C434 1.377 . S
C448 C447 1.373 . S
C449 C433 1.377 . S
C449 C447 1.389 . S
C449 C450 1.524 1_545 S
C450 C449 1.524 1_565 S
C450 C451 1.397 . S
C450 C455 1.363 . S
C451 H422 0.950 . S
C451 C450 1.397 . S
C451 C452 1.334 . S
C452 H423 0.950 . S
C452 C451 1.334 . S
C452 C453 1.287 . S
C453 C452 1.287 . S
C453 C454 1.524 . S
C453 H456 0.999 . S
C454 H424 0.950 . S
C454 C453 1.524 . S
C454 C455 1.415 . S
C455 H425 0.950 . S
C455 C450 1.363 . S
C455 C454 1.415 . S
H456 C453 0.999 . S
H457 C438 0.913 . S
H458 C476 0.951 . S
H459 C478 0.951 . S
H460 C480 0.950 . S
H461 C481 0.950 . S
H462 C483 0.950 . S
H463 C486 0.950 . S
H464 C487 0.950 . S
H465 C489 0.950 . S
H466 C490 0.950 . S
H467 C491 0.951 . S
H468 C493 0.951 . S
H469 C495 0.950 . S
H470 C496 0.950 . S
H471 C498 0.950 . S
H472 C501 0.950 . S
H473 C502 0.950 . S
H474 C504 0.950 . S
H475 C505 0.950 . S
C476 H458 0.951 . S
C476 C477 1.366 . S
C476 C478 1.388 . S
C477 C476 1.366 . S
C477 C481 1.385 . S
C478 H459 0.951 . S
C478 C476 1.388 . S
C478 C479 1.366 . S
C479 C478 1.366 . S
C479 C480 1.414 . S
C479 C482 1.499 . S
C480 H460 0.950 . S
C480 C479 1.414 . S
C480 C481 1.374 . S
C481 H461 0.950 . S
C481 C477 1.385 . S
C481 C480 1.374 . S
C482 C479 1.499 . S
C482 C483 1.373 . S
C482 C484 1.389 . S
C483 H462 0.950 . S
C483 C482 1.373 . S
C483 C499 1.377 . S
C484 C482 1.389 . S
C484 C485 1.524 . S
C484 C498 1.377 . S
C485 C484 1.524 . S
C485 C486 1.397 . S
C485 C490 1.363 . S
C486 H463 0.950 . S
C486 C485 1.397 . S
C486 C487 1.334 . S
C487 H464 0.950 . S
C487 C486 1.334 . S
C487 C488 1.287 . S
C488 C487 1.287 . S
C488 C489 1.524 . S
C488 H507 0.913 . S
C489 H465 0.950 . S
C489 C488 1.524 . S
C489 C490 1.415 . S
C490 H466 0.950 . S
C490 C485 1.363 . S
C490 C489 1.415 . S
C491 H467 0.951 . S
C491 C492 1.366 . S
C491 C493 1.388 . S
C492 C491 1.366 . S
C492 C496 1.385 . S
C493 H468 0.951 . S
C493 C491 1.388 . S
C493 C494 1.366 . S
C494 C493 1.366 . S
C494 C495 1.414 . S
C494 C497 1.499 . S
C495 H469 0.950 . S
C495 C494 1.414 . S
C495 C496 1.374 . S
C496 H470 0.950 . S
C496 C492 1.385 . S
C496 C495 1.374 . S
C497 C494 1.499 . S
C497 C498 1.373 . S
C497 C499 1.389 . S
C498 H471 0.950 . S
C498 C484 1.377 . S
C498 C497 1.373 . S
C499 C483 1.377 . S
C499 C497 1.389 . S
C499 C500 1.524 . S
C500 C499 1.524 . S
C500 C501 1.397 . S
C500 C505 1.363 . S
C501 H472 0.950 . S
C501 C500 1.397 . S
C501 C502 1.334 . S
C502 H473 0.950 . S
C502 C501 1.334 . S
C502 C503 1.287 . S
C503 C502 1.287 . S
C503 C504 1.524 . S
C503 H506 0.999 . S
C504 H474 0.950 . S
C504 C503 1.524 . S
C504 C505 1.415 . S
C505 H475 0.950 . S
C505 C500 1.363 . S
C505 C504 1.415 . S
H506 C503 0.999 . S
H507 C488 0.913 . S
H508 C526 0.951 . S
H509 C528 0.951 . S
H510 C530 0.950 . S
H511 C531 0.950 . S
H512 C533 0.950 . S
H513 C536 0.950 . S
H514 C537 0.950 . S
H515 C539 0.950 . S
H516 C540 0.950 . S
H517 C541 0.951 . S
H518 C543 0.951 . S
H519 C545 0.950 . S
H520 C546 0.950 . S
H521 C548 0.950 . S
H522 C551 0.950 . S
H523 C552 0.950 . S
H524 C554 0.950 . S
H525 C555 0.950 . S
C526 H508 0.951 . S
C526 C527 1.366 . S
C526 C528 1.388 . S
C527 C526 1.366 . S
C527 C531 1.385 . S
C528 H509 0.951 . S
C528 C526 1.388 . S
C528 C529 1.366 . S
C529 C528 1.366 . S
C529 C530 1.414 . S
C529 C532 1.499 . S
C530 H510 0.950 . S
C530 C529 1.414 . S
C530 C531 1.374 . S
C531 H511 0.950 . S
C531 C527 1.385 . S
C531 C530 1.374 . S
C532 C529 1.499 . S
C532 C533 1.373 . S
C532 C534 1.389 . S
C533 H512 0.950 . S
C533 C532 1.373 . S
C533 C549 1.377 . S
C534 C532 1.389 . S
C534 C535 1.524 . S
C534 C548 1.377 . S
C535 C534 1.524 . S
C535 C536 1.397 . S
C535 C540 1.363 . S
C536 H513 0.950 . S
C536 C535 1.397 . S
C536 C537 1.334 . S
C537 H514 0.950 . S
C537 C536 1.334 . S
C537 C538 1.287 . S
C538 C537 1.287 . S
C538 C539 1.524 . S
C538 H557 0.913 . S
C539 H515 0.950 . S
C539 C538 1.524 . S
C539 C540 1.415 . S
C540 H516 0.950 . S
C540 C535 1.363 . S
C540 C539 1.415 . S
C541 H517 0.951 . S
C541 C542 1.366 . S
C541 C543 1.388 . S
C542 C541 1.366 . S
C542 C546 1.385 . S
C543 H518 0.951 . S
C543 C541 1.388 . S
C543 C544 1.366 . S
C544 C543 1.366 . S
C544 C545 1.414 . S
C544 C547 1.499 . S
C545 H519 0.950 . S
C545 C544 1.414 . S
C545 C546 1.374 . S
C546 H520 0.950 . S
C546 C542 1.385 . S
C546 C545 1.374 . S
C547 C544 1.499 . S
C547 C548 1.373 . S
C547 C549 1.389 . S
C548 H521 0.950 . S
C548 C534 1.377 . S
C548 C547 1.373 . S
C549 C533 1.377 . S
C549 C547 1.389 . S
C549 C550 1.524 . S
C550 C549 1.524 . S
C550 C551 1.397 . S
C550 C555 1.363 . S
C551 H522 0.950 . S
C551 C550 1.397 . S
C551 C552 1.334 . S
C552 H523 0.950 . S
C552 C551 1.334 . S
C552 C553 1.287 . S
C553 C552 1.287 . S
C553 C554 1.524 . S
C553 H556 0.999 . S
C554 H524 0.950 . S
C554 C553 1.524 . S
C554 C555 1.415 . S
C555 H525 0.950 . S
C555 C550 1.363 . S
C555 C554 1.415 . S
H556 C553 0.999 . S
H557 C538 0.913 . S
H558 C576 0.951 . S
H559 C578 0.951 . S
H560 C580 0.950 . S
H561 C581 0.950 . S
H562 C583 0.950 . S
H563 C586 0.950 . S
H564 C587 0.950 . S
H565 C589 0.950 . S
H566 C590 0.950 . S
H567 C591 0.951 . S
H568 C593 0.951 1_655 S
H569 C595 0.950 . S
H570 C596 0.950 . S
H571 C598 0.950 . S
H572 C601 0.950 . S
H573 C602 0.950 . S
H574 C604 0.950 1_655 S
H575 C605 0.950 1_655 S
C576 H558 0.951 . S
C576 C577 1.366 . S
C576 C578 1.388 . S
C577 C576 1.366 . S
C577 C581 1.385 . S
C578 H559 0.951 . S
C578 C576 1.388 . S
C578 C579 1.366 . S
C579 C578 1.366 . S
C579 C580 1.414 . S
C579 C582 1.499 . S
C580 H560 0.950 . S
C580 C579 1.414 . S
C580 C581 1.374 . S
C581 H561 0.950 . S
C581 C577 1.385 . S
C581 C580 1.374 . S
C582 C579 1.499 . S
C582 C583 1.373 . S
C582 C584 1.389 . S
C583 H562 0.950 . S
C583 C582 1.373 . S
C583 C599 1.377 . S
C584 C582 1.389 . S
C584 C585 1.524 . S
C584 C598 1.377 . S
C585 C584 1.524 . S
C585 C586 1.397 . S
C585 C590 1.363 . S
C586 H563 0.950 . S
C586 C585 1.397 . S
C586 C587 1.334 . S
C587 H564 0.950 . S
C587 C586 1.334 . S
C587 C588 1.287 . S
C588 C587 1.287 . S
C588 C589 1.524 . S
C588 H607 0.913 . S
C589 H565 0.950 . S
C589 C588 1.524 . S
C589 C590 1.415 . S
C590 H566 0.950 . S
C590 C585 1.363 . S
C590 C589 1.415 . S
C591 H567 0.951 . S
C591 C592 1.366 1_655 S
C591 C593 1.388 1_655 S
C592 C591 1.366 1_455 S
C592 C596 1.385 . S
C593 H568 0.951 1_455 S
C593 C591 1.388 1_455 S
C593 C594 1.366 . S
C594 C593 1.366 . S
C594 C595 1.414 . S
C594 C597 1.499 . S
C595 H569 0.950 . S
C595 C594 1.414 . S
C595 C596 1.374 . S
C596 H570 0.950 . S
C596 C592 1.385 . S
C596 C595 1.374 . S
C597 C594 1.499 . S
C597 C598 1.373 . S
C597 C599 1.389 . S
C598 H571 0.950 . S
C598 C584 1.377 . S
C598 C597 1.373 . S
C599 C583 1.377 . S
C599 C597 1.389 . S
C599 C600 1.524 . S
C600 C599 1.524 . S
C600 C601 1.397 . S
C600 C605 1.363 . S
C601 H572 0.950 . S
C601 C600 1.397 . S
C601 C602 1.334 . S
C602 H573 0.950 . S
C602 C601 1.334 . S
C602 C603 1.287 . S
C603 C602 1.287 . S
C603 C604 1.524 . S
C603 H606 0.999 . S
C604 H574 0.950 1_455 S
C604 C603 1.524 . S
C604 C605 1.415 . S
C605 H575 0.950 1_455 S
C605 C600 1.363 . S
C605 C604 1.415 . S
H606 C603 0.999 . S
H607 C588 0.913 . S
H608 C626 0.951 . S
H609 C628 0.951 . S
H610 C630 0.950 . S
H611 C631 0.950 . S
H612 C633 0.950 1_545 S
H613 C636 0.950 1_554 S
H614 C637 0.950 1_554 S
H615 C639 0.950 . S
H616 C640 0.950 . S
H617 C641 0.951 . S
H618 C643 0.951 . S
H619 C645 0.949 1_545 S
H620 C646 0.950 . S
H621 C648 0.950 . S
H622 C651 0.950 . S
H623 C652 0.950 . S
H624 C654 0.950 . S
H625 C655 0.950 . S
C626 H608 0.951 . S
C626 C627 1.366 . S
C626 C628 1.388 . S
C627 C626 1.366 . S
C627 C631 1.385 . S
C628 H609 0.951 . S
C628 C626 1.388 . S
C628 C629 1.366 . S
C629 C628 1.366 . S
C629 C630 1.414 . S
C629 C632 1.499 . S
C630 H610 0.950 . S
C630 C629 1.414 . S
C630 C631 1.374 . S
C631 H611 0.950 . S
C631 C627 1.385 . S
C631 C630 1.374 . S
C632 C629 1.499 . S
C632 C633 1.373 . S
C632 C634 1.389 1_554 S
C633 H612 0.950 1_565 S
C633 C632 1.373 . S
C633 C649 1.373 1_564 S
C634 C632 1.389 1_556 S
C634 C635 1.524 . S
C634 C648 1.377 . S
C635 C634 1.524 . S
C635 C636 1.397 . S
C635 C640 1.363 . S
C636 H613 0.950 1_556 S
C636 C635 1.397 . S
C636 C637 1.334 . S
C637 H614 0.950 1_556 S
C637 C636 1.334 . S
C637 C638 1.287 . S
C638 C637 1.287 . S
C638 C639 1.524 . S
C638 H657 0.913 . S
C639 H615 0.950 . S
C639 C638 1.524 . S
C639 C640 1.415 . S
C640 H616 0.950 . S
C640 C635 1.363 . S
C640 C639 1.415 . S
C641 H617 0.951 . S
C641 C642 1.369 . S
C641 C643 1.388 . S
C642 C641 1.369 . S
C642 C646 1.383 1_565 S
C643 H618 0.951 . S
C643 C641 1.388 . S
C643 C644 1.366 . S
C644 C643 1.366 . S
C644 C645 1.416 . S
C644 C647 1.499 . S
C645 H619 0.949 1_565 S
C645 C644 1.416 . S
C645 C646 1.373 1_565 S
C646 H620 0.950 . S
C646 C642 1.383 1_545 S
C646 C645 1.373 1_545 S
C647 C644 1.499 . S
C647 C648 1.373 . S
C647 C649 1.382 1_565 S
C648 H621 0.950 . S
C648 C634 1.377 . S
C648 C647 1.373 . S
C649 C633 1.373 1_546 S
C649 C647 1.382 1_545 S
C649 C650 1.537 . S
C650 C649 1.537 . S
C650 C651 1.397 . S
C650 C655 1.363 1_556 S
C651 H622 0.950 . S
C651 C650 1.397 . S
C651 C652 1.334 . S
C652 H623 0.950 . S
C652 C651 1.334 . S
C652 C653 1.287 1_556 S
C653 C652 1.287 1_554 S
C653 C654 1.524 . S
C653 H656 0.999 . S
C654 H624 0.950 . S
C654 C653 1.524 . S
C654 C655 1.415 . S
C655 H625 0.950 . S
C655 C650 1.363 1_554 S
C655 C654 1.415 . S
H656 C653 0.999 . S
H657 C638 0.913 . S
H658 C676 0.951 . S
H659 C678 0.951 . S
H660 C680 0.950 . S
H661 C681 0.950 . S
H662 C683 0.950 . S
H663 C686 0.950 . S
H664 C687 0.950 . S
H665 C689 0.950 . S
H666 C690 0.950 . S
H667 C691 0.951 . S
H668 C693 0.951 . S
H669 C695 0.950 . S
H670 C696 0.950 . S
H671 C698 0.950 . S
H672 C701 0.950 . S
H673 C702 0.950 1_556 S
H674 C704 0.950 . S
H675 C705 0.950 . S
C676 H658 0.951 . S
C676 C677 1.366 . S
C676 C678 1.388 . S
C677 C676 1.366 . S
C677 C681 1.385 . S
C678 H659 0.951 . S
C678 C676 1.388 . S
C678 C679 1.366 . S
C679 C678 1.366 . S
C679 C680 1.414 . S
C679 C682 1.499 . S
C680 H660 0.950 . S
C680 C679 1.414 . S
C680 C681 1.374 . S
C681 H661 0.950 . S
C681 C677 1.385 . S
C681 C680 1.374 . S
C682 C679 1.499 . S
C682 C683 1.373 . S
C682 C684 1.389 1_554 S
C683 H662 0.950 . S
C683 C682 1.373 . S
C683 C699 1.377 1_554 S
C684 C682 1.389 1_556 S
C684 C685 1.524 . S
C684 C698 1.377 . S
C685 C684 1.524 . S
C685 C686 1.397 . S
C685 C690 1.363 . S
C686 H663 0.950 . S
C686 C685 1.397 . S
C686 C687 1.334 . S
C687 H664 0.950 . S
C687 C686 1.334 . S
C687 C688 1.287 . S
C688 C687 1.287 . S
C688 C689 1.524 . S
C688 H707 0.913 . S
C689 H665 0.950 . S
C689 C688 1.524 . S
C689 C690 1.415 . S
C690 H666 0.950 . S
C690 C685 1.363 . S
C690 C689 1.415 . S
C691 H667 0.951 . S
C691 C692 1.366 . S
C691 C693 1.388 . S
C692 C691 1.366 . S
C692 C696 1.385 . S
C693 H668 0.951 . S
C693 C691 1.388 . S
C693 C694 1.366 . S
C694 C693 1.366 . S
C694 C695 1.414 . S
C694 C697 1.499 . S
C695 H669 0.950 . S
C695 C694 1.414 . S
C695 C696 1.374 . S
C696 H670 0.950 . S
C696 C692 1.385 . S
C696 C695 1.374 . S
C697 C694 1.499 . S
C697 C698 1.373 . S
C697 C699 1.389 . S
C698 H671 0.950 . S
C698 C684 1.377 . S
C698 C697 1.373 . S
C699 C683 1.377 1_556 S
C699 C697 1.389 . S
C699 C700 1.524 . S
C700 C699 1.524 . S
C700 C701 1.397 . S
C700 C705 1.363 1_556 S
C701 H672 0.950 . S
C701 C700 1.397 . S
C701 C702 1.334 1_556 S
C702 H673 0.950 1_554 S
C702 C701 1.334 1_554 S
C702 C703 1.287 . S
C703 C702 1.287 . S
C703 C704 1.524 . S
C703 H706 0.955 1_565 S
C704 H674 0.950 . S
C704 C703 1.524 . S
C704 C705 1.415 . S
C705 H675 0.950 . S
C705 C700 1.363 1_554 S
C705 C704 1.415 . S
H706 C703 0.955 1_545 S
H707 C688 0.913 . S
H708 C726 0.951 . S
H709 C728 0.951 . S
H710 C730 0.950 . S
H711 C731 0.950 . S
H712 C733 0.950 . S
H713 C736 0.950 . S
H714 C737 0.950 . S
H715 C739 0.950 . S
H716 C740 0.950 . S
H717 C741 0.951 . S
H718 C743 0.951 . S
H719 C745 0.950 . S
H720 C746 0.950 . S
H721 C748 0.950 . S
H722 C751 0.950 . S
H723 C752 0.950 . S
H724 C754 0.950 . S
H725 C755 0.950 1_554 S
C726 H708 0.951 . S
C726 C727 1.366 . S
C726 C728 1.388 . S
C727 C726 1.366 . S
C727 C731 1.385 . S
C728 H709 0.951 . S
C728 C726 1.388 . S
C728 C729 1.366 . S
C729 C728 1.366 . S
C729 C730 1.414 . S
C729 C732 1.499 . S
C730 H710 0.950 . S
C730 C729 1.414 . S
C730 C731 1.374 . S
C731 H711 0.950 . S
C731 C727 1.385 . S
C731 C730 1.374 . S
C732 C729 1.499 . S
C732 C733 1.373 . S
C732 C734 1.389 1_554 S
C733 H712 0.950 . S
C733 C732 1.373 . S
C733 C749 1.377 1_554 S
C734 C732 1.389 1_556 S
C734 C735 1.524 1_556 S
C734 C748 1.377 . S
C735 C734 1.524 1_554 S
C735 C736 1.397 . S
C735 C740 1.363 1_554 S
C736 H713 0.950 . S
C736 C735 1.397 . S
C736 C737 1.334 . S
C737 H714 0.950 . S
C737 C736 1.334 . S
C737 C738 1.287 . S
C738 C737 1.287 . S
C738 C739 1.524 1_554 S
C738 H757 0.913 . S
C739 H715 0.950 . S
C739 C738 1.524 1_556 S
C739 C740 1.415 . S
C740 H716 0.950 . S
C740 C735 1.363 1_556 S
C740 C739 1.415 . S
C741 H717 0.951 . S
C741 C742 1.366 . S
C741 C743 1.388 . S
C742 C741 1.366 . S
C742 C746 1.385 . S
C743 H718 0.951 . S
C743 C741 1.388 . S
C743 C744 1.366 . S
C744 C743 1.366 . S
C744 C745 1.414 . S
C744 C747 1.499 . S
C745 H719 0.950 . S
C745 C744 1.414 . S
C745 C746 1.374 . S
C746 H720 0.950 . S
C746 C742 1.385 . S
C746 C745 1.374 . S
C747 C744 1.499 . S
C747 C748 1.373 . S
C747 C749 1.389 . S
C748 H721 0.950 . S
C748 C734 1.377 . S
C748 C747 1.373 . S
C749 C733 1.377 1_556 S
C749 C747 1.389 . S
C749 C750 1.524 . S
C750 C749 1.524 . S
C750 C751 1.397 . S
C750 C755 1.363 . S
C751 H722 0.950 . S
C751 C750 1.397 . S
C751 C752 1.334 . S
C752 H723 0.950 . S
C752 C751 1.334 . S
C752 C753 1.287 . S
C753 C752 1.287 . S
C753 C754 1.524 . S
C753 H756 0.999 . S
C754 H724 0.950 . S
C754 C753 1.524 . S
C754 C755 1.415 . S
C755 H725 0.950 1_556 S
C755 C750 1.363 . S
C755 C754 1.415 . S
H756 C753 0.999 . S
H757 C738 0.913 . S
H758 C776 0.951 . S
H759 C778 0.951 . S
H760 C780 0.950 . S
H761 C781 0.950 . S
H762 C783 0.950 . S
H763 C786 0.950 . S
H764 C787 0.950 . S
H765 C789 0.942 1_655 S
H766 C790 0.950 . S
H767 C791 0.951 . S
H768 C793 0.946 1_455 S
H769 C795 0.950 . S
H770 C796 0.950 . S
H771 C798 0.950 . S
H772 C801 0.950 . S
H773 C802 0.950 . S
H774 C804 0.950 . S
H775 C805 0.950 . S
C776 H758 0.951 . S
C776 C777 1.366 . S
C776 C778 1.388 . S
C777 C776 1.366 . S
C777 C781 1.385 . S
C778 H759 0.951 . S
C778 C776 1.388 . S
C778 C779 1.366 . S
C779 C778 1.366 . S
C779 C780 1.414 . S
C779 C782 1.499 . S
C780 H760 0.950 . S
C780 C779 1.414 . S
C780 C781 1.374 . S
C781 H761 0.950 . S
C781 C777 1.385 . S
C781 C780 1.374 . S
C782 C779 1.499 . S
C782 C783 1.373 1_554 S
C782 C784 1.389 . S
C783 H762 0.950 . S
C783 C782 1.373 1_556 S
C783 C799 1.377 . S
C784 C782 1.389 . S
C784 C785 1.532 . S
C784 C798 1.377 1_554 S
C785 C784 1.532 . S
C785 C786 1.382 1_655 S
C785 C790 1.368 . S
C786 H763 0.950 . S
C786 C785 1.382 1_455 S
C786 C787 1.334 . S
C787 H764 0.950 . S
C787 C786 1.334 . S
C787 C788 1.287 . S
C788 C787 1.287 . S
C788 C789 1.524 . S
C788 H807 0.913 . S
C789 H765 0.942 1_455 S
C789 C788 1.524 . S
C789 C790 1.415 1_455 S
C790 H766 0.950 . S
C790 C785 1.368 . S
C790 C789 1.415 1_655 S
C791 H767 0.951 . S
C791 C792 1.366 1_455 S
C791 C793 1.385 1_455 S
C792 C791 1.366 1_655 S
C792 C796 1.385 . S
C793 H768 0.946 1_655 S
C793 C791 1.385 1_655 S
C793 C794 1.373 . S
C794 C793 1.373 . S
C794 C795 1.414 . S
C794 C797 1.499 . S
C795 H769 0.950 . S
C795 C794 1.414 . S
C795 C796 1.374 . S
C796 H770 0.950 . S
C796 C792 1.385 . S
C796 C795 1.374 . S
C797 C794 1.499 . S
C797 C798 1.373 . S
C797 C799 1.389 . S
C798 H771 0.950 . S
C798 C784 1.377 1_556 S
C798 C797 1.373 . S
C799 C783 1.377 . S
C799 C797 1.389 . S
C799 C800 1.524 . S
C800 C799 1.524 . S
C800 C801 1.397 . S
C800 C805 1.363 . S
C801 H772 0.950 . S
C801 C800 1.397 . S
C801 C802 1.334 . S
C802 H773 0.950 . S
C802 C801 1.334 . S
C802 C803 1.287 . S
C803 C802 1.287 . S
C803 C804 1.524 . S
C803 H806 0.999 . S
C804 H774 0.950 . S
C804 C803 1.524 . S
C804 C805 1.415 . S
C805 H775 0.950 . S
C805 C800 1.363 . S
C805 C804 1.415 . S
H806 C803 0.999 . S
H807 C788 0.913 . S
H808 C826 0.951 . S
H809 C828 0.951 . S
H810 C830 0.950 . S
H811 C831 0.950 . S
H812 C833 0.950 . S
H813 C836 0.950 . S
H814 C837 0.950 . S
H815 C839 0.950 . S
H816 C840 0.950 . S
H817 C841 0.951 . S
H818 C843 0.951 . S
H819 C845 0.950 . S
H820 C846 0.950 . S
H821 C848 0.950 1_655 S
H822 C851 0.950 . S
H823 C852 0.950 . S
H824 C854 0.950 . S
H825 C855 0.950 . S
C826 H808 0.951 . S
C826 C827 1.366 . S
C826 C828 1.388 . S
C827 C826 1.366 . S
C827 C831 1.385 . S
C828 H809 0.951 . S
C828 C826 1.388 . S
C828 C829 1.366 . S
C829 C828 1.366 . S
C829 C830 1.414 . S
C829 C832 1.499 . S
C830 H810 0.950 . S
C830 C829 1.414 . S
C830 C831 1.374 . S
C831 H811 0.950 . S
C831 C827 1.385 . S
C831 C830 1.374 . S
C832 C829 1.499 . S
C832 C833 1.373 . S
C832 C834 1.389 . S
C833 H812 0.950 . S
C833 C832 1.373 . S
C833 C849 1.377 . S
C834 C832 1.389 . S
C834 C835 1.524 1_455 S
C834 C848 1.377 . S
C835 C834 1.524 1_655 S
C835 C836 1.397 . S
C835 C840 1.363 . S
C836 H813 0.950 . S
C836 C835 1.397 . S
C836 C837 1.334 . S
C837 H814 0.950 . S
C837 C836 1.334 . S
C837 C838 1.287 . S
C838 C837 1.287 . S
C838 C839 1.524 . S
C838 H857 0.913 . S
C839 H815 0.950 . S
C839 C838 1.524 . S
C839 C840 1.415 . S
C840 H816 0.950 . S
C840 C835 1.363 . S
C840 C839 1.415 . S
C841 H817 0.951 . S
C841 C842 1.354 1_455 S
C841 C843 1.388 . S
C842 C841 1.354 1_655 S
C842 C846 1.386 . S
C843 H818 0.951 . S
C843 C841 1.388 . S
C843 C844 1.366 . S
C844 C843 1.366 . S
C844 C845 1.414 . S
C844 C847 1.499 . S
C845 H819 0.950 . S
C845 C844 1.414 . S
C845 C846 1.374 1_455 S
C846 H820 0.950 . S
C846 C842 1.386 . S
C846 C845 1.374 1_655 S
C847 C844 1.499 . S
C847 C848 1.373 . S
C847 C849 1.389 . S
C848 H821 0.950 1_455 S
C848 C834 1.377 . S
C848 C847 1.373 . S
C849 C833 1.377 . S
C849 C847 1.389 . S
C849 C850 1.524 . S
C850 C849 1.524 . S
C850 C851 1.397 . S
C850 C855 1.363 . S
C851 H822 0.950 . S
C851 C850 1.397 . S
C851 C852 1.334 . S
C852 H823 0.950 . S
C852 C851 1.334 . S
C852 C853 1.287 . S
C853 C852 1.287 . S
C853 C854 1.524 . S
C853 H856 0.999 . S
C854 H824 0.950 . S
C854 C853 1.524 . S
C854 C855 1.415 . S
C855 H825 0.950 . S
C855 C850 1.363 . S
C855 C854 1.415 . S
H856 C853 0.999 . S
H857 C838 0.913 . S
H858 C876 0.951 . S
H859 C878 0.951 . S
H860 C880 0.950 . S
H861 C881 0.950 . S
H862 C883 0.950 . S
H863 C886 0.950 1_565 S
H864 C887 0.950 . S
H865 C889 0.950 . S
H866 C890 0.950 . S
H867 C891 0.951 . S
H868 C893 0.951 1_565 S
H869 C895 0.950 . S
H870 C896 0.950 . S
H871 C898 0.950 . S
H872 C901 0.950 . S
H873 C902 0.950 . S
H874 C904 0.950 . S
H875 C905 0.950 . S
C876 H858 0.951 . S
C876 C877 1.366 . S
C876 C878 1.388 . S
C877 C876 1.366 . S
C877 C881 1.385 . S
C878 H859 0.951 . S
C878 C876 1.388 . S
C878 C879 1.366 . S
C879 C878 1.366 . S
C879 C880 1.414 . S
C879 C882 1.499 . S
C880 H860 0.950 . S
C880 C879 1.414 . S
C880 C881 1.374 . S
C881 H861 0.950 . S
C881 C877 1.385 . S
C881 C880 1.374 . S
C882 C879 1.499 . S
C882 C883 1.373 . S
C882 C884 1.389 . S
C883 H862 0.950 . S
C883 C882 1.373 . S
C883 C899 1.377 . S
C884 C882 1.389 . S
C884 C885 1.524 . S
C884 C898 1.377 . S
C885 C884 1.524 . S
C885 C886 1.397 . S
C885 C890 1.363 . S
C886 H863 0.950 1_545 S
C886 C885 1.397 . S
C886 C887 1.334 1_545 S
C887 H864 0.950 . S
C887 C886 1.334 1_565 S
C887 C888 1.287 1_565 S
C888 C887 1.287 1_545 S
C888 C889 1.524 . S
C888 H907 0.913 1_554 S
C889 H865 0.950 . S
C889 C888 1.524 . S
C889 C890 1.415 . S
C890 H866 0.950 . S
C890 C885 1.363 . S
C890 C889 1.415 . S
C891 H867 0.951 . S
C891 C892 1.366 1_565 S
C891 C893 1.388 1_565 S
C892 C891 1.366 1_545 S
C892 C896 1.385 . S
C893 H868 0.951 1_545 S
C893 C891 1.388 1_545 S
C893 C894 1.366 . S
C894 C893 1.366 . S
C894 C895 1.414 . S
C894 C897 1.499 . S
C895 H869 0.950 . S
C895 C894 1.414 . S
C895 C896 1.374 . S
C896 H870 0.950 . S
C896 C892 1.385 . S
C896 C895 1.374 . S
C897 C894 1.499 . S
C897 C898 1.373 . S
C897 C899 1.389 . S
C898 H871 0.950 . S
C898 C884 1.377 . S
C898 C897 1.373 . S
C899 C883 1.377 . S
C899 C897 1.389 . S
C899 C900 1.524 . S
C900 C899 1.524 . S
C900 C901 1.397 . S
C900 C905 1.363 . S
C901 H872 0.950 . S
C901 C900 1.397 . S
C901 C902 1.334 . S
C902 H873 0.950 . S
C902 C901 1.334 . S
C902 C903 1.287 . S
C903 C902 1.287 . S
C903 C904 1.524 . S
C903 H906 0.999 . S
C904 H874 0.950 . S
C904 C903 1.524 . S
C904 C905 1.415 . S
C905 H875 0.950 . S
C905 C900 1.363 . S
C905 C904 1.415 . S
H906 C903 0.999 . S
H907 C888 0.913 1_556 S
H908 C926 0.951 . S
H909 C928 0.951 . S
H910 C930 0.950 . S
H911 C931 0.950 . S
H912 C933 0.950 . S
H913 C936 0.950 . S
H914 C937 0.950 . S
H915 C939 0.950 . S
H916 C940 0.950 . S
H917 C941 0.951 . S
H918 C943 0.951 . S
H919 C945 0.950 . S
H920 C946 0.950 . S
H921 C948 0.950 . S
H922 C951 0.950 . S
H923 C952 0.950 . S
H924 C954 0.950 . S
H925 C955 0.950 . S
C926 H908 0.951 . S
C926 C927 1.366 . S
C926 C928 1.388 . S
C927 C926 1.366 . S
C927 C931 1.385 . S
C928 H909 0.951 . S
C928 C926 1.388 . S
C928 C929 1.366 . S
C929 C928 1.366 . S
C929 C930 1.414 . S
C929 C932 1.499 . S
C930 H910 0.950 . S
C930 C929 1.414 . S
C930 C931 1.374 . S
C931 H911 0.950 . S
C931 C927 1.385 . S
C931 C930 1.374 . S
C932 C929 1.499 . S
C932 C933 1.373 . S
C932 C934 1.389 . S
C933 H912 0.950 . S
C933 C932 1.373 . S
C933 C949 1.377 . S
C934 C932 1.389 . S
C934 C935 1.524 . S
C934 C948 1.377 . S
C935 C934 1.524 . S
C935 C936 1.397 . S
C935 C940 1.363 . S
C936 H913 0.950 . S
C936 C935 1.397 . S
C936 C937 1.334 . S
C937 H914 0.950 . S
C937 C936 1.334 . S
C937 C938 1.287 . S
C938 C937 1.287 . S
C938 C939 1.524 . S
C938 H957 0.913 . S
C939 H915 0.950 . S
C939 C938 1.524 . S
C939 C940 1.415 . S
C940 H916 0.950 . S
C940 C935 1.363 . S
C940 C939 1.415 . S
C941 H917 0.951 . S
C941 C942 1.366 . S
C941 C943 1.388 . S
C942 C941 1.366 . S
C942 C946 1.385 . S
C943 H918 0.951 . S
C943 C941 1.388 . S
C943 C944 1.366 . S
C944 C943 1.366 . S
C944 C945 1.414 . S
C944 C947 1.499 . S
C945 H919 0.950 . S
C945 C944 1.414 . S
C945 C946 1.374 . S
C946 H920 0.950 . S
C946 C942 1.385 . S
C946 C945 1.374 . S
C947 C944 1.499 . S
C947 C948 1.373 . S
C947 C949 1.389 . S
C948 H921 0.950 . S
C948 C934 1.377 . S
C948 C947 1.373 . S
C949 C933 1.377 . S
C949 C947 1.389 . S
C949 C950 1.524 . S
C950 C949 1.524 . S
C950 C951 1.397 . S
C950 C955 1.363 . S
C951 H922 0.950 . S
C951 C950 1.397 . S
C951 C952 1.334 . S
C952 H923 0.950 . S
C952 C951 1.334 . S
C952 C953 1.287 . S
C953 C952 1.287 . S
C953 C954 1.524 . S
C953 H956 0.999 . S
C954 H924 0.950 . S
C954 C953 1.524 . S
C954 C955 1.415 . S
C955 H925 0.950 . S
C955 C950 1.363 . S
C955 C954 1.415 . S
H956 C953 0.999 . S
H957 C938 0.913 . S
H958 C976 0.951 . S
H959 C978 0.951 . S
H960 C980 0.950 . S
H961 C981 0.950 . S
H962 C983 0.950 . S
H963 C986 0.950 . S
H964 C987 0.950 . S
H965 C989 0.950 . S
H966 C990 0.950 . S
H967 C991 0.951 . S
H968 C993 0.951 . S
H969 C995 0.950 . S
H970 C996 0.950 . S
H971 C998 0.950 . S
H972 C1001 0.950 . S
H973 C1002 0.950 . S
H974 C1004 0.950 . S
H975 C1005 0.950 . S
C976 H958 0.951 . S
C976 C977 1.366 . S
C976 C978 1.388 . S
C977 C976 1.366 . S
C977 C981 1.385 . S
C978 H959 0.951 . S
C978 C976 1.388 . S
C978 C979 1.366 . S
C979 C978 1.366 . S
C979 C980 1.414 . S
C979 C982 1.499 . S
C980 H960 0.950 . S
C980 C979 1.414 . S
C980 C981 1.374 . S
C981 H961 0.950 . S
C981 C977 1.385 . S
C981 C980 1.374 . S
C982 C979 1.499 . S
C982 C983 1.373 . S
C982 C984 1.389 . S
C983 H962 0.950 . S
C983 C982 1.373 . S
C983 C999 1.377 . S
C984 C982 1.389 . S
C984 C985 1.524 . S
C984 C998 1.377 . S
C985 C984 1.524 . S
C985 C986 1.397 . S
C985 C990 1.363 . S
C986 H963 0.950 . S
C986 C985 1.397 . S
C986 C987 1.334 . S
C987 H964 0.950 . S
C987 C986 1.334 . S
C987 C988 1.287 . S
C988 C987 1.287 . S
C988 C989 1.524 . S
C988 H1007 0.913 . S
C989 H965 0.950 . S
C989 C988 1.524 . S
C989 C990 1.415 . S
C990 H966 0.950 . S
C990 C985 1.363 . S
C990 C989 1.415 . S
C991 H967 0.951 . S
C991 C992 1.366 . S
C991 C993 1.388 . S
C992 C991 1.366 . S
C992 C996 1.385 . S
C993 H968 0.951 . S
C993 C991 1.388 . S
C993 C994 1.366 . S
C994 C993 1.366 . S
C994 C995 1.414 . S
C994 C997 1.499 . S
C995 H969 0.950 . S
C995 C994 1.414 . S
C995 C996 1.374 . S
C996 H970 0.950 . S
C996 C992 1.385 . S
C996 C995 1.374 . S
C997 C994 1.499 . S
C997 C998 1.373 . S
C997 C999 1.389 . S
C998 H971 0.950 . S
C998 C984 1.377 . S
C998 C997 1.373 . S
C999 C983 1.377 . S
C999 C997 1.389 . S
C999 C1000 1.524 . S
C1000 C999 1.524 . S
C1000 C1001 1.397 . S
C1000 C1005 1.363 . S
C1001 H972 0.950 . S
C1001 C1000 1.397 . S
C1001 C1002 1.334 . S
C1002 H973 0.950 . S
C1002 C1001 1.334 . S
C1002 C1003 1.287 . S
C1003 C1002 1.287 . S
C1003 C1004 1.524 . S
C1003 H1006 0.999 . S
C1004 H974 0.950 . S
C1004 C1003 1.524 . S
C1004 C1005 1.415 . S
C1005 H975 0.950 . S
C1005 C1000 1.363 . S
C1005 C1004 1.415 . S
H1006 C1003 0.999 . S
H1007 C988 0.913 . S
H1008 C1026 0.951 . S
H1009 C1028 0.951 . S
H1010 C1030 0.950 1_455 S
H1011 C1031 0.950 . S
H1012 C1033 0.950 . S
H1013 C1036 0.950 1_554 S
H1014 C1037 0.950 . S
H1015 C1039 0.950 . S
H1016 C1040 0.950 . S
H1017 C1041 0.951 . S
H1018 C1043 0.951 . S
H1019 C1045 0.950 . S
H1020 C1046 0.950 . S
H1021 C1048 0.950 . S
H1022 C1051 0.950 . S
H1023 C1052 0.950 . S
H1024 C1054 0.950 . S
H1025 C1055 0.950 . S
C1026 H1008 0.951 . S
C1026 C1027 1.366 . S
C1026 C1028 1.388 . S
C1027 C1026 1.366 . S
C1027 C1031 1.385 . S
C1028 H1009 0.951 . S
C1028 C1026 1.388 . S
C1028 C1029 1.366 . S
C1029 C1028 1.366 . S
C1029 C1030 1.414 . S
C1029 C1032 1.499 . S
C1030 H1010 0.950 1_655 S
C1030 C1029 1.414 . S
C1030 C1031 1.374 . S
C1031 H1011 0.950 . S
C1031 C1027 1.385 . S
C1031 C1030 1.374 . S
C1032 C1029 1.499 . S
C1032 C1033 1.373 . S
C1032 C1034 1.389 1_554 S
C1033 H1012 0.950 . S
C1033 C1032 1.373 . S
C1033 C1049 1.377 . S
C1034 C1032 1.389 1_556 S
C1034 C1035 1.524 . S
C1034 C1048 1.377 . S
C1035 C1034 1.524 . S
C1035 C1036 1.397 1_655 S
C1035 C1040 1.363 . S
C1036 H1013 0.950 1_556 S
C1036 C1035 1.397 1_455 S
C1036 C1037 1.334 . S
C1037 H1014 0.950 . S
C1037 C1036 1.334 . S
C1037 C1038 1.287 1_455 S
C1038 C1037 1.287 1_655 S
C1038 C1039 1.524 . S
C1038 H1057 0.913 . S
C1039 H1015 0.950 . S
C1039 C1038 1.524 . S
C1039 C1040 1.415 . S
C1040 H1016 0.950 . S
C1040 C1035 1.363 . S
C1040 C1039 1.415 . S
C1041 H1017 0.951 . S
C1041 C1042 1.366 . S
C1041 C1043 1.388 . S
C1042 C1041 1.366 . S
C1042 C1046 1.385 1_455 S
C1043 H1018 0.951 . S
C1043 C1041 1.388 . S
C1043 C1044 1.366 1_455 S
C1044 C1043 1.366 1_655 S
C1044 C1045 1.414 . S
C1044 C1047 1.499 . S
C1045 H1019 0.950 . S
C1045 C1044 1.414 . S
C1045 C1046 1.374 . S
C1046 H1020 0.950 . S
C1046 C1042 1.385 1_655 S
C1046 C1045 1.374 . S
C1047 C1044 1.499 . S
C1047 C1048 1.373 . S
C1047 C1049 1.389 1_556 S
C1048 H1021 0.950 . S
C1048 C1034 1.377 . S
C1048 C1047 1.373 . S
C1049 C1033 1.377 . S
C1049 C1047 1.389 1_554 S
C1049 C1050 1.524 . S
C1050 C1049 1.524 . S
C1050 C1051 1.397 . S
C1050 C1055 1.363 1_655 S
C1051 H1022 0.950 . S
C1051 C1050 1.397 . S
C1051 C1052 1.334 . S
C1052 H1023 0.950 . S
C1052 C1051 1.334 . S
C1052 C1053 1.287 . S
C1053 C1052 1.287 . S
C1053 C1054 1.524 1_655 S
C1053 H1056 0.999 . S
C1054 H1024 0.950 . S
C1054 C1053 1.524 1_455 S
C1054 C1055 1.415 . S
C1055 H1025 0.950 . S
C1055 C1050 1.363 1_455 S
C1055 C1054 1.415 . S
H1056 C1053 0.999 . S
H1057 C1038 0.913 . S
H1058 C1076 0.982 . S
H1059 C1078 0.951 1_545 S
H1060 C1080 0.950 . S
H1061 C1081 0.950 . S
H1062 C1083 0.950 . S
H1063 C1086 0.950 . S
H1064 C1087 0.950 . S
H1065 C1089 0.950 . S
H1066 C1090 0.950 . S
H1067 C1091 0.951 . S
H1068 C1093 0.951 . S
H1069 C1095 0.950 . S
H1070 C1096 0.950 . S
H1071 C1098 0.958 . S
H1072 C1101 0.950 . S
H1073 C1102 0.950 . S
H1074 C1104 0.950 . S
H1075 C1105 0.950 . S
C1076 H1058 0.982 . S
C1076 C1077 1.366 . S
C1076 C1078 1.388 . S
C1077 C1076 1.366 . S
C1077 C1081 1.385 . S
C1078 H1059 0.951 1_565 S
C1078 C1076 1.388 . S
C1078 C1079 1.366 . S
C1079 C1078 1.366 . S
C1079 C1080 1.414 . S
C1079 C1082 1.499 . S
C1080 H1060 0.950 . S
C1080 C1079 1.414 . S
C1080 C1081 1.374 . S
C1081 H1061 0.950 . S
C1081 C1077 1.385 . S
C1081 C1080 1.374 . S
C1082 C1079 1.499 . S
C1082 C1083 1.373 1_554 S
C1082 C1084 1.389 . S
C1083 H1062 0.950 . S
C1083 C1082 1.373 1_556 S
C1083 C1099 1.377 . S
C1084 C1082 1.389 . S
C1084 C1085 1.524 . S
C1084 C1098 1.371 1_565 S
C1085 C1084 1.524 . S
C1085 C1086 1.397 . S
C1085 C1090 1.363 1_565 S
C1086 H1063 0.950 . S
C1086 C1085 1.397 . S
C1086 C1087 1.334 . S
C1087 H1064 0.950 . S
C1087 C1086 1.334 . S
C1087 C1088 1.287 . S
C1088 C1087 1.287 . S
C1088 C1089 1.524 1_565 S
C1088 H1107 0.913 . S
C1089 H1065 0.950 . S
C1089 C1088 1.524 1_545 S
C1089 C1090 1.415 . S
C1090 H1066 0.950 . S
C1090 C1085 1.363 1_545 S
C1090 C1089 1.415 . S
C1091 H1067 0.951 . S
C1091 C1092 1.366 1_565 S
C1091 C1093 1.388 . S
C1092 C1091 1.366 1_545 S
C1092 C1096 1.385 . S
C1093 H1068 0.951 . S
C1093 C1091 1.388 . S
C1093 C1094 1.366 1_565 S
C1094 C1093 1.366 1_545 S
C1094 C1095 1.414 . S
C1094 C1097 1.499 1_545 S
C1095 H1069 0.950 . S
C1095 C1094 1.414 . S
C1095 C1096 1.374 . S
C1096 H1070 0.950 . S
C1096 C1092 1.385 . S
C1096 C1095 1.374 . S
C1097 C1094 1.499 1_565 S
C1097 C1098 1.372 1_566 S
C1097 C1099 1.389 . S
C1098 H1071 0.958 . S
C1098 C1084 1.371 1_545 S
C1098 C1097 1.372 1_544 S
C1099 C1083 1.377 . S
C1099 C1097 1.389 . S
C1099 C1100 1.524 . S
C1100 C1099 1.524 . S
C1100 C1101 1.397 1_565 S
C1100 C1105 1.363 . S
C1101 H1072 0.950 . S
C1101 C1100 1.397 1_545 S
C1101 C1102 1.334 . S
C1102 H1073 0.950 . S
C1102 C1101 1.334 . S
C1102 C1103 1.287 1_545 S
C1103 C1102 1.287 1_565 S
C1103 C1104 1.524 . S
C1103 H1106 0.999 . S
C1104 H1074 0.950 . S
C1104 C1103 1.524 . S
C1104 C1105 1.415 . S
C1105 H1075 0.950 . S
C1105 C1100 1.363 . S
C1105 C1104 1.415 . S
H1106 C1103 0.999 . S
H1107 C1088 0.913 . S
H1108 C1126 0.951 . S
H1109 C1128 0.951 . S
H1110 C1130 0.950 . S
H1111 C1131 0.950 . S
H1112 C1133 0.950 . S
H1113 C1136 0.950 . S
H1114 C1137 0.950 . S
H1115 C1139 0.950 . S
H1116 C1140 0.950 . S
H1117 C1141 0.951 . S
H1118 C1143 0.951 . S
H1119 C1145 0.950 1_554 S
H1120 C1146 0.950 . S
H1121 C1148 0.950 . S
H1122 C1151 0.950 . S
H1123 C1152 0.950 . S
H1124 C1154 0.950 . S
H1125 C1155 0.950 . S
C1126 H1108 0.951 . S
C1126 C1127 1.366 . S
C1126 C1128 1.388 . S
C1127 C1126 1.366 . S
C1127 C1131 1.385 . S
C1128 H1109 0.951 . S
C1128 C1126 1.388 . S
C1128 C1129 1.366 . S
C1129 C1128 1.366 . S
C1129 C1130 1.414 . S
C1129 C1132 1.499 . S
C1130 H1110 0.950 . S
C1130 C1129 1.414 . S
C1130 C1131 1.374 . S
C1131 H1111 0.950 . S
C1131 C1127 1.385 . S
C1131 C1130 1.374 . S
C1132 C1129 1.499 . S
C1132 C1133 1.373 . S
C1132 C1134 1.389 . S
C1133 H1112 0.950 . S
C1133 C1132 1.373 . S
C1133 C1149 1.377 1_554 S
C1134 C1132 1.389 . S
C1134 C1135 1.524 . S
C1134 C1148 1.377 . S
C1135 C1134 1.524 . S
C1135 C1136 1.397 . S
C1135 C1140 1.363 . S
C1136 H1113 0.950 . S
C1136 C1135 1.397 . S
C1136 C1137 1.334 . S
C1137 H1114 0.950 . S
C1137 C1136 1.334 . S
C1137 C1138 1.287 . S
C1138 C1137 1.287 . S
C1138 C1139 1.524 . S
C1138 H1157 0.913 . S
C1139 H1115 0.950 . S
C1139 C1138 1.524 . S
C1139 C1140 1.415 . S
C1140 H1116 0.950 . S
C1140 C1135 1.363 . S
C1140 C1139 1.415 . S
C1141 H1117 0.951 . S
C1141 C1142 1.366 . S
C1141 C1143 1.388 . S
C1142 C1141 1.366 . S
C1142 C1146 1.385 . S
C1143 H1118 0.951 . S
C1143 C1141 1.388 . S
C1143 C1144 1.366 . S
C1144 C1143 1.366 . S
C1144 C1145 1.414 . S
C1144 C1147 1.499 . S
C1145 H1119 0.950 1_556 S
C1145 C1144 1.414 . S
C1145 C1146 1.374 . S
C1146 H1120 0.950 . S
C1146 C1142 1.385 . S
C1146 C1145 1.374 . S
C1147 C1144 1.499 . S
C1147 C1148 1.373 1_556 S
C1147 C1149 1.389 . S
C1148 H1121 0.950 . S
C1148 C1134 1.377 . S
C1148 C1147 1.373 1_554 S
C1149 C1133 1.377 1_556 S
C1149 C1147 1.389 . S
C1149 C1150 1.524 . S
C1150 C1149 1.524 . S
C1150 C1151 1.397 . S
C1150 C1155 1.363 . S
C1151 H1122 0.950 . S
C1151 C1150 1.397 . S
C1151 C1152 1.334 . S
C1152 H1123 0.950 . S
C1152 C1151 1.334 . S
C1152 C1153 1.287 . S
C1153 C1152 1.287 . S
C1153 C1154 1.524 . S
C1153 H1156 0.999 . S
C1154 H1124 0.950 . S
C1154 C1153 1.524 . S
C1154 C1155 1.415 . S
C1155 H1125 0.950 . S
C1155 C1150 1.363 . S
C1155 C1154 1.415 . S
H1156 C1153 0.999 . S
H1157 C1138 0.913 . S
H1158 C1176 0.951 . S
H1159 C1178 0.951 . S
H1160 C1180 0.950 . S
H1161 C1181 0.950 . S
H1162 C1183 0.950 . S
H1163 C1186 0.950 . S
H1164 C1187 0.950 . S
H1165 C1189 0.950 . S
H1166 C1190 0.950 . S
H1167 C1191 0.951 . S
H1168 C1193 0.951 . S
H1169 C1195 0.950 . S
H1170 C1196 0.950 . S
H1171 C1198 0.950 . S
H1172 C1201 0.950 . S
H1173 C1202 0.950 . S
H1174 C1204 0.950 . S
H1175 C1205 0.950 . S
C1176 H1158 0.951 . S
C1176 C1177 1.366 . S
C1176 C1178 1.388 . S
C1177 C1176 1.366 . S
C1177 C1181 1.385 . S
C1178 H1159 0.951 . S
C1178 C1176 1.388 . S
C1178 C1179 1.366 . S
C1179 C1178 1.366 . S
C1179 C1180 1.414 . S
C1179 C1182 1.499 . S
C1180 H1160 0.950 . S
C1180 C1179 1.414 . S
C1180 C1181 1.374 . S
C1181 H1161 0.950 . S
C1181 C1177 1.385 . S
C1181 C1180 1.374 . S
C1182 C1179 1.499 . S
C1182 C1183 1.373 1_554 S
C1182 C1184 1.389 . S
C1183 H1162 0.950 . S
C1183 C1182 1.373 1_556 S
C1183 C1199 1.377 . S
C1184 C1182 1.389 . S
C1184 C1185 1.524 . S
C1184 C1198 1.377 . S
C1185 C1184 1.524 . S
C1185 C1186 1.397 . S
C1185 C1190 1.363 . S
C1186 H1163 0.950 . S
C1186 C1185 1.397 . S
C1186 C1187 1.334 . S
C1187 H1164 0.950 . S
C1187 C1186 1.334 . S
C1187 C1188 1.287 . S
C1188 C1187 1.287 . S
C1188 C1189 1.524 . S
C1188 H1207 0.913 . S
C1189 H1165 0.950 . S
C1189 C1188 1.524 . S
C1189 C1190 1.415 . S
C1190 H1166 0.950 . S
C1190 C1185 1.363 . S
C1190 C1189 1.415 . S
C1191 H1167 0.951 . S
C1191 C1192 1.366 . S
C1191 C1193 1.388 . S
C1192 C1191 1.366 . S
C1192 C1196 1.385 . S
C1193 H1168 0.951 . S
C1193 C1191 1.388 . S
C1193 C1194 1.366 . S
C1194 C1193 1.366 . S
C1194 C1195 1.414 . S
C1194 C1197 1.499 . S
C1195 H1169 0.950 . S
C1195 C1194 1.414 . S
C1195 C1196 1.374 . S
C1196 H1170 0.950 . S
C1196 C1192 1.385 . S
C1196 C1195 1.374 . S
C1197 C1194 1.499 . S
C1197 C1198 1.373 1_556 S
C1197 C1199 1.389 . S
C1198 H1171 0.950 . S
C1198 C1184 1.377 . S
C1198 C1197 1.373 1_554 S
C1199 C1183 1.377 . S
C1199 C1197 1.389 . S
C1199 C1200 1.524 . S
C1200 C1199 1.524 . S
C1200 C1201 1.397 . S
C1200 C1205 1.363 . S
C1201 H1172 0.950 . S
C1201 C1200 1.397 . S
C1201 C1202 1.334 . S
C1202 H1173 0.950 . S
C1202 C1201 1.334 . S
C1202 C1203 1.287 . S
C1203 C1202 1.287 . S
C1203 C1204 1.524 . S
C1203 H1206 0.999 . S
C1204 H1174 0.950 . S
C1204 C1203 1.524 . S
C1204 C1205 1.415 . S
C1205 H1175 0.950 . S
C1205 C1200 1.363 . S
C1205 C1204 1.415 . S
H1206 C1203 0.999 . S
H1207 C1188 0.913 . S
H1208 C1226 0.951 1_554 S
H1209 C1228 0.951 . S
H1210 C1230 0.950 . S
H1211 C1231 0.950 . S
H1212 C1233 0.950 . S
H1213 C1236 0.950 . S
H1214 C1237 0.950 . S
H1215 C1239 0.950 1_554 S
H1216 C1240 0.950 . S
H1217 C1241 0.951 . S
H1218 C1243 0.951 . S
H1219 C1245 0.950 . S
H1220 C1246 0.950 . S
H1221 C1248 0.950 . S
H1222 C1251 0.950 . S
H1223 C1252 0.950 . S
H1224 C1254 0.950 . S
H1225 C1255 0.950 1_455 S
C1226 H1208 0.951 1_556 S
C1226 C1227 1.366 . S
C1226 C1228 1.388 . S
C1227 C1226 1.366 . S
C1227 C1231 1.385 . S
C1228 H1209 0.951 . S
C1228 C1226 1.388 . S
C1228 C1229 1.366 . S
C1229 C1228 1.366 . S
C1229 C1230 1.414 . S
C1229 C1232 1.499 . S
C1230 H1210 0.950 . S
C1230 C1229 1.414 . S
C1230 C1231 1.374 . S
C1231 H1211 0.950 . S
C1231 C1227 1.385 . S
C1231 C1230 1.374 . S
C1232 C1229 1.499 . S
C1232 C1233 1.373 . S
C1232 C1234 1.389 . S
C1233 H1212 0.950 . S
C1233 C1232 1.373 . S
C1233 C1249 1.377 . S
C1234 C1232 1.389 . S
C1234 C1235 1.524 . S
C1234 C1248 1.377 . S
C1235 C1234 1.524 . S
C1235 C1236 1.397 . S
C1235 C1240 1.363 . S
C1236 H1213 0.950 . S
C1236 C1235 1.397 . S
C1236 C1237 1.334 . S
C1237 H1214 0.950 . S
C1237 C1236 1.334 . S
C1237 C1238 1.287 . S
C1238 C1237 1.287 . S
C1238 C1239 1.524 . S
C1238 H1257 0.913 . S
C1239 H1215 0.950 1_556 S
C1239 C1238 1.524 . S
C1239 C1240 1.415 . S
C1240 H1216 0.950 . S
C1240 C1235 1.363 . S
C1240 C1239 1.415 . S
C1241 H1217 0.951 . S
C1241 C1242 1.366 . S
C1241 C1243 1.388 . S
C1242 C1241 1.366 . S
C1242 C1246 1.385 . S
C1243 H1218 0.951 . S
C1243 C1241 1.388 . S
C1243 C1244 1.366 . S
C1244 C1243 1.366 . S
C1244 C1245 1.414 . S
C1244 C1247 1.499 . S
C1245 H1219 0.950 . S
C1245 C1244 1.414 . S
C1245 C1246 1.374 . S
C1246 H1220 0.950 . S
C1246 C1242 1.385 . S
C1246 C1245 1.374 . S
C1247 C1244 1.499 . S
C1247 C1248 1.373 . S
C1247 C1249 1.389 . S
C1248 H1221 0.950 . S
C1248 C1234 1.377 . S
C1248 C1247 1.373 . S
C1249 C1233 1.377 . S
C1249 C1247 1.389 . S
C1249 C1250 1.524 1_455 S
C1250 C1249 1.524 1_655 S
C1250 C1251 1.397 . S
C1250 C1255 1.363 . S
C1251 H1222 0.950 . S
C1251 C1250 1.397 . S
C1251 C1252 1.334 . S
C1252 H1223 0.950 . S
C1252 C1251 1.334 . S
C1252 C1253 1.287 . S
C1253 C1252 1.287 . S
C1253 C1254 1.524 . S
C1253 H1256 0.999 . S
C1254 H1224 0.950 . S
C1254 C1253 1.524 . S
C1254 C1255 1.415 . S
C1255 H1225 0.950 1_655 S
C1255 C1250 1.363 . S
C1255 C1254 1.415 . S
H1256 C1253 0.999 . S
H1257 C1238 0.913 . S
H1258 C1276 0.951 . S
H1259 C1278 0.951 . S
H1260 C1280 0.950 . S
H1261 C1281 0.950 . S
H1262 C1283 0.950 . S
H1263 C1286 0.950 . S
H1264 C1287 0.950 . S
H1265 C1289 0.950 . S
H1266 C1290 0.950 . S
H1267 C1291 0.951 . S
H1268 C1293 0.951 . S
H1269 C1295 0.950 . S
H1270 C1296 0.950 1_565 S
H1271 C1298 0.950 . S
H1272 C1301 0.950 1_565 S
H1273 C1302 0.950 1_565 S
H1274 C1304 0.950 . S
H1275 C1305 0.950 . S
C1276 H1258 0.951 . S
C1276 C1277 1.366 . S
C1276 C1278 1.388 . S
C1277 C1276 1.366 . S
C1277 C1281 1.385 . S
C1278 H1259 0.951 . S
C1278 C1276 1.388 . S
C1278 C1279 1.366 . S
C1279 C1278 1.366 . S
C1279 C1280 1.414 . S
C1279 C1282 1.499 . S
C1280 H1260 0.950 . S
C1280 C1279 1.414 . S
C1280 C1281 1.374 . S
C1281 H1261 0.950 . S
C1281 C1277 1.385 . S
C1281 C1280 1.374 . S
C1282 C1279 1.499 . S
C1282 C1283 1.373 . S
C1282 C1284 1.389 . S
C1283 H1262 0.950 . S
C1283 C1282 1.373 . S
C1283 C1299 1.377 . S
C1284 C1282 1.389 . S
C1284 C1285 1.524 . S
C1284 C1298 1.377 . S
C1285 C1284 1.524 . S
C1285 C1286 1.397 . S
C1285 C1290 1.363 . S
C1286 H1263 0.950 . S
C1286 C1285 1.397 . S
C1286 C1287 1.334 1_556 S
C1287 H1264 0.950 . S
C1287 C1286 1.334 1_554 S
C1287 C1288 1.287 . S
C1288 C1287 1.287 . S
C1288 C1289 1.524 . S
C1288 H1307 0.913 . S
C1289 H1265 0.950 . S
C1289 C1288 1.524 . S
C1289 C1290 1.415 1_554 S
C1290 H1266 0.950 . S
C1290 C1285 1.363 . S
C1290 C1289 1.415 1_556 S
C1291 H1267 0.951 . S
C1291 C1292 1.366 . S
C1291 C1293 1.388 . S
C1292 C1291 1.366 . S
C1292 C1296 1.385 . S
C1293 H1268 0.951 . S
C1293 C1291 1.388 . S
C1293 C1294 1.366 . S
C1294 C1293 1.366 . S
C1294 C1295 1.414 . S
C1294 C1297 1.499 . S
C1295 H1269 0.950 . S
C1295 C1294 1.414 . S
C1295 C1296 1.374 . S
C1296 H1270 0.950 1_545 S
C1296 C1292 1.385 . S
C1296 C1295 1.374 . S
C1297 C1294 1.499 . S
C1297 C1298 1.373 . S
C1297 C1299 1.389 . S
C1298 H1271 0.950 . S
C1298 C1284 1.377 . S
C1298 C1297 1.373 . S
C1299 C1283 1.377 . S
C1299 C1297 1.389 . S
C1299 C1300 1.524 . S
C1300 C1299 1.524 . S
C1300 C1301 1.397 . S
C1300 C1305 1.363 . S
C1301 H1272 0.950 1_545 S
C1301 C1300 1.397 . S
C1301 C1302 1.334 . S
C1302 H1273 0.950 1_545 S
C1302 C1301 1.334 . S
C1302 C1303 1.287 . S
C1303 C1302 1.287 . S
C1303 C1304 1.524 . S
C1303 H1306 0.999 . S
C1304 H1274 0.950 . S
C1304 C1303 1.524 . S
C1304 C1305 1.415 . S
C1305 H1275 0.950 . S
C1305 C1300 1.363 . S
C1305 C1304 1.415 . S
H1306 C1303 0.999 . S
H1307 C1288 0.913 . S
H1308 C1326 0.951 . S
H1309 C1328 0.951 . S
H1310 C1330 0.950 . S
H1311 C1331 0.950 . S
H1312 C1333 0.950 . S
H1313 C1336 0.950 . S
H1314 C1337 0.950 . S
H1315 C1339 0.950 . S
H1316 C1340 0.950 . S
H1317 C1341 0.951 . S
H1318 C1343 0.951 . S
H1319 C1345 0.950 . S
H1320 C1346 0.950 . S
H1321 C1348 0.950 . S
H1322 C1351 0.950 . S
H1323 C1352 0.950 . S
H1324 C1354 0.950 . S
H1325 C1355 0.950 . S
C1326 H1308 0.951 . S
C1326 C1327 1.366 . S
C1326 C1328 1.388 . S
C1327 C1326 1.366 . S
C1327 C1331 1.385 . S
C1328 H1309 0.951 . S
C1328 C1326 1.388 . S
C1328 C1329 1.366 . S
C1329 C1328 1.366 . S
C1329 C1330 1.414 . S
C1329 C1332 1.499 . S
C1330 H1310 0.950 . S
C1330 C1329 1.414 . S
C1330 C1331 1.374 . S
C1331 H1311 0.950 . S
C1331 C1327 1.385 . S
C1331 C1330 1.374 . S
C1332 C1329 1.499 . S
C1332 C1333 1.373 . S
C1332 C1334 1.389 . S
C1333 H1312 0.950 . S
C1333 C1332 1.373 . S
C1333 C1349 1.377 . S
C1334 C1332 1.389 . S
C1334 C1335 1.524 . S
C1334 C1348 1.377 . S
C1335 C1334 1.524 . S
C1335 C1336 1.397 . S
C1335 C1340 1.363 . S
C1336 H1313 0.950 . S
C1336 C1335 1.397 . S
C1336 C1337 1.334 . S
C1337 H1314 0.950 . S
C1337 C1336 1.334 . S
C1337 C1338 1.287 . S
C1338 C1337 1.287 . S
C1338 C1339 1.524 . S
C1338 H1357 0.913 . S
C1339 H1315 0.950 . S
C1339 C1338 1.524 . S
C1339 C1340 1.415 . S
C1340 H1316 0.950 . S
C1340 C1335 1.363 . S
C1340 C1339 1.415 . S
C1341 H1317 0.951 . S
C1341 C1342 1.366 . S
C1341 C1343 1.388 . S
C1342 C1341 1.366 . S
C1342 C1346 1.385 . S
C1343 H1318 0.951 . S
C1343 C1341 1.388 . S
C1343 C1344 1.366 . S
C1344 C1343 1.366 . S
C1344 C1345 1.414 . S
C1344 C1347 1.499 . S
C1345 H1319 0.950 . S
C1345 C1344 1.414 . S
C1345 C1346 1.374 . S
C1346 H1320 0.950 . S
C1346 C1342 1.385 . S
C1346 C1345 1.374 . S
C1347 C1344 1.499 . S
C1347 C1348 1.373 . S
C1347 C1349 1.389 . S
C1348 H1321 0.950 . S
C1348 C1334 1.377 . S
C1348 C1347 1.373 . S
C1349 C1333 1.377 . S
C1349 C1347 1.389 . S
C1349 C1350 1.524 . S
C1350 C1349 1.524 . S
C1350 C1351 1.397 . S
C1350 C1355 1.363 . S
C1351 H1322 0.950 . S
C1351 C1350 1.397 . S
C1351 C1352 1.334 . S
C1352 H1323 0.950 . S
C1352 C1351 1.334 . S
C1352 C1353 1.287 . S
C1353 C1352 1.287 . S
C1353 C1354 1.524 . S
C1353 H1356 0.999 . S
C1354 H1324 0.950 . S
C1354 C1353 1.524 . S
C1354 C1355 1.415 . S
C1355 H1325 0.950 . S
C1355 C1350 1.363 . S
C1355 C1354 1.415 . S
H1356 C1353 0.999 . S
H1357 C1338 0.913 . S
H1358 C1376 0.951 1_554 S
H1359 C1378 0.951 . S
H1360 C1380 0.950 . S
H1361 C1381 0.950 . S
H1362 C1383 0.950 . S
H1363 C1386 0.950 . S
H1364 C1387 0.950 . S
H1365 C1389 0.950 . S
H1366 C1390 0.950 . S
H1367 C1391 0.951 . S
H1368 C1393 0.951 . S
H1369 C1395 0.950 . S
H1370 C1396 0.950 . S
H1371 C1398 0.950 . S
H1372 C1401 0.950 . S
H1373 C1402 0.950 . S
H1374 C1404 0.950 . S
H1375 C1405 0.950 . S
C1376 H1358 0.951 1_556 S
C1376 C1377 1.366 . S
C1376 C1378 1.388 . S
C1377 C1376 1.366 . S
C1377 C1381 1.385 . S
C1378 H1359 0.951 . S
C1378 C1376 1.388 . S
C1378 C1379 1.366 . S
C1379 C1378 1.366 . S
C1379 C1380 1.414 . S
C1379 C1382 1.499 . S
C1380 H1360 0.950 . S
C1380 C1379 1.414 . S
C1380 C1381 1.374 . S
C1381 H1361 0.950 . S
C1381 C1377 1.385 . S
C1381 C1380 1.374 . S
C1382 C1379 1.499 . S
C1382 C1383 1.373 . S
C1382 C1384 1.389 . S
C1383 H1362 0.950 . S
C1383 C1382 1.373 . S
C1383 C1399 1.377 . S
C1384 C1382 1.389 . S
C1384 C1385 1.524 . S
C1384 C1398 1.377 . S
C1385 C1384 1.524 . S
C1385 C1386 1.397 . S
C1385 C1390 1.363 . S
C1386 H1363 0.950 . S
C1386 C1385 1.397 . S
C1386 C1387 1.334 . S
C1387 H1364 0.950 . S
C1387 C1386 1.334 . S
C1387 C1388 1.287 . S
C1388 C1387 1.287 . S
C1388 C1389 1.524 . S
C1388 H1407 0.913 . S
C1389 H1365 0.950 . S
C1389 C1388 1.524 . S
C1389 C1390 1.415 . S
C1390 H1366 0.950 . S
C1390 C1385 1.363 . S
C1390 C1389 1.415 . S
C1391 H1367 0.951 . S
C1391 C1392 1.366 . S
C1391 C1393 1.388 . S
C1392 C1391 1.366 . S
C1392 C1396 1.385 . S
C1393 H1368 0.951 . S
C1393 C1391 1.388 . S
C1393 C1394 1.366 . S
C1394 C1393 1.366 . S
C1394 C1395 1.414 . S
C1394 C1397 1.499 . S
C1395 H1369 0.950 . S
C1395 C1394 1.414 . S
C1395 C1396 1.374 . S
C1396 H1370 0.950 . S
C1396 C1392 1.385 . S
C1396 C1395 1.374 . S
C1397 C1394 1.499 . S
C1397 C1398 1.373 . S
C1397 C1399 1.389 . S
C1398 H1371 0.950 . S
C1398 C1384 1.377 . S
C1398 C1397 1.373 . S
C1399 C1383 1.377 . S
C1399 C1397 1.389 . S
C1399 C1400 1.524 . S
C1400 C1399 1.524 . S
C1400 C1401 1.397 . S
C1400 C1405 1.363 . S
C1401 H1372 0.950 . S
C1401 C1400 1.397 . S
C1401 C1402 1.334 . S
C1402 H1373 0.950 . S
C1402 C1401 1.334 . S
C1402 C1403 1.287 . S
C1403 C1402 1.287 . S
C1403 C1404 1.524 . S
C1403 H1406 0.999 . S
C1404 H1374 0.950 . S
C1404 C1403 1.524 . S
C1404 C1405 1.415 . S
C1405 H1375 0.950 . S
C1405 C1400 1.363 . S
C1405 C1404 1.415 . S
H1406 C1403 0.999 . S
H1407 C1388 0.913 . S
H1408 C1426 0.951 . S
H1409 C1428 0.951 . S
H1410 C1430 0.961 . S
H1411 C1431 0.950 . S
H1412 C1433 0.950 1_455 S
H1413 C1436 0.950 . S
H1414 C1437 0.950 . S
H1415 C1439 0.950 . S
H1416 C1440 0.950 . S
H1417 C1441 0.951 . S
H1418 C1443 0.951 . S
H1419 C1445 0.950 . S
H1420 C1446 0.950 . S
H1421 C1448 0.950 . S
H1422 C1451 0.950 . S
H1423 C1452 0.950 . S
H1424 C1454 0.950 . S
H1425 C1455 0.950 . S
C1426 H1408 0.951 . S
C1426 C1427 1.366 . S
C1426 C1428 1.388 . S
C1427 C1426 1.366 . S
C1427 C1431 1.385 . S
C1428 H1409 0.951 . S
C1428 C1426 1.388 . S
C1428 C1429 1.366 . S
C1429 C1428 1.366 . S
C1429 C1430 1.414 . S
C1429 C1432 1.499 . S
C1430 H1410 0.961 . S
C1430 C1429 1.414 . S
C1430 C1431 1.374 . S
C1431 H1411 0.950 . S
C1431 C1427 1.385 . S
C1431 C1430 1.374 . S
C1432 C1429 1.499 . S
C1432 C1433 1.373 . S
C1432 C1434 1.389 . S
C1433 H1412 0.950 1_655 S
C1433 C1432 1.373 . S
C1433 C1449 1.373 1_655 S
C1434 C1432 1.389 . S
C1434 C1435 1.524 . S
C1434 C1448 1.377 . S
C1435 C1434 1.524 . S
C1435 C1436 1.397 . S
C1435 C1440 1.363 . S
C1436 H1413 0.950 . S
C1436 C1435 1.397 . S
C1436 C1437 1.334 . S
C1437 H1414 0.950 . S
C1437 C1436 1.334 . S
C1437 C1438 1.287 . S
C1438 C1437 1.287 . S
C1438 C1439 1.524 . S
C1438 H1457 0.913 . S
C1439 H1415 0.950 . S
C1439 C1438 1.524 . S
C1439 C1440 1.415 . S
C1440 H1416 0.950 . S
C1440 C1435 1.363 . S
C1440 C1439 1.415 . S
C1441 H1417 0.951 . S
C1441 C1442 1.366 1_455 S
C1441 C1443 1.388 . S
C1442 C1441 1.366 1_655 S
C1442 C1446 1.385 . S
C1443 H1418 0.951 . S
C1443 C1441 1.388 . S
C1443 C1444 1.366 1_455 S
C1444 C1443 1.366 1_655 S
C1444 C1445 1.414 . S
C1444 C1447 1.499 . S
C1445 H1419 0.950 . S
C1445 C1444 1.414 . S
C1445 C1446 1.374 . S
C1446 H1420 0.950 . S
C1446 C1442 1.385 . S
C1446 C1445 1.374 . S
C1447 C1444 1.499 . S
C1447 C1448 1.373 . S
C1447 C1449 1.359 1_655 S
C1448 H1421 0.950 . S
C1448 C1434 1.377 . S
C1448 C1447 1.373 . S
C1449 C1433 1.373 1_455 S
C1449 C1447 1.359 1_455 S
C1449 C1450 1.560 . S
C1450 C1449 1.560 . S
C1450 C1451 1.397 . S
C1450 C1455 1.363 . S
C1451 H1422 0.950 . S
C1451 C1450 1.397 . S
C1451 C1452 1.334 . S
C1452 H1423 0.950 . S
C1452 C1451 1.334 . S
C1452 C1453 1.287 . S
C1453 C1452 1.287 . S
C1453 C1454 1.524 . S
C1453 H1456 0.999 . S
C1454 H1424 0.950 . S
C1454 C1453 1.524 . S
C1454 C1455 1.415 . S
C1455 H1425 0.950 . S
C1455 C1450 1.363 . S
C1455 C1454 1.415 . S
H1456 C1453 0.999 . S
H1457 C1438 0.913 . S
H1458 C1476 0.951 . S
H1459 C1478 0.951 . S
H1460 C1480 0.950 . S
H1461 C1481 0.950 . S
H1462 C1483 0.950 . S
H1463 C1486 0.950 . S
H1464 C1487 0.950 . S
H1465 C1489 0.950 . S
H1466 C1490 0.950 . S
H1467 C1491 0.951 . S
H1468 C1493 0.951 . S
H1469 C1495 0.947 1_545 S
H1470 C1496 0.940 1_545 S
H1471 C1498 0.950 . S
H1472 C1501 0.950 . S
H1473 C1502 0.950 . S
H1474 C1504 0.950 . S
H1475 C1505 0.950 1_565 S
C1476 H1458 0.951 . S
C1476 C1477 1.366 . S
C1476 C1478 1.388 . S
C1477 C1476 1.366 . S
C1477 C1481 1.385 . S
C1478 H1459 0.951 . S
C1478 C1476 1.388 . S
C1478 C1479 1.366 . S
C1479 C1478 1.366 . S
C1479 C1480 1.414 . S
C1479 C1482 1.499 . S
C1480 H1460 0.950 . S
C1480 C1479 1.414 . S
C1480 C1481 1.374 . S
C1481 H1461 0.950 . S
C1481 C1477 1.385 . S
C1481 C1480 1.374 . S
C1482 C1479 1.499 . S
C1482 C1483 1.373 . S
C1482 C1484 1.389 . S
C1483 H1462 0.950 . S
C1483 C1482 1.373 . S
C1483 C1499 1.377 . S
C1484 C1482 1.389 . S
C1484 C1485 1.524 . S
C1484 C1498 1.377 . S
C1485 C1484 1.524 . S
C1485 C1486 1.397 . S
C1485 C1490 1.363 . S
C1486 H1463 0.950 . S
C1486 C1485 1.397 . S
C1486 C1487 1.334 . S
C1487 H1464 0.950 . S
C1487 C1486 1.334 . S
C1487 C1488 1.287 . S
C1488 C1487 1.287 . S
C1488 C1489 1.524 . S
C1488 H1507 0.913 . S
C1489 H1465 0.950 . S
C1489 C1488 1.524 . S
C1489 C1490 1.415 . S
C1490 H1466 0.950 . S
C1490 C1485 1.363 . S
C1490 C1489 1.415 . S
C1491 H1467 0.951 . S
C1491 C1492 1.366 . S
C1491 C1493 1.388 . S
C1492 C1491 1.366 . S
C1492 C1496 1.392 . S
C1493 H1468 0.951 . S
C1493 C1491 1.388 . S
C1493 C1494 1.366 . S
C1494 C1493 1.366 . S
C1494 C1495 1.414 . S
C1494 C1497 1.499 . S
C1495 H1469 0.947 1_565 S
C1495 C1494 1.414 . S
C1495 C1496 1.377 . S
C1496 H1470 0.940 1_565 S
C1496 C1492 1.392 . S
C1496 C1495 1.377 . S
C1497 C1494 1.499 . S
C1497 C1498 1.373 . S
C1497 C1499 1.389 . S
C1498 H1471 0.950 . S
C1498 C1484 1.377 . S
C1498 C1497 1.373 . S
C1499 C1483 1.377 . S
C1499 C1497 1.389 . S
C1499 C1500 1.524 1_565 S
C1500 C1499 1.524 1_545 S
C1500 C1501 1.397 . S
C1500 C1505 1.363 . S
C1501 H1472 0.950 . S
C1501 C1500 1.397 . S
C1501 C1502 1.334 . S
C1502 H1473 0.950 . S
C1502 C1501 1.334 . S
C1502 C1503 1.287 . S
C1503 C1502 1.287 . S
C1503 C1504 1.524 . S
C1503 H1506 0.999 . S
C1504 H1474 0.950 . S
C1504 C1503 1.524 . S
C1504 C1505 1.415 . S
C1505 H1475 0.950 1_545 S
C1505 C1500 1.363 . S
C1505 C1504 1.415 . S
H1506 C1503 0.999 . S
H1507 C1488 0.913 . S
H1508 C1526 0.951 . S
H1509 C1528 0.951 . S
H1510 C1530 0.950 . S
H1511 C1531 0.950 . S
H1512 C1533 0.950 . S
H1513 C1536 0.950 . S
H1514 C1537 0.950 . S
H1515 C1539 0.950 . S
H1516 C1540 0.950 . S
H1517 C1541 0.951 . S
H1518 C1543 0.951 . S
H1519 C1545 0.950 . S
H1520 C1546 0.950 . S
H1521 C1548 0.950 . S
H1522 C1551 0.950 . S
H1523 C1552 0.950 . S
H1524 C1554 0.950 . S
H1525 C1555 0.950 . S
C1526 H1508 0.951 . S
C1526 C1527 1.366 . S
C1526 C1528 1.388 . S
C1527 C1526 1.366 . S
C1527 C1531 1.385 . S
C1528 H1509 0.951 . S
C1528 C1526 1.388 . S
C1528 C1529 1.366 . S
C1529 C1528 1.366 . S
C1529 C1530 1.414 . S
C1529 C1532 1.499 . S
C1530 H1510 0.950 . S
C1530 C1529 1.414 . S
C1530 C1531 1.374 . S
C1531 H1511 0.950 . S
C1531 C1527 1.385 . S
C1531 C1530 1.374 . S
C1532 C1529 1.499 . S
C1532 C1533 1.373 . S
C1532 C1534 1.389 . S
C1533 H1512 0.950 . S
C1533 C1532 1.373 . S
C1533 C1549 1.377 . S
C1534 C1532 1.389 . S
C1534 C1535 1.524 . S
C1534 C1548 1.377 . S
C1535 C1534 1.524 . S
C1535 C1536 1.397 . S
C1535 C1540 1.363 . S
C1536 H1513 0.950 . S
C1536 C1535 1.397 . S
C1536 C1537 1.334 . S
C1537 H1514 0.950 . S
C1537 C1536 1.334 . S
C1537 C1538 1.287 . S
C1538 C1537 1.287 . S
C1538 C1539 1.524 . S
C1538 H1557 0.913 . S
C1539 H1515 0.950 . S
C1539 C1538 1.524 . S
C1539 C1540 1.415 . S
C1540 H1516 0.950 . S
C1540 C1535 1.363 . S
C1540 C1539 1.415 . S
C1541 H1517 0.951 . S
C1541 C1542 1.366 . S
C1541 C1543 1.388 . S
C1542 C1541 1.366 . S
C1542 C1546 1.385 . S
C1543 H1518 0.951 . S
C1543 C1541 1.388 . S
C1543 C1544 1.366 . S
C1544 C1543 1.366 . S
C1544 C1545 1.414 . S
C1544 C1547 1.499 . S
C1545 H1519 0.950 . S
C1545 C1544 1.414 . S
C1545 C1546 1.374 . S
C1546 H1520 0.950 . S
C1546 C1542 1.385 . S
C1546 C1545 1.374 . S
C1547 C1544 1.499 . S
C1547 C1548 1.373 . S
C1547 C1549 1.389 . S
C1548 H1521 0.950 . S
C1548 C1534 1.377 . S
C1548 C1547 1.373 . S
C1549 C1533 1.377 . S
C1549 C1547 1.389 . S
C1549 C1550 1.524 . S
C1550 C1549 1.524 . S
C1550 C1551 1.397 . S
C1550 C1555 1.363 . S
C1551 H1522 0.950 . S
C1551 C1550 1.397 . S
C1551 C1552 1.334 . S
C1552 H1523 0.950 . S
C1552 C1551 1.334 . S
C1552 C1553 1.287 . S
C1553 C1552 1.287 . S
C1553 C1554 1.524 . S
C1553 H1556 0.999 . S
C1554 H1524 0.950 . S
C1554 C1553 1.524 . S
C1554 C1555 1.415 . S
C1555 H1525 0.950 . S
C1555 C1550 1.363 . S
C1555 C1554 1.415 . S
H1556 C1553 0.999 . S
H1557 C1538 0.913 . S
H1558 C1576 0.951 . S
H1559 C1578 0.951 . S
H1560 C1580 0.950 . S
H1561 C1581 0.950 . S
H1562 C1583 0.950 . S
H1563 C1586 0.950 . S
H1564 C1587 0.950 . S
H1565 C1589 0.950 . S
H1566 C1590 0.950 . S
H1567 C1591 0.951 . S
H1568 C1593 0.951 . S
H1569 C1595 0.950 . S
H1570 C1596 0.950 . S
H1571 C1598 0.950 . S
H1572 C1601 0.950 . S
H1573 C1602 0.950 . S
H1574 C1604 0.950 . S
H1575 C1605 0.950 . S
C1576 H1558 0.951 . S
C1576 C1577 1.366 . S
C1576 C1578 1.388 . S
C1577 C1576 1.366 . S
C1577 C1581 1.385 . S
C1578 H1559 0.951 . S
C1578 C1576 1.388 . S
C1578 C1579 1.366 . S
C1579 C1578 1.366 . S
C1579 C1580 1.414 . S
C1579 C1582 1.499 . S
C1580 H1560 0.950 . S
C1580 C1579 1.414 . S
C1580 C1581 1.374 . S
C1581 H1561 0.950 . S
C1581 C1577 1.385 . S
C1581 C1580 1.374 . S
C1582 C1579 1.499 . S
C1582 C1583 1.373 . S
C1582 C1584 1.389 . S
C1583 H1562 0.950 . S
C1583 C1582 1.373 . S
C1583 C1599 1.377 . S
C1584 C1582 1.389 . S
C1584 C1585 1.524 . S
C1584 C1598 1.377 . S
C1585 C1584 1.524 . S
C1585 C1586 1.397 . S
C1585 C1590 1.363 . S
C1586 H1563 0.950 . S
C1586 C1585 1.397 . S
C1586 C1587 1.334 . S
C1587 H1564 0.950 . S
C1587 C1586 1.334 . S
C1587 C1588 1.287 . S
C1588 C1587 1.287 . S
C1588 C1589 1.524 . S
C1588 H1607 0.913 . S
C1589 H1565 0.950 . S
C1589 C1588 1.524 . S
C1589 C1590 1.415 . S
C1590 H1566 0.950 . S
C1590 C1585 1.363 . S
C1590 C1589 1.415 . S
C1591 H1567 0.951 . S
C1591 C1592 1.366 . S
C1591 C1593 1.388 . S
C1592 C1591 1.366 . S
C1592 C1596 1.385 . S
C1593 H1568 0.951 . S
C1593 C1591 1.388 . S
C1593 C1594 1.366 . S
C1594 C1593 1.366 . S
C1594 C1595 1.414 . S
C1594 C1597 1.499 . S
C1595 H1569 0.950 . S
C1595 C1594 1.414 . S
C1595 C1596 1.374 . S
C1596 H1570 0.950 . S
C1596 C1592 1.385 . S
C1596 C1595 1.374 . S
C1597 C1594 1.499 . S
C1597 C1598 1.373 . S
C1597 C1599 1.389 . S
C1598 H1571 0.950 . S
C1598 C1584 1.377 . S
C1598 C1597 1.373 . S
C1599 C1583 1.377 . S
C1599 C1597 1.389 . S
C1599 C1600 1.524 . S
C1600 C1599 1.524 . S
C1600 C1601 1.397 . S
C1600 C1605 1.363 . S
C1601 H1572 0.950 . S
C1601 C1600 1.397 . S
C1601 C1602 1.334 . S
C1602 H1573 0.950 . S
C1602 C1601 1.334 . S
C1602 C1603 1.287 . S
C1603 C1602 1.287 . S
C1603 C1604 1.524 . S
C1603 H1606 0.999 . S
C1604 H1574 0.950 . S
C1604 C1603 1.524 . S
C1604 C1605 1.415 . S
C1605 H1575 0.950 . S
C1605 C1600 1.363 . S
C1605 C1604 1.415 . S
H1606 C1603 0.999 . S
H1607 C1588 0.913 . S
C427 C61 1.739 . S
C442 C135 1.824 . S
C492 C212 1.837 . S
C477 C70 1.754 . S
C542 C303 1.815 . S
C527 C43 1.729 . S
C592 C387 1.809 . S
C577 C52 1.726 . S
C642 C146 1.821 1_565 S
C627 C25 1.742 . S
C677 C34 1.751 . S
C692 C223 1.837 . S
C727 C7 1.732 . S
C742 C314 1.815 . S
C777 C16 1.728 . S
C792 C398 1.809 1_655 S
C842 C130 0.500 . S
C827 C50 0.335 . S
C892 C225 0.544 . S
C877 C59 0.312 . S
C942 C298 0.451 . S
C927 C67 0.326 . S
C977 C41 0.323 . S
C992 C382 0.448 . S
C1027 C14 0.320 . S
C1042 C141 0.454 . S
C1092 C214 0.544 . S
C1077 C23 0.296 . S
C1142 C309 0.455 . S
C1127 C31 0.331 . S
C1177 C5 0.308 . S
C1192 C393 0.451 . S
C1227 C49 1.784 . S
C1242 C139 1.949 . S
C1277 C58 1.781 . S
C1292 C230 1.929 . S
C1342 C307 1.962 . S
C1327 C68 1.796 . S
C1392 C391 1.967 . S
C1377 C40 1.801 . S
C1427 C13 1.786 . S
C1442 C128 1.949 . S
C1492 C219 1.931 . S
C1477 C22 1.781 . S
C1542 C296 1.962 . S
C1527 C32 1.793 . S
C1577 C4 1.803 . S
C1592 C380 1.967 . S
