# Generated by pormake.
# Topology zzz, (3,6)-cn, num edge types: 1
# Building blocks:
#     Node 0, Type 0, BuildingBlock: QEWDON_clean_linker_0, # of connection points: 3
#     Node 1, Type 0, BuildingBlock: QEWDON_clean_linker_0, # of connection points: 3
#     Node 2, Type 0, BuildingBlock: QEWDON_clean_linker_0, # of connection points: 3
#     Node 3, Type 0, BuildingBlock: QEWDON_clean_linker_0, # of connection points: 3
#     Node 4, Type 0, BuildingBlock: QEWDON_clean_linker_0, # of connection points: 3
#     Node 5, Type 0, BuildingBlock: QEWDON_clean_linker_0, # of connection points: 3
#     Node 6, Type 0, BuildingBlock: QEWDON_clean_linker_0, # of connection points: 3
#     Node 7, Type 0, BuildingBlock: QEWDON_clean_linker_0, # of connection points: 3
#     Node 8, Type 1, BuildingBlock: JUFBIX_clean_sbu_0, # of connection points: 6
#     Node 9, Type 1, BuildingBlock: JUFBIX_clean_sbu_0, # of connection points: 6
#     Node 10, Type 1, BuildingBlock: JUFBIX_clean_sbu_0, # of connection points: 6
#     Node 11, Type 1, BuildingBlock: JUFBIX_clean_sbu_0, # of connection points: 6
#     Edge 12, Type (0, 1), BuildingBlock: OJICUG_clean_linker_0, # of connection points: 2
#     Edge 13, Type (0, 1), BuildingBlock: OJICUG_clean_linker_0, # of connection points: 2
#     Edge 14, Type (0, 1), BuildingBlock: OJICUG_clean_linker_0, # of connection points: 2
#     Edge 15, Type (0, 1), BuildingBlock: OJICUG_clean_linker_0, # of connection points: 2
#     Edge 16, Type (0, 1), BuildingBlock: OJICUG_clean_linker_0, # of connection points: 2
#     Edge 17, Type (0, 1), BuildingBlock: OJICUG_clean_linker_0, # of connection points: 2
#     Edge 18, Type (0, 1), BuildingBlock: OJICUG_clean_linker_0, # of connection points: 2
#     Edge 19, Type (0, 1), BuildingBlock: OJICUG_clean_linker_0, # of connection points: 2
#     Edge 20, Type (0, 1), BuildingBlock: OJICUG_clean_linker_0, # of connection points: 2
#     Edge 21, Type (0, 1), BuildingBlock: OJICUG_clean_linker_0, # of connection points: 2
#     Edge 22, Type (0, 1), BuildingBlock: OJICUG_clean_linker_0, # of connection points: 2
#     Edge 23, Type (0, 1), BuildingBlock: OJICUG_clean_linker_0, # of connection points: 2
#     Edge 24, Type (0, 1), BuildingBlock: OJICUG_clean_linker_0, # of connection points: 2
#     Edge 25, Type (0, 1), BuildingBlock: OJICUG_clean_linker_0, # of connection points: 2
#     Edge 26, Type (0, 1), BuildingBlock: OJICUG_clean_linker_0, # of connection points: 2
#     Edge 27, Type (0, 1), BuildingBlock: OJICUG_clean_linker_0, # of connection points: 2
#     Edge 28, Type (0, 1), BuildingBlock: OJICUG_clean_linker_0, # of connection points: 2
#     Edge 29, Type (0, 1), BuildingBlock: OJICUG_clean_linker_0, # of connection points: 2
#     Edge 30, Type (0, 1), BuildingBlock: OJICUG_clean_linker_0, # of connection points: 2
#     Edge 31, Type (0, 1), BuildingBlock: OJICUG_clean_linker_0, # of connection points: 2
#     Edge 32, Type (0, 1), BuildingBlock: OJICUG_clean_linker_0, # of connection points: 2
#     Edge 33, Type (0, 1), BuildingBlock: OJICUG_clean_linker_0, # of connection points: 2
#     Edge 34, Type (0, 1), BuildingBlock: OJICUG_clean_linker_0, # of connection points: 2
#     Edge 35, Type (0, 1), BuildingBlock: OJICUG_clean_linker_0, # of connection points: 2
# Relax obj value: 0.075
# Max RMSD: 0.166
# Mean RMSD: 0.075
data_MOF--net-zzz--node1-JUFBIX_clean_sbu_0--node2-QEWDON_clean_linker_0--edge1-OJICUG_clean_linker_0
_symmetry_space_group_name_H-M    P1
_symmetry_Int_Tables_number       1
_symmetry_cell_setting            triclinic
loop_
_symmetry_equiv_pos_as_xyz
'x, y, z'
_cell_length_a     40.123265
_cell_length_b     40.02776
_cell_length_c     13.71992
_cell_angle_alpha  78.303111
_cell_angle_beta   89.794209
_cell_angle_gamma 90.802039
loop_
_atom_site_label
_atom_site_type_symbol
_atom_site_fract_x
_atom_site_fract_y
_atom_site_fract_z
_atom_type_partial_charge
H0 H 0.85686 0.54713 0.11331 0.0
C1 C 0.86821 0.54323 0.18612 0.0
C2 C 0.8999 0.52849 0.19863 0.0
C3 C 0.85204 0.55397 0.26599 0.0
H4 H 0.94101 0.51555 0.29839 0.0
C5 C 0.9158 0.52519 0.29019 0.0
C6 C 0.90112 0.53707 0.3686 0.0
C7 C 0.86914 0.55088 0.35744 0.0
C8 C 0.818 0.56924 0.2534 0.0
H9 H 0.85783 0.55887 0.42055 0.0
C10 C 0.79467 0.55949 0.18683 0.0
C11 C 0.76243 0.57354 0.17618 0.0
C12 C 0.80853 0.59378 0.30826 0.0
H13 H 0.82581 0.60315 0.35715 0.0
C14 C 0.77652 0.60701 0.30034 0.0
H15 H 0.80161 0.54107 0.14301 0.0
C16 C 0.75356 0.59683 0.23588 0.0
H17 H 0.72878 0.60727 0.2334 0.0
H18 H 0.76947 0.62542 0.34434 0.0
H19 H 0.03628 0.81703 0.099 0.0
C20 C 0.03528 0.82412 0.1709 0.0
C21 C 0.04822 0.85623 0.17959 0.0
C22 C 1.01913 0.80245 0.25215 0.0
H23 H 0.05323 0.89184 0.27703 0.0
C24 C 0.04551 0.86627 0.27097 0.0
C25 C 1.02905 0.84586 0.35168 0.0
C26 C 1.01622 0.81385 0.34301 0.0
C27 C 1.003 0.76957 0.23915 0.0
H28 H 1.00359 0.79843 0.40672 0.0
C29 C 1.01534 0.75131 0.16881 0.0
C30 C 0.99893 0.72157 0.15203 0.0
C31 C 0.97411 0.75691 0.29384 0.0
H32 H 0.96286 0.77043 0.34596 0.0
C33 C 0.95851 0.72686 0.28027 0.0
H34 H 0.03743 0.76044 0.12571 0.0
C35 C 0.97073 0.7093 0.21016 0.0
H36 H 0.95802 0.68603 0.2017 0.0
H37 H 0.93649 0.71737 0.32349 0.0
H38 H 0.76779 1.03015 -0.00224 0.0
C39 C 0.75823 1.0313 0.07093 0.0
C40 C 0.72581 0.04367 0.08089 0.0
C41 C 0.77728 1.0183 0.15661 0.0
H42 H 0.68774 0.05108 0.18512 0.0
C43 C 0.7133 0.04362 0.17621 0.0
C44 C 0.73098 1.02956 0.2613 0.0
C45 C 0.76302 1.01719 0.25177 0.0
C46 C 0.81025 1.00201 0.14941 0.0
H47 H 0.77638 1.0058 0.31853 0.0
C48 C 0.83631 1.01814 0.08617 0.0
C49 C 0.86803 1.00289 0.08908 0.0
C50 C 0.8161 0.96997 0.21096 0.0
H51 H 0.79651 0.95654 0.25847 0.0
C52 C 0.84717 0.95483 0.21257 0.0
H53 H 0.83234 0.04273 0.03787 0.0
C54 C 0.87303 0.97126 0.15294 0.0
H55 H 0.89702 0.959 0.15567 0.0
H56 H 0.85126 0.93026 0.2607 0.0
H57 H 0.55823 0.73968 0.02773 0.0
C58 C 0.55394 0.72482 0.10208 0.0
C59 C 0.54253 0.69063 0.115 0.0
C60 C 0.56144 0.73899 0.1861 0.0
H61 H 0.53091 0.64446 0.22059 0.0
C62 C 0.53841 0.6711 0.21103 0.0
C63 C 0.54687 0.6841 0.2946 0.0
C64 C 0.55816 0.71804 0.28221 0.0
C65 C 0.57629 0.77405 0.17593 0.0
H66 H 0.56479 0.72799 0.34751 0.0
C67 C 0.56151 0.80359 0.11832 0.0
C68 C 0.57496 0.83648 0.11983 0.0
C69 C 0.6053 0.77798 0.23006 0.0
H70 H 0.61755 0.75595 0.27332 0.0
C71 C 0.61883 0.8102 0.22987 0.0
H72 H 0.53918 0.80113 0.07602 0.0
C73 C 0.60368 0.83919 0.17614 0.0
H74 H 0.61472 0.86395 0.17756 0.0
H75 H 0.6411 0.81273 0.27222 0.0
H76 H 0.24086 0.55149 0.42438 0.0
C77 C 0.22903 0.54302 0.3626 0.0
C78 C 0.1949 0.53547 0.36832 0.0
C79 C 0.24754 0.53995 0.27728 0.0
H80 H 0.15211 0.52013 0.29418 0.0
C81 C 0.17879 0.52522 0.28943 0.0
C82 C 0.19616 0.52306 0.2029 0.0
C83 C 0.23057 0.53036 0.19652 0.0
C84 C 0.28422 0.54716 0.27282 0.0
H85 H 0.24386 0.52823 0.12928 0.0
C86 C 0.30379 0.53972 0.35977 0.0
C87 C 0.3382 0.54718 0.35648 0.0
C88 C 0.29992 0.56198 0.18214 0.0
H89 H 0.28578 0.56887 0.11419 0.0
C90 C 0.33415 0.56887 0.17825 0.0
H91 H 0.29252 0.52757 0.43011 0.0
C92 C 0.35321 0.56157 0.2646 0.0
H93 H 0.37959 0.56783 0.25984 0.0
H94 H 0.34591 0.58034 0.10807 0.0
H95 H 1.02136 0.25123 0.41392 0.0
C96 C 0.03116 0.24254 0.34989 0.0
C97 C 0.03042 0.20751 0.35028 0.0
C98 C 0.04412 0.26607 0.26707 0.0
H99 H 0.04276 0.16871 0.26886 0.0
C100 C 0.04238 0.19591 0.26774 0.0
C101 C 0.05566 0.21842 0.18559 0.0
C102 C 0.05663 0.25356 0.18466 0.0
C103 C 0.04427 0.30342 0.26705 0.0
H104 H 0.06763 0.27076 0.1212 0.0
C105 C 0.04882 0.31556 0.35614 0.0
C106 C 0.0475 0.35069 0.35662 0.0
C107 C 0.03881 0.32723 0.17816 0.0
H108 H 0.03447 0.319 0.10878 0.0
C109 C 0.03792 0.36206 0.17798 0.0
H110 H 0.05392 0.29784 0.42506 0.0
C111 C 0.04211 0.37375 0.26628 0.0
H112 H 0.04047 0.40088 0.26405 0.0
H113 H 0.03345 0.38007 0.10919 0.0
H114 H 0.32694 1.00651 0.59192 0.0
C115 C 0.33659 1.01957 0.5202 0.0
C116 C 0.37016 1.03042 0.51087 0.0
C117 C 0.31647 1.02286 0.43451 0.0
H118 H 0.40893 0.05396 0.41134 0.0
C119 C 0.38281 0.04621 0.4179 0.0
C120 C 0.36404 0.04812 0.33186 0.0
C121 C 0.33081 0.03623 0.33987 0.0
C122 C 0.28301 1.00608 0.44082 0.0
H123 H 0.31656 0.03626 0.27287 0.0
C124 C 0.25528 1.01816 0.48716 0.0
C125 C 0.22365 1.00172 0.48824 0.0
C126 C 0.27905 0.97725 0.39827 0.0
H127 H 0.29996 0.96749 0.36292 0.0
C128 C 0.24836 0.96045 0.40179 0.0
H129 H 0.2581 0.04065 0.51912 0.0
C130 C 0.22097 0.97245 0.44626 0.0
H131 H 0.19757 0.9585 0.44825 0.0
H132 H 0.24574 0.93799 0.36966 0.0
H133 H 0.56434 0.3303 0.58375 0.0
C134 C 0.55637 0.34367 0.51103 0.0
C135 C 0.5437 0.37688 0.49941 0.0
C136 C 0.5607 0.32873 0.42717 0.0
H137 H 0.52633 0.42075 0.39588 0.0
C138 C 0.53476 0.39465 0.4048 0.0
C139 C 0.54029 0.38106 0.32032 0.0
C140 C 0.55323 0.34802 0.33165 0.0
C141 C 0.57853 0.29587 0.43582 0.0
H142 H 0.55856 0.33777 0.26602 0.0
C143 C 0.56534 0.26431 0.48909 0.0
C144 C 0.5827 0.23356 0.49019 0.0
C145 C 0.60939 0.29641 0.38703 0.0
H146 H 0.62008 0.32023 0.3464 0.0
C147 C 0.62694 0.26647 0.3905 0.0
H148 H 0.54137 0.26359 0.5261 0.0
C149 C 0.61379 0.23539 0.44125 0.0
H150 H 0.62821 0.21262 0.44258 0.0
H151 H 0.65085 0.26732 0.35318 0.0
Co152 Co 0.05717 0.04629 0.82057 0.0
C153 C 0.98879 0.03404 0.85908 0.0
Co154 Co 0.03185 1.02017 0.71394 0.0
C155 C 0.06567 0.10169 0.92233 0.0
C156 C 0.10792 0.0691 0.94198 0.0
N157 N 0.07726 0.07232 0.90201 0.0
N158 N 0.08795 0.11741 0.97249 0.0
C159 C 0.11454 0.09663 -0.01463 0.0
H160 H 0.04138 0.11141 0.89882 0.0
H161 H 0.12477 0.04863 0.93713 0.0
C162 C 0.10012 1.03159 0.67471 0.0
N163 N 1.01208 0.99406 0.63274 0.0
C164 C 1.02382 0.96414 0.61739 0.0
C165 C 0.98249 0.99769 0.586 0.0
N166 N 1.00277 0.94854 0.56376 0.0
C167 C 0.97674 0.9698 0.5432 0.0
C168 C 1.02942 0.08847 0.6516 0.0
O169 O 0.09887 0.04525 0.75068 0.0
O170 O 0.0734 1.01931 0.64547 0.0
O171 O 1.02072 0.06083 0.62628 0.0
O172 O 0.04568 0.08732 0.73139 0.0
O173 O 0.99071 1.02114 0.78197 0.0
H174 H 0.96594 1.01887 0.58479 0.0
H175 H 0.04714 0.95365 0.64777 0.0
O176 O 1.0151 0.0466 0.8904 0.0
O177 O 0.06846 1.00487 0.90907 0.0
O178 O 0.04271 0.97971 0.80262 0.0
C179 C 0.05869 0.97764 0.8829 0.0
H180 H 0.13752 0.10096 0.02204 0.0
H181 H 0.95517 0.9658 0.49966 0.0
Co182 Co 0.53646 0.04265 0.86171 0.0
C183 C 0.54606 0.97156 0.8972 0.0
Co184 Co 0.55884 1.02437 0.73512 0.0
C185 C 0.48359 0.04748 0.00082 0.0
C186 C 0.5228 0.08375 0.00709 0.0
N187 N 0.51436 0.05736 0.96447 0.0
N188 N 0.47213 0.06703 0.06291 0.0
C189 C 0.49702 0.08968 0.06771 0.0
H190 H 0.46925 1.02726 -0.02157 0.0
H191 H 0.54566 0.09859 -0.00799 0.0
C192 C 0.55016 0.09536 0.69895 0.0
N193 N 0.58096 1.01001 0.63277 0.0
C194 C 0.61019 1.02312 0.5921 0.0
C195 C 0.57562 0.98168 0.5958 0.0
N196 N 0.6238 1.00381 0.53294 0.0
C197 C 0.60194 0.9778 0.5343 0.0
C198 C 0.49074 1.02443 0.72586 0.0
O199 O 0.53794 0.08883 0.78661 0.0
O200 O 0.56053 0.07069 0.66169 0.0
O201 O 0.51645 1.01766 0.67921 0.0
O202 O 0.49439 0.03568 0.80518 0.0
O203 O 0.55712 0.97871 0.80842 0.0
H204 H 0.55475 0.9642 0.61579 0.0
H205 H 0.62217 0.04548 0.61008 0.0
O206 O 0.53562 0.99578 0.9368 0.0
O207 O 0.57918 0.05001 0.91629 0.0
O208 O 0.60091 1.0307 0.79214 0.0
C209 C 0.60476 0.04268 0.87002 0.0
H210 H 0.49668 0.10939 0.11121 0.0
H211 H 0.60489 0.95722 0.49473 0.0
Co212 Co 0.57049 0.53363 0.81218 0.0
C213 C 0.53802 0.48921 0.97133 0.0
Co214 Co 0.51537 0.53309 0.80674 0.0
C215 C 0.63325 0.54457 0.90318 0.0
C216 C 0.6404 0.52098 0.77823 0.0
N217 N 0.61658 0.53369 0.82975 0.0
N218 N 0.66623 0.53905 0.89979 0.0
C219 C 0.67096 0.52402 0.82171 0.0
H220 H 0.62142 0.55548 0.96026 0.0
H221 H 0.63589 0.5098 0.71396 0.0
C222 C 0.54792 0.57719 0.64708 0.0
N223 N 0.46966 0.5327 0.78694 0.0
C224 C 0.45548 0.53177 0.6985 0.0
C225 C 0.44388 0.53386 0.8493 0.0
N226 N 0.42191 0.5324 0.70208 0.0
C227 C 0.41443 0.53379 0.7972 0.0
C228 C 0.53905 0.58405 0.89562 0.0
O229 O 0.57482 0.56589 0.68942 0.0
O230 O 0.52023 0.56527 0.68495 0.0
O231 O 0.51206 0.57024 0.87386 0.0
O232 O 0.56669 0.57113 0.87829 0.0
O233 O 0.51115 0.5008 0.92916 0.0
H234 H 0.44633 0.53499 0.92706 0.0
H235 H 0.46983 0.53154 0.63174 0.0
O236 O 0.56587 0.50132 0.93451 0.0
O237 O 0.57328 0.49619 0.74508 0.0
O238 O 0.51879 0.49612 0.74006 0.0
C239 C 0.54616 0.48294 0.72231 0.0
H240 H 0.69478 0.5161 0.79756 0.0
H241 H 0.38957 0.53468 0.82725 0.0
Co242 Co 0.04875 0.55519 0.78194 0.0
C243 C 0.09424 0.51757 0.91884 0.0
Co244 Co 0.04785 0.49878 0.799 0.0
C245 C 0.03083 0.61747 0.84703 0.0
C246 C 0.07609 0.62357 0.76242 0.0
N247 N 0.05045 0.60143 0.79093 0.0
N248 N 0.04357 0.64803 0.85653 0.0
C249 C 0.07197 0.65207 0.80274 0.0
H250 H 1.00902 0.60595 0.88747 0.0
H251 H 0.09783 0.61844 0.72138 0.0
C252 C 1.00258 0.53624 0.66135 0.0
N253 N 0.04741 0.45329 0.78676 0.0
C254 C 0.05004 0.44412 0.69769 0.0
C255 C 0.04478 0.42352 0.85335 0.0
N256 N 0.04956 0.41007 0.70496 0.0
C257 C 0.04592 0.3968 0.80301 0.0
C258 C 1.00209 0.51777 0.91895 0.0
O259 O 1.0144 0.56311 0.68534 0.0
O260 O 1.01491 0.5075 0.69932 0.0
O261 O 1.01329 0.49081 0.89596 0.0
O262 O 1.01553 0.54646 0.88194 0.0
O263 O 0.08083 0.49072 0.89913 0.0
H264 H 0.04226 0.42139 0.93291 0.0
H265 H 0.05175 0.46235 0.62778 0.0
O266 O 0.08316 0.54668 0.87824 0.0
O267 O 0.08174 0.56276 0.6806 0.0
O268 O 0.08238 0.50711 0.70298 0.0
C269 C 0.09418 0.53595 0.6608 0.0
H270 H 0.08941 0.67326 0.79728 0.0
H271 H 0.04461 0.36985 0.83603 0.0
C272 C 0.19329 1.02482 0.62321 0.0
C273 C 0.19293 1.01422 0.53139 0.0
H274 H 0.16431 0.03871 0.74083 0.0
C275 C 0.16202 1.01276 0.48379 0.0
H276 H 0.21654 1.02619 0.66216 0.0
C277 C 0.13225 1.01938 0.52918 0.0
C278 C 0.13235 1.02826 0.62309 0.0
H279 H 0.16069 1.00561 0.41187 0.0
H280 H 0.10901 1.01687 0.49117 0.0
C281 C 0.16331 1.03184 0.66848 0.0
C282 C 0.55645 0.1929 0.63778 0.0
C283 C 0.56937 0.19912 0.54018 0.0
H284 H 0.54027 0.15531 0.7649 0.0
C285 C 0.57276 0.17118 0.49297 0.0
H286 H 0.55362 0.21373 0.67654 0.0
C287 C 0.56546 0.13785 0.54345 0.0
C288 C 0.55424 0.1313 0.64273 0.0
H289 H 0.58202 0.17499 0.41719 0.0
H290 H 0.56946 0.11708 0.50512 0.0
C291 C 0.54898 0.15935 0.68853 0.0
C292 C 0.38983 0.52569 0.44955 0.0
C293 C 0.35843 0.54076 0.4488 0.0
H294 H 0.434 0.51008 0.53117 0.0
C295 C 0.34721 0.55097 0.53535 0.0
H296 H 0.39889 0.51698 0.38466 0.0
C297 C 0.36758 0.54745 0.6195 0.0
C298 C 0.39954 0.53343 0.61908 0.0
H299 H 0.32317 0.56286 0.53675 0.0
H300 H 0.35869 0.55678 0.6834 0.0
C301 C 0.41002 0.52189 0.53369 0.0
C302 C 0.06934 0.39363 0.45166 0.0
C303 C 0.05094 0.36357 0.45083 0.0
H304 H 0.08398 0.43139 0.5336 0.0
C305 C 0.03441 0.34726 0.53881 0.0
H306 H 0.08302 0.40643 0.38614 0.0
C307 C 0.03497 0.36169 0.62397 0.0
C308 C 0.05198 0.39272 0.62263 0.0
H309 H 1.01989 0.32413 0.54057 0.0
H310 H 1.02091 0.34939 0.68921 0.0
C311 C 0.06986 0.40797 0.5363 0.0
C312 C 0.89684 1.01858 0.92368 0.0
C313 C 0.89654 1.01858 0.02589 0.0
H314 H 0.92632 1.02337 0.79078 0.0
C315 C 0.92605 1.02727 0.07064 0.0
H316 H 0.8746 1.01139 0.88787 0.0
C317 C 0.95567 0.03437 0.01521 0.0
C318 C 0.95656 1.03215 0.91429 0.0
H319 H 0.92654 1.02693 0.14978 0.0
H320 H 0.97825 0.03965 0.0528 0.0
C321 C 0.92658 1.02511 0.86855 0.0
C322 C 0.55259 0.89524 0.11254 0.0
C323 C 0.56041 0.86871 0.0631 0.0
H324 H 0.5414 0.94827 0.09954 0.0
C325 C 0.55987 0.87551 0.95869 0.0
H326 H 0.55306 0.89078 0.19309 0.0
C327 C 0.55378 0.90863 0.90497 0.0
C328 C 0.54768 0.93565 0.95442 0.0
H329 H 0.56622 0.85576 0.9186 0.0
H330 H 0.55507 0.91334 0.82445 0.0
C331 C 0.54602 0.92823 0.05893 0.0
C332 C 0.73778 0.53197 0.07767 0.0
C333 C 0.73811 0.56448 0.10264 0.0
H334 H 0.71479 0.49866 -0.00818 0.0
C335 C 0.71468 0.58851 0.05664 0.0
H336 H 0.75482 0.51244 0.11223 0.0
C337 C 0.69112 0.58001 -0.00929 0.0
C338 C 0.69098 0.5477 0.9663 0.0
H339 H 0.71453 0.61415 0.0707 0.0
H340 H 0.6732 0.59887 0.95742 0.0
C341 C 0.71474 0.52387 0.00918 0.0
C342 C 0.98753 0.68864 0.01701 0.0
C343 C 1.01064 0.70368 0.0729 0.0
H344 H 0.97998 0.65931 0.90412 0.0
C345 C 0.04484 0.70128 0.0526 0.0
H346 H 0.96098 0.69058 0.02853 0.0
C347 C 0.05558 0.68398 -0.02053 0.0
C348 C 0.03245 0.6683 0.92572 0.0
H349 H 0.06344 0.71198 0.09486 0.0
H350 H 0.08208 0.68185 0.96751 0.0
C351 C 0.99833 0.67094 0.945 0.0
C352 C 0.03844 0.18131 0.52875 0.0
C353 C 1.02127 0.18175 0.43966 0.0
H354 H 0.0545 0.15099 0.66672 0.0
C355 C 1.00176 0.15325 0.42945 0.0
H356 H 0.05376 0.20292 0.53812 0.0
C357 C 1.00274 0.12331 0.50169 0.0
C358 C 1.02292 0.12161 0.5858 0.0
H359 H 0.98804 0.15321 0.36158 0.0
H360 H 0.9893 0.10097 0.48871 0.0
C361 C 0.03919 0.15141 0.60162 0.0
C362 C 0.40015 0.0418 0.65994 0.0
C363 C 0.39499 1.02102 0.59042 0.0
H364 H 0.43482 0.05888 0.75865 0.0
C365 C 0.41991 0.99807 0.57613 0.0
H366 H 0.38163 0.06023 0.6703 0.0
C367 C 0.45073 0.99827 0.62289 0.0
C368 C 0.45688 1.02084 0.6868 0.0
H369 H 0.41662 0.98223 0.52139 0.0
H370 H 0.47017 0.98181 0.60575 0.0
C371 C 0.43078 0.04137 0.70894 0.0
C372 C 0.51436 0.41106 0.60416 0.0
C373 C 0.54405 0.3965 0.57976 0.0
H374 H 0.49178 0.44981 0.66733 0.0
C375 C 0.57456 0.40849 0.61042 0.0
H376 H 0.49061 0.4027 0.57941 0.0
C377 C 0.57543 0.43609 0.65916 0.0
C378 C 0.54576 0.45209 0.67789 0.0
H379 H 0.59783 0.3982 0.59011 0.0
H380 H 0.59935 0.44571 0.67851 0.0
C381 C 0.51517 0.43844 0.65297 0.0
C382 C 0.16516 0.50705 0.5199 0.0
C383 C 0.17495 0.53748 0.45628 0.0
H384 H 0.13177 0.48278 0.63422 0.0
C385 C 0.15984 0.56821 0.46427 0.0
H386 H 0.17622 0.48307 0.51309 0.0
C387 C 0.13403 0.56819 0.53309 0.0
C388 C 0.12294 0.53733 0.59323 0.0
H389 H 0.16674 0.59178 0.41372 0.0
H390 H 0.12192 0.59197 0.53627 0.0
C391 C 0.13941 0.50695 0.58792 0.0
C392 C 0.0821 0.90804 0.10019 0.0
C393 C 0.05836 0.88251 0.09113 0.0
H394 H 0.10027 0.95893 0.04256 0.0
C395 C 0.0394 0.88647 0.00389 0.0
H396 H 0.09783 0.90534 0.16524 0.0
C397 C 0.04153 0.91666 0.9328 0.0
C398 C 0.06216 0.9438 0.94826 0.0
H399 H 1.02075 0.86766 -0.00597 0.0
H400 H 1.02502 0.91959 0.8694 0.0
C401 C 0.08355 0.93873 0.03022 0.0
C402 C 0.69454 1.02477 0.94394 0.0
C403 C 0.70121 0.0502 -0.00146 0.0
H404 H 0.65839 1.00248 0.86041 0.0
C405 C 0.67782 0.07637 -0.00406 0.0
H406 H 0.71179 1.00412 0.94502 0.0
C407 C 0.64659 0.07434 0.95258 0.0
C408 C 0.63879 0.04707 0.90653 0.0
H409 H 0.68242 0.09655 0.03644 0.0
H410 H 0.62818 0.09344 0.958 0.0
C411 C 0.66367 1.02345 0.89733 0.0
C412 C 0.56896 0.66184 -0.00869 0.0
C413 C 0.53968 0.67186 0.03284 0.0
H414 H 0.59185 0.62582 0.91717 0.0
C415 C 0.5095 0.65504 0.01987 0.0
H416 H 0.59266 0.67376 0.00261 0.0
C417 C 0.50897 0.62727 0.97205 0.0
C418 C 0.53873 0.61547 0.93754 0.0
H419 H 0.48672 0.66177 0.05345 0.0
H420 H 0.48555 0.61397 0.96688 0.0
C421 C 0.56853 0.63386 0.94444 0.0
C422 C 0.9258 0.54833 0.03253 0.0
C423 C 0.91963 0.52163 0.114 0.0
H424 H 0.95707 0.56787 0.90738 0.0
C425 C 0.93813 0.49147 0.12392 0.0
H426 H 0.91219 0.57193 0.02377 0.0
C427 C 0.96412 0.48915 0.05747 0.0
C428 C 0.97216 0.5172 -0.01847 0.0
H429 H 0.93378 0.47057 0.18666 0.0
H430 H 0.9791 0.46639 0.06909 0.0
C431 C 0.95193 0.54619 0.9672 0.0
C432 C 0.09961 0.18574 0.12215 0.0
C433 C 0.06935 0.20301 0.10542 0.0
H434 H 0.12931 0.14502 0.09441 0.0
C435 C 0.04771 0.19533 0.03289 0.0
H436 H 0.11632 0.19076 0.17957 0.0
C437 C 0.05483 0.16872 -0.01582 0.0
C438 C 0.08355 0.14881 0.00832 0.0
H439 H 1.02389 0.20786 0.02034 0.0
H440 H 0.0367 0.16275 0.93204 0.0
C441 C 0.10669 0.15899 0.07415 0.0
C442 C 0.39929 0.08825 0.2112 0.0
C443 C 0.38275 0.05652 0.23674 0.0
H444 H 0.44042 0.11668 0.135 0.0
C445 C 0.39317 1.02973 0.19241 0.0
H446 H 0.39207 0.10911 0.24586 0.0
C447 C 0.42157 0.03364 0.13115 0.0
C448 C 0.44007 0.06449 0.11292 0.0
H449 H 0.38137 1.00476 0.213 0.0
H450 H 0.43025 1.01168 0.10425 0.0
C451 C 0.42754 0.09225 0.14966 0.0
C452 C 0.50854 0.42341 0.19628 0.0
C453 C 0.53761 0.4044 0.22183 0.0
H454 H 0.48574 0.46513 0.09696 0.0
C455 C 0.56617 0.41258 0.16206 0.0
H456 H 0.48631 0.41786 0.24211 0.0
C457 C 0.56616 0.44017 0.08106 0.0
C458 C 0.53744 0.45991 0.05716 0.0
H459 H 0.58907 0.39882 0.18119 0.0
H460 H 0.58887 0.44624 0.03774 0.0
C461 C 0.50834 0.45067 0.11405 0.0
C462 C 0.17256 0.54423 0.03585 0.0
C463 C 0.17643 0.5172 0.11731 0.0
H464 H 0.14295 0.56565 0.91008 0.0
C465 C 0.15521 0.48839 0.1274 0.0
H466 H 0.18823 0.56692 0.02769 0.0
C467 C 0.12925 0.48754 0.06005 0.0
C468 C 0.12374 0.51587 -0.01667 0.0
H469 H 0.15751 0.46748 0.19086 0.0
H470 H 0.11239 0.4657 0.07148 0.0
C471 C 0.14628 0.5437 0.96987 0.0
C472 C 0.04673 0.87664 0.48254 0.0
C473 C 1.02084 0.86212 0.43593 0.0
H474 H 0.06165 0.91591 0.55725 0.0
C475 C 0.98803 0.87258 0.44652 0.0
H476 H 0.0723 0.86927 0.47398 0.0
C477 C 0.98172 0.89973 0.49382 0.0
C478 C 1.00816 0.91688 0.53108 0.0
H479 H 0.96771 0.86204 0.40993 0.0
H480 H 0.95637 0.90837 0.49623 0.0
C481 C 0.04052 0.90377 0.52941 0.0
C482 C 0.70112 0.98877 0.3939 0.0
C483 C 0.71197 1.02238 0.35579 0.0
H484 H 0.66418 0.95643 0.48017 0.0
C485 C 0.69617 0.04934 0.38791 0.0
H486 H 0.71251 0.96763 0.36861 0.0
C487 C 0.66818 0.04306 0.45009 0.0
C488 C 0.65532 1.0097 0.48087 0.0
H489 H 0.7037 0.07551 0.35775 0.0
H490 H 0.65528 0.06462 0.46801 0.0
C491 C 0.67296 0.98248 0.45569 0.0
C492 C 0.5175 0.64102 0.42409 0.0
C493 C 0.54646 0.66029 0.39253 0.0
H494 H 0.49539 0.5996 0.52798 0.0
C495 C 0.57607 0.65256 0.44622 0.0
H496 H 0.49447 0.64624 0.38314 0.0
C497 C 0.57688 0.62527 0.52847 0.0
C498 C 0.54799 0.6055 0.55868 0.0
H499 H 0.59888 0.66667 0.42203 0.0
H500 H 0.6001 0.61958 0.56798 0.0
C501 C 0.51819 0.61408 0.5064 0.0
C502 C 0.93504 0.5062 0.50744 0.0
C503 C 0.92141 0.53697 0.45797 0.0
H504 H 0.97139 0.48195 0.60925 0.0
C505 C 0.93288 0.56783 0.48059 0.0
H506 H 0.92678 0.48217 0.49013 0.0
C507 C 0.95899 0.56792 0.54821 0.0
C508 C 0.97387 0.53712 0.59366 0.0
H509 H 0.92305 0.59191 0.44162 0.0
H510 H 0.96817 0.59205 0.56235 0.0
C511 C 0.96091 0.50624 0.57458 0.0
loop_
_geom_bond_atom_site_label_1
_geom_bond_atom_site_label_2
_geom_bond_distance
_geom_bond_site_symmetry_2
_ccdc_geom_bond_type
H0 C1 0.949 . S
C1 H0 0.949 . S
C1 C2 1.395 . S
C1 C3 1.391 . S
C2 C1 1.395 . S
C2 C5 1.390 . S
C3 C1 1.391 . S
C3 C7 1.387 . S
C3 C8 1.491 . S
H4 C5 0.950 . S
C5 C2 1.390 . S
C5 H4 0.950 . S
C5 C6 1.378 . S
C6 C5 1.378 . S
C6 C7 1.409 . S
C7 C3 1.387 . S
C7 C6 1.409 . S
C7 H9 0.951 . S
C8 C3 1.491 . S
C8 C10 1.382 . S
C8 C12 1.404 . S
H9 C7 0.951 . S
C10 C8 1.382 . S
C10 C11 1.390 . S
C10 H15 0.949 . S
C11 C10 1.390 . S
C11 C16 1.399 . S
C12 C8 1.404 . S
C12 H13 0.950 . S
C12 C14 1.375 . S
H13 C12 0.950 . S
C14 C12 1.375 . S
C14 C16 1.382 . S
C14 H18 0.950 . S
H15 C10 0.949 . S
C16 C11 1.399 . S
C16 C14 1.382 . S
C16 H17 0.952 . S
H17 C16 0.952 . S
H18 C14 0.950 . S
H19 C20 0.949 1_556 S
C20 H19 0.949 1_554 S
C20 C21 1.395 . S
C20 C22 1.391 . S
C21 C20 1.395 . S
C21 C24 1.390 . S
C22 C20 1.391 . S
C22 C26 1.387 . S
C22 C27 1.491 . S
H23 C24 0.950 . S
C24 C21 1.390 . S
C24 H23 0.950 . S
C24 C25 1.378 . S
C25 C24 1.378 . S
C25 C26 1.409 . S
C26 C22 1.387 . S
C26 C25 1.409 . S
C26 H28 0.951 . S
C27 C22 1.491 . S
C27 C29 1.382 . S
C27 C31 1.404 . S
H28 C26 0.951 . S
C29 C27 1.382 . S
C29 C30 1.390 . S
C29 H34 0.954 . S
C30 C29 1.390 . S
C30 C35 1.399 . S
C31 C27 1.404 . S
C31 H32 0.950 . S
C31 C33 1.375 . S
H32 C31 0.950 . S
C33 C31 1.375 . S
C33 C35 1.382 . S
C33 H37 0.950 . S
H34 C29 0.954 . S
C35 C30 1.399 . S
C35 C33 1.382 . S
C35 H36 0.952 . S
H36 C35 0.952 . S
H37 C33 0.950 . S
H38 C39 0.949 . S
C39 H38 0.949 . S
C39 C40 1.395 . S
C39 C41 1.391 1_556 S
C40 C39 1.395 . S
C40 C43 1.386 1_566 S
C41 C39 1.391 1_554 S
C41 C45 1.387 . S
C41 C46 1.491 . S
H42 C43 0.953 . S
C43 C40 1.386 1_544 S
C43 H42 0.953 . S
C43 C44 1.379 1_545 S
C44 C43 1.379 1_565 S
C44 C45 1.409 . S
C45 C41 1.387 . S
C45 C44 1.409 . S
C45 H47 0.951 . S
C46 C41 1.491 . S
C46 C48 1.382 1_554 S
C46 C50 1.404 . S
H47 C45 0.951 . S
C48 C46 1.382 1_556 S
C48 C49 1.390 . S
C48 H53 0.949 1_565 S
C49 C48 1.390 . S
C49 C54 1.399 1_556 S
C50 C46 1.404 . S
C50 H51 0.950 . S
C50 C52 1.375 . S
H51 C50 0.950 . S
C52 C50 1.375 . S
C52 C54 1.382 . S
C52 H56 0.950 . S
H53 C48 0.949 1_545 S
C54 C49 1.399 1_554 S
C54 C52 1.382 . S
C54 H55 0.952 . S
H55 C54 0.952 . S
H56 C52 0.950 . S
H57 C58 0.940 1_556 S
C58 H57 0.940 1_554 S
C58 C59 1.395 . S
C58 C60 1.391 . S
C59 C58 1.395 . S
C59 C62 1.390 . S
C60 C58 1.391 . S
C60 C64 1.387 . S
C60 C65 1.491 . S
H61 C62 0.950 . S
C62 C59 1.390 . S
C62 H61 0.950 . S
C62 C63 1.378 . S
C63 C62 1.378 . S
C63 C64 1.409 . S
C64 C60 1.387 . S
C64 C63 1.409 . S
C64 H66 0.951 . S
C65 C60 1.491 . S
C65 C67 1.382 . S
C65 C69 1.404 . S
H66 C64 0.951 . S
C67 C65 1.382 . S
C67 C68 1.390 . S
C67 H72 0.949 . S
C68 C67 1.390 . S
C68 C73 1.399 . S
C69 C65 1.404 . S
C69 H70 0.950 . S
C69 C71 1.375 . S
H70 C69 0.950 . S
C71 C69 1.375 . S
C71 C73 1.382 . S
C71 H75 0.950 . S
H72 C67 0.949 . S
C73 C68 1.399 . S
C73 C71 1.382 . S
C73 H74 0.952 . S
H74 C73 0.952 . S
H75 C71 0.950 . S
H76 C77 0.949 . S
C77 H76 0.949 . S
C77 C78 1.395 . S
C77 C79 1.391 . S
C78 C77 1.395 . S
C78 C81 1.390 . S
C79 C77 1.391 . S
C79 C83 1.387 . S
C79 C84 1.491 . S
H80 C81 0.950 . S
C81 C78 1.390 . S
C81 H80 0.950 . S
C81 C82 1.378 . S
C82 C81 1.378 . S
C82 C83 1.409 . S
C83 C79 1.387 . S
C83 C82 1.409 . S
C83 H85 0.951 . S
C84 C79 1.491 . S
C84 C86 1.382 . S
C84 C88 1.404 . S
H85 C83 0.951 . S
C86 C84 1.382 . S
C86 C87 1.390 . S
C86 H91 0.949 . S
C87 C86 1.390 . S
C87 C92 1.399 . S
C88 C84 1.404 . S
C88 H89 0.950 . S
C88 C90 1.375 . S
H89 C88 0.950 . S
C90 C88 1.375 . S
C90 C92 1.382 . S
C90 H94 0.950 . S
H91 C86 0.949 . S
C92 C87 1.399 . S
C92 C90 1.382 . S
C92 H93 0.952 . S
H93 C92 0.952 . S
H94 C90 0.950 . S
H95 C96 0.949 . S
C96 H95 0.949 . S
C96 C97 1.395 . S
C96 C98 1.391 . S
C97 C96 1.395 . S
C97 C100 1.390 . S
C98 C96 1.391 . S
C98 C102 1.387 . S
C98 C103 1.491 . S
H99 C100 0.950 . S
C100 C97 1.390 . S
C100 H99 0.950 . S
C100 C101 1.378 . S
C101 C100 1.378 . S
C101 C102 1.409 . S
C102 C98 1.387 . S
C102 C101 1.409 . S
C102 H104 0.951 . S
C103 C98 1.491 . S
C103 C105 1.382 . S
C103 C107 1.404 . S
H104 C102 0.951 . S
C105 C103 1.382 . S
C105 C106 1.390 . S
C105 H110 0.949 . S
C106 C105 1.390 . S
C106 C111 1.399 . S
C107 C103 1.404 . S
C107 H108 0.950 . S
C107 C109 1.375 . S
H108 C107 0.950 . S
C109 C107 1.375 . S
C109 C111 1.382 . S
C109 H113 0.950 . S
H110 C105 0.949 . S
C111 C106 1.399 . S
C111 C109 1.382 . S
C111 H112 0.952 . S
H112 C111 0.952 . S
H113 C109 0.950 . S
H114 C115 0.949 . S
C115 H114 0.949 . S
C115 C116 1.395 1_565 S
C115 C117 1.391 . S
C116 C115 1.395 1_545 S
C116 C119 1.390 . S
C117 C115 1.391 . S
C117 C121 1.387 . S
C117 C122 1.491 . S
H118 C119 0.950 . S
C119 C116 1.390 . S
C119 H118 0.950 . S
C119 C120 1.378 . S
C120 C119 1.378 . S
C120 C121 1.409 1_545 S
C121 C117 1.387 . S
C121 C120 1.409 1_565 S
C121 H123 0.951 . S
C122 C117 1.491 . S
C122 C124 1.378 1_565 S
C122 C126 1.404 . S
H123 C121 0.951 . S
C124 C122 1.378 1_545 S
C124 C125 1.389 1_545 S
C124 H129 0.953 . S
C125 C124 1.389 1_565 S
C125 C130 1.399 . S
C126 C122 1.404 . S
C126 H127 0.950 . S
C126 C128 1.375 . S
H127 C126 0.950 . S
C128 C126 1.375 . S
C128 C130 1.382 . S
C128 H132 0.950 . S
H129 C124 0.953 . S
C130 C125 1.399 . S
C130 C128 1.382 . S
C130 H131 0.952 . S
H131 C130 0.952 . S
H132 C128 0.950 . S
H133 C134 0.949 . S
C134 H133 0.949 . S
C134 C135 1.395 . S
C134 C136 1.391 . S
C135 C134 1.395 . S
C135 C138 1.390 . S
C136 C134 1.391 . S
C136 C140 1.387 . S
C136 C141 1.491 . S
H137 C138 0.950 . S
C138 C135 1.390 . S
C138 H137 0.950 . S
C138 C139 1.378 . S
C139 C138 1.378 . S
C139 C140 1.409 . S
C140 C136 1.387 . S
C140 C139 1.409 . S
C140 H142 0.951 . S
C141 C136 1.491 . S
C141 C143 1.382 . S
C141 C145 1.404 . S
H142 C140 0.951 . S
C143 C141 1.382 . S
C143 C144 1.390 . S
C143 H148 0.949 . S
C144 C143 1.390 . S
C144 C149 1.399 . S
C145 C141 1.404 . S
C145 H146 0.950 . S
C145 C147 1.375 . S
H146 C145 0.950 . S
C147 C145 1.375 . S
C147 C149 1.382 . S
C147 H151 0.950 . S
H148 C143 0.949 . S
C149 C144 1.399 . S
C149 C147 1.382 . S
C149 H150 0.952 . S
H150 C149 0.952 . S
H151 C147 0.950 . S
Co152 N157 2.057 1_556 S
Co152 O169 2.021 . S
Co152 O172 2.062 . S
Co152 O176 2.117 1_455 S
Co152 O177 2.020 1_545 S
C153 O173 1.259 1_545 S
C153 O176 1.258 . S
Co154 N163 2.057 . S
Co154 O170 2.117 . S
Co154 O171 2.020 1_565 S
Co154 O173 2.021 1_455 S
Co154 O178 2.062 . S
C155 N157 1.316 . S
C155 N158 1.347 . S
C155 H160 0.931 . S
C156 N157 1.375 1_655 S
C156 C159 1.350 1_655 S
C156 H161 0.930 . S
N157 Co152 2.057 1_554 S
N157 C155 1.316 . S
N157 C156 1.375 1_455 S
N158 C155 1.347 . S
N158 C159 1.373 . S
C159 C156 1.350 1_455 S
C159 N158 1.373 . S
C159 H180 0.931 1_455 S
H160 C155 0.931 . S
H161 C156 0.930 . S
C162 O169 1.259 1_565 S
C162 O170 1.258 . S
N163 Co154 2.057 . S
N163 C164 1.316 1_455 S
N163 C165 1.375 . S
C164 N163 1.316 1_655 S
C164 N166 1.347 . S
C164 H175 0.931 . S
C165 N163 1.375 . S
C165 C167 1.350 . S
C165 H174 0.930 . S
N166 C164 1.347 . S
N166 C167 1.373 1_655 S
C167 C165 1.350 . S
C167 N166 1.373 1_455 S
C167 H181 0.931 . S
C168 O171 1.256 . S
C168 O172 1.255 . S
O169 Co152 2.021 . S
O169 C162 1.259 1_545 S
O170 Co154 2.117 . S
O170 C162 1.258 . S
O171 Co154 2.020 1_545 S
O171 C168 1.256 . S
O172 Co152 2.062 . S
O172 C168 1.255 . S
O173 C153 1.259 1_565 S
O173 Co154 2.021 1_655 S
H174 C165 0.930 . S
H175 C164 0.931 . S
O176 Co152 2.117 1_655 S
O176 C153 1.258 . S
O177 Co152 2.020 1_565 S
O177 C179 1.256 . S
O178 Co154 2.062 . S
O178 C179 1.255 . S
C179 O177 1.256 . S
C179 O178 1.255 . S
H180 C159 0.931 1_655 S
H181 C167 0.931 . S
Co182 N187 2.057 1_546 S
Co182 O199 2.021 . S
Co182 O202 2.062 . S
Co182 O206 2.117 1_545 S
Co182 O207 2.020 . S
C183 O203 1.259 . S
C183 O206 1.258 . S
Co184 N193 2.057 1_565 S
Co184 O200 2.117 1_565 S
Co184 O201 2.020 . S
Co184 O203 2.021 . S
Co184 O208 2.062 . S
C185 N187 1.316 1_545 S
C185 N188 1.347 . S
C185 H190 0.931 . S
C186 N187 1.375 . S
C186 C189 1.350 . S
C186 H191 0.930 . S
N187 Co182 2.057 1_564 S
N187 C185 1.316 1_565 S
N187 C186 1.375 . S
N188 C185 1.347 . S
N188 C189 1.373 1_545 S
C189 C186 1.350 . S
C189 N188 1.373 1_565 S
C189 H210 0.931 . S
H190 C185 0.931 . S
H191 C186 0.930 . S
C192 O199 1.259 . S
C192 O200 1.258 . S
N193 Co184 2.057 1_545 S
N193 C194 1.316 1_545 S
N193 C195 1.375 . S
C194 N193 1.316 1_565 S
C194 N196 1.347 . S
C194 H205 0.931 . S
C195 N193 1.375 . S
C195 C197 1.350 . S
C195 H204 0.930 . S
N196 C194 1.347 . S
N196 C197 1.373 1_565 S
C197 C195 1.350 . S
C197 N196 1.373 1_545 S
C197 H211 0.931 . S
C198 O201 1.256 . S
C198 O202 1.255 1_565 S
O199 Co182 2.021 . S
O199 C192 1.259 . S
O200 Co184 2.117 1_545 S
O200 C192 1.258 . S
O201 Co184 2.020 . S
O201 C198 1.256 . S
O202 Co182 2.062 . S
O202 C198 1.255 1_545 S
O203 C183 1.259 . S
O203 Co184 2.021 . S
H204 C195 0.930 . S
H205 C194 0.931 . S
O206 Co182 2.117 1_565 S
O206 C183 1.258 . S
O207 Co182 2.020 . S
O207 C209 1.256 . S
O208 Co184 2.062 . S
O208 C209 1.255 1_565 S
C209 O207 1.256 . S
C209 O208 1.255 1_545 S
H210 C189 0.931 . S
H211 C197 0.931 . S
Co212 N217 2.057 . S
Co212 O229 2.021 . S
Co212 O232 2.062 . S
Co212 O236 2.117 . S
Co212 O237 2.020 . S
C213 O233 1.259 . S
C213 O236 1.258 . S
Co214 N223 2.057 . S
Co214 O230 2.117 . S
Co214 O231 2.020 . S
Co214 O233 2.021 . S
Co214 O238 2.062 . S
C215 N217 1.316 . S
C215 N218 1.347 . S
C215 H220 0.931 . S
C216 N217 1.375 . S
C216 C219 1.350 . S
C216 H221 0.930 1_556 S
N217 Co212 2.057 . S
N217 C215 1.316 . S
N217 C216 1.375 . S
N218 C215 1.347 . S
N218 C219 1.373 . S
C219 C216 1.350 . S
C219 N218 1.373 . S
C219 H240 0.931 1_556 S
H220 C215 0.931 . S
H221 C216 0.930 1_554 S
C222 O229 1.259 . S
C222 O230 1.258 . S
N223 Co214 2.057 . S
N223 C224 1.316 . S
N223 C225 1.375 . S
C224 N223 1.316 . S
C224 N226 1.347 . S
C224 H235 0.931 . S
C225 N223 1.375 . S
C225 C227 1.350 . S
C225 H234 0.930 . S
N226 C224 1.347 . S
N226 C227 1.373 . S
C227 C225 1.350 . S
C227 N226 1.373 . S
C227 H241 0.931 . S
C228 O231 1.256 . S
C228 O232 1.255 . S
O229 Co212 2.021 . S
O229 C222 1.259 . S
O230 Co214 2.117 . S
O230 C222 1.258 . S
O231 Co214 2.020 . S
O231 C228 1.256 . S
O232 Co212 2.062 . S
O232 C228 1.255 . S
O233 C213 1.259 . S
O233 Co214 2.021 . S
H234 C225 0.930 . S
H235 C224 0.931 . S
O236 Co212 2.117 . S
O236 C213 1.258 . S
O237 Co212 2.020 . S
O237 C239 1.256 . S
O238 Co214 2.062 . S
O238 C239 1.255 . S
C239 O237 1.256 . S
C239 O238 1.255 . S
H240 C219 0.931 1_554 S
H241 C227 0.931 . S
Co242 N247 2.057 . S
Co242 O259 2.021 1_455 S
Co242 O262 2.062 1_455 S
Co242 O266 2.117 . S
Co242 O267 2.020 . S
C243 O263 1.259 . S
C243 O266 1.258 . S
Co244 N253 2.057 . S
Co244 O260 2.117 1_455 S
Co244 O261 2.020 1_455 S
Co244 O263 2.021 . S
Co244 O268 2.062 . S
C245 N247 1.316 . S
C245 N248 1.347 . S
C245 H250 0.931 1_455 S
C246 N247 1.375 . S
C246 C249 1.350 . S
C246 H251 0.930 . S
N247 Co242 2.057 . S
N247 C245 1.316 . S
N247 C246 1.375 . S
N248 C245 1.347 . S
N248 C249 1.373 . S
C249 C246 1.350 . S
C249 N248 1.373 . S
C249 H270 0.931 . S
H250 C245 0.931 1_655 S
H251 C246 0.930 . S
C252 O259 1.259 . S
C252 O260 1.258 . S
N253 Co244 2.057 . S
N253 C254 1.316 . S
N253 C255 1.375 1_455 S
C254 N253 1.316 . S
C254 N256 1.347 . S
C254 H265 0.931 . S
C255 N253 1.375 1_655 S
C255 C257 1.350 . S
C255 H264 0.930 . S
N256 C254 1.347 . S
N256 C257 1.373 1_455 S
C257 C255 1.350 . S
C257 N256 1.373 1_655 S
C257 H271 0.931 . S
C258 O261 1.256 . S
C258 O262 1.255 . S
O259 Co242 2.021 1_655 S
O259 C252 1.259 . S
O260 Co244 2.117 1_655 S
O260 C252 1.258 . S
O261 Co244 2.020 1_655 S
O261 C258 1.256 . S
O262 Co242 2.062 1_655 S
O262 C258 1.255 . S
O263 C243 1.259 . S
O263 Co244 2.021 . S
H264 C255 0.930 . S
H265 C254 0.931 . S
O266 Co242 2.117 . S
O266 C243 1.258 . S
O267 Co242 2.020 . S
O267 C269 1.256 . S
O268 Co244 2.062 . S
O268 C269 1.255 . S
C269 O267 1.256 . S
C269 O268 1.255 . S
H270 C249 0.931 . S
H271 C257 0.931 . S
C272 C273 1.390 1_565 S
C272 H276 0.950 . S
C272 C281 1.390 . S
C273 C272 1.390 1_545 S
C273 C275 1.385 . S
H274 C281 0.950 . S
C275 C273 1.385 . S
C275 C277 1.390 . S
C275 H279 0.950 . S
H276 C272 0.950 . S
C277 C275 1.390 . S
C277 C278 1.387 1_545 S
C277 H280 0.950 . S
C278 C277 1.387 1_565 S
C278 C281 1.387 . S
H279 C275 0.950 . S
H280 C277 0.950 . S
C281 C272 1.390 . S
C281 H274 0.950 . S
C281 C278 1.387 . S
C282 C283 1.387 . S
C282 H286 0.950 . S
C282 C291 1.390 . S
C283 C282 1.387 . S
C283 C285 1.387 . S
H284 C291 0.950 . S
C285 C283 1.387 . S
C285 C287 1.390 . S
C285 H289 0.950 . S
H286 C282 0.950 . S
C287 C285 1.390 . S
C287 C288 1.387 . S
C287 H290 0.950 . S
C288 C287 1.387 . S
C288 C291 1.387 . S
H289 C285 0.950 . S
H290 C287 0.950 . S
C291 C282 1.390 . S
C291 H284 0.950 . S
C291 C288 1.387 . S
C292 C293 1.387 . S
C292 H296 0.950 . S
C292 C301 1.390 . S
C293 C292 1.387 . S
C293 C295 1.387 . S
H294 C301 0.950 . S
C295 C293 1.387 . S
C295 C297 1.390 . S
C295 H299 0.950 . S
H296 C292 0.950 . S
C297 C295 1.390 . S
C297 C298 1.387 . S
C297 H300 0.950 . S
C298 C297 1.387 . S
C298 C301 1.387 . S
H299 C295 0.950 . S
H300 C297 0.950 . S
C301 C292 1.390 . S
C301 H294 0.950 . S
C301 C298 1.387 . S
C302 C303 1.387 . S
C302 H306 0.950 . S
C302 C311 1.390 . S
C303 C302 1.387 . S
C303 C305 1.387 . S
H304 C311 0.950 . S
C305 C303 1.387 . S
C305 C307 1.390 . S
C305 H309 0.950 . S
H306 C302 0.950 . S
C307 C305 1.390 . S
C307 C308 1.387 . S
C307 H310 0.950 . S
C308 C307 1.387 . S
C308 C311 1.387 . S
H309 C305 0.950 . S
H310 C307 0.950 . S
C311 C302 1.390 . S
C311 H304 0.950 . S
C311 C308 1.387 . S
C312 C313 1.388 1_565 S
C312 H316 0.950 . S
C312 C321 1.390 . S
C313 C312 1.388 1_545 S
C313 C315 1.387 . S
H314 C321 0.950 . S
C315 C313 1.387 . S
C315 C317 1.390 . S
C315 H319 0.950 . S
H316 C312 0.950 . S
C317 C315 1.390 . S
C317 C318 1.387 . S
C317 H320 0.950 . S
C318 C317 1.387 . S
C318 C321 1.387 1_545 S
H319 C315 0.950 . S
H320 C317 0.950 . S
C321 C312 1.390 . S
C321 H314 0.950 . S
C321 C318 1.387 1_565 S
C322 C323 1.387 1_554 S
C322 H326 0.950 . S
C322 C331 1.390 . S
C323 C322 1.387 1_556 S
C323 C325 1.387 . S
H324 C331 0.950 . S
C325 C323 1.387 . S
C325 C327 1.390 . S
C325 H329 0.950 . S
H326 C322 0.950 . S
C327 C325 1.390 . S
C327 C328 1.387 . S
C327 H330 0.950 . S
C328 C327 1.387 . S
C328 C331 1.387 1_556 S
H329 C325 0.950 . S
H330 C327 0.950 . S
C331 C322 1.390 . S
C331 H324 0.950 . S
C331 C328 1.387 1_554 S
C332 C333 1.387 . S
C332 H336 0.950 . S
C332 C341 1.390 1_554 S
C333 C332 1.387 . S
C333 C335 1.387 1_554 S
H334 C341 0.950 . S
C335 C333 1.387 1_556 S
C335 C337 1.390 . S
C335 H339 0.950 . S
H336 C332 0.950 . S
C337 C335 1.390 . S
C337 C338 1.387 . S
C337 H340 0.950 . S
C338 C337 1.387 . S
C338 C341 1.387 . S
H339 C335 0.950 . S
H340 C337 0.950 . S
C341 C332 1.390 1_556 S
C341 H334 0.950 . S
C341 C338 1.387 . S
C342 C343 1.387 . S
C342 H346 0.950 1_556 S
C342 C351 1.390 . S
C343 C342 1.387 . S
C343 C345 1.387 1_655 S
H344 C351 0.950 . S
C345 C343 1.387 1_455 S
C345 C347 1.390 . S
C345 H349 0.950 . S
H346 C342 0.950 1_554 S
C347 C345 1.390 . S
C347 C348 1.385 . S
C347 H350 0.950 . S
C348 C347 1.385 . S
C348 C351 1.391 1_455 S
H349 C345 0.950 . S
H350 C347 0.950 . S
C351 C342 1.390 . S
C351 H344 0.950 . S
C351 C348 1.391 1_655 S
C352 C353 1.387 . S
C352 H356 0.950 . S
C352 C361 1.390 . S
C353 C352 1.387 . S
C353 C355 1.387 . S
H354 C361 0.950 . S
C355 C353 1.387 . S
C355 C357 1.390 . S
C355 H359 0.950 . S
H356 C352 0.950 . S
C357 C355 1.390 . S
C357 C358 1.387 . S
C357 H360 0.950 . S
C358 C357 1.387 . S
C358 C361 1.387 . S
H359 C355 0.950 . S
H360 C357 0.950 . S
C361 C352 1.390 . S
C361 H354 0.950 . S
C361 C358 1.387 . S
C362 C363 1.411 . S
C362 H366 0.950 . S
C362 C371 1.390 . S
C363 C362 1.411 . S
C363 C365 1.363 1_545 S
H364 C371 0.950 . S
C365 C363 1.363 1_565 S
C365 C367 1.390 . S
C365 H369 0.950 . S
H366 C362 0.950 . S
C367 C365 1.390 . S
C367 C368 1.387 . S
C367 H370 0.950 . S
C368 C367 1.387 . S
C368 C371 1.387 1_565 S
H369 C365 0.950 . S
H370 C367 0.950 . S
C371 C362 1.390 . S
C371 H364 0.950 . S
C371 C368 1.387 1_545 S
C372 C373 1.387 . S
C372 H376 0.950 . S
C372 C381 1.390 . S
C373 C372 1.387 . S
C373 C375 1.387 . S
H374 C381 0.950 . S
C375 C373 1.387 . S
C375 C377 1.390 . S
C375 H379 0.950 . S
H376 C372 0.950 . S
C377 C375 1.390 . S
C377 C378 1.387 . S
C377 H380 0.950 . S
C378 C377 1.387 . S
C378 C381 1.387 . S
H379 C375 0.950 . S
H380 C377 0.950 . S
C381 C372 1.390 . S
C381 H374 0.950 . S
C381 C378 1.387 . S
C382 C383 1.387 . S
C382 H386 0.950 . S
C382 C391 1.390 . S
C383 C382 1.387 . S
C383 C385 1.387 . S
H384 C391 0.950 . S
C385 C383 1.387 . S
C385 C387 1.390 . S
C385 H389 0.950 . S
H386 C382 0.950 . S
C387 C385 1.390 . S
C387 C388 1.387 . S
C387 H390 0.950 . S
C388 C387 1.387 . S
C388 C391 1.387 . S
H389 C385 0.950 . S
H390 C387 0.950 . S
C391 C382 1.390 . S
C391 H384 0.950 . S
C391 C388 1.387 . S
C392 C393 1.387 1_554 S
C392 H396 0.950 . S
C392 C401 1.390 1_655 S
C393 C392 1.387 1_556 S
C393 C395 1.387 . S
H394 C401 0.950 . S
C395 C393 1.387 . S
C395 C397 1.390 . S
C395 H399 0.950 . S
H396 C392 0.950 . S
C397 C395 1.390 . S
C397 C398 1.387 1_655 S
C397 H400 0.950 1_655 S
C398 C397 1.387 1_455 S
C398 C401 1.387 1_556 S
H399 C395 0.950 . S
H400 C397 0.950 1_455 S
C401 C392 1.390 1_455 S
C401 H394 0.950 . S
C401 C398 1.387 1_554 S
C402 C403 1.397 . S
C402 H406 0.950 . S
C402 C411 1.390 . S
C403 C402 1.397 . S
C403 C405 1.377 1_566 S
H404 C411 0.950 . S
C405 C403 1.377 1_544 S
C405 C407 1.390 . S
C405 H409 0.950 . S
H406 C402 0.950 . S
C407 C405 1.390 . S
C407 C408 1.387 1_554 S
C407 H410 0.950 . S
C408 C407 1.387 1_556 S
C408 C411 1.387 1_545 S
H409 C405 0.950 . S
H410 C407 0.950 . S
C411 C402 1.390 . S
C411 H404 0.950 . S
C411 C408 1.387 1_565 S
C412 C413 1.387 1_556 S
C412 H416 0.950 1_556 S
C412 C421 1.390 . S
C413 C412 1.387 1_554 S
C413 C415 1.387 . S
H414 C421 0.950 . S
C415 C413 1.387 . S
C415 C417 1.390 1_554 S
C415 H419 0.950 . S
H416 C412 0.950 1_554 S
C417 C415 1.390 1_556 S
C417 C418 1.387 . S
C417 H420 0.950 . S
C418 C417 1.387 . S
C418 C421 1.387 . S
H419 C415 0.950 . S
H420 C417 0.950 . S
C421 C412 1.390 . S
C421 H414 0.950 . S
C421 C418 1.387 . S
C422 C423 1.387 1_556 S
C422 H426 0.950 . S
C422 C431 1.390 . S
C423 C422 1.387 1_554 S
C423 C425 1.387 . S
H424 C431 0.950 . S
C425 C423 1.387 . S
C425 C427 1.390 . S
C425 H429 0.950 . S
H426 C422 0.950 . S
C427 C425 1.390 . S
C427 C428 1.387 1_554 S
C427 H430 0.950 . S
C428 C427 1.387 1_556 S
C428 C431 1.387 . S
H429 C425 0.950 . S
H430 C427 0.950 . S
C431 C422 1.390 . S
C431 H424 0.950 . S
C431 C428 1.387 . S
C432 C433 1.387 . S
C432 H436 0.950 . S
C432 C441 1.390 . S
C433 C432 1.387 . S
C433 C435 1.387 . S
H434 C441 0.950 . S
C435 C433 1.387 . S
C435 C437 1.390 . S
C435 H439 0.950 . S
H436 C432 0.950 . S
C437 C435 1.390 . S
C437 C438 1.387 . S
C437 H440 0.950 . S
C438 C437 1.387 . S
C438 C441 1.387 . S
H439 C435 0.950 . S
H440 C437 0.950 . S
C441 C432 1.390 . S
C441 H434 0.950 . S
C441 C438 1.387 . S
C442 C443 1.387 . S
C442 H446 0.950 . S
C442 C451 1.390 . S
C443 C442 1.387 . S
C443 C445 1.387 1_545 S
H444 C451 0.950 . S
C445 C443 1.387 1_565 S
C445 C447 1.390 . S
C445 H449 0.950 . S
H446 C442 0.950 . S
C447 C445 1.390 . S
C447 C448 1.387 1_565 S
C447 H450 0.950 . S
C448 C447 1.387 1_545 S
C448 C451 1.387 . S
H449 C445 0.950 . S
H450 C447 0.950 . S
C451 C442 1.390 . S
C451 H444 0.950 . S
C451 C448 1.387 . S
C452 C453 1.387 . S
C452 H456 0.950 . S
C452 C461 1.390 . S
C453 C452 1.387 . S
C453 C455 1.387 . S
H454 C461 0.950 . S
C455 C453 1.387 . S
C455 C457 1.390 . S
C455 H459 0.950 . S
H456 C452 0.950 . S
C457 C455 1.390 . S
C457 C458 1.387 . S
C457 H460 0.950 . S
C458 C457 1.387 . S
C458 C461 1.387 . S
H459 C455 0.950 . S
H460 C457 0.950 . S
C461 C452 1.390 . S
C461 H454 0.950 . S
C461 C458 1.387 . S
C462 C463 1.387 . S
C462 H466 0.950 . S
C462 C471 1.390 . S
C463 C462 1.387 . S
C463 C465 1.387 . S
H464 C471 0.950 . S
C465 C463 1.387 . S
C465 C467 1.390 . S
C465 H469 0.950 . S
H466 C462 0.950 . S
C467 C465 1.390 . S
C467 C468 1.387 . S
C467 H470 0.950 . S
C468 C467 1.387 . S
C468 C471 1.387 . S
H469 C465 0.950 . S
H470 C467 0.950 . S
C471 C462 1.390 . S
C471 H464 0.950 . S
C471 C468 1.387 . S
C472 C473 1.387 . S
C472 H476 0.950 . S
C472 C481 1.390 . S
C473 C472 1.387 . S
C473 C475 1.387 . S
H474 C481 0.950 1_455 S
C475 C473 1.387 . S
C475 C477 1.390 . S
C475 H479 0.950 . S
H476 C472 0.950 . S
C477 C475 1.390 . S
C477 C478 1.387 . S
C477 H480 0.950 . S
C478 C477 1.387 . S
C478 C481 1.387 . S
H479 C475 0.950 . S
H480 C477 0.950 . S
C481 C472 1.390 . S
C481 H474 0.950 1_655 S
C481 C478 1.387 . S
C482 C483 1.387 . S
C482 H486 0.950 . S
C482 C491 1.390 . S
C483 C482 1.387 . S
C483 C485 1.387 1_565 S
H484 C491 0.950 . S
C485 C483 1.387 1_545 S
C485 C487 1.390 . S
C485 H489 0.950 . S
H486 C482 0.950 . S
C487 C485 1.390 . S
C487 C488 1.387 1_545 S
C487 H490 0.950 . S
C488 C487 1.387 1_565 S
C488 C491 1.387 . S
H489 C485 0.950 . S
H490 C487 0.950 . S
C491 C482 1.390 . S
C491 H484 0.950 . S
C491 C488 1.387 . S
C492 C493 1.387 . S
C492 H496 0.950 . S
C492 C501 1.390 . S
C493 C492 1.387 . S
C493 C495 1.387 . S
H494 C501 0.950 . S
C495 C493 1.387 . S
C495 C497 1.390 . S
C495 H499 0.950 . S
H496 C492 0.950 . S
C497 C495 1.390 . S
C497 C498 1.387 . S
C497 H500 0.950 . S
C498 C497 1.387 . S
C498 C501 1.387 . S
H499 C495 0.950 . S
H500 C497 0.950 . S
C501 C492 1.390 . S
C501 H494 0.950 . S
C501 C498 1.387 . S
C502 C503 1.387 . S
C502 H506 0.950 . S
C502 C511 1.390 . S
C503 C502 1.387 . S
C503 C505 1.387 . S
H504 C511 0.950 . S
C505 C503 1.387 . S
C505 C507 1.390 . S
C505 H509 0.950 . S
H506 C502 0.950 . S
C507 C505 1.390 . S
C507 C508 1.387 . S
C507 H510 0.950 . S
C508 C507 1.387 . S
C508 C511 1.387 . S
H509 C505 0.950 . S
H510 C507 0.950 . S
C511 C502 1.390 . S
C511 H504 0.950 . S
C511 C508 1.387 . S
C273 C125 1.614 1_545 S
C278 C162 1.750 . S
C288 C192 1.823 . S
C283 C144 1.660 . S
C298 N226 1.383 . S
C293 C87 1.374 . S
C308 N256 1.441 . S
C303 C106 1.378 . S
C318 C153 1.749 . S
C313 C49 1.642 1_545 S
C323 C68 1.729 1_556 S
C328 C183 1.825 . S
C333 C11 1.419 . S
C338 N218 1.383 . S
C343 C30 1.503 1_556 S
C348 N248 1.441 . S
C358 C168 0.754 . S
C353 C97 0.752 . S
C368 C198 1.219 . S
C363 C116 1.112 . S
C378 C239 1.467 . S
C373 C135 1.405 . S
C383 C78 0.945 . S
C388 C269 0.954 . S
C393 C21 0.753 1_556 S
C398 C179 0.756 . S
C408 C209 1.221 . S
C403 C40 1.116 . S
C418 C228 1.468 . S
C413 C59 1.410 . S
C423 C2 0.946 . S
C428 C258 0.951 . S
C433 C101 1.471 . S
C438 N158 1.482 . S
C443 C120 1.449 . S
C448 N188 1.445 . S
C458 C213 1.658 1_554 S
C453 C139 1.640 . S
C468 C243 1.616 1_554 S
C463 C82 1.593 . S
C473 C25 1.474 . S
C478 N166 1.486 . S
C488 N196 1.446 . S
C483 C44 1.445 . S
C498 C222 1.657 . S
C493 C63 1.641 . S
C503 C6 1.596 . S
C508 C252 1.617 . S
