# Generated by pormake.
# Topology anh, (6,3)-cn, num edge types: 1
# Building blocks:
#     Node 0, Type 0, BuildingBlock: HISSIN_clean_sbu_0, # of connection points: 6
#     Node 1, Type 0, BuildingBlock: HISSIN_clean_sbu_0, # of connection points: 6
#     Node 2, Type 0, BuildingBlock: HISSIN_clean_sbu_0, # of connection points: 6
#     Node 3, Type 1, BuildingBlock: QEWDON_clean_linker_0, # of connection points: 3
#     Node 4, Type 1, BuildingBlock: QEWDON_clean_linker_0, # of connection points: 3
#     Node 5, Type 1, BuildingBlock: QEWDON_clean_linker_0, # of connection points: 3
#     Node 6, Type 1, BuildingBlock: QEWDON_clean_linker_0, # of connection points: 3
#     Node 7, Type 1, BuildingBlock: QEWDON_clean_linker_0, # of connection points: 3
#     Node 8, Type 1, BuildingBlock: QEWDON_clean_linker_0, # of connection points: 3
#     Edge 9, Type (0, 1), BuildingBlock: ZUJKAS_clean_linker_0, # of connection points: 2
#     Edge 10, Type (0, 1), BuildingBlock: ZUJKAS_clean_linker_0, # of connection points: 2
#     Edge 11, Type (0, 1), BuildingBlock: ZUJKAS_clean_linker_0, # of connection points: 2
#     Edge 12, Type (0, 1), BuildingBlock: ZUJKAS_clean_linker_0, # of connection points: 2
#     Edge 13, Type (0, 1), BuildingBlock: ZUJKAS_clean_linker_0, # of connection points: 2
#     Edge 14, Type (0, 1), BuildingBlock: ZUJKAS_clean_linker_0, # of connection points: 2
#     Edge 15, Type (0, 1), BuildingBlock: ZUJKAS_clean_linker_0, # of connection points: 2
#     Edge 16, Type (0, 1), BuildingBlock: ZUJKAS_clean_linker_0, # of connection points: 2
#     Edge 17, Type (0, 1), BuildingBlock: ZUJKAS_clean_linker_0, # of connection points: 2
#     Edge 18, Type (0, 1), BuildingBlock: ZUJKAS_clean_linker_0, # of connection points: 2
#     Edge 19, Type (0, 1), BuildingBlock: ZUJKAS_clean_linker_0, # of connection points: 2
#     Edge 20, Type (0, 1), BuildingBlock: ZUJKAS_clean_linker_0, # of connection points: 2
#     Edge 21, Type (0, 1), BuildingBlock: ZUJKAS_clean_linker_0, # of connection points: 2
#     Edge 22, Type (0, 1), BuildingBlock: ZUJKAS_clean_linker_0, # of connection points: 2
#     Edge 23, Type (0, 1), BuildingBlock: ZUJKAS_clean_linker_0, # of connection points: 2
#     Edge 24, Type (0, 1), BuildingBlock: ZUJKAS_clean_linker_0, # of connection points: 2
#     Edge 25, Type (0, 1), BuildingBlock: ZUJKAS_clean_linker_0, # of connection points: 2
#     Edge 26, Type (0, 1), BuildingBlock: ZUJKAS_clean_linker_0, # of connection points: 2
# Relax obj value: 0.160
# Max RMSD: 0.132
# Mean RMSD: 0.121
data_MOF--net-anh--node1-HISSIN_clean_sbu_0--node2-QEWDON_clean_linker_0--edge1-ZUJKAS_clean_linker_0
_symmetry_space_group_name_H-M    P1
_symmetry_Int_Tables_number       1
_symmetry_cell_setting            triclinic
loop_
_symmetry_equiv_pos_as_xyz
'x, y, z'
_cell_length_a     42.851864
_cell_length_b     42.790279
_cell_length_c     63.883276
_cell_angle_alpha  95.864716
_cell_angle_beta   93.599369
_cell_angle_gamma 119.07048
loop_
_atom_site_label
_atom_site_type_symbol
_atom_site_fract_x
_atom_site_fract_y
_atom_site_fract_z
_atom_type_partial_charge
Eu0 Eu 0.05626 0.54551 0.15434 0.0
Eu1 Eu 0.09925 0.63183 0.16229 0.0
C2 C 0.07971 0.58843 0.20216 0.0
C3 C 0.98145 0.45168 0.13523 0.0
C4 C 0.96436 0.41425 0.1351 0.0
C5 C 0.92615 0.44557 0.11821 0.0
C6 C 0.92803 0.39257 0.12687 0.0
C7 C 0.96244 0.46712 0.1263 0.0
C8 C 0.90838 0.4082 0.11886 0.0
C9 C 1.018 0.47517 0.14618 0.0
O10 O 0.14648 0.61885 0.16251 0.0
O11 O 0.11538 0.55755 0.15187 0.0
C12 C 0.14676 0.58823 0.15659 0.0
O13 O 1.05028 0.56227 0.12277 0.0
O14 O 0.14049 0.68329 0.18047 0.0
O15 O 0.10867 0.68264 0.15247 0.0
O16 O 0.10298 0.61534 0.12857 0.0
C17 C 0.07651 0.58894 0.11554 0.0
O18 O 1.0093 0.55855 0.15666 0.0
O19 O 1.03958 0.61947 0.15569 0.0
O20 O 0.08351 0.61715 0.19445 0.0
O21 O 1.04182 0.49468 0.13442 0.0
O22 O 1.01994 0.49397 0.16411 0.0
O23 O 0.07551 0.56004 0.1896 0.0
C24 C 0.17052 0.72456 0.15759 0.0
C25 C 0.17967 0.71 0.13987 0.0
C26 C 0.22768 0.77993 0.16048 0.0
C27 C 0.21265 0.73023 0.13251 0.0
C28 C 0.19456 0.75969 0.16777 0.0
C29 C 0.23721 0.76529 0.14287 0.0
C30 C 0.13731 0.70193 0.16636 0.0
C31 C 1.00852 0.58905 0.15541 0.0
H32 H 0.9787 0.40202 0.14203 0.0
H33 H 0.9117 0.45824 0.11201 0.0
H34 H 0.91487 0.3639 0.1278 0.0
H35 H 0.97535 0.49605 0.12625 0.0
H36 H 0.16157 0.68271 0.13192 0.0
H37 H 0.24626 0.80662 0.16907 0.0
H38 H 0.21901 0.7183 0.11883 0.0
H39 H 0.18811 0.77111 0.18164 0.0
Eu40 Eu 0.58882 0.05654 0.48649 0.0
Eu41 Eu 0.54924 0.10239 0.49227 0.0
C42 C 0.57416 0.07829 0.53405 0.0
C43 C 0.61102 0.98089 0.48287 0.0
C44 C 0.59665 0.96622 0.50099 0.0
C45 C 0.60284 0.92274 0.46759 0.0
C46 C 0.58575 0.93009 0.50245 0.0
C47 C 0.61413 0.95894 0.46624 0.0
C48 C 0.58853 0.90801 0.48569 0.0
C49 C 0.62055 1.0181 0.48037 0.0
O50 O 0.60899 0.14939 0.49363 0.0
O51 O 0.63584 0.11594 0.48465 0.0
C52 C 0.63831 0.14844 0.48869 0.0
O53 O 0.56221 0.05227 0.45406 0.0
O54 O 0.53926 0.14304 0.50903 0.0
O55 O 0.50908 0.11425 0.47822 0.0
O56 O 0.56813 0.10768 0.46018 0.0
C57 C 0.56441 0.08059 0.44688 0.0
O58 O 0.53035 1.01007 0.48894 0.0
O59 O 0.5005 0.04203 0.48678 0.0
O60 O 0.55878 0.0954 0.52621 0.0
O61 O 0.60038 1.02101 0.46549 0.0
O62 O 0.62757 0.04072 0.49761 0.0
O63 O 0.58717 0.06194 0.52191 0.0
C64 C 0.53585 0.17791 0.48427 0.0
C65 C 0.55441 0.18208 0.46644 0.0
C66 C 0.56468 0.24317 0.49289 0.0
C67 C 0.57929 0.21639 0.46253 0.0
C68 C 0.54008 0.20872 0.49696 0.0
C69 C 0.58587 0.24731 0.47626 0.0
C70 C 0.5201 0.14307 0.49233 0.0
C71 C 0.49922 1.01021 0.4873 0.0
H72 H 0.59344 0.98248 0.5139 0.0
H73 H 0.60565 0.90633 0.45458 0.0
H74 H 0.57461 0.91925 0.51651 0.0
H75 H 0.6249 0.96973 0.45209 0.0
H76 H 0.55178 0.1588 0.45639 0.0
H77 H 0.56836 0.26653 0.50342 0.0
H78 H 0.59507 0.21843 0.44961 0.0
H79 H 0.52626 0.20618 0.51086 0.0
Eu80 Eu 0.56955 0.54395 0.81905 0.0
Eu81 Eu 0.65441 0.58606 0.83073 0.0
C82 C 0.60485 0.56875 0.8681 0.0
C83 C 0.4786 0.52167 0.79419 0.0
C84 C 0.49504 0.55562 0.7874 0.0
C85 C 0.42033 0.51096 0.77907 0.0
C86 C 0.47416 0.56766 0.77709 0.0
C87 C 0.44129 0.49902 0.78956 0.0
C88 C 0.43655 0.54578 0.77328 0.0
C89 C 0.50044 0.51099 0.80691 0.0
O90 O 0.6407 0.5262 0.83163 0.0
O91 O 0.58245 0.49652 0.81564 0.0
C92 C 0.61154 0.49533 0.82301 0.0
O93 O 0.59311 0.56616 0.78985 0.0
O94 O 0.70301 0.60123 0.85189 0.0
O95 O 0.7074 0.62075 0.82158 0.0
O96 O 0.64223 0.5606 0.79666 0.0
C97 C 0.62012 0.56368 0.7832 0.0
O98 O 0.58209 0.60405 0.8225 0.0
O99 O 0.64359 0.63336 0.82455 0.0
O100 O 0.63425 0.59291 0.86161 0.0
O101 O 0.52272 0.50455 0.79681 0.0
O102 O 0.51555 0.53102 0.8254 0.0
O103 O 0.57842 0.54307 0.85439 0.0
C104 C 0.74673 0.59958 0.83164 0.0
C105 C 0.77097 0.61407 0.81689 0.0
C106 C 0.76077 0.55095 0.83178 0.0
C107 C 0.78973 0.59697 0.80949 0.0
C108 C 0.74189 0.56786 0.83905 0.0
C109 C 0.78473 0.56512 0.8168 0.0
C110 C 0.72393 0.6153 0.83747 0.0
C111 C 0.61304 0.63462 0.8229 0.0
H112 H 0.52393 0.5733 0.79068 0.0
H113 H 0.39133 0.49377 0.77653 0.0
H114 H 0.48727 0.59454 0.77272 0.0
H115 H 0.42829 0.47269 0.79466 0.0
H116 H 0.7748 0.6382 0.81073 0.0
H117 H 0.75684 0.52694 0.83812 0.0
H118 H 0.8078 0.60845 0.79783 0.0
H119 H 0.72314 0.55569 0.85028 0.0
H120 H 0.55347 0.14257 0.22094 0.0
C121 C 0.54796 0.11679 0.21245 0.0
C122 C 0.55145 0.09156 0.22341 0.0
C123 C 0.53675 0.10852 0.19054 0.0
H124 H 0.5458 0.03831 0.2205 0.0
C125 C 0.54411 0.05829 0.21208 0.0
C126 C 0.53238 0.04961 0.19019 0.0
C127 C 0.52912 0.07513 0.17949 0.0
C128 C 0.53256 0.13447 0.17895 0.0
H129 H 0.51927 0.06858 0.16268 0.0
C130 C 0.56239 0.16114 0.17126 0.0
C131 C 0.55841 0.18396 0.15834 0.0
C132 C 0.4985 0.13084 0.17402 0.0
H133 H 0.47512 0.11001 0.1797 0.0
C134 C 0.49443 0.15378 0.1614 0.0
H135 H 0.58847 0.16314 0.17468 0.0
C136 C 0.52417 0.18007 0.15341 0.0
H137 H 0.52049 0.19735 0.14345 0.0
H138 H 0.46809 0.15085 0.15755 0.0
H139 H 0.63145 0.57291 0.55866 0.0
C140 C 0.65249 0.56957 0.55199 0.0
C141 C 0.68126 0.57236 0.56545 0.0
C142 C 0.64908 0.55954 0.53006 0.0
H143 H 0.72946 0.56792 0.56685 0.0
C144 C 0.70747 0.56632 0.55657 0.0
C145 C 0.70461 0.55685 0.53452 0.0
C146 C 0.67526 0.55358 0.52143 0.0
C147 C 0.61706 0.5532 0.51617 0.0
H148 H 0.67175 0.54472 0.5045 0.0
C149 C 0.60849 0.58081 0.51565 0.0
C150 C 0.57937 0.5759 0.50154 0.0
C151 C 0.59558 0.5199 0.50296 0.0
H152 H 0.6017 0.49816 0.5032 0.0
C153 C 0.5659 0.51439 0.48943 0.0
H154 H 0.62511 0.60643 0.52592 0.0
C155 C 0.55787 0.54224 0.4886 0.0
H156 H 0.53549 0.53774 0.47743 0.0
H157 H 0.54943 0.48866 0.47929 0.0
H158 H 0.16342 0.64043 0.8975 0.0
C159 C 0.14024 0.62141 0.88618 0.0
C160 C 0.10871 0.59623 0.89342 0.0
C161 C 0.14162 0.6224 0.86435 0.0
H162 H 0.05384 0.55363 0.88459 0.0
C163 C 0.07853 0.5721 0.87881 0.0
C164 C 0.07959 0.57277 0.85694 0.0
C165 C 0.11142 0.59773 0.84984 0.0
C166 C 0.17399 0.64973 0.85644 0.0
H167 H 0.11234 0.59878 0.83299 0.0
C168 C 0.18922 0.6388 0.8405 0.0
C169 C 0.21881 0.66442 0.83194 0.0
C170 C 0.18876 0.68675 0.86394 0.0
H171 H 0.17724 0.69578 0.87614 0.0
C172 C 0.21793 0.71242 0.85523 0.0
H173 H 0.17801 0.61021 0.83477 0.0
C174 C 0.23284 0.70139 0.83921 0.0
H175 H 0.25579 0.72159 0.83288 0.0
H176 H 0.22903 0.74094 0.86094 0.0
H177 H 0.05222 0.56069 0.43529 0.0
C178 C 0.07496 0.58543 0.44355 0.0
C179 C 0.09933 0.6101 0.43131 0.0
C180 C 0.08005 0.59144 0.46599 0.0
H181 H 0.14732 0.66151 0.4317 0.0
C182 C 0.12973 0.64262 0.44141 0.0
C183 C 0.13862 0.6518 0.46349 0.0
C184 C 0.11319 0.62556 0.47578 0.0
C185 C 0.0514 0.56148 0.47842 0.0
H186 H 0.1193 0.63247 0.49281 0.0
C187 C 1.01613 0.52868 0.46961 0.0
C188 C 0.99223 0.50258 0.48289 0.0
C189 C 0.06029 0.5656 0.50048 0.0
H190 H 0.08532 0.58785 0.50858 0.0
C191 C 1.03782 0.54118 0.51304 0.0
H192 H 1.00717 0.52342 0.45279 0.0
C193 C 1.00496 0.51078 0.50457 0.0
H194 H 0.9891 0.4931 0.51537 0.0
H195 H 1.04626 0.54592 0.52994 0.0
H196 H 0.61091 0.04934 0.76732 0.0
C197 C 0.6098 0.07231 0.7752 0.0
C198 C 0.60729 0.09657 0.76261 0.0
C199 C 0.6126 0.07814 0.7976 0.0
H200 H 0.60408 0.14516 0.76222 0.0
C201 C 0.6066 0.12735 0.77226 0.0
C202 C 0.60922 0.13615 0.79431 0.0
C203 C 0.6124 0.1111 0.80696 0.0
C204 C 0.61768 0.05094 0.81062 0.0
H205 H 0.61384 0.11723 0.82392 0.0
C206 C 0.61206 1.01465 0.80237 0.0
C207 C 0.61952 0.99251 0.81584 0.0
C208 C 0.63048 0.06269 0.83238 0.0
H209 H 0.63647 0.08908 0.83989 0.0
C210 C 0.63714 0.04155 0.84524 0.0
H211 H 0.60237 1.00375 0.78579 0.0
C212 C 0.63193 1.00759 0.83723 0.0
H213 H 0.63792 0.99278 0.84811 0.0
H214 H 0.64705 0.05201 0.86189 0.0
H215 H 0.56503 0.58799 0.1012 0.0
C216 C 0.58807 0.58779 0.10892 0.0
C217 C 0.61401 0.58784 0.09623 0.0
C218 C 0.59199 0.58867 0.13115 0.0
H219 H 0.66452 0.58847 0.09552 0.0
C220 C 0.64525 0.58884 0.10563 0.0
C221 C 0.65207 0.58924 0.12746 0.0
C222 C 0.6247 0.5887 0.14015 0.0
C223 C 0.56269 0.59089 0.14436 0.0
H224 H 0.62964 0.58872 0.1569 0.0
C225 C 0.52819 0.58817 0.13597 0.0
C226 C 0.50378 0.59228 0.1498 0.0
C227 C 0.57023 0.59735 0.16664 0.0
H228 H 0.59476 0.60042 0.17451 0.0
C229 C 0.54694 0.60085 0.17978 0.0
H230 H 0.52032 0.58333 0.11905 0.0
C231 C 0.51481 0.59852 0.17165 0.0
H232 H 0.49818 0.60175 0.18281 0.0
H233 H 0.55421 0.60587 0.19682 0.0
H234 H 0.16081 0.5309 0.14514 0.0
H235 H 0.2182 0.53156 0.14255 0.0
H236 H 0.27557 0.64706 0.16078 0.0
H237 H 0.21844 0.6463 0.16379 0.0
H238 H 0.27197 0.55401 0.12041 0.0
H239 H 0.34035 0.63252 0.19914 0.0
H240 H 0.29318 0.61607 0.19147 0.0
H241 H 0.32677 0.65722 0.18339 0.0
C242 C 0.18551 0.55665 0.14883 0.0
C243 C 0.18347 0.58848 0.155 0.0
C244 C 0.2191 0.55705 0.14725 0.0
C245 C 0.25325 0.58925 0.15189 0.0
C246 C 0.25108 0.62114 0.15771 0.0
H247 H 0.48826 0.64845 0.15537 0.0
H248 H 0.43023 0.64686 0.15499 0.0
C249 C 0.21753 0.62076 0.15928 0.0
C250 C 0.29015 0.58941 0.15029 0.0
H251 H 0.37715 0.62391 0.17571 0.0
C252 C 0.29465 0.56931 0.13274 0.0
C253 C 0.32141 0.60897 0.16591 0.0
C254 C 0.32021 0.62961 0.18613 0.0
C255 C 0.32783 0.56901 0.13016 0.0
C256 C 0.35912 0.58865 0.14576 0.0
C257 C 0.35453 0.60864 0.16334 0.0
C258 C 0.39634 0.58941 0.14425 0.0
C259 C 0.32907 0.54838 0.10996 0.0
C260 C 0.39955 0.55812 0.13813 0.0
C261 C 0.43375 0.55922 0.13795 0.0
C262 C 0.4673 0.5917 0.14378 0.0
C263 C 0.46402 0.62286 0.14982 0.0
C264 C 0.43001 0.62181 0.14997 0.0
H265 H 0.3088 0.54525 0.09697 0.0
H266 H 0.35607 0.56207 0.10458 0.0
H267 H 0.32277 0.52087 0.11276 0.0
H268 H 0.3754 0.532 0.13429 0.0
H269 H 0.43375 0.53396 0.13425 0.0
H270 H 0.65418 0.22192 0.49311 0.0
H271 H 0.70991 0.27796 0.49033 0.0
H272 H 0.76362 0.21652 0.47854 0.0
H273 H 0.7078 0.1606 0.48077 0.0
H274 H 0.77415 0.32215 0.50826 0.0
H275 H 0.80693 0.27337 0.43449 0.0
H276 H 0.76459 0.24688 0.44414 0.0
H277 H 0.80437 0.24624 0.45459 0.0
C278 C 0.67763 0.21981 0.48982 0.0
C279 C 0.67462 0.18483 0.48718 0.0
C280 C 0.71045 0.25281 0.4882 0.0
C281 C 0.74312 0.25377 0.4836 0.0
C282 C 0.74011 0.21875 0.48128 0.0
H283 H 0.97465 0.4294 0.4721 0.0
H284 H 0.9175 0.37312 0.47226 0.0
C285 C 0.7073 0.18577 0.48287 0.0
C286 C 0.77939 0.2905 0.48178 0.0
H287 H 0.85306 0.32937 0.45345 0.0
C288 C 0.79087 0.32313 0.49602 0.0
C289 C 0.80338 0.29454 0.46613 0.0
C290 C 0.79412 0.26357 0.44883 0.0
C291 C 0.82382 0.35696 0.49558 0.0
C292 C 0.84787 0.36099 0.47995 0.0
C293 C 0.83633 0.32839 0.46568 0.0
C294 C 0.88439 0.39761 0.47833 0.0
C295 C 0.83305 0.38792 0.51288 0.0
C296 C 0.88779 0.43279 0.48075 0.0
C297 C 0.92128 0.46577 0.48029 0.0
C298 C 0.95423 0.46661 0.47674 0.0
C299 C 0.95071 0.43144 0.47386 0.0
C300 C 0.91719 0.39839 0.4743 0.0
H301 H 0.82004 0.37815 0.52717 0.0
H302 H 0.86257 0.40452 0.51767 0.0
H303 H 0.82298 0.40532 0.50705 0.0
H304 H 0.86432 0.43524 0.48327 0.0
H305 H 0.92155 0.49124 0.48355 0.0
H306 H 0.55552 0.64915 0.81745 0.0
H307 H 0.55595 0.70618 0.81433 0.0
H308 H 0.6717 0.76265 0.82187 0.0
H309 H 0.67123 0.70563 0.82446 0.0
H310 H 0.57369 0.76797 0.83596 0.0
H311 H 0.66481 0.81103 0.77485 0.0
H312 H 0.64745 0.76676 0.78247 0.0
H313 H 0.68603 0.80533 0.79807 0.0
C314 C 0.58132 0.67353 0.81836 0.0
C315 C 0.61335 0.67124 0.82117 0.0
C316 C 0.58156 0.70692 0.81656 0.0
C317 C 0.61382 0.74054 0.81723 0.0
C318 C 0.64585 0.73826 0.82039 0.0
H319 H 0.67404 0.97488 0.81463 0.0
H320 H 0.67145 0.91631 0.81463 0.0
C321 C 0.64562 0.70488 0.82217 0.0
C322 C 0.61381 0.77716 0.81512 0.0
H323 H 0.65261 0.85531 0.79166 0.0
C324 C 0.59096 0.78663 0.82605 0.0
C325 C 0.63587 0.80327 0.80235 0.0
C326 C 0.65964 0.79602 0.78859 0.0
C327 C 0.5903 0.81995 0.82519 0.0
C328 C 0.6125 0.84614 0.81251 0.0
C329 C 0.63525 0.83661 0.80153 0.0
C330 C 0.61341 0.88332 0.81089 0.0
C331 C 0.56639 0.82719 0.83883 0.0
C332 C 0.58204 0.88692 0.80793 0.0
C333 C 0.58359 0.92132 0.80759 0.0
C334 C 0.6166 0.95454 0.80976 0.0
C335 C 0.6478 0.95072 0.81209 0.0
C336 C 0.64629 0.91648 0.81236 0.0
H337 H 0.56025 0.81143 0.85227 0.0
H338 H 0.57903 0.85633 0.84539 0.0
H339 H 0.54047 0.81887 0.8291 0.0
H340 H 0.55578 0.86297 0.80605 0.0
H341 H 0.55859 0.92194 0.8065 0.0
H342 H 0.9377 0.53354 0.15815 0.0
H343 H 0.88021 0.5338 0.1551 0.0
H344 H 0.93598 0.64487 0.14518 0.0
H345 H 0.99335 0.64472 0.14831 0.0
H346 H 0.84891 0.56818 0.17625 0.0
H347 H 0.85713 0.60976 0.09698 0.0
H348 H 0.88761 0.59625 0.10817 0.0
H349 H 0.8951 0.64126 0.11593 0.0
C350 C 0.93813 0.55825 0.15528 0.0
C351 C 0.97168 0.58909 0.1535 0.0
C352 C 0.90452 0.55839 0.15353 0.0
C353 C 0.90183 0.58915 0.14944 0.0
C354 C 0.93543 0.62003 0.14778 0.0
H355 H 0.72229 0.64037 0.12292 0.0
H356 H 0.77898 0.63983 0.12898 0.0
C357 C 0.96907 0.62003 0.14978 0.0
C358 C 0.86475 0.58903 0.14718 0.0
H359 H 0.81047 0.60923 0.11507 0.0
C360 C 0.84079 0.57711 0.16271 0.0
C361 C 0.85232 0.60059 0.12981 0.0
C362 C 0.87411 0.61237 0.11165 0.0
C363 C 0.80712 0.57746 0.1618 0.0
C364 C 0.79445 0.58877 0.1443 0.0
C365 C 0.81845 0.60045 0.12872 0.0
C366 C 0.75767 0.58954 0.14188 0.0
C367 C 0.78637 0.56704 0.18047 0.0
C368 C 0.7242 0.562 0.147 0.0
C369 C 0.69096 0.56286 0.14396 0.0
C370 C 0.68862 0.59107 0.13529 0.0
C371 C 0.72192 0.61837 0.13012 0.0
C372 C 0.75506 0.61778 0.13339 0.0
H373 H 0.80425 0.57122 0.1951 0.0
H374 H 0.77261 0.58298 0.18366 0.0
H375 H 0.7659 0.53788 0.17712 0.0
H376 H 0.72307 0.53862 0.15272 0.0
H377 H 0.66657 0.54027 0.14752 0.0
H378 H 0.48397 0.93871 0.49166 0.0
H379 H 0.42633 0.88195 0.48929 0.0
H380 H 0.36924 0.93895 0.47743 0.0
H381 H 0.42674 0.99556 0.47976 0.0
H382 H 0.36809 0.85062 0.5091 0.0
H383 H 0.30916 0.85753 0.43183 0.0
H384 H 0.35568 0.8883 0.44215 0.0
H385 H 0.32073 0.89628 0.45106 0.0
C386 C 0.45935 0.93964 0.48844 0.0
C387 C 0.46188 0.97354 0.48585 0.0
C388 C 0.42547 0.90629 0.48709 0.0
C389 C 0.39117 0.90375 0.48264 0.0
C390 C 0.39376 0.93777 0.48024 0.0
H391 H 0.15492 0.72274 0.45936 0.0
H392 H 0.21252 0.77961 0.46458 0.0
C393 C 0.42761 0.97119 0.48181 0.0
C394 C 0.3538 0.8666 0.48087 0.0
H395 H 0.26984 0.81216 0.45054 0.0
C396 C 0.34695 0.8426 0.49609 0.0
C397 C 0.32424 0.85385 0.46426 0.0
C398 C 0.32776 0.87505 0.44627 0.0
C399 C 0.31331 0.80902 0.49563 0.0
C400 C 0.28374 0.79604 0.4789 0.0
C401 C 0.29077 0.82009 0.46364 0.0
C402 C 0.246 0.75899 0.47696 0.0
C403 C 0.30968 0.78865 0.51404 0.0
C404 C 0.24204 0.72543 0.48199 0.0
C405 C 0.2078 0.69206 0.47944 0.0
C406 C 0.17453 0.68925 0.47154 0.0
C407 C 0.17854 0.72257 0.4663 0.0
C408 C 0.21257 0.7559 0.46903 0.0
H409 H 0.32791 0.80682 0.52844 0.0
H410 H 0.28169 0.77539 0.51802 0.0
H411 H 0.31733 0.76768 0.50988 0.0
H412 H 0.26583 0.7242 0.4872 0.0
H413 H 0.20777 0.66776 0.48279 0.0
H414 H 0.66537 0.47937 0.83746 0.0
H415 H 0.66524 0.42143 0.83429 0.0
H416 H 0.55743 0.36729 0.80154 0.0
H417 H 0.55763 0.42501 0.80455 0.0
H418 H 0.63099 0.35695 0.84773 0.0
H419 H 0.59514 0.322 0.76095 0.0
H420 H 0.607 0.36599 0.77469 0.0
H421 H 0.56208 0.32841 0.77361 0.0
C422 C 0.64145 0.4553 0.82949 0.0
C423 C 0.61154 0.45837 0.82127 0.0
C424 C 0.64136 0.42143 0.82766 0.0
C425 C 0.6116 0.38827 0.81719 0.0
C426 C 0.5816 0.39136 0.8092 0.0
H427 H 0.55836 0.15585 0.7823 0.0
H428 H 0.55985 0.21393 0.78862 0.0
C429 C 0.58158 0.42512 0.81114 0.0
C430 C 0.61177 0.35118 0.8149 0.0
H431 H 0.59284 0.2755 0.77909 0.0
C432 C 0.62273 0.33948 0.83256 0.0
C433 C 0.60121 0.32672 0.79539 0.0
C434 C 0.59104 0.33646 0.77503 0.0
C435 C 0.62229 0.30534 0.83153 0.0
C436 C 0.61163 0.28078 0.81199 0.0
C437 C 0.601 0.29276 0.79432 0.0
C438 C 0.61039 0.24291 0.80941 0.0
C439 C 0.63203 0.29553 0.85197 0.0
C440 C 0.63775 0.23682 0.81885 0.0
C441 C 0.6365 0.20232 0.81546 0.0
C442 C 0.60798 0.17157 0.80222 0.0
C443 C 0.58071 0.17771 0.79295 0.0
C444 C 0.5818 0.21187 0.79644 0.0
H445 H 0.62786 0.31012 0.86595 0.0
H446 H 0.61582 0.26604 0.85233 0.0
H447 H 0.66096 0.30345 0.85357 0.0
H448 H 0.66124 0.25921 0.82836 0.0
H449 H 0.65899 0.20032 0.82249 0.0
H450 H 0.60627 0.88164 0.51865 0.0
H451 H 0.59299 0.81943 0.51972 0.0
H452 H 0.5317 0.78617 0.4575 0.0
H453 H 0.54571 0.84865 0.45615 0.0
H454 H 0.5311 0.75351 0.51637 0.0
H455 H 0.60826 0.7582 0.44874 0.0
H456 H 0.60914 0.79792 0.46201 0.0
H457 H 0.57113 0.76582 0.44315 0.0
C458 C 0.5896 0.86094 0.50533 0.0
C459 C 0.57739 0.86988 0.4872 0.0
C460 C 0.58201 0.82547 0.50595 0.0
C461 C 0.56192 0.7984 0.48853 0.0
C462 C 0.54796 0.80687 0.4709 0.0
H463 H 0.51469 0.57495 0.49648 0.0
H464 H 0.50515 0.62607 0.49197 0.0
C465 C 0.55593 0.84246 0.47015 0.0
C466 C 0.55795 0.76208 0.48839 0.0
H467 H 0.58335 0.70491 0.46393 0.0
C468 C 0.54217 0.74262 0.50481 0.0
C469 C 0.57272 0.74822 0.47333 0.0
C470 C 0.59155 0.76868 0.45591 0.0
C471 C 0.54183 0.71015 0.50699 0.0
C472 C 0.55708 0.69665 0.49211 0.0
C473 C 0.57157 0.71539 0.47524 0.0
C474 C 0.56192 0.66536 0.49489 0.0
C475 C 0.52685 0.69158 0.52577 0.0
C476 C 0.59689 0.67048 0.49758 0.0
C477 C 0.60239 0.64144 0.4998 0.0
C478 C 0.57299 0.60661 0.49948 0.0
C479 C 0.53787 0.60145 0.49673 0.0
C480 C 0.53238 0.63064 0.49438 0.0
H481 H 0.52234 0.70908 0.53784 0.0
H482 H 0.50066 0.66667 0.52026 0.0
H483 H 0.54534 0.68358 0.53342 0.0
H484 H 0.62004 0.69706 0.4979 0.0
H485 H 0.62974 0.64624 0.5014 0.0
H486 H 0.76204 0.49245 0.80794 0.0
H487 H 0.79985 0.46472 0.80237 0.0
H488 H 0.89227 0.57038 0.80405 0.0
H489 H 0.85528 0.59833 0.81016 0.0
H490 H 0.88636 0.50861 0.77246 0.0
H491 H 0.87231 0.48352 0.85636 0.0
H492 H 0.83298 0.46699 0.83721 0.0
H493 H 0.86015 0.51462 0.84639 0.0
C494 C 0.79038 0.50975 0.80691 0.0
C495 C 0.80579 0.54769 0.80985 0.0
C496 C 0.81177 0.4938 0.80351 0.0
C497 C 0.84875 0.51558 0.8029 0.0
C498 C 0.86364 0.55314 0.8043 0.0
H499 H 0.05394 0.59496 0.82517 0.0
H500 H 0.99403 0.56364 0.80567 0.0
C501 C 0.84242 0.56909 0.80779 0.0
C502 C 0.87354 0.50094 0.80427 0.0
H503 H 0.92407 0.49003 0.84293 0.0
C504 C 0.894 0.5032 0.78761 0.0
C505 C 0.88281 0.49293 0.82384 0.0
C506 C 0.86106 0.48929 0.84206 0.0
C507 C 0.92599 0.50189 0.79088 0.0
C508 C 0.9382 0.49966 0.81148 0.0
C509 C 0.91511 0.49234 0.8272 0.0
C510 C 0.9769 0.51368 0.81862 0.0
C511 C 0.94751 0.50534 0.77262 0.0
C512 C 0.98779 0.49613 0.83235 0.0
C513 C 1.02218 0.51449 0.84394 0.0
C514 C 1.04623 0.55059 0.84187 0.0
C515 C 1.03626 0.56701 0.82689 0.0
C516 C 1.00192 0.54886 0.81551 0.0
H517 H 0.92927 0.48954 0.75774 0.0
H518 H 0.9623 0.53408 0.77019 0.0
H519 H 0.9671 0.49579 0.77546 0.0
H520 H 0.96891 0.46912 0.83513 0.0
H521 H 1.02936 0.50109 0.85525 0.0
H522 H 0.27427 0.83742 0.14044 0.0
H523 H 0.33657 0.873 0.13451 0.0
H524 H 0.34418 0.77589 0.12293 0.0
H525 H 0.28203 0.74014 0.13014 0.0
H526 H 0.3969 0.82161 0.15022 0.0
H527 H 0.39505 0.89778 0.08721 0.0
H528 H 0.3667 0.90217 0.10527 0.0
H529 H 0.35473 0.85793 0.09159 0.0
C530 C 0.28903 0.82353 0.13643 0.0
C531 C 0.27329 0.78603 0.13602 0.0
C532 C 0.32454 0.84385 0.13257 0.0
C533 C 0.345 0.82711 0.12776 0.0
C534 C 0.32883 0.78937 0.12632 0.0
H535 H 0.54313 1.02822 0.15048 0.0
H536 H 0.51014 0.96709 0.13006 0.0
C537 C 0.29325 0.76898 0.13039 0.0
C538 C 0.38441 0.85002 0.128 0.0
H539 H 0.4428 0.93464 0.11871 0.0
C540 C 0.40732 0.84571 0.14268 0.0
C541 C 0.39897 0.88064 0.11745 0.0
C542 C 0.37747 0.8845 0.0993 0.0
C543 C 0.44242 0.87402 0.14969 0.0
C544 C 0.45405 0.90761 0.14241 0.0
C545 C 0.43353 0.90946 0.12504 0.0
C546 C 0.48113 0.9421 0.15568 0.0
C547 C 0.46551 0.86857 0.16607 0.0
C548 C 0.47658 0.94828 0.17701 0.0
C549 C 0.4953 0.98291 0.18861 0.0
C550 C 0.51869 1.01236 0.17909 0.0
C551 C 0.52501 1.00599 0.15815 0.0
C552 C 0.50637 0.97109 0.14653 0.0
H553 H 0.46265 0.84133 0.16213 0.0
H554 H 0.49439 0.88933 0.16717 0.0
H555 H 0.45619 0.86975 0.1818 0.0
H556 H 0.45636 0.92691 0.18431 0.0
H557 H 0.48923 0.98693 0.20454 0.0
H558 H 0.63237 0.29962 0.50844 0.0
H559 H 0.68077 0.35984 0.50601 0.0
H560 H 0.66093 0.33574 0.43766 0.0
H561 H 0.61048 0.27582 0.43995 0.0
H562 H 0.74427 0.38973 0.48769 0.0
H563 H 0.64378 0.42005 0.44843 0.0
H564 H 0.62922 0.37872 0.45937 0.0
H565 H 0.65013 0.38469 0.43546 0.0
C566 C 0.63783 0.30717 0.49285 0.0
C567 C 0.61668 0.28327 0.47441 0.0
C568 C 0.6661 0.3414 0.49148 0.0
C569 C 0.67421 0.35249 0.47165 0.0
C570 C 0.65474 0.32797 0.45313 0.0
H571 H 0.73526 0.57157 0.49774 0.0
H572 H 0.75096 0.53186 0.47624 0.0
C573 C 0.62599 0.29369 0.45449 0.0
C574 C 0.69963 0.39119 0.47114 0.0
H575 H 0.69531 0.46774 0.46761 0.0
C576 C 0.73413 0.40698 0.48269 0.0
C577 C 0.68703 0.4138 0.464 0.0
C578 C 0.65054 0.39868 0.45116 0.0
C579 C 0.75382 0.4443 0.49001 0.0
C580 C 0.73834 0.46593 0.48581 0.0
C581 C 0.70693 0.45106 0.47123 0.0
C582 C 0.74666 0.49884 0.50058 0.0
C583 C 0.78952 0.45961 0.50362 0.0
C584 C 0.7421 0.49545 0.522 0.0
C585 C 0.73283 0.51786 0.53422 0.0
C586 C 0.72792 0.54396 0.52518 0.0
C587 C 0.73809 0.55106 0.50492 0.0
C588 C 0.74738 0.52859 0.49267 0.0
H589 H 0.80597 0.44896 0.4963 0.0
H590 H 0.80491 0.48962 0.50574 0.0
H591 H 0.78498 0.45069 0.51941 0.0
H592 H 0.74092 0.47254 0.5285 0.0
H593 H 0.72523 0.51168 0.54977 0.0
H594 H 0.37897 0.51567 0.74185 0.0
H595 H 0.33681 0.53776 0.73439 0.0
H596 H 0.40016 0.63052 0.78283 0.0
H597 H 0.44267 0.60962 0.78937 0.0
H598 H 0.29522 0.54073 0.75863 0.0
H599 H 0.37257 0.67979 0.74381 0.0
H600 H 0.3914 0.65006 0.74197 0.0
H601 H 0.39692 0.67766 0.76686 0.0
C602 C 0.38429 0.54136 0.75034 0.0
C603 C 0.41407 0.56107 0.76611 0.0
C604 C 0.36031 0.55402 0.74606 0.0
C605 C 0.3655 0.58627 0.75772 0.0
C606 C 0.39611 0.60646 0.7729 0.0
H607 H 0.2407 0.61553 0.83556 0.0
H608 H 0.26932 0.59474 0.81032 0.0
C609 C 0.42033 0.59425 0.77684 0.0
C610 C 0.33636 0.59565 0.75728 0.0
H611 H 0.32641 0.66951 0.76918 0.0
C612 C 0.30175 0.56879 0.76012 0.0
C613 C 0.34372 0.63186 0.75833 0.0
C614 C 0.37813 0.66124 0.75228 0.0
C615 C 0.27645 0.57794 0.76702 0.0
C616 C 0.28664 0.61488 0.77207 0.0
C617 C 0.31905 0.64121 0.7662 0.0
C618 C 0.2674 0.62672 0.78654 0.0
C619 C 0.23983 0.54793 0.76998 0.0
C620 C 0.25838 0.65307 0.78213 0.0
C621 C 0.24275 0.66573 0.79692 0.0
C622 C 0.23582 0.65203 0.81621 0.0
C623 C 0.24513 0.62596 0.82061 0.0
C624 C 0.26112 0.61378 0.80606 0.0
H625 H 0.2306 0.52433 0.75733 0.0
H626 H 0.24159 0.53862 0.78538 0.0
H627 H 0.21944 0.55685 0.76973 0.0
H628 H 0.26354 0.66388 0.76733 0.0
H629 H 0.23576 0.68589 0.79323 0.0
H630 H 0.86891 0.34107 0.09495 0.0
H631 H 0.8034 0.30174 0.09103 0.0
H632 H 0.79381 0.3862 0.128 0.0
H633 H 0.8587 0.4256 0.13145 0.0
H634 H 0.76932 0.27805 0.12302 0.0
H635 H 0.7075 0.34814 0.08498 0.0
H636 H 0.7543 0.36123 0.08429 0.0
H637 H 0.74046 0.37836 0.10671 0.0
C638 C 0.85261 0.35142 0.10175 0.0
C639 C 0.86881 0.38632 0.1135 0.0
C640 C 0.81525 0.32906 0.09944 0.0
C641 C 0.79357 0.34117 0.10895 0.0
C642 C 0.80969 0.37659 0.11991 0.0
H643 H 0.62459 0.23196 0.17943 0.0
H644 H 0.67927 0.26917 0.16405 0.0
C645 C 0.84691 0.39905 0.12201 0.0
C646 C 0.75542 0.31536 0.11062 0.0
H647 H 0.67228 0.30797 0.10957 0.0
C648 C 0.74796 0.2842 0.11955 0.0
C649 C 0.72731 0.323 0.1059 0.0
C650 C 0.73279 0.35433 0.09471 0.0
C651 C 0.71393 0.26197 0.12528 0.0
C652 C 0.68693 0.27165 0.1225 0.0
C653 C 0.69339 0.30116 0.11212 0.0
C654 C 0.65295 0.2527 0.13167 0.0
C655 C 0.70754 0.22887 0.13489 0.0
C656 C 0.61984 0.23272 0.11861 0.0
C657 C 0.58846 0.21164 0.12741 0.0
C658 C 0.58998 0.21037 0.14934 0.0
C659 C 0.62285 0.2321 0.16245 0.0
C660 C 0.65402 0.25324 0.1537 0.0
H661 H 0.7263 0.2193 0.13005 0.0
H662 H 0.71219 0.23571 0.15245 0.0
H663 H 0.67946 0.20642 0.13017 0.0
H664 H 0.61855 0.23224 0.10158 0.0
H665 H 0.56342 0.19498 0.11698 0.0
H666 H 1.04433 0.53059 0.08405 0.0
H667 H 1.0504 0.53038 0.04617 0.0
H668 H 0.11524 0.64684 0.05721 0.0
H669 H 0.11084 0.64699 0.09513 0.0
H670 H 1.03131 0.55673 0.01634 0.0
H671 H 0.17983 0.6229 0.02596 0.0
H672 H 0.15429 0.6075 0.04776 0.0
H673 H 0.1652 0.65074 0.04014 0.0
C674 C 0.05986 0.5561 0.07835 0.0
C675 C 0.07746 0.58876 0.09251 0.0
C676 C 0.06336 0.55597 0.05673 0.0
C677 C 0.08413 0.58853 0.0489 0.0
C678 C 0.10025 0.62128 0.06295 0.0
H679 H 0.06785 0.61487 0.91654 0.0
H680 H 0.06221 0.61272 0.95437 0.0
C681 C 0.09742 0.62136 0.08459 0.0
C682 C 0.08854 0.5883 0.02603 0.0
H683 H 0.1514 0.62043 -0.0081 0.0
C684 C 0.05759 0.57039 0.01099 0.0
C685 C 0.12287 0.60543 0.01898 0.0
C686 C 0.1574 0.62234 0.03406 0.0
C687 C 0.05995 0.56985 -0.01084 0.0
C688 C 0.09416 0.58904 0.9822 0.0
C689 C 0.12514 0.6062 -0.00279 0.0
C690 C 0.09849 0.59162 0.95946 0.0
C691 C 1.02575 0.54802 0.97386 0.0
C692 C 0.12222 0.58237 0.94997 0.0
C693 C 0.1263 0.58473 0.92855 0.0
C694 C 0.1064 0.59598 0.9163 0.0
C695 C 0.08316 0.60581 0.92578 0.0
C696 C 0.07965 0.60418 0.94727 0.0
H697 H 1.0047 0.52582 0.98104 0.0
H698 H 1.01501 0.56587 0.96975 0.0
H699 H 1.03059 0.53604 0.95902 0.0
H700 H 0.13725 0.57287 0.95907 0.0
H701 H 0.14431 0.57701 0.92143 0.0
H702 H 0.55289 1.02792 0.41424 0.0
H703 H 0.55467 0.03297 0.37642 0.0
H704 H 0.57819 0.14361 0.38999 0.0
H705 H 0.57697 0.13906 0.42771 0.0
H706 H 0.51192 0.05051 0.34999 0.0
H707 H 0.65753 0.1499 0.35446 0.0
H708 H 0.63854 0.12438 0.37565 0.0
H709 H 0.63389 0.16319 0.37236 0.0
C710 C 0.55852 0.05334 0.40918 0.0
C711 C 0.56473 0.08306 0.42398 0.0
C712 C 0.55954 0.05617 0.38759 0.0
C713 C 0.56708 0.08882 0.3805 0.0
C714 C 0.57298 0.1184 0.3952 0.0
H715 H 0.52233 0.1183 0.25202 0.0
H716 H 0.52834 0.12038 0.29056 0.0
C717 C 0.57192 0.1156 0.41675 0.0
C718 C 0.56765 0.09164 0.35764 0.0
H719 H 0.62144 0.13733 0.32153 0.0
C720 C 0.53586 0.0694 0.34373 0.0
C721 C 0.59906 0.11613 0.34958 0.0
C722 C 0.63432 0.13957 0.36373 0.0
C723 C 0.53446 0.07137 0.32195 0.0
C724 C 0.56556 0.09659 0.31398 0.0
C725 C 0.59755 0.1184 0.3278 0.0
C726 C 0.56545 0.09971 0.29116 0.0
C727 C 0.49986 0.04613 0.30758 0.0
C728 C 0.58561 0.08894 0.27895 0.0
C729 C 0.58246 0.08797 0.25697 0.0
C730 C 0.55923 0.09797 0.24688 0.0
C731 C 0.54064 0.11069 0.25934 0.0
C732 C 0.54375 0.11155 0.28131 0.0
H733 H 0.48107 1.02336 0.31541 0.0
H734 H 0.48623 0.06137 0.30321 0.0
H735 H 0.50535 0.03484 0.29273 0.0
H736 H 0.6027 0.07994 0.28633 0.0
H737 H 0.59741 0.07845 0.24778 0.0
H738 H 0.67749 0.56602 0.76563 0.0
H739 H 0.68959 0.57145 0.72894 0.0
H740 H 0.59064 0.57229 0.71346 0.0
H741 H 0.57812 0.56676 0.75023 0.0
H742 H 0.60248 0.52376 0.68476 0.0
H743 H 0.71988 0.66315 0.70007 0.0
H744 H 0.72227 0.63246 0.71648 0.0
H745 H 0.68809 0.64495 0.71884 0.0
C746 C 0.65823 0.56734 0.75446 0.0
C747 C 0.62684 0.56601 0.76085 0.0
C748 C 0.66536 0.5707 0.73354 0.0
C749 C 0.64128 0.57283 0.71864 0.0
C750 C 0.60966 0.57097 0.72483 0.0
H751 H 0.66821 0.62038 0.58964 0.0
H752 H 0.65971 0.62211 0.62728 0.0
C753 C 0.60255 0.56778 0.74581 0.0
C754 C 0.64869 0.57587 0.69643 0.0
H755 H 0.70856 0.6302 0.6655 0.0
C756 C 0.62554 0.54708 0.68051 0.0
C757 C 0.67866 0.6065 0.69099 0.0
C758 C 0.70354 0.63872 0.70743 0.0
C759 C 0.63208 0.54773 0.65928 0.0
C760 C 0.66269 0.57782 0.65395 0.0
C761 C 0.68535 0.60704 0.66976 0.0
C762 C 0.6713 0.57925 0.63192 0.0
C763 C 0.60618 0.51629 0.64267 0.0
C764 C 0.68169 0.55534 0.62238 0.0
C765 C 0.68662 0.55433 0.60098 0.0
C766 C 0.6812 0.57723 0.58877 0.0
C767 C 0.6723 0.60225 0.59864 0.0
C768 C 0.66754 0.60335 0.6201 0.0
H769 H 0.58036 0.49884 0.64862 0.0
H770 H 0.60041 0.52605 0.62826 0.0
H771 H 0.61851 0.49947 0.63799 0.0
H772 H 0.685 0.53676 0.63137 0.0
H773 H 0.69307 0.53448 0.59378 0.0
H774 H 0.60052 0.04237 0.55617 0.0
H775 H 0.60505 0.04079 0.59437 0.0
H776 H 0.55972 0.11098 0.60335 0.0
H777 H 0.55445 0.11219 0.56514 0.0
H778 H 0.64265 0.09404 0.62738 0.0
H779 H 0.49763 0.03147 0.63582 0.0
H780 H 0.51369 0.03279 0.61031 0.0
H781 H 0.5136 0.07177 0.62383 0.0
C782 C 0.5913 0.05736 0.56621 0.0
C783 C 0.57693 0.07729 0.55741 0.0
C784 C 0.59395 0.05643 0.58813 0.0
C785 C 0.58217 0.07524 0.60185 0.0
C786 C 0.56816 0.09545 0.59315 0.0
H787 H 0.64449 0.14652 0.73706 0.0
H788 H 0.63853 0.13888 0.69839 0.0
C789 C 0.5654 0.09632 0.57122 0.0
C790 C 0.58567 0.07468 0.62528 0.0
H791 H 0.53849 0.05766 0.66798 0.0
C792 C 0.61978 0.08583 0.6362 0.0
C793 C 0.55584 0.06337 0.6369 0.0
C794 C 0.51807 0.04881 0.6261 0.0
C795 C 0.62505 0.08711 0.65834 0.0
C796 C 0.59556 0.07761 0.6701 0.0
C797 C 0.56124 0.06531 0.6591 0.0
C798 C 0.59999 0.08159 0.69383 0.0
C799 C 0.66223 0.09836 0.66887 0.0
C800 C 0.57992 0.05209 0.70441 0.0
C801 C 0.58301 0.05649 0.72671 0.0
C802 C 0.60592 0.09062 0.73893 0.0
C803 C 0.62631 0.11991 0.72823 0.0
C804 C 0.62323 0.1155 0.70604 0.0
H805 H 0.67848 0.09341 0.65748 0.0
H806 H 0.67643 0.12777 0.67494 0.0
H807 H 0.66096 0.08364 0.68242 0.0
H808 H 0.56163 1.02567 0.6954 0.0
H809 H 0.56668 0.03343 0.73436 0.0
H810 H 0.54792 0.52493 0.88852 0.0
H811 H 0.54462 0.52811 0.92685 0.0
H812 H 0.65272 0.61878 0.93873 0.0
H813 H 0.65602 0.61625 0.90069 0.0
H814 H 0.5851 0.52093 0.9588 0.0
H815 H 0.60086 0.65776 0.97396 0.0
H816 H 0.59132 0.63324 0.94751 0.0
H817 H 0.63667 0.65747 0.96101 0.0
C818 C 0.5709 0.54573 0.89928 0.0
C819 C 0.60213 0.57049 0.89137 0.0
C820 C 0.56899 0.54749 0.92124 0.0
C821 C 0.59815 0.57415 0.9358 0.0
C822 C 0.62945 0.59857 0.92792 0.0
H823 H 0.66365 0.62874 0.07119 0.0
H824 H 0.65695 0.62416 0.0325 0.0
C825 C 0.63136 0.5969 0.90605 0.0
C826 C 0.59654 0.57586 0.95923 0.0
H827 H 0.60933 0.63328 0.00447 0.0
C828 C 0.58995 0.54536 0.96874 0.0
C829 C 0.60282 0.6077 0.97233 0.0
C830 C 0.60795 0.64077 0.96317 0.0
C831 C 0.59086 0.54627 -0.00909 0.0
C832 C 0.59807 0.57842 0.00403 0.0
C833 C 0.60393 0.60866 -0.00551 0.0
C834 C 0.60121 0.58171 0.02771 0.0
C835 C 0.58543 0.51322 0.0002 0.0
C836 C 0.57189 0.55995 0.03809 0.0
C837 C 0.57565 0.56253 0.06032 0.0
C838 C 0.60887 0.58687 0.07267 0.0
C839 C 0.63784 0.6093 0.06221 0.0
C840 C 0.634 0.60683 0.04006 0.0
H841 H 0.58791 0.49363 -0.01142 0.0
H842 H 0.60529 0.52089 0.01447 0.0
H843 H 0.55808 0.49941 0.00509 0.0
H844 H 0.5461 0.5408 0.02899 0.0
H845 H 0.55282 0.54478 0.06779 0.0
H846 H 0.10219 0.64595 0.23391 0.0
H847 H 0.10282 0.64543 0.27217 0.0
H848 H 0.05651 0.52945 0.2617 0.0
H849 H 0.05718 0.52999 0.22347 0.0
H850 H 0.05218 0.6171 0.29644 0.0
H851 H 0.13824 0.55485 0.30568 0.0
H852 H 0.13165 0.57008 0.28136 0.0
H853 H 0.09836 0.52683 0.28724 0.0
C854 C 0.09235 0.62032 0.23973 0.0
C855 C 0.07997 0.58805 0.22553 0.0
C856 C 0.09264 0.62004 0.26169 0.0
C857 C 0.08036 0.58749 0.27008 0.0
C858 C 0.06722 0.55512 0.25586 0.0
H859 H 1.03589 0.57988 0.40373 0.0
H860 H 1.02859 0.57108 0.36482 0.0
C861 C 0.0674 0.55543 0.23391 0.0
C862 C 0.0809 0.58759 0.2936 0.0
H863 H 0.11059 0.56104 0.33564 0.0
C864 C 0.06502 0.60486 0.30499 0.0
C865 C 0.09798 0.57204 0.30498 0.0
C866 C 0.11784 0.55524 0.29424 0.0
C867 C 0.06587 0.60719 0.32722 0.0
C868 C 0.08207 0.59076 0.33852 0.0
C869 C 0.09776 0.5733 0.3271 0.0
C870 C 0.08545 0.59354 0.36226 0.0
C871 C 1.05059 0.62852 0.33841 0.0
C872 C 0.11948 0.60722 0.37398 0.0
C873 C 0.12357 0.61134 0.39617 0.0
C874 C 0.09381 0.60227 0.40746 0.0
C875 C 0.05948 0.58729 0.3957 0.0
C876 C 0.05534 0.58277 0.37337 0.0
H877 H 1.04853 0.64747 0.32849 0.0
H878 H 1.02309 0.60958 0.34177 0.0
H879 H 0.06742 0.64435 0.35368 0.0
H880 H 0.14318 0.6154 0.36596 0.0
H881 H 0.15034 0.62201 0.40451 0.0
loop_
_geom_bond_atom_site_label_1
_geom_bond_atom_site_label_2
_geom_bond_distance
_geom_bond_site_symmetry_2
_ccdc_geom_bond_type
Eu0 C9 2.828 . S
Eu0 O11 2.392 1_655 S
Eu0 O13 2.418 . S
Eu0 O18 2.373 . S
Eu0 O21 2.488 . S
Eu0 O22 2.471 . S
Eu0 O23 2.349 1_655 S
Eu1 O10 2.373 . S
Eu1 O14 2.488 . S
Eu1 O15 2.471 . S
Eu1 O16 2.349 . S
Eu1 O19 2.392 1_455 S
Eu1 O20 2.418 . S
Eu1 C30 2.828 . S
C2 O20 1.244 . S
C2 O23 1.265 . S
C3 C4 1.379 . S
C3 C7 1.373 . S
C3 C9 1.505 . S
C4 C3 1.379 . S
C4 C6 1.369 . S
C4 H32 0.930 . S
C5 C7 1.383 . S
C5 C8 1.382 . S
C5 H33 0.930 . S
C6 C4 1.369 . S
C6 C8 1.392 . S
C6 H34 0.930 . S
C7 C3 1.373 . S
C7 C5 1.383 . S
C7 H35 0.931 . S
C8 C5 1.382 . S
C8 C6 1.392 . S
C9 Eu0 2.828 . S
C9 C3 1.505 . S
C9 O21 1.249 . S
C9 O22 1.244 . S
O10 Eu1 2.373 . S
O10 C12 1.258 . S
O11 Eu0 2.392 1_455 S
O11 C12 1.242 . S
C12 O10 1.258 . S
C12 O11 1.242 . S
O13 Eu0 2.418 . S
O13 C17 1.244 1_655 S
O14 Eu1 2.488 . S
O14 C30 1.249 . S
O15 Eu1 2.471 . S
O15 C30 1.244 . S
O16 Eu1 2.349 . S
O16 C17 1.265 . S
C17 O13 1.244 1_455 S
C17 O16 1.265 . S
O18 Eu0 2.373 . S
O18 C31 1.258 . S
O19 Eu1 2.392 1_655 S
O19 C31 1.242 . S
O20 Eu1 2.418 . S
O20 C2 1.244 . S
O21 Eu0 2.488 . S
O21 C9 1.249 . S
O22 Eu0 2.471 . S
O22 C9 1.244 . S
O23 Eu0 2.349 1_455 S
O23 C2 1.265 . S
C24 C25 1.379 . S
C24 C28 1.373 . S
C24 C30 1.505 . S
C25 C24 1.379 . S
C25 C27 1.369 . S
C25 H36 0.930 . S
C26 C28 1.383 . S
C26 C29 1.382 . S
C26 H37 0.930 . S
C27 C25 1.369 . S
C27 C29 1.392 . S
C27 H38 0.930 . S
C28 C24 1.373 . S
C28 C26 1.383 . S
C28 H39 0.931 . S
C29 C26 1.382 . S
C29 C27 1.392 . S
C30 Eu1 2.828 . S
C30 O14 1.249 . S
C30 O15 1.244 . S
C30 C24 1.505 . S
C31 O18 1.258 . S
C31 O19 1.242 . S
H32 C4 0.930 . S
H33 C5 0.930 . S
H34 C6 0.930 . S
H35 C7 0.931 . S
H36 C25 0.930 . S
H37 C26 0.930 . S
H38 C27 0.930 . S
H39 C28 0.931 . S
Eu40 C49 2.828 1_545 S
Eu40 O51 2.392 . S
Eu40 O53 2.418 . S
Eu40 O58 2.373 1_545 S
Eu40 O61 2.488 1_545 S
Eu40 O62 2.471 1_545 S
Eu40 O63 2.349 . S
Eu41 O50 2.373 . S
Eu41 O54 2.488 . S
Eu41 O55 2.471 . S
Eu41 O56 2.349 . S
Eu41 O59 2.392 . S
Eu41 O60 2.418 . S
Eu41 C70 2.828 . S
C42 O60 1.244 . S
C42 O63 1.265 . S
C43 C44 1.379 . S
C43 C47 1.373 . S
C43 C49 1.505 . S
C44 C43 1.379 . S
C44 C46 1.369 . S
C44 H72 0.930 . S
C45 C47 1.383 . S
C45 C48 1.382 . S
C45 H73 0.930 . S
C46 C44 1.369 . S
C46 C48 1.392 . S
C46 H74 0.930 . S
C47 C43 1.373 . S
C47 C45 1.383 . S
C47 H75 0.931 . S
C48 C45 1.382 . S
C48 C46 1.392 . S
C49 Eu40 2.828 1_565 S
C49 C43 1.505 . S
C49 O61 1.249 . S
C49 O62 1.244 . S
O50 Eu41 2.373 . S
O50 C52 1.258 . S
O51 Eu40 2.392 . S
O51 C52 1.242 . S
C52 O50 1.258 . S
C52 O51 1.242 . S
O53 Eu40 2.418 . S
O53 C57 1.244 . S
O54 Eu41 2.488 . S
O54 C70 1.249 . S
O55 Eu41 2.471 . S
O55 C70 1.244 . S
O56 Eu41 2.349 . S
O56 C57 1.265 . S
C57 O53 1.244 . S
C57 O56 1.265 . S
O58 Eu40 2.373 1_565 S
O58 C71 1.258 . S
O59 Eu41 2.392 . S
O59 C71 1.242 1_545 S
O60 Eu41 2.418 . S
O60 C42 1.244 . S
O61 Eu40 2.488 1_565 S
O61 C49 1.249 . S
O62 Eu40 2.471 1_565 S
O62 C49 1.244 . S
O63 Eu40 2.349 . S
O63 C42 1.265 . S
C64 C65 1.379 . S
C64 C68 1.373 . S
C64 C70 1.505 . S
C65 C64 1.379 . S
C65 C67 1.369 . S
C65 H76 0.930 . S
C66 C68 1.383 . S
C66 C69 1.382 . S
C66 H77 0.930 . S
C67 C65 1.369 . S
C67 C69 1.392 . S
C67 H78 0.930 . S
C68 C64 1.373 . S
C68 C66 1.383 . S
C68 H79 0.931 . S
C69 C66 1.382 . S
C69 C67 1.392 . S
C70 Eu41 2.828 . S
C70 O54 1.249 . S
C70 O55 1.244 . S
C70 C64 1.505 . S
C71 O58 1.258 . S
C71 O59 1.242 1_565 S
H72 C44 0.930 . S
H73 C45 0.930 . S
H74 C46 0.930 . S
H75 C47 0.931 . S
H76 C65 0.930 . S
H77 C66 0.930 . S
H78 C67 0.930 . S
H79 C68 0.931 . S
Eu80 C89 2.828 . S
Eu80 O91 2.392 . S
Eu80 O93 2.418 . S
Eu80 O98 2.373 . S
Eu80 O101 2.488 . S
Eu80 O102 2.471 . S
Eu80 O103 2.349 . S
Eu81 O90 2.373 . S
Eu81 O94 2.488 . S
Eu81 O95 2.471 . S
Eu81 O96 2.349 . S
Eu81 O99 2.392 . S
Eu81 O100 2.418 . S
Eu81 C110 2.828 . S
C82 O100 1.244 . S
C82 O103 1.265 . S
C83 C84 1.379 . S
C83 C87 1.373 . S
C83 C89 1.505 . S
C84 C83 1.379 . S
C84 C86 1.369 . S
C84 H112 0.930 . S
C85 C87 1.383 . S
C85 C88 1.382 . S
C85 H113 0.930 . S
C86 C84 1.369 . S
C86 C88 1.392 . S
C86 H114 0.930 . S
C87 C83 1.373 . S
C87 C85 1.383 . S
C87 H115 0.931 . S
C88 C85 1.382 . S
C88 C86 1.392 . S
C89 Eu80 2.828 . S
C89 C83 1.505 . S
C89 O101 1.249 . S
C89 O102 1.244 . S
O90 Eu81 2.373 . S
O90 C92 1.258 . S
O91 Eu80 2.392 . S
O91 C92 1.242 . S
C92 O90 1.258 . S
C92 O91 1.242 . S
O93 Eu80 2.418 . S
O93 C97 1.244 . S
O94 Eu81 2.488 . S
O94 C110 1.249 . S
O95 Eu81 2.471 . S
O95 C110 1.244 . S
O96 Eu81 2.349 . S
O96 C97 1.265 . S
C97 O93 1.244 . S
C97 O96 1.265 . S
O98 Eu80 2.373 . S
O98 C111 1.258 . S
O99 Eu81 2.392 . S
O99 C111 1.242 . S
O100 Eu81 2.418 . S
O100 C82 1.244 . S
O101 Eu80 2.488 . S
O101 C89 1.249 . S
O102 Eu80 2.471 . S
O102 C89 1.244 . S
O103 Eu80 2.349 . S
O103 C82 1.265 . S
C104 C105 1.379 . S
C104 C108 1.373 . S
C104 C110 1.505 . S
C105 C104 1.379 . S
C105 C107 1.369 . S
C105 H116 0.930 . S
C106 C108 1.383 . S
C106 C109 1.382 . S
C106 H117 0.930 . S
C107 C105 1.369 . S
C107 C109 1.392 . S
C107 H118 0.930 . S
C108 C104 1.373 . S
C108 C106 1.383 . S
C108 H119 0.931 . S
C109 C106 1.382 . S
C109 C107 1.392 . S
C110 Eu81 2.828 . S
C110 O94 1.249 . S
C110 O95 1.244 . S
C110 C104 1.505 . S
C111 O98 1.258 . S
C111 O99 1.242 . S
H112 C84 0.930 . S
H113 C85 0.930 . S
H114 C86 0.930 . S
H115 C87 0.931 . S
H116 C105 0.930 . S
H117 C106 0.930 . S
H118 C107 0.930 . S
H119 C108 0.931 . S
H120 C121 0.949 . S
C121 H120 0.949 . S
C121 C122 1.395 . S
C121 C123 1.391 . S
C122 C121 1.395 . S
C122 C125 1.390 . S
C123 C121 1.391 . S
C123 C127 1.387 . S
C123 C128 1.491 . S
H124 C125 0.950 . S
C125 C122 1.390 . S
C125 H124 0.950 . S
C125 C126 1.378 . S
C126 C125 1.378 . S
C126 C127 1.409 . S
C127 C123 1.387 . S
C127 C126 1.409 . S
C127 H129 0.951 . S
C128 C123 1.491 . S
C128 C130 1.382 . S
C128 C132 1.404 . S
H129 C127 0.951 . S
C130 C128 1.382 . S
C130 C131 1.390 . S
C130 H135 0.949 . S
C131 C130 1.390 . S
C131 C136 1.399 . S
C132 C128 1.404 . S
C132 H133 0.950 . S
C132 C134 1.375 . S
H133 C132 0.950 . S
C134 C132 1.375 . S
C134 C136 1.382 . S
C134 H138 0.950 . S
H135 C130 0.949 . S
C136 C131 1.399 . S
C136 C134 1.382 . S
C136 H137 0.952 . S
H137 C136 0.952 . S
H138 C134 0.950 . S
H139 C140 0.949 . S
C140 H139 0.949 . S
C140 C141 1.395 . S
C140 C142 1.391 . S
C141 C140 1.395 . S
C141 C144 1.390 . S
C142 C140 1.391 . S
C142 C146 1.387 . S
C142 C147 1.491 . S
H143 C144 0.950 . S
C144 C141 1.390 . S
C144 H143 0.950 . S
C144 C145 1.378 . S
C145 C144 1.378 . S
C145 C146 1.409 . S
C146 C142 1.387 . S
C146 C145 1.409 . S
C146 H148 0.951 . S
C147 C142 1.491 . S
C147 C149 1.382 . S
C147 C151 1.404 . S
H148 C146 0.951 . S
C149 C147 1.382 . S
C149 C150 1.390 . S
C149 H154 0.949 . S
C150 C149 1.390 . S
C150 C155 1.399 . S
C151 C147 1.404 . S
C151 H152 0.950 . S
C151 C153 1.375 . S
H152 C151 0.950 . S
C153 C151 1.375 . S
C153 C155 1.382 . S
C153 H157 0.950 . S
H154 C149 0.949 . S
C155 C150 1.399 . S
C155 C153 1.382 . S
C155 H156 0.952 . S
H156 C155 0.952 . S
H157 C153 0.950 . S
H158 C159 0.949 . S
C159 H158 0.949 . S
C159 C160 1.395 . S
C159 C161 1.391 . S
C160 C159 1.395 . S
C160 C163 1.390 . S
C161 C159 1.391 . S
C161 C165 1.387 . S
C161 C166 1.491 . S
H162 C163 0.950 . S
C163 C160 1.390 . S
C163 H162 0.950 . S
C163 C164 1.378 . S
C164 C163 1.378 . S
C164 C165 1.409 . S
C165 C161 1.387 . S
C165 C164 1.409 . S
C165 H167 0.951 . S
C166 C161 1.491 . S
C166 C168 1.382 . S
C166 C170 1.404 . S
H167 C165 0.951 . S
C168 C166 1.382 . S
C168 C169 1.390 . S
C168 H173 0.949 . S
C169 C168 1.390 . S
C169 C174 1.399 . S
C170 C166 1.404 . S
C170 H171 0.950 . S
C170 C172 1.375 . S
H171 C170 0.950 . S
C172 C170 1.375 . S
C172 C174 1.382 . S
C172 H176 0.950 . S
H173 C168 0.949 . S
C174 C169 1.399 . S
C174 C172 1.382 . S
C174 H175 0.952 . S
H175 C174 0.952 . S
H176 C172 0.950 . S
H177 C178 0.949 1_655 S
C178 H177 0.949 1_455 S
C178 C179 1.395 . S
C178 C180 1.391 . S
C179 C178 1.395 . S
C179 C182 1.390 . S
C180 C178 1.391 . S
C180 C184 1.387 . S
C180 C185 1.491 1_455 S
H181 C182 0.950 . S
C182 C179 1.390 . S
C182 H181 0.950 . S
C182 C183 1.378 . S
C183 C182 1.378 . S
C183 C184 1.409 . S
C184 C180 1.387 . S
C184 C183 1.409 . S
C184 H186 0.951 . S
C185 C180 1.491 1_655 S
C185 C187 1.382 . S
C185 C189 1.404 . S
H186 C184 0.951 . S
C187 C185 1.382 . S
C187 C188 1.390 . S
C187 H192 0.949 . S
C188 C187 1.390 . S
C188 C193 1.399 . S
C189 C185 1.404 . S
C189 H190 0.950 1_655 S
C189 C191 1.375 . S
H190 C189 0.950 1_455 S
C191 C189 1.375 . S
C191 C193 1.382 . S
C191 H195 0.950 . S
H192 C187 0.949 . S
C193 C188 1.399 . S
C193 C191 1.382 . S
C193 H194 0.952 . S
H194 C193 0.952 . S
H195 C191 0.950 . S
H196 C197 0.949 . S
C197 H196 0.949 . S
C197 C198 1.395 . S
C197 C199 1.391 . S
C198 C197 1.395 . S
C198 C201 1.390 . S
C199 C197 1.391 . S
C199 C203 1.387 . S
C199 C204 1.491 . S
H200 C201 0.950 . S
C201 C198 1.390 . S
C201 H200 0.950 . S
C201 C202 1.378 . S
C202 C201 1.378 . S
C202 C203 1.409 . S
C203 C199 1.387 . S
C203 C202 1.409 . S
C203 H205 0.951 . S
C204 C199 1.491 . S
C204 C206 1.382 1_545 S
C204 C208 1.404 . S
H205 C203 0.951 . S
C206 C204 1.382 1_565 S
C206 C207 1.390 . S
C206 H211 0.949 . S
C207 C206 1.390 . S
C207 C212 1.399 . S
C208 C204 1.404 . S
C208 H209 0.950 . S
C208 C210 1.375 1_545 S
H209 C208 0.950 . S
C210 C208 1.375 1_565 S
C210 C212 1.382 . S
C210 H214 0.950 . S
H211 C206 0.949 . S
C212 C207 1.399 . S
C212 C210 1.382 . S
C212 H213 0.952 . S
H213 C212 0.952 . S
H214 C210 0.950 . S
H215 C216 0.949 . S
C216 H215 0.949 . S
C216 C217 1.395 . S
C216 C218 1.391 . S
C217 C216 1.395 . S
C217 C220 1.390 . S
C218 C216 1.391 . S
C218 C222 1.387 . S
C218 C223 1.491 . S
H219 C220 0.950 . S
C220 C217 1.390 . S
C220 H219 0.950 . S
C220 C221 1.378 . S
C221 C220 1.378 . S
C221 C222 1.409 . S
C222 C218 1.387 . S
C222 C221 1.409 . S
C222 H224 0.951 . S
C223 C218 1.491 . S
C223 C225 1.382 . S
C223 C227 1.404 . S
H224 C222 0.951 . S
C225 C223 1.382 . S
C225 C226 1.390 . S
C225 H230 0.949 . S
C226 C225 1.390 . S
C226 C231 1.399 . S
C227 C223 1.404 . S
C227 H228 0.950 . S
C227 C229 1.375 . S
H228 C227 0.950 . S
C229 C227 1.375 . S
C229 C231 1.382 . S
C229 H233 0.950 . S
H230 C225 0.949 . S
C231 C226 1.399 . S
C231 C229 1.382 . S
C231 H232 0.952 . S
H232 C231 0.952 . S
H233 C229 0.950 . S
H234 C242 0.929 . S
H235 C244 0.930 . S
H236 C246 0.930 . S
H237 C249 0.929 . S
H238 C252 0.930 . S
H239 C254 0.960 . S
H240 C254 0.960 . S
H241 C254 0.960 . S
C242 H234 0.929 . S
C242 C243 1.377 . S
C242 C244 1.384 . S
C243 C242 1.377 . S
C243 C249 1.390 . S
C244 H235 0.930 . S
C244 C242 1.384 . S
C244 C245 1.372 . S
C245 C244 1.372 . S
C245 C246 1.400 . S
C245 C250 1.490 . S
C246 H236 0.930 . S
C246 C245 1.400 . S
C246 C249 1.386 . S
H247 C263 0.930 . S
H248 C264 0.931 . S
C249 H237 0.929 . S
C249 C243 1.390 . S
C249 C246 1.386 . S
C250 C245 1.490 . S
C250 C252 1.395 . S
C250 C253 1.403 . S
H251 C257 0.930 . S
C252 H238 0.930 . S
C252 C250 1.395 . S
C252 C255 1.403 . S
C253 C250 1.403 . S
C253 C254 1.524 . S
C253 C257 1.400 . S
C254 H239 0.960 . S
C254 H240 0.960 . S
C254 H241 0.960 . S
C254 C253 1.524 . S
C255 C252 1.403 . S
C255 C256 1.392 . S
C255 C259 1.495 . S
C256 C255 1.392 . S
C256 C257 1.385 . S
C256 C258 1.478 . S
C257 H251 0.930 . S
C257 C253 1.400 . S
C257 C256 1.385 . S
C258 C256 1.478 . S
C258 C260 1.381 . S
C258 C264 1.383 . S
C259 C255 1.495 . S
C259 H265 0.959 . S
C259 H266 0.961 . S
C259 H267 0.960 . S
C260 C258 1.381 . S
C260 C261 1.394 . S
C260 H268 0.930 . S
C261 C260 1.394 . S
C261 C262 1.383 . S
C261 H269 0.929 . S
C262 C261 1.383 . S
C262 C263 1.377 . S
C263 H247 0.930 . S
C263 C262 1.377 . S
C263 C264 1.379 . S
C264 H248 0.931 . S
C264 C258 1.383 . S
C264 C263 1.379 . S
H265 C259 0.959 . S
H266 C259 0.961 . S
H267 C259 0.960 . S
H268 C260 0.930 . S
H269 C261 0.929 . S
H270 C278 0.929 . S
H271 C280 0.930 . S
H272 C282 0.930 . S
H273 C285 0.929 . S
H274 C288 0.930 . S
H275 C290 0.960 . S
H276 C290 0.960 . S
H277 C290 0.960 . S
C278 H270 0.929 . S
C278 C279 1.377 . S
C278 C280 1.384 . S
C279 C278 1.377 . S
C279 C285 1.390 . S
C280 H271 0.930 . S
C280 C278 1.384 . S
C280 C281 1.372 . S
C281 C280 1.372 . S
C281 C282 1.400 . S
C281 C286 1.490 . S
C282 H272 0.930 . S
C282 C281 1.400 . S
C282 C285 1.386 . S
H283 C299 0.930 . S
H284 C300 0.931 . S
C285 H273 0.929 . S
C285 C279 1.390 . S
C285 C282 1.386 . S
C286 C281 1.490 . S
C286 C288 1.395 . S
C286 C289 1.403 . S
H287 C293 0.930 . S
C288 H274 0.930 . S
C288 C286 1.395 . S
C288 C291 1.403 . S
C289 C286 1.403 . S
C289 C290 1.524 . S
C289 C293 1.400 . S
C290 H275 0.960 . S
C290 H276 0.960 . S
C290 H277 0.960 . S
C290 C289 1.524 . S
C291 C288 1.403 . S
C291 C292 1.392 . S
C291 C295 1.495 . S
C292 C291 1.392 . S
C292 C293 1.385 . S
C292 C294 1.478 . S
C293 H287 0.930 . S
C293 C289 1.400 . S
C293 C292 1.385 . S
C294 C292 1.478 . S
C294 C296 1.381 . S
C294 C300 1.383 . S
C295 C291 1.495 . S
C295 H301 0.959 . S
C295 H302 0.961 . S
C295 H303 0.960 . S
C296 C294 1.381 . S
C296 C297 1.394 . S
C296 H304 0.930 . S
C297 C296 1.394 . S
C297 C298 1.383 . S
C297 H305 0.929 . S
C298 C297 1.383 . S
C298 C299 1.377 . S
C299 H283 0.930 . S
C299 C298 1.377 . S
C299 C300 1.379 . S
C300 H284 0.931 . S
C300 C294 1.383 . S
C300 C299 1.379 . S
H301 C295 0.959 . S
H302 C295 0.961 . S
H303 C295 0.960 . S
H304 C296 0.930 . S
H305 C297 0.929 . S
H306 C314 0.929 . S
H307 C316 0.930 . S
H308 C318 0.930 . S
H309 C321 0.929 . S
H310 C324 0.930 . S
H311 C326 0.960 . S
H312 C326 0.960 . S
H313 C326 0.960 . S
C314 H306 0.929 . S
C314 C315 1.377 . S
C314 C316 1.384 . S
C315 C314 1.377 . S
C315 C321 1.390 . S
C316 H307 0.930 . S
C316 C314 1.384 . S
C316 C317 1.372 . S
C317 C316 1.372 . S
C317 C318 1.400 . S
C317 C322 1.490 . S
C318 H308 0.930 . S
C318 C317 1.400 . S
C318 C321 1.386 . S
H319 C335 0.930 . S
H320 C336 0.931 . S
C321 H309 0.929 . S
C321 C315 1.390 . S
C321 C318 1.386 . S
C322 C317 1.490 . S
C322 C324 1.395 . S
C322 C325 1.403 . S
H323 C329 0.930 . S
C324 H310 0.930 . S
C324 C322 1.395 . S
C324 C327 1.403 . S
C325 C322 1.403 . S
C325 C326 1.524 . S
C325 C329 1.400 . S
C326 H311 0.960 . S
C326 H312 0.960 . S
C326 H313 0.960 . S
C326 C325 1.524 . S
C327 C324 1.403 . S
C327 C328 1.392 . S
C327 C331 1.495 . S
C328 C327 1.392 . S
C328 C329 1.385 . S
C328 C330 1.478 . S
C329 H323 0.930 . S
C329 C325 1.400 . S
C329 C328 1.385 . S
C330 C328 1.478 . S
C330 C332 1.381 . S
C330 C336 1.383 . S
C331 C327 1.495 . S
C331 H337 0.959 . S
C331 H338 0.961 . S
C331 H339 0.960 . S
C332 C330 1.381 . S
C332 C333 1.394 . S
C332 H340 0.930 . S
C333 C332 1.394 . S
C333 C334 1.383 . S
C333 H341 0.929 . S
C334 C333 1.383 . S
C334 C335 1.377 . S
C335 H319 0.930 . S
C335 C334 1.377 . S
C335 C336 1.379 . S
C336 H320 0.931 . S
C336 C330 1.383 . S
C336 C335 1.379 . S
H337 C331 0.959 . S
H338 C331 0.961 . S
H339 C331 0.960 . S
H340 C332 0.930 . S
H341 C333 0.929 . S
H342 C350 0.929 . S
H343 C352 0.930 . S
H344 C354 0.930 . S
H345 C357 0.929 . S
H346 C360 0.930 . S
H347 C362 0.960 . S
H348 C362 0.960 . S
H349 C362 0.960 . S
C350 H342 0.929 . S
C350 C351 1.377 . S
C350 C352 1.384 . S
C351 C350 1.377 . S
C351 C357 1.390 . S
C352 H343 0.930 . S
C352 C350 1.384 . S
C352 C353 1.372 . S
C353 C352 1.372 . S
C353 C354 1.400 . S
C353 C358 1.490 . S
C354 H344 0.930 . S
C354 C353 1.400 . S
C354 C357 1.386 . S
H355 C371 0.930 . S
H356 C372 0.931 . S
C357 H345 0.929 . S
C357 C351 1.390 . S
C357 C354 1.386 . S
C358 C353 1.490 . S
C358 C360 1.395 . S
C358 C361 1.403 . S
H359 C365 0.930 . S
C360 H346 0.930 . S
C360 C358 1.395 . S
C360 C363 1.403 . S
C361 C358 1.403 . S
C361 C362 1.524 . S
C361 C365 1.400 . S
C362 H347 0.960 . S
C362 H348 0.960 . S
C362 H349 0.960 . S
C362 C361 1.524 . S
C363 C360 1.403 . S
C363 C364 1.392 . S
C363 C367 1.495 . S
C364 C363 1.392 . S
C364 C365 1.385 . S
C364 C366 1.478 . S
C365 H359 0.930 . S
C365 C361 1.400 . S
C365 C364 1.385 . S
C366 C364 1.478 . S
C366 C368 1.381 . S
C366 C372 1.383 . S
C367 C363 1.495 . S
C367 H373 0.959 . S
C367 H374 0.961 . S
C367 H375 0.960 . S
C368 C366 1.381 . S
C368 C369 1.394 . S
C368 H376 0.930 . S
C369 C368 1.394 . S
C369 C370 1.383 . S
C369 H377 0.929 . S
C370 C369 1.383 . S
C370 C371 1.377 . S
C371 H355 0.930 . S
C371 C370 1.377 . S
C371 C372 1.379 . S
C372 H356 0.931 . S
C372 C366 1.383 . S
C372 C371 1.379 . S
H373 C367 0.959 . S
H374 C367 0.961 . S
H375 C367 0.960 . S
H376 C368 0.930 . S
H377 C369 0.929 . S
H378 C386 0.929 . S
H379 C388 0.930 . S
H380 C390 0.930 . S
H381 C393 0.929 . S
H382 C396 0.930 . S
H383 C398 0.960 . S
H384 C398 0.960 . S
H385 C398 0.960 . S
C386 H378 0.929 . S
C386 C387 1.377 . S
C386 C388 1.384 . S
C387 C386 1.377 . S
C387 C393 1.390 . S
C388 H379 0.930 . S
C388 C386 1.384 . S
C388 C389 1.372 . S
C389 C388 1.372 . S
C389 C390 1.400 . S
C389 C394 1.490 . S
C390 H380 0.930 . S
C390 C389 1.400 . S
C390 C393 1.386 . S
H391 C407 0.930 . S
H392 C408 0.931 . S
C393 H381 0.929 . S
C393 C387 1.390 . S
C393 C390 1.386 . S
C394 C389 1.490 . S
C394 C396 1.395 . S
C394 C397 1.403 . S
H395 C401 0.930 . S
C396 H382 0.930 . S
C396 C394 1.395 . S
C396 C399 1.403 . S
C397 C394 1.403 . S
C397 C398 1.524 . S
C397 C401 1.400 . S
C398 H383 0.960 . S
C398 H384 0.960 . S
C398 H385 0.960 . S
C398 C397 1.524 . S
C399 C396 1.403 . S
C399 C400 1.392 . S
C399 C403 1.495 . S
C400 C399 1.392 . S
C400 C401 1.385 . S
C400 C402 1.478 . S
C401 H395 0.930 . S
C401 C397 1.400 . S
C401 C400 1.385 . S
C402 C400 1.478 . S
C402 C404 1.381 . S
C402 C408 1.383 . S
C403 C399 1.495 . S
C403 H409 0.959 . S
C403 H410 0.961 . S
C403 H411 0.960 . S
C404 C402 1.381 . S
C404 C405 1.394 . S
C404 H412 0.930 . S
C405 C404 1.394 . S
C405 C406 1.383 . S
C405 H413 0.929 . S
C406 C405 1.383 . S
C406 C407 1.377 . S
C407 H391 0.930 . S
C407 C406 1.377 . S
C407 C408 1.379 . S
C408 H392 0.931 . S
C408 C402 1.383 . S
C408 C407 1.379 . S
H409 C403 0.959 . S
H410 C403 0.961 . S
H411 C403 0.960 . S
H412 C404 0.930 . S
H413 C405 0.929 . S
H414 C422 0.929 . S
H415 C424 0.930 . S
H416 C426 0.930 . S
H417 C429 0.929 . S
H418 C432 0.930 . S
H419 C434 0.960 . S
H420 C434 0.960 . S
H421 C434 0.960 . S
C422 H414 0.929 . S
C422 C423 1.377 . S
C422 C424 1.384 . S
C423 C422 1.377 . S
C423 C429 1.390 . S
C424 H415 0.930 . S
C424 C422 1.384 . S
C424 C425 1.372 . S
C425 C424 1.372 . S
C425 C426 1.400 . S
C425 C430 1.490 . S
C426 H416 0.930 . S
C426 C425 1.400 . S
C426 C429 1.386 . S
H427 C443 0.930 . S
H428 C444 0.931 . S
C429 H417 0.929 . S
C429 C423 1.390 . S
C429 C426 1.386 . S
C430 C425 1.490 . S
C430 C432 1.395 . S
C430 C433 1.403 . S
H431 C437 0.930 . S
C432 H418 0.930 . S
C432 C430 1.395 . S
C432 C435 1.403 . S
C433 C430 1.403 . S
C433 C434 1.524 . S
C433 C437 1.400 . S
C434 H419 0.960 . S
C434 H420 0.960 . S
C434 H421 0.960 . S
C434 C433 1.524 . S
C435 C432 1.403 . S
C435 C436 1.392 . S
C435 C439 1.495 . S
C436 C435 1.392 . S
C436 C437 1.385 . S
C436 C438 1.478 . S
C437 H431 0.930 . S
C437 C433 1.400 . S
C437 C436 1.385 . S
C438 C436 1.478 . S
C438 C440 1.381 . S
C438 C444 1.383 . S
C439 C435 1.495 . S
C439 H445 0.959 . S
C439 H446 0.961 . S
C439 H447 0.960 . S
C440 C438 1.381 . S
C440 C441 1.394 . S
C440 H448 0.930 . S
C441 C440 1.394 . S
C441 C442 1.383 . S
C441 H449 0.929 . S
C442 C441 1.383 . S
C442 C443 1.377 . S
C443 H427 0.930 . S
C443 C442 1.377 . S
C443 C444 1.379 . S
C444 H428 0.931 . S
C444 C438 1.383 . S
C444 C443 1.379 . S
H445 C439 0.959 . S
H446 C439 0.961 . S
H447 C439 0.960 . S
H448 C440 0.930 . S
H449 C441 0.929 . S
H450 C458 0.929 . S
H451 C460 0.930 . S
H452 C462 0.930 . S
H453 C465 0.929 . S
H454 C468 0.930 . S
H455 C470 0.960 . S
H456 C470 0.960 . S
H457 C470 0.960 . S
C458 H450 0.929 . S
C458 C459 1.377 . S
C458 C460 1.384 . S
C459 C458 1.377 . S
C459 C465 1.390 . S
C460 H451 0.930 . S
C460 C458 1.384 . S
C460 C461 1.372 . S
C461 C460 1.372 . S
C461 C462 1.400 . S
C461 C466 1.490 . S
C462 H452 0.930 . S
C462 C461 1.400 . S
C462 C465 1.386 . S
H463 C479 0.930 . S
H464 C480 0.931 . S
C465 H453 0.929 . S
C465 C459 1.390 . S
C465 C462 1.386 . S
C466 C461 1.490 . S
C466 C468 1.395 . S
C466 C469 1.403 . S
H467 C473 0.930 . S
C468 H454 0.930 . S
C468 C466 1.395 . S
C468 C471 1.403 . S
C469 C466 1.403 . S
C469 C470 1.524 . S
C469 C473 1.400 . S
C470 H455 0.960 . S
C470 H456 0.960 . S
C470 H457 0.960 . S
C470 C469 1.524 . S
C471 C468 1.403 . S
C471 C472 1.392 . S
C471 C475 1.495 . S
C472 C471 1.392 . S
C472 C473 1.385 . S
C472 C474 1.478 . S
C473 H467 0.930 . S
C473 C469 1.400 . S
C473 C472 1.385 . S
C474 C472 1.478 . S
C474 C476 1.381 . S
C474 C480 1.383 . S
C475 C471 1.495 . S
C475 H481 0.959 . S
C475 H482 0.961 . S
C475 H483 0.960 . S
C476 C474 1.381 . S
C476 C477 1.394 . S
C476 H484 0.930 . S
C477 C476 1.394 . S
C477 C478 1.383 . S
C477 H485 0.929 . S
C478 C477 1.383 . S
C478 C479 1.377 . S
C479 H463 0.930 . S
C479 C478 1.377 . S
C479 C480 1.379 . S
C480 H464 0.931 . S
C480 C474 1.383 . S
C480 C479 1.379 . S
H481 C475 0.959 . S
H482 C475 0.961 . S
H483 C475 0.960 . S
H484 C476 0.930 . S
H485 C477 0.929 . S
H486 C494 0.929 . S
H487 C496 0.930 . S
H488 C498 0.930 . S
H489 C501 0.929 . S
H490 C504 0.930 . S
H491 C506 0.960 . S
H492 C506 0.960 . S
H493 C506 0.960 . S
C494 H486 0.929 . S
C494 C495 1.377 . S
C494 C496 1.384 . S
C495 C494 1.377 . S
C495 C501 1.390 . S
C496 H487 0.930 . S
C496 C494 1.384 . S
C496 C497 1.372 . S
C497 C496 1.372 . S
C497 C498 1.400 . S
C497 C502 1.490 . S
C498 H488 0.930 . S
C498 C497 1.400 . S
C498 C501 1.386 . S
H499 C515 0.930 . S
H500 C516 0.931 . S
C501 H489 0.929 . S
C501 C495 1.390 . S
C501 C498 1.386 . S
C502 C497 1.490 . S
C502 C504 1.395 . S
C502 C505 1.403 . S
H503 C509 0.930 . S
C504 H490 0.930 . S
C504 C502 1.395 . S
C504 C507 1.403 . S
C505 C502 1.403 . S
C505 C506 1.524 . S
C505 C509 1.400 . S
C506 H491 0.960 . S
C506 H492 0.960 . S
C506 H493 0.960 . S
C506 C505 1.524 . S
C507 C504 1.403 . S
C507 C508 1.392 . S
C507 C511 1.495 . S
C508 C507 1.392 . S
C508 C509 1.385 . S
C508 C510 1.478 . S
C509 H503 0.930 . S
C509 C505 1.400 . S
C509 C508 1.385 . S
C510 C508 1.478 . S
C510 C512 1.381 . S
C510 C516 1.383 . S
C511 C507 1.495 . S
C511 H517 0.959 . S
C511 H518 0.961 . S
C511 H519 0.960 . S
C512 C510 1.381 . S
C512 C513 1.394 . S
C512 H520 0.930 . S
C513 C512 1.394 . S
C513 C514 1.383 1_655 S
C513 H521 0.929 . S
C514 C513 1.383 1_455 S
C514 C515 1.377 . S
C515 H499 0.930 . S
C515 C514 1.377 . S
C515 C516 1.379 1_455 S
C516 H500 0.931 . S
C516 C510 1.383 . S
C516 C515 1.379 1_655 S
H517 C511 0.959 . S
H518 C511 0.961 . S
H519 C511 0.960 . S
H520 C512 0.930 . S
H521 C513 0.929 . S
H522 C530 0.929 . S
H523 C532 0.930 . S
H524 C534 0.930 . S
H525 C537 0.929 . S
H526 C540 0.930 . S
H527 C542 0.960 . S
H528 C542 0.960 . S
H529 C542 0.960 . S
C530 H522 0.929 . S
C530 C531 1.377 . S
C530 C532 1.384 . S
C531 C530 1.377 . S
C531 C537 1.390 . S
C532 H523 0.930 . S
C532 C530 1.384 . S
C532 C533 1.372 . S
C533 C532 1.372 . S
C533 C534 1.400 . S
C533 C538 1.490 . S
C534 H524 0.930 . S
C534 C533 1.400 . S
C534 C537 1.386 . S
H535 C551 0.930 . S
H536 C552 0.931 . S
C537 H525 0.929 . S
C537 C531 1.390 . S
C537 C534 1.386 . S
C538 C533 1.490 . S
C538 C540 1.395 . S
C538 C541 1.403 . S
H539 C545 0.930 . S
C540 H526 0.930 . S
C540 C538 1.395 . S
C540 C543 1.403 . S
C541 C538 1.403 . S
C541 C542 1.524 . S
C541 C545 1.400 . S
C542 H527 0.960 . S
C542 H528 0.960 . S
C542 H529 0.960 . S
C542 C541 1.524 . S
C543 C540 1.403 . S
C543 C544 1.392 . S
C543 C547 1.495 . S
C544 C543 1.392 . S
C544 C545 1.385 . S
C544 C546 1.478 . S
C545 H539 0.930 . S
C545 C541 1.400 . S
C545 C544 1.385 . S
C546 C544 1.478 . S
C546 C548 1.381 . S
C546 C552 1.383 . S
C547 C543 1.495 . S
C547 H553 0.959 . S
C547 H554 0.961 . S
C547 H555 0.960 . S
C548 C546 1.381 . S
C548 C549 1.394 1_565 S
C548 H556 0.930 . S
C549 C548 1.394 1_545 S
C549 C550 1.383 . S
C549 H557 0.929 . S
C550 C549 1.383 . S
C550 C551 1.377 1_545 S
C551 H535 0.930 . S
C551 C550 1.377 1_565 S
C551 C552 1.379 . S
C552 H536 0.931 . S
C552 C546 1.383 . S
C552 C551 1.379 . S
H553 C547 0.959 . S
H554 C547 0.961 . S
H555 C547 0.960 . S
H556 C548 0.930 . S
H557 C549 0.929 . S
H558 C566 0.929 . S
H559 C568 0.930 . S
H560 C570 0.930 . S
H561 C573 0.929 . S
H562 C576 0.930 . S
H563 C578 0.960 . S
H564 C578 0.960 . S
H565 C578 0.960 . S
C566 H558 0.929 . S
C566 C567 1.377 . S
C566 C568 1.384 . S
C567 C566 1.377 . S
C567 C573 1.390 . S
C568 H559 0.930 . S
C568 C566 1.384 . S
C568 C569 1.372 . S
C569 C568 1.372 . S
C569 C570 1.400 . S
C569 C574 1.490 . S
C570 H560 0.930 . S
C570 C569 1.400 . S
C570 C573 1.386 . S
H571 C587 0.930 . S
H572 C588 0.931 . S
C573 H561 0.929 . S
C573 C567 1.390 . S
C573 C570 1.386 . S
C574 C569 1.490 . S
C574 C576 1.395 . S
C574 C577 1.403 . S
H575 C581 0.930 . S
C576 H562 0.930 . S
C576 C574 1.395 . S
C576 C579 1.403 . S
C577 C574 1.403 . S
C577 C578 1.524 . S
C577 C581 1.400 . S
C578 H563 0.960 . S
C578 H564 0.960 . S
C578 H565 0.960 . S
C578 C577 1.524 . S
C579 C576 1.403 . S
C579 C580 1.392 . S
C579 C583 1.495 . S
C580 C579 1.392 . S
C580 C581 1.385 . S
C580 C582 1.478 . S
C581 H575 0.930 . S
C581 C577 1.400 . S
C581 C580 1.385 . S
C582 C580 1.478 . S
C582 C584 1.381 . S
C582 C588 1.383 . S
C583 C579 1.495 . S
C583 H589 0.959 . S
C583 H590 0.961 . S
C583 H591 0.960 . S
C584 C582 1.381 . S
C584 C585 1.394 . S
C584 H592 0.930 . S
C585 C584 1.394 . S
C585 C586 1.383 . S
C585 H593 0.929 . S
C586 C585 1.383 . S
C586 C587 1.377 . S
C587 H571 0.930 . S
C587 C586 1.377 . S
C587 C588 1.379 . S
C588 H572 0.931 . S
C588 C582 1.383 . S
C588 C587 1.379 . S
H589 C583 0.959 . S
H590 C583 0.961 . S
H591 C583 0.960 . S
H592 C584 0.930 . S
H593 C585 0.929 . S
H594 C602 0.929 . S
H595 C604 0.930 . S
H596 C606 0.930 . S
H597 C609 0.929 . S
H598 C612 0.930 . S
H599 C614 0.960 . S
H600 C614 0.960 . S
H601 C614 0.960 . S
C602 H594 0.929 . S
C602 C603 1.377 . S
C602 C604 1.384 . S
C603 C602 1.377 . S
C603 C609 1.390 . S
C604 H595 0.930 . S
C604 C602 1.384 . S
C604 C605 1.372 . S
C605 C604 1.372 . S
C605 C606 1.400 . S
C605 C610 1.490 . S
C606 H596 0.930 . S
C606 C605 1.400 . S
C606 C609 1.386 . S
H607 C623 0.930 . S
H608 C624 0.931 . S
C609 H597 0.929 . S
C609 C603 1.390 . S
C609 C606 1.386 . S
C610 C605 1.490 . S
C610 C612 1.395 . S
C610 C613 1.403 . S
H611 C617 0.930 . S
C612 H598 0.930 . S
C612 C610 1.395 . S
C612 C615 1.403 . S
C613 C610 1.403 . S
C613 C614 1.524 . S
C613 C617 1.400 . S
C614 H599 0.960 . S
C614 H600 0.960 . S
C614 H601 0.960 . S
C614 C613 1.524 . S
C615 C612 1.403 . S
C615 C616 1.392 . S
C615 C619 1.495 . S
C616 C615 1.392 . S
C616 C617 1.385 . S
C616 C618 1.478 . S
C617 H611 0.930 . S
C617 C613 1.400 . S
C617 C616 1.385 . S
C618 C616 1.478 . S
C618 C620 1.381 . S
C618 C624 1.383 . S
C619 C615 1.495 . S
C619 H625 0.959 . S
C619 H626 0.961 . S
C619 H627 0.960 . S
C620 C618 1.381 . S
C620 C621 1.394 . S
C620 H628 0.930 . S
C621 C620 1.394 . S
C621 C622 1.383 . S
C621 H629 0.929 . S
C622 C621 1.383 . S
C622 C623 1.377 . S
C623 H607 0.930 . S
C623 C622 1.377 . S
C623 C624 1.379 . S
C624 H608 0.931 . S
C624 C618 1.383 . S
C624 C623 1.379 . S
H625 C619 0.959 . S
H626 C619 0.961 . S
H627 C619 0.960 . S
H628 C620 0.930 . S
H629 C621 0.929 . S
H630 C638 0.929 . S
H631 C640 0.930 . S
H632 C642 0.930 . S
H633 C645 0.929 . S
H634 C648 0.930 . S
H635 C650 0.960 . S
H636 C650 0.960 . S
H637 C650 0.960 . S
C638 H630 0.929 . S
C638 C639 1.377 . S
C638 C640 1.384 . S
C639 C638 1.377 . S
C639 C645 1.390 . S
C640 H631 0.930 . S
C640 C638 1.384 . S
C640 C641 1.372 . S
C641 C640 1.372 . S
C641 C642 1.400 . S
C641 C646 1.490 . S
C642 H632 0.930 . S
C642 C641 1.400 . S
C642 C645 1.386 . S
H643 C659 0.930 . S
H644 C660 0.931 . S
C645 H633 0.929 . S
C645 C639 1.390 . S
C645 C642 1.386 . S
C646 C641 1.490 . S
C646 C648 1.395 . S
C646 C649 1.403 . S
H647 C653 0.930 . S
C648 H634 0.930 . S
C648 C646 1.395 . S
C648 C651 1.403 . S
C649 C646 1.403 . S
C649 C650 1.524 . S
C649 C653 1.400 . S
C650 H635 0.960 . S
C650 H636 0.960 . S
C650 H637 0.960 . S
C650 C649 1.524 . S
C651 C648 1.403 . S
C651 C652 1.392 . S
C651 C655 1.495 . S
C652 C651 1.392 . S
C652 C653 1.385 . S
C652 C654 1.478 . S
C653 H647 0.930 . S
C653 C649 1.400 . S
C653 C652 1.385 . S
C654 C652 1.478 . S
C654 C656 1.381 . S
C654 C660 1.383 . S
C655 C651 1.495 . S
C655 H661 0.959 . S
C655 H662 0.961 . S
C655 H663 0.960 . S
C656 C654 1.381 . S
C656 C657 1.394 . S
C656 H664 0.930 . S
C657 C656 1.394 . S
C657 C658 1.383 . S
C657 H665 0.929 . S
C658 C657 1.383 . S
C658 C659 1.377 . S
C659 H643 0.930 . S
C659 C658 1.377 . S
C659 C660 1.379 . S
C660 H644 0.931 . S
C660 C654 1.383 . S
C660 C659 1.379 . S
H661 C655 0.959 . S
H662 C655 0.961 . S
H663 C655 0.960 . S
H664 C656 0.930 . S
H665 C657 0.929 . S
H666 C674 0.929 . S
H667 C676 0.930 . S
H668 C678 0.930 . S
H669 C681 0.929 . S
H670 C684 0.938 . S
H671 C686 0.960 . S
H672 C686 0.960 . S
H673 C686 0.960 . S
C674 H666 0.929 . S
C674 C675 1.377 . S
C674 C676 1.384 . S
C675 C674 1.377 . S
C675 C681 1.390 . S
C676 H667 0.930 . S
C676 C674 1.384 . S
C676 C677 1.372 . S
C677 C676 1.372 . S
C677 C678 1.400 . S
C677 C682 1.490 . S
C678 H668 0.930 . S
C678 C677 1.400 . S
C678 C681 1.386 . S
H679 C695 0.930 . S
H680 C696 0.931 . S
C681 H669 0.929 . S
C681 C675 1.390 . S
C681 C678 1.386 . S
C682 C677 1.490 . S
C682 C684 1.395 . S
C682 C685 1.403 . S
H683 C689 0.917 1_556 S
C684 H670 0.938 . S
C684 C682 1.395 . S
C684 C687 1.403 1_554 S
C685 C682 1.403 . S
C685 C686 1.524 . S
C685 C689 1.420 . S
C686 H671 0.960 . S
C686 H672 0.960 . S
C686 H673 0.960 . S
C686 C685 1.524 . S
C687 C684 1.403 1_556 S
C687 C688 1.392 . S
C687 C691 1.495 1_455 S
C688 C687 1.392 . S
C688 C689 1.378 1_556 S
C688 C690 1.478 . S
C689 H683 0.917 1_554 S
C689 C685 1.420 . S
C689 C688 1.378 1_554 S
C690 C688 1.478 . S
C690 C692 1.381 . S
C690 C696 1.383 . S
C691 C687 1.495 1_655 S
C691 H697 0.959 . S
C691 H698 0.961 . S
C691 H699 0.960 1_655 S
C692 C690 1.381 . S
C692 C693 1.394 . S
C692 H700 0.930 . S
C693 C692 1.394 . S
C693 C694 1.383 . S
C693 H701 0.929 . S
C694 C693 1.383 . S
C694 C695 1.377 . S
C695 H679 0.930 . S
C695 C694 1.377 . S
C695 C696 1.379 . S
C696 H680 0.931 . S
C696 C690 1.383 . S
C696 C695 1.379 . S
H697 C691 0.959 . S
H698 C691 0.961 . S
H699 C691 0.960 1_455 S
H700 C692 0.930 . S
H701 C693 0.929 . S
H702 C710 0.929 . S
H703 C712 0.930 . S
H704 C714 0.930 . S
H705 C717 0.929 . S
H706 C720 0.930 1_565 S
H707 C722 0.960 . S
H708 C722 0.960 . S
H709 C722 0.960 . S
C710 H702 0.929 . S
C710 C711 1.377 . S
C710 C712 1.384 . S
C711 C710 1.377 . S
C711 C717 1.390 . S
C712 H703 0.930 . S
C712 C710 1.384 . S
C712 C713 1.372 . S
C713 C712 1.372 . S
C713 C714 1.400 . S
C713 C718 1.490 . S
C714 H704 0.930 . S
C714 C713 1.400 . S
C714 C717 1.386 . S
H715 C731 0.930 . S
H716 C732 0.931 . S
C717 H705 0.929 . S
C717 C711 1.390 . S
C717 C714 1.386 . S
C718 C713 1.490 . S
C718 C720 1.395 . S
C718 C721 1.403 . S
H719 C725 0.930 . S
C720 H706 0.930 1_545 S
C720 C718 1.395 . S
C720 C723 1.403 . S
C721 C718 1.403 . S
C721 C722 1.524 . S
C721 C725 1.400 . S
C722 H707 0.960 . S
C722 H708 0.960 . S
C722 H709 0.960 . S
C722 C721 1.524 . S
C723 C720 1.403 . S
C723 C724 1.392 . S
C723 C727 1.495 1_545 S
C724 C723 1.392 . S
C724 C725 1.385 . S
C724 C726 1.478 . S
C725 H719 0.930 . S
C725 C721 1.400 . S
C725 C724 1.385 . S
C726 C724 1.478 . S
C726 C728 1.381 . S
C726 C732 1.383 . S
C727 C723 1.495 1_565 S
C727 H733 0.959 . S
C727 H734 0.961 . S
C727 H735 0.960 . S
C728 C726 1.381 . S
C728 C729 1.394 . S
C728 H736 0.930 . S
C729 C728 1.394 . S
C729 C730 1.383 . S
C729 H737 0.929 . S
C730 C729 1.383 . S
C730 C731 1.377 . S
C731 H715 0.930 . S
C731 C730 1.377 . S
C731 C732 1.379 . S
C732 H716 0.931 . S
C732 C726 1.383 . S
C732 C731 1.379 . S
H733 C727 0.959 . S
H734 C727 0.961 . S
H735 C727 0.960 . S
H736 C728 0.930 . S
H737 C729 0.929 . S
H738 C746 0.929 . S
H739 C748 0.930 . S
H740 C750 0.930 . S
H741 C753 0.929 . S
H742 C756 0.930 . S
H743 C758 0.960 . S
H744 C758 0.960 . S
H745 C758 0.960 . S
C746 H738 0.929 . S
C746 C747 1.377 . S
C746 C748 1.384 . S
C747 C746 1.377 . S
C747 C753 1.390 . S
C748 H739 0.930 . S
C748 C746 1.384 . S
C748 C749 1.372 . S
C749 C748 1.372 . S
C749 C750 1.400 . S
C749 C754 1.490 . S
C750 H740 0.930 . S
C750 C749 1.400 . S
C750 C753 1.386 . S
H751 C767 0.930 . S
H752 C768 0.931 . S
C753 H741 0.929 . S
C753 C747 1.390 . S
C753 C750 1.386 . S
C754 C749 1.490 . S
C754 C756 1.395 . S
C754 C757 1.403 . S
H755 C761 0.930 . S
C756 H742 0.930 . S
C756 C754 1.395 . S
C756 C759 1.403 . S
C757 C754 1.403 . S
C757 C758 1.524 . S
C757 C761 1.400 . S
C758 H743 0.960 . S
C758 H744 0.960 . S
C758 H745 0.960 . S
C758 C757 1.524 . S
C759 C756 1.403 . S
C759 C760 1.392 . S
C759 C763 1.495 . S
C760 C759 1.392 . S
C760 C761 1.385 . S
C760 C762 1.478 . S
C761 H755 0.930 . S
C761 C757 1.400 . S
C761 C760 1.385 . S
C762 C760 1.478 . S
C762 C764 1.381 . S
C762 C768 1.383 . S
C763 C759 1.495 . S
C763 H769 0.959 . S
C763 H770 0.961 . S
C763 H771 0.960 . S
C764 C762 1.381 . S
C764 C765 1.394 . S
C764 H772 0.930 . S
C765 C764 1.394 . S
C765 C766 1.383 . S
C765 H773 0.929 . S
C766 C765 1.383 . S
C766 C767 1.377 . S
C767 H751 0.930 . S
C767 C766 1.377 . S
C767 C768 1.379 . S
C768 H752 0.931 . S
C768 C762 1.383 . S
C768 C767 1.379 . S
H769 C763 0.959 . S
H770 C763 0.961 . S
H771 C763 0.960 . S
H772 C764 0.930 . S
H773 C765 0.929 . S
H774 C782 0.929 1_565 S
H775 C784 0.930 1_565 S
H776 C786 0.930 . S
H777 C789 0.929 . S
H778 C792 0.930 . S
H779 C794 0.960 . S
H780 C794 0.960 . S
H781 C794 0.960 . S
C782 H774 0.929 1_545 S
C782 C783 1.377 . S
C782 C784 1.384 . S
C783 C782 1.377 . S
C783 C789 1.390 . S
C784 H775 0.930 1_545 S
C784 C782 1.384 . S
C784 C785 1.372 . S
C785 C784 1.372 . S
C785 C786 1.400 . S
C785 C790 1.490 . S
C786 H776 0.930 . S
C786 C785 1.400 . S
C786 C789 1.386 . S
H787 C803 0.930 . S
H788 C804 0.931 . S
C789 H777 0.929 . S
C789 C783 1.390 . S
C789 C786 1.386 . S
C790 C785 1.490 . S
C790 C792 1.395 . S
C790 C793 1.403 . S
H791 C797 0.930 . S
C792 H778 0.930 . S
C792 C790 1.395 . S
C792 C795 1.403 . S
C793 C790 1.403 . S
C793 C794 1.524 . S
C793 C797 1.400 . S
C794 H779 0.960 . S
C794 H780 0.960 . S
C794 H781 0.960 . S
C794 C793 1.524 . S
C795 C792 1.403 . S
C795 C796 1.392 . S
C795 C799 1.495 . S
C796 C795 1.392 . S
C796 C797 1.385 . S
C796 C798 1.478 . S
C797 H791 0.930 . S
C797 C793 1.400 . S
C797 C796 1.385 . S
C798 C796 1.478 . S
C798 C800 1.381 . S
C798 C804 1.383 . S
C799 C795 1.495 . S
C799 H805 0.959 . S
C799 H806 0.961 . S
C799 H807 0.960 . S
C800 C798 1.381 . S
C800 C801 1.394 . S
C800 H808 0.930 1_545 S
C801 C800 1.394 . S
C801 C802 1.383 . S
C801 H809 0.929 1_545 S
C802 C801 1.383 . S
C802 C803 1.377 . S
C803 H787 0.930 . S
C803 C802 1.377 . S
C803 C804 1.379 . S
C804 H788 0.931 . S
C804 C798 1.383 . S
C804 C803 1.379 . S
H805 C799 0.959 . S
H806 C799 0.961 . S
H807 C799 0.960 . S
H808 C800 0.930 1_565 S
H809 C801 0.929 1_565 S
H810 C818 0.929 . S
H811 C820 0.930 . S
H812 C822 0.930 . S
H813 C825 0.929 . S
H814 C828 0.930 . S
H815 C830 0.960 . S
H816 C830 0.960 . S
H817 C830 0.960 . S
C818 H810 0.929 . S
C818 C819 1.377 . S
C818 C820 1.384 . S
C819 C818 1.377 . S
C819 C825 1.390 . S
C820 H811 0.930 . S
C820 C818 1.384 . S
C820 C821 1.372 . S
C821 C820 1.372 . S
C821 C822 1.400 . S
C821 C826 1.490 . S
C822 H812 0.930 . S
C822 C821 1.400 . S
C822 C825 1.386 . S
H823 C839 0.930 . S
H824 C840 0.931 . S
C825 H813 0.929 . S
C825 C819 1.390 . S
C825 C822 1.386 . S
C826 C821 1.490 . S
C826 C828 1.395 . S
C826 C829 1.403 . S
H827 C833 0.930 1_554 S
C828 H814 0.930 . S
C828 C826 1.395 . S
C828 C831 1.403 . S
C829 C826 1.403 . S
C829 C830 1.524 . S
C829 C833 1.400 . S
C830 H815 0.960 . S
C830 H816 0.960 . S
C830 H817 0.960 . S
C830 C829 1.524 . S
C831 C828 1.403 . S
C831 C832 1.392 1_556 S
C831 C835 1.495 1_556 S
C832 C831 1.392 1_554 S
C832 C833 1.385 1_554 S
C832 C834 1.478 . S
C833 H827 0.930 1_556 S
C833 C829 1.400 . S
C833 C832 1.385 1_556 S
C834 C832 1.478 . S
C834 C836 1.381 . S
C834 C840 1.383 . S
C835 C831 1.495 1_554 S
C835 H841 0.959 1_554 S
C835 H842 0.961 . S
C835 H843 0.960 . S
C836 C834 1.381 . S
C836 C837 1.394 . S
C836 H844 0.930 . S
C837 C836 1.394 . S
C837 C838 1.383 . S
C837 H845 0.929 . S
C838 C837 1.383 . S
C838 C839 1.377 . S
C839 H823 0.930 . S
C839 C838 1.377 . S
C839 C840 1.379 . S
C840 H824 0.931 . S
C840 C834 1.383 . S
C840 C839 1.379 . S
H841 C835 0.959 1_556 S
H842 C835 0.961 . S
H843 C835 0.960 . S
H844 C836 0.930 . S
H845 C837 0.929 . S
H846 C854 0.929 . S
H847 C856 0.930 . S
H848 C858 0.930 . S
H849 C861 0.929 . S
H850 C864 0.930 . S
H851 C866 0.962 1_655 S
H852 C866 0.990 . S
H853 C866 0.933 1_655 S
C854 H846 0.929 . S
C854 C855 1.377 . S
C854 C856 1.384 . S
C855 C854 1.377 . S
C855 C861 1.390 1_455 S
C856 H847 0.930 . S
C856 C854 1.384 . S
C856 C857 1.372 . S
C857 C856 1.372 . S
C857 C858 1.400 1_455 S
C857 C862 1.490 . S
C858 H848 0.930 . S
C858 C857 1.400 1_655 S
C858 C861 1.386 . S
H859 C875 0.919 1_655 S
H860 C876 0.931 1_655 S
C861 H849 0.929 . S
C861 C855 1.390 1_655 S
C861 C858 1.386 . S
C862 C857 1.490 . S
C862 C864 1.395 . S
C862 C865 1.403 . S
H863 C869 0.930 . S
C864 H850 0.930 . S
C864 C862 1.395 . S
C864 C867 1.403 . S
C865 C862 1.403 . S
C865 C866 1.520 . S
C865 C869 1.400 . S
C866 H851 0.962 1_455 S
C866 H852 0.990 . S
C866 H853 0.933 1_455 S
C866 C865 1.520 . S
C867 C864 1.403 . S
C867 C868 1.392 . S
C867 C871 1.495 . S
C868 C867 1.392 . S
C868 C869 1.385 . S
C868 C870 1.478 . S
C869 H863 0.930 . S
C869 C865 1.400 . S
C869 C868 1.385 . S
C870 C868 1.478 . S
C870 C872 1.381 . S
C870 C876 1.383 . S
C871 C867 1.495 . S
C871 H877 0.959 . S
C871 H878 0.961 . S
C871 H879 0.960 . S
C872 C870 1.381 . S
C872 C873 1.394 . S
C872 H880 0.930 . S
C873 C872 1.394 . S
C873 C874 1.383 . S
C873 H881 0.929 . S
C874 C873 1.383 . S
C874 C875 1.387 . S
C875 H859 0.919 1_455 S
C875 C874 1.387 . S
C875 C876 1.379 . S
C876 H860 0.931 1_455 S
C876 C870 1.383 . S
C876 C875 1.379 . S
H877 C871 0.959 . S
H878 C871 0.961 . S
H879 C871 0.960 . S
H880 C872 0.930 . S
H881 C873 0.929 . S
C243 C12 3.071 . S
C262 C226 2.982 . S
C279 C52 3.066 . S
C298 C188 2.963 . S
C315 C111 3.102 . S
C334 C207 3.005 . S
C351 C31 3.008 . S
C370 C221 2.966 . S
C406 C183 2.970 . S
C387 C71 3.015 . S
C442 C202 2.918 . S
C423 C92 2.963 . S
C459 C48 0.568 . S
C478 C150 0.631 . S
C495 C109 0.255 . S
C514 C164 0.306 . S
C531 C29 0.193 . S
C550 C126 0.137 . S
C586 C145 0.302 . S
C567 C69 0.168 . S
C622 C169 0.526 . S
C603 C88 0.337 . S
C639 C8 0.393 . S
C658 C131 0.598 . S
C694 C160 1.377 . S
C675 C17 1.345 . S
C711 C57 1.308 . S
C730 C122 1.326 . S
C747 C97 1.353 . S
C766 C141 1.360 . S
C802 C198 1.715 . S
C783 C42 1.699 . S
C838 C217 1.721 . S
C819 C82 1.722 . S
C855 C2 1.738 . S
C874 C179 1.722 . S
