# Generated by pormake.
# Topology llj, (12,3)-cn, num edge types: 1
# Building blocks:
#     Node 0, Type 0, BuildingBlock: QEWDON_clean_sbu_0, # of connection points: 12
#     Node 1, Type 0, BuildingBlock: QEWDON_clean_sbu_0, # of connection points: 12
#     Node 2, Type 1, BuildingBlock: PAMTOO_clean_linker_0, # of connection points: 3
#     Node 3, Type 1, BuildingBlock: PAMTOO_clean_linker_0, # of connection points: 3
#     Node 4, Type 1, BuildingBlock: PAMTOO_clean_linker_0, # of connection points: 3
#     Node 5, Type 1, BuildingBlock: PAMTOO_clean_linker_0, # of connection points: 3
#     Node 6, Type 1, BuildingBlock: PAMTOO_clean_linker_0, # of connection points: 3
#     Node 7, Type 1, BuildingBlock: PAMTOO_clean_linker_0, # of connection points: 3
#     Node 8, Type 1, BuildingBlock: PAMTOO_clean_linker_0, # of connection points: 3
#     Node 9, Type 1, BuildingBlock: PAMTOO_clean_linker_0, # of connection points: 3
#     Edge 10, Type (0, 1), BuildingBlock: OJICUG_clean_linker_0, # of connection points: 2
#     Edge 11, Type (0, 1), BuildingBlock: OJICUG_clean_linker_0, # of connection points: 2
#     Edge 12, Type (0, 1), BuildingBlock: OJICUG_clean_linker_0, # of connection points: 2
#     Edge 13, Type (0, 1), BuildingBlock: OJICUG_clean_linker_0, # of connection points: 2
#     Edge 14, Type (0, 1), BuildingBlock: OJICUG_clean_linker_0, # of connection points: 2
#     Edge 15, Type (0, 1), BuildingBlock: OJICUG_clean_linker_0, # of connection points: 2
#     Edge 16, Type (0, 1), BuildingBlock: OJICUG_clean_linker_0, # of connection points: 2
#     Edge 17, Type (0, 1), BuildingBlock: OJICUG_clean_linker_0, # of connection points: 2
#     Edge 18, Type (0, 1), BuildingBlock: OJICUG_clean_linker_0, # of connection points: 2
#     Edge 19, Type (0, 1), BuildingBlock: OJICUG_clean_linker_0, # of connection points: 2
#     Edge 20, Type (0, 1), BuildingBlock: OJICUG_clean_linker_0, # of connection points: 2
#     Edge 21, Type (0, 1), BuildingBlock: OJICUG_clean_linker_0, # of connection points: 2
#     Edge 22, Type (0, 1), BuildingBlock: OJICUG_clean_linker_0, # of connection points: 2
#     Edge 23, Type (0, 1), BuildingBlock: OJICUG_clean_linker_0, # of connection points: 2
#     Edge 24, Type (0, 1), BuildingBlock: OJICUG_clean_linker_0, # of connection points: 2
#     Edge 25, Type (0, 1), BuildingBlock: OJICUG_clean_linker_0, # of connection points: 2
#     Edge 26, Type (0, 1), BuildingBlock: OJICUG_clean_linker_0, # of connection points: 2
#     Edge 27, Type (0, 1), BuildingBlock: OJICUG_clean_linker_0, # of connection points: 2
#     Edge 28, Type (0, 1), BuildingBlock: OJICUG_clean_linker_0, # of connection points: 2
#     Edge 29, Type (0, 1), BuildingBlock: OJICUG_clean_linker_0, # of connection points: 2
#     Edge 30, Type (0, 1), BuildingBlock: OJICUG_clean_linker_0, # of connection points: 2
#     Edge 31, Type (0, 1), BuildingBlock: OJICUG_clean_linker_0, # of connection points: 2
#     Edge 32, Type (0, 1), BuildingBlock: OJICUG_clean_linker_0, # of connection points: 2
#     Edge 33, Type (0, 1), BuildingBlock: OJICUG_clean_linker_0, # of connection points: 2
# Relax obj value: 0.010
# Max RMSD: 0.094
# Mean RMSD: 0.080
data_MOF--net-llj--node1-QEWDON_clean_sbu_0--node2-PAMTOO_clean_linker_0--edge1-OJICUG_clean_linker_0
_symmetry_space_group_name_H-M    P1
_symmetry_Int_Tables_number       1
_symmetry_cell_setting            triclinic
loop_
_symmetry_equiv_pos_as_xyz
'x, y, z'
_cell_length_a     30.058262
_cell_length_b     30.220092
_cell_length_c     18.54601
_cell_angle_alpha  91.187372
_cell_angle_beta   90.346601
_cell_angle_gamma 89.377949
loop_
_atom_site_label
_atom_site_type_symbol
_atom_site_fract_x
_atom_site_fract_y
_atom_site_fract_z
_atom_type_partial_charge
Zn0 Zn 0.94262 0.08166 0.93277 0.0
Zn1 Zn 0.93999 0.08256 0.10406 0.0
O2 O 0.97887 0.06679 0.02038 0.0
H3 H 1.00027 0.04272 0.02017 0.0
C4 C 0.86819 0.01047 0.83378 0.0
O5 O 0.87162 0.0315 0.89617 0.0
Zn6 Zn 0.06941 0.92038 0.10548 0.0
Zn7 Zn 0.06689 0.90686 0.93302 0.0
O8 O 0.03281 0.93301 0.01754 0.0
H9 H 0.01141 0.95696 0.0139 0.0
Zn10 Zn 0.88798 0.93521 0.92458 0.0
O11 O 0.91155 0.97084 0.00872 0.0
Zn12 Zn 0.90699 0.93159 0.09338 0.0
H13 H 0.93327 0.99375 0.00303 0.0
Zn14 Zn 0.15561 0.04918 0.95937 0.0
O15 O 0.10119 0.03213 0.01412 0.0
H16 H 0.07736 0.01328 -0.00261 0.0
Zn17 Zn 0.10214 0.07248 0.10057 0.0
C18 C 0.15678 0.97967 0.84903 0.0
O19 O 0.14106 0.95716 0.90289 0.0
O20 O 0.88937 0.12234 0.95499 0.0
O21 O 0.89032 0.12635 0.07503 0.0
O22 O 0.11882 0.86629 0.96194 0.0
O23 O 0.11873 0.87426 0.08162 0.0
O24 O 0.84966 0.88307 0.95434 0.0
O25 O 0.86543 0.87993 0.07169 0.0
C26 C 0.0213 0.10064 0.18098 0.0
O27 O 0.17299 0.11374 0.97786 0.0
O28 O 0.13744 0.12907 0.08066 0.0
O29 O 0.03436 0.89492 0.8358 0.0
C30 C 0.87354 0.13735 0.01427 0.0
O31 O 0.97556 0.08835 0.83641 0.0
C32 C 0.98612 0.90224 0.17714 0.0
O33 O 0.87311 0.96866 0.83125 0.0
C34 C 0.13468 0.85682 0.02366 0.0
O35 O 0.16653 0.02009 0.85935 0.0
C36 C 0.89107 0.00806 0.18197 0.0
O37 O 0.97922 0.1039 0.18675 0.0
O38 O 0.0381 0.08791 0.12143 0.0
C39 C 0.84482 0.86544 0.01561 0.0
O40 O 0.02819 0.90038 0.18512 0.0
O41 O 0.96996 0.91365 0.11687 0.0
C42 C 0.11901 0.9967 0.18628 0.0
O43 O 0.88268 0.96698 0.17764 0.0
O44 O 0.91329 0.02459 0.13123 0.0
C45 C 0.16291 0.14053 0.02932 0.0
O46 O 0.1276 0.03783 0.18363 0.0
O47 O 0.09615 0.97961 0.13494 0.0
C48 C 0.99235 0.89073 0.83503 0.0
O49 O 0.97052 0.89433 0.89607 0.0
C50 C 0.01758 0.08353 0.83521 0.0
O51 O 0.0388 0.07388 0.89506 0.0
Zn52 Zn 0.44094 0.57953 0.43393 0.0
Zn53 Zn 0.43884 0.58196 0.60366 0.0
O54 O 0.47867 0.56784 0.5213 0.0
H55 H 0.50147 0.54511 0.52161 0.0
C56 C 0.37576 0.49705 0.3282 0.0
O57 O 0.37899 0.51862 0.39013 0.0
Zn58 Zn 0.56067 0.42154 0.6104 0.0
Zn59 Zn 0.55675 0.42057 0.43912 0.0
O60 O 0.52199 0.43863 0.52765 0.0
H61 H 0.50103 0.46305 0.52916 0.0
Zn62 Zn 0.3916 0.42539 0.42567 0.0
O63 O 0.40671 0.46656 0.50906 0.0
Zn64 Zn 0.4004 0.43077 0.59745 0.0
H65 H 0.42617 0.4915 0.50383 0.0
Zn66 Zn 0.62758 0.55925 0.43588 0.0
O67 O 0.59543 0.53027 0.51569 0.0
H68 H 0.57368 0.50737 0.50815 0.0
Zn69 Zn 0.60139 0.57086 0.60143 0.0
C70 C 0.64333 0.48274 0.33978 0.0
O71 O 0.63258 0.46063 0.39722 0.0
O72 O 0.3868 0.61946 0.45478 0.0
O73 O 0.38821 0.62466 0.57468 0.0
O74 O 0.60268 0.3711 0.459 0.0
O75 O 0.60318 0.37086 0.57911 0.0
O76 O 0.35308 0.37342 0.45728 0.0
O77 O 0.35988 0.37804 0.57704 0.0
C78 C 0.51876 0.60395 0.68509 0.0
O79 O 0.65529 0.6188 0.46054 0.0
O80 O 0.63902 0.62601 0.57722 0.0
O81 O 0.52077 0.41748 0.34378 0.0
C82 C 0.37107 0.63498 0.51382 0.0
O83 O 0.47456 0.58803 0.33907 0.0
C84 C 0.47914 0.40527 0.68594 0.0
O85 O 0.37938 0.45508 0.32724 0.0
C86 C 0.61665 0.35523 0.51826 0.0
O87 O 0.64431 0.52467 0.34337 0.0
C88 C 0.38852 0.50997 0.67929 0.0
O89 O 0.47639 0.6063 0.68561 0.0
O90 O 0.53793 0.58829 0.62888 0.0
C91 C 0.34392 0.35955 0.51994 0.0
O92 O 0.52121 0.40453 0.69397 0.0
O93 O 0.46291 0.41352 0.62431 0.0
C94 C 0.61821 0.49403 0.68533 0.0
O95 O 0.37599 0.46995 0.67801 0.0
O96 O 0.41327 0.52305 0.629 0.0
C97 C 0.65711 0.64049 0.52002 0.0
O98 O 0.62881 0.53459 0.68152 0.0
O99 O 0.59294 0.47812 0.63627 0.0
C100 C 0.49322 0.38607 0.33744 0.0
O101 O 0.49 0.35782 0.39004 0.0
C102 C 0.51651 0.59257 0.34171 0.0
O103 O 0.53699 0.59127 0.4044 0.0
H104 H 0.43679 0.39346 0.01051 0.0
H105 H 0.33543 0.32565 0.12614 0.0
H106 H 0.32361 0.33786 0.89796 0.0
H107 H 0.23581 0.33283 0.98003 0.0
C108 C 0.24841 0.31154 0.02407 0.0
O109 O 0.29224 0.30011 0.01162 0.0
H110 H 0.24543 0.33027 0.07617 0.0
C111 C 0.40471 0.37758 0.01088 0.0
C112 C 0.38192 0.36933 0.94528 0.0
C113 C 0.38818 0.36262 0.07678 0.0
C114 C 0.34854 0.33845 0.07654 0.0
C115 C 0.326 0.3292 0.01206 0.0
C116 C 0.34191 0.34543 0.94703 0.0
H117 H 0.64376 0.4444 0.00655 0.0
H118 H 0.71621 0.33956 0.11021 0.0
H119 H 0.70598 0.34042 0.87954 0.0
H120 H 0.69949 0.24792 0.95189 0.0
C121 C 0.72114 0.2565 -0.0011 0.0
O122 O 0.73805 0.2983 -0.00898 0.0
H123 H 0.70057 0.25525 0.04855 0.0
C124 C 0.66339 0.41413 0.00322 0.0
C125 C 0.67343 0.39541 0.93529 0.0
C126 C 0.67854 0.3944 0.06678 0.0
C127 C 0.70318 0.3548 0.06198 0.0
C128 C 0.71235 0.33513 -0.00531 0.0
C129 C 0.69738 0.35522 0.93138 0.0
H130 H 0.57035 0.59616 0.00967 0.0
H131 H 0.66381 0.68278 0.91077 0.0
H132 H 0.664 0.67001 0.13973 0.0
H133 H 0.68123 0.75445 0.10202 0.0
C134 C 0.69439 0.75025 0.0463 0.0
O135 O 0.70278 0.70606 0.03174 0.0
H136 H 0.66865 0.76314 0.00845 0.0
C137 C 0.59738 0.61947 0.01442 0.0
C138 C 0.61387 0.63138 0.08301 0.0
C139 C 0.61403 0.63865 0.95189 0.0
C140 C 0.6507 0.66694 0.95787 0.0
C141 C 0.66922 0.67691 0.02563 0.0
C142 C 0.65082 0.6594 0.08782 0.0
H143 H 0.37249 0.55127 -0.00317 0.0
H144 H 0.29478 0.64281 0.12699 0.0
H145 H 0.29859 0.65688 0.89765 0.0
H146 H 0.30801 0.7409 -0.00771 0.0
C147 C 0.2831 0.73204 0.03361 0.0
O148 O 0.26734 0.69003 0.01942 0.0
H149 H 0.29987 0.73311 0.08728 0.0
C150 C 0.35086 0.58011 0.00166 0.0
C151 C 0.33751 0.60228 0.93919 0.0
C152 C 0.33562 0.5942 0.0699 0.0
C153 C 0.30753 0.63162 0.07514 0.0
C154 C 0.29479 0.65446 0.01337 0.0
C155 C 0.30933 0.63954 0.94538 0.0
H156 H 0.94304 0.88973 0.50083 0.0
H157 H 0.84923 0.81203 0.61645 0.0
H158 H 0.83414 0.82586 0.38877 0.0
H159 H 0.74764 0.82524 0.4787 0.0
C160 C 0.76019 0.80208 0.52021 0.0
O161 O 0.80305 0.78876 0.50381 0.0
H162 H 0.7596 0.81972 0.5735 0.0
C163 C 0.91327 0.86996 0.50109 0.0
C164 C 0.89099 0.86003 0.43562 0.0
C165 C 0.89823 0.85362 0.56705 0.0
C166 C 0.86055 0.82658 0.56701 0.0
C167 C 0.83761 0.81696 0.50299 0.0
C168 C 0.8524 0.83394 0.4377 0.0
H169 H 0.14932 0.94867 0.51044 0.0
H170 H 0.21964 0.84089 0.60979 0.0
H171 H 0.20745 0.84384 0.37957 0.0
H172 H 0.20049 0.75075 0.44904 0.0
C173 C 0.22206 0.75868 0.49644 0.0
O174 O 0.23984 0.80021 0.48924 0.0
H175 H 0.20112 0.75767 0.54571 0.0
C176 C 0.16806 0.9179 0.50573 0.0
C177 C 0.17667 0.89925 0.43707 0.0
C178 C 0.18308 0.89707 0.56846 0.0
C179 C 0.20673 0.85692 0.56216 0.0
C180 C 0.21498 0.83763 0.49431 0.0
C181 C 0.19978 0.85855 0.43187 0.0
H182 H 0.06916 0.09129 0.50263 0.0
H183 H 0.17311 0.16731 0.40664 0.0
H184 H 0.16558 0.15853 0.63609 0.0
H185 H 0.182 0.24314 0.59672 0.0
C186 C 0.19719 0.23868 0.54243 0.0
O187 O 0.20669 0.19444 0.52979 0.0
H188 H 0.17256 0.25074 0.50202 0.0
C189 C 0.09889 0.11105 0.5077 0.0
C190 C 0.11519 0.12198 0.57685 0.0
C191 C 0.11927 0.12706 0.44543 0.0
C192 C 0.15698 0.15395 0.45337 0.0
C193 C 0.1735 0.16492 0.52211 0.0
C194 C 0.15321 0.14834 0.5834 0.0
H195 H 0.87046 0.05817 0.50594 0.0
H196 H 0.79894 0.15796 0.38866 0.0
H197 H 0.79313 0.15757 0.61974 0.0
H198 H 0.71096 0.17192 0.55 0.0
C199 C 0.72088 0.19245 0.5037 0.0
O200 O 0.7664 0.19796 0.50413 0.0
H201 H 0.71062 0.17453 0.45335 0.0
C202 C 0.84884 0.08711 0.50554 0.0
C203 C 0.83302 0.10501 0.57101 0.0
C204 C 0.83638 0.10533 0.43933 0.0
C205 C 0.8096 0.14376 0.43915 0.0
C206 C 0.79451 0.16271 0.50443 0.0
C207 C 0.80643 0.14352 0.57006 0.0
C208 C 0.19809 0.20227 0.96351 0.0
C209 C 0.18138 0.18578 0.02827 0.0
H210 H 0.23144 0.2552 0.91179 0.0
C211 C 0.18393 0.21233 0.0913 0.0
H212 H 0.19631 0.18288 0.9138 0.0
C213 C 0.20443 0.25377 0.08997 0.0
C214 C 0.22188 0.26961 0.02534 0.0
H215 H 0.1714 0.20054 0.14199 0.0
H216 H 0.20748 0.27299 0.13966 0.0
C217 C 0.21794 0.24375 0.96206 0.0
C218 C 0.81541 0.18564 0.07477 0.0
C219 C 0.83437 0.16752 0.01145 0.0
H220 H 0.76459 0.22804 0.12023 0.0
C221 C 0.8153 0.17826 0.94439 0.0
H222 H 0.82931 0.17817 0.12721 0.0
C223 C 0.77828 0.20639 0.94067 0.0
C224 C 0.75925 0.22413 0.00382 0.0
H225 H 0.82899 0.16508 0.8944 0.0
H226 H 0.76462 0.21454 0.88834 0.0
C227 C 0.77831 0.21393 0.0709 0.0
C228 C 0.79841 0.81617 0.09141 0.0
C229 C 0.81072 0.83088 0.02295 0.0
H230 H 0.75181 0.77904 0.15234 0.0
C231 C 0.78698 0.81555 0.96188 0.0
H232 H 0.81613 0.82707 0.1395 0.0
C233 C 0.75018 0.78832 0.9695 0.0
C234 C 0.73631 0.7761 0.0382 0.0
H235 H 0.79579 0.82582 0.90826 0.0
H236 H 0.7316 0.77799 0.92193 0.0
C237 C 0.76153 0.7889 0.09891 0.0
C238 C 0.19159 0.80775 0.96318 0.0
C239 C 0.17257 0.82501 0.02721 0.0
H240 H 0.24124 0.76503 0.91556 0.0
C241 C 0.19013 0.81145 0.09379 0.0
H242 H 0.17897 0.81733 0.91087 0.0
C243 C 0.22589 0.78138 0.0961 0.0
C244 C 0.245 0.76472 0.03197 0.0
H245 H 0.17623 0.82392 0.14408 0.0
H246 H 0.23871 0.77123 0.14797 0.0
C247 C 0.2273 0.77788 0.96561 0.0
C248 C 0.69445 0.70195 0.45625 0.0
C249 C 0.68134 0.68305 0.5215 0.0
H250 H 0.72921 0.75429 0.4053 0.0
C251 C 0.69288 0.70451 0.58687 0.0
H252 H 0.68608 0.68649 0.40479 0.0
C253 C 0.71782 0.74346 0.58678 0.0
C254 C 0.73101 0.76193 0.52138 0.0
H255 H 0.6835 0.69075 0.63799 0.0
H256 H 0.72721 0.7589 0.63778 0.0
C257 C 0.719 0.74087 0.45627 0.0
C258 C 0.31331 0.67637 0.44332 0.0
C259 C 0.33237 0.66585 0.51052 0.0
H260 H 0.26374 0.71378 0.38662 0.0
C261 C 0.31439 0.68554 0.57342 0.0
H262 H 0.32627 0.66201 0.39363 0.0
C263 C 0.27837 0.7152 0.56901 0.0
C264 C 0.25937 0.72529 0.50182 0.0
H265 H 0.32833 0.67837 0.62594 0.0
H266 H 0.26541 0.73043 0.61805 0.0
C267 C 0.27738 0.7059 0.43907 0.0
C268 C 0.29529 0.31153 0.59442 0.0
C269 C 0.31076 0.32395 0.52639 0.0
H270 H 0.2473 0.27458 0.65274 0.0
C271 C 0.29142 0.30469 0.46409 0.0
H272 H 0.30961 0.32544 0.64349 0.0
C273 C 0.25578 0.27572 0.46961 0.0
C274 C 0.23872 0.26558 0.53737 0.0
H275 H 0.30272 0.31313 0.41082 0.0
H276 H 0.24044 0.26247 0.42087 0.0
C277 C 0.2596 0.28252 0.59982 0.0
C278 C 0.66208 0.29887 0.44893 0.0
C279 C 0.64705 0.31615 0.5157 0.0
H280 H 0.69736 0.24652 0.39323 0.0
C281 C 0.65944 0.29425 0.5791 0.0
H282 H 0.65366 0.31505 0.39902 0.0
C283 C 0.6845 0.25494 0.57543 0.0
C284 C 0.69741 0.23669 0.50839 0.0
H285 H 0.64881 0.30678 0.63143 0.0
H286 H 0.69272 0.23808 0.62482 0.0
C287 C 0.68712 0.25964 0.44541 0.0
C288 C 0.07252 0.14573 0.25749 0.0
C289 C 0.04949 0.1063 0.2449 0.0
H290 H 0.11213 0.18372 0.33157 0.0
C291 C 0.0523 0.07238 0.29498 0.0
H292 H 0.07065 0.17216 0.21895 0.0
C293 C 0.07703 0.07822 0.35827 0.0
C294 C 0.09848 0.11859 0.37345 0.0
H295 H 0.03511 0.04145 0.28531 0.0
H296 H 0.0787 0.05128 0.39582 0.0
C297 C 0.0966 0.15201 0.32157 0.0
C298 C 0.85901 0.01196 0.30534 0.0
C299 C 0.87632 0.0342 0.24611 0.0
H300 H 0.83219 0.01695 0.4114 0.0
C301 C 0.87897 0.08063 0.24972 0.0
H302 H 0.85619 0.97624 0.30458 0.0
C303 C 0.86529 0.1042 0.31179 0.0
C304 C 0.84894 0.08163 0.37141 0.0
H305 H 0.89154 0.09881 0.20493 0.0
H306 H 0.86833 0.13988 0.3137 0.0
C307 C 0.84547 0.03532 0.36697 0.0
C308 C 0.93004 0.85729 0.24027 0.0
C309 C 0.95714 0.89466 0.23906 0.0
H310 H 0.88898 0.81614 0.30355 0.0
C311 C 0.95887 0.92309 0.29955 0.0
H312 H 0.92836 0.83497 0.19387 0.0
C313 C 0.935 0.91345 0.36165 0.0
C314 C 0.9102 0.8742 0.36551 0.0
H315 H 0.97916 0.95251 0.29907 0.0
H316 H 0.93696 0.93636 0.40715 0.0
C317 C 0.90718 0.84683 0.30313 0.0
C318 C 0.12909 0.92479 0.25186 0.0
C319 C 0.13447 0.97086 0.2491 0.0
H320 H 0.13807 0.86587 0.31316 0.0
C321 C 0.15485 0.9928 0.30799 0.0
H322 H 0.11394 0.90674 0.20772 0.0
C323 C 0.16872 0.96946 0.36839 0.0
C324 C 0.16284 0.92346 0.37151 0.0
H325 H 0.1599 0.02823 0.30785 0.0
H326 H 0.18437 0.98751 0.41261 0.0
C327 C 0.14324 0.90127 0.31227 0.0
C328 C 0.15506 0.91301 0.76648 0.0
C329 C 0.16292 0.95845 0.77726 0.0
H330 H 0.15512 0.85797 0.69171 0.0
C331 C 0.17681 0.98355 0.71873 0.0
H332 H 0.14418 0.8928 0.81045 0.0
C333 C 0.18291 0.96365 0.65092 0.0
C334 C 0.17551 0.91817 0.64024 0.0
H335 H 0.18322 0.01859 0.72526 0.0
H336 H 0.19421 0.98377 0.6071 0.0
C337 C 0.16148 0.89303 0.69864 0.0
C338 C 0.08915 0.08802 0.76771 0.0
C339 C 0.04247 0.09085 0.7682 0.0
H340 H 0.14876 0.09478 0.70658 0.0
C341 C 0.01983 0.10221 0.70467 0.0
H342 H 0.10749 0.0796 0.81597 0.0
C343 C 0.04345 0.11152 0.64239 0.0
C344 C 0.09023 0.1093 0.64199 0.0
H345 H 0.98386 0.10482 0.70332 0.0
H346 H 0.02495 0.12176 0.59519 0.0
C347 C 0.11279 0.09704 0.70521 0.0
C348 C 0.85974 0.08153 0.76724 0.0
C349 C 0.85895 0.035 0.76719 0.0
H350 H 0.85286 0.14028 0.70512 0.0
C351 C 0.84938 0.01191 0.70264 0.0
H352 H 0.86726 0.10024 0.81609 0.0
C353 C 0.84068 0.03476 0.63954 0.0
C354 C 0.84189 0.08131 0.6391 0.0
H355 H 0.84826 0.97607 0.70083 0.0
H356 H 0.83249 0.01582 0.59114 0.0
C357 C 0.85135 0.10448 0.70376 0.0
C358 C 0.99193 0.87473 0.70186 0.0
C359 C 0.96841 0.88157 0.76647 0.0
H360 H 0.98858 0.85933 0.58901 0.0
C361 C 0.92177 0.87927 0.76504 0.0
H362 H 0.02793 0.87594 0.70117 0.0
C363 C 0.89907 0.87086 0.70035 0.0
C364 C 0.92251 0.86366 0.63565 0.0
H365 H 0.90266 0.88399 0.81392 0.0
H366 H 0.86306 0.87027 0.70109 0.0
C367 C 0.96927 0.86559 0.63732 0.0
C368 C 0.5207 0.62203 0.81661 0.0
C369 C 0.54382 0.61565 0.75162 0.0
H370 H 0.52441 0.63525 0.92968 0.0
C371 C 0.59034 0.61962 0.75213 0.0
H372 H 0.48477 0.62026 0.81826 0.0
C373 C 0.61348 0.62716 0.81684 0.0
C374 C 0.59031 0.63176 0.88216 0.0
H375 H 0.609 0.61685 0.7029 0.0
H376 H 0.64944 0.62866 0.81577 0.0
C377 C 0.54357 0.63018 0.88087 0.0
C378 C 0.33122 0.54969 0.75283 0.0
C379 C 0.37607 0.53934 0.73986 0.0
H380 H 0.28394 0.57919 0.82605 0.0
C381 C 0.40858 0.55276 0.78992 0.0
H382 H 0.30568 0.53902 0.71504 0.0
C383 C 0.39621 0.57487 0.85374 0.0
C384 C 0.35119 0.58444 0.86774 0.0
H385 H 0.44327 0.54414 0.78138 0.0
H386 H 0.42163 0.58341 0.89313 0.0
C387 C 0.31889 0.57267 0.81596 0.0
C388 C 0.41989 0.36478 0.7493 0.0
C389 C 0.45018 0.39962 0.74848 0.0
H390 H 0.37597 0.3266 0.81221 0.0
C391 C 0.4548 0.42716 0.80965 0.0
H392 H 0.41598 0.34314 0.70242 0.0
C393 C 0.43044 0.41909 0.87189 0.0
C394 C 0.4023 0.38213 0.87528 0.0
H395 H 0.47758 0.45471 0.80949 0.0
H396 H 0.43461 0.44134 0.91786 0.0
C397 C 0.39665 0.35567 0.81233 0.0
C398 C 0.65402 0.48924 0.80657 0.0
C399 C 0.63342 0.46775 0.74754 0.0
H400 H 0.68318 0.48316 0.91124 0.0
C401 C 0.62734 0.42173 0.74967 0.0
H402 H 0.65935 0.52464 0.80693 0.0
C403 C 0.64106 0.3978 0.8099 0.0
C404 C 0.66075 0.41961 0.86937 0.0
H405 H 0.61193 0.40413 0.70519 0.0
H406 H 0.63537 0.36248 0.81061 0.0
C407 C 0.66746 0.46549 0.86667 0.0
C408 C 0.64933 0.41336 0.26386 0.0
C409 C 0.65316 0.45955 0.27087 0.0
H410 H 0.65394 0.35643 0.19333 0.0
C411 C 0.66591 0.48388 0.21082 0.0
H412 H 0.6394 0.39376 0.30917 0.0
C413 C 0.67445 0.46257 0.14503 0.0
C414 C 0.6702 0.41646 0.13754 0.0
H415 H 0.66931 0.51951 0.21444 0.0
H416 H 0.68473 0.48228 0.10006 0.0
C417 C 0.65781 0.39198 0.19771 0.0
C418 C 0.5882 0.6044 0.27748 0.0
C419 C 0.5417 0.60055 0.27534 0.0
H420 H 0.64784 0.61451 0.21831 0.0
C421 C 0.51929 0.60547 0.20943 0.0
H422 H 0.60628 0.60167 0.32776 0.0
C423 C 0.54281 0.61487 0.14721 0.0
C424 C 0.58952 0.61845 0.14885 0.0
H425 H 0.48338 0.60317 0.20607 0.0
H426 H 0.52392 0.6206 0.09835 0.0
C427 C 0.61196 0.61249 0.21476 0.0
C428 C 0.35759 0.49897 0.19616 0.0
C429 C 0.3672 0.52153 0.26128 0.0
H430 H 0.33958 0.50419 0.08486 0.0
C431 C 0.36777 0.56804 0.26245 0.0
H432 H 0.35663 0.46316 0.19363 0.0
C433 C 0.35824 0.59155 0.20015 0.0
C434 C 0.34781 0.5691 0.13527 0.0
H435 H 0.37539 0.58644 0.31162 0.0
H436 H 0.3591 0.62737 0.20282 0.0
C437 C 0.34798 0.52251 0.13379 0.0
C438 C 0.46297 0.41455 0.22071 0.0
C439 C 0.46563 0.38082 0.27164 0.0
H440 H 0.4355 0.43584 0.12034 0.0
C441 C 0.44188 0.34165 0.259 0.0
H442 H 0.48053 0.44534 0.22934 0.0
C443 C 0.41665 0.33592 0.19617 0.0
C444 C 0.41403 0.36948 0.14479 0.0
H445 H 0.44339 0.31496 0.29705 0.0
H446 H 0.40002 0.30466 0.18726 0.0
C447 C 0.43731 0.409 0.1581 0.0
loop_
_geom_bond_atom_site_label_1
_geom_bond_atom_site_label_2
_geom_bond_distance
_geom_bond_site_symmetry_2
_ccdc_geom_bond_type
Zn0 O2 1.933 1_556 S
Zn0 O20 1.985 . S
Zn0 O31 1.955 . S
Zn1 O2 1.911 . S
Zn1 O21 1.970 . S
Zn1 O37 1.945 . S
Zn1 O44 1.981 . S
O2 Zn0 1.933 1_554 S
O2 Zn1 1.911 . S
O2 H3 0.841 1_655 S
H3 O2 0.841 1_455 S
C4 O5 1.246 . S
C4 O33 1.276 1_545 S
O5 C4 1.246 . S
Zn6 O8 1.911 . S
Zn6 O23 1.970 . S
Zn6 O40 1.945 . S
Zn6 O47 1.981 . S
Zn7 O8 1.933 1_556 S
Zn7 O22 1.985 . S
Zn7 O29 1.955 . S
O8 Zn6 1.911 . S
O8 Zn7 1.933 1_554 S
O8 H9 0.841 1_455 S
H9 O8 0.841 1_655 S
Zn10 O11 1.933 1_556 S
Zn10 O24 1.985 . S
Zn10 O33 1.955 . S
O11 Zn10 1.933 1_554 S
O11 Zn12 1.911 . S
O11 H13 0.841 1_565 S
Zn12 O11 1.911 . S
Zn12 O25 1.970 . S
Zn12 O41 1.981 . S
Zn12 O43 1.945 . S
H13 O11 0.841 1_545 S
Zn14 O15 1.933 1_556 S
Zn14 O27 1.985 . S
Zn14 O35 1.955 . S
O15 Zn14 1.933 1_554 S
O15 H16 0.841 1_545 S
O15 Zn17 1.911 . S
H16 O15 0.841 1_565 S
Zn17 O15 1.911 . S
Zn17 O28 1.970 . S
Zn17 O38 1.981 . S
Zn17 O46 1.945 . S
C18 O19 1.246 . S
C18 O35 1.276 1_565 S
O19 C18 1.246 . S
O20 Zn0 1.985 . S
O20 C30 1.245 1_556 S
O21 Zn1 1.970 . S
O21 C30 1.263 . S
O22 Zn7 1.985 . S
O22 C34 1.245 1_556 S
O23 Zn6 1.970 . S
O23 C34 1.263 . S
O24 Zn10 1.985 . S
O24 C39 1.245 1_556 S
O25 Zn12 1.970 . S
O25 C39 1.263 . S
C26 O37 1.262 1_455 S
C26 O38 1.245 . S
O27 Zn14 1.985 . S
O27 C45 1.245 1_556 S
O28 Zn17 1.970 . S
O28 C45 1.263 . S
O29 Zn7 1.955 . S
O29 C48 1.276 1_455 S
C30 O20 1.245 1_554 S
C30 O21 1.263 . S
O31 Zn0 1.955 . S
O31 C50 1.276 1_655 S
C32 O40 1.262 1_655 S
C32 O41 1.245 . S
O33 C4 1.276 1_565 S
O33 Zn10 1.955 . S
C34 O22 1.245 1_554 S
C34 O23 1.263 . S
O35 Zn14 1.955 . S
O35 C18 1.276 1_545 S
C36 O43 1.262 1_545 S
C36 O44 1.245 . S
O37 Zn1 1.945 . S
O37 C26 1.262 1_655 S
O38 Zn17 1.981 . S
O38 C26 1.245 . S
C39 O24 1.245 1_554 S
C39 O25 1.263 . S
O40 Zn6 1.945 . S
O40 C32 1.262 1_455 S
O41 Zn12 1.981 . S
O41 C32 1.245 . S
C42 O46 1.262 1_565 S
C42 O47 1.245 . S
O43 Zn12 1.945 . S
O43 C36 1.262 1_565 S
O44 Zn1 1.981 . S
O44 C36 1.245 . S
C45 O27 1.245 1_554 S
C45 O28 1.263 . S
O46 Zn17 1.945 . S
O46 C42 1.262 1_545 S
O47 Zn6 1.981 . S
O47 C42 1.245 . S
C48 O29 1.276 1_655 S
C48 O49 1.246 . S
O49 C48 1.246 . S
C50 O31 1.276 1_455 S
C50 O51 1.246 . S
O51 C50 1.246 . S
Zn52 O54 1.933 . S
Zn52 O72 1.985 . S
Zn52 O83 1.955 . S
Zn53 O54 1.911 . S
Zn53 O73 1.970 . S
Zn53 O89 1.945 . S
Zn53 O96 1.981 . S
O54 Zn52 1.933 . S
O54 Zn53 1.911 . S
O54 H55 0.841 . S
H55 O54 0.841 . S
C56 O57 1.246 . S
C56 O85 1.276 . S
O57 C56 1.246 . S
Zn58 O60 1.911 . S
Zn58 O75 1.970 . S
Zn58 O92 1.945 . S
Zn58 O99 1.981 . S
Zn59 O60 1.933 . S
Zn59 O74 1.985 . S
Zn59 O81 1.955 . S
O60 Zn58 1.911 . S
O60 Zn59 1.933 . S
O60 H61 0.841 . S
H61 O60 0.841 . S
Zn62 O63 1.933 . S
Zn62 O76 1.985 . S
Zn62 O85 1.955 . S
O63 Zn62 1.933 . S
O63 Zn64 1.911 . S
O63 H65 0.841 . S
Zn64 O63 1.911 . S
Zn64 O77 1.970 . S
Zn64 O93 1.981 . S
Zn64 O95 1.945 . S
H65 O63 0.841 . S
Zn66 O67 1.933 . S
Zn66 O79 1.985 . S
Zn66 O87 1.955 . S
O67 Zn66 1.933 . S
O67 H68 0.841 . S
O67 Zn69 1.911 . S
H68 O67 0.841 . S
Zn69 O67 1.911 . S
Zn69 O80 1.970 . S
Zn69 O90 1.981 . S
Zn69 O98 1.945 . S
C70 O71 1.246 . S
C70 O87 1.276 . S
O71 C70 1.246 . S
O72 Zn52 1.985 . S
O72 C82 1.245 . S
O73 Zn53 1.970 . S
O73 C82 1.263 . S
O74 Zn59 1.985 . S
O74 C86 1.245 . S
O75 Zn58 1.970 . S
O75 C86 1.263 . S
O76 Zn62 1.985 . S
O76 C91 1.245 . S
O77 Zn64 1.970 . S
O77 C91 1.263 . S
C78 O89 1.262 . S
C78 O90 1.245 . S
O79 Zn66 1.985 . S
O79 C97 1.245 . S
O80 Zn69 1.970 . S
O80 C97 1.263 . S
O81 Zn59 1.955 . S
O81 C100 1.276 . S
C82 O72 1.245 . S
C82 O73 1.263 . S
O83 Zn52 1.955 . S
O83 C102 1.276 . S
C84 O92 1.262 . S
C84 O93 1.245 . S
O85 C56 1.276 . S
O85 Zn62 1.955 . S
C86 O74 1.245 . S
C86 O75 1.263 . S
O87 Zn66 1.955 . S
O87 C70 1.276 . S
C88 O95 1.262 . S
C88 O96 1.245 . S
O89 Zn53 1.945 . S
O89 C78 1.262 . S
O90 Zn69 1.981 . S
O90 C78 1.245 . S
C91 O76 1.245 . S
C91 O77 1.263 . S
O92 Zn58 1.945 . S
O92 C84 1.262 . S
O93 Zn64 1.981 . S
O93 C84 1.245 . S
C94 O98 1.262 . S
C94 O99 1.245 . S
O95 Zn64 1.945 . S
O95 C88 1.262 . S
O96 Zn53 1.981 . S
O96 C88 1.245 . S
C97 O79 1.245 . S
C97 O80 1.263 . S
O98 Zn69 1.945 . S
O98 C94 1.262 . S
O99 Zn58 1.981 . S
O99 C94 1.245 . S
C100 O81 1.276 . S
C100 O101 1.246 . S
O101 C100 1.246 . S
C102 O83 1.276 . S
C102 O103 1.246 . S
O103 C102 1.246 . S
H104 C111 0.929 . S
H105 C114 0.930 . S
H106 C116 0.929 . S
H107 C108 0.969 . S
C108 H107 0.969 . S
C108 O109 1.550 1_554 S
C108 H110 0.973 . S
O109 C108 1.550 1_556 S
O109 C115 1.412 1_556 S
H110 C108 0.973 . S
C111 H104 0.929 . S
C111 C112 1.400 1_554 S
C111 C113 1.364 . S
C112 C111 1.400 1_556 S
C112 C116 1.377 . S
C113 C111 1.364 . S
C113 C114 1.374 . S
C114 H105 0.930 . S
C114 C113 1.374 . S
C114 C115 1.383 . S
C115 O109 1.412 1_554 S
C115 C114 1.383 . S
C115 C116 1.394 1_554 S
C116 H106 0.929 . S
C116 C112 1.377 . S
C116 C115 1.394 1_556 S
H117 C124 0.929 . S
H118 C127 0.930 . S
H119 C129 0.929 . S
H120 C121 0.969 . S
C121 H120 0.969 . S
C121 O122 1.550 1_554 S
C121 H123 0.973 . S
O122 C121 1.550 1_556 S
O122 C128 1.412 1_556 S
H123 C121 0.973 . S
C124 H117 0.929 . S
C124 C125 1.400 1_554 S
C124 C126 1.364 . S
C125 C124 1.400 1_556 S
C125 C129 1.377 . S
C126 C124 1.364 . S
C126 C127 1.374 . S
C127 H118 0.930 . S
C127 C126 1.374 . S
C127 C128 1.383 . S
C128 O122 1.412 1_554 S
C128 C127 1.383 . S
C128 C129 1.394 1_554 S
C129 H119 0.929 . S
C129 C125 1.377 . S
C129 C128 1.394 1_556 S
H130 C137 0.929 . S
H131 C140 0.930 . S
H132 C142 0.929 . S
H133 C134 0.969 . S
C134 H133 0.969 . S
C134 O135 1.550 1_556 S
C134 H136 0.973 . S
O135 C134 1.550 1_554 S
O135 C141 1.412 . S
H136 C134 0.973 . S
C137 H130 0.929 . S
C137 C138 1.400 . S
C137 C139 1.364 1_554 S
C138 C137 1.400 . S
C138 C142 1.377 . S
C139 C137 1.364 1_556 S
C139 C140 1.374 . S
C140 H131 0.930 . S
C140 C139 1.374 . S
C140 C141 1.383 1_556 S
C141 O135 1.412 . S
C141 C140 1.383 1_554 S
C141 C142 1.394 . S
C142 H132 0.929 . S
C142 C138 1.377 . S
C142 C141 1.394 . S
H143 C150 0.929 . S
H144 C153 0.930 . S
H145 C155 0.929 . S
H146 C147 0.969 . S
C147 H146 0.969 . S
C147 O148 1.550 1_554 S
C147 H149 0.973 . S
O148 C147 1.550 1_556 S
O148 C154 1.412 1_556 S
H149 C147 0.973 . S
C150 H143 0.929 . S
C150 C151 1.400 1_554 S
C150 C152 1.364 . S
C151 C150 1.400 1_556 S
C151 C155 1.377 . S
C152 C150 1.364 . S
C152 C153 1.374 . S
C153 H144 0.930 . S
C153 C152 1.374 . S
C153 C154 1.383 . S
C154 O148 1.412 1_554 S
C154 C153 1.383 . S
C154 C155 1.394 1_554 S
C155 H145 0.929 . S
C155 C151 1.377 . S
C155 C154 1.394 1_556 S
H156 C163 0.929 . S
H157 C166 0.930 . S
H158 C168 0.929 . S
H159 C160 0.969 . S
C160 H159 0.969 . S
C160 O161 1.550 . S
C160 H162 0.973 . S
O161 C160 1.550 . S
O161 C167 1.412 . S
H162 C160 0.973 . S
C163 H156 0.929 . S
C163 C164 1.400 . S
C163 C165 1.364 . S
C164 C163 1.400 . S
C164 C168 1.377 . S
C165 C163 1.364 . S
C165 C166 1.374 . S
C166 H157 0.930 . S
C166 C165 1.374 . S
C166 C167 1.383 . S
C167 O161 1.412 . S
C167 C166 1.383 . S
C167 C168 1.394 . S
C168 H158 0.929 . S
C168 C164 1.377 . S
C168 C167 1.394 . S
H169 C176 0.929 . S
H170 C179 0.930 . S
H171 C181 0.929 . S
H172 C173 0.969 . S
C173 H172 0.969 . S
C173 O174 1.550 . S
C173 H175 0.973 . S
O174 C173 1.550 . S
O174 C180 1.412 . S
H175 C173 0.973 . S
C176 H169 0.929 . S
C176 C177 1.400 . S
C176 C178 1.364 . S
C177 C176 1.400 . S
C177 C181 1.377 . S
C178 C176 1.364 . S
C178 C179 1.374 . S
C179 H170 0.930 . S
C179 C178 1.374 . S
C179 C180 1.383 . S
C180 O174 1.412 . S
C180 C179 1.383 . S
C180 C181 1.394 . S
C181 H171 0.929 . S
C181 C177 1.377 . S
C181 C180 1.394 . S
H182 C189 0.929 . S
H183 C192 0.930 . S
H184 C194 0.929 . S
H185 C186 0.969 . S
C186 H185 0.969 . S
C186 O187 1.550 . S
C186 H188 0.973 . S
O187 C186 1.550 . S
O187 C193 1.412 . S
H188 C186 0.973 . S
C189 H182 0.929 . S
C189 C190 1.400 . S
C189 C191 1.364 . S
C190 C189 1.400 . S
C190 C194 1.377 . S
C191 C189 1.364 . S
C191 C192 1.374 . S
C192 H183 0.930 . S
C192 C191 1.374 . S
C192 C193 1.383 . S
C193 O187 1.412 . S
C193 C192 1.383 . S
C193 C194 1.394 . S
C194 H184 0.929 . S
C194 C190 1.377 . S
C194 C193 1.394 . S
H195 C202 0.929 . S
H196 C205 0.930 . S
H197 C207 0.929 . S
H198 C199 0.969 . S
C199 H198 0.969 . S
C199 O200 1.550 . S
C199 H201 0.973 . S
O200 C199 1.550 . S
O200 C206 1.412 . S
H201 C199 0.973 . S
C202 H195 0.929 . S
C202 C203 1.400 . S
C202 C204 1.364 . S
C203 C202 1.400 . S
C203 C207 1.377 . S
C204 C202 1.364 . S
C204 C205 1.374 . S
C205 H196 0.930 . S
C205 C204 1.374 . S
C205 C206 1.383 . S
C206 O200 1.412 . S
C206 C205 1.383 . S
C206 C207 1.394 . S
C207 H197 0.929 . S
C207 C203 1.377 . S
C207 C206 1.394 . S
C208 C209 1.387 1_556 S
C208 H212 0.950 . S
C208 C217 1.390 . S
C209 C208 1.387 1_554 S
C209 C211 1.387 . S
H210 C217 0.950 . S
C211 C209 1.387 . S
C211 C213 1.390 . S
C211 H215 0.950 . S
H212 C208 0.950 . S
C213 C211 1.390 . S
C213 C214 1.387 . S
C213 H216 0.950 . S
C214 C213 1.387 . S
C214 C217 1.387 1_554 S
H215 C211 0.950 . S
H216 C213 0.950 . S
C217 C208 1.390 . S
C217 H210 0.950 . S
C217 C214 1.387 1_556 S
C218 C219 1.387 . S
C218 H222 0.950 . S
C218 C227 1.390 . S
C219 C218 1.387 . S
C219 C221 1.387 1_554 S
H220 C227 0.950 . S
C221 C219 1.387 1_556 S
C221 C223 1.390 . S
C221 H225 0.950 . S
H222 C218 0.950 . S
C223 C221 1.390 . S
C223 C224 1.387 1_556 S
C223 H226 0.950 . S
C224 C223 1.387 1_554 S
C224 C227 1.387 . S
H225 C221 0.950 . S
H226 C223 0.950 . S
C227 C218 1.390 . S
C227 H220 0.950 . S
C227 C224 1.387 . S
C228 C229 1.387 . S
C228 H232 0.950 . S
C228 C237 1.390 . S
C229 C228 1.387 . S
C229 C231 1.387 1_554 S
H230 C237 0.950 . S
C231 C229 1.387 1_556 S
C231 C233 1.390 . S
C231 H235 0.950 . S
H232 C228 0.950 . S
C233 C231 1.390 . S
C233 C234 1.387 1_556 S
C233 H236 0.950 . S
C234 C233 1.387 1_554 S
C234 C237 1.387 . S
H235 C231 0.950 . S
H236 C233 0.950 . S
C237 C228 1.390 . S
C237 H230 0.950 . S
C237 C234 1.387 . S
C238 C239 1.387 1_556 S
C238 H242 0.950 . S
C238 C247 1.390 . S
C239 C238 1.387 1_554 S
C239 C241 1.387 . S
H240 C247 0.950 . S
C241 C239 1.387 . S
C241 C243 1.390 . S
C241 H245 0.950 . S
H242 C238 0.950 . S
C243 C241 1.390 . S
C243 C244 1.387 . S
C243 H246 0.950 . S
C244 C243 1.387 . S
C244 C247 1.387 1_554 S
H245 C241 0.950 . S
H246 C243 0.950 . S
C247 C238 1.390 . S
C247 H240 0.950 . S
C247 C244 1.387 1_556 S
C248 C249 1.387 . S
C248 H252 0.950 . S
C248 C257 1.390 . S
C249 C248 1.387 . S
C249 C251 1.387 . S
H250 C257 0.950 . S
C251 C249 1.387 . S
C251 C253 1.390 . S
C251 H255 0.950 . S
H252 C248 0.950 . S
C253 C251 1.390 . S
C253 C254 1.387 . S
C253 H256 0.950 . S
C254 C253 1.387 . S
C254 C257 1.387 . S
H255 C251 0.950 . S
H256 C253 0.950 . S
C257 C248 1.390 . S
C257 H250 0.950 . S
C257 C254 1.387 . S
C258 C259 1.387 . S
C258 H262 0.950 . S
C258 C267 1.390 . S
C259 C258 1.387 . S
C259 C261 1.387 . S
H260 C267 0.950 . S
C261 C259 1.387 . S
C261 C263 1.390 . S
C261 H265 0.950 . S
H262 C258 0.950 . S
C263 C261 1.390 . S
C263 C264 1.387 . S
C263 H266 0.950 . S
C264 C263 1.387 . S
C264 C267 1.387 . S
H265 C261 0.950 . S
H266 C263 0.950 . S
C267 C258 1.390 . S
C267 H260 0.950 . S
C267 C264 1.387 . S
C268 C269 1.387 . S
C268 H272 0.950 . S
C268 C277 1.390 . S
C269 C268 1.387 . S
C269 C271 1.387 . S
H270 C277 0.950 . S
C271 C269 1.387 . S
C271 C273 1.390 . S
C271 H275 0.950 . S
H272 C268 0.950 . S
C273 C271 1.390 . S
C273 C274 1.387 . S
C273 H276 0.950 . S
C274 C273 1.387 . S
C274 C277 1.387 . S
H275 C271 0.950 . S
H276 C273 0.950 . S
C277 C268 1.390 . S
C277 H270 0.950 . S
C277 C274 1.387 . S
C278 C279 1.387 . S
C278 H282 0.950 . S
C278 C287 1.390 . S
C279 C278 1.387 . S
C279 C281 1.387 . S
H280 C287 0.950 . S
C281 C279 1.387 . S
C281 C283 1.390 . S
C281 H285 0.950 . S
H282 C278 0.950 . S
C283 C281 1.390 . S
C283 C284 1.387 . S
C283 H286 0.950 . S
C284 C283 1.387 . S
C284 C287 1.387 . S
H285 C281 0.950 . S
H286 C283 0.950 . S
C287 C278 1.390 . S
C287 H280 0.950 . S
C287 C284 1.387 . S
C288 C289 1.387 . S
C288 H292 0.950 . S
C288 C297 1.390 . S
C289 C288 1.387 . S
C289 C291 1.387 . S
H290 C297 0.950 . S
C291 C289 1.387 . S
C291 C293 1.390 . S
C291 H295 0.950 . S
H292 C288 0.950 . S
C293 C291 1.390 . S
C293 C294 1.387 . S
C293 H296 0.950 . S
C294 C293 1.387 . S
C294 C297 1.387 . S
H295 C291 0.950 . S
H296 C293 0.950 . S
C297 C288 1.390 . S
C297 H290 0.950 . S
C297 C294 1.387 . S
C298 C299 1.387 . S
C298 H302 0.950 1_545 S
C298 C307 1.390 . S
C299 C298 1.387 . S
C299 C301 1.387 . S
H300 C307 0.950 . S
C301 C299 1.387 . S
C301 C303 1.390 . S
C301 H305 0.950 . S
H302 C298 0.950 1_565 S
C303 C301 1.390 . S
C303 C304 1.387 . S
C303 H306 0.950 . S
C304 C303 1.387 . S
C304 C307 1.387 . S
H305 C301 0.950 . S
H306 C303 0.950 . S
C307 C298 1.390 . S
C307 H300 0.950 . S
C307 C304 1.387 . S
C308 C309 1.387 . S
C308 H312 0.950 . S
C308 C317 1.390 . S
C309 C308 1.387 . S
C309 C311 1.387 . S
H310 C317 0.950 . S
C311 C309 1.387 . S
C311 C313 1.390 . S
C311 H315 0.950 . S
H312 C308 0.950 . S
C313 C311 1.390 . S
C313 C314 1.387 . S
C313 H316 0.950 . S
C314 C313 1.387 . S
C314 C317 1.387 . S
H315 C311 0.950 . S
H316 C313 0.950 . S
C317 C308 1.390 . S
C317 H310 0.950 . S
C317 C314 1.387 . S
C318 C319 1.387 . S
C318 H322 0.950 . S
C318 C327 1.390 . S
C319 C318 1.387 . S
C319 C321 1.387 . S
H320 C327 0.950 . S
C321 C319 1.387 . S
C321 C323 1.390 . S
C321 H325 0.950 1_565 S
H322 C318 0.950 . S
C323 C321 1.390 . S
C323 C324 1.387 . S
C323 H326 0.950 . S
C324 C323 1.387 . S
C324 C327 1.387 . S
H325 C321 0.950 1_545 S
H326 C323 0.950 . S
C327 C318 1.390 . S
C327 H320 0.950 . S
C327 C324 1.387 . S
C328 C329 1.387 . S
C328 H332 0.950 . S
C328 C337 1.390 . S
C329 C328 1.387 . S
C329 C331 1.387 . S
H330 C337 0.950 . S
C331 C329 1.387 . S
C331 C333 1.390 . S
C331 H335 0.950 1_565 S
H332 C328 0.950 . S
C333 C331 1.390 . S
C333 C334 1.387 . S
C333 H336 0.950 . S
C334 C333 1.387 . S
C334 C337 1.387 . S
H335 C331 0.950 1_545 S
H336 C333 0.950 . S
C337 C328 1.390 . S
C337 H330 0.950 . S
C337 C334 1.387 . S
C338 C339 1.387 . S
C338 H342 0.950 . S
C338 C347 1.390 . S
C339 C338 1.387 . S
C339 C341 1.387 . S
H340 C347 0.950 . S
C341 C339 1.387 . S
C341 C343 1.390 . S
C341 H345 0.950 1_455 S
H342 C338 0.950 . S
C343 C341 1.390 . S
C343 C344 1.387 . S
C343 H346 0.950 . S
C344 C343 1.387 . S
C344 C347 1.387 . S
H345 C341 0.950 1_655 S
H346 C343 0.950 . S
C347 C338 1.390 . S
C347 H340 0.950 . S
C347 C344 1.387 . S
C348 C349 1.387 . S
C348 H352 0.950 . S
C348 C357 1.390 . S
C349 C348 1.387 . S
C349 C351 1.387 . S
H350 C357 0.950 . S
C351 C349 1.387 . S
C351 C353 1.390 . S
C351 H355 0.950 1_545 S
H352 C348 0.950 . S
C353 C351 1.390 . S
C353 C354 1.387 . S
C353 H356 0.950 . S
C354 C353 1.387 . S
C354 C357 1.387 . S
H355 C351 0.950 1_565 S
H356 C353 0.950 . S
C357 C348 1.390 . S
C357 H350 0.950 . S
C357 C354 1.387 . S
C358 C359 1.387 . S
C358 H362 0.950 1_655 S
C358 C367 1.390 . S
C359 C358 1.387 . S
C359 C361 1.387 . S
H360 C367 0.950 . S
C361 C359 1.387 . S
C361 C363 1.390 . S
C361 H365 0.950 . S
H362 C358 0.950 1_455 S
C363 C361 1.390 . S
C363 C364 1.387 . S
C363 H366 0.950 . S
C364 C363 1.387 . S
C364 C367 1.387 . S
H365 C361 0.950 . S
H366 C363 0.950 . S
C367 C358 1.390 . S
C367 H360 0.950 . S
C367 C364 1.387 . S
C368 C369 1.387 . S
C368 H372 0.950 . S
C368 C377 1.390 . S
C369 C368 1.387 . S
C369 C371 1.387 . S
H370 C377 0.950 . S
C371 C369 1.387 . S
C371 C373 1.390 . S
C371 H375 0.950 . S
H372 C368 0.950 . S
C373 C371 1.390 . S
C373 C374 1.387 . S
C373 H376 0.950 . S
C374 C373 1.387 . S
C374 C377 1.387 . S
H375 C371 0.950 . S
H376 C373 0.950 . S
C377 C368 1.390 . S
C377 H370 0.950 . S
C377 C374 1.387 . S
C378 C379 1.387 . S
C378 H382 0.950 . S
C378 C387 1.390 . S
C379 C378 1.387 . S
C379 C381 1.387 . S
H380 C387 0.950 . S
C381 C379 1.387 . S
C381 C383 1.390 . S
C381 H385 0.950 . S
H382 C378 0.950 . S
C383 C381 1.390 . S
C383 C384 1.387 . S
C383 H386 0.950 . S
C384 C383 1.387 . S
C384 C387 1.387 . S
H385 C381 0.950 . S
H386 C383 0.950 . S
C387 C378 1.390 . S
C387 H380 0.950 . S
C387 C384 1.387 . S
C388 C389 1.387 . S
C388 H392 0.950 . S
C388 C397 1.390 . S
C389 C388 1.387 . S
C389 C391 1.387 . S
H390 C397 0.950 . S
C391 C389 1.387 . S
C391 C393 1.390 . S
C391 H395 0.950 . S
H392 C388 0.950 . S
C393 C391 1.390 . S
C393 C394 1.387 . S
C393 H396 0.950 . S
C394 C393 1.387 . S
C394 C397 1.387 . S
H395 C391 0.950 . S
H396 C393 0.950 . S
C397 C388 1.390 . S
C397 H390 0.950 . S
C397 C394 1.387 . S
C398 C399 1.387 . S
C398 H402 0.950 . S
C398 C407 1.390 . S
C399 C398 1.387 . S
C399 C401 1.387 . S
H400 C407 0.950 . S
C401 C399 1.387 . S
C401 C403 1.390 . S
C401 H405 0.950 . S
H402 C398 0.950 . S
C403 C401 1.390 . S
C403 C404 1.387 . S
C403 H406 0.950 . S
C404 C403 1.387 . S
C404 C407 1.387 . S
H405 C401 0.950 . S
H406 C403 0.950 . S
C407 C398 1.390 . S
C407 H400 0.950 . S
C407 C404 1.387 . S
C408 C409 1.387 . S
C408 H412 0.950 . S
C408 C417 1.390 . S
C409 C408 1.387 . S
C409 C411 1.387 . S
H410 C417 0.950 . S
C411 C409 1.387 . S
C411 C413 1.390 . S
C411 H415 0.950 . S
H412 C408 0.950 . S
C413 C411 1.390 . S
C413 C414 1.387 . S
C413 H416 0.950 . S
C414 C413 1.387 . S
C414 C417 1.387 . S
H415 C411 0.950 . S
H416 C413 0.950 . S
C417 C408 1.390 . S
C417 H410 0.950 . S
C417 C414 1.387 . S
C418 C419 1.387 . S
C418 H422 0.950 . S
C418 C427 1.390 . S
C419 C418 1.387 . S
C419 C421 1.387 . S
H420 C427 0.950 . S
C421 C419 1.387 . S
C421 C423 1.390 . S
C421 H425 0.950 . S
H422 C418 0.950 . S
C423 C421 1.390 . S
C423 C424 1.387 . S
C423 H426 0.950 . S
C424 C423 1.387 . S
C424 C427 1.387 . S
H425 C421 0.950 . S
H426 C423 0.950 . S
C427 C418 1.390 . S
C427 H420 0.950 . S
C427 C424 1.387 . S
C428 C429 1.387 . S
C428 H432 0.950 . S
C428 C437 1.390 . S
C429 C428 1.387 . S
C429 C431 1.387 . S
H430 C437 0.950 . S
C431 C429 1.387 . S
C431 C433 1.390 . S
C431 H435 0.950 . S
H432 C428 0.950 . S
C433 C431 1.390 . S
C433 C434 1.387 . S
C433 H436 0.950 . S
C434 C433 1.387 . S
C434 C437 1.387 . S
H435 C431 0.950 . S
H436 C433 0.950 . S
C437 C428 1.390 . S
C437 H430 0.950 . S
C437 C434 1.387 . S
C438 C439 1.387 . S
C438 H442 0.950 . S
C438 C447 1.390 . S
C439 C438 1.387 . S
C439 C441 1.387 . S
H440 C447 0.950 . S
C441 C439 1.387 . S
C441 C443 1.390 . S
C441 H445 0.950 . S
H442 C438 0.950 . S
C443 C441 1.390 . S
C443 C444 1.387 . S
C443 H446 0.950 . S
C444 C443 1.387 . S
C444 C447 1.387 . S
H445 C441 0.950 . S
H446 C443 0.950 . S
C447 C438 1.390 . S
C447 H440 0.950 . S
C447 C444 1.387 . S
C209 C45 1.549 . S
C214 C108 1.474 . S
C219 C30 1.551 . S
C224 C121 1.480 . S
C229 C39 1.552 . S
C234 C134 1.552 1_554 S
C244 C147 1.491 . S
C239 C34 1.554 . S
C249 C97 1.549 . S
C254 C160 1.479 . S
C264 C173 1.484 . S
C259 C82 1.551 . S
C274 C186 1.546 . S
C269 C91 1.551 . S
C284 C199 1.550 . S
C279 C86 1.550 . S
C294 C191 1.526 . S
C289 C26 1.488 . S
C304 C204 1.546 . S
C299 C36 1.502 . S
C314 C164 1.518 . S
C309 C32 1.471 . S
C324 C177 1.498 . S
C319 C42 1.458 . S
C329 C18 1.576 . S
C334 C178 1.635 . S
C344 C190 1.615 . S
C339 C50 1.539 . S
C349 C4 1.523 . S
C354 C203 1.592 . S
C359 C48 1.561 . S
C364 C165 1.613 . S
C374 C139 1.546 . S
C369 C78 1.506 . S
C379 C88 1.422 . S
C384 C151 1.468 . S
C394 C112 1.546 . S
C389 C84 1.500 . S
C404 C125 1.507 . S
C399 C94 1.466 . S
C414 C126 1.625 . S
C409 C70 1.565 . S
C424 C138 1.595 . S
C419 C102 1.520 . S
C429 C56 1.615 . S
C434 C152 1.665 . S
C439 C100 1.531 . S
C444 C113 1.585 . S
