# Generated by pormake.
# Topology wbl, (4,4)-cn, num edge types: 1
# Building blocks:
#     Node 0, Type 0, BuildingBlock: MIFKUJ_clean_linker_1, # of connection points: 4
#     Node 1, Type 0, BuildingBlock: MIFKUJ_clean_linker_1, # of connection points: 4
#     Node 2, Type 0, BuildingBlock: MIFKUJ_clean_linker_1, # of connection points: 4
#     Node 3, Type 0, BuildingBlock: MIFKUJ_clean_linker_1, # of connection points: 4
#     Node 4, Type 0, BuildingBlock: MIFKUJ_clean_linker_1, # of connection points: 4
#     Node 5, Type 0, BuildingBlock: MIFKUJ_clean_linker_1, # of connection points: 4
#     Node 6, Type 0, BuildingBlock: MIFKUJ_clean_linker_1, # of connection points: 4
#     Node 7, Type 0, BuildingBlock: MIFKUJ_clean_linker_1, # of connection points: 4
#     Node 8, Type 1, BuildingBlock: CEKHIL_clean_sbu_0, # of connection points: 4
#     Node 9, Type 1, BuildingBlock: CEKHIL_clean_sbu_0, # of connection points: 4
#     Node 10, Type 1, BuildingBlock: CEKHIL_clean_sbu_0, # of connection points: 4
#     Node 11, Type 1, BuildingBlock: CEKHIL_clean_sbu_0, # of connection points: 4
#     Node 12, Type 1, BuildingBlock: CEKHIL_clean_sbu_0, # of connection points: 4
#     Node 13, Type 1, BuildingBlock: CEKHIL_clean_sbu_0, # of connection points: 4
#     Node 14, Type 1, BuildingBlock: CEKHIL_clean_sbu_0, # of connection points: 4
#     Node 15, Type 1, BuildingBlock: CEKHIL_clean_sbu_0, # of connection points: 4
#     Edge 16, Type (0, 1), None
#     Edge 17, Type (0, 1), None
#     Edge 18, Type (0, 1), None
#     Edge 19, Type (0, 1), None
#     Edge 20, Type (0, 1), None
#     Edge 21, Type (0, 1), None
#     Edge 22, Type (0, 1), None
#     Edge 23, Type (0, 1), None
#     Edge 24, Type (0, 1), None
#     Edge 25, Type (0, 1), None
#     Edge 26, Type (0, 1), None
#     Edge 27, Type (0, 1), None
#     Edge 28, Type (0, 1), None
#     Edge 29, Type (0, 1), None
#     Edge 30, Type (0, 1), None
#     Edge 31, Type (0, 1), None
#     Edge 32, Type (0, 1), None
#     Edge 33, Type (0, 1), None
#     Edge 34, Type (0, 1), None
#     Edge 35, Type (0, 1), None
#     Edge 36, Type (0, 1), None
#     Edge 37, Type (0, 1), None
#     Edge 38, Type (0, 1), None
#     Edge 39, Type (0, 1), None
#     Edge 40, Type (0, 1), None
#     Edge 41, Type (0, 1), None
#     Edge 42, Type (0, 1), None
#     Edge 43, Type (0, 1), None
#     Edge 44, Type (0, 1), None
#     Edge 45, Type (0, 1), None
#     Edge 46, Type (0, 1), None
#     Edge 47, Type (0, 1), None
# Relax obj value: 0.156
# Max RMSD: 0.161
# Mean RMSD: 0.141
data_MOF--net-wbl--node1-CEKHIL_clean_sbu_0--node2-MIFKUJ_clean_linker_1--edge1-none
_symmetry_space_group_name_H-M    P1
_symmetry_Int_Tables_number       1
_symmetry_cell_setting            triclinic
loop_
_symmetry_equiv_pos_as_xyz
'x, y, z'
_cell_length_a     24.694721
_cell_length_b     24.790272
_cell_length_c     40.729128
_cell_angle_alpha  90.268636
_cell_angle_beta   90.080169
_cell_angle_gamma 90.02766
loop_
_atom_site_label
_atom_site_type_symbol
_atom_site_fract_x
_atom_site_fract_y
_atom_site_fract_z
_atom_type_partial_charge
H0 H 0.98286 0.16105 0.3458 0.0
H1 H 0.935 0.20847 0.39007 0.0
H2 H 0.85306 0.0608 0.41537 0.0
H3 H 0.89846 0.01425 0.3699 0.0
H4 H 0.02274 0.02935 0.37887 0.0
H5 H 0.9393 0.14992 0.29214 0.0
H6 H 0.84599 0.17374 0.27698 0.0
H7 H 0.81618 0.00717 0.25088 0.0
H8 H 0.90741 0.98353 0.26763 0.0
H9 H 0.06566 0.88275 0.27898 0.0
H10 H 0.14829 0.83692 0.25937 0.0
H11 H 0.23585 0.98734 0.26782 0.0
H12 H 0.15465 0.03162 0.28838 0.0
H13 H 0.01634 0.00893 0.25774 0.0
H14 H 0.06839 0.88208 0.33933 0.0
H15 H 0.10928 0.82925 0.38337 0.0
H16 H 0.16513 0.97598 0.42956 0.0
H17 H 0.12789 0.02858 0.38425 0.0
C18 C 0.94311 0.08454 0.35411 0.0
C19 C 0.95215 0.13975 0.3596 0.0
C20 C 0.92507 0.1667 0.38493 0.0
C21 C 0.89038 0.1381 0.40577 0.0
C22 C 0.87924 0.08362 0.39927 0.0
C23 C 0.90496 0.05714 0.37332 0.0
C24 C 0.98235 0.05301 0.3346 0.0
C25 C 0.0222 0.0257 0.35229 0.0
C26 C 0.97874 0.04607 0.30021 0.0
C27 C 0.92975 0.0645 0.28221 0.0
C28 C 0.91262 0.11871 0.28295 0.0
C29 C 0.85947 0.13245 0.27393 0.0
C30 C 0.82314 0.09214 0.26365 0.0
C31 C 0.84264 0.03912 0.25949 0.0
C32 C 0.89519 0.02548 0.26874 0.0
C33 C 0.10429 0.96052 0.28513 0.0
C34 C 0.10269 0.9057 0.27621 0.0
C35 C 0.14985 0.87953 0.26527 0.0
C36 C 0.19859 0.90842 0.26228 0.0
C37 C 0.199 0.96385 0.26981 0.0
C38 C 0.15254 0.98943 0.28139 0.0
C39 C 0.05864 0.98706 0.30223 0.0
C40 C 0.01787 0.0137 0.2842 0.0
C41 C 0.0595 0.9918 0.33676 0.0
C42 C 0.09581 0.9594 0.35804 0.0
C43 C 0.0925 0.90276 0.35766 0.0
C44 C 0.11532 0.87253 0.38309 0.0
C45 C 0.13991 0.89875 0.40978 0.0
C46 C 0.14624 0.95496 0.40918 0.0
C47 C 0.12505 0.98498 0.38329 0.0
H48 H 0.02018 0.39861 0.52139 0.0
H49 H 0.985 0.31225 0.5021 0.0
H50 H 0.82167 0.36658 0.52095 0.0
H51 H 0.85751 0.45428 0.53914 0.0
H52 H 0.99761 0.51749 0.50624 0.0
H53 H 0.0062 0.40257 0.62093 0.0
H54 H 0.96215 0.35529 0.66637 0.0
H55 H 0.80916 0.42656 0.63958 0.0
H56 H 0.85397 0.47678 0.59563 0.0
H57 H 0.0066 0.65189 0.61692 0.0
H58 H 0.05319 0.68068 0.66744 0.0
H59 H 0.17294 0.55653 0.65238 0.0
H60 H 0.12713 0.52856 0.60201 0.0
H61 H 0.99266 0.52073 0.62795 0.0
H62 H 0.98284 0.63646 0.51374 0.0
H63 H 0.02704 0.71713 0.49264 0.0
H64 H 0.18171 0.65775 0.52655 0.0
H65 H 0.13702 0.5761 0.547 0.0
C66 C 0.94161 0.43269 0.53207 0.0
C67 C 0.97674 0.39252 0.52059 0.0
C68 C 0.95644 0.34287 0.50989 0.0
C69 C 0.90047 0.33208 0.51063 0.0
C70 C 0.86499 0.37334 0.52055 0.0
C71 C 0.88544 0.42343 0.53096 0.0
C72 C 0.96473 0.47986 0.54974 0.0
C73 C 0.99613 0.51853 0.53284 0.0
C74 C 0.96253 0.48208 0.58434 0.0
C75 C 0.9331 0.44226 0.60448 0.0
C76 C 0.96281 0.40647 0.6241 0.0
C77 C 0.93776 0.37961 0.64999 0.0
C78 C 0.88241 0.38712 0.65602 0.0
C79 C 0.85171 0.41937 0.6348 0.0
C80 C 0.87716 0.44772 0.60955 0.0
C81 C 0.06392 0.58862 0.60552 0.0
C82 C 0.04478 0.63324 0.62343 0.0
C83 C 0.07129 0.64955 0.65227 0.0
C84 C 0.11646 0.62065 0.66355 0.0
C85 C 0.13849 0.57968 0.64387 0.0
C86 C 0.11252 0.56392 0.61499 0.0
C87 C 0.02642 0.55692 0.5848 0.0
C88 C 0.99299 0.52064 0.60127 0.0
C89 C 0.0272 0.55729 0.55017 0.0
C90 C 0.05639 0.60058 0.53238 0.0
C91 C 0.02642 0.64014 0.51596 0.0
C92 C 0.05183 0.68648 0.50411 0.0
C93 C 0.10788 0.69432 0.50839 0.0
C94 C 0.13845 0.65317 0.52312 0.0
C95 C 0.11289 0.60659 0.53493 0.0
H96 H 0.49721 0.64404 0.85617 0.0
H97 H 0.46479 0.68531 0.90698 0.0
H98 H 0.34281 0.56165 0.91539 0.0
H99 H 0.37619 0.51958 0.86451 0.0
H100 H 0.514 0.51643 0.8794 0.0
H101 H 0.43059 0.64451 0.80014 0.0
H102 H 0.33877 0.67215 0.78413 0.0
H103 H 0.30887 0.51154 0.74671 0.0
H104 H 0.39891 0.48384 0.76371 0.0
H105 H 0.56164 0.37419 0.78161 0.0
H106 H 0.64642 0.33255 0.76226 0.0
H107 H 0.72227 0.48971 0.76199 0.0
H108 H 0.63889 0.53009 0.7824 0.0
H109 H 0.50596 0.50537 0.75792 0.0
H110 H 0.55902 0.37238 0.84025 0.0
H111 H 0.60394 0.322 0.88395 0.0
H112 H 0.66401 0.47111 0.92505 0.0
H113 H 0.62265 0.52114 0.87991 0.0
C114 C 0.43889 0.57901 0.85657 0.0
C115 C 0.4615 0.62754 0.86787 0.0
C116 C 0.44312 0.65096 0.89693 0.0
C117 C 0.40154 0.62643 0.91489 0.0
C118 C 0.37445 0.58156 0.90158 0.0
C119 C 0.39338 0.55763 0.87255 0.0
C120 C 0.47318 0.54377 0.83605 0.0
C121 C 0.51249 0.51419 0.85276 0.0
C122 C 0.46906 0.53951 0.80155 0.0
C123 C 0.42109 0.56152 0.78409 0.0
C124 C 0.40442 0.61552 0.78805 0.0
C125 C 0.35217 0.63152 0.7786 0.0
C126 C 0.31623 0.59369 0.7649 0.0
C127 C 0.33528 0.54141 0.75782 0.0
C128 C 0.38708 0.52554 0.76729 0.0
C129 C 0.5943 0.45515 0.78358 0.0
C130 C 0.59654 0.3995 0.77704 0.0
C131 C 0.64495 0.37577 0.76615 0.0
C132 C 0.69117 0.40774 0.76097 0.0
C133 C 0.68751 0.46384 0.76583 0.0
C134 C 0.63974 0.48717 0.77725 0.0
C135 C 0.54842 0.47961 0.80154 0.0
C136 C 0.50754 0.50777 0.78449 0.0
C137 C 0.54967 0.48177 0.83613 0.0
C138 C 0.58833 0.45051 0.85635 0.0
C139 C 0.58494 0.39396 0.85724 0.0
C140 C 0.6101 0.3652 0.88247 0.0
C141 C 0.63708 0.39293 0.90771 0.0
C142 C 0.64347 0.449 0.90571 0.0
C143 C 0.61994 0.47751 0.87994 0.0
H144 H 0.53234 0.9016 0.02327 0.0
H145 H 0.50919 0.80905 0.00971 0.0
H146 H 0.34014 0.84312 0.02781 0.0
H147 H 0.36387 0.93746 0.04015 0.0
H148 H 0.50161 0.01255 0.00638 0.0
H149 H 0.51121 0.90528 0.12251 0.0
H150 H 0.46912 0.8563 0.16794 0.0
H151 H 0.31265 0.91762 0.13934 0.0
H152 H 0.35533 0.96955 0.09531 0.0
H153 H 0.50902 0.1511 0.11779 0.0
H154 H 0.5581 0.178 0.16783 0.0
H155 H 0.67528 0.0524 0.14993 0.0
H156 H 0.62708 0.02637 0.10004 0.0
H157 H 0.49121 0.02244 0.12783 0.0
H158 H 0.48363 0.13324 0.01307 0.0
H159 H 0.52727 0.2138 0.99156 0.0
H160 H 0.68246 0.15567 0.02548 0.0
H161 H 0.6383 0.07391 0.04621 0.0
C162 C 0.45009 0.92619 0.03343 0.0
C163 C 0.49007 0.88983 0.02328 0.0
C164 C 0.47666 0.83655 0.01597 0.0
C165 C 0.42287 0.81815 0.01874 0.0
C166 C 0.38197 0.85579 0.02593 0.0
C167 C 0.39557 0.90961 0.03313 0.0
C168 C 0.46769 0.97655 0.0501 0.0
C169 C 0.49863 0.01519 0.0329 0.0
C170 C 0.46368 0.98082 0.08461 0.0
C171 C 0.4362 0.94024 0.1052 0.0
C172 C 0.4676 0.9067 0.12534 0.0
C173 C 0.44365 0.87884 0.15122 0.0
C174 C 0.38781 0.88305 0.15675 0.0
C175 C 0.35569 0.91301 0.13502 0.0
C176 C 0.37995 0.94241 0.10978 0.0
C177 C 0.56495 0.08732 0.10498 0.0
C178 C 0.54715 0.13173 0.12357 0.0
C179 C 0.57508 0.14694 0.15213 0.0
C180 C 0.62021 0.11705 0.16249 0.0
C181 C 0.64085 0.07625 0.14215 0.0
C182 C 0.61353 0.06165 0.11353 0.0
C183 C 0.52636 0.0566 0.08449 0.0
C184 C 0.49232 0.02116 0.10117 0.0
C185 C 0.52841 0.05518 0.04991 0.0
C186 C 0.55747 0.09799 0.03173 0.0
C187 C 0.52722 0.13714 0.01518 0.0
C188 C 0.55231 0.18342 0.0031 0.0
C189 C 0.60831 0.19164 0.00736 0.0
C190 C 0.63922 0.1508 0.02213 0.0
C191 C 0.61396 0.10418 0.03411 0.0
H192 H 0.05073 0.64944 0.9034 0.0
H193 H 0.09619 0.69874 0.85948 0.0
H194 H 0.16771 0.55034 0.825 0.0
H195 H 0.12561 0.50169 0.8705 0.0
H196 H 0.01226 0.50627 0.86732 0.0
H197 H 0.06405 0.6487 0.96028 0.0
H198 H 0.1494 0.6892 0.97955 0.0
H199 H 0.2168 0.52952 0.99117 0.0
H200 H 0.13293 0.49002 0.9707 0.0
H201 H 0.93033 0.37456 0.94495 0.0
H202 H 0.83898 0.34605 0.96123 0.0
H203 H 0.8103 0.50457 0.00204 0.0
H204 H 0.89968 0.53333 0.98463 0.0
H205 H 0.00582 0.51324 0.98892 0.0
H206 H 0.99918 0.37756 0.89005 0.0
H207 H 0.96745 0.33523 0.83933 0.0
H208 H 0.84212 0.45547 0.83092 0.0
H209 H 0.87484 0.49867 0.88171 0.0
C210 C 0.08597 0.57211 0.89084 0.0
C211 C 0.07922 0.62813 0.88791 0.0
C212 C 0.10469 0.65619 0.86257 0.0
C213 C 0.13531 0.62809 0.83913 0.0
C214 C 0.14453 0.57272 0.84304 0.0
C215 C 0.12064 0.54504 0.86901 0.0
C216 C 0.04759 0.54045 0.91087 0.0
C217 C 0.01081 0.50783 0.89397 0.0
C218 C 0.04696 0.54146 0.94548 0.0
C219 C 0.09259 0.56638 0.96363 0.0
C220 C 0.09729 0.62262 0.96712 0.0
C221 C 0.14599 0.64569 0.97813 0.0
C222 C 0.19015 0.61265 0.98639 0.0
C223 C 0.1838 0.55627 0.98477 0.0
C224 C 0.13567 0.53346 0.97335 0.0
C225 C 0.92127 0.4568 0.9625 0.0
C226 C 0.90452 0.40295 0.95774 0.0
C227 C 0.85256 0.38638 0.96741 0.0
C228 C 0.81706 0.42344 0.98218 0.0
C229 C 0.83636 0.47532 0.9901 0.0
C230 C 0.8878 0.49179 0.98036 0.0
C231 C 0.96873 0.4799 0.94504 0.0
C232 C 0.00699 0.51177 0.96232 0.0
C233 C 0.97238 0.47686 0.91046 0.0
C234 C 0.93909 0.44093 0.88968 0.0
C235 C 0.96299 0.39308 0.87835 0.0
C236 C 0.94501 0.36907 0.84934 0.0
C237 C 0.90255 0.3923 0.83142 0.0
C238 C 0.87446 0.43653 0.84469 0.0
C239 C 0.893 0.4611 0.87367 0.0
H240 H 0.52952 0.60638 0.22569 0.0
H241 H 0.50784 0.69886 0.24006 0.0
H242 H 0.33912 0.66956 0.2179 0.0
H243 H 0.36116 0.57505 0.20496 0.0
H244 H 0.50045 0.49791 0.23966 0.0
H245 H 0.50592 0.60693 0.12533 0.0
H246 H 0.46368 0.65655 0.08013 0.0
H247 H 0.30795 0.59121 0.10664 0.0
H248 H 0.35085 0.5387 0.15044 0.0
H249 H 0.50291 0.36041 0.12706 0.0
H250 H 0.55141 0.3337 0.07687 0.0
H251 H 0.67085 0.45693 0.0958 0.0
H252 H 0.62305 0.48299 0.14572 0.0
H253 H 0.48504 0.48764 0.1184 0.0
H254 H 0.48295 0.37499 0.2316 0.0
H255 H 0.52869 0.29514 0.25244 0.0
H256 H 0.68237 0.35843 0.21961 0.0
H257 H 0.63602 0.43954 0.19956 0.0
C258 C 0.44732 0.58405 0.21338 0.0
C259 C 0.48755 0.61907 0.22496 0.0
C260 C 0.47502 0.67237 0.23276 0.0
C261 C 0.42189 0.6922 0.22903 0.0
C262 C 0.3805 0.6558 0.22053 0.0
C263 C 0.39318 0.60191 0.2129 0.0
C264 C 0.4646 0.53377 0.1964 0.0
C265 C 0.49639 0.49525 0.2132 0.0
C266 C 0.45918 0.52933 0.16194 0.0
C267 C 0.43129 0.56999 0.14159 0.0
C268 C 0.4624 0.60476 0.12212 0.0
C269 C 0.43838 0.63298 0.09637 0.0
C270 C 0.38271 0.6279 0.09035 0.0
C271 C 0.35081 0.59652 0.11139 0.0
C272 C 0.37519 0.56676 0.13647 0.0
C273 C 0.55996 0.42303 0.14038 0.0
C274 C 0.54136 0.37927 0.12146 0.0
C275 C 0.56899 0.36412 0.09283 0.0
C276 C 0.61471 0.39336 0.08277 0.0
C277 C 0.63604 0.43347 0.10341 0.0
C278 C 0.60894 0.44809 0.13205 0.0
C279 C 0.52204 0.45371 0.16129 0.0
C280 C 0.48718 0.48896 0.14504 0.0
C281 C 0.52564 0.45537 0.19582 0.0
C282 C 0.55585 0.41284 0.2136 0.0
C283 C 0.52663 0.37236 0.22959 0.0
C284 C 0.55295 0.32647 0.24127 0.0
C285 C 0.60919 0.31994 0.23715 0.0
C286 C 0.639 0.362 0.22284 0.0
C287 C 0.6125 0.40825 0.21127 0.0
H288 H 0.50056 0.87783 0.39205 0.0
H289 H 0.47124 0.83318 0.34155 0.0
H290 H 0.34476 0.95144 0.32978 0.0
H291 H 0.37525 0.99715 0.38025 0.0
H292 H 0.50871 0.00955 0.36694 0.0
H293 H 0.43204 0.87302 0.44483 0.0
H294 H 0.3406 0.84559 0.46154 0.0
H295 H 0.31575 0.00323 0.50451 0.0
H296 H 0.40518 0.03102 0.48658 0.0
H297 H 0.58389 0.14241 0.45862 0.0
H298 H 0.67716 0.17055 0.47149 0.0
H299 H 0.72186 0.00289 0.48228 0.0
H300 H 0.63041 0.97571 0.46816 0.0
H301 H 0.51285 0.00742 0.48861 0.0
H302 H 0.55834 0.14861 0.40323 0.0
H303 H 0.60585 0.19571 0.35912 0.0
H304 H 0.66613 0.04351 0.32279 0.0
H305 H 0.62207 0.99689 0.3684 0.0
C306 C 0.43975 0.94046 0.38997 0.0
C307 C 0.4646 0.89244 0.37966 0.0
C308 C 0.44805 0.86712 0.35076 0.0
C309 C 0.40599 0.88912 0.33198 0.0
C310 C 0.37686 0.93349 0.34423 0.0
C311 C 0.39409 0.95947 0.37304 0.0
C312 C 0.47219 0.97753 0.41046 0.0
C313 C 0.50918 0.00966 0.39362 0.0
C314 C 0.47143 0.97816 0.44514 0.0
C315 C 0.42479 0.9549 0.46329 0.0
C316 C 0.40706 0.90145 0.45816 0.0
C317 C 0.35505 0.88547 0.4681 0.0
C318 C 0.32053 0.9227 0.48355 0.0
C319 C 0.34101 0.97392 0.49201 0.0
C320 C 0.39248 0.98982 0.48198 0.0
C321 C 0.60067 0.05688 0.46169 0.0
C322 C 0.61388 0.11198 0.46415 0.0
C323 C 0.66709 0.12802 0.47163 0.0
C324 C 0.70742 0.08901 0.47697 0.0
C325 C 0.69232 0.03417 0.47751 0.0
C326 C 0.63968 0.01838 0.46987 0.0
C327 C 0.55106 0.03795 0.44473 0.0
C328 C 0.51158 0.0082 0.46201 0.0
C329 C 0.54844 0.03981 0.41014 0.0
C330 C 0.5878 0.0694 0.38962 0.0
C331 C 0.58474 0.12578 0.38717 0.0
C332 C 0.61144 0.15259 0.36177 0.0
C333 C 0.63947 0.123 0.33779 0.0
C334 C 0.64497 0.06704 0.34121 0.0
C335 C 0.61994 0.0405 0.36723 0.0
H336 H 0.02789 0.11371 0.73146 0.0
H337 H 0.00228 0.20522 0.74612 0.0
H338 H 0.84025 0.17649 0.70998 0.0
H339 H 0.86591 0.08333 0.69606 0.0
H340 H 0.00474 0.00812 0.73973 0.0
H341 H 0.99719 0.13282 0.63532 0.0
H342 H 0.96119 0.17088 0.58411 0.0
H343 H 0.83066 0.05537 0.58601 0.0
H344 H 0.86631 0.01781 0.63698 0.0
H345 H 0.00768 0.86799 0.62939 0.0
H346 H 0.05514 0.83831 0.5795 0.0
H347 H 0.17932 0.95713 0.59757 0.0
H348 H 0.13239 0.98631 0.64713 0.0
H349 H 0.99393 0.99389 0.61844 0.0
H350 H 0.98556 0.88624 0.73248 0.0
H351 H 0.02783 0.80443 0.7532 0.0
H352 H 0.18444 0.86253 0.72189 0.0
H353 H 0.14161 0.94557 0.70199 0.0
C354 C 0.9493 0.09184 0.71199 0.0
C355 C 0.9863 0.12618 0.72768 0.0
C356 C 0.97166 0.17885 0.73574 0.0
C357 C 0.91959 0.19849 0.72838 0.0
C358 C 0.88074 0.16261 0.71568 0.0
C359 C 0.89554 0.10951 0.70757 0.0
C360 C 0.9703 0.04248 0.69555 0.0
C361 C 0.00211 0.00497 0.71322 0.0
C362 C 0.96594 0.03655 0.66115 0.0
C363 C 0.93414 0.07273 0.63988 0.0
C364 C 0.95903 0.11795 0.62573 0.0
C365 C 0.9385 0.13965 0.59655 0.0
C366 C 0.89328 0.1159 0.5814 0.0
C367 C 0.86524 0.07461 0.59757 0.0
C368 C 0.88551 0.0532 0.62667 0.0
C369 C 0.06697 0.92881 0.64217 0.0
C370 C 0.0469 0.88515 0.62372 0.0
C371 C 0.07397 0.86826 0.59527 0.0
C372 C 0.1207 0.89559 0.58497 0.0
C373 C 0.14369 0.93513 0.60537 0.0
C374 C 0.11703 0.95158 0.6338 0.0
C375 C 0.02977 0.96182 0.66221 0.0
C376 C 0.99552 0.99644 0.64507 0.0
C377 C 0.03199 0.96454 0.69673 0.0
C378 C 0.06023 0.92167 0.71531 0.0
C379 C 0.02917 0.88211 0.73089 0.0
C380 C 0.05347 0.83506 0.74244 0.0
C381 C 0.10946 0.82646 0.73858 0.0
C382 C 0.14117 0.86767 0.72486 0.0
C383 C 0.11671 0.91508 0.71344 0.0
Co384 Co 0.32707 0.66667 0.00902 0.0
O385 O 0.28189 0.60398 0.00563 0.0
O386 O 0.25513 0.68666 0.99364 0.0
C387 C 0.36034 0.64617 0.05898 0.0
O388 O 0.36384 0.74119 0.01091 0.0
Co389 Co 0.45242 0.65001 0.01414 0.0
O390 O 0.45261 0.72854 0.0216 0.0
C391 C 0.39744 0.63847 0.95008 0.0
C392 C 0.24346 0.6355 0.99577 0.0
C393 C 0.41204 0.75929 0.01682 0.0
O394 O 0.35221 0.65467 0.96226 0.0
O395 O 0.44037 0.63078 0.96703 0.0
O396 O 0.31369 0.66994 0.05646 0.0
O397 O 0.38246 0.63171 0.03172 0.0
Co398 Co 0.33138 0.84703 0.23826 0.0
O399 O 0.2894 0.91177 0.24147 0.0
O400 O 0.25854 0.83064 0.25383 0.0
C401 C 0.36525 0.86544 0.18819 0.0
O402 O 0.36511 0.771 0.23667 0.0
Co403 Co 0.45724 0.85926 0.23346 0.0
O404 O 0.45436 0.78075 0.22626 0.0
C405 C 0.40246 0.87471 0.29708 0.0
C406 C 0.24969 0.88237 0.25179 0.0
C407 C 0.41276 0.75134 0.23094 0.0
O408 O 0.35705 0.85882 0.28493 0.0
O409 O 0.44562 0.88096 0.2802 0.0
O410 O 0.31762 0.84369 0.19084 0.0
O411 O 0.38803 0.87937 0.2154 0.0
Co412 Co 0.16653 0.83027 0.48925 0.0
O413 O 0.10233 0.78643 0.48987 0.0
O414 O 0.18411 0.75707 0.50272 0.0
C415 C 0.15022 0.86936 0.44038 0.0
O416 O 0.24228 0.86497 0.4898 0.0
Co417 Co 0.15253 0.95611 0.48919 0.0
O418 O 0.23167 0.95481 0.4833 0.0
C419 C 0.13575 0.8951 0.55018 0.0
C420 C 0.13258 0.74686 0.49952 0.0
C421 C 0.26149 0.91316 0.4862 0.0
O422 O 0.15294 0.85134 0.53665 0.0
O423 O 0.12906 0.93946 0.53482 0.0
O424 O 0.17175 0.82157 0.44133 0.0
O425 O 0.1345 0.88864 0.46816 0.0
Co426 Co 0.16469 0.68953 0.75814 0.0
O427 O 0.10174 0.73478 0.75724 0.0
O428 O 0.18399 0.76164 0.74348 0.0
C429 C 0.14821 0.65379 0.8078 0.0
O430 O 0.2394 0.65285 0.75779 0.0
Co431 Co 0.14735 0.56442 0.7606 0.0
O432 O 0.22653 0.56382 0.76644 0.0
C433 C 0.1314 0.62252 0.69842 0.0
C434 C 0.13286 0.77329 0.7471 0.0
C435 C 0.25739 0.60447 0.76243 0.0
O436 O 0.14951 0.66657 0.71118 0.0
O437 O 0.12413 0.579 0.71456 0.0
O438 O 0.17128 0.70073 0.80572 0.0
O439 O 0.13132 0.63325 0.78054 0.0
Co440 Co 0.85366 0.19264 0.48788 0.0
O441 O 0.9142 0.24093 0.49159 0.0
O442 O 0.82998 0.26292 0.50402 0.0
C443 C 0.87512 0.16149 0.4375 0.0
O444 O 0.78099 0.15208 0.48567 0.0
Co445 Co 0.8779 0.06872 0.48114 0.0
O446 O 0.799 0.06473 0.47417 0.0
C447 C 0.8847 0.12198 0.546 0.0
C448 C 0.88058 0.27742 0.5017 0.0
C449 C 0.76576 0.10316 0.47929 0.0
O450 O 0.86661 0.16672 0.53438 0.0
O451 O 0.89519 0.08034 0.52849 0.0
O452 O 0.8494 0.20689 0.4405 0.0
O453 O 0.89128 0.13991 0.46446 0.0
Co454 Co 0.82649 0.35132 0.73768 0.0
O455 O 0.78254 0.41481 0.74111 0.0
O456 O 0.75446 0.3326 0.75333 0.0
C457 C 0.85956 0.37052 0.68757 0.0
O458 O 0.86181 0.27621 0.73579 0.0
Co459 Co 0.95211 0.36604 0.73226 0.0
O460 O 0.95103 0.2873 0.72571 0.0
C461 C 0.89801 0.37947 0.79632 0.0
C462 C 0.74375 0.38395 0.75121 0.0
C463 C 0.90979 0.25735 0.73025 0.0
O464 O 0.85251 0.36337 0.78434 0.0
O465 O 0.94079 0.38654 0.77921 0.0
O466 O 0.8124 0.34782 0.69029 0.0
O467 O 0.88224 0.38502 0.7147 0.0
Co468 Co 0.66506 0.328 0.98795 0.0
O469 O 0.60173 0.28318 0.9883 0.0
O470 O 0.68371 0.25542 0.00207 0.0
C471 C 0.64902 0.36552 0.93869 0.0
O472 O 0.74004 0.36425 0.98882 0.0
Co473 Co 0.64833 0.45333 0.98701 0.0
O474 O 0.72752 0.45361 0.98125 0.0
C475 C 0.63088 0.393 0.04814 0.0
C476 C 0.63243 0.24432 -0.00157 0.0
C477 C 0.75822 0.41272 0.98473 0.0
O478 O 0.64983 0.34962 0.03507 0.0
O479 O 0.62355 0.43697 0.03247 0.0
O480 O 0.67161 0.31827 0.94023 0.0
O481 O 0.63226 0.38518 0.96617 0.0
Co482 Co 0.66923 0.18495 0.25693 0.0
O483 O 0.60498 0.22834 0.25623 0.0
O484 O 0.68621 0.25785 0.24239 0.0
C485 C 0.65345 0.14841 0.30651 0.0
O486 O 0.74495 0.14996 0.25635 0.0
Co487 Co 0.65483 0.05952 0.25885 0.0
O488 O 0.73384 0.06082 0.26535 0.0
C489 C 0.63669 0.11813 0.19709 0.0
C490 C 0.6347 0.26781 0.24598 0.0
C491 C 0.76397 0.10197 0.2612 0.0
O492 O 0.65436 0.16222 0.20997 0.0
O493 O 0.63044 0.07425 0.21302 0.0
O494 O 0.67555 0.19584 0.30454 0.0
O495 O 0.63726 0.1277 0.27915 0.0
loop_
_geom_bond_atom_site_label_1
_geom_bond_atom_site_label_2
_geom_bond_distance
_geom_bond_site_symmetry_2
_ccdc_geom_bond_type
H0 C19 0.949 . S
H1 C20 0.950 . S
H2 C22 0.950 . S
H3 C23 0.950 . S
H4 C25 0.950 . S
H5 C28 0.950 . S
H6 C29 0.950 . S
H7 C31 0.951 . S
H8 C32 0.949 1_565 S
H9 C34 0.949 . S
H10 C35 0.950 . S
H11 C37 0.950 . S
H12 C38 0.950 . S
H13 C40 0.950 1_655 S
H14 C43 0.950 . S
H15 C44 0.950 . S
H16 C46 0.951 . S
H17 C47 0.949 1_545 S
C18 C19 1.376 . S
C18 C23 1.386 . S
C18 C24 1.483 . S
C19 H0 0.949 . S
C19 C18 1.376 . S
C19 C20 1.397 . S
C20 H1 0.950 . S
C20 C19 1.397 . S
C20 C21 1.391 . S
C21 C20 1.391 . S
C21 C22 1.405 . S
C22 H2 0.950 . S
C22 C21 1.405 . S
C22 C23 1.367 . S
C23 H3 0.950 . S
C23 C18 1.386 . S
C23 C22 1.367 . S
C24 C18 1.483 . S
C24 C25 1.382 1_655 S
C24 C26 1.403 . S
C25 H4 0.950 . S
C25 C24 1.382 1_455 S
C25 C41 1.411 1_545 S
C26 C24 1.403 . S
C26 C27 1.489 . S
C26 C40 1.411 1_645 S
C27 C26 1.489 . S
C27 C28 1.383 . S
C27 C32 1.382 . S
C28 H5 0.950 . S
C28 C27 1.383 . S
C28 C29 1.395 . S
C29 H6 0.950 . S
C29 C28 1.395 . S
C29 C30 1.288 . S
C30 C29 1.288 . S
C30 C31 1.392 . S
C31 H7 0.951 . S
C31 C30 1.392 . S
C31 C32 1.392 . S
C32 H8 0.949 1_545 S
C32 C27 1.382 . S
C32 C31 1.392 . S
C33 C34 1.376 . S
C33 C38 1.386 . S
C33 C39 1.483 . S
C34 H9 0.949 . S
C34 C33 1.376 . S
C34 C35 1.397 . S
C35 H10 0.950 . S
C35 C34 1.397 . S
C35 C36 1.391 . S
C36 C35 1.391 . S
C36 C37 1.405 . S
C37 H11 0.950 . S
C37 C36 1.405 . S
C37 C38 1.367 . S
C38 H12 0.950 . S
C38 C33 1.386 . S
C38 C37 1.367 . S
C39 C33 1.483 . S
C39 C40 1.382 . S
C39 C41 1.403 . S
C40 H13 0.950 1_455 S
C40 C26 1.411 1_465 S
C40 C39 1.382 . S
C41 C25 1.411 1_565 S
C41 C39 1.403 . S
C41 C42 1.489 . S
C42 C41 1.489 . S
C42 C43 1.383 . S
C42 C47 1.382 . S
C43 H14 0.950 . S
C43 C42 1.383 . S
C43 C44 1.395 . S
C44 H15 0.950 . S
C44 C43 1.395 . S
C44 C45 1.288 . S
C45 C44 1.288 . S
C45 C46 1.392 . S
C46 H16 0.951 . S
C46 C45 1.392 . S
C46 C47 1.392 . S
C47 H17 0.949 1_565 S
C47 C42 1.382 . S
C47 C46 1.392 . S
H48 C67 0.949 1_455 S
H49 C68 0.950 . S
H50 C70 0.950 . S
H51 C71 0.950 . S
H52 C73 0.950 . S
H53 C76 0.950 . S
H54 C77 0.950 . S
H55 C79 0.951 . S
H56 C80 0.949 . S
H57 C82 0.939 1_655 S
H58 C83 0.950 . S
H59 C85 0.950 . S
H60 C86 0.950 . S
H61 C88 0.948 1_655 S
H62 C91 0.950 . S
H63 C92 0.950 . S
H64 C94 0.951 . S
H65 C95 0.949 . S
C66 C67 1.376 . S
C66 C71 1.386 . S
C66 C72 1.483 . S
C67 H48 0.949 1_655 S
C67 C66 1.376 . S
C67 C68 1.397 . S
C68 H49 0.950 . S
C68 C67 1.397 . S
C68 C69 1.391 . S
C69 C68 1.391 . S
C69 C70 1.405 . S
C70 H50 0.950 . S
C70 C69 1.405 . S
C70 C71 1.367 . S
C71 H51 0.950 . S
C71 C66 1.386 . S
C71 C70 1.367 . S
C72 C66 1.483 . S
C72 C73 1.382 1_655 S
C72 C74 1.403 . S
C73 H52 0.950 . S
C73 C72 1.382 1_455 S
C73 C89 1.411 . S
C74 C72 1.403 . S
C74 C75 1.489 . S
C74 C88 1.403 1_655 S
C75 C74 1.489 . S
C75 C76 1.383 . S
C75 C80 1.382 . S
C76 H53 0.950 . S
C76 C75 1.383 . S
C76 C77 1.395 . S
C77 H54 0.950 . S
C77 C76 1.395 . S
C77 C78 1.288 . S
C78 C77 1.288 . S
C78 C79 1.392 . S
C79 H55 0.951 . S
C79 C78 1.392 . S
C79 C80 1.392 . S
C80 H56 0.949 . S
C80 C75 1.382 . S
C80 C79 1.392 . S
C81 C82 1.376 . S
C81 C86 1.386 . S
C81 C87 1.483 . S
C82 H57 0.939 1_455 S
C82 C81 1.376 . S
C82 C83 1.397 . S
C83 H58 0.950 . S
C83 C82 1.397 . S
C83 C84 1.391 . S
C84 C83 1.391 . S
C84 C85 1.405 . S
C85 H59 0.950 . S
C85 C84 1.405 . S
C85 C86 1.367 . S
C86 H60 0.950 . S
C86 C81 1.386 . S
C86 C85 1.367 . S
C87 C81 1.483 . S
C87 C88 1.392 . S
C87 C89 1.403 . S
C88 H61 0.948 1_455 S
C88 C74 1.403 1_455 S
C88 C87 1.392 . S
C89 C73 1.411 . S
C89 C87 1.403 . S
C89 C90 1.489 . S
C90 C89 1.489 . S
C90 C91 1.383 . S
C90 C95 1.382 . S
C91 H62 0.950 . S
C91 C90 1.383 . S
C91 C92 1.395 . S
C92 H63 0.950 . S
C92 C91 1.395 . S
C92 C93 1.288 . S
C93 C92 1.288 . S
C93 C94 1.392 . S
C94 H64 0.951 . S
C94 C93 1.392 . S
C94 C95 1.392 . S
C95 H65 0.949 . S
C95 C90 1.382 . S
C95 C94 1.392 . S
H96 C115 0.949 . S
H97 C116 0.950 . S
H98 C118 0.950 . S
H99 C119 0.950 . S
H100 C121 0.950 . S
H101 C124 0.950 . S
H102 C125 0.950 . S
H103 C127 0.951 . S
H104 C128 0.949 . S
H105 C130 0.949 . S
H106 C131 0.950 . S
H107 C133 0.950 . S
H108 C134 0.950 . S
H109 C136 0.950 . S
H110 C139 0.950 . S
H111 C140 0.950 . S
H112 C142 0.951 . S
H113 C143 0.949 . S
C114 C115 1.376 . S
C114 C119 1.386 . S
C114 C120 1.483 . S
C115 H96 0.949 . S
C115 C114 1.376 . S
C115 C116 1.397 . S
C116 H97 0.950 . S
C116 C115 1.397 . S
C116 C117 1.391 . S
C117 C116 1.391 . S
C117 C118 1.405 . S
C118 H98 0.950 . S
C118 C117 1.405 . S
C118 C119 1.367 . S
C119 H99 0.950 . S
C119 C114 1.386 . S
C119 C118 1.367 . S
C120 C114 1.483 . S
C120 C121 1.382 . S
C120 C122 1.403 . S
C121 H100 0.950 . S
C121 C120 1.382 . S
C121 C137 1.411 . S
C122 C120 1.403 . S
C122 C123 1.489 . S
C122 C136 1.411 . S
C123 C122 1.489 . S
C123 C124 1.383 . S
C123 C128 1.382 . S
C124 H101 0.950 . S
C124 C123 1.383 . S
C124 C125 1.395 . S
C125 H102 0.950 . S
C125 C124 1.395 . S
C125 C126 1.288 . S
C126 C125 1.288 . S
C126 C127 1.392 . S
C127 H103 0.951 . S
C127 C126 1.392 . S
C127 C128 1.392 . S
C128 H104 0.949 . S
C128 C123 1.382 . S
C128 C127 1.392 . S
C129 C130 1.376 . S
C129 C134 1.386 . S
C129 C135 1.483 . S
C130 H105 0.949 . S
C130 C129 1.376 . S
C130 C131 1.397 . S
C131 H106 0.950 . S
C131 C130 1.397 . S
C131 C132 1.391 . S
C132 C131 1.391 . S
C132 C133 1.405 . S
C133 H107 0.950 . S
C133 C132 1.405 . S
C133 C134 1.367 . S
C134 H108 0.950 . S
C134 C129 1.386 . S
C134 C133 1.367 . S
C135 C129 1.483 . S
C135 C136 1.382 . S
C135 C137 1.403 . S
C136 H109 0.950 . S
C136 C122 1.411 . S
C136 C135 1.382 . S
C137 C121 1.411 . S
C137 C135 1.403 . S
C137 C138 1.489 . S
C138 C137 1.489 . S
C138 C139 1.383 . S
C138 C143 1.382 . S
C139 H110 0.950 . S
C139 C138 1.383 . S
C139 C140 1.395 . S
C140 H111 0.950 . S
C140 C139 1.395 . S
C140 C141 1.288 . S
C141 C140 1.288 . S
C141 C142 1.392 . S
C142 H112 0.951 . S
C142 C141 1.392 . S
C142 C143 1.392 . S
C143 H113 0.949 . S
C143 C138 1.382 . S
C143 C142 1.392 . S
H144 C163 0.949 . S
H145 C164 0.956 . S
H146 C166 0.950 . S
H147 C167 0.950 . S
H148 C169 0.950 . S
H149 C172 0.950 . S
H150 C173 0.950 . S
H151 C175 0.951 . S
H152 C176 0.949 . S
H153 C178 0.949 . S
H154 C179 0.950 . S
H155 C181 0.950 . S
H156 C182 0.950 . S
H157 C184 0.950 . S
H158 C187 0.950 . S
H159 C188 0.950 . S
H160 C190 0.951 . S
H161 C191 0.949 . S
C162 C163 1.376 . S
C162 C167 1.386 . S
C162 C168 1.483 . S
C163 H144 0.949 . S
C163 C162 1.376 . S
C163 C164 1.391 1_554 S
C164 H145 0.956 . S
C164 C163 1.391 1_556 S
C164 C165 1.391 1_556 S
C165 C164 1.391 1_554 S
C165 C166 1.406 . S
C166 H146 0.950 . S
C166 C165 1.406 . S
C166 C167 1.367 . S
C167 H147 0.950 . S
C167 C162 1.386 . S
C167 C166 1.367 . S
C168 C162 1.483 . S
C168 C169 1.382 . S
C168 C170 1.403 . S
C169 H148 0.950 . S
C169 C168 1.382 . S
C169 C185 1.411 1_565 S
C170 C168 1.403 . S
C170 C171 1.489 . S
C170 C184 1.411 1_565 S
C171 C170 1.489 . S
C171 C172 1.383 . S
C171 C176 1.382 . S
C172 H149 0.950 . S
C172 C171 1.383 . S
C172 C173 1.395 . S
C173 H150 0.950 . S
C173 C172 1.395 . S
C173 C174 1.288 . S
C174 C173 1.288 . S
C174 C175 1.392 . S
C175 H151 0.951 . S
C175 C174 1.392 . S
C175 C176 1.392 . S
C176 H152 0.949 . S
C176 C171 1.382 . S
C176 C175 1.392 . S
C177 C178 1.376 . S
C177 C182 1.386 . S
C177 C183 1.483 . S
C178 H153 0.949 . S
C178 C177 1.376 . S
C178 C179 1.397 . S
C179 H154 0.950 . S
C179 C178 1.397 . S
C179 C180 1.391 . S
C180 C179 1.391 . S
C180 C181 1.405 . S
C181 H155 0.950 . S
C181 C180 1.405 . S
C181 C182 1.367 . S
C182 H156 0.950 . S
C182 C177 1.386 . S
C182 C181 1.367 . S
C183 C177 1.483 . S
C183 C184 1.382 . S
C183 C185 1.403 . S
C184 H157 0.950 . S
C184 C170 1.411 1_545 S
C184 C183 1.382 . S
C185 C169 1.411 1_545 S
C185 C183 1.403 . S
C185 C186 1.489 . S
C186 C185 1.489 . S
C186 C187 1.383 . S
C186 C191 1.382 . S
C187 H158 0.950 . S
C187 C186 1.383 . S
C187 C188 1.395 . S
C188 H159 0.950 . S
C188 C187 1.395 . S
C188 C189 1.288 1_554 S
C189 C188 1.288 1_556 S
C189 C190 1.392 . S
C190 H160 0.951 . S
C190 C189 1.392 . S
C190 C191 1.392 1_556 S
C191 H161 0.949 . S
C191 C186 1.382 . S
C191 C190 1.392 1_554 S
H192 C211 0.949 . S
H193 C212 0.950 . S
H194 C214 0.950 . S
H195 C215 0.950 . S
H196 C217 0.950 . S
H197 C220 0.950 . S
H198 C221 0.950 . S
H199 C223 0.951 . S
H200 C224 0.949 . S
H201 C226 0.949 . S
H202 C227 0.950 . S
H203 C229 0.950 . S
H204 C230 0.950 . S
H205 C232 0.950 . S
H206 C235 0.950 . S
H207 C236 0.950 . S
H208 C238 0.951 . S
H209 C239 0.949 . S
C210 C211 1.376 . S
C210 C215 1.386 . S
C210 C216 1.483 . S
C211 H192 0.949 . S
C211 C210 1.376 . S
C211 C212 1.397 . S
C212 H193 0.950 . S
C212 C211 1.397 . S
C212 C213 1.391 . S
C213 C212 1.391 . S
C213 C214 1.405 . S
C214 H194 0.950 . S
C214 C213 1.405 . S
C214 C215 1.367 . S
C215 H195 0.950 . S
C215 C210 1.386 . S
C215 C214 1.367 . S
C216 C210 1.483 . S
C216 C217 1.382 1_455 S
C216 C218 1.403 . S
C217 H196 0.950 . S
C217 C216 1.382 1_655 S
C217 C233 1.411 . S
C218 C216 1.403 . S
C218 C219 1.489 . S
C218 C232 1.411 . S
C219 C218 1.489 . S
C219 C220 1.383 . S
C219 C224 1.382 . S
C220 H197 0.950 . S
C220 C219 1.383 . S
C220 C221 1.395 . S
C221 H198 0.950 . S
C221 C220 1.395 . S
C221 C222 1.288 1_556 S
C222 C221 1.288 1_554 S
C222 C223 1.392 . S
C223 H199 0.951 . S
C223 C222 1.392 . S
C223 C224 1.392 1_554 S
C224 H200 0.949 . S
C224 C219 1.382 . S
C224 C223 1.392 1_556 S
C225 C226 1.376 . S
C225 C230 1.386 . S
C225 C231 1.483 . S
C226 H201 0.949 . S
C226 C225 1.376 . S
C226 C227 1.397 1_556 S
C227 H202 0.950 . S
C227 C226 1.397 1_554 S
C227 C228 1.391 . S
C228 C227 1.391 . S
C228 C229 1.405 1_554 S
C229 H203 0.950 . S
C229 C228 1.405 1_556 S
C229 C230 1.367 . S
C230 H204 0.950 . S
C230 C225 1.386 . S
C230 C229 1.367 . S
C231 C225 1.483 . S
C231 C232 1.382 1_655 S
C231 C233 1.403 . S
C232 H205 0.950 . S
C232 C218 1.411 . S
C232 C231 1.382 1_455 S
C233 C217 1.411 . S
C233 C231 1.403 . S
C233 C234 1.489 . S
C234 C233 1.489 . S
C234 C235 1.383 . S
C234 C239 1.382 . S
C235 H206 0.950 . S
C235 C234 1.383 . S
C235 C236 1.395 . S
C236 H207 0.950 . S
C236 C235 1.395 . S
C236 C237 1.288 . S
C237 C236 1.288 . S
C237 C238 1.392 . S
C238 H208 0.951 . S
C238 C237 1.392 . S
C238 C239 1.392 . S
C239 H209 0.949 . S
C239 C234 1.382 . S
C239 C238 1.392 . S
H240 C259 0.949 . S
H241 C260 0.950 . S
H242 C262 0.950 . S
H243 C263 0.950 . S
H244 C265 0.950 . S
H245 C268 0.950 . S
H246 C269 0.950 . S
H247 C271 0.951 . S
H248 C272 0.949 . S
H249 C274 0.949 . S
H250 C275 0.950 . S
H251 C277 0.950 . S
H252 C278 0.950 . S
H253 C280 0.950 . S
H254 C283 0.950 . S
H255 C284 0.950 . S
H256 C286 0.951 . S
H257 C287 0.949 . S
C258 C259 1.376 . S
C258 C263 1.386 . S
C258 C264 1.483 . S
C259 H240 0.949 . S
C259 C258 1.376 . S
C259 C260 1.397 . S
C260 H241 0.950 . S
C260 C259 1.397 . S
C260 C261 1.391 . S
C261 C260 1.391 . S
C261 C262 1.405 . S
C262 H242 0.950 . S
C262 C261 1.405 . S
C262 C263 1.367 . S
C263 H243 0.950 . S
C263 C258 1.386 . S
C263 C262 1.367 . S
C264 C258 1.483 . S
C264 C265 1.382 . S
C264 C266 1.403 . S
C265 H244 0.950 . S
C265 C264 1.382 . S
C265 C281 1.411 . S
C266 C264 1.403 . S
C266 C267 1.489 . S
C266 C280 1.411 . S
C267 C266 1.489 . S
C267 C268 1.383 . S
C267 C272 1.382 . S
C268 H245 0.950 . S
C268 C267 1.383 . S
C268 C269 1.395 . S
C269 H246 0.950 . S
C269 C268 1.395 . S
C269 C270 1.288 . S
C270 C269 1.288 . S
C270 C271 1.392 . S
C271 H247 0.951 . S
C271 C270 1.392 . S
C271 C272 1.392 . S
C272 H248 0.949 . S
C272 C267 1.382 . S
C272 C271 1.392 . S
C273 C274 1.376 . S
C273 C278 1.386 . S
C273 C279 1.483 . S
C274 H249 0.949 . S
C274 C273 1.376 . S
C274 C275 1.397 . S
C275 H250 0.950 . S
C275 C274 1.397 . S
C275 C276 1.391 . S
C276 C275 1.391 . S
C276 C277 1.405 . S
C277 H251 0.950 . S
C277 C276 1.405 . S
C277 C278 1.367 . S
C278 H252 0.950 . S
C278 C273 1.386 . S
C278 C277 1.367 . S
C279 C273 1.483 . S
C279 C280 1.382 . S
C279 C281 1.403 . S
C280 H253 0.950 . S
C280 C266 1.411 . S
C280 C279 1.382 . S
C281 C265 1.411 . S
C281 C279 1.403 . S
C281 C282 1.489 . S
C282 C281 1.489 . S
C282 C283 1.383 . S
C282 C287 1.382 . S
C283 H254 0.950 . S
C283 C282 1.383 . S
C283 C284 1.395 . S
C284 H255 0.950 . S
C284 C283 1.395 . S
C284 C285 1.288 . S
C285 C284 1.288 . S
C285 C286 1.392 . S
C286 H256 0.951 . S
C286 C285 1.392 . S
C286 C287 1.392 . S
C287 H257 0.949 . S
C287 C282 1.382 . S
C287 C286 1.392 . S
H288 C307 0.949 . S
H289 C308 0.950 . S
H290 C310 0.950 . S
H291 C311 0.950 . S
H292 C313 0.950 . S
H293 C316 0.950 . S
H294 C317 0.950 . S
H295 C319 0.951 . S
H296 C320 0.949 1_545 S
H297 C322 0.949 . S
H298 C323 0.950 . S
H299 C325 0.950 . S
H300 C326 0.950 . S
H301 C328 0.950 . S
H302 C331 0.950 . S
H303 C332 0.950 . S
H304 C334 0.951 . S
H305 C335 0.949 1_565 S
C306 C307 1.376 . S
C306 C311 1.386 . S
C306 C312 1.483 . S
C307 H288 0.949 . S
C307 C306 1.376 . S
C307 C308 1.397 . S
C308 H289 0.950 . S
C308 C307 1.397 . S
C308 C309 1.391 . S
C309 C308 1.391 . S
C309 C310 1.405 . S
C310 H290 0.950 . S
C310 C309 1.405 . S
C310 C311 1.367 . S
C311 H291 0.950 . S
C311 C306 1.386 . S
C311 C310 1.367 . S
C312 C306 1.483 . S
C312 C313 1.382 . S
C312 C314 1.403 . S
C313 H292 0.950 . S
C313 C312 1.382 . S
C313 C329 1.411 1_565 S
C314 C312 1.403 . S
C314 C315 1.489 . S
C314 C328 1.411 1_565 S
C315 C314 1.489 . S
C315 C316 1.383 . S
C315 C320 1.382 . S
C316 H293 0.950 . S
C316 C315 1.383 . S
C316 C317 1.395 . S
C317 H294 0.950 . S
C317 C316 1.395 . S
C317 C318 1.288 . S
C318 C317 1.288 . S
C318 C319 1.392 . S
C319 H295 0.951 . S
C319 C318 1.392 . S
C319 C320 1.392 . S
C320 H296 0.949 1_565 S
C320 C315 1.382 . S
C320 C319 1.392 . S
C321 C322 1.376 . S
C321 C326 1.386 . S
C321 C327 1.483 . S
C322 H297 0.949 . S
C322 C321 1.376 . S
C322 C323 1.397 . S
C323 H298 0.950 . S
C323 C322 1.397 . S
C323 C324 1.391 . S
C324 C323 1.391 . S
C324 C325 1.405 . S
C325 H299 0.950 . S
C325 C324 1.405 . S
C325 C326 1.367 . S
C326 H300 0.950 . S
C326 C321 1.386 . S
C326 C325 1.367 . S
C327 C321 1.483 . S
C327 C328 1.382 . S
C327 C329 1.403 . S
C328 H301 0.950 . S
C328 C314 1.411 1_545 S
C328 C327 1.382 . S
C329 C313 1.411 1_545 S
C329 C327 1.403 . S
C329 C330 1.489 . S
C330 C329 1.489 . S
C330 C331 1.383 . S
C330 C335 1.382 . S
C331 H302 0.950 . S
C331 C330 1.383 . S
C331 C332 1.395 . S
C332 H303 0.950 . S
C332 C331 1.395 . S
C332 C333 1.288 . S
C333 C332 1.288 . S
C333 C334 1.392 . S
C334 H304 0.951 . S
C334 C333 1.392 . S
C334 C335 1.392 . S
C335 H305 0.949 1_545 S
C335 C330 1.382 . S
C335 C334 1.392 . S
H336 C355 0.949 1_455 S
H337 C356 0.950 . S
H338 C358 0.950 . S
H339 C359 0.950 . S
H340 C361 0.950 . S
H341 C364 0.950 . S
H342 C365 0.950 . S
H343 C367 0.951 . S
H344 C368 0.949 . S
H345 C370 0.949 . S
H346 C371 0.950 . S
H347 C373 0.950 . S
H348 C374 0.950 . S
H349 C376 0.950 1_655 S
H350 C379 0.950 . S
H351 C380 0.950 . S
H352 C382 0.951 . S
H353 C383 0.949 . S
C354 C355 1.376 . S
C354 C359 1.386 . S
C354 C360 1.483 . S
C355 H336 0.949 1_655 S
C355 C354 1.376 . S
C355 C356 1.397 . S
C356 H337 0.950 . S
C356 C355 1.397 . S
C356 C357 1.391 . S
C357 C356 1.391 . S
C357 C358 1.405 . S
C358 H338 0.950 . S
C358 C357 1.405 . S
C358 C359 1.367 . S
C359 H339 0.950 . S
C359 C354 1.386 . S
C359 C358 1.367 . S
C360 C354 1.483 . S
C360 C361 1.382 1_655 S
C360 C362 1.403 . S
C361 H340 0.950 . S
C361 C360 1.382 1_455 S
C361 C377 1.411 1_545 S
C362 C360 1.403 . S
C362 C363 1.489 . S
C362 C376 1.411 1_655 S
C363 C362 1.489 . S
C363 C364 1.383 . S
C363 C368 1.382 . S
C364 H341 0.950 . S
C364 C363 1.383 . S
C364 C365 1.395 . S
C365 H342 0.950 . S
C365 C364 1.395 . S
C365 C366 1.288 . S
C366 C365 1.288 . S
C366 C367 1.392 . S
C367 H343 0.951 . S
C367 C366 1.392 . S
C367 C368 1.392 . S
C368 H344 0.949 . S
C368 C363 1.382 . S
C368 C367 1.392 . S
C369 C370 1.376 . S
C369 C374 1.386 . S
C369 C375 1.483 . S
C370 H345 0.949 . S
C370 C369 1.376 . S
C370 C371 1.397 . S
C371 H346 0.950 . S
C371 C370 1.397 . S
C371 C372 1.391 . S
C372 C371 1.391 . S
C372 C373 1.405 . S
C373 H347 0.950 . S
C373 C372 1.405 . S
C373 C374 1.367 . S
C374 H348 0.950 . S
C374 C369 1.386 . S
C374 C373 1.367 . S
C375 C369 1.483 . S
C375 C376 1.382 1_565 S
C375 C377 1.403 . S
C376 H349 0.950 1_455 S
C376 C362 1.411 1_455 S
C376 C375 1.382 1_545 S
C377 C361 1.411 1_565 S
C377 C375 1.403 . S
C377 C378 1.489 . S
C378 C377 1.489 . S
C378 C379 1.383 . S
C378 C383 1.382 . S
C379 H350 0.950 . S
C379 C378 1.383 . S
C379 C380 1.395 . S
C380 H351 0.950 . S
C380 C379 1.395 . S
C380 C381 1.288 . S
C381 C380 1.288 . S
C381 C382 1.392 . S
C382 H352 0.951 . S
C382 C381 1.392 . S
C382 C383 1.392 . S
C383 H353 0.949 . S
C383 C378 1.382 . S
C383 C382 1.392 . S
Co384 O385 2.216 1_554 S
Co384 O386 2.091 1_554 S
Co384 O388 2.004 . S
Co384 O394 2.021 1_554 S
Co384 O396 2.137 . S
Co384 O397 2.244 . S
O385 Co384 2.216 1_556 S
O385 C392 1.247 . S
O386 Co384 2.091 1_556 S
O386 C392 1.261 . S
C387 O396 1.247 . S
C387 O397 1.272 . S
O388 Co384 2.004 . S
O388 C393 1.259 . S
Co389 O390 2.061 . S
Co389 O395 2.052 1_554 S
Co389 O397 2.135 . S
O390 Co389 2.061 . S
O390 C393 1.235 . S
C391 O394 1.238 . S
C391 O395 1.241 . S
C392 O385 1.247 . S
C392 O386 1.261 . S
C393 O388 1.259 . S
C393 O390 1.235 . S
O394 Co384 2.021 1_556 S
O394 C391 1.238 . S
O395 Co389 2.052 1_556 S
O395 C391 1.241 . S
O396 Co384 2.137 . S
O396 C387 1.247 . S
O397 Co384 2.244 . S
O397 C387 1.272 . S
O397 Co389 2.135 . S
Co398 O399 2.216 . S
Co398 O400 2.091 . S
Co398 O402 2.004 . S
Co398 O408 2.021 . S
Co398 O410 2.137 . S
Co398 O411 2.244 . S
O399 Co398 2.216 . S
O399 C406 1.247 . S
O400 Co398 2.091 . S
O400 C406 1.261 . S
C401 O410 1.247 . S
C401 O411 1.272 . S
O402 Co398 2.004 . S
O402 C407 1.259 . S
Co403 O404 2.061 . S
Co403 O409 2.052 . S
Co403 O411 2.135 . S
O404 Co403 2.061 . S
O404 C407 1.235 . S
C405 O408 1.238 . S
C405 O409 1.241 . S
C406 O399 1.247 . S
C406 O400 1.261 . S
C407 O402 1.259 . S
C407 O404 1.235 . S
O408 Co398 2.021 . S
O408 C405 1.238 . S
O409 Co403 2.052 . S
O409 C405 1.241 . S
O410 Co398 2.137 . S
O410 C401 1.247 . S
O411 Co398 2.244 . S
O411 C401 1.272 . S
O411 Co403 2.135 . S
Co412 O413 2.216 . S
Co412 O414 2.091 . S
Co412 O416 2.004 . S
Co412 O422 2.021 . S
Co412 O424 2.137 . S
Co412 O425 2.244 . S
O413 Co412 2.216 . S
O413 C420 1.247 . S
O414 Co412 2.091 . S
O414 C420 1.261 . S
C415 O424 1.247 . S
C415 O425 1.272 . S
O416 Co412 2.004 . S
O416 C421 1.259 . S
Co417 O418 2.061 . S
Co417 O423 2.052 . S
Co417 O425 2.135 . S
O418 Co417 2.061 . S
O418 C421 1.235 . S
C419 O422 1.238 . S
C419 O423 1.241 . S
C420 O413 1.247 . S
C420 O414 1.261 . S
C421 O416 1.259 . S
C421 O418 1.235 . S
O422 Co412 2.021 . S
O422 C419 1.238 . S
O423 Co417 2.052 . S
O423 C419 1.241 . S
O424 Co412 2.137 . S
O424 C415 1.247 . S
O425 Co412 2.244 . S
O425 C415 1.272 . S
O425 Co417 2.135 . S
Co426 O427 2.216 . S
Co426 O428 2.091 . S
Co426 O430 2.004 . S
Co426 O436 2.021 . S
Co426 O438 2.137 . S
Co426 O439 2.244 . S
O427 Co426 2.216 . S
O427 C434 1.247 . S
O428 Co426 2.091 . S
O428 C434 1.261 . S
C429 O438 1.247 . S
C429 O439 1.272 . S
O430 Co426 2.004 . S
O430 C435 1.259 . S
Co431 O432 2.061 . S
Co431 O437 2.052 . S
Co431 O439 2.135 . S
O432 Co431 2.061 . S
O432 C435 1.235 . S
C433 O436 1.238 . S
C433 O437 1.241 . S
C434 O427 1.247 . S
C434 O428 1.261 . S
C435 O430 1.259 . S
C435 O432 1.235 . S
O436 Co426 2.021 . S
O436 C433 1.238 . S
O437 Co431 2.052 . S
O437 C433 1.241 . S
O438 Co426 2.137 . S
O438 C429 1.247 . S
O439 Co426 2.244 . S
O439 C429 1.272 . S
O439 Co431 2.135 . S
Co440 O441 2.216 . S
Co440 O442 2.091 . S
Co440 O444 2.004 . S
Co440 O450 2.021 . S
Co440 O452 2.137 . S
Co440 O453 2.244 . S
O441 Co440 2.216 . S
O441 C448 1.247 . S
O442 Co440 2.091 . S
O442 C448 1.261 . S
C443 O452 1.247 . S
C443 O453 1.272 . S
O444 Co440 2.004 . S
O444 C449 1.259 . S
Co445 O446 2.061 . S
Co445 O451 2.052 . S
Co445 O453 2.135 . S
O446 Co445 2.061 . S
O446 C449 1.235 . S
C447 O450 1.238 . S
C447 O451 1.241 . S
C448 O441 1.247 . S
C448 O442 1.261 . S
C449 O444 1.259 . S
C449 O446 1.235 . S
O450 Co440 2.021 . S
O450 C447 1.238 . S
O451 Co445 2.052 . S
O451 C447 1.241 . S
O452 Co440 2.137 . S
O452 C443 1.247 . S
O453 Co440 2.244 . S
O453 C443 1.272 . S
O453 Co445 2.135 . S
Co454 O455 2.216 . S
Co454 O456 2.091 . S
Co454 O458 2.004 . S
Co454 O464 2.021 . S
Co454 O466 2.137 . S
Co454 O467 2.244 . S
O455 Co454 2.216 . S
O455 C462 1.247 . S
O456 Co454 2.091 . S
O456 C462 1.261 . S
C457 O466 1.247 . S
C457 O467 1.272 . S
O458 Co454 2.004 . S
O458 C463 1.259 . S
Co459 O460 2.061 . S
Co459 O465 2.052 . S
Co459 O467 2.135 . S
O460 Co459 2.061 . S
O460 C463 1.235 . S
C461 O464 1.238 . S
C461 O465 1.241 . S
C462 O455 1.247 . S
C462 O456 1.261 . S
C463 O458 1.259 . S
C463 O460 1.235 . S
O464 Co454 2.021 . S
O464 C461 1.238 . S
O465 Co459 2.052 . S
O465 C461 1.241 . S
O466 Co454 2.137 . S
O466 C457 1.247 . S
O467 Co454 2.244 . S
O467 C457 1.272 . S
O467 Co459 2.135 . S
Co468 O469 2.216 1_556 S
Co468 O470 2.091 1_556 S
Co468 O472 2.004 . S
Co468 O478 2.021 1_556 S
Co468 O480 2.137 . S
Co468 O481 2.244 . S
O469 Co468 2.216 1_554 S
O469 C476 1.247 . S
O470 Co468 2.091 1_554 S
O470 C476 1.261 . S
C471 O480 1.247 . S
C471 O481 1.272 . S
O472 Co468 2.004 . S
O472 C477 1.259 . S
Co473 O474 2.061 . S
Co473 O479 2.052 1_556 S
Co473 O481 2.135 . S
O474 Co473 2.061 . S
O474 C477 1.235 . S
C475 O478 1.238 . S
C475 O479 1.241 . S
C476 O469 1.247 . S
C476 O470 1.261 . S
C477 O472 1.259 . S
C477 O474 1.235 . S
O478 Co468 2.021 1_554 S
O478 C475 1.238 . S
O479 Co473 2.052 1_554 S
O479 C475 1.241 . S
O480 Co468 2.137 . S
O480 C471 1.247 . S
O481 Co468 2.244 . S
O481 C471 1.272 . S
O481 Co473 2.135 . S
Co482 O483 2.216 . S
Co482 O484 2.091 . S
Co482 O486 2.004 . S
Co482 O492 2.021 . S
Co482 O494 2.137 . S
Co482 O495 2.244 . S
O483 Co482 2.216 . S
O483 C490 1.247 . S
O484 Co482 2.091 . S
O484 C490 1.261 . S
C485 O494 1.247 . S
C485 O495 1.272 . S
O486 Co482 2.004 . S
O486 C491 1.259 . S
Co487 O488 2.061 . S
Co487 O493 2.052 . S
Co487 O495 2.135 . S
O488 Co487 2.061 . S
O488 C491 1.235 . S
C489 O492 1.238 . S
C489 O493 1.241 . S
C490 O483 1.247 . S
C490 O484 1.261 . S
C491 O486 1.259 . S
C491 O488 1.235 . S
O492 Co482 2.021 . S
O492 C489 1.238 . S
O493 Co487 2.052 . S
O493 C489 1.241 . S
O494 Co482 2.137 . S
O494 C485 1.247 . S
O495 Co482 2.244 . S
O495 C485 1.272 . S
O495 Co487 2.135 . S
C406 C36 1.713 . S
C420 C93 1.761 . S
C435 C126 1.748 . S
C165 C393 1.683 . S
C222 C392 1.722 1_554 S
C261 C407 1.677 . S
C421 C318 1.784 . S
C434 C381 1.776 . S
C132 C462 1.683 . S
C476 C189 1.809 1_554 S
C30 C491 1.739 . S
C448 C69 1.651 . S
C324 C449 1.729 . S
C357 C463 1.684 . S
C477 C228 1.720 1_556 S
C285 C490 1.801 . S
C415 C45 2.154 . S
C433 C84 2.256 . S
C117 C391 2.253 . S
C174 C401 2.100 . S
C213 C429 2.116 . S
C387 C270 2.085 . S
C405 C309 2.219 . S
C419 C372 2.241 . S
C471 C141 2.156 . S
C489 C180 2.218 . S
C21 C443 2.142 . S
C457 C78 2.053 . S
C485 C333 2.213 . S
C366 C447 2.188 . S
C461 C237 2.308 . S
C475 C276 2.242 . S
