# Generated by pormake.
# Topology nom, (4,4)-cn, num edge types: 1
# Building blocks:
#     Node 0, Type 0, BuildingBlock: MUDLON_clean_linker_0, # of connection points: 4
#     Node 1, Type 0, BuildingBlock: MUDLON_clean_linker_0, # of connection points: 4
#     Node 2, Type 0, BuildingBlock: MUDLON_clean_linker_0, # of connection points: 4
#     Node 3, Type 0, BuildingBlock: MUDLON_clean_linker_0, # of connection points: 4
#     Node 4, Type 0, BuildingBlock: MUDLON_clean_linker_0, # of connection points: 4
#     Node 5, Type 0, BuildingBlock: MUDLON_clean_linker_0, # of connection points: 4
#     Node 6, Type 1, BuildingBlock: QUQFOY_clean_sbu_1, # of connection points: 4
#     Node 7, Type 1, BuildingBlock: QUQFOY_clean_sbu_1, # of connection points: 4
#     Node 8, Type 1, BuildingBlock: QUQFOY_clean_sbu_1, # of connection points: 4
#     Node 9, Type 1, BuildingBlock: QUQFOY_clean_sbu_1, # of connection points: 4
#     Node 10, Type 1, BuildingBlock: QUQFOY_clean_sbu_1, # of connection points: 4
#     Node 11, Type 1, BuildingBlock: QUQFOY_clean_sbu_1, # of connection points: 4
#     Edge 12, Type (0, 1), BuildingBlock: XIVTED_clean_linker_0, # of connection points: 2
#     Edge 13, Type (0, 1), BuildingBlock: XIVTED_clean_linker_0, # of connection points: 2
#     Edge 14, Type (0, 1), BuildingBlock: XIVTED_clean_linker_0, # of connection points: 2
#     Edge 15, Type (0, 1), BuildingBlock: XIVTED_clean_linker_0, # of connection points: 2
#     Edge 16, Type (0, 1), BuildingBlock: XIVTED_clean_linker_0, # of connection points: 2
#     Edge 17, Type (0, 1), BuildingBlock: XIVTED_clean_linker_0, # of connection points: 2
#     Edge 18, Type (0, 1), BuildingBlock: XIVTED_clean_linker_0, # of connection points: 2
#     Edge 19, Type (0, 1), BuildingBlock: XIVTED_clean_linker_0, # of connection points: 2
#     Edge 20, Type (0, 1), BuildingBlock: XIVTED_clean_linker_0, # of connection points: 2
#     Edge 21, Type (0, 1), BuildingBlock: XIVTED_clean_linker_0, # of connection points: 2
#     Edge 22, Type (0, 1), BuildingBlock: XIVTED_clean_linker_0, # of connection points: 2
#     Edge 23, Type (0, 1), BuildingBlock: XIVTED_clean_linker_0, # of connection points: 2
#     Edge 24, Type (0, 1), BuildingBlock: XIVTED_clean_linker_0, # of connection points: 2
#     Edge 25, Type (0, 1), BuildingBlock: XIVTED_clean_linker_0, # of connection points: 2
#     Edge 26, Type (0, 1), BuildingBlock: XIVTED_clean_linker_0, # of connection points: 2
#     Edge 27, Type (0, 1), BuildingBlock: XIVTED_clean_linker_0, # of connection points: 2
#     Edge 28, Type (0, 1), BuildingBlock: XIVTED_clean_linker_0, # of connection points: 2
#     Edge 29, Type (0, 1), BuildingBlock: XIVTED_clean_linker_0, # of connection points: 2
#     Edge 30, Type (0, 1), BuildingBlock: XIVTED_clean_linker_0, # of connection points: 2
#     Edge 31, Type (0, 1), BuildingBlock: XIVTED_clean_linker_0, # of connection points: 2
#     Edge 32, Type (0, 1), BuildingBlock: XIVTED_clean_linker_0, # of connection points: 2
#     Edge 33, Type (0, 1), BuildingBlock: XIVTED_clean_linker_0, # of connection points: 2
#     Edge 34, Type (0, 1), BuildingBlock: XIVTED_clean_linker_0, # of connection points: 2
#     Edge 35, Type (0, 1), BuildingBlock: XIVTED_clean_linker_0, # of connection points: 2
# Relax obj value: 0.009
# Max RMSD: 0.106
# Mean RMSD: 0.097
data_MOF--net-nom--node1-QUQFOY_clean_sbu_1--node2-MUDLON_clean_linker_0--edge1-XIVTED_clean_linker_0
_symmetry_space_group_name_H-M    P1
_symmetry_Int_Tables_number       1
_symmetry_cell_setting            triclinic
loop_
_symmetry_equiv_pos_as_xyz
'x, y, z'
_cell_length_a     63.243171
_cell_length_b     64.024518
_cell_length_c     57.568569
_cell_angle_alpha  90.390488
_cell_angle_beta   89.782678
_cell_angle_gamma 120.44807
loop_
_atom_site_label
_atom_site_type_symbol
_atom_site_fract_x
_atom_site_fract_y
_atom_site_fract_z
_atom_type_partial_charge
H0 H 0.13551 0.53774 0.29761 0.0
N1 N 0.0988 0.54295 0.31286 0.0
H2 H 0.16793 0.56407 0.27092 0.0
H3 H 0.09701 0.57579 0.28319 0.0
H4 H 0.12822 0.60088 0.25518 0.0
H5 H 0.12798 0.59114 0.32423 0.0
H6 H 0.15172 0.60752 0.35984 0.0
H7 H 0.09764 0.51854 0.3507 0.0
H8 H 0.12084 0.53525 0.38703 0.0
H9 H 0.06126 0.50523 0.29211 0.0
H10 H 0.08008 0.57032 0.33078 0.0
H11 H 0.01881 0.49595 0.28947 0.0
H12 H 0.03771 0.56035 0.32986 0.0
H13 H 0.90112 0.45859 0.2887 0.0
H14 H 0.87879 0.44192 0.25256 0.0
H15 H 0.90188 0.51436 0.22892 0.0
H16 H 0.92358 0.53081 0.26567 0.0
H17 H 0.90257 0.52894 0.31736 0.0
H18 H 0.86788 0.51332 0.34409 0.0
H19 H 0.87476 0.45055 0.35668 0.0
H20 H 0.90914 0.46616 0.32974 0.0
H21 H 0.94039 0.47326 0.30574 0.0
H22 H 0.98246 0.4824 0.30981 0.0
H23 H 0.00754 0.55902 0.30654 0.0
N24 N 0.92506 0.50629 0.30195 0.0
H25 H 0.96505 0.5495 0.30439 0.0
C26 C 0.11388 0.55473 0.29272 0.0
C27 C 0.13357 0.55113 0.28796 0.0
C28 C 0.15209 0.56624 0.27255 0.0
C29 C 0.15108 0.58507 0.2611 0.0
C30 C 0.1301 0.58713 0.2642 0.0
C31 C 0.11189 0.57242 0.28006 0.0
C32 C 0.11135 0.5534 0.33455 0.0
C33 C 0.12629 0.57868 0.33769 0.0
C34 C 0.13977 0.58809 0.35806 0.0
C35 C 0.13805 0.57255 0.3759 0.0
C36 C 0.12233 0.54747 0.37337 0.0
C37 C 0.10918 0.53797 0.35274 0.0
C38 C 0.07388 0.53817 0.31187 0.0
C39 C 0.05615 0.51732 0.30029 0.0
C40 C 0.03183 0.51196 0.29903 0.0
C41 C 0.0246 0.52725 0.30965 0.0
C42 C 0.0425 0.54825 0.32118 0.0
C43 C 0.06687 0.55385 0.32201 0.0
C44 C 0.9139 0.49602 0.27989 0.0
C45 C 0.9016 0.47092 0.27571 0.0
C46 C 0.8889 0.4614 0.25491 0.0
C47 C 0.88837 0.47678 0.23788 0.0
C48 C 0.90151 0.50196 0.24184 0.0
C49 C 0.91409 0.51143 0.26268 0.0
C50 C 0.90845 0.49883 0.32139 0.0
C51 C 0.89701 0.51216 0.32642 0.0
C52 C 0.87721 0.50319 0.34176 0.0
C53 C 0.86839 0.48054 0.3524 0.0
C54 C 0.88088 0.46788 0.3485 0.0
C55 C 0.90075 0.47692 0.33314 0.0
C56 C 0.94953 0.51081 0.30541 0.0
C57 C 0.95481 0.49201 0.30661 0.0
C58 C 0.97908 0.49732 0.30846 0.0
C59 C 0.99862 0.52151 0.30851 0.0
C60 C 0.99312 0.5402 0.30713 0.0
C61 C 0.96884 0.53484 0.30578 0.0
H62 H 0.43267 0.90269 0.47053 0.0
N63 N 0.41208 0.92932 0.45619 0.0
H64 H 0.41528 0.87047 0.49878 0.0
H65 H 0.3786 0.92221 0.48808 0.0
H66 H 0.36214 0.89111 0.51812 0.0
H67 H 0.37313 0.90542 0.42896 0.0
H68 H 0.36934 0.88178 0.39408 0.0
H69 H 0.44903 0.92567 0.43536 0.0
H70 H 0.44521 0.90109 0.40137 0.0
H71 H 0.45654 0.94796 0.47852 0.0
H72 H 0.41234 0.96653 0.43636 0.0
H73 H 0.48918 0.99028 0.47923 0.0
H74 H 0.44545 0.00866 0.43563 0.0
H75 H 0.59161 0.12884 0.48199 0.0
H76 H 0.60225 0.14796 0.52038 0.0
H77 H 0.52518 0.11355 0.53751 0.0
H78 H 0.51478 0.09551 0.4991 0.0
H79 H 0.52098 0.12615 0.46741 0.0
H80 H 0.52798 0.16141 0.44565 0.0
H81 H 0.58329 0.15759 0.40467 0.0
H82 H 0.57597 0.12178 0.42665 0.0
H83 H 0.55232 0.0643 0.46 0.0
H84 H 0.52 0.02172 0.45724 0.0
H85 H 0.46541 0.04342 0.45822 0.0
N86 N 0.54721 0.10282 0.46358 0.0
H87 H 0.49756 0.08547 0.4595 0.0
C88 C 0.40637 0.91443 0.47661 0.0
C89 C 0.41741 0.90049 0.4809 0.0
C90 C 0.40754 0.88209 0.49744 0.0
C91 C 0.38677 0.87757 0.51049 0.0
C92 C 0.37753 0.89336 0.50786 0.0
C93 C 0.3871 0.9114 0.49092 0.0
C94 C 0.41119 0.91712 0.43477 0.0
C95 C 0.38895 0.90474 0.42275 0.0
C96 C 0.38681 0.89105 0.403 0.0
C97 C 0.40689 0.88922 0.39503 0.0
C98 C 0.42942 0.90223 0.40681 0.0
C99 C 0.43161 0.91618 0.42639 0.0
C100 C 0.4317 0.95416 0.45772 0.0
C101 C 0.45379 0.96113 0.46944 0.0
C102 C 0.47266 0.98539 0.46953 0.0
C103 C 0.47005 0.00306 0.45752 0.0
C104 C 0.44802 0.99581 0.44553 0.0
C105 C 0.42908 0.9717 0.44581 0.0
C106 C 0.55252 0.11063 0.48752 0.0
C107 C 0.57708 0.12514 0.49422 0.0
C108 C 0.58309 0.13598 0.51619 0.0
C109 C 0.56454 0.13242 0.532 0.0
C110 C 0.53992 0.11704 0.52562 0.0
C111 C 0.53393 0.1064 0.5036 0.0
C112 C 0.54781 0.12103 0.44848 0.0
C113 C 0.534 0.13222 0.45325 0.0
C114 C 0.53808 0.15255 0.44078 0.0
C115 C 0.55623 0.16234 0.42346 0.0
C116 C 0.5693 0.15055 0.41804 0.0
C117 C 0.56502 0.13003 0.43041 0.0
C118 C 0.52758 0.07819 0.45995 0.0
C119 C 0.53334 0.05976 0.45921 0.0
C120 C 0.51481 0.03543 0.45795 0.0
C121 C 0.48997 0.02898 0.45771 0.0
C122 C 0.48427 0.04757 0.45799 0.0
C123 C 0.50281 0.07186 0.45886 0.0
H124 H 0.43922 0.55543 0.64577 0.0
N125 N 0.41807 0.50681 0.6548 0.0
H126 H 0.42408 0.57325 0.6183 0.0
H127 H 0.38872 0.48423 0.6189 0.0
H128 H 0.37489 0.50206 0.58961 0.0
H129 H 0.37691 0.49449 0.67771 0.0
H130 H 0.37208 0.51324 0.71293 0.0
H131 H 0.45528 0.54206 0.68103 0.0
H132 H 0.45079 0.56031 0.71665 0.0
H133 H 0.4635 0.53283 0.63425 0.0
H134 H 0.41627 0.46809 0.67288 0.0
H135 H 0.49527 0.52196 0.63342 0.0
H136 H 0.44848 0.45784 0.67363 0.0
H137 H 0.59496 0.4821 0.63085 0.0
H138 H 0.60653 0.47398 0.59273 0.0
H139 H 0.52999 0.43283 0.57341 0.0
H140 H 0.51862 0.44012 0.61152 0.0
H141 H 0.52296 0.41453 0.64323 0.0
H142 H 0.52852 0.38526 0.66483 0.0
H143 H 0.58344 0.44292 0.70746 0.0
H144 H 0.57759 0.47242 0.68562 0.0
H145 H 0.55625 0.50797 0.6529 0.0
H146 H 0.52467 0.51921 0.65546 0.0
H147 H 0.46868 0.44343 0.65112 0.0
N148 N 0.55006 0.464 0.64803 0.0
H149 H 0.50008 0.43252 0.65014 0.0
C150 C 0.41437 0.5183 0.63497 0.0
C151 C 0.42531 0.54363 0.63349 0.0
C152 C 0.41675 0.55389 0.61742 0.0
C153 C 0.39758 0.53911 0.60203 0.0
C154 C 0.38889 0.51401 0.60178 0.0
C155 C 0.397 0.50374 0.61829 0.0
C156 C 0.41633 0.51667 0.67686 0.0
C157 C 0.39307 0.50865 0.68635 0.0
C158 C 0.3904 0.51935 0.7065 0.0
C159 C 0.41106 0.53831 0.71762 0.0
C160 C 0.43448 0.54598 0.70835 0.0
C161 C 0.4371 0.53535 0.68812 0.0
C162 C 0.43722 0.50092 0.65325 0.0
C163 C 0.45991 0.51622 0.64251 0.0
C164 C 0.47827 0.51013 0.64238 0.0
C165 C 0.47455 0.48894 0.65343 0.0
C166 C 0.45192 0.47397 0.66445 0.0
C167 C 0.43348 0.47983 0.66416 0.0
C168 C 0.55604 0.46193 0.62421 0.0
C169 C 0.58076 0.4717 0.61819 0.0
C170 C 0.58731 0.46707 0.59638 0.0
C171 C 0.56916 0.45256 0.58007 0.0
C172 C 0.54442 0.44369 0.58572 0.0
C173 C 0.53789 0.44815 0.60758 0.0
C174 C 0.54973 0.44582 0.66298 0.0
C175 C 0.53558 0.42094 0.6577 0.0
C176 C 0.53884 0.40412 0.67008 0.0
C177 C 0.55648 0.41177 0.68782 0.0
C178 C 0.56984 0.4365 0.69376 0.0
C179 C 0.5664 0.45333 0.68146 0.0
C180 C 0.53075 0.46951 0.65131 0.0
C181 C 0.53711 0.49385 0.65289 0.0
C182 C 0.519 0.50021 0.65404 0.0
C183 C 0.49399 0.48227 0.65329 0.0
C184 C 0.48766 0.45781 0.65212 0.0
C185 C 0.50578 0.45148 0.65141 0.0
H186 H 0.11381 0.55985 0.80831 0.0
N187 N 0.09291 0.51187 0.79624 0.0
H188 H 0.14691 0.58152 0.83612 0.0
H189 H 0.10914 0.49257 0.82692 0.0
H190 H 0.14314 0.51419 0.85399 0.0
H191 H 0.12051 0.49843 0.77314 0.0
H192 H 0.14472 0.51672 0.73809 0.0
H193 H 0.09248 0.54726 0.77024 0.0
H194 H 0.11601 0.56523 0.73482 0.0
H195 H 0.07225 0.53476 0.82074 0.0
H196 H 0.05588 0.47526 0.7742 0.0
H197 H 0.02963 0.52374 0.82046 0.0
H198 H 0.01308 0.46484 0.77288 0.0
H199 H 0.89103 0.48646 0.82011 0.0
H200 H 0.87065 0.4763 0.85794 0.0
H201 H 0.90228 0.43172 0.87255 0.0
H202 H 0.92161 0.44111 0.83462 0.0
H203 H 0.89275 0.41907 0.80094 0.0
H204 H 0.85814 0.39204 0.77671 0.0
H205 H 0.86427 0.45352 0.74004 0.0
H206 H 0.89945 0.48076 0.76451 0.0
H207 H 0.95599 0.5128 0.79958 0.0
H208 H 0.99908 0.52395 0.79752 0.0
H209 H 0.97691 0.44802 0.79465 0.0
N210 N 0.91684 0.46874 0.80079 0.0
H211 H 0.9343 0.43727 0.79539 0.0
C212 C 0.10882 0.52442 0.81565 0.0
C213 C 0.11951 0.54962 0.81878 0.0
C214 C 0.13871 0.56206 0.83454 0.0
C215 C 0.14804 0.54973 0.84713 0.0
C216 C 0.13633 0.52434 0.84491 0.0
C217 C 0.11689 0.51188 0.82938 0.0
C218 C 0.1047 0.52137 0.77421 0.0
C219 C 0.11927 0.5128 0.76462 0.0
C220 C 0.13299 0.52324 0.74458 0.0
C221 C 0.13236 0.54251 0.73368 0.0
C222 C 0.1172 0.55067 0.74299 0.0
C223 C 0.10356 0.54028 0.76312 0.0
C224 C 0.06755 0.50573 0.79746 0.0
C225 C 0.05971 0.51939 0.8103 0.0
C226 C 0.0351 0.51318 0.80996 0.0
C227 C 0.0178 0.49346 0.79654 0.0
C228 C 0.02571 0.4799 0.78373 0.0
C229 C 0.05021 0.48588 0.78436 0.0
C230 C 0.90799 0.4648 0.82443 0.0
C231 C 0.89382 0.4748 0.83167 0.0
C232 C 0.88226 0.469 0.85332 0.0
C233 C 0.88473 0.45307 0.86827 0.0
C234 C 0.89965 0.44371 0.86132 0.0
C235 C 0.91103 0.44937 0.83961 0.0
C236 C 0.89898 0.45209 0.78437 0.0
C237 C 0.88734 0.42683 0.78723 0.0
C238 C 0.86741 0.41131 0.77333 0.0
C239 C 0.85845 0.42065 0.75647 0.0
C240 C 0.87068 0.44582 0.75299 0.0
C241 C 0.89083 0.46136 0.76679 0.0
C242 C 0.94182 0.47431 0.7977 0.0
C243 C 0.96053 0.49865 0.79816 0.0
C244 C 0.98514 0.50493 0.79726 0.0
C245 C 0.99159 0.48689 0.79617 0.0
C246 C 0.97274 0.46246 0.79518 0.0
C247 C 0.94815 0.45623 0.79575 0.0
H248 H 0.57114 0.12086 0.98077 0.0
N249 N 0.59693 0.09927 0.96625 0.0
H250 H 0.5862 0.15547 0.007 0.0
H251 H 0.63578 0.1164 0.99369 0.0
H252 H 0.65174 0.15185 0.019 0.0
H253 H 0.63614 0.12444 0.93977 0.0
H254 H 0.63883 0.14518 0.90345 0.0
H255 H 0.55855 0.09802 0.94322 0.0
H256 H 0.56079 0.118 0.90649 0.0
H257 H 0.5527 0.07958 0.98978 0.0
H258 H 0.5984 0.06208 0.94796 0.0
H259 H 0.5211 0.03708 0.99074 0.0
H260 H 0.56626 0.01953 0.94774 0.0
H261 H 0.41843 0.89757 0.98692 0.0
H262 H 0.40558 0.8756 0.02364 0.0
H263 H 0.48149 0.90913 0.04468 0.0
H264 H 0.49412 0.93005 0.00786 0.0
H265 H 0.48994 0.90117 0.97432 0.0
H266 H 0.48319 0.86632 0.95153 0.0
H267 H 0.42975 0.87209 0.90983 0.0
H268 H 0.43673 0.90739 0.93294 0.0
H269 H 0.45879 0.96318 0.96855 0.0
H270 H 0.49105 0.00584 0.96761 0.0
H271 H 0.54584 0.98446 0.96987 0.0
N272 N 0.46386 0.92464 0.97111 0.0
H273 H 0.51372 0.94227 0.96946 0.0
C274 C 0.6023 0.11583 0.98543 0.0
C275 C 0.58826 0.12685 0.98979 0.0
C276 C 0.59713 0.14698 0.00456 0.0
C277 C 0.62042 0.15684 0.0149 0.0
C278 C 0.63362 0.14473 0.01166 0.0
C279 C 0.62456 0.12442 -0.00286 0.0
C280 C 0.59724 0.10963 0.94405 0.0
C281 C 0.61964 0.12284 0.93242 0.0
C282 C 0.62107 0.13456 0.91164 0.0
C283 C 0.59999 0.13319 0.902 0.0
C284 C 0.57742 0.11966 0.91358 0.0
C285 C 0.57605 0.10805 0.93447 0.0
C286 C 0.57825 0.07413 0.96894 0.0
C287 C 0.5561 0.0667 0.98084 0.0
C288 C 0.53777 0.04223 0.98113 0.0
C289 C 0.54095 0.02472 0.96922 0.0
C290 C 0.5632 0.03229 0.95748 0.0
C291 C 0.58161 0.05664 0.9575 0.0
C292 C 0.45713 0.91554 0.99448 0.0
C293 C 0.43221 0.9005 -0.0003 0.0
C294 C 0.42493 0.888 0.02071 0.0
C295 C 0.44253 0.89041 0.03703 0.0
C296 C 0.46747 0.90648 0.0323 0.0
C297 C 0.47473 0.91877 0.01122 0.0
C298 C 0.46397 0.90717 0.95519 0.0
C299 C 0.47745 0.89565 0.95978 0.0
C300 C 0.47349 0.87554 0.9467 0.0
C301 C 0.45583 0.86634 0.92892 0.0
C302 C 0.44331 0.87862 0.92357 0.0
C303 C 0.44742 0.89888 0.93658 0.0
C304 C 0.48362 0.94942 0.96904 0.0
C305 C 0.4778 0.9678 0.96853 0.0
C306 C 0.4963 0.99217 0.9683 0.0
C307 C 0.52117 0.99874 0.96887 0.0
C308 C 0.52697 0.98022 0.96908 0.0
C309 C 0.50845 0.95587 0.96896 0.0
H310 H 0.56735 0.46583 0.13146 0.0
N311 N 0.59391 0.51273 0.14758 0.0
H312 H 0.58184 0.44669 0.10424 0.0
H313 H 0.63312 0.53471 0.12057 0.0
H314 H 0.64847 0.51549 0.09413 0.0
H315 H 0.63246 0.53016 0.1755 0.0
H316 H 0.63635 0.51249 0.21157 0.0
H317 H 0.55726 0.47274 0.16904 0.0
H318 H 0.56125 0.45398 0.20427 0.0
H319 H 0.54926 0.48871 0.12468 0.0
H320 H 0.59602 0.55129 0.16684 0.0
H321 H 0.51824 0.50031 0.12432 0.0
H322 H 0.5644 0.56236 0.16772 0.0
H323 H 0.41841 0.53972 0.1269 0.0
H324 H 0.40656 0.54927 0.08988 0.0
H325 H 0.483 0.59173 0.07046 0.0
H326 H 0.49463 0.58301 0.10762 0.0
H327 H 0.49024 0.60714 0.14125 0.0
H328 H 0.48336 0.63516 0.16403 0.0
H329 H 0.42858 0.57554 0.20455 0.0
H330 H 0.43559 0.54732 0.18135 0.0
H331 H 0.4571 0.51346 0.14619 0.0
H332 H 0.4886 0.50209 0.14744 0.0
H333 H 0.54474 0.57791 0.14581 0.0
N334 N 0.46337 0.55754 0.14362 0.0
H335 H 0.51333 0.58893 0.14598 0.0
C336 C 0.59912 0.50192 0.12796 0.0
C337 C 0.58463 0.47706 0.12274 0.0
C338 C 0.59314 0.46599 0.10735 0.0
C339 C 0.61653 0.47939 0.09721 0.0
C340 C 0.63025 0.50455 0.10133 0.0
C341 C 0.62155 0.51564 0.11649 0.0
C342 C 0.59477 0.50265 0.16956 0.0
C343 C 0.61682 0.51368 0.18194 0.0
C344 C 0.61903 0.50338 0.20238 0.0
C345 C 0.59923 0.48154 0.21068 0.0
C346 C 0.57684 0.47086 0.19852 0.0
C347 C 0.57457 0.48141 0.17822 0.0
C348 C 0.57531 0.51933 0.14566 0.0
C349 C 0.553 0.50495 0.13391 0.0
C350 C 0.53499 0.5115 0.13394 0.0
C351 C 0.53866 0.53227 0.14607 0.0
C352 C 0.561 0.54652 0.1578 0.0
C353 C 0.57909 0.54018 0.15743 0.0
C354 C 0.45729 0.56043 0.12016 0.0
C355 C 0.43253 0.55071 0.11443 0.0
C356 C 0.42583 0.55617 0.09324 0.0
C357 C 0.44386 0.57144 0.07724 0.0
C358 C 0.46866 0.58029 0.08256 0.0
C359 C 0.47534 0.575 0.10383 0.0
C360 C 0.46348 0.57498 0.1597 0.0
C361 C 0.47738 0.60005 0.15553 0.0
C362 C 0.47338 0.61615 0.16861 0.0
C363 C 0.45529 0.60758 0.18603 0.0
C364 C 0.44244 0.58267 0.19107 0.0
C365 C 0.44657 0.56657 0.17802 0.0
C366 C 0.48266 0.55193 0.14598 0.0
C367 C 0.47624 0.52755 0.14644 0.0
C368 C 0.49431 0.52113 0.14685 0.0
C369 C 0.51933 0.53905 0.14649 0.0
C370 C 0.52573 0.56356 0.14642 0.0
C371 C 0.50763 0.56994 0.14639 0.0
O372 O 0.6036 0.38469 0.42249 0.0
Cd373 Cd 0.60945 0.37207 0.39158 0.0
Cd374 Cd 0.65557 0.41204 0.39509 0.0
O375 O 0.64079 0.41661 0.42533 0.0
O376 O 0.58398 0.33722 0.38932 0.0
O377 O 0.62375 0.35035 0.39178 0.0
C378 C 0.60146 0.33241 0.39031 0.0
C379 C 0.69624 0.42102 0.39677 0.0
C380 C 0.61923 0.40361 0.43331 0.0
C381 C 0.62487 0.40803 0.3533 0.0
O382 O 0.64518 0.41986 0.36395 0.0
O383 O 0.60773 0.38823 0.36143 0.0
O384 O 0.69063 0.43771 0.3979 0.0
O385 O 0.67858 0.39882 0.39491 0.0
O386 O 0.24824 0.61448 0.58431 0.0
Cd387 Cd 0.26995 0.62508 0.5548 0.0
Cd388 Cd 0.26243 0.66469 0.56148 0.0
O389 O 0.24703 0.64763 0.59218 0.0
O390 O 0.27554 0.59737 0.55088 0.0
O391 O 0.30575 0.63466 0.55736 0.0
C392 C 0.29858 0.61205 0.55412 0.0
C393 C 0.28898 0.70656 0.5617 0.0
C394 C 0.2417 0.62628 0.5974 0.0
C395 C 0.24217 0.63475 0.51817 0.0
O396 O 0.24187 0.6503 0.53176 0.0
O397 O 0.25402 0.62431 0.52341 0.0
O398 O 0.26566 0.69712 0.56441 0.0
O399 O 0.29747 0.69208 0.55935 0.0
O400 O 0.63991 0.23806 0.74755 0.0
Cd401 Cd 0.65005 0.25775 0.71733 0.0
Cd402 Cd 0.60473 0.25193 0.72178 0.0
O403 O 0.60373 0.23477 0.75232 0.0
O404 O 0.68564 0.26938 0.7145 0.0
O405 O 0.67108 0.29415 0.71842 0.0
C406 C 0.68974 0.29119 0.71624 0.0
C407 C 0.59745 0.28408 0.72257 0.0
C408 C 0.62031 0.2306 0.75921 0.0
C409 C 0.61384 0.23007 0.67952 0.0
O410 O 0.5982 0.23281 0.69101 0.0
O411 O 0.63569 0.23919 0.68684 0.0
O412 O 0.57973 0.26194 0.72415 0.0
O413 O 0.61957 0.288 0.72084 0.0
O414 O 0.40971 0.64479 0.92401 0.0
Cd415 Cd 0.40269 0.65679 0.89339 0.0
Cd416 Cd 0.35709 0.6179 0.89897 0.0
O417 O 0.37183 0.61491 0.92959 0.0
O418 O 0.42856 0.69144 0.89021 0.0
O419 O 0.38914 0.67914 0.89456 0.0
C420 C 0.41149 0.69674 0.89222 0.0
C421 C 0.31737 0.61155 0.89973 0.0
C422 C 0.39401 0.62722 0.93618 0.0
C423 C 0.38573 0.61825 0.85693 0.0
O424 O 0.36649 0.60659 0.86917 0.0
O425 O 0.40244 0.63935 0.86305 0.0
O426 O 0.32158 0.59409 0.90284 0.0
O427 O 0.33592 0.63304 0.89653 0.0
O428 O 0.7818 0.38261 0.02564 0.0
Cd429 Cd 0.76262 0.36954 0.05627 0.0
Cd430 Cd 0.75826 0.40992 0.05381 0.0
O431 O 0.77696 0.4143 0.02323 0.0
O432 O 0.75342 0.33495 0.0583 0.0
O433 O 0.72615 0.34675 0.05491 0.0
C434 C 0.73081 0.32935 0.05657 0.0
C435 C 0.72581 0.41744 0.05315 0.0
C436 C 0.78533 0.40146 0.01503 0.0
C437 C 0.78505 0.40579 0.09502 0.0
O438 O 0.77781 0.41835 0.08437 0.0
O439 O 0.7805 0.38542 0.08691 0.0
O440 O 0.74828 0.4347 0.05152 0.0
O441 O 0.72157 0.39555 0.05497 0.0
O442 O 0.40552 0.78107 0.18839 0.0
Cd443 Cd 0.40045 0.76303 0.21921 0.0
Cd444 Cd 0.35409 0.75486 0.21563 0.0
O445 O 0.36785 0.7745 0.18551 0.0
O446 O 0.42677 0.75484 0.22136 0.0
O447 O 0.38728 0.72719 0.21899 0.0
C448 C 0.40981 0.73232 0.2204 0.0
C449 C 0.31498 0.72045 0.21454 0.0
C450 C 0.38955 0.78374 0.17763 0.0
C451 C 0.38392 0.78297 0.25742 0.0
O452 O 0.36355 0.77349 0.24675 0.0
O453 O 0.40159 0.78105 0.24934 0.0
O454 O 0.3182 0.74197 0.21371 0.0
O455 O 0.33421 0.71832 0.21548 0.0
H456 H 0.16715 0.63368 0.25833 0.0
H457 H 0.30088 0.67215 0.21644 0.0
H458 H 0.18577 0.58049 0.23552 0.0
H459 H 0.27189 0.72038 0.21592 0.0
H460 H 0.25925 0.63799 0.223 0.0
H461 H 0.20535 0.66535 0.24214 0.0
C462 C 0.17891 0.62845 0.24949 0.0
C463 C 0.17299 0.60413 0.24846 0.0
C464 C 0.26203 0.65603 0.22112 0.0
C465 C 0.21765 0.64089 0.23054 0.0
C466 C 0.28577 0.67552 0.21744 0.0
C467 C 0.28991 0.69918 0.21589 0.0
C468 C 0.24245 0.66036 0.22354 0.0
C469 C 0.26963 0.7025 0.21721 0.0
C470 C 0.20097 0.64672 0.24039 0.0
C471 C 0.18965 0.59894 0.23725 0.0
N472 N 0.24687 0.68338 0.22123 0.0
N473 N 0.21138 0.61719 0.22902 0.0
H474 H 0.52555 0.1777 0.40771 0.0
H475 H 0.6334 0.31549 0.39486 0.0
H476 H 0.60221 0.20103 0.41568 0.0
H477 H 0.55653 0.29135 0.38665 0.0
H478 H 0.62285 0.2732 0.39848 0.0
H479 H 0.53699 0.21864 0.39573 0.0
C480 C 0.5448 0.1914 0.40672 0.0
C481 C 0.56293 0.18599 0.41288 0.0
C482 C 0.60832 0.27717 0.39569 0.0
C483 C 0.57622 0.23297 0.3993 0.0
C484 C 0.61433 0.30131 0.39363 0.0
C485 C 0.5958 0.30698 0.39067 0.0
C486 C 0.5836 0.2586 0.39485 0.0
C487 C 0.57142 0.28785 0.38911 0.0
C488 C 0.55135 0.21477 0.39984 0.0
C489 C 0.58763 0.20435 0.41095 0.0
N490 N 0.56603 0.26457 0.39138 0.0
N491 N 0.59354 0.22709 0.40459 0.0
H492 H 0.34871 0.51668 0.59072 0.0
H493 H 0.34818 0.63695 0.56357 0.0
H494 H 0.41641 0.58511 0.58337 0.0
H495 H 0.2876 0.56544 0.54795 0.0
H496 H 0.3742 0.61925 0.5702 0.0
H497 H 0.32669 0.53465 0.57399 0.0
C498 C 0.35918 0.53534 0.58514 0.0
C499 C 0.38466 0.5493 0.58868 0.0
C500 C 0.3553 0.60755 0.56499 0.0
C501 C 0.35896 0.57041 0.57019 0.0
C502 C 0.34044 0.61762 0.56124 0.0
C503 C 0.31559 0.60262 0.55549 0.0
C504 C 0.34509 0.58234 0.56318 0.0
C505 C 0.30655 0.57771 0.55262 0.0
C506 C 0.34642 0.5457 0.57574 0.0
C507 C 0.39675 0.57368 0.58156 0.0
N508 N 0.32119 0.56835 0.55677 0.0
N509 N 0.38375 0.58356 0.57299 0.0
H510 H 0.81967 0.42745 0.74876 0.0
H511 H 0.7318 0.29022 0.70866 0.0
H512 H 0.84385 0.37617 0.73707 0.0
H513 H 0.7057 0.33918 0.72505 0.0
H514 H 0.77382 0.32347 0.71325 0.0
H515 H 0.77905 0.39757 0.73412 0.0
C516 C 0.81658 0.41008 0.74266 0.0
C517 C 0.83511 0.4042 0.74432 0.0
C518 C 0.75895 0.32704 0.71568 0.0
C519 C 0.78858 0.36981 0.72793 0.0
C520 C 0.73491 0.30804 0.71307 0.0
C521 C 0.71518 0.31186 0.71676 0.0
C522 C 0.7634 0.3501 0.72217 0.0
C523 C 0.72036 0.3354 0.7222 0.0
C524 C 0.79333 0.39296 0.73448 0.0
C525 C 0.82998 0.38132 0.73643 0.0
N526 N 0.74399 0.3536 0.72497 0.0
N527 N 0.80716 0.3649 0.72877 0.0
H528 H 0.40969 0.82867 0.9193 0.0
H529 H 0.4567 0.73725 0.88745 0.0
H530 H 0.48606 0.84983 0.91387 0.0
H531 H 0.38053 0.71465 0.89859 0.0
H532 H 0.4673 0.77937 0.89184 0.0
H533 H 0.39834 0.78795 0.90614 0.0
C534 C 0.4241 0.8249 0.9149 0.0
C535 C 0.44889 0.84268 0.91783 0.0
C536 C 0.44824 0.76524 0.89317 0.0
C537 C 0.43598 0.79591 0.90316 0.0
C538 C 0.44215 0.74114 0.89065 0.0
C539 C 0.41769 0.72235 0.89288 0.0
C540 C 0.42976 0.77067 0.898 0.0
C541 C 0.39963 0.72854 0.89688 0.0
C542 C 0.41758 0.80156 0.90758 0.0
C543 C 0.46672 0.8366 0.91219 0.0
N544 N 0.40606 0.75217 0.89949 0.0
N545 N 0.45992 0.8137 0.90529 0.0
H546 H 0.64773 0.49518 0.05947 0.0
H547 H 0.67868 0.38878 0.0689 0.0
H548 H 0.61161 0.43523 0.10707 0.0
H549 H 0.72776 0.45912 0.03976 0.0
H550 H 0.64801 0.401 0.07487 0.0
H551 H 0.67125 0.47741 0.04412 0.0
C552 C 0.64452 0.47819 0.06656 0.0
C553 C 0.62784 0.46693 0.08486 0.0
C554 C 0.6654 0.41361 0.06691 0.0
C555 C 0.65452 0.44636 0.06712 0.0
C556 C 0.68285 0.40663 0.06343 0.0
C557 C 0.70589 0.42309 0.05412 0.0
C558 C 0.671 0.43709 0.06078 0.0
C559 C 0.71034 0.44598 0.0473 0.0
C560 C 0.6579 0.46803 0.05771 0.0
C561 C 0.62408 0.44458 0.09288 0.0
N562 N 0.69312 0.45235 0.05089 0.0
N563 N 0.63748 0.43517 0.08412 0.0
H564 H 0.33702 0.84981 0.51741 0.0
H565 H 0.33913 0.73317 0.55641 0.0
H566 H 0.40493 0.85274 0.5348 0.0
H567 H 0.27519 0.74057 0.5627 0.0
H568 H 0.3641 0.77683 0.54911 0.0
H569 H 0.31448 0.81016 0.535 0.0
C570 C 0.34735 0.8425 0.52535 0.0
C571 C 0.37312 0.85489 0.52435 0.0
C572 C 0.34466 0.7689 0.55242 0.0
C573 C 0.34698 0.80855 0.54388 0.0
C574 C 0.3304 0.74399 0.55652 0.0
C575 C 0.30499 0.73315 0.5599 0.0
C576 C 0.33333 0.78291 0.5514 0.0
C577 C 0.29466 0.74807 0.55998 0.0
C578 C 0.33433 0.81959 0.53526 0.0
C579 C 0.38513 0.84378 0.53456 0.0
N580 N 0.30879 0.77208 0.55549 0.0
N581 N 0.37196 0.82109 0.54357 0.0
H582 H 0.52462 0.36547 0.70246 0.0
H583 H 0.63016 0.33275 0.71776 0.0
H584 H 0.60183 0.41795 0.69665 0.0
H585 H 0.55289 0.28113 0.72553 0.0
H586 H 0.62053 0.36505 0.71353 0.0
H587 H 0.53491 0.33519 0.71463 0.0
C588 C 0.54375 0.37067 0.70395 0.0
C589 C 0.56238 0.39423 0.69837 0.0
C590 C 0.6057 0.34668 0.71635 0.0
C591 C 0.57434 0.35963 0.71217 0.0
C592 C 0.6112 0.32823 0.71876 0.0
C593 C 0.59229 0.30417 0.7218 0.0
C594 C 0.58112 0.341 0.71691 0.0
C595 C 0.56806 0.29939 0.72305 0.0
C596 C 0.54963 0.3534 0.71094 0.0
C597 C 0.58686 0.40006 0.70092 0.0
N598 N 0.56317 0.31759 0.72043 0.0
N599 N 0.59213 0.38282 0.70739 0.0
H600 H 0.18858 0.59338 0.83602 0.0
H601 H 0.27619 0.57206 0.9162 0.0
H602 H 0.1615 0.53713 0.88787 0.0
H603 H 0.30052 0.63903 0.87956 0.0
H604 H 0.23375 0.56053 0.9084 0.0
H605 H 0.22888 0.61224 0.85401 0.0
C606 C 0.19086 0.58523 0.85151 0.0
C607 C 0.1715 0.56337 0.86023 0.0
C608 C 0.24831 0.57793 0.90237 0.0
C609 C 0.21809 0.58468 0.88053 0.0
C610 C 0.27257 0.5845 0.90677 0.0
C611 C 0.29188 0.6064 0.89825 0.0
C612 C 0.24331 0.59316 0.88897 0.0
C613 C 0.28615 0.62193 0.88633 0.0
C614 C 0.21404 0.59599 0.8617 0.0
C615 C 0.17594 0.5536 0.88015 0.0
N616 N 0.26235 0.61481 0.88167 0.0
N617 N 0.19884 0.56411 0.88939 0.0
H618 H 0.65183 0.17299 0.05251 0.0
H619 H 0.68362 0.31048 0.04098 0.0
H620 H 0.61644 0.19635 0.0036 0.0
H621 H 0.73333 0.28972 0.06937 0.0
H622 H 0.65307 0.2675 0.03519 0.0
H623 H 0.67605 0.21468 0.06673 0.0
C624 C 0.64893 0.18675 0.04488 0.0
C625 C 0.63222 0.18104 0.02655 0.0
C626 C 0.67058 0.27241 0.04292 0.0
C627 C 0.65967 0.22876 0.04307 0.0
C628 C 0.68797 0.29689 0.0463 0.0
C629 C 0.71113 0.30365 0.05541 0.0
C630 C 0.67633 0.25463 0.04898 0.0
C631 C 0.7158 0.2853 0.06202 0.0
C632 C 0.66272 0.21053 0.05309 0.0
C633 C 0.62889 0.19966 0.01784 0.0
N634 N 0.69861 0.26164 0.05858 0.0
N635 N 0.64263 0.22268 0.02604 0.0
H636 H 0.40901 0.599 0.19499 0.0
H637 H 0.45536 0.73773 0.22439 0.0
H638 H 0.48529 0.65432 0.2013 0.0
H639 H 0.37911 0.68322 0.21548 0.0
H640 H 0.46627 0.70639 0.22069 0.0
H641 H 0.39745 0.62832 0.20763 0.0
C642 C 0.42335 0.61718 0.19948 0.0
C643 C 0.44819 0.62424 0.19692 0.0
C644 C 0.44713 0.70122 0.2197 0.0
C645 C 0.43503 0.65807 0.21096 0.0
C646 C 0.44087 0.71913 0.22181 0.0
C647 C 0.41628 0.71312 0.22002 0.0
C648 C 0.42871 0.67708 0.21569 0.0
C649 C 0.3983 0.68868 0.21683 0.0
C650 C 0.41672 0.63399 0.20651 0.0
C651 C 0.46593 0.64818 0.20267 0.0
N652 N 0.40489 0.67158 0.21458 0.0
N653 N 0.45901 0.66427 0.20923 0.0
H654 H 0.83099 0.43321 0.35087 0.0
H655 H 0.73602 0.46434 0.40873 0.0
H656 H 0.8516 0.5021 0.38291 0.0
H657 H 0.71573 0.3929 0.38369 0.0
H658 H 0.77908 0.47693 0.40344 0.0
H659 H 0.78983 0.41652 0.36698 0.0
C660 C 0.82706 0.44471 0.36172 0.0
C661 C 0.84477 0.46922 0.36531 0.0
C662 C 0.76528 0.45841 0.39933 0.0
C663 C 0.79741 0.4503 0.38338 0.0
C664 C 0.74065 0.45121 0.40231 0.0
C665 C 0.72225 0.42761 0.39635 0.0
C666 C 0.77165 0.44202 0.39001 0.0
C667 C 0.72934 0.4113 0.38837 0.0
C668 C 0.80345 0.43519 0.37078 0.0
C669 C 0.83842 0.48326 0.37928 0.0
N670 N 0.75351 0.41891 0.38511 0.0
N671 N 0.81521 0.47369 0.38756 0.0
H672 H 0.18742 0.59316 0.37789 0.0
H673 H 0.2008 0.6367 0.50921 0.0
H674 H 0.12413 0.57466 0.42035 0.0
H675 H 0.2502 0.61648 0.4783 0.0
H676 H 0.17523 0.62212 0.47417 0.0
H677 H 0.21367 0.60981 0.41238 0.0
C678 C 0.17916 0.5927 0.39454 0.0
C679 C 0.15374 0.58253 0.39654 0.0
C680 C 0.19174 0.621 0.47511 0.0
C681 C 0.18339 0.60175 0.43564 0.0
C682 C 0.2064 0.62945 0.49495 0.0
C683 C 0.22759 0.62772 0.49661 0.0
C684 C 0.19867 0.61131 0.45668 0.0
C685 C 0.23392 0.61801 0.47774 0.0
C686 C 0.19404 0.6021 0.41411 0.0
C687 C 0.14371 0.58229 0.41833 0.0
N688 N 0.21958 0.61028 0.45846 0.0
N689 N 0.15862 0.59195 0.43712 0.0
H690 H 0.54072 0.15288 0.55379 0.0
H691 H 0.64061 0.2154 0.65407 0.0
H692 H 0.60284 0.14271 0.56138 0.0
H693 H 0.57048 0.21166 0.65558 0.0
H694 H 0.62817 0.19091 0.61871 0.0
H695 H 0.55211 0.17601 0.58999 0.0
C696 C 0.5566 0.15523 0.56318 0.0
C697 C 0.5708 0.14573 0.55449 0.0
C698 C 0.61548 0.19541 0.62679 0.0
C699 C 0.58424 0.17273 0.59575 0.0
C700 C 0.6226 0.2095 0.64694 0.0
C701 C 0.60656 0.21563 0.65782 0.0
C702 C 0.59222 0.18751 0.61729 0.0
C703 C 0.58343 0.20735 0.6478 0.0
C704 C 0.56317 0.16861 0.58379 0.0
C705 C 0.59151 0.14993 0.56721 0.0
N706 N 0.57697 0.19377 0.62804 0.0
N707 N 0.59765 0.16319 0.58715 0.0
H708 H 0.43629 0.5868 0.72852 0.0
H709 H 0.35616 0.57177 0.84152 0.0
H710 H 0.37885 0.51774 0.75391 0.0
H711 H 0.42269 0.63829 0.82457 0.0
H712 H 0.36248 0.55244 0.80772 0.0
H713 H 0.4303 0.60658 0.76223 0.0
C714 C 0.42257 0.57574 0.74127 0.0
C715 C 0.40807 0.55052 0.73835 0.0
C716 C 0.3757 0.57126 0.81138 0.0
C717 C 0.40081 0.57317 0.77676 0.0
C718 C 0.37207 0.58237 0.83065 0.0
C719 C 0.38895 0.60671 0.83594 0.0
C720 C 0.3963 0.58459 0.79717 0.0
C721 C 0.40923 0.61948 0.82119 0.0
C722 C 0.41906 0.5871 0.76044 0.0
C723 C 0.39023 0.53724 0.75524 0.0
N724 N 0.41233 0.60826 0.80246 0.0
N725 N 0.38708 0.54873 0.77367 0.0
H726 H 0.86205 0.40794 0.88802 0.0
H727 H 0.80171 0.44376 0.99127 0.0
H728 H 0.87552 0.48048 0.89911 0.0
H729 H 0.8022 0.37656 0.9894 0.0
H730 H 0.82642 0.45648 0.95598 0.0
H731 H 0.8383 0.39531 0.92393 0.0
C732 C 0.86027 0.42131 0.89811 0.0
C733 C 0.8709 0.44537 0.8905 0.0
C734 C 0.82116 0.43896 0.9633 0.0
C735 C 0.84321 0.43081 0.93141 0.0
C736 C 0.80694 0.43162 0.98341 0.0
C737 C 0.79984 0.40902 0.99334 0.0
C738 C 0.82821 0.42355 0.95287 0.0
C739 C 0.80728 0.39413 0.98238 0.0
C740 C 0.84654 0.41401 0.91854 0.0
C741 C 0.86742 0.46169 0.90408 0.0
N742 N 0.82101 0.40164 0.96269 0.0
N743 N 0.85382 0.45409 0.92383 0.0
H744 H 0.46549 0.86845 0.05693 0.0
H745 H 0.36244 0.79874 0.15339 0.0
H746 H 0.40229 0.87689 0.06506 0.0
H747 H 0.4327 0.80274 0.15343 0.0
H748 H 0.37521 0.82483 0.11924 0.0
H749 H 0.45252 0.84235 0.09087 0.0
C750 C 0.44903 0.86508 0.066 0.0
C751 C 0.43507 0.87508 0.05816 0.0
C752 C 0.38781 0.81997 0.12673 0.0
C753 C 0.41978 0.84462 0.09684 0.0
C754 C 0.3805 0.80499 0.14616 0.0
C755 C 0.39654 0.79856 0.15632 0.0
C756 C 0.41125 0.82846 0.11728 0.0
C757 C 0.41975 0.80727 0.14623 0.0
C758 C 0.44153 0.84998 0.0853 0.0
C759 C 0.41352 0.86943 0.07031 0.0
N760 N 0.42638 0.82175 0.12727 0.0
N761 N 0.40652 0.85455 0.08903 0.0
H762 H 0.56549 0.45627 0.24506 0.0
H763 H 0.65975 0.44261 0.32522 0.0
H764 H 0.63981 0.47957 0.22391 0.0
H765 H 0.58138 0.39592 0.33206 0.0
H766 H 0.65316 0.45975 0.2901 0.0
H767 H 0.57121 0.43702 0.2791 0.0
C768 C 0.58295 0.45726 0.24744 0.0
C769 C 0.60224 0.46973 0.23156 0.0
C770 C 0.63742 0.44567 0.29923 0.0
C771 C 0.60897 0.44812 0.27073 0.0
C772 C 0.64115 0.43594 0.31931 0.0
C773 C 0.62107 0.41782 0.33157 0.0
C774 C 0.61343 0.43752 0.29155 0.0
C775 C 0.59737 0.4098 0.32307 0.0
C776 C 0.5862 0.44633 0.26693 0.0
C777 C 0.62457 0.47068 0.23587 0.0
N778 N 0.59418 0.41985 0.30365 0.0
N779 N 0.62735 0.46016 0.25508 0.0
H780 H 0.4405 0.89665 0.36077 0.0
H781 H 0.34841 0.78204 0.28527 0.0
H782 H 0.36696 0.8452 0.38347 0.0
H783 H 0.42702 0.81641 0.27808 0.0
H784 H 0.35425 0.8074 0.31932 0.0
H785 H 0.43542 0.86973 0.32829 0.0
C786 C 0.42334 0.87968 0.35907 0.0
C787 C 0.4041 0.87329 0.37494 0.0
C788 C 0.37021 0.80927 0.31037 0.0
C789 C 0.39809 0.84266 0.3375 0.0
C790 C 0.3669 0.79486 0.29091 0.0
C791 C 0.38727 0.79715 0.27882 0.0
C792 C 0.39405 0.82637 0.31757 0.0
C793 C 0.41082 0.814 0.28695 0.0
C794 C 0.42046 0.86437 0.34046 0.0
C795 C 0.38214 0.85121 0.37148 0.0
N796 N 0.41358 0.82815 0.30572 0.0
N797 N 0.3797 0.83677 0.35309 0.0
H798 H 0.54534 0.40846 0.55805 0.0
H799 H 0.64605 0.44551 0.4583 0.0
H800 H 0.60849 0.48034 0.55155 0.0
H801 H 0.57627 0.37863 0.45775 0.0
H802 H 0.63369 0.45777 0.49365 0.0
H803 H 0.5572 0.39664 0.52221 0.0
C804 C 0.56156 0.42188 0.54896 0.0
C805 C 0.57587 0.4455 0.55783 0.0
C806 C 0.62108 0.44043 0.48578 0.0
C807 C 0.58986 0.43185 0.51695 0.0
C808 C 0.62815 0.43335 0.46563 0.0
C809 C 0.61217 0.41098 0.45502 0.0
C810 C 0.59793 0.42497 0.4955 0.0
C811 C 0.58918 0.39604 0.4653 0.0
C812 C 0.56842 0.41503 0.52856 0.0
C813 C 0.59704 0.46187 0.54553 0.0
N814 N 0.58277 0.40329 0.485 0.0
N815 N 0.60342 0.45471 0.52575 0.0
H816 H 0.14288 0.52159 0.69702 0.0
H817 H 0.22715 0.6467 0.63119 0.0
H818 H 0.15814 0.59104 0.72381 0.0
H819 H 0.22187 0.5791 0.61108 0.0
H820 H 0.20057 0.62641 0.6644 0.0
H821 H 0.17032 0.54211 0.66441 0.0
C822 C 0.15204 0.54116 0.6961 0.0
C823 C 0.14818 0.55459 0.71322 0.0
C824 C 0.20531 0.61605 0.65276 0.0
C825 C 0.17945 0.57819 0.67577 0.0
C826 C 0.2205 0.62762 0.63379 0.0
C827 C 0.22674 0.61459 0.61828 0.0
C828 C 0.19615 0.59121 0.65618 0.0
C829 C 0.21758 0.58989 0.62258 0.0
C830 C 0.16765 0.55286 0.67743 0.0
C831 C 0.16025 0.57989 0.71086 0.0
N832 N 0.20266 0.57899 0.64106 0.0
N833 N 0.17533 0.59086 0.6925 0.0
H834 H 0.62785 0.13855 0.86345 0.0
H835 H 0.58379 0.21618 0.79188 0.0
H836 H 0.57632 0.15784 0.89086 0.0
H837 H 0.64826 0.21224 0.77487 0.0
H838 H 0.57781 0.19162 0.82641 0.0
H839 H 0.63245 0.16215 0.82879 0.0
C840 C 0.61755 0.1478 0.86224 0.0
C841 C 0.60181 0.14633 0.88023 0.0
C842 C 0.59328 0.19621 0.81511 0.0
C843 C 0.60675 0.17315 0.84035 0.0
C844 C 0.59669 0.2102 0.7954 0.0
C845 C 0.61659 0.21632 0.78047 0.0
C846 C 0.60972 0.1881 0.81975 0.0
C847 C 0.63272 0.20806 0.78591 0.0
C848 C 0.62012 0.16121 0.84239 0.0
C849 C 0.58848 0.15825 0.87737 0.0
N850 N 0.62888 0.19432 0.80504 0.0
N851 N 0.59128 0.1712 0.85782 0.0
H852 H 0.4043 0.54447 0.0487 0.0
H853 H 0.43845 0.65134 0.95853 0.0
H854 H 0.46737 0.61625 0.05685 0.0
H855 H 0.36711 0.58649 0.96212 0.0
H856 H 0.45108 0.63772 0.99262 0.0
H857 H 0.39212 0.55841 0.01466 0.0
C858 C 0.41558 0.56316 0.04338 0.0
C859 C 0.43689 0.57919 0.05573 0.0
C860 C 0.43264 0.62655 0.98597 0.0
C861 C 0.42317 0.59519 0.0166 0.0
C862 C 0.42542 0.63431 0.96652 0.0
C863 C 0.40168 0.62006 0.95746 0.0
C864 C 0.41609 0.60428 -0.00376 0.0
C865 C 0.38557 0.59813 0.96853 0.0
C866 C 0.40864 0.57109 0.02391 0.0
C867 C 0.45101 0.60311 0.04771 0.0
N868 N 0.39311 0.59086 0.98725 0.0
N869 N 0.4439 0.61038 0.02867 0.0
H870 H 0.86013 0.49195 0.21604 0.0
H871 H 0.80787 0.38657 0.12012 0.0
H872 H 0.88191 0.43811 0.21131 0.0
H873 H 0.79546 0.44697 0.11904 0.0
H874 H 0.83305 0.40368 0.15491 0.0
H875 H 0.8348 0.47453 0.18154 0.0
C876 C 0.8598 0.47661 0.20763 0.0
C877 C 0.87331 0.46657 0.21657 0.0
C878 C 0.82479 0.41316 0.14705 0.0
C879 C 0.84387 0.4462 0.17723 0.0
C880 C 0.81034 0.40337 0.12723 0.0
C881 C 0.79955 0.41537 0.1166 0.0
C882 C 0.82839 0.43505 0.15639 0.0
C883 C 0.80345 0.4371 0.12659 0.0
C884 C 0.84516 0.46655 0.188 0.0
C885 C 0.87163 0.4463 0.2052 0.0
N886 N 0.81754 0.44623 0.14591 0.0
N887 N 0.85716 0.43677 0.18613 0.0
loop_
_geom_bond_atom_site_label_1
_geom_bond_atom_site_label_2
_geom_bond_distance
_geom_bond_site_symmetry_2
_ccdc_geom_bond_type
H0 C27 0.929 . S
N1 C26 1.433 . S
N1 C32 1.435 . S
N1 C38 1.423 . S
H2 C28 0.930 . S
H3 C31 0.931 . S
H4 C30 0.929 . S
H5 C33 0.930 . S
H6 C34 0.932 . S
H7 C37 0.929 . S
H8 C36 0.931 . S
H9 C39 0.929 . S
H10 C43 0.932 . S
H11 C40 0.931 . S
H12 C42 0.929 . S
H13 C45 0.929 . S
H14 C46 0.930 . S
H15 C48 0.929 . S
H16 C49 0.931 . S
H17 C51 0.930 . S
H18 C52 0.932 . S
H19 C54 0.931 . S
H20 C55 0.929 . S
H21 C57 0.929 . S
H22 C58 0.931 . S
H23 C60 0.929 . S
N24 C44 1.433 . S
N24 C50 1.435 . S
N24 C56 1.423 . S
H25 C61 0.932 . S
C26 N1 1.433 . S
C26 C27 1.363 . S
C26 C31 1.370 . S
C27 H0 0.929 . S
C27 C26 1.363 . S
C27 C28 1.385 . S
C28 H2 0.930 . S
C28 C27 1.385 . S
C28 C29 1.357 . S
C29 C28 1.357 . S
C29 C30 1.406 . S
C30 H4 0.929 . S
C30 C29 1.406 . S
C30 C31 1.391 . S
C31 H3 0.931 . S
C31 C26 1.370 . S
C31 C30 1.391 . S
C32 N1 1.435 . S
C32 C33 1.358 . S
C32 C37 1.371 . S
C33 H5 0.930 . S
C33 C32 1.358 . S
C33 C34 1.405 . S
C34 H6 0.932 . S
C34 C33 1.405 . S
C34 C35 1.383 . S
C35 C34 1.383 . S
C35 C36 1.393 . S
C36 H8 0.931 . S
C36 C35 1.393 . S
C36 C37 1.382 . S
C37 H7 0.929 . S
C37 C32 1.371 . S
C37 C36 1.382 . S
C38 N1 1.423 . S
C38 C39 1.362 . S
C38 C43 1.388 . S
C39 H9 0.929 . S
C39 C38 1.362 . S
C39 C40 1.376 . S
C40 H11 0.931 . S
C40 C39 1.376 . S
C40 C41 1.396 . S
C41 C40 1.396 . S
C41 C42 1.348 . S
C41 C59 1.472 1_455 S
C42 H12 0.929 . S
C42 C41 1.348 . S
C42 C43 1.443 . S
C43 H10 0.932 . S
C43 C38 1.388 . S
C43 C42 1.443 . S
C44 N24 1.433 . S
C44 C45 1.363 . S
C44 C49 1.370 . S
C45 H13 0.929 . S
C45 C44 1.363 . S
C45 C46 1.385 . S
C46 H14 0.930 . S
C46 C45 1.385 . S
C46 C47 1.357 . S
C47 C46 1.357 . S
C47 C48 1.406 . S
C48 H15 0.929 . S
C48 C47 1.406 . S
C48 C49 1.391 . S
C49 H16 0.931 . S
C49 C44 1.370 . S
C49 C48 1.391 . S
C50 N24 1.435 . S
C50 C51 1.358 . S
C50 C55 1.371 . S
C51 H17 0.930 . S
C51 C50 1.358 . S
C51 C52 1.405 . S
C52 H18 0.932 . S
C52 C51 1.405 . S
C52 C53 1.383 . S
C53 C52 1.383 . S
C53 C54 1.393 . S
C54 H19 0.931 . S
C54 C53 1.393 . S
C54 C55 1.382 . S
C55 H20 0.929 . S
C55 C50 1.371 . S
C55 C54 1.382 . S
C56 N24 1.423 . S
C56 C57 1.362 . S
C56 C61 1.388 . S
C57 H21 0.929 . S
C57 C56 1.362 . S
C57 C58 1.376 . S
C58 H22 0.931 . S
C58 C57 1.376 . S
C58 C59 1.396 . S
C59 C41 1.472 1_655 S
C59 C58 1.396 . S
C59 C60 1.348 . S
C60 H23 0.929 . S
C60 C59 1.348 . S
C60 C61 1.443 . S
C61 H25 0.932 . S
C61 C56 1.388 . S
C61 C60 1.443 . S
H62 C89 0.929 . S
N63 C88 1.433 . S
N63 C94 1.435 . S
N63 C100 1.423 . S
H64 C90 0.930 . S
H65 C93 0.931 . S
H66 C92 0.929 . S
H67 C95 0.930 . S
H68 C96 0.932 . S
H69 C99 0.929 . S
H70 C98 0.931 . S
H71 C101 0.929 . S
H72 C105 0.932 . S
H73 C102 0.931 . S
H74 C104 0.929 1_545 S
H75 C107 0.929 . S
H76 C108 0.930 . S
H77 C110 0.929 . S
H78 C111 0.931 . S
H79 C113 0.930 . S
H80 C114 0.932 . S
H81 C116 0.931 . S
H82 C117 0.929 . S
H83 C119 0.929 . S
H84 C120 0.931 . S
H85 C122 0.929 . S
N86 C106 1.433 . S
N86 C112 1.435 . S
N86 C118 1.423 . S
H87 C123 0.932 . S
C88 N63 1.433 . S
C88 C89 1.363 . S
C88 C93 1.370 . S
C89 H62 0.929 . S
C89 C88 1.363 . S
C89 C90 1.385 . S
C90 H64 0.930 . S
C90 C89 1.385 . S
C90 C91 1.357 . S
C91 C90 1.357 . S
C91 C92 1.406 . S
C92 H66 0.929 . S
C92 C91 1.406 . S
C92 C93 1.391 . S
C93 H65 0.931 . S
C93 C88 1.370 . S
C93 C92 1.391 . S
C94 N63 1.435 . S
C94 C95 1.358 . S
C94 C99 1.371 . S
C95 H67 0.930 . S
C95 C94 1.358 . S
C95 C96 1.405 . S
C96 H68 0.932 . S
C96 C95 1.405 . S
C96 C97 1.383 . S
C97 C96 1.383 . S
C97 C98 1.393 . S
C98 H70 0.931 . S
C98 C97 1.393 . S
C98 C99 1.382 . S
C99 H69 0.929 . S
C99 C94 1.371 . S
C99 C98 1.382 . S
C100 N63 1.423 . S
C100 C101 1.362 . S
C100 C105 1.388 . S
C101 H71 0.929 . S
C101 C100 1.362 . S
C101 C102 1.376 . S
C102 H73 0.931 . S
C102 C101 1.376 . S
C102 C103 1.396 1_565 S
C103 C102 1.396 1_545 S
C103 C104 1.348 1_545 S
C103 C121 1.472 . S
C104 H74 0.929 1_565 S
C104 C103 1.348 1_565 S
C104 C105 1.443 . S
C105 H72 0.932 . S
C105 C100 1.388 . S
C105 C104 1.443 . S
C106 N86 1.433 . S
C106 C107 1.363 . S
C106 C111 1.370 . S
C107 H75 0.929 . S
C107 C106 1.363 . S
C107 C108 1.385 . S
C108 H76 0.930 . S
C108 C107 1.385 . S
C108 C109 1.357 . S
C109 C108 1.357 . S
C109 C110 1.406 . S
C110 H77 0.929 . S
C110 C109 1.406 . S
C110 C111 1.391 . S
C111 H78 0.931 . S
C111 C106 1.370 . S
C111 C110 1.391 . S
C112 N86 1.435 . S
C112 C113 1.358 . S
C112 C117 1.371 . S
C113 H79 0.930 . S
C113 C112 1.358 . S
C113 C114 1.405 . S
C114 H80 0.932 . S
C114 C113 1.405 . S
C114 C115 1.383 . S
C115 C114 1.383 . S
C115 C116 1.393 . S
C116 H81 0.931 . S
C116 C115 1.393 . S
C116 C117 1.382 . S
C117 H82 0.929 . S
C117 C112 1.371 . S
C117 C116 1.382 . S
C118 N86 1.423 . S
C118 C119 1.362 . S
C118 C123 1.388 . S
C119 H83 0.929 . S
C119 C118 1.362 . S
C119 C120 1.376 . S
C120 H84 0.931 . S
C120 C119 1.376 . S
C120 C121 1.396 . S
C121 C103 1.472 . S
C121 C120 1.396 . S
C121 C122 1.348 . S
C122 H85 0.929 . S
C122 C121 1.348 . S
C122 C123 1.443 . S
C123 H87 0.932 . S
C123 C118 1.388 . S
C123 C122 1.443 . S
H124 C151 0.929 . S
N125 C150 1.433 . S
N125 C156 1.435 . S
N125 C162 1.423 . S
H126 C152 0.930 . S
H127 C155 0.931 . S
H128 C154 0.929 . S
H129 C157 0.930 . S
H130 C158 0.932 . S
H131 C161 0.929 . S
H132 C160 0.931 . S
H133 C163 0.929 . S
H134 C167 0.932 . S
H135 C164 0.931 . S
H136 C166 0.929 . S
H137 C169 0.929 . S
H138 C170 0.930 . S
H139 C172 0.929 . S
H140 C173 0.931 . S
H141 C175 0.930 . S
H142 C176 0.932 . S
H143 C178 0.931 . S
H144 C179 0.929 . S
H145 C181 0.929 . S
H146 C182 0.931 . S
H147 C184 0.929 . S
N148 C168 1.433 . S
N148 C174 1.435 . S
N148 C180 1.423 . S
H149 C185 0.932 . S
C150 N125 1.433 . S
C150 C151 1.363 . S
C150 C155 1.370 . S
C151 H124 0.929 . S
C151 C150 1.363 . S
C151 C152 1.385 . S
C152 H126 0.930 . S
C152 C151 1.385 . S
C152 C153 1.357 . S
C153 C152 1.357 . S
C153 C154 1.406 . S
C154 H128 0.929 . S
C154 C153 1.406 . S
C154 C155 1.391 . S
C155 H127 0.931 . S
C155 C150 1.370 . S
C155 C154 1.391 . S
C156 N125 1.435 . S
C156 C157 1.358 . S
C156 C161 1.371 . S
C157 H129 0.930 . S
C157 C156 1.358 . S
C157 C158 1.405 . S
C158 H130 0.932 . S
C158 C157 1.405 . S
C158 C159 1.383 . S
C159 C158 1.383 . S
C159 C160 1.393 . S
C160 H132 0.931 . S
C160 C159 1.393 . S
C160 C161 1.382 . S
C161 H131 0.929 . S
C161 C156 1.371 . S
C161 C160 1.382 . S
C162 N125 1.423 . S
C162 C163 1.362 . S
C162 C167 1.388 . S
C163 H133 0.929 . S
C163 C162 1.362 . S
C163 C164 1.376 . S
C164 H135 0.931 . S
C164 C163 1.376 . S
C164 C165 1.396 . S
C165 C164 1.396 . S
C165 C166 1.348 . S
C165 C183 1.472 . S
C166 H136 0.929 . S
C166 C165 1.348 . S
C166 C167 1.443 . S
C167 H134 0.932 . S
C167 C162 1.388 . S
C167 C166 1.443 . S
C168 N148 1.433 . S
C168 C169 1.363 . S
C168 C173 1.370 . S
C169 H137 0.929 . S
C169 C168 1.363 . S
C169 C170 1.385 . S
C170 H138 0.930 . S
C170 C169 1.385 . S
C170 C171 1.357 . S
C171 C170 1.357 . S
C171 C172 1.406 . S
C172 H139 0.929 . S
C172 C171 1.406 . S
C172 C173 1.391 . S
C173 H140 0.931 . S
C173 C168 1.370 . S
C173 C172 1.391 . S
C174 N148 1.435 . S
C174 C175 1.358 . S
C174 C179 1.371 . S
C175 H141 0.930 . S
C175 C174 1.358 . S
C175 C176 1.405 . S
C176 H142 0.932 . S
C176 C175 1.405 . S
C176 C177 1.383 . S
C177 C176 1.383 . S
C177 C178 1.393 . S
C178 H143 0.931 . S
C178 C177 1.393 . S
C178 C179 1.382 . S
C179 H144 0.929 . S
C179 C174 1.371 . S
C179 C178 1.382 . S
C180 N148 1.423 . S
C180 C181 1.362 . S
C180 C185 1.388 . S
C181 H145 0.929 . S
C181 C180 1.362 . S
C181 C182 1.376 . S
C182 H146 0.931 . S
C182 C181 1.376 . S
C182 C183 1.396 . S
C183 C165 1.472 . S
C183 C182 1.396 . S
C183 C184 1.348 . S
C184 H147 0.929 . S
C184 C183 1.348 . S
C184 C185 1.443 . S
C185 H149 0.932 . S
C185 C180 1.388 . S
C185 C184 1.443 . S
H186 C213 0.929 . S
N187 C212 1.433 . S
N187 C218 1.435 . S
N187 C224 1.423 . S
H188 C214 0.930 . S
H189 C217 0.931 . S
H190 C216 0.929 . S
H191 C219 0.930 . S
H192 C220 0.932 . S
H193 C223 0.929 . S
H194 C222 0.931 . S
H195 C225 0.929 . S
H196 C229 0.932 . S
H197 C226 0.931 . S
H198 C228 0.929 . S
H199 C231 0.929 . S
H200 C232 0.930 . S
H201 C234 0.929 . S
H202 C235 0.931 . S
H203 C237 0.930 . S
H204 C238 0.932 . S
H205 C240 0.931 . S
H206 C241 0.929 . S
H207 C243 0.929 . S
H208 C244 0.931 . S
H209 C246 0.929 . S
N210 C230 1.433 . S
N210 C236 1.435 . S
N210 C242 1.423 . S
H211 C247 0.932 . S
C212 N187 1.433 . S
C212 C213 1.363 . S
C212 C217 1.370 . S
C213 H186 0.929 . S
C213 C212 1.363 . S
C213 C214 1.385 . S
C214 H188 0.930 . S
C214 C213 1.385 . S
C214 C215 1.357 . S
C215 C214 1.357 . S
C215 C216 1.406 . S
C216 H190 0.929 . S
C216 C215 1.406 . S
C216 C217 1.391 . S
C217 H189 0.931 . S
C217 C212 1.370 . S
C217 C216 1.391 . S
C218 N187 1.435 . S
C218 C219 1.358 . S
C218 C223 1.371 . S
C219 H191 0.930 . S
C219 C218 1.358 . S
C219 C220 1.405 . S
C220 H192 0.932 . S
C220 C219 1.405 . S
C220 C221 1.383 . S
C221 C220 1.383 . S
C221 C222 1.393 . S
C222 H194 0.931 . S
C222 C221 1.393 . S
C222 C223 1.382 . S
C223 H193 0.929 . S
C223 C218 1.371 . S
C223 C222 1.382 . S
C224 N187 1.423 . S
C224 C225 1.362 . S
C224 C229 1.388 . S
C225 H195 0.929 . S
C225 C224 1.362 . S
C225 C226 1.376 . S
C226 H197 0.931 . S
C226 C225 1.376 . S
C226 C227 1.396 . S
C227 C226 1.396 . S
C227 C228 1.348 . S
C227 C245 1.472 1_455 S
C228 H198 0.929 . S
C228 C227 1.348 . S
C228 C229 1.443 . S
C229 H196 0.932 . S
C229 C224 1.388 . S
C229 C228 1.443 . S
C230 N210 1.433 . S
C230 C231 1.363 . S
C230 C235 1.370 . S
C231 H199 0.929 . S
C231 C230 1.363 . S
C231 C232 1.385 . S
C232 H200 0.930 . S
C232 C231 1.385 . S
C232 C233 1.357 . S
C233 C232 1.357 . S
C233 C234 1.406 . S
C234 H201 0.929 . S
C234 C233 1.406 . S
C234 C235 1.391 . S
C235 H202 0.931 . S
C235 C230 1.370 . S
C235 C234 1.391 . S
C236 N210 1.435 . S
C236 C237 1.358 . S
C236 C241 1.371 . S
C237 H203 0.930 . S
C237 C236 1.358 . S
C237 C238 1.405 . S
C238 H204 0.932 . S
C238 C237 1.405 . S
C238 C239 1.383 . S
C239 C238 1.383 . S
C239 C240 1.393 . S
C240 H205 0.931 . S
C240 C239 1.393 . S
C240 C241 1.382 . S
C241 H206 0.929 . S
C241 C236 1.371 . S
C241 C240 1.382 . S
C242 N210 1.423 . S
C242 C243 1.362 . S
C242 C247 1.388 . S
C243 H207 0.929 . S
C243 C242 1.362 . S
C243 C244 1.376 . S
C244 H208 0.931 . S
C244 C243 1.376 . S
C244 C245 1.396 . S
C245 C227 1.472 1_655 S
C245 C244 1.396 . S
C245 C246 1.348 . S
C246 H209 0.929 . S
C246 C245 1.348 . S
C246 C247 1.443 . S
C247 H211 0.932 . S
C247 C242 1.388 . S
C247 C246 1.443 . S
H248 C275 0.929 . S
N249 C274 1.433 . S
N249 C280 1.435 . S
N249 C286 1.423 . S
H250 C276 0.930 . S
H251 C279 0.931 . S
H252 C278 0.929 . S
H253 C281 0.930 . S
H254 C282 0.932 . S
H255 C285 0.929 . S
H256 C284 0.931 . S
H257 C287 0.929 . S
H258 C291 0.932 . S
H259 C288 0.931 . S
H260 C290 0.929 . S
H261 C293 0.929 . S
H262 C294 0.930 . S
H263 C296 0.929 . S
H264 C297 0.931 . S
H265 C299 0.930 1_554 S
H266 C300 0.932 . S
H267 C302 0.931 . S
H268 C303 0.929 . S
H269 C305 0.929 . S
H270 C306 0.912 1_554 S
H271 C308 0.929 . S
N272 C292 1.433 . S
N272 C298 1.435 1_554 S
N272 C304 1.423 1_554 S
H273 C309 0.932 . S
C274 N249 1.433 . S
C274 C275 1.363 . S
C274 C279 1.370 . S
C275 H248 0.929 . S
C275 C274 1.363 . S
C275 C276 1.385 . S
C276 H250 0.930 . S
C276 C275 1.385 . S
C276 C277 1.357 1_556 S
C277 C276 1.357 1_554 S
C277 C278 1.406 . S
C278 H252 0.929 . S
C278 C277 1.406 . S
C278 C279 1.391 1_554 S
C279 H251 0.931 . S
C279 C274 1.370 . S
C279 C278 1.391 1_556 S
C280 N249 1.435 . S
C280 C281 1.358 . S
C280 C285 1.371 . S
C281 H253 0.930 . S
C281 C280 1.358 . S
C281 C282 1.405 . S
C282 H254 0.932 . S
C282 C281 1.405 . S
C282 C283 1.383 . S
C283 C282 1.383 . S
C283 C284 1.393 . S
C284 H256 0.931 . S
C284 C283 1.393 . S
C284 C285 1.382 . S
C285 H255 0.929 . S
C285 C280 1.371 . S
C285 C284 1.382 . S
C286 N249 1.423 . S
C286 C287 1.362 . S
C286 C291 1.388 . S
C287 H257 0.929 . S
C287 C286 1.362 . S
C287 C288 1.376 . S
C288 H259 0.931 . S
C288 C287 1.376 . S
C288 C289 1.396 . S
C289 C288 1.396 . S
C289 C290 1.348 . S
C289 C307 1.472 1_545 S
C290 H260 0.929 . S
C290 C289 1.348 . S
C290 C291 1.443 . S
C291 H258 0.932 . S
C291 C286 1.388 . S
C291 C290 1.443 . S
C292 N272 1.433 . S
C292 C293 1.363 . S
C292 C297 1.370 . S
C293 H261 0.929 . S
C293 C292 1.363 . S
C293 C294 1.385 . S
C294 H262 0.930 . S
C294 C293 1.385 . S
C294 C295 1.357 . S
C295 C294 1.357 . S
C295 C296 1.406 . S
C296 H263 0.929 . S
C296 C295 1.406 . S
C296 C297 1.391 . S
C297 H264 0.931 . S
C297 C292 1.370 . S
C297 C296 1.391 . S
C298 N272 1.435 1_556 S
C298 C299 1.358 . S
C298 C303 1.371 . S
C299 H265 0.930 1_556 S
C299 C298 1.358 . S
C299 C300 1.405 . S
C300 H266 0.932 . S
C300 C299 1.405 . S
C300 C301 1.383 . S
C301 C300 1.383 . S
C301 C302 1.393 . S
C302 H267 0.931 . S
C302 C301 1.393 . S
C302 C303 1.382 . S
C303 H268 0.929 . S
C303 C298 1.371 . S
C303 C302 1.382 . S
C304 N272 1.423 1_556 S
C304 C305 1.362 1_556 S
C304 C309 1.388 . S
C305 H269 0.929 . S
C305 C304 1.362 1_554 S
C305 C306 1.376 1_554 S
C306 H270 0.912 1_556 S
C306 C305 1.376 1_556 S
C306 C307 1.396 . S
C307 C289 1.472 1_565 S
C307 C306 1.396 . S
C307 C308 1.348 . S
C308 H271 0.929 . S
C308 C307 1.348 . S
C308 C309 1.443 . S
C309 H273 0.932 . S
C309 C304 1.388 . S
C309 C308 1.443 . S
H310 C337 0.929 . S
N311 C336 1.433 . S
N311 C342 1.435 . S
N311 C348 1.423 . S
H312 C338 0.930 . S
H313 C341 0.931 . S
H314 C340 0.929 . S
H315 C343 0.930 . S
H316 C344 0.932 . S
H317 C347 0.929 . S
H318 C346 0.931 . S
H319 C349 0.929 . S
H320 C353 0.932 . S
H321 C350 0.931 . S
H322 C352 0.929 . S
H323 C355 0.929 . S
H324 C356 0.930 . S
H325 C358 0.929 . S
H326 C359 0.931 . S
H327 C361 0.930 . S
H328 C362 0.932 . S
H329 C364 0.931 . S
H330 C365 0.929 . S
H331 C367 0.929 . S
H332 C368 0.931 . S
H333 C370 0.929 . S
N334 C354 1.433 . S
N334 C360 1.435 . S
N334 C366 1.423 . S
H335 C371 0.932 . S
C336 N311 1.433 . S
C336 C337 1.363 . S
C336 C341 1.370 . S
C337 H310 0.929 . S
C337 C336 1.363 . S
C337 C338 1.385 . S
C338 H312 0.930 . S
C338 C337 1.385 . S
C338 C339 1.357 . S
C339 C338 1.357 . S
C339 C340 1.406 . S
C340 H314 0.929 . S
C340 C339 1.406 . S
C340 C341 1.391 . S
C341 H313 0.931 . S
C341 C336 1.370 . S
C341 C340 1.391 . S
C342 N311 1.435 . S
C342 C343 1.358 . S
C342 C347 1.371 . S
C343 H315 0.930 . S
C343 C342 1.358 . S
C343 C344 1.405 . S
C344 H316 0.932 . S
C344 C343 1.405 . S
C344 C345 1.383 . S
C345 C344 1.383 . S
C345 C346 1.393 . S
C346 H318 0.931 . S
C346 C345 1.393 . S
C346 C347 1.382 . S
C347 H317 0.929 . S
C347 C342 1.371 . S
C347 C346 1.382 . S
C348 N311 1.423 . S
C348 C349 1.362 . S
C348 C353 1.388 . S
C349 H319 0.929 . S
C349 C348 1.362 . S
C349 C350 1.376 . S
C350 H321 0.931 . S
C350 C349 1.376 . S
C350 C351 1.396 . S
C351 C350 1.396 . S
C351 C352 1.348 . S
C351 C369 1.472 . S
C352 H322 0.929 . S
C352 C351 1.348 . S
C352 C353 1.443 . S
C353 H320 0.932 . S
C353 C348 1.388 . S
C353 C352 1.443 . S
C354 N334 1.433 . S
C354 C355 1.363 . S
C354 C359 1.370 . S
C355 H323 0.929 . S
C355 C354 1.363 . S
C355 C356 1.385 . S
C356 H324 0.930 . S
C356 C355 1.385 . S
C356 C357 1.357 . S
C357 C356 1.357 . S
C357 C358 1.406 . S
C358 H325 0.929 . S
C358 C357 1.406 . S
C358 C359 1.391 . S
C359 H326 0.931 . S
C359 C354 1.370 . S
C359 C358 1.391 . S
C360 N334 1.435 . S
C360 C361 1.358 . S
C360 C365 1.371 . S
C361 H327 0.930 . S
C361 C360 1.358 . S
C361 C362 1.405 . S
C362 H328 0.932 . S
C362 C361 1.405 . S
C362 C363 1.383 . S
C363 C362 1.383 . S
C363 C364 1.393 . S
C364 H329 0.931 . S
C364 C363 1.393 . S
C364 C365 1.382 . S
C365 H330 0.929 . S
C365 C360 1.371 . S
C365 C364 1.382 . S
C366 N334 1.423 . S
C366 C367 1.362 . S
C366 C371 1.388 . S
C367 H331 0.929 . S
C367 C366 1.362 . S
C367 C368 1.376 . S
C368 H332 0.931 . S
C368 C367 1.376 . S
C368 C369 1.396 . S
C369 C351 1.472 . S
C369 C368 1.396 . S
C369 C370 1.348 . S
C370 H333 0.929 . S
C370 C369 1.348 . S
C370 C371 1.443 . S
C371 H335 0.932 . S
C371 C366 1.388 . S
C371 C370 1.443 . S
O372 Cd373 2.223 . S
O372 C380 1.315 . S
Cd373 O372 2.223 . S
Cd373 O376 2.297 . S
Cd373 O377 2.439 . S
Cd373 O383 2.240 . S
Cd374 O375 2.240 . S
Cd374 O382 2.223 . S
Cd374 O384 2.297 . S
Cd374 O385 2.439 . S
O375 Cd374 2.240 . S
O375 C380 1.279 . S
O376 Cd373 2.297 . S
O376 C378 1.247 . S
O377 Cd373 2.439 . S
O377 C378 1.208 . S
C378 O376 1.247 . S
C378 O377 1.208 . S
C379 O384 1.247 . S
C379 O385 1.208 . S
C380 O372 1.315 . S
C380 O375 1.279 . S
C381 O382 1.315 . S
C381 O383 1.279 . S
O382 Cd374 2.223 . S
O382 C381 1.315 . S
O383 Cd373 2.240 . S
O383 C381 1.279 . S
O384 Cd374 2.297 . S
O384 C379 1.247 . S
O385 Cd374 2.439 . S
O385 C379 1.208 . S
O386 Cd387 2.223 . S
O386 C394 1.315 . S
Cd387 O386 2.223 . S
Cd387 O390 2.297 . S
Cd387 O391 2.439 . S
Cd387 O397 2.240 . S
Cd388 O389 2.240 . S
Cd388 O396 2.223 . S
Cd388 O398 2.297 . S
Cd388 O399 2.439 . S
O389 Cd388 2.240 . S
O389 C394 1.279 . S
O390 Cd387 2.297 . S
O390 C392 1.247 . S
O391 Cd387 2.439 . S
O391 C392 1.208 . S
C392 O390 1.247 . S
C392 O391 1.208 . S
C393 O398 1.247 . S
C393 O399 1.208 . S
C394 O386 1.315 . S
C394 O389 1.279 . S
C395 O396 1.315 . S
C395 O397 1.279 . S
O396 Cd388 2.223 . S
O396 C395 1.315 . S
O397 Cd387 2.240 . S
O397 C395 1.279 . S
O398 Cd388 2.297 . S
O398 C393 1.247 . S
O399 Cd388 2.439 . S
O399 C393 1.208 . S
O400 Cd401 2.223 . S
O400 C408 1.315 . S
Cd401 O400 2.223 . S
Cd401 O404 2.297 . S
Cd401 O405 2.439 . S
Cd401 O411 2.240 . S
Cd402 O403 2.240 . S
Cd402 O410 2.223 . S
Cd402 O412 2.297 . S
Cd402 O413 2.439 . S
O403 Cd402 2.240 . S
O403 C408 1.279 . S
O404 Cd401 2.297 . S
O404 C406 1.247 . S
O405 Cd401 2.439 . S
O405 C406 1.208 . S
C406 O404 1.247 . S
C406 O405 1.208 . S
C407 O412 1.247 . S
C407 O413 1.208 . S
C408 O400 1.315 . S
C408 O403 1.279 . S
C409 O410 1.315 . S
C409 O411 1.279 . S
O410 Cd402 2.223 . S
O410 C409 1.315 . S
O411 Cd401 2.240 . S
O411 C409 1.279 . S
O412 Cd402 2.297 . S
O412 C407 1.247 . S
O413 Cd402 2.439 . S
O413 C407 1.208 . S
O414 Cd415 2.223 . S
O414 C422 1.315 . S
Cd415 O414 2.223 . S
Cd415 O418 2.297 . S
Cd415 O419 2.439 . S
Cd415 O425 2.240 . S
Cd416 O417 2.240 . S
Cd416 O424 2.223 . S
Cd416 O426 2.297 . S
Cd416 O427 2.439 . S
O417 Cd416 2.240 . S
O417 C422 1.279 . S
O418 Cd415 2.297 . S
O418 C420 1.247 . S
O419 Cd415 2.439 . S
O419 C420 1.208 . S
C420 O418 1.247 . S
C420 O419 1.208 . S
C421 O426 1.247 . S
C421 O427 1.208 . S
C422 O414 1.315 . S
C422 O417 1.279 . S
C423 O424 1.315 . S
C423 O425 1.279 . S
O424 Cd416 2.223 . S
O424 C423 1.315 . S
O425 Cd415 2.240 . S
O425 C423 1.279 . S
O426 Cd416 2.297 . S
O426 C421 1.247 . S
O427 Cd416 2.439 . S
O427 C421 1.208 . S
O428 Cd429 2.223 . S
O428 C436 1.315 . S
Cd429 O428 2.223 . S
Cd429 O432 2.297 . S
Cd429 O433 2.439 . S
Cd429 O439 2.240 . S
Cd430 O431 2.240 . S
Cd430 O438 2.223 . S
Cd430 O440 2.297 . S
Cd430 O441 2.439 . S
O431 Cd430 2.240 . S
O431 C436 1.279 . S
O432 Cd429 2.297 . S
O432 C434 1.247 . S
O433 Cd429 2.439 . S
O433 C434 1.208 . S
C434 O432 1.247 . S
C434 O433 1.208 . S
C435 O440 1.247 . S
C435 O441 1.208 . S
C436 O428 1.315 . S
C436 O431 1.279 . S
C437 O438 1.315 . S
C437 O439 1.279 . S
O438 Cd430 2.223 . S
O438 C437 1.315 . S
O439 Cd429 2.240 . S
O439 C437 1.279 . S
O440 Cd430 2.297 . S
O440 C435 1.247 . S
O441 Cd430 2.439 . S
O441 C435 1.208 . S
O442 Cd443 2.223 . S
O442 C450 1.315 . S
Cd443 O442 2.223 . S
Cd443 O446 2.297 . S
Cd443 O447 2.439 . S
Cd443 O453 2.240 . S
Cd444 O445 2.240 . S
Cd444 O452 2.223 . S
Cd444 O454 2.297 . S
Cd444 O455 2.439 . S
O445 Cd444 2.240 . S
O445 C450 1.279 . S
O446 Cd443 2.297 . S
O446 C448 1.247 . S
O447 Cd443 2.439 . S
O447 C448 1.208 . S
C448 O446 1.247 . S
C448 O447 1.208 . S
C449 O454 1.247 . S
C449 O455 1.208 . S
C450 O442 1.315 . S
C450 O445 1.279 . S
C451 O452 1.315 . S
C451 O453 1.279 . S
O452 Cd444 2.223 . S
O452 C451 1.315 . S
O453 Cd443 2.240 . S
O453 C451 1.279 . S
O454 Cd444 2.297 . S
O454 C449 1.247 . S
O455 Cd444 2.439 . S
O455 C449 1.208 . S
H456 C462 0.930 . S
H457 C466 0.930 . S
H458 C471 0.929 . S
H459 C469 0.929 . S
H460 C464 0.929 . S
H461 C470 0.929 . S
C462 H456 0.930 . S
C462 C463 1.367 . S
C462 C470 1.378 . S
C463 C462 1.367 . S
C463 C471 1.433 . S
C464 H460 0.929 . S
C464 C466 1.378 . S
C464 C468 1.350 . S
C465 C468 1.463 . S
C465 C470 1.350 . S
C465 N473 1.427 . S
C466 H457 0.930 . S
C466 C464 1.378 . S
C466 C467 1.367 . S
C467 C466 1.367 . S
C467 C469 1.433 . S
C468 C464 1.350 . S
C468 C465 1.463 . S
C468 N472 1.427 . S
C469 H459 0.929 . S
C469 C467 1.433 . S
C469 N472 1.384 . S
C470 H461 0.929 . S
C470 C462 1.378 . S
C470 C465 1.350 . S
C471 H458 0.929 . S
C471 C463 1.433 . S
C471 N473 1.384 . S
N472 C468 1.427 . S
N472 C469 1.384 . S
N473 C465 1.427 . S
N473 C471 1.384 . S
H474 C480 0.930 . S
H475 C484 0.930 . S
H476 C489 0.929 . S
H477 C487 0.929 . S
H478 C482 0.929 . S
H479 C488 0.929 . S
C480 H474 0.930 . S
C480 C481 1.367 . S
C480 C488 1.378 . S
C481 C480 1.367 . S
C481 C489 1.433 . S
C482 H478 0.929 . S
C482 C484 1.378 . S
C482 C486 1.350 . S
C483 C486 1.463 . S
C483 C488 1.350 . S
C483 N491 1.427 . S
C484 H475 0.930 . S
C484 C482 1.378 . S
C484 C485 1.367 . S
C485 C484 1.367 . S
C485 C487 1.433 . S
C486 C482 1.350 . S
C486 C483 1.463 . S
C486 N490 1.427 . S
C487 H477 0.929 . S
C487 C485 1.433 . S
C487 N490 1.384 . S
C488 H479 0.929 . S
C488 C480 1.378 . S
C488 C483 1.350 . S
C489 H476 0.929 . S
C489 C481 1.433 . S
C489 N491 1.384 . S
N490 C486 1.427 . S
N490 C487 1.384 . S
N491 C483 1.427 . S
N491 C489 1.384 . S
H492 C498 0.930 . S
H493 C502 0.930 . S
H494 C507 0.929 . S
H495 C505 0.929 . S
H496 C500 0.929 . S
H497 C506 0.929 . S
C498 H492 0.930 . S
C498 C499 1.367 . S
C498 C506 1.378 . S
C499 C498 1.367 . S
C499 C507 1.433 . S
C500 H496 0.929 . S
C500 C502 1.378 . S
C500 C504 1.350 . S
C501 C504 1.463 . S
C501 C506 1.350 . S
C501 N509 1.427 . S
C502 H493 0.930 . S
C502 C500 1.378 . S
C502 C503 1.367 . S
C503 C502 1.367 . S
C503 C505 1.433 . S
C504 C500 1.350 . S
C504 C501 1.463 . S
C504 N508 1.427 . S
C505 H495 0.929 . S
C505 C503 1.433 . S
C505 N508 1.384 . S
C506 H497 0.929 . S
C506 C498 1.378 . S
C506 C501 1.350 . S
C507 H494 0.929 . S
C507 C499 1.433 . S
C507 N509 1.384 . S
N508 C504 1.427 . S
N508 C505 1.384 . S
N509 C501 1.427 . S
N509 C507 1.384 . S
H510 C516 0.930 . S
H511 C520 0.930 . S
H512 C525 0.929 . S
H513 C523 0.929 . S
H514 C518 0.929 . S
H515 C524 0.929 . S
C516 H510 0.930 . S
C516 C517 1.367 . S
C516 C524 1.378 . S
C517 C516 1.367 . S
C517 C525 1.433 . S
C518 H514 0.929 . S
C518 C520 1.378 . S
C518 C522 1.350 . S
C519 C522 1.463 . S
C519 C524 1.350 . S
C519 N527 1.427 . S
C520 H511 0.930 . S
C520 C518 1.378 . S
C520 C521 1.367 . S
C521 C520 1.367 . S
C521 C523 1.433 . S
C522 C518 1.350 . S
C522 C519 1.463 . S
C522 N526 1.427 . S
C523 H513 0.929 . S
C523 C521 1.433 . S
C523 N526 1.384 . S
C524 H515 0.929 . S
C524 C516 1.378 . S
C524 C519 1.350 . S
C525 H512 0.929 . S
C525 C517 1.433 . S
C525 N527 1.384 . S
N526 C522 1.427 . S
N526 C523 1.384 . S
N527 C519 1.427 . S
N527 C525 1.384 . S
H528 C534 0.930 . S
H529 C538 0.930 . S
H530 C543 0.929 . S
H531 C541 0.929 . S
H532 C536 0.929 . S
H533 C542 0.929 . S
C534 H528 0.930 . S
C534 C535 1.367 . S
C534 C542 1.378 . S
C535 C534 1.367 . S
C535 C543 1.433 . S
C536 H532 0.929 . S
C536 C538 1.378 . S
C536 C540 1.350 . S
C537 C540 1.463 . S
C537 C542 1.350 . S
C537 N545 1.427 . S
C538 H529 0.930 . S
C538 C536 1.378 . S
C538 C539 1.367 . S
C539 C538 1.367 . S
C539 C541 1.433 . S
C540 C536 1.350 . S
C540 C537 1.463 . S
C540 N544 1.427 . S
C541 H531 0.929 . S
C541 C539 1.433 . S
C541 N544 1.384 . S
C542 H533 0.929 . S
C542 C534 1.378 . S
C542 C537 1.350 . S
C543 H530 0.929 . S
C543 C535 1.433 . S
C543 N545 1.384 . S
N544 C540 1.427 . S
N544 C541 1.384 . S
N545 C537 1.427 . S
N545 C543 1.384 . S
H546 C552 0.930 . S
H547 C556 0.930 . S
H548 C561 0.929 . S
H549 C559 0.929 . S
H550 C554 0.929 . S
H551 C560 0.929 . S
C552 H546 0.930 . S
C552 C553 1.367 . S
C552 C560 1.378 . S
C553 C552 1.367 . S
C553 C561 1.433 . S
C554 H550 0.929 . S
C554 C556 1.378 . S
C554 C558 1.350 . S
C555 C558 1.463 . S
C555 C560 1.350 . S
C555 N563 1.427 . S
C556 H547 0.930 . S
C556 C554 1.378 . S
C556 C557 1.367 . S
C557 C556 1.367 . S
C557 C559 1.433 . S
C558 C554 1.350 . S
C558 C555 1.463 . S
C558 N562 1.427 . S
C559 H549 0.929 . S
C559 C557 1.433 . S
C559 N562 1.384 . S
C560 H551 0.929 . S
C560 C552 1.378 . S
C560 C555 1.350 . S
C561 H548 0.929 . S
C561 C553 1.433 . S
C561 N563 1.384 . S
N562 C558 1.427 . S
N562 C559 1.384 . S
N563 C555 1.427 . S
N563 C561 1.384 . S
H564 C570 0.930 . S
H565 C574 0.930 . S
H566 C579 0.929 . S
H567 C577 0.929 . S
H568 C572 0.929 . S
H569 C578 0.929 . S
C570 H564 0.930 . S
C570 C571 1.367 . S
C570 C578 1.378 . S
C571 C570 1.367 . S
C571 C579 1.433 . S
C572 H568 0.929 . S
C572 C574 1.378 . S
C572 C576 1.350 . S
C573 C576 1.463 . S
C573 C578 1.350 . S
C573 N581 1.427 . S
C574 H565 0.930 . S
C574 C572 1.378 . S
C574 C575 1.367 . S
C575 C574 1.367 . S
C575 C577 1.433 . S
C576 C572 1.350 . S
C576 C573 1.463 . S
C576 N580 1.427 . S
C577 H567 0.929 . S
C577 C575 1.433 . S
C577 N580 1.384 . S
C578 H569 0.929 . S
C578 C570 1.378 . S
C578 C573 1.350 . S
C579 H566 0.929 . S
C579 C571 1.433 . S
C579 N581 1.384 . S
N580 C576 1.427 . S
N580 C577 1.384 . S
N581 C573 1.427 . S
N581 C579 1.384 . S
H582 C588 0.930 . S
H583 C592 0.930 . S
H584 C597 0.929 . S
H585 C595 0.929 . S
H586 C590 0.929 . S
H587 C596 0.929 . S
C588 H582 0.930 . S
C588 C589 1.367 . S
C588 C596 1.378 . S
C589 C588 1.367 . S
C589 C597 1.433 . S
C590 H586 0.929 . S
C590 C592 1.378 . S
C590 C594 1.350 . S
C591 C594 1.463 . S
C591 C596 1.350 . S
C591 N599 1.427 . S
C592 H583 0.930 . S
C592 C590 1.378 . S
C592 C593 1.367 . S
C593 C592 1.367 . S
C593 C595 1.433 . S
C594 C590 1.350 . S
C594 C591 1.463 . S
C594 N598 1.427 . S
C595 H585 0.929 . S
C595 C593 1.433 . S
C595 N598 1.384 . S
C596 H587 0.929 . S
C596 C588 1.378 . S
C596 C591 1.350 . S
C597 H584 0.929 . S
C597 C589 1.433 . S
C597 N599 1.384 . S
N598 C594 1.427 . S
N598 C595 1.384 . S
N599 C591 1.427 . S
N599 C597 1.384 . S
H600 C606 0.930 . S
H601 C610 0.930 . S
H602 C615 0.929 . S
H603 C613 0.929 . S
H604 C608 0.929 . S
H605 C614 0.929 . S
C606 H600 0.930 . S
C606 C607 1.367 . S
C606 C614 1.378 . S
C607 C606 1.367 . S
C607 C615 1.433 . S
C608 H604 0.929 . S
C608 C610 1.378 . S
C608 C612 1.350 . S
C609 C612 1.463 . S
C609 C614 1.350 . S
C609 N617 1.427 . S
C610 H601 0.930 . S
C610 C608 1.378 . S
C610 C611 1.367 . S
C611 C610 1.367 . S
C611 C613 1.433 . S
C612 C608 1.350 . S
C612 C609 1.463 . S
C612 N616 1.427 . S
C613 H603 0.929 . S
C613 C611 1.433 . S
C613 N616 1.384 . S
C614 H605 0.929 . S
C614 C606 1.378 . S
C614 C609 1.350 . S
C615 H602 0.929 . S
C615 C607 1.433 . S
C615 N617 1.384 . S
N616 C612 1.427 . S
N616 C613 1.384 . S
N617 C609 1.427 . S
N617 C615 1.384 . S
H618 C624 0.930 . S
H619 C628 0.930 . S
H620 C633 0.929 1_556 S
H621 C631 0.929 . S
H622 C626 0.929 . S
H623 C632 0.929 . S
C624 H618 0.930 . S
C624 C625 1.367 . S
C624 C632 1.378 . S
C625 C624 1.367 . S
C625 C633 1.433 . S
C626 H622 0.929 . S
C626 C628 1.378 . S
C626 C630 1.350 . S
C627 C630 1.463 . S
C627 C632 1.350 . S
C627 N635 1.427 . S
C628 H619 0.930 . S
C628 C626 1.378 . S
C628 C629 1.367 . S
C629 C628 1.367 . S
C629 C631 1.433 . S
C630 C626 1.350 . S
C630 C627 1.463 . S
C630 N634 1.427 . S
C631 H621 0.929 . S
C631 C629 1.433 . S
C631 N634 1.384 . S
C632 H623 0.929 . S
C632 C624 1.378 . S
C632 C627 1.350 . S
C633 H620 0.929 1_554 S
C633 C625 1.433 . S
C633 N635 1.384 . S
N634 C630 1.427 . S
N634 C631 1.384 . S
N635 C627 1.427 . S
N635 C633 1.384 . S
H636 C642 0.930 . S
H637 C646 0.930 . S
H638 C651 0.929 . S
H639 C649 0.929 . S
H640 C644 0.929 . S
H641 C650 0.929 . S
C642 H636 0.930 . S
C642 C643 1.367 . S
C642 C650 1.378 . S
C643 C642 1.367 . S
C643 C651 1.433 . S
C644 H640 0.929 . S
C644 C646 1.378 . S
C644 C648 1.350 . S
C645 C648 1.463 . S
C645 C650 1.350 . S
C645 N653 1.427 . S
C646 H637 0.930 . S
C646 C644 1.378 . S
C646 C647 1.367 . S
C647 C646 1.367 . S
C647 C649 1.433 . S
C648 C644 1.350 . S
C648 C645 1.463 . S
C648 N652 1.427 . S
C649 H639 0.929 . S
C649 C647 1.433 . S
C649 N652 1.384 . S
C650 H641 0.929 . S
C650 C642 1.378 . S
C650 C645 1.350 . S
C651 H638 0.929 . S
C651 C643 1.433 . S
C651 N653 1.384 . S
N652 C648 1.427 . S
N652 C649 1.384 . S
N653 C645 1.427 . S
N653 C651 1.384 . S
H654 C660 0.930 . S
H655 C664 0.930 . S
H656 C669 0.929 . S
H657 C667 0.929 . S
H658 C662 0.929 . S
H659 C668 0.929 . S
C660 H654 0.930 . S
C660 C661 1.367 . S
C660 C668 1.378 . S
C661 C660 1.367 . S
C661 C669 1.433 . S
C662 H658 0.929 . S
C662 C664 1.378 . S
C662 C666 1.350 . S
C663 C666 1.463 . S
C663 C668 1.350 . S
C663 N671 1.427 . S
C664 H655 0.930 . S
C664 C662 1.378 . S
C664 C665 1.367 . S
C665 C664 1.367 . S
C665 C667 1.433 . S
C666 C662 1.350 . S
C666 C663 1.463 . S
C666 N670 1.427 . S
C667 H657 0.929 . S
C667 C665 1.433 . S
C667 N670 1.384 . S
C668 H659 0.929 . S
C668 C660 1.378 . S
C668 C663 1.350 . S
C669 H656 0.929 . S
C669 C661 1.433 . S
C669 N671 1.384 . S
N670 C666 1.427 . S
N670 C667 1.384 . S
N671 C663 1.427 . S
N671 C669 1.384 . S
H672 C678 0.930 . S
H673 C682 0.930 . S
H674 C687 0.929 . S
H675 C685 0.929 . S
H676 C680 0.929 . S
H677 C686 0.929 . S
C678 H672 0.930 . S
C678 C679 1.367 . S
C678 C686 1.378 . S
C679 C678 1.367 . S
C679 C687 1.433 . S
C680 H676 0.929 . S
C680 C682 1.378 . S
C680 C684 1.350 . S
C681 C684 1.463 . S
C681 C686 1.350 . S
C681 N689 1.427 . S
C682 H673 0.930 . S
C682 C680 1.378 . S
C682 C683 1.367 . S
C683 C682 1.367 . S
C683 C685 1.433 . S
C684 C680 1.350 . S
C684 C681 1.463 . S
C684 N688 1.427 . S
C685 H675 0.929 . S
C685 C683 1.433 . S
C685 N688 1.384 . S
C686 H677 0.929 . S
C686 C678 1.378 . S
C686 C681 1.350 . S
C687 H674 0.929 . S
C687 C679 1.433 . S
C687 N689 1.384 . S
N688 C684 1.427 . S
N688 C685 1.384 . S
N689 C681 1.427 . S
N689 C687 1.384 . S
H690 C696 0.930 . S
H691 C700 0.930 . S
H692 C705 0.929 . S
H693 C703 0.929 . S
H694 C698 0.929 . S
H695 C704 0.929 . S
C696 H690 0.930 . S
C696 C697 1.367 . S
C696 C704 1.378 . S
C697 C696 1.367 . S
C697 C705 1.433 . S
C698 H694 0.929 . S
C698 C700 1.378 . S
C698 C702 1.350 . S
C699 C702 1.463 . S
C699 C704 1.350 . S
C699 N707 1.427 . S
C700 H691 0.930 . S
C700 C698 1.378 . S
C700 C701 1.367 . S
C701 C700 1.367 . S
C701 C703 1.433 . S
C702 C698 1.350 . S
C702 C699 1.463 . S
C702 N706 1.427 . S
C703 H693 0.929 . S
C703 C701 1.433 . S
C703 N706 1.384 . S
C704 H695 0.929 . S
C704 C696 1.378 . S
C704 C699 1.350 . S
C705 H692 0.929 . S
C705 C697 1.433 . S
C705 N707 1.384 . S
N706 C702 1.427 . S
N706 C703 1.384 . S
N707 C699 1.427 . S
N707 C705 1.384 . S
H708 C714 0.930 . S
H709 C718 0.930 . S
H710 C723 0.929 . S
H711 C721 0.929 . S
H712 C716 0.929 . S
H713 C722 0.929 . S
C714 H708 0.930 . S
C714 C715 1.367 . S
C714 C722 1.378 . S
C715 C714 1.367 . S
C715 C723 1.433 . S
C716 H712 0.929 . S
C716 C718 1.378 . S
C716 C720 1.350 . S
C717 C720 1.463 . S
C717 C722 1.350 . S
C717 N725 1.427 . S
C718 H709 0.930 . S
C718 C716 1.378 . S
C718 C719 1.367 . S
C719 C718 1.367 . S
C719 C721 1.433 . S
C720 C716 1.350 . S
C720 C717 1.463 . S
C720 N724 1.427 . S
C721 H711 0.929 . S
C721 C719 1.433 . S
C721 N724 1.384 . S
C722 H713 0.929 . S
C722 C714 1.378 . S
C722 C717 1.350 . S
C723 H710 0.929 . S
C723 C715 1.433 . S
C723 N725 1.384 . S
N724 C720 1.427 . S
N724 C721 1.384 . S
N725 C717 1.427 . S
N725 C723 1.384 . S
H726 C732 0.930 . S
H727 C736 0.931 1_554 S
H728 C741 0.929 . S
H729 C739 0.929 . S
H730 C734 0.929 . S
H731 C740 0.929 . S
C732 H726 0.930 . S
C732 C733 1.367 . S
C732 C740 1.378 . S
C733 C732 1.367 . S
C733 C741 1.433 . S
C734 H730 0.929 . S
C734 C736 1.376 . S
C734 C738 1.350 . S
C735 C738 1.463 . S
C735 C740 1.350 . S
C735 N743 1.427 . S
C736 H727 0.931 1_556 S
C736 C734 1.376 . S
C736 C737 1.368 1_556 S
C737 C736 1.368 1_554 S
C737 C739 1.433 . S
C738 C734 1.350 . S
C738 C735 1.463 . S
C738 N742 1.427 . S
C739 H729 0.929 . S
C739 C737 1.433 . S
C739 N742 1.384 1_554 S
C740 H731 0.929 . S
C740 C732 1.378 . S
C740 C735 1.350 . S
C741 H728 0.929 . S
C741 C733 1.433 . S
C741 N743 1.384 . S
N742 C738 1.427 . S
N742 C739 1.384 1_556 S
N743 C735 1.427 . S
N743 C741 1.384 . S
H744 C750 0.930 . S
H745 C754 0.930 . S
H746 C759 0.929 . S
H747 C757 0.929 . S
H748 C752 0.929 . S
H749 C758 0.929 . S
C750 H744 0.930 . S
C750 C751 1.367 . S
C750 C758 1.378 . S
C751 C750 1.367 . S
C751 C759 1.433 . S
C752 H748 0.929 . S
C752 C754 1.378 . S
C752 C756 1.350 . S
C753 C756 1.463 . S
C753 C758 1.350 . S
C753 N761 1.427 . S
C754 H745 0.930 . S
C754 C752 1.378 . S
C754 C755 1.367 . S
C755 C754 1.367 . S
C755 C757 1.433 . S
C756 C752 1.350 . S
C756 C753 1.463 . S
C756 N760 1.427 . S
C757 H747 0.929 . S
C757 C755 1.433 . S
C757 N760 1.384 . S
C758 H749 0.929 . S
C758 C750 1.378 . S
C758 C753 1.350 . S
C759 H746 0.929 . S
C759 C751 1.433 . S
C759 N761 1.384 . S
N760 C756 1.427 . S
N760 C757 1.384 . S
N761 C753 1.427 . S
N761 C759 1.384 . S
H762 C768 0.930 . S
H763 C772 0.930 . S
H764 C777 0.929 . S
H765 C775 0.929 . S
H766 C770 0.929 . S
H767 C776 0.929 . S
C768 H762 0.930 . S
C768 C769 1.367 . S
C768 C776 1.378 . S
C769 C768 1.367 . S
C769 C777 1.433 . S
C770 H766 0.929 . S
C770 C772 1.378 . S
C770 C774 1.350 . S
C771 C774 1.463 . S
C771 C776 1.350 . S
C771 N779 1.427 . S
C772 H763 0.930 . S
C772 C770 1.378 . S
C772 C773 1.367 . S
C773 C772 1.367 . S
C773 C775 1.433 . S
C774 C770 1.350 . S
C774 C771 1.463 . S
C774 N778 1.427 . S
C775 H765 0.929 . S
C775 C773 1.433 . S
C775 N778 1.384 . S
C776 H767 0.929 . S
C776 C768 1.378 . S
C776 C771 1.350 . S
C777 H764 0.929 . S
C777 C769 1.433 . S
C777 N779 1.384 . S
N778 C774 1.427 . S
N778 C775 1.384 . S
N779 C771 1.427 . S
N779 C777 1.384 . S
H780 C786 0.930 . S
H781 C790 0.930 . S
H782 C795 0.929 . S
H783 C793 0.929 . S
H784 C788 0.929 . S
H785 C794 0.929 . S
C786 H780 0.930 . S
C786 C787 1.367 . S
C786 C794 1.378 . S
C787 C786 1.367 . S
C787 C795 1.433 . S
C788 H784 0.929 . S
C788 C790 1.378 . S
C788 C792 1.350 . S
C789 C792 1.463 . S
C789 C794 1.350 . S
C789 N797 1.427 . S
C790 H781 0.930 . S
C790 C788 1.378 . S
C790 C791 1.367 . S
C791 C790 1.367 . S
C791 C793 1.433 . S
C792 C788 1.350 . S
C792 C789 1.463 . S
C792 N796 1.427 . S
C793 H783 0.929 . S
C793 C791 1.433 . S
C793 N796 1.384 . S
C794 H785 0.929 . S
C794 C786 1.378 . S
C794 C789 1.350 . S
C795 H782 0.929 . S
C795 C787 1.433 . S
C795 N797 1.384 . S
N796 C792 1.427 . S
N796 C793 1.384 . S
N797 C789 1.427 . S
N797 C795 1.384 . S
H798 C804 0.930 . S
H799 C808 0.930 . S
H800 C813 0.929 . S
H801 C811 0.929 . S
H802 C806 0.929 . S
H803 C812 0.929 . S
C804 H798 0.930 . S
C804 C805 1.367 . S
C804 C812 1.378 . S
C805 C804 1.367 . S
C805 C813 1.433 . S
C806 H802 0.929 . S
C806 C808 1.378 . S
C806 C810 1.350 . S
C807 C810 1.463 . S
C807 C812 1.350 . S
C807 N815 1.427 . S
C808 H799 0.930 . S
C808 C806 1.378 . S
C808 C809 1.367 . S
C809 C808 1.367 . S
C809 C811 1.433 . S
C810 C806 1.350 . S
C810 C807 1.463 . S
C810 N814 1.427 . S
C811 H801 0.929 . S
C811 C809 1.433 . S
C811 N814 1.384 . S
C812 H803 0.929 . S
C812 C804 1.378 . S
C812 C807 1.350 . S
C813 H800 0.929 . S
C813 C805 1.433 . S
C813 N815 1.384 . S
N814 C810 1.427 . S
N814 C811 1.384 . S
N815 C807 1.427 . S
N815 C813 1.384 . S
H816 C822 0.930 . S
H817 C826 0.930 . S
H818 C831 0.929 . S
H819 C829 0.929 . S
H820 C824 0.929 . S
H821 C830 0.929 . S
C822 H816 0.930 . S
C822 C823 1.367 . S
C822 C830 1.378 . S
C823 C822 1.367 . S
C823 C831 1.433 . S
C824 H820 0.929 . S
C824 C826 1.378 . S
C824 C828 1.350 . S
C825 C828 1.463 . S
C825 C830 1.350 . S
C825 N833 1.427 . S
C826 H817 0.930 . S
C826 C824 1.378 . S
C826 C827 1.367 . S
C827 C826 1.367 . S
C827 C829 1.433 . S
C828 C824 1.350 . S
C828 C825 1.463 . S
C828 N832 1.427 . S
C829 H819 0.929 . S
C829 C827 1.433 . S
C829 N832 1.384 . S
C830 H821 0.929 . S
C830 C822 1.378 . S
C830 C825 1.350 . S
C831 H818 0.929 . S
C831 C823 1.433 . S
C831 N833 1.384 . S
N832 C828 1.427 . S
N832 C829 1.384 . S
N833 C825 1.427 . S
N833 C831 1.384 . S
H834 C840 0.930 . S
H835 C844 0.930 . S
H836 C849 0.929 . S
H837 C847 0.929 . S
H838 C842 0.929 . S
H839 C848 0.929 . S
C840 H834 0.930 . S
C840 C841 1.367 . S
C840 C848 1.378 . S
C841 C840 1.367 . S
C841 C849 1.433 . S
C842 H838 0.929 . S
C842 C844 1.378 . S
C842 C846 1.350 . S
C843 C846 1.463 . S
C843 C848 1.350 . S
C843 N851 1.427 . S
C844 H835 0.930 . S
C844 C842 1.378 . S
C844 C845 1.367 . S
C845 C844 1.367 . S
C845 C847 1.433 . S
C846 C842 1.350 . S
C846 C843 1.463 . S
C846 N850 1.427 . S
C847 H837 0.929 . S
C847 C845 1.433 . S
C847 N850 1.384 . S
C848 H839 0.929 . S
C848 C840 1.378 . S
C848 C843 1.350 . S
C849 H836 0.929 . S
C849 C841 1.433 . S
C849 N851 1.384 . S
N850 C846 1.427 . S
N850 C847 1.384 . S
N851 C843 1.427 . S
N851 C849 1.384 . S
H852 C858 0.930 . S
H853 C862 0.930 . S
H854 C867 0.929 . S
H855 C865 0.929 . S
H856 C860 0.929 . S
H857 C866 0.929 . S
C858 H852 0.930 . S
C858 C859 1.367 . S
C858 C866 1.378 . S
C859 C858 1.367 . S
C859 C867 1.433 . S
C860 H856 0.929 . S
C860 C862 1.378 . S
C860 C864 1.350 . S
C861 C864 1.463 . S
C861 C866 1.350 1_556 S
C861 N869 1.427 . S
C862 H853 0.930 . S
C862 C860 1.378 . S
C862 C863 1.367 . S
C863 C862 1.367 . S
C863 C865 1.433 . S
C864 C860 1.350 . S
C864 C861 1.463 . S
C864 N868 1.427 . S
C865 H855 0.929 . S
C865 C863 1.433 . S
C865 N868 1.384 . S
C866 H857 0.929 . S
C866 C858 1.378 . S
C866 C861 1.350 1_554 S
C867 H854 0.929 . S
C867 C859 1.433 . S
C867 N869 1.384 1_554 S
N868 C864 1.427 . S
N868 C865 1.384 . S
N869 C861 1.427 . S
N869 C867 1.384 1_556 S
H870 C876 0.930 . S
H871 C880 0.930 . S
H872 C885 0.929 . S
H873 C883 0.929 . S
H874 C878 0.929 . S
H875 C884 0.929 . S
C876 H870 0.930 . S
C876 C877 1.367 . S
C876 C884 1.378 . S
C877 C876 1.367 . S
C877 C885 1.433 . S
C878 H874 0.929 . S
C878 C880 1.378 . S
C878 C882 1.350 . S
C879 C882 1.463 . S
C879 C884 1.350 . S
C879 N887 1.427 . S
C880 H871 0.930 . S
C880 C878 1.378 . S
C880 C881 1.367 . S
C881 C880 1.367 . S
C881 C883 1.433 . S
C882 C878 1.350 . S
C882 C879 1.463 . S
C882 N886 1.427 . S
C883 H873 0.929 . S
C883 C881 1.433 . S
C883 N886 1.384 . S
C884 H875 0.929 . S
C884 C876 1.378 . S
C884 C879 1.350 . S
C885 H872 0.929 . S
C885 C877 1.433 . S
C885 N887 1.384 . S
N886 C882 1.427 . S
N886 C883 1.384 . S
N887 C879 1.427 . S
N887 C885 1.384 . S
C467 C449 1.526 . S
C463 C29 1.435 . S
C481 C115 1.408 . S
C485 C378 1.415 . S
C499 C153 1.450 . S
C503 C392 1.534 . S
C517 C239 1.374 . S
C521 C406 1.376 . S
C539 C420 1.461 . S
C535 C301 1.453 . S
C553 C339 1.683 . S
C557 C435 1.789 . S
C571 C91 1.448 . S
C575 C393 1.533 . S
C589 C177 1.412 . S
C593 C407 1.412 . S
C607 C215 1.420 . S
C611 C421 1.517 . S
C629 C434 1.789 . S
C625 C277 1.683 . S
C647 C448 1.459 . S
C643 C363 1.453 . S
C665 C379 1.380 . S
C661 C53 1.379 . S
C679 C35 1.604 . S
C683 C395 1.627 . S
C697 C109 1.432 . S
C701 C409 1.557 . S
C719 C423 1.490 . S
C715 C159 1.480 . S
C733 C233 1.658 . S
C737 C436 1.785 . S
C755 C450 1.613 . S
C751 C295 1.466 . S
C773 C381 1.462 . S
C769 C345 1.465 . S
C791 C451 1.491 . S
C787 C97 1.487 . S
C805 C171 1.436 . S
C809 C380 1.557 . S
C827 C394 1.633 . S
C823 C221 1.616 . S
C841 C283 1.469 . S
C845 C408 1.466 . S
C859 C357 1.454 . S
C863 C422 1.602 . S
C877 C47 1.651 . S
C881 C437 1.783 . S
