# Generated by pormake.
# Topology hwx, (6,3)-cn, num edge types: 1
# Building blocks:
#     Node 0, Type 0, BuildingBlock: IZENUY_clean_sbu_0, # of connection points: 6
#     Node 1, Type 0, BuildingBlock: IZENUY_clean_sbu_0, # of connection points: 6
#     Node 2, Type 0, BuildingBlock: IZENUY_clean_sbu_0, # of connection points: 6
#     Node 3, Type 0, BuildingBlock: IZENUY_clean_sbu_0, # of connection points: 6
#     Node 4, Type 1, BuildingBlock: PAMTOO_clean_linker_0, # of connection points: 3
#     Node 5, Type 1, BuildingBlock: PAMTOO_clean_linker_0, # of connection points: 3
#     Node 6, Type 1, BuildingBlock: PAMTOO_clean_linker_0, # of connection points: 3
#     Node 7, Type 1, BuildingBlock: PAMTOO_clean_linker_0, # of connection points: 3
#     Node 8, Type 1, BuildingBlock: PAMTOO_clean_linker_0, # of connection points: 3
#     Node 9, Type 1, BuildingBlock: PAMTOO_clean_linker_0, # of connection points: 3
#     Node 10, Type 1, BuildingBlock: PAMTOO_clean_linker_0, # of connection points: 3
#     Node 11, Type 1, BuildingBlock: PAMTOO_clean_linker_0, # of connection points: 3
#     Edge 12, Type (0, 1), BuildingBlock: EZIPEK_clean_linker_0, # of connection points: 2
#     Edge 13, Type (0, 1), BuildingBlock: EZIPEK_clean_linker_0, # of connection points: 2
#     Edge 14, Type (0, 1), BuildingBlock: EZIPEK_clean_linker_0, # of connection points: 2
#     Edge 15, Type (0, 1), BuildingBlock: EZIPEK_clean_linker_0, # of connection points: 2
#     Edge 16, Type (0, 1), BuildingBlock: EZIPEK_clean_linker_0, # of connection points: 2
#     Edge 17, Type (0, 1), BuildingBlock: EZIPEK_clean_linker_0, # of connection points: 2
#     Edge 18, Type (0, 1), BuildingBlock: EZIPEK_clean_linker_0, # of connection points: 2
#     Edge 19, Type (0, 1), BuildingBlock: EZIPEK_clean_linker_0, # of connection points: 2
#     Edge 20, Type (0, 1), BuildingBlock: EZIPEK_clean_linker_0, # of connection points: 2
#     Edge 21, Type (0, 1), BuildingBlock: EZIPEK_clean_linker_0, # of connection points: 2
#     Edge 22, Type (0, 1), BuildingBlock: EZIPEK_clean_linker_0, # of connection points: 2
#     Edge 23, Type (0, 1), BuildingBlock: EZIPEK_clean_linker_0, # of connection points: 2
#     Edge 24, Type (0, 1), BuildingBlock: EZIPEK_clean_linker_0, # of connection points: 2
#     Edge 25, Type (0, 1), BuildingBlock: EZIPEK_clean_linker_0, # of connection points: 2
#     Edge 26, Type (0, 1), BuildingBlock: EZIPEK_clean_linker_0, # of connection points: 2
#     Edge 27, Type (0, 1), BuildingBlock: EZIPEK_clean_linker_0, # of connection points: 2
#     Edge 28, Type (0, 1), BuildingBlock: EZIPEK_clean_linker_0, # of connection points: 2
#     Edge 29, Type (0, 1), BuildingBlock: EZIPEK_clean_linker_0, # of connection points: 2
#     Edge 30, Type (0, 1), BuildingBlock: EZIPEK_clean_linker_0, # of connection points: 2
#     Edge 31, Type (0, 1), BuildingBlock: EZIPEK_clean_linker_0, # of connection points: 2
#     Edge 32, Type (0, 1), BuildingBlock: EZIPEK_clean_linker_0, # of connection points: 2
#     Edge 33, Type (0, 1), BuildingBlock: EZIPEK_clean_linker_0, # of connection points: 2
#     Edge 34, Type (0, 1), BuildingBlock: EZIPEK_clean_linker_0, # of connection points: 2
#     Edge 35, Type (0, 1), BuildingBlock: EZIPEK_clean_linker_0, # of connection points: 2
# Relax obj value: 0.004
# Max RMSD: 0.056
# Mean RMSD: 0.047
data_MOF--net-hwx--node1-IZENUY_clean_sbu_0--node2-PAMTOO_clean_linker_0--edge1-EZIPEK_clean_linker_0
_symmetry_space_group_name_H-M    P1
_symmetry_Int_Tables_number       1
_symmetry_cell_setting            triclinic
loop_
_symmetry_equiv_pos_as_xyz
'x, y, z'
_cell_length_a     37.464218
_cell_length_b     37.404072
_cell_length_c     15.080652
_cell_angle_alpha  88.568253
_cell_angle_beta   91.835958
_cell_angle_gamma 89.900621
loop_
_atom_site_label
_atom_site_type_symbol
_atom_site_fract_x
_atom_site_fract_y
_atom_site_fract_z
_atom_type_partial_charge
Fe0 Fe 0.25492 0.25807 0.09781 0.0
Fe1 Fe 0.24851 0.25077 0.89536 0.0
O2 O 0.23564 0.23745 0.00353 0.0
Fe3 Fe 0.20348 0.20317 0.01659 0.0
O4 O 0.1843 0.22116 0.11698 0.0
O5 O 0.21148 0.27226 0.13487 0.0
O6 O 0.25798 0.30254 0.04336 0.0
C7 C 0.24236 0.31574 0.97416 0.0
C8 C 0.25048 0.18447 0.1514 0.0
O9 O 0.23297 0.29635 0.91002 0.0
C10 C 0.24633 0.17749 0.88157 0.0
O11 O 0.30004 0.24568 0.06755 0.0
O12 O 0.29437 0.26336 0.9282 0.0
O13 O 0.23454 0.17516 0.081 0.0
O14 O 0.25466 0.21722 0.16912 0.0
C15 C 0.17418 0.23952 0.87408 0.0
O16 O 0.26487 0.20568 0.87463 0.0
O17 O 0.21675 0.17879 0.91907 0.0
C18 C 0.31394 0.25501 0.99539 0.0
O19 O 0.20489 0.24146 0.84176 0.0
O20 O 0.17013 0.22868 0.95268 0.0
C21 C 0.18562 0.25181 0.15033 0.0
Fe22 Fe 0.27564 0.75554 0.59173 0.0
Fe23 Fe 0.31875 0.70495 0.47778 0.0
O24 O 0.28546 0.73843 0.48632 0.0
Fe25 Fe 0.26287 0.75536 0.38898 0.0
O26 O 0.27833 0.80088 0.4095 0.0
O27 O 0.26639 0.80104 0.55118 0.0
O28 O 0.32138 0.76993 0.61056 0.0
C29 C 0.34909 0.75116 0.6044 0.0
C30 C 0.20804 0.75279 0.51595 0.0
O31 O 0.34659 0.72059 0.57098 0.0
C32 C 0.2653 0.68451 0.3493 0.0
O33 O 0.28353 0.71292 0.65246 0.0
O34 O 0.29517 0.67399 0.54984 0.0
O35 O 0.22049 0.7631 0.44267 0.0
O36 O 0.22878 0.74338 0.58023 0.0
C37 C 0.33422 0.74673 0.33325 0.0
O38 O 0.29698 0.68303 0.38154 0.0
O39 O 0.2458 0.71125 0.3627 0.0
C40 C 0.28593 0.68096 0.62736 0.0
O41 O 0.34514 0.73371 0.40697 0.0
O42 O 0.30107 0.75012 0.31579 0.0
C43 C 0.27517 0.81744 0.48106 0.0
Fe44 Fe 0.77125 0.78234 0.93756 0.0
Fe45 Fe 0.76646 0.77577 0.14002 0.0
O46 O 0.78542 0.79584 0.04475 0.0
Fe47 Fe 0.81839 0.82952 0.0576 0.0
O48 O 0.7916 0.86211 0.9944 0.0
O49 O 0.77548 0.82697 0.88526 0.0
O50 O 0.72518 0.79368 0.95732 0.0
C51 C 0.70688 0.77899 0.01638 0.0
C52 C 0.84289 0.78975 0.91281 0.0
O53 O 0.72242 0.76744 0.08717 0.0
C54 C 0.83956 0.78431 0.19354 0.0
O55 O 0.76489 0.73526 0.9705 0.0
O56 O 0.78222 0.73165 0.11143 0.0
O57 O 0.84327 0.81758 0.95902 0.0
O58 O 0.816 0.76972 0.90934 0.0
C59 C 0.76821 0.84547 0.18941 0.0
O60 O 0.80703 0.78029 0.21221 0.0
O61 O 0.84774 0.79905 0.12102 0.0
C62 C 0.77582 0.717 0.03794 0.0
O63 O 0.7491 0.81849 0.17356 0.0
O64 O 0.79932 0.84807 0.1588 0.0
C65 C 0.77909 0.85785 0.91695 0.0
Fe66 Fe 0.6973 0.32432 0.50402 0.0
Fe67 Fe 0.75427 0.28012 0.60906 0.0
O68 O 0.73324 0.29327 0.5063 0.0
Fe69 Fe 0.74819 0.27581 0.40563 0.0
O70 O 0.75797 0.32005 0.36168 0.0
O71 O 0.70733 0.34488 0.39579 0.0
O72 O 0.72516 0.35852 0.55351 0.0
C73 C 0.74095 0.35466 0.62811 0.0
C74 C 0.67234 0.27829 0.3803 0.0
O75 O 0.74807 0.32376 0.6607 0.0
C76 C 0.75291 0.21546 0.5117 0.0
O77 O 0.68024 0.31011 0.61202 0.0
O78 O 0.71246 0.26293 0.65243 0.0
O79 O 0.70354 0.27605 0.35054 0.0
O80 O 0.66716 0.29206 0.4542 0.0
C81 C 0.81289 0.28752 0.50475 0.0
O82 O 0.76453 0.23404 0.5757 0.0
O83 O 0.73966 0.23018 0.44207 0.0
C84 C 0.68443 0.28154 0.6577 0.0
O85 O 0.79733 0.29666 0.57368 0.0
O86 O 0.79561 0.27265 0.44215 0.0
C87 C 0.73594 0.34541 0.35363 0.0
H88 H 0.25506 0.6301 0.99767 0.0
H89 H 0.26737 0.53215 0.86209 0.0
H90 H 0.23678 0.52783 0.13087 0.0
H91 H 0.22025 0.47873 0.88806 0.0
C92 C 0.22427 0.47095 0.95932 0.0
O93 O 0.25191 0.49044 0.99696 0.0
H94 H 0.19855 0.47814 0.98895 0.0
C95 C 0.25273 0.60124 0.99901 0.0
C96 C 0.2424 0.5826 0.07711 0.0
C97 C 0.26065 0.58344 0.9213 0.0
C98 C 0.26061 0.54612 0.92141 0.0
C99 C 0.2515 0.52666 0.99758 0.0
C100 C 0.24269 0.54463 0.07482 0.0
H101 H 0.89581 0.7667 0.55687 0.0
H102 H 0.99403 0.74851 0.42462 0.0
H103 H 0.99292 0.74725 0.71022 0.0
H104 H 0.05886 0.76677 0.67129 0.0
C105 C 0.05758 0.76544 0.59773 0.0
O106 O 0.03312 0.73971 0.57237 0.0
H107 H 0.04844 0.79262 0.57542 0.0
C108 C 0.92413 0.76044 0.55999 0.0
C109 C 0.94214 0.75739 0.64258 0.0
C110 C 0.9425 0.75728 0.48132 0.0
C111 C 0.97946 0.75052 0.4852 0.0
C112 C 0.99755 0.74626 0.56797 0.0
C113 C 0.97876 0.74948 0.64654 0.0
H114 H 0.75935 0.40317 0.98485 0.0
H115 H 0.76374 0.49855 0.13874 0.0
H116 H 0.76215 0.50638 0.8536 0.0
H117 H 0.7973 0.56357 0.90836 0.0
C118 C 0.79296 0.56405 0.98091 0.0
O119 O 0.76414 0.54269 0.0009 0.0
H120 H 0.81789 0.55269 0.01152 0.0
C121 C 0.76183 0.43201 0.98833 0.0
C122 C 0.76204 0.45273 0.90984 0.0
C123 C 0.76189 0.44827 0.07106 0.0
C124 C 0.76432 0.48567 0.07524 0.0
C125 C 0.76498 0.50663 0.99682 0.0
C126 C 0.7632 0.49013 0.91412 0.0
H127 H 0.12564 0.25882 0.514 0.0
H128 H 0.02334 0.26695 0.63181 0.0
H129 H 0.03205 0.28386 0.3501 0.0
H130 H 0.9735 0.32836 0.44407 0.0
C131 C 0.96788 0.30758 0.49564 0.0
O132 O 0.98741 0.27709 0.48123 0.0
H133 H 0.97671 0.32012 0.55863 0.0
C134 C 0.09718 0.26398 0.50675 0.0
C135 C 0.0817 0.27157 0.42241 0.0
C136 C 0.07649 0.26344 0.58224 0.0
C137 C 0.03953 0.26862 0.57367 0.0
C138 C 0.02343 0.27556 0.48989 0.0
C139 C 0.04463 0.27822 0.41464 0.0
H140 H 0.75308 0.90333 0.55593 0.0
H141 H 0.75023 1.00677 0.6692 0.0
H142 H 0.74063 0.99827 0.38865 0.0
H143 H 0.78657 0.05236 0.43563 0.0
C144 C 0.77612 0.06047 0.50034 0.0
O145 O 0.74504 0.04199 0.5174 0.0
H146 H 0.79562 0.0527 0.55447 0.0
C147 C 0.74853 0.93172 0.54596 0.0
C148 C 0.74029 0.94649 0.46032 0.0
C149 C 0.75132 0.95296 0.62112 0.0
C150 C 0.74818 0.99009 0.61151 0.0
C151 C 0.7446 1.0059 0.52688 0.0
C152 C 0.74117 0.98439 0.45192 0.0
H153 H 0.62569 0.254 0.02375 0.0
H154 H 0.52194 0.24826 0.13666 0.0
H155 H 0.5314 0.25385 0.85302 0.0
H156 H 0.47543 0.29944 0.92392 0.0
C157 C 0.46806 0.28296 0.98293 0.0
O158 O 0.48638 0.25077 0.98444 0.0
H159 H 0.47693 0.29708 0.0436 0.0
C160 C 0.59692 0.25167 0.01507 0.0
C161 C 0.58132 0.25298 0.9294 0.0
C162 C 0.57573 0.25042 0.08971 0.0
C163 C 0.53849 0.24854 0.07902 0.0
C164 C 0.52245 0.24952 0.99372 0.0
C165 C 0.54387 0.25172 0.91875 0.0
H166 H 0.27685 0.13152 0.52812 0.0
H167 H 0.28736 0.03599 0.37791 0.0
H168 H 0.27906 0.0285 0.66132 0.0
H169 H 0.31636 0.96874 0.60531 0.0
C170 C 0.30921 0.96833 0.53321 0.0
O171 O 0.28168 0.99214 0.51415 0.0
H172 H 0.3338 0.97719 0.50034 0.0
C173 C 0.28043 0.10276 0.52612 0.0
C174 C 0.27961 0.0822 0.6048 0.0
C175 C 0.28315 0.08628 0.44427 0.0
C176 C 0.28661 0.04894 0.44132 0.0
C177 C 0.28495 0.02804 0.51944 0.0
C178 C 0.28158 0.0447 0.60129 0.0
H179 H 0.39305 0.76815 0.96147 0.0
H180 H 0.49778 0.77677 0.85406 0.0
H181 H 0.48591 0.77052 0.13673 0.0
H182 H 0.54907 0.81478 0.08405 0.0
C183 C 0.55351 0.80249 0.01904 0.0
O184 O 0.53187 0.77298 0.00864 0.0
H185 H 0.54604 0.82406 0.96994 0.0
C186 C 0.42174 0.77063 0.97137 0.0
C187 C 0.43677 0.77 0.05754 0.0
C188 C 0.44353 0.77313 0.89781 0.0
C189 C 0.48072 0.77564 0.91071 0.0
C190 C 0.49601 0.7748 0.99685 0.0
C191 C 0.47401 0.7721 0.0703 0.0
C192 C 0.12193 0.24918 0.20019 0.0
C193 C 0.15737 0.26214 0.2134 0.0
C194 C 0.13719 0.29187 0.34609 0.0
C195 C 0.10517 0.2716 0.34391 0.0
N196 N 0.07095 0.22462 0.2735 0.0
N197 N 0.19977 0.29053 0.31502 0.0
C198 C 0.09839 0.24858 0.27201 0.0
C199 C 0.16538 0.28248 0.29023 0.0
N200 N 0.11011 0.23851 0.11861 0.0
N201 N 0.14085 0.31988 0.40197 0.0
H202 H 0.22202 0.28117 0.28321 0.0
H203 H 0.20635 0.30274 0.37474 0.0
H204 H 0.12026 0.3281 0.44187 0.0
H205 H 0.16268 0.33713 0.40085 0.0
H206 H 0.08369 0.23115 0.10514 0.0
H207 H 0.12521 0.24198 0.06239 0.0
H208 H 0.0674 0.20527 0.22541 0.0
H209 H 0.05424 0.22136 0.32696 0.0
C210 C 0.2526 0.62846 0.69109 0.0
C211 C 0.28253 0.6516 0.69492 0.0
C212 C 0.30214 0.6233 0.83721 0.0
C213 C 0.26939 0.60449 0.8398 0.0
N214 N 0.21155 0.59139 0.77352 0.0
N215 N 0.33612 0.6716 0.77202 0.0
C216 C 0.24424 0.60731 0.76741 0.0
C217 C 0.30749 0.64906 0.76803 0.0
N218 N 0.23213 0.62668 0.61473 0.0
N219 N 0.32848 0.61579 0.89986 0.0
H220 H 0.34278 0.68866 0.71969 0.0
H221 H 0.35243 0.67458 0.82855 0.0
H222 H 0.32549 0.59684 0.95102 0.0
H223 H 0.35433 0.62581 0.89687 0.0
H224 H 0.2122 0.60769 0.60483 0.0
H225 H 0.23703 0.64223 0.55815 0.0
H226 H 0.19057 0.59597 0.72766 0.0
H227 H 0.2043 0.57574 0.8282 0.0
C228 C 0.89164 0.80489 0.29056 0.0
C229 C 0.86819 0.77688 0.26305 0.0
C230 C 0.90143 0.73449 0.36232 0.0
C231 C 0.92204 0.763 0.39606 0.0
N232 N 0.93623 0.82563 0.39801 0.0
N233 N 0.84767 0.71598 0.28389 0.0
C234 C 0.91738 0.79821 0.36073 0.0
C235 C 0.87229 0.74191 0.30185 0.0
N236 N 0.88875 0.83825 0.25173 0.0
N237 N 0.90998 0.70015 0.38812 0.0
H238 H 0.82596 0.7198 0.24021 0.0
H239 H 0.84695 0.69143 0.31786 0.0
H240 H 0.93109 0.69403 0.43278 0.0
H241 H 0.8986 0.67772 0.35913 0.0
H242 H 0.90818 0.85792 0.25872 0.0
H243 H 0.86745 0.84636 0.21005 0.0
H244 H 0.93087 0.85257 0.38465 0.0
H245 H 0.95642 0.8215 0.44648 0.0
C246 C 0.7817 0.39573 0.71267 0.0
C247 C 0.74646 0.3861 0.6852 0.0
C248 C 0.72162 0.42628 0.79382 0.0
C249 C 0.7568 0.43456 0.82401 0.0
N250 N 0.82013 0.43366 0.80336 0.0
N251 N 0.68297 0.39836 0.68423 0.0
C252 C 0.78684 0.42141 0.78015 0.0
C253 C 0.71646 0.4036 0.7203 0.0
N254 N 0.81013 0.37978 0.67483 0.0
N255 N 0.69311 0.43856 0.83885 0.0
H256 H 0.67733 0.38067 0.63361 0.0
H257 H 0.66081 0.41348 0.69992 0.0
H258 H 0.69566 0.45684 0.88977 0.0
H259 H 0.66711 0.42933 0.82938 0.0
H260 H 0.83646 0.38204 0.69795 0.0
H261 H 0.80721 0.3634 0.62013 0.0
H262 H 0.84318 0.42748 0.77026 0.0
H263 H 0.82444 0.45232 0.85284 0.0
C264 C 0.63804 0.23419 0.28785 0.0
C265 C 0.64147 0.26943 0.32046 0.0
C266 C 0.59613 0.29093 0.21065 0.0
C267 C 0.59318 0.25582 0.17787 0.0
N268 N 0.60409 0.19278 0.19666 0.0
N269 N 0.61761 0.32965 0.32648 0.0
C270 C 0.61174 0.22699 0.22067 0.0
C271 C 0.6182 0.29712 0.28707 0.0
N272 N 0.66072 0.20787 0.31926 0.0
N273 N 0.57979 0.31884 0.16504 0.0
H274 H 0.63483 0.33685 0.37836 0.0
H275 H 0.59812 0.34896 0.31175 0.0
H276 H 0.56255 0.31548 0.11025 0.0
H277 H 0.58511 0.34559 0.17756 0.0
H278 H 0.6627 0.18281 0.29129 0.0
H279 H 0.67903 0.2118 0.37131 0.0
H280 H 0.61422 0.17016 0.23034 0.0
H281 H 0.58492 0.187 0.14734 0.0
C282 C 0.22956 0.12162 0.79533 0.0
C283 C 0.25612 0.14494 0.83065 0.0
C284 C 0.30044 0.11768 0.73632 0.0
C285 C 0.27236 0.10031 0.689 0.0
N286 N 0.20952 0.08736 0.66941 0.0
N287 N 0.31857 0.15025 0.86763 0.0
C288 C 0.23678 0.1024 0.71792 0.0
C289 C 0.29227 0.1387 0.81058 0.0
N290 N 0.19888 0.11506 0.83945 0.0
N291 N 0.33462 0.11522 0.70801 0.0
H292 H 0.31274 0.16249 0.92696 0.0
H293 H 0.34552 0.14425 0.8619 0.0
H294 H 0.34167 0.09879 0.65642 0.0
H295 H 0.35561 0.13072 0.73244 0.0
H296 H 0.17981 0.09657 0.81872 0.0
H297 H 0.19525 0.12284 0.9043 0.0
H298 H 0.18268 0.0922 0.68097 0.0
H299 H 0.21353 0.07235 0.61321 0.0
C300 C 0.38317 0.72401 0.23783 0.0
C301 C 0.3604 0.75261 0.26179 0.0
C302 C 0.39209 0.79346 0.16136 0.0
C303 C 0.41293 0.76451 0.13336 0.0
N304 N 0.42531 0.7013 0.13389 0.0
N305 N 0.33855 0.8128 0.23149 0.0
C306 C 0.40786 0.72956 0.16909 0.0
C307 C 0.36346 0.78682 0.21916 0.0
N308 N 0.38083 0.69121 0.27931 0.0
N309 N 0.40019 0.82753 0.13388 0.0
H310 H 0.31716 0.80951 0.27301 0.0
H311 H 0.33721 0.83668 0.19457 0.0
H312 H 0.42087 0.83327 0.09105 0.0
H313 H 0.38872 0.85026 0.15968 0.0
H314 H 0.40014 0.67132 0.27514 0.0
H315 H 0.36022 0.68392 0.32059 0.0
H316 H 0.41943 0.67465 0.14839 0.0
H317 H 0.44418 0.70427 0.08489 0.0
C318 C 0.79844 0.9117 0.82661 0.0
C319 C 0.77064 0.88936 0.85817 0.0
C320 C 0.72848 0.91532 0.74687 0.0
C321 C 0.75687 0.93529 0.71002 0.0
N322 N 0.81699 0.95801 0.72167 0.0
N323 N 0.70789 0.8777 0.86852 0.0
C324 C 0.7912 0.93556 0.75291 0.0
C325 C 0.73517 0.89366 0.82437 0.0
N326 N 0.8321 0.90868 0.86404 0.0
N327 N 0.69535 0.9164 0.706 0.0
H328 H 0.71219 0.86299 0.92761 0.0
H329 H 0.68097 0.88169 0.8522 0.0
H330 H 0.6888 0.93397 0.65312 0.0
H331 H 0.67467 0.8991 0.7219 0.0
H332 H 0.85463 0.92092 0.83883 0.0
H333 H 0.83822 0.89251 0.91963 0.0
H334 H 0.84147 0.96237 0.75388 0.0
H335 H 0.81341 0.9741 0.66468 0.0
C336 C 0.88996 0.7491 0.85547 0.0
C337 C 0.87236 0.7828 0.85191 0.0
C338 C 0.90978 0.80201 0.72973 0.0
C339 C 0.92256 0.76657 0.72302 0.0
N340 N 0.92274 0.70506 0.77497 0.0
N341 N 0.86046 0.83853 0.77173 0.0
C342 C 0.91239 0.73971 0.78521 0.0
C343 C 0.88119 0.80878 0.78603 0.0
N344 N 0.88568 0.72641 0.92667 0.0
N345 N 0.92472 0.82916 0.68134 0.0
H346 H 0.83731 0.8429 0.80602 0.0
H347 H 0.86378 0.85655 0.71882 0.0
H348 H 0.94605 0.8251 0.63982 0.0
H349 H 0.91844 0.856 0.68966 0.0
H350 H 0.90019 0.70281 0.9369 0.0
H351 H 0.87014 0.73305 0.97998 0.0
H352 H 0.9128 0.68373 0.81234 0.0
H353 H 0.9394 0.69729 0.72479 0.0
C354 C 0.71591 0.37995 0.21588 0.0
C355 C 0.74171 0.37397 0.28567 0.0
C356 C 0.78116 0.41833 0.21709 0.0
C357 C 0.75425 0.42582 0.15093 0.0
N358 N 0.6925 0.42108 0.10218 0.0
N359 N 0.79508 0.3934 0.3642 0.0
C360 C 0.72043 0.40902 0.15537 0.0
C361 C 0.77327 0.39496 0.28979 0.0
N362 N 0.68825 0.35663 0.20365 0.0
N363 N 0.81455 0.43239 0.20889 0.0
H364 H 0.78967 0.37721 0.4195 0.0
H365 H 0.81666 0.41051 0.37433 0.0
H366 H 0.82115 0.44987 0.15703 0.0
H367 H 0.83629 0.42465 0.24977 0.0
H368 H 0.67076 0.35784 0.14851 0.0
H369 H 0.68507 0.33373 0.24315 0.0
H370 H 0.66643 0.41192 0.10853 0.0
H371 H 0.69464 0.4429 0.05825 0.0
C372 C 0.13303 0.2811 0.78958 0.0
C373 C 0.14264 0.24556 0.81446 0.0
C374 C 0.09951 0.22249 0.70456 0.0
C375 C 0.09451 0.2578 0.67024 0.0
N376 N 0.10545 0.32114 0.6783 0.0
N377 N 0.13483 0.18199 0.80012 0.0
C378 C 0.11057 0.28734 0.71308 0.0
C379 C 0.12533 0.21607 0.77429 0.0
N380 N 0.1451 0.30869 0.84012 0.0
N381 N 0.07965 0.19523 0.66997 0.0
H382 H 0.1519 0.17636 0.85453 0.0
H383 H 0.12696 0.1593 0.76614 0.0
H384 H 0.06101 0.19913 0.61772 0.0
H385 H 0.07947 0.16936 0.69696 0.0
H386 H 0.13688 0.33512 0.83029 0.0
H387 H 0.16096 0.30456 0.89761 0.0
H388 H 0.11975 0.34334 0.69952 0.0
H389 H 0.08785 0.32682 0.62473 0.0
C390 C 0.25645 0.61944 0.30791 0.0
C391 C 0.25249 0.65663 0.28592 0.0
C392 C 0.22251 0.64025 0.1454 0.0
C393 C 0.23413 0.60446 0.15843 0.0
N394 N 0.23473 0.56026 0.27669 0.0
N395 N 0.23479 0.70201 0.17485 0.0
C396 C 0.24404 0.59346 0.24646 0.0
C397 C 0.2355 0.667 0.20317 0.0
N398 N 0.27137 0.60863 0.3879 0.0
N399 N 0.19826 0.64829 0.07841 0.0
H400 H 0.24693 0.72262 0.20963 0.0
H401 H 0.22581 0.71005 0.11132 0.0
H402 H 0.18752 0.62844 0.03804 0.0
H403 H 0.18618 0.67332 0.06992 0.0
H404 H 0.27937 0.58234 0.40187 0.0
H405 H 0.27717 0.62604 0.43901 0.0
H406 H 0.23987 0.55084 0.34142 0.0
H407 H 0.21479 0.54584 0.24391 0.0
C408 C 0.40882 0.73555 0.67963 0.0
C409 C 0.38224 0.76143 0.65635 0.0
C410 C 0.40653 0.80042 0.77186 0.0
C411 C 0.4268 0.77102 0.80756 0.0
N412 N 0.44662 0.70975 0.7972 0.0
N413 N 0.36926 0.82443 0.64938 0.0
C414 C 0.42834 0.73853 0.76115 0.0
C415 C 0.38511 0.7959 0.69322 0.0
N416 N 0.41714 0.70965 0.62146 0.0
N417 N 0.4068 0.83209 0.81525 0.0
H418 H 0.35693 0.82207 0.58681 0.0
H419 H 0.3718 0.85081 0.66891 0.0
H420 H 0.42378 0.83678 0.86992 0.0
H421 H 0.38946 0.85323 0.79953 0.0
H422 H 0.43805 0.69156 0.63293 0.0
H423 H 0.40708 0.70998 0.55618 0.0
H424 H 0.44477 0.68424 0.77121 0.0
H425 H 0.46143 0.71059 0.85683 0.0
C426 C 0.75225 0.90883 0.23076 0.0
C427 C 0.75569 0.87183 0.25455 0.0
C428 C 0.72949 0.88447 0.39737 0.0
C429 C 0.73499 0.92154 0.38216 0.0
N430 N 0.72067 0.96304 0.26224 0.0
N431 N 0.74902 0.82484 0.36669 0.0
C432 C 0.73806 0.93288 0.29243 0.0
C433 C 0.74409 0.85961 0.339 0.0
N434 N 0.76174 0.92122 0.14909 0.0
N435 N 0.7073 0.87329 0.46243 0.0
H436 H 0.76151 0.80579 0.3291 0.0
H437 H 0.74399 0.81596 0.43117 0.0
H438 H 0.69331 0.89151 0.49967 0.0
H439 H 0.69961 0.8467 0.47131 0.0
H440 H 0.76359 0.94842 0.13302 0.0
H441 H 0.76944 0.90448 0.09924 0.0
H442 H 0.7195 0.97135 0.19574 0.0
H443 H 0.70201 0.97563 0.30096 0.0
C444 C 0.65232 0.29828 0.79426 0.0
C445 C 0.65806 0.27316 0.72708 0.0
C446 C 0.61244 0.23402 0.79132 0.0
C447 C 0.60479 0.26069 0.85334 0.0
N448 N 0.61123 0.32178 0.8988 0.0
N449 N 0.63824 0.2207 0.65031 0.0
C450 C 0.62277 0.29399 0.84985 0.0
C451 C 0.63662 0.24194 0.72238 0.0
N452 N 0.6761 0.32535 0.80809 0.0
N453 N 0.59749 0.20088 0.79968 0.0
H454 H 0.65474 0.22656 0.59762 0.0
H455 H 0.62089 0.19946 0.6389 0.0
H456 H 0.57933 0.19435 0.84849 0.0
H457 H 0.60507 0.17923 0.76238 0.0
H458 H 0.6751 0.34242 0.86152 0.0
H459 H 0.69915 0.32824 0.77206 0.0
H460 H 0.62118 0.34768 0.89225 0.0
H461 H 0.58915 0.31987 0.93909 0.0
C462 C 0.23186 0.13647 0.25996 0.0
C463 C 0.25958 0.15668 0.22044 0.0
C464 C 0.30367 0.12891 0.3248 0.0
C465 C 0.27611 0.108 0.36199 0.0
N466 N 0.21517 0.08707 0.35662 0.0
N467 N 0.32241 0.16708 0.20233 0.0
C468 C 0.24064 0.11015 0.32647 0.0
C469 C 0.29571 0.15145 0.24923 0.0
N470 N 0.19686 0.1438 0.23802 0.0
N471 N 0.33725 0.12772 0.36301 0.0
H472 H 0.31744 0.18307 0.14565 0.0
H473 H 0.34942 0.16172 0.21451 0.0
H474 H 0.3443 0.11026 0.41576 0.0
H475 H 0.35755 0.14532 0.34599 0.0
H476 H 0.17553 0.13379 0.27352 0.0
H477 H 0.18876 0.16196 0.18823 0.0
H478 H 0.19023 0.08401 0.32528 0.0
H479 H 0.21961 0.06886 0.40925 0.0
C480 C 0.21318 0.37196 0.02243 0.0
C481 C 0.23766 0.35521 0.96696 0.0
C482 C 0.25564 0.41427 0.90869 0.0
C483 C 0.23219 0.43091 0.96798 0.0
N484 N 0.19976 0.42493 0.10353 0.0
N485 N 0.28695 0.3603 0.8687 0.0
C486 C 0.21436 0.40958 0.0318 0.0
C487 C 0.26024 0.37634 0.91306 0.0
N488 N 0.18773 0.3521 0.06362 0.0
N489 N 0.27344 0.43462 0.84797 0.0
H490 H 0.29068 0.33267 0.86908 0.0
H491 H 0.30698 0.37435 0.83676 0.0
H492 H 0.27382 0.46247 0.84796 0.0
H493 H 0.28686 0.42392 0.79533 0.0
H494 H 0.16728 0.3634 0.09899 0.0
H495 H 0.18451 0.32487 0.05305 0.0
H496 H 0.18898 0.41002 0.15544 0.0
H497 H 0.20272 0.45197 0.11718 0.0
C498 C 0.15231 0.72604 0.58126 0.0
C499 C 0.16832 0.75303 0.52737 0.0
C500 C 0.10828 0.77735 0.49328 0.0
C501 C 0.09451 0.7569 0.56442 0.0
N502 N 0.10339 0.70966 0.67514 0.0
N503 N 0.15961 0.80838 0.43974 0.0
C504 C 0.1165 0.7305 0.60806 0.0
C505 C 0.14581 0.77963 0.48455 0.0
N506 N 0.17042 0.69511 0.60241 0.0
N507 N 0.08561 0.79412 0.43283 0.0
H508 H 0.18666 0.81329 0.43339 0.0
H509 H 0.14384 0.82984 0.41649 0.0
H510 H 0.05795 0.791 0.4338 0.0
H511 H 0.09446 0.80697 0.37547 0.0
H512 H 0.15899 0.67333 0.63514 0.0
H513 H 0.19524 0.68936 0.57709 0.0
H514 H 0.11958 0.69336 0.71664 0.0
H515 H 0.07663 0.70984 0.69207 0.0
C516 C 0.75113 0.65826 0.98468 0.0
C517 C 0.77836 0.67732 0.03113 0.0
C518 C 0.80829 0.62032 0.06784 0.0
C519 C 0.78561 0.60261 0.00572 0.0
N520 N 0.73686 0.60703 0.89612 0.0
N521 N 0.83774 0.67603 0.09917 0.0
C522 C 0.75739 0.62224 0.96153 0.0
C523 C 0.80829 0.65826 0.06821 0.0
N524 N 0.71868 0.67387 0.96562 0.0
N525 N 0.82903 0.60137 0.12854 0.0
H526 H 0.84005 0.70375 0.09516 0.0
H527 H 0.86133 0.66294 0.1194 0.0
H528 H 0.82723 0.57373 0.13748 0.0
H529 H 0.8441 0.61368 0.17844 0.0
H530 H 0.69694 0.65987 0.93929 0.0
H531 H 0.7121 0.69942 0.98574 0.0
H532 H 0.71886 0.62171 0.85554 0.0
H533 H 0.73959 0.58059 0.87725 0.0
C534 C 0.8691 0.30411 0.42367 0.0
C535 C 0.85275 0.29042 0.50137 0.0
C536 C 0.91224 0.28525 0.57535 0.0
C537 C 0.92822 0.29835 0.49655 0.0
N538 N 0.92226 0.30541 0.33717 0.0
N539 N 0.86052 0.25795 0.64147 0.0
C540 C 0.90681 0.30306 0.41798 0.0
C541 C 0.8748 0.27823 0.57476 0.0
N542 N 0.84904 0.3199 0.35651 0.0
N543 N 0.93269 0.27919 0.6509 0.0
H544 H 0.83375 0.25054 0.64214 0.0
H545 H 0.87585 0.24506 0.69147 0.0
H546 H 0.96048 0.27958 0.65247 0.0
H547 H 0.92193 0.27501 0.71314 0.0
H548 H 0.86014 0.33372 0.30325 0.0
H549 H 0.82158 0.32269 0.35867 0.0
H550 H 0.90749 0.30566 0.27739 0.0
H551 H 0.94965 0.30244 0.32922 0.0
C552 C 0.73029 0.15266 0.49475 0.0
C553 C 0.75927 0.17601 0.51224 0.0
C554 C 0.80005 0.12419 0.51841 0.0
C555 C 0.77077 0.10115 0.4978 0.0
N556 N 0.7125 0.09814 0.42427 0.0
N557 N 0.82316 0.18467 0.51841 0.0
C558 C 0.73712 0.11665 0.47345 0.0
C559 C 0.7946 0.16197 0.51861 0.0
N560 N 0.69604 0.16454 0.50045 0.0
N561 N 0.8334 0.11027 0.53551 0.0
H562 H 0.82053 0.21232 0.51541 0.0
H563 H 0.84948 0.17631 0.51261 0.0
H564 H 0.84048 0.08411 0.52155 0.0
H565 H 0.85411 0.12468 0.56526 0.0
H566 H 0.67401 0.14761 0.49578 0.0
H567 H 0.6901 0.19052 0.51856 0.0
H568 H 0.68861 0.10957 0.40001 0.0
H569 H 0.71822 0.07361 0.39652 0.0
C570 C 0.37369 0.24639 0.92378 0.0
C571 C 0.35331 0.2618 0.99163 0.0
C572 C 0.40557 0.29781 0.03534 0.0
C573 C 0.4275 0.27745 0.98015 0.0
N574 N 0.43139 0.2366 0.85955 0.0
N575 N 0.3509 0.30224 0.1146 0.0
C576 C 0.41117 0.25302 0.9206 0.0
C577 C 0.36968 0.28716 0.04879 0.0
N578 N 0.35706 0.22633 0.86028 0.0
N579 N 0.41783 0.32939 0.06853 0.0
H580 H 0.32355 0.29919 0.12177 0.0
H581 H 0.3631 0.31655 0.1656 0.0
H582 H 0.44209 0.34078 0.05136 0.0
H583 H 0.4019 0.34701 0.10229 0.0
H584 H 0.36903 0.21805 0.80297 0.0
H585 H 0.33027 0.21951 0.86149 0.0
H586 H 0.42321 0.21416 0.82498 0.0
H587 H 0.45689 0.24524 0.84361 0.0
C588 C 0.31144 0.87291 0.44543 0.0
C589 C 0.28132 0.85692 0.48515 0.0
C590 C 0.26936 0.91377 0.55735 0.0
C591 C 0.29733 0.93052 0.51002 0.0
N592 N 0.33521 0.92747 0.38295 0.0
N593 N 0.22609 0.86602 0.56082 0.0
C594 C 0.31526 0.91067 0.44559 0.0
C595 C 0.25856 0.87854 0.53554 0.0
N596 N 0.33794 0.85227 0.41332 0.0
N597 N 0.25347 0.93093 0.62478 0.0
H598 H 0.21655 0.8408 0.54509 0.0
H599 H 0.20703 0.88209 0.58922 0.0
H600 H 0.25939 0.95705 0.64246 0.0
H601 H 0.23621 0.9181 0.66803 0.0
H602 H 0.36174 0.86305 0.39066 0.0
H603 H 0.33824 0.82447 0.41968 0.0
H604 H 0.3467 0.91373 0.33167 0.0
H605 H 0.33601 0.95517 0.37427 0.0
C606 C 0.64636 0.76216 0.07628 0.0
C607 C 0.66663 0.77637 0.00545 0.0
C608 C 0.60987 0.79475 0.92985 0.0
C609 C 0.59234 0.79095 0.01181 0.0
N610 N 0.59346 0.76677 0.16243 0.0
N611 N 0.66507 0.79689 0.85141 0.0
C612 C 0.61046 0.77342 0.0849 0.0
C613 C 0.64765 0.79 0.92808 0.0
N614 N 0.65996 0.73515 0.13004 0.0
N615 N 0.59022 0.80033 0.85269 0.0
H616 H 0.68904 0.78456 0.83685 0.0
H617 H 0.65474 0.81357 0.80045 0.0
H618 H 0.5624 0.80083 0.84982 0.0
H619 H 0.60101 0.80027 0.78994 0.0
H620 H 0.64525 0.72208 0.17848 0.0
H621 H 0.68347 0.72169 0.11664 0.0
H622 H 0.60706 0.75869 0.22094 0.0
H623 H 0.56618 0.77061 0.16988 0.0
loop_
_geom_bond_atom_site_label_1
_geom_bond_atom_site_label_2
_geom_bond_distance
_geom_bond_site_symmetry_2
_ccdc_geom_bond_type
Fe0 O2 1.918 . S
Fe0 O5 1.997 . S
Fe0 O6 2.002 . S
Fe0 O11 1.976 . S
Fe0 O14 1.996 . S
Fe1 O2 1.918 1_556 S
Fe1 O9 1.997 . S
Fe1 O12 1.996 . S
Fe1 O16 1.976 . S
Fe1 O19 2.002 . S
O2 Fe0 1.918 . S
O2 Fe1 1.918 1_554 S
O2 Fe3 1.918 . S
Fe3 O2 1.918 . S
Fe3 O4 2.002 . S
Fe3 O13 1.976 . S
Fe3 O17 1.996 1_554 S
Fe3 O20 1.997 1_554 S
O4 Fe3 2.002 . S
O4 C21 1.295 . S
O5 Fe0 1.997 . S
O5 C21 1.235 . S
O6 Fe0 2.002 . S
O6 C7 1.295 . S
C7 O6 1.295 . S
C7 O9 1.235 1_554 S
C8 O13 1.287 . S
C8 O14 1.255 . S
O9 Fe1 1.997 . S
O9 C7 1.235 1_556 S
C10 O16 1.287 . S
C10 O17 1.255 . S
O11 Fe0 1.976 . S
O11 C18 1.287 . S
O12 Fe1 1.996 . S
O12 C18 1.255 1_556 S
O13 Fe3 1.976 . S
O13 C8 1.287 . S
O14 Fe0 1.996 . S
O14 C8 1.255 . S
C15 O19 1.295 . S
C15 O20 1.235 . S
O16 Fe1 1.976 . S
O16 C10 1.287 . S
O17 Fe3 1.996 1_556 S
O17 C10 1.255 . S
C18 O11 1.287 . S
C18 O12 1.255 1_554 S
O19 Fe1 2.002 . S
O19 C15 1.295 . S
O20 Fe3 1.997 1_556 S
O20 C15 1.235 . S
C21 O4 1.295 . S
C21 O5 1.235 . S
Fe22 O24 1.918 . S
Fe22 O27 1.997 . S
Fe22 O28 2.002 . S
Fe22 O33 1.976 . S
Fe22 O36 1.996 . S
Fe23 O24 1.918 . S
Fe23 O31 1.997 . S
Fe23 O34 1.996 . S
Fe23 O38 1.976 . S
Fe23 O41 2.002 . S
O24 Fe22 1.918 . S
O24 Fe23 1.918 . S
O24 Fe25 1.918 . S
Fe25 O24 1.918 . S
Fe25 O26 2.002 . S
Fe25 O35 1.976 . S
Fe25 O39 1.996 . S
Fe25 O42 1.997 . S
O26 Fe25 2.002 . S
O26 C43 1.295 . S
O27 Fe22 1.997 . S
O27 C43 1.235 . S
O28 Fe22 2.002 . S
O28 C29 1.295 . S
C29 O28 1.295 . S
C29 O31 1.235 . S
C30 O35 1.287 . S
C30 O36 1.255 . S
O31 Fe23 1.997 . S
O31 C29 1.235 . S
C32 O38 1.287 . S
C32 O39 1.255 . S
O33 Fe22 1.976 . S
O33 C40 1.287 . S
O34 Fe23 1.996 . S
O34 C40 1.255 . S
O35 Fe25 1.976 . S
O35 C30 1.287 . S
O36 Fe22 1.996 . S
O36 C30 1.255 . S
C37 O41 1.295 . S
C37 O42 1.235 . S
O38 Fe23 1.976 . S
O38 C32 1.287 . S
O39 Fe25 1.996 . S
O39 C32 1.255 . S
C40 O33 1.287 . S
C40 O34 1.255 . S
O41 Fe23 2.002 . S
O41 C37 1.295 . S
O42 Fe25 1.997 . S
O42 C37 1.235 . S
C43 O26 1.295 . S
C43 O27 1.235 . S
Fe44 O46 1.918 1_556 S
Fe44 O49 1.997 . S
Fe44 O50 2.002 . S
Fe44 O55 1.976 . S
Fe44 O58 1.996 . S
Fe45 O46 1.918 . S
Fe45 O53 1.997 . S
Fe45 O56 1.996 . S
Fe45 O60 1.976 . S
Fe45 O63 2.002 . S
O46 Fe44 1.918 1_554 S
O46 Fe45 1.918 . S
O46 Fe47 1.918 . S
Fe47 O46 1.918 . S
Fe47 O48 2.002 1_554 S
Fe47 O57 1.976 1_554 S
Fe47 O61 1.996 . S
Fe47 O64 1.997 . S
O48 Fe47 2.002 1_556 S
O48 C65 1.295 . S
O49 Fe44 1.997 . S
O49 C65 1.235 . S
O50 Fe44 2.002 . S
O50 C51 1.295 1_556 S
C51 O50 1.295 1_554 S
C51 O53 1.235 . S
C52 O57 1.287 . S
C52 O58 1.255 . S
O53 Fe45 1.997 . S
O53 C51 1.235 . S
C54 O60 1.287 . S
C54 O61 1.255 . S
O55 Fe44 1.976 . S
O55 C62 1.287 1_556 S
O56 Fe45 1.996 . S
O56 C62 1.255 . S
O57 Fe47 1.976 1_556 S
O57 C52 1.287 . S
O58 Fe44 1.996 . S
O58 C52 1.255 . S
C59 O63 1.295 . S
C59 O64 1.235 . S
O60 Fe45 1.976 . S
O60 C54 1.287 . S
O61 Fe47 1.996 . S
O61 C54 1.255 . S
C62 O55 1.287 1_554 S
C62 O56 1.255 . S
O63 Fe45 2.002 . S
O63 C59 1.295 . S
O64 Fe47 1.997 . S
O64 C59 1.235 . S
C65 O48 1.295 . S
C65 O49 1.235 . S
Fe66 O68 1.918 . S
Fe66 O71 1.997 . S
Fe66 O72 2.002 . S
Fe66 O77 1.976 . S
Fe66 O80 1.996 . S
Fe67 O68 1.918 . S
Fe67 O75 1.997 . S
Fe67 O78 1.996 . S
Fe67 O82 1.976 . S
Fe67 O85 2.002 . S
O68 Fe66 1.918 . S
O68 Fe67 1.918 . S
O68 Fe69 1.918 . S
Fe69 O68 1.918 . S
Fe69 O70 2.002 . S
Fe69 O79 1.976 . S
Fe69 O83 1.996 . S
Fe69 O86 1.997 . S
O70 Fe69 2.002 . S
O70 C87 1.295 . S
O71 Fe66 1.997 . S
O71 C87 1.235 . S
O72 Fe66 2.002 . S
O72 C73 1.295 . S
C73 O72 1.295 . S
C73 O75 1.235 . S
C74 O79 1.287 . S
C74 O80 1.255 . S
O75 Fe67 1.997 . S
O75 C73 1.235 . S
C76 O82 1.287 . S
C76 O83 1.255 . S
O77 Fe66 1.976 . S
O77 C84 1.287 . S
O78 Fe67 1.996 . S
O78 C84 1.255 . S
O79 Fe69 1.976 . S
O79 C74 1.287 . S
O80 Fe66 1.996 . S
O80 C74 1.255 . S
C81 O85 1.295 . S
C81 O86 1.235 . S
O82 Fe67 1.976 . S
O82 C76 1.287 . S
O83 Fe69 1.996 . S
O83 C76 1.255 . S
C84 O77 1.287 . S
C84 O78 1.255 . S
O85 Fe67 2.002 . S
O85 C81 1.295 . S
O86 Fe69 1.997 . S
O86 C81 1.235 . S
C87 O70 1.295 . S
C87 O71 1.235 . S
H88 C95 0.929 . S
H89 C98 0.930 . S
H90 C100 0.929 . S
H91 C92 0.969 . S
C92 H91 0.969 . S
C92 O93 1.550 1_556 S
C92 H94 0.973 . S
O93 C92 1.550 1_554 S
O93 C99 1.412 . S
H94 C92 0.973 . S
C95 H88 0.929 . S
C95 C96 1.400 . S
C95 C97 1.364 1_554 S
C96 C95 1.400 . S
C96 C100 1.377 . S
C97 C95 1.364 1_556 S
C97 C98 1.374 . S
C98 H89 0.930 . S
C98 C97 1.374 . S
C98 C99 1.383 1_556 S
C99 O93 1.412 . S
C99 C98 1.383 1_554 S
C99 C100 1.394 . S
C100 H90 0.929 . S
C100 C96 1.377 . S
C100 C99 1.394 . S
H101 C108 0.929 . S
H102 C111 0.948 . S
H103 C113 0.929 . S
H104 C105 0.969 . S
C105 H104 0.969 . S
C105 O106 1.550 . S
C105 H107 0.973 . S
O106 C105 1.550 . S
O106 C112 1.439 . S
H107 C105 0.973 . S
C108 H101 0.929 . S
C108 C109 1.400 . S
C108 C110 1.364 . S
C109 C108 1.400 . S
C109 C113 1.377 . S
C110 C108 1.364 . S
C110 C111 1.374 . S
C111 H102 0.948 . S
C111 C110 1.374 . S
C111 C112 1.372 1_655 S
C112 O106 1.439 . S
C112 C111 1.372 1_455 S
C112 C113 1.377 1_455 S
C113 H103 0.929 . S
C113 C109 1.377 . S
C113 C112 1.377 1_655 S
H114 C121 0.929 . S
H115 C124 0.930 . S
H116 C126 0.929 . S
H117 C118 0.969 . S
C118 H117 0.969 . S
C118 O119 1.550 1_554 S
C118 H120 0.973 . S
O119 C118 1.550 1_556 S
O119 C125 1.412 . S
H120 C118 0.973 . S
C121 H114 0.929 . S
C121 C122 1.400 1_554 S
C121 C123 1.364 . S
C122 C121 1.400 1_556 S
C122 C126 1.377 . S
C123 C121 1.364 . S
C123 C124 1.374 . S
C124 H115 0.930 . S
C124 C123 1.374 . S
C124 C125 1.383 1_554 S
C125 O119 1.412 . S
C125 C124 1.383 1_556 S
C125 C126 1.394 . S
C126 H116 0.929 . S
C126 C122 1.377 . S
C126 C125 1.394 . S
H127 C134 0.929 . S
H128 C137 0.930 1_655 S
H129 C139 0.929 . S
H130 C131 0.969 . S
C131 H130 0.969 . S
C131 O132 1.550 . S
C131 H133 0.973 . S
O132 C131 1.550 . S
O132 C138 1.412 . S
H133 C131 0.973 . S
C134 H127 0.929 . S
C134 C135 1.400 . S
C134 C136 1.364 . S
C135 C134 1.400 . S
C135 C139 1.377 . S
C136 C134 1.364 . S
C136 C137 1.374 . S
C137 H128 0.930 1_455 S
C137 C136 1.374 . S
C137 C138 1.383 1_455 S
C138 O132 1.412 . S
C138 C137 1.383 1_655 S
C138 C139 1.394 1_655 S
C139 H129 0.929 . S
C139 C135 1.377 . S
C139 C138 1.394 1_455 S
H140 C147 0.929 . S
H141 C150 0.930 1_545 S
H142 C152 0.929 . S
H143 C144 0.969 . S
C144 H143 0.969 . S
C144 O145 1.550 . S
C144 H146 0.973 . S
O145 C144 1.550 . S
O145 C151 1.412 . S
H146 C144 0.973 . S
C147 H140 0.929 . S
C147 C148 1.400 . S
C147 C149 1.364 . S
C148 C147 1.400 . S
C148 C152 1.377 . S
C149 C147 1.364 . S
C149 C150 1.374 . S
C150 H141 0.930 1_565 S
C150 C149 1.374 . S
C150 C151 1.383 1_565 S
C151 O145 1.412 . S
C151 C150 1.383 1_545 S
C151 C152 1.394 1_545 S
C152 H142 0.929 . S
C152 C148 1.377 . S
C152 C151 1.394 1_565 S
H153 C160 0.929 1_554 S
H154 C163 0.930 . S
H155 C165 0.929 . S
H156 C157 0.969 . S
C157 H156 0.969 . S
C157 O158 1.550 1_554 S
C157 H159 0.973 . S
O158 C157 1.550 1_556 S
O158 C164 1.412 . S
H159 C157 0.973 . S
C160 H153 0.929 1_556 S
C160 C161 1.400 . S
C160 C162 1.364 1_556 S
C161 C160 1.400 . S
C161 C165 1.377 . S
C162 C160 1.364 1_554 S
C162 C163 1.374 . S
C163 H154 0.930 . S
C163 C162 1.374 . S
C163 C164 1.383 1_554 S
C164 O158 1.412 . S
C164 C163 1.383 1_556 S
C164 C165 1.394 . S
C165 H155 0.929 . S
C165 C161 1.377 . S
C165 C164 1.394 . S
H166 C173 0.929 . S
H167 C176 0.930 1_565 S
H168 C178 0.929 . S
H169 C170 0.969 . S
C170 H169 0.969 . S
C170 O171 1.550 . S
C170 H172 0.973 . S
O171 C170 1.550 . S
O171 C177 1.412 . S
H172 C170 0.973 . S
C173 H166 0.929 . S
C173 C174 1.400 . S
C173 C175 1.364 . S
C174 C173 1.400 . S
C174 C178 1.377 . S
C175 C173 1.364 . S
C175 C176 1.374 . S
C176 H167 0.930 1_545 S
C176 C175 1.374 . S
C176 C177 1.383 1_545 S
C177 O171 1.412 . S
C177 C176 1.383 1_565 S
C177 C178 1.394 1_565 S
C178 H168 0.929 . S
C178 C174 1.377 . S
C178 C177 1.394 1_545 S
H179 C186 0.929 . S
H180 C189 0.930 . S
H181 C191 0.929 . S
H182 C183 0.969 . S
C183 H182 0.969 . S
C183 O184 1.550 1_556 S
C183 H185 0.973 . S
O184 C183 1.550 1_554 S
O184 C190 1.412 . S
H185 C183 0.973 . S
C186 H179 0.929 . S
C186 C187 1.400 . S
C186 C188 1.364 1_554 S
C187 C186 1.400 . S
C187 C191 1.377 . S
C188 C186 1.364 1_556 S
C188 C189 1.374 . S
C189 H180 0.930 . S
C189 C188 1.374 . S
C189 C190 1.383 1_556 S
C190 O184 1.412 . S
C190 C189 1.383 1_554 S
C190 C191 1.394 . S
C191 H181 0.929 . S
C191 C187 1.377 . S
C191 C190 1.394 . S
C192 C193 1.363 . S
C192 C198 1.379 . S
C192 N200 1.356 . S
C193 C192 1.363 . S
C193 C199 1.363 . S
C194 C195 1.363 . S
C194 C199 1.379 . S
C194 N201 1.356 . S
C195 C194 1.363 . S
C195 C198 1.363 . S
N196 C198 1.356 . S
N196 H208 0.984 . S
N196 H209 0.985 . S
N197 C199 1.356 . S
N197 H202 0.984 . S
N197 H203 0.985 . S
C198 C192 1.379 . S
C198 C195 1.363 . S
C198 N196 1.356 . S
C199 C193 1.363 . S
C199 C194 1.379 . S
C199 N197 1.356 . S
N200 C192 1.356 . S
N200 H206 0.984 . S
N200 H207 0.984 . S
N201 C194 1.356 . S
N201 H204 0.984 . S
N201 H205 0.985 . S
H202 N197 0.984 . S
H203 N197 0.985 . S
H204 N201 0.984 . S
H205 N201 0.985 . S
H206 N200 0.984 . S
H207 N200 0.984 . S
H208 N196 0.984 . S
H209 N196 0.985 . S
C210 C211 1.363 . S
C210 C216 1.379 . S
C210 N218 1.356 . S
C211 C210 1.363 . S
C211 C217 1.363 . S
C212 C213 1.363 . S
C212 C217 1.379 . S
C212 N219 1.356 . S
C213 C212 1.363 . S
C213 C216 1.363 . S
N214 C216 1.356 . S
N214 H226 0.984 . S
N214 H227 0.985 . S
N215 C217 1.356 . S
N215 H220 0.984 . S
N215 H221 0.985 . S
C216 C210 1.379 . S
C216 C213 1.363 . S
C216 N214 1.356 . S
C217 C211 1.363 . S
C217 C212 1.379 . S
C217 N215 1.356 . S
N218 C210 1.356 . S
N218 H224 0.984 . S
N218 H225 0.984 . S
N219 C212 1.356 . S
N219 H222 0.984 . S
N219 H223 0.985 1_556 S
H220 N215 0.984 . S
H221 N215 0.985 . S
H222 N219 0.984 . S
H223 N219 0.985 1_554 S
H224 N218 0.984 . S
H225 N218 0.984 . S
H226 N214 0.984 . S
H227 N214 0.985 . S
C228 C229 1.363 . S
C228 C234 1.379 . S
C228 N236 1.356 . S
C229 C228 1.363 . S
C229 C235 1.363 . S
C230 C231 1.363 . S
C230 C235 1.379 . S
C230 N237 1.356 . S
C231 C230 1.363 . S
C231 C234 1.363 . S
N232 C234 1.356 . S
N232 H244 0.984 . S
N232 H245 0.985 . S
N233 C235 1.356 . S
N233 H238 0.984 . S
N233 H239 0.985 . S
C234 C228 1.379 . S
C234 C231 1.363 . S
C234 N232 1.356 . S
C235 C229 1.363 . S
C235 C230 1.379 . S
C235 N233 1.356 . S
N236 C228 1.356 . S
N236 H242 0.984 . S
N236 H243 0.984 . S
N237 C230 1.356 . S
N237 H240 0.984 . S
N237 H241 0.985 . S
H238 N233 0.984 . S
H239 N233 0.985 . S
H240 N237 0.984 . S
H241 N237 0.985 . S
H242 N236 0.984 . S
H243 N236 0.984 . S
H244 N232 0.984 . S
H245 N232 0.985 . S
C246 C247 1.363 . S
C246 C252 1.379 . S
C246 N254 1.356 . S
C247 C246 1.363 . S
C247 C253 1.363 . S
C248 C249 1.363 . S
C248 C253 1.379 . S
C248 N255 1.356 . S
C249 C248 1.363 . S
C249 C252 1.363 . S
N250 C252 1.356 . S
N250 H262 0.984 . S
N250 H263 0.985 . S
N251 C253 1.356 . S
N251 H256 0.984 . S
N251 H257 0.985 . S
C252 C246 1.379 . S
C252 C249 1.363 . S
C252 N250 1.356 . S
C253 C247 1.363 . S
C253 C248 1.379 . S
C253 N251 1.356 . S
N254 C246 1.356 . S
N254 H260 0.984 . S
N254 H261 0.984 . S
N255 C248 1.356 . S
N255 H258 0.984 . S
N255 H259 0.985 . S
H256 N251 0.984 . S
H257 N251 0.985 . S
H258 N255 0.984 . S
H259 N255 0.985 . S
H260 N254 0.984 . S
H261 N254 0.984 . S
H262 N250 0.984 . S
H263 N250 0.985 . S
C264 C265 1.363 . S
C264 C270 1.379 . S
C264 N272 1.356 . S
C265 C264 1.363 . S
C265 C271 1.363 . S
C266 C267 1.363 . S
C266 C271 1.379 . S
C266 N273 1.356 . S
C267 C266 1.363 . S
C267 C270 1.363 . S
N268 C270 1.356 . S
N268 H280 0.984 . S
N268 H281 0.985 . S
N269 C271 1.356 . S
N269 H274 0.984 . S
N269 H275 0.985 . S
C270 C264 1.379 . S
C270 C267 1.363 . S
C270 N268 1.356 . S
C271 C265 1.363 . S
C271 C266 1.379 . S
C271 N269 1.356 . S
N272 C264 1.356 . S
N272 H278 0.984 . S
N272 H279 0.984 . S
N273 C266 1.356 . S
N273 H276 0.984 . S
N273 H277 0.985 . S
H274 N269 0.984 . S
H275 N269 0.985 . S
H276 N273 0.984 . S
H277 N273 0.985 . S
H278 N272 0.984 . S
H279 N272 0.984 . S
H280 N268 0.984 . S
H281 N268 0.985 . S
C282 C283 1.363 . S
C282 C288 1.379 . S
C282 N290 1.356 . S
C283 C282 1.363 . S
C283 C289 1.363 . S
C284 C285 1.363 . S
C284 C289 1.379 . S
C284 N291 1.356 . S
C285 C284 1.363 . S
C285 C288 1.363 . S
N286 C288 1.356 . S
N286 H298 0.984 . S
N286 H299 0.985 . S
N287 C289 1.356 . S
N287 H292 0.984 . S
N287 H293 0.985 . S
C288 C282 1.379 . S
C288 C285 1.363 . S
C288 N286 1.356 . S
C289 C283 1.363 . S
C289 C284 1.379 . S
C289 N287 1.356 . S
N290 C282 1.356 . S
N290 H296 0.984 . S
N290 H297 0.984 . S
N291 C284 1.356 . S
N291 H294 0.984 . S
N291 H295 0.985 . S
H292 N287 0.984 . S
H293 N287 0.985 . S
H294 N291 0.984 . S
H295 N291 0.985 . S
H296 N290 0.984 . S
H297 N290 0.984 . S
H298 N286 0.984 . S
H299 N286 0.985 . S
C300 C301 1.363 . S
C300 C306 1.379 . S
C300 N308 1.356 . S
C301 C300 1.363 . S
C301 C307 1.363 . S
C302 C303 1.363 . S
C302 C307 1.379 . S
C302 N309 1.356 . S
C303 C302 1.363 . S
C303 C306 1.363 . S
N304 C306 1.356 . S
N304 H316 0.984 . S
N304 H317 0.985 . S
N305 C307 1.356 . S
N305 H310 0.984 . S
N305 H311 0.985 . S
C306 C300 1.379 . S
C306 C303 1.363 . S
C306 N304 1.356 . S
C307 C301 1.363 . S
C307 C302 1.379 . S
C307 N305 1.356 . S
N308 C300 1.356 . S
N308 H314 0.984 . S
N308 H315 0.984 . S
N309 C302 1.356 . S
N309 H312 0.984 . S
N309 H313 0.985 . S
H310 N305 0.984 . S
H311 N305 0.985 . S
H312 N309 0.984 . S
H313 N309 0.985 . S
H314 N308 0.984 . S
H315 N308 0.984 . S
H316 N304 0.984 . S
H317 N304 0.985 . S
C318 C319 1.363 . S
C318 C324 1.379 . S
C318 N326 1.356 . S
C319 C318 1.363 . S
C319 C325 1.363 . S
C320 C321 1.363 . S
C320 C325 1.379 . S
C320 N327 1.356 . S
C321 C320 1.363 . S
C321 C324 1.363 . S
N322 C324 1.356 . S
N322 H334 0.984 . S
N322 H335 0.985 . S
N323 C325 1.356 . S
N323 H328 0.984 . S
N323 H329 0.985 . S
C324 C318 1.379 . S
C324 C321 1.363 . S
C324 N322 1.356 . S
C325 C319 1.363 . S
C325 C320 1.379 . S
C325 N323 1.356 . S
N326 C318 1.356 . S
N326 H332 0.984 . S
N326 H333 0.984 . S
N327 C320 1.356 . S
N327 H330 0.984 . S
N327 H331 0.985 . S
H328 N323 0.984 . S
H329 N323 0.985 . S
H330 N327 0.984 . S
H331 N327 0.985 . S
H332 N326 0.984 . S
H333 N326 0.984 . S
H334 N322 0.984 . S
H335 N322 0.985 . S
C336 C337 1.363 . S
C336 C342 1.379 . S
C336 N344 1.356 . S
C337 C336 1.363 . S
C337 C343 1.363 . S
C338 C339 1.363 . S
C338 C343 1.379 . S
C338 N345 1.356 . S
C339 C338 1.363 . S
C339 C342 1.363 . S
N340 C342 1.356 . S
N340 H352 0.984 . S
N340 H353 0.985 . S
N341 C343 1.356 . S
N341 H346 0.984 . S
N341 H347 0.985 . S
C342 C336 1.379 . S
C342 C339 1.363 . S
C342 N340 1.356 . S
C343 C337 1.363 . S
C343 C338 1.379 . S
C343 N341 1.356 . S
N344 C336 1.356 . S
N344 H350 0.984 . S
N344 H351 0.984 . S
N345 C338 1.356 . S
N345 H348 0.984 . S
N345 H349 0.985 . S
H346 N341 0.984 . S
H347 N341 0.985 . S
H348 N345 0.984 . S
H349 N345 0.985 . S
H350 N344 0.984 . S
H351 N344 0.984 . S
H352 N340 0.984 . S
H353 N340 0.985 . S
C354 C355 1.363 . S
C354 C360 1.379 . S
C354 N362 1.356 . S
C355 C354 1.363 . S
C355 C361 1.363 . S
C356 C357 1.363 . S
C356 C361 1.379 . S
C356 N363 1.356 . S
C357 C356 1.363 . S
C357 C360 1.363 . S
N358 C360 1.356 . S
N358 H370 0.984 . S
N358 H371 0.985 . S
N359 C361 1.356 . S
N359 H364 0.984 . S
N359 H365 0.985 . S
C360 C354 1.379 . S
C360 C357 1.363 . S
C360 N358 1.356 . S
C361 C355 1.363 . S
C361 C356 1.379 . S
C361 N359 1.356 . S
N362 C354 1.356 . S
N362 H368 0.984 . S
N362 H369 0.984 . S
N363 C356 1.356 . S
N363 H366 0.984 . S
N363 H367 0.985 . S
H364 N359 0.984 . S
H365 N359 0.985 . S
H366 N363 0.984 . S
H367 N363 0.985 . S
H368 N362 0.984 . S
H369 N362 0.984 . S
H370 N358 0.984 . S
H371 N358 0.985 . S
C372 C373 1.363 . S
C372 C378 1.379 . S
C372 N380 1.356 . S
C373 C372 1.363 . S
C373 C379 1.363 . S
C374 C375 1.363 . S
C374 C379 1.379 . S
C374 N381 1.356 . S
C375 C374 1.363 . S
C375 C378 1.363 . S
N376 C378 1.356 . S
N376 H388 0.984 . S
N376 H389 0.985 . S
N377 C379 1.356 . S
N377 H382 0.984 . S
N377 H383 0.985 . S
C378 C372 1.379 . S
C378 C375 1.363 . S
C378 N376 1.356 . S
C379 C373 1.363 . S
C379 C374 1.379 . S
C379 N377 1.356 . S
N380 C372 1.356 . S
N380 H386 0.984 . S
N380 H387 0.984 . S
N381 C374 1.356 . S
N381 H384 0.984 . S
N381 H385 0.985 . S
H382 N377 0.984 . S
H383 N377 0.985 . S
H384 N381 0.984 . S
H385 N381 0.985 . S
H386 N380 0.984 . S
H387 N380 0.984 . S
H388 N376 0.984 . S
H389 N376 0.985 . S
C390 C391 1.363 . S
C390 C396 1.379 . S
C390 N398 1.356 . S
C391 C390 1.363 . S
C391 C397 1.363 . S
C392 C393 1.363 . S
C392 C397 1.379 . S
C392 N399 1.356 . S
C393 C392 1.363 . S
C393 C396 1.363 . S
N394 C396 1.356 . S
N394 H406 0.984 . S
N394 H407 0.985 . S
N395 C397 1.356 . S
N395 H400 0.984 . S
N395 H401 0.985 . S
C396 C390 1.379 . S
C396 C393 1.363 . S
C396 N394 1.356 . S
C397 C391 1.363 . S
C397 C392 1.379 . S
C397 N395 1.356 . S
N398 C390 1.356 . S
N398 H404 0.984 . S
N398 H405 0.984 . S
N399 C392 1.356 . S
N399 H402 0.984 . S
N399 H403 0.985 . S
H400 N395 0.984 . S
H401 N395 0.985 . S
H402 N399 0.984 . S
H403 N399 0.985 . S
H404 N398 0.984 . S
H405 N398 0.984 . S
H406 N394 0.984 . S
H407 N394 0.985 . S
C408 C409 1.363 . S
C408 C414 1.379 . S
C408 N416 1.356 . S
C409 C408 1.363 . S
C409 C415 1.363 . S
C410 C411 1.363 . S
C410 C415 1.379 . S
C410 N417 1.356 . S
C411 C410 1.363 . S
C411 C414 1.363 . S
N412 C414 1.356 . S
N412 H424 0.984 . S
N412 H425 0.985 . S
N413 C415 1.356 . S
N413 H418 0.984 . S
N413 H419 0.985 . S
C414 C408 1.379 . S
C414 C411 1.363 . S
C414 N412 1.356 . S
C415 C409 1.363 . S
C415 C410 1.379 . S
C415 N413 1.356 . S
N416 C408 1.356 . S
N416 H422 0.984 . S
N416 H423 0.984 . S
N417 C410 1.356 . S
N417 H420 0.984 . S
N417 H421 0.985 . S
H418 N413 0.984 . S
H419 N413 0.985 . S
H420 N417 0.984 . S
H421 N417 0.985 . S
H422 N416 0.984 . S
H423 N416 0.984 . S
H424 N412 0.984 . S
H425 N412 0.985 . S
C426 C427 1.363 . S
C426 C432 1.379 . S
C426 N434 1.356 . S
C427 C426 1.363 . S
C427 C433 1.363 . S
C428 C429 1.363 . S
C428 C433 1.379 . S
C428 N435 1.356 . S
C429 C428 1.363 . S
C429 C432 1.363 . S
N430 C432 1.356 . S
N430 H442 0.984 . S
N430 H443 0.985 . S
N431 C433 1.356 . S
N431 H436 0.984 . S
N431 H437 0.985 . S
C432 C426 1.379 . S
C432 C429 1.363 . S
C432 N430 1.356 . S
C433 C427 1.363 . S
C433 C428 1.379 . S
C433 N431 1.356 . S
N434 C426 1.356 . S
N434 H440 0.984 . S
N434 H441 0.984 . S
N435 C428 1.356 . S
N435 H438 0.984 . S
N435 H439 0.985 . S
H436 N431 0.984 . S
H437 N431 0.985 . S
H438 N435 0.984 . S
H439 N435 0.985 . S
H440 N434 0.984 . S
H441 N434 0.984 . S
H442 N430 0.984 . S
H443 N430 0.985 . S
C444 C445 1.363 . S
C444 C450 1.379 . S
C444 N452 1.356 . S
C445 C444 1.363 . S
C445 C451 1.363 . S
C446 C447 1.363 . S
C446 C451 1.379 . S
C446 N453 1.356 . S
C447 C446 1.363 . S
C447 C450 1.363 . S
N448 C450 1.356 . S
N448 H460 0.984 . S
N448 H461 0.985 . S
N449 C451 1.356 . S
N449 H454 0.984 . S
N449 H455 0.985 . S
C450 C444 1.379 . S
C450 C447 1.363 . S
C450 N448 1.356 . S
C451 C445 1.363 . S
C451 C446 1.379 . S
C451 N449 1.356 . S
N452 C444 1.356 . S
N452 H458 0.984 . S
N452 H459 0.984 . S
N453 C446 1.356 . S
N453 H456 0.984 . S
N453 H457 0.985 . S
H454 N449 0.984 . S
H455 N449 0.985 . S
H456 N453 0.984 . S
H457 N453 0.985 . S
H458 N452 0.984 . S
H459 N452 0.984 . S
H460 N448 0.984 . S
H461 N448 0.985 . S
C462 C463 1.363 . S
C462 C468 1.379 . S
C462 N470 1.356 . S
C463 C462 1.363 . S
C463 C469 1.363 . S
C464 C465 1.363 . S
C464 C469 1.379 . S
C464 N471 1.356 . S
C465 C464 1.363 . S
C465 C468 1.363 . S
N466 C468 1.356 . S
N466 H478 0.984 . S
N466 H479 0.985 . S
N467 C469 1.356 . S
N467 H472 0.984 . S
N467 H473 0.985 . S
C468 C462 1.379 . S
C468 C465 1.363 . S
C468 N466 1.356 . S
C469 C463 1.363 . S
C469 C464 1.379 . S
C469 N467 1.356 . S
N470 C462 1.356 . S
N470 H476 0.984 . S
N470 H477 0.984 . S
N471 C464 1.356 . S
N471 H474 0.984 . S
N471 H475 0.985 . S
H472 N467 0.984 . S
H473 N467 0.985 . S
H474 N471 0.984 . S
H475 N471 0.985 . S
H476 N470 0.984 . S
H477 N470 0.984 . S
H478 N466 0.984 . S
H479 N466 0.985 . S
C480 C481 1.363 . S
C480 C486 1.379 . S
C480 N488 1.356 . S
C481 C480 1.363 . S
C481 C487 1.363 1_554 S
C482 C483 1.363 1_556 S
C482 C487 1.379 . S
C482 N489 1.356 . S
C483 C482 1.363 1_554 S
C483 C486 1.363 . S
N484 C486 1.356 . S
N484 H496 0.984 . S
N484 H497 0.985 . S
N485 C487 1.356 . S
N485 H490 0.984 . S
N485 H491 0.985 . S
C486 C480 1.379 . S
C486 C483 1.363 . S
C486 N484 1.356 . S
C487 C481 1.363 1_556 S
C487 C482 1.379 . S
C487 N485 1.356 . S
N488 C480 1.356 . S
N488 H494 0.984 . S
N488 H495 0.984 . S
N489 C482 1.356 . S
N489 H492 0.984 . S
N489 H493 0.985 . S
H490 N485 0.984 . S
H491 N485 0.985 . S
H492 N489 0.984 . S
H493 N489 0.985 . S
H494 N488 0.984 . S
H495 N488 0.984 . S
H496 N484 0.984 . S
H497 N484 0.985 . S
C498 C499 1.363 . S
C498 C504 1.379 . S
C498 N506 1.356 . S
C499 C498 1.363 . S
C499 C505 1.363 . S
C500 C501 1.363 . S
C500 C505 1.379 . S
C500 N507 1.356 . S
C501 C500 1.363 . S
C501 C504 1.363 . S
N502 C504 1.356 . S
N502 H514 0.984 . S
N502 H515 0.985 . S
N503 C505 1.356 . S
N503 H508 0.984 . S
N503 H509 0.985 . S
C504 C498 1.379 . S
C504 C501 1.363 . S
C504 N502 1.356 . S
C505 C499 1.363 . S
C505 C500 1.379 . S
C505 N503 1.356 . S
N506 C498 1.356 . S
N506 H512 0.984 . S
N506 H513 0.984 . S
N507 C500 1.356 . S
N507 H510 0.984 . S
N507 H511 0.985 . S
H508 N503 0.984 . S
H509 N503 0.985 . S
H510 N507 0.984 . S
H511 N507 0.985 . S
H512 N506 0.984 . S
H513 N506 0.984 . S
H514 N502 0.984 . S
H515 N502 0.985 . S
C516 C517 1.363 1_556 S
C516 C522 1.379 . S
C516 N524 1.356 . S
C517 C516 1.363 1_554 S
C517 C523 1.363 . S
C518 C519 1.363 . S
C518 C523 1.379 . S
C518 N525 1.356 . S
C519 C518 1.363 . S
C519 C522 1.363 1_554 S
N520 C522 1.356 . S
N520 H532 0.984 . S
N520 H533 0.985 . S
N521 C523 1.356 . S
N521 H526 0.984 . S
N521 H527 0.985 . S
C522 C516 1.379 . S
C522 C519 1.363 1_556 S
C522 N520 1.356 . S
C523 C517 1.363 . S
C523 C518 1.379 . S
C523 N521 1.356 . S
N524 C516 1.356 . S
N524 H530 0.984 . S
N524 H531 0.984 . S
N525 C518 1.356 . S
N525 H528 0.984 . S
N525 H529 0.985 . S
H526 N521 0.984 . S
H527 N521 0.985 . S
H528 N525 0.984 . S
H529 N525 0.985 . S
H530 N524 0.984 . S
H531 N524 0.984 . S
H532 N520 0.984 . S
H533 N520 0.985 . S
C534 C535 1.363 . S
C534 C540 1.379 . S
C534 N542 1.356 . S
C535 C534 1.363 . S
C535 C541 1.363 . S
C536 C537 1.363 . S
C536 C541 1.379 . S
C536 N543 1.356 . S
C537 C536 1.363 . S
C537 C540 1.363 . S
N538 C540 1.356 . S
N538 H550 0.984 . S
N538 H551 0.985 . S
N539 C541 1.356 . S
N539 H544 0.984 . S
N539 H545 0.985 . S
C540 C534 1.379 . S
C540 C537 1.363 . S
C540 N538 1.356 . S
C541 C535 1.363 . S
C541 C536 1.379 . S
C541 N539 1.356 . S
N542 C534 1.356 . S
N542 H548 0.984 . S
N542 H549 0.984 . S
N543 C536 1.356 . S
N543 H546 0.984 . S
N543 H547 0.985 . S
H544 N539 0.984 . S
H545 N539 0.985 . S
H546 N543 0.984 . S
H547 N543 0.985 . S
H548 N542 0.984 . S
H549 N542 0.984 . S
H550 N538 0.984 . S
H551 N538 0.985 . S
C552 C553 1.363 . S
C552 C558 1.379 . S
C552 N560 1.356 . S
C553 C552 1.363 . S
C553 C559 1.363 . S
C554 C555 1.363 . S
C554 C559 1.379 . S
C554 N561 1.356 . S
C555 C554 1.363 . S
C555 C558 1.363 . S
N556 C558 1.356 . S
N556 H568 0.984 . S
N556 H569 0.985 . S
N557 C559 1.356 . S
N557 H562 0.984 . S
N557 H563 0.985 . S
C558 C552 1.379 . S
C558 C555 1.363 . S
C558 N556 1.356 . S
C559 C553 1.363 . S
C559 C554 1.379 . S
C559 N557 1.356 . S
N560 C552 1.356 . S
N560 H566 0.984 . S
N560 H567 0.984 . S
N561 C554 1.356 . S
N561 H564 0.984 . S
N561 H565 0.985 . S
H562 N557 0.984 . S
H563 N557 0.985 . S
H564 N561 0.984 . S
H565 N561 0.985 . S
H566 N560 0.984 . S
H567 N560 0.984 . S
H568 N556 0.984 . S
H569 N556 0.985 . S
C570 C571 1.363 1_556 S
C570 C576 1.379 . S
C570 N578 1.356 . S
C571 C570 1.363 1_554 S
C571 C577 1.363 . S
C572 C573 1.363 . S
C572 C577 1.379 . S
C572 N579 1.356 . S
C573 C572 1.363 . S
C573 C576 1.363 1_554 S
N574 C576 1.356 . S
N574 H586 0.984 . S
N574 H587 0.985 . S
N575 C577 1.356 . S
N575 H580 0.984 . S
N575 H581 0.985 . S
C576 C570 1.379 . S
C576 C573 1.363 1_556 S
C576 N574 1.356 . S
C577 C571 1.363 . S
C577 C572 1.379 . S
C577 N575 1.356 . S
N578 C570 1.356 . S
N578 H584 0.984 . S
N578 H585 0.984 . S
N579 C572 1.356 . S
N579 H582 0.984 . S
N579 H583 0.985 . S
H580 N575 0.984 . S
H581 N575 0.985 . S
H582 N579 0.984 . S
H583 N579 0.985 . S
H584 N578 0.984 . S
H585 N578 0.984 . S
H586 N574 0.984 . S
H587 N574 0.985 . S
C588 C589 1.363 . S
C588 C594 1.379 . S
C588 N596 1.356 . S
C589 C588 1.363 . S
C589 C595 1.363 . S
C590 C591 1.363 . S
C590 C595 1.379 . S
C590 N597 1.356 . S
C591 C590 1.363 . S
C591 C594 1.363 . S
N592 C594 1.356 . S
N592 H604 0.984 . S
N592 H605 0.985 . S
N593 C595 1.356 . S
N593 H598 0.984 . S
N593 H599 0.985 . S
C594 C588 1.379 . S
C594 C591 1.363 . S
C594 N592 1.356 . S
C595 C589 1.363 . S
C595 C590 1.379 . S
C595 N593 1.356 . S
N596 C588 1.356 . S
N596 H602 0.984 . S
N596 H603 0.984 . S
N597 C590 1.356 . S
N597 H600 0.984 . S
N597 H601 0.985 . S
H598 N593 0.984 . S
H599 N593 0.985 . S
H600 N597 0.984 . S
H601 N597 0.985 . S
H602 N596 0.984 . S
H603 N596 0.984 . S
H604 N592 0.984 . S
H605 N592 0.985 . S
C606 C607 1.363 . S
C606 C612 1.379 . S
C606 N614 1.356 . S
C607 C606 1.363 . S
C607 C613 1.363 1_554 S
C608 C609 1.363 1_556 S
C608 C613 1.379 . S
C608 N615 1.356 . S
C609 C608 1.363 1_554 S
C609 C612 1.363 . S
N610 C612 1.356 . S
N610 H622 0.984 . S
N610 H623 0.985 . S
N611 C613 1.356 . S
N611 H616 0.984 . S
N611 H617 0.985 . S
C612 C606 1.379 . S
C612 C609 1.363 . S
C612 N610 1.356 . S
C613 C607 1.363 1_556 S
C613 C608 1.379 . S
C613 N611 1.356 . S
N614 C606 1.356 . S
N614 H620 0.984 . S
N614 H621 0.984 . S
N615 C608 1.356 . S
N615 H618 0.984 . S
N615 H619 0.985 . S
H616 N611 0.984 . S
H617 N611 0.985 . S
H618 N615 0.984 . S
H619 N615 0.985 . S
H620 N614 0.984 . S
H621 N614 0.984 . S
H622 N610 0.984 . S
H623 N610 0.985 . S
C193 C21 1.495 . S
C195 C135 1.503 . S
C211 C40 1.524 . S
C213 C97 1.487 . S
C231 C110 1.450 . S
C229 C54 1.473 . S
C247 C73 1.507 . S
C249 C122 1.509 . S
C267 C162 1.458 . S
C265 C74 1.482 . S
C285 C174 1.490 . S
C283 C10 1.502 . S
C303 C187 1.495 . S
C301 C37 1.483 . S
C321 C149 1.508 . S
C319 C65 1.528 . S
C337 C52 1.459 . S
C339 C109 1.455 . S
C355 C87 1.540 . S
C357 C123 1.518 . S
C373 C15 1.507 . S
C375 C136 1.497 . S
C393 C96 1.471 . S
C391 C32 1.484 . S
C409 C29 1.519 . S
C411 C188 1.505 . S
C429 C148 1.512 . S
C427 C59 1.518 . S
C447 C161 1.448 . S
C445 C84 1.452 . S
C463 C8 1.507 . S
C465 C175 1.476 . S
C483 C92 1.460 1_554 S
C481 C7 1.533 . S
C501 C105 1.457 . S
C499 C30 1.491 . S
C517 C62 1.538 . S
C519 C118 1.503 . S
C535 C81 1.502 . S
C537 C131 1.457 . S
C555 C144 1.455 . S
C553 C76 1.539 . S
C571 C18 1.491 . S
C573 C157 1.457 . S
C589 C43 1.534 . S
C591 C170 1.504 . S
C607 C51 1.502 . S
C609 C183 1.456 1_554 S
