# Generated by pormake.
# Topology eea, (3,6)-cn, num edge types: 1
# Building blocks:
#     Node 0, Type 0, BuildingBlock: BETDIP_clean_linker_0, # of connection points: 3
#     Node 1, Type 0, BuildingBlock: BETDIP_clean_linker_0, # of connection points: 3
#     Node 2, Type 0, BuildingBlock: BETDIP_clean_linker_0, # of connection points: 3
#     Node 3, Type 0, BuildingBlock: BETDIP_clean_linker_0, # of connection points: 3
#     Node 4, Type 0, BuildingBlock: BETDIP_clean_linker_0, # of connection points: 3
#     Node 5, Type 0, BuildingBlock: BETDIP_clean_linker_0, # of connection points: 3
#     Node 6, Type 0, BuildingBlock: BETDIP_clean_linker_0, # of connection points: 3
#     Node 7, Type 0, BuildingBlock: BETDIP_clean_linker_0, # of connection points: 3
#     Node 8, Type 0, BuildingBlock: BETDIP_clean_linker_0, # of connection points: 3
#     Node 9, Type 0, BuildingBlock: BETDIP_clean_linker_0, # of connection points: 3
#     Node 10, Type 0, BuildingBlock: BETDIP_clean_linker_0, # of connection points: 3
#     Node 11, Type 0, BuildingBlock: BETDIP_clean_linker_0, # of connection points: 3
#     Node 12, Type 0, BuildingBlock: BETDIP_clean_linker_0, # of connection points: 3
#     Node 13, Type 0, BuildingBlock: BETDIP_clean_linker_0, # of connection points: 3
#     Node 14, Type 0, BuildingBlock: BETDIP_clean_linker_0, # of connection points: 3
#     Node 15, Type 0, BuildingBlock: BETDIP_clean_linker_0, # of connection points: 3
#     Node 16, Type 0, BuildingBlock: BETDIP_clean_linker_0, # of connection points: 3
#     Node 17, Type 0, BuildingBlock: BETDIP_clean_linker_0, # of connection points: 3
#     Node 18, Type 1, BuildingBlock: KUMJIN_clean_sbu_0, # of connection points: 6
#     Node 19, Type 1, BuildingBlock: KUMJIN_clean_sbu_0, # of connection points: 6
#     Node 20, Type 1, BuildingBlock: KUMJIN_clean_sbu_0, # of connection points: 6
#     Node 21, Type 1, BuildingBlock: KUMJIN_clean_sbu_0, # of connection points: 6
#     Node 22, Type 1, BuildingBlock: KUMJIN_clean_sbu_0, # of connection points: 6
#     Node 23, Type 1, BuildingBlock: KUMJIN_clean_sbu_0, # of connection points: 6
#     Node 24, Type 1, BuildingBlock: KUMJIN_clean_sbu_0, # of connection points: 6
#     Node 25, Type 1, BuildingBlock: KUMJIN_clean_sbu_0, # of connection points: 6
#     Node 26, Type 1, BuildingBlock: KUMJIN_clean_sbu_0, # of connection points: 6
#     Edge 27, Type (0, 1), BuildingBlock: MIFKUJ_clean_linker_0, # of connection points: 2
#     Edge 28, Type (0, 1), BuildingBlock: MIFKUJ_clean_linker_0, # of connection points: 2
#     Edge 29, Type (0, 1), BuildingBlock: MIFKUJ_clean_linker_0, # of connection points: 2
#     Edge 30, Type (0, 1), BuildingBlock: MIFKUJ_clean_linker_0, # of connection points: 2
#     Edge 31, Type (0, 1), BuildingBlock: MIFKUJ_clean_linker_0, # of connection points: 2
#     Edge 32, Type (0, 1), BuildingBlock: MIFKUJ_clean_linker_0, # of connection points: 2
#     Edge 33, Type (0, 1), BuildingBlock: MIFKUJ_clean_linker_0, # of connection points: 2
#     Edge 34, Type (0, 1), BuildingBlock: MIFKUJ_clean_linker_0, # of connection points: 2
#     Edge 35, Type (0, 1), BuildingBlock: MIFKUJ_clean_linker_0, # of connection points: 2
#     Edge 36, Type (0, 1), BuildingBlock: MIFKUJ_clean_linker_0, # of connection points: 2
#     Edge 37, Type (0, 1), BuildingBlock: MIFKUJ_clean_linker_0, # of connection points: 2
#     Edge 38, Type (0, 1), BuildingBlock: MIFKUJ_clean_linker_0, # of connection points: 2
#     Edge 39, Type (0, 1), BuildingBlock: MIFKUJ_clean_linker_0, # of connection points: 2
#     Edge 40, Type (0, 1), BuildingBlock: MIFKUJ_clean_linker_0, # of connection points: 2
#     Edge 41, Type (0, 1), BuildingBlock: MIFKUJ_clean_linker_0, # of connection points: 2
#     Edge 42, Type (0, 1), BuildingBlock: MIFKUJ_clean_linker_0, # of connection points: 2
#     Edge 43, Type (0, 1), BuildingBlock: MIFKUJ_clean_linker_0, # of connection points: 2
#     Edge 44, Type (0, 1), BuildingBlock: MIFKUJ_clean_linker_0, # of connection points: 2
#     Edge 45, Type (0, 1), BuildingBlock: MIFKUJ_clean_linker_0, # of connection points: 2
#     Edge 46, Type (0, 1), BuildingBlock: MIFKUJ_clean_linker_0, # of connection points: 2
#     Edge 47, Type (0, 1), BuildingBlock: MIFKUJ_clean_linker_0, # of connection points: 2
#     Edge 48, Type (0, 1), BuildingBlock: MIFKUJ_clean_linker_0, # of connection points: 2
#     Edge 49, Type (0, 1), BuildingBlock: MIFKUJ_clean_linker_0, # of connection points: 2
#     Edge 50, Type (0, 1), BuildingBlock: MIFKUJ_clean_linker_0, # of connection points: 2
#     Edge 51, Type (0, 1), BuildingBlock: MIFKUJ_clean_linker_0, # of connection points: 2
#     Edge 52, Type (0, 1), BuildingBlock: MIFKUJ_clean_linker_0, # of connection points: 2
#     Edge 53, Type (0, 1), BuildingBlock: MIFKUJ_clean_linker_0, # of connection points: 2
#     Edge 54, Type (0, 1), BuildingBlock: MIFKUJ_clean_linker_0, # of connection points: 2
#     Edge 55, Type (0, 1), BuildingBlock: MIFKUJ_clean_linker_0, # of connection points: 2
#     Edge 56, Type (0, 1), BuildingBlock: MIFKUJ_clean_linker_0, # of connection points: 2
#     Edge 57, Type (0, 1), BuildingBlock: MIFKUJ_clean_linker_0, # of connection points: 2
#     Edge 58, Type (0, 1), BuildingBlock: MIFKUJ_clean_linker_0, # of connection points: 2
#     Edge 59, Type (0, 1), BuildingBlock: MIFKUJ_clean_linker_0, # of connection points: 2
#     Edge 60, Type (0, 1), BuildingBlock: MIFKUJ_clean_linker_0, # of connection points: 2
#     Edge 61, Type (0, 1), BuildingBlock: MIFKUJ_clean_linker_0, # of connection points: 2
#     Edge 62, Type (0, 1), BuildingBlock: MIFKUJ_clean_linker_0, # of connection points: 2
#     Edge 63, Type (0, 1), BuildingBlock: MIFKUJ_clean_linker_0, # of connection points: 2
#     Edge 64, Type (0, 1), BuildingBlock: MIFKUJ_clean_linker_0, # of connection points: 2
#     Edge 65, Type (0, 1), BuildingBlock: MIFKUJ_clean_linker_0, # of connection points: 2
#     Edge 66, Type (0, 1), BuildingBlock: MIFKUJ_clean_linker_0, # of connection points: 2
#     Edge 67, Type (0, 1), BuildingBlock: MIFKUJ_clean_linker_0, # of connection points: 2
#     Edge 68, Type (0, 1), BuildingBlock: MIFKUJ_clean_linker_0, # of connection points: 2
#     Edge 69, Type (0, 1), BuildingBlock: MIFKUJ_clean_linker_0, # of connection points: 2
#     Edge 70, Type (0, 1), BuildingBlock: MIFKUJ_clean_linker_0, # of connection points: 2
#     Edge 71, Type (0, 1), BuildingBlock: MIFKUJ_clean_linker_0, # of connection points: 2
#     Edge 72, Type (0, 1), BuildingBlock: MIFKUJ_clean_linker_0, # of connection points: 2
#     Edge 73, Type (0, 1), BuildingBlock: MIFKUJ_clean_linker_0, # of connection points: 2
#     Edge 74, Type (0, 1), BuildingBlock: MIFKUJ_clean_linker_0, # of connection points: 2
#     Edge 75, Type (0, 1), BuildingBlock: MIFKUJ_clean_linker_0, # of connection points: 2
#     Edge 76, Type (0, 1), BuildingBlock: MIFKUJ_clean_linker_0, # of connection points: 2
#     Edge 77, Type (0, 1), BuildingBlock: MIFKUJ_clean_linker_0, # of connection points: 2
#     Edge 78, Type (0, 1), BuildingBlock: MIFKUJ_clean_linker_0, # of connection points: 2
#     Edge 79, Type (0, 1), BuildingBlock: MIFKUJ_clean_linker_0, # of connection points: 2
#     Edge 80, Type (0, 1), BuildingBlock: MIFKUJ_clean_linker_0, # of connection points: 2
# Relax obj value: 0.025
# Max RMSD: 0.155
# Mean RMSD: 0.114
data_MOF--net-eea--node1-KUMJIN_clean_sbu_0--node2-BETDIP_clean_linker_0--edge1-MIFKUJ_clean_linker_0
_symmetry_space_group_name_H-M    P1
_symmetry_Int_Tables_number       1
_symmetry_cell_setting            triclinic
loop_
_symmetry_equiv_pos_as_xyz
'x, y, z'
_cell_length_a     71.503426
_cell_length_b     72.948503
_cell_length_c     83.201541
_cell_angle_alpha  90.222391
_cell_angle_beta   90.22715
_cell_angle_gamma 120.00606
loop_
_atom_site_label
_atom_site_type_symbol
_atom_site_fract_x
_atom_site_fract_y
_atom_site_fract_z
_atom_type_partial_charge
H0 H 0.20107 0.08941 0.39142 0.0
H1 H 0.21944 0.12738 0.43439 0.0
H2 H 0.22776 0.07308 0.43163 0.0
H3 H 0.19074 0.13151 0.42655 0.0
C4 C 0.19407 0.13421 0.41378 0.0
C5 C 0.20742 0.09231 0.40359 0.0
C6 C 0.21465 0.07934 0.41038 0.0
C7 C 0.20837 0.10914 0.41238 0.0
C8 C 0.21744 0.1136 0.42793 0.0
C9 C 0.2248 0.10084 0.43491 0.0
C10 C 0.22297 0.08354 0.42612 0.0
N11 N 0.20093 0.12188 0.40504 0.0
H12 H 0.92824 0.11448 0.39608 0.0
H13 H 0.88857 0.09723 0.43834 0.0
H14 H 0.94684 0.15728 0.43662 0.0
H15 H 0.86216 0.08045 0.42023 0.0
C16 C 0.86868 0.07317 0.41232 0.0
C17 C 0.92527 0.11824 0.40807 0.0
C18 C 0.94026 0.13756 0.41549 0.0
C19 C 0.90627 0.10375 0.41604 0.0
C20 C 0.90275 0.10841 0.43179 0.0
C21 C 0.91722 0.12773 0.43917 0.0
C22 C 0.93584 0.14223 0.43096 0.0
N23 N 0.89096 0.08466 0.40809 0.0
H24 H 0.90039 0.81063 0.39009 0.0
H25 H 0.92133 0.78914 0.43076 0.0
H26 H 0.86098 0.78832 0.43256 0.0
H27 H 0.93491 0.77791 0.41031 0.0
C28 C 0.94274 0.79227 0.4032 0.0
C29 C 0.89758 0.80422 0.40213 0.0
C30 C 0.8788 0.80033 0.41052 0.0
C31 C 0.91278 0.79972 0.40916 0.0
C32 C 0.90933 0.79178 0.42494 0.0
C33 C 0.89079 0.7878 0.43351 0.0
C34 C 0.87565 0.79207 0.42618 0.0
N35 N 0.93159 0.80363 0.40038 0.0
H36 H 0.09064 0.19751 0.63338 0.0
H37 H 0.13224 0.21605 0.59224 0.0
H38 H 0.07644 0.22366 0.5918 0.0
H39 H 0.1318 0.18371 0.60183 0.0
C40 C 0.13724 0.19036 0.6138 0.0
C41 C 0.09452 0.20407 0.62139 0.0
C42 C 0.08087 0.21001 0.61347 0.0
C43 C 0.11279 0.20572 0.61366 0.0
C44 C 0.1178 0.21405 0.59803 0.0
C45 C 0.10488 0.22077 0.59014 0.0
C46 C 0.08646 0.21858 0.59792 0.0
N47 N 0.12632 0.19955 0.62187 0.0
H48 H 0.79764 0.8917 0.63961 0.0
H49 H 0.78262 0.91555 0.5973 0.0
H50 H 0.78574 0.85834 0.59456 0.0
H51 H 0.76664 0.92588 0.61731 0.0
C52 C 0.78051 0.93323 0.62538 0.0
C53 C 0.79389 0.8903 0.62688 0.0
C54 C 0.79176 0.87293 0.61801 0.0
C55 C 0.79026 0.90549 0.61956 0.0
C56 C 0.78521 0.90372 0.60306 0.0
C57 C 0.78338 0.88664 0.59398 0.0
C58 C 0.78673 0.87137 0.60156 0.0
N59 N 0.79206 0.92259 0.62895 0.0
H60 H 0.11172 0.91019 0.63314 0.0
H61 H 0.09383 0.86969 0.59139 0.0
H62 H 0.15341 0.92895 0.592 0.0
H63 H 0.07886 0.84459 0.61114 0.0
C64 C 0.07072 0.85106 0.61819 0.0
C65 C 0.11515 0.90717 0.62105 0.0
C66 C 0.13461 0.92175 0.6136 0.0
C67 C 0.10054 0.88814 0.61326 0.0
C68 C 0.10511 0.88414 0.5976 0.0
C69 C 0.12429 0.89867 0.5899 0.0
C70 C 0.13881 0.91743 0.59799 0.0
N71 N 0.08142 0.87323 0.62137 0.0
H72 H 0.87955 0.4335 0.72794 0.0
H73 H 0.89927 0.4697 0.7719 0.0
H74 H 0.90253 0.41275 0.76788 0.0
H75 H 0.90572 0.49619 0.7554 0.0
C76 C 0.89219 0.48916 0.74703 0.0
C77 C 0.88565 0.43562 0.74016 0.0
C78 C 0.89104 0.42114 0.74675 0.0
C79 C 0.88886 0.45334 0.74903 0.0
C80 C 0.89697 0.45625 0.76484 0.0
C81 C 0.90229 0.44186 0.77165 0.0
C82 C 0.89907 0.42428 0.76255 0.0
N83 N 0.88364 0.46786 0.7418 0.0
H84 H 0.59779 0.44792 0.72363 0.0
H85 H 0.55936 0.42495 0.76626 0.0
H86 H 0.61091 0.48946 0.76435 0.0
H87 H 0.55814 0.39405 0.75761 0.0
C88 C 0.55365 0.39457 0.7452 0.0
C89 C 0.59438 0.45064 0.73581 0.0
C90 C 0.60667 0.47079 0.743 0.0
C91 C 0.57753 0.43393 0.74421 0.0
C92 C 0.57265 0.43759 0.75984 0.0
C93 C 0.58454 0.45758 0.76718 0.0
C94 C 0.60164 0.47401 0.75873 0.0
N95 N 0.565 0.41386 0.73653 0.0
H96 H 0.56202 0.14086 0.72302 0.0
H97 H 0.58458 0.12104 0.76383 0.0
H98 H 0.52269 0.11694 0.7654 0.0
H99 H 0.59947 0.11138 0.74346 0.0
C100 C 0.60671 0.12575 0.73635 0.0
C101 C 0.55961 0.13473 0.73514 0.0
C102 C 0.54021 0.12925 0.74328 0.0
C103 C 0.57552 0.13132 0.74226 0.0
C104 C 0.57221 0.12308 0.75795 0.0
C105 C 0.5532 0.11786 0.76636 0.0
C106 C 0.53742 0.1211 0.75896 0.0
N107 N 0.59468 0.13623 0.73355 0.0
H108 H 0.75761 0.52497 0.96578 0.0
H109 H 0.79764 0.53899 0.92407 0.0
H110 H 0.74322 0.54887 0.92301 0.0
H111 H 0.79709 0.5074 0.93527 0.0
C112 C 0.80305 0.51521 0.94684 0.0
C113 C 0.76106 0.53023 0.95344 0.0
C114 C 0.74786 0.53649 0.94525 0.0
C115 C 0.77887 0.53082 0.94578 0.0
C116 C 0.78372 0.53816 0.92989 0.0
C117 C 0.77108 0.54491 0.92161 0.0
C118 C 0.75307 0.54376 0.92934 0.0
N119 N 0.79237 0.52498 0.9544 0.0
H120 H 0.48596 0.23363 0.96423 0.0
H121 H 0.46665 0.25451 0.92239 0.0
H122 H 0.44946 0.18938 0.92635 0.0
H123 H 0.49739 0.28581 0.92867 0.0
C124 C 0.49554 0.28606 0.94161 0.0
C125 C 0.47803 0.23012 0.95258 0.0
C126 C 0.46764 0.20932 0.94644 0.0
C127 C 0.4783 0.2466 0.94382 0.0
C128 C 0.46747 0.24214 0.92893 0.0
C129 C 0.45676 0.22144 0.92274 0.0
C130 C 0.45708 0.2052 0.93146 0.0
N131 N 0.48862 0.26727 0.95063 0.0
H132 H 0.7799 0.24361 0.96937 0.0
H133 H 0.75886 0.20502 0.92666 0.0
H134 H 0.82118 0.26142 0.928 0.0
H135 H 0.72582 0.20245 0.9355 0.0
C136 C 0.72687 0.19828 0.94787 0.0
C137 C 0.78291 0.24081 0.9571 0.0
C138 C 0.80278 0.25461 0.9498 0.0
C139 C 0.76675 0.22332 0.94864 0.0
C140 C 0.77084 0.21911 0.9329 0.0
C141 C 0.79069 0.23252 0.92548 0.0
C142 C 0.80628 0.25045 0.93392 0.0
N143 N 0.7468 0.20976 0.95636 0.0
H144 H 0.53771 0.75949 0.0581 0.0
H145 H 0.55371 0.79558 0.102 0.0
H146 H 0.55361 0.73673 0.10077 0.0
H147 H 0.56701 0.82254 0.08346 0.0
C148 C 0.55319 0.81636 0.07535 0.0
C149 C 0.54204 0.76115 0.07074 0.0
C150 C 0.54556 0.74596 0.07835 0.0
C151 C 0.54522 0.77919 0.07912 0.0
C152 C 0.55131 0.78173 0.09543 0.0
C153 C 0.55465 0.7666 0.10326 0.0
C154 C 0.55148 0.74868 0.09468 0.0
N155 N 0.54231 0.79461 0.0709 0.0
H156 H 0.25542 0.78653 0.05517 0.0
H157 H 0.21686 0.76714 0.09797 0.0
H158 H 0.27386 0.82844 0.09619 0.0
H159 H 0.19018 0.75266 0.07819 0.0
C160 C 0.19679 0.74459 0.07124 0.0
C161 C 0.25268 0.78978 0.06739 0.0
C162 C 0.2669 0.80943 0.07466 0.0
C163 C 0.23424 0.77468 0.07555 0.0
C164 C 0.23075 0.77888 0.09143 0.0
C165 C 0.24488 0.79825 0.09893 0.0
C166 C 0.26281 0.8135 0.09041 0.0
N167 N 0.21924 0.75548 0.06763 0.0
H168 H 0.23955 0.48642 0.05962 0.0
H169 H 0.25693 0.45915 0.09858 0.0
H170 H 0.19688 0.45896 0.09994 0.0
H171 H 0.26973 0.44883 0.07568 0.0
C172 C 0.27922 0.46471 0.07086 0.0
C173 C 0.23572 0.47844 0.0711 0.0
C174 C 0.21624 0.47342 0.07891 0.0
C175 C 0.25027 0.47296 0.07797 0.0
C176 C 0.24561 0.46303 0.09307 0.0
C177 C 0.22642 0.45803 0.1011 0.0
C178 C 0.21183 0.46311 0.09385 0.0
N179 N 0.26963 0.47772 0.0697 0.0
H180 H 0.42616 0.86292 0.29873 0.0
H181 H 0.4667 0.8789 0.25707 0.0
H182 H 0.41084 0.8863 0.25604 0.0
H183 H 0.46793 0.84819 0.26778 0.0
C184 C 0.47292 0.85514 0.27971 0.0
C185 C 0.42951 0.86837 0.28642 0.0
C186 C 0.41598 0.87435 0.27837 0.0
C187 C 0.44755 0.86949 0.2787 0.0
C188 C 0.45236 0.87715 0.26286 0.0
C189 C 0.43945 0.88372 0.2548 0.0
C190 C 0.42118 0.88193 0.26254 0.0
N191 N 0.46132 0.86395 0.28729 0.0
H192 H 0.16347 0.56803 0.29689 0.0
H193 H 0.14682 0.59346 0.25646 0.0
H194 H 0.13083 0.52846 0.25574 0.0
H195 H 0.17846 0.62355 0.26457 0.0
C196 C 0.17508 0.62268 0.27735 0.0
C197 C 0.15664 0.56586 0.28492 0.0
C198 C 0.14724 0.54593 0.27727 0.0
C199 C 0.1572 0.5832 0.2773 0.0
C200 C 0.14731 0.5804 0.26216 0.0
C201 C 0.13759 0.56062 0.25443 0.0
C202 C 0.13805 0.54362 0.26188 0.0
N203 N 0.16683 0.60304 0.28542 0.0
H204 H 0.44016 0.58579 0.29539 0.0
H205 H 0.41971 0.54102 0.2563 0.0
H206 H 0.4828 0.59626 0.2557 0.0
H207 H 0.38648 0.54024 0.26375 0.0
C208 C 0.38762 0.53716 0.27639 0.0
C209 C 0.44359 0.58092 0.28399 0.0
C210 C 0.46356 0.59369 0.27637 0.0
C211 C 0.42754 0.56217 0.27667 0.0
C212 C 0.43173 0.5558 0.26174 0.0
C213 C 0.45173 0.56798 0.25415 0.0
C214 C 0.46741 0.58684 0.26156 0.0
N215 N 0.40756 0.5496 0.2847 0.0
Eu216 Eu 0.48797 0.99345 0.99118 0.0
C217 C 0.53172 0.06435 0.0438 0.0
C218 C 0.56972 0.07527 0.04279 0.0
C219 C 0.5587 0.10072 0.05025 0.0
C220 C 0.54783 0.05963 0.04078 0.0
C221 C 0.53693 0.08484 0.04886 0.0
C222 C 0.57508 0.09594 0.04721 0.0
C223 C 0.49873 0.07202 0.05176 0.0
N224 N 0.51088 0.04863 0.04238 0.0
C225 C 0.4944 0.05193 0.04678 0.0
C226 C 0.52008 0.08862 0.05264 0.0
Eu227 Eu 0.50473 0.01552 0.03262 0.0
N228 N 0.54208 0.0395 0.03654 0.0
C229 C 0.55734 0.03355 0.03529 0.0
C230 C 0.58552 0.06953 0.04061 0.0
C231 C 0.57927 0.0485 0.03709 0.0
H232 H 0.47786 0.03919 0.04596 0.0
H233 H 0.59134 0.04381 0.03565 0.0
H234 H 0.59181 0.10823 0.04864 0.0
H235 H 0.4856 0.07471 0.05486 0.0
H236 H 0.55275 0.0174 0.03244 0.0
H237 H 0.40153 0.96589 0.98832 0.0
H238 H 0.60252 0.0811 0.04196 0.0
H239 H 0.51441 0.96925 0.97791 0.0
H240 H 0.44022 0.99205 0.99152 0.0
H241 H 0.50628 0.93356 0.96917 0.0
H242 H 0.56305 0.11662 0.05398 0.0
H243 H 0.39 0.92852 0.98203 0.0
H244 H 0.40033 0.90107 0.9755 0.0
H245 H 0.5234 0.10416 0.05653 0.0
H246 H 0.42881 0.89224 0.97034 0.0
N247 N 0.45057 0.9697 0.98739 0.0
C248 C 0.43546 0.97585 0.98867 0.0
C249 C 0.40703 0.93996 0.98337 0.0
C250 C 0.42268 0.93401 0.98124 0.0
C251 C 0.41348 0.96104 0.98689 0.0
C252 C 0.44462 0.94949 0.98323 0.0
H253 H 0.46837 0.90429 0.9678 0.0
N254 N 0.48149 0.96008 0.98175 0.0
C255 C 0.49327 0.93639 0.97235 0.0
C256 C 0.46059 0.94451 0.98037 0.0
C257 C 0.49782 0.95659 0.97724 0.0
C258 C 0.47186 0.91991 0.97162 0.0
C259 C 0.45516 0.92392 0.97539 0.0
O260 O 0.50616 0.0039 0.96881 0.0
O261 O 0.51357 0.01816 0.00677 0.0
O262 O 0.50206 0.03962 0.01753 0.0
O263 O 0.47808 0.0181 0.99745 0.0
O264 O 0.524 0.00572 0.98899 0.0
O265 O 0.4771 0.00577 0.97152 0.0
O266 O 0.48765 0.00576 0.05549 0.0
O267 O 0.47917 0.99107 0.01697 0.0
O268 O 0.49096 0.96943 0.00634 0.0
O269 O 0.51512 0.99151 0.02607 0.0
O270 O 0.46855 0.00277 0.03504 0.0
O271 O 0.5151 0.00151 0.0513 0.0
C272 C 0.53019 0.01954 1.00044 0.0
C273 C 0.486 0.99994 0.94535 0.0
C274 C 0.49021 0.00535 0.9163 0.0
C275 C 0.49547 0.0134 0.93212 0.0
C276 C 0.47524 0.98373 0.91395 0.0
C277 C 0.47102 0.97848 0.94269 0.0
C278 C 0.46567 0.97045 0.92707 0.0
C279 C 0.48826 0.03616 0.00569 0.0
C280 C 0.49247 0.00819 0.96182 0.0
C281 C 0.43332 0.90821 0.974 0.0
C282 C 0.41711 0.91324 0.97693 0.0
C283 C 0.46243 0.98923 0.02341 0.0
C284 C 0.5083 0.00712 0.07809 0.0
C285 C 0.4995 0.99287 0.09094 0.0
C286 C 0.50637 0.99967 0.10686 0.0
C287 C 0.52232 0.02091 0.10963 0.0
C288 C 0.52413 0.0282 0.08115 0.0
C289 C 0.53111 0.03501 0.09685 0.0
C290 C 0.50477 0.97318 0.01824 0.0
C291 C 0.50064 0.9999 0.0616 0.0
H292 H 0.50719 0.02997 0.93414 0.0
H293 H 0.47072 0.97714 0.90193 0.0
H294 H 0.46353 0.96792 0.95268 0.0
H295 H 0.4541 0.95386 0.92512 0.0
H296 H 0.48707 0.97663 0.08855 0.0
H297 H 0.5282 0.02659 0.12169 0.0
H298 H 0.53106 0.03935 0.07142 0.0
H299 H 0.54339 0.05129 0.09914 0.0
Eu300 Eu 0.01815 0.49481 0.9979 0.0
C301 C 0.946 0.46123 0.05078 0.0
C302 C 0.93015 0.48381 0.0511 0.0
C303 C 0.90968 0.44778 0.06102 0.0
C304 C 0.94738 0.48043 0.04729 0.0
C305 C 0.92703 0.44461 0.05751 0.0
C306 C 0.91142 0.46745 0.05813 0.0
C307 C 0.94451 0.42361 0.05834 0.0
N308 N 0.96353 0.45908 0.04818 0.0
C309 C 0.96319 0.44072 0.05212 0.0
C310 C 0.92634 0.42555 0.06106 0.0
Eu311 Eu 0.99476 0.48923 0.03831 0.0
N312 N 0.96623 0.49635 0.04147 0.0
C313 C 0.96916 0.51618 0.03965 0.0
C314 C 0.93267 0.50387 0.04848 0.0
C315 C 0.95229 0.52013 0.04275 0.0
H316 H 0.97715 0.43903 0.05019 0.0
H317 H 0.95457 0.53581 0.04099 0.0
H318 H 0.8984 0.46997 0.06181 0.0
H319 H 0.94423 0.40901 0.0612 0.0
H320 H 0.98456 0.52899 0.03574 0.0
H321 H 0.05058 0.44104 0.99863 0.0
H322 H 0.91979 0.5071 0.05123 0.0
H323 H 0.04067 0.54408 0.98347 0.0
H324 H 0.02241 0.45101 1.00043 0.0
H325 H 0.07648 0.57256 0.97472 0.0
H326 H 0.89511 0.43534 0.06645 0.0
H327 H 0.08828 0.46822 0.99262 0.0
H328 H 0.11491 0.50595 0.98557 0.0
H329 H 0.91201 0.41239 0.06615 0.0
H330 H 0.12202 0.54179 0.97917 0.0
N331 N 0.04396 0.48362 0.99581 0.0
C332 C 0.03875 0.46302 0.99772 0.0
C333 C 0.07596 0.47269 0.99335 0.0
C334 C 0.08097 0.49356 0.99059 0.0
C335 C 0.05469 0.4573 0.99672 0.0
C336 C 0.06435 0.49857 0.99181 0.0
H337 H 0.10775 0.56675 0.97491 0.0
N338 N 0.0517 0.52256 0.98875 0.0
C339 C 0.07448 0.55756 0.9786 0.0
C340 C 0.06836 0.5187 0.98821 0.0
C341 C 0.05421 0.54138 0.98347 0.0
C342 C 0.09208 0.5542 0.97873 0.0
C343 C 0.08908 0.53446 0.98332 0.0
O344 O 0.00891 0.50067 0.97427 0.0
O345 O 0.99159 0.49411 0.01227 0.0
O346 O 0.97073 0.462 0.023 0.0
O347 O 0.99405 0.46023 0.00441 0.0
O348 O 1.00345 0.516 0.9942 0.0
O349 O 0.00661 0.47045 0.97921 0.0
O350 O 0.00601 0.48611 0.06203 0.0
O351 O 0.02138 0.49039 0.02391 0.0
O352 O 0.04128 0.523 0.01291 0.0
O353 O 0.01768 0.52401 0.03169 0.0
O354 O 0.01096 0.4695 0.04258 0.0
O355 O 0.00476 0.51446 0.05616 0.0
C356 C 0.98925 0.50823 0.00543 0.0
C357 C 0.01487 0.48335 0.95271 0.0
C358 C 0.01151 0.48021 0.92352 0.0
C359 C 1.00239 0.47905 0.93871 0.0
C360 C 0.03337 0.48578 0.92261 0.0
C361 C 0.03657 0.4887 0.95156 0.0
C362 C 0.04577 0.48993 0.93657 0.0
C363 C 0.97511 0.45181 0.01181 0.0
C364 C 0.00511 0.48254 0.96836 0.0
C365 C 0.10593 0.52984 0.98275 0.0
C366 C 0.10188 0.50942 0.98638 0.0
C367 C 0.02476 0.47718 0.03113 0.0
C368 C 0.99985 0.50379 0.08333 0.0
C369 C 0.01373 0.50969 0.09668 0.0
C370 C 0.00595 0.50941 0.11224 0.0
C371 C 0.984 0.50305 0.11422 0.0
C372 C 0.97807 0.49763 0.08554 0.0
C373 C 0.97019 0.49723 0.10092 0.0
C374 C 0.03661 0.53282 0.02424 0.0
C375 C 0.00845 0.50407 0.06728 0.0
H376 H 0.98552 0.47459 0.9397 0.0
H377 H 0.04099 0.48717 0.9111 0.0
H378 H 0.0464 0.49193 0.96219 0.0
H379 H 0.06257 0.4942 0.93577 0.0
H380 H 0.03064 0.51475 0.09489 0.0
H381 H 0.97743 0.50234 0.12606 0.0
H382 H 0.96717 0.49318 0.07545 0.0
H383 H 0.95333 0.49236 0.10253 0.0
Eu384 Eu 0.52849 0.51446 0.03138 0.0
C385 C 0.48823 0.54063 0.97501 0.0
C386 C 0.45003 0.51476 0.97437 0.0
C387 C 0.4628 0.54988 0.96343 0.0
C388 C 0.47141 0.52066 0.97872 0.0
C389 C 0.4841 0.5555 0.96739 0.0
C390 C 0.44588 0.52945 0.96664 0.0
C391 C 0.52261 0.57947 0.9663 0.0
N392 N 0.50875 0.54511 0.97803 0.0
C393 C 0.52593 0.56401 0.97344 0.0
C394 C 0.50159 0.57524 0.96331 0.0
Eu395 Eu 0.51308 0.51787 0.98961 0.0
N396 N 0.47616 0.50639 0.98516 0.0
C397 C 0.46039 0.48582 0.98715 0.0
C398 C 0.43363 0.49395 0.97717 0.0
C399 C 0.43885 0.4794 0.98355 0.0
H400 H 0.54224 0.56734 0.97556 0.0
H401 H 0.42635 0.46316 0.98545 0.0
H402 H 0.42977 0.52496 0.96257 0.0
H403 H 0.53626 0.59456 0.96296 0.0
H404 H 0.46432 0.47431 0.99169 0.0
H405 H 0.61471 0.57155 0.03572 0.0
H406 H 0.417 0.4888 0.97402 0.0
H407 H 0.5012 0.46488 0.04545 0.0
H408 H 0.57639 0.5595 0.0303 0.0
H409 H 0.50877 0.43767 0.05615 0.0
H410 H 0.45931 0.56095 0.95735 0.0
H411 H 0.6256 0.54595 0.04493 0.0
H412 H 0.61499 0.50877 0.05239 0.0
H413 H 0.49906 0.5871 0.9575 0.0
H414 H 0.5862 0.47229 0.05777 0.0
N415 N 0.5657 0.5273 0.03581 0.0
C416 C 0.58092 0.54814 0.03414 0.0
C417 C 0.60881 0.54055 0.04225 0.0
C418 C 0.59307 0.51933 0.04435 0.0
C419 C 0.6027 0.55504 0.03718 0.0
C420 C 0.57132 0.51314 0.04115 0.0
H421 H 0.54655 0.4457 0.05937 0.0
N422 N 0.53432 0.48773 0.04215 0.0
C423 C 0.52196 0.45306 0.05283 0.0
C424 C 0.55514 0.49269 0.04435 0.0
C425 C 0.51772 0.4685 0.04681 0.0
C426 C 0.54331 0.45763 0.05459 0.0
C427 C 0.56023 0.47776 0.0506 0.0
O428 O 0.51059 0.50813 0.05383 0.0
O429 O 0.50311 0.51375 0.01528 0.0
O430 O 0.51505 0.54533 0.00338 0.0
O431 O 0.53865 0.54847 0.02403 0.0
O432 O 0.49234 0.49155 0.03319 0.0
O433 O 0.53928 0.53858 0.05029 0.0
O434 O 0.52968 0.52271 0.96667 0.0
O435 O 0.53855 0.51897 0.00575 0.0
O436 O 0.5265 0.48713 0.01729 0.0
O437 O 0.5023 0.48388 0.99717 0.0
O438 O 0.5493 0.5403 0.98735 0.0
O439 O 0.5016 0.49235 0.97186 0.0
C440 C 0.48629 0.49905 0.02156 0.0
C441 C 0.53125 0.52546 0.07684 0.0
C442 C 0.52759 0.52814 0.10585 0.0
C443 C 0.52139 0.52941 0.08996 0.0
C444 C 0.54364 0.52261 0.10832 0.0
C445 C 0.54738 0.52028 0.07964 0.0
C446 C 0.55348 0.51879 0.09529 0.0
C447 C 0.52873 0.55616 0.0151 0.0
C448 C 0.52425 0.52629 0.06033 0.0
C449 C 0.58194 0.48358 0.05308 0.0
C450 C 0.59833 0.50434 0.05001 0.0
C451 C 0.55543 0.53333 0.99927 0.0
C452 C 0.50775 0.50301 0.94471 0.0
C453 C 0.51704 0.49816 0.93171 0.0
C454 C 0.50924 0.49708 0.91595 0.0
C455 C 0.49222 0.50123 0.91342 0.0
C456 C 0.49068 0.50686 0.94189 0.0
C457 C 0.48303 0.50605 0.92633 0.0
C458 C 0.51283 0.47639 0.00553 0.0
C459 C 0.5159 0.50393 0.96113 0.0
H460 H 0.50912 0.5337 0.08774 0.0
H461 H 0.5485 0.52101 0.12034 0.0
H462 H 0.55524 0.51733 0.06977 0.0
H463 H 0.56583 0.51461 0.09734 0.0
H464 H 0.53005 0.49491 0.93392 0.0
H465 H 0.48612 0.50094 0.90143 0.0
H466 H 0.4832 0.51041 0.95167 0.0
H467 H 0.46992 0.50917 0.92427 0.0
Eu468 Eu 0.15655 0.32637 0.32351 0.0
C469 C 0.19754 0.39371 0.37781 0.0
C470 C 0.23579 0.40614 0.37555 0.0
C471 C 0.22372 0.43013 0.38484 0.0
C472 C 0.21407 0.38997 0.37379 0.0
C473 C 0.20216 0.41368 0.38374 0.0
C474 C 0.24051 0.42637 0.38073 0.0
C475 C 0.16392 0.39915 0.38818 0.0
N476 N 0.17692 0.37748 0.37663 0.0
C477 C 0.16017 0.37963 0.38224 0.0
C478 C 0.18498 0.41634 0.38875 0.0
Eu479 Eu 0.17172 0.34535 0.36548 0.0
N480 N 0.20893 0.3702 0.36896 0.0
C481 C 0.22472 0.36509 0.36686 0.0
C482 C 0.25208 0.40132 0.37247 0.0
C483 C 0.2465 0.38061 0.36836 0.0
H484 H 0.14386 0.3664 0.38166 0.0
H485 H 0.25897 0.37662 0.36625 0.0
H486 H 0.2571 0.43906 0.38198 0.0
H487 H 0.15057 0.40095 0.39227 0.0
H488 H 0.22064 0.3492 0.36356 0.0
H489 H 0.06955 0.29422 0.31881 0.0
H490 H 0.26897 0.41331 0.37361 0.0
H491 H 0.18687 0.3066 0.30963 0.0
H492 H 0.10714 0.32072 0.3257 0.0
H493 H 0.18194 0.274 0.29664 0.0
H494 H 0.2276 0.44566 0.38921 0.0
H495 H 0.06131 0.26004 0.30657 0.0
H496 H 0.07512 0.23733 0.29476 0.0
H497 H 0.18785 0.43144 0.39337 0.0
H498 H 0.10528 0.23111 0.28978 0.0
N499 N 0.11988 0.30108 0.31872 0.0
C500 C 0.1037 0.30562 0.32083 0.0
C501 C 0.07777 0.27136 0.31001 0.0
C502 C 0.09457 0.26717 0.30722 0.0
C503 C 0.08237 0.29067 0.31685 0.0
C504 C 0.11571 0.28243 0.31196 0.0
H505 H 0.14515 0.24459 0.29055 0.0
N506 N 0.15319 0.29525 0.31182 0.0
C507 C 0.16801 0.27529 0.29992 0.0
C508 C 0.13289 0.27939 0.30845 0.0
C509 C 0.17074 0.29372 0.30729 0.0
C510 C 0.14721 0.25869 0.29657 0.0
C511 C 0.12936 0.26078 0.30053 0.0
O512 O 0.17435 0.33915 0.30119 0.0
O513 O 0.18122 0.35096 0.33974 0.0
O514 O 0.16726 0.36956 0.35199 0.0
O515 O 0.1445 0.34893 0.33109 0.0
O516 O 0.19283 0.34037 0.32156 0.0
O517 O 0.14464 0.33947 0.30518 0.0
O518 O 0.15446 0.33374 0.38814 0.0
O519 O 0.14696 0.32089 0.34921 0.0
O520 O 0.1599 0.30158 0.33719 0.0
O521 O 0.18316 0.32244 0.35778 0.0
O522 O 0.13528 0.33115 0.36754 0.0
O523 O 0.18363 0.33248 0.38398 0.0
C524 C 0.19832 0.35366 0.3333 0.0
C525 C 0.15348 0.33634 0.27833 0.0
C526 C 0.15637 0.34428 0.2496 0.0
C527 C 0.16242 0.35091 0.26568 0.0
C528 C 0.14148 0.3228 0.24645 0.0
C529 C 0.13848 0.31513 0.27484 0.0
C530 C 0.13259 0.3084 0.259 0.0
C531 C 0.15373 0.36642 0.34003 0.0
C532 C 0.16006 0.34329 0.29507 0.0
C533 C 0.1083 0.24535 0.2961 0.0
C534 C 0.09103 0.24875 0.29916 0.0
C535 C 0.12981 0.31812 0.35559 0.0
C536 C 0.17598 0.33742 0.41077 0.0
C537 C 0.16656 0.32388 0.42396 0.0
C538 C 0.17284 0.33154 0.43981 0.0
C539 C 0.1888 0.35285 0.44219 0.0
C540 C 0.19192 0.35856 0.41347 0.0
C541 C 0.19829 0.3662 0.4291 0.0
C542 C 0.17372 0.30484 0.34898 0.0
C543 C 0.16869 0.32956 0.3943 0.0
H544 H 0.17377 0.36738 0.2684 0.0
H545 H 0.13682 0.31703 0.23425 0.0
H546 H 0.13131 0.30376 0.28433 0.0
H547 H 0.12111 0.29194 0.25643 0.0
H548 H 0.15411 0.30757 0.4219 0.0
H549 H 0.19415 0.35914 0.4542 0.0
H550 H 0.19943 0.36917 0.40352 0.0
H551 H 0.21061 0.38254 0.43108 0.0
Eu552 Eu 0.68501 0.83341 0.32646 0.0
C553 C 0.6162 0.79382 0.38099 0.0
C554 C 0.6011 0.81686 0.38407 0.0
C555 C 0.58022 0.77998 0.39204 0.0
C556 C 0.61797 0.81348 0.37908 0.0
C557 C 0.59737 0.7769 0.38763 0.0
C558 C 0.58221 0.79997 0.39048 0.0
C559 C 0.61495 0.75597 0.38716 0.0
N560 N 0.63357 0.79172 0.37755 0.0
C561 C 0.63342 0.77331 0.3809 0.0
C562 C 0.59677 0.75771 0.39041 0.0
Eu563 Eu 0.66457 0.82209 0.36768 0.0
N564 N 0.63696 0.82976 0.37379 0.0
C565 C 0.6405 0.84995 0.37388 0.0
C566 C 0.60419 0.83735 0.38327 0.0
C567 C 0.62403 0.854 0.37825 0.0
H568 H 0.64741 0.7718 0.37857 0.0
H569 H 0.62677 0.86998 0.37795 0.0
H570 H 0.56935 0.80234 0.39485 0.0
H571 H 0.6148 0.74133 0.38955 0.0
H572 H 0.656 0.86298 0.3704 0.0
H573 H 0.71511 0.77911 0.31513 0.0
H574 H 0.59165 0.84063 0.387 0.0
H575 H 0.7073 0.88488 0.3177 0.0
H576 H 0.6887 0.78946 0.32365 0.0
H577 H 0.74176 0.91393 0.3074 0.0
H578 H 0.56569 0.76723 0.39728 0.0
H579 H 0.75101 0.80624 0.30541 0.0
H580 H 0.77573 0.84396 0.29738 0.0
H581 H 0.58258 0.74435 0.39548 0.0
H582 H 0.78382 0.88082 0.29654 0.0
N583 N 0.71002 0.82237 0.32004 0.0
C584 C 0.70452 0.80155 0.31987 0.0
C585 C 0.73971 0.81097 0.30957 0.0
C586 C 0.7449 0.83218 0.30912 0.0
C587 C 0.71942 0.79559 0.31498 0.0
C588 C 0.72964 0.83752 0.31472 0.0
H589 H 0.77133 0.90713 0.30037 0.0
N590 N 0.71786 0.86231 0.31754 0.0
C591 C 0.73975 0.89835 0.30911 0.0
C592 C 0.73377 0.85817 0.31358 0.0
C593 C 0.72028 0.88188 0.31495 0.0
C594 C 0.75644 0.89446 0.30524 0.0
C595 C 0.7534 0.87409 0.3071 0.0
O596 O 0.67515 0.84317 0.30475 0.0
O597 O 0.65915 0.83033 0.34298 0.0
O598 O 0.63939 0.79595 0.35206 0.0
O599 O 0.66034 0.79809 0.32995 0.0
O600 O 0.67122 0.85555 0.32759 0.0
O601 O 0.67176 0.81196 0.30589 0.0
O602 O 0.67712 0.81584 0.3897 0.0
O603 O 0.69032 0.82521 0.35105 0.0
O604 O 0.70995 0.85882 0.34268 0.0
O605 O 0.6877 0.85757 0.36346 0.0
O606 O 0.67958 0.80092 0.36705 0.0
O607 O 0.67632 0.84501 0.38743 0.0
C608 C 0.65702 0.84571 0.33853 0.0
C609 C 0.67792 0.82795 0.28044 0.0
C610 C 0.67031 0.82236 0.2517 0.0
C611 C 0.66311 0.82063 0.26763 0.0
C612 C 0.69257 0.83159 0.24878 0.0
C613 C 0.70003 0.8371 0.27728 0.0
C614 C 0.70731 0.83892 0.26153 0.0
C615 C 0.64239 0.7881 0.33858 0.0
C616 C 0.66999 0.82569 0.29697 0.0
C617 C 0.7688 0.86891 0.30181 0.0
C618 C 0.76435 0.84795 0.30253 0.0
C619 C 0.69314 0.81034 0.35567 0.0
C620 C 0.67233 0.83082 0.41339 0.0
C621 C 0.68711 0.83919 0.4262 0.0
C622 C 0.6797 0.83649 0.44211 0.0
C623 C 0.65738 0.82558 0.44506 0.0
C624 C 0.65013 0.82013 0.41655 0.0
C625 C 0.64269 0.81755 0.4323 0.0
C626 C 0.70622 0.86724 0.35551 0.0
C627 C 0.6803 0.83312 0.39687 0.0
H628 H 0.64598 0.81332 0.2701 0.0
H629 H 0.69861 0.83337 0.23663 0.0
H630 H 0.71165 0.8428 0.28691 0.0
H631 H 0.72443 0.84605 0.2592 0.0
H632 H 0.70431 0.84738 0.42381 0.0
H633 H 0.65132 0.82341 0.45723 0.0
H634 H 0.63854 0.81372 0.40691 0.0
H635 H 0.62551 0.80924 0.43462 0.0
Eu636 Eu 0.1954 0.84609 0.36545 0.0
C637 C 0.14572 0.86649 0.31395 0.0
C638 C 0.10847 0.83884 0.31714 0.0
C639 C 0.1167 0.87375 0.30815 0.0
C640 C 0.13077 0.84596 0.31816 0.0
C641 C 0.13886 0.88047 0.30853 0.0
C642 C 0.10154 0.85298 0.31248 0.0
C643 C 0.17617 0.90605 0.30297 0.0
N644 N 0.16699 0.87246 0.31439 0.0
C645 C 0.18217 0.89159 0.3084 0.0
C646 C 0.15444 0.90058 0.30324 0.0
Eu647 Eu 0.17591 0.84751 0.32447 0.0
N648 N 0.138 0.83267 0.32256 0.0
C649 C 0.12379 0.81168 0.32498 0.0
C650 C 0.09381 0.8176 0.32049 0.0
C651 C 0.10152 0.8039 0.3242 0.0
H652 H 0.19899 0.89588 0.30831 0.0
H653 H 0.09032 0.78737 0.32654 0.0
H654 H 0.08448 0.84787 0.31182 0.0
H655 H 0.18829 0.9214 0.29862 0.0
H656 H 0.12954 0.80097 0.32798 0.0
H657 H 0.28136 0.9047 0.36529 0.0
H658 H 0.07655 0.81153 0.31992 0.0
H659 H 0.17068 0.79922 0.38377 0.0
H660 H 0.24267 0.89141 0.3612 0.0
H661 H 0.17988 0.77409 0.39634 0.0
H662 H 0.11112 0.88433 0.30419 0.0
H663 H 0.29389 0.88068 0.3753 0.0
H664 H 0.28482 0.84456 0.3846 0.0
H665 H 0.14983 0.91179 0.29899 0.0
H666 H 0.25713 0.8088 0.39286 0.0
N667 N 0.23311 0.85985 0.36808 0.0
C668 C 0.2478 0.88062 0.36532 0.0
C669 C 0.27687 0.87463 0.37309 0.0
C670 C 0.26173 0.85355 0.37639 0.0
C671 C 0.26986 0.88825 0.3676 0.0
C672 C 0.23965 0.8466 0.37392 0.0
H673 H 0.21796 0.78253 0.39759 0.0
N674 N 0.20309 0.82124 0.37747 0.0
C675 C 0.19248 0.78874 0.39134 0.0
C676 C 0.22412 0.8266 0.37869 0.0
C677 C 0.18733 0.80301 0.38422 0.0
C678 C 0.21398 0.79353 0.39196 0.0
C679 C 0.23017 0.81285 0.3859 0.0
O680 O 0.17928 0.84165 0.38857 0.0
O681 O 0.16839 0.84393 0.35058 0.0
O682 O 0.17907 0.87545 0.33829 0.0
O683 O 0.20484 0.87958 0.35735 0.0
O684 O 0.15972 0.82276 0.36915 0.0
O685 O 0.20717 0.87191 0.38299 0.0
O686 O 0.19183 0.85408 0.30115 0.0
O687 O 0.20287 0.84925 0.33924 0.0
O688 O 0.19129 0.81698 0.35254 0.0
O689 O 0.16833 0.81417 0.33129 0.0
O690 O 0.21171 0.87063 0.32076 0.0
O691 O 0.16383 0.82333 0.3056 0.0
C692 C 0.15238 0.82937 0.35775 0.0
C693 C 0.2018 0.86136 0.41016 0.0
C694 C 0.19998 0.86575 0.43914 0.0
C695 C 0.19227 0.86535 0.42344 0.0
C696 C 0.21727 0.86189 0.44125 0.0
C697 C 0.21918 0.85788 0.41256 0.0
C698 C 0.22682 0.85809 0.42803 0.0
C699 C 0.19382 0.88676 0.34926 0.0
C700 C 0.1932 0.86045 0.39392 0.0
C701 C 0.25216 0.81921 0.38748 0.0
C702 C 0.26792 0.83956 0.38278 0.0
C703 C 0.21897 0.86369 0.332 0.0
C704 C 0.16947 0.83622 0.27898 0.0
C705 C 0.17933 0.83351 0.26532 0.0
C706 C 0.17217 0.83482 0.24981 0.0
C707 C 0.15495 0.83882 0.24818 0.0
C708 C 0.1522 0.84 0.2771 0.0
C709 C 0.14501 0.84131 0.26176 0.0
C710 C 0.17827 0.80661 0.34031 0.0
C711 C 0.17787 0.83575 0.29503 0.0
H712 H 0.17905 0.86836 0.42148 0.0
H713 H 0.22331 0.86158 0.45314 0.0
H714 H 0.22685 0.85499 0.40252 0.0
H715 H 0.24013 0.8552 0.42979 0.0
H716 H 0.1928 0.83074 0.26678 0.0
H717 H 0.14898 0.83971 0.23639 0.0
H718 H 0.1443 0.84197 0.28744 0.0
H719 H 0.13168 0.84425 0.26039 0.0
Eu720 Eu 0.82628 0.66404 0.65908 0.0
C721 C 0.86039 0.72991 0.71462 0.0
C722 C 0.89765 0.73956 0.71931 0.0
C723 C 0.88581 0.7648 0.72529 0.0
C724 C 0.87667 0.72495 0.71382 0.0
C725 C 0.86471 0.74982 0.72051 0.0
C726 C 0.9022 0.75961 0.72483 0.0
C727 C 0.8266 0.73786 0.71807 0.0
N728 N 0.84003 0.7148 0.71053 0.0
C729 C 0.82305 0.7182 0.71263 0.0
C730 C 0.84755 0.7538 0.72192 0.0
Eu731 Eu 0.83539 0.68211 0.70112 0.0
N732 N 0.87167 0.70532 0.70868 0.0
C733 C 0.88666 0.69897 0.70935 0.0
C734 C 0.91317 0.73325 0.71969 0.0
C735 C 0.90768 0.7129 0.71466 0.0
H736 H 0.80682 0.70591 0.70969 0.0
H737 H 0.91955 0.70783 0.71509 0.0
H738 H 0.91821 0.77103 0.72911 0.0
H739 H 0.81318 0.74066 0.71934 0.0
H740 H 0.88254 0.68318 0.7057 0.0
H741 H 0.74067 0.63884 0.64921 0.0
H742 H 0.9292 0.74368 0.72436 0.0
H743 H 0.85392 0.6407 0.64574 0.0
H744 H 0.77829 0.66393 0.65614 0.0
H745 H 0.84605 0.60585 0.63532 0.0
H746 H 0.88948 0.78019 0.72983 0.0
H747 H 0.72999 0.60235 0.64075 0.0
H748 H 0.74039 0.57518 0.63478 0.0
H749 H 0.85023 0.76894 0.72631 0.0
H750 H 0.76888 0.5661 0.63119 0.0
N751 N 0.78927 0.64187 0.65242 0.0
C752 C 0.77416 0.64814 0.65265 0.0
C753 C 0.74661 0.61328 0.64405 0.0
C754 C 0.76223 0.60717 0.6431 0.0
C755 C 0.75262 0.63388 0.64871 0.0
C756 C 0.78381 0.62207 0.64718 0.0
H757 H 0.80822 0.57746 0.63115 0.0
N758 N 0.8208 0.63183 0.6481 0.0
C759 C 0.83295 0.60869 0.63812 0.0
C760 C 0.79995 0.61689 0.64507 0.0
C761 C 0.83734 0.62841 0.64403 0.0
C762 C 0.81156 0.5927 0.63581 0.0
C763 C 0.79478 0.5968 0.63897 0.0
O764 O 0.84373 0.6929 0.64478 0.0
O765 O 0.85006 0.6868 0.67679 0.0
O766 O 0.83653 0.70747 0.68511 0.0
O767 O 0.81368 0.6866 0.66448 0.0
O768 O 0.8613 0.67235 0.66139 0.0
O769 O 0.8246 0.66314 0.63272 0.0
O770 O 0.81633 0.67358 0.72314 0.0
O771 O 0.8122 0.65826 0.68364 0.0
O772 O 0.82927 0.63928 0.67339 0.0
O773 O 0.84572 0.65759 0.69714 0.0
O774 O 0.79923 0.66981 0.69997 0.0
O775 O 0.84167 0.66578 0.72051 0.0
C776 C 0.86682 0.68641 0.67264 0.0
C777 C 0.85542 0.68905 0.61908 0.0
C778 C 0.87027 0.70208 0.59236 0.0
C779 C 0.85392 0.69669 0.60389 0.0
C780 C 0.88827 0.70005 0.59641 0.0
C781 C 0.87346 0.68697 0.62271 0.0
C782 C 0.88981 0.69257 0.61147 0.0
C783 C 0.82354 0.70454 0.67282 0.0
C784 C 0.8381 0.6832 0.63098 0.0
C785 C 0.77316 0.58167 0.63572 0.0
C786 C 0.75694 0.58685 0.63775 0.0
C787 C 0.79466 0.65644 0.68838 0.0
C788 C 0.83421 0.67233 0.74675 0.0
C789 C 0.82807 0.65697 0.75884 0.0
C790 C 0.83527 0.66304 0.7748 0.0
C791 C 0.84862 0.68468 0.77844 0.0
C792 C 0.84743 0.69378 0.75069 0.0
C793 C 0.8546 0.6999 0.76645 0.0
C794 C 0.83911 0.64114 0.6873 0.0
C795 C 0.82723 0.66577 0.73004 0.0
H796 H 0.83989 0.69808 0.60097 0.0
H797 H 0.9013 0.70443 0.58796 0.0
H798 H 0.875 0.68103 0.63418 0.0
H799 H 0.90373 0.69106 0.61443 0.0
H800 H 0.81797 0.64036 0.75578 0.0
H801 H 0.85417 0.68989 0.79063 0.0
H802 H 0.8522 0.70579 0.74162 0.0
H803 H 0.86478 0.7165 0.7694 0.0
Eu804 Eu 0.35014 0.1644 0.65957 0.0
C805 C 0.27734 0.13538 0.70989 0.0
C806 C 0.26815 0.16314 0.71127 0.0
C807 C 0.2413 0.127 0.71797 0.0
C808 C 0.28312 0.15642 0.70793 0.0
C809 C 0.25642 0.12048 0.71509 0.0
C810 C 0.2472 0.14831 0.71615 0.0
C811 C 0.26783 0.09442 0.71638 0.0
N812 N 0.29271 0.12985 0.70801 0.0
C813 C 0.28853 0.1099 0.71171 0.0
C814 C 0.25164 0.09968 0.71797 0.0
Eu815 Eu 0.32736 0.15698 0.70022 0.0
N816 N 0.30384 0.17057 0.70404 0.0
C817 C 0.31089 0.19176 0.70397 0.0
C818 C 0.275 0.18474 0.71038 0.0
C819 C 0.29654 0.19913 0.70692 0.0
H820 H 0.30109 0.10585 0.71062 0.0
H821 H 0.30212 0.21592 0.70655 0.0
H822 H 0.2356 0.15327 0.71893 0.0
H823 H 0.26443 0.0785 0.71891 0.0
H824 H 0.32753 0.20307 0.70142 0.0
H825 H 0.37793 0.10746 0.65346 0.0
H826 H 0.26396 0.19051 0.71281 0.0
H827 H 0.37444 0.21506 0.64791 0.0
H828 H 0.35186 0.11927 0.65899 0.0
H829 H 0.41044 0.24301 0.63896 0.0
H830 H 0.22519 0.1158 0.72206 0.0
H831 H 0.41555 0.13361 0.64607 0.0
H832 H 0.44354 0.17138 0.64087 0.0
H833 H 0.23571 0.08776 0.72188 0.0
H834 H 0.45247 0.20834 0.63713 0.0
N835 N 0.3745 0.15187 0.65537 0.0
C836 C 0.36823 0.13088 0.65599 0.0
C837 C 0.40424 0.13891 0.64885 0.0
C838 C 0.41043 0.16034 0.64785 0.0
C839 C 0.38302 0.12411 0.65288 0.0
C840 C 0.39491 0.16638 0.65103 0.0
H841 H 0.44016 0.23514 0.63618 0.0
N842 N 0.384 0.19194 0.6507 0.0
C843 C 0.40771 0.22737 0.64171 0.0
C844 C 0.39987 0.1871 0.64873 0.0
C845 C 0.38735 0.21153 0.64675 0.0
C846 C 0.42446 0.22288 0.64022 0.0
C847 C 0.42056 0.20245 0.64345 0.0
O848 O 0.34143 0.17268 0.63665 0.0
O849 O 0.32463 0.16419 0.6748 0.0
O850 O 0.30242 0.13173 0.68388 0.0
O851 O 0.32493 0.12973 0.66471 0.0
O852 O 0.3371 0.18731 0.65788 0.0
O853 O 0.33675 0.14121 0.64005 0.0
O854 O 0.33438 0.14727 0.72318 0.0
O855 O 0.35323 0.15733 0.68516 0.0
O856 O 0.37509 0.1904 0.6753 0.0
O857 O 0.35358 0.19158 0.69581 0.0
O858 O 0.33976 0.13368 0.70189 0.0
O859 O 0.34012 0.17922 0.7204 0.0
C860 C 0.32289 0.1792 0.66907 0.0
C861 C 0.34477 0.15525 0.6139 0.0
C862 C 0.33913 0.15 0.58494 0.0
C863 C 0.33102 0.14923 0.60047 0.0
C864 C 0.36123 0.15693 0.5831 0.0
C865 C 0.36671 0.16202 0.61181 0.0
C866 C 0.37489 0.16286 0.59648 0.0
C867 C 0.30607 0.12168 0.67214 0.0
C868 C 0.336 0.15447 0.62996 0.0
C869 C 0.43643 0.19674 0.64107 0.0
C870 C 0.43134 0.1757 0.6432 0.0
C871 C 0.35446 0.14205 0.69104 0.0
C872 C 0.33036 0.16398 0.74615 0.0
C873 C 0.34373 0.17115 0.7598 0.0
C874 C 0.33487 0.16958 0.77517 0.0
C875 C 0.31238 0.16081 0.77659 0.0
C876 C 0.30804 0.15541 0.74784 0.0
C877 C 0.29911 0.15386 0.76298 0.0
C878 C 0.37198 0.19996 0.68767 0.0
C879 C 0.33989 0.16527 0.73029 0.0
H880 H 0.314 0.14372 0.60216 0.0
H881 H 0.36804 0.15802 0.57129 0.0
H882 H 0.37751 0.16666 0.62196 0.0
H883 H 0.39188 0.16819 0.59496 0.0
H884 H 0.36103 0.17803 0.7584 0.0
H885 H 0.30496 0.15897 0.78823 0.0
H886 H 0.2975 0.14982 0.73754 0.0
H887 H 0.28183 0.14709 0.76418 0.0
Eu888 Eu 0.86072 0.18303 0.69982 0.0
C889 C 0.81535 0.20969 0.64842 0.0
C890 C 0.77725 0.18398 0.65053 0.0
C891 C 0.78859 0.21995 0.64225 0.0
C892 C 0.7991 0.18946 0.65206 0.0
C893 C 0.8103 0.22505 0.64315 0.0
C894 C 0.7721 0.19945 0.64595 0.0
C895 C 0.8484 0.2488 0.63884 0.0
N896 N 0.83613 0.21405 0.64931 0.0
C897 C 0.85259 0.233 0.64407 0.0
C898 C 0.82718 0.24491 0.63855 0.0
Eu899 Eu 0.84204 0.18692 0.65912 0.0
N900 N 0.80464 0.17488 0.65639 0.0
C901 C 0.78913 0.15417 0.6583 0.0
C902 C 0.76125 0.163 0.65332 0.0
C903 C 0.76723 0.14798 0.65701 0.0
H904 H 0.86903 0.23613 0.64437 0.0
H905 H 0.75499 0.13164 0.65894 0.0
H906 H 0.75541 0.1956 0.64489 0.0
H907 H 0.86153 0.26398 0.63505 0.0
H908 H 0.7935 0.14242 0.66126 0.0
H909 H 0.94722 0.239 0.70212 0.0
H910 H 0.74428 0.15817 0.65233 0.0
H911 H 0.83343 0.13346 0.71393 0.0
H912 H 0.90893 0.22743 0.69754 0.0
H913 H 0.84088 0.10593 0.72402 0.0
H914 H 0.78438 0.2316 0.63837 0.0
H915 H 0.95804 0.21311 0.71071 0.0
H916 H 0.94718 0.17574 0.71793 0.0
H917 H 0.82397 0.25715 0.63445 0.0
H918 H 0.91824 0.13944 0.72365 0.0
N919 N 0.89799 0.19516 0.70296 0.0
C920 C 0.91336 0.21591 0.7011 0.0
C921 C 0.94119 0.20787 0.70839 0.0
C922 C 0.92532 0.18673 0.71065 0.0
C923 C 0.93516 0.22254 0.70366 0.0
C924 C 0.90353 0.18083 0.708 0.0
H925 H 0.87855 0.11329 0.72609 0.0
N926 N 0.86649 0.1559 0.70986 0.0
C927 C 0.85407 0.12117 0.72046 0.0
C928 C 0.88728 0.16052 0.71145 0.0
C929 C 0.84992 0.13681 0.71479 0.0
C930 C 0.87536 0.12539 0.72158 0.0
C931 C 0.89231 0.14538 0.71733 0.0
O932 O 0.84474 0.17732 0.72309 0.0
O933 O 0.83432 0.1826 0.68522 0.0
O934 O 0.84596 0.21461 0.67372 0.0
O935 O 0.87123 0.2172 0.69272 0.0
O936 O 0.82475 0.16085 0.70348 0.0
O937 O 0.87301 0.20772 0.71833 0.0
O938 O 0.85821 0.19229 0.636 0.0
O939 O 0.86847 0.18729 0.67373 0.0
O940 O 0.8565 0.15509 0.68518 0.0
O941 O 0.83129 0.15289 0.66628 0.0
O942 O 0.87815 0.20905 0.65554 0.0
O943 O 0.82894 0.16254 0.64035 0.0
C944 C 0.81798 0.16826 0.69227 0.0
C945 C 0.86713 0.19562 0.74516 0.0
C946 C 0.86516 0.19891 0.77427 0.0
C947 C 0.85774 0.1994 0.75863 0.0
C948 C 0.88206 0.19445 0.77612 0.0
C949 C 0.88405 0.19138 0.74731 0.0
C950 C 0.89144 0.19077 0.76272 0.0
C951 C 0.86076 0.22519 0.68486 0.0
C952 C 0.85884 0.19574 0.72899 0.0
C953 C 0.91403 0.15088 0.71924 0.0
C954 C 0.93051 0.17155 0.71597 0.0
C955 C 0.88492 0.20158 0.66673 0.0
C956 C 0.83587 0.17528 0.61369 0.0
C957 C 0.84403 0.16983 0.60032 0.0
C958 C 0.83792 0.17189 0.58459 0.0
C959 C 0.82334 0.17942 0.58259 0.0
C960 C 0.82119 0.18246 0.6114 0.0
C961 C 0.81497 0.1845 0.59591 0.0
C962 C 0.84154 0.14465 0.67407 0.0
C963 C 0.84357 0.17427 0.62987 0.0
H964 H 0.84484 0.20293 0.75689 0.0
H965 H 0.8879 0.19352 0.78795 0.0
H966 H 0.89153 0.18851 0.73712 0.0
H967 H 0.90442 0.18735 0.76429 0.0
H968 H 0.85509 0.16395 0.60225 0.0
H969 H 0.81863 0.18173 0.57072 0.0
H970 H 0.81468 0.18665 0.62153 0.0
H971 H 0.80379 0.19027 0.59422 0.0
H972 H 0.27943 0.85126 0.07221 0.0
H973 H 0.31178 0.87927 0.05941 0.0
H974 H 0.32968 0.83348 0.04446 0.0
H975 H 0.29721 0.80525 0.0574 0.0
H976 H 0.36352 0.86906 0.05894 0.0
H977 H 0.31228 0.85417 0.01687 0.0
H978 H 0.27806 0.848 0.00478 0.0
H979 H 0.29306 0.91077 0.01836 0.0
H980 H 0.32724 0.91723 0.03075 0.0
H981 H 0.45377 0.94857 0.01826 0.0
H982 H 0.41956 0.91595 0.02215 0.0
H983 H 0.3897 0.95244 0.03587 0.0
H984 H 0.42381 0.98524 0.03109 0.0
H985 H 0.36188 0.91856 0.01895 0.0
H986 H 0.41004 0.93169 0.06408 0.0
H987 H 0.44454 0.93875 0.0763 0.0
H988 H 0.43518 0.87985 0.05742 0.0
H989 H 0.40073 0.87257 0.04492 0.0
C990 C 0.29021 0.84713 0.06615 0.0
C991 C 0.28583 0.82606 0.06586 0.0
C992 C 0.30862 0.86313 0.05874 0.0
C993 C 0.32309 0.85846 0.05088 0.0
C994 C 0.31869 0.83741 0.05042 0.0
C995 C 0.3001 0.8213 0.05772 0.0
C996 C 0.34323 0.87584 0.04383 0.0
C997 C 0.36318 0.87963 0.04995 0.0
C998 C 0.34278 0.8899 0.03234 0.0
C999 C 0.32227 0.88612 0.02485 0.0
C1000 C 0.30821 0.86661 0.01739 0.0
C1001 C 0.28883 0.86306 0.01046 0.0
C1002 C 0.28337 0.87897 0.01083 0.0
C1003 C 0.2973 0.89846 0.01809 0.0
C1004 C 0.3167 0.90208 0.02505 0.0
C1005 C 0.4398 0.94969 0.02161 0.0
C1006 C 0.44133 0.96947 0.02401 0.0
C1007 C 0.42026 0.93098 0.02405 0.0
C1008 C 0.40208 0.93169 0.02956 0.0
C1009 C 0.40347 0.95146 0.03159 0.0
C1010 C 0.42295 0.97018 0.02893 0.0
C1011 C 0.38212 0.912 0.03429 0.0
C1012 C 0.36222 0.90781 0.02777 0.0
C1013 C 0.38258 0.89765 0.04551 0.0
C1014 C 0.40292 0.90167 0.05346 0.0
C1015 C 0.41538 0.92028 0.0625 0.0
C1016 C 0.43492 0.92432 0.06947 0.0
C1017 C 0.44206 0.90978 0.06761 0.0
C1018 C 0.42963 0.89111 0.05884 0.0
C1019 C 0.41008 0.887 0.05183 0.0
H1020 H 0.45722 0.91296 0.07298 0.0
H1021 H 0.26835 0.87619 0.00546 0.0
H1022 H 0.19124 0.48694 0.09412 0.0
H1023 H 0.16108 0.48948 0.08312 0.0
H1024 H 0.17489 0.47508 0.0358 0.0
H1025 H 0.20424 0.47092 0.047 0.0
H1026 H 0.15423 0.51184 0.06372 0.0
H1027 H 0.12881 0.44857 0.01369 0.0
H1028 H 0.13129 0.41677 0.00733 0.0
H1029 H 0.13539 0.40627 0.05765 0.0
H1030 H 0.13267 0.43784 0.0643 0.0
H1031 H 0.06545 0.51068 0.02535 0.0
H1032 H 0.09992 0.51204 0.0293 0.0
H1033 H 0.06632 0.44782 0.04672 0.0
H1034 H 0.03173 0.4459 0.0413 0.0
H1035 H 0.09841 0.45193 0.03149 0.0
H1036 H 0.09109 0.49534 0.07218 0.0
H1037 H 0.08517 0.5242 0.08147 0.0
H1038 H 0.14159 0.56945 0.05607 0.0
H1039 H 0.14772 0.54081 0.04651 0.0
C1040 C 0.18781 0.48409 0.08138 0.0
C1041 C 0.19997 0.47819 0.07156 0.0
C1042 C 0.17063 0.48583 0.07504 0.0
C1043 C 0.16524 0.48204 0.05864 0.0
C1044 C 0.17826 0.47756 0.04857 0.0
C1045 C 0.1953 0.47546 0.05497 0.0
C1046 C 0.14548 0.48192 0.05245 0.0
C1047 C 0.1421 0.49875 0.05661 0.0
C1048 C 0.12934 0.46479 0.04332 0.0
C1049 C 0.13082 0.4457 0.03946 0.0
C1050 C 0.1302 0.43944 0.02339 0.0
C1051 C 0.13165 0.42146 0.01973 0.0
C1052 C 0.13359 0.40956 0.03207 0.0
C1053 C 0.13398 0.41555 0.0481 0.0
C1054 C 0.13251 0.43349 0.05182 0.0
C1055 C 0.06537 0.49665 0.02953 0.0
C1056 C 0.04583 0.47796 0.03252 0.0
C1057 C 0.08518 0.49755 0.0321 0.0
C1058 C 0.08595 0.48017 0.03863 0.0
C1059 C 0.06635 0.46146 0.04161 0.0
C1060 C 0.04655 0.46039 0.03859 0.0
C1061 C 0.10696 0.48161 0.04306 0.0
C1062 C 0.11062 0.4651 0.03849 0.0
C1063 C 0.12298 0.49862 0.05235 0.0
C1064 C 0.11976 0.51593 0.05854 0.0
C1065 C 0.10221 0.51145 0.06857 0.0
C1066 C 0.09881 0.52776 0.07387 0.0
C1067 C 0.11297 0.54864 0.06933 0.0
C1068 C 0.13063 0.55327 0.05957 0.0
C1069 C 0.1341 0.53701 0.05423 0.0
H1070 H 0.11027 0.56124 0.0734 0.0
H1071 H 0.13473 0.39567 0.02922 0.0
H1072 H 0.57272 0.72995 0.08036 0.0
H1073 H 0.56974 0.69915 0.06658 0.0
H1074 H 0.51302 0.69041 0.04129 0.0
H1075 H 0.51529 0.72084 0.05574 0.0
H1076 H 0.50675 0.65372 0.05221 0.0
H1077 H 0.5618 0.70981 0.02202 0.0
H1078 H 0.59543 0.74351 0.01736 0.0
H1079 H 0.63226 0.71846 0.03939 0.0
H1080 H 0.59881 0.6847 0.04439 0.0
H1081 H 0.50666 0.5746 0.00294 0.0
H1082 H 0.51059 0.60867 0.01034 0.0
H1083 H 0.56203 0.61993 0.0433 0.0
H1084 H 0.55851 0.58586 0.03577 0.0
H1085 H 0.56975 0.65599 0.02533 0.0
H1086 H 0.5134 0.60127 0.05781 0.0
H1087 H 0.4798 0.56703 0.0609 0.0
H1088 H 0.44527 0.58974 0.03264 0.0
H1089 H 0.47878 0.62406 0.02923 0.0
C1090 C 0.55947 0.72141 0.07198 0.0
C1091 C 0.54411 0.72775 0.06925 0.0
C1092 C 0.55797 0.70395 0.06392 0.0
C1093 C 0.54135 0.69265 0.05272 0.0
C1094 C 0.52604 0.69899 0.04984 0.0
C1095 C 0.52745 0.71644 0.058 0.0
C1096 C 0.53965 0.67377 0.04457 0.0
C1097 C 0.5204 0.65433 0.04605 0.0
C1098 C 0.55755 0.67448 0.03671 0.0
C1099 C 0.57775 0.69475 0.03368 0.0
C1100 C 0.57705 0.71153 0.02598 0.0
C1101 C 0.59608 0.73064 0.02326 0.0
C1102 C 0.61596 0.73313 0.0281 0.0
C1103 C 0.61685 0.7165 0.03565 0.0
C1104 C 0.59785 0.69736 0.03841 0.0
C1105 C 0.51908 0.58441 0.01157 0.0
C1106 C 0.53225 0.57746 0.01881 0.0
C1107 C 0.52122 0.60386 0.01582 0.0
C1108 C 0.53645 0.61665 0.02746 0.0
C1109 C 0.55019 0.61021 0.03428 0.0
C1110 C 0.54806 0.5907 0.03003 0.0
C1111 C 0.53709 0.63611 0.03326 0.0
C1112 C 0.55609 0.65556 0.03133 0.0
C1113 C 0.51894 0.63546 0.04058 0.0
C1114 C 0.49861 0.61517 0.04318 0.0
C1115 C 0.49865 0.59894 0.05223 0.0
C1116 C 0.47963 0.57952 0.05403 0.0
C1117 C 0.46042 0.57621 0.04696 0.0
C1118 C 0.46017 0.59234 0.03812 0.0
C1119 C 0.47916 0.61179 0.03627 0.0
H1120 H 0.44573 0.56115 0.04836 0.0
H1121 H 0.63068 0.74794 0.02599 0.0
H1122 H 0.84637 0.26983 0.94931 0.0
H1123 H 0.87492 0.30231 0.96142 0.0
H1124 H 0.82718 0.3144 0.9827 0.0
H1125 H 0.79839 0.2823 0.96986 0.0
H1126 H 0.85792 0.34935 0.96999 0.0
H1127 H 0.85706 0.29757 0.00533 0.0
H1128 H 0.85745 0.26512 0.01289 0.0
H1129 H 0.92005 0.28945 0.9917 0.0
H1130 H 0.91992 0.32195 0.98381 0.0
H1131 H 0.93266 0.43223 0.02046 0.0
H1132 H 0.90349 0.39775 0.01171 0.0
H1133 H 0.94841 0.38816 0.98355 0.0
H1134 H 0.97795 0.4228 0.99233 0.0
H1135 H 0.91865 0.35193 0.00099 0.0
H1136 H 0.91834 0.40339 0.96509 0.0
H1137 H 0.91808 0.43627 0.9588 0.0
H1138 H 0.85702 0.41231 0.98241 0.0
H1139 H 0.85713 0.37945 0.98913 0.0
C1140 C 0.84188 0.27941 0.9565 0.0
C1141 C 0.82003 0.27348 0.95849 0.0
C1142 C 0.85827 0.29789 0.9636 0.0
C1143 C 0.85327 0.31075 0.97316 0.0
C1144 C 0.83146 0.30472 0.97542 0.0
C1145 C 0.815 0.28625 0.9682 0.0
C1146 C 0.87087 0.33085 0.9802 0.0
C1147 C 0.87097 0.34981 0.977 0.0
C1148 C 0.88821 0.33163 0.98909 0.0
C1149 C 0.88839 0.31213 0.99386 0.0
C1150 C 0.87084 0.29594 0.00218 0.0
C1151 C 0.87103 0.27755 0.00654 0.0
C1152 C 0.88874 0.2752 0.00274 0.0
C1153 C 0.90633 0.29128 0.99462 0.0
C1154 C 0.90622 0.3097 0.99022 0.0
C1155 C 0.93649 0.42277 0.01253 0.0
C1156 C 0.95771 0.43034 0.00708 0.0
C1157 C 0.91972 0.40306 0.0075 0.0
C1158 C 0.92375 0.39049 0.99688 0.0
C1159 C 0.94498 0.39766 0.99175 0.0
C1160 C 0.96181 0.41748 0.99672 0.0
C1161 C 0.90563 0.37022 0.99069 0.0
C1162 C 0.90548 0.35133 0.99404 0.0
C1163 C 0.88817 0.36947 0.98205 0.0
C1164 C 0.88784 0.38903 0.97773 0.0
C1165 C 0.90493 0.40519 0.96904 0.0
C1166 C 0.90482 0.42383 0.9654 0.0
C1167 C 0.88758 0.4264 0.97024 0.0
C1168 C 0.87039 0.41032 0.9787 0.0
C1169 C 0.87046 0.39167 0.98242 0.0
H1170 H 0.88753 0.44084 0.96739 0.0
H1171 H 0.88885 0.26095 0.00613 0.0
H1172 H 0.71716 0.50527 0.96439 0.0
H1173 H 0.68517 0.50392 0.97634 0.0
H1174 H 0.70318 0.56463 0.95567 0.0
H1175 H 0.73532 0.56633 0.94415 0.0
H1176 H 0.69086 0.56369 0.98533 0.0
H1177 H 0.66238 0.51705 0.93973 0.0
H1178 H 0.65383 0.4865 0.92218 0.0
H1179 H 0.61956 0.44394 0.96068 0.0
H1180 H 0.62821 0.47427 0.97857 0.0
H1181 H 0.59313 0.5661 0.98903 0.0
H1182 H 0.62662 0.56637 0.98307 0.0
H1183 H 0.59952 0.50316 0.00197 0.0
H1184 H 0.56544 0.5024 0.00683 0.0
H1185 H 0.61682 0.50395 0.97541 0.0
H1186 H 0.64728 0.55135 0.02131 0.0
H1187 H 0.6556 0.58244 0.03835 0.0
H1188 H 0.68538 0.62357 0.99823 0.0
H1189 H 0.6774 0.59278 0.98108 0.0
C1190 C 0.7144 0.51842 0.96253 0.0
C1191 C 0.72879 0.53585 0.9532 0.0
C1192 C 0.69595 0.51752 0.96923 0.0
C1193 C 0.6915 0.53404 0.96675 0.0
C1194 C 0.70611 0.55161 0.95772 0.0
C1195 C 0.72446 0.5525 0.95103 0.0
C1196 C 0.67192 0.53338 0.97371 0.0
C1197 C 0.67466 0.55065 0.98305 0.0
C1198 C 0.65072 0.51619 0.97113 0.0
C1199 C 0.64623 0.49797 0.96057 0.0
C1200 C 0.6533 0.5012 0.94454 0.0
C1201 C 0.64836 0.48391 0.93451 0.0
C1202 C 0.63623 0.4633 0.94033 0.0
C1203 C 0.62902 0.45992 0.95621 0.0
C1204 C 0.63395 0.47716 0.9663 0.0
C1205 C 0.59449 0.55243 0.99223 0.0
C1206 C 0.57674 0.53442 0.99874 0.0
C1207 C 0.61379 0.55265 0.98895 0.0
C1208 C 0.61602 0.53495 0.99232 0.0
C1209 C 0.59844 0.51712 0.9993 0.0
C1210 C 0.57896 0.51677 0.0023 0.0
C1211 C 0.63573 0.53428 0.98706 0.0
C1212 C 0.63302 0.51681 0.97794 0.0
C1213 C 0.65699 0.55131 0.98977 0.0
C1214 C 0.66147 0.56978 0.99993 0.0
C1215 C 0.65538 0.56703 0.01614 0.0
C1216 C 0.66013 0.58458 0.02581 0.0
C1217 C 0.67083 0.60493 0.01934 0.0
C1218 C 0.67701 0.6078 0.00322 0.0
C1219 C 0.67248 0.59032 0.99355 0.0
H1220 H 0.67443 0.61847 0.02684 0.0
H1221 H 0.63235 0.44993 0.93253 0.0
H1222 H 0.50144 0.21126 0.96354 0.0
H1223 H 0.50342 0.18209 0.97605 0.0
H1224 H 0.43787 0.13874 0.96112 0.0
H1225 H 0.43528 0.16804 0.94943 0.0
H1226 H 0.44478 0.12801 0.98973 0.0
H1227 H 0.48146 0.14464 0.93923 0.0
H1228 H 0.50764 0.16753 0.91888 0.0
H1229 H 0.56 0.18197 0.95149 0.0
H1230 H 0.53409 0.15938 0.97213 0.0
H1231 H 0.45453 0.03413 0.98844 0.0
H1232 H 0.44965 0.06385 0.98051 0.0
H1233 H 0.50915 0.10739 0.00466 0.0
H1234 H 0.51407 0.07797 0.01278 0.0
H1235 H 0.50496 0.11759 0.97181 0.0
H1236 H 0.4666 0.09872 0.02196 0.0
H1237 H 0.43942 0.07409 0.04102 0.0
H1238 H 0.38882 0.06178 0.00725 0.0
H1239 H 0.41576 0.08608 0.98786 0.0
C1240 C 0.48726 0.19563 0.96323 0.0
C1241 C 0.46829 0.19197 0.95528 0.0
C1242 C 0.48851 0.1789 0.97023 0.0
C1243 C 0.47096 0.15814 0.96918 0.0
C1244 C 0.45167 0.15459 0.96195 0.0
C1245 C 0.45032 0.17134 0.95511 0.0
C1246 C 0.47309 0.14002 0.97487 0.0
C1247 C 0.45781 0.12563 0.98568 0.0
C1248 C 0.4902 0.13697 0.96969 0.0
C1249 C 0.50582 0.1505 0.95728 0.0
C1250 C 0.49855 0.15282 0.9421 0.0
C1251 C 0.51334 0.16572 0.93051 0.0
C1252 C 0.53547 0.17624 0.9339 0.0
C1253 C 0.54285 0.17384 0.94889 0.0
C1254 C 0.52812 0.16098 0.96053 0.0
C1255 C 0.4665 0.05003 0.99212 0.0
C1256 C 0.48465 0.05371 0.00125 0.0
C1257 C 0.46365 0.06693 0.98764 0.0
C1258 C 0.47904 0.08772 0.99206 0.0
C1259 C 0.49712 0.09142 0.00118 0.0
C1260 C 0.49983 0.07457 0.00585 0.0
C1261 C 0.47677 0.10578 0.98669 0.0
C1262 C 0.49199 0.12008 0.97587 0.0
C1263 C 0.45946 0.10853 0.99169 0.0
C1264 C 0.44323 0.09406 0.00339 0.0
C1265 C 0.4497 0.09061 0.01853 0.0
C1266 C 0.43433 0.07674 0.02941 0.0
C1267 C 0.41241 0.06633 0.02534 0.0
C1268 C 0.40581 0.06983 0.01039 0.0
C1269 C 0.42112 0.08366 0.99945 0.0
H1270 H 0.40053 0.05559 0.03377 0.0
H1271 H 0.54689 0.18622 0.92491 0.0
H1272 H 0.6862 0.1801 0.93613 0.0
H1273 H 0.65314 0.15171 0.94789 0.0
H1274 H 0.68984 0.14962 0.98846 0.0
H1275 H 0.72286 0.17866 0.97695 0.0
H1276 H 0.64137 0.1133 0.9531 0.0
H1277 H 0.6574 0.13015 0.02162 0.0
H1278 H 0.67619 0.16067 0.04009 0.0
H1279 H 0.67028 0.20092 0.00538 0.0
H1280 H 0.6512 0.17061 0.98681 0.0
H1281 H 0.56823 0.02192 0.99362 0.0
H1282 H 0.60273 0.05384 0.98796 0.0
H1283 H 0.5746 0.09259 0.99929 0.0
H1284 H 0.54008 0.06072 0.00485 0.0
H1285 H 0.61762 0.11129 0.00935 0.0
H1286 H 0.57516 0.08067 0.96204 0.0
H1287 H 0.55304 0.05173 0.943 0.0
H1288 H 0.60717 0.04314 0.93352 0.0
H1289 H 0.62952 0.07181 0.95274 0.0
C1290 C 0.68715 0.17372 0.94765 0.0
C1291 C 0.70704 0.18162 0.95565 0.0
C1292 C 0.66826 0.15743 0.95434 0.0
C1293 C 0.66886 0.14851 0.96914 0.0
C1294 C 0.6888 0.15646 0.9772 0.0
C1295 C 0.70771 0.17299 0.97057 0.0
C1296 C 0.64874 0.1303 0.97564 0.0
C1297 C 0.63629 0.11296 0.96541 0.0
C1298 C 0.64172 0.12982 0.99165 0.0
C1299 C 0.65311 0.14815 0.00275 0.0
C1300 C 0.66007 0.14551 0.01795 0.0
C1301 C 0.67077 0.16277 0.02843 0.0
C1302 C 0.6745 0.18274 0.02389 0.0
C1303 C 0.66747 0.18547 0.00886 0.0
C1304 C 0.65674 0.16826 0.99834 0.0
C1305 C 0.56959 0.03729 0.99524 0.0
C1306 C 0.55159 0.03887 0.99986 0.0
C1307 C 0.58926 0.05548 0.99201 0.0
C1308 C 0.59117 0.07557 0.99307 0.0
C1309 C 0.57351 0.07726 0.99846 0.0
C1310 C 0.55379 0.05902 0.00167 0.0
C1311 C 0.61073 0.09444 0.98685 0.0
C1312 C 0.62294 0.11177 0.99709 0.0
C1313 C 0.61722 0.09528 0.9707 0.0
C1314 C 0.60396 0.07824 0.95895 0.0
C1315 C 0.58231 0.07251 0.95598 0.0
C1316 C 0.56973 0.05616 0.94516 0.0
C1317 C 0.57868 0.04557 0.93709 0.0
C1318 C 0.60025 0.05135 0.9398 0.0
C1319 C 0.61289 0.06764 0.95066 0.0
H1320 H 0.56892 0.03293 0.92871 0.0
H1321 H 0.68279 0.19608 0.03202 0.0
H1322 H 0.83073 0.54063 0.97084 0.0
H1323 H 0.86199 0.53935 0.98205 0.0
H1324 H 0.8473 0.48581 0.95161 0.0
H1325 H 0.8166 0.48748 0.93999 0.0
H1326 H 0.8558 0.48524 0.98936 0.0
H1327 H 0.88406 0.52158 0.93843 0.0
H1328 H 0.89186 0.54994 0.919 0.0
H1329 H 0.92956 0.59689 0.9547 0.0
H1330 H 0.92168 0.56877 0.97442 0.0
H1331 H 0.9486 0.47414 0.00199 0.0
H1332 H 0.91615 0.47457 0.99361 0.0
H1333 H 0.95059 0.54283 0.99722 0.0
H1334 H 0.98367 0.5423 0.00374 0.0
H1335 H 0.93076 0.53576 0.97275 0.0
H1336 H 0.8911 0.50401 0.02458 0.0
H1337 H 0.87643 0.47842 0.04673 0.0
H1338 H 0.86059 0.42729 0.01362 0.0
H1339 H 0.87343 0.4526 0.99108 0.0
C1340 C 0.83413 0.52854 0.96662 0.0
C1341 C 0.82119 0.51407 0.9546 0.0
C1342 C 0.85202 0.52788 0.97296 0.0
C1343 C 0.85698 0.51252 0.96761 0.0
C1344 C 0.84378 0.4978 0.95588 0.0
C1345 C 0.82626 0.49876 0.94928 0.0
C1346 C 0.87584 0.51164 0.97428 0.0
C1347 C 0.87223 0.49616 0.98565 0.0
C1348 C 0.89724 0.52623 0.96981 0.0
C1349 C 0.90205 0.54309 0.95794 0.0
C1350 C 0.8938 0.53795 0.94218 0.0
C1351 C 0.89829 0.55398 0.93111 0.0
C1352 C 0.91114 0.5752 0.93563 0.0
C1353 C 0.91958 0.58044 0.95122 0.0
C1354 C 0.91511 0.56447 0.96235 0.0
C1355 C 0.94905 0.48919 0.00136 0.0
C1356 C 0.96859 0.5082 0.00377 0.0
C1357 C 0.93027 0.48945 0.99673 0.0
C1358 C 0.93032 0.50871 0.99504 0.0
C1359 C 0.9498 0.52766 0.99825 0.0
C1360 C 0.96876 0.52741 0.00214 0.0
C1361 C 0.91108 0.50944 0.98835 0.0
C1362 C 0.91449 0.52484 0.97673 0.0
C1363 C 0.88946 0.49509 0.99291 0.0
C1364 C 0.88397 0.48017 0.00632 0.0
C1365 C 0.88481 0.48734 0.0221 0.0
C1366 C 0.87651 0.47286 0.03468 0.0
C1367 C 0.86809 0.45126 0.03168 0.0
C1368 C 0.86737 0.44404 0.01598 0.0
C1369 C 0.87485 0.4584 0.00327 0.0
H1370 H 0.8619 0.44011 0.04148 0.0
H1371 H 0.9146 0.58759 0.92704 0.0
H1372 H 0.50754 0.32354 0.92727 0.0
H1373 H 0.51208 0.35603 0.93972 0.0
H1374 H 0.49717 0.32571 0.98604 0.0
H1375 H 0.49237 0.29319 0.97365 0.0
H1376 H 0.4745 0.34494 0.98091 0.0
H1377 H 0.54861 0.36318 0.97611 0.0
H1378 H 0.58198 0.36925 0.96283 0.0
H1379 H 0.58077 0.41622 0.9326 0.0
H1380 H 0.54714 0.41013 0.94546 0.0
H1381 H 0.53762 0.45966 0.01519 0.0
H1382 H 0.53525 0.42675 0.00613 0.0
H1383 H 0.48054 0.41358 0.97612 0.0
H1384 H 0.48268 0.44654 0.98519 0.0
H1385 H 0.53934 0.41602 0.97511 0.0
H1386 H 0.44697 0.35911 0.97591 0.0
H1387 H 0.41519 0.35419 0.99105 0.0
H1388 H 0.45538 0.38499 0.03221 0.0
H1389 H 0.48732 0.3898 0.01741 0.0
C1390 C 0.50544 0.32392 0.94013 0.0
C1391 C 0.4996 0.3059 0.94948 0.0
C1392 C 0.50811 0.34248 0.94723 0.0
C1393 C 0.5051 0.34332 0.96383 0.0
C1394 C 0.49956 0.32538 0.97322 0.0
C1395 C 0.49687 0.30683 0.96612 0.0
C1396 C 0.50668 0.36252 0.97128 0.0
C1397 C 0.48871 0.36047 0.97965 0.0
C1398 C 0.52528 0.38278 0.96973 0.0
C1399 C 0.54518 0.38601 0.96165 0.0
C1400 C 0.55528 0.3746 0.96649 0.0
C1401 C 0.57428 0.37809 0.95905 0.0
C1402 C 0.58345 0.39307 0.94685 0.0
C1403 C 0.57362 0.40458 0.94203 0.0
C1404 C 0.55458 0.40111 0.94938 0.0
C1405 C 0.52487 0.44967 0.00684 0.0
C1406 C 0.51027 0.45569 0.00094 0.0
C1407 C 0.52366 0.43093 0.00159 0.0
C1408 C 0.50773 0.41777 0.9905 0.0
C1409 C 0.49286 0.42349 0.9848 0.0
C1410 C 0.49414 0.44233 0.98996 0.0
C1411 C 0.50711 0.39839 0.9845 0.0
C1412 C 0.52519 0.40045 0.97634 0.0
C1413 C 0.48874 0.37814 0.98637 0.0
C1414 C 0.46956 0.375 0.99548 0.0
C1415 C 0.449 0.36475 0.98821 0.0
C1416 C 0.43096 0.36199 0.99673 0.0
C1417 C 0.43328 0.36933 0.01256 0.0
C1418 C 0.45362 0.37938 0.01992 0.0
C1419 C 0.4717 0.38215 0.01147 0.0
H1420 H 0.4193 0.3672 0.01912 0.0
H1421 H 0.59821 0.3958 0.94116 0.0
H1422 H 0.15412 0.72186 0.07697 0.0
H1423 H 0.12859 0.68545 0.06893 0.0
H1424 H 0.17987 0.68105 0.0454 0.0
H1425 H 0.20558 0.71778 0.05333 0.0
H1426 H 0.14352 0.66392 0.02701 0.0
H1427 H 0.16096 0.65702 0.08108 0.0
H1428 H 0.16642 0.66473 0.11015 0.0
H1429 H 0.09956 0.64636 0.11518 0.0
H1430 H 0.09376 0.63882 0.08609 0.0
H1431 H 0.07949 0.5524 0.01692 0.0
H1432 H 0.10784 0.58769 0.02483 0.0
H1433 H 0.06116 0.59767 0.05023 0.0
H1434 H 0.03258 0.56204 0.04256 0.0
H1435 H 0.09732 0.61124 0.0677 0.0
H1436 H 0.08093 0.62003 0.01281 0.0
H1437 H 0.07602 0.61155 0.98383 0.0
H1438 H 0.14177 0.62551 0.98058 0.0
H1439 H 0.14701 0.63386 0.00959 0.0
C1440 C 0.15996 0.71314 0.07007 0.0
C1441 C 0.18181 0.72262 0.06581 0.0
C1442 C 0.14537 0.69229 0.06555 0.0
C1443 C 0.15235 0.68038 0.05677 0.0
C1444 C 0.17415 0.68992 0.05224 0.0
C1445 C 0.18882 0.71087 0.05679 0.0
C1446 C 0.13667 0.65807 0.05225 0.0
C1447 C 0.13366 0.65231 0.03593 0.0
C1448 C 0.12356 0.64297 0.06386 0.0
C1449 C 0.12698 0.64754 0.08137 0.0
C1450 C 0.14746 0.6548 0.08836 0.0
C1451 C 0.15061 0.65911 0.10484 0.0
C1452 C 0.13336 0.65609 0.1145 0.0
C1453 C 0.11292 0.64871 0.10768 0.0
C1454 C 0.10968 0.6444 0.0912 0.0
C1455 C 0.07513 0.56212 0.02406 0.0
C1456 C 0.05365 0.55446 0.02892 0.0
C1457 C 0.09143 0.58235 0.02858 0.0
C1458 C 0.08661 0.59551 0.0379 0.0
C1459 C 0.06525 0.58782 0.04297 0.0
C1460 C 0.04891 0.56748 0.03854 0.0
C1461 C 0.10387 0.61723 0.04245 0.0
C1462 C 0.10722 0.62285 0.05879 0.0
C1463 C 0.11737 0.63214 0.03087 0.0
C1464 C 0.11431 0.62742 0.01339 0.0
C1465 C 0.09431 0.6212 0.00593 0.0
C1466 C 0.09148 0.61645 0.9895 0.0
C1467 C 0.10858 0.618 0.98037 0.0
C1468 C 0.12855 0.62434 0.98766 0.0
C1469 C 0.13147 0.62911 0.00409 0.0
H1470 H 0.10634 0.61428 0.96766 0.0
H1471 H 0.13583 0.65942 0.12726 0.0
H1472 H 0.29659 0.43971 0.06653 0.0
H1473 H 0.33283 0.44952 0.05757 0.0
H1474 H 0.34845 0.51462 0.05349 0.0
H1475 H 0.31163 0.50456 0.06189 0.0
H1476 H 0.36522 0.50602 0.02947 0.0
H1477 H 0.3681 0.49656 0.08532 0.0
H1478 H 0.35687 0.47927 0.11171 0.0
H1479 H 0.36348 0.42724 0.09451 0.0
H1480 H 0.37445 0.44406 0.06794 0.0
H1481 H 0.47755 0.53172 0.0196 0.0
H1482 H 0.44384 0.53043 0.02702 0.0
H1483 H 0.41342 0.46277 0.03298 0.0
H1484 H 0.44748 0.46433 0.02653 0.0
H1485 H 0.40729 0.47921 0.05845 0.0
H1486 H 0.38512 0.48766 0.99933 0.0
H1487 H 0.39236 0.50771 0.97408 0.0
H1488 H 0.42549 0.56626 1.0005 0.0
H1489 H 0.41743 0.54645 0.02593 0.0
C1490 C 0.30773 0.45612 0.06367 0.0
C1491 C 0.30127 0.47134 0.06493 0.0
C1492 C 0.32857 0.46178 0.05869 0.0
C1493 C 0.34372 0.48295 0.05519 0.0
C1494 C 0.33718 0.4982 0.05619 0.0
C1495 C 0.31612 0.49245 0.061 0.0
C1496 C 0.3661 0.4888 0.05015 0.0
C1497 C 0.37451 0.50036 0.03598 0.0
C1498 C 0.37856 0.48175 0.05861 0.0
C1499 C 0.37196 0.47152 0.07459 0.0
C1500 C 0.36701 0.48136 0.08712 0.0
C1501 C 0.36071 0.47165 0.10213 0.0
C1502 C 0.35943 0.45215 0.10478 0.0
C1503 C 0.36447 0.44234 0.09244 0.0
C1504 C 0.37076 0.45197 0.07741 0.0
C1505 C 0.46348 0.51651 0.02204 0.0
C1506 C 0.46508 0.49806 0.02237 0.0
C1507 C 0.44405 0.51575 0.02621 0.0
C1508 C 0.42575 0.49644 0.03045 0.0
C1509 C 0.42719 0.4779 0.02985 0.0
C1510 C 0.44665 0.47875 0.02608 0.0
C1511 C 0.40587 0.49541 0.03729 0.0
C1512 C 0.398 0.48488 0.05198 0.0
C1513 C 0.39422 0.50391 0.02957 0.0
C1514 C 0.40125 0.51565 0.01438 0.0
C1515 C 0.3942 0.5048 0.99968 0.0
C1516 C 0.39815 0.51611 0.98539 0.0
C1517 C 0.4095 0.53826 0.98567 0.0
C1518 C 0.4168 0.54913 1.00028 0.0
C1519 C 0.41241 0.53788 0.01463 0.0
H1520 H 0.41261 0.54698 0.97458 0.0
H1521 H 0.35455 0.44466 0.1164 0.0
H1522 H 0.57257 0.85842 0.08081 0.0
H1523 H 0.56181 0.88329 0.07078 0.0
H1524 H 0.50795 0.8323 0.04553 0.0
H1525 H 0.51891 0.80741 0.05532 0.0
H1526 H 0.52784 0.86649 0.02698 0.0
H1527 H 0.50054 0.8523 0.08039 0.0
H1528 H 0.50101 0.84892 0.10984 0.0
H1529 H 0.54769 0.91509 0.11419 0.0
H1530 H 0.54784 0.9188 0.08473 0.0
H1531 H 0.48087 0.93107 0.01063 0.0
H1532 H 0.48653 0.90253 0.02007 0.0
H1533 H 0.54289 0.94781 0.04671 0.0
H1534 H 0.53717 0.97636 0.03758 0.0
H1535 H 0.51774 0.91382 0.06451 0.0
H1536 H 0.54685 0.92682 0.01059 0.0
H1537 H 0.54428 0.93034 0.98131 0.0
H1538 H 0.49225 0.86604 0.9783 0.0
H1539 H 0.49432 0.86223 0.00762 0.0
C1540 C 0.55846 0.85256 0.0731 0.0
C1541 C 0.54656 0.83106 0.06886 0.0
C1542 C 0.55225 0.86672 0.06745 0.0
C1543 C 0.53388 0.85958 0.05761 0.0
C1544 C 0.52213 0.83811 0.05316 0.0
C1545 C 0.52839 0.82393 0.05877 0.0
C1546 C 0.52721 0.87465 0.05184 0.0
C1547 C 0.52531 0.87661 0.03521 0.0
C1548 C 0.52412 0.88802 0.06257 0.0
C1549 C 0.52435 0.88577 0.0803 0.0
C1550 C 0.51109 0.86608 0.0876 0.0
C1551 C 0.51122 0.86412 0.1043 0.0
C1552 C 0.52441 0.88176 0.11387 0.0
C1553 C 0.53751 0.90142 0.10676 0.0
C1554 C 0.53749 0.90346 0.09005 0.0
C1555 C 0.49459 0.93499 0.01837 0.0
C1556 C 0.50868 0.95601 0.02326 0.0
C1557 C 0.49777 0.91865 0.02377 0.0
C1558 C 0.51524 0.9231 0.03398 0.0
C1559 C 0.5293 0.94405 0.03886 0.0
C1560 C 0.52604 0.96036 0.03358 0.0
C1561 C 0.51897 0.906 0.03971 0.0
C1562 C 0.52021 0.90361 0.05633 0.0
C1563 C 0.52138 0.89223 0.029 0.0
C1564 C 0.52063 0.89429 0.01131 0.0
C1565 C 0.53482 0.91345 0.00369 0.0
C1566 C 0.53345 0.9155 0.98709 0.0
C1567 C 0.51809 0.89844 0.97795 0.0
C1568 C 0.50413 0.87925 0.98539 0.0
C1569 C 0.50541 0.87713 0.002 0.0
H1570 H 0.51701 0.90008 0.96511 0.0
H1571 H 0.52445 0.88022 0.12681 0.0
H1572 H 0.98109 0.16033 0.42798 0.0
H1573 H 0.01308 0.18901 0.41529 0.0
H1574 H 0.97676 0.17952 0.37151 0.0
H1575 H 0.94463 0.15071 0.38416 0.0
H1576 H 0.01705 0.18753 0.36506 0.0
H1577 H 0.98511 0.21876 0.39799 0.0
H1578 H 0.97084 0.22484 0.42315 0.0
H1579 H 0.03269 0.24814 0.44596 0.0
H1580 H 0.04724 0.24189 0.42099 0.0
H1581 H 0.0901 0.3127 0.36069 0.0
H1582 H 0.05698 0.27974 0.3668 0.0
H1583 H 0.09048 0.24493 0.35949 0.0
H1584 H 0.12318 0.27776 0.35249 0.0
H1585 H 0.0512 0.25817 0.39131 0.0
H1586 H 0.06448 0.19982 0.3574 0.0
H1587 H 0.07166 0.18945 0.33085 0.0
H1588 H 0.03938 0.21866 0.30782 0.0
H1589 H 0.03324 0.23025 0.33421 0.0
C1590 C 0.97992 0.1643 0.41562 0.0
C1591 C 0.96023 0.15338 0.40713 0.0
C1592 C 0.99824 0.1807 0.40839 0.0
C1593 C 0.99726 0.1867 0.39253 0.0
C1594 C 0.9779 0.17521 0.38377 0.0
C1595 C 0.95956 0.15871 0.39099 0.0
C1596 C 0.01613 0.20545 0.38532 0.0
C1597 C 0.02453 0.203 0.3708 0.0
C1598 C 0.02585 0.2257 0.3927 0.0
C1599 C 0.0172 0.22966 0.40767 0.0
C1600 C 0.99562 0.22504 0.40841 0.0
C1601 C 0.98749 0.22854 0.42263 0.0
C1602 C 1.00084 0.23683 0.43616 0.0
C1603 C 0.02237 0.24169 0.43548 0.0
C1604 C 0.03057 0.23819 0.42129 0.0
C1605 C 0.09012 0.29788 0.35987 0.0
C1606 C 0.10913 0.29779 0.35597 0.0
C1607 C 0.07122 0.27902 0.36345 0.0
C1608 C 0.071 0.25961 0.36369 0.0
C1609 C 0.08982 0.25941 0.35907 0.0
C1610 C 0.10866 0.2783 0.35511 0.0
C1611 C 0.05209 0.24049 0.37074 0.0
C1612 C 0.04378 0.24279 0.38545 0.0
C1613 C 0.04225 0.22018 0.36344 0.0
C1614 C 0.04887 0.21626 0.34766 0.0
C1615 C 0.05951 0.20452 0.34661 0.0
C1616 C 0.06339 0.19844 0.33162 0.0
C1617 C 0.05607 0.20347 0.31764 0.0
C1618 C 0.04526 0.21497 0.31864 0.0
C1619 C 0.04191 0.22162 0.33358 0.0
H1620 H 0.05873 0.19843 0.30605 0.0
H1621 H 0.99451 0.23952 0.44716 0.0
H1622 H 0.85608 0.81727 0.42458 0.0
H1623 H 0.82624 0.82036 0.41319 0.0
H1624 H 0.83335 0.79527 0.36808 0.0
H1625 H 0.86317 0.79196 0.37945 0.0
H1626 H 0.82598 0.82763 0.36319 0.0
H1627 H 0.7937 0.76406 0.39484 0.0
H1628 H 0.78771 0.74324 0.41951 0.0
H1629 H 0.76629 0.78131 0.44397 0.0
H1630 H 0.77246 0.80257 0.4195 0.0
H1631 H 0.69868 0.77653 0.35871 0.0
H1632 H 0.73211 0.77636 0.36452 0.0
H1633 H 0.76811 0.84438 0.36028 0.0
H1634 H 0.73468 0.8444 0.35387 0.0
H1635 H 0.75466 0.79108 0.38982 0.0
H1636 H 0.81429 0.86317 0.35773 0.0
H1637 H 0.82551 0.88191 0.3318 0.0
H1638 H 0.79376 0.82239 0.30657 0.0
H1639 H 0.78169 0.80343 0.33234 0.0
C1640 C 0.85131 0.81235 0.41223 0.0
C1641 C 0.86197 0.80414 0.40301 0.0
C1642 C 0.8342 0.81415 0.40573 0.0
C1643 C 0.82722 0.80772 0.38984 0.0
C1644 C 0.83836 0.80029 0.38038 0.0
C1645 C 0.8555 0.79849 0.38689 0.0
C1646 C 0.80807 0.80831 0.38318 0.0
C1647 C 0.81038 0.81962 0.36904 0.0
C1648 C 0.78762 0.79788 0.3907 0.0
C1649 C 0.78374 0.78502 0.40538 0.0
C1650 C 0.78786 0.76808 0.40551 0.0
C1651 C 0.78441 0.7562 0.41945 0.0
C1652 C 0.77668 0.76099 0.43331 0.0
C1653 C 0.77231 0.77765 0.43323 0.0
C1654 C 0.77577 0.78961 0.41933 0.0
C1655 C 0.71384 0.79138 0.35852 0.0
C1656 C 0.71401 0.81042 0.3557 0.0
C1657 C 0.73299 0.79131 0.36194 0.0
C1658 C 0.75289 0.81035 0.36292 0.0
C1659 C 0.75323 0.82938 0.35932 0.0
C1660 C 0.734 0.82941 0.35567 0.0
C1661 C 0.77238 0.81021 0.36957 0.0
C1662 C 0.77021 0.7991 0.38391 0.0
C1663 C 0.79292 0.8207 0.36219 0.0
C1664 C 0.79683 0.83199 0.34684 0.0
C1665 C 0.80931 0.85418 0.3466 0.0
C1666 C 0.81586 0.86481 0.33196 0.0
C1667 C 0.81043 0.85334 0.31756 0.0
C1668 C 0.79793 0.83125 0.31774 0.0
C1669 C 0.79095 0.82057 0.33233 0.0
H1670 H 0.81582 0.86158 0.30625 0.0
H1671 H 0.77402 0.75177 0.44409 0.0
H1672 H 0.24499 0.06709 0.40904 0.0
H1673 H 0.24193 0.03576 0.39592 0.0
H1674 H 0.1791 0.01982 0.37736 0.0
H1675 H 0.18165 0.05072 0.39111 0.0
H1676 H 0.17788 0.98631 0.39023 0.0
H1677 H 0.22373 0.03878 0.35273 0.0
H1678 H 0.25502 0.07213 0.34366 0.0
H1679 H 0.29813 0.05197 0.36172 0.0
H1680 H 0.2671 0.0186 0.37111 0.0
H1681 H 0.16872 0.90356 0.34064 0.0
H1682 H 0.17356 0.93798 0.3482 0.0
H1683 H 0.23186 0.95271 0.37409 0.0
H1684 H 0.22731 0.91825 0.36644 0.0
H1685 H 0.23468 0.98699 0.35571 0.0
H1686 H 0.18819 0.93537 0.39455 0.0
H1687 H 0.15656 0.90162 0.40265 0.0
H1688 H 0.11421 0.92041 0.38095 0.0
H1689 H 0.14561 0.95414 0.37248 0.0
C1690 C 0.23049 0.0569 0.40219 0.0
C1691 C 0.21348 0.0613 0.40121 0.0
C1692 C 0.22888 0.03913 0.39453 0.0
C1693 C 0.21038 0.02556 0.38552 0.0
C1694 C 0.19355 0.03013 0.38422 0.0
C1695 C 0.1951 0.04787 0.39197 0.0
C1696 C 0.20814 0.00596 0.37828 0.0
C1697 C 0.19012 0.98652 0.38244 0.0
C1698 C 0.22434 0.00619 0.36839 0.0
C1699 C 0.24307 0.02625 0.36274 0.0
C1700 C 0.23988 0.04152 0.35488 0.0
C1701 C 0.25758 0.06042 0.34967 0.0
C1702 C 0.27855 0.06419 0.35215 0.0
C1703 C 0.28187 0.04903 0.35982 0.0
C1704 C 0.26423 0.03011 0.36508 0.0
C1705 C 0.18279 0.91421 0.34772 0.0
C1706 C 0.19764 0.90816 0.35296 0.0
C1707 C 0.18546 0.93384 0.35207 0.0
C1708 C 0.20296 0.94774 0.36178 0.0
C1709 C 0.21825 0.94213 0.36657 0.0
C1710 C 0.21556 0.92242 0.36227 0.0
C1711 C 0.20454 0.96756 0.36774 0.0
C1712 C 0.22242 0.98693 0.36339 0.0
C1713 C 0.18818 0.9673 0.37738 0.0
C1714 C 0.16926 0.9472 0.38275 0.0
C1715 C 0.17214 0.93225 0.39141 0.0
C1716 C 0.15425 0.91313 0.39607 0.0
C1717 C 0.13339 0.90886 0.39228 0.0
C1718 C 0.13038 0.92373 0.38386 0.0
C1719 C 0.14821 0.94286 0.37913 0.0
H1720 H 0.11957 0.89408 0.39592 0.0
H1721 H 0.29223 0.07883 0.34809 0.0
H1722 H 0.47458 0.60366 0.3084 0.0
H1723 H 0.50417 0.63666 0.31966 0.0
H1724 H 0.52144 0.66262 0.27206 0.0
H1725 H 0.49131 0.63049 0.26077 0.0
H1726 H 0.55662 0.66337 0.29367 0.0
H1727 H 0.50012 0.68201 0.29073 0.0
H1728 H 0.46396 0.67657 0.29677 0.0
H1729 H 0.47741 0.67939 0.34735 0.0
H1730 H 0.51355 0.68452 0.34159 0.0
H1731 H 0.63789 0.76949 0.30894 0.0
H1732 H 0.60722 0.73676 0.29881 0.0
H1733 H 0.57588 0.72684 0.34478 0.0
H1734 H 0.60539 0.76038 0.35432 0.0
H1735 H 0.54721 0.71645 0.32456 0.0
H1736 H 0.60244 0.69803 0.32954 0.0
H1737 H 0.63822 0.70151 0.32547 0.0
H1738 H 0.62738 0.69539 0.27444 0.0
H1739 H 0.59163 0.69214 0.27819 0.0
C1740 C 0.48436 0.61651 0.30033 0.0
C1741 C 0.48061 0.61414 0.2836 0.0
C1742 C 0.50139 0.63529 0.30679 0.0
C1743 C 0.5151 0.65194 0.29665 0.0
C1744 C 0.5112 0.64984 0.28006 0.0
C1745 C 0.494 0.63132 0.27363 0.0
C1746 C 0.53378 0.6715 0.3032 0.0
C1747 C 0.55467 0.67511 0.30034 0.0
C1748 C 0.53111 0.68641 0.31228 0.0
C1749 C 0.50942 0.68336 0.31573 0.0
C1750 C 0.49528 0.68123 0.30314 0.0
C1751 C 0.47481 0.67826 0.30651 0.0
C1752 C 0.46836 0.67756 0.32244 0.0
C1753 C 0.4824 0.67989 0.33502 0.0
C1754 C 0.50288 0.68283 0.33171 0.0
C1755 C 0.62453 0.76029 0.31693 0.0
C1756 C 0.62445 0.76747 0.33263 0.0
C1757 C 0.60699 0.7414 0.31115 0.0
C1758 C 0.58928 0.72883 0.32111 0.0
C1759 C 0.58926 0.73602 0.33679 0.0
C1760 C 0.60643 0.75519 0.34237 0.0
C1761 C 0.57046 0.70858 0.31514 0.0
C1762 C 0.54942 0.70477 0.31805 0.0
C1763 C 0.57301 0.69321 0.30644 0.0
C1764 C 0.59444 0.69503 0.30414 0.0
C1765 C 0.60774 0.69755 0.31744 0.0
C1766 C 0.62801 0.69947 0.31519 0.0
C1767 C 0.63509 0.69872 0.2997 0.0
C1768 C 0.62188 0.69599 0.28643 0.0
C1769 C 0.60161 0.69408 0.28861 0.0
H1770 H 0.65079 0.70022 0.29799 0.0
H1771 H 0.45251 0.67527 0.32502 0.0
H1772 H 0.38663 0.84339 0.29856 0.0
H1773 H 0.35406 0.84086 0.31034 0.0
H1774 H 0.36816 0.89921 0.28727 0.0
H1775 H 0.40111 0.9024 0.27625 0.0
H1776 H 0.35564 0.8998 0.31592 0.0
H1777 H 0.32848 0.84739 0.27345 0.0
H1778 H 0.32232 0.81538 0.25876 0.0
H1779 H 0.29191 0.77746 0.30029 0.0
H1780 H 0.29818 0.80929 0.31531 0.0
H1781 H 0.25508 0.89623 0.31934 0.0
H1782 H 0.28903 0.89771 0.31297 0.0
H1783 H 0.26584 0.83655 0.33477 0.0
H1784 H 0.2311 0.83437 0.33992 0.0
H1785 H 0.2834 0.83607 0.30902 0.0
H1786 H 0.31561 0.8885 0.35238 0.0
H1787 H 0.32281 0.92042 0.36792 0.0
H1788 H 0.34376 0.95752 0.32491 0.0
H1789 H 0.33683 0.92584 0.30928 0.0
C1790 C 0.38295 0.85582 0.29616 0.0
C1791 C 0.39651 0.873 0.28628 0.0
C1792 C 0.3641 0.8542 0.30274 0.0
C1793 C 0.35828 0.86963 0.29948 0.0
C1794 C 0.37208 0.88698 0.28992 0.0
C1795 C 0.39091 0.88869 0.28347 0.0
C1796 C 0.33815 0.86817 0.30616 0.0
C1797 C 0.33984 0.88588 0.31425 0.0
C1798 C 0.31746 0.84985 0.30452 0.0
C1799 C 0.31406 0.83078 0.29557 0.0
C1800 C 0.32069 0.83226 0.2795 0.0
C1801 C 0.31713 0.81414 0.27111 0.0
C1802 C 0.30678 0.79441 0.2786 0.0
C1803 C 0.29996 0.79276 0.29451 0.0
C1804 C 0.30352 0.81083 0.30297 0.0
C1805 C 0.25735 0.88324 0.323 0.0
C1806 C 0.24053 0.86542 0.3305 0.0
C1807 C 0.27698 0.8842 0.31953 0.0
C1808 C 0.28054 0.86752 0.32372 0.0
C1809 C 0.26378 0.84978 0.33146 0.0
C1810 C 0.24393 0.84862 0.33461 0.0
C1811 C 0.30086 0.86778 0.31871 0.0
C1812 C 0.29922 0.84989 0.31087 0.0
C1813 C 0.32165 0.8859 0.32056 0.0
C1814 C 0.32525 0.9048 0.32971 0.0
C1815 C 0.32142 0.90345 0.34629 0.0
C1816 C 0.32562 0.92149 0.3551 0.0
C1817 C 0.33352 0.94094 0.34738 0.0
C1818 C 0.33751 0.94243 0.33087 0.0
C1819 C 0.33356 0.92447 0.32206 0.0
H1820 H 0.33669 0.95487 0.3542 0.0
H1821 H 0.30399 0.78039 0.27207 0.0
H1822 H 0.11523 0.50416 0.27589 0.0
H1823 H 0.1154 0.47385 0.28766 0.0
H1824 H 0.17716 0.51534 0.30996 0.0
H1825 H 0.1781 0.54566 0.29695 0.0
H1826 H 0.17837 0.4837 0.29897 0.0
H1827 H 0.12697 0.49012 0.33119 0.0
H1828 H 0.095 0.49339 0.33711 0.0
H1829 H 0.05396 0.43313 0.31459 0.0
H1830 H 0.08573 0.42961 0.30834 0.0
H1831 H 0.17563 0.407 0.35137 0.0
H1832 H 0.17235 0.437 0.34252 0.0
H1833 H 0.12102 0.39638 0.30991 0.0
H1834 H 0.12396 0.36594 0.31886 0.0
H1835 H 0.11448 0.42738 0.32714 0.0
H1836 H 0.16906 0.42283 0.29543 0.0
H1837 H 0.20204 0.42033 0.2927 0.0
H1838 H 0.23857 0.47921 0.31821 0.0
H1839 H 0.20571 0.48189 0.32131 0.0
C1840 C 0.12906 0.50691 0.28307 0.0
C1841 C 0.14674 0.52748 0.28533 0.0
C1842 C 0.12893 0.48951 0.29008 0.0
C1843 C 0.14611 0.49226 0.29997 0.0
C1844 C 0.16366 0.51277 0.30243 0.0
C1845 C 0.16404 0.53017 0.29512 0.0
C1846 C 0.14612 0.47369 0.30725 0.0
C1847 C 0.16448 0.4716 0.30533 0.0
C1848 C 0.12793 0.45766 0.31542 0.0
C1849 C 0.10876 0.4597 0.31917 0.0
C1850 C 0.11114 0.47763 0.32739 0.0
C1851 C 0.09306 0.47952 0.33083 0.0
C1852 C 0.07247 0.4635 0.3262 0.0
C1853 C 0.06992 0.44554 0.31816 0.0
C1854 C 0.08796 0.44358 0.31468 0.0
C1855 C 0.16331 0.40424 0.34256 0.0
C1856 C 0.15005 0.38402 0.3358 0.0
C1857 C 0.16156 0.42148 0.33746 0.0
C1858 C 0.14662 0.41889 0.32546 0.0
C1859 C 0.13267 0.39863 0.31918 0.0
C1860 C 0.13444 0.3813 0.32426 0.0
C1861 C 0.1466 0.43759 0.31877 0.0
C1862 C 0.12829 0.43962 0.32079 0.0
C1863 C 0.16499 0.45381 0.31103 0.0
C1864 C 0.18488 0.45249 0.30869 0.0
C1865 C 0.1841 0.4352 0.30052 0.0
C1866 C 0.20278 0.43374 0.29891 0.0
C1867 C 0.22239 0.44959 0.3053 0.0
C1868 C 0.22337 0.46695 0.31327 0.0
C1869 C 0.20472 0.46845 0.31494 0.0
H1870 H 0.23685 0.44848 0.30407 0.0
H1871 H 0.05848 0.46499 0.32887 0.0
H1872 H 0.34665 0.51851 0.26513 0.0
H1873 H 0.31392 0.49028 0.27739 0.0
H1874 H 0.35156 0.48966 0.31787 0.0
H1875 H 0.38421 0.51863 0.30589 0.0
H1876 H 0.30234 0.45245 0.28275 0.0
H1877 H 0.32061 0.46978 0.35122 0.0
H1878 H 0.33907 0.50055 0.36949 0.0
H1879 H 0.33029 0.53945 0.33517 0.0
H1880 H 0.31152 0.50887 0.31678 0.0
H1881 H 0.23735 0.35989 0.3246 0.0
H1882 H 0.26947 0.39341 0.3177 0.0
H1883 H 0.23695 0.42727 0.33169 0.0
H1884 H 0.20471 0.3937 0.33848 0.0
H1885 H 0.28085 0.44936 0.33975 0.0
H1886 H 0.23611 0.41599 0.29456 0.0
H1887 H 0.21413 0.38724 0.27545 0.0
H1888 H 0.27028 0.38428 0.2614 0.0
H1889 H 0.29257 0.41282 0.2807 0.0
C1890 C 0.34786 0.51253 0.27676 0.0
C1891 C 0.36793 0.52082 0.28458 0.0
C1892 C 0.32915 0.49632 0.28375 0.0
C1893 C 0.33008 0.48778 0.29865 0.0
C1894 C 0.3502 0.49619 0.30654 0.0
C1895 C 0.36892 0.51269 0.29965 0.0
C1896 C 0.31022 0.46935 0.30536 0.0
C1897 C 0.29773 0.4519 0.29522 0.0
C1898 C 0.30369 0.46861 0.32155 0.0
C1899 C 0.31488 0.48708 0.33255 0.0
C1900 C 0.32257 0.48489 0.34759 0.0
C1901 C 0.33309 0.5023 0.35796 0.0
C1902 C 0.33592 0.52196 0.35347 0.0
C1903 C 0.32817 0.52424 0.3386 0.0
C1904 C 0.31762 0.50688 0.32819 0.0
C1905 C 0.23725 0.37453 0.32654 0.0
C1906 C 0.21863 0.37419 0.33222 0.0
C1907 C 0.25556 0.39366 0.32257 0.0
C1908 C 0.25552 0.41282 0.324 0.0
C1909 C 0.23735 0.41268 0.33051 0.0
C1910 C 0.21895 0.39348 0.33445 0.0
C1911 C 0.27362 0.43253 0.31723 0.0
C1912 C 0.28564 0.4501 0.32731 0.0
C1913 C 0.27934 0.43373 0.30084 0.0
C1914 C 0.26601 0.41648 0.28921 0.0
C1915 C 0.24377 0.40913 0.2875 0.0
C1916 C 0.23124 0.39287 0.27662 0.0
C1917 C 0.24079 0.38391 0.26722 0.0
C1918 C 0.2629 0.39122 0.2687 0.0
C1919 C 0.27549 0.40746 0.27962 0.0
H1920 H 0.23107 0.37134 0.25877 0.0
H1921 H 0.34408 0.53542 0.36151 0.0
H1922 H 0.49812 0.87841 0.30551 0.0
H1923 H 0.5286 0.87655 0.31765 0.0
H1924 H 0.51756 0.82618 0.28487 0.0
H1925 H 0.48767 0.82848 0.27234 0.0
H1926 H 0.52372 0.82379 0.32404 0.0
H1927 H 0.55422 0.86083 0.27317 0.0
H1928 H 0.56234 0.88946 0.25393 0.0
H1929 H 0.5968 0.9359 0.29076 0.0
H1930 H 0.58856 0.90747 0.31028 0.0
H1931 H 0.61605 0.81172 0.33536 0.0
H1932 H 0.58349 0.8127 0.32801 0.0
H1933 H 0.61847 0.8808 0.33307 0.0
H1934 H 0.65145 0.87978 0.33894 0.0
H1935 H 0.59899 0.87457 0.30822 0.0
H1936 H 0.56385 0.8428 0.3597 0.0
H1937 H 0.55061 0.81746 0.38209 0.0
H1938 H 0.52545 0.7655 0.34854 0.0
H1939 H 0.53733 0.79066 0.32593 0.0
C1940 C 0.50213 0.86687 0.30097 0.0
C1941 C 0.49049 0.85352 0.28801 0.0
C1942 C 0.51956 0.86587 0.30787 0.0
C1943 C 0.52534 0.85125 0.30213 0.0
C1944 C 0.51338 0.83758 0.28947 0.0
C1945 C 0.49633 0.83891 0.28234 0.0
C1946 C 0.54402 0.85033 0.30915 0.0
C1947 C 0.54021 0.83475 0.32051 0.0
C1948 C 0.56552 0.86502 0.30495 0.0
C1949 C 0.57053 0.88205 0.29321 0.0
C1950 C 0.56331 0.87714 0.2772 0.0
C1951 C 0.56799 0.89333 0.26624 0.0
C1952 C 0.58001 0.91449 0.27113 0.0
C1953 C 0.58744 0.9195 0.28699 0.0
C1954 C 0.58278 0.90336 0.298 0.0
C1955 C 0.61661 0.82683 0.33529 0.0
C1956 C 0.63626 0.84569 0.33784 0.0
C1957 C 0.59782 0.82741 0.3312 0.0
C1958 C 0.59808 0.84683 0.33007 0.0
C1959 C 0.61758 0.86556 0.33362 0.0
C1960 C 0.63648 0.86501 0.33713 0.0
C1961 C 0.57902 0.84798 0.32351 0.0
C1962 C 0.58265 0.86359 0.31202 0.0
C1963 C 0.55735 0.83362 0.32791 0.0
C1964 C 0.55186 0.81853 0.34122 0.0
C1965 C 0.55571 0.82597 0.35714 0.0
C1966 C 0.54824 0.81164 0.36985 0.0
C1967 C 0.53753 0.78986 0.36676 0.0
C1968 C 0.53388 0.78237 0.35093 0.0
C1969 C 0.54073 0.79664 0.33816 0.0
H1970 H 0.53192 0.77881 0.37665 0.0
H1971 H 0.58363 0.927 0.26263 0.0
H1972 H 0.18731 0.66073 0.26416 0.0
H1973 H 0.18965 0.69194 0.27711 0.0
H1974 H 0.17184 0.65903 0.3224 0.0
H1975 H 0.16902 0.62758 0.30937 0.0
H1976 H 0.14895 0.6773 0.31744 0.0
H1977 H 0.2236 0.6999 0.31529 0.0
H1978 H 0.25866 0.70779 0.30401 0.0
H1979 H 0.25705 0.75293 0.27192 0.0
H1980 H 0.22178 0.74504 0.28278 0.0
H1981 H 0.1776 0.7757 0.35927 0.0
H1982 H 0.17771 0.74369 0.35038 0.0
H1983 H 0.1757 0.76035 0.301 0.0
H1984 H 0.17526 0.79216 0.30982 0.0
H1985 H 0.21024 0.75041 0.31089 0.0
H1986 H 0.13308 0.72411 0.31241 0.0
H1987 H 0.09946 0.71733 0.32568 0.0
H1988 H 0.10814 0.67985 0.36141 0.0
H1989 H 0.14203 0.68671 0.34848 0.0
C1990 C 0.18413 0.66027 0.27691 0.0
C1991 C 0.17798 0.6418 0.28575 0.0
C1992 C 0.18558 0.67813 0.28433 0.0
C1993 C 0.18116 0.67793 0.30078 0.0
C1994 C 0.17536 0.65955 0.3097 0.0
C1995 C 0.1738 0.64162 0.30225 0.0
C1996 C 0.18127 0.69643 0.30833 0.0
C1997 C 0.16255 0.69322 0.31625 0.0
C1998 C 0.1989 0.71729 0.30665 0.0
C1999 C 0.21988 0.72169 0.29975 0.0
C2000 C 0.23057 0.71131 0.30568 0.0
C2001 C 0.25052 0.71583 0.29939 0.0
C2002 C 0.26004 0.7308 0.28722 0.0
C2003 C 0.24963 0.74129 0.28131 0.0
C2004 C 0.22966 0.73681 0.28754 0.0
C2005 C 0.17708 0.77248 0.34657 0.0
C2006 C 0.17641 0.78639 0.33527 0.0
C2007 C 0.17707 0.7542 0.34151 0.0
C2008 C 0.17678 0.74981 0.32506 0.0
C2009 C 0.17594 0.76356 0.31375 0.0
C2010 C 0.1755 0.78159 0.31881 0.0
C2011 C 0.17788 0.73114 0.31958 0.0
C2012 C 0.19682 0.73439 0.31213 0.0
C2013 C 0.16063 0.71035 0.32187 0.0
C2014 C 0.14022 0.70614 0.3296 0.0
C2015 C 0.12794 0.71461 0.3232 0.0
C2016 C 0.10881 0.71071 0.33064 0.0
C2017 C 0.1017 0.69823 0.34442 0.0
C2018 C 0.11369 0.68956 0.35076 0.0
C2019 C 0.13285 0.69344 0.34337 0.0
H2020 H 0.08688 0.69522 0.35015 0.0
H2021 H 0.27553 0.73434 0.28241 0.0
H2022 H 0.87561 0.0499 0.38918 0.0
H2023 H 0.84943 0.0142 0.37936 0.0
H2024 H 0.80175 0.01216 0.41204 0.0
H2025 H 0.8277 0.04769 0.42178 0.0
H2026 H 0.80314 0.97489 0.41202 0.0
H2027 H 0.79961 0.02259 0.3734 0.0
H2028 H 0.81471 0.05141 0.35356 0.0
H2029 H 0.83611 0.01656 0.32471 0.0
H2030 H 0.82138 0.98763 0.34451 0.0
H2031 H 0.70475 0.89185 0.37999 0.0
H2032 H 0.73396 0.92613 0.38952 0.0
H2033 H 0.7764 0.92431 0.35366 0.0
H2034 H 0.74753 0.89004 0.34421 0.0
H2035 H 0.77961 0.96283 0.3549 0.0
H2036 H 0.78242 0.91469 0.39162 0.0
H2037 H 0.76871 0.88543 0.41103 0.0
H2038 H 0.75054 0.92006 0.44306 0.0
H2039 H 0.76386 0.94947 0.4237 0.0
C2040 C 0.85956 0.04179 0.39427 0.0
C2041 C 0.85362 0.05156 0.4062 0.0
C2042 C 0.84462 0.02143 0.38864 0.0
C2043 C 0.82359 0.01054 0.39494 0.0
C2044 C 0.81786 0.02021 0.40704 0.0
C2045 C 0.83267 0.04054 0.41254 0.0
C2046 C 0.80727 0.98926 0.38877 0.0
C2047 C 0.79784 0.97228 0.39957 0.0
C2048 C 0.8008 0.98571 0.37242 0.0
C2049 C 0.80962 0.00307 0.36052 0.0
C2050 C 0.80771 0.02115 0.3629 0.0
C2051 C 0.81616 0.03749 0.35165 0.0
C2052 C 0.82642 0.03585 0.33791 0.0
C2053 C 0.82819 0.01783 0.33537 0.0
C2054 C 0.81979 0.00146 0.3466 0.0
C2055 C 0.72028 0.89873 0.37412 0.0
C2056 C 0.72366 0.88822 0.36122 0.0
C2057 C 0.737 0.91831 0.37961 0.0
C2058 C 0.75741 0.92775 0.37235 0.0
C2059 C 0.76077 0.91739 0.35941 0.0
C2060 C 0.74416 0.89778 0.35398 0.0
C2061 C 0.77524 0.9485 0.37819 0.0
C2062 C 0.78496 0.96537 0.36734 0.0
C2063 C 0.78214 0.95188 0.39445 0.0
C2064 C 0.77396 0.93421 0.40613 0.0
C2065 C 0.77531 0.916 0.40273 0.0
C2066 C 0.76765 0.8994 0.41373 0.0
C2067 C 0.75875 0.90088 0.42825 0.0
C2068 C 0.75744 0.91895 0.43179 0.0
C2069 C 0.76506 0.9356 0.42081 0.0
H2070 H 0.75296 0.88805 0.43678 0.0
H2071 H 0.83295 0.04851 0.32921 0.0
H2072 H 0.9695 0.8269 0.38428 0.0
H2073 H 0.00595 0.83692 0.37477 0.0
H2074 H 1.00139 0.78213 0.39809 0.0
H2075 H 0.96537 0.77229 0.40763 0.0
H2076 H 0.03927 0.81588 0.40461 0.0
H2077 H 0.9957 0.78473 0.35692 0.0
H2078 H 0.97072 0.78134 0.33509 0.0
H2079 H 0.01556 0.84432 0.31939 0.0
H2080 H 0.04069 0.84819 0.34129 0.0
H2081 H 0.11568 0.79556 0.36825 0.0
H2082 H 0.08111 0.79334 0.37427 0.0
H2083 H 0.10606 0.85727 0.35772 0.0
H2084 H 0.14101 0.85982 0.3522 0.0
H2085 H 0.06047 0.82484 0.34722 0.0
H2086 H 0.10544 0.85455 0.39362 0.0
H2087 H 0.13062 0.85714 0.41501 0.0
H2088 H 0.08308 0.79639 0.43292 0.0
H2089 H 0.05774 0.79327 0.41145 0.0
C2090 C 0.97629 0.817 0.3873 0.0
C2091 C 0.96456 0.79878 0.39671 0.0
C2092 C 0.9971 0.82269 0.38182 0.0
C2093 C 0.00651 0.81026 0.38565 0.0
C2094 C 0.99465 0.79207 0.395 0.0
C2095 C 0.97399 0.78641 0.40041 0.0
C2096 C 0.02876 0.81605 0.38033 0.0
C2097 C 0.04378 0.81773 0.39204 0.0
C2098 C 0.03508 0.81913 0.36397 0.0
C2099 C 0.01992 0.81686 0.35089 0.0
C2100 C 1.00013 0.79794 0.34892 0.0
C2101 C 0.98596 0.79591 0.33651 0.0
C2102 C 0.99151 0.81263 0.3259 0.0
C2103 C 0.01126 0.8314 0.32765 0.0
C2104 C 0.02546 0.83352 0.34005 0.0
C2105 C 0.11371 0.80905 0.3657 0.0
C2106 C 0.1309 0.82767 0.3594 0.0
C2107 C 0.09396 0.80777 0.36914 0.0
C2108 C 0.09097 0.82511 0.3664 0.0
C2109 C 0.10794 0.84364 0.35979 0.0
C2110 C 0.12788 0.84503 0.35656 0.0
C2111 C 0.07051 0.82406 0.37149 0.0
C2112 C 0.05594 0.82329 0.35978 0.0
C2113 C 0.06454 0.82179 0.38786 0.0
C2114 C 0.07974 0.8236 0.40083 0.0
C2115 C 0.10041 0.84165 0.40203 0.0
C2116 C 0.11472 0.84323 0.41418 0.0
C2117 C 0.10846 0.82691 0.4253 0.0
C2118 C 0.0879 0.809 0.42429 0.0
C2119 C 0.07356 0.80733 0.41213 0.0
H2120 H 0.11951 0.82814 0.43473 0.0
H2121 H 0.98053 0.81103 0.31629 0.0
H2122 H 0.20147 0.14651 0.38218 0.0
H2123 H 0.19784 0.17486 0.36964 0.0
H2124 H 0.17662 0.18734 0.41475 0.0
H2125 H 0.18005 0.15884 0.42734 0.0
H2126 H 0.15258 0.18826 0.38975 0.0
H2127 H 0.22782 0.21808 0.40321 0.0
H2128 H 0.2633 0.22011 0.40319 0.0
H2129 H 0.26557 0.22497 0.35174 0.0
H2130 H 0.22994 0.22268 0.35144 0.0
H2131 H 0.20346 0.30613 0.37039 0.0
H2132 H 0.20739 0.27647 0.37952 0.0
H2133 H 0.15753 0.23486 0.34628 0.0
H2134 H 0.15318 0.26429 0.33723 0.0
H2135 H 0.21706 0.24847 0.36508 0.0
H2136 H 0.12572 0.18829 0.36617 0.0
H2137 H 0.09129 0.18833 0.36777 0.0
H2138 H 0.12287 0.24738 0.39361 0.0
H2139 H 0.15738 0.24748 0.39244 0.0
C2140 C 0.1959 0.1552 0.3894 0.0
C2141 C 0.19109 0.15058 0.40576 0.0
C2142 C 0.19389 0.17141 0.38223 0.0
C2143 C 0.18714 0.18329 0.39131 0.0
C2144 C 0.18182 0.17833 0.40754 0.0
C2145 C 0.18386 0.16214 0.41472 0.0
C2146 C 0.18626 0.20134 0.38406 0.0
C2147 C 0.16664 0.20137 0.38428 0.0
C2148 C 0.20469 0.21857 0.37714 0.0
C2149 C 0.22612 0.21998 0.37729 0.0
C2150 C 0.23581 0.21941 0.39188 0.0
C2151 C 0.25595 0.22063 0.39193 0.0
C2152 C 0.26665 0.2226 0.37747 0.0
C2153 C 0.25724 0.2234 0.36293 0.0
C2154 C 0.23708 0.22216 0.36281 0.0
C2155 C 0.19346 0.29073 0.36489 0.0
C2156 C 0.17788 0.28755 0.35317 0.0
C2157 C 0.19582 0.27383 0.37007 0.0
C2158 C 0.18259 0.25348 0.36369 0.0
C2159 C 0.16774 0.25043 0.35145 0.0
C2160 C 0.16535 0.26731 0.34626 0.0
C2161 C 0.18337 0.23525 0.37062 0.0
C2162 C 0.20295 0.23523 0.37038 0.0
C2163 C 0.16501 0.21822 0.37779 0.0
C2164 C 0.14417 0.21797 0.37907 0.0
C2165 C 0.12528 0.20121 0.37228 0.0
C2166 C 0.10575 0.20122 0.37311 0.0
C2167 C 0.1049 0.21788 0.38076 0.0
C2168 C 0.12356 0.23451 0.38766 0.0
C2169 C 0.1431 0.23454 0.38692 0.0
H2170 H 0.08979 0.21788 0.38138 0.0
H2171 H 0.28225 0.22356 0.37753 0.0
H2172 H 0.63791 0.46995 0.72442 0.0
H2173 H 0.66855 0.49984 0.71128 0.0
H2174 H 0.64706 0.54185 0.72898 0.0
H2175 H 0.61616 0.51203 0.74168 0.0
H2176 H 0.66005 0.55132 0.69893 0.0
H2177 H 0.68838 0.53857 0.74725 0.0
H2178 H 0.69672 0.51825 0.76675 0.0
H2179 H 0.73292 0.50703 0.73088 0.0
H2180 H 0.72454 0.52705 0.71108 0.0
H2181 H 0.75579 0.65149 0.69632 0.0
H2182 H 0.72246 0.61847 0.7015 0.0
H2183 H 0.75262 0.58309 0.68551 0.0
H2184 H 0.7865 0.61623 0.68151 0.0
H2185 H 0.73469 0.56825 0.71221 0.0
H2186 H 0.70672 0.58363 0.66405 0.0
H2187 H 0.69844 0.60557 0.646 0.0
H2188 H 0.66216 0.61383 0.68343 0.0
H2189 H 0.67013 0.59195 0.70163 0.0
C2190 C 0.63957 0.48551 0.72532 0.0
C2191 C 0.62467 0.48862 0.73422 0.0
C2192 C 0.6572 0.50262 0.71793 0.0
C2193 C 0.66031 0.52318 0.71932 0.0
C2194 C 0.6451 0.52618 0.72778 0.0
C2195 C 0.62751 0.50913 0.73516 0.0
C2196 C 0.67955 0.54171 0.71223 0.0
C2197 C 0.67639 0.55508 0.70187 0.0
C2198 C 0.7009 0.54648 0.71584 0.0
C2199 C 0.70557 0.53406 0.72762 0.0
C2200 C 0.6979 0.53156 0.74346 0.0
C2201 C 0.70269 0.52015 0.75458 0.0
C2202 C 0.71528 0.51129 0.75004 0.0
C2203 C 0.72312 0.51385 0.73437 0.0
C2204 C 0.71836 0.52522 0.72319 0.0
C2205 C 0.75513 0.63665 0.69359 0.0
C2206 C 0.77364 0.63647 0.68824 0.0
C2207 C 0.73596 0.6177 0.6964 0.0
C2208 C 0.73471 0.59808 0.69365 0.0
C2209 C 0.75302 0.59793 0.68767 0.0
C2210 C 0.77236 0.61692 0.68519 0.0
C2211 C 0.7153 0.57798 0.69878 0.0
C2212 C 0.71839 0.56432 0.70892 0.0
C2213 C 0.6939 0.57311 0.69512 0.0
C2214 C 0.6892 0.58634 0.68421 0.0
C2215 C 0.69713 0.59029 0.66843 0.0
C2216 C 0.69245 0.60265 0.65818 0.0
C2217 C 0.67992 0.61118 0.6636 0.0
C2218 C 0.6719 0.60725 0.67925 0.0
C2219 C 0.67642 0.5948 0.68951 0.0
H2220 H 0.67637 0.62077 0.65566 0.0
H2221 H 0.71902 0.50251 0.75868 0.0
H2222 H 0.54282 0.16173 0.72467 0.0
H2223 H 0.51289 0.16485 0.71306 0.0
H2224 H 0.46728 0.10425 0.73298 0.0
H2225 H 0.49692 0.10075 0.74405 0.0
H2226 H 0.45564 0.10665 0.70362 0.0
H2227 H 0.47821 0.15259 0.75007 0.0
H2228 H 0.50361 0.18246 0.76722 0.0
H2229 H 0.51358 0.22596 0.72916 0.0
H2230 H 0.48851 0.19629 0.71167 0.0
H2231 H 0.35744 0.10815 0.70062 0.0
H2232 H 0.38994 0.1065 0.70671 0.0
H2233 H 0.42931 0.17076 0.69035 0.0
H2234 H 0.39673 0.17293 0.68559 0.0
H2235 H 0.44603 0.16798 0.71582 0.0
H2236 H 0.42739 0.12237 0.66859 0.0
H2237 H 0.40341 0.09263 0.65057 0.0
H2238 H 0.38686 0.04925 0.68981 0.0
H2239 H 0.4109 0.07874 0.70789 0.0
C2240 C 0.52642 0.14899 0.72643 0.0
C2241 C 0.52233 0.1311 0.73547 0.0
C2242 C 0.50928 0.15088 0.71992 0.0
C2243 C 0.4877 0.13493 0.72233 0.0
C2244 C 0.4837 0.11686 0.73099 0.0
C2245 C 0.50073 0.11496 0.73746 0.0
C2246 C 0.46914 0.13672 0.71583 0.0
C2247 C 0.4535 0.12003 0.70641 0.0
C2248 C 0.46646 0.15438 0.71903 0.0
C2249 C 0.4817 0.17219 0.72949 0.0
C2250 C 0.486 0.1685 0.74529 0.0
C2251 C 0.5003 0.1854 0.75509 0.0
C2252 C 0.51027 0.20609 0.74926 0.0
C2253 C 0.50591 0.20992 0.73364 0.0
C2254 C 0.49166 0.19307 0.72378 0.0
C2255 C 0.37304 0.12182 0.69807 0.0
C2256 C 0.3744 0.14048 0.69221 0.0
C2257 C 0.39173 0.12079 0.70139 0.0
C2258 C 0.41238 0.13831 0.69866 0.0
C2259 C 0.41372 0.1569 0.69252 0.0
C2260 C 0.39499 0.15807 0.68956 0.0
C2261 C 0.4324 0.13785 0.70357 0.0
C2262 C 0.44828 0.15474 0.71281 0.0
C2263 C 0.43539 0.12041 0.70019 0.0
C2264 C 0.42054 0.10275 0.68956 0.0
C2265 C 0.41835 0.1065 0.67333 0.0
C2266 C 0.4049 0.0897 0.66312 0.0
C2267 C 0.39345 0.0691 0.66908 0.0
C2268 C 0.39564 0.06523 0.68522 0.0
C2269 C 0.40926 0.08196 0.69543 0.0
H2270 H 0.38299 0.05613 0.66117 0.0
H2271 H 0.52131 0.21915 0.75688 0.0
H2272 H 0.91957 0.40678 0.74487 0.0
H2273 H 0.91453 0.37485 0.73149 0.0
H2274 H 0.85258 0.36237 0.71338 0.0
H2275 H 0.85719 0.39407 0.72735 0.0
H2276 H 0.84961 0.32774 0.72625 0.0
H2277 H 0.89612 0.3788 0.6883 0.0
H2278 H 0.92802 0.41139 0.67885 0.0
H2279 H 0.96957 0.3891 0.69648 0.0
H2280 H 0.93794 0.3565 0.70626 0.0
H2281 H 0.83671 0.24327 0.6767 0.0
H2282 H 0.84282 0.27808 0.68446 0.0
H2283 H 0.90054 0.29066 0.71024 0.0
H2284 H 0.89467 0.25572 0.70241 0.0
H2285 H 0.90462 0.32541 0.69144 0.0
H2286 H 0.85765 0.27548 0.73096 0.0
H2287 H 0.82546 0.24248 0.73949 0.0
H2288 H 0.78436 0.26282 0.71781 0.0
H2289 H 0.81634 0.29582 0.70891 0.0
C2290 C 0.90485 0.39725 0.73804 0.0
C2291 C 0.88868 0.40282 0.73728 0.0
C2292 C 0.90211 0.37913 0.73024 0.0
C2293 C 0.88328 0.36632 0.72131 0.0
C2294 C 0.86728 0.37208 0.72019 0.0
C2295 C 0.86999 0.39025 0.72806 0.0
C2296 C 0.87988 0.34631 0.71401 0.0
C2297 C 0.86145 0.3273 0.71838 0.0
C2298 C 0.89555 0.34568 0.70402 0.0
C2299 C 0.91464 0.36526 0.69813 0.0
C2300 C 0.91207 0.38091 0.69028 0.0
C2301 C 0.93011 0.39938 0.68484 0.0
C2302 C 0.95081 0.40233 0.68709 0.0
C2303 C 0.95352 0.3868 0.69476 0.0
C2304 C 0.93554 0.36831 0.70023 0.0
C2305 C 0.8509 0.25349 0.68383 0.0
C2306 C 0.86523 0.24672 0.68895 0.0
C2307 C 0.85429 0.27335 0.6883 0.0
C2308 C 0.87203 0.2868 0.69799 0.0
C2309 C 0.88676 0.28043 0.70273 0.0
C2310 C 0.88331 0.26046 0.69833 0.0
C2311 C 0.87454 0.30706 0.70382 0.0
C2312 C 0.89276 0.326 0.69919 0.0
C2313 C 0.85865 0.30767 0.7135 0.0
C2314 C 0.83939 0.28803 0.71913 0.0
C2315 C 0.84175 0.27285 0.72791 0.0
C2316 C 0.82354 0.25415 0.73282 0.0
C2317 C 0.80288 0.25053 0.72916 0.0
C2318 C 0.80038 0.26564 0.72062 0.0
C2319 C 0.81854 0.28435 0.71565 0.0
H2320 H 0.7888 0.23606 0.73298 0.0
H2321 H 0.96476 0.41664 0.68287 0.0
H2322 H 0.17804 0.93731 0.61501 0.0
H2323 H 0.20573 0.97075 0.62663 0.0
H2324 H 0.1565 0.98397 0.64304 0.0
H2325 H 0.12853 0.95048 0.63101 0.0
H2326 H 0.18944 0.01815 0.62838 0.0
H2327 H 0.18327 0.97015 0.66963 0.0
H2328 H 0.18172 0.93827 0.68102 0.0
H2329 H 0.24591 0.95889 0.66425 0.0
H2330 H 0.24774 0.99077 0.65256 0.0
H2331 H 0.26303 0.10553 0.67752 0.0
H2332 H 0.23312 0.07125 0.66887 0.0
H2333 H 0.27816 0.05613 0.64663 0.0
H2334 H 0.30828 0.09059 0.65511 0.0
H2335 H 0.24612 0.02298 0.66565 0.0
H2336 H 0.25201 0.07058 0.62401 0.0
H2337 H 0.25377 0.10257 0.61271 0.0
H2338 H 0.18988 0.08251 0.62984 0.0
H2339 H 0.18799 0.05071 0.64175 0.0
C2340 C 0.17306 0.94731 0.6211 0.0
C2341 C 0.15108 0.9413 0.622 0.0
C2342 C 0.18892 0.96636 0.62786 0.0
C2343 C 0.18322 0.97984 0.63582 0.0
C2344 C 0.16127 0.9738 0.63697 0.0
C2345 C 0.14531 0.95461 0.63022 0.0
C2346 C 0.20038 0.0005 0.6424 0.0
C2347 C 0.20158 0.0192 0.63678 0.0
C2348 C 0.21657 0.0019 0.65304 0.0
C2349 C 0.21557 0.98277 0.6601 0.0
C2350 C 0.197 0.96781 0.66826 0.0
C2351 C 0.19608 0.94975 0.67479 0.0
C2352 C 0.21369 0.94653 0.67333 0.0
C2353 C 0.23228 0.9614 0.66536 0.0
C2354 C 0.23327 0.97948 0.6588 0.0
C2355 C 0.26663 0.0949 0.67084 0.0
C2356 C 0.28806 0.10077 0.66701 0.0
C2357 C 0.24948 0.07535 0.66586 0.0
C2358 C 0.25342 0.06119 0.65707 0.0
C2359 C 0.2748 0.06684 0.65342 0.0
C2360 C 0.29197 0.08656 0.65821 0.0
C2361 C 0.23519 0.04054 0.65157 0.0
C2362 C 0.23384 0.02189 0.65737 0.0
C2363 C 0.21888 0.03921 0.64112 0.0
C2364 C 0.21999 0.05838 0.634 0.0
C2365 C 0.23844 0.07312 0.62559 0.0
C2366 C 0.23947 0.09122 0.61906 0.0
C2367 C 0.222 0.09464 0.62065 0.0
C2368 C 0.20344 0.07989 0.6287 0.0
C2369 C 0.20241 0.06185 0.63538 0.0
H2370 H 0.22281 0.10866 0.61558 0.0
H2371 H 0.21295 0.93254 0.67839 0.0
H2372 H 0.07447 0.21724 0.64502 0.0
H2373 H 0.04177 0.21425 0.65696 0.0
H2374 H 0.00924 0.19464 0.61106 0.0
H2375 H 0.04138 0.1967 0.59928 0.0
H2376 H 0.02123 0.23488 0.65151 0.0
H2377 H 0.95562 0.16292 0.61542 0.0
H2378 H 0.95019 0.12964 0.60337 0.0
H2379 H 0.99574 0.12896 0.63681 0.0
H2380 H 1.00121 0.16207 0.6492 0.0
H2381 H 0.92182 0.23414 0.65495 0.0
H2382 H 0.9555 0.23495 0.64869 0.0
H2383 H 0.93036 0.1728 0.66922 0.0
H2384 H 0.89591 0.17126 0.67403 0.0
H2385 H 0.94826 0.17216 0.64442 0.0
H2386 H 0.97997 0.22416 0.68765 0.0
H2387 H 0.98778 0.2562 0.70324 0.0
H2388 H 0.01182 0.29383 0.66066 0.0
H2389 H 0.00435 0.262 0.64499 0.0
C2390 C 0.06024 0.21194 0.63753 0.0
C2391 C 0.06071 0.20731 0.62114 0.0
C2392 C 0.04157 0.21041 0.64435 0.0
C2393 C 0.02286 0.20406 0.63499 0.0
C2394 C 0.02326 0.19926 0.61867 0.0
C2395 C 0.04183 0.20072 0.61188 0.0
C2396 C 1.00318 0.20315 0.64206 0.0
C2397 C 0.00529 0.2211 0.65001 0.0
C2398 C 0.9823 0.18512 0.64041 0.0
C2399 C 0.97896 0.16509 0.63313 0.0
C2400 C 0.96441 0.15563 0.62024 0.0
C2401 C 0.96133 0.1368 0.61335 0.0
C2402 C 0.97266 0.12723 0.61929 0.0
C2403 C 0.98703 0.13643 0.63218 0.0
C2404 C 0.99015 0.15524 0.63913 0.0
C2405 C 0.92362 0.22078 0.65835 0.0
C2406 C 0.90633 0.20288 0.66541 0.0
C2407 C 0.94309 0.22135 0.65494 0.0
C2408 C 0.94604 0.20418 0.65879 0.0
C2409 C 0.9288 0.18638 0.66613 0.0
C2410 C 0.9091 0.1856 0.66914 0.0
C2411 C 0.96618 0.204 0.65387 0.0
C2412 C 0.96417 0.18589 0.64612 0.0
C2413 C 0.98723 0.22169 0.65603 0.0
C2414 C 0.99119 0.24072 0.66519 0.0
C2415 C 0.98662 0.23925 0.68166 0.0
C2416 C 0.99113 0.25737 0.69049 0.0
C2417 C 1.00008 0.277 0.68291 0.0
C2418 C 0.00478 0.27859 0.66651 0.0
C2419 C 1.00052 0.26055 0.65768 0.0
H2420 H 0.00349 0.291 0.68975 0.0
H2421 H 0.97027 0.11266 0.61393 0.0
H2422 H 0.82284 0.87759 0.63968 0.0
H2423 H 0.8279 0.84959 0.65139 0.0
H2424 H 0.77188 0.80248 0.62544 0.0
H2425 H 0.76636 0.83026 0.61412 0.0
H2426 H 0.77289 0.78973 0.65563 0.0
H2427 H 0.8222 0.81946 0.61127 0.0
H2428 H 0.85155 0.84815 0.59584 0.0
H2429 H 0.89503 0.86234 0.63576 0.0
H2430 H 0.86583 0.8339 0.65152 0.0
H2431 H 0.7922 0.70328 0.65305 0.0
H2432 H 0.78674 0.73277 0.64586 0.0
H2433 H 0.84158 0.77506 0.67518 0.0
H2434 H 0.84731 0.74582 0.68231 0.0
H2435 H 0.84197 0.79128 0.64523 0.0
H2436 H 0.79298 0.75939 0.68884 0.0
H2437 H 0.76367 0.72996 0.70371 0.0
H2438 H 0.71951 0.71925 0.6649 0.0
H2439 H 0.74867 0.74841 0.64966 0.0
C2440 C 0.81145 0.86124 0.63666 0.0
C2441 C 0.79435 0.85611 0.62585 0.0
C2442 C 0.81443 0.84529 0.64327 0.0
C2443 C 0.80042 0.824 0.6391 0.0
C2444 C 0.78292 0.81882 0.62876 0.0
C2445 C 0.77992 0.83471 0.62219 0.0
C2446 C 0.80441 0.80711 0.64493 0.0
C2447 C 0.78793 0.78997 0.65326 0.0
C2448 C 0.82419 0.80767 0.6421 0.0
C2449 C 0.84177 0.82472 0.63263 0.0
C2450 C 0.83797 0.82881 0.6168 0.0
C2451 C 0.85459 0.84501 0.60799 0.0
C2452 C 0.87513 0.85711 0.61484 0.0
C2453 C 0.8791 0.85299 0.63049 0.0
C2454 C 0.86253 0.83683 0.63936 0.0
C2455 C 0.80309 0.71884 0.65796 0.0
C2456 C 0.82007 0.72217 0.66834 0.0
C2457 C 0.79989 0.73564 0.65391 0.0
C2458 C 0.81365 0.756 0.66012 0.0
C2459 C 0.83076 0.75943 0.67031 0.0
C2460 C 0.83391 0.74265 0.67443 0.0
C2461 C 0.81039 0.77384 0.65578 0.0
C2462 C 0.82701 0.79113 0.64773 0.0
C2463 C 0.79072 0.77337 0.65883 0.0
C2464 C 0.77307 0.75598 0.66804 0.0
C2465 C 0.77706 0.75066 0.68341 0.0
C2466 C 0.76047 0.73404 0.69192 0.0
C2467 C 0.73975 0.72271 0.68524 0.0
C2468 C 0.73557 0.72803 0.67006 0.0
C2469 C 0.75213 0.74461 0.66148 0.0
H2470 H 0.72692 0.70984 0.69185 0.0
H2471 H 0.88797 0.86963 0.608 0.0
H2472 H 0.05007 0.80846 0.61632 0.0
H2473 H 0.01498 0.78294 0.62732 0.0
H2474 H 0.00763 0.83415 0.6462 0.0
H2475 H 0.04318 0.85982 0.63551 0.0
H2476 H 0.99535 0.80459 0.66781 0.0
H2477 H 0.97879 0.80465 0.61267 0.0
H2478 H 0.98181 0.8027 0.58329 0.0
H2479 H 0.96989 0.73908 0.58724 0.0
H2480 H 0.96716 0.74074 0.61668 0.0
H2481 H 0.87921 0.72828 0.67793 0.0
H2482 H 0.91463 0.75904 0.67214 0.0
H2483 H 0.93913 0.7174 0.66026 0.0
H2484 H 0.90398 0.68668 0.66639 0.0
H2485 H 0.94042 0.74486 0.63497 0.0
H2486 H 0.97403 0.75587 0.69121 0.0
H2487 H 0.9749 0.76199 0.72051 0.0
H2488 H 0.95191 0.8056 0.71296 0.0
H2489 H 0.95138 0.8 0.68361 0.0
C2490 C 0.04095 0.81428 0.62281 0.0
C2491 C 0.04935 0.8361 0.62506 0.0
C2492 C 0.0208 0.79967 0.62899 0.0
C2493 C 0.00839 0.80656 0.63736 0.0
C2494 C 0.01683 0.82842 0.63972 0.0
C2495 C 0.03714 0.84309 0.63361 0.0
C2496 C 0.98701 0.79081 0.64406 0.0
C2497 C 0.98322 0.79177 0.6605 0.0
C2498 C 0.97108 0.77391 0.63465 0.0
C2499 C 0.97298 0.77291 0.61693 0.0
C2500 C 0.97703 0.79031 0.6073 0.0
C2501 C 0.97865 0.78924 0.59063 0.0
C2502 C 0.9761 0.7708 0.58341 0.0
C2503 C 0.9719 0.75337 0.59285 0.0
C2504 C 0.9703 0.75436 0.60954 0.0
C2505 C 0.89239 0.72571 0.67473 0.0
C2506 C 0.88889 0.70506 0.67275 0.0
C2507 C 0.91263 0.74333 0.67138 0.0
C2508 C 0.92954 0.74051 0.66578 0.0
C2509 C 0.92635 0.71994 0.66464 0.0
C2510 C 0.90626 0.7024 0.66814 0.0
C2511 C 0.94923 0.75841 0.65872 0.0
C2512 C 0.95258 0.75785 0.64215 0.0
C2513 C 0.96453 0.77583 0.66789 0.0
C2514 C 0.96239 0.77732 0.68537 0.0
C2515 C 0.96893 0.76656 0.69587 0.0
C2516 C 0.96965 0.77014 0.71243 0.0
C2517 C 0.96357 0.78426 0.71858 0.0
C2518 C 0.95667 0.79472 0.70818 0.0
C2519 C 0.95621 0.79139 0.6916 0.0
H2520 H 0.96405 0.78695 0.73142 0.0
H2521 H 0.97733 0.77 0.57049 0.0
H2522 H 0.16353 0.21268 0.63947 0.0
H2523 H 0.19403 0.20988 0.65044 0.0
H2524 H 0.18084 0.16004 0.61646 0.0
H2525 H 0.15087 0.16322 0.60516 0.0
H2526 H 0.18848 0.15252 0.65037 0.0
H2527 H 0.21937 0.20328 0.60731 0.0
H2528 H 0.22735 0.23591 0.59298 0.0
H2529 H 0.26028 0.27303 0.63475 0.0
H2530 H 0.2522 0.24056 0.64941 0.0
H2531 H 0.28391 0.14549 0.66082 0.0
H2532 H 0.25152 0.1459 0.65269 0.0
H2533 H 0.28174 0.21208 0.66583 0.0
H2534 H 0.31535 0.2122 0.67142 0.0
H2535 H 0.26359 0.21054 0.6422 0.0
H2536 H 0.21909 0.16008 0.68754 0.0
H2537 H 0.20387 0.12721 0.70344 0.0
H2538 H 0.19643 0.09114 0.6607 0.0
H2539 H 0.20974 0.12351 0.64433 0.0
C2540 C 0.16705 0.20104 0.63444 0.0
C2541 C 0.15478 0.1881 0.62149 0.0
C2542 C 0.18451 0.1995 0.64067 0.0
C2543 C 0.18972 0.18475 0.63426 0.0
C2544 C 0.1771 0.17148 0.62162 0.0
C2545 C 0.16001 0.17334 0.61517 0.0
C2546 C 0.20859 0.18339 0.64042 0.0
C2547 C 0.20497 0.16517 0.64861 0.0
C2548 C 0.23004 0.19997 0.63834 0.0
C2549 C 0.23496 0.21948 0.62951 0.0
C2550 C 0.22813 0.21838 0.61349 0.0
C2551 C 0.23271 0.23685 0.60529 0.0
C2552 C 0.24426 0.25653 0.61296 0.0
C2553 C 0.2513 0.25778 0.62883 0.0
C2554 C 0.24674 0.23935 0.63708 0.0
C2555 C 0.28343 0.16 0.66229 0.0
C2556 C 0.30199 0.1787 0.66722 0.0
C2557 C 0.26456 0.16017 0.65787 0.0
C2558 C 0.2633 0.17882 0.65905 0.0
C2559 C 0.28185 0.19736 0.66459 0.0
C2560 C 0.30111 0.19745 0.66803 0.0
C2561 C 0.24385 0.17981 0.65302 0.0
C2562 C 0.24727 0.19793 0.64449 0.0
C2563 C 0.22213 0.16325 0.65509 0.0
C2564 C 0.21615 0.14425 0.66483 0.0
C2565 C 0.21451 0.14517 0.68158 0.0
C2566 C 0.206 0.12663 0.69063 0.0
C2567 C 0.19987 0.10725 0.68314 0.0
C2568 C 0.20152 0.10623 0.66648 0.0
C2569 C 0.20918 0.12458 0.65729 0.0
H2570 H 0.19353 0.09297 0.69022 0.0
H2571 H 0.24779 0.27081 0.6066 0.0
H2572 H 0.76089 0.9562 0.62075 0.0
H2573 H 0.77261 0.99212 0.63032 0.0
H2574 H 0.82712 0.99402 0.65441 0.0
H2575 H 0.81526 0.95792 0.64507 0.0
H2576 H 0.80865 0.01157 0.67283 0.0
H2577 H 0.83439 0.01829 0.6191 0.0
H2578 H 0.83194 0.01063 0.59003 0.0
H2579 H 0.7862 0.03199 0.58433 0.0
H2580 H 0.78813 0.03948 0.61342 0.0
H2581 H 0.86334 0.1242 0.68272 0.0
H2582 H 0.85435 0.08818 0.67553 0.0
H2583 H 0.79827 0.0796 0.64936 0.0
H2584 H 0.80723 0.1156 0.65629 0.0
H2585 H 0.82061 0.066 0.63224 0.0
H2586 H 0.79419 0.05786 0.68671 0.0
H2587 H 0.79812 0.06653 0.71565 0.0
H2588 H 0.84688 0.04884 0.71982 0.0
H2589 H 0.84344 0.04033 0.69084 0.0
C2590 C 0.77528 0.96425 0.62819 0.0
C2591 C 0.78722 0.95439 0.6321 0.0
C2592 C 0.782 0.98475 0.63359 0.0
C2593 C 0.80092 0.99582 0.64286 0.0
C2594 C 0.81252 0.98575 0.64722 0.0
C2595 C 0.80576 0.96517 0.64184 0.0
C2596 C 0.80878 0.0181 0.64758 0.0
C2597 C 0.81156 0.02356 0.66396 0.0
C2598 C 0.81241 0.03367 0.63599 0.0
C2599 C 0.81127 0.02927 0.61847 0.0
C2600 C 0.82368 0.0212 0.61167 0.0
C2601 C 0.82241 0.01691 0.59518 0.0
C2602 C 0.80889 0.02077 0.58534 0.0
C2603 C 0.79665 0.02898 0.59197 0.0
C2604 C 0.79784 0.03327 0.60845 0.0
C2605 C 0.84898 0.11459 0.67555 0.0
C2606 C 0.83591 0.12272 0.67016 0.0
C2607 C 0.84387 0.09401 0.67146 0.0
C2608 C 0.82553 0.08117 0.66203 0.0
C2609 C 0.81251 0.08927 0.65663 0.0
C2610 C 0.81764 0.10984 0.66065 0.0
C2611 C 0.81997 0.05937 0.6575 0.0
C2612 C 0.81775 0.05403 0.64112 0.0
C2613 C 0.81699 0.044 0.66909 0.0
C2614 C 0.81868 0.04862 0.68658 0.0
C2615 C 0.80582 0.05591 0.69378 0.0
C2616 C 0.80794 0.06078 0.71019 0.0
C2617 C 0.82275 0.05825 0.71956 0.0
C2618 C 0.83541 0.05079 0.71255 0.0
C2619 C 0.83337 0.04591 0.69613 0.0
H2620 H 0.82441 0.06208 0.73226 0.0
H2621 H 0.80792 0.01745 0.57258 0.0
H2622 H 0.53079 0.35654 0.75943 0.0
H2623 H 0.50023 0.3242 0.74852 0.0
H2624 H 0.50502 0.35616 0.7039 0.0
H2625 H 0.53558 0.38874 0.71488 0.0
H2626 H 0.46351 0.33302 0.71314 0.0
H2627 H 0.52302 0.32133 0.70669 0.0
H2628 H 0.55497 0.31895 0.71465 0.0
H2629 H 0.5167 0.26999 0.74829 0.0
H2630 H 0.48458 0.27236 0.74074 0.0
H2631 H 0.41368 0.21868 0.67736 0.0
H2632 H 0.44411 0.25248 0.68564 0.0
H2633 H 0.40323 0.26183 0.71868 0.0
H2634 H 0.37224 0.22808 0.70999 0.0
H2635 H 0.46364 0.26508 0.71332 0.0
H2636 H 0.42238 0.31525 0.72285 0.0
H2637 H 0.39135 0.3175 0.71216 0.0
H2638 H 0.39531 0.28993 0.66752 0.0
H2639 H 0.42652 0.28779 0.67785 0.0
C2640 C 0.52539 0.35663 0.74726 0.0
C2641 C 0.53564 0.37509 0.73798 0.0
C2642 C 0.50795 0.33813 0.74103 0.0
C2643 C 0.50043 0.33766 0.72533 0.0
C2644 C 0.51055 0.35615 0.71604 0.0
C2645 C 0.52807 0.37472 0.72229 0.0
C2646 C 0.48195 0.31783 0.71874 0.0
C2647 C 0.46355 0.31817 0.71317 0.0
C2648 C 0.48207 0.29847 0.71854 0.0
C2649 C 0.50143 0.2972 0.72327 0.0
C2650 C 0.52146 0.31022 0.71591 0.0
C2651 C 0.5396 0.30885 0.72033 0.0
C2652 C 0.53789 0.29438 0.73201 0.0
C2653 C 0.51802 0.28123 0.73928 0.0
C2654 C 0.49984 0.28259 0.73493 0.0
C2655 C 0.41094 0.228 0.68619 0.0
C2656 C 0.39034 0.22072 0.69282 0.0
C2657 C 0.4285 0.24731 0.69103 0.0
C2658 C 0.426 0.25984 0.70269 0.0
C2659 C 0.40551 0.25261 0.70947 0.0
C2660 C 0.38782 0.23325 0.70455 0.0
C2661 C 0.44506 0.28016 0.70795 0.0
C2662 C 0.46357 0.27991 0.71331 0.0
C2663 C 0.44519 0.29963 0.70763 0.0
C2664 C 0.42665 0.30118 0.7012 0.0
C2665 C 0.41668 0.30976 0.71073 0.0
C2666 C 0.39905 0.311 0.70473 0.0
C2667 C 0.39132 0.3038 0.68919 0.0
C2668 C 0.40126 0.29543 0.67958 0.0
C2669 C 0.4189 0.29418 0.6855 0.0
H2670 H 0.37765 0.30475 0.68458 0.0
H2671 H 0.55194 0.29331 0.73539 0.0
H2672 H 0.63183 0.16017 0.71671 0.0
H2673 H 0.66861 0.17169 0.7071 0.0
H2674 H 0.66777 0.11948 0.73191 0.0
H2675 H 0.6314 0.10809 0.74149 0.0
H2676 H 0.70474 0.15523 0.73777 0.0
H2677 H 0.66101 0.11936 0.691 0.0
H2678 H 0.63512 0.11325 0.66912 0.0
H2679 H 0.67707 0.17584 0.65126 0.0
H2680 H 0.70308 0.18242 0.67319 0.0
H2681 H 0.78087 0.13417 0.70167 0.0
H2682 H 0.74612 0.13183 0.70715 0.0
H2683 H 0.77178 0.19632 0.69174 0.0
H2684 H 0.80698 0.19902 0.68684 0.0
H2685 H 0.72491 0.16108 0.68024 0.0
H2686 H 0.76995 0.19584 0.72604 0.0
H2687 H 0.79596 0.20114 0.74762 0.0
H2688 H 0.75143 0.14024 0.76706 0.0
H2689 H 0.72529 0.13442 0.74542 0.0
C2690 C 0.63951 0.15116 0.72004 0.0
C2691 C 0.62872 0.13321 0.72987 0.0
C2692 C 0.66051 0.15771 0.71452 0.0
C2693 C 0.67104 0.14644 0.71874 0.0
C2694 C 0.66014 0.12853 0.72852 0.0
C2695 C 0.63928 0.12198 0.73395 0.0
C2696 C 0.69351 0.15317 0.7134 0.0
C2697 C 0.70906 0.15646 0.72517 0.0
C2698 C 0.69951 0.1554 0.69698 0.0
C2699 C 0.68382 0.15149 0.68387 0.0
C2700 C 0.6646 0.1319 0.68251 0.0
C2701 C 0.64993 0.12833 0.67008 0.0
C2702 C 0.65441 0.14418 0.65885 0.0
C2703 C 0.67359 0.1636 0.66 0.0
C2704 C 0.6883 0.16726 0.67243 0.0
C2705 C 0.77903 0.14777 0.69925 0.0
C2706 C 0.7965 0.1666 0.69347 0.0
C2707 C 0.75918 0.14641 0.70236 0.0
C2708 C 0.75633 0.16385 0.69977 0.0
C2709 C 0.77358 0.18261 0.69366 0.0
C2710 C 0.79364 0.18408 0.69078 0.0
C2711 C 0.73572 0.16261 0.70463 0.0
C2712 C 0.7206 0.16026 0.69282 0.0
C2713 C 0.73004 0.16124 0.72101 0.0
C2714 C 0.74575 0.16461 0.73401 0.0
C2715 C 0.7658 0.18348 0.73481 0.0
C2716 C 0.78055 0.1866 0.74707 0.0
C2717 C 0.77536 0.17102 0.75868 0.0
C2718 C 0.75542 0.15229 0.75805 0.0
C2719 C 0.74063 0.14907 0.74579 0.0
H2720 H 0.78672 0.17348 0.76821 0.0
H2721 H 0.64304 0.14138 0.64922 0.0
H2722 H 0.85965 0.47873 0.72486 0.0
H2723 H 0.84682 0.5019 0.71443 0.0
H2724 H 0.89326 0.55299 0.7444 0.0
H2725 H 0.90599 0.52986 0.75496 0.0
H2726 H 0.85399 0.55041 0.74504 0.0
H2727 H 0.90299 0.55052 0.70493 0.0
H2728 H 0.9162 0.53403 0.68551 0.0
H2729 H 0.85623 0.5077 0.65943 0.0
H2730 H 0.84257 0.52383 0.67884 0.0
H2731 H 0.86702 0.64293 0.71044 0.0
H2732 H 0.87217 0.61425 0.71992 0.0
H2733 H 0.82501 0.57165 0.68546 0.0
H2734 H 0.82002 0.60053 0.67561 0.0
H2735 H 0.85931 0.5662 0.68671 0.0
H2736 H 0.8117 0.56945 0.72526 0.0
H2737 H 0.79934 0.58731 0.7441 0.0
H2738 H 0.8564 0.60777 0.77291 0.0
H2739 H 0.86923 0.59019 0.75416 0.0
C2740 C 0.86708 0.49489 0.72923 0.0
C2741 C 0.88391 0.50261 0.74064 0.0
C2742 C 0.85975 0.50809 0.72326 0.0
C2743 C 0.8692 0.52919 0.72857 0.0
C2744 C 0.88573 0.53675 0.74018 0.0
C2745 C 0.89305 0.52358 0.74613 0.0
C2746 C 0.86241 0.5437 0.72178 0.0
C2747 C 0.85523 0.55395 0.7323 0.0
C2748 C 0.86346 0.54784 0.7051 0.0
C2749 C 0.87167 0.53815 0.69344 0.0
C2750 C 0.89256 0.54106 0.69514 0.0
C2751 C 0.90014 0.53181 0.68412 0.0
C2752 C 0.88703 0.51976 0.67128 0.0
C2753 C 0.86634 0.51699 0.66941 0.0
C2754 C 0.85868 0.52619 0.6804 0.0
C2755 C 0.85774 0.62749 0.70482 0.0
C2756 C 0.84304 0.62398 0.69231 0.0
C2757 C 0.86062 0.61107 0.71033 0.0
C2758 C 0.84861 0.59071 0.70365 0.0
C2759 C 0.83433 0.58723 0.69085 0.0
C2760 C 0.83155 0.60375 0.68522 0.0
C2761 C 0.8513 0.57323 0.71 0.0
C2762 C 0.85769 0.56241 0.69941 0.0
C2763 C 0.84946 0.56854 0.72662 0.0
C2764 C 0.8415 0.5786 0.73823 0.0
C2765 C 0.82166 0.57782 0.73558 0.0
C2766 C 0.81458 0.58791 0.74624 0.0
C2767 C 0.82715 0.59877 0.75964 0.0
C2768 C 0.84674 0.59942 0.76248 0.0
C2769 C 0.85389 0.58933 0.75187 0.0
H2770 H 0.82163 0.60656 0.76788 0.0
H2771 H 0.89293 0.51262 0.66276 0.0
H2772 H 0.44156 0.92016 0.24471 0.0
H2773 H 0.45096 0.93616 0.21814 0.0
H2774 H 0.45997 0.88505 0.20139 0.0
H2775 H 0.45115 0.86928 0.22829 0.0
H2776 H 0.49024 0.92001 0.18954 0.0
H2777 H 0.4142 0.88864 0.19101 0.0
H2778 H 0.37856 0.8797 0.20175 0.0
H2779 H 0.39619 0.94524 0.2005 0.0
H2780 H 0.43207 0.95464 0.18997 0.0
H2781 H 0.49759 0.95851 0.10899 0.0
H2782 H 0.48381 0.93501 0.1323 0.0
H2783 H 0.48052 0.98399 0.15918 0.0
H2784 H 0.49382 0.0073 0.13592 0.0
H2785 H 0.44456 0.94501 0.16348 0.0
H2786 H 0.52296 0.97496 0.16417 0.0
H2787 H 0.55714 0.98163 0.15189 0.0
H2788 H 0.53211 0.91472 0.1469 0.0
H2789 H 0.49771 0.90767 0.15904 0.0
C2790 C 0.44541 0.91225 0.23534 0.0
C2791 C 0.44539 0.89334 0.23854 0.0
C2792 C 0.45072 0.92137 0.22011 0.0
C2793 C 0.45569 0.91159 0.20756 0.0
C2794 C 0.45607 0.89287 0.2108 0.0
C2795 C 0.45104 0.88386 0.22617 0.0
C2796 C 0.46078 0.92122 0.19122 0.0
C2797 C 0.48001 0.92511 0.18374 0.0
C2798 C 0.44751 0.92791 0.18351 0.0
C2799 C 0.4259 0.92236 0.1898 0.0
C2800 C 0.41054 0.90118 0.19313 0.0
C2801 C 0.39028 0.89602 0.19916 0.0
C2802 C 0.38513 0.91189 0.20183 0.0
C2803 C 0.40021 0.93296 0.19844 0.0
C2804 C 0.4205 0.93821 0.19241 0.0
C2805 C 0.49369 0.96416 0.11981 0.0
C2806 C 0.49699 0.98486 0.12064 0.0
C2807 C 0.48597 0.95078 0.13316 0.0
C2808 C 0.48137 0.95782 0.14757 0.0
C2809 C 0.48403 0.97822 0.14823 0.0
C2810 C 0.49181 0.9916 0.13496 0.0
C2811 C 0.47425 0.94432 0.16216 0.0
C2812 C 0.4546 0.93966 0.16926 0.0
C2813 C 0.48689 0.93655 0.16932 0.0
C2814 C 0.50773 0.94081 0.16238 0.0
C2815 C 0.52473 0.96169 0.16039 0.0
C2816 C 0.54414 0.96553 0.15347 0.0
C2817 C 0.54678 0.94861 0.14859 0.0
C2818 C 0.53004 0.92781 0.15068 0.0
C2819 C 0.5106 0.92388 0.1576 0.0
H2820 H 0.5618 0.95162 0.1432 0.0
H2821 H 0.36943 0.90787 0.2065 0.0
H2822 H 0.13992 0.54029 0.22745 0.0
H2823 H 0.11886 0.53307 0.20257 0.0
H2824 H 0.08803 0.56632 0.22168 0.0
H2825 H 0.10878 0.5733 0.24664 0.0
H2826 H 0.05905 0.52767 0.20903 0.0
H2827 H 0.12518 0.5888 0.19316 0.0
H2828 H 0.16452 0.61038 0.18927 0.0
H2829 H 0.16273 0.56294 0.15755 0.0
H2830 H 0.12339 0.54092 0.16144 0.0
H2831 H 0.00757 0.53344 0.1381 0.0
H2832 H 0.03114 0.54299 0.16169 0.0
H2833 H 0.06145 0.50964 0.14188 0.0
H2834 H 0.03771 0.49973 0.11831 0.0
H2835 H 0.09101 0.54833 0.15468 0.0
H2836 H 0.0252 0.48705 0.1707 0.0
H2837 H 0.98587 0.46525 0.17453 0.0
H2838 H 0.98715 0.51264 0.20603 0.0
H2839 H 0.02648 0.53488 0.2022 0.0
C2840 C 0.12869 0.5461 0.2263 0.0
C2841 C 0.12599 0.55738 0.23895 0.0
C2842 C 0.1168 0.54209 0.21207 0.0
C2843 C 0.102 0.54928 0.21028 0.0
C2844 C 0.09942 0.56069 0.22283 0.0
C2845 C 0.11138 0.5648 0.23702 0.0
C2846 C 0.08855 0.54415 0.19557 0.0
C2847 C 0.06602 0.53245 0.19716 0.0
C2848 C 0.09772 0.54991 0.18009 0.0
C2849 C 0.12137 0.56311 0.17773 0.0
C2850 C 0.1332 0.58287 0.18548 0.0
C2851 C 0.15549 0.59521 0.18325 0.0
C2852 C 0.16613 0.58801 0.17321 0.0
C2853 C 0.15447 0.56848 0.16535 0.0
C2854 C 0.13218 0.55608 0.16755 0.0
C2855 C 0.01912 0.52797 0.13881 0.0
C2856 C 0.02066 0.51569 0.12638 0.0
C2857 C 0.03263 0.53353 0.15227 0.0
C2858 C 0.04787 0.52684 0.15358 0.0
C2859 C 0.0498 0.51498 0.14106 0.0
C2860 C 0.03626 0.50937 0.1276 0.0
C2861 C 0.06154 0.53196 0.16817 0.0
C2862 C 0.08407 0.54359 0.16656 0.0
C2863 C 0.05239 0.5261 0.18365 0.0
C2864 C 0.02875 0.51273 0.18604 0.0
C2865 C 0.01707 0.49291 0.17834 0.0
C2866 C 0.99478 0.48046 0.18053 0.0
C2867 C 0.98401 0.48758 0.19048 0.0
C2868 C 0.99552 0.50716 0.1983 0.0
C2869 C 0.01781 0.51968 0.19614 0.0
H2870 H 0.96675 0.47792 0.19216 0.0
H2871 H 0.18339 0.59759 0.17149 0.0
H2872 H 0.42503 0.55079 0.22779 0.0
H2873 H 0.4344 0.54274 0.20136 0.0
H2874 H 0.49878 0.56266 0.21853 0.0
H2875 H 0.48945 0.57008 0.24497 0.0
H2876 H 0.49763 0.5819 0.18962 0.0
H2877 H 0.4646 0.51194 0.21332 0.0
H2878 H 0.43482 0.48037 0.22598 0.0
H2879 H 0.39425 0.47085 0.18495 0.0
H2880 H 0.42372 0.50257 0.17213 0.0
H2881 H 0.54747 0.54934 0.13357 0.0
H2882 H 0.5311 0.55509 0.1572 0.0
H2883 H 0.46884 0.52385 0.13362 0.0
H2884 H 0.48501 0.51701 0.11008 0.0
H2885 H 0.46472 0.51105 0.16369 0.0
H2886 H 0.49742 0.5782 0.13862 0.0
H2887 H 0.52606 0.61005 0.12542 0.0
H2888 H 0.56542 0.62584 0.16798 0.0
H2889 H 0.53715 0.5939 0.18137 0.0
C2890 C 0.44106 0.55308 0.22602 0.0
C2891 C 0.45656 0.56133 0.23847 0.0
C2892 C 0.44641 0.54857 0.21089 0.0
C2893 C 0.46734 0.55226 0.20797 0.0
C2894 C 0.48261 0.55992 0.22048 0.0
C2895 C 0.47725 0.56424 0.23558 0.0
C2896 C 0.47381 0.54891 0.19179 0.0
C2897 C 0.49056 0.56639 0.18398 0.0
C2898 C 0.46395 0.52884 0.18417 0.0
C2899 C 0.44627 0.50977 0.19186 0.0
C2900 C 0.44926 0.50323 0.20706 0.0
C2901 C 0.43246 0.48529 0.21425 0.0
C2902 C 0.41263 0.47365 0.2063 0.0
C2903 C 0.4096 0.4799 0.19111 0.0
C2904 C 0.42635 0.49785 0.18388 0.0
C2905 C 0.53025 0.5435 0.1334 0.0
C2906 C 0.51757 0.53261 0.1199 0.0
C2907 C 0.52094 0.54706 0.14688 0.0
C2908 C 0.49877 0.5402 0.14714 0.0
C2909 C 0.486 0.52939 0.13368 0.0
C2910 C 0.49532 0.52567 0.12017 0.0
C2911 C 0.48906 0.54397 0.16168 0.0
C2912 C 0.47166 0.52663 0.16918 0.0
C2913 C 0.49812 0.56427 0.16894 0.0
C2914 C 0.51519 0.58356 0.16096 0.0
C2915 C 0.51224 0.58838 0.14513 0.0
C2916 C 0.52841 0.60646 0.13762 0.0
C2917 C 0.54756 0.61994 0.14584 0.0
C2918 C 0.55058 0.61538 0.16162 0.0
C2919 C 0.53447 0.5973 0.16918 0.0
H2920 H 0.56006 0.63393 0.14001 0.0
H2921 H 0.39964 0.45976 0.21188 0.0
H2922 H 0.89107 0.45617 0.79849 0.0
H2923 H 0.90731 0.46241 0.82536 0.0
H2924 H 0.95046 0.44114 0.80897 0.0
H2925 H 0.93495 0.43557 0.78201 0.0
H2926 H 0.92984 0.4232 0.83846 0.0
H2927 H 0.96938 0.49164 0.81272 0.0
H2928 H 0.97247 0.52266 0.79855 0.0
H2929 H 0.94204 0.53532 0.83807 0.0
H2930 H 0.93848 0.50416 0.85238 0.0
H2931 H 0.01186 0.45841 0.89681 0.0
H2932 H 0.99069 0.45148 0.8722 0.0
H2933 H 0.9593 0.48374 0.89218 0.0
H2934 H 0.98126 0.49169 0.91658 0.0
H2935 H 0.97017 0.49535 0.86225 0.0
H2936 H 0.93292 0.42937 0.88921 0.0
H2937 H 0.92843 0.39802 0.90371 0.0
H2938 H 0.95213 0.37994 0.86282 0.0
H2939 H 0.95708 0.41136 0.84815 0.0
C2940 C 0.90417 0.45303 0.80055 0.0
C2941 C 0.9117 0.44535 0.78809 0.0
C2942 C 0.91331 0.45648 0.81593 0.0
C2943 C 0.93004 0.45222 0.81908 0.0
C2944 C 0.93744 0.44437 0.80676 0.0
C2945 C 0.92848 0.44111 0.79138 0.0
C2946 C 0.94016 0.45616 0.83518 0.0
C2947 C 0.93881 0.43897 0.84365 0.0
C2948 C 0.95118 0.47665 0.84209 0.0
C2949 C 0.95343 0.49544 0.83353 0.0
C2950 C 0.96317 0.50093 0.81833 0.0
C2951 C 0.96504 0.51856 0.81028 0.0
C2952 C 0.95739 0.53092 0.81739 0.0
C2953 C 0.94792 0.52571 0.83257 0.0
C2954 C 0.94598 0.50808 0.84066 0.0
C2955 C 1.00061 0.46422 0.89593 0.0
C2956 C 0.99826 0.4756 0.90868 0.0
C2957 C 0.9883 0.46 0.88193 0.0
C2958 C 0.97314 0.46679 0.88046 0.0
C2959 C 0.9708 0.47823 0.89311 0.0
C2960 C 0.98323 0.4826 0.9071 0.0
C2961 C 0.96024 0.46241 0.8655 0.0
C2962 C 0.96102 0.47951 0.85721 0.0
C2963 C 0.94847 0.44177 0.85884 0.0
C2964 C 0.94554 0.42283 0.86762 0.0
C2965 C 0.93734 0.41881 0.88335 0.0
C2966 C 0.93468 0.401 0.8916 0.0
C2967 C 0.94003 0.38702 0.8842 0.0
C2968 C 0.94801 0.39079 0.86854 0.0
C2969 C 0.95073 0.40859 0.86024 0.0
H2970 H 0.93795 0.37324 0.89061 0.0
H2971 H 0.95886 0.54456 0.81114 0.0
H2972 H 0.544 0.44384 0.77882 0.0
H2973 H 0.53394 0.4506 0.80521 0.0
H2974 H 0.60119 0.48755 0.81863 0.0
H2975 H 0.61143 0.48013 0.79233 0.0
H2976 H 0.57698 0.46259 0.84334 0.0
H2977 H 0.57426 0.51222 0.80766 0.0
H2978 H 0.5642 0.5242 0.78313 0.0
H2979 H 0.49707 0.48594 0.79485 0.0
H2980 H 0.50672 0.47347 0.81934 0.0
H2981 H 0.55201 0.51113 0.90975 0.0
H2982 H 0.56725 0.50419 0.88569 0.0
H2983 H 0.50301 0.46421 0.86671 0.0
H2984 H 0.48771 0.47084 0.89069 0.0
H2985 H 0.52923 0.49375 0.84525 0.0
H2986 H 0.5327 0.44323 0.88075 0.0
H2987 H 0.54351 0.43213 0.9054 0.0
H2988 H 0.61034 0.47372 0.89437 0.0
H2989 H 0.59991 0.48527 0.86974 0.0
C2990 C 0.55668 0.45313 0.78744 0.0
C2991 C 0.57854 0.46146 0.78343 0.0
C2992 C 0.55091 0.45716 0.80249 0.0
C2993 C 0.56683 0.46982 0.81381 0.0
C2994 C 0.58865 0.4778 0.81004 0.0
C2995 C 0.59447 0.47372 0.79496 0.0
C2996 C 0.5605 0.4751 0.82938 0.0
C2997 C 0.56681 0.4697 0.84379 0.0
C2998 C 0.5471 0.48424 0.82996 0.0
C2999 C 0.54122 0.49178 0.81527 0.0
C3000 C 0.55735 0.50624 0.80494 0.0
C3001 C 0.55172 0.51313 0.79105 0.0
C3002 C 0.53001 0.50581 0.78741 0.0
C3003 C 0.51388 0.49159 0.79768 0.0
C3004 C 0.51942 0.48462 0.81157 0.0
C3005 C 0.54114 0.50058 0.90057 0.0
C3006 C 0.51865 0.4917 0.90206 0.0
C3007 C 0.54987 0.49665 0.88683 0.0
C3008 C 0.53625 0.48371 0.87441 0.0
C3009 C 0.51382 0.47437 0.8761 0.0
C3010 C 0.50511 0.47825 0.88978 0.0
C3011 C 0.54519 0.48072 0.8592 0.0
C3012 C 0.53947 0.48671 0.84482 0.0
C3013 C 0.55923 0.4723 0.85873 0.0
C3014 C 0.56551 0.46529 0.87349 0.0
C3015 C 0.5497 0.45014 0.88365 0.0
C3016 C 0.55576 0.44374 0.8976 0.0
C3017 C 0.5776 0.45226 0.90147 0.0
C3018 C 0.59343 0.46716 0.89137 0.0
C3019 C 0.58745 0.47362 0.8774 0.0
H3020 H 0.58226 0.44729 0.91228 0.0
H3021 H 0.52568 0.51117 0.77665 0.0
H3022 H 0.53771 0.12793 0.79307 0.0
H3023 H 0.52955 0.11066 0.81936 0.0
H3024 H 0.55174 0.06877 0.80275 0.0
H3025 H 0.55978 0.08587 0.77641 0.0
H3026 H 0.51201 0.04758 0.81752 0.0
H3027 H 0.58203 0.10776 0.82856 0.0
H3028 H 0.60932 0.14574 0.82966 0.0
H3029 H 0.56902 0.15714 0.86145 0.0
H3030 H 0.54133 0.11927 0.86036 0.0
H3031 H 0.50872 0.998 0.89033 0.0
H3032 H 0.52197 0.01903 0.86588 0.0
H3033 H 0.50669 0.06476 0.88555 0.0
H3034 H 0.49396 0.04396 0.9103 0.0
H3035 H 0.54295 0.08464 0.8693 0.0
H3036 H 0.47272 0.02584 0.85817 0.0
H3037 H 0.44426 0.98827 0.85704 0.0
H3038 H 0.48304 0.97476 0.82522 0.0
H3039 H 0.51188 0.01222 0.82634 0.0
C3040 C 0.5409 0.11508 0.79504 0.0
C3041 C 0.5494 0.10827 0.78265 0.0
C3042 C 0.53637 0.10532 0.8101 0.0
C3043 C 0.54014 0.08849 0.81306 0.0
C3044 C 0.54875 0.08176 0.80075 0.0
C3045 C 0.55347 0.09163 0.78575 0.0
C3046 C 0.53428 0.07731 0.82875 0.0
C3047 C 0.51902 0.05562 0.82882 0.0
C3048 C 0.54287 0.08794 0.84355 0.0
C3049 C 0.55951 0.11071 0.84424 0.0
C3050 C 0.5789 0.1184 0.83567 0.0
C3051 C 0.59446 0.1399 0.83632 0.0
C3052 C 0.59088 0.15385 0.84558 0.0
C3053 C 0.57175 0.14632 0.85426 0.0
C3054 C 0.55613 0.12484 0.85364 0.0
C3055 C 0.5083 0.01261 0.88947 0.0
C3056 C 0.50008 0.01922 0.90214 0.0
C3057 C 0.51582 0.02459 0.87547 0.0
C3058 C 0.51485 0.04325 0.87366 0.0
C3059 C 0.5075 0.05038 0.88659 0.0
C3060 C 0.50024 0.0385 0.90073 0.0
C3061 C 0.52078 0.05482 0.85808 0.0
C3062 C 0.53597 0.07658 0.85801 0.0
C3063 C 0.51191 0.04432 0.84325 0.0
C3064 C 0.49454 0.0218 0.84246 0.0
C3065 C 0.47524 0.01483 0.85102 0.0
C3066 C 0.45904 0.99356 0.85037 0.0
C3067 C 0.46187 0.97913 0.8411 0.0
C3068 C 0.48089 0.98596 0.83242 0.0
C3069 C 0.49716 0.00721 0.83304 0.0
H3070 H 0.4493 0.96267 0.84061 0.0
H3071 H 0.60295 0.1705 0.84607 0.0
H3072 H 0.10504 0.25626 0.57948 0.0
H3073 H 0.11451 0.27214 0.55284 0.0
H3074 H 0.12756 0.22319 0.53726 0.0
H3075 H 0.11833 0.20734 0.56405 0.0
H3076 H 0.15788 0.25995 0.52668 0.0
H3077 H 0.081 0.22356 0.52553 0.0
H3078 H 0.0444 0.21291 0.53513 0.0
H3079 H 0.05829 0.27726 0.53206 0.0
H3080 H 0.09511 0.28837 0.52267 0.0
H3081 H 0.16564 0.29129 0.44438 0.0
H3082 H 0.15193 0.2696 0.46865 0.0
H3083 H 0.14429 0.31866 0.49137 0.0
H3084 H 0.15781 0.34029 0.4672 0.0
H3085 H 0.10952 0.27855 0.49682 0.0
H3086 H 0.18757 0.31458 0.49981 0.0
H3087 H 0.22384 0.32449 0.48987 0.0
H3088 H 0.20664 0.25904 0.4888 0.0
H3089 H 0.17014 0.24872 0.49852 0.0
C3090 C 0.10973 0.24875 0.57035 0.0
C3091 C 0.11077 0.23044 0.57387 0.0
C3092 C 0.11513 0.25784 0.55509 0.0
C3093 C 0.1214 0.24868 0.54289 0.0
C3094 C 0.12272 0.23054 0.54643 0.0
C3095 C 0.11747 0.22151 0.56176 0.0
C3096 C 0.12695 0.25833 0.52659 0.0
C3097 C 0.1471 0.26364 0.52004 0.0
C3098 C 0.11306 0.26344 0.51793 0.0
C3099 C 0.09089 0.25683 0.52351 0.0
C3100 C 0.07631 0.23548 0.52701 0.0
C3101 C 0.05551 0.22935 0.5324 0.0
C3102 C 0.04904 0.24441 0.53424 0.0
C3103 C 0.06334 0.26562 0.53065 0.0
C3104 C 0.08417 0.27184 0.52527 0.0
C3105 C 0.16077 0.29731 0.45448 0.0
C3106 C 0.16296 0.31756 0.45393 0.0
C3107 C 0.15306 0.28497 0.46837 0.0
C3108 C 0.14728 0.2926 0.48189 0.0
C3109 C 0.1487 0.31247 0.48112 0.0
C3110 C 0.15656 0.32486 0.46733 0.0
C3111 C 0.14049 0.28036 0.49709 0.0
C3112 C 0.12013 0.2746 0.50342 0.0
C3113 C 0.15409 0.27467 0.50548 0.0
C3114 C 0.17606 0.28087 0.49971 0.0
C3115 C 0.19146 0.30229 0.49732 0.0
C3116 C 0.21208 0.30798 0.49175 0.0
C3117 C 0.21752 0.2924 0.48866 0.0
C3118 C 0.20239 0.27109 0.49117 0.0
C3119 C 0.18174 0.26531 0.49672 0.0
H3120 H 0.23349 0.29683 0.48434 0.0
H3121 H 0.03293 0.23963 0.53841 0.0
H3122 H 0.79804 0.91748 0.57089 0.0
H3123 H 0.78687 0.91342 0.5426 0.0
H3124 H 0.74403 0.8466 0.54984 0.0
H3125 H 0.75484 0.85054 0.57804 0.0
H3126 H 0.76678 0.8545 0.52189 0.0
H3127 H 0.72517 0.88076 0.55006 0.0
H3128 H 0.72124 0.90666 0.56673 0.0
H3129 H 0.75654 0.9551 0.53196 0.0
H3130 H 0.76092 0.92952 0.51519 0.0
H3131 H 0.67985 0.81466 0.46837 0.0
H3132 H 0.70446 0.82795 0.49143 0.0
H3133 H 0.73892 0.88966 0.46965 0.0
H3134 H 0.71404 0.87635 0.44648 0.0
H3135 H 0.72833 0.89077 0.50177 0.0
H3136 H 0.76349 0.86228 0.47109 0.0
H3137 H 0.76662 0.83601 0.45434 0.0
H3138 H 0.74364 0.79188 0.49335 0.0
H3139 H 0.74002 0.81775 0.51028 0.0
C3140 C 0.78618 0.90195 0.56645 0.0
C3141 C 0.77729 0.88432 0.57671 0.0
C3142 C 0.77991 0.89965 0.55029 0.0
C3143 C 0.76459 0.87972 0.54417 0.0
C3144 C 0.75601 0.86209 0.55431 0.0
C3145 C 0.76223 0.86436 0.57042 0.0
C3146 C 0.75666 0.8771 0.52739 0.0
C3147 C 0.75836 0.86241 0.51747 0.0
C3148 C 0.74638 0.88801 0.52146 0.0
C3149 C 0.74361 0.90332 0.53149 0.0
C3150 C 0.73224 0.89698 0.54604 0.0
C3151 C 0.72991 0.91159 0.55549 0.0
C3152 C 0.7387 0.93253 0.55043 0.0
C3153 C 0.74978 0.93889 0.53588 0.0
C3154 C 0.75219 0.92434 0.5264 0.0
C3155 C 0.6927 0.83104 0.4685 0.0
C3156 C 0.69514 0.84451 0.45571 0.0
C3157 C 0.70684 0.83857 0.48159 0.0
C3158 C 0.72363 0.85971 0.48213 0.0
C3159 C 0.72612 0.87326 0.46937 0.0
C3160 C 0.71204 0.86565 0.45616 0.0
C3161 C 0.73774 0.86758 0.49651 0.0
C3162 C 0.73723 0.88326 0.506 0.0
C3163 C 0.74913 0.85759 0.50203 0.0
C3164 C 0.75139 0.84196 0.49194 0.0
C3165 C 0.75895 0.84692 0.47608 0.0
C3166 C 0.76083 0.83211 0.46655 0.0
C3167 C 0.75531 0.81228 0.47277 0.0
C3168 C 0.74792 0.80725 0.48855 0.0
C3169 C 0.74598 0.822 0.49813 0.0
H3170 H 0.75677 0.80083 0.46538 0.0
H3171 H 0.73688 0.94382 0.55776 0.0
H3172 H 0.16341 0.90595 0.579 0.0
H3173 H 0.17274 0.90057 0.55192 0.0
H3174 H 0.10658 0.87535 0.53672 0.0
H3175 H 0.09712 0.88119 0.56382 0.0
H3176 H 0.12562 0.85159 0.52577 0.0
H3177 H 0.14088 0.92336 0.52602 0.0
H3178 H 0.15643 0.95971 0.53667 0.0
H3179 H 0.22027 0.96858 0.53251 0.0
H3180 H 0.20508 0.93214 0.52206 0.0
H3181 H 0.15712 0.85244 0.4444 0.0
H3182 H 0.14106 0.85859 0.46824 0.0
H3183 H 0.20426 0.89406 0.49009 0.0
H3184 H 0.22048 0.88904 0.46602 0.0
H3185 H 0.18234 0.91299 0.49603 0.0
H3186 H 0.16766 0.84076 0.49932 0.0
H3187 H 0.15306 0.80413 0.4895 0.0
H3188 H 0.0893 0.79596 0.48766 0.0
H3189 H 0.10359 0.83265 0.49731 0.0
C3190 C 0.15084 0.89946 0.56989 0.0
C3191 C 0.12956 0.89426 0.57356 0.0
C3192 C 0.15619 0.8963 0.55443 0.0
C3193 C 0.14041 0.88783 0.54228 0.0
C3194 C 0.119 0.88196 0.54594 0.0
C3195 C 0.11362 0.88524 0.56144 0.0
C3196 C 0.14657 0.88541 0.52575 0.0
C3197 C 0.13771 0.86503 0.5191 0.0
C3198 C 0.1626 0.90294 0.51722 0.0
C3199 C 0.17182 0.92495 0.52336 0.0
C3200 C 0.15823 0.933 0.52748 0.0
C3201 C 0.16698 0.95363 0.53347 0.0
C3202 C 0.18932 0.96643 0.53529 0.0
C3203 C 0.20296 0.95864 0.5311 0.0
C3204 C 0.19429 0.93801 0.52512 0.0
C3205 C 0.16763 0.86183 0.45417 0.0
C3206 C 0.19009 0.87004 0.45333 0.0
C3207 C 0.15839 0.86514 0.46788 0.0
C3208 C 0.1714 0.87648 0.4811 0.0
C3209 C 0.19385 0.88516 0.48009 0.0
C3210 C 0.20309 0.88205 0.46637 0.0
C3211 C 0.16184 0.87908 0.49616 0.0
C3212 C 0.17003 0.89954 0.50256 0.0
C3213 C 0.14534 0.86159 0.50451 0.0
C3214 C 0.13672 0.8395 0.49886 0.0
C3215 C 0.15055 0.83118 0.49672 0.0
C3216 C 0.14233 0.81041 0.4912 0.0
C3217 C 0.12028 0.79774 0.48791 0.0
C3218 C 0.10639 0.8058 0.49019 0.0
C3219 C 0.11453 0.82657 0.4957 0.0
H3220 H 0.11395 0.78167 0.48363 0.0
H3221 H 0.19607 0.9824 0.53993 0.0
H3222 H 0.54178 0.78164 0.12871 0.0
H3223 H 0.55663 0.78903 0.15609 0.0
H3224 H 0.60018 0.76665 0.14321 0.0
H3225 H 0.58576 0.75958 0.11587 0.0
H3226 H 0.58156 0.752 0.17265 0.0
H3227 H 0.61749 0.8185 0.14389 0.0
H3228 H 0.61861 0.84756 0.12809 0.0
H3229 H 0.58677 0.86092 0.1662 0.0
H3230 H 0.58519 0.83171 0.18214 0.0
H3231 H 0.67 0.79937 0.22568 0.0
H3232 H 0.64526 0.78773 0.20272 0.0
H3233 H 0.61036 0.81559 0.22417 0.0
H3234 H 0.63548 0.82779 0.24706 0.0
H3235 H 0.61908 0.8261 0.19284 0.0
H3236 H 0.58789 0.76268 0.22324 0.0
H3237 H 0.58727 0.73388 0.23907 0.0
H3238 H 0.61001 0.71462 0.19827 0.0
H3239 H 0.61109 0.74351 0.18225 0.0
C3240 C 0.55455 0.77834 0.13172 0.0
C3241 C 0.56261 0.77005 0.12012 0.0
C3242 C 0.56293 0.78248 0.14736 0.0
C3243 C 0.57955 0.77845 0.15161 0.0
C3244 C 0.58725 0.76972 0.14018 0.0
C3245 C 0.57894 0.76564 0.12457 0.0
C3246 C 0.5897 0.78411 0.16774 0.0
C3247 C 0.58984 0.7682 0.17707 0.0
C3248 C 0.59992 0.80515 0.17366 0.0
C3249 C 0.60098 0.82276 0.16412 0.0
C3250 C 0.61056 0.82752 0.14884 0.0
C3251 C 0.61131 0.84404 0.13987 0.0
C3252 C 0.6027 0.85603 0.14611 0.0
C3253 C 0.59339 0.85158 0.16136 0.0
C3254 C 0.59257 0.83505 0.17037 0.0
C3255 C 0.65709 0.80306 0.2255 0.0
C3256 C 0.6547 0.81453 0.23814 0.0
C3257 C 0.64283 0.79621 0.21246 0.0
C3258 C 0.62583 0.80058 0.21185 0.0
C3259 C 0.62331 0.81195 0.22447 0.0
C3260 C 0.63757 0.81879 0.23756 0.0
C3261 C 0.61141 0.79407 0.19761 0.0
C3262 C 0.61046 0.80982 0.18861 0.0
C3263 C 0.60044 0.77287 0.19201 0.0
C3264 C 0.5997 0.75537 0.20157 0.0
C3265 C 0.59291 0.75241 0.21767 0.0
C3266 C 0.59245 0.73605 0.22667 0.0
C3267 C 0.59863 0.72245 0.21969 0.0
C3268 C 0.60523 0.72516 0.20367 0.0
C3269 C 0.60575 0.74151 0.19461 0.0
H3270 H 0.59826 0.7098 0.22668 0.0
H3271 H 0.6033 0.86881 0.13915 0.0
H3272 H 0.24596 0.83405 0.11007 0.0
H3273 H 0.23664 0.84056 0.1369 0.0
H3274 H 0.22461 0.77909 0.15205 0.0
H3275 H 0.23359 0.77239 0.12511 0.0
H3276 H 0.19319 0.7846 0.16154 0.0
H3277 H 0.26985 0.82587 0.16496 0.0
H3278 H 0.30667 0.85235 0.15667 0.0
H3279 H 0.29021 0.90135 0.15986 0.0
H3280 H 0.25318 0.87511 0.16796 0.0
H3281 H 0.18226 0.80385 0.24411 0.0
H3282 H 0.19757 0.79808 0.21958 0.0
H3283 H 0.20057 0.85333 0.19837 0.0
H3284 H 0.18533 0.85922 0.22286 0.0
H3285 H 0.23808 0.85021 0.19321 0.0
H3286 H 0.16037 0.80719 0.18833 0.0
H3287 H 0.12413 0.78012 0.19732 0.0
H3288 H 0.14407 0.73351 0.19772 0.0
H3289 H 0.18055 0.76041 0.18895 0.0
C3290 C 0.24162 0.82205 0.11919 0.0
C3291 C 0.2405 0.80271 0.1155 0.0
C3292 C 0.23633 0.8258 0.13454 0.0
C3293 C 0.23015 0.81041 0.14659 0.0
C3294 C 0.22931 0.79119 0.14296 0.0
C3295 C 0.23441 0.78737 0.12757 0.0
C3296 C 0.22352 0.81396 0.16269 0.0
C3297 C 0.20323 0.79878 0.16857 0.0
C3298 C 0.2364 0.83261 0.17181 0.0
C3299 C 0.25867 0.84847 0.16693 0.0
C3300 C 0.27402 0.84226 0.16377 0.0
C3301 C 0.29495 0.85724 0.15913 0.0
C3302 C 0.30077 0.87852 0.15771 0.0
C3303 C 0.28568 0.88486 0.16096 0.0
C3304 C 0.26472 0.86995 0.16559 0.0
C3305 C 0.18642 0.81489 0.23428 0.0
C3306 C 0.18249 0.83191 0.23534 0.0
C3307 C 0.19507 0.81153 0.22027 0.0
C3308 C 0.20006 0.82521 0.20714 0.0
C3309 C 0.19681 0.84259 0.20837 0.0
C3310 C 0.18796 0.84584 0.2223 0.0
C3311 C 0.20782 0.82093 0.19187 0.0
C3312 C 0.22824 0.83597 0.18618 0.0
C3313 C 0.19519 0.80206 0.18299 0.0
C3314 C 0.17324 0.78586 0.18816 0.0
C3315 C 0.15708 0.79121 0.19047 0.0
C3316 C 0.13649 0.77589 0.1955 0.0
C3317 C 0.13182 0.75512 0.19813 0.0
C3318 C 0.14772 0.74961 0.1957 0.0
C3319 C 0.16835 0.76488 0.19069 0.0
H3320 H 0.11587 0.74328 0.20203 0.0
H3321 H 0.31698 0.89009 0.15412 0.0
H3322 H 0.18781 0.42546 0.11151 0.0
H3323 H 0.179 0.40969 0.1382 0.0
H3324 H 0.24486 0.45062 0.15361 0.0
H3325 H 0.2538 0.46672 0.12688 0.0
H3326 H 0.22876 0.40985 0.16429 0.0
H3327 H 0.20707 0.46201 0.1649 0.0
H3328 H 0.18887 0.4808 0.15471 0.0
H3329 H 0.12737 0.42384 0.1583 0.0
H3330 H 0.14524 0.40461 0.16828 0.0
H3331 H 0.19809 0.37684 0.24542 0.0
H3332 H 0.21288 0.4 0.22206 0.0
H3333 H 0.14995 0.36855 0.19948 0.0
H3334 H 0.13494 0.34619 0.22298 0.0
H3335 H 0.16858 0.40927 0.19423 0.0
H3336 H 0.19061 0.35634 0.19041 0.0
H3337 H 0.20856 0.33712 0.20026 0.0
H3338 H 0.26918 0.39535 0.20262 0.0
H3339 H 0.25151 0.41495 0.19295 0.0
C3340 C 0.20042 0.43124 0.12059 0.0
C3341 C 0.22146 0.44754 0.11709 0.0
C3342 C 0.19537 0.42216 0.13584 0.0
C3343 C 0.21119 0.42922 0.14799 0.0
C3344 C 0.23239 0.44499 0.14443 0.0
C3345 C 0.23747 0.45412 0.12914 0.0
C3346 C 0.20535 0.4202 0.16441 0.0
C3347 C 0.21586 0.41004 0.17098 0.0
C3348 C 0.18838 0.42026 0.17308 0.0
C3349 C 0.17753 0.43183 0.16724 0.0
C3350 C 0.18968 0.45345 0.16342 0.0
C3351 C 0.17942 0.46419 0.15769 0.0
C3352 C 0.15698 0.45351 0.15583 0.0
C3353 C 0.14475 0.43209 0.15974 0.0
C3354 C 0.15494 0.42127 0.16545 0.0
C3355 C 0.18734 0.37512 0.23559 0.0
C3356 C 0.16536 0.35945 0.23601 0.0
C3357 C 0.19587 0.38823 0.22216 0.0
C3358 C 0.18262 0.38579 0.20884 0.0
C3359 C 0.16055 0.3707 0.20953 0.0
C3360 C 0.15202 0.35774 0.22293 0.0
C3361 C 0.19156 0.39836 0.19393 0.0
C3362 C 0.18166 0.40927 0.18765 0.0
C3363 C 0.20904 0.39893 0.18553 0.0
C3364 C 0.21971 0.38713 0.19113 0.0
C3365 C 0.20774 0.36505 0.19312 0.0
C3366 C 0.21787 0.35409 0.19866 0.0
C3367 C 0.23998 0.36502 0.20211 0.0
C3368 C 0.25204 0.38692 0.19997 0.0
C3369 C 0.24199 0.39796 0.19444 0.0
H3370 H 0.24779 0.35651 0.20641 0.0
H3371 H 0.14906 0.46185 0.15139 0.0
H3372 H 0.81167 0.57199 0.91035 0.0
H3373 H 0.82178 0.58862 0.88403 0.0
H3374 H 0.75481 0.55628 0.86945 0.0
H3375 H 0.74458 0.53885 0.89564 0.0
H3376 H 0.78047 0.55744 0.84492 0.0
H3377 H 0.77894 0.60718 0.88179 0.0
H3378 H 0.78777 0.6284 0.90671 0.0
H3379 H 0.85516 0.6598 0.89495 0.0
H3380 H 0.84675 0.63854 0.87006 0.0
H3381 H 0.79495 0.62943 0.78079 0.0
H3382 H 0.78359 0.60605 0.80416 0.0
H3383 H 0.84935 0.63743 0.82163 0.0
H3384 H 0.86072 0.66084 0.79838 0.0
H3385 H 0.82279 0.63592 0.84437 0.0
H3386 H 0.82404 0.58489 0.80772 0.0
H3387 H 0.81467 0.56347 0.78285 0.0
H3388 H 0.74723 0.53563 0.79358 0.0
H3389 H 0.75621 0.55665 0.81866 0.0
C3390 C 0.79908 0.56805 0.90148 0.0
C3391 C 0.77727 0.55412 0.90519 0.0
C3392 C 0.80488 0.57775 0.88645 0.0
C3393 C 0.78903 0.57396 0.87482 0.0
C3394 C 0.76732 0.55953 0.87825 0.0
C3395 C 0.76149 0.54974 0.89329 0.0
C3396 C 0.79512 0.58583 0.85943 0.0
C3397 C 0.78952 0.5746 0.84478 0.0
C3398 C 0.80712 0.60823 0.85921 0.0
C3399 C 0.81223 0.62112 0.87414 0.0
C3400 C 0.79566 0.61849 0.88458 0.0
C3401 C 0.80058 0.63055 0.89869 0.0
C3402 C 0.82201 0.6454 0.90243 0.0
C3403 C 0.83856 0.64827 0.89205 0.0
C3404 C 0.83373 0.63623 0.87793 0.0
C3405 C 0.80703 0.63104 0.78946 0.0
C3406 C 0.82869 0.64712 0.78783 0.0
C3407 C 0.80053 0.61765 0.80281 0.0
C3408 C 0.81561 0.61996 0.81469 0.0
C3409 C 0.83739 0.63542 0.8127 0.0
C3410 C 0.84386 0.64883 0.79942 0.0
C3411 C 0.80858 0.60757 0.82983 0.0
C3412 C 0.81385 0.61875 0.84447 0.0
C3413 C 0.79622 0.58519 0.82999 0.0
C3414 C 0.79079 0.57246 0.81499 0.0
C3415 C 0.80721 0.57427 0.80474 0.0
C3416 C 0.80197 0.56217 0.79063 0.0
C3417 C 0.78037 0.54834 0.78657 0.0
C3418 C 0.76396 0.54639 0.79672 0.0
C3419 C 0.76911 0.5583 0.81093 0.0
H3420 H 0.77636 0.53908 0.7756 0.0
H3421 H 0.8258 0.65472 0.91336 0.0
H3422 H 0.4707 0.24281 0.89443 0.0
H3423 H 0.45087 0.23478 0.86891 0.0
H3424 H 0.39613 0.18154 0.89083 0.0
H3425 H 0.41606 0.18927 0.91623 0.0
H3426 H 0.40236 0.17056 0.86251 0.0
H3427 H 0.39747 0.22902 0.88393 0.0
H3428 H 0.41127 0.26487 0.89516 0.0
H3429 H 0.44695 0.29201 0.85193 0.0
H3430 H 0.43358 0.25628 0.84052 0.0
H3431 H 0.33152 0.19012 0.80167 0.0
H3432 H 0.35288 0.19938 0.82639 0.0
H3433 H 0.39211 0.17559 0.80608 0.0
H3434 H 0.37003 0.16513 0.78167 0.0
H3435 H 0.39321 0.22507 0.83378 0.0
H3436 H 0.40757 0.15368 0.83517 0.0
H3437 H 0.3899 0.11656 0.82579 0.0
H3438 H 0.32817 0.11309 0.8267 0.0
H3439 H 0.34542 0.15006 0.83629 0.0
C3440 C 0.4544 0.22946 0.89377 0.0
C3441 C 0.44488 0.21667 0.90727 0.0
C3442 C 0.44309 0.22489 0.87922 0.0
C3443 C 0.42192 0.20769 0.87801 0.0
C3444 C 0.41246 0.19485 0.89147 0.0
C3445 C 0.42385 0.19927 0.90596 0.0
C3446 C 0.40957 0.203 0.86273 0.0
C3447 C 0.4004 0.1825 0.85622 0.0
C3448 C 0.4067 0.21847 0.85465 0.0
C3449 C 0.41469 0.23997 0.86144 0.0
C3450 C 0.40838 0.24263 0.87686 0.0
C3451 C 0.41611 0.26293 0.88326 0.0
C3452 C 0.43002 0.28071 0.87428 0.0
C3453 C 0.43619 0.27822 0.85888 0.0
C3454 C 0.42854 0.25795 0.85244 0.0
C3455 C 0.34455 0.18665 0.80251 0.0
C3456 C 0.34888 0.17665 0.78974 0.0
C3457 C 0.35691 0.19218 0.81659 0.0
C3458 C 0.37391 0.18793 0.81817 0.0
C3459 C 0.37882 0.17869 0.80523 0.0
C3460 C 0.36633 0.17295 0.7912 0.0
C3461 C 0.38609 0.19267 0.83354 0.0
C3462 C 0.39527 0.21317 0.84004 0.0
C3463 C 0.38842 0.17704 0.84187 0.0
C3464 C 0.37784 0.15471 0.83628 0.0
C3465 C 0.39022 0.14496 0.83342 0.0
C3466 C 0.38028 0.12395 0.82806 0.0
C3467 C 0.35794 0.1125 0.8256 0.0
C3468 C 0.34548 0.122 0.82855 0.0
C3469 C 0.35533 0.14299 0.83393 0.0
H3470 H 0.35028 0.09625 0.82143 0.0
H3471 H 0.43599 0.29641 0.87925 0.0
H3472 H 0.82897 0.23745 0.91459 0.0
H3473 H 0.83787 0.23185 0.88745 0.0
H3474 H 0.77247 0.21036 0.87203 0.0
H3475 H 0.76348 0.21664 0.89918 0.0
H3476 H 0.79052 0.1847 0.86107 0.0
H3477 H 0.80711 0.25688 0.86139 0.0
H3478 H 0.82315 0.29322 0.87216 0.0
H3479 H 0.88654 0.30087 0.86843 0.0
H3480 H 0.87085 0.26443 0.85787 0.0
H3481 H 0.82243 0.18578 0.77965 0.0
H3482 H 0.80644 0.19179 0.80362 0.0
H3483 H 0.8696 0.2262 0.82567 0.0
H3484 H 0.88573 0.22127 0.80148 0.0
H3485 H 0.84822 0.24574 0.83165 0.0
H3486 H 0.83225 0.17315 0.8347 0.0
H3487 H 0.81716 0.13645 0.82489 0.0
H3488 H 0.7538 0.12926 0.82301 0.0
H3489 H 0.76857 0.16602 0.83265 0.0
C3490 C 0.81647 0.23178 0.90543 0.0
C3491 C 0.79556 0.22782 0.90906 0.0
C3492 C 0.82158 0.22845 0.88994 0.0
C3493 C 0.80589 0.22093 0.87771 0.0
C3494 C 0.7848 0.21622 0.88132 0.0
C3495 C 0.77969 0.21975 0.89685 0.0
C3496 C 0.81193 0.21843 0.86116 0.0
C3497 C 0.80282 0.19806 0.85445 0.0
C3498 C 0.82825 0.23586 0.85272 0.0
C3499 C 0.83778 0.25786 0.85895 0.0
C3500 C 0.82446 0.26625 0.86298 0.0
C3501 C 0.83349 0.28687 0.86903 0.0
C3502 C 0.85585 0.29933 0.87101 0.0
C3503 C 0.86922 0.29119 0.8669 0.0
C3504 C 0.86027 0.27056 0.86087 0.0
C3505 C 0.83293 0.19492 0.7895 0.0
C3506 C 0.85535 0.20293 0.78865 0.0
C3507 C 0.82374 0.19813 0.80328 0.0
C3508 C 0.83677 0.20918 0.81658 0.0
C3509 C 0.85918 0.21756 0.81561 0.0
C3510 C 0.86837 0.21452 0.80181 0.0
C3511 C 0.82725 0.21188 0.83165 0.0
C3512 C 0.8357 0.23235 0.8381 0.0
C3513 C 0.81046 0.19451 0.8399 0.0
C3514 C 0.80155 0.17239 0.83422 0.0
C3515 C 0.81512 0.16378 0.83209 0.0
C3516 C 0.80662 0.14297 0.82658 0.0
C3517 C 0.78454 0.13055 0.82328 0.0
C3518 C 0.7709 0.1389 0.82554 0.0
C3519 C 0.77932 0.15972 0.83104 0.0
H3520 H 0.778 0.11444 0.81902 0.0
H3521 H 0.86281 0.3153 0.8757 0.0
H3522 H 0.21297 0.11527 0.46139 0.0
H3523 H 0.2297 0.12326 0.48814 0.0
H3524 H 0.27518 0.10467 0.47232 0.0
H3525 H 0.2593 0.09751 0.44543 0.0
H3526 H 0.25434 0.08659 0.50226 0.0
H3527 H 0.29227 0.15424 0.47514 0.0
H3528 H 0.29445 0.18441 0.46026 0.0
H3529 H 0.26335 0.1973 0.49918 0.0
H3530 H 0.26071 0.16698 0.5142 0.0
H3531 H 0.3387 0.12685 0.5589 0.0
H3532 H 0.31596 0.1177 0.53493 0.0
H3533 H 0.28349 0.14892 0.55489 0.0
H3534 H 0.30687 0.15893 0.57869 0.0
H3535 H 0.29339 0.15967 0.52448 0.0
H3536 H 0.25831 0.09496 0.553 0.0
H3537 H 0.25484 0.06453 0.56828 0.0
H3538 H 0.27812 0.04531 0.52778 0.0
H3539 H 0.28206 0.07581 0.51232 0.0
C3540 C 0.2267 0.11313 0.46352 0.0
C3541 C 0.23473 0.10568 0.45123 0.0
C3542 C 0.23612 0.11757 0.47884 0.0
C3543 C 0.25359 0.11447 0.48214 0.0
C3544 C 0.26157 0.10696 0.46999 0.0
C3545 C 0.25238 0.10278 0.45465 0.0
C3546 C 0.26381 0.11922 0.49823 0.0
C3547 C 0.26302 0.10257 0.50712 0.0
C3548 C 0.27442 0.13995 0.5047 0.0
C3549 C 0.27605 0.15819 0.4957 0.0
C3550 C 0.28571 0.16337 0.48045 0.0
C3551 C 0.28707 0.18053 0.47201 0.0
C3552 C 0.27898 0.19272 0.47874 0.0
C3553 C 0.26957 0.18781 0.49396 0.0
C3554 C 0.26814 0.17066 0.50245 0.0
C3555 C 0.32681 0.13189 0.55816 0.0
C3556 C 0.32463 0.14367 0.57068 0.0
C3557 C 0.31363 0.12642 0.54454 0.0
C3558 C 0.29782 0.13238 0.54322 0.0
C3559 C 0.29552 0.14407 0.55571 0.0
C3560 C 0.30877 0.14962 0.56935 0.0
C3561 C 0.28436 0.12708 0.52848 0.0
C3562 C 0.2845 0.14362 0.5198 0.0
C3563 C 0.27292 0.10617 0.52229 0.0
C3564 C 0.27064 0.08779 0.53154 0.0
C3565 C 0.26286 0.08435 0.54739 0.0
C3566 C 0.26078 0.06707 0.55607 0.0
C3567 C 0.2663 0.05302 0.54901 0.0
C3568 C 0.27387 0.05621 0.53324 0.0
C3569 C 0.27601 0.07349 0.5245 0.0
H3570 H 0.26466 0.03964 0.55575 0.0
H3571 H 0.28005 0.206 0.47219 0.0
H3572 H 0.90675 0.10428 0.46658 0.0
H3573 H 0.89557 0.11202 0.49232 0.0
H3574 H 0.90403 0.17056 0.47308 0.0
H3575 H 0.91603 0.16321 0.44759 0.0
H3576 H 0.91661 0.17705 0.50249 0.0
H3577 H 0.85343 0.12393 0.47518 0.0
H3578 H 0.83058 0.08986 0.4613 0.0
H3579 H 0.83037 0.05637 0.50369 0.0
H3580 H 0.85351 0.09027 0.51775 0.0
H3581 H 0.81754 0.15403 0.55595 0.0
H3582 H 0.83282 0.14735 0.53207 0.0
H3583 H 0.89326 0.16905 0.55721 0.0
H3584 H 0.8787 0.17747 0.58073 0.0
H3585 H 0.84656 0.12248 0.52493 0.0
H3586 H 0.93524 0.19035 0.53167 0.0
H3587 H 0.95571 0.22641 0.54314 0.0
H3588 H 0.90018 0.23395 0.53784 0.0
H3589 H 0.87947 0.19806 0.52615 0.0
C3590 C 0.90639 0.11887 0.46795 0.0
C3591 C 0.91213 0.13312 0.45513 0.0
C3592 C 0.89992 0.12325 0.48262 0.0
C3593 C 0.89852 0.14168 0.48457 0.0
C3594 C 0.90496 0.15624 0.4719 0.0
C3595 C 0.9118 0.15204 0.45734 0.0
C3596 C 0.88961 0.14546 0.49954 0.0
C3597 C 0.90132 0.16509 0.50742 0.0
C3598 C 0.86944 0.13004 0.50584 0.0
C3599 C 0.85538 0.10963 0.49746 0.0
C3600 C 0.84863 0.1093 0.48151 0.0
C3601 C 0.83561 0.09002 0.47361 0.0
C3602 C 0.82907 0.07096 0.4816 0.0
C3603 C 0.83548 0.07115 0.49751 0.0
C3604 C 0.84854 0.09039 0.50545 0.0
C3605 C 0.83422 0.15778 0.55637 0.0
C3606 C 0.8469 0.16657 0.5703 0.0
C3607 C 0.84286 0.15366 0.54272 0.0
C3608 C 0.86432 0.15795 0.5427 0.0
C3609 C 0.87681 0.16601 0.55676 0.0
C3610 C 0.86831 0.17052 0.57033 0.0
C3611 C 0.87354 0.15411 0.5279 0.0
C3612 C 0.86191 0.13442 0.52007 0.0
C3613 C 0.8934 0.16976 0.52133 0.0
C3614 C 0.90575 0.19144 0.52821 0.0
C3615 C 0.92743 0.19974 0.53291 0.0
C3616 C 0.93906 0.22014 0.53946 0.0
C3617 C 0.92922 0.23243 0.54127 0.0
C3618 C 0.90775 0.22438 0.53649 0.0
C3619 C 0.89605 0.20401 0.52992 0.0
H3620 H 0.93826 0.24821 0.54635 0.0
H3621 H 0.819 0.05605 0.47546 0.0
H3622 H 0.87595 0.79938 0.45984 0.0
H3623 H 0.86971 0.78456 0.48694 0.0
H3624 H 0.89124 0.74156 0.47185 0.0
H3625 H 0.89708 0.75598 0.44466 0.0
H3626 H 0.85486 0.72159 0.4898 0.0
H3627 H 0.924 0.78546 0.49377 0.0
H3628 H 0.94944 0.82376 0.49132 0.0
H3629 H 0.91129 0.83695 0.52402 0.0
H3630 H 0.88544 0.79872 0.5265 0.0
H3631 H 0.87924 0.69035 0.5635 0.0
H3632 H 0.87966 0.70469 0.53697 0.0
H3633 H 0.85832 0.74538 0.5576 0.0
H3634 H 0.8583 0.73133 0.58438 0.0
H3635 H 0.89179 0.76694 0.5373 0.0
H3636 H 0.82399 0.70293 0.53491 0.0
H3637 H 0.79864 0.66464 0.53749 0.0
H3638 H 0.83388 0.65161 0.50194 0.0
H3639 H 0.85965 0.68982 0.49931 0.0
C3640 C 0.87922 0.78667 0.46226 0.0
C3641 C 0.88709 0.77892 0.45007 0.0
C3642 C 0.8758 0.77832 0.47779 0.0
C3643 C 0.88018 0.76206 0.48149 0.0
C3644 C 0.88778 0.75412 0.46931 0.0
C3645 C 0.89129 0.76251 0.4538 0.0
C3646 C 0.87691 0.75329 0.49803 0.0
C3647 C 0.8631 0.73147 0.50017 0.0
C3648 C 0.88713 0.76626 0.51165 0.0
C3649 C 0.90265 0.78924 0.51018 0.0
C3650 C 0.92093 0.79654 0.50033 0.0
C3651 C 0.93545 0.81823 0.49896 0.0
C3652 C 0.93195 0.83278 0.50747 0.0
C3653 C 0.91396 0.82566 0.51741 0.0
C3654 C 0.89937 0.80398 0.51881 0.0
C3655 C 0.87461 0.70234 0.56242 0.0
C3656 C 0.86882 0.70976 0.57608 0.0
C3657 C 0.87468 0.7104 0.5472 0.0
C3658 C 0.86885 0.72601 0.54523 0.0
C3659 C 0.86282 0.73331 0.55881 0.0
C3660 C 0.86266 0.72516 0.57409 0.0
C3661 C 0.86995 0.73517 0.52906 0.0
C3662 C 0.88337 0.75707 0.52698 0.0
C3663 C 0.85934 0.72227 0.51549 0.0
C3664 C 0.84387 0.69925 0.51702 0.0
C3665 C 0.82645 0.6919 0.52774 0.0
C3666 C 0.81198 0.67021 0.52919 0.0
C3667 C 0.81467 0.6557 0.51991 0.0
C3668 C 0.83182 0.66286 0.50913 0.0
C3669 C 0.84635 0.68454 0.50764 0.0
H3670 H 0.80345 0.63891 0.52105 0.0
H3671 H 0.94321 0.84957 0.5064 0.0
loop_
_geom_bond_atom_site_label_1
_geom_bond_atom_site_label_2
_geom_bond_distance
_geom_bond_site_symmetry_2
_ccdc_geom_bond_type
H0 C5 0.930 . S
H1 C8 0.930 . S
H2 C10 0.930 . S
H3 C4 1.016 . S
C4 H3 1.016 . S
C4 N11 1.286 . S
C5 H0 0.930 . S
C5 C6 1.397 . S
C5 C7 1.361 . S
C6 C5 1.397 . S
C6 C10 1.390 . S
C7 C5 1.361 . S
C7 C8 1.393 . S
C7 N11 1.413 . S
C8 H1 0.930 . S
C8 C7 1.393 . S
C8 C9 1.399 . S
C9 C8 1.399 . S
C9 C10 1.381 . S
C10 H2 0.930 . S
C10 C6 1.390 . S
C10 C9 1.381 . S
N11 C4 1.286 . S
N11 C7 1.413 . S
H12 C17 0.930 . S
H13 C20 0.930 . S
H14 C22 0.930 . S
H15 C16 1.016 . S
C16 H15 1.016 . S
C16 N23 1.286 . S
C17 H12 0.930 . S
C17 C18 1.397 . S
C17 C19 1.361 . S
C18 C17 1.397 . S
C18 C22 1.390 . S
C19 C17 1.361 . S
C19 C20 1.393 . S
C19 N23 1.413 . S
C20 H13 0.930 . S
C20 C19 1.393 . S
C20 C21 1.399 . S
C21 C20 1.399 . S
C21 C22 1.381 . S
C22 H14 0.930 . S
C22 C18 1.390 . S
C22 C21 1.381 . S
N23 C16 1.286 . S
N23 C19 1.413 . S
H24 C29 0.930 . S
H25 C32 0.930 . S
H26 C34 0.930 . S
H27 C28 1.016 . S
C28 H27 1.016 . S
C28 N35 1.286 . S
C29 H24 0.930 . S
C29 C30 1.397 . S
C29 C31 1.361 . S
C30 C29 1.397 . S
C30 C34 1.390 . S
C31 C29 1.361 . S
C31 C32 1.393 . S
C31 N35 1.413 . S
C32 H25 0.930 . S
C32 C31 1.393 . S
C32 C33 1.399 . S
C33 C32 1.399 . S
C33 C34 1.381 . S
C34 H26 0.930 . S
C34 C30 1.390 . S
C34 C33 1.381 . S
N35 C28 1.286 . S
N35 C31 1.413 . S
H36 C41 0.930 . S
H37 C44 0.930 . S
H38 C46 0.930 . S
H39 C40 1.016 . S
C40 H39 1.016 . S
C40 N47 1.286 . S
C41 H36 0.930 . S
C41 C42 1.397 . S
C41 C43 1.361 . S
C42 C41 1.397 . S
C42 C46 1.390 . S
C43 C41 1.361 . S
C43 C44 1.393 . S
C43 N47 1.413 . S
C44 H37 0.930 . S
C44 C43 1.393 . S
C44 C45 1.399 . S
C45 C44 1.399 . S
C45 C46 1.381 . S
C46 H38 0.930 . S
C46 C42 1.390 . S
C46 C45 1.381 . S
N47 C40 1.286 . S
N47 C43 1.413 . S
H48 C53 0.930 . S
H49 C56 0.930 . S
H50 C58 0.930 . S
H51 C52 1.016 . S
C52 H51 1.016 . S
C52 N59 1.286 . S
C53 H48 0.930 . S
C53 C54 1.397 . S
C53 C55 1.361 . S
C54 C53 1.397 . S
C54 C58 1.390 . S
C55 C53 1.361 . S
C55 C56 1.393 . S
C55 N59 1.413 . S
C56 H49 0.930 . S
C56 C55 1.393 . S
C56 C57 1.399 . S
C57 C56 1.399 . S
C57 C58 1.381 . S
C58 H50 0.930 . S
C58 C54 1.390 . S
C58 C57 1.381 . S
N59 C52 1.286 . S
N59 C55 1.413 . S
H60 C65 0.930 . S
H61 C68 0.930 . S
H62 C70 0.930 . S
H63 C64 1.016 . S
C64 H63 1.016 . S
C64 N71 1.286 . S
C65 H60 0.930 . S
C65 C66 1.397 . S
C65 C67 1.361 . S
C66 C65 1.397 . S
C66 C70 1.390 . S
C67 C65 1.361 . S
C67 C68 1.393 . S
C67 N71 1.413 . S
C68 H61 0.930 . S
C68 C67 1.393 . S
C68 C69 1.399 . S
C69 C68 1.399 . S
C69 C70 1.381 . S
C70 H62 0.930 . S
C70 C66 1.390 . S
C70 C69 1.381 . S
N71 C64 1.286 . S
N71 C67 1.413 . S
H72 C77 0.930 . S
H73 C80 0.930 . S
H74 C82 0.930 . S
H75 C76 1.016 . S
C76 H75 1.016 . S
C76 N83 1.286 . S
C77 H72 0.930 . S
C77 C78 1.397 . S
C77 C79 1.361 . S
C78 C77 1.397 . S
C78 C82 1.390 . S
C79 C77 1.361 . S
C79 C80 1.393 . S
C79 N83 1.413 . S
C80 H73 0.930 . S
C80 C79 1.393 . S
C80 C81 1.399 . S
C81 C80 1.399 . S
C81 C82 1.381 . S
C82 H74 0.930 . S
C82 C78 1.390 . S
C82 C81 1.381 . S
N83 C76 1.286 . S
N83 C79 1.413 . S
H84 C89 0.930 . S
H85 C92 0.930 . S
H86 C94 0.930 . S
H87 C88 1.016 . S
C88 H87 1.016 . S
C88 N95 1.286 . S
C89 H84 0.930 . S
C89 C90 1.397 . S
C89 C91 1.361 . S
C90 C89 1.397 . S
C90 C94 1.390 . S
C91 C89 1.361 . S
C91 C92 1.393 . S
C91 N95 1.413 . S
C92 H85 0.930 . S
C92 C91 1.393 . S
C92 C93 1.399 . S
C93 C92 1.399 . S
C93 C94 1.381 . S
C94 H86 0.930 . S
C94 C90 1.390 . S
C94 C93 1.381 . S
N95 C88 1.286 . S
N95 C91 1.413 . S
H96 C101 0.930 . S
H97 C104 0.930 . S
H98 C106 0.930 . S
H99 C100 1.016 . S
C100 H99 1.016 . S
C100 N107 1.286 . S
C101 H96 0.930 . S
C101 C102 1.397 . S
C101 C103 1.361 . S
C102 C101 1.397 . S
C102 C106 1.390 . S
C103 C101 1.361 . S
C103 C104 1.393 . S
C103 N107 1.413 . S
C104 H97 0.930 . S
C104 C103 1.393 . S
C104 C105 1.399 . S
C105 C104 1.399 . S
C105 C106 1.381 . S
C106 H98 0.930 . S
C106 C102 1.390 . S
C106 C105 1.381 . S
N107 C100 1.286 . S
N107 C103 1.413 . S
H108 C113 0.930 . S
H109 C116 0.930 . S
H110 C118 0.930 . S
H111 C112 1.016 . S
C112 H111 1.016 . S
C112 N119 1.286 . S
C113 H108 0.930 . S
C113 C114 1.397 . S
C113 C115 1.361 . S
C114 C113 1.397 . S
C114 C118 1.390 . S
C115 C113 1.361 . S
C115 C116 1.393 . S
C115 N119 1.413 . S
C116 H109 0.930 . S
C116 C115 1.393 . S
C116 C117 1.399 . S
C117 C116 1.399 . S
C117 C118 1.381 . S
C118 H110 0.930 . S
C118 C114 1.390 . S
C118 C117 1.381 . S
N119 C112 1.286 . S
N119 C115 1.413 . S
H120 C125 0.930 . S
H121 C128 0.930 . S
H122 C130 0.930 . S
H123 C124 1.016 . S
C124 H123 1.016 . S
C124 N131 1.286 . S
C125 H120 0.930 . S
C125 C126 1.397 . S
C125 C127 1.361 . S
C126 C125 1.397 . S
C126 C130 1.390 . S
C127 C125 1.361 . S
C127 C128 1.393 . S
C127 N131 1.413 . S
C128 H121 0.930 . S
C128 C127 1.393 . S
C128 C129 1.399 . S
C129 C128 1.399 . S
C129 C130 1.381 . S
C130 H122 0.930 . S
C130 C126 1.390 . S
C130 C129 1.381 . S
N131 C124 1.286 . S
N131 C127 1.413 . S
H132 C137 0.930 . S
H133 C140 0.930 . S
H134 C142 0.930 . S
H135 C136 1.016 . S
C136 H135 1.016 . S
C136 N143 1.286 . S
C137 H132 0.930 . S
C137 C138 1.397 . S
C137 C139 1.361 . S
C138 C137 1.397 . S
C138 C142 1.390 . S
C139 C137 1.361 . S
C139 C140 1.393 . S
C139 N143 1.413 . S
C140 H133 0.930 . S
C140 C139 1.393 . S
C140 C141 1.399 . S
C141 C140 1.399 . S
C141 C142 1.381 . S
C142 H134 0.930 . S
C142 C138 1.390 . S
C142 C141 1.381 . S
N143 C136 1.286 . S
N143 C139 1.413 . S
H144 C149 0.930 . S
H145 C152 0.930 . S
H146 C154 0.930 . S
H147 C148 1.016 . S
C148 H147 1.016 . S
C148 N155 1.286 . S
C149 H144 0.930 . S
C149 C150 1.397 . S
C149 C151 1.361 . S
C150 C149 1.397 . S
C150 C154 1.390 . S
C151 C149 1.361 . S
C151 C152 1.393 . S
C151 N155 1.413 . S
C152 H145 0.930 . S
C152 C151 1.393 . S
C152 C153 1.399 . S
C153 C152 1.399 . S
C153 C154 1.381 . S
C154 H146 0.930 . S
C154 C150 1.390 . S
C154 C153 1.381 . S
N155 C148 1.286 . S
N155 C151 1.413 . S
H156 C161 0.930 . S
H157 C164 0.930 . S
H158 C166 0.930 . S
H159 C160 1.016 . S
C160 H159 1.016 . S
C160 N167 1.286 . S
C161 H156 0.930 . S
C161 C162 1.397 . S
C161 C163 1.361 . S
C162 C161 1.397 . S
C162 C166 1.390 . S
C163 C161 1.361 . S
C163 C164 1.393 . S
C163 N167 1.413 . S
C164 H157 0.930 . S
C164 C163 1.393 . S
C164 C165 1.399 . S
C165 C164 1.399 . S
C165 C166 1.381 . S
C166 H158 0.930 . S
C166 C162 1.390 . S
C166 C165 1.381 . S
N167 C160 1.286 . S
N167 C163 1.413 . S
H168 C173 0.930 . S
H169 C176 0.930 . S
H170 C178 0.930 . S
H171 C172 1.016 . S
C172 H171 1.016 . S
C172 N179 1.286 . S
C173 H168 0.930 . S
C173 C174 1.397 . S
C173 C175 1.361 . S
C174 C173 1.397 . S
C174 C178 1.390 . S
C175 C173 1.361 . S
C175 C176 1.393 . S
C175 N179 1.413 . S
C176 H169 0.930 . S
C176 C175 1.393 . S
C176 C177 1.399 . S
C177 C176 1.399 . S
C177 C178 1.381 . S
C178 H170 0.930 . S
C178 C174 1.390 . S
C178 C177 1.381 . S
N179 C172 1.286 . S
N179 C175 1.413 . S
H180 C185 0.930 . S
H181 C188 0.930 . S
H182 C190 0.930 . S
H183 C184 1.016 . S
C184 H183 1.016 . S
C184 N191 1.286 . S
C185 H180 0.930 . S
C185 C186 1.397 . S
C185 C187 1.361 . S
C186 C185 1.397 . S
C186 C190 1.390 . S
C187 C185 1.361 . S
C187 C188 1.393 . S
C187 N191 1.413 . S
C188 H181 0.930 . S
C188 C187 1.393 . S
C188 C189 1.399 . S
C189 C188 1.399 . S
C189 C190 1.381 . S
C190 H182 0.930 . S
C190 C186 1.390 . S
C190 C189 1.381 . S
N191 C184 1.286 . S
N191 C187 1.413 . S
H192 C197 0.930 . S
H193 C200 0.930 . S
H194 C202 0.930 . S
H195 C196 1.016 . S
C196 H195 1.016 . S
C196 N203 1.286 . S
C197 H192 0.930 . S
C197 C198 1.397 . S
C197 C199 1.361 . S
C198 C197 1.397 . S
C198 C202 1.390 . S
C199 C197 1.361 . S
C199 C200 1.393 . S
C199 N203 1.413 . S
C200 H193 0.930 . S
C200 C199 1.393 . S
C200 C201 1.399 . S
C201 C200 1.399 . S
C201 C202 1.381 . S
C202 H194 0.930 . S
C202 C198 1.390 . S
C202 C201 1.381 . S
N203 C196 1.286 . S
N203 C199 1.413 . S
H204 C209 0.930 . S
H205 C212 0.930 . S
H206 C214 0.930 . S
H207 C208 1.016 . S
C208 H207 1.016 . S
C208 N215 1.286 . S
C209 H204 0.930 . S
C209 C210 1.397 . S
C209 C211 1.361 . S
C210 C209 1.397 . S
C210 C214 1.390 . S
C211 C209 1.361 . S
C211 C212 1.393 . S
C211 N215 1.413 . S
C212 H205 0.930 . S
C212 C211 1.393 . S
C212 C213 1.399 . S
C213 C212 1.399 . S
C213 C214 1.381 . S
C214 H206 0.930 . S
C214 C210 1.390 . S
C214 C213 1.381 . S
N215 C208 1.286 . S
N215 C211 1.413 . S
Eu216 N247 2.657 . S
Eu216 N254 2.609 . S
Eu216 O260 2.558 . S
Eu216 O261 2.612 1_566 S
Eu216 O263 2.339 1_565 S
Eu216 O264 2.563 1_565 S
Eu216 O265 2.419 1_565 S
Eu216 O267 2.380 1_556 S
Eu216 O268 2.432 1_556 S
Eu216 C280 2.848 1_565 S
C217 C220 1.429 . S
C217 C221 1.411 . S
C217 N224 1.377 . S
C218 C220 1.420 . S
C218 C222 1.423 . S
C218 C230 1.392 . S
C219 C221 1.420 . S
C219 C222 1.351 . S
C219 H242 0.931 . S
C220 C217 1.429 . S
C220 C218 1.420 . S
C220 N228 1.362 . S
C221 C217 1.411 . S
C221 C219 1.420 . S
C221 C226 1.395 . S
C222 C218 1.423 . S
C222 C219 1.351 . S
C222 H234 0.930 . S
C223 C225 1.400 . S
C223 C226 1.386 . S
C223 H235 0.930 . S
N224 C217 1.377 . S
N224 C225 1.321 . S
N224 Eu227 2.609 . S
C225 C223 1.400 . S
C225 N224 1.321 . S
C225 H232 0.930 . S
C226 C221 1.395 . S
C226 C223 1.386 . S
C226 H245 0.930 . S
Eu227 N224 2.609 . S
Eu227 N228 2.657 . S
Eu227 O261 2.380 . S
Eu227 O262 2.432 . S
Eu227 O266 2.558 . S
Eu227 O267 2.612 1_545 S
Eu227 O269 2.339 1_545 S
Eu227 O270 2.563 1_545 S
Eu227 O271 2.419 1_545 S
Eu227 C291 2.848 . S
N228 C220 1.362 . S
N228 Eu227 2.657 . S
N228 C229 1.334 . S
C229 N228 1.334 . S
C229 C231 1.413 . S
C229 H236 0.929 . S
C230 C218 1.392 . S
C230 C231 1.367 . S
C230 H238 0.930 . S
C231 C229 1.413 . S
C231 C230 1.367 . S
C231 H233 0.930 . S
H232 C225 0.930 . S
H233 C231 0.930 . S
H234 C222 0.930 . S
H235 C223 0.930 . S
H236 C229 0.929 . S
H237 C251 0.930 . S
H238 C230 0.930 . S
H239 C257 0.930 . S
H240 C248 0.911 1_545 S
H241 C255 0.930 . S
H242 C219 0.931 . S
H243 C249 0.930 . S
H244 C282 0.930 . S
H245 C226 0.930 . S
H246 C281 0.931 . S
N247 Eu216 2.657 . S
N247 C248 1.334 . S
N247 C252 1.362 . S
C248 H240 0.911 1_565 S
C248 N247 1.334 . S
C248 C251 1.413 . S
C249 H243 0.930 . S
C249 C250 1.392 . S
C249 C251 1.367 . S
C250 C249 1.392 . S
C250 C252 1.420 . S
C250 C282 1.423 . S
C251 H237 0.930 . S
C251 C248 1.413 . S
C251 C249 1.367 . S
C252 N247 1.362 . S
C252 C250 1.420 . S
C252 C256 1.429 . S
H253 C258 0.930 . S
N254 Eu216 2.609 . S
N254 C256 1.377 . S
N254 C257 1.321 . S
C255 H241 0.930 . S
C255 C257 1.400 . S
C255 C258 1.386 . S
C256 C252 1.429 . S
C256 N254 1.377 . S
C256 C259 1.411 . S
C257 H239 0.930 . S
C257 N254 1.321 . S
C257 C255 1.400 . S
C258 H253 0.930 . S
C258 C255 1.386 . S
C258 C259 1.395 . S
C259 C256 1.411 . S
C259 C258 1.395 . S
C259 C281 1.420 . S
O260 Eu216 2.558 . S
O260 C280 1.257 1_565 S
O261 Eu216 2.612 1_544 S
O261 Eu227 2.380 . S
O261 C272 1.276 1_554 S
O262 Eu227 2.432 . S
O262 C279 1.264 . S
O263 Eu216 2.339 1_545 S
O263 C279 1.254 1_556 S
O264 Eu216 2.563 1_545 S
O264 C272 1.235 . S
O265 Eu216 2.419 1_545 S
O265 C280 1.249 . S
O266 Eu227 2.558 . S
O266 C291 1.257 . S
O267 Eu216 2.380 1_554 S
O267 Eu227 2.612 1_565 S
O267 C283 1.276 . S
O268 Eu216 2.432 1_554 S
O268 C290 1.264 . S
O269 Eu227 2.339 1_565 S
O269 C290 1.254 . S
O270 Eu227 2.563 1_565 S
O270 C283 1.235 . S
O271 Eu227 2.419 1_565 S
O271 C291 1.249 1_565 S
C272 O261 1.276 1_556 S
C272 O264 1.235 . S
C273 C275 1.393 . S
C273 C277 1.395 1_545 S
C273 C280 1.492 . S
C274 C275 1.392 . S
C274 C276 1.386 . S
C275 C273 1.393 . S
C275 C274 1.392 . S
C275 H292 0.930 . S
C276 C274 1.386 . S
C276 C278 1.358 1_545 S
C276 H293 0.930 . S
C277 C273 1.395 1_565 S
C277 C278 1.386 . S
C277 H294 0.930 . S
C278 C276 1.358 1_565 S
C278 C277 1.386 . S
C278 H295 0.960 . S
C279 O262 1.264 . S
C279 O263 1.254 1_554 S
C280 Eu216 2.848 1_545 S
C280 O260 1.257 1_545 S
C280 O265 1.249 . S
C280 C273 1.492 . S
C281 H246 0.931 . S
C281 C259 1.420 . S
C281 C282 1.351 . S
C282 H244 0.930 . S
C282 C250 1.423 . S
C282 C281 1.351 . S
C283 O267 1.276 . S
C283 O270 1.235 . S
C284 C285 1.336 1_545 S
C284 C288 1.442 . S
C284 C291 1.501 . S
C285 C284 1.336 1_565 S
C285 C286 1.392 . S
C285 H296 0.930 . S
C286 C285 1.392 . S
C286 C287 1.386 . S
C287 C286 1.386 . S
C287 C289 1.395 1_565 S
C287 H297 0.930 . S
C288 C284 1.442 . S
C288 C289 1.379 . S
C288 H298 0.930 . S
C289 C287 1.395 1_545 S
C289 C288 1.379 . S
C289 H299 0.930 . S
C290 O268 1.264 . S
C290 O269 1.254 . S
C291 Eu227 2.848 . S
C291 O266 1.257 . S
C291 O271 1.249 1_545 S
C291 C284 1.501 . S
H292 C275 0.930 . S
H293 C276 0.930 . S
H294 C277 0.930 . S
H295 C278 0.960 . S
H296 C285 0.930 . S
H297 C287 0.930 . S
H298 C288 0.930 . S
H299 C289 0.930 . S
Eu300 N331 2.657 . S
Eu300 N338 2.609 . S
Eu300 O344 2.558 . S
Eu300 O345 2.612 1_456 S
Eu300 O347 2.339 1_455 S
Eu300 O348 2.563 1_455 S
Eu300 O349 2.419 . S
Eu300 O351 2.380 1_556 S
Eu300 O352 2.432 1_556 S
Eu300 C364 2.848 . S
C301 C304 1.429 . S
C301 C305 1.411 . S
C301 N308 1.377 . S
C302 C304 1.420 . S
C302 C306 1.423 . S
C302 C314 1.392 . S
C303 C305 1.420 . S
C303 C306 1.351 . S
C303 H326 0.931 . S
C304 C301 1.429 . S
C304 C302 1.420 . S
C304 N312 1.362 . S
C305 C301 1.411 . S
C305 C303 1.420 . S
C305 C310 1.395 . S
C306 C302 1.423 . S
C306 C303 1.351 . S
C306 H318 0.930 . S
C307 C309 1.400 . S
C307 C310 1.386 . S
C307 H319 0.930 . S
N308 C301 1.377 . S
N308 C309 1.321 . S
N308 Eu311 2.609 . S
C309 C307 1.400 . S
C309 N308 1.321 . S
C309 H316 0.930 . S
C310 C305 1.395 . S
C310 C307 1.386 . S
C310 H329 0.930 . S
Eu311 N308 2.609 . S
Eu311 N312 2.657 . S
Eu311 O345 2.380 . S
Eu311 O346 2.432 . S
Eu311 O350 2.558 . S
Eu311 O351 2.612 1_655 S
Eu311 O353 2.339 1_655 S
Eu311 O354 2.563 1_655 S
Eu311 O355 2.419 1_655 S
Eu311 C375 2.848 1_655 S
N312 C304 1.362 . S
N312 Eu311 2.657 . S
N312 C313 1.334 . S
C313 N312 1.334 . S
C313 C315 1.413 . S
C313 H320 0.882 1_655 S
C314 C302 1.392 . S
C314 C315 1.367 . S
C314 H322 0.930 . S
C315 C313 1.413 . S
C315 C314 1.367 . S
C315 H317 0.930 . S
H316 C309 0.930 . S
H317 C315 0.930 . S
H318 C306 0.930 . S
H319 C307 0.930 . S
H320 C313 0.882 1_455 S
H321 C335 0.930 . S
H322 C314 0.930 . S
H323 C341 0.930 . S
H324 C332 0.929 . S
H325 C339 0.930 . S
H326 C303 0.931 . S
H327 C333 0.930 . S
H328 C366 0.930 . S
H329 C310 0.930 . S
H330 C365 0.931 . S
N331 Eu300 2.657 . S
N331 C332 1.334 . S
N331 C336 1.362 . S
C332 H324 0.929 . S
C332 N331 1.334 . S
C332 C335 1.413 . S
C333 H327 0.930 . S
C333 C334 1.392 . S
C333 C335 1.367 . S
C334 C333 1.392 . S
C334 C336 1.420 . S
C334 C366 1.423 . S
C335 H321 0.930 . S
C335 C332 1.413 . S
C335 C333 1.367 . S
C336 N331 1.362 . S
C336 C334 1.420 . S
C336 C340 1.429 . S
H337 C342 0.930 . S
N338 Eu300 2.609 . S
N338 C340 1.377 . S
N338 C341 1.321 . S
C339 H325 0.930 . S
C339 C341 1.400 . S
C339 C342 1.386 . S
C340 C336 1.429 . S
C340 N338 1.377 . S
C340 C343 1.411 . S
C341 H323 0.930 . S
C341 N338 1.321 . S
C341 C339 1.400 . S
C342 H337 0.930 . S
C342 C339 1.386 . S
C342 C343 1.395 . S
C343 C340 1.411 . S
C343 C342 1.395 . S
C343 C365 1.420 . S
O344 Eu300 2.558 . S
O344 C364 1.257 . S
O345 Eu300 2.612 1_654 S
O345 Eu311 2.380 . S
O345 C356 1.276 1_554 S
O346 Eu311 2.432 . S
O346 C363 1.264 . S
O347 Eu300 2.339 1_655 S
O347 C363 1.254 1_556 S
O348 Eu300 2.563 1_655 S
O348 C356 1.235 . S
O349 Eu300 2.419 . S
O349 C364 1.249 . S
O350 Eu311 2.558 . S
O350 C375 1.257 1_655 S
O351 Eu300 2.380 1_554 S
O351 Eu311 2.612 1_455 S
O351 C367 1.276 . S
O352 Eu300 2.432 1_554 S
O352 C374 1.264 . S
O353 Eu311 2.339 1_455 S
O353 C374 1.254 . S
O354 Eu311 2.563 1_455 S
O354 C367 1.235 . S
O355 Eu311 2.419 1_455 S
O355 C375 1.249 . S
C356 O345 1.276 1_556 S
C356 O348 1.235 . S
C357 C359 1.393 1_455 S
C357 C361 1.395 . S
C357 C364 1.492 . S
C358 C359 1.392 . S
C358 C360 1.386 . S
C359 C357 1.393 1_655 S
C359 C358 1.392 . S
C359 H376 0.930 . S
C360 C358 1.386 . S
C360 C362 1.395 1_655 S
C360 H377 0.930 . S
C361 C357 1.395 . S
C361 C362 1.379 . S
C361 H378 0.930 . S
C362 C360 1.395 1_455 S
C362 C361 1.379 . S
C362 H379 0.930 . S
C363 O346 1.264 . S
C363 O347 1.254 1_554 S
C364 Eu300 2.848 . S
C364 O344 1.257 . S
C364 O349 1.249 . S
C364 C357 1.492 . S
C365 H330 0.931 . S
C365 C343 1.420 . S
C365 C366 1.351 . S
C366 H328 0.930 . S
C366 C334 1.423 . S
C366 C365 1.351 . S
C367 O351 1.276 . S
C367 O354 1.235 . S
C368 C369 1.393 . S
C368 C372 1.395 1_455 S
C368 C375 1.492 . S
C369 C368 1.393 . S
C369 C370 1.392 . S
C369 H380 0.930 . S
C370 C369 1.392 . S
C370 C371 1.386 . S
C371 C370 1.386 . S
C371 C373 1.395 1_455 S
C371 H381 0.930 . S
C372 C368 1.395 1_655 S
C372 C373 1.379 . S
C372 H382 0.930 . S
C373 C371 1.395 1_655 S
C373 C372 1.379 . S
C373 H383 0.930 . S
C374 O352 1.264 . S
C374 O353 1.254 . S
C375 Eu311 2.848 1_455 S
C375 O350 1.257 1_455 S
C375 O355 1.249 . S
C375 C368 1.492 . S
H376 C359 0.930 . S
H377 C360 0.930 . S
H378 C361 0.930 . S
H379 C362 0.930 . S
H380 C369 0.930 . S
H381 C371 0.930 . S
H382 C372 0.930 . S
H383 C373 0.930 . S
Eu384 N415 2.657 . S
Eu384 N422 2.609 . S
Eu384 O428 2.558 . S
Eu384 O429 2.612 . S
Eu384 O431 2.339 . S
Eu384 O432 2.563 . S
Eu384 O433 2.419 . S
Eu384 O435 2.380 . S
Eu384 O436 2.432 . S
Eu384 C448 2.848 . S
C385 C388 1.429 . S
C385 C389 1.411 . S
C385 N392 1.377 . S
C386 C388 1.420 . S
C386 C390 1.423 . S
C386 C398 1.392 . S
C387 C389 1.420 . S
C387 C390 1.351 . S
C387 H410 0.931 . S
C388 C385 1.429 . S
C388 C386 1.420 . S
C388 N396 1.362 . S
C389 C385 1.411 . S
C389 C387 1.420 . S
C389 C394 1.395 . S
C390 C386 1.423 . S
C390 C387 1.351 . S
C390 H402 0.930 . S
C391 C393 1.400 . S
C391 C394 1.386 . S
C391 H403 0.930 . S
N392 C385 1.377 . S
N392 C393 1.321 . S
N392 Eu395 2.609 . S
C393 C391 1.400 . S
C393 N392 1.321 . S
C393 H400 0.930 . S
C394 C389 1.395 . S
C394 C391 1.386 . S
C394 H413 0.930 . S
Eu395 N392 2.609 . S
Eu395 N396 2.657 . S
Eu395 O429 2.380 1_556 S
Eu395 O430 2.432 1_556 S
Eu395 O434 2.558 . S
Eu395 O435 2.612 1_556 S
Eu395 O437 2.339 . S
Eu395 O438 2.563 . S
Eu395 O439 2.419 . S
Eu395 C459 2.848 . S
N396 C388 1.362 . S
N396 Eu395 2.657 . S
N396 C397 1.334 . S
C397 N396 1.334 . S
C397 C399 1.413 . S
C397 H404 0.929 . S
C398 C386 1.392 . S
C398 C399 1.367 . S
C398 H406 0.930 . S
C399 C397 1.413 . S
C399 C398 1.367 . S
C399 H401 0.930 . S
H400 C393 0.930 . S
H401 C399 0.930 . S
H402 C390 0.930 . S
H403 C391 0.930 . S
H404 C397 0.929 . S
H405 C419 0.930 . S
H406 C398 0.930 . S
H407 C425 0.930 . S
H408 C416 0.929 . S
H409 C423 0.930 . S
H410 C387 0.931 . S
H411 C417 0.930 . S
H412 C450 0.930 . S
H413 C394 0.930 . S
H414 C449 0.931 . S
N415 Eu384 2.657 . S
N415 C416 1.334 . S
N415 C420 1.362 . S
C416 H408 0.929 . S
C416 N415 1.334 . S
C416 C419 1.413 . S
C417 H411 0.930 . S
C417 C418 1.392 . S
C417 C419 1.367 . S
C418 C417 1.392 . S
C418 C420 1.420 . S
C418 C450 1.423 . S
C419 H405 0.930 . S
C419 C416 1.413 . S
C419 C417 1.367 . S
C420 N415 1.362 . S
C420 C418 1.420 . S
C420 C424 1.429 . S
H421 C426 0.930 . S
N422 Eu384 2.609 . S
N422 C424 1.377 . S
N422 C425 1.321 . S
C423 H409 0.930 . S
C423 C425 1.400 . S
C423 C426 1.386 . S
C424 C420 1.429 . S
C424 N422 1.377 . S
C424 C427 1.411 . S
C425 H407 0.930 . S
C425 N422 1.321 . S
C425 C423 1.400 . S
C426 H421 0.930 . S
C426 C423 1.386 . S
C426 C427 1.395 . S
C427 C424 1.411 . S
C427 C426 1.395 . S
C427 C449 1.420 . S
O428 Eu384 2.558 . S
O428 C448 1.257 . S
O429 Eu384 2.612 . S
O429 Eu395 2.380 1_554 S
O429 C440 1.276 . S
O430 Eu395 2.432 1_554 S
O430 C447 1.264 . S
O431 Eu384 2.339 . S
O431 C447 1.254 . S
O432 Eu384 2.563 . S
O432 C440 1.235 . S
O433 Eu384 2.419 . S
O433 C448 1.249 . S
O434 Eu395 2.558 . S
O434 C459 1.257 . S
O435 Eu384 2.380 . S
O435 Eu395 2.612 1_554 S
O435 C451 1.244 1_554 S
O436 Eu384 2.432 . S
O436 C458 1.264 . S
O437 Eu395 2.339 . S
O437 C458 1.254 1_556 S
O438 Eu395 2.563 . S
O438 C451 1.277 . S
O439 Eu395 2.419 . S
O439 C459 1.249 . S
C440 O429 1.276 . S
C440 O432 1.235 . S
C441 C443 1.393 . S
C441 C445 1.395 . S
C441 C448 1.492 . S
C442 C443 1.392 . S
C442 C444 1.386 . S
C443 C441 1.393 . S
C443 C442 1.392 . S
C443 H460 0.930 . S
C444 C442 1.386 . S
C444 C446 1.395 . S
C444 H461 0.930 . S
C445 C441 1.395 . S
C445 C446 1.379 . S
C445 H462 0.930 . S
C446 C444 1.395 . S
C446 C445 1.379 . S
C446 H463 0.930 . S
C447 O430 1.264 . S
C447 O431 1.254 . S
C448 Eu384 2.848 . S
C448 O428 1.257 . S
C448 O433 1.249 . S
C448 C441 1.492 . S
C449 H414 0.931 . S
C449 C427 1.420 . S
C449 C450 1.351 . S
C450 H412 0.930 . S
C450 C418 1.423 . S
C450 C449 1.351 . S
C451 O435 1.244 1_556 S
C451 O438 1.277 . S
C452 C453 1.393 . S
C452 C456 1.395 . S
C452 C459 1.492 . S
C453 C452 1.393 . S
C453 C454 1.392 . S
C453 H464 0.930 . S
C454 C453 1.392 . S
C454 C455 1.386 . S
C455 C454 1.386 . S
C455 C457 1.395 . S
C455 H465 0.930 . S
C456 C452 1.395 . S
C456 C457 1.379 . S
C456 H466 0.930 . S
C457 C455 1.395 . S
C457 C456 1.379 . S
C457 H467 0.930 . S
C458 O436 1.264 . S
C458 O437 1.254 1_554 S
C459 Eu395 2.848 . S
C459 O434 1.257 . S
C459 O439 1.249 . S
C459 C452 1.492 . S
H460 C443 0.930 . S
H461 C444 0.930 . S
H462 C445 0.930 . S
H463 C446 0.930 . S
H464 C453 0.930 . S
H465 C455 0.930 . S
H466 C456 0.930 . S
H467 C457 0.930 . S
Eu468 N499 2.657 . S
Eu468 N506 2.609 . S
Eu468 O512 2.558 . S
Eu468 O513 2.612 . S
Eu468 O515 2.339 . S
Eu468 O516 2.563 . S
Eu468 O517 2.419 . S
Eu468 O519 2.380 . S
Eu468 O520 2.432 . S
Eu468 C532 2.848 . S
C469 C472 1.429 . S
C469 C473 1.411 . S
C469 N476 1.377 . S
C470 C472 1.420 . S
C470 C474 1.423 . S
C470 C482 1.392 . S
C471 C473 1.420 . S
C471 C474 1.351 . S
C471 H494 0.931 . S
C472 C469 1.429 . S
C472 C470 1.420 . S
C472 N480 1.362 . S
C473 C469 1.411 . S
C473 C471 1.420 . S
C473 C478 1.395 . S
C474 C470 1.423 . S
C474 C471 1.351 . S
C474 H486 0.930 . S
C475 C477 1.400 . S
C475 C478 1.386 . S
C475 H487 0.930 . S
N476 C469 1.377 . S
N476 C477 1.321 . S
N476 Eu479 2.609 . S
C477 C475 1.400 . S
C477 N476 1.321 . S
C477 H484 0.930 . S
C478 C473 1.395 . S
C478 C475 1.386 . S
C478 H497 0.930 . S
Eu479 N476 2.609 . S
Eu479 N480 2.657 . S
Eu479 O513 2.380 . S
Eu479 O514 2.432 . S
Eu479 O518 2.558 . S
Eu479 O519 2.612 . S
Eu479 O521 2.339 . S
Eu479 O522 2.563 . S
Eu479 O523 2.419 . S
Eu479 C543 2.848 . S
N480 C472 1.362 . S
N480 Eu479 2.657 . S
N480 C481 1.334 . S
C481 N480 1.334 . S
C481 C483 1.413 . S
C481 H488 0.929 . S
C482 C470 1.392 . S
C482 C483 1.367 . S
C482 H490 0.930 . S
C483 C481 1.413 . S
C483 C482 1.367 . S
C483 H485 0.930 . S
H484 C477 0.930 . S
H485 C483 0.930 . S
H486 C474 0.930 . S
H487 C475 0.930 . S
H488 C481 0.929 . S
H489 C503 0.930 . S
H490 C482 0.930 . S
H491 C509 0.930 . S
H492 C500 0.929 . S
H493 C507 0.930 . S
H494 C471 0.931 . S
H495 C501 0.930 . S
H496 C534 0.930 . S
H497 C478 0.930 . S
H498 C533 0.931 . S
N499 Eu468 2.657 . S
N499 C500 1.334 . S
N499 C504 1.362 . S
C500 H492 0.929 . S
C500 N499 1.334 . S
C500 C503 1.413 . S
C501 H495 0.930 . S
C501 C502 1.392 . S
C501 C503 1.367 . S
C502 C501 1.392 . S
C502 C504 1.420 . S
C502 C534 1.423 . S
C503 H489 0.930 . S
C503 C500 1.413 . S
C503 C501 1.367 . S
C504 N499 1.362 . S
C504 C502 1.420 . S
C504 C508 1.429 . S
H505 C510 0.930 . S
N506 Eu468 2.609 . S
N506 C508 1.377 . S
N506 C509 1.321 . S
C507 H493 0.930 . S
C507 C509 1.400 . S
C507 C510 1.386 . S
C508 C504 1.429 . S
C508 N506 1.377 . S
C508 C511 1.411 . S
C509 H491 0.930 . S
C509 N506 1.321 . S
C509 C507 1.400 . S
C510 H505 0.930 . S
C510 C507 1.386 . S
C510 C511 1.395 . S
C511 C508 1.411 . S
C511 C510 1.395 . S
C511 C533 1.420 . S
O512 Eu468 2.558 . S
O512 C532 1.257 . S
O513 Eu468 2.612 . S
O513 Eu479 2.380 . S
O513 C524 1.276 . S
O514 Eu479 2.432 . S
O514 C531 1.264 . S
O515 Eu468 2.339 . S
O515 C531 1.254 . S
O516 Eu468 2.563 . S
O516 C524 1.235 . S
O517 Eu468 2.419 . S
O517 C532 1.249 . S
O518 Eu479 2.558 . S
O518 C543 1.257 . S
O519 Eu468 2.380 . S
O519 Eu479 2.612 . S
O519 C535 1.276 . S
O520 Eu468 2.432 . S
O520 C542 1.264 . S
O521 Eu479 2.339 . S
O521 C542 1.254 . S
O522 Eu479 2.563 . S
O522 C535 1.235 . S
O523 Eu479 2.419 . S
O523 C543 1.249 . S
C524 O513 1.276 . S
C524 O516 1.235 . S
C525 C527 1.393 . S
C525 C529 1.395 . S
C525 C532 1.492 . S
C526 C527 1.392 . S
C526 C528 1.386 . S
C527 C525 1.393 . S
C527 C526 1.392 . S
C527 H544 0.930 . S
C528 C526 1.386 . S
C528 C530 1.395 . S
C528 H545 0.930 . S
C529 C525 1.395 . S
C529 C530 1.379 . S
C529 H546 0.930 . S
C530 C528 1.395 . S
C530 C529 1.379 . S
C530 H547 0.930 . S
C531 O514 1.264 . S
C531 O515 1.254 . S
C532 Eu468 2.848 . S
C532 O512 1.257 . S
C532 O517 1.249 . S
C532 C525 1.492 . S
C533 H498 0.931 . S
C533 C511 1.420 . S
C533 C534 1.351 . S
C534 H496 0.930 . S
C534 C502 1.423 . S
C534 C533 1.351 . S
C535 O519 1.276 . S
C535 O522 1.235 . S
C536 C537 1.393 . S
C536 C540 1.395 . S
C536 C543 1.492 . S
C537 C536 1.393 . S
C537 C538 1.392 . S
C537 H548 0.930 . S
C538 C537 1.392 . S
C538 C539 1.386 . S
C539 C538 1.386 . S
C539 C541 1.395 . S
C539 H549 0.930 . S
C540 C536 1.395 . S
C540 C541 1.379 . S
C540 H550 0.930 . S
C541 C539 1.395 . S
C541 C540 1.379 . S
C541 H551 0.930 . S
C542 O520 1.264 . S
C542 O521 1.254 . S
C543 Eu479 2.848 . S
C543 O518 1.257 . S
C543 O523 1.249 . S
C543 C536 1.492 . S
H544 C527 0.930 . S
H545 C528 0.930 . S
H546 C529 0.930 . S
H547 C530 0.930 . S
H548 C537 0.930 . S
H549 C539 0.930 . S
H550 C540 0.930 . S
H551 C541 0.930 . S
Eu552 N583 2.657 . S
Eu552 N590 2.609 . S
Eu552 O596 2.558 . S
Eu552 O597 2.612 . S
Eu552 O599 2.339 . S
Eu552 O600 2.563 . S
Eu552 O601 2.419 . S
Eu552 O603 2.380 . S
Eu552 O604 2.432 . S
Eu552 C616 2.848 . S
C553 C556 1.429 . S
C553 C557 1.411 . S
C553 N560 1.377 . S
C554 C556 1.420 . S
C554 C558 1.423 . S
C554 C566 1.392 . S
C555 C557 1.420 . S
C555 C558 1.351 . S
C555 H578 0.931 . S
C556 C553 1.429 . S
C556 C554 1.420 . S
C556 N564 1.362 . S
C557 C553 1.411 . S
C557 C555 1.420 . S
C557 C562 1.395 . S
C558 C554 1.423 . S
C558 C555 1.351 . S
C558 H570 0.930 . S
C559 C561 1.400 . S
C559 C562 1.386 . S
C559 H571 0.930 . S
N560 C553 1.377 . S
N560 C561 1.321 . S
N560 Eu563 2.609 . S
C561 C559 1.400 . S
C561 N560 1.321 . S
C561 H568 0.930 . S
C562 C557 1.395 . S
C562 C559 1.386 . S
C562 H581 0.930 . S
Eu563 N560 2.609 . S
Eu563 N564 2.657 . S
Eu563 O597 2.380 . S
Eu563 O598 2.432 . S
Eu563 O602 2.558 . S
Eu563 O603 2.612 . S
Eu563 O605 2.339 . S
Eu563 O606 2.563 . S
Eu563 O607 2.419 . S
Eu563 C627 2.848 . S
N564 C556 1.362 . S
N564 Eu563 2.657 . S
N564 C565 1.334 . S
C565 N564 1.334 . S
C565 C567 1.413 . S
C565 H572 0.929 . S
C566 C554 1.392 . S
C566 C567 1.367 . S
C566 H574 0.930 . S
C567 C565 1.413 . S
C567 C566 1.367 . S
C567 H569 0.930 . S
H568 C561 0.930 . S
H569 C567 0.930 . S
H570 C558 0.930 . S
H571 C559 0.930 . S
H572 C565 0.929 . S
H573 C587 0.930 . S
H574 C566 0.930 . S
H575 C593 0.930 . S
H576 C584 0.929 . S
H577 C591 0.930 . S
H578 C555 0.931 . S
H579 C585 0.930 . S
H580 C618 0.930 . S
H581 C562 0.930 . S
H582 C617 0.931 . S
N583 Eu552 2.657 . S
N583 C584 1.334 . S
N583 C588 1.362 . S
C584 H576 0.929 . S
C584 N583 1.334 . S
C584 C587 1.413 . S
C585 H579 0.930 . S
C585 C586 1.392 . S
C585 C587 1.367 . S
C586 C585 1.392 . S
C586 C588 1.420 . S
C586 C618 1.423 . S
C587 H573 0.930 . S
C587 C584 1.413 . S
C587 C585 1.367 . S
C588 N583 1.362 . S
C588 C586 1.420 . S
C588 C592 1.429 . S
H589 C594 0.930 . S
N590 Eu552 2.609 . S
N590 C592 1.377 . S
N590 C593 1.321 . S
C591 H577 0.930 . S
C591 C593 1.400 . S
C591 C594 1.386 . S
C592 C588 1.429 . S
C592 N590 1.377 . S
C592 C595 1.411 . S
C593 H575 0.930 . S
C593 N590 1.321 . S
C593 C591 1.400 . S
C594 H589 0.930 . S
C594 C591 1.386 . S
C594 C595 1.395 . S
C595 C592 1.411 . S
C595 C594 1.395 . S
C595 C617 1.420 . S
O596 Eu552 2.558 . S
O596 C616 1.257 . S
O597 Eu552 2.612 . S
O597 Eu563 2.380 . S
O597 C608 1.276 . S
O598 Eu563 2.432 . S
O598 C615 1.264 . S
O599 Eu552 2.339 . S
O599 C615 1.254 . S
O600 Eu552 2.563 . S
O600 C608 1.235 . S
O601 Eu552 2.419 . S
O601 C616 1.249 . S
O602 Eu563 2.558 . S
O602 C627 1.257 . S
O603 Eu552 2.380 . S
O603 Eu563 2.612 . S
O603 C619 1.276 . S
O604 Eu552 2.432 . S
O604 C626 1.264 . S
O605 Eu563 2.339 . S
O605 C626 1.254 . S
O606 Eu563 2.563 . S
O606 C619 1.235 . S
O607 Eu563 2.419 . S
O607 C627 1.249 . S
C608 O597 1.276 . S
C608 O600 1.235 . S
C609 C611 1.393 . S
C609 C613 1.395 . S
C609 C616 1.492 . S
C610 C611 1.392 . S
C610 C612 1.386 . S
C611 C609 1.393 . S
C611 C610 1.392 . S
C611 H628 0.930 . S
C612 C610 1.386 . S
C612 C614 1.395 . S
C612 H629 0.930 . S
C613 C609 1.395 . S
C613 C614 1.379 . S
C613 H630 0.930 . S
C614 C612 1.395 . S
C614 C613 1.379 . S
C614 H631 0.930 . S
C615 O598 1.264 . S
C615 O599 1.254 . S
C616 Eu552 2.848 . S
C616 O596 1.257 . S
C616 O601 1.249 . S
C616 C609 1.492 . S
C617 H582 0.931 . S
C617 C595 1.420 . S
C617 C618 1.351 . S
C618 H580 0.930 . S
C618 C586 1.423 . S
C618 C617 1.351 . S
C619 O603 1.276 . S
C619 O606 1.235 . S
C620 C621 1.393 . S
C620 C624 1.395 . S
C620 C627 1.492 . S
C621 C620 1.393 . S
C621 C622 1.392 . S
C621 H632 0.930 . S
C622 C621 1.392 . S
C622 C623 1.386 . S
C623 C622 1.386 . S
C623 C625 1.395 . S
C623 H633 0.930 . S
C624 C620 1.395 . S
C624 C625 1.379 . S
C624 H634 0.930 . S
C625 C623 1.395 . S
C625 C624 1.379 . S
C625 H635 0.930 . S
C626 O604 1.264 . S
C626 O605 1.254 . S
C627 Eu563 2.848 . S
C627 O602 1.257 . S
C627 O607 1.249 . S
C627 C620 1.492 . S
H628 C611 0.930 . S
H629 C612 0.930 . S
H630 C613 0.930 . S
H631 C614 0.930 . S
H632 C621 0.930 . S
H633 C623 0.930 . S
H634 C624 0.930 . S
H635 C625 0.930 . S
Eu636 N667 2.657 . S
Eu636 N674 2.609 . S
Eu636 O680 2.558 . S
Eu636 O681 2.612 . S
Eu636 O683 2.339 . S
Eu636 O684 2.563 . S
Eu636 O685 2.419 . S
Eu636 O687 2.380 . S
Eu636 O688 2.432 . S
Eu636 C700 2.848 . S
C637 C640 1.429 . S
C637 C641 1.411 . S
C637 N644 1.377 . S
C638 C640 1.420 . S
C638 C642 1.423 . S
C638 C650 1.392 . S
C639 C641 1.420 . S
C639 C642 1.351 . S
C639 H662 0.931 . S
C640 C637 1.429 . S
C640 C638 1.420 . S
C640 N648 1.362 . S
C641 C637 1.411 . S
C641 C639 1.420 . S
C641 C646 1.395 . S
C642 C638 1.423 . S
C642 C639 1.351 . S
C642 H654 0.930 . S
C643 C645 1.400 . S
C643 C646 1.386 . S
C643 H655 0.930 . S
N644 C637 1.377 . S
N644 C645 1.321 . S
N644 Eu647 2.609 . S
C645 C643 1.400 . S
C645 N644 1.321 . S
C645 H652 0.930 . S
C646 C641 1.395 . S
C646 C643 1.386 . S
C646 H665 0.930 . S
Eu647 N644 2.609 . S
Eu647 N648 2.657 . S
Eu647 O681 2.380 . S
Eu647 O682 2.432 . S
Eu647 O686 2.558 . S
Eu647 O687 2.612 . S
Eu647 O689 2.339 . S
Eu647 O690 2.563 . S
Eu647 O691 2.419 . S
Eu647 C711 2.848 . S
N648 C640 1.362 . S
N648 Eu647 2.657 . S
N648 C649 1.334 . S
C649 N648 1.334 . S
C649 C651 1.413 . S
C649 H656 0.929 . S
C650 C638 1.392 . S
C650 C651 1.367 . S
C650 H658 0.930 . S
C651 C649 1.413 . S
C651 C650 1.367 . S
C651 H653 0.930 . S
H652 C645 0.930 . S
H653 C651 0.930 . S
H654 C642 0.930 . S
H655 C643 0.930 . S
H656 C649 0.929 . S
H657 C671 0.930 . S
H658 C650 0.930 . S
H659 C677 0.930 . S
H660 C668 0.929 . S
H661 C675 0.930 . S
H662 C639 0.931 . S
H663 C669 0.930 . S
H664 C702 0.930 . S
H665 C646 0.930 . S
H666 C701 0.931 . S
N667 Eu636 2.657 . S
N667 C668 1.334 . S
N667 C672 1.362 . S
C668 H660 0.929 . S
C668 N667 1.334 . S
C668 C671 1.413 . S
C669 H663 0.930 . S
C669 C670 1.392 . S
C669 C671 1.367 . S
C670 C669 1.392 . S
C670 C672 1.420 . S
C670 C702 1.423 . S
C671 H657 0.930 . S
C671 C668 1.413 . S
C671 C669 1.367 . S
C672 N667 1.362 . S
C672 C670 1.420 . S
C672 C676 1.429 . S
H673 C678 0.930 . S
N674 Eu636 2.609 . S
N674 C676 1.377 . S
N674 C677 1.321 . S
C675 H661 0.930 . S
C675 C677 1.400 . S
C675 C678 1.386 . S
C676 C672 1.429 . S
C676 N674 1.377 . S
C676 C679 1.411 . S
C677 H659 0.930 . S
C677 N674 1.321 . S
C677 C675 1.400 . S
C678 H673 0.930 . S
C678 C675 1.386 . S
C678 C679 1.395 . S
C679 C676 1.411 . S
C679 C678 1.395 . S
C679 C701 1.420 . S
O680 Eu636 2.558 . S
O680 C700 1.257 . S
O681 Eu636 2.612 . S
O681 Eu647 2.380 . S
O681 C692 1.276 . S
O682 Eu647 2.432 . S
O682 C699 1.264 . S
O683 Eu636 2.339 . S
O683 C699 1.254 . S
O684 Eu636 2.563 . S
O684 C692 1.235 . S
O685 Eu636 2.419 . S
O685 C700 1.249 . S
O686 Eu647 2.558 . S
O686 C711 1.257 . S
O687 Eu636 2.380 . S
O687 Eu647 2.612 . S
O687 C703 1.276 . S
O688 Eu636 2.432 . S
O688 C710 1.264 . S
O689 Eu647 2.339 . S
O689 C710 1.254 . S
O690 Eu647 2.563 . S
O690 C703 1.235 . S
O691 Eu647 2.419 . S
O691 C711 1.249 . S
C692 O681 1.276 . S
C692 O684 1.235 . S
C693 C695 1.393 . S
C693 C697 1.395 . S
C693 C700 1.492 . S
C694 C695 1.392 . S
C694 C696 1.386 . S
C695 C693 1.393 . S
C695 C694 1.392 . S
C695 H712 0.930 . S
C696 C694 1.386 . S
C696 C698 1.395 . S
C696 H713 0.930 . S
C697 C693 1.395 . S
C697 C698 1.379 . S
C697 H714 0.930 . S
C698 C696 1.395 . S
C698 C697 1.379 . S
C698 H715 0.930 . S
C699 O682 1.264 . S
C699 O683 1.254 . S
C700 Eu636 2.848 . S
C700 O680 1.257 . S
C700 O685 1.249 . S
C700 C693 1.492 . S
C701 H666 0.931 . S
C701 C679 1.420 . S
C701 C702 1.351 . S
C702 H664 0.930 . S
C702 C670 1.423 . S
C702 C701 1.351 . S
C703 O687 1.276 . S
C703 O690 1.235 . S
C704 C705 1.393 . S
C704 C708 1.395 . S
C704 C711 1.492 . S
C705 C704 1.393 . S
C705 C706 1.392 . S
C705 H716 0.930 . S
C706 C705 1.392 . S
C706 C707 1.386 . S
C707 C706 1.386 . S
C707 C709 1.395 . S
C707 H717 0.930 . S
C708 C704 1.395 . S
C708 C709 1.379 . S
C708 H718 0.930 . S
C709 C707 1.395 . S
C709 C708 1.379 . S
C709 H719 0.930 . S
C710 O688 1.264 . S
C710 O689 1.254 . S
C711 Eu647 2.848 . S
C711 O686 1.257 . S
C711 O691 1.249 . S
C711 C704 1.492 . S
H712 C695 0.930 . S
H713 C696 0.930 . S
H714 C697 0.930 . S
H715 C698 0.930 . S
H716 C705 0.930 . S
H717 C707 0.930 . S
H718 C708 0.930 . S
H719 C709 0.930 . S
Eu720 N751 2.657 . S
Eu720 N758 2.609 . S
Eu720 O764 2.558 . S
Eu720 O765 2.612 . S
Eu720 O767 2.339 . S
Eu720 O768 2.563 . S
Eu720 O769 2.419 . S
Eu720 O771 2.380 . S
Eu720 O772 2.432 . S
Eu720 C784 2.848 . S
C721 C724 1.429 . S
C721 C725 1.411 . S
C721 N728 1.377 . S
C722 C724 1.420 . S
C722 C726 1.423 . S
C722 C734 1.392 . S
C723 C725 1.420 . S
C723 C726 1.351 . S
C723 H746 0.931 . S
C724 C721 1.429 . S
C724 C722 1.420 . S
C724 N732 1.362 . S
C725 C721 1.411 . S
C725 C723 1.420 . S
C725 C730 1.395 . S
C726 C722 1.423 . S
C726 C723 1.351 . S
C726 H738 0.930 . S
C727 C729 1.400 . S
C727 C730 1.386 . S
C727 H739 0.930 . S
N728 C721 1.377 . S
N728 C729 1.321 . S
N728 Eu731 2.609 . S
C729 C727 1.400 . S
C729 N728 1.321 . S
C729 H736 0.930 . S
C730 C725 1.395 . S
C730 C727 1.386 . S
C730 H749 0.930 . S
Eu731 N728 2.609 . S
Eu731 N732 2.657 . S
Eu731 O765 2.380 . S
Eu731 O766 2.432 . S
Eu731 O770 2.558 . S
Eu731 O771 2.612 . S
Eu731 O773 2.339 . S
Eu731 O774 2.563 . S
Eu731 O775 2.419 . S
Eu731 C795 2.848 . S
N732 C724 1.362 . S
N732 Eu731 2.657 . S
N732 C733 1.334 . S
C733 N732 1.334 . S
C733 C735 1.413 . S
C733 H740 0.929 . S
C734 C722 1.392 . S
C734 C735 1.367 . S
C734 H742 0.930 . S
C735 C733 1.413 . S
C735 C734 1.367 . S
C735 H737 0.930 . S
H736 C729 0.930 . S
H737 C735 0.930 . S
H738 C726 0.930 . S
H739 C727 0.930 . S
H740 C733 0.929 . S
H741 C755 0.930 . S
H742 C734 0.930 . S
H743 C761 0.930 . S
H744 C752 0.929 . S
H745 C759 0.930 . S
H746 C723 0.931 . S
H747 C753 0.930 . S
H748 C786 0.930 . S
H749 C730 0.930 . S
H750 C785 0.931 . S
N751 Eu720 2.657 . S
N751 C752 1.334 . S
N751 C756 1.362 . S
C752 H744 0.929 . S
C752 N751 1.334 . S
C752 C755 1.413 . S
C753 H747 0.930 . S
C753 C754 1.392 . S
C753 C755 1.367 . S
C754 C753 1.392 . S
C754 C756 1.420 . S
C754 C786 1.423 . S
C755 H741 0.930 . S
C755 C752 1.413 . S
C755 C753 1.367 . S
C756 N751 1.362 . S
C756 C754 1.420 . S
C756 C760 1.429 . S
H757 C762 0.930 . S
N758 Eu720 2.609 . S
N758 C760 1.377 . S
N758 C761 1.321 . S
C759 H745 0.930 . S
C759 C761 1.400 . S
C759 C762 1.386 . S
C760 C756 1.429 . S
C760 N758 1.377 . S
C760 C763 1.411 . S
C761 H743 0.930 . S
C761 N758 1.321 . S
C761 C759 1.400 . S
C762 H757 0.930 . S
C762 C759 1.386 . S
C762 C763 1.395 . S
C763 C760 1.411 . S
C763 C762 1.395 . S
C763 C785 1.420 . S
O764 Eu720 2.558 . S
O764 C784 1.257 . S
O765 Eu720 2.612 . S
O765 Eu731 2.380 . S
O765 C776 1.276 . S
O766 Eu731 2.432 . S
O766 C783 1.264 . S
O767 Eu720 2.339 . S
O767 C783 1.254 . S
O768 Eu720 2.563 . S
O768 C776 1.235 . S
O769 Eu720 2.419 . S
O769 C784 1.249 . S
O770 Eu731 2.558 . S
O770 C795 1.257 . S
O771 Eu720 2.380 . S
O771 Eu731 2.612 . S
O771 C787 1.276 . S
O772 Eu720 2.432 . S
O772 C794 1.264 . S
O773 Eu731 2.339 . S
O773 C794 1.254 . S
O774 Eu731 2.563 . S
O774 C787 1.235 . S
O775 Eu731 2.419 . S
O775 C795 1.249 . S
C776 O765 1.276 . S
C776 O768 1.235 . S
C777 C779 1.393 . S
C777 C781 1.395 . S
C777 C784 1.492 . S
C778 C779 1.392 . S
C778 C780 1.386 . S
C779 C777 1.393 . S
C779 C778 1.392 . S
C779 H796 0.930 . S
C780 C778 1.386 . S
C780 C782 1.395 . S
C780 H797 0.930 . S
C781 C777 1.395 . S
C781 C782 1.379 . S
C781 H798 0.930 . S
C782 C780 1.395 . S
C782 C781 1.379 . S
C782 H799 0.930 . S
C783 O766 1.264 . S
C783 O767 1.254 . S
C784 Eu720 2.848 . S
C784 O764 1.257 . S
C784 O769 1.249 . S
C784 C777 1.492 . S
C785 H750 0.931 . S
C785 C763 1.420 . S
C785 C786 1.351 . S
C786 H748 0.930 . S
C786 C754 1.423 . S
C786 C785 1.351 . S
C787 O771 1.276 . S
C787 O774 1.235 . S
C788 C789 1.393 . S
C788 C792 1.395 . S
C788 C795 1.492 . S
C789 C788 1.393 . S
C789 C790 1.392 . S
C789 H800 0.930 . S
C790 C789 1.392 . S
C790 C791 1.386 . S
C791 C790 1.386 . S
C791 C793 1.395 . S
C791 H801 0.930 . S
C792 C788 1.395 . S
C792 C793 1.379 . S
C792 H802 0.930 . S
C793 C791 1.395 . S
C793 C792 1.379 . S
C793 H803 0.930 . S
C794 O772 1.264 . S
C794 O773 1.254 . S
C795 Eu731 2.848 . S
C795 O770 1.257 . S
C795 O775 1.249 . S
C795 C788 1.492 . S
H796 C779 0.930 . S
H797 C780 0.930 . S
H798 C781 0.930 . S
H799 C782 0.930 . S
H800 C789 0.930 . S
H801 C791 0.930 . S
H802 C792 0.930 . S
H803 C793 0.930 . S
Eu804 N835 2.657 . S
Eu804 N842 2.609 . S
Eu804 O848 2.558 . S
Eu804 O849 2.612 . S
Eu804 O851 2.339 . S
Eu804 O852 2.563 . S
Eu804 O853 2.419 . S
Eu804 O855 2.380 . S
Eu804 O856 2.432 . S
Eu804 C868 2.848 . S
C805 C808 1.429 . S
C805 C809 1.411 . S
C805 N812 1.377 . S
C806 C808 1.420 . S
C806 C810 1.423 . S
C806 C818 1.392 . S
C807 C809 1.420 . S
C807 C810 1.351 . S
C807 H830 0.931 . S
C808 C805 1.429 . S
C808 C806 1.420 . S
C808 N816 1.362 . S
C809 C805 1.411 . S
C809 C807 1.420 . S
C809 C814 1.395 . S
C810 C806 1.423 . S
C810 C807 1.351 . S
C810 H822 0.930 . S
C811 C813 1.400 . S
C811 C814 1.386 . S
C811 H823 0.930 . S
N812 C805 1.377 . S
N812 C813 1.321 . S
N812 Eu815 2.609 . S
C813 C811 1.400 . S
C813 N812 1.321 . S
C813 H820 0.930 . S
C814 C809 1.395 . S
C814 C811 1.386 . S
C814 H833 0.930 . S
Eu815 N812 2.609 . S
Eu815 N816 2.657 . S
Eu815 O849 2.380 . S
Eu815 O850 2.432 . S
Eu815 O854 2.558 . S
Eu815 O855 2.612 . S
Eu815 O857 2.339 . S
Eu815 O858 2.563 . S
Eu815 O859 2.419 . S
Eu815 C879 2.848 . S
N816 C808 1.362 . S
N816 Eu815 2.657 . S
N816 C817 1.334 . S
C817 N816 1.334 . S
C817 C819 1.413 . S
C817 H824 0.929 . S
C818 C806 1.392 . S
C818 C819 1.367 . S
C818 H826 0.930 . S
C819 C817 1.413 . S
C819 C818 1.367 . S
C819 H821 0.930 . S
H820 C813 0.930 . S
H821 C819 0.930 . S
H822 C810 0.930 . S
H823 C811 0.930 . S
H824 C817 0.929 . S
H825 C839 0.930 . S
H826 C818 0.930 . S
H827 C845 0.930 . S
H828 C836 0.929 . S
H829 C843 0.930 . S
H830 C807 0.931 . S
H831 C837 0.930 . S
H832 C870 0.930 . S
H833 C814 0.930 . S
H834 C869 0.931 . S
N835 Eu804 2.657 . S
N835 C836 1.334 . S
N835 C840 1.362 . S
C836 H828 0.929 . S
C836 N835 1.334 . S
C836 C839 1.413 . S
C837 H831 0.930 . S
C837 C838 1.392 . S
C837 C839 1.367 . S
C838 C837 1.392 . S
C838 C840 1.420 . S
C838 C870 1.423 . S
C839 H825 0.930 . S
C839 C836 1.413 . S
C839 C837 1.367 . S
C840 N835 1.362 . S
C840 C838 1.420 . S
C840 C844 1.429 . S
H841 C846 0.930 . S
N842 Eu804 2.609 . S
N842 C844 1.377 . S
N842 C845 1.321 . S
C843 H829 0.930 . S
C843 C845 1.400 . S
C843 C846 1.386 . S
C844 C840 1.429 . S
C844 N842 1.377 . S
C844 C847 1.411 . S
C845 H827 0.930 . S
C845 N842 1.321 . S
C845 C843 1.400 . S
C846 H841 0.930 . S
C846 C843 1.386 . S
C846 C847 1.395 . S
C847 C844 1.411 . S
C847 C846 1.395 . S
C847 C869 1.420 . S
O848 Eu804 2.558 . S
O848 C868 1.257 . S
O849 Eu804 2.612 . S
O849 Eu815 2.380 . S
O849 C860 1.276 . S
O850 Eu815 2.432 . S
O850 C867 1.264 . S
O851 Eu804 2.339 . S
O851 C867 1.254 . S
O852 Eu804 2.563 . S
O852 C860 1.235 . S
O853 Eu804 2.419 . S
O853 C868 1.249 . S
O854 Eu815 2.558 . S
O854 C879 1.257 . S
O855 Eu804 2.380 . S
O855 Eu815 2.612 . S
O855 C871 1.276 . S
O856 Eu804 2.432 . S
O856 C878 1.264 . S
O857 Eu815 2.339 . S
O857 C878 1.254 . S
O858 Eu815 2.563 . S
O858 C871 1.235 . S
O859 Eu815 2.419 . S
O859 C879 1.249 . S
C860 O849 1.276 . S
C860 O852 1.235 . S
C861 C863 1.393 . S
C861 C865 1.395 . S
C861 C868 1.492 . S
C862 C863 1.392 . S
C862 C864 1.386 . S
C863 C861 1.393 . S
C863 C862 1.392 . S
C863 H880 0.930 . S
C864 C862 1.386 . S
C864 C866 1.395 . S
C864 H881 0.930 . S
C865 C861 1.395 . S
C865 C866 1.379 . S
C865 H882 0.930 . S
C866 C864 1.395 . S
C866 C865 1.379 . S
C866 H883 0.930 . S
C867 O850 1.264 . S
C867 O851 1.254 . S
C868 Eu804 2.848 . S
C868 O848 1.257 . S
C868 O853 1.249 . S
C868 C861 1.492 . S
C869 H834 0.931 . S
C869 C847 1.420 . S
C869 C870 1.351 . S
C870 H832 0.930 . S
C870 C838 1.423 . S
C870 C869 1.351 . S
C871 O855 1.276 . S
C871 O858 1.235 . S
C872 C873 1.393 . S
C872 C876 1.395 . S
C872 C879 1.492 . S
C873 C872 1.393 . S
C873 C874 1.392 . S
C873 H884 0.930 . S
C874 C873 1.392 . S
C874 C875 1.386 . S
C875 C874 1.386 . S
C875 C877 1.395 . S
C875 H885 0.930 . S
C876 C872 1.395 . S
C876 C877 1.379 . S
C876 H886 0.930 . S
C877 C875 1.395 . S
C877 C876 1.379 . S
C877 H887 0.930 . S
C878 O856 1.264 . S
C878 O857 1.254 . S
C879 Eu815 2.848 . S
C879 O854 1.257 . S
C879 O859 1.249 . S
C879 C872 1.492 . S
H880 C863 0.930 . S
H881 C864 0.930 . S
H882 C865 0.930 . S
H883 C866 0.930 . S
H884 C873 0.930 . S
H885 C875 0.930 . S
H886 C876 0.930 . S
H887 C877 0.930 . S
Eu888 N919 2.657 . S
Eu888 N926 2.609 . S
Eu888 O932 2.558 . S
Eu888 O933 2.612 . S
Eu888 O935 2.339 . S
Eu888 O936 2.563 . S
Eu888 O937 2.419 . S
Eu888 O939 2.380 . S
Eu888 O940 2.432 . S
Eu888 C952 2.848 . S
C889 C892 1.429 . S
C889 C893 1.411 . S
C889 N896 1.377 . S
C890 C892 1.420 . S
C890 C894 1.423 . S
C890 C902 1.392 . S
C891 C893 1.420 . S
C891 C894 1.351 . S
C891 H914 0.931 . S
C892 C889 1.429 . S
C892 C890 1.420 . S
C892 N900 1.362 . S
C893 C889 1.411 . S
C893 C891 1.420 . S
C893 C898 1.395 . S
C894 C890 1.423 . S
C894 C891 1.351 . S
C894 H906 0.930 . S
C895 C897 1.400 . S
C895 C898 1.386 . S
C895 H907 0.930 . S
N896 C889 1.377 . S
N896 C897 1.321 . S
N896 Eu899 2.609 . S
C897 C895 1.400 . S
C897 N896 1.321 . S
C897 H904 0.930 . S
C898 C893 1.395 . S
C898 C895 1.386 . S
C898 H917 0.930 . S
Eu899 N896 2.609 . S
Eu899 N900 2.657 . S
Eu899 O933 2.380 . S
Eu899 O934 2.432 . S
Eu899 O938 2.558 . S
Eu899 O939 2.612 . S
Eu899 O941 2.339 . S
Eu899 O942 2.563 . S
Eu899 O943 2.419 . S
Eu899 C963 2.848 . S
N900 C892 1.362 . S
N900 Eu899 2.657 . S
N900 C901 1.334 . S
C901 N900 1.334 . S
C901 C903 1.413 . S
C901 H908 0.929 . S
C902 C890 1.392 . S
C902 C903 1.367 . S
C902 H910 0.930 . S
C903 C901 1.413 . S
C903 C902 1.367 . S
C903 H905 0.930 . S
H904 C897 0.930 . S
H905 C903 0.930 . S
H906 C894 0.930 . S
H907 C895 0.930 . S
H908 C901 0.929 . S
H909 C923 0.930 . S
H910 C902 0.930 . S
H911 C929 0.930 . S
H912 C920 0.929 . S
H913 C927 0.930 . S
H914 C891 0.931 . S
H915 C921 0.930 . S
H916 C954 0.930 . S
H917 C898 0.930 . S
H918 C953 0.931 . S
N919 Eu888 2.657 . S
N919 C920 1.334 . S
N919 C924 1.362 . S
C920 H912 0.929 . S
C920 N919 1.334 . S
C920 C923 1.413 . S
C921 H915 0.930 . S
C921 C922 1.392 . S
C921 C923 1.367 . S
C922 C921 1.392 . S
C922 C924 1.420 . S
C922 C954 1.423 . S
C923 H909 0.930 . S
C923 C920 1.413 . S
C923 C921 1.367 . S
C924 N919 1.362 . S
C924 C922 1.420 . S
C924 C928 1.429 . S
H925 C930 0.930 . S
N926 Eu888 2.609 . S
N926 C928 1.377 . S
N926 C929 1.321 . S
C927 H913 0.930 . S
C927 C929 1.400 . S
C927 C930 1.386 . S
C928 C924 1.429 . S
C928 N926 1.377 . S
C928 C931 1.411 . S
C929 H911 0.930 . S
C929 N926 1.321 . S
C929 C927 1.400 . S
C930 H925 0.930 . S
C930 C927 1.386 . S
C930 C931 1.395 . S
C931 C928 1.411 . S
C931 C930 1.395 . S
C931 C953 1.420 . S
O932 Eu888 2.558 . S
O932 C952 1.257 . S
O933 Eu888 2.612 . S
O933 Eu899 2.380 . S
O933 C944 1.276 . S
O934 Eu899 2.432 . S
O934 C951 1.264 . S
O935 Eu888 2.339 . S
O935 C951 1.254 . S
O936 Eu888 2.563 . S
O936 C944 1.235 . S
O937 Eu888 2.419 . S
O937 C952 1.249 . S
O938 Eu899 2.558 . S
O938 C963 1.257 . S
O939 Eu888 2.380 . S
O939 Eu899 2.612 . S
O939 C955 1.276 . S
O940 Eu888 2.432 . S
O940 C962 1.264 . S
O941 Eu899 2.339 . S
O941 C962 1.254 . S
O942 Eu899 2.563 . S
O942 C955 1.235 . S
O943 Eu899 2.419 . S
O943 C963 1.249 . S
C944 O933 1.276 . S
C944 O936 1.235 . S
C945 C947 1.393 . S
C945 C949 1.395 . S
C945 C952 1.492 . S
C946 C947 1.392 . S
C946 C948 1.386 . S
C947 C945 1.393 . S
C947 C946 1.392 . S
C947 H964 0.930 . S
C948 C946 1.386 . S
C948 C950 1.395 . S
C948 H965 0.930 . S
C949 C945 1.395 . S
C949 C950 1.379 . S
C949 H966 0.930 . S
C950 C948 1.395 . S
C950 C949 1.379 . S
C950 H967 0.930 . S
C951 O934 1.264 . S
C951 O935 1.254 . S
C952 Eu888 2.848 . S
C952 O932 1.257 . S
C952 O937 1.249 . S
C952 C945 1.492 . S
C953 H918 0.931 . S
C953 C931 1.420 . S
C953 C954 1.351 . S
C954 H916 0.930 . S
C954 C922 1.423 . S
C954 C953 1.351 . S
C955 O939 1.276 . S
C955 O942 1.235 . S
C956 C957 1.393 . S
C956 C960 1.395 . S
C956 C963 1.492 . S
C957 C956 1.393 . S
C957 C958 1.392 . S
C957 H968 0.930 . S
C958 C957 1.392 . S
C958 C959 1.386 . S
C959 C958 1.386 . S
C959 C961 1.395 . S
C959 H969 0.930 . S
C960 C956 1.395 . S
C960 C961 1.379 . S
C960 H970 0.930 . S
C961 C959 1.395 . S
C961 C960 1.379 . S
C961 H971 0.930 . S
C962 O940 1.264 . S
C962 O941 1.254 . S
C963 Eu899 2.848 . S
C963 O938 1.257 . S
C963 O943 1.249 . S
C963 C956 1.492 . S
H964 C947 0.930 . S
H965 C948 0.930 . S
H966 C949 0.930 . S
H967 C950 0.930 . S
H968 C957 0.930 . S
H969 C959 0.930 . S
H970 C960 0.930 . S
H971 C961 0.930 . S
H972 C990 0.951 . S
H973 C992 0.951 . S
H974 C994 0.950 . S
H975 C995 0.950 . S
H976 C997 0.950 . S
H977 C1000 0.950 . S
H978 C1001 0.950 . S
H979 C1003 0.969 . S
H980 C1004 0.950 . S
H981 C1005 0.951 . S
H982 C1007 0.951 . S
H983 C1009 0.950 . S
H984 C1010 0.950 . S
H985 C1012 0.950 . S
H986 C1015 0.950 . S
H987 C1016 0.950 . S
H988 C1018 0.950 . S
H989 C1019 0.950 . S
C990 H972 0.951 . S
C990 C991 1.366 . S
C990 C992 1.388 . S
C991 C990 1.366 . S
C991 C995 1.385 . S
C992 H973 0.951 . S
C992 C990 1.388 . S
C992 C993 1.366 . S
C993 C992 1.366 . S
C993 C994 1.414 . S
C993 C996 1.499 . S
C994 H974 0.950 . S
C994 C993 1.414 . S
C994 C995 1.374 . S
C995 H975 0.950 . S
C995 C991 1.385 . S
C995 C994 1.374 . S
C996 C993 1.499 . S
C996 C997 1.373 . S
C996 C998 1.389 . S
C997 H976 0.950 . S
C997 C996 1.373 . S
C997 C1013 1.377 . S
C998 C996 1.389 . S
C998 C999 1.524 . S
C998 C1012 1.377 . S
C999 C998 1.524 . S
C999 C1000 1.397 . S
C999 C1004 1.363 . S
C1000 H977 0.950 . S
C1000 C999 1.397 . S
C1000 C1001 1.334 . S
C1001 H978 0.950 . S
C1001 C1000 1.334 . S
C1001 C1002 1.275 1_554 S
C1002 C1001 1.275 1_556 S
C1002 C1003 1.515 1_556 S
C1002 H1021 0.935 . S
C1003 H979 0.969 . S
C1003 C1002 1.515 1_554 S
C1003 C1004 1.415 . S
C1004 H980 0.950 . S
C1004 C999 1.363 . S
C1004 C1003 1.415 . S
C1005 H981 0.951 . S
C1005 C1006 1.366 . S
C1005 C1007 1.388 . S
C1006 C1005 1.366 . S
C1006 C1010 1.385 . S
C1007 H982 0.951 . S
C1007 C1005 1.388 . S
C1007 C1008 1.366 . S
C1008 C1007 1.366 . S
C1008 C1009 1.414 . S
C1008 C1011 1.499 . S
C1009 H983 0.950 . S
C1009 C1008 1.414 . S
C1009 C1010 1.374 . S
C1010 H984 0.950 . S
C1010 C1006 1.385 . S
C1010 C1009 1.374 . S
C1011 C1008 1.499 . S
C1011 C1012 1.373 . S
C1011 C1013 1.389 . S
C1012 H985 0.950 . S
C1012 C998 1.377 . S
C1012 C1011 1.373 . S
C1013 C997 1.377 . S
C1013 C1011 1.389 . S
C1013 C1014 1.524 . S
C1014 C1013 1.524 . S
C1014 C1015 1.397 . S
C1014 C1019 1.363 . S
C1015 H986 0.950 . S
C1015 C1014 1.397 . S
C1015 C1016 1.334 . S
C1016 H987 0.950 . S
C1016 C1015 1.334 . S
C1016 C1017 1.287 . S
C1017 C1016 1.287 . S
C1017 C1018 1.524 . S
C1017 H1020 0.999 . S
C1018 H988 0.950 . S
C1018 C1017 1.524 . S
C1018 C1019 1.415 . S
C1019 H989 0.950 . S
C1019 C1014 1.363 . S
C1019 C1018 1.415 . S
H1020 C1017 0.999 . S
H1021 C1002 0.935 . S
H1022 C1040 0.951 . S
H1023 C1042 0.951 . S
H1024 C1044 0.950 . S
H1025 C1045 0.950 . S
H1026 C1047 0.950 . S
H1027 C1050 0.950 . S
H1028 C1051 0.950 . S
H1029 C1053 0.950 . S
H1030 C1054 0.950 . S
H1031 C1055 0.951 . S
H1032 C1057 0.951 . S
H1033 C1059 0.950 . S
H1034 C1060 0.950 . S
H1035 C1062 0.950 . S
H1036 C1065 0.950 . S
H1037 C1066 0.950 . S
H1038 C1068 0.950 1_556 S
H1039 C1069 0.950 . S
C1040 H1022 0.951 . S
C1040 C1041 1.366 . S
C1040 C1042 1.388 . S
C1041 C1040 1.366 . S
C1041 C1045 1.385 . S
C1042 H1023 0.951 . S
C1042 C1040 1.388 . S
C1042 C1043 1.366 . S
C1043 C1042 1.366 . S
C1043 C1044 1.414 . S
C1043 C1046 1.499 . S
C1044 H1024 0.950 . S
C1044 C1043 1.414 . S
C1044 C1045 1.374 . S
C1045 H1025 0.950 . S
C1045 C1041 1.385 . S
C1045 C1044 1.374 . S
C1046 C1043 1.499 . S
C1046 C1047 1.373 . S
C1046 C1048 1.389 . S
C1047 H1026 0.950 . S
C1047 C1046 1.373 . S
C1047 C1063 1.377 . S
C1048 C1046 1.389 . S
C1048 C1049 1.524 . S
C1048 C1062 1.377 . S
C1049 C1048 1.524 . S
C1049 C1050 1.397 . S
C1049 C1054 1.363 . S
C1050 H1027 0.950 . S
C1050 C1049 1.397 . S
C1050 C1051 1.334 . S
C1051 H1028 0.950 . S
C1051 C1050 1.334 . S
C1051 C1052 1.287 . S
C1052 C1051 1.287 . S
C1052 C1053 1.524 . S
C1052 H1071 0.913 . S
C1053 H1029 0.950 . S
C1053 C1052 1.524 . S
C1053 C1054 1.415 . S
C1054 H1030 0.950 . S
C1054 C1049 1.363 . S
C1054 C1053 1.415 . S
C1055 H1031 0.951 . S
C1055 C1056 1.366 . S
C1055 C1057 1.388 . S
C1056 C1055 1.366 . S
C1056 C1060 1.385 . S
C1057 H1032 0.951 . S
C1057 C1055 1.388 . S
C1057 C1058 1.366 . S
C1058 C1057 1.366 . S
C1058 C1059 1.414 . S
C1058 C1061 1.499 . S
C1059 H1033 0.950 . S
C1059 C1058 1.414 . S
C1059 C1060 1.374 . S
C1060 H1034 0.950 . S
C1060 C1056 1.385 . S
C1060 C1059 1.374 . S
C1061 C1058 1.499 . S
C1061 C1062 1.373 . S
C1061 C1063 1.389 . S
C1062 H1035 0.950 . S
C1062 C1048 1.377 . S
C1062 C1061 1.373 . S
C1063 C1047 1.377 . S
C1063 C1061 1.389 . S
C1063 C1064 1.524 . S
C1064 C1063 1.524 . S
C1064 C1065 1.397 . S
C1064 C1069 1.363 . S
C1065 H1036 0.950 . S
C1065 C1064 1.397 . S
C1065 C1066 1.334 . S
C1066 H1037 0.950 . S
C1066 C1065 1.334 . S
C1066 C1067 1.287 . S
C1067 C1066 1.287 . S
C1067 C1068 1.524 . S
C1067 H1070 0.999 . S
C1068 H1038 0.950 1_554 S
C1068 C1067 1.524 . S
C1068 C1069 1.415 . S
C1069 H1039 0.950 . S
C1069 C1064 1.363 . S
C1069 C1068 1.415 . S
H1070 C1067 0.999 . S
H1071 C1052 0.913 . S
H1072 C1090 0.951 . S
H1073 C1092 0.951 . S
H1074 C1094 0.950 . S
H1075 C1095 0.950 . S
H1076 C1097 0.950 . S
H1077 C1100 0.950 . S
H1078 C1101 0.950 . S
H1079 C1103 0.950 . S
H1080 C1104 0.950 . S
H1081 C1105 0.951 . S
H1082 C1107 0.951 . S
H1083 C1109 0.950 . S
H1084 C1110 0.950 . S
H1085 C1112 0.950 . S
H1086 C1115 0.950 . S
H1087 C1116 0.950 . S
H1088 C1118 0.950 . S
H1089 C1119 0.950 . S
C1090 H1072 0.951 . S
C1090 C1091 1.366 . S
C1090 C1092 1.388 . S
C1091 C1090 1.366 . S
C1091 C1095 1.385 . S
C1092 H1073 0.951 . S
C1092 C1090 1.388 . S
C1092 C1093 1.366 . S
C1093 C1092 1.366 . S
C1093 C1094 1.414 . S
C1093 C1096 1.499 . S
C1094 H1074 0.950 . S
C1094 C1093 1.414 . S
C1094 C1095 1.374 . S
C1095 H1075 0.950 . S
C1095 C1091 1.385 . S
C1095 C1094 1.374 . S
C1096 C1093 1.499 . S
C1096 C1097 1.373 . S
C1096 C1098 1.389 . S
C1097 H1076 0.950 . S
C1097 C1096 1.373 . S
C1097 C1113 1.377 . S
C1098 C1096 1.389 . S
C1098 C1099 1.524 . S
C1098 C1112 1.377 . S
C1099 C1098 1.524 . S
C1099 C1100 1.397 . S
C1099 C1104 1.363 . S
C1100 H1077 0.950 . S
C1100 C1099 1.397 . S
C1100 C1101 1.334 . S
C1101 H1078 0.950 . S
C1101 C1100 1.334 . S
C1101 C1102 1.287 . S
C1102 C1101 1.287 . S
C1102 C1103 1.524 . S
C1102 H1121 0.913 . S
C1103 H1079 0.950 . S
C1103 C1102 1.524 . S
C1103 C1104 1.415 . S
C1104 H1080 0.950 . S
C1104 C1099 1.363 . S
C1104 C1103 1.415 . S
C1105 H1081 0.951 . S
C1105 C1106 1.366 . S
C1105 C1107 1.388 . S
C1106 C1105 1.366 . S
C1106 C1110 1.385 . S
C1107 H1082 0.951 . S
C1107 C1105 1.388 . S
C1107 C1108 1.366 . S
C1108 C1107 1.366 . S
C1108 C1109 1.414 . S
C1108 C1111 1.499 . S
C1109 H1083 0.950 . S
C1109 C1108 1.414 . S
C1109 C1110 1.374 . S
C1110 H1084 0.950 . S
C1110 C1106 1.385 . S
C1110 C1109 1.374 . S
C1111 C1108 1.499 . S
C1111 C1112 1.373 . S
C1111 C1113 1.389 . S
C1112 H1085 0.950 . S
C1112 C1098 1.377 . S
C1112 C1111 1.373 . S
C1113 C1097 1.377 . S
C1113 C1111 1.389 . S
C1113 C1114 1.524 . S
C1114 C1113 1.524 . S
C1114 C1115 1.397 . S
C1114 C1119 1.363 . S
C1115 H1086 0.950 . S
C1115 C1114 1.397 . S
C1115 C1116 1.334 . S
C1116 H1087 0.950 . S
C1116 C1115 1.334 . S
C1116 C1117 1.287 . S
C1117 C1116 1.287 . S
C1117 C1118 1.524 . S
C1117 H1120 0.999 . S
C1118 H1088 0.950 . S
C1118 C1117 1.524 . S
C1118 C1119 1.415 . S
C1119 H1089 0.950 . S
C1119 C1114 1.363 . S
C1119 C1118 1.415 . S
H1120 C1117 0.999 . S
H1121 C1102 0.913 . S
H1122 C1140 0.951 . S
H1123 C1142 0.951 . S
H1124 C1144 0.950 . S
H1125 C1145 0.950 . S
H1126 C1147 0.950 . S
H1127 C1150 0.950 . S
H1128 C1151 0.950 . S
H1129 C1153 0.950 . S
H1130 C1154 0.950 . S
H1131 C1155 0.951 . S
H1132 C1157 0.951 . S
H1133 C1159 0.950 . S
H1134 C1160 0.950 . S
H1135 C1162 0.950 . S
H1136 C1165 0.950 . S
H1137 C1166 0.950 . S
H1138 C1168 0.950 . S
H1139 C1169 0.946 1_554 S
C1140 H1122 0.951 . S
C1140 C1141 1.366 . S
C1140 C1142 1.388 . S
C1141 C1140 1.366 . S
C1141 C1145 1.385 . S
C1142 H1123 0.951 . S
C1142 C1140 1.388 . S
C1142 C1143 1.366 . S
C1143 C1142 1.366 . S
C1143 C1144 1.414 . S
C1143 C1146 1.499 . S
C1144 H1124 0.950 . S
C1144 C1143 1.414 . S
C1144 C1145 1.374 . S
C1145 H1125 0.950 . S
C1145 C1141 1.385 . S
C1145 C1144 1.374 . S
C1146 C1143 1.499 . S
C1146 C1147 1.373 . S
C1146 C1148 1.389 . S
C1147 H1126 0.950 . S
C1147 C1146 1.373 . S
C1147 C1163 1.377 . S
C1148 C1146 1.389 . S
C1148 C1149 1.524 . S
C1148 C1162 1.377 . S
C1149 C1148 1.524 . S
C1149 C1150 1.397 . S
C1149 C1154 1.363 . S
C1150 H1127 0.950 . S
C1150 C1149 1.397 . S
C1150 C1151 1.334 . S
C1151 H1128 0.950 . S
C1151 C1150 1.334 . S
C1151 C1152 1.287 . S
C1152 C1151 1.287 . S
C1152 C1153 1.524 . S
C1152 H1171 0.913 . S
C1153 H1129 0.950 . S
C1153 C1152 1.524 . S
C1153 C1154 1.415 . S
C1154 H1130 0.950 . S
C1154 C1149 1.363 . S
C1154 C1153 1.415 . S
C1155 H1131 0.951 . S
C1155 C1156 1.366 1_554 S
C1155 C1157 1.388 . S
C1156 C1155 1.366 1_556 S
C1156 C1160 1.385 . S
C1157 H1132 0.951 . S
C1157 C1155 1.388 . S
C1157 C1158 1.366 1_554 S
C1158 C1157 1.366 1_556 S
C1158 C1159 1.414 . S
C1158 C1161 1.499 . S
C1159 H1133 0.950 . S
C1159 C1158 1.414 . S
C1159 C1160 1.374 . S
C1160 H1134 0.950 . S
C1160 C1156 1.385 . S
C1160 C1159 1.374 . S
C1161 C1158 1.499 . S
C1161 C1162 1.373 . S
C1161 C1163 1.389 . S
C1162 H1135 0.950 . S
C1162 C1148 1.377 . S
C1162 C1161 1.373 . S
C1163 C1147 1.377 . S
C1163 C1161 1.389 . S
C1163 C1164 1.524 . S
C1164 C1163 1.524 . S
C1164 C1165 1.397 . S
C1164 C1169 1.368 . S
C1165 H1136 0.950 . S
C1165 C1164 1.397 . S
C1165 C1166 1.334 . S
C1166 H1137 0.950 . S
C1166 C1165 1.334 . S
C1166 C1167 1.287 . S
C1167 C1166 1.287 . S
C1167 C1168 1.524 1_556 S
C1167 H1170 0.999 . S
C1168 H1138 0.950 . S
C1168 C1167 1.524 1_554 S
C1168 C1169 1.413 1_554 S
C1169 H1139 0.946 1_556 S
C1169 C1164 1.368 . S
C1169 C1168 1.413 1_556 S
H1170 C1167 0.999 . S
H1171 C1152 0.913 . S
H1172 C1190 0.951 . S
H1173 C1192 0.951 . S
H1174 C1194 0.950 . S
H1175 C1195 0.950 . S
H1176 C1197 0.950 . S
H1177 C1200 0.950 . S
H1178 C1201 0.950 . S
H1179 C1203 0.958 . S
H1180 C1204 0.902 1_554 S
H1181 C1205 0.951 . S
H1182 C1207 0.951 . S
H1183 C1209 0.950 . S
H1184 C1210 0.950 . S
H1185 C1212 0.950 . S
H1186 C1215 0.950 1_554 S
H1187 C1216 0.950 1_554 S
H1188 C1218 0.950 . S
H1189 C1219 0.950 . S
C1190 H1172 0.951 . S
C1190 C1191 1.366 . S
C1190 C1192 1.388 . S
C1191 C1190 1.366 . S
C1191 C1195 1.385 . S
C1192 H1173 0.951 . S
C1192 C1190 1.388 . S
C1192 C1193 1.366 . S
C1193 C1192 1.366 . S
C1193 C1194 1.414 . S
C1193 C1196 1.499 . S
C1194 H1174 0.950 . S
C1194 C1193 1.414 . S
C1194 C1195 1.374 . S
C1195 H1175 0.950 . S
C1195 C1191 1.385 . S
C1195 C1194 1.374 . S
C1196 C1193 1.499 . S
C1196 C1197 1.373 . S
C1196 C1198 1.389 . S
C1197 H1176 0.950 . S
C1197 C1196 1.373 . S
C1197 C1213 1.377 . S
C1198 C1196 1.389 . S
C1198 C1199 1.524 . S
C1198 C1212 1.377 . S
C1199 C1198 1.524 . S
C1199 C1200 1.397 . S
C1199 C1204 1.363 . S
C1200 H1177 0.950 . S
C1200 C1199 1.397 . S
C1200 C1201 1.334 . S
C1201 H1178 0.950 . S
C1201 C1200 1.334 . S
C1201 C1202 1.287 . S
C1202 C1201 1.287 . S
C1202 C1203 1.524 . S
C1202 H1221 0.913 . S
C1203 H1179 0.958 . S
C1203 C1202 1.524 . S
C1203 C1204 1.415 . S
C1204 H1180 0.902 1_556 S
C1204 C1199 1.363 . S
C1204 C1203 1.415 . S
C1205 H1181 0.951 . S
C1205 C1206 1.429 . S
C1205 C1207 1.388 . S
C1206 C1205 1.429 . S
C1206 C1210 1.345 1_556 S
C1207 H1182 0.951 . S
C1207 C1205 1.388 . S
C1207 C1208 1.366 . S
C1208 C1207 1.366 . S
C1208 C1209 1.414 1_556 S
C1208 C1211 1.499 . S
C1209 H1183 0.950 . S
C1209 C1208 1.414 1_554 S
C1209 C1210 1.374 . S
C1210 H1184 0.950 . S
C1210 C1206 1.345 1_554 S
C1210 C1209 1.374 . S
C1211 C1208 1.499 . S
C1211 C1212 1.373 . S
C1211 C1213 1.389 . S
C1212 H1185 0.950 . S
C1212 C1198 1.377 . S
C1212 C1211 1.373 . S
C1213 C1197 1.377 . S
C1213 C1211 1.389 . S
C1213 C1214 1.524 . S
C1214 C1213 1.524 . S
C1214 C1215 1.397 . S
C1214 C1219 1.363 . S
C1215 H1186 0.950 1_556 S
C1215 C1214 1.397 . S
C1215 C1216 1.334 . S
C1216 H1187 0.950 1_556 S
C1216 C1215 1.334 . S
C1216 C1217 1.287 . S
C1217 C1216 1.287 . S
C1217 C1218 1.524 . S
C1217 H1220 0.999 . S
C1218 H1188 0.950 . S
C1218 C1217 1.524 . S
C1218 C1219 1.415 . S
C1219 H1189 0.950 . S
C1219 C1214 1.363 . S
C1219 C1218 1.415 . S
H1220 C1217 0.999 . S
H1221 C1202 0.913 . S
H1222 C1240 0.951 . S
H1223 C1242 0.951 . S
H1224 C1244 0.950 . S
H1225 C1245 0.950 . S
H1226 C1247 0.950 . S
H1227 C1250 0.950 . S
H1228 C1251 0.950 . S
H1229 C1253 0.950 . S
H1230 C1254 0.950 . S
H1231 C1255 0.951 . S
H1232 C1257 0.951 . S
H1233 C1259 0.954 . S
H1234 C1260 0.950 . S
H1235 C1262 0.950 . S
H1236 C1265 0.950 . S
H1237 C1266 0.950 . S
H1238 C1268 0.950 . S
H1239 C1269 0.950 . S
C1240 H1222 0.951 . S
C1240 C1241 1.366 . S
C1240 C1242 1.388 . S
C1241 C1240 1.366 . S
C1241 C1245 1.385 . S
C1242 H1223 0.951 . S
C1242 C1240 1.388 . S
C1242 C1243 1.366 . S
C1243 C1242 1.366 . S
C1243 C1244 1.414 . S
C1243 C1246 1.499 . S
C1244 H1224 0.950 . S
C1244 C1243 1.414 . S
C1244 C1245 1.374 . S
C1245 H1225 0.950 . S
C1245 C1241 1.385 . S
C1245 C1244 1.374 . S
C1246 C1243 1.499 . S
C1246 C1247 1.373 . S
C1246 C1248 1.389 . S
C1247 H1226 0.950 . S
C1247 C1246 1.373 . S
C1247 C1263 1.377 . S
C1248 C1246 1.389 . S
C1248 C1249 1.524 . S
C1248 C1262 1.377 . S
C1249 C1248 1.524 . S
C1249 C1250 1.397 . S
C1249 C1254 1.363 . S
C1250 H1227 0.950 . S
C1250 C1249 1.397 . S
C1250 C1251 1.334 . S
C1251 H1228 0.950 . S
C1251 C1250 1.334 . S
C1251 C1252 1.287 . S
C1252 C1251 1.287 . S
C1252 C1253 1.524 . S
C1252 H1271 0.913 . S
C1253 H1229 0.950 . S
C1253 C1252 1.524 . S
C1253 C1254 1.415 . S
C1254 H1230 0.950 . S
C1254 C1249 1.363 . S
C1254 C1253 1.415 . S
C1255 H1231 0.951 . S
C1255 C1256 1.369 1_556 S
C1255 C1257 1.388 . S
C1256 C1255 1.369 1_554 S
C1256 C1260 1.384 . S
C1257 H1232 0.951 . S
C1257 C1255 1.388 . S
C1257 C1258 1.366 . S
C1258 C1257 1.366 . S
C1258 C1259 1.414 . S
C1258 C1261 1.499 . S
C1259 H1233 0.954 . S
C1259 C1258 1.414 . S
C1259 C1260 1.374 1_556 S
C1260 H1234 0.950 . S
C1260 C1256 1.384 . S
C1260 C1259 1.374 1_554 S
C1261 C1258 1.499 . S
C1261 C1262 1.373 . S
C1261 C1263 1.389 . S
C1262 H1235 0.950 . S
C1262 C1248 1.377 . S
C1262 C1261 1.373 . S
C1263 C1247 1.377 . S
C1263 C1261 1.389 . S
C1263 C1264 1.524 1_556 S
C1264 C1263 1.524 1_554 S
C1264 C1265 1.397 . S
C1264 C1269 1.363 1_554 S
C1265 H1236 0.950 . S
C1265 C1264 1.397 . S
C1265 C1266 1.334 . S
C1266 H1237 0.950 . S
C1266 C1265 1.334 . S
C1266 C1267 1.287 . S
C1267 C1266 1.287 . S
C1267 C1268 1.524 . S
C1267 H1270 0.999 . S
C1268 H1238 0.950 . S
C1268 C1267 1.524 . S
C1268 C1269 1.415 1_554 S
C1269 H1239 0.950 . S
C1269 C1264 1.363 1_556 S
C1269 C1268 1.415 1_556 S
H1270 C1267 0.999 . S
H1271 C1252 0.913 . S
H1272 C1290 0.951 . S
H1273 C1292 0.951 . S
H1274 C1294 0.950 . S
H1275 C1295 0.950 . S
H1276 C1297 0.950 . S
H1277 C1300 0.950 . S
H1278 C1301 0.950 . S
H1279 C1303 0.950 . S
H1280 C1304 0.950 . S
H1281 C1305 0.951 . S
H1282 C1307 0.932 1_554 S
H1283 C1309 0.950 . S
H1284 C1310 0.950 . S
H1285 C1312 0.950 . S
H1286 C1315 0.950 . S
H1287 C1316 0.950 . S
H1288 C1318 0.950 . S
H1289 C1319 0.950 . S
C1290 H1272 0.951 . S
C1290 C1291 1.366 . S
C1290 C1292 1.388 . S
C1291 C1290 1.366 . S
C1291 C1295 1.385 . S
C1292 H1273 0.951 . S
C1292 C1290 1.388 . S
C1292 C1293 1.366 . S
C1293 C1292 1.366 . S
C1293 C1294 1.414 . S
C1293 C1296 1.499 . S
C1294 H1274 0.950 . S
C1294 C1293 1.414 . S
C1294 C1295 1.374 . S
C1295 H1275 0.950 . S
C1295 C1291 1.385 . S
C1295 C1294 1.374 . S
C1296 C1293 1.499 . S
C1296 C1297 1.373 . S
C1296 C1298 1.389 . S
C1297 H1276 0.950 . S
C1297 C1296 1.373 . S
C1297 C1313 1.377 . S
C1298 C1296 1.389 . S
C1298 C1299 1.524 . S
C1298 C1312 1.377 . S
C1299 C1298 1.524 . S
C1299 C1300 1.397 1_556 S
C1299 C1304 1.363 . S
C1300 H1277 0.950 . S
C1300 C1299 1.397 1_554 S
C1300 C1301 1.334 . S
C1301 H1278 0.950 . S
C1301 C1300 1.334 . S
C1301 C1302 1.287 . S
C1302 C1301 1.287 . S
C1302 C1303 1.524 1_554 S
C1302 H1321 0.913 . S
C1303 H1279 0.950 . S
C1303 C1302 1.524 1_556 S
C1303 C1304 1.415 . S
C1304 H1280 0.950 . S
C1304 C1299 1.363 . S
C1304 C1303 1.415 . S
C1305 H1281 0.951 . S
C1305 C1306 1.366 1_554 S
C1305 C1307 1.369 1_554 S
C1306 C1305 1.366 1_556 S
C1306 C1310 1.385 . S
C1307 H1282 0.932 1_556 S
C1307 C1305 1.369 1_556 S
C1307 C1308 1.409 . S
C1308 C1307 1.409 . S
C1308 C1309 1.414 . S
C1308 C1311 1.499 . S
C1309 H1283 0.950 . S
C1309 C1308 1.414 . S
C1309 C1310 1.374 . S
C1310 H1284 0.950 . S
C1310 C1306 1.385 . S
C1310 C1309 1.374 . S
C1311 C1308 1.499 . S
C1311 C1312 1.373 . S
C1311 C1313 1.389 . S
C1312 H1285 0.950 . S
C1312 C1298 1.377 . S
C1312 C1311 1.373 . S
C1313 C1297 1.377 . S
C1313 C1311 1.389 . S
C1313 C1314 1.524 . S
C1314 C1313 1.524 . S
C1314 C1315 1.397 . S
C1314 C1319 1.363 . S
C1315 H1286 0.950 . S
C1315 C1314 1.397 . S
C1315 C1316 1.334 . S
C1316 H1287 0.950 . S
C1316 C1315 1.334 . S
C1316 C1317 1.287 . S
C1317 C1316 1.287 . S
C1317 C1318 1.524 . S
C1317 H1320 0.999 . S
C1318 H1288 0.950 . S
C1318 C1317 1.524 . S
C1318 C1319 1.415 . S
C1319 H1289 0.950 . S
C1319 C1314 1.363 . S
C1319 C1318 1.415 . S
H1320 C1317 0.999 . S
H1321 C1302 0.913 . S
H1322 C1340 0.951 . S
H1323 C1342 0.951 . S
H1324 C1344 0.950 . S
H1325 C1345 0.950 . S
H1326 C1347 0.950 . S
H1327 C1350 0.950 . S
H1328 C1351 0.950 . S
H1329 C1353 0.950 . S
H1330 C1354 0.950 . S
H1331 C1355 0.951 . S
H1332 C1357 0.951 . S
H1333 C1359 0.952 1_554 S
H1334 C1360 0.950 . S
H1335 C1362 0.950 . S
H1336 C1365 0.950 . S
H1337 C1366 0.950 . S
H1338 C1368 0.950 . S
H1339 C1369 0.950 . S
C1340 H1322 0.951 . S
C1340 C1341 1.366 . S
C1340 C1342 1.388 . S
C1341 C1340 1.366 . S
C1341 C1345 1.385 . S
C1342 H1323 0.951 . S
C1342 C1340 1.388 . S
C1342 C1343 1.366 . S
C1343 C1342 1.366 . S
C1343 C1344 1.414 . S
C1343 C1346 1.499 . S
C1344 H1324 0.950 . S
C1344 C1343 1.414 . S
C1344 C1345 1.374 . S
C1345 H1325 0.950 . S
C1345 C1341 1.385 . S
C1345 C1344 1.374 . S
C1346 C1343 1.499 . S
C1346 C1347 1.373 . S
C1346 C1348 1.389 . S
C1347 H1326 0.950 . S
C1347 C1346 1.373 . S
C1347 C1363 1.377 . S
C1348 C1346 1.389 . S
C1348 C1349 1.524 . S
C1348 C1362 1.377 . S
C1349 C1348 1.524 . S
C1349 C1350 1.397 . S
C1349 C1354 1.363 . S
C1350 H1327 0.950 . S
C1350 C1349 1.397 . S
C1350 C1351 1.334 . S
C1351 H1328 0.950 . S
C1351 C1350 1.334 . S
C1351 C1352 1.287 . S
C1352 C1351 1.287 . S
C1352 C1353 1.524 . S
C1352 H1371 0.913 . S
C1353 H1329 0.950 . S
C1353 C1352 1.524 . S
C1353 C1354 1.415 . S
C1354 H1330 0.950 . S
C1354 C1349 1.363 . S
C1354 C1353 1.415 . S
C1355 H1331 0.951 . S
C1355 C1356 1.366 . S
C1355 C1357 1.388 . S
C1356 C1355 1.366 . S
C1356 C1360 1.385 1_556 S
C1357 H1332 0.951 . S
C1357 C1355 1.388 . S
C1357 C1358 1.366 . S
C1358 C1357 1.366 . S
C1358 C1359 1.411 . S
C1358 C1361 1.499 . S
C1359 H1333 0.952 1_556 S
C1359 C1358 1.411 . S
C1359 C1360 1.375 1_556 S
C1360 H1334 0.950 . S
C1360 C1356 1.385 1_554 S
C1360 C1359 1.375 1_554 S
C1361 C1358 1.499 . S
C1361 C1362 1.373 . S
C1361 C1363 1.389 . S
C1362 H1335 0.950 . S
C1362 C1348 1.377 . S
C1362 C1361 1.373 . S
C1363 C1347 1.377 . S
C1363 C1361 1.389 . S
C1363 C1364 1.524 . S
C1364 C1363 1.524 . S
C1364 C1365 1.397 1_556 S
C1364 C1369 1.363 . S
C1365 H1336 0.950 . S
C1365 C1364 1.397 1_554 S
C1365 C1366 1.334 . S
C1366 H1337 0.950 . S
C1366 C1365 1.334 . S
C1366 C1367 1.287 . S
C1367 C1366 1.287 . S
C1367 C1368 1.524 1_554 S
C1367 H1370 0.999 . S
C1368 H1338 0.950 . S
C1368 C1367 1.524 1_556 S
C1368 C1369 1.415 . S
C1369 H1339 0.950 . S
C1369 C1364 1.363 . S
C1369 C1368 1.415 . S
H1370 C1367 0.999 . S
H1371 C1352 0.913 . S
H1372 C1390 0.951 . S
H1373 C1392 0.951 . S
H1374 C1394 0.952 1_554 S
H1375 C1395 0.950 . S
H1376 C1397 0.950 . S
H1377 C1400 0.950 . S
H1378 C1401 0.950 . S
H1379 C1403 0.950 . S
H1380 C1404 0.950 . S
H1381 C1405 0.951 . S
H1382 C1407 0.951 . S
H1383 C1409 0.950 . S
H1384 C1410 0.950 . S
H1385 C1412 0.950 . S
H1386 C1415 0.950 . S
H1387 C1416 0.935 1_556 S
H1388 C1418 0.950 . S
H1389 C1419 0.950 . S
C1390 H1372 0.951 . S
C1390 C1391 1.366 . S
C1390 C1392 1.388 . S
C1391 C1390 1.366 . S
C1391 C1395 1.385 . S
C1392 H1373 0.951 . S
C1392 C1390 1.388 . S
C1392 C1393 1.366 . S
C1393 C1392 1.366 . S
C1393 C1394 1.414 . S
C1393 C1396 1.499 . S
C1394 H1374 0.952 1_556 S
C1394 C1393 1.414 . S
C1394 C1395 1.374 . S
C1395 H1375 0.950 . S
C1395 C1391 1.385 . S
C1395 C1394 1.374 . S
C1396 C1393 1.499 . S
C1396 C1397 1.373 . S
C1396 C1398 1.389 . S
C1397 H1376 0.950 . S
C1397 C1396 1.373 . S
C1397 C1413 1.377 . S
C1398 C1396 1.389 . S
C1398 C1399 1.524 . S
C1398 C1412 1.377 . S
C1399 C1398 1.524 . S
C1399 C1400 1.397 . S
C1399 C1404 1.363 . S
C1400 H1377 0.950 . S
C1400 C1399 1.397 . S
C1400 C1401 1.334 . S
C1401 H1378 0.950 . S
C1401 C1400 1.334 . S
C1401 C1402 1.287 . S
C1402 C1401 1.287 . S
C1402 C1403 1.524 . S
C1402 H1421 0.913 . S
C1403 H1379 0.950 . S
C1403 C1402 1.524 . S
C1403 C1404 1.415 . S
C1404 H1380 0.950 . S
C1404 C1399 1.363 . S
C1404 C1403 1.415 . S
C1405 H1381 0.951 . S
C1405 C1406 1.389 . S
C1405 C1407 1.388 . S
C1406 C1405 1.389 . S
C1406 C1410 1.354 1_554 S
C1407 H1382 0.951 . S
C1407 C1405 1.388 . S
C1407 C1408 1.366 1_554 S
C1408 C1407 1.366 1_556 S
C1408 C1409 1.414 . S
C1408 C1411 1.499 . S
C1409 H1383 0.950 . S
C1409 C1408 1.414 . S
C1409 C1410 1.374 . S
C1410 H1384 0.950 . S
C1410 C1406 1.354 1_556 S
C1410 C1409 1.374 . S
C1411 C1408 1.499 . S
C1411 C1412 1.373 . S
C1411 C1413 1.389 . S
C1412 H1385 0.950 . S
C1412 C1398 1.377 . S
C1412 C1411 1.373 . S
C1413 C1397 1.377 . S
C1413 C1411 1.389 . S
C1413 C1414 1.524 1_556 S
C1414 C1413 1.524 1_554 S
C1414 C1415 1.397 1_554 S
C1414 C1419 1.363 . S
C1415 H1386 0.950 . S
C1415 C1414 1.397 1_556 S
C1415 C1416 1.334 1_556 S
C1416 H1387 0.935 1_554 S
C1416 C1415 1.334 1_554 S
C1416 C1417 1.287 . S
C1417 C1416 1.287 . S
C1417 C1418 1.524 . S
C1417 H1420 0.999 . S
C1418 H1388 0.950 . S
C1418 C1417 1.524 . S
C1418 C1419 1.415 . S
C1419 H1389 0.950 . S
C1419 C1414 1.363 . S
C1419 C1418 1.415 . S
H1420 C1417 0.999 . S
H1421 C1402 0.913 . S
H1422 C1440 0.951 . S
H1423 C1442 0.951 . S
H1424 C1444 0.950 . S
H1425 C1445 0.950 . S
H1426 C1447 0.950 . S
H1427 C1450 0.950 . S
H1428 C1451 0.950 . S
H1429 C1453 0.950 . S
H1430 C1454 0.950 . S
H1431 C1455 0.951 . S
H1432 C1457 0.951 . S
H1433 C1459 0.950 . S
H1434 C1460 0.950 . S
H1435 C1462 0.950 . S
H1436 C1465 0.948 1_554 S
H1437 C1466 0.950 . S
H1438 C1468 0.950 . S
H1439 C1469 0.950 1_554 S
C1440 H1422 0.951 . S
C1440 C1441 1.366 . S
C1440 C1442 1.388 . S
C1441 C1440 1.366 . S
C1441 C1445 1.385 . S
C1442 H1423 0.951 . S
C1442 C1440 1.388 . S
C1442 C1443 1.366 . S
C1443 C1442 1.366 . S
C1443 C1444 1.414 . S
C1443 C1446 1.499 . S
C1444 H1424 0.950 . S
C1444 C1443 1.414 . S
C1444 C1445 1.374 . S
C1445 H1425 0.950 . S
C1445 C1441 1.385 . S
C1445 C1444 1.374 . S
C1446 C1443 1.499 . S
C1446 C1447 1.373 . S
C1446 C1448 1.389 . S
C1447 H1426 0.950 . S
C1447 C1446 1.373 . S
C1447 C1463 1.377 . S
C1448 C1446 1.389 . S
C1448 C1449 1.524 . S
C1448 C1462 1.377 . S
C1449 C1448 1.524 . S
C1449 C1450 1.397 . S
C1449 C1454 1.363 . S
C1450 H1427 0.950 . S
C1450 C1449 1.397 . S
C1450 C1451 1.334 . S
C1451 H1428 0.950 . S
C1451 C1450 1.334 . S
C1451 C1452 1.287 . S
C1452 C1451 1.287 . S
C1452 C1453 1.524 . S
C1452 H1471 0.913 . S
C1453 H1429 0.950 . S
C1453 C1452 1.524 . S
C1453 C1454 1.415 . S
C1454 H1430 0.950 . S
C1454 C1449 1.363 . S
C1454 C1453 1.415 . S
C1455 H1431 0.951 . S
C1455 C1456 1.366 . S
C1455 C1457 1.388 . S
C1456 C1455 1.366 . S
C1456 C1460 1.385 . S
C1457 H1432 0.951 . S
C1457 C1455 1.388 . S
C1457 C1458 1.366 . S
C1458 C1457 1.366 . S
C1458 C1459 1.414 . S
C1458 C1461 1.499 . S
C1459 H1433 0.950 . S
C1459 C1458 1.414 . S
C1459 C1460 1.374 . S
C1460 H1434 0.950 . S
C1460 C1456 1.385 . S
C1460 C1459 1.374 . S
C1461 C1458 1.499 . S
C1461 C1462 1.373 . S
C1461 C1463 1.389 . S
C1462 H1435 0.950 . S
C1462 C1448 1.377 . S
C1462 C1461 1.373 . S
C1463 C1447 1.377 . S
C1463 C1461 1.389 . S
C1463 C1464 1.524 . S
C1464 C1463 1.524 . S
C1464 C1465 1.396 1_554 S
C1464 C1469 1.363 1_554 S
C1465 H1436 0.948 1_556 S
C1465 C1464 1.396 1_556 S
C1465 C1466 1.337 . S
C1466 H1437 0.950 . S
C1466 C1465 1.337 . S
C1466 C1467 1.287 . S
C1467 C1466 1.287 . S
C1467 C1468 1.524 . S
C1467 H1470 0.999 . S
C1468 H1438 0.950 . S
C1468 C1467 1.524 . S
C1468 C1469 1.415 . S
C1469 H1439 0.950 1_556 S
C1469 C1464 1.363 1_556 S
C1469 C1468 1.415 . S
H1470 C1467 0.999 . S
H1471 C1452 0.913 . S
H1472 C1490 0.951 . S
H1473 C1492 0.951 . S
H1474 C1494 0.950 . S
H1475 C1495 0.950 . S
H1476 C1497 0.950 . S
H1477 C1500 0.950 . S
H1478 C1501 0.950 . S
H1479 C1503 0.950 . S
H1480 C1504 0.950 . S
H1481 C1505 0.951 . S
H1482 C1507 0.951 . S
H1483 C1509 0.950 . S
H1484 C1510 0.950 . S
H1485 C1512 0.950 . S
H1486 C1515 0.950 . S
H1487 C1516 0.950 . S
H1488 C1518 0.950 . S
H1489 C1519 0.950 . S
C1490 H1472 0.951 . S
C1490 C1491 1.366 . S
C1490 C1492 1.388 . S
C1491 C1490 1.366 . S
C1491 C1495 1.385 . S
C1492 H1473 0.951 . S
C1492 C1490 1.388 . S
C1492 C1493 1.366 . S
C1493 C1492 1.366 . S
C1493 C1494 1.414 . S
C1493 C1496 1.499 . S
C1494 H1474 0.950 . S
C1494 C1493 1.414 . S
C1494 C1495 1.374 . S
C1495 H1475 0.950 . S
C1495 C1491 1.385 . S
C1495 C1494 1.374 . S
C1496 C1493 1.499 . S
C1496 C1497 1.373 . S
C1496 C1498 1.389 . S
C1497 H1476 0.950 . S
C1497 C1496 1.373 . S
C1497 C1513 1.377 . S
C1498 C1496 1.389 . S
C1498 C1499 1.524 . S
C1498 C1512 1.377 . S
C1499 C1498 1.524 . S
C1499 C1500 1.397 . S
C1499 C1504 1.363 . S
C1500 H1477 0.950 . S
C1500 C1499 1.397 . S
C1500 C1501 1.334 . S
C1501 H1478 0.950 . S
C1501 C1500 1.334 . S
C1501 C1502 1.287 . S
C1502 C1501 1.287 . S
C1502 C1503 1.524 . S
C1502 H1521 0.913 . S
C1503 H1479 0.950 . S
C1503 C1502 1.524 . S
C1503 C1504 1.415 . S
C1504 H1480 0.950 . S
C1504 C1499 1.363 . S
C1504 C1503 1.415 . S
C1505 H1481 0.951 . S
C1505 C1506 1.366 . S
C1505 C1507 1.388 . S
C1506 C1505 1.366 . S
C1506 C1510 1.385 . S
C1507 H1482 0.951 . S
C1507 C1505 1.388 . S
C1507 C1508 1.366 . S
C1508 C1507 1.366 . S
C1508 C1509 1.414 . S
C1508 C1511 1.499 . S
C1509 H1483 0.950 . S
C1509 C1508 1.414 . S
C1509 C1510 1.374 . S
C1510 H1484 0.950 . S
C1510 C1506 1.385 . S
C1510 C1509 1.374 . S
C1511 C1508 1.499 . S
C1511 C1512 1.373 . S
C1511 C1513 1.389 . S
C1512 H1485 0.950 . S
C1512 C1498 1.377 . S
C1512 C1511 1.373 . S
C1513 C1497 1.377 . S
C1513 C1511 1.389 . S
C1513 C1514 1.524 . S
C1514 C1513 1.524 . S
C1514 C1515 1.397 . S
C1514 C1519 1.363 . S
C1515 H1486 0.950 . S
C1515 C1514 1.397 . S
C1515 C1516 1.334 1_554 S
C1516 H1487 0.950 . S
C1516 C1515 1.334 1_556 S
C1516 C1517 1.287 . S
C1517 C1516 1.287 . S
C1517 C1518 1.524 . S
C1517 H1520 0.999 . S
C1518 H1488 0.950 . S
C1518 C1517 1.524 . S
C1518 C1519 1.415 1_556 S
C1519 H1489 0.950 . S
C1519 C1514 1.363 . S
C1519 C1518 1.415 1_554 S
H1520 C1517 0.999 . S
H1521 C1502 0.913 . S
H1522 C1540 0.951 . S
H1523 C1542 0.951 . S
H1524 C1544 0.950 . S
H1525 C1545 0.950 . S
H1526 C1547 0.950 . S
H1527 C1550 0.950 . S
H1528 C1551 0.950 . S
H1529 C1553 0.950 . S
H1530 C1554 0.950 . S
H1531 C1555 0.951 . S
H1532 C1557 0.951 . S
H1533 C1559 0.950 . S
H1534 C1560 0.950 . S
H1535 C1562 0.950 . S
H1536 C1565 0.950 1_554 S
H1537 C1566 0.950 . S
H1538 C1568 0.950 . S
H1539 C1569 0.943 1_554 S
C1540 H1522 0.951 . S
C1540 C1541 1.366 . S
C1540 C1542 1.388 . S
C1541 C1540 1.366 . S
C1541 C1545 1.385 . S
C1542 H1523 0.951 . S
C1542 C1540 1.388 . S
C1542 C1543 1.366 . S
C1543 C1542 1.366 . S
C1543 C1544 1.414 . S
C1543 C1546 1.499 . S
C1544 H1524 0.950 . S
C1544 C1543 1.414 . S
C1544 C1545 1.374 . S
C1545 H1525 0.950 . S
C1545 C1541 1.385 . S
C1545 C1544 1.374 . S
C1546 C1543 1.499 . S
C1546 C1547 1.373 . S
C1546 C1548 1.389 . S
C1547 H1526 0.950 . S
C1547 C1546 1.373 . S
C1547 C1563 1.377 . S
C1548 C1546 1.389 . S
C1548 C1549 1.524 . S
C1548 C1562 1.377 . S
C1549 C1548 1.524 . S
C1549 C1550 1.397 . S
C1549 C1554 1.363 . S
C1550 H1527 0.950 . S
C1550 C1549 1.397 . S
C1550 C1551 1.334 . S
C1551 H1528 0.950 . S
C1551 C1550 1.334 . S
C1551 C1552 1.287 . S
C1552 C1551 1.287 . S
C1552 C1553 1.524 . S
C1552 H1571 0.913 . S
C1553 H1529 0.950 . S
C1553 C1552 1.524 . S
C1553 C1554 1.415 . S
C1554 H1530 0.950 . S
C1554 C1549 1.363 . S
C1554 C1553 1.415 . S
C1555 H1531 0.951 . S
C1555 C1556 1.366 . S
C1555 C1557 1.388 . S
C1556 C1555 1.366 . S
C1556 C1560 1.385 . S
C1557 H1532 0.951 . S
C1557 C1555 1.388 . S
C1557 C1558 1.366 . S
C1558 C1557 1.366 . S
C1558 C1559 1.414 . S
C1558 C1561 1.499 . S
C1559 H1533 0.950 . S
C1559 C1558 1.414 . S
C1559 C1560 1.374 . S
C1560 H1534 0.950 . S
C1560 C1556 1.385 . S
C1560 C1559 1.374 . S
C1561 C1558 1.499 . S
C1561 C1562 1.373 . S
C1561 C1563 1.389 . S
C1562 H1535 0.950 . S
C1562 C1548 1.377 . S
C1562 C1561 1.373 . S
C1563 C1547 1.377 . S
C1563 C1561 1.389 . S
C1563 C1564 1.524 . S
C1564 C1563 1.524 . S
C1564 C1565 1.397 1_554 S
C1564 C1569 1.358 1_554 S
C1565 H1536 0.950 1_556 S
C1565 C1564 1.397 1_556 S
C1565 C1566 1.334 . S
C1566 H1537 0.950 . S
C1566 C1565 1.334 . S
C1566 C1567 1.287 . S
C1567 C1566 1.287 . S
C1567 C1568 1.524 . S
C1567 H1570 0.999 . S
C1568 H1538 0.950 . S
C1568 C1567 1.524 . S
C1568 C1569 1.427 . S
C1569 H1539 0.943 1_556 S
C1569 C1564 1.358 1_556 S
C1569 C1568 1.427 . S
H1570 C1567 0.999 . S
H1571 C1552 0.913 . S
H1572 C1590 0.951 . S
H1573 C1592 0.951 . S
H1574 C1594 0.950 . S
H1575 C1595 0.950 . S
H1576 C1597 0.950 . S
H1577 C1600 0.950 . S
H1578 C1601 0.950 . S
H1579 C1603 0.953 . S
H1580 C1604 0.950 . S
H1581 C1605 0.951 . S
H1582 C1607 0.951 . S
H1583 C1609 0.950 . S
H1584 C1610 0.950 . S
H1585 C1612 0.950 . S
H1586 C1615 0.950 . S
H1587 C1616 0.950 . S
H1588 C1618 0.950 . S
H1589 C1619 0.950 1_655 S
C1590 H1572 0.951 . S
C1590 C1591 1.366 . S
C1590 C1592 1.388 . S
C1591 C1590 1.366 . S
C1591 C1595 1.385 . S
C1592 H1573 0.951 . S
C1592 C1590 1.388 . S
C1592 C1593 1.366 . S
C1593 C1592 1.366 . S
C1593 C1594 1.414 . S
C1593 C1596 1.499 . S
C1594 H1574 0.950 . S
C1594 C1593 1.414 . S
C1594 C1595 1.374 . S
C1595 H1575 0.950 . S
C1595 C1591 1.385 . S
C1595 C1594 1.374 . S
C1596 C1593 1.499 . S
C1596 C1597 1.373 . S
C1596 C1598 1.389 1_655 S
C1597 H1576 0.950 . S
C1597 C1596 1.373 . S
C1597 C1613 1.377 1_655 S
C1598 C1596 1.389 1_455 S
C1598 C1599 1.524 1_455 S
C1598 C1612 1.377 . S
C1599 C1598 1.524 1_655 S
C1599 C1600 1.397 . S
C1599 C1604 1.363 1_655 S
C1600 H1577 0.950 . S
C1600 C1599 1.397 . S
C1600 C1601 1.334 . S
C1601 H1578 0.950 . S
C1601 C1600 1.334 . S
C1601 C1602 1.287 . S
C1602 C1601 1.287 . S
C1602 C1603 1.518 1_655 S
C1602 H1621 0.913 . S
C1603 H1579 0.953 . S
C1603 C1602 1.518 1_455 S
C1603 C1604 1.417 . S
C1604 H1580 0.950 . S
C1604 C1599 1.363 1_455 S
C1604 C1603 1.417 . S
C1605 H1581 0.951 . S
C1605 C1606 1.366 . S
C1605 C1607 1.388 . S
C1606 C1605 1.366 . S
C1606 C1610 1.385 . S
C1607 H1582 0.951 . S
C1607 C1605 1.388 . S
C1607 C1608 1.366 . S
C1608 C1607 1.366 . S
C1608 C1609 1.414 . S
C1608 C1611 1.499 . S
C1609 H1583 0.950 . S
C1609 C1608 1.414 . S
C1609 C1610 1.374 . S
C1610 H1584 0.950 . S
C1610 C1606 1.385 . S
C1610 C1609 1.374 . S
C1611 C1608 1.499 . S
C1611 C1612 1.373 . S
C1611 C1613 1.389 . S
C1612 H1585 0.950 . S
C1612 C1598 1.377 . S
C1612 C1611 1.373 . S
C1613 C1597 1.377 1_455 S
C1613 C1611 1.389 . S
C1613 C1614 1.524 . S
C1614 C1613 1.524 . S
C1614 C1615 1.397 . S
C1614 C1619 1.363 . S
C1615 H1586 0.950 . S
C1615 C1614 1.397 . S
C1615 C1616 1.334 . S
C1616 H1587 0.950 . S
C1616 C1615 1.334 . S
C1616 C1617 1.287 . S
C1617 C1616 1.287 . S
C1617 C1618 1.524 . S
C1617 H1620 0.999 . S
C1618 H1588 0.950 . S
C1618 C1617 1.524 . S
C1618 C1619 1.415 . S
C1619 H1589 0.950 1_455 S
C1619 C1614 1.363 . S
C1619 C1618 1.415 . S
H1620 C1617 0.999 . S
H1621 C1602 0.913 . S
H1622 C1640 0.951 . S
H1623 C1642 0.951 . S
H1624 C1644 0.950 . S
H1625 C1645 0.950 . S
H1626 C1647 0.950 . S
H1627 C1650 0.950 . S
H1628 C1651 0.950 . S
H1629 C1653 0.950 . S
H1630 C1654 0.950 . S
H1631 C1655 0.951 . S
H1632 C1657 0.951 . S
H1633 C1659 0.950 . S
H1634 C1660 0.950 . S
H1635 C1662 0.950 . S
H1636 C1665 0.950 . S
H1637 C1666 0.950 . S
H1638 C1668 0.950 . S
H1639 C1669 0.950 . S
C1640 H1622 0.951 . S
C1640 C1641 1.366 . S
C1640 C1642 1.388 . S
C1641 C1640 1.366 . S
C1641 C1645 1.385 . S
C1642 H1623 0.951 . S
C1642 C1640 1.388 . S
C1642 C1643 1.366 . S
C1643 C1642 1.366 . S
C1643 C1644 1.414 . S
C1643 C1646 1.499 . S
C1644 H1624 0.950 . S
C1644 C1643 1.414 . S
C1644 C1645 1.374 . S
C1645 H1625 0.950 . S
C1645 C1641 1.385 . S
C1645 C1644 1.374 . S
C1646 C1643 1.499 . S
C1646 C1647 1.373 . S
C1646 C1648 1.389 . S
C1647 H1626 0.950 . S
C1647 C1646 1.373 . S
C1647 C1663 1.377 . S
C1648 C1646 1.389 . S
C1648 C1649 1.524 . S
C1648 C1662 1.377 . S
C1649 C1648 1.524 . S
C1649 C1650 1.397 . S
C1649 C1654 1.363 . S
C1650 H1627 0.950 . S
C1650 C1649 1.397 . S
C1650 C1651 1.334 . S
C1651 H1628 0.950 . S
C1651 C1650 1.334 . S
C1651 C1652 1.287 . S
C1652 C1651 1.287 . S
C1652 C1653 1.524 . S
C1652 H1671 0.913 . S
C1653 H1629 0.950 . S
C1653 C1652 1.524 . S
C1653 C1654 1.415 . S
C1654 H1630 0.950 . S
C1654 C1649 1.363 . S
C1654 C1653 1.415 . S
C1655 H1631 0.951 . S
C1655 C1656 1.366 . S
C1655 C1657 1.388 . S
C1656 C1655 1.366 . S
C1656 C1660 1.385 . S
C1657 H1632 0.951 . S
C1657 C1655 1.388 . S
C1657 C1658 1.366 . S
C1658 C1657 1.366 . S
C1658 C1659 1.414 . S
C1658 C1661 1.499 . S
C1659 H1633 0.950 . S
C1659 C1658 1.414 . S
C1659 C1660 1.374 . S
C1660 H1634 0.950 . S
C1660 C1656 1.385 . S
C1660 C1659 1.374 . S
C1661 C1658 1.499 . S
C1661 C1662 1.373 . S
C1661 C1663 1.389 . S
C1662 H1635 0.950 . S
C1662 C1648 1.377 . S
C1662 C1661 1.373 . S
C1663 C1647 1.377 . S
C1663 C1661 1.389 . S
C1663 C1664 1.524 . S
C1664 C1663 1.524 . S
C1664 C1665 1.397 . S
C1664 C1669 1.363 . S
C1665 H1636 0.950 . S
C1665 C1664 1.397 . S
C1665 C1666 1.334 . S
C1666 H1637 0.950 . S
C1666 C1665 1.334 . S
C1666 C1667 1.287 . S
C1667 C1666 1.287 . S
C1667 C1668 1.524 . S
C1667 H1670 0.999 . S
C1668 H1638 0.950 . S
C1668 C1667 1.524 . S
C1668 C1669 1.415 . S
C1669 H1639 0.950 . S
C1669 C1664 1.363 . S
C1669 C1668 1.415 . S
H1670 C1667 0.999 . S
H1671 C1652 0.913 . S
H1672 C1690 0.951 . S
H1673 C1692 0.951 . S
H1674 C1694 0.950 . S
H1675 C1695 0.950 . S
H1676 C1697 0.950 . S
H1677 C1700 0.950 . S
H1678 C1701 0.950 . S
H1679 C1703 0.950 . S
H1680 C1704 0.950 . S
H1681 C1705 0.951 . S
H1682 C1707 0.951 . S
H1683 C1709 0.950 . S
H1684 C1710 0.950 . S
H1685 C1712 0.950 . S
H1686 C1715 0.950 . S
H1687 C1716 0.950 . S
H1688 C1718 0.950 . S
H1689 C1719 0.950 . S
C1690 H1672 0.951 . S
C1690 C1691 1.366 . S
C1690 C1692 1.388 . S
C1691 C1690 1.366 . S
C1691 C1695 1.385 . S
C1692 H1673 0.951 . S
C1692 C1690 1.388 . S
C1692 C1693 1.366 . S
C1693 C1692 1.366 . S
C1693 C1694 1.414 . S
C1693 C1696 1.499 . S
C1694 H1674 0.950 . S
C1694 C1693 1.414 . S
C1694 C1695 1.374 . S
C1695 H1675 0.950 . S
C1695 C1691 1.385 . S
C1695 C1694 1.374 . S
C1696 C1693 1.499 . S
C1696 C1697 1.373 . S
C1696 C1698 1.389 . S
C1697 H1676 0.950 . S
C1697 C1696 1.373 . S
C1697 C1713 1.377 1_545 S
C1698 C1696 1.389 . S
C1698 C1699 1.524 . S
C1698 C1712 1.377 . S
C1699 C1698 1.524 . S
C1699 C1700 1.397 . S
C1699 C1704 1.363 . S
C1700 H1677 0.950 . S
C1700 C1699 1.397 . S
C1700 C1701 1.334 . S
C1701 H1678 0.950 . S
C1701 C1700 1.334 . S
C1701 C1702 1.287 . S
C1702 C1701 1.287 . S
C1702 C1703 1.524 . S
C1702 H1721 0.913 . S
C1703 H1679 0.950 . S
C1703 C1702 1.524 . S
C1703 C1704 1.415 . S
C1704 H1680 0.950 . S
C1704 C1699 1.363 . S
C1704 C1703 1.415 . S
C1705 H1681 0.951 . S
C1705 C1706 1.366 . S
C1705 C1707 1.388 . S
C1706 C1705 1.366 . S
C1706 C1710 1.385 . S
C1707 H1682 0.951 . S
C1707 C1705 1.388 . S
C1707 C1708 1.366 . S
C1708 C1707 1.366 . S
C1708 C1709 1.414 . S
C1708 C1711 1.499 . S
C1709 H1683 0.950 . S
C1709 C1708 1.414 . S
C1709 C1710 1.374 . S
C1710 H1684 0.950 . S
C1710 C1706 1.385 . S
C1710 C1709 1.374 . S
C1711 C1708 1.499 . S
C1711 C1712 1.373 1_565 S
C1711 C1713 1.389 . S
C1712 H1685 0.950 . S
C1712 C1698 1.377 . S
C1712 C1711 1.373 1_545 S
C1713 C1697 1.377 1_565 S
C1713 C1711 1.389 . S
C1713 C1714 1.524 . S
C1714 C1713 1.524 . S
C1714 C1715 1.397 . S
C1714 C1719 1.363 . S
C1715 H1686 0.950 . S
C1715 C1714 1.397 . S
C1715 C1716 1.334 . S
C1716 H1687 0.950 . S
C1716 C1715 1.334 . S
C1716 C1717 1.287 . S
C1717 C1716 1.287 . S
C1717 C1718 1.524 . S
C1717 H1720 0.999 . S
C1718 H1688 0.950 . S
C1718 C1717 1.524 . S
C1718 C1719 1.415 . S
C1719 H1689 0.950 . S
C1719 C1714 1.363 . S
C1719 C1718 1.415 . S
H1720 C1717 0.999 . S
H1721 C1702 0.913 . S
H1722 C1740 0.951 . S
H1723 C1742 0.951 . S
H1724 C1744 0.950 . S
H1725 C1745 0.950 . S
H1726 C1747 0.950 . S
H1727 C1750 0.950 . S
H1728 C1751 0.950 . S
H1729 C1753 0.950 . S
H1730 C1754 0.950 . S
H1731 C1755 0.951 . S
H1732 C1757 0.951 . S
H1733 C1759 0.950 . S
H1734 C1760 0.950 . S
H1735 C1762 0.950 . S
H1736 C1765 0.950 . S
H1737 C1766 0.950 . S
H1738 C1768 0.950 . S
H1739 C1769 0.950 . S
C1740 H1722 0.951 . S
C1740 C1741 1.366 . S
C1740 C1742 1.388 . S
C1741 C1740 1.366 . S
C1741 C1745 1.385 . S
C1742 H1723 0.951 . S
C1742 C1740 1.388 . S
C1742 C1743 1.366 . S
C1743 C1742 1.366 . S
C1743 C1744 1.414 . S
C1743 C1746 1.499 . S
C1744 H1724 0.950 . S
C1744 C1743 1.414 . S
C1744 C1745 1.374 . S
C1745 H1725 0.950 . S
C1745 C1741 1.385 . S
C1745 C1744 1.374 . S
C1746 C1743 1.499 . S
C1746 C1747 1.373 . S
C1746 C1748 1.389 . S
C1747 H1726 0.950 . S
C1747 C1746 1.373 . S
C1747 C1763 1.377 . S
C1748 C1746 1.389 . S
C1748 C1749 1.524 . S
C1748 C1762 1.377 . S
C1749 C1748 1.524 . S
C1749 C1750 1.397 . S
C1749 C1754 1.363 . S
C1750 H1727 0.950 . S
C1750 C1749 1.397 . S
C1750 C1751 1.334 . S
C1751 H1728 0.950 . S
C1751 C1750 1.334 . S
C1751 C1752 1.287 . S
C1752 C1751 1.287 . S
C1752 C1753 1.524 . S
C1752 H1771 0.913 . S
C1753 H1729 0.950 . S
C1753 C1752 1.524 . S
C1753 C1754 1.415 . S
C1754 H1730 0.950 . S
C1754 C1749 1.363 . S
C1754 C1753 1.415 . S
C1755 H1731 0.951 . S
C1755 C1756 1.366 . S
C1755 C1757 1.388 . S
C1756 C1755 1.366 . S
C1756 C1760 1.385 . S
C1757 H1732 0.951 . S
C1757 C1755 1.388 . S
C1757 C1758 1.366 . S
C1758 C1757 1.366 . S
C1758 C1759 1.414 . S
C1758 C1761 1.499 . S
C1759 H1733 0.950 . S
C1759 C1758 1.414 . S
C1759 C1760 1.374 . S
C1760 H1734 0.950 . S
C1760 C1756 1.385 . S
C1760 C1759 1.374 . S
C1761 C1758 1.499 . S
C1761 C1762 1.373 . S
C1761 C1763 1.389 . S
C1762 H1735 0.950 . S
C1762 C1748 1.377 . S
C1762 C1761 1.373 . S
C1763 C1747 1.377 . S
C1763 C1761 1.389 . S
C1763 C1764 1.524 . S
C1764 C1763 1.524 . S
C1764 C1765 1.397 . S
C1764 C1769 1.363 . S
C1765 H1736 0.950 . S
C1765 C1764 1.397 . S
C1765 C1766 1.334 . S
C1766 H1737 0.950 . S
C1766 C1765 1.334 . S
C1766 C1767 1.287 . S
C1767 C1766 1.287 . S
C1767 C1768 1.524 . S
C1767 H1770 0.999 . S
C1768 H1738 0.950 . S
C1768 C1767 1.524 . S
C1768 C1769 1.415 . S
C1769 H1739 0.950 . S
C1769 C1764 1.363 . S
C1769 C1768 1.415 . S
H1770 C1767 0.999 . S
H1771 C1752 0.913 . S
H1772 C1790 0.951 . S
H1773 C1792 0.951 . S
H1774 C1794 0.950 . S
H1775 C1795 0.950 . S
H1776 C1797 0.950 . S
H1777 C1800 0.950 . S
H1778 C1801 0.950 . S
H1779 C1803 0.950 . S
H1780 C1804 0.950 . S
H1781 C1805 0.951 . S
H1782 C1807 0.951 . S
H1783 C1809 0.950 . S
H1784 C1810 0.950 . S
H1785 C1812 0.950 . S
H1786 C1815 0.950 . S
H1787 C1816 0.950 . S
H1788 C1818 0.950 . S
H1789 C1819 0.950 . S
C1790 H1772 0.951 . S
C1790 C1791 1.366 . S
C1790 C1792 1.388 . S
C1791 C1790 1.366 . S
C1791 C1795 1.385 . S
C1792 H1773 0.951 . S
C1792 C1790 1.388 . S
C1792 C1793 1.366 . S
C1793 C1792 1.366 . S
C1793 C1794 1.414 . S
C1793 C1796 1.499 . S
C1794 H1774 0.950 . S
C1794 C1793 1.414 . S
C1794 C1795 1.374 . S
C1795 H1775 0.950 . S
C1795 C1791 1.385 . S
C1795 C1794 1.374 . S
C1796 C1793 1.499 . S
C1796 C1797 1.373 . S
C1796 C1798 1.389 . S
C1797 H1776 0.950 . S
C1797 C1796 1.373 . S
C1797 C1813 1.377 . S
C1798 C1796 1.389 . S
C1798 C1799 1.524 . S
C1798 C1812 1.377 . S
C1799 C1798 1.524 . S
C1799 C1800 1.397 . S
C1799 C1804 1.363 . S
C1800 H1777 0.950 . S
C1800 C1799 1.397 . S
C1800 C1801 1.334 . S
C1801 H1778 0.950 . S
C1801 C1800 1.334 . S
C1801 C1802 1.287 . S
C1802 C1801 1.287 . S
C1802 C1803 1.524 . S
C1802 H1821 0.913 . S
C1803 H1779 0.950 . S
C1803 C1802 1.524 . S
C1803 C1804 1.415 . S
C1804 H1780 0.950 . S
C1804 C1799 1.363 . S
C1804 C1803 1.415 . S
C1805 H1781 0.951 . S
C1805 C1806 1.366 . S
C1805 C1807 1.388 . S
C1806 C1805 1.366 . S
C1806 C1810 1.385 . S
C1807 H1782 0.951 . S
C1807 C1805 1.388 . S
C1807 C1808 1.366 . S
C1808 C1807 1.366 . S
C1808 C1809 1.414 . S
C1808 C1811 1.499 . S
C1809 H1783 0.950 . S
C1809 C1808 1.414 . S
C1809 C1810 1.374 . S
C1810 H1784 0.950 . S
C1810 C1806 1.385 . S
C1810 C1809 1.374 . S
C1811 C1808 1.499 . S
C1811 C1812 1.373 . S
C1811 C1813 1.389 . S
C1812 H1785 0.950 . S
C1812 C1798 1.377 . S
C1812 C1811 1.373 . S
C1813 C1797 1.377 . S
C1813 C1811 1.389 . S
C1813 C1814 1.524 . S
C1814 C1813 1.524 . S
C1814 C1815 1.397 . S
C1814 C1819 1.363 . S
C1815 H1786 0.950 . S
C1815 C1814 1.397 . S
C1815 C1816 1.334 . S
C1816 H1787 0.950 . S
C1816 C1815 1.334 . S
C1816 C1817 1.287 . S
C1817 C1816 1.287 . S
C1817 C1818 1.524 . S
C1817 H1820 0.999 . S
C1818 H1788 0.950 . S
C1818 C1817 1.524 . S
C1818 C1819 1.415 . S
C1819 H1789 0.950 . S
C1819 C1814 1.363 . S
C1819 C1818 1.415 . S
H1820 C1817 0.999 . S
H1821 C1802 0.913 . S
H1822 C1840 0.951 . S
H1823 C1842 0.951 . S
H1824 C1844 0.950 . S
H1825 C1845 0.950 . S
H1826 C1847 0.950 . S
H1827 C1850 0.950 . S
H1828 C1851 0.950 . S
H1829 C1853 0.950 . S
H1830 C1854 0.950 . S
H1831 C1855 0.951 . S
H1832 C1857 0.951 . S
H1833 C1859 0.950 . S
H1834 C1860 0.950 . S
H1835 C1862 0.950 . S
H1836 C1865 0.950 . S
H1837 C1866 0.950 . S
H1838 C1868 0.950 . S
H1839 C1869 0.950 . S
C1840 H1822 0.951 . S
C1840 C1841 1.366 . S
C1840 C1842 1.388 . S
C1841 C1840 1.366 . S
C1841 C1845 1.385 . S
C1842 H1823 0.951 . S
C1842 C1840 1.388 . S
C1842 C1843 1.366 . S
C1843 C1842 1.366 . S
C1843 C1844 1.414 . S
C1843 C1846 1.499 . S
C1844 H1824 0.950 . S
C1844 C1843 1.414 . S
C1844 C1845 1.374 . S
C1845 H1825 0.950 . S
C1845 C1841 1.385 . S
C1845 C1844 1.374 . S
C1846 C1843 1.499 . S
C1846 C1847 1.373 . S
C1846 C1848 1.389 . S
C1847 H1826 0.950 . S
C1847 C1846 1.373 . S
C1847 C1863 1.377 . S
C1848 C1846 1.389 . S
C1848 C1849 1.524 . S
C1848 C1862 1.377 . S
C1849 C1848 1.524 . S
C1849 C1850 1.397 . S
C1849 C1854 1.363 . S
C1850 H1827 0.950 . S
C1850 C1849 1.397 . S
C1850 C1851 1.334 . S
C1851 H1828 0.950 . S
C1851 C1850 1.334 . S
C1851 C1852 1.287 . S
C1852 C1851 1.287 . S
C1852 C1853 1.524 . S
C1852 H1871 0.913 . S
C1853 H1829 0.950 . S
C1853 C1852 1.524 . S
C1853 C1854 1.415 . S
C1854 H1830 0.950 . S
C1854 C1849 1.363 . S
C1854 C1853 1.415 . S
C1855 H1831 0.951 . S
C1855 C1856 1.366 . S
C1855 C1857 1.388 . S
C1856 C1855 1.366 . S
C1856 C1860 1.385 . S
C1857 H1832 0.951 . S
C1857 C1855 1.388 . S
C1857 C1858 1.366 . S
C1858 C1857 1.366 . S
C1858 C1859 1.414 . S
C1858 C1861 1.499 . S
C1859 H1833 0.950 . S
C1859 C1858 1.414 . S
C1859 C1860 1.374 . S
C1860 H1834 0.950 . S
C1860 C1856 1.385 . S
C1860 C1859 1.374 . S
C1861 C1858 1.499 . S
C1861 C1862 1.373 . S
C1861 C1863 1.389 . S
C1862 H1835 0.950 . S
C1862 C1848 1.377 . S
C1862 C1861 1.373 . S
C1863 C1847 1.377 . S
C1863 C1861 1.389 . S
C1863 C1864 1.524 . S
C1864 C1863 1.524 . S
C1864 C1865 1.397 . S
C1864 C1869 1.363 . S
C1865 H1836 0.950 . S
C1865 C1864 1.397 . S
C1865 C1866 1.334 . S
C1866 H1837 0.950 . S
C1866 C1865 1.334 . S
C1866 C1867 1.287 . S
C1867 C1866 1.287 . S
C1867 C1868 1.524 . S
C1867 H1870 0.999 . S
C1868 H1838 0.950 . S
C1868 C1867 1.524 . S
C1868 C1869 1.415 . S
C1869 H1839 0.950 . S
C1869 C1864 1.363 . S
C1869 C1868 1.415 . S
H1870 C1867 0.999 . S
H1871 C1852 0.913 . S
H1872 C1890 0.951 . S
H1873 C1892 0.951 . S
H1874 C1894 0.950 . S
H1875 C1895 0.950 . S
H1876 C1897 0.950 . S
H1877 C1900 0.950 . S
H1878 C1901 0.950 . S
H1879 C1903 0.950 . S
H1880 C1904 0.950 . S
H1881 C1905 0.951 . S
H1882 C1907 0.951 . S
H1883 C1909 0.950 . S
H1884 C1910 0.950 . S
H1885 C1912 0.950 . S
H1886 C1915 0.950 . S
H1887 C1916 0.950 . S
H1888 C1918 0.950 . S
H1889 C1919 0.950 . S
C1890 H1872 0.951 . S
C1890 C1891 1.366 . S
C1890 C1892 1.388 . S
C1891 C1890 1.366 . S
C1891 C1895 1.385 . S
C1892 H1873 0.951 . S
C1892 C1890 1.388 . S
C1892 C1893 1.366 . S
C1893 C1892 1.366 . S
C1893 C1894 1.414 . S
C1893 C1896 1.499 . S
C1894 H1874 0.950 . S
C1894 C1893 1.414 . S
C1894 C1895 1.374 . S
C1895 H1875 0.950 . S
C1895 C1891 1.385 . S
C1895 C1894 1.374 . S
C1896 C1893 1.499 . S
C1896 C1897 1.373 . S
C1896 C1898 1.389 . S
C1897 H1876 0.950 . S
C1897 C1896 1.373 . S
C1897 C1913 1.377 . S
C1898 C1896 1.389 . S
C1898 C1899 1.524 . S
C1898 C1912 1.377 . S
C1899 C1898 1.524 . S
C1899 C1900 1.397 . S
C1899 C1904 1.363 . S
C1900 H1877 0.950 . S
C1900 C1899 1.397 . S
C1900 C1901 1.334 . S
C1901 H1878 0.950 . S
C1901 C1900 1.334 . S
C1901 C1902 1.287 . S
C1902 C1901 1.287 . S
C1902 C1903 1.524 . S
C1902 H1921 0.913 . S
C1903 H1879 0.950 . S
C1903 C1902 1.524 . S
C1903 C1904 1.415 . S
C1904 H1880 0.950 . S
C1904 C1899 1.363 . S
C1904 C1903 1.415 . S
C1905 H1881 0.951 . S
C1905 C1906 1.366 . S
C1905 C1907 1.388 . S
C1906 C1905 1.366 . S
C1906 C1910 1.385 . S
C1907 H1882 0.951 . S
C1907 C1905 1.388 . S
C1907 C1908 1.366 . S
C1908 C1907 1.366 . S
C1908 C1909 1.414 . S
C1908 C1911 1.499 . S
C1909 H1883 0.950 . S
C1909 C1908 1.414 . S
C1909 C1910 1.374 . S
C1910 H1884 0.950 . S
C1910 C1906 1.385 . S
C1910 C1909 1.374 . S
C1911 C1908 1.499 . S
C1911 C1912 1.373 . S
C1911 C1913 1.389 . S
C1912 H1885 0.950 . S
C1912 C1898 1.377 . S
C1912 C1911 1.373 . S
C1913 C1897 1.377 . S
C1913 C1911 1.389 . S
C1913 C1914 1.524 . S
C1914 C1913 1.524 . S
C1914 C1915 1.397 . S
C1914 C1919 1.363 . S
C1915 H1886 0.950 . S
C1915 C1914 1.397 . S
C1915 C1916 1.334 . S
C1916 H1887 0.950 . S
C1916 C1915 1.334 . S
C1916 C1917 1.287 . S
C1917 C1916 1.287 . S
C1917 C1918 1.524 . S
C1917 H1920 0.999 . S
C1918 H1888 0.950 . S
C1918 C1917 1.524 . S
C1918 C1919 1.415 . S
C1919 H1889 0.950 . S
C1919 C1914 1.363 . S
C1919 C1918 1.415 . S
H1920 C1917 0.999 . S
H1921 C1902 0.913 . S
H1922 C1940 0.951 . S
H1923 C1942 0.951 . S
H1924 C1944 0.950 . S
H1925 C1945 0.950 . S
H1926 C1947 0.950 . S
H1927 C1950 0.950 . S
H1928 C1951 0.950 . S
H1929 C1953 0.950 . S
H1930 C1954 0.950 . S
H1931 C1955 0.951 . S
H1932 C1957 0.951 . S
H1933 C1959 0.950 . S
H1934 C1960 0.950 . S
H1935 C1962 0.950 . S
H1936 C1965 0.950 . S
H1937 C1966 0.950 . S
H1938 C1968 0.950 . S
H1939 C1969 0.950 . S
C1940 H1922 0.951 . S
C1940 C1941 1.366 . S
C1940 C1942 1.388 . S
C1941 C1940 1.366 . S
C1941 C1945 1.385 . S
C1942 H1923 0.951 . S
C1942 C1940 1.388 . S
C1942 C1943 1.366 . S
C1943 C1942 1.366 . S
C1943 C1944 1.414 . S
C1943 C1946 1.499 . S
C1944 H1924 0.950 . S
C1944 C1943 1.414 . S
C1944 C1945 1.374 . S
C1945 H1925 0.950 . S
C1945 C1941 1.385 . S
C1945 C1944 1.374 . S
C1946 C1943 1.499 . S
C1946 C1947 1.373 . S
C1946 C1948 1.389 . S
C1947 H1926 0.950 . S
C1947 C1946 1.373 . S
C1947 C1963 1.377 . S
C1948 C1946 1.389 . S
C1948 C1949 1.524 . S
C1948 C1962 1.377 . S
C1949 C1948 1.524 . S
C1949 C1950 1.397 . S
C1949 C1954 1.363 . S
C1950 H1927 0.950 . S
C1950 C1949 1.397 . S
C1950 C1951 1.334 . S
C1951 H1928 0.950 . S
C1951 C1950 1.334 . S
C1951 C1952 1.287 . S
C1952 C1951 1.287 . S
C1952 C1953 1.524 . S
C1952 H1971 0.913 . S
C1953 H1929 0.950 . S
C1953 C1952 1.524 . S
C1953 C1954 1.415 . S
C1954 H1930 0.950 . S
C1954 C1949 1.363 . S
C1954 C1953 1.415 . S
C1955 H1931 0.951 . S
C1955 C1956 1.366 . S
C1955 C1957 1.388 . S
C1956 C1955 1.366 . S
C1956 C1960 1.385 . S
C1957 H1932 0.951 . S
C1957 C1955 1.388 . S
C1957 C1958 1.366 . S
C1958 C1957 1.366 . S
C1958 C1959 1.414 . S
C1958 C1961 1.499 . S
C1959 H1933 0.950 . S
C1959 C1958 1.414 . S
C1959 C1960 1.374 . S
C1960 H1934 0.950 . S
C1960 C1956 1.385 . S
C1960 C1959 1.374 . S
C1961 C1958 1.499 . S
C1961 C1962 1.373 . S
C1961 C1963 1.389 . S
C1962 H1935 0.950 . S
C1962 C1948 1.377 . S
C1962 C1961 1.373 . S
C1963 C1947 1.377 . S
C1963 C1961 1.389 . S
C1963 C1964 1.524 . S
C1964 C1963 1.524 . S
C1964 C1965 1.397 . S
C1964 C1969 1.363 . S
C1965 H1936 0.950 . S
C1965 C1964 1.397 . S
C1965 C1966 1.334 . S
C1966 H1937 0.950 . S
C1966 C1965 1.334 . S
C1966 C1967 1.287 . S
C1967 C1966 1.287 . S
C1967 C1968 1.524 . S
C1967 H1970 0.999 . S
C1968 H1938 0.950 . S
C1968 C1967 1.524 . S
C1968 C1969 1.415 . S
C1969 H1939 0.950 . S
C1969 C1964 1.363 . S
C1969 C1968 1.415 . S
H1970 C1967 0.999 . S
H1971 C1952 0.913 . S
H1972 C1990 0.951 . S
H1973 C1992 0.951 . S
H1974 C1994 0.950 . S
H1975 C1995 0.950 . S
H1976 C1997 0.950 . S
H1977 C2000 0.950 . S
H1978 C2001 0.950 . S
H1979 C2003 0.950 . S
H1980 C2004 0.950 . S
H1981 C2005 0.951 . S
H1982 C2007 0.951 . S
H1983 C2009 0.950 . S
H1984 C2010 0.950 . S
H1985 C2012 0.950 . S
H1986 C2015 0.950 . S
H1987 C2016 0.950 . S
H1988 C2018 0.950 . S
H1989 C2019 0.950 . S
C1990 H1972 0.951 . S
C1990 C1991 1.366 . S
C1990 C1992 1.388 . S
C1991 C1990 1.366 . S
C1991 C1995 1.385 . S
C1992 H1973 0.951 . S
C1992 C1990 1.388 . S
C1992 C1993 1.366 . S
C1993 C1992 1.366 . S
C1993 C1994 1.414 . S
C1993 C1996 1.499 . S
C1994 H1974 0.950 . S
C1994 C1993 1.414 . S
C1994 C1995 1.374 . S
C1995 H1975 0.950 . S
C1995 C1991 1.385 . S
C1995 C1994 1.374 . S
C1996 C1993 1.499 . S
C1996 C1997 1.373 . S
C1996 C1998 1.389 . S
C1997 H1976 0.950 . S
C1997 C1996 1.373 . S
C1997 C2013 1.377 . S
C1998 C1996 1.389 . S
C1998 C1999 1.524 . S
C1998 C2012 1.377 . S
C1999 C1998 1.524 . S
C1999 C2000 1.397 . S
C1999 C2004 1.363 . S
C2000 H1977 0.950 . S
C2000 C1999 1.397 . S
C2000 C2001 1.334 . S
C2001 H1978 0.950 . S
C2001 C2000 1.334 . S
C2001 C2002 1.287 . S
C2002 C2001 1.287 . S
C2002 C2003 1.524 . S
C2002 H2021 0.913 . S
C2003 H1979 0.950 . S
C2003 C2002 1.524 . S
C2003 C2004 1.415 . S
C2004 H1980 0.950 . S
C2004 C1999 1.363 . S
C2004 C2003 1.415 . S
C2005 H1981 0.951 . S
C2005 C2006 1.366 . S
C2005 C2007 1.388 . S
C2006 C2005 1.366 . S
C2006 C2010 1.385 . S
C2007 H1982 0.951 . S
C2007 C2005 1.388 . S
C2007 C2008 1.366 . S
C2008 C2007 1.366 . S
C2008 C2009 1.414 . S
C2008 C2011 1.499 . S
C2009 H1983 0.950 . S
C2009 C2008 1.414 . S
C2009 C2010 1.374 . S
C2010 H1984 0.950 . S
C2010 C2006 1.385 . S
C2010 C2009 1.374 . S
C2011 C2008 1.499 . S
C2011 C2012 1.373 . S
C2011 C2013 1.389 . S
C2012 H1985 0.950 . S
C2012 C1998 1.377 . S
C2012 C2011 1.373 . S
C2013 C1997 1.377 . S
C2013 C2011 1.389 . S
C2013 C2014 1.524 . S
C2014 C2013 1.524 . S
C2014 C2015 1.397 . S
C2014 C2019 1.363 . S
C2015 H1986 0.950 . S
C2015 C2014 1.397 . S
C2015 C2016 1.334 . S
C2016 H1987 0.950 . S
C2016 C2015 1.334 . S
C2016 C2017 1.287 . S
C2017 C2016 1.287 . S
C2017 C2018 1.524 . S
C2017 H2020 0.999 . S
C2018 H1988 0.950 . S
C2018 C2017 1.524 . S
C2018 C2019 1.415 . S
C2019 H1989 0.950 . S
C2019 C2014 1.363 . S
C2019 C2018 1.415 . S
H2020 C2017 0.999 . S
H2021 C2002 0.913 . S
H2022 C2040 0.951 . S
H2023 C2042 0.951 1_565 S
H2024 C2044 0.950 . S
H2025 C2045 0.950 . S
H2026 C2047 0.950 . S
H2027 C2050 0.969 . S
H2028 C2051 0.950 . S
H2029 C2053 0.950 . S
H2030 C2054 0.950 . S
H2031 C2055 0.951 . S
H2032 C2057 0.951 . S
H2033 C2059 0.950 . S
H2034 C2060 0.950 . S
H2035 C2062 0.950 . S
H2036 C2065 0.950 . S
H2037 C2066 0.950 . S
H2038 C2068 0.950 . S
H2039 C2069 0.950 . S
C2040 H2022 0.951 . S
C2040 C2041 1.366 . S
C2040 C2042 1.388 . S
C2041 C2040 1.366 . S
C2041 C2045 1.385 . S
C2042 H2023 0.951 1_545 S
C2042 C2040 1.388 . S
C2042 C2043 1.366 1_545 S
C2043 C2042 1.366 1_565 S
C2043 C2044 1.414 1_565 S
C2043 C2046 1.499 . S
C2044 H2024 0.950 . S
C2044 C2043 1.414 1_545 S
C2044 C2045 1.374 . S
C2045 H2025 0.950 . S
C2045 C2041 1.385 . S
C2045 C2044 1.374 . S
C2046 C2043 1.499 . S
C2046 C2047 1.373 . S
C2046 C2048 1.389 . S
C2047 H2026 0.950 . S
C2047 C2046 1.373 . S
C2047 C2063 1.377 . S
C2048 C2046 1.389 . S
C2048 C2049 1.524 . S
C2048 C2062 1.377 . S
C2049 C2048 1.524 . S
C2049 C2050 1.397 . S
C2049 C2054 1.363 . S
C2050 H2027 0.969 . S
C2050 C2049 1.397 . S
C2050 C2051 1.334 1_565 S
C2051 H2028 0.950 . S
C2051 C2050 1.334 1_545 S
C2051 C2052 1.287 . S
C2052 C2051 1.287 . S
C2052 C2053 1.524 1_545 S
C2052 H2071 0.913 . S
C2053 H2029 0.950 . S
C2053 C2052 1.524 1_565 S
C2053 C2054 1.415 . S
C2054 H2030 0.950 . S
C2054 C2049 1.363 . S
C2054 C2053 1.415 . S
C2055 H2031 0.951 . S
C2055 C2056 1.366 . S
C2055 C2057 1.388 . S
C2056 C2055 1.366 . S
C2056 C2060 1.385 . S
C2057 H2032 0.951 . S
C2057 C2055 1.388 . S
C2057 C2058 1.366 . S
C2058 C2057 1.366 . S
C2058 C2059 1.414 . S
C2058 C2061 1.499 . S
C2059 H2033 0.950 . S
C2059 C2058 1.414 . S
C2059 C2060 1.374 . S
C2060 H2034 0.950 . S
C2060 C2056 1.385 . S
C2060 C2059 1.374 . S
C2061 C2058 1.499 . S
C2061 C2062 1.373 . S
C2061 C2063 1.389 . S
C2062 H2035 0.950 . S
C2062 C2048 1.377 . S
C2062 C2061 1.373 . S
C2063 C2047 1.377 . S
C2063 C2061 1.389 . S
C2063 C2064 1.524 . S
C2064 C2063 1.524 . S
C2064 C2065 1.397 . S
C2064 C2069 1.363 . S
C2065 H2036 0.950 . S
C2065 C2064 1.397 . S
C2065 C2066 1.334 . S
C2066 H2037 0.950 . S
C2066 C2065 1.334 . S
C2066 C2067 1.287 . S
C2067 C2066 1.287 . S
C2067 C2068 1.524 . S
C2067 H2070 0.999 . S
C2068 H2038 0.950 . S
C2068 C2067 1.524 . S
C2068 C2069 1.415 . S
C2069 H2039 0.950 . S
C2069 C2064 1.363 . S
C2069 C2068 1.415 . S
H2070 C2067 0.999 . S
H2071 C2052 0.913 . S
H2072 C2090 0.951 . S
H2073 C2092 0.951 . S
H2074 C2094 0.950 . S
H2075 C2095 0.950 . S
H2076 C2097 0.950 . S
H2077 C2100 0.950 . S
H2078 C2101 0.950 . S
H2079 C2103 0.950 . S
H2080 C2104 0.950 . S
H2081 C2105 0.951 . S
H2082 C2107 0.951 . S
H2083 C2109 0.950 . S
H2084 C2110 0.950 . S
H2085 C2112 0.950 . S
H2086 C2115 0.950 . S
H2087 C2116 0.950 . S
H2088 C2118 0.950 . S
H2089 C2119 0.950 . S
C2090 H2072 0.951 . S
C2090 C2091 1.366 . S
C2090 C2092 1.388 1_655 S
C2091 C2090 1.366 . S
C2091 C2095 1.385 . S
C2092 H2073 0.951 . S
C2092 C2090 1.388 1_455 S
C2092 C2093 1.366 . S
C2093 C2092 1.366 . S
C2093 C2094 1.414 . S
C2093 C2096 1.499 . S
C2094 H2074 0.950 . S
C2094 C2093 1.414 . S
C2094 C2095 1.374 1_455 S
C2095 H2075 0.950 . S
C2095 C2091 1.385 . S
C2095 C2094 1.374 1_655 S
C2096 C2093 1.499 . S
C2096 C2097 1.373 . S
C2096 C2098 1.389 . S
C2097 H2076 0.950 . S
C2097 C2096 1.373 . S
C2097 C2113 1.377 . S
C2098 C2096 1.389 . S
C2098 C2099 1.524 . S
C2098 C2112 1.377 . S
C2099 C2098 1.524 . S
C2099 C2100 1.397 . S
C2099 C2104 1.363 . S
C2100 H2077 0.950 . S
C2100 C2099 1.397 . S
C2100 C2101 1.334 1_455 S
C2101 H2078 0.950 . S
C2101 C2100 1.334 1_655 S
C2101 C2102 1.287 . S
C2102 C2101 1.287 . S
C2102 C2103 1.524 1_655 S
C2102 H2121 0.913 . S
C2103 H2079 0.950 . S
C2103 C2102 1.524 1_455 S
C2103 C2104 1.415 . S
C2104 H2080 0.950 . S
C2104 C2099 1.363 . S
C2104 C2103 1.415 . S
C2105 H2081 0.951 . S
C2105 C2106 1.366 . S
C2105 C2107 1.388 . S
C2106 C2105 1.366 . S
C2106 C2110 1.385 . S
C2107 H2082 0.951 . S
C2107 C2105 1.388 . S
C2107 C2108 1.366 . S
C2108 C2107 1.366 . S
C2108 C2109 1.414 . S
C2108 C2111 1.499 . S
C2109 H2083 0.950 . S
C2109 C2108 1.414 . S
C2109 C2110 1.374 . S
C2110 H2084 0.950 . S
C2110 C2106 1.385 . S
C2110 C2109 1.374 . S
C2111 C2108 1.499 . S
C2111 C2112 1.373 . S
C2111 C2113 1.389 . S
C2112 H2085 0.950 . S
C2112 C2098 1.377 . S
C2112 C2111 1.373 . S
C2113 C2097 1.377 . S
C2113 C2111 1.389 . S
C2113 C2114 1.524 . S
C2114 C2113 1.524 . S
C2114 C2115 1.397 . S
C2114 C2119 1.363 . S
C2115 H2086 0.950 . S
C2115 C2114 1.397 . S
C2115 C2116 1.334 . S
C2116 H2087 0.950 . S
C2116 C2115 1.334 . S
C2116 C2117 1.287 . S
C2117 C2116 1.287 . S
C2117 C2118 1.524 . S
C2117 H2120 0.999 . S
C2118 H2088 0.950 . S
C2118 C2117 1.524 . S
C2118 C2119 1.415 . S
C2119 H2089 0.950 . S
C2119 C2114 1.363 . S
C2119 C2118 1.415 . S
H2120 C2117 0.999 . S
H2121 C2102 0.913 . S
H2122 C2140 0.951 . S
H2123 C2142 0.951 . S
H2124 C2144 0.950 . S
H2125 C2145 0.950 . S
H2126 C2147 0.950 . S
H2127 C2150 0.950 . S
H2128 C2151 0.950 . S
H2129 C2153 0.950 . S
H2130 C2154 0.950 . S
H2131 C2155 0.951 . S
H2132 C2157 0.951 . S
H2133 C2159 0.950 . S
H2134 C2160 0.950 . S
H2135 C2162 0.950 . S
H2136 C2165 0.950 . S
H2137 C2166 0.950 . S
H2138 C2168 0.950 . S
H2139 C2169 0.950 . S
C2140 H2122 0.951 . S
C2140 C2141 1.366 . S
C2140 C2142 1.388 . S
C2141 C2140 1.366 . S
C2141 C2145 1.385 . S
C2142 H2123 0.951 . S
C2142 C2140 1.388 . S
C2142 C2143 1.366 . S
C2143 C2142 1.366 . S
C2143 C2144 1.414 . S
C2143 C2146 1.499 . S
C2144 H2124 0.950 . S
C2144 C2143 1.414 . S
C2144 C2145 1.374 . S
C2145 H2125 0.950 . S
C2145 C2141 1.385 . S
C2145 C2144 1.374 . S
C2146 C2143 1.499 . S
C2146 C2147 1.373 . S
C2146 C2148 1.389 . S
C2147 H2126 0.950 . S
C2147 C2146 1.373 . S
C2147 C2163 1.377 . S
C2148 C2146 1.389 . S
C2148 C2149 1.524 . S
C2148 C2162 1.377 . S
C2149 C2148 1.524 . S
C2149 C2150 1.397 . S
C2149 C2154 1.363 . S
C2150 H2127 0.950 . S
C2150 C2149 1.397 . S
C2150 C2151 1.334 . S
C2151 H2128 0.950 . S
C2151 C2150 1.334 . S
C2151 C2152 1.287 . S
C2152 C2151 1.287 . S
C2152 C2153 1.524 . S
C2152 H2171 0.913 . S
C2153 H2129 0.950 . S
C2153 C2152 1.524 . S
C2153 C2154 1.415 . S
C2154 H2130 0.950 . S
C2154 C2149 1.363 . S
C2154 C2153 1.415 . S
C2155 H2131 0.951 . S
C2155 C2156 1.366 . S
C2155 C2157 1.388 . S
C2156 C2155 1.366 . S
C2156 C2160 1.385 . S
C2157 H2132 0.951 . S
C2157 C2155 1.388 . S
C2157 C2158 1.366 . S
C2158 C2157 1.366 . S
C2158 C2159 1.414 . S
C2158 C2161 1.499 . S
C2159 H2133 0.950 . S
C2159 C2158 1.414 . S
C2159 C2160 1.374 . S
C2160 H2134 0.950 . S
C2160 C2156 1.385 . S
C2160 C2159 1.374 . S
C2161 C2158 1.499 . S
C2161 C2162 1.373 . S
C2161 C2163 1.389 . S
C2162 H2135 0.950 . S
C2162 C2148 1.377 . S
C2162 C2161 1.373 . S
C2163 C2147 1.377 . S
C2163 C2161 1.389 . S
C2163 C2164 1.524 . S
C2164 C2163 1.524 . S
C2164 C2165 1.397 . S
C2164 C2169 1.363 . S
C2165 H2136 0.950 . S
C2165 C2164 1.397 . S
C2165 C2166 1.334 . S
C2166 H2137 0.950 . S
C2166 C2165 1.334 . S
C2166 C2167 1.287 . S
C2167 C2166 1.287 . S
C2167 C2168 1.524 . S
C2167 H2170 0.999 . S
C2168 H2138 0.950 . S
C2168 C2167 1.524 . S
C2168 C2169 1.415 . S
C2169 H2139 0.950 . S
C2169 C2164 1.363 . S
C2169 C2168 1.415 . S
H2170 C2167 0.999 . S
H2171 C2152 0.913 . S
H2172 C2190 0.951 . S
H2173 C2192 0.951 . S
H2174 C2194 0.950 . S
H2175 C2195 0.950 . S
H2176 C2197 0.950 . S
H2177 C2200 0.950 . S
H2178 C2201 0.950 . S
H2179 C2203 0.950 . S
H2180 C2204 0.950 . S
H2181 C2205 0.951 . S
H2182 C2207 0.951 . S
H2183 C2209 0.950 . S
H2184 C2210 0.950 . S
H2185 C2212 0.950 . S
H2186 C2215 0.950 . S
H2187 C2216 0.950 . S
H2188 C2218 0.950 . S
H2189 C2219 0.950 . S
C2190 H2172 0.951 . S
C2190 C2191 1.366 . S
C2190 C2192 1.388 . S
C2191 C2190 1.366 . S
C2191 C2195 1.385 . S
C2192 H2173 0.951 . S
C2192 C2190 1.388 . S
C2192 C2193 1.366 . S
C2193 C2192 1.366 . S
C2193 C2194 1.414 . S
C2193 C2196 1.499 . S
C2194 H2174 0.950 . S
C2194 C2193 1.414 . S
C2194 C2195 1.374 . S
C2195 H2175 0.950 . S
C2195 C2191 1.385 . S
C2195 C2194 1.374 . S
C2196 C2193 1.499 . S
C2196 C2197 1.373 . S
C2196 C2198 1.389 . S
C2197 H2176 0.950 . S
C2197 C2196 1.373 . S
C2197 C2213 1.377 . S
C2198 C2196 1.389 . S
C2198 C2199 1.524 . S
C2198 C2212 1.377 . S
C2199 C2198 1.524 . S
C2199 C2200 1.397 . S
C2199 C2204 1.363 . S
C2200 H2177 0.950 . S
C2200 C2199 1.397 . S
C2200 C2201 1.334 . S
C2201 H2178 0.950 . S
C2201 C2200 1.334 . S
C2201 C2202 1.287 . S
C2202 C2201 1.287 . S
C2202 C2203 1.524 . S
C2202 H2221 0.913 . S
C2203 H2179 0.950 . S
C2203 C2202 1.524 . S
C2203 C2204 1.415 . S
C2204 H2180 0.950 . S
C2204 C2199 1.363 . S
C2204 C2203 1.415 . S
C2205 H2181 0.951 . S
C2205 C2206 1.366 . S
C2205 C2207 1.388 . S
C2206 C2205 1.366 . S
C2206 C2210 1.385 . S
C2207 H2182 0.951 . S
C2207 C2205 1.388 . S
C2207 C2208 1.366 . S
C2208 C2207 1.366 . S
C2208 C2209 1.414 . S
C2208 C2211 1.499 . S
C2209 H2183 0.950 . S
C2209 C2208 1.414 . S
C2209 C2210 1.374 . S
C2210 H2184 0.950 . S
C2210 C2206 1.385 . S
C2210 C2209 1.374 . S
C2211 C2208 1.499 . S
C2211 C2212 1.373 . S
C2211 C2213 1.389 . S
C2212 H2185 0.950 . S
C2212 C2198 1.377 . S
C2212 C2211 1.373 . S
C2213 C2197 1.377 . S
C2213 C2211 1.389 . S
C2213 C2214 1.524 . S
C2214 C2213 1.524 . S
C2214 C2215 1.397 . S
C2214 C2219 1.363 . S
C2215 H2186 0.950 . S
C2215 C2214 1.397 . S
C2215 C2216 1.334 . S
C2216 H2187 0.950 . S
C2216 C2215 1.334 . S
C2216 C2217 1.287 . S
C2217 C2216 1.287 . S
C2217 C2218 1.524 . S
C2217 H2220 0.999 . S
C2218 H2188 0.950 . S
C2218 C2217 1.524 . S
C2218 C2219 1.415 . S
C2219 H2189 0.950 . S
C2219 C2214 1.363 . S
C2219 C2218 1.415 . S
H2220 C2217 0.999 . S
H2221 C2202 0.913 . S
H2222 C2240 0.951 . S
H2223 C2242 0.951 . S
H2224 C2244 0.950 . S
H2225 C2245 0.950 . S
H2226 C2247 0.950 . S
H2227 C2250 0.950 . S
H2228 C2251 0.950 . S
H2229 C2253 0.950 . S
H2230 C2254 0.950 . S
H2231 C2255 0.951 . S
H2232 C2257 0.951 . S
H2233 C2259 0.950 . S
H2234 C2260 0.950 . S
H2235 C2262 0.950 . S
H2236 C2265 0.950 . S
H2237 C2266 0.950 . S
H2238 C2268 0.950 . S
H2239 C2269 0.950 . S
C2240 H2222 0.951 . S
C2240 C2241 1.366 . S
C2240 C2242 1.388 . S
C2241 C2240 1.366 . S
C2241 C2245 1.385 . S
C2242 H2223 0.951 . S
C2242 C2240 1.388 . S
C2242 C2243 1.366 . S
C2243 C2242 1.366 . S
C2243 C2244 1.414 . S
C2243 C2246 1.499 . S
C2244 H2224 0.950 . S
C2244 C2243 1.414 . S
C2244 C2245 1.374 . S
C2245 H2225 0.950 . S
C2245 C2241 1.385 . S
C2245 C2244 1.374 . S
C2246 C2243 1.499 . S
C2246 C2247 1.373 . S
C2246 C2248 1.389 . S
C2247 H2226 0.950 . S
C2247 C2246 1.373 . S
C2247 C2263 1.377 . S
C2248 C2246 1.389 . S
C2248 C2249 1.524 . S
C2248 C2262 1.377 . S
C2249 C2248 1.524 . S
C2249 C2250 1.397 . S
C2249 C2254 1.363 . S
C2250 H2227 0.950 . S
C2250 C2249 1.397 . S
C2250 C2251 1.334 . S
C2251 H2228 0.950 . S
C2251 C2250 1.334 . S
C2251 C2252 1.287 . S
C2252 C2251 1.287 . S
C2252 C2253 1.524 . S
C2252 H2271 0.913 . S
C2253 H2229 0.950 . S
C2253 C2252 1.524 . S
C2253 C2254 1.415 . S
C2254 H2230 0.950 . S
C2254 C2249 1.363 . S
C2254 C2253 1.415 . S
C2255 H2231 0.951 . S
C2255 C2256 1.366 . S
C2255 C2257 1.388 . S
C2256 C2255 1.366 . S
C2256 C2260 1.385 . S
C2257 H2232 0.951 . S
C2257 C2255 1.388 . S
C2257 C2258 1.366 . S
C2258 C2257 1.366 . S
C2258 C2259 1.414 . S
C2258 C2261 1.499 . S
C2259 H2233 0.950 . S
C2259 C2258 1.414 . S
C2259 C2260 1.374 . S
C2260 H2234 0.950 . S
C2260 C2256 1.385 . S
C2260 C2259 1.374 . S
C2261 C2258 1.499 . S
C2261 C2262 1.373 . S
C2261 C2263 1.389 . S
C2262 H2235 0.950 . S
C2262 C2248 1.377 . S
C2262 C2261 1.373 . S
C2263 C2247 1.377 . S
C2263 C2261 1.389 . S
C2263 C2264 1.524 . S
C2264 C2263 1.524 . S
C2264 C2265 1.397 . S
C2264 C2269 1.363 . S
C2265 H2236 0.950 . S
C2265 C2264 1.397 . S
C2265 C2266 1.334 . S
C2266 H2237 0.950 . S
C2266 C2265 1.334 . S
C2266 C2267 1.287 . S
C2267 C2266 1.287 . S
C2267 C2268 1.524 . S
C2267 H2270 0.999 . S
C2268 H2238 0.950 . S
C2268 C2267 1.524 . S
C2268 C2269 1.415 . S
C2269 H2239 0.950 . S
C2269 C2264 1.363 . S
C2269 C2268 1.415 . S
H2270 C2267 0.999 . S
H2271 C2252 0.913 . S
H2272 C2290 0.951 . S
H2273 C2292 0.951 . S
H2274 C2294 0.950 . S
H2275 C2295 0.950 . S
H2276 C2297 0.950 . S
H2277 C2300 0.950 . S
H2278 C2301 0.950 . S
H2279 C2303 0.950 . S
H2280 C2304 0.950 . S
H2281 C2305 0.951 . S
H2282 C2307 0.951 . S
H2283 C2309 0.950 . S
H2284 C2310 0.950 . S
H2285 C2312 0.950 . S
H2286 C2315 0.950 . S
H2287 C2316 0.950 . S
H2288 C2318 0.950 . S
H2289 C2319 0.950 . S
C2290 H2272 0.951 . S
C2290 C2291 1.366 . S
C2290 C2292 1.388 . S
C2291 C2290 1.366 . S
C2291 C2295 1.385 . S
C2292 H2273 0.951 . S
C2292 C2290 1.388 . S
C2292 C2293 1.366 . S
C2293 C2292 1.366 . S
C2293 C2294 1.414 . S
C2293 C2296 1.499 . S
C2294 H2274 0.950 . S
C2294 C2293 1.414 . S
C2294 C2295 1.374 . S
C2295 H2275 0.950 . S
C2295 C2291 1.385 . S
C2295 C2294 1.374 . S
C2296 C2293 1.499 . S
C2296 C2297 1.373 . S
C2296 C2298 1.389 . S
C2297 H2276 0.950 . S
C2297 C2296 1.373 . S
C2297 C2313 1.377 . S
C2298 C2296 1.389 . S
C2298 C2299 1.524 . S
C2298 C2312 1.377 . S
C2299 C2298 1.524 . S
C2299 C2300 1.397 . S
C2299 C2304 1.363 . S
C2300 H2277 0.950 . S
C2300 C2299 1.397 . S
C2300 C2301 1.334 . S
C2301 H2278 0.950 . S
C2301 C2300 1.334 . S
C2301 C2302 1.287 . S
C2302 C2301 1.287 . S
C2302 C2303 1.524 . S
C2302 H2321 0.913 . S
C2303 H2279 0.950 . S
C2303 C2302 1.524 . S
C2303 C2304 1.415 . S
C2304 H2280 0.950 . S
C2304 C2299 1.363 . S
C2304 C2303 1.415 . S
C2305 H2281 0.951 . S
C2305 C2306 1.366 . S
C2305 C2307 1.388 . S
C2306 C2305 1.366 . S
C2306 C2310 1.385 . S
C2307 H2282 0.951 . S
C2307 C2305 1.388 . S
C2307 C2308 1.366 . S
C2308 C2307 1.366 . S
C2308 C2309 1.414 . S
C2308 C2311 1.499 . S
C2309 H2283 0.950 . S
C2309 C2308 1.414 . S
C2309 C2310 1.374 . S
C2310 H2284 0.950 . S
C2310 C2306 1.385 . S
C2310 C2309 1.374 . S
C2311 C2308 1.499 . S
C2311 C2312 1.373 . S
C2311 C2313 1.389 . S
C2312 H2285 0.950 . S
C2312 C2298 1.377 . S
C2312 C2311 1.373 . S
C2313 C2297 1.377 . S
C2313 C2311 1.389 . S
C2313 C2314 1.524 . S
C2314 C2313 1.524 . S
C2314 C2315 1.397 . S
C2314 C2319 1.363 . S
C2315 H2286 0.950 . S
C2315 C2314 1.397 . S
C2315 C2316 1.334 . S
C2316 H2287 0.950 . S
C2316 C2315 1.334 . S
C2316 C2317 1.287 . S
C2317 C2316 1.287 . S
C2317 C2318 1.524 . S
C2317 H2320 0.999 . S
C2318 H2288 0.950 . S
C2318 C2317 1.524 . S
C2318 C2319 1.415 . S
C2319 H2289 0.950 . S
C2319 C2314 1.363 . S
C2319 C2318 1.415 . S
H2320 C2317 0.999 . S
H2321 C2302 0.913 . S
H2322 C2340 0.951 . S
H2323 C2342 0.951 . S
H2324 C2344 0.950 . S
H2325 C2345 0.950 . S
H2326 C2347 0.950 . S
H2327 C2350 0.950 . S
H2328 C2351 0.950 . S
H2329 C2353 0.950 . S
H2330 C2354 0.950 . S
H2331 C2355 0.951 . S
H2332 C2357 0.951 . S
H2333 C2359 0.950 . S
H2334 C2360 0.950 . S
H2335 C2362 0.950 . S
H2336 C2365 0.950 . S
H2337 C2366 0.950 . S
H2338 C2368 0.950 . S
H2339 C2369 0.950 . S
C2340 H2322 0.951 . S
C2340 C2341 1.366 . S
C2340 C2342 1.388 . S
C2341 C2340 1.366 . S
C2341 C2345 1.385 . S
C2342 H2323 0.951 . S
C2342 C2340 1.388 . S
C2342 C2343 1.366 . S
C2343 C2342 1.366 . S
C2343 C2344 1.414 . S
C2343 C2346 1.499 . S
C2344 H2324 0.950 . S
C2344 C2343 1.414 . S
C2344 C2345 1.374 . S
C2345 H2325 0.950 . S
C2345 C2341 1.385 . S
C2345 C2344 1.374 . S
C2346 C2343 1.499 . S
C2346 C2347 1.373 1_565 S
C2346 C2348 1.389 . S
C2347 H2326 0.950 . S
C2347 C2346 1.373 1_545 S
C2347 C2363 1.377 . S
C2348 C2346 1.389 . S
C2348 C2349 1.524 . S
C2348 C2362 1.377 1_565 S
C2349 C2348 1.524 . S
C2349 C2350 1.397 . S
C2349 C2354 1.363 . S
C2350 H2327 0.950 . S
C2350 C2349 1.397 . S
C2350 C2351 1.334 . S
C2351 H2328 0.950 . S
C2351 C2350 1.334 . S
C2351 C2352 1.287 . S
C2352 C2351 1.287 . S
C2352 C2353 1.524 . S
C2352 H2371 0.913 . S
C2353 H2329 0.950 . S
C2353 C2352 1.524 . S
C2353 C2354 1.415 . S
C2354 H2330 0.950 . S
C2354 C2349 1.363 . S
C2354 C2353 1.415 . S
C2355 H2331 0.951 . S
C2355 C2356 1.366 . S
C2355 C2357 1.388 . S
C2356 C2355 1.366 . S
C2356 C2360 1.385 . S
C2357 H2332 0.951 . S
C2357 C2355 1.388 . S
C2357 C2358 1.366 . S
C2358 C2357 1.366 . S
C2358 C2359 1.414 . S
C2358 C2361 1.499 . S
C2359 H2333 0.950 . S
C2359 C2358 1.414 . S
C2359 C2360 1.374 . S
C2360 H2334 0.950 . S
C2360 C2356 1.385 . S
C2360 C2359 1.374 . S
C2361 C2358 1.499 . S
C2361 C2362 1.373 . S
C2361 C2363 1.389 . S
C2362 H2335 0.950 . S
C2362 C2348 1.377 1_545 S
C2362 C2361 1.373 . S
C2363 C2347 1.377 . S
C2363 C2361 1.389 . S
C2363 C2364 1.524 . S
C2364 C2363 1.524 . S
C2364 C2365 1.397 . S
C2364 C2369 1.363 . S
C2365 H2336 0.950 . S
C2365 C2364 1.397 . S
C2365 C2366 1.334 . S
C2366 H2337 0.950 . S
C2366 C2365 1.334 . S
C2366 C2367 1.287 . S
C2367 C2366 1.287 . S
C2367 C2368 1.524 . S
C2367 H2370 0.999 . S
C2368 H2338 0.950 . S
C2368 C2367 1.524 . S
C2368 C2369 1.415 . S
C2369 H2339 0.950 . S
C2369 C2364 1.363 . S
C2369 C2368 1.415 . S
H2370 C2367 0.999 . S
H2371 C2352 0.913 . S
H2372 C2390 0.951 . S
H2373 C2392 0.951 . S
H2374 C2394 0.950 . S
H2375 C2395 0.950 . S
H2376 C2397 0.950 . S
H2377 C2400 0.950 . S
H2378 C2401 0.950 . S
H2379 C2403 0.950 . S
H2380 C2404 0.950 . S
H2381 C2405 0.951 . S
H2382 C2407 0.951 . S
H2383 C2409 0.950 . S
H2384 C2410 0.950 . S
H2385 C2412 0.950 . S
H2386 C2415 0.950 . S
H2387 C2416 0.950 . S
H2388 C2418 0.950 . S
H2389 C2419 0.950 . S
C2390 H2372 0.951 . S
C2390 C2391 1.366 . S
C2390 C2392 1.388 . S
C2391 C2390 1.366 . S
C2391 C2395 1.385 . S
C2392 H2373 0.951 . S
C2392 C2390 1.388 . S
C2392 C2393 1.366 . S
C2393 C2392 1.366 . S
C2393 C2394 1.414 . S
C2393 C2396 1.499 . S
C2394 H2374 0.950 . S
C2394 C2393 1.414 . S
C2394 C2395 1.374 . S
C2395 H2375 0.950 . S
C2395 C2391 1.385 . S
C2395 C2394 1.374 . S
C2396 C2393 1.499 . S
C2396 C2397 1.373 . S
C2396 C2398 1.389 . S
C2397 H2376 0.950 . S
C2397 C2396 1.373 . S
C2397 C2413 1.377 1_455 S
C2398 C2396 1.389 . S
C2398 C2399 1.524 . S
C2398 C2412 1.377 1_455 S
C2399 C2398 1.524 . S
C2399 C2400 1.397 . S
C2399 C2404 1.363 . S
C2400 H2377 0.950 . S
C2400 C2399 1.397 . S
C2400 C2401 1.334 . S
C2401 H2378 0.950 . S
C2401 C2400 1.334 . S
C2401 C2402 1.287 . S
C2402 C2401 1.287 . S
C2402 C2403 1.524 . S
C2402 H2421 0.913 . S
C2403 H2379 0.950 . S
C2403 C2402 1.524 . S
C2403 C2404 1.415 . S
C2404 H2380 0.950 . S
C2404 C2399 1.363 . S
C2404 C2403 1.415 . S
C2405 H2381 0.951 . S
C2405 C2406 1.366 . S
C2405 C2407 1.388 . S
C2406 C2405 1.366 . S
C2406 C2410 1.385 . S
C2407 H2382 0.951 . S
C2407 C2405 1.388 . S
C2407 C2408 1.366 . S
C2408 C2407 1.366 . S
C2408 C2409 1.414 . S
C2408 C2411 1.499 . S
C2409 H2383 0.950 . S
C2409 C2408 1.414 . S
C2409 C2410 1.374 . S
C2410 H2384 0.950 . S
C2410 C2406 1.385 . S
C2410 C2409 1.374 . S
C2411 C2408 1.499 . S
C2411 C2412 1.373 . S
C2411 C2413 1.389 . S
C2412 H2385 0.950 . S
C2412 C2398 1.377 1_655 S
C2412 C2411 1.373 . S
C2413 C2397 1.377 1_655 S
C2413 C2411 1.389 . S
C2413 C2414 1.524 . S
C2414 C2413 1.524 . S
C2414 C2415 1.397 . S
C2414 C2419 1.363 . S
C2415 H2386 0.950 . S
C2415 C2414 1.397 . S
C2415 C2416 1.334 . S
C2416 H2387 0.950 . S
C2416 C2415 1.334 . S
C2416 C2417 1.287 . S
C2417 C2416 1.287 . S
C2417 C2418 1.524 . S
C2417 H2420 0.999 . S
C2418 H2388 0.950 . S
C2418 C2417 1.524 . S
C2418 C2419 1.415 . S
C2419 H2389 0.950 . S
C2419 C2414 1.363 . S
C2419 C2418 1.415 . S
H2420 C2417 0.999 . S
H2421 C2402 0.913 . S
H2422 C2440 0.951 . S
H2423 C2442 0.951 . S
H2424 C2444 0.950 . S
H2425 C2445 0.950 . S
H2426 C2447 0.950 . S
H2427 C2450 0.950 . S
H2428 C2451 0.950 . S
H2429 C2453 0.950 . S
H2430 C2454 0.950 . S
H2431 C2455 0.951 . S
H2432 C2457 0.951 . S
H2433 C2459 0.950 . S
H2434 C2460 0.950 . S
H2435 C2462 0.950 . S
H2436 C2465 0.950 . S
H2437 C2466 0.950 . S
H2438 C2468 0.950 . S
H2439 C2469 0.950 . S
C2440 H2422 0.951 . S
C2440 C2441 1.366 . S
C2440 C2442 1.388 . S
C2441 C2440 1.366 . S
C2441 C2445 1.385 . S
C2442 H2423 0.951 . S
C2442 C2440 1.388 . S
C2442 C2443 1.366 . S
C2443 C2442 1.366 . S
C2443 C2444 1.414 . S
C2443 C2446 1.499 . S
C2444 H2424 0.950 . S
C2444 C2443 1.414 . S
C2444 C2445 1.374 . S
C2445 H2425 0.950 . S
C2445 C2441 1.385 . S
C2445 C2444 1.374 . S
C2446 C2443 1.499 . S
C2446 C2447 1.373 . S
C2446 C2448 1.389 . S
C2447 H2426 0.950 . S
C2447 C2446 1.373 . S
C2447 C2463 1.377 . S
C2448 C2446 1.389 . S
C2448 C2449 1.524 . S
C2448 C2462 1.377 . S
C2449 C2448 1.524 . S
C2449 C2450 1.397 . S
C2449 C2454 1.363 . S
C2450 H2427 0.950 . S
C2450 C2449 1.397 . S
C2450 C2451 1.334 . S
C2451 H2428 0.950 . S
C2451 C2450 1.334 . S
C2451 C2452 1.287 . S
C2452 C2451 1.287 . S
C2452 C2453 1.524 . S
C2452 H2471 0.913 . S
C2453 H2429 0.950 . S
C2453 C2452 1.524 . S
C2453 C2454 1.415 . S
C2454 H2430 0.950 . S
C2454 C2449 1.363 . S
C2454 C2453 1.415 . S
C2455 H2431 0.951 . S
C2455 C2456 1.366 . S
C2455 C2457 1.388 . S
C2456 C2455 1.366 . S
C2456 C2460 1.385 . S
C2457 H2432 0.951 . S
C2457 C2455 1.388 . S
C2457 C2458 1.366 . S
C2458 C2457 1.366 . S
C2458 C2459 1.414 . S
C2458 C2461 1.499 . S
C2459 H2433 0.950 . S
C2459 C2458 1.414 . S
C2459 C2460 1.374 . S
C2460 H2434 0.950 . S
C2460 C2456 1.385 . S
C2460 C2459 1.374 . S
C2461 C2458 1.499 . S
C2461 C2462 1.373 . S
C2461 C2463 1.389 . S
C2462 H2435 0.950 . S
C2462 C2448 1.377 . S
C2462 C2461 1.373 . S
C2463 C2447 1.377 . S
C2463 C2461 1.389 . S
C2463 C2464 1.524 . S
C2464 C2463 1.524 . S
C2464 C2465 1.397 . S
C2464 C2469 1.363 . S
C2465 H2436 0.950 . S
C2465 C2464 1.397 . S
C2465 C2466 1.334 . S
C2466 H2437 0.950 . S
C2466 C2465 1.334 . S
C2466 C2467 1.287 . S
C2467 C2466 1.287 . S
C2467 C2468 1.524 . S
C2467 H2470 0.999 . S
C2468 H2438 0.950 . S
C2468 C2467 1.524 . S
C2468 C2469 1.415 . S
C2469 H2439 0.950 . S
C2469 C2464 1.363 . S
C2469 C2468 1.415 . S
H2470 C2467 0.999 . S
H2471 C2452 0.913 . S
H2472 C2490 0.951 . S
H2473 C2492 0.951 . S
H2474 C2494 0.957 . S
H2475 C2495 0.950 . S
H2476 C2497 0.950 . S
H2477 C2500 0.950 . S
H2478 C2501 0.950 . S
H2479 C2503 0.950 . S
H2480 C2504 0.950 . S
H2481 C2505 0.951 . S
H2482 C2507 0.951 . S
H2483 C2509 0.950 . S
H2484 C2510 0.950 . S
H2485 C2512 0.950 . S
H2486 C2515 0.950 . S
H2487 C2516 0.950 . S
H2488 C2518 0.950 . S
H2489 C2519 0.950 . S
C2490 H2472 0.951 . S
C2490 C2491 1.366 . S
C2490 C2492 1.388 . S
C2491 C2490 1.366 . S
C2491 C2495 1.385 . S
C2492 H2473 0.951 . S
C2492 C2490 1.388 . S
C2492 C2493 1.366 1_455 S
C2493 C2492 1.366 1_655 S
C2493 C2494 1.413 . S
C2493 C2496 1.499 . S
C2494 H2474 0.957 . S
C2494 C2493 1.413 . S
C2494 C2495 1.369 1_655 S
C2495 H2475 0.950 . S
C2495 C2491 1.385 . S
C2495 C2494 1.369 1_455 S
C2496 C2493 1.499 . S
C2496 C2497 1.373 . S
C2496 C2498 1.389 . S
C2497 H2476 0.950 . S
C2497 C2496 1.373 . S
C2497 C2513 1.377 . S
C2498 C2496 1.389 . S
C2498 C2499 1.524 . S
C2498 C2512 1.377 . S
C2499 C2498 1.524 . S
C2499 C2500 1.397 . S
C2499 C2504 1.363 . S
C2500 H2477 0.950 . S
C2500 C2499 1.397 . S
C2500 C2501 1.334 . S
C2501 H2478 0.950 . S
C2501 C2500 1.334 . S
C2501 C2502 1.287 . S
C2502 C2501 1.287 . S
C2502 C2503 1.524 . S
C2502 H2521 0.913 . S
C2503 H2479 0.950 . S
C2503 C2502 1.524 . S
C2503 C2504 1.415 . S
C2504 H2480 0.950 . S
C2504 C2499 1.363 . S
C2504 C2503 1.415 . S
C2505 H2481 0.951 . S
C2505 C2506 1.366 . S
C2505 C2507 1.388 . S
C2506 C2505 1.366 . S
C2506 C2510 1.385 . S
C2507 H2482 0.951 . S
C2507 C2505 1.388 . S
C2507 C2508 1.366 . S
C2508 C2507 1.366 . S
C2508 C2509 1.414 . S
C2508 C2511 1.499 . S
C2509 H2483 0.950 . S
C2509 C2508 1.414 . S
C2509 C2510 1.374 . S
C2510 H2484 0.950 . S
C2510 C2506 1.385 . S
C2510 C2509 1.374 . S
C2511 C2508 1.499 . S
C2511 C2512 1.373 . S
C2511 C2513 1.389 . S
C2512 H2485 0.950 . S
C2512 C2498 1.377 . S
C2512 C2511 1.373 . S
C2513 C2497 1.377 . S
C2513 C2511 1.389 . S
C2513 C2514 1.524 . S
C2514 C2513 1.524 . S
C2514 C2515 1.397 . S
C2514 C2519 1.363 . S
C2515 H2486 0.950 . S
C2515 C2514 1.397 . S
C2515 C2516 1.334 . S
C2516 H2487 0.950 . S
C2516 C2515 1.334 . S
C2516 C2517 1.287 . S
C2517 C2516 1.287 . S
C2517 C2518 1.524 . S
C2517 H2520 0.999 . S
C2518 H2488 0.950 . S
C2518 C2517 1.524 . S
C2518 C2519 1.415 . S
C2519 H2489 0.950 . S
C2519 C2514 1.363 . S
C2519 C2518 1.415 . S
H2520 C2517 0.999 . S
H2521 C2502 0.913 . S
H2522 C2540 0.951 . S
H2523 C2542 0.951 . S
H2524 C2544 0.950 . S
H2525 C2545 0.950 . S
H2526 C2547 0.950 . S
H2527 C2550 0.950 . S
H2528 C2551 0.950 . S
H2529 C2553 0.950 . S
H2530 C2554 0.950 . S
H2531 C2555 0.951 . S
H2532 C2557 0.951 . S
H2533 C2559 0.950 . S
H2534 C2560 0.950 . S
H2535 C2562 0.950 . S
H2536 C2565 0.950 . S
H2537 C2566 0.950 . S
H2538 C2568 0.950 . S
H2539 C2569 0.950 . S
C2540 H2522 0.951 . S
C2540 C2541 1.366 . S
C2540 C2542 1.388 . S
C2541 C2540 1.366 . S
C2541 C2545 1.385 . S
C2542 H2523 0.951 . S
C2542 C2540 1.388 . S
C2542 C2543 1.366 . S
C2543 C2542 1.366 . S
C2543 C2544 1.414 . S
C2543 C2546 1.499 . S
C2544 H2524 0.950 . S
C2544 C2543 1.414 . S
C2544 C2545 1.374 . S
C2545 H2525 0.950 . S
C2545 C2541 1.385 . S
C2545 C2544 1.374 . S
C2546 C2543 1.499 . S
C2546 C2547 1.373 . S
C2546 C2548 1.389 . S
C2547 H2526 0.950 . S
C2547 C2546 1.373 . S
C2547 C2563 1.377 . S
C2548 C2546 1.389 . S
C2548 C2549 1.524 . S
C2548 C2562 1.377 . S
C2549 C2548 1.524 . S
C2549 C2550 1.397 . S
C2549 C2554 1.363 . S
C2550 H2527 0.950 . S
C2550 C2549 1.397 . S
C2550 C2551 1.334 . S
C2551 H2528 0.950 . S
C2551 C2550 1.334 . S
C2551 C2552 1.287 . S
C2552 C2551 1.287 . S
C2552 C2553 1.524 . S
C2552 H2571 0.913 . S
C2553 H2529 0.950 . S
C2553 C2552 1.524 . S
C2553 C2554 1.415 . S
C2554 H2530 0.950 . S
C2554 C2549 1.363 . S
C2554 C2553 1.415 . S
C2555 H2531 0.951 . S
C2555 C2556 1.366 . S
C2555 C2557 1.388 . S
C2556 C2555 1.366 . S
C2556 C2560 1.385 . S
C2557 H2532 0.951 . S
C2557 C2555 1.388 . S
C2557 C2558 1.366 . S
C2558 C2557 1.366 . S
C2558 C2559 1.414 . S
C2558 C2561 1.499 . S
C2559 H2533 0.950 . S
C2559 C2558 1.414 . S
C2559 C2560 1.374 . S
C2560 H2534 0.950 . S
C2560 C2556 1.385 . S
C2560 C2559 1.374 . S
C2561 C2558 1.499 . S
C2561 C2562 1.373 . S
C2561 C2563 1.389 . S
C2562 H2535 0.950 . S
C2562 C2548 1.377 . S
C2562 C2561 1.373 . S
C2563 C2547 1.377 . S
C2563 C2561 1.389 . S
C2563 C2564 1.524 . S
C2564 C2563 1.524 . S
C2564 C2565 1.397 . S
C2564 C2569 1.363 . S
C2565 H2536 0.950 . S
C2565 C2564 1.397 . S
C2565 C2566 1.334 . S
C2566 H2537 0.950 . S
C2566 C2565 1.334 . S
C2566 C2567 1.287 . S
C2567 C2566 1.287 . S
C2567 C2568 1.524 . S
C2567 H2570 0.999 . S
C2568 H2538 0.950 . S
C2568 C2567 1.524 . S
C2568 C2569 1.415 . S
C2569 H2539 0.950 . S
C2569 C2564 1.363 . S
C2569 C2568 1.415 . S
H2570 C2567 0.999 . S
H2571 C2552 0.913 . S
H2572 C2590 0.951 . S
H2573 C2592 0.951 . S
H2574 C2594 0.959 . S
H2575 C2595 0.950 . S
H2576 C2597 0.950 . S
H2577 C2600 0.950 . S
H2578 C2601 0.950 . S
H2579 C2603 0.950 . S
H2580 C2604 0.950 . S
H2581 C2605 0.951 . S
H2582 C2607 0.951 . S
H2583 C2609 0.950 . S
H2584 C2610 0.950 . S
H2585 C2612 0.950 . S
H2586 C2615 0.950 . S
H2587 C2616 0.950 . S
H2588 C2618 0.950 . S
H2589 C2619 0.950 . S
C2590 H2572 0.951 . S
C2590 C2591 1.366 . S
C2590 C2592 1.388 1_565 S
C2591 C2590 1.366 . S
C2591 C2595 1.385 . S
C2592 H2573 0.951 . S
C2592 C2590 1.388 1_545 S
C2592 C2593 1.366 . S
C2593 C2592 1.366 . S
C2593 C2594 1.457 . S
C2593 C2596 1.499 . S
C2594 H2574 0.959 . S
C2594 C2593 1.457 . S
C2594 C2595 1.324 1_545 S
C2595 H2575 0.950 . S
C2595 C2591 1.385 . S
C2595 C2594 1.324 1_565 S
C2596 C2593 1.499 . S
C2596 C2597 1.373 . S
C2596 C2598 1.389 . S
C2597 H2576 0.950 . S
C2597 C2596 1.373 . S
C2597 C2613 1.377 . S
C2598 C2596 1.389 . S
C2598 C2599 1.524 . S
C2598 C2612 1.377 . S
C2599 C2598 1.524 . S
C2599 C2600 1.397 . S
C2599 C2604 1.363 . S
C2600 H2577 0.950 . S
C2600 C2599 1.397 . S
C2600 C2601 1.334 . S
C2601 H2578 0.950 . S
C2601 C2600 1.334 . S
C2601 C2602 1.287 . S
C2602 C2601 1.287 . S
C2602 C2603 1.524 . S
C2602 H2621 0.913 . S
C2603 H2579 0.950 . S
C2603 C2602 1.524 . S
C2603 C2604 1.415 . S
C2604 H2580 0.950 . S
C2604 C2599 1.363 . S
C2604 C2603 1.415 . S
C2605 H2581 0.951 . S
C2605 C2606 1.366 . S
C2605 C2607 1.388 . S
C2606 C2605 1.366 . S
C2606 C2610 1.385 . S
C2607 H2582 0.951 . S
C2607 C2605 1.388 . S
C2607 C2608 1.366 . S
C2608 C2607 1.366 . S
C2608 C2609 1.414 . S
C2608 C2611 1.499 . S
C2609 H2583 0.950 . S
C2609 C2608 1.414 . S
C2609 C2610 1.374 . S
C2610 H2584 0.950 . S
C2610 C2606 1.385 . S
C2610 C2609 1.374 . S
C2611 C2608 1.499 . S
C2611 C2612 1.373 . S
C2611 C2613 1.389 . S
C2612 H2585 0.950 . S
C2612 C2598 1.377 . S
C2612 C2611 1.373 . S
C2613 C2597 1.377 . S
C2613 C2611 1.389 . S
C2613 C2614 1.524 . S
C2614 C2613 1.524 . S
C2614 C2615 1.397 . S
C2614 C2619 1.363 . S
C2615 H2586 0.950 . S
C2615 C2614 1.397 . S
C2615 C2616 1.334 . S
C2616 H2587 0.950 . S
C2616 C2615 1.334 . S
C2616 C2617 1.287 . S
C2617 C2616 1.287 . S
C2617 C2618 1.524 . S
C2617 H2620 0.999 . S
C2618 H2588 0.950 . S
C2618 C2617 1.524 . S
C2618 C2619 1.415 . S
C2619 H2589 0.950 . S
C2619 C2614 1.363 . S
C2619 C2618 1.415 . S
H2620 C2617 0.999 . S
H2621 C2602 0.913 . S
H2622 C2640 0.951 . S
H2623 C2642 0.951 . S
H2624 C2644 0.950 . S
H2625 C2645 0.950 . S
H2626 C2647 0.950 . S
H2627 C2650 0.950 . S
H2628 C2651 0.950 . S
H2629 C2653 0.950 . S
H2630 C2654 0.950 . S
H2631 C2655 0.951 . S
H2632 C2657 0.951 . S
H2633 C2659 0.950 . S
H2634 C2660 0.950 . S
H2635 C2662 0.950 . S
H2636 C2665 0.950 . S
H2637 C2666 0.950 . S
H2638 C2668 0.950 . S
H2639 C2669 0.950 . S
C2640 H2622 0.951 . S
C2640 C2641 1.366 . S
C2640 C2642 1.388 . S
C2641 C2640 1.366 . S
C2641 C2645 1.385 . S
C2642 H2623 0.951 . S
C2642 C2640 1.388 . S
C2642 C2643 1.366 . S
C2643 C2642 1.366 . S
C2643 C2644 1.414 . S
C2643 C2646 1.499 . S
C2644 H2624 0.950 . S
C2644 C2643 1.414 . S
C2644 C2645 1.374 . S
C2645 H2625 0.950 . S
C2645 C2641 1.385 . S
C2645 C2644 1.374 . S
C2646 C2643 1.499 . S
C2646 C2647 1.373 . S
C2646 C2648 1.389 . S
C2647 H2626 0.950 . S
C2647 C2646 1.373 . S
C2647 C2663 1.377 . S
C2648 C2646 1.389 . S
C2648 C2649 1.524 . S
C2648 C2662 1.377 . S
C2649 C2648 1.524 . S
C2649 C2650 1.397 . S
C2649 C2654 1.363 . S
C2650 H2627 0.950 . S
C2650 C2649 1.397 . S
C2650 C2651 1.334 . S
C2651 H2628 0.950 . S
C2651 C2650 1.334 . S
C2651 C2652 1.287 . S
C2652 C2651 1.287 . S
C2652 C2653 1.524 . S
C2652 H2671 0.913 . S
C2653 H2629 0.950 . S
C2653 C2652 1.524 . S
C2653 C2654 1.415 . S
C2654 H2630 0.950 . S
C2654 C2649 1.363 . S
C2654 C2653 1.415 . S
C2655 H2631 0.951 . S
C2655 C2656 1.366 . S
C2655 C2657 1.388 . S
C2656 C2655 1.366 . S
C2656 C2660 1.385 . S
C2657 H2632 0.951 . S
C2657 C2655 1.388 . S
C2657 C2658 1.366 . S
C2658 C2657 1.366 . S
C2658 C2659 1.414 . S
C2658 C2661 1.499 . S
C2659 H2633 0.950 . S
C2659 C2658 1.414 . S
C2659 C2660 1.374 . S
C2660 H2634 0.950 . S
C2660 C2656 1.385 . S
C2660 C2659 1.374 . S
C2661 C2658 1.499 . S
C2661 C2662 1.373 . S
C2661 C2663 1.389 . S
C2662 H2635 0.950 . S
C2662 C2648 1.377 . S
C2662 C2661 1.373 . S
C2663 C2647 1.377 . S
C2663 C2661 1.389 . S
C2663 C2664 1.524 . S
C2664 C2663 1.524 . S
C2664 C2665 1.397 . S
C2664 C2669 1.363 . S
C2665 H2636 0.950 . S
C2665 C2664 1.397 . S
C2665 C2666 1.334 . S
C2666 H2637 0.950 . S
C2666 C2665 1.334 . S
C2666 C2667 1.287 . S
C2667 C2666 1.287 . S
C2667 C2668 1.524 . S
C2667 H2670 0.999 . S
C2668 H2638 0.950 . S
C2668 C2667 1.524 . S
C2668 C2669 1.415 . S
C2669 H2639 0.950 . S
C2669 C2664 1.363 . S
C2669 C2668 1.415 . S
H2670 C2667 0.999 . S
H2671 C2652 0.913 . S
H2672 C2690 0.951 . S
H2673 C2692 0.951 . S
H2674 C2694 0.950 . S
H2675 C2695 0.950 . S
H2676 C2697 0.950 . S
H2677 C2700 0.950 . S
H2678 C2701 0.950 . S
H2679 C2703 0.950 . S
H2680 C2704 0.950 . S
H2681 C2705 0.951 . S
H2682 C2707 0.951 . S
H2683 C2709 0.950 . S
H2684 C2710 0.950 . S
H2685 C2712 0.950 . S
H2686 C2715 0.950 . S
H2687 C2716 0.950 . S
H2688 C2718 0.950 . S
H2689 C2719 0.950 . S
C2690 H2672 0.951 . S
C2690 C2691 1.366 . S
C2690 C2692 1.388 . S
C2691 C2690 1.366 . S
C2691 C2695 1.385 . S
C2692 H2673 0.951 . S
C2692 C2690 1.388 . S
C2692 C2693 1.366 . S
C2693 C2692 1.366 . S
C2693 C2694 1.414 . S
C2693 C2696 1.499 . S
C2694 H2674 0.950 . S
C2694 C2693 1.414 . S
C2694 C2695 1.374 . S
C2695 H2675 0.950 . S
C2695 C2691 1.385 . S
C2695 C2694 1.374 . S
C2696 C2693 1.499 . S
C2696 C2697 1.373 . S
C2696 C2698 1.389 . S
C2697 H2676 0.950 . S
C2697 C2696 1.373 . S
C2697 C2713 1.377 . S
C2698 C2696 1.389 . S
C2698 C2699 1.524 . S
C2698 C2712 1.377 . S
C2699 C2698 1.524 . S
C2699 C2700 1.397 . S
C2699 C2704 1.363 . S
C2700 H2677 0.950 . S
C2700 C2699 1.397 . S
C2700 C2701 1.334 . S
C2701 H2678 0.950 . S
C2701 C2700 1.334 . S
C2701 C2702 1.287 . S
C2702 C2701 1.287 . S
C2702 C2703 1.524 . S
C2702 H2721 0.913 . S
C2703 H2679 0.950 . S
C2703 C2702 1.524 . S
C2703 C2704 1.415 . S
C2704 H2680 0.950 . S
C2704 C2699 1.363 . S
C2704 C2703 1.415 . S
C2705 H2681 0.951 . S
C2705 C2706 1.366 . S
C2705 C2707 1.388 . S
C2706 C2705 1.366 . S
C2706 C2710 1.385 . S
C2707 H2682 0.951 . S
C2707 C2705 1.388 . S
C2707 C2708 1.366 . S
C2708 C2707 1.366 . S
C2708 C2709 1.414 . S
C2708 C2711 1.499 . S
C2709 H2683 0.950 . S
C2709 C2708 1.414 . S
C2709 C2710 1.374 . S
C2710 H2684 0.950 . S
C2710 C2706 1.385 . S
C2710 C2709 1.374 . S
C2711 C2708 1.499 . S
C2711 C2712 1.373 . S
C2711 C2713 1.389 . S
C2712 H2685 0.950 . S
C2712 C2698 1.377 . S
C2712 C2711 1.373 . S
C2713 C2697 1.377 . S
C2713 C2711 1.389 . S
C2713 C2714 1.524 . S
C2714 C2713 1.524 . S
C2714 C2715 1.397 . S
C2714 C2719 1.363 . S
C2715 H2686 0.950 . S
C2715 C2714 1.397 . S
C2715 C2716 1.334 . S
C2716 H2687 0.950 . S
C2716 C2715 1.334 . S
C2716 C2717 1.287 . S
C2717 C2716 1.287 . S
C2717 C2718 1.524 . S
C2717 H2720 0.999 . S
C2718 H2688 0.950 . S
C2718 C2717 1.524 . S
C2718 C2719 1.415 . S
C2719 H2689 0.950 . S
C2719 C2714 1.363 . S
C2719 C2718 1.415 . S
H2720 C2717 0.999 . S
H2721 C2702 0.913 . S
H2722 C2740 0.951 . S
H2723 C2742 0.951 . S
H2724 C2744 0.950 . S
H2725 C2745 0.950 . S
H2726 C2747 0.950 . S
H2727 C2750 0.950 . S
H2728 C2751 0.950 . S
H2729 C2753 0.950 . S
H2730 C2754 0.950 . S
H2731 C2755 0.951 . S
H2732 C2757 0.951 . S
H2733 C2759 0.950 . S
H2734 C2760 0.950 . S
H2735 C2762 0.950 . S
H2736 C2765 0.950 . S
H2737 C2766 0.950 . S
H2738 C2768 0.950 . S
H2739 C2769 0.950 . S
C2740 H2722 0.951 . S
C2740 C2741 1.366 . S
C2740 C2742 1.388 . S
C2741 C2740 1.366 . S
C2741 C2745 1.385 . S
C2742 H2723 0.951 . S
C2742 C2740 1.388 . S
C2742 C2743 1.366 . S
C2743 C2742 1.366 . S
C2743 C2744 1.414 . S
C2743 C2746 1.499 . S
C2744 H2724 0.950 . S
C2744 C2743 1.414 . S
C2744 C2745 1.374 . S
C2745 H2725 0.950 . S
C2745 C2741 1.385 . S
C2745 C2744 1.374 . S
C2746 C2743 1.499 . S
C2746 C2747 1.373 . S
C2746 C2748 1.389 . S
C2747 H2726 0.950 . S
C2747 C2746 1.373 . S
C2747 C2763 1.377 . S
C2748 C2746 1.389 . S
C2748 C2749 1.524 . S
C2748 C2762 1.377 . S
C2749 C2748 1.524 . S
C2749 C2750 1.397 . S
C2749 C2754 1.363 . S
C2750 H2727 0.950 . S
C2750 C2749 1.397 . S
C2750 C2751 1.334 . S
C2751 H2728 0.950 . S
C2751 C2750 1.334 . S
C2751 C2752 1.287 . S
C2752 C2751 1.287 . S
C2752 C2753 1.524 . S
C2752 H2771 0.913 . S
C2753 H2729 0.950 . S
C2753 C2752 1.524 . S
C2753 C2754 1.415 . S
C2754 H2730 0.950 . S
C2754 C2749 1.363 . S
C2754 C2753 1.415 . S
C2755 H2731 0.951 . S
C2755 C2756 1.366 . S
C2755 C2757 1.388 . S
C2756 C2755 1.366 . S
C2756 C2760 1.385 . S
C2757 H2732 0.951 . S
C2757 C2755 1.388 . S
C2757 C2758 1.366 . S
C2758 C2757 1.366 . S
C2758 C2759 1.414 . S
C2758 C2761 1.499 . S
C2759 H2733 0.950 . S
C2759 C2758 1.414 . S
C2759 C2760 1.374 . S
C2760 H2734 0.950 . S
C2760 C2756 1.385 . S
C2760 C2759 1.374 . S
C2761 C2758 1.499 . S
C2761 C2762 1.373 . S
C2761 C2763 1.389 . S
C2762 H2735 0.950 . S
C2762 C2748 1.377 . S
C2762 C2761 1.373 . S
C2763 C2747 1.377 . S
C2763 C2761 1.389 . S
C2763 C2764 1.524 . S
C2764 C2763 1.524 . S
C2764 C2765 1.397 . S
C2764 C2769 1.363 . S
C2765 H2736 0.950 . S
C2765 C2764 1.397 . S
C2765 C2766 1.334 . S
C2766 H2737 0.950 . S
C2766 C2765 1.334 . S
C2766 C2767 1.287 . S
C2767 C2766 1.287 . S
C2767 C2768 1.524 . S
C2767 H2770 0.999 . S
C2768 H2738 0.950 . S
C2768 C2767 1.524 . S
C2768 C2769 1.415 . S
C2769 H2739 0.950 . S
C2769 C2764 1.363 . S
C2769 C2768 1.415 . S
H2770 C2767 0.999 . S
H2771 C2752 0.913 . S
H2772 C2790 0.951 . S
H2773 C2792 0.951 . S
H2774 C2794 0.950 . S
H2775 C2795 0.950 . S
H2776 C2797 0.950 . S
H2777 C2800 0.950 . S
H2778 C2801 0.950 . S
H2779 C2803 0.950 . S
H2780 C2804 0.950 . S
H2781 C2805 0.951 . S
H2782 C2807 0.951 . S
H2783 C2809 0.950 . S
H2784 C2810 0.950 . S
H2785 C2812 0.950 . S
H2786 C2815 0.950 . S
H2787 C2816 0.890 1_545 S
H2788 C2818 0.950 . S
H2789 C2819 0.950 . S
C2790 H2772 0.951 . S
C2790 C2791 1.366 . S
C2790 C2792 1.388 . S
C2791 C2790 1.366 . S
C2791 C2795 1.385 . S
C2792 H2773 0.951 . S
C2792 C2790 1.388 . S
C2792 C2793 1.366 . S
C2793 C2792 1.366 . S
C2793 C2794 1.414 . S
C2793 C2796 1.499 . S
C2794 H2774 0.950 . S
C2794 C2793 1.414 . S
C2794 C2795 1.374 . S
C2795 H2775 0.950 . S
C2795 C2791 1.385 . S
C2795 C2794 1.374 . S
C2796 C2793 1.499 . S
C2796 C2797 1.373 . S
C2796 C2798 1.389 . S
C2797 H2776 0.950 . S
C2797 C2796 1.373 . S
C2797 C2813 1.377 . S
C2798 C2796 1.389 . S
C2798 C2799 1.524 . S
C2798 C2812 1.377 . S
C2799 C2798 1.524 . S
C2799 C2800 1.397 . S
C2799 C2804 1.363 . S
C2800 H2777 0.950 . S
C2800 C2799 1.397 . S
C2800 C2801 1.334 . S
C2801 H2778 0.950 . S
C2801 C2800 1.334 . S
C2801 C2802 1.287 . S
C2802 C2801 1.287 . S
C2802 C2803 1.524 . S
C2802 H2821 0.913 . S
C2803 H2779 0.950 . S
C2803 C2802 1.524 . S
C2803 C2804 1.415 . S
C2804 H2780 0.950 . S
C2804 C2799 1.363 . S
C2804 C2803 1.415 . S
C2805 H2781 0.951 . S
C2805 C2806 1.366 . S
C2805 C2807 1.388 . S
C2806 C2805 1.366 . S
C2806 C2810 1.385 . S
C2807 H2782 0.951 . S
C2807 C2805 1.388 . S
C2807 C2808 1.366 . S
C2808 C2807 1.366 . S
C2808 C2809 1.414 . S
C2808 C2811 1.499 . S
C2809 H2783 0.950 . S
C2809 C2808 1.414 . S
C2809 C2810 1.374 . S
C2810 H2784 0.950 . S
C2810 C2806 1.385 . S
C2810 C2809 1.374 . S
C2811 C2808 1.499 . S
C2811 C2812 1.373 . S
C2811 C2813 1.389 . S
C2812 H2785 0.950 . S
C2812 C2798 1.377 . S
C2812 C2811 1.373 . S
C2813 C2797 1.377 . S
C2813 C2811 1.389 . S
C2813 C2814 1.524 . S
C2814 C2813 1.524 . S
C2814 C2815 1.397 . S
C2814 C2819 1.363 . S
C2815 H2786 0.950 . S
C2815 C2814 1.397 . S
C2815 C2816 1.365 . S
C2816 H2787 0.890 1_565 S
C2816 C2815 1.365 . S
C2816 C2817 1.320 . S
C2817 C2816 1.320 . S
C2817 C2818 1.524 . S
C2817 H2820 0.999 1_565 S
C2818 H2788 0.950 . S
C2818 C2817 1.524 . S
C2818 C2819 1.415 . S
C2819 H2789 0.950 . S
C2819 C2814 1.363 . S
C2819 C2818 1.415 . S
H2820 C2817 0.999 1_545 S
H2821 C2802 0.913 . S
H2822 C2840 0.951 . S
H2823 C2842 0.951 . S
H2824 C2844 0.950 . S
H2825 C2845 0.950 . S
H2826 C2847 0.950 . S
H2827 C2850 0.950 . S
H2828 C2851 0.950 . S
H2829 C2853 0.950 . S
H2830 C2854 0.950 . S
H2831 C2855 0.951 . S
H2832 C2857 0.951 . S
H2833 C2859 0.950 . S
H2834 C2860 0.950 . S
H2835 C2862 0.950 . S
H2836 C2865 0.950 . S
H2837 C2866 0.950 . S
H2838 C2868 0.946 1_655 S
H2839 C2869 0.950 . S
C2840 H2822 0.951 . S
C2840 C2841 1.366 . S
C2840 C2842 1.388 . S
C2841 C2840 1.366 . S
C2841 C2845 1.385 . S
C2842 H2823 0.951 . S
C2842 C2840 1.388 . S
C2842 C2843 1.366 . S
C2843 C2842 1.366 . S
C2843 C2844 1.414 . S
C2843 C2846 1.499 . S
C2844 H2824 0.950 . S
C2844 C2843 1.414 . S
C2844 C2845 1.374 . S
C2845 H2825 0.950 . S
C2845 C2841 1.385 . S
C2845 C2844 1.374 . S
C2846 C2843 1.499 . S
C2846 C2847 1.373 . S
C2846 C2848 1.389 . S
C2847 H2826 0.950 . S
C2847 C2846 1.373 . S
C2847 C2863 1.377 . S
C2848 C2846 1.389 . S
C2848 C2849 1.524 . S
C2848 C2862 1.377 . S
C2849 C2848 1.524 . S
C2849 C2850 1.397 . S
C2849 C2854 1.363 . S
C2850 H2827 0.950 . S
C2850 C2849 1.397 . S
C2850 C2851 1.334 . S
C2851 H2828 0.950 . S
C2851 C2850 1.334 . S
C2851 C2852 1.287 . S
C2852 C2851 1.287 . S
C2852 C2853 1.524 . S
C2852 H2871 0.913 . S
C2853 H2829 0.950 . S
C2853 C2852 1.524 . S
C2853 C2854 1.415 . S
C2854 H2830 0.950 . S
C2854 C2849 1.363 . S
C2854 C2853 1.415 . S
C2855 H2831 0.951 . S
C2855 C2856 1.366 . S
C2855 C2857 1.388 . S
C2856 C2855 1.366 . S
C2856 C2860 1.385 . S
C2857 H2832 0.951 . S
C2857 C2855 1.388 . S
C2857 C2858 1.366 . S
C2858 C2857 1.366 . S
C2858 C2859 1.414 . S
C2858 C2861 1.499 . S
C2859 H2833 0.950 . S
C2859 C2858 1.414 . S
C2859 C2860 1.374 . S
C2860 H2834 0.950 . S
C2860 C2856 1.385 . S
C2860 C2859 1.374 . S
C2861 C2858 1.499 . S
C2861 C2862 1.373 . S
C2861 C2863 1.389 . S
C2862 H2835 0.950 . S
C2862 C2848 1.377 . S
C2862 C2861 1.373 . S
C2863 C2847 1.377 . S
C2863 C2861 1.389 . S
C2863 C2864 1.524 . S
C2864 C2863 1.524 . S
C2864 C2865 1.397 . S
C2864 C2869 1.363 . S
C2865 H2836 0.950 . S
C2865 C2864 1.397 . S
C2865 C2866 1.334 . S
C2866 H2837 0.950 . S
C2866 C2865 1.334 . S
C2866 C2867 1.287 . S
C2867 C2866 1.287 . S
C2867 C2868 1.524 . S
C2867 H2870 0.999 . S
C2868 H2838 0.946 1_455 S
C2868 C2867 1.524 . S
C2868 C2869 1.415 . S
C2869 H2839 0.950 . S
C2869 C2864 1.363 . S
C2869 C2868 1.415 . S
H2870 C2867 0.999 . S
H2871 C2852 0.913 . S
H2872 C2890 0.951 . S
H2873 C2892 0.951 . S
H2874 C2894 0.950 . S
H2875 C2895 0.950 . S
H2876 C2897 0.950 . S
H2877 C2900 0.950 . S
H2878 C2901 0.950 . S
H2879 C2903 0.950 . S
H2880 C2904 0.950 . S
H2881 C2905 0.951 . S
H2882 C2907 0.951 . S
H2883 C2909 0.950 . S
H2884 C2910 0.950 . S
H2885 C2912 0.950 . S
H2886 C2915 0.950 . S
H2887 C2916 0.950 . S
H2888 C2918 0.950 . S
H2889 C2919 0.950 . S
C2890 H2872 0.951 . S
C2890 C2891 1.366 . S
C2890 C2892 1.388 . S
C2891 C2890 1.366 . S
C2891 C2895 1.385 . S
C2892 H2873 0.951 . S
C2892 C2890 1.388 . S
C2892 C2893 1.366 . S
C2893 C2892 1.366 . S
C2893 C2894 1.414 . S
C2893 C2896 1.499 . S
C2894 H2874 0.950 . S
C2894 C2893 1.414 . S
C2894 C2895 1.374 . S
C2895 H2875 0.950 . S
C2895 C2891 1.385 . S
C2895 C2894 1.374 . S
C2896 C2893 1.499 . S
C2896 C2897 1.373 . S
C2896 C2898 1.389 . S
C2897 H2876 0.950 . S
C2897 C2896 1.373 . S
C2897 C2913 1.377 . S
C2898 C2896 1.389 . S
C2898 C2899 1.524 . S
C2898 C2912 1.377 . S
C2899 C2898 1.524 . S
C2899 C2900 1.397 . S
C2899 C2904 1.363 . S
C2900 H2877 0.950 . S
C2900 C2899 1.397 . S
C2900 C2901 1.334 . S
C2901 H2878 0.950 . S
C2901 C2900 1.334 . S
C2901 C2902 1.287 . S
C2902 C2901 1.287 . S
C2902 C2903 1.524 . S
C2902 H2921 0.913 . S
C2903 H2879 0.950 . S
C2903 C2902 1.524 . S
C2903 C2904 1.415 . S
C2904 H2880 0.950 . S
C2904 C2899 1.363 . S
C2904 C2903 1.415 . S
C2905 H2881 0.951 . S
C2905 C2906 1.366 . S
C2905 C2907 1.388 . S
C2906 C2905 1.366 . S
C2906 C2910 1.385 . S
C2907 H2882 0.951 . S
C2907 C2905 1.388 . S
C2907 C2908 1.366 . S
C2908 C2907 1.366 . S
C2908 C2909 1.414 . S
C2908 C2911 1.499 . S
C2909 H2883 0.950 . S
C2909 C2908 1.414 . S
C2909 C2910 1.374 . S
C2910 H2884 0.950 . S
C2910 C2906 1.385 . S
C2910 C2909 1.374 . S
C2911 C2908 1.499 . S
C2911 C2912 1.373 . S
C2911 C2913 1.389 . S
C2912 H2885 0.950 . S
C2912 C2898 1.377 . S
C2912 C2911 1.373 . S
C2913 C2897 1.377 . S
C2913 C2911 1.389 . S
C2913 C2914 1.524 . S
C2914 C2913 1.524 . S
C2914 C2915 1.397 . S
C2914 C2919 1.363 . S
C2915 H2886 0.950 . S
C2915 C2914 1.397 . S
C2915 C2916 1.334 . S
C2916 H2887 0.950 . S
C2916 C2915 1.334 . S
C2916 C2917 1.287 . S
C2917 C2916 1.287 . S
C2917 C2918 1.524 . S
C2917 H2920 0.999 . S
C2918 H2888 0.950 . S
C2918 C2917 1.524 . S
C2918 C2919 1.415 . S
C2919 H2889 0.950 . S
C2919 C2914 1.363 . S
C2919 C2918 1.415 . S
H2920 C2917 0.999 . S
H2921 C2902 0.913 . S
H2922 C2940 0.951 . S
H2923 C2942 0.951 . S
H2924 C2944 0.950 . S
H2925 C2945 0.950 . S
H2926 C2947 0.950 . S
H2927 C2950 0.950 . S
H2928 C2951 0.950 . S
H2929 C2953 0.950 . S
H2930 C2954 0.950 . S
H2931 C2955 0.951 . S
H2932 C2957 0.951 . S
H2933 C2959 0.950 . S
H2934 C2960 0.950 . S
H2935 C2962 0.950 . S
H2936 C2965 0.950 . S
H2937 C2966 0.950 . S
H2938 C2968 0.950 . S
H2939 C2969 0.950 . S
C2940 H2922 0.951 . S
C2940 C2941 1.366 . S
C2940 C2942 1.388 . S
C2941 C2940 1.366 . S
C2941 C2945 1.385 . S
C2942 H2923 0.951 . S
C2942 C2940 1.388 . S
C2942 C2943 1.366 . S
C2943 C2942 1.366 . S
C2943 C2944 1.414 . S
C2943 C2946 1.499 . S
C2944 H2924 0.950 . S
C2944 C2943 1.414 . S
C2944 C2945 1.374 . S
C2945 H2925 0.950 . S
C2945 C2941 1.385 . S
C2945 C2944 1.374 . S
C2946 C2943 1.499 . S
C2946 C2947 1.373 . S
C2946 C2948 1.389 . S
C2947 H2926 0.950 . S
C2947 C2946 1.373 . S
C2947 C2963 1.377 . S
C2948 C2946 1.389 . S
C2948 C2949 1.524 . S
C2948 C2962 1.377 . S
C2949 C2948 1.524 . S
C2949 C2950 1.397 . S
C2949 C2954 1.363 . S
C2950 H2927 0.950 . S
C2950 C2949 1.397 . S
C2950 C2951 1.334 . S
C2951 H2928 0.950 . S
C2951 C2950 1.334 . S
C2951 C2952 1.287 . S
C2952 C2951 1.287 . S
C2952 C2953 1.524 . S
C2952 H2971 0.913 . S
C2953 H2929 0.950 . S
C2953 C2952 1.524 . S
C2953 C2954 1.415 . S
C2954 H2930 0.950 . S
C2954 C2949 1.363 . S
C2954 C2953 1.415 . S
C2955 H2931 0.951 . S
C2955 C2956 1.366 . S
C2955 C2957 1.388 . S
C2956 C2955 1.366 . S
C2956 C2960 1.385 . S
C2957 H2932 0.951 . S
C2957 C2955 1.388 . S
C2957 C2958 1.366 . S
C2958 C2957 1.366 . S
C2958 C2959 1.414 . S
C2958 C2961 1.499 . S
C2959 H2933 0.950 . S
C2959 C2958 1.414 . S
C2959 C2960 1.374 . S
C2960 H2934 0.950 . S
C2960 C2956 1.385 . S
C2960 C2959 1.374 . S
C2961 C2958 1.499 . S
C2961 C2962 1.373 . S
C2961 C2963 1.389 . S
C2962 H2935 0.950 . S
C2962 C2948 1.377 . S
C2962 C2961 1.373 . S
C2963 C2947 1.377 . S
C2963 C2961 1.389 . S
C2963 C2964 1.524 . S
C2964 C2963 1.524 . S
C2964 C2965 1.397 . S
C2964 C2969 1.363 . S
C2965 H2936 0.950 . S
C2965 C2964 1.397 . S
C2965 C2966 1.334 . S
C2966 H2937 0.950 . S
C2966 C2965 1.334 . S
C2966 C2967 1.287 . S
C2967 C2966 1.287 . S
C2967 C2968 1.524 . S
C2967 H2970 0.999 . S
C2968 H2938 0.950 . S
C2968 C2967 1.524 . S
C2968 C2969 1.415 . S
C2969 H2939 0.950 . S
C2969 C2964 1.363 . S
C2969 C2968 1.415 . S
H2970 C2967 0.999 . S
H2971 C2952 0.913 . S
H2972 C2990 0.951 . S
H2973 C2992 0.951 . S
H2974 C2994 0.950 . S
H2975 C2995 0.950 . S
H2976 C2997 0.950 . S
H2977 C3000 0.950 . S
H2978 C3001 0.950 . S
H2979 C3003 0.950 . S
H2980 C3004 0.950 . S
H2981 C3005 0.951 . S
H2982 C3007 0.951 . S
H2983 C3009 0.950 . S
H2984 C3010 0.950 . S
H2985 C3012 0.950 . S
H2986 C3015 0.950 . S
H2987 C3016 0.950 . S
H2988 C3018 0.950 . S
H2989 C3019 0.950 . S
C2990 H2972 0.951 . S
C2990 C2991 1.366 . S
C2990 C2992 1.388 . S
C2991 C2990 1.366 . S
C2991 C2995 1.385 . S
C2992 H2973 0.951 . S
C2992 C2990 1.388 . S
C2992 C2993 1.366 . S
C2993 C2992 1.366 . S
C2993 C2994 1.414 . S
C2993 C2996 1.499 . S
C2994 H2974 0.950 . S
C2994 C2993 1.414 . S
C2994 C2995 1.374 . S
C2995 H2975 0.950 . S
C2995 C2991 1.385 . S
C2995 C2994 1.374 . S
C2996 C2993 1.499 . S
C2996 C2997 1.373 . S
C2996 C2998 1.389 . S
C2997 H2976 0.950 . S
C2997 C2996 1.373 . S
C2997 C3013 1.377 . S
C2998 C2996 1.389 . S
C2998 C2999 1.524 . S
C2998 C3012 1.377 . S
C2999 C2998 1.524 . S
C2999 C3000 1.397 . S
C2999 C3004 1.363 . S
C3000 H2977 0.950 . S
C3000 C2999 1.397 . S
C3000 C3001 1.334 . S
C3001 H2978 0.950 . S
C3001 C3000 1.334 . S
C3001 C3002 1.287 . S
C3002 C3001 1.287 . S
C3002 C3003 1.524 . S
C3002 H3021 0.913 . S
C3003 H2979 0.950 . S
C3003 C3002 1.524 . S
C3003 C3004 1.415 . S
C3004 H2980 0.950 . S
C3004 C2999 1.363 . S
C3004 C3003 1.415 . S
C3005 H2981 0.951 . S
C3005 C3006 1.366 . S
C3005 C3007 1.388 . S
C3006 C3005 1.366 . S
C3006 C3010 1.385 . S
C3007 H2982 0.951 . S
C3007 C3005 1.388 . S
C3007 C3008 1.366 . S
C3008 C3007 1.366 . S
C3008 C3009 1.414 . S
C3008 C3011 1.499 . S
C3009 H2983 0.950 . S
C3009 C3008 1.414 . S
C3009 C3010 1.374 . S
C3010 H2984 0.950 . S
C3010 C3006 1.385 . S
C3010 C3009 1.374 . S
C3011 C3008 1.499 . S
C3011 C3012 1.373 . S
C3011 C3013 1.389 . S
C3012 H2985 0.950 . S
C3012 C2998 1.377 . S
C3012 C3011 1.373 . S
C3013 C2997 1.377 . S
C3013 C3011 1.389 . S
C3013 C3014 1.524 . S
C3014 C3013 1.524 . S
C3014 C3015 1.397 . S
C3014 C3019 1.363 . S
C3015 H2986 0.950 . S
C3015 C3014 1.397 . S
C3015 C3016 1.334 . S
C3016 H2987 0.950 . S
C3016 C3015 1.334 . S
C3016 C3017 1.287 . S
C3017 C3016 1.287 . S
C3017 C3018 1.524 . S
C3017 H3020 0.999 . S
C3018 H2988 0.950 . S
C3018 C3017 1.524 . S
C3018 C3019 1.415 . S
C3019 H2989 0.950 . S
C3019 C3014 1.363 . S
C3019 C3018 1.415 . S
H3020 C3017 0.999 . S
H3021 C3002 0.913 . S
H3022 C3040 0.951 . S
H3023 C3042 0.951 . S
H3024 C3044 0.950 . S
H3025 C3045 0.950 . S
H3026 C3047 0.950 . S
H3027 C3050 0.950 . S
H3028 C3051 0.950 . S
H3029 C3053 0.950 . S
H3030 C3054 0.950 . S
H3031 C3055 0.951 . S
H3032 C3057 0.951 . S
H3033 C3059 0.950 . S
H3034 C3060 0.950 . S
H3035 C3062 0.950 . S
H3036 C3065 0.950 . S
H3037 C3066 0.950 . S
H3038 C3068 0.950 1_565 S
H3039 C3069 0.950 . S
C3040 H3022 0.951 . S
C3040 C3041 1.366 . S
C3040 C3042 1.388 . S
C3041 C3040 1.366 . S
C3041 C3045 1.385 . S
C3042 H3023 0.951 . S
C3042 C3040 1.388 . S
C3042 C3043 1.366 . S
C3043 C3042 1.366 . S
C3043 C3044 1.414 . S
C3043 C3046 1.499 . S
C3044 H3024 0.950 . S
C3044 C3043 1.414 . S
C3044 C3045 1.374 . S
C3045 H3025 0.950 . S
C3045 C3041 1.385 . S
C3045 C3044 1.374 . S
C3046 C3043 1.499 . S
C3046 C3047 1.373 . S
C3046 C3048 1.389 . S
C3047 H3026 0.950 . S
C3047 C3046 1.373 . S
C3047 C3063 1.377 . S
C3048 C3046 1.389 . S
C3048 C3049 1.524 . S
C3048 C3062 1.377 . S
C3049 C3048 1.524 . S
C3049 C3050 1.397 . S
C3049 C3054 1.363 . S
C3050 H3027 0.950 . S
C3050 C3049 1.397 . S
C3050 C3051 1.334 . S
C3051 H3028 0.950 . S
C3051 C3050 1.334 . S
C3051 C3052 1.287 . S
C3052 C3051 1.287 . S
C3052 C3053 1.524 . S
C3052 H3071 0.913 . S
C3053 H3029 0.950 . S
C3053 C3052 1.524 . S
C3053 C3054 1.415 . S
C3054 H3030 0.950 . S
C3054 C3049 1.363 . S
C3054 C3053 1.415 . S
C3055 H3031 0.951 . S
C3055 C3056 1.366 . S
C3055 C3057 1.388 . S
C3056 C3055 1.366 . S
C3056 C3060 1.385 . S
C3057 H3032 0.951 . S
C3057 C3055 1.388 . S
C3057 C3058 1.366 . S
C3058 C3057 1.366 . S
C3058 C3059 1.414 . S
C3058 C3061 1.499 . S
C3059 H3033 0.950 . S
C3059 C3058 1.414 . S
C3059 C3060 1.374 . S
C3060 H3034 0.950 . S
C3060 C3056 1.385 . S
C3060 C3059 1.374 . S
C3061 C3058 1.499 . S
C3061 C3062 1.373 . S
C3061 C3063 1.389 . S
C3062 H3035 0.950 . S
C3062 C3048 1.377 . S
C3062 C3061 1.373 . S
C3063 C3047 1.377 . S
C3063 C3061 1.389 . S
C3063 C3064 1.524 . S
C3064 C3063 1.524 . S
C3064 C3065 1.397 . S
C3064 C3069 1.363 . S
C3065 H3036 0.950 . S
C3065 C3064 1.397 . S
C3065 C3066 1.334 . S
C3066 H3037 0.950 . S
C3066 C3065 1.334 . S
C3066 C3067 1.296 . S
C3067 C3066 1.296 . S
C3067 C3068 1.520 . S
C3067 H3070 0.993 1_545 S
C3068 H3038 0.950 1_545 S
C3068 C3067 1.520 . S
C3068 C3069 1.415 . S
C3069 H3039 0.950 . S
C3069 C3064 1.363 . S
C3069 C3068 1.415 . S
H3070 C3067 0.993 1_565 S
H3071 C3052 0.913 . S
H3072 C3090 0.951 . S
H3073 C3092 0.951 . S
H3074 C3094 0.950 . S
H3075 C3095 0.950 . S
H3076 C3097 0.950 . S
H3077 C3100 0.950 . S
H3078 C3101 0.950 . S
H3079 C3103 0.950 . S
H3080 C3104 0.950 . S
H3081 C3105 0.951 . S
H3082 C3107 0.951 . S
H3083 C3109 0.950 . S
H3084 C3110 0.950 . S
H3085 C3112 0.950 . S
H3086 C3115 0.950 . S
H3087 C3116 0.950 . S
H3088 C3118 0.950 . S
H3089 C3119 0.950 . S
C3090 H3072 0.951 . S
C3090 C3091 1.366 . S
C3090 C3092 1.388 . S
C3091 C3090 1.366 . S
C3091 C3095 1.385 . S
C3092 H3073 0.951 . S
C3092 C3090 1.388 . S
C3092 C3093 1.366 . S
C3093 C3092 1.366 . S
C3093 C3094 1.414 . S
C3093 C3096 1.499 . S
C3094 H3074 0.950 . S
C3094 C3093 1.414 . S
C3094 C3095 1.374 . S
C3095 H3075 0.950 . S
C3095 C3091 1.385 . S
C3095 C3094 1.374 . S
C3096 C3093 1.499 . S
C3096 C3097 1.373 . S
C3096 C3098 1.389 . S
C3097 H3076 0.950 . S
C3097 C3096 1.373 . S
C3097 C3113 1.377 . S
C3098 C3096 1.389 . S
C3098 C3099 1.524 . S
C3098 C3112 1.377 . S
C3099 C3098 1.524 . S
C3099 C3100 1.397 . S
C3099 C3104 1.363 . S
C3100 H3077 0.950 . S
C3100 C3099 1.397 . S
C3100 C3101 1.334 . S
C3101 H3078 0.950 . S
C3101 C3100 1.334 . S
C3101 C3102 1.287 . S
C3102 C3101 1.287 . S
C3102 C3103 1.524 . S
C3102 H3121 0.913 . S
C3103 H3079 0.950 . S
C3103 C3102 1.524 . S
C3103 C3104 1.415 . S
C3104 H3080 0.950 . S
C3104 C3099 1.363 . S
C3104 C3103 1.415 . S
C3105 H3081 0.951 . S
C3105 C3106 1.366 . S
C3105 C3107 1.388 . S
C3106 C3105 1.366 . S
C3106 C3110 1.385 . S
C3107 H3082 0.951 . S
C3107 C3105 1.388 . S
C3107 C3108 1.366 . S
C3108 C3107 1.366 . S
C3108 C3109 1.414 . S
C3108 C3111 1.499 . S
C3109 H3083 0.950 . S
C3109 C3108 1.414 . S
C3109 C3110 1.374 . S
C3110 H3084 0.950 . S
C3110 C3106 1.385 . S
C3110 C3109 1.374 . S
C3111 C3108 1.499 . S
C3111 C3112 1.373 . S
C3111 C3113 1.389 . S
C3112 H3085 0.950 . S
C3112 C3098 1.377 . S
C3112 C3111 1.373 . S
C3113 C3097 1.377 . S
C3113 C3111 1.389 . S
C3113 C3114 1.524 . S
C3114 C3113 1.524 . S
C3114 C3115 1.397 . S
C3114 C3119 1.363 . S
C3115 H3086 0.950 . S
C3115 C3114 1.397 . S
C3115 C3116 1.334 . S
C3116 H3087 0.950 . S
C3116 C3115 1.334 . S
C3116 C3117 1.287 . S
C3117 C3116 1.287 . S
C3117 C3118 1.524 . S
C3117 H3120 0.999 . S
C3118 H3088 0.950 . S
C3118 C3117 1.524 . S
C3118 C3119 1.415 . S
C3119 H3089 0.950 . S
C3119 C3114 1.363 . S
C3119 C3118 1.415 . S
H3120 C3117 0.999 . S
H3121 C3102 0.913 . S
H3122 C3140 0.951 . S
H3123 C3142 0.951 . S
H3124 C3144 0.950 . S
H3125 C3145 0.950 . S
H3126 C3147 0.950 . S
H3127 C3150 0.950 . S
H3128 C3151 0.950 . S
H3129 C3153 0.950 . S
H3130 C3154 0.950 . S
H3131 C3155 0.951 . S
H3132 C3157 0.951 . S
H3133 C3159 0.950 . S
H3134 C3160 0.950 . S
H3135 C3162 0.950 . S
H3136 C3165 0.950 . S
H3137 C3166 0.950 . S
H3138 C3168 0.950 . S
H3139 C3169 0.950 . S
C3140 H3122 0.951 . S
C3140 C3141 1.366 . S
C3140 C3142 1.388 . S
C3141 C3140 1.366 . S
C3141 C3145 1.385 . S
C3142 H3123 0.951 . S
C3142 C3140 1.388 . S
C3142 C3143 1.366 . S
C3143 C3142 1.366 . S
C3143 C3144 1.414 . S
C3143 C3146 1.499 . S
C3144 H3124 0.950 . S
C3144 C3143 1.414 . S
C3144 C3145 1.374 . S
C3145 H3125 0.950 . S
C3145 C3141 1.385 . S
C3145 C3144 1.374 . S
C3146 C3143 1.499 . S
C3146 C3147 1.373 . S
C3146 C3148 1.389 . S
C3147 H3126 0.950 . S
C3147 C3146 1.373 . S
C3147 C3163 1.377 . S
C3148 C3146 1.389 . S
C3148 C3149 1.524 . S
C3148 C3162 1.377 . S
C3149 C3148 1.524 . S
C3149 C3150 1.397 . S
C3149 C3154 1.363 . S
C3150 H3127 0.950 . S
C3150 C3149 1.397 . S
C3150 C3151 1.334 . S
C3151 H3128 0.950 . S
C3151 C3150 1.334 . S
C3151 C3152 1.287 . S
C3152 C3151 1.287 . S
C3152 C3153 1.524 . S
C3152 H3171 0.913 . S
C3153 H3129 0.950 . S
C3153 C3152 1.524 . S
C3153 C3154 1.415 . S
C3154 H3130 0.950 . S
C3154 C3149 1.363 . S
C3154 C3153 1.415 . S
C3155 H3131 0.951 . S
C3155 C3156 1.366 . S
C3155 C3157 1.388 . S
C3156 C3155 1.366 . S
C3156 C3160 1.385 . S
C3157 H3132 0.951 . S
C3157 C3155 1.388 . S
C3157 C3158 1.366 . S
C3158 C3157 1.366 . S
C3158 C3159 1.414 . S
C3158 C3161 1.499 . S
C3159 H3133 0.950 . S
C3159 C3158 1.414 . S
C3159 C3160 1.374 . S
C3160 H3134 0.950 . S
C3160 C3156 1.385 . S
C3160 C3159 1.374 . S
C3161 C3158 1.499 . S
C3161 C3162 1.373 . S
C3161 C3163 1.389 . S
C3162 H3135 0.950 . S
C3162 C3148 1.377 . S
C3162 C3161 1.373 . S
C3163 C3147 1.377 . S
C3163 C3161 1.389 . S
C3163 C3164 1.524 . S
C3164 C3163 1.524 . S
C3164 C3165 1.397 . S
C3164 C3169 1.363 . S
C3165 H3136 0.950 . S
C3165 C3164 1.397 . S
C3165 C3166 1.334 . S
C3166 H3137 0.950 . S
C3166 C3165 1.334 . S
C3166 C3167 1.287 . S
C3167 C3166 1.287 . S
C3167 C3168 1.524 . S
C3167 H3170 0.999 . S
C3168 H3138 0.950 . S
C3168 C3167 1.524 . S
C3168 C3169 1.415 . S
C3169 H3139 0.950 . S
C3169 C3164 1.363 . S
C3169 C3168 1.415 . S
H3170 C3167 0.999 . S
H3171 C3152 0.913 . S
H3172 C3190 0.951 . S
H3173 C3192 0.951 . S
H3174 C3194 0.950 . S
H3175 C3195 0.950 . S
H3176 C3197 0.950 . S
H3177 C3200 0.950 . S
H3178 C3201 0.950 . S
H3179 C3203 0.950 . S
H3180 C3204 0.950 . S
H3181 C3205 0.951 . S
H3182 C3207 0.951 . S
H3183 C3209 0.950 . S
H3184 C3210 0.950 . S
H3185 C3212 0.950 . S
H3186 C3215 0.950 . S
H3187 C3216 0.950 . S
H3188 C3218 0.950 . S
H3189 C3219 0.950 . S
C3190 H3172 0.951 . S
C3190 C3191 1.366 . S
C3190 C3192 1.388 . S
C3191 C3190 1.366 . S
C3191 C3195 1.385 . S
C3192 H3173 0.951 . S
C3192 C3190 1.388 . S
C3192 C3193 1.366 . S
C3193 C3192 1.366 . S
C3193 C3194 1.414 . S
C3193 C3196 1.499 . S
C3194 H3174 0.950 . S
C3194 C3193 1.414 . S
C3194 C3195 1.374 . S
C3195 H3175 0.950 . S
C3195 C3191 1.385 . S
C3195 C3194 1.374 . S
C3196 C3193 1.499 . S
C3196 C3197 1.373 . S
C3196 C3198 1.389 . S
C3197 H3176 0.950 . S
C3197 C3196 1.373 . S
C3197 C3213 1.377 . S
C3198 C3196 1.389 . S
C3198 C3199 1.524 . S
C3198 C3212 1.377 . S
C3199 C3198 1.524 . S
C3199 C3200 1.397 . S
C3199 C3204 1.363 . S
C3200 H3177 0.950 . S
C3200 C3199 1.397 . S
C3200 C3201 1.334 . S
C3201 H3178 0.950 . S
C3201 C3200 1.334 . S
C3201 C3202 1.287 . S
C3202 C3201 1.287 . S
C3202 C3203 1.524 . S
C3202 H3221 0.913 . S
C3203 H3179 0.950 . S
C3203 C3202 1.524 . S
C3203 C3204 1.415 . S
C3204 H3180 0.950 . S
C3204 C3199 1.363 . S
C3204 C3203 1.415 . S
C3205 H3181 0.951 . S
C3205 C3206 1.366 . S
C3205 C3207 1.388 . S
C3206 C3205 1.366 . S
C3206 C3210 1.385 . S
C3207 H3182 0.951 . S
C3207 C3205 1.388 . S
C3207 C3208 1.366 . S
C3208 C3207 1.366 . S
C3208 C3209 1.414 . S
C3208 C3211 1.499 . S
C3209 H3183 0.950 . S
C3209 C3208 1.414 . S
C3209 C3210 1.374 . S
C3210 H3184 0.950 . S
C3210 C3206 1.385 . S
C3210 C3209 1.374 . S
C3211 C3208 1.499 . S
C3211 C3212 1.373 . S
C3211 C3213 1.389 . S
C3212 H3185 0.950 . S
C3212 C3198 1.377 . S
C3212 C3211 1.373 . S
C3213 C3197 1.377 . S
C3213 C3211 1.389 . S
C3213 C3214 1.524 . S
C3214 C3213 1.524 . S
C3214 C3215 1.397 . S
C3214 C3219 1.363 . S
C3215 H3186 0.950 . S
C3215 C3214 1.397 . S
C3215 C3216 1.334 . S
C3216 H3187 0.950 . S
C3216 C3215 1.334 . S
C3216 C3217 1.287 . S
C3217 C3216 1.287 . S
C3217 C3218 1.524 . S
C3217 H3220 0.999 . S
C3218 H3188 0.950 . S
C3218 C3217 1.524 . S
C3218 C3219 1.415 . S
C3219 H3189 0.950 . S
C3219 C3214 1.363 . S
C3219 C3218 1.415 . S
H3220 C3217 0.999 . S
H3221 C3202 0.913 . S
H3222 C3240 0.951 . S
H3223 C3242 0.951 . S
H3224 C3244 0.950 . S
H3225 C3245 0.950 . S
H3226 C3247 0.950 . S
H3227 C3250 0.950 . S
H3228 C3251 0.950 . S
H3229 C3253 0.950 . S
H3230 C3254 0.950 . S
H3231 C3255 0.951 . S
H3232 C3257 0.951 . S
H3233 C3259 0.950 . S
H3234 C3260 0.950 . S
H3235 C3262 0.950 . S
H3236 C3265 0.950 . S
H3237 C3266 0.950 . S
H3238 C3268 0.950 . S
H3239 C3269 0.950 . S
C3240 H3222 0.951 . S
C3240 C3241 1.366 . S
C3240 C3242 1.388 . S
C3241 C3240 1.366 . S
C3241 C3245 1.385 . S
C3242 H3223 0.951 . S
C3242 C3240 1.388 . S
C3242 C3243 1.366 . S
C3243 C3242 1.366 . S
C3243 C3244 1.414 . S
C3243 C3246 1.499 . S
C3244 H3224 0.950 . S
C3244 C3243 1.414 . S
C3244 C3245 1.374 . S
C3245 H3225 0.950 . S
C3245 C3241 1.385 . S
C3245 C3244 1.374 . S
C3246 C3243 1.499 . S
C3246 C3247 1.373 . S
C3246 C3248 1.389 . S
C3247 H3226 0.950 . S
C3247 C3246 1.373 . S
C3247 C3263 1.377 . S
C3248 C3246 1.389 . S
C3248 C3249 1.524 . S
C3248 C3262 1.377 . S
C3249 C3248 1.524 . S
C3249 C3250 1.397 . S
C3249 C3254 1.363 . S
C3250 H3227 0.950 . S
C3250 C3249 1.397 . S
C3250 C3251 1.334 . S
C3251 H3228 0.950 . S
C3251 C3250 1.334 . S
C3251 C3252 1.287 . S
C3252 C3251 1.287 . S
C3252 C3253 1.524 . S
C3252 H3271 0.913 . S
C3253 H3229 0.950 . S
C3253 C3252 1.524 . S
C3253 C3254 1.415 . S
C3254 H3230 0.950 . S
C3254 C3249 1.363 . S
C3254 C3253 1.415 . S
C3255 H3231 0.951 . S
C3255 C3256 1.366 . S
C3255 C3257 1.388 . S
C3256 C3255 1.366 . S
C3256 C3260 1.385 . S
C3257 H3232 0.951 . S
C3257 C3255 1.388 . S
C3257 C3258 1.366 . S
C3258 C3257 1.366 . S
C3258 C3259 1.414 . S
C3258 C3261 1.499 . S
C3259 H3233 0.950 . S
C3259 C3258 1.414 . S
C3259 C3260 1.374 . S
C3260 H3234 0.950 . S
C3260 C3256 1.385 . S
C3260 C3259 1.374 . S
C3261 C3258 1.499 . S
C3261 C3262 1.373 . S
C3261 C3263 1.389 . S
C3262 H3235 0.950 . S
C3262 C3248 1.377 . S
C3262 C3261 1.373 . S
C3263 C3247 1.377 . S
C3263 C3261 1.389 . S
C3263 C3264 1.524 . S
C3264 C3263 1.524 . S
C3264 C3265 1.397 . S
C3264 C3269 1.363 . S
C3265 H3236 0.950 . S
C3265 C3264 1.397 . S
C3265 C3266 1.334 . S
C3266 H3237 0.950 . S
C3266 C3265 1.334 . S
C3266 C3267 1.287 . S
C3267 C3266 1.287 . S
C3267 C3268 1.524 . S
C3267 H3270 0.999 . S
C3268 H3238 0.950 . S
C3268 C3267 1.524 . S
C3268 C3269 1.415 . S
C3269 H3239 0.950 . S
C3269 C3264 1.363 . S
C3269 C3268 1.415 . S
H3270 C3267 0.999 . S
H3271 C3252 0.913 . S
H3272 C3290 0.951 . S
H3273 C3292 0.951 . S
H3274 C3294 0.950 . S
H3275 C3295 0.950 . S
H3276 C3297 0.950 . S
H3277 C3300 0.950 . S
H3278 C3301 0.950 . S
H3279 C3303 0.950 . S
H3280 C3304 0.950 . S
H3281 C3305 0.951 . S
H3282 C3307 0.951 . S
H3283 C3309 0.950 . S
H3284 C3310 0.950 . S
H3285 C3312 0.950 . S
H3286 C3315 0.950 . S
H3287 C3316 0.950 . S
H3288 C3318 0.950 . S
H3289 C3319 0.950 . S
C3290 H3272 0.951 . S
C3290 C3291 1.366 . S
C3290 C3292 1.388 . S
C3291 C3290 1.366 . S
C3291 C3295 1.385 . S
C3292 H3273 0.951 . S
C3292 C3290 1.388 . S
C3292 C3293 1.366 . S
C3293 C3292 1.366 . S
C3293 C3294 1.414 . S
C3293 C3296 1.499 . S
C3294 H3274 0.950 . S
C3294 C3293 1.414 . S
C3294 C3295 1.374 . S
C3295 H3275 0.950 . S
C3295 C3291 1.385 . S
C3295 C3294 1.374 . S
C3296 C3293 1.499 . S
C3296 C3297 1.373 . S
C3296 C3298 1.389 . S
C3297 H3276 0.950 . S
C3297 C3296 1.373 . S
C3297 C3313 1.377 . S
C3298 C3296 1.389 . S
C3298 C3299 1.524 . S
C3298 C3312 1.377 . S
C3299 C3298 1.524 . S
C3299 C3300 1.397 . S
C3299 C3304 1.363 . S
C3300 H3277 0.950 . S
C3300 C3299 1.397 . S
C3300 C3301 1.334 . S
C3301 H3278 0.950 . S
C3301 C3300 1.334 . S
C3301 C3302 1.287 . S
C3302 C3301 1.287 . S
C3302 C3303 1.524 . S
C3302 H3321 0.913 . S
C3303 H3279 0.950 . S
C3303 C3302 1.524 . S
C3303 C3304 1.415 . S
C3304 H3280 0.950 . S
C3304 C3299 1.363 . S
C3304 C3303 1.415 . S
C3305 H3281 0.951 . S
C3305 C3306 1.366 . S
C3305 C3307 1.388 . S
C3306 C3305 1.366 . S
C3306 C3310 1.385 . S
C3307 H3282 0.951 . S
C3307 C3305 1.388 . S
C3307 C3308 1.366 . S
C3308 C3307 1.366 . S
C3308 C3309 1.414 . S
C3308 C3311 1.499 . S
C3309 H3283 0.950 . S
C3309 C3308 1.414 . S
C3309 C3310 1.374 . S
C3310 H3284 0.950 . S
C3310 C3306 1.385 . S
C3310 C3309 1.374 . S
C3311 C3308 1.499 . S
C3311 C3312 1.373 . S
C3311 C3313 1.389 . S
C3312 H3285 0.950 . S
C3312 C3298 1.377 . S
C3312 C3311 1.373 . S
C3313 C3297 1.377 . S
C3313 C3311 1.389 . S
C3313 C3314 1.524 . S
C3314 C3313 1.524 . S
C3314 C3315 1.397 . S
C3314 C3319 1.363 . S
C3315 H3286 0.950 . S
C3315 C3314 1.397 . S
C3315 C3316 1.334 . S
C3316 H3287 0.950 . S
C3316 C3315 1.334 . S
C3316 C3317 1.287 . S
C3317 C3316 1.287 . S
C3317 C3318 1.524 . S
C3317 H3320 0.999 . S
C3318 H3288 0.950 . S
C3318 C3317 1.524 . S
C3318 C3319 1.415 . S
C3319 H3289 0.950 . S
C3319 C3314 1.363 . S
C3319 C3318 1.415 . S
H3320 C3317 0.999 . S
H3321 C3302 0.913 . S
H3322 C3340 0.951 . S
H3323 C3342 0.951 . S
H3324 C3344 0.950 . S
H3325 C3345 0.950 . S
H3326 C3347 0.950 . S
H3327 C3350 0.950 . S
H3328 C3351 0.950 . S
H3329 C3353 0.950 . S
H3330 C3354 0.950 . S
H3331 C3355 0.951 . S
H3332 C3357 0.951 . S
H3333 C3359 0.950 . S
H3334 C3360 0.950 . S
H3335 C3362 0.950 . S
H3336 C3365 0.950 . S
H3337 C3366 0.950 . S
H3338 C3368 0.950 . S
H3339 C3369 0.950 . S
C3340 H3322 0.951 . S
C3340 C3341 1.366 . S
C3340 C3342 1.388 . S
C3341 C3340 1.366 . S
C3341 C3345 1.385 . S
C3342 H3323 0.951 . S
C3342 C3340 1.388 . S
C3342 C3343 1.366 . S
C3343 C3342 1.366 . S
C3343 C3344 1.414 . S
C3343 C3346 1.499 . S
C3344 H3324 0.950 . S
C3344 C3343 1.414 . S
C3344 C3345 1.374 . S
C3345 H3325 0.950 . S
C3345 C3341 1.385 . S
C3345 C3344 1.374 . S
C3346 C3343 1.499 . S
C3346 C3347 1.373 . S
C3346 C3348 1.389 . S
C3347 H3326 0.950 . S
C3347 C3346 1.373 . S
C3347 C3363 1.377 . S
C3348 C3346 1.389 . S
C3348 C3349 1.524 . S
C3348 C3362 1.377 . S
C3349 C3348 1.524 . S
C3349 C3350 1.397 . S
C3349 C3354 1.363 . S
C3350 H3327 0.950 . S
C3350 C3349 1.397 . S
C3350 C3351 1.334 . S
C3351 H3328 0.950 . S
C3351 C3350 1.334 . S
C3351 C3352 1.287 . S
C3352 C3351 1.287 . S
C3352 C3353 1.524 . S
C3352 H3371 0.913 . S
C3353 H3329 0.950 . S
C3353 C3352 1.524 . S
C3353 C3354 1.415 . S
C3354 H3330 0.950 . S
C3354 C3349 1.363 . S
C3354 C3353 1.415 . S
C3355 H3331 0.951 . S
C3355 C3356 1.366 . S
C3355 C3357 1.388 . S
C3356 C3355 1.366 . S
C3356 C3360 1.385 . S
C3357 H3332 0.951 . S
C3357 C3355 1.388 . S
C3357 C3358 1.366 . S
C3358 C3357 1.366 . S
C3358 C3359 1.414 . S
C3358 C3361 1.499 . S
C3359 H3333 0.950 . S
C3359 C3358 1.414 . S
C3359 C3360 1.374 . S
C3360 H3334 0.950 . S
C3360 C3356 1.385 . S
C3360 C3359 1.374 . S
C3361 C3358 1.499 . S
C3361 C3362 1.373 . S
C3361 C3363 1.389 . S
C3362 H3335 0.950 . S
C3362 C3348 1.377 . S
C3362 C3361 1.373 . S
C3363 C3347 1.377 . S
C3363 C3361 1.389 . S
C3363 C3364 1.524 . S
C3364 C3363 1.524 . S
C3364 C3365 1.397 . S
C3364 C3369 1.363 . S
C3365 H3336 0.950 . S
C3365 C3364 1.397 . S
C3365 C3366 1.334 . S
C3366 H3337 0.950 . S
C3366 C3365 1.334 . S
C3366 C3367 1.287 . S
C3367 C3366 1.287 . S
C3367 C3368 1.524 . S
C3367 H3370 0.999 . S
C3368 H3338 0.950 . S
C3368 C3367 1.524 . S
C3368 C3369 1.415 . S
C3369 H3339 0.950 . S
C3369 C3364 1.363 . S
C3369 C3368 1.415 . S
H3370 C3367 0.999 . S
H3371 C3352 0.913 . S
H3372 C3390 0.951 . S
H3373 C3392 0.951 . S
H3374 C3394 0.950 . S
H3375 C3395 0.950 . S
H3376 C3397 0.950 . S
H3377 C3400 0.950 . S
H3378 C3401 0.950 . S
H3379 C3403 0.950 . S
H3380 C3404 0.950 . S
H3381 C3405 0.951 . S
H3382 C3407 0.951 . S
H3383 C3409 0.950 . S
H3384 C3410 0.950 . S
H3385 C3412 0.950 . S
H3386 C3415 0.950 . S
H3387 C3416 0.950 . S
H3388 C3418 0.950 . S
H3389 C3419 0.950 . S
C3390 H3372 0.951 . S
C3390 C3391 1.366 . S
C3390 C3392 1.388 . S
C3391 C3390 1.366 . S
C3391 C3395 1.385 . S
C3392 H3373 0.951 . S
C3392 C3390 1.388 . S
C3392 C3393 1.366 . S
C3393 C3392 1.366 . S
C3393 C3394 1.414 . S
C3393 C3396 1.499 . S
C3394 H3374 0.950 . S
C3394 C3393 1.414 . S
C3394 C3395 1.374 . S
C3395 H3375 0.950 . S
C3395 C3391 1.385 . S
C3395 C3394 1.374 . S
C3396 C3393 1.499 . S
C3396 C3397 1.373 . S
C3396 C3398 1.389 . S
C3397 H3376 0.950 . S
C3397 C3396 1.373 . S
C3397 C3413 1.377 . S
C3398 C3396 1.389 . S
C3398 C3399 1.524 . S
C3398 C3412 1.377 . S
C3399 C3398 1.524 . S
C3399 C3400 1.397 . S
C3399 C3404 1.363 . S
C3400 H3377 0.950 . S
C3400 C3399 1.397 . S
C3400 C3401 1.334 . S
C3401 H3378 0.950 . S
C3401 C3400 1.334 . S
C3401 C3402 1.287 . S
C3402 C3401 1.287 . S
C3402 C3403 1.524 . S
C3402 H3421 0.913 . S
C3403 H3379 0.950 . S
C3403 C3402 1.524 . S
C3403 C3404 1.415 . S
C3404 H3380 0.950 . S
C3404 C3399 1.363 . S
C3404 C3403 1.415 . S
C3405 H3381 0.951 . S
C3405 C3406 1.366 . S
C3405 C3407 1.388 . S
C3406 C3405 1.366 . S
C3406 C3410 1.385 . S
C3407 H3382 0.951 . S
C3407 C3405 1.388 . S
C3407 C3408 1.366 . S
C3408 C3407 1.366 . S
C3408 C3409 1.414 . S
C3408 C3411 1.499 . S
C3409 H3383 0.950 . S
C3409 C3408 1.414 . S
C3409 C3410 1.374 . S
C3410 H3384 0.950 . S
C3410 C3406 1.385 . S
C3410 C3409 1.374 . S
C3411 C3408 1.499 . S
C3411 C3412 1.373 . S
C3411 C3413 1.389 . S
C3412 H3385 0.950 . S
C3412 C3398 1.377 . S
C3412 C3411 1.373 . S
C3413 C3397 1.377 . S
C3413 C3411 1.389 . S
C3413 C3414 1.524 . S
C3414 C3413 1.524 . S
C3414 C3415 1.397 . S
C3414 C3419 1.363 . S
C3415 H3386 0.950 . S
C3415 C3414 1.397 . S
C3415 C3416 1.334 . S
C3416 H3387 0.950 . S
C3416 C3415 1.334 . S
C3416 C3417 1.287 . S
C3417 C3416 1.287 . S
C3417 C3418 1.524 . S
C3417 H3420 0.999 . S
C3418 H3388 0.950 . S
C3418 C3417 1.524 . S
C3418 C3419 1.415 . S
C3419 H3389 0.950 . S
C3419 C3414 1.363 . S
C3419 C3418 1.415 . S
H3420 C3417 0.999 . S
H3421 C3402 0.913 . S
H3422 C3440 0.951 . S
H3423 C3442 0.951 . S
H3424 C3444 0.950 . S
H3425 C3445 0.950 . S
H3426 C3447 0.950 . S
H3427 C3450 0.950 . S
H3428 C3451 0.950 . S
H3429 C3453 0.950 . S
H3430 C3454 0.950 . S
H3431 C3455 0.951 . S
H3432 C3457 0.951 . S
H3433 C3459 0.950 . S
H3434 C3460 0.950 . S
H3435 C3462 0.950 . S
H3436 C3465 0.950 . S
H3437 C3466 0.950 . S
H3438 C3468 0.950 . S
H3439 C3469 0.950 . S
C3440 H3422 0.951 . S
C3440 C3441 1.366 . S
C3440 C3442 1.388 . S
C3441 C3440 1.366 . S
C3441 C3445 1.385 . S
C3442 H3423 0.951 . S
C3442 C3440 1.388 . S
C3442 C3443 1.366 . S
C3443 C3442 1.366 . S
C3443 C3444 1.414 . S
C3443 C3446 1.499 . S
C3444 H3424 0.950 . S
C3444 C3443 1.414 . S
C3444 C3445 1.374 . S
C3445 H3425 0.950 . S
C3445 C3441 1.385 . S
C3445 C3444 1.374 . S
C3446 C3443 1.499 . S
C3446 C3447 1.373 . S
C3446 C3448 1.389 . S
C3447 H3426 0.950 . S
C3447 C3446 1.373 . S
C3447 C3463 1.377 . S
C3448 C3446 1.389 . S
C3448 C3449 1.524 . S
C3448 C3462 1.377 . S
C3449 C3448 1.524 . S
C3449 C3450 1.397 . S
C3449 C3454 1.363 . S
C3450 H3427 0.950 . S
C3450 C3449 1.397 . S
C3450 C3451 1.334 . S
C3451 H3428 0.950 . S
C3451 C3450 1.334 . S
C3451 C3452 1.287 . S
C3452 C3451 1.287 . S
C3452 C3453 1.524 . S
C3452 H3471 0.913 . S
C3453 H3429 0.950 . S
C3453 C3452 1.524 . S
C3453 C3454 1.415 . S
C3454 H3430 0.950 . S
C3454 C3449 1.363 . S
C3454 C3453 1.415 . S
C3455 H3431 0.951 . S
C3455 C3456 1.366 . S
C3455 C3457 1.388 . S
C3456 C3455 1.366 . S
C3456 C3460 1.385 . S
C3457 H3432 0.951 . S
C3457 C3455 1.388 . S
C3457 C3458 1.366 . S
C3458 C3457 1.366 . S
C3458 C3459 1.414 . S
C3458 C3461 1.499 . S
C3459 H3433 0.950 . S
C3459 C3458 1.414 . S
C3459 C3460 1.374 . S
C3460 H3434 0.950 . S
C3460 C3456 1.385 . S
C3460 C3459 1.374 . S
C3461 C3458 1.499 . S
C3461 C3462 1.373 . S
C3461 C3463 1.389 . S
C3462 H3435 0.950 . S
C3462 C3448 1.377 . S
C3462 C3461 1.373 . S
C3463 C3447 1.377 . S
C3463 C3461 1.389 . S
C3463 C3464 1.524 . S
C3464 C3463 1.524 . S
C3464 C3465 1.397 . S
C3464 C3469 1.363 . S
C3465 H3436 0.950 . S
C3465 C3464 1.397 . S
C3465 C3466 1.334 . S
C3466 H3437 0.950 . S
C3466 C3465 1.334 . S
C3466 C3467 1.287 . S
C3467 C3466 1.287 . S
C3467 C3468 1.524 . S
C3467 H3470 0.999 . S
C3468 H3438 0.950 . S
C3468 C3467 1.524 . S
C3468 C3469 1.415 . S
C3469 H3439 0.950 . S
C3469 C3464 1.363 . S
C3469 C3468 1.415 . S
H3470 C3467 0.999 . S
H3471 C3452 0.913 . S
H3472 C3490 0.951 . S
H3473 C3492 0.951 . S
H3474 C3494 0.950 . S
H3475 C3495 0.950 . S
H3476 C3497 0.950 . S
H3477 C3500 0.950 . S
H3478 C3501 0.950 . S
H3479 C3503 0.950 . S
H3480 C3504 0.950 . S
H3481 C3505 0.951 . S
H3482 C3507 0.951 . S
H3483 C3509 0.950 . S
H3484 C3510 0.950 . S
H3485 C3512 0.950 . S
H3486 C3515 0.950 . S
H3487 C3516 0.950 . S
H3488 C3518 0.950 . S
H3489 C3519 0.950 . S
C3490 H3472 0.951 . S
C3490 C3491 1.366 . S
C3490 C3492 1.388 . S
C3491 C3490 1.366 . S
C3491 C3495 1.385 . S
C3492 H3473 0.951 . S
C3492 C3490 1.388 . S
C3492 C3493 1.366 . S
C3493 C3492 1.366 . S
C3493 C3494 1.414 . S
C3493 C3496 1.499 . S
C3494 H3474 0.950 . S
C3494 C3493 1.414 . S
C3494 C3495 1.374 . S
C3495 H3475 0.950 . S
C3495 C3491 1.385 . S
C3495 C3494 1.374 . S
C3496 C3493 1.499 . S
C3496 C3497 1.373 . S
C3496 C3498 1.389 . S
C3497 H3476 0.950 . S
C3497 C3496 1.373 . S
C3497 C3513 1.377 . S
C3498 C3496 1.389 . S
C3498 C3499 1.524 . S
C3498 C3512 1.377 . S
C3499 C3498 1.524 . S
C3499 C3500 1.397 . S
C3499 C3504 1.363 . S
C3500 H3477 0.950 . S
C3500 C3499 1.397 . S
C3500 C3501 1.334 . S
C3501 H3478 0.950 . S
C3501 C3500 1.334 . S
C3501 C3502 1.287 . S
C3502 C3501 1.287 . S
C3502 C3503 1.524 . S
C3502 H3521 0.913 . S
C3503 H3479 0.950 . S
C3503 C3502 1.524 . S
C3503 C3504 1.415 . S
C3504 H3480 0.950 . S
C3504 C3499 1.363 . S
C3504 C3503 1.415 . S
C3505 H3481 0.951 . S
C3505 C3506 1.366 . S
C3505 C3507 1.388 . S
C3506 C3505 1.366 . S
C3506 C3510 1.385 . S
C3507 H3482 0.951 . S
C3507 C3505 1.388 . S
C3507 C3508 1.366 . S
C3508 C3507 1.366 . S
C3508 C3509 1.414 . S
C3508 C3511 1.499 . S
C3509 H3483 0.950 . S
C3509 C3508 1.414 . S
C3509 C3510 1.374 . S
C3510 H3484 0.950 . S
C3510 C3506 1.385 . S
C3510 C3509 1.374 . S
C3511 C3508 1.499 . S
C3511 C3512 1.373 . S
C3511 C3513 1.389 . S
C3512 H3485 0.950 . S
C3512 C3498 1.377 . S
C3512 C3511 1.373 . S
C3513 C3497 1.377 . S
C3513 C3511 1.389 . S
C3513 C3514 1.524 . S
C3514 C3513 1.524 . S
C3514 C3515 1.397 . S
C3514 C3519 1.363 . S
C3515 H3486 0.950 . S
C3515 C3514 1.397 . S
C3515 C3516 1.334 . S
C3516 H3487 0.950 . S
C3516 C3515 1.334 . S
C3516 C3517 1.287 . S
C3517 C3516 1.287 . S
C3517 C3518 1.524 . S
C3517 H3520 0.999 . S
C3518 H3488 0.950 . S
C3518 C3517 1.524 . S
C3518 C3519 1.415 . S
C3519 H3489 0.950 . S
C3519 C3514 1.363 . S
C3519 C3518 1.415 . S
H3520 C3517 0.999 . S
H3521 C3502 0.913 . S
H3522 C3540 0.951 . S
H3523 C3542 0.951 . S
H3524 C3544 0.950 . S
H3525 C3545 0.950 . S
H3526 C3547 0.950 . S
H3527 C3550 0.950 . S
H3528 C3551 0.950 . S
H3529 C3553 0.950 . S
H3530 C3554 0.950 . S
H3531 C3555 0.951 . S
H3532 C3557 0.951 . S
H3533 C3559 0.950 . S
H3534 C3560 0.950 . S
H3535 C3562 0.950 . S
H3536 C3565 0.950 . S
H3537 C3566 0.950 . S
H3538 C3568 0.950 . S
H3539 C3569 0.950 . S
C3540 H3522 0.951 . S
C3540 C3541 1.366 . S
C3540 C3542 1.388 . S
C3541 C3540 1.366 . S
C3541 C3545 1.385 . S
C3542 H3523 0.951 . S
C3542 C3540 1.388 . S
C3542 C3543 1.366 . S
C3543 C3542 1.366 . S
C3543 C3544 1.414 . S
C3543 C3546 1.499 . S
C3544 H3524 0.950 . S
C3544 C3543 1.414 . S
C3544 C3545 1.374 . S
C3545 H3525 0.950 . S
C3545 C3541 1.385 . S
C3545 C3544 1.374 . S
C3546 C3543 1.499 . S
C3546 C3547 1.373 . S
C3546 C3548 1.389 . S
C3547 H3526 0.950 . S
C3547 C3546 1.373 . S
C3547 C3563 1.377 . S
C3548 C3546 1.389 . S
C3548 C3549 1.524 . S
C3548 C3562 1.377 . S
C3549 C3548 1.524 . S
C3549 C3550 1.397 . S
C3549 C3554 1.363 . S
C3550 H3527 0.950 . S
C3550 C3549 1.397 . S
C3550 C3551 1.334 . S
C3551 H3528 0.950 . S
C3551 C3550 1.334 . S
C3551 C3552 1.287 . S
C3552 C3551 1.287 . S
C3552 C3553 1.524 . S
C3552 H3571 0.913 . S
C3553 H3529 0.950 . S
C3553 C3552 1.524 . S
C3553 C3554 1.415 . S
C3554 H3530 0.950 . S
C3554 C3549 1.363 . S
C3554 C3553 1.415 . S
C3555 H3531 0.951 . S
C3555 C3556 1.366 . S
C3555 C3557 1.388 . S
C3556 C3555 1.366 . S
C3556 C3560 1.385 . S
C3557 H3532 0.951 . S
C3557 C3555 1.388 . S
C3557 C3558 1.366 . S
C3558 C3557 1.366 . S
C3558 C3559 1.414 . S
C3558 C3561 1.499 . S
C3559 H3533 0.950 . S
C3559 C3558 1.414 . S
C3559 C3560 1.374 . S
C3560 H3534 0.950 . S
C3560 C3556 1.385 . S
C3560 C3559 1.374 . S
C3561 C3558 1.499 . S
C3561 C3562 1.373 . S
C3561 C3563 1.389 . S
C3562 H3535 0.950 . S
C3562 C3548 1.377 . S
C3562 C3561 1.373 . S
C3563 C3547 1.377 . S
C3563 C3561 1.389 . S
C3563 C3564 1.524 . S
C3564 C3563 1.524 . S
C3564 C3565 1.397 . S
C3564 C3569 1.363 . S
C3565 H3536 0.950 . S
C3565 C3564 1.397 . S
C3565 C3566 1.334 . S
C3566 H3537 0.950 . S
C3566 C3565 1.334 . S
C3566 C3567 1.287 . S
C3567 C3566 1.287 . S
C3567 C3568 1.524 . S
C3567 H3570 0.999 . S
C3568 H3538 0.950 . S
C3568 C3567 1.524 . S
C3568 C3569 1.415 . S
C3569 H3539 0.950 . S
C3569 C3564 1.363 . S
C3569 C3568 1.415 . S
H3570 C3567 0.999 . S
H3571 C3552 0.913 . S
H3572 C3590 0.951 . S
H3573 C3592 0.951 . S
H3574 C3594 0.950 . S
H3575 C3595 0.950 . S
H3576 C3597 0.950 . S
H3577 C3600 0.950 . S
H3578 C3601 0.950 . S
H3579 C3603 0.950 . S
H3580 C3604 0.950 . S
H3581 C3605 0.951 . S
H3582 C3607 0.951 . S
H3583 C3609 0.950 . S
H3584 C3610 0.950 . S
H3585 C3612 0.950 . S
H3586 C3615 0.950 . S
H3587 C3616 0.950 . S
H3588 C3618 0.950 . S
H3589 C3619 0.950 . S
C3590 H3572 0.951 . S
C3590 C3591 1.366 . S
C3590 C3592 1.388 . S
C3591 C3590 1.366 . S
C3591 C3595 1.385 . S
C3592 H3573 0.951 . S
C3592 C3590 1.388 . S
C3592 C3593 1.366 . S
C3593 C3592 1.366 . S
C3593 C3594 1.414 . S
C3593 C3596 1.499 . S
C3594 H3574 0.950 . S
C3594 C3593 1.414 . S
C3594 C3595 1.374 . S
C3595 H3575 0.950 . S
C3595 C3591 1.385 . S
C3595 C3594 1.374 . S
C3596 C3593 1.499 . S
C3596 C3597 1.373 . S
C3596 C3598 1.389 . S
C3597 H3576 0.950 . S
C3597 C3596 1.373 . S
C3597 C3613 1.377 . S
C3598 C3596 1.389 . S
C3598 C3599 1.524 . S
C3598 C3612 1.377 . S
C3599 C3598 1.524 . S
C3599 C3600 1.397 . S
C3599 C3604 1.363 . S
C3600 H3577 0.950 . S
C3600 C3599 1.397 . S
C3600 C3601 1.334 . S
C3601 H3578 0.950 . S
C3601 C3600 1.334 . S
C3601 C3602 1.287 . S
C3602 C3601 1.287 . S
C3602 C3603 1.524 . S
C3602 H3621 0.913 . S
C3603 H3579 0.950 . S
C3603 C3602 1.524 . S
C3603 C3604 1.415 . S
C3604 H3580 0.950 . S
C3604 C3599 1.363 . S
C3604 C3603 1.415 . S
C3605 H3581 0.951 . S
C3605 C3606 1.366 . S
C3605 C3607 1.388 . S
C3606 C3605 1.366 . S
C3606 C3610 1.385 . S
C3607 H3582 0.951 . S
C3607 C3605 1.388 . S
C3607 C3608 1.366 . S
C3608 C3607 1.366 . S
C3608 C3609 1.414 . S
C3608 C3611 1.499 . S
C3609 H3583 0.950 . S
C3609 C3608 1.414 . S
C3609 C3610 1.374 . S
C3610 H3584 0.950 . S
C3610 C3606 1.385 . S
C3610 C3609 1.374 . S
C3611 C3608 1.499 . S
C3611 C3612 1.373 . S
C3611 C3613 1.389 . S
C3612 H3585 0.950 . S
C3612 C3598 1.377 . S
C3612 C3611 1.373 . S
C3613 C3597 1.377 . S
C3613 C3611 1.389 . S
C3613 C3614 1.524 . S
C3614 C3613 1.524 . S
C3614 C3615 1.397 . S
C3614 C3619 1.363 . S
C3615 H3586 0.950 . S
C3615 C3614 1.397 . S
C3615 C3616 1.334 . S
C3616 H3587 0.950 . S
C3616 C3615 1.334 . S
C3616 C3617 1.287 . S
C3617 C3616 1.287 . S
C3617 C3618 1.524 . S
C3617 H3620 0.999 . S
C3618 H3588 0.950 . S
C3618 C3617 1.524 . S
C3618 C3619 1.415 . S
C3619 H3589 0.950 . S
C3619 C3614 1.363 . S
C3619 C3618 1.415 . S
H3620 C3617 0.999 . S
H3621 C3602 0.913 . S
H3622 C3640 0.951 . S
H3623 C3642 0.951 . S
H3624 C3644 0.950 . S
H3625 C3645 0.950 . S
H3626 C3647 0.950 . S
H3627 C3650 0.950 . S
H3628 C3651 0.950 . S
H3629 C3653 0.950 . S
H3630 C3654 0.950 . S
H3631 C3655 0.951 . S
H3632 C3657 0.951 . S
H3633 C3659 0.950 . S
H3634 C3660 0.950 . S
H3635 C3662 0.950 . S
H3636 C3665 0.950 . S
H3637 C3666 0.950 . S
H3638 C3668 0.950 . S
H3639 C3669 0.950 . S
C3640 H3622 0.951 . S
C3640 C3641 1.366 . S
C3640 C3642 1.388 . S
C3641 C3640 1.366 . S
C3641 C3645 1.385 . S
C3642 H3623 0.951 . S
C3642 C3640 1.388 . S
C3642 C3643 1.366 . S
C3643 C3642 1.366 . S
C3643 C3644 1.414 . S
C3643 C3646 1.499 . S
C3644 H3624 0.950 . S
C3644 C3643 1.414 . S
C3644 C3645 1.374 . S
C3645 H3625 0.950 . S
C3645 C3641 1.385 . S
C3645 C3644 1.374 . S
C3646 C3643 1.499 . S
C3646 C3647 1.373 . S
C3646 C3648 1.389 . S
C3647 H3626 0.950 . S
C3647 C3646 1.373 . S
C3647 C3663 1.377 . S
C3648 C3646 1.389 . S
C3648 C3649 1.524 . S
C3648 C3662 1.377 . S
C3649 C3648 1.524 . S
C3649 C3650 1.397 . S
C3649 C3654 1.363 . S
C3650 H3627 0.950 . S
C3650 C3649 1.397 . S
C3650 C3651 1.334 . S
C3651 H3628 0.950 . S
C3651 C3650 1.334 . S
C3651 C3652 1.287 . S
C3652 C3651 1.287 . S
C3652 C3653 1.524 . S
C3652 H3671 0.913 . S
C3653 H3629 0.950 . S
C3653 C3652 1.524 . S
C3653 C3654 1.415 . S
C3654 H3630 0.950 . S
C3654 C3649 1.363 . S
C3654 C3653 1.415 . S
C3655 H3631 0.951 . S
C3655 C3656 1.366 . S
C3655 C3657 1.388 . S
C3656 C3655 1.366 . S
C3656 C3660 1.385 . S
C3657 H3632 0.951 . S
C3657 C3655 1.388 . S
C3657 C3658 1.366 . S
C3658 C3657 1.366 . S
C3658 C3659 1.414 . S
C3658 C3661 1.499 . S
C3659 H3633 0.950 . S
C3659 C3658 1.414 . S
C3659 C3660 1.374 . S
C3660 H3634 0.950 . S
C3660 C3656 1.385 . S
C3660 C3659 1.374 . S
C3661 C3658 1.499 . S
C3661 C3662 1.373 . S
C3661 C3663 1.389 . S
C3662 H3635 0.950 . S
C3662 C3648 1.377 . S
C3662 C3661 1.373 . S
C3663 C3647 1.377 . S
C3663 C3661 1.389 . S
C3663 C3664 1.524 . S
C3664 C3663 1.524 . S
C3664 C3665 1.397 . S
C3664 C3669 1.363 . S
C3665 H3636 0.950 . S
C3665 C3664 1.397 . S
C3665 C3666 1.334 . S
C3666 H3637 0.950 . S
C3666 C3665 1.334 . S
C3666 C3667 1.287 . S
C3667 C3666 1.287 . S
C3667 C3668 1.524 . S
C3667 H3670 0.999 . S
C3668 H3638 0.950 . S
C3668 C3667 1.524 . S
C3668 C3669 1.415 . S
C3669 H3639 0.950 . S
C3669 C3664 1.363 . S
C3669 C3668 1.415 . S
H3670 C3667 0.999 . S
H3671 C3652 0.913 . S
C991 C162 1.431 . S
C1006 C283 1.377 . S
C1041 C174 1.458 . S
C1056 C367 1.407 . S
C1091 C150 1.425 . S
C1106 C447 1.417 . S
C1141 C138 1.400 . S
C1156 C363 1.393 1_556 S
C1206 C451 1.353 . S
C1191 C114 1.407 . S
C1241 C126 1.375 . S
C1256 C279 1.365 . S
C1306 C272 1.435 . S
C1291 C136 1.486 . S
C1356 C356 1.460 . S
C1341 C112 1.511 . S
C1391 C124 1.505 . S
C1406 C458 1.489 . S
C1441 C160 1.471 . S
C1456 C374 1.445 . S
C1491 C172 1.455 . S
C1506 C440 1.400 . S
C1556 C290 1.422 . S
C1541 C148 1.448 . S
C1606 C535 1.376 . S
C1591 C18 1.431 . S
C1641 C30 1.458 . S
C1656 C619 1.407 . S
C1691 C6 1.425 . S
C1706 C699 1.417 . S
C1741 C210 1.399 . S
C1756 C615 1.394 . S
C1791 C186 1.407 . S
C1806 C703 1.353 . S
C1841 C198 1.376 . S
C1856 C531 1.367 . S
C1891 C208 1.486 . S
C1906 C524 1.434 . S
C1941 C184 1.511 . S
C1956 C608 1.460 . S
C2006 C710 1.479 . S
C1991 C196 1.504 . S
C2041 C16 1.470 . S
C2056 C626 1.444 . S
C2106 C692 1.401 . S
C2091 C28 1.454 . S
C2141 C4 1.448 . S
C2156 C542 1.421 . S
C2206 C787 1.376 . S
C2191 C90 1.431 . S
C2241 C102 1.458 . S
C2256 C871 1.406 . S
C2306 C951 1.417 . S
C2291 C78 1.425 . S
C2356 C867 1.393 . S
C2341 C66 1.399 . S
C2406 C955 1.353 . S
C2391 C42 1.407 . S
C2441 C54 1.375 . S
C2456 C783 1.368 . S
C2491 C64 1.487 . S
C2506 C776 1.433 . S
C2541 C40 1.511 . S
C2556 C860 1.460 . S
C2606 C962 1.479 . S
C2591 C52 1.505 . S
C2641 C88 1.470 . S
C2656 C878 1.445 . S
C2691 C100 1.454 . S
C2706 C944 1.401 . S
C2741 C76 1.447 . S
C2756 C794 1.421 . S
C2791 C189 1.557 . S
C2806 C286 1.434 . S
C2856 C370 1.491 . S
C2841 C201 1.637 . S
C2891 C213 1.573 . S
C2906 C442 1.393 . S
C2941 C81 1.607 . S
C2956 C358 1.415 . S
C2991 C93 1.590 . S
C3006 C454 1.451 . S
C3056 C274 1.362 . S
C3041 C105 1.527 . S
C3091 C45 1.557 . S
C3106 C538 1.433 . S
C3141 C57 1.637 . S
C3156 C622 1.490 . S
C3191 C69 1.574 . S
C3206 C694 1.394 . S
C3241 C153 1.607 . S
C3256 C610 1.416 . S
C3306 C706 1.452 . S
C3291 C165 1.590 . S
C3341 C177 1.527 . S
C3356 C526 1.363 . S
C3391 C117 1.557 . S
C3406 C790 1.432 . S
C3441 C129 1.637 . S
C3456 C874 1.491 . S
C3506 C946 1.395 . S
C3491 C141 1.573 . S
C3541 C9 1.607 . S
C3556 C862 1.415 . S
C3591 C21 1.589 . S
C3606 C958 1.451 . S
C3641 C33 1.527 . S
C3656 C778 1.362 . S
