# Generated by pormake.
# Topology rtl, (3,6)-cn, num edge types: 1
# Building blocks:
#     Node 0, Type 0, BuildingBlock: VETTIZ_charged_linker_0, # of connection points: 3
#     Node 1, Type 0, BuildingBlock: VETTIZ_charged_linker_0, # of connection points: 3
#     Node 2, Type 0, BuildingBlock: VETTIZ_charged_linker_0, # of connection points: 3
#     Node 3, Type 0, BuildingBlock: VETTIZ_charged_linker_0, # of connection points: 3
#     Node 4, Type 1, BuildingBlock: KUMJIN_clean_sbu_1, # of connection points: 6
#     Node 5, Type 1, BuildingBlock: KUMJIN_clean_sbu_1, # of connection points: 6
#     Edge 6, Type (0, 1), None
#     Edge 7, Type (0, 1), None
#     Edge 8, Type (0, 1), None
#     Edge 9, Type (0, 1), None
#     Edge 10, Type (0, 1), None
#     Edge 11, Type (0, 1), None
#     Edge 12, Type (0, 1), None
#     Edge 13, Type (0, 1), None
#     Edge 14, Type (0, 1), None
#     Edge 15, Type (0, 1), None
#     Edge 16, Type (0, 1), None
#     Edge 17, Type (0, 1), None
# Relax obj value: 0.020
# Max RMSD: 0.145
# Mean RMSD: 0.087
data_MOF--net-rtl--node1-KUMJIN_clean_sbu_1--node2-VETTIZ_charged_linker_0--edge1-none
_symmetry_space_group_name_H-M    P1
_symmetry_Int_Tables_number       1
_symmetry_cell_setting            triclinic
loop_
_symmetry_equiv_pos_as_xyz
'x, y, z'
_cell_length_a     21.403375
_cell_length_b     22.376756
_cell_length_c     21.286503
_cell_angle_alpha  71.457337
_cell_angle_beta   97.905014
_cell_angle_gamma 91.40867
loop_
_atom_site_label
_atom_site_type_symbol
_atom_site_fract_x
_atom_site_fract_y
_atom_site_fract_z
_atom_type_partial_charge
C0 C 0.15499 0.92636 0.76539 0.0
C1 C 0.09893 0.96203 0.74276 0.0
C2 C 0.06629 0.97682 0.78905 0.0
C3 C 0.14505 0.91876 0.87981 0.0
C4 C 0.17688 0.90499 0.83375 0.0
C5 C 0.23502 0.8651 0.86564 0.0
H6 H 0.3864 0.64926 0.13449 0.0
C7 C 0.17894 0.88612 0.9471 0.0
C8 C 0.23114 0.85415 0.93908 0.0
H9 H 0.41905 0.70472 0.92768 0.0
H10 H 0.3472 0.79173 0.90038 0.0
H11 H 0.38082 0.80224 0.13423 0.0
H12 H 0.2331 0.67255 0.10963 0.0
H13 H 0.21941 0.70784 0.17026 0.0
H14 H 0.28785 0.65798 0.1852 0.0
H15 H 0.36303 0.73636 0.20324 0.0
H16 H 0.31882 0.80982 0.17769 0.0
C17 C 0.2927 0.90546 0.84275 0.0
C18 C 0.22953 0.80288 0.84735 0.0
C19 C 0.08919 0.89699 0.15102 0.0
C20 C 0.10538 0.86768 0.22011 0.0
C21 C 0.15836 0.82619 0.24294 0.0
C22 C 0.1938 0.81344 0.19749 0.0
C23 C 0.17617 0.84247 0.12845 0.0
C24 C 0.12482 0.88383 0.10651 0.0
C25 C 0.11169 0.90983 0.03171 0.0
C26 C 0.16503 0.87929 0.01216 0.0
C27 C 0.20257 0.83909 0.06879 0.0
C28 C 0.11733 0.9825 0.01068 0.0
C29 C 0.04602 0.88674 0.00898 0.0
C30 C 0.3777 0.68053 0.08343 0.0
C31 C 0.40695 0.66903 0.03265 0.0
C32 C 0.39571 0.71127 0.96717 0.0
C33 C 0.35342 0.76174 0.95107 0.0
C34 C 0.32068 0.76994 0.00038 0.0
C35 C 0.33438 0.73166 0.06592 0.0
C36 C 0.29592 0.75133 0.11105 0.0
C37 C 0.25412 0.80428 0.0604 0.0
C38 C 0.26907 0.81382 0.99583 0.0
C39 C 0.3417 0.77593 0.15965 0.0
C40 C 0.257 0.69454 0.14638 0.0
H41 H 0.06224 0.96837 0.89053 0.0
H42 H 0.1813 0.91494 0.73083 0.0
H43 H 0.18412 0.79971 0.81631 0.0
H44 H 0.23164 0.76043 0.89228 0.0
H45 H 0.26755 0.79832 0.81871 0.0
H46 H 0.28467 0.95567 0.83838 0.0
H47 H 0.30175 0.90414 0.79303 0.0
H48 H 0.33607 0.8907 0.87905 0.0
H49 H 0.04934 0.92965 0.13167 0.0
H50 H 0.17157 0.80249 0.29594 0.0
H51 H 0.23294 0.78083 0.21766 0.0
H52 H 0.15834 0.99602 0.04117 0.0
H53 H 0.07434 1.0049 0.01805 0.0
H54 H 0.12572 1.0037 0.9582 0.0
H55 H 0.03389 0.84149 0.04549 0.0
H56 H 0.04407 0.87621 0.96142 0.0
H57 H 1.00815 0.92171 0.0039 0.0
H58 H 0.02196 1.00284 0.77242 0.0
C59 C 0.0893 0.95585 0.85756 0.0
C60 C 0.64017 0.63846 0.87941 0.0
C61 C 0.59359 0.59209 0.8937 0.0
C62 C 0.5725 0.56169 0.84661 0.0
C63 C 0.64272 0.62319 0.77181 0.0
C64 C 0.66377 0.65373 0.81763 0.0
C65 C 0.71163 0.70336 0.79137 0.0
H66 H 0.8831 0.84693 0.53707 0.0
C67 C 0.67643 0.64825 0.71325 0.0
C68 C 0.71714 0.69555 0.72367 0.0
H69 H 0.88325 0.89174 0.72017 0.0
H70 H 0.8085 0.80837 0.75715 0.0
H71 H 0.89272 0.70298 0.60352 0.0
H72 H 0.73331 0.82736 0.50901 0.0
H73 H 0.72587 0.76234 0.47908 0.0
H74 H 0.79362 0.81156 0.46519 0.0
H75 H 0.87198 0.73016 0.51443 0.0
H76 H 0.8394 0.65924 0.56631 0.0
C77 C 0.77441 0.68694 0.83904 0.0
C78 C 0.68346 0.76858 0.78385 0.0
C79 C 0.63439 0.55239 0.5255 0.0
C80 C 0.66185 0.56077 0.46704 0.0
C81 C 0.7104 0.60497 0.45251 0.0
C82 C 0.73025 0.64083 0.49449 0.0
C83 C 0.70205 0.63211 0.55241 0.0
C84 C 0.65562 0.5879 0.56749 0.0
C85 C 0.63375 0.58224 0.63313 0.0
C86 C 0.67432 0.63095 0.65451 0.0
C87 C 0.71352 0.66055 0.60671 0.0
C88 C 0.64964 0.51412 0.68081 0.0
C89 C 0.56262 0.60093 0.61933 0.0
C90 C 0.86725 0.83923 0.58517 0.0
C91 C 0.88925 0.87644 0.62541 0.0
C92 C 0.86694 0.86412 0.68779 0.0
C93 C 0.82336 0.81586 0.70911 0.0
C94 C 0.80153 0.77954 0.6676 0.0
C95 C 0.8241 0.79163 0.60696 0.0
C96 C 0.79767 0.74835 0.56922 0.0
C97 C 0.75399 0.70913 0.61596 0.0
C98 C 0.75605 0.72704 0.67396 0.0
C99 C 0.85298 0.7082 0.56237 0.0
C100 C 0.76089 0.7891 0.50179 0.0
H101 H 0.57794 0.55187 0.75245 0.0
H102 H 0.65666 0.6631 0.91448 0.0
H103 H 0.63324 0.77268 0.76064 0.0
H104 H 0.70757 0.80784 0.7509 0.0
H105 H 0.68522 0.7757 0.8334 0.0
H106 H 0.78415 0.63523 0.85662 0.0
H107 H 0.77267 0.70209 0.8835 0.0
H108 H 0.81536 0.7088 0.81472 0.0
H109 H 0.59698 0.51913 0.53848 0.0
H110 H 0.7339 0.61145 0.40897 0.0
H111 H 0.76704 0.67374 0.48026 0.0
H112 H 0.69143 0.49386 0.66829 0.0
H113 H 0.60964 0.48218 0.67756 0.0
H114 H 0.66302 0.51192 0.73355 0.0
H115 H 0.55116 0.63865 0.57039 0.0
H116 H 0.54797 0.62106 0.65631 0.0
H117 H 0.53266 0.56005 0.61781 0.0
H118 H 0.53772 0.5252 0.85727 0.0
C119 C 0.5965 0.57697 0.78592 0.0
C120 C 0.86959 0.10487 0.34989 0.0
C121 C 0.92564 0.0692 0.37252 0.0
C122 C 0.95827 0.0544 0.32622 0.0
C123 C 0.8795 0.11244 0.23547 0.0
C124 C 0.84768 0.12623 0.28153 0.0
C125 C 0.78954 0.16612 0.24965 0.0
H126 H 0.63814 0.38194 0.98078 0.0
C127 C 0.8456 0.14508 0.16818 0.0
C128 C 0.79341 0.17705 0.1762 0.0
H129 H 0.60548 0.32648 0.18759 0.0
H130 H 0.67735 0.23948 0.2149 0.0
H131 H 0.79144 0.35864 0.00564 0.0
H132 H 0.64372 0.22895 0.98105 0.0
H133 H 0.70572 0.22136 0.93759 0.0
H134 H 0.66151 0.29483 0.91204 0.0
H135 H 0.7367 0.37321 0.93007 0.0
H136 H 0.80514 0.32334 0.94503 0.0
C137 C 0.79503 0.22834 0.26792 0.0
C138 C 0.73186 0.12576 0.27254 0.0
C139 C 0.93534 0.13419 0.96427 0.0
C140 C 0.91916 0.16351 0.89517 0.0
C141 C 0.86618 0.205 0.87234 0.0
C142 C 0.83074 0.21774 0.91779 0.0
C143 C 0.84836 0.18871 0.98683 0.0
C144 C 0.89971 0.14735 0.00877 0.0
C145 C 0.91285 0.12135 0.08357 0.0
C146 C 0.85951 0.1519 0.10312 0.0
C147 C 0.82196 0.19209 0.04649 0.0
C148 C 0.97852 0.14444 0.1063 0.0
C149 C 0.90719 0.04868 0.1046 0.0
C150 C 0.64684 0.35067 0.03184 0.0
C151 C 0.61759 0.36217 0.08262 0.0
C152 C 0.62883 0.31994 0.14811 0.0
C153 C 0.67112 0.26946 0.16421 0.0
C154 C 0.70387 0.26126 0.1149 0.0
C155 C 0.69016 0.29954 0.04936 0.0
C156 C 0.72862 0.27986 0.00423 0.0
C157 C 0.77042 0.22691 0.05488 0.0
C158 C 0.75548 0.21738 0.11945 0.0
C159 C 0.76754 0.33665 0.96889 0.0
C160 C 0.68284 0.25526 0.95564 0.0
H161 H 0.9623 0.06282 0.22474 0.0
H162 H 0.84327 0.11629 0.38445 0.0
H163 H 0.73989 0.07554 0.27693 0.0
H164 H 0.68848 0.1405 0.23625 0.0
H165 H 0.72281 0.12708 0.32227 0.0
H166 H 0.84044 0.23152 0.29896 0.0
H167 H 0.75701 0.2329 0.29656 0.0
H168 H 0.79291 0.27078 0.22299 0.0
H169 H 0.97519 0.10153 0.98361 0.0
H170 H 0.85297 0.2287 0.81935 0.0
H171 H 0.7916 0.25036 0.89762 0.0
H172 H 0.99067 0.18967 0.06977 0.0
H173 H 0.01638 0.10945 0.1114 0.0
H174 H 0.98047 0.15499 0.15385 0.0
H175 H 0.86617 0.03517 0.07413 0.0
H176 H 0.89882 0.02748 0.15709 0.0
H177 H 0.95018 0.02628 0.09723 0.0
H178 H 1.0026 0.02838 0.34286 0.0
C179 C 0.93525 0.07536 0.25772 0.0
C180 C 0.38438 0.39277 0.23587 0.0
C181 C 0.43092 0.43917 0.22154 0.0
C182 C 0.45195 0.46965 0.26857 0.0
C183 C 0.38174 0.40815 0.3434 0.0
C184 C 0.36076 0.37753 0.29763 0.0
C185 C 0.31292 0.32789 0.32392 0.0
H186 H 0.14146 0.18432 0.57821 0.0
C187 C 0.34803 0.38311 0.40196 0.0
C188 C 0.30736 0.33577 0.39157 0.0
H189 H 0.14135 0.13951 0.39512 0.0
H190 H 0.21607 0.22291 0.35812 0.0
H191 H 0.29125 0.20399 0.60625 0.0
H192 H 0.13176 0.32825 0.51173 0.0
H193 H 0.18503 0.37204 0.54891 0.0
H194 H 0.15251 0.3011 0.60082 0.0
H195 H 0.23093 0.21976 0.65007 0.0
H196 H 0.29864 0.26903 0.63616 0.0
C197 C 0.34116 0.26267 0.33155 0.0
C198 C 0.25015 0.34421 0.27622 0.0
C199 C 0.38997 0.47905 0.58966 0.0
C200 C 0.36253 0.47063 0.64815 0.0
C201 C 0.31401 0.42641 0.66269 0.0
C202 C 0.29418 0.39055 0.62071 0.0
C203 C 0.32236 0.39928 0.56277 0.0
C204 C 0.36876 0.44353 0.54768 0.0
C205 C 0.39063 0.4492 0.48204 0.0
C206 C 0.3501 0.40044 0.46068 0.0
C207 C 0.31092 0.37083 0.50849 0.0
C208 C 0.46177 0.43057 0.49582 0.0
C209 C 0.37467 0.51729 0.43434 0.0
C210 C 0.15732 0.19202 0.53011 0.0
C211 C 0.13534 0.1548 0.48987 0.0
C212 C 0.15765 0.16713 0.42749 0.0
C213 C 0.2012 0.2154 0.40617 0.0
C214 C 0.22302 0.25174 0.44767 0.0
C215 C 0.20045 0.23965 0.50831 0.0
C216 C 0.22684 0.28296 0.54603 0.0
C217 C 0.2705 0.3222 0.49927 0.0
C218 C 0.26846 0.30427 0.44129 0.0
C219 C 0.26364 0.24224 0.61346 0.0
C220 C 0.1715 0.32306 0.55287 0.0
H221 H 0.44643 0.47958 0.36269 0.0
H222 H 0.36794 0.36807 0.20084 0.0
H223 H 0.24045 0.39594 0.25839 0.0
H224 H 0.20918 0.32251 0.30062 0.0
H225 H 0.25186 0.32881 0.23191 0.0
H226 H 0.39135 0.25861 0.35485 0.0
H227 H 0.33952 0.25552 0.28201 0.0
H228 H 0.31702 0.22341 0.36445 0.0
H229 H 0.42737 0.51233 0.57668 0.0
H230 H 0.29052 0.4199 0.70624 0.0
H231 H 0.2574 0.35761 0.63495 0.0
H232 H 0.47327 0.39288 0.54478 0.0
H233 H 0.49169 0.47149 0.4973 0.0
H234 H 0.47644 0.41043 0.45886 0.0
H235 H 0.33283 0.53749 0.44683 0.0
H236 H 0.36136 0.51948 0.38159 0.0
H237 H 0.41463 0.54928 0.43761 0.0
H238 H 0.4867 0.50617 0.25789 0.0
C239 C 0.42792 0.45441 0.32925 0.0
Eu240 Eu 0.06165 0.95319 0.52864 0.0
C241 C 0.87353 0.18718 0.48246 0.0
N242 N 0.93585 0.17705 0.50671 0.0
C243 C 0.95837 0.28344 0.4455 0.0
C244 C 0.85119 0.2468 0.43892 0.0
C245 C 0.97821 0.22403 0.48954 0.0
C246 C 0.89454 0.29497 0.42021 0.0
C247 C 0.76709 0.14731 0.47595 0.0
C248 C 0.83199 0.13758 0.5008 0.0
C249 C 0.74467 0.20699 0.43372 0.0
C250 C 0.78652 0.25664 0.41561 0.0
Eu251 Eu 0.96294 0.07806 0.58663 0.0
N252 N 0.85472 0.08024 0.54274 0.0
C253 C 0.72628 0.097 0.49504 0.0
C254 C 0.81415 0.03244 0.56467 0.0
C255 C 0.74988 0.03948 0.53994 0.0
H256 H 0.02693 0.21634 0.51143 0.0
H257 H 0.71827 1.00099 0.55704 0.0
H258 H 0.99767 0.8149 0.60387 0.0
H259 H 0.30631 0.03028 0.5582 0.0
H260 H 0.82985 0.98958 0.60325 0.0
H261 H 0.67625 0.10255 0.47677 0.0
H262 H 0.19472 0.04167 0.51198 0.0
H263 H 0.99213 0.32061 0.43206 0.0
H264 H 0.69497 0.21524 0.41458 0.0
H265 H 0.76846 0.3023 0.38262 0.0
H266 H 0.03249 0.71064 0.68325 0.0
H267 H 0.87917 0.34128 0.38662 0.0
H268 H 0.34834 0.92873 0.63847 0.0
N269 N 0.08875 0.8542 0.60858 0.0
C270 C 0.15107 0.84408 0.63281 0.0
C271 C 0.06625 0.74781 0.66979 0.0
C272 C 0.17342 0.78446 0.67635 0.0
C273 C 0.04639 0.80722 0.62575 0.0
C274 C 0.13007 0.73629 0.69508 0.0
N275 N 0.16988 0.951 0.57249 0.0
C276 C 0.21044 0.99881 0.55057 0.0
C277 C 0.25751 0.88396 0.63931 0.0
C278 C 0.19261 0.89367 0.61445 0.0
C279 C 0.29832 0.93427 0.6202 0.0
C280 C 0.2747 0.99179 0.5753 0.0
H281 H 0.14545 0.68998 0.72868 0.0
H282 H 0.25616 0.72897 0.73265 0.0
H283 H 0.32964 0.81604 0.70068 0.0
O284 O 0.10066 0.96343 0.43569 0.0
O285 O 0.07208 0.94004 0.63976 0.0
O286 O 0.05908 0.04114 0.64058 0.0
O287 O 0.06153 0.87505 0.48845 0.0
O288 O 0.08316 0.05828 0.48603 0.0
O289 O 0.06411 0.10127 0.56757 0.0
O290 O 0.92391 0.0678 0.67956 0.0
O291 O 0.9525 0.0912 0.47551 0.0
O292 O 0.9655 0.9901 0.4747 0.0
O293 O 0.96304 0.15619 0.62682 0.0
O294 O 0.94142 0.97297 0.62925 0.0
O295 O 0.96048 0.92996 0.54771 0.0
C296 C 0.07339 0.98162 0.6716 0.0
C297 C 0.05605 0.89926 0.37214 0.0
C298 C 0.06589 0.87943 0.26751 0.0
C299 C 0.99963 0.88243 0.25232 0.0
C300 C 0.99012 0.90107 0.35652 0.0
C301 C 0.96218 0.89324 0.29656 0.0
C302 C 0.09374 0.88815 0.32777 0.0
C303 C 0.0901 0.10339 0.51406 0.0
C304 C 0.08612 0.90659 0.43553 0.0
C305 C 0.2381 0.77462 0.69966 0.0
C306 C 0.27993 0.82428 0.68154 0.0
C307 C 0.95119 0.04962 0.44367 0.0
C308 C 0.96851 0.13196 0.74314 0.0
C309 C 0.95865 0.15176 0.84778 0.0
C310 C 0.02491 0.14876 0.86297 0.0
C311 C 0.03444 0.13014 0.75876 0.0
C312 C 0.93081 0.14306 0.78751 0.0
C313 C 0.06237 0.13795 0.81874 0.0
C314 C 0.93449 0.92785 0.60123 0.0
C315 C 0.93845 0.12464 0.67974 0.0
H316 H 0.9766 0.87546 0.20666 0.0
H317 H 0.96034 0.90892 0.39052 0.0
H318 H 0.91131 0.89517 0.28449 0.0
H319 H 0.14466 0.88676 0.34004 0.0
H320 H 0.04794 0.15572 0.90864 0.0
H321 H 0.06422 0.1223 0.72477 0.0
H322 H 0.87989 0.14446 0.77523 0.0
H323 H 0.11324 0.13602 0.83082 0.0
Eu324 Eu 0.44368 0.49007 0.99607 0.0
C325 C 0.70933 0.59757 0.06659 0.0
N326 N 0.68429 0.54014 0.0937 0.0
C327 C 0.78131 0.48862 0.09451 0.0
C328 C 0.77194 0.60245 0.05208 0.0
C329 C 0.71927 0.48606 0.10867 0.0
C330 C 0.80779 0.54705 0.06609 0.0
C331 C 0.69656 0.71156 0.0231 0.0
C332 C 0.6715 0.65156 0.05157 0.0
C333 C 0.75925 0.71649 0.00965 0.0
C334 C 0.79677 0.66215 0.02405 0.0
Eu335 Eu 0.58088 0.54112 0.11919 0.0
N336 N 0.61054 0.64554 0.0646 0.0
C337 C 0.65804 0.76501 0.00934 0.0
C338 C 0.57438 0.69788 0.05518 0.0
C339 C 0.59693 0.75812 0.02605 0.0
H340 H 0.69978 0.44105 0.13295 0.0
H341 H 0.5676 0.79933 0.01794 0.0
H342 H 0.32471 0.58997 0.98258 0.0
H343 H 0.4572 0.23184 0.097 0.0
H344 H 0.52911 0.6942 0.07222 0.0
H345 H 0.67552 0.81184 0.98732 0.0
H346 H 0.49554 0.33704 0.0427 0.0
H347 H 0.80888 0.4456 0.10622 0.0
H348 H 0.77912 0.7622 0.98776 0.0
H349 H 0.84486 0.66682 0.01282 0.0
H350 H 0.21566 0.58526 0.00947 0.0
H351 H 0.85601 0.5489 0.05546 0.0
H352 H 0.34937 0.21918 0.12785 0.0
N353 N 0.3403 0.49089 0.02172 0.0
C354 C 0.31534 0.43342 0.04883 0.0
C355 C 0.24327 0.54228 0.0211 0.0
C356 C 0.25276 0.42846 0.06343 0.0
C357 C 0.30528 0.54493 0.00684 0.0
C358 C 0.21686 0.4838 0.04953 0.0
N359 N 0.41413 0.38558 0.05057 0.0
C360 C 0.45032 0.3333 0.05987 0.0
C361 C 0.32823 0.31944 0.09221 0.0
C362 C 0.35321 0.37947 0.06374 0.0
C363 C 0.36679 0.26604 0.10584 0.0
C364 C 0.42785 0.27301 0.08899 0.0
H365 H 0.16867 0.48189 0.06023 0.0
H366 H 0.17994 0.36398 0.10277 0.0
H367 H 0.24577 0.26868 0.12765 0.0
O368 O 0.44369 0.45019 0.91456 0.0
O369 O 0.42267 0.47831 0.10146 0.0
O370 O 0.52089 0.45705 0.16299 0.0
O371 O 0.3727 0.51974 0.90809 0.0
O372 O 0.53992 0.44098 0.01411 0.0
O373 O 0.57558 0.43958 0.12168 0.0
O374 O 0.5808 0.58108 0.20063 0.0
O375 O 0.60188 0.55293 0.01379 0.0
O376 O 0.50365 0.57415 0.95229 0.0
O377 O 0.65181 0.51151 0.20721 0.0
O378 O 0.48465 0.59025 0.10114 0.0
O379 O 0.44893 0.59161 0.99358 0.0
C380 C 0.45911 0.45678 0.15888 0.0
C381 C 0.40087 0.51509 0.80671 0.0
C382 C 0.38382 0.50763 0.69388 0.0
C383 C 0.40166 0.57094 0.66897 0.0
C384 C 0.41813 0.5782 0.78122 0.0
C385 C 0.41913 0.6057 0.71257 0.0
C386 C 0.38486 0.47997 0.76326 0.0
C387 C 0.57809 0.41896 0.07068 0.0
C388 C 0.396 0.48518 0.87784 0.0
C389 C 0.22801 0.36872 0.09146 0.0
C390 C 0.26558 0.31442 0.10576 0.0
C391 C 0.56542 0.57444 0.95638 0.0
C392 C 0.62356 0.51624 0.30852 0.0
C393 C 0.64057 0.52375 0.42133 0.0
C394 C 0.6227 0.46045 0.44626 0.0
C395 C 0.60628 0.45314 0.33404 0.0
C396 C 0.63956 0.55138 0.35195 0.0
C397 C 0.60525 0.42567 0.40268 0.0
C398 C 0.44645 0.61224 0.04459 0.0
C399 C 0.62848 0.54611 0.2374 0.0
H400 H 0.4009 0.59412 0.61581 0.0
H401 H 0.43061 0.60608 0.81424 0.0
H402 H 0.43253 0.65438 0.69296 0.0
H403 H 0.37265 0.43095 0.78389 0.0
H404 H 0.62344 0.4373 0.49942 0.0
H405 H 0.5938 0.42524 0.30103 0.0
H406 H 0.65179 0.60039 0.3313 0.0
H407 H 0.59183 0.37699 0.4223 0.0
loop_
_geom_bond_atom_site_label_1
_geom_bond_atom_site_label_2
_geom_bond_distance
_geom_bond_site_symmetry_2
_ccdc_geom_bond_type
C0 C1 1.391 . S
C0 C4 1.391 . S
C0 H42 0.948 . S
C1 C0 1.391 . S
C1 C2 1.391 1_565 S
C2 C1 1.391 1_545 S
C2 H58 0.947 . S
C2 C59 1.392 1_545 S
C3 C4 1.391 . S
C3 C7 1.397 . S
C3 C59 1.419 . S
C4 C0 1.391 . S
C4 C3 1.391 . S
C4 C5 1.399 . S
C5 C4 1.399 . S
C5 C8 1.396 . S
C5 C17 1.453 . S
C5 C18 1.684 . S
H6 C30 0.948 . S
C7 C3 1.397 . S
C7 C8 1.394 . S
C7 C26 1.723 1_556 S
C8 C5 1.396 . S
C8 C7 1.394 . S
C8 C38 1.723 1_556 S
H9 C32 0.947 . S
H10 C33 0.948 . S
H11 C39 0.982 . S
H12 C40 0.979 . S
H13 C40 0.980 . S
H14 C40 0.983 . S
H15 C39 0.979 . S
H16 C39 0.977 . S
C17 C5 1.453 . S
C17 H46 0.982 . S
C17 H47 0.979 . S
C17 H48 0.977 . S
C18 C5 1.684 . S
C18 H43 0.979 . S
C18 H44 0.980 . S
C18 H45 0.983 . S
C19 C20 1.391 . S
C19 C24 1.391 . S
C19 H49 0.948 . S
C20 C19 1.391 . S
C20 C21 1.391 . S
C21 C20 1.391 . S
C21 C22 1.392 . S
C21 H50 0.947 . S
C22 C21 1.392 . S
C22 C23 1.419 . S
C22 H51 0.948 . S
C23 C22 1.419 . S
C23 C24 1.391 . S
C23 C27 1.397 . S
C24 C19 1.391 . S
C24 C23 1.391 . S
C24 C25 1.399 . S
C25 C24 1.399 . S
C25 C26 1.396 . S
C25 C28 1.453 1_565 S
C25 C29 1.684 . S
C26 C7 1.723 1_554 S
C26 C25 1.396 . S
C26 C27 1.394 . S
C27 C23 1.397 . S
C27 C26 1.394 . S
C27 C37 1.723 . S
C28 C25 1.453 1_545 S
C28 H52 0.982 . S
C28 H53 0.979 . S
C28 H54 0.977 1_554 S
C29 C25 1.684 . S
C29 H55 0.979 . S
C29 H56 0.980 1_554 S
C29 H57 0.983 . S
C30 H6 0.948 . S
C30 C31 1.391 . S
C30 C35 1.391 . S
C31 C30 1.391 . S
C31 C32 1.391 1_554 S
C32 H9 0.947 . S
C32 C31 1.391 1_556 S
C32 C33 1.392 . S
C33 H10 0.948 . S
C33 C32 1.392 . S
C33 C34 1.419 1_556 S
C34 C33 1.419 1_554 S
C34 C35 1.391 . S
C34 C38 1.397 . S
C35 C30 1.391 . S
C35 C34 1.391 . S
C35 C36 1.399 . S
C36 C35 1.399 . S
C36 C37 1.396 . S
C36 C39 1.453 . S
C36 C40 1.684 . S
C37 C27 1.723 . S
C37 C36 1.396 . S
C37 C38 1.394 . S
C38 C8 1.723 1_554 S
C38 C34 1.397 . S
C38 C37 1.394 . S
C39 H11 0.982 . S
C39 H15 0.979 . S
C39 H16 0.977 . S
C39 C36 1.453 . S
C40 H12 0.979 . S
C40 H13 0.980 . S
C40 H14 0.983 . S
C40 C36 1.684 . S
H41 C59 0.948 . S
H42 C0 0.948 . S
H43 C18 0.979 . S
H44 C18 0.980 . S
H45 C18 0.983 . S
H46 C17 0.982 . S
H47 C17 0.979 . S
H48 C17 0.977 . S
H49 C19 0.948 . S
H50 C21 0.947 . S
H51 C22 0.948 . S
H52 C28 0.982 . S
H53 C28 0.979 . S
H54 C28 0.977 1_556 S
H55 C29 0.979 . S
H56 C29 0.980 1_556 S
H57 C29 0.983 . S
H58 C2 0.947 . S
C59 C2 1.392 1_565 S
C59 C3 1.419 . S
C59 H41 0.948 . S
C60 C61 1.391 . S
C60 C64 1.391 . S
C60 H102 0.948 . S
C61 C60 1.391 . S
C61 C62 1.391 . S
C62 C61 1.391 . S
C62 H118 0.947 . S
C62 C119 1.392 . S
C63 C64 1.391 . S
C63 C67 1.397 . S
C63 C119 1.419 . S
C64 C60 1.391 . S
C64 C63 1.391 . S
C64 C65 1.399 . S
C65 C64 1.399 . S
C65 C68 1.396 . S
C65 C77 1.453 . S
C65 C78 1.684 . S
H66 C90 0.948 . S
C67 C63 1.397 . S
C67 C68 1.394 . S
C67 C86 1.723 . S
C68 C65 1.396 . S
C68 C67 1.394 . S
C68 C98 1.723 . S
H69 C92 0.947 . S
H70 C93 0.948 . S
H71 C99 0.982 . S
H72 C100 0.979 . S
H73 C100 0.980 . S
H74 C100 0.983 . S
H75 C99 0.979 . S
H76 C99 0.977 . S
C77 C65 1.453 . S
C77 H106 0.982 . S
C77 H107 0.979 . S
C77 H108 0.977 . S
C78 C65 1.684 . S
C78 H103 0.979 . S
C78 H104 0.980 . S
C78 H105 0.983 . S
C79 C80 1.391 . S
C79 C84 1.391 . S
C79 H109 0.948 . S
C80 C79 1.391 . S
C80 C81 1.391 . S
C81 C80 1.391 . S
C81 C82 1.392 . S
C81 H110 0.947 . S
C82 C81 1.392 . S
C82 C83 1.419 . S
C82 H111 0.948 . S
C83 C82 1.419 . S
C83 C84 1.391 . S
C83 C87 1.397 . S
C84 C79 1.391 . S
C84 C83 1.391 . S
C84 C85 1.399 . S
C85 C84 1.399 . S
C85 C86 1.396 . S
C85 C88 1.453 . S
C85 C89 1.684 . S
C86 C67 1.723 . S
C86 C85 1.396 . S
C86 C87 1.394 . S
C87 C83 1.397 . S
C87 C86 1.394 . S
C87 C97 1.723 . S
C88 C85 1.453 . S
C88 H112 0.982 . S
C88 H113 0.979 . S
C88 H114 0.977 . S
C89 C85 1.684 . S
C89 H115 0.979 . S
C89 H116 0.980 . S
C89 H117 0.983 . S
C90 H66 0.948 . S
C90 C91 1.391 . S
C90 C95 1.391 . S
C91 C90 1.391 . S
C91 C92 1.391 . S
C92 H69 0.947 . S
C92 C91 1.391 . S
C92 C93 1.392 . S
C93 H70 0.948 . S
C93 C92 1.392 . S
C93 C94 1.419 . S
C94 C93 1.419 . S
C94 C95 1.391 . S
C94 C98 1.397 . S
C95 C90 1.391 . S
C95 C94 1.391 . S
C95 C96 1.399 . S
C96 C95 1.399 . S
C96 C97 1.396 . S
C96 C99 1.453 . S
C96 C100 1.684 . S
C97 C87 1.723 . S
C97 C96 1.396 . S
C97 C98 1.394 . S
C98 C68 1.723 . S
C98 C94 1.397 . S
C98 C97 1.394 . S
C99 H71 0.982 . S
C99 H75 0.979 . S
C99 H76 0.977 . S
C99 C96 1.453 . S
C100 H72 0.979 . S
C100 H73 0.980 . S
C100 H74 0.983 . S
C100 C96 1.684 . S
H101 C119 0.948 . S
H102 C60 0.948 . S
H103 C78 0.979 . S
H104 C78 0.980 . S
H105 C78 0.983 . S
H106 C77 0.982 . S
H107 C77 0.979 . S
H108 C77 0.977 . S
H109 C79 0.948 . S
H110 C81 0.947 . S
H111 C82 0.948 . S
H112 C88 0.982 . S
H113 C88 0.979 . S
H114 C88 0.977 . S
H115 C89 0.979 . S
H116 C89 0.980 . S
H117 C89 0.983 . S
H118 C62 0.947 . S
C119 C62 1.392 . S
C119 C63 1.419 . S
C119 H101 0.948 . S
C120 C121 1.391 . S
C120 C124 1.391 . S
C120 H162 0.948 . S
C121 C120 1.391 . S
C121 C122 1.391 1_545 S
C122 C121 1.391 1_565 S
C122 H178 0.947 . S
C122 C179 1.392 1_565 S
C123 C124 1.391 . S
C123 C127 1.397 . S
C123 C179 1.419 . S
C124 C120 1.391 . S
C124 C123 1.391 . S
C124 C125 1.399 . S
C125 C124 1.399 . S
C125 C128 1.396 . S
C125 C137 1.453 . S
C125 C138 1.684 . S
H126 C150 0.948 1_556 S
C127 C123 1.397 . S
C127 C128 1.394 . S
C127 C146 1.723 . S
C128 C125 1.396 . S
C128 C127 1.394 . S
C128 C158 1.723 . S
H129 C152 0.947 . S
H130 C153 0.948 . S
H131 C159 0.982 . S
H132 C160 0.979 . S
H133 C160 0.980 . S
H134 C160 0.983 . S
H135 C159 0.979 . S
H136 C159 0.977 . S
C137 C125 1.453 . S
C137 H166 0.982 . S
C137 H167 0.979 . S
C137 H168 0.977 . S
C138 C125 1.684 . S
C138 H163 0.979 . S
C138 H164 0.980 . S
C138 H165 0.983 . S
C139 C140 1.391 . S
C139 C144 1.391 1_556 S
C139 H169 0.948 . S
C140 C139 1.391 . S
C140 C141 1.391 . S
C141 C140 1.391 . S
C141 C142 1.392 . S
C141 H170 0.947 . S
C142 C141 1.392 . S
C142 C143 1.419 . S
C142 H171 0.948 . S
C143 C142 1.419 . S
C143 C144 1.391 1_556 S
C143 C147 1.397 1_556 S
C144 C139 1.391 1_554 S
C144 C143 1.391 1_554 S
C144 C145 1.399 . S
C145 C144 1.399 . S
C145 C146 1.396 . S
C145 C148 1.453 . S
C145 C149 1.684 1_545 S
C146 C127 1.723 . S
C146 C145 1.396 . S
C146 C147 1.394 . S
C147 C143 1.397 1_554 S
C147 C146 1.394 . S
C147 C157 1.723 . S
C148 C145 1.453 . S
C148 H172 0.982 . S
C148 H173 0.979 . S
C148 H174 0.977 . S
C149 C145 1.684 1_565 S
C149 H175 0.979 . S
C149 H176 0.980 . S
C149 H177 0.983 . S
C150 H126 0.948 1_554 S
C150 C151 1.391 . S
C150 C155 1.391 . S
C151 C150 1.391 . S
C151 C152 1.391 . S
C152 H129 0.947 . S
C152 C151 1.391 . S
C152 C153 1.392 . S
C153 H130 0.948 . S
C153 C152 1.392 . S
C153 C154 1.419 . S
C154 C153 1.419 . S
C154 C155 1.391 . S
C154 C158 1.397 . S
C155 C150 1.391 . S
C155 C154 1.391 . S
C155 C156 1.399 . S
C156 C155 1.399 . S
C156 C157 1.396 . S
C156 C159 1.453 1_554 S
C156 C160 1.684 1_554 S
C157 C147 1.723 . S
C157 C156 1.396 . S
C157 C158 1.394 . S
C158 C128 1.723 . S
C158 C154 1.397 . S
C158 C157 1.394 . S
C159 H131 0.982 . S
C159 H135 0.979 . S
C159 H136 0.977 . S
C159 C156 1.453 1_556 S
C160 H132 0.979 . S
C160 H133 0.980 . S
C160 H134 0.983 . S
C160 C156 1.684 1_556 S
H161 C179 0.948 1_565 S
H162 C120 0.948 . S
H163 C138 0.979 . S
H164 C138 0.980 . S
H165 C138 0.983 . S
H166 C137 0.982 . S
H167 C137 0.979 . S
H168 C137 0.977 . S
H169 C139 0.948 . S
H170 C141 0.947 . S
H171 C142 0.948 . S
H172 C148 0.982 . S
H173 C148 0.979 . S
H174 C148 0.977 . S
H175 C149 0.979 . S
H176 C149 0.980 . S
H177 C149 0.983 . S
H178 C122 0.947 . S
C179 C122 1.392 1_545 S
C179 C123 1.419 . S
C179 H161 0.948 1_545 S
C180 C181 1.391 . S
C180 C184 1.391 . S
C180 H222 0.948 . S
C181 C180 1.391 . S
C181 C182 1.391 . S
C182 C181 1.391 . S
C182 H238 0.947 . S
C182 C239 1.392 . S
C183 C184 1.391 . S
C183 C187 1.397 . S
C183 C239 1.419 . S
C184 C180 1.391 . S
C184 C183 1.391 . S
C184 C185 1.399 . S
C185 C184 1.399 . S
C185 C188 1.396 . S
C185 C197 1.453 . S
C185 C198 1.684 . S
H186 C210 0.948 . S
C187 C183 1.397 . S
C187 C188 1.394 . S
C187 C206 1.723 . S
C188 C185 1.396 . S
C188 C187 1.394 . S
C188 C218 1.723 . S
H189 C212 0.947 . S
H190 C213 0.948 . S
H191 C219 0.982 . S
H192 C220 0.979 . S
H193 C220 0.980 . S
H194 C220 0.983 . S
H195 C219 0.979 . S
H196 C219 0.977 . S
C197 C185 1.453 . S
C197 H226 0.982 . S
C197 H227 0.979 . S
C197 H228 0.977 . S
C198 C185 1.684 . S
C198 H223 0.979 . S
C198 H224 0.980 . S
C198 H225 0.983 . S
C199 C200 1.391 . S
C199 C204 1.391 . S
C199 H229 0.948 . S
C200 C199 1.391 . S
C200 C201 1.391 . S
C201 C200 1.391 . S
C201 C202 1.392 . S
C201 H230 0.947 . S
C202 C201 1.392 . S
C202 C203 1.419 . S
C202 H231 0.948 . S
C203 C202 1.419 . S
C203 C204 1.391 . S
C203 C207 1.397 . S
C204 C199 1.391 . S
C204 C203 1.391 . S
C204 C205 1.399 . S
C205 C204 1.399 . S
C205 C206 1.396 . S
C205 C208 1.453 . S
C205 C209 1.684 . S
C206 C187 1.723 . S
C206 C205 1.396 . S
C206 C207 1.394 . S
C207 C203 1.397 . S
C207 C206 1.394 . S
C207 C217 1.723 . S
C208 C205 1.453 . S
C208 H232 0.982 . S
C208 H233 0.979 . S
C208 H234 0.977 . S
C209 C205 1.684 . S
C209 H235 0.979 . S
C209 H236 0.980 . S
C209 H237 0.983 . S
C210 H186 0.948 . S
C210 C211 1.391 . S
C210 C215 1.391 . S
C211 C210 1.391 . S
C211 C212 1.391 . S
C212 H189 0.947 . S
C212 C211 1.391 . S
C212 C213 1.392 . S
C213 H190 0.948 . S
C213 C212 1.392 . S
C213 C214 1.419 . S
C214 C213 1.419 . S
C214 C215 1.391 . S
C214 C218 1.397 . S
C215 C210 1.391 . S
C215 C214 1.391 . S
C215 C216 1.399 . S
C216 C215 1.399 . S
C216 C217 1.396 . S
C216 C219 1.453 . S
C216 C220 1.684 . S
C217 C207 1.723 . S
C217 C216 1.396 . S
C217 C218 1.394 . S
C218 C188 1.723 . S
C218 C214 1.397 . S
C218 C217 1.394 . S
C219 H191 0.982 . S
C219 H195 0.979 . S
C219 H196 0.977 . S
C219 C216 1.453 . S
C220 H192 0.979 . S
C220 H193 0.980 . S
C220 H194 0.983 . S
C220 C216 1.684 . S
H221 C239 0.948 . S
H222 C180 0.948 . S
H223 C198 0.979 . S
H224 C198 0.980 . S
H225 C198 0.983 . S
H226 C197 0.982 . S
H227 C197 0.979 . S
H228 C197 0.977 . S
H229 C199 0.948 . S
H230 C201 0.947 . S
H231 C202 0.948 . S
H232 C208 0.982 . S
H233 C208 0.979 . S
H234 C208 0.977 . S
H235 C209 0.979 . S
H236 C209 0.980 . S
H237 C209 0.983 . S
H238 C182 0.947 . S
C239 C182 1.392 . S
C239 C183 1.419 . S
C239 H221 0.948 . S
Eu240 N269 2.600 . S
Eu240 N275 2.562 . S
Eu240 O284 2.462 . S
Eu240 O285 2.373 . S
Eu240 O287 2.432 . S
Eu240 O288 2.291 1_565 S
Eu240 O292 2.335 1_465 S
Eu240 O295 2.372 1_455 S
Eu240 C304 2.787 . S
C241 N242 1.365 . S
C241 C244 1.405 . S
C241 C248 1.448 . S
N242 C241 1.365 . S
N242 C245 1.319 . S
N242 Eu251 2.600 . S
C243 C245 1.397 . S
C243 C246 1.367 . S
C243 H263 0.931 1_655 S
C244 C241 1.405 . S
C244 C246 1.403 . S
C244 C250 1.439 . S
C245 N242 1.319 . S
C245 C243 1.397 . S
C245 H256 0.930 1_655 S
C246 C243 1.367 . S
C246 C244 1.403 . S
C246 H267 0.929 . S
C247 C248 1.430 . S
C247 C249 1.387 . S
C247 C253 1.404 . S
C248 C241 1.448 . S
C248 C247 1.430 . S
C248 N252 1.351 . S
C249 C247 1.387 . S
C249 C250 1.374 . S
C249 H264 0.931 . S
C250 C244 1.439 . S
C250 C249 1.374 . S
C250 H265 0.931 . S
Eu251 N242 2.600 . S
Eu251 N252 2.562 . S
Eu251 O286 2.335 1_655 S
Eu251 O289 2.372 1_655 S
Eu251 O290 2.462 . S
Eu251 O291 2.373 . S
Eu251 O293 2.432 . S
Eu251 O294 2.291 1_545 S
Eu251 C315 2.787 . S
N252 C248 1.351 . S
N252 Eu251 2.562 . S
N252 C254 1.325 . S
C253 C247 1.404 . S
C253 C255 1.366 . S
C253 H261 0.930 . S
C254 N252 1.325 . S
C254 C255 1.416 . S
C254 H260 0.929 . S
C255 C253 1.366 . S
C255 C254 1.416 . S
C255 H257 0.930 . S
H256 C245 0.930 1_455 S
H257 C255 0.930 . S
H258 C273 0.930 1_655 S
H259 C280 0.930 . S
H260 C254 0.929 . S
H261 C253 0.930 . S
H262 C276 0.929 . S
H263 C243 0.931 1_455 S
H264 C249 0.931 . S
H265 C250 0.931 . S
H266 C271 0.931 1_655 S
H267 C246 0.929 . S
H268 C279 0.930 . S
N269 Eu240 2.600 . S
N269 C270 1.365 . S
N269 C273 1.319 . S
C270 N269 1.365 . S
C270 C272 1.405 . S
C270 C278 1.448 . S
C271 H266 0.931 1_455 S
C271 C273 1.397 . S
C271 C274 1.367 . S
C272 C270 1.405 . S
C272 C274 1.403 . S
C272 C305 1.439 . S
C273 H258 0.930 1_455 S
C273 N269 1.319 . S
C273 C271 1.397 . S
C274 C271 1.367 . S
C274 C272 1.403 . S
C274 H281 0.929 . S
N275 Eu240 2.562 . S
N275 C276 1.325 . S
N275 C278 1.351 . S
C276 H262 0.929 . S
C276 N275 1.325 . S
C276 C280 1.416 . S
C277 C278 1.430 . S
C277 C279 1.404 . S
C277 C306 1.387 . S
C278 C270 1.448 . S
C278 N275 1.351 . S
C278 C277 1.430 . S
C279 H268 0.930 . S
C279 C277 1.404 . S
C279 C280 1.366 . S
C280 H259 0.930 . S
C280 C276 1.416 . S
C280 C279 1.366 . S
H281 C274 0.929 . S
H282 C305 0.931 . S
H283 C306 0.931 . S
O284 Eu240 2.462 . S
O284 C304 1.252 . S
O285 Eu240 2.373 . S
O285 C296 1.249 . S
O286 Eu251 2.335 1_455 S
O286 C296 1.264 1_545 S
O287 Eu240 2.432 . S
O287 C304 1.268 . S
O288 Eu240 2.291 1_545 S
O288 C303 1.255 . S
O289 Eu251 2.372 1_455 S
O289 C303 1.257 . S
O290 Eu251 2.462 . S
O290 C315 1.252 . S
O291 Eu251 2.373 . S
O291 C307 1.249 . S
O292 Eu240 2.335 1_645 S
O292 C307 1.264 . S
O293 Eu251 2.432 . S
O293 C315 1.268 . S
O294 Eu251 2.291 1_565 S
O294 C314 1.255 . S
O295 Eu240 2.372 1_655 S
O295 C314 1.257 . S
C296 O285 1.249 . S
C296 O286 1.264 1_565 S
C297 C300 1.382 . S
C297 C302 1.390 . S
C297 C304 1.506 . S
C298 C299 1.398 . S
C298 C302 1.392 . S
C299 C298 1.398 . S
C299 C301 1.372 . S
C299 H316 0.931 . S
C300 C297 1.382 . S
C300 C301 1.390 . S
C300 H317 0.931 . S
C301 C299 1.372 . S
C301 C300 1.390 . S
C301 H318 0.929 . S
C302 C297 1.390 . S
C302 C298 1.392 . S
C302 H319 0.930 . S
C303 O288 1.255 . S
C303 O289 1.257 . S
C304 Eu240 2.787 . S
C304 O284 1.252 . S
C304 O287 1.268 . S
C304 C297 1.506 . S
C305 C272 1.439 . S
C305 H282 0.931 . S
C305 C306 1.374 . S
C306 C277 1.387 . S
C306 H283 0.931 . S
C306 C305 1.374 . S
C307 O291 1.249 . S
C307 O292 1.264 . S
C308 C311 1.382 . S
C308 C312 1.390 . S
C308 C315 1.506 . S
C309 C310 1.398 . S
C309 C312 1.392 . S
C310 C309 1.398 . S
C310 C313 1.372 . S
C310 H320 0.931 . S
C311 C308 1.382 . S
C311 C313 1.390 . S
C311 H321 0.931 . S
C312 C308 1.390 . S
C312 C309 1.392 . S
C312 H322 0.930 . S
C313 C310 1.372 . S
C313 C311 1.390 . S
C313 H323 0.929 . S
C314 O294 1.255 . S
C314 O295 1.257 . S
C315 Eu251 2.787 . S
C315 O290 1.252 . S
C315 O293 1.268 . S
C315 C308 1.506 . S
H316 C299 0.931 . S
H317 C300 0.931 . S
H318 C301 0.929 . S
H319 C302 0.930 . S
H320 C310 0.931 . S
H321 C311 0.931 . S
H322 C312 0.930 . S
H323 C313 0.929 . S
Eu324 N353 2.599 1_556 S
Eu324 N359 2.562 1_556 S
Eu324 O368 2.462 . S
Eu324 O369 2.373 1_556 S
Eu324 O371 2.432 . S
Eu324 O372 2.291 1_556 S
Eu324 O376 2.335 . S
Eu324 O379 2.371 1_556 S
Eu324 C388 2.787 . S
C325 N326 1.365 . S
C325 C328 1.405 . S
C325 C332 1.448 . S
N326 C325 1.365 . S
N326 C329 1.319 . S
N326 Eu335 2.600 . S
C327 C329 1.397 . S
C327 C330 1.367 . S
C327 H347 0.931 . S
C328 C325 1.405 . S
C328 C330 1.403 . S
C328 C334 1.439 . S
C329 N326 1.319 . S
C329 C327 1.397 . S
C329 H340 0.930 . S
C330 C327 1.367 . S
C330 C328 1.403 . S
C330 H351 0.929 . S
C331 C332 1.430 . S
C331 C333 1.387 . S
C331 C337 1.404 . S
C332 C325 1.448 . S
C332 C331 1.430 . S
C332 N336 1.351 . S
C333 C331 1.387 . S
C333 C334 1.374 . S
C333 H348 0.931 . S
C334 C328 1.439 . S
C334 C333 1.374 . S
C334 H349 0.931 . S
Eu335 N326 2.600 . S
Eu335 N336 2.562 . S
Eu335 O370 2.335 . S
Eu335 O373 2.372 . S
Eu335 O374 2.462 . S
Eu335 O375 2.373 . S
Eu335 O377 2.432 . S
Eu335 O378 2.291 . S
Eu335 C399 2.787 . S
N336 C332 1.351 . S
N336 Eu335 2.562 . S
N336 C338 1.325 . S
C337 C331 1.404 . S
C337 C339 1.366 . S
C337 H345 0.930 . S
C338 N336 1.325 . S
C338 C339 1.416 . S
C338 H344 0.929 . S
C339 C337 1.366 . S
C339 C338 1.416 . S
C339 H341 0.930 . S
H340 C329 0.930 . S
H341 C339 0.930 . S
H342 C357 0.930 . S
H343 C364 0.930 . S
H344 C338 0.929 . S
H345 C337 0.930 . S
H346 C360 0.929 . S
H347 C327 0.931 . S
H348 C333 0.931 . S
H349 C334 0.931 . S
H350 C355 0.931 . S
H351 C330 0.929 . S
H352 C363 0.930 . S
N353 Eu324 2.599 1_554 S
N353 C354 1.366 . S
N353 C357 1.319 1_554 S
C354 N353 1.366 . S
C354 C356 1.405 . S
C354 C362 1.448 . S
C355 H350 0.931 . S
C355 C357 1.397 . S
C355 C358 1.367 1_556 S
C356 C354 1.405 . S
C356 C358 1.403 . S
C356 C389 1.439 . S
C357 H342 0.930 . S
C357 N353 1.319 1_556 S
C357 C355 1.397 . S
C358 C355 1.367 1_554 S
C358 C356 1.403 . S
C358 H365 0.929 . S
N359 Eu324 2.562 1_554 S
N359 C360 1.325 . S
N359 C362 1.351 . S
C360 H346 0.929 . S
C360 N359 1.325 . S
C360 C364 1.416 . S
C361 C362 1.430 . S
C361 C363 1.404 . S
C361 C390 1.387 . S
C362 C354 1.448 . S
C362 N359 1.351 . S
C362 C361 1.430 . S
C363 H352 0.930 . S
C363 C361 1.404 . S
C363 C364 1.366 . S
C364 H343 0.930 . S
C364 C360 1.416 . S
C364 C363 1.366 . S
H365 C358 0.929 . S
H366 C389 0.931 . S
H367 C390 0.931 . S
O368 Eu324 2.462 . S
O368 C388 1.252 . S
O369 Eu324 2.373 1_554 S
O369 C380 1.249 . S
O370 Eu335 2.335 . S
O370 C380 1.264 . S
O371 Eu324 2.432 . S
O371 C388 1.268 . S
O372 Eu324 2.291 1_554 S
O372 C387 1.255 . S
O373 Eu335 2.372 . S
O373 C387 1.257 . S
O374 Eu335 2.462 . S
O374 C399 1.252 . S
O375 Eu335 2.373 . S
O375 C391 1.249 1_554 S
O376 Eu324 2.335 . S
O376 C391 1.264 . S
O377 Eu335 2.432 . S
O377 C399 1.268 . S
O378 Eu335 2.291 . S
O378 C398 1.255 . S
O379 Eu324 2.371 1_554 S
O379 C398 1.257 . S
C380 O369 1.249 . S
C380 O370 1.264 . S
C381 C384 1.382 . S
C381 C386 1.390 . S
C381 C388 1.506 . S
C382 C383 1.398 . S
C382 C386 1.392 . S
C383 C382 1.398 . S
C383 C385 1.372 . S
C383 H400 0.931 . S
C384 C381 1.382 . S
C384 C385 1.390 . S
C384 H401 0.931 . S
C385 C383 1.372 . S
C385 C384 1.390 . S
C385 H402 0.929 . S
C386 C381 1.390 . S
C386 C382 1.392 . S
C386 H403 0.930 . S
C387 O372 1.255 . S
C387 O373 1.257 . S
C388 Eu324 2.787 . S
C388 O368 1.252 . S
C388 O371 1.268 . S
C388 C381 1.506 . S
C389 C356 1.439 . S
C389 H366 0.931 . S
C389 C390 1.374 . S
C390 C361 1.387 . S
C390 H367 0.931 . S
C390 C389 1.374 . S
C391 O375 1.249 1_556 S
C391 O376 1.264 . S
C392 C395 1.382 . S
C392 C396 1.390 . S
C392 C399 1.506 . S
C393 C394 1.398 . S
C393 C396 1.392 . S
C394 C393 1.398 . S
C394 C397 1.372 . S
C394 H404 0.931 . S
C395 C392 1.382 . S
C395 C397 1.390 . S
C395 H405 0.931 . S
C396 C392 1.390 . S
C396 C393 1.392 . S
C396 H406 0.930 . S
C397 C394 1.372 . S
C397 C395 1.390 . S
C397 H407 0.929 . S
C398 O378 1.255 . S
C398 O379 1.257 . S
C399 Eu335 2.787 . S
C399 O374 1.252 . S
C399 O377 1.268 . S
C399 C392 1.506 . S
H400 C383 0.931 . S
H401 C384 0.931 . S
H402 C385 0.929 . S
H403 C386 0.930 . S
H404 C394 0.931 . S
H405 C395 0.931 . S
H406 C396 0.930 . S
H407 C397 0.929 . S
C303 C211 2.183 . S
C31 C398 1.925 . S
C91 C314 2.278 . S
C151 C387 2.125 . S
C298 C20 1.474 . S
C391 C61 1.851 . S
C121 C307 2.304 . S
C200 C382 1.355 . S
C393 C80 1.512 . S
C309 C140 1.663 . S
C380 C181 1.720 . S
C1 C296 2.090 . S
