# Generated by pormake.
# Topology ssa, (4,4)-cn, num edge types: 1
# Building blocks:
#     Node 0, Type 0, BuildingBlock: NAWXER_clean_sbu_0, # of connection points: 4
#     Node 1, Type 0, BuildingBlock: NAWXER_clean_sbu_0, # of connection points: 4
#     Node 2, Type 0, BuildingBlock: NAWXER_clean_sbu_0, # of connection points: 4
#     Node 3, Type 0, BuildingBlock: NAWXER_clean_sbu_0, # of connection points: 4
#     Node 4, Type 0, BuildingBlock: NAWXER_clean_sbu_0, # of connection points: 4
#     Node 5, Type 0, BuildingBlock: NAWXER_clean_sbu_0, # of connection points: 4
#     Node 6, Type 1, BuildingBlock: MUDLON_clean_linker_0, # of connection points: 4
#     Node 7, Type 1, BuildingBlock: MUDLON_clean_linker_0, # of connection points: 4
#     Node 8, Type 1, BuildingBlock: MUDLON_clean_linker_0, # of connection points: 4
#     Node 9, Type 1, BuildingBlock: MUDLON_clean_linker_0, # of connection points: 4
#     Node 10, Type 1, BuildingBlock: MUDLON_clean_linker_0, # of connection points: 4
#     Node 11, Type 1, BuildingBlock: MUDLON_clean_linker_0, # of connection points: 4
#     Edge 12, Type (0, 1), BuildingBlock: UVAHIK_clean_linker_0, # of connection points: 2
#     Edge 13, Type (0, 1), BuildingBlock: UVAHIK_clean_linker_0, # of connection points: 2
#     Edge 14, Type (0, 1), BuildingBlock: UVAHIK_clean_linker_0, # of connection points: 2
#     Edge 15, Type (0, 1), BuildingBlock: UVAHIK_clean_linker_0, # of connection points: 2
#     Edge 16, Type (0, 1), BuildingBlock: UVAHIK_clean_linker_0, # of connection points: 2
#     Edge 17, Type (0, 1), BuildingBlock: UVAHIK_clean_linker_0, # of connection points: 2
#     Edge 18, Type (0, 1), BuildingBlock: UVAHIK_clean_linker_0, # of connection points: 2
#     Edge 19, Type (0, 1), BuildingBlock: UVAHIK_clean_linker_0, # of connection points: 2
#     Edge 20, Type (0, 1), BuildingBlock: UVAHIK_clean_linker_0, # of connection points: 2
#     Edge 21, Type (0, 1), BuildingBlock: UVAHIK_clean_linker_0, # of connection points: 2
#     Edge 22, Type (0, 1), BuildingBlock: UVAHIK_clean_linker_0, # of connection points: 2
#     Edge 23, Type (0, 1), BuildingBlock: UVAHIK_clean_linker_0, # of connection points: 2
#     Edge 24, Type (0, 1), BuildingBlock: UVAHIK_clean_linker_0, # of connection points: 2
#     Edge 25, Type (0, 1), BuildingBlock: UVAHIK_clean_linker_0, # of connection points: 2
#     Edge 26, Type (0, 1), BuildingBlock: UVAHIK_clean_linker_0, # of connection points: 2
#     Edge 27, Type (0, 1), BuildingBlock: UVAHIK_clean_linker_0, # of connection points: 2
#     Edge 28, Type (0, 1), BuildingBlock: UVAHIK_clean_linker_0, # of connection points: 2
#     Edge 29, Type (0, 1), BuildingBlock: UVAHIK_clean_linker_0, # of connection points: 2
#     Edge 30, Type (0, 1), BuildingBlock: UVAHIK_clean_linker_0, # of connection points: 2
#     Edge 31, Type (0, 1), BuildingBlock: UVAHIK_clean_linker_0, # of connection points: 2
#     Edge 32, Type (0, 1), BuildingBlock: UVAHIK_clean_linker_0, # of connection points: 2
#     Edge 33, Type (0, 1), BuildingBlock: UVAHIK_clean_linker_0, # of connection points: 2
#     Edge 34, Type (0, 1), BuildingBlock: UVAHIK_clean_linker_0, # of connection points: 2
#     Edge 35, Type (0, 1), BuildingBlock: UVAHIK_clean_linker_0, # of connection points: 2
# Relax obj value: 0.009
# Max RMSD: 0.047
# Mean RMSD: 0.033
data_MOF--net-ssa--node1-NAWXER_clean_sbu_0--node2-MUDLON_clean_linker_0--edge1-UVAHIK_clean_linker_0
_symmetry_space_group_name_H-M    P1
_symmetry_Int_Tables_number       1
_symmetry_cell_setting            triclinic
loop_
_symmetry_equiv_pos_as_xyz
'x, y, z'
_cell_length_a     83.490123
_cell_length_b     83.536
_cell_length_c     45.971541
_cell_angle_alpha  89.993872
_cell_angle_beta   89.91927
_cell_angle_gamma 120.02322
loop_
_atom_site_label
_atom_site_type_symbol
_atom_site_fract_x
_atom_site_fract_y
_atom_site_fract_z
_atom_type_partial_charge
C0 C 0.01878 0.52246 0.08034 0.0
C1 C 0.98224 0.46078 0.03889 0.0
O2 O 0.00464 0.50874 0.09156 0.0
Zn3 Zn 1.00018 0.49142 0.06027 0.0
O4 O 0.02503 0.52061 0.05586 0.0
Zn5 Zn 0.0187 0.49952 0.02413 0.0
O6 O 0.01412 0.5101 0.98985 0.0
O7 O 0.99351 0.50352 0.02464 0.0
O8 O 0.99651 0.47138 0.02353 0.0
O9 O 0.97869 0.46685 0.0619 0.0
O10 O 0.02295 0.48647 0.06494 0.0
O11 O 0.0404 0.49685 0.02557 0.0
C12 C 0.99977 0.51004 -0.00073 0.0
C13 C 0.03726 0.48922 0.05047 0.0
C14 C 0.50541 0.0154 0.54616 0.0
C15 C 0.53062 0.97846 0.5066 0.0
O16 O 0.50466 0.00105 0.55703 0.0
Zn17 Zn 0.51748 0.99646 0.52616 0.0
O18 O 0.51326 0.0214 0.5214 0.0
Zn19 Zn 0.52703 0.01392 0.48913 0.0
O20 O 0.51127 0.00833 0.45546 0.0
O21 O 0.49826 0.98794 0.49078 0.0
O22 O 0.53348 0.99196 0.48989 0.0
O23 O 0.52154 0.97575 0.53004 0.0
O24 O 0.54509 0.01992 0.52924 0.0
O25 O 0.55145 0.03547 0.48795 0.0
C26 C 0.49753 0.99362 0.46518 0.0
C27 C 0.55635 0.0336 0.51331 0.0
C28 C 0.50826 0.48118 0.9617 0.0
C29 C 0.53276 0.54076 0.01073 0.0
O30 O 0.50756 0.49525 0.95294 0.0
Zn31 Zn 0.52001 0.51101 0.98597 0.0
O32 O 0.51567 0.48171 0.98636 0.0
Zn33 Zn 0.52868 0.50079 0.02141 0.0
O34 O 0.51218 0.48876 0.05378 0.0
O35 O 0.5 0.4982 0.02011 0.0
O36 O 0.53495 0.52891 0.02531 0.0
O37 O 0.52457 0.53617 0.9863 0.0
O38 O 0.54756 0.51499 0.98259 0.0
O39 O 0.55297 0.50337 0.02203 0.0
C40 C 0.49866 0.4903 0.04463 0.0
C41 C 0.55841 0.5115 0.99762 0.0
C42 C 0.05585 0.54238 0.49969 0.0
C43 C 0.01676 0.48382 0.54956 0.0
O44 O 0.06189 0.54169 0.52502 0.0
Zn45 Zn 0.05437 0.52243 0.56036 0.0
O46 O 0.04127 0.52843 0.49006 0.0
Zn47 Zn 0.03619 0.51281 0.52379 0.0
O48 O 0.03 0.52751 0.5559 0.0
O49 O 0.05011 0.53531 0.59183 0.0
O50 O 0.01438 0.48844 0.52428 0.0
O51 O 0.03088 0.49515 0.56454 0.0
O52 O 0.07524 0.51822 0.56212 0.0
O53 O 0.05802 0.50651 0.52291 0.0
C54 C 0.03619 0.5353 0.58058 0.0
C55 C 0.0719 0.50924 0.53845 0.0
C56 C 0.5414 0.99694 0.04367 0.0
C57 C 0.51932 0.03534 -0.00072 0.0
O58 O 0.54251 0.01166 0.05365 0.0
Zn59 Zn 0.53098 0.01652 0.02129 0.0
O60 O 0.53403 0.9909 0.01863 0.0
Zn61 Zn 0.52141 0.9988 0.98471 0.0
O62 O 0.53747 0.00355 0.9516 0.0
O63 O 0.55112 0.02322 0.98757 0.0
O64 O 0.51599 0.02135 0.98351 0.0
O65 O 0.52812 0.0381 0.02297 0.0
O66 O 0.50296 0.99364 0.02413 0.0
O67 O 0.49681 0.97763 0.9834 0.0
C68 C 0.55181 0.01727 0.96217 0.0
C69 C 0.4917 0.97988 0.00839 0.0
C70 C 0.56145 0.52733 0.54981 0.0
C71 C 0.50058 0.50587 0.5073 0.0
O72 O 0.54782 0.52798 0.56082 0.0
Zn73 Zn 0.53099 0.51692 0.52868 0.0
O74 O 0.56 0.52057 0.52425 0.0
Zn75 Zn 0.53945 0.50873 0.49068 0.0
O76 O 0.55038 0.52564 0.45851 0.0
O77 O 0.54322 0.53776 0.49545 0.0
O78 O 0.51151 0.50355 0.49044 0.0
O79 O 0.50629 0.51332 0.53206 0.0
O80 O 0.52556 0.48884 0.52854 0.0
O81 O 0.53592 0.48413 0.48708 0.0
C82 C 0.54992 0.53928 0.4698 0.0
C83 C 0.52805 0.47809 0.51152 0.0
H84 H 0.32596 0.45713 0.29819 0.0
N85 N 0.29673 0.42242 0.28754 0.0
H86 H 0.34517 0.46694 0.34128 0.0
H87 H 0.29006 0.40412 0.33758 0.0
H88 H 0.3087 0.41424 0.382 0.0
H89 H 0.30872 0.39981 0.27119 0.0
H90 H 0.33199 0.40537 0.23407 0.0
H91 H 0.31134 0.45112 0.24849 0.0
H92 H 0.33488 0.45702 0.21181 0.0
H93 H 0.29443 0.45382 0.29614 0.0
H94 H 0.26395 0.39711 0.26772 0.0
H95 H 0.26661 0.4562 0.29228 0.0
H96 H 0.2362 0.39963 0.26208 0.0
H97 H 0.19967 0.46465 0.30634 0.0
H98 H 0.18968 0.47391 0.35013 0.0
H99 H 0.14464 0.41776 0.36047 0.0
H100 H 0.15425 0.40899 0.31584 0.0
H101 H 0.15487 0.40616 0.2465 0.0
H102 H 0.1388 0.41234 0.20732 0.0
H103 H 0.1757 0.471 0.21834 0.0
H104 H 0.19164 0.46471 0.25721 0.0
H105 H 0.21581 0.45879 0.26399 0.0
H106 H 0.2443 0.45735 0.26202 0.0
H107 H 0.21423 0.40077 0.29251 0.0
N108 N 0.18156 0.4307 0.28031 0.0
H109 H 0.18574 0.40218 0.29294 0.0
C110 C 0.30674 0.42964 0.31439 0.0
C111 C 0.32199 0.44767 0.31635 0.0
C112 C 0.33289 0.45338 0.34136 0.0
C113 C 0.32866 0.44134 0.36521 0.0
C114 C 0.31265 0.42376 0.36387 0.0
C115 C 0.30189 0.41797 0.33863 0.0
C116 C 0.3083 0.42498 0.26264 0.0
C117 C 0.31412 0.41212 0.25782 0.0
C118 C 0.32752 0.41542 0.23683 0.0
C119 C 0.33546 0.43175 0.22023 0.0
C120 C 0.32896 0.44424 0.22407 0.0
C121 C 0.3155 0.4409 0.2451 0.0
C122 C 0.28113 0.42506 0.28284 0.0
C123 C 0.2818 0.44191 0.28878 0.0
C124 C 0.26585 0.44332 0.28624 0.0
C125 C 0.24902 0.42803 0.27725 0.0
C126 C 0.24874 0.41154 0.26985 0.0
C127 C 0.2646 0.41009 0.27279 0.0
C128 C 0.17742 0.43617 0.30766 0.0
C129 C 0.18765 0.45438 0.31805 0.0
C130 C 0.18202 0.4596 0.3433 0.0
C131 C 0.16619 0.44664 0.35867 0.0
C132 C 0.15662 0.42822 0.34884 0.0
C133 C 0.16214 0.42311 0.32352 0.0
C134 C 0.17442 0.43488 0.25474 0.0
C135 C 0.1597 0.42031 0.23996 0.0
C136 C 0.1505 0.42388 0.21777 0.0
C137 C 0.15592 0.44216 0.2099 0.0
C138 C 0.17132 0.45676 0.22371 0.0
C139 C 0.18045 0.45317 0.24603 0.0
C140 C 0.1986 0.43044 0.27828 0.0
C141 C 0.21531 0.44602 0.26984 0.0
C142 C 0.23166 0.44521 0.26899 0.0
C143 C 0.23162 0.4289 0.27695 0.0
C144 C 0.2148 0.41343 0.28553 0.0
C145 C 0.19851 0.41421 0.28604 0.0
H146 H 0.75124 0.12409 0.75608 0.0
N147 N 0.75972 0.15733 0.73644 0.0
H148 H 0.72667 0.10479 0.79095 0.0
H149 H 0.74012 0.16864 0.77061 0.0
H150 H 0.71531 0.14923 0.80425 0.0
H151 H 0.73436 0.16755 0.72098 0.0
H152 H 0.71492 0.15728 0.67822 0.0
H153 H 0.76473 0.14189 0.6894 0.0
H154 H 0.7461 0.13256 0.64504 0.0
H155 H 0.79367 0.16318 0.7427 0.0
H156 H 0.76225 0.19127 0.74231 0.0
H157 H 0.82191 0.1924 0.75197 0.0
H158 H 0.79002 0.2203 0.75399 0.0
H159 H 0.90836 0.28976 0.80287 0.0
H160 H 0.91658 0.30768 0.84771 0.0
H161 H 0.86167 0.30072 0.85163 0.0
H162 H 0.85397 0.28357 0.80584 0.0
H163 H 0.87313 0.30648 0.76226 0.0
H164 H 0.88808 0.32913 0.72373 0.0
H165 H 0.91071 0.29656 0.68855 0.0
H166 H 0.89656 0.27452 0.72857 0.0
H167 H 0.86753 0.2431 0.79346 0.0
H168 H 0.8383 0.2144 0.7868 0.0
H169 H 0.81771 0.24395 0.73614 0.0
N170 N 0.87716 0.27641 0.77305 0.0
H171 H 0.84638 0.27269 0.74497 0.0
C172 C 0.7475 0.14774 0.76044 0.0
C173 C 0.74379 0.12982 0.76716 0.0
C174 C 0.7298 0.11884 0.78693 0.0
C175 C 0.71917 0.12561 0.79994 0.0
C176 C 0.72338 0.14379 0.79431 0.0
C177 C 0.73757 0.15487 0.77499 0.0
C178 C 0.75076 0.15507 0.70877 0.0
C179 C 0.73721 0.16012 0.7045 0.0
C180 C 0.72614 0.15435 0.67963 0.0
C181 C 0.72862 0.14373 0.65819 0.0
C182 C 0.74336 0.14021 0.66141 0.0
C183 C 0.75419 0.14571 0.68657 0.0
C184 C 0.77585 0.17493 0.7423 0.0
C185 C 0.79287 0.17566 0.74512 0.0
C186 C 0.80896 0.19239 0.75075 0.0
C187 C 0.80835 0.20883 0.75421 0.0
C188 C 0.79117 0.20804 0.75125 0.0
C189 C 0.77511 0.19131 0.74501 0.0
C190 C 0.8806 0.28523 0.80113 0.0
C191 C 0.89806 0.29194 0.81367 0.0
C192 C 0.90266 0.30208 0.83945 0.0
C193 C 0.88977 0.30562 0.85354 0.0
C194 C 0.87203 0.29846 0.84128 0.0
C195 C 0.86751 0.28846 0.81523 0.0
C196 C 0.88412 0.28899 0.74867 0.0
C197 C 0.88133 0.30421 0.74633 0.0
C198 C 0.88974 0.31708 0.72392 0.0
C199 C 0.90081 0.31485 0.70302 0.0
C200 C 0.90269 0.29902 0.7046 0.0
C201 C 0.8945 0.28632 0.72729 0.0
C202 C 0.85935 0.25996 0.76934 0.0
C203 C 0.8566 0.24333 0.78115 0.0
C204 C 0.83991 0.22691 0.77701 0.0
C205 C 0.82562 0.22665 0.7604 0.0
C206 C 0.82824 0.24351 0.74922 0.0
C207 C 0.84482 0.26003 0.75395 0.0
H208 H 0.57845 0.85006 0.29598 0.0
N209 N 0.61396 0.86238 0.27771 0.0
H210 H 0.5693 0.85959 0.34019 0.0
H211 H 0.63557 0.88077 0.32232 0.0
H212 H 0.6265 0.89036 0.36691 0.0
H213 H 0.63497 0.89714 0.26058 0.0
H214 H 0.62693 0.91435 0.22617 0.0
H215 H 0.583 0.84774 0.24364 0.0
H216 H 0.5746 0.86491 0.20956 0.0
H217 H 0.58908 0.82741 0.29891 0.0
H218 H 0.63513 0.85722 0.24029 0.0
H219 H 0.589 0.79901 0.2882 0.0
H220 H 0.63435 0.82847 0.22797 0.0
H221 H 0.5809 0.71641 0.25072 0.0
H222 H 0.57274 0.69219 0.28655 0.0
H223 H 0.62863 0.72144 0.32003 0.0
H224 H 0.63692 0.7451 0.28255 0.0
H225 H 0.63845 0.73733 0.21078 0.0
H226 H 0.63089 0.71676 0.16886 0.0
H227 H 0.57714 0.71232 0.16368 0.0
H228 H 0.58501 0.73325 0.20485 0.0
H229 H 0.5843 0.74724 0.24843 0.0
H230 H 0.58271 0.7754 0.25492 0.0
H231 H 0.64233 0.80787 0.24775 0.0
N232 N 0.61577 0.74522 0.23953 0.0
H233 H 0.64351 0.77966 0.23937 0.0
C234 C 0.60777 0.86471 0.30589 0.0
C235 C 0.58898 0.85846 0.31165 0.0
C236 C 0.58375 0.86386 0.33703 0.0
C237 C 0.5972 0.87581 0.35694 0.0
C238 C 0.61586 0.88126 0.35184 0.0
C239 C 0.62105 0.87571 0.32656 0.0
C240 C 0.60962 0.87127 0.25465 0.0
C241 C 0.62192 0.89 0.24909 0.0
C242 C 0.61722 0.89981 0.22967 0.0
C243 C 0.60003 0.89105 0.21541 0.0
C244 C 0.58798 0.87203 0.22009 0.0
C245 C 0.59272 0.86221 0.23961 0.0
C246 C 0.61235 0.84476 0.27062 0.0
C247 C 0.59907 0.82796 0.28342 0.0
C248 C 0.5989 0.8115 0.27702 0.0
C249 C 0.61176 0.81134 0.25734 0.0
C250 C 0.62452 0.82804 0.24379 0.0
C251 C 0.62489 0.8445 0.25058 0.0
C252 C 0.60969 0.73246 0.26363 0.0
C253 C 0.59139 0.71774 0.26586 0.0
C254 C 0.58669 0.70389 0.28667 0.0
C255 C 0.60007 0.70462 0.30608 0.0
C256 C 0.61806 0.72008 0.305 0.0
C257 C 0.6228 0.73376 0.28385 0.0
C258 C 0.61232 0.73671 0.21122 0.0
C259 C 0.62528 0.73238 0.19996 0.0
C260 C 0.62086 0.72051 0.17619 0.0
C261 C 0.60327 0.71262 0.16329 0.0
C262 C 0.59084 0.71819 0.17304 0.0
C263 C 0.59532 0.73015 0.19679 0.0
C264 C 0.61407 0.76143 0.2429 0.0
C265 C 0.59697 0.76044 0.24763 0.0
C266 C 0.59612 0.77661 0.25177 0.0
C267 C 0.61239 0.79405 0.25179 0.0
C268 C 0.62945 0.79484 0.24718 0.0
C269 C 0.63021 0.77872 0.24261 0.0
H270 H 0.92579 0.63163 0.7984 0.0
N271 N 0.89345 0.61369 0.77112 0.0
H272 H 0.93739 0.61919 0.83573 0.0
H273 H 0.87221 0.58233 0.80313 0.0
H274 H 0.88358 0.5699 0.84077 0.0
H275 H 0.88086 0.57785 0.75412 0.0
H276 H 0.89767 0.56771 0.72277 0.0
H277 H 0.91997 0.6347 0.73342 0.0
H278 H 0.93664 0.62451 0.70128 0.0
H279 H 0.88107 0.62966 0.80771 0.0
H280 H 0.86398 0.59323 0.73324 0.0
H281 H 0.85044 0.62636 0.81018 0.0
H282 H 0.83377 0.59054 0.73503 0.0
H283 H 0.75441 0.61736 0.8167 0.0
H284 H 0.7322 0.60314 0.85631 0.0
H285 H 0.73571 0.55346 0.84744 0.0
H286 H 0.75739 0.56759 0.8073 0.0
H287 H 0.74548 0.56728 0.75765 0.0
H288 H 0.72228 0.5601 0.7201 0.0
H289 H 0.73929 0.61802 0.71331 0.0
H290 H 0.76277 0.62516 0.75088 0.0
H291 H 0.79999 0.63129 0.7912 0.0
H292 H 0.83076 0.6348 0.78665 0.0
H293 H 0.80581 0.57725 0.76218 0.0
N294 N 0.76759 0.60127 0.78225 0.0
H295 H 0.77533 0.57421 0.76536 0.0
C296 C 0.89824 0.60794 0.79783 0.0
C297 C 0.91638 0.6184 0.80825 0.0
C298 C 0.92296 0.61125 0.82957 0.0
C299 C 0.91147 0.59343 0.84089 0.0
C300 C 0.89286 0.58353 0.83206 0.0
C301 C 0.88629 0.5907 0.81073 0.0
C302 C 0.89927 0.60715 0.74636 0.0
C303 C 0.89269 0.58815 0.7421 0.0
C304 C 0.90234 0.58234 0.72425 0.0
C305 C 0.91857 0.59536 0.71002 0.0
C306 C 0.92412 0.61421 0.712 0.0
C307 C 0.91458 0.62004 0.73018 0.0
C308 C 0.87504 0.61145 0.7709 0.0
C309 C 0.87077 0.62097 0.79187 0.0
C310 C 0.85326 0.61921 0.79307 0.0
C311 C 0.83953 0.60813 0.77284 0.0
C312 C 0.84385 0.59887 0.75137 0.0
C313 C 0.86135 0.60048 0.75035 0.0
C314 C 0.75759 0.59365 0.80896 0.0
C315 C 0.75071 0.60357 0.82384 0.0
C316 C 0.73806 0.59541 0.84657 0.0
C317 C 0.73202 0.57706 0.85499 0.0
C318 C 0.73982 0.5675 0.8412 0.0
C319 C 0.75241 0.57566 0.81831 0.0
C320 C 0.75607 0.59687 0.75685 0.0
C321 C 0.74474 0.57854 0.74745 0.0
C322 C 0.73138 0.57442 0.72601 0.0
C323 C 0.72892 0.58849 0.7139 0.0
C324 C 0.74079 0.60689 0.72245 0.0
C325 C 0.75427 0.61101 0.74366 0.0
C326 C 0.78535 0.60254 0.77895 0.0
C327 C 0.80124 0.61949 0.78476 0.0
C328 C 0.81879 0.6214 0.78234 0.0
C329 C 0.82083 0.60625 0.77429 0.0
C330 C 0.80483 0.58927 0.76814 0.0
C331 C 0.78727 0.58745 0.77027 0.0
H332 H 0.18549 0.73623 0.30119 0.0
N333 N 0.16601 0.74602 0.26428 0.0
H334 H 0.17203 0.71467 0.34173 0.0
H335 H 0.13497 0.73784 0.29194 0.0
H336 H 0.12157 0.71675 0.33322 0.0
H337 H 0.14208 0.74168 0.22258 0.0
H338 H 0.12388 0.71384 0.19301 0.0
H339 H 0.17351 0.71777 0.25685 0.0
H340 H 0.15542 0.69019 0.22782 0.0
H341 H 0.1984 0.74683 0.24881 0.0
H342 H 0.17503 0.78091 0.27177 0.0
H343 H 0.22847 0.7743 0.24158 0.0
H344 H 0.20535 0.8086 0.26566 0.0
H345 H 0.31414 0.8496 0.25481 0.0
H346 H 0.33837 0.86615 0.29066 0.0
H347 H 0.31911 0.90495 0.30318 0.0
H348 H 0.29448 0.88801 0.26742 0.0
H349 H 0.30181 0.88864 0.19946 0.0
H350 H 0.32224 0.89578 0.15758 0.0
H351 H 0.31832 0.84235 0.1657 0.0
H352 H 0.29827 0.83562 0.20813 0.0
H353 H 0.28366 0.82691 0.2584 0.0
H354 H 0.25382 0.79926 0.26644 0.0
H355 H 0.22649 0.82649 0.22815 0.0
N356 N 0.28962 0.85978 0.23458 0.0
H357 H 0.2565 0.85444 0.2212 0.0
C358 C 0.16106 0.73841 0.29321 0.0
C359 C 0.17176 0.73253 0.30859 0.0
C360 C 0.16403 0.72019 0.33187 0.0
C361 C 0.14556 0.71365 0.34023 0.0
C362 C 0.13567 0.72118 0.32683 0.0
C363 C 0.14337 0.7334 0.30351 0.0
C364 C 0.15915 0.73194 0.242 0.0
C365 C 0.1455 0.73077 0.22296 0.0
C366 C 0.13509 0.71486 0.20621 0.0
C367 C 0.13811 0.69981 0.20856 0.0
C368 C 0.15269 0.70154 0.22593 0.0
C369 C 0.16318 0.71746 0.24238 0.0
C370 C 0.18427 0.7618 0.26051 0.0
C371 C 0.19966 0.76017 0.25242 0.0
C372 C 0.217 0.77598 0.24852 0.0
C373 C 0.21937 0.79372 0.25285 0.0
C374 C 0.204 0.79522 0.26153 0.0
C375 C 0.18669 0.77943 0.26524 0.0
C376 C 0.30223 0.86741 0.25873 0.0
C377 C 0.31463 0.86125 0.2659 0.0
C378 C 0.32859 0.87079 0.28635 0.0
C379 C 0.33064 0.88686 0.29964 0.0
C380 C 0.3179 0.89267 0.29314 0.0
C381 C 0.30378 0.88295 0.27295 0.0
C382 C 0.29857 0.86171 0.20695 0.0
C383 C 0.30502 0.87832 0.1917 0.0
C384 C 0.31664 0.88231 0.16767 0.0
C385 C 0.32204 0.86967 0.1583 0.0
C386 C 0.31465 0.8525 0.17259 0.0
C387 C 0.30305 0.84856 0.19676 0.0
C388 C 0.27233 0.84295 0.23945 0.0
C389 C 0.27133 0.82708 0.25189 0.0
C390 C 0.25417 0.81112 0.25627 0.0
C391 C 0.23769 0.81062 0.24809 0.0
C392 C 0.23883 0.82646 0.23527 0.0
C393 C 0.25596 0.84241 0.23108 0.0
H394 H 0.41609 0.12341 0.75288 0.0
N395 N 0.43916 0.15722 0.77207 0.0
H396 H 0.42271 0.10542 0.71782 0.0
H397 H 0.47009 0.17061 0.73745 0.0
H398 H 0.47667 0.15295 0.70216 0.0
H399 H 0.47497 0.17001 0.78935 0.0
H400 H 0.48461 0.1597 0.83202 0.0
H401 H 0.41802 0.13773 0.81635 0.0
H402 H 0.42759 0.12737 0.85942 0.0
H403 H 0.4102 0.16161 0.7645 0.0
H404 H 0.46974 0.19205 0.76821 0.0
H405 H 0.40996 0.19024 0.75484 0.0
H406 H 0.4698 0.22046 0.75666 0.0
H407 H 0.4202 0.28431 0.69228 0.0
H408 H 0.4332 0.30396 0.64949 0.0
H409 H 0.4844 0.30372 0.66187 0.0
H410 H 0.47127 0.28425 0.70505 0.0
H411 H 0.47168 0.30113 0.74918 0.0
H412 H 0.47777 0.32541 0.78409 0.0
H413 H 0.41904 0.30287 0.79604 0.0
H414 H 0.41297 0.27815 0.76116 0.0
H415 H 0.41514 0.24066 0.70969 0.0
H416 H 0.41601 0.21234 0.71906 0.0
H417 H 0.46364 0.24293 0.7745 0.0
N418 N 0.43766 0.27434 0.72975 0.0
H419 H 0.46337 0.27112 0.76362 0.0
C420 C 0.44249 0.14832 0.74786 0.0
C421 C 0.42917 0.13002 0.74136 0.0
C422 C 0.43298 0.11979 0.72131 0.0
C423 C 0.45029 0.12772 0.70737 0.0
C424 C 0.46332 0.14636 0.71287 0.0
C425 C 0.45948 0.15656 0.73295 0.0
C426 C 0.44568 0.15463 0.79967 0.0
C427 C 0.46456 0.16121 0.80492 0.0
C428 C 0.47008 0.15527 0.82941 0.0
C429 C 0.45684 0.14257 0.84894 0.0
C430 C 0.4381 0.13698 0.84457 0.0
C431 C 0.43261 0.14298 0.82016 0.0
C432 C 0.43989 0.17457 0.76678 0.0
C433 C 0.42323 0.17448 0.76293 0.0
C434 C 0.42317 0.19086 0.75711 0.0
C435 C 0.43989 0.20777 0.75461 0.0
C436 C 0.45663 0.20781 0.75871 0.0
C437 C 0.45664 0.19143 0.76499 0.0
C438 C 0.44472 0.2829 0.70186 0.0
C439 C 0.43406 0.28813 0.68527 0.0
C440 C 0.44152 0.29932 0.66076 0.0
C441 C 0.45991 0.30553 0.6523 0.0
C442 C 0.47028 0.29938 0.66803 0.0
C443 C 0.46276 0.28815 0.69261 0.0
C444 C 0.44177 0.28753 0.75288 0.0
C445 C 0.46007 0.30102 0.75978 0.0
C446 C 0.46355 0.31497 0.77975 0.0
C447 C 0.44887 0.31599 0.7928 0.0
C448 C 0.43061 0.3024 0.78623 0.0
C449 C 0.42713 0.28824 0.76655 0.0
C450 C 0.43894 0.25806 0.73607 0.0
C451 C 0.4258 0.24121 0.72377 0.0
C452 C 0.42624 0.225 0.72939 0.0
C453 C 0.43979 0.2252 0.74785 0.0
C454 C 0.45312 0.24219 0.75992 0.0
C455 C 0.45284 0.25846 0.75389 0.0
C456 C 0.06819 0.49095 0.0531 0.0
C457 C 0.04999 0.48367 0.06335 0.0
C458 C 0.08039 0.48647 0.06695 0.0
C459 C 0.08647 0.46868 0.13763 0.0
H460 H 0.12245 0.461 0.09581 0.0
C461 C 0.12516 0.43657 0.19268 0.0
C462 C 0.14449 0.44604 0.18952 0.0
C463 C 0.11431 0.44119 0.17548 0.0
C464 C 0.11254 0.46325 0.10772 0.0
H465 H 0.03002 0.46529 0.09515 0.0
H466 H 0.05093 0.45709 0.11856 0.0
H467 H 0.10203 0.4689 0.0689 0.0
H468 H 0.16757 0.46733 0.16513 0.0
H469 H 0.14846 0.47535 0.13473 0.0
H470 H 0.09668 0.46268 0.17631 0.0
C471 C 0.0561 0.46675 0.10055 0.0
C472 C 0.10089 0.46782 0.09237 0.0
C473 C 0.04404 0.47136 0.08698 0.0
C474 C 0.15271 0.45987 0.16812 0.0
C475 C 0.14179 0.46438 0.15064 0.0
C476 C 0.09793 0.46394 0.15285 0.0
C477 C 0.07454 0.47451 0.09113 0.0
C478 C 0.08756 0.47038 0.10714 0.0
C479 C 0.12252 0.4553 0.15458 0.0
C480 C 0.11095 0.46099 0.13807 0.0
H481 H 0.07317 0.50049 0.03494 0.0
H482 H 0.09452 0.49279 0.05921 0.0
H483 H 0.07677 0.47106 0.14986 0.0
H484 H 0.11842 0.426 0.20918 0.0
H485 H 0.09947 0.43385 0.17879 0.0
C486 C 0.58926 0.05899 0.50592 0.0
C487 C 0.57502 0.04669 0.52454 0.0
C488 C 0.60717 0.07042 0.51666 0.0
C489 C 0.63682 0.07365 0.57886 0.0
H490 H 0.66798 0.12437 0.55363 0.0
C491 C 0.7094 0.11653 0.62579 0.0
C492 C 0.71461 0.13461 0.63469 0.0
C493 C 0.69428 0.1067 0.60742 0.0
C494 C 0.65942 0.11025 0.56097 0.0
H495 H 0.5682 0.03735 0.56924 0.0
H496 H 0.59907 0.05748 0.58799 0.0
H497 H 0.63719 0.10571 0.53255 0.0
H498 H 0.70877 0.15699 0.62896 0.0
H499 H 0.68182 0.13949 0.59822 0.0
H500 H 0.65841 0.07825 0.60824 0.0
C501 C 0.59667 0.05796 0.56494 0.0
C502 C 0.64185 0.09949 0.54866 0.0
C503 C 0.5789 0.04648 0.55421 0.0
C504 C 0.70493 0.14295 0.6232 0.0
C505 C 0.68959 0.13298 0.60516 0.0
C506 C 0.65424 0.08438 0.59126 0.0
C507 C 0.61112 0.06983 0.54626 0.0
C508 C 0.63023 0.08114 0.55781 0.0
C509 C 0.6837 0.11451 0.59784 0.0
C510 C 0.66574 0.10288 0.58271 0.0
H511 H 0.5867 0.05945 0.48293 0.0
H512 H 0.61799 0.07934 0.50165 0.0
H513 H 0.62842 0.05946 0.58604 0.0
H514 H 0.71631 0.10947 0.6342 0.0
H515 H 0.69047 0.09267 0.60162 0.0
C516 C 0.53579 0.57237 0.00979 0.0
C517 C 0.53973 0.55951 0.02292 0.0
C518 C 0.54198 0.58977 0.0225 0.0
C519 C 0.55726 0.61323 0.09363 0.0
H520 H 0.57945 0.65886 0.04926 0.0
C521 C 0.6011 0.68279 0.14883 0.0
C522 C 0.59706 0.69688 0.14275 0.0
C523 C 0.59365 0.66685 0.13188 0.0
C524 C 0.5731 0.64619 0.06183 0.0
H525 H 0.5538 0.55512 0.05909 0.0
H526 H 0.56468 0.58523 0.08074 0.0
H527 H 0.56685 0.62914 0.02383 0.0
H528 H 0.58258 0.70557 0.1133 0.0
H529 H 0.56953 0.67748 0.08337 0.0
H530 H 0.56382 0.63013 0.13157 0.0
C531 C 0.55647 0.58183 0.06109 0.0
C532 C 0.56586 0.6292 0.04731 0.0
C533 C 0.55029 0.56456 0.04854 0.0
C534 C 0.58587 0.6949 0.11859 0.0
C535 C 0.57849 0.67891 0.1014 0.0
C536 C 0.56455 0.63011 0.10803 0.0
C537 C 0.55218 0.59456 0.04854 0.0
C538 C 0.55825 0.61256 0.06316 0.0
C539 C 0.58199 0.66456 0.10836 0.0
C540 C 0.5729 0.64677 0.09237 0.0
H541 H 0.52771 0.56891 0.99001 0.0
H542 H 0.53843 0.59927 0.01233 0.0
H543 H 0.55104 0.60066 0.10645 0.0
H544 H 0.60942 0.68369 0.16749 0.0
H545 H 0.59676 0.6561 0.13752 0.0
C546 C 0.02632 0.54482 0.62588 0.0
C547 C 0.02685 0.54406 0.5954 0.0
C548 C 0.01587 0.55158 0.63947 0.0
C549 C 0.9956 0.58108 0.62937 0.0
H550 H 0.95687 0.54744 0.68168 0.0
C551 C 0.93791 0.59513 0.66828 0.0
C552 C 0.93087 0.58947 0.69646 0.0
C553 C 0.95015 0.59003 0.65636 0.0
C554 C 0.9678 0.55722 0.66759 0.0
H555 H 0.01769 0.55053 0.55524 0.0
H556 H 0.99996 0.56282 0.57899 0.0
H557 H 0.97864 0.53896 0.66174 0.0
H558 H 0.93146 0.57461 0.73466 0.0
H559 H 0.95324 0.56632 0.71454 0.0
H560 H 0.98519 0.59958 0.63556 0.0
C561 C 0.00737 0.55799 0.59233 0.0
C562 C 0.98024 0.55228 0.65614 0.0
C563 C 0.01743 0.55087 0.57879 0.0
C564 C 0.9364 0.57882 0.71262 0.0
C565 C 0.94886 0.57402 0.70098 0.0
C566 C 0.98339 0.5862 0.64125 0.0
C567 C 0.00622 0.5581 0.62276 0.0
C568 C 0.99412 0.56409 0.63672 0.0
C569 C 0.9559 0.57949 0.67264 0.0
C570 C 0.96918 0.57425 0.66032 0.0
H571 H 0.03341 0.53959 0.63915 0.0
H572 H 0.0152 0.55159 0.66301 0.0
H573 H 0.00626 0.59044 0.61448 0.0
H574 H 0.93383 0.60337 0.65543 0.0
H575 H 0.95497 0.59425 0.6343 0.0
C576 C 0.46072 0.95086 0.00392 0.0
C577 C 0.47315 0.96655 0.01996 0.0
C578 C 0.44354 0.93798 0.01574 0.0
C579 C 0.40411 0.91891 0.04123 0.0
H580 H 0.40324 0.9071 0.123 0.0
C581 C 0.33813 0.88674 0.11252 0.0
C582 C 0.33688 0.87538 0.13603 0.0
C583 C 0.35383 0.89481 0.09471 0.0
C584 C 0.4032 0.90995 0.10003 0.0
H585 H 0.47708 0.98119 0.0607 0.0
H586 H 0.44725 0.95894 0.08105 0.0
H587 H 0.43259 0.92733 0.09936 0.0
H588 H 0.35071 0.86263 0.15792 0.0
H589 H 0.37769 0.87615 0.12631 0.0
H590 H 0.37461 0.90149 0.04206 0.0
C591 C 0.45084 0.95639 0.05957 0.0
C592 C 0.42004 0.92179 0.08657 0.0
C593 C 0.46792 0.96922 0.04779 0.0
C594 C 0.3511 0.87121 0.13997 0.0
C595 C 0.36673 0.87918 0.12207 0.0
C596 C 0.38719 0.90702 0.05475 0.0
C597 C 0.43854 0.94052 0.04386 0.0
C598 C 0.42068 0.9267 0.05719 0.0
C599 C 0.36859 0.89161 0.09992 0.0
C600 C 0.38652 0.90263 0.08444 0.0
H601 H 0.46433 0.9484 0.9824 0.0
H602 H 0.43437 0.92585 0.00316 0.0
H603 H 0.40416 0.92247 0.01856 0.0
H604 H 0.32729 0.88998 0.10855 0.0
H605 H 0.3548 0.90433 0.0779 0.0
C606 C 0.50935 0.45125 0.54434 0.0
C607 C 0.52136 0.45872 0.52042 0.0
C608 C 0.50282 0.43301 0.55299 0.0
C609 C 0.51383 0.396 0.55246 0.0
H610 H 0.46227 0.36574 0.57447 0.0
C611 C 0.48649 0.3351 0.63332 0.0
C612 C 0.46864 0.31987 0.62923 0.0
C613 C 0.49357 0.35015 0.61425 0.0
C614 C 0.47664 0.37385 0.56799 0.0
H615 H 0.53602 0.45289 0.48688 0.0
H616 H 0.52475 0.42091 0.50242 0.0
H617 H 0.47291 0.39584 0.55208 0.0
H618 H 0.44487 0.30789 0.60051 0.0
H619 H 0.45719 0.33427 0.56735 0.0
H620 H 0.51763 0.37415 0.56918 0.0
C621 C 0.52037 0.42926 0.5143 0.0
C622 C 0.48277 0.39118 0.55544 0.0
C623 C 0.52676 0.44752 0.50537 0.0
C624 C 0.45852 0.31956 0.60459 0.0
C625 C 0.46557 0.33465 0.58559 0.0
C626 C 0.50772 0.37868 0.56526 0.0
C627 C 0.50826 0.42182 0.53812 0.0
C628 C 0.50149 0.4026 0.54814 0.0
C629 C 0.48294 0.35034 0.59072 0.0
C630 C 0.48912 0.36757 0.57367 0.0
H631 H 0.50488 0.45946 0.5564 0.0
H632 H 0.49371 0.42775 0.57168 0.0
H633 H 0.52836 0.40455 0.54711 0.0
H634 H 0.49459 0.33594 0.65223 0.0
H635 H 0.50692 0.3621 0.61899 0.0
C636 C 0.5302 0.94821 0.50893 0.0
C637 C 0.53815 0.96641 0.49841 0.0
C638 C 0.53698 0.93671 0.49979 0.0
C639 C 0.57783 0.93722 0.46954 0.0
H640 H 0.54353 0.89173 0.43025 0.0
C641 C 0.60212 0.90334 0.38548 0.0
C642 C 0.59197 0.88416 0.38098 0.0
C643 C 0.59608 0.91176 0.40547 0.0
C644 C 0.55329 0.90413 0.44175 0.0
H645 H 0.55978 0.98706 0.47096 0.0
H646 H 0.57182 0.96716 0.45562 0.0
H647 H 0.53187 0.90947 0.45563 0.0
H648 H 0.56802 0.8586 0.39493 0.0
H649 H 0.55765 0.87323 0.43053 0.0
H650 H 0.59929 0.93207 0.45571 0.0
C651 C 0.56028 0.96173 0.47069 0.0
C652 C 0.54657 0.91431 0.4562 0.0
C653 C 0.5533 0.97306 0.47931 0.0
C654 C 0.57603 0.87345 0.39779 0.0
C655 C 0.57006 0.88186 0.41807 0.0
C656 C 0.58453 0.92692 0.4555 0.0
C657 C 0.55208 0.9434 0.48058 0.0
C658 C 0.55884 0.93122 0.46944 0.0
C659 C 0.5798 0.90118 0.42172 0.0
C660 C 0.57242 0.91055 0.44056 0.0
H661 H 0.51848 0.94272 0.52363 0.0
H662 H 0.53043 0.9226 0.50768 0.0
H663 H 0.58754 0.95012 0.47993 0.0
H664 H 0.61427 0.91202 0.3725 0.0
H665 H 0.60377 0.92669 0.40713 0.0
C666 C 0.58247 0.52534 0.9587 0.0
C667 C 0.577 0.51682 0.9861 0.0
C668 C 0.59977 0.53013 0.94724 0.0
C669 C 0.64658 0.54016 0.96681 0.0
H670 H 0.64938 0.53185 0.88444 0.0
C671 C 0.7142 0.57692 0.89938 0.0
C672 C 0.71629 0.56744 0.8757 0.0
C673 C 0.69798 0.56874 0.91601 0.0
C674 C 0.64888 0.53403 0.90757 0.0
H675 H 0.58558 0.50684 0.02314 0.0
H676 H 0.61594 0.51521 0.00293 0.0
H677 H 0.61942 0.52129 0.90699 0.0
H678 H 0.70324 0.54146 0.85205 0.0
H679 H 0.67535 0.52706 0.88158 0.0
H680 H 0.67616 0.55296 0.96725 0.0
C681 C 0.60678 0.51823 0.99045 0.0
C682 C 0.63169 0.52819 0.92041 0.0
C683 C 0.58937 0.51338 0.00194 0.0
C684 C 0.70224 0.54917 0.87021 0.0
C685 C 0.68609 0.54097 0.88692 0.0
C686 C 0.66385 0.54604 0.95391 0.0
C687 C 0.61209 0.52653 0.96285 0.0
C688 C 0.63034 0.53146 0.95004 0.0
C689 C 0.68351 0.55086 0.90941 0.0
C690 C 0.66522 0.54325 0.92403 0.0
H691 H 0.57337 0.5283 0.94594 0.0
H692 H 0.60357 0.53682 0.92616 0.0
H693 H 0.64599 0.54294 0.98968 0.0
H694 H 0.72487 0.5909 0.90451 0.0
H695 H 0.69645 0.57679 0.9331 0.0
C696 C 0.08258 0.57431 0.49243 0.0
C697 C 0.06554 0.55971 0.48265 0.0
C698 C 0.09137 0.59113 0.47754 0.0
C699 C 0.08184 0.61992 0.42834 0.0
H700 H 0.1348 0.64564 0.41473 0.0
C701 C 0.11812 0.68298 0.35244 0.0
C702 C 0.13589 0.69738 0.35979 0.0
C703 C 0.1095 0.66677 0.36884 0.0
C704 C 0.12004 0.63879 0.41877 0.0
H705 H 0.04454 0.55125 0.44923 0.0
H706 H 0.05996 0.58071 0.42313 0.0
H707 H 0.11997 0.61578 0.43941 0.0
H708 H 0.15835 0.70618 0.39065 0.0
H709 H 0.14316 0.67782 0.41965 0.0
H710 H 0.08187 0.64293 0.40787 0.0
C711 C 0.0664 0.57912 0.44251 0.0
C712 C 0.11154 0.62164 0.43279 0.0
C713 C 0.05764 0.56222 0.45733 0.0
C714 C 0.1447 0.6953 0.38434 0.0
C715 C 0.13603 0.67904 0.40086 0.0
C716 C 0.09034 0.63711 0.41445 0.0
C717 C 0.0833 0.5938 0.4526 0.0
C718 C 0.09233 0.61197 0.43758 0.0
C719 C 0.1184 0.66449 0.39307 0.0
C720 C 0.10953 0.6467 0.40932 0.0
H721 H 0.08907 0.57286 0.51186 0.0
H722 H 0.10429 0.60221 0.486 0.0
H723 H 0.06706 0.61296 0.4322 0.0
H724 H 0.11111 0.6839 0.33325 0.0
H725 H 0.0961 0.65574 0.36186 0.0
C726 C 0.49795 0.0416 0.96991 0.0
C727 C 0.51266 0.0479 0.98976 0.0
C728 C 0.49167 0.05333 0.96029 0.0
C729 C 0.50652 0.10111 0.9453 0.0
H730 H 0.45401 0.08431 0.94374 0.0
C731 C 0.47834 0.14382 0.88846 0.0
C732 C 0.46231 0.13358 0.87166 0.0
C733 C 0.48421 0.13488 0.90788 0.0
C734 C 0.46871 0.08919 0.94379 0.0
H735 H 0.53234 0.07146 0.01511 0.0
H736 H 0.52162 0.09225 0.99746 0.0
H737 H 0.46496 0.06565 0.96807 0.0
H738 H 0.43994 0.10596 0.86202 0.0
H739 H 0.45024 0.09042 0.89518 0.0
H740 H 0.51028 0.1241 0.91963 0.0
C741 C 0.51488 0.07811 0.98973 0.0
C742 C 0.47496 0.07853 0.95789 0.0
C743 C 0.52095 0.06622 -0.00014 0.0
C744 C 0.45212 0.1143 0.87508 0.0
C745 C 0.45805 0.10537 0.89422 0.0
C746 C 0.50025 0.11166 0.93079 0.0
C747 C 0.50015 0.07172 0.96991 0.0
C748 C 0.49387 0.08419 0.95825 0.0
C749 C 0.47427 0.11549 0.91069 0.0
C750 C 0.4812 0.1056 0.92925 0.0
H751 H 0.49123 0.02754 0.96182 0.0
H752 H 0.48041 0.04812 0.94477 0.0
H753 H 0.52117 0.1057 0.94512 0.0
H754 H 0.48641 0.15872 0.8864 0.0
H755 H 0.49662 0.14316 0.92048 0.0
C756 C 0.468 0.49895 0.51691 0.0
C757 C 0.48137 0.49942 0.49774 0.0
C758 C 0.44967 0.49187 0.50772 0.0
C759 C 0.41725 0.46128 0.45126 0.0
H760 H 0.38894 0.48526 0.46933 0.0
C761 C 0.35266 0.46503 0.39883 0.0
C762 C 0.34194 0.44651 0.38985 0.0
C763 C 0.36743 0.47034 0.41805 0.0
C764 C 0.39667 0.4784 0.46409 0.0
H765 H 0.48612 0.49344 0.45363 0.0
H766 H 0.45453 0.48152 0.43764 0.0
H767 H 0.41988 0.49735 0.48987 0.0
H768 H 0.33758 0.41882 0.39616 0.0
H769 H 0.36257 0.42791 0.43067 0.0
H770 H 0.39476 0.443 0.4243 0.0
C771 C 0.45797 0.48613 0.45995 0.0
C772 C 0.41432 0.48523 0.4761 0.0
C773 C 0.47616 0.4931 0.4691 0.0
C774 C 0.34541 0.43321 0.40251 0.0
C775 C 0.36 0.43848 0.42204 0.0
C776 C 0.39975 0.45455 0.43919 0.0
C777 C 0.44443 0.48515 0.47922 0.0
C778 C 0.42497 0.47698 0.46922 0.0
C779 C 0.3717 0.4572 0.42907 0.0
C780 C 0.38933 0.4632 0.44498 0.0
H781 H 0.47159 0.50372 0.53912 0.0
H782 H 0.43954 0.49127 0.52308 0.0
H783 H 0.42494 0.45437 0.44598 0.0
H784 H 0.35012 0.4756 0.39014 0.0
H785 H 0.37611 0.48489 0.42291 0.0
C786 C 0.97792 0.43053 0.02311 0.0
C787 C 0.97018 0.44165 0.02923 0.0
C788 C 0.96732 0.41332 0.00994 0.0
C789 C 0.91923 0.37901 0.98484 0.0
H790 H 0.94666 0.36694 0.92943 0.0
C791 C 0.8893 0.33053 0.8839 0.0
C792 C 0.89535 0.31768 0.87984 0.0
C793 C 0.89637 0.34339 0.90659 0.0
C794 C 0.93884 0.37002 0.94506 0.0
H795 H 0.94537 0.44363 0.0272 0.0
H796 H 0.92699 0.414 0.00255 0.0
H797 H 0.9631 0.39379 0.9604 0.0
H798 H 0.91254 0.30746 0.89807 0.0
H799 H 0.9254 0.33043 0.93679 0.0
H800 H 0.89481 0.35563 0.96754 0.0
C801 C 0.941 0.41807 0.00886 0.0
C802 C 0.94827 0.38537 0.96309 0.0
C803 C 0.95151 0.43511 0.02289 0.0
C804 C 0.90792 0.31744 0.89997 0.0
C805 C 0.91519 0.33048 0.92231 0.0
C806 C 0.90975 0.36382 0.96625 0.0
C807 C 0.94892 0.40713 0.00151 0.0
C808 C 0.93865 0.39014 0.98331 0.0
C809 C 0.90978 0.34381 0.92542 0.0
C810 C 0.91952 0.35922 0.94624 0.0
H811 H 0.99232 0.43534 0.02803 0.0
H812 H 0.9738 0.4051 0.0057 0.0
H813 H 0.91131 0.382 0.00033 0.0
H814 H 0.87981 0.33132 0.86873 0.0
H815 H 0.89211 0.35365 0.90844 0.0
C816 C 0.97479 0.51793 0.99324 0.0
C817 C 0.99051 0.51804 0.98197 0.0
C818 C 0.96638 0.52616 0.97796 0.0
C819 C 0.95875 0.55456 0.95048 0.0
H820 H 0.95062 0.54748 0.86733 0.0
C821 C 0.93249 0.5946 0.88102 0.0
C822 C 0.91938 0.58453 0.85939 0.0
C823 C 0.94113 0.58659 0.89645 0.0
C824 C 0.95269 0.54949 0.8906 0.0
H825 H 0.00957 0.52667 0.94552 0.0
H826 H 0.99483 0.54115 0.91874 0.0
H827 H 0.96586 0.53314 0.89284 0.0
H828 H 0.90502 0.55811 0.83714 0.0
H829 H 0.91978 0.54406 0.86446 0.0
H830 H 0.94529 0.57063 0.94835 0.0
C831 C 0.98899 0.53457 0.9394 0.0
C832 C 0.96161 0.54146 0.90513 0.0
C833 C 0.99746 0.52633 0.95477 0.0
C834 C 0.91485 0.56617 0.85395 0.0
C835 C 0.92352 0.5582 0.86929 0.0
C836 C 0.94988 0.56264 0.93594 0.0
C837 C 0.97346 0.53472 0.951 0.0
C838 C 0.96461 0.54379 0.93527 0.0
C839 C 0.93692 0.56839 0.89046 0.0
C840 C 0.94664 0.56009 0.90587 0.0
H841 H 0.96899 0.51159 0.01406 0.0
H842 H 0.95425 0.52574 0.98724 0.0
H843 H 0.96106 0.5568 0.97367 0.0
H844 H 0.9362 0.60874 0.88581 0.0
H845 H 0.95147 0.59483 0.91253 0.0
C846 C 0.46753 0.96479 0.45544 0.0
C847 C 0.48066 0.98297 0.44743 0.0
C848 C 0.45142 0.95466 0.43919 0.0
C849 C 0.41973 0.95956 0.39041 0.0
H850 H 0.40429 0.90909 0.36831 0.0
C851 C 0.35773 0.91735 0.31378 0.0
C852 C 0.34685 0.89821 0.31846 0.0
C853 C 0.37389 0.92791 0.32982 0.0
C854 C 0.4082 0.92305 0.37469 0.0
H855 H 0.48717 0.0048 0.41609 0.0
H856 H 0.45875 0.98708 0.38782 0.0
H857 H 0.43299 0.92713 0.39516 0.0
H858 H 0.34395 0.87521 0.34424 0.0
H859 H 0.37181 0.89369 0.37297 0.0
H860 H 0.39477 0.95543 0.37063 0.0
C861 C 0.46104 0.98073 0.40669 0.0
C862 C 0.42472 0.93342 0.38992 0.0
C863 C 0.47733 0.99081 0.42276 0.0
C864 C 0.35218 0.88992 0.34002 0.0
C865 C 0.36822 0.90051 0.35632 0.0
C866 C 0.40307 0.94913 0.37546 0.0
C867 C 0.44796 0.96254 0.41475 0.0
C868 C 0.43065 0.95176 0.39794 0.0
C869 C 0.37944 0.91961 0.35115 0.0
C870 C 0.39707 0.93072 0.3674 0.0
H871 H 0.46969 0.95832 0.4743 0.0
H872 H 0.4415 0.94073 0.44602 0.0
H873 H 0.42388 0.97362 0.39664 0.0
H874 H 0.3541 0.92406 0.29698 0.0
H875 H 0.38228 0.94249 0.32485 0.0
C876 C 0.50581 0.45081 0.95064 0.0
C877 C 0.50108 0.46431 0.94366 0.0
C878 C 0.49942 0.43491 0.93375 0.0
C879 C 0.4628 0.40408 0.88441 0.0
H880 H 0.4983 0.3896 0.86048 0.0
C881 C 0.44396 0.34215 0.80723 0.0
C882 C 0.4528 0.33182 0.81191 0.0
C883 C 0.44904 0.3582 0.82333 0.0
C884 C 0.48812 0.39324 0.86734 0.0
H885 H 0.4857 0.47157 0.91367 0.0
H886 H 0.47425 0.44344 0.88422 0.0
H887 H 0.50873 0.41802 0.88789 0.0
H888 H 0.47317 0.32958 0.83798 0.0
H889 H 0.48165 0.3572 0.86672 0.0
H890 H 0.44208 0.37907 0.86448 0.0
C891 C 0.483 0.44534 0.90279 0.0
C892 C 0.49415 0.40961 0.88288 0.0
C893 C 0.48961 0.46144 0.91953 0.0
C894 C 0.46631 0.33744 0.8337 0.0
C895 C 0.47123 0.35334 0.85 0.0
C896 C 0.4567 0.38755 0.86908 0.0
C897 C 0.48799 0.43201 0.90965 0.0
C898 C 0.48155 0.41513 0.89178 0.0
C899 C 0.46296 0.36416 0.84462 0.0
C900 C 0.46928 0.38185 0.86056 0.0
H901 H 0.51462 0.45257 0.96905 0.0
H902 H 0.50332 0.42478 0.93972 0.0
H903 H 0.45278 0.40797 0.89123 0.0
H904 H 0.43363 0.33823 0.79033 0.0
H905 H 0.44249 0.36626 0.81836 0.0
C906 C 0.1022 0.50949 0.53713 0.0
C907 C 0.08368 0.50179 0.52827 0.0
C908 C 0.11343 0.50305 0.52526 0.0
C909 C 0.11122 0.4633 0.48624 0.0
H910 H 0.1566 0.49928 0.44817 0.0
C911 C 0.13975 0.44499 0.38702 0.0
C912 C 0.15893 0.45241 0.38373 0.0
C913 C 0.13268 0.45054 0.40989 0.0
C914 C 0.14418 0.48907 0.45919 0.0
H915 H 0.0622 0.48085 0.50106 0.0
H916 H 0.08156 0.46957 0.48083 0.0
H917 H 0.14032 0.50981 0.48027 0.0
H918 H 0.18572 0.47152 0.40226 0.0
H919 H 0.17327 0.48148 0.44218 0.0
H920 H 0.11462 0.44259 0.46446 0.0
C921 C 0.0875 0.48056 0.49679 0.0
C922 C 0.13487 0.4951 0.47757 0.0
C923 C 0.07644 0.48715 0.50822 0.0
C924 C 0.17088 0.46563 0.404 0.0
C925 C 0.16377 0.4713 0.4269 0.0
C926 C 0.1205 0.45729 0.46799 0.0
C927 C 0.10616 0.48856 0.50487 0.0
C928 C 0.11794 0.48227 0.49039 0.0
C929 C 0.14457 0.46377 0.43008 0.0
C930 C 0.1367 0.47012 0.45338 0.0
H931 H 0.10814 0.52083 0.5525 0.0
H932 H 0.12778 0.50944 0.53185 0.0
H933 H 0.09835 0.45311 0.49626 0.0
H934 H 0.13012 0.43517 0.37145 0.0
H935 H 0.11785 0.44482 0.41127 0.0
C936 C 0.56933 0.02637 0.9151 0.0
C937 C 0.56931 0.02648 0.94561 0.0
C938 C 0.58596 0.03604 0.89968 0.0
C939 C 0.63517 0.07317 0.90979 0.0
H940 H 0.64105 0.0569 0.83355 0.0
C941 C 0.70423 0.10703 0.84472 0.0
C942 C 0.70263 0.11322 0.81712 0.0
C943 C 0.68834 0.09555 0.86095 0.0
C944 C 0.63955 0.06154 0.85486 0.0
H945 H 0.58664 0.03604 0.98399 0.0
H946 H 0.61563 0.05202 0.95732 0.0
H947 H 0.61267 0.03803 0.86108 0.0
H948 H 0.68358 0.1122 0.78432 0.0
H949 H 0.65572 0.09166 0.81235 0.0
H950 H 0.66238 0.09644 0.90361 0.0
C951 C 0.60287 0.04523 0.94507 0.0
C952 C 0.62324 0.05084 0.87059 0.0
C953 C 0.58624 0.03593 0.96043 0.0
C954 C 0.68503 0.10756 0.80566 0.0
C955 C 0.66918 0.0958 0.82156 0.0
C956 C 0.65161 0.08364 0.89431 0.0
C957 C 0.60298 0.0457 0.91446 0.0
C958 C 0.62071 0.05661 0.89815 0.0
C959 C 0.6707 0.08981 0.84942 0.0
C960 C 0.65384 0.07803 0.86659 0.0
H961 H 0.55645 0.01928 0.90315 0.0
H962 H 0.58536 0.03629 0.87618 0.0
H963 H 0.63369 0.07836 0.93059 0.0
H964 H 0.71774 0.11127 0.85383 0.0
H965 H 0.6898 0.09105 0.88239 0.0
C966 C 0.55797 0.55709 0.42298 0.0
C967 C 0.55654 0.55673 0.45347 0.0
C968 C 0.56317 0.57343 0.4076 0.0
C969 C 0.5881 0.62374 0.41408 0.0
H970 H 0.55698 0.62262 0.35059 0.0
C971 C 0.60892 0.68349 0.3316 0.0
C972 C 0.59562 0.68877 0.32589 0.0
C973 C 0.60445 0.66789 0.34847 0.0
C974 C 0.56574 0.62312 0.36834 0.0
H975 H 0.55993 0.5733 0.49178 0.0
H976 H 0.56943 0.6019 0.4649 0.0
H977 H 0.54903 0.59408 0.37688 0.0
H978 H 0.56729 0.68189 0.33455 0.0
H979 H 0.5594 0.65427 0.36313 0.0
H980 H 0.60495 0.65274 0.40526 0.0
C981 C 0.56637 0.58951 0.45295 0.0
C982 C 0.56129 0.6068 0.38317 0.0
C983 C 0.56086 0.57313 0.46829 0.0
C984 C 0.57781 0.67812 0.33794 0.0
C985 C 0.57327 0.66233 0.35442 0.0
C986 C 0.59273 0.64 0.39891 0.0
C987 C 0.56736 0.58977 0.42246 0.0
C988 C 0.57239 0.60698 0.40625 0.0
C989 C 0.58652 0.65701 0.35966 0.0
C990 C 0.58154 0.63985 0.376 0.0
H991 H 0.55467 0.54466 0.41097 0.0
H992 H 0.56395 0.57332 0.38408 0.0
H993 H 0.5969 0.62421 0.43174 0.0
H994 H 0.62265 0.69104 0.32227 0.0
H995 H 0.61487 0.66398 0.35197 0.0
C996 C 0.4984 0.04117 0.54951 0.0
C997 C 0.49775 0.0255 0.56205 0.0
C998 C 0.49187 0.05122 0.56475 0.0
C999 C 0.48309 0.06109 0.6391 0.0
H1000 H 0.45648 0.08183 0.59989 0.0
C1001 C 0.47271 0.11775 0.69157 0.0
C1002 C 0.45522 0.1162 0.68892 0.0
C1003 C 0.47709 0.1062 0.67569 0.0
C1004 C 0.46376 0.07602 0.61121 0.0
H1005 H 0.48939 0.00791 0.60028 0.0
H1006 H 0.47789 0.02545 0.62686 0.0
H1007 H 0.46475 0.06174 0.57317 0.0
H1008 H 0.42873 0.10154 0.66699 0.0
H1009 H 0.43633 0.0812 0.63942 0.0
H1010 H 0.482 0.07524 0.67718 0.0
C1011 C 0.48365 0.03005 0.60532 0.0
C1012 C 0.46866 0.06465 0.59584 0.0
C1013 C 0.49015 0.01995 0.59003 0.0
C1014 C 0.44229 0.10299 0.66966 0.0
C1015 C 0.44669 0.09145 0.6537 0.0
C1016 C 0.47824 0.07248 0.65444 0.0
C1017 C 0.48455 0.04587 0.59291 0.0
C1018 C 0.4785 0.05717 0.60956 0.0
C1019 C 0.46408 0.0928 0.65678 0.0
C1020 C 0.46866 0.08021 0.64061 0.0
H1021 H 0.50417 0.04586 0.528 0.0
H1022 H 0.493 0.06348 0.55471 0.0
H1023 H 0.49081 0.0557 0.65025 0.0
H1024 H 0.48292 0.1276 0.70648 0.0
H1025 H 0.4907 0.10778 0.67826 0.0
C1026 C 0.46683 0.48548 0.05173 0.0
C1027 C 0.48148 0.48328 0.062 0.0
C1028 C 0.45068 0.47921 0.06809 0.0
C1029 C 0.42342 0.44712 0.12713 0.0
H1030 H 0.40161 0.4785 0.13337 0.0
C1031 C 0.36548 0.43297 0.20932 0.0
C1032 C 0.35128 0.43629 0.20047 0.0
C1033 C 0.38085 0.43797 0.19154 0.0
C1034 C 0.40736 0.46945 0.13152 0.0
H1035 H 0.49055 0.47261 0.09748 0.0
H1036 H 0.46231 0.46174 0.12617 0.0
H1037 H 0.42955 0.4887 0.10446 0.0
H1038 H 0.34194 0.44713 0.16565 0.0
H1039 H 0.36879 0.4558 0.13446 0.0
H1040 H 0.40125 0.42789 0.15428 0.0
C1041 C 0.46331 0.46819 0.1053 0.0
C1042 C 0.4234 0.47531 0.11499 0.0
C1043 C 0.47952 0.47451 0.08893 0.0
C1044 C 0.35274 0.44456 0.17323 0.0
C1045 C 0.36813 0.44956 0.1554 0.0
C1046 C 0.40735 0.44124 0.14364 0.0
C1047 C 0.44874 0.47056 0.09511 0.0
C1048 C 0.43164 0.46424 0.11265 0.0
C1049 C 0.38242 0.44642 0.16444 0.0
C1050 C 0.39916 0.45237 0.14611 0.0
H1051 H 0.46782 0.4921 0.03104 0.0
H1052 H 0.43962 0.48101 0.05942 0.0
H1053 H 0.42927 0.43815 0.12541 0.0
H1054 H 0.36499 0.42696 0.23041 0.0
H1055 H 0.39174 0.43565 0.19942 0.0
C1056 C 0.00438 0.46231 0.59186 0.0
C1057 C 0.00361 0.46552 0.56204 0.0
C1058 C 0.99263 0.44499 0.60394 0.0
C1059 C 0.94939 0.40062 0.59143 0.0
H1060 H 0.96982 0.38421 0.65253 0.0
C1061 C 0.92931 0.33398 0.67281 0.0
C1062 C 0.9113 0.32956 0.68096 0.0
C1063 C 0.93992 0.34894 0.65443 0.0
C1064 C 0.96389 0.38834 0.63519 0.0
H1065 H 0.98968 0.45309 0.52152 0.0
H1066 H 0.96931 0.42254 0.54257 0.0
H1067 H 0.98955 0.41312 0.62773 0.0
H1068 H 0.89004 0.33693 0.67455 0.0
H1069 H 0.90886 0.36355 0.64378 0.0
H1070 H 0.92378 0.3755 0.59853 0.0
C1071 C 0.97887 0.43357 0.55669 0.0
C1072 C 0.97518 0.40515 0.62126 0.0
C1073 C 0.99057 0.45104 0.54459 0.0
C1074 C 0.90397 0.34012 0.66928 0.0
C1075 C 0.91469 0.35525 0.6512 0.0
C1076 C 0.93808 0.38365 0.60524 0.0
C1077 C 0.97991 0.4303 0.58649 0.0
C1078 C 0.96802 0.4117 0.5996 0.0
C1079 C 0.93296 0.3601 0.64404 0.0
C1080 C 0.94514 0.37741 0.62759 0.0
H1081 H 0.01409 0.47322 0.60602 0.0
H1082 H 0.9935 0.44317 0.62709 0.0
H1083 H 0.94339 0.40525 0.57492 0.0
H1084 H 0.93557 0.32636 0.68148 0.0
H1085 H 0.95377 0.35198 0.6489 0.0
C1086 C 0.54577 0.96964 0.05045 0.0
C1087 C 0.54817 0.98653 0.06085 0.0
C1088 C 0.55172 0.9595 0.06682 0.0
C1089 C 0.56366 0.95358 0.14188 0.0
H1090 H 0.58633 0.92837 0.10388 0.0
C1091 C 0.59784 0.91946 0.2063 0.0
C1092 C 0.59438 0.90198 0.19697 0.0
C1093 C 0.59232 0.92974 0.18943 0.0
C1094 C 0.57984 0.93517 0.11476 0.0
H1095 H 0.55894 0.00613 0.09648 0.0
H1096 H 0.56957 0.98856 0.12487 0.0
H1097 H 0.57688 0.94673 0.07497 0.0
H1098 H 0.58253 0.88166 0.16249 0.0
H1099 H 0.57273 0.89961 0.13302 0.0
H1100 H 0.5667 0.94208 0.18169 0.0
C1101 C 0.56281 0.98301 0.10424 0.0
C1102 C 0.57443 0.9457 0.09821 0.0
C1103 C 0.55682 0.99314 0.08789 0.0
C1104 C 0.5853 0.89503 0.17032 0.0
C1105 C 0.57984 0.90538 0.15334 0.0
C1106 C 0.56912 0.9431 0.15843 0.0
C1107 C 0.56026 0.96603 0.09395 0.0
C1108 C 0.56626 0.95502 0.11157 0.0
C1109 C 0.58324 0.92283 0.16279 0.0
C1110 C 0.57728 0.93379 0.14507 0.0
H1111 H 0.5391 0.96409 0.02976 0.0
H1112 H 0.5493 0.94637 0.05841 0.0
H1113 H 0.55711 0.96029 0.15282 0.0
H1114 H 0.60458 0.9251 0.22691 0.0
H1115 H 0.59531 0.9432 0.19718 0.0
C1116 C 0.58245 0.54501 0.59127 0.0
C1117 C 0.57892 0.53414 0.56617 0.0
C1118 C 0.59911 0.55151 0.60638 0.0
C1119 C 0.63645 0.54152 0.61969 0.0
H1120 H 0.66504 0.59301 0.64245 0.0
C1121 C 0.70858 0.57101 0.67171 0.0
C1122 C 0.71302 0.58378 0.69443 0.0
C1123 C 0.6928 0.56567 0.65477 0.0
C1124 C 0.65713 0.57854 0.6366 0.0
H1125 H 0.59003 0.52146 0.5374 0.0
H1126 H 0.61892 0.53261 0.564 0.0
H1127 H 0.63593 0.58201 0.61644 0.0
H1128 H 0.70443 0.60091 0.71732 0.0
H1129 H 0.67675 0.59135 0.68832 0.0
H1130 H 0.65727 0.53781 0.64039 0.0
C1131 C 0.60884 0.53612 0.57192 0.0
C1132 C 0.64048 0.57227 0.62165 0.0
C1133 C 0.59233 0.52982 0.55663 0.0
C1134 C 0.70152 0.59127 0.69963 0.0
C1135 C 0.68565 0.58579 0.68293 0.0
C1136 C 0.65299 0.54772 0.63492 0.0
C1137 C 0.61242 0.54706 0.5969 0.0
C1138 C 0.62999 0.55371 0.61302 0.0
C1139 C 0.68098 0.5728 0.66042 0.0
C1140 C 0.66357 0.56632 0.64357 0.0
H1141 H 0.57242 0.54859 0.59913 0.0
H1142 H 0.60148 0.55982 0.62571 0.0
H1143 H 0.62853 0.52708 0.61358 0.0
H1144 H 0.71729 0.56513 0.66709 0.0
H1145 H 0.68986 0.55591 0.63727 0.0
C1146 C 0.03889 0.55668 0.07835 0.0
C1147 C 0.02826 0.54063 0.09495 0.0
C1148 C 0.04889 0.57388 0.0918 0.0
C1149 C 0.07291 0.59504 0.1584 0.0
H1150 H 0.07243 0.63864 0.13062 0.0
C1151 C 0.11698 0.66581 0.21329 0.0
C1152 C 0.1249 0.68168 0.19568 0.0
C1153 C 0.10411 0.64866 0.20186 0.0
C1154 C 0.07295 0.62668 0.1384 0.0
H1155 H 0.01948 0.52998 0.13858 0.0
H1156 H 0.03748 0.56021 0.16232 0.0
H1157 H 0.05132 0.60849 0.10947 0.0
H1158 H 0.12565 0.69216 0.15237 0.0
H1159 H 0.10368 0.66201 0.13184 0.0
H1160 H 0.09504 0.61309 0.18632 0.0
C1161 C 0.03786 0.55937 0.13884 0.0
C1162 C 0.06073 0.6094 0.12644 0.0
C1163 C 0.02753 0.54215 0.12529 0.0
C1164 C 0.1197 0.6801 0.16636 0.0
C1165 C 0.10701 0.66284 0.15474 0.0
C1166 C 0.08533 0.61233 0.17004 0.0
C1167 C 0.04872 0.57536 0.12218 0.0
C1168 C 0.06066 0.59345 0.13626 0.0
C1169 C 0.09902 0.64688 0.17237 0.0
C1170 C 0.08557 0.62842 0.16015 0.0
H1171 H 0.03963 0.55595 0.0549 0.0
H1172 H 0.05725 0.58596 0.07849 0.0
H1173 H 0.07333 0.58298 0.16601 0.0
H1174 H 0.12048 0.66674 0.23615 0.0
H1175 H 0.09797 0.63685 0.21633 0.0
loop_
_geom_bond_atom_site_label_1
_geom_bond_atom_site_label_2
_geom_bond_distance
_geom_bond_site_symmetry_2
_ccdc_geom_bond_type
C0 O2 1.247 . S
C0 O4 1.258 . S
C1 O8 1.247 . S
C1 O9 1.258 . S
O2 C0 1.247 . S
O2 Zn3 2.028 1_455 S
Zn3 O2 2.028 1_655 S
Zn3 O7 2.035 . S
Zn3 O9 2.035 . S
Zn3 O10 2.028 1_655 S
O4 C0 1.258 . S
O4 Zn5 2.035 . S
Zn5 O4 2.035 . S
Zn5 O6 2.028 1_455 S
Zn5 O8 2.028 1_455 S
Zn5 O11 2.035 . S
O6 Zn5 2.028 1_655 S
O6 C12 1.247 . S
O7 Zn3 2.035 . S
O7 C12 1.258 . S
O8 C1 1.247 . S
O8 Zn5 2.028 1_655 S
O9 C1 1.258 . S
O9 Zn3 2.035 . S
O10 Zn3 2.028 1_455 S
O10 C13 1.247 . S
O11 Zn5 2.035 . S
O11 C13 1.258 . S
C12 O6 1.247 . S
C12 O7 1.258 . S
C13 O10 1.247 . S
C13 O11 1.258 . S
C14 O16 1.247 . S
C14 O18 1.258 . S
C15 O22 1.242 1_565 S
C15 O23 1.258 . S
O16 C14 1.247 . S
O16 Zn17 2.028 1_545 S
Zn17 O16 2.028 1_565 S
Zn17 O21 2.035 . S
Zn17 O23 2.035 . S
Zn17 O24 2.028 1_565 S
O18 C14 1.258 . S
O18 Zn19 2.035 . S
Zn19 O18 2.035 . S
Zn19 O20 2.032 . S
Zn19 O22 2.033 . S
Zn19 O25 2.035 . S
O20 Zn19 2.032 . S
O20 C26 1.237 1_545 S
O21 Zn17 2.035 . S
O21 C26 1.258 . S
O22 C15 1.242 1_545 S
O22 Zn19 2.033 . S
O23 C15 1.258 . S
O23 Zn17 2.035 . S
O24 Zn17 2.028 1_545 S
O24 C27 1.247 . S
O25 Zn19 2.035 . S
O25 C27 1.258 . S
C26 O20 1.237 1_565 S
C26 O21 1.258 . S
C27 O24 1.247 . S
C27 O25 1.258 . S
C28 O30 1.247 . S
C28 O32 1.258 1_556 S
C29 O36 1.247 . S
C29 O37 1.258 . S
O30 C28 1.247 . S
O30 Zn31 2.028 . S
Zn31 O30 2.028 . S
Zn31 O35 2.035 1_556 S
Zn31 O37 2.035 1_556 S
Zn31 O38 2.028 . S
O32 C28 1.258 1_554 S
O32 Zn33 2.035 . S
Zn33 O32 2.035 . S
Zn33 O34 2.028 . S
Zn33 O36 2.028 . S
Zn33 O39 2.035 . S
O34 Zn33 2.028 . S
O34 C40 1.247 . S
O35 Zn31 2.035 1_554 S
O35 C40 1.258 . S
O36 C29 1.247 . S
O36 Zn33 2.028 . S
O37 C29 1.258 . S
O37 Zn31 2.035 1_554 S
O38 Zn31 2.028 . S
O38 C41 1.247 . S
O39 Zn33 2.035 . S
O39 C41 1.258 1_554 S
C40 O34 1.247 . S
C40 O35 1.258 . S
C41 O38 1.247 . S
C41 O39 1.258 1_556 S
C42 O44 1.247 . S
C42 O46 1.258 . S
C43 O50 1.247 . S
C43 O51 1.258 . S
O44 C42 1.247 . S
O44 Zn45 2.028 . S
Zn45 O44 2.028 . S
Zn45 O49 2.035 . S
Zn45 O51 2.035 . S
Zn45 O52 2.028 . S
O46 C42 1.258 . S
O46 Zn47 2.035 . S
Zn47 O46 2.035 . S
Zn47 O48 2.028 . S
Zn47 O50 2.028 . S
Zn47 O53 2.035 . S
O48 Zn47 2.028 . S
O48 C54 1.247 . S
O49 Zn45 2.035 . S
O49 C54 1.258 . S
O50 C43 1.247 . S
O50 Zn47 2.028 . S
O51 C43 1.258 . S
O51 Zn45 2.035 . S
O52 Zn45 2.028 . S
O52 C55 1.247 . S
O53 Zn47 2.035 . S
O53 C55 1.258 . S
C54 O48 1.247 . S
C54 O49 1.258 . S
C55 O52 1.247 . S
C55 O53 1.258 . S
C56 O58 1.247 1_565 S
C56 O60 1.258 . S
C57 O64 1.247 . S
C57 O65 1.258 1_556 S
O58 C56 1.247 1_545 S
O58 Zn59 2.028 . S
Zn59 O58 2.028 . S
Zn59 O63 2.035 . S
Zn59 O65 2.035 . S
Zn59 O66 2.028 . S
O60 C56 1.258 . S
O60 Zn61 2.035 1_554 S
Zn61 O60 2.035 1_556 S
Zn61 O62 2.028 1_565 S
Zn61 O64 2.028 1_565 S
Zn61 O67 2.035 1_556 S
O62 Zn61 2.028 1_545 S
O62 C68 1.247 . S
O63 Zn59 2.035 . S
O63 C68 1.258 1_554 S
O64 C57 1.247 . S
O64 Zn61 2.028 1_545 S
O65 C57 1.258 1_554 S
O65 Zn59 2.035 . S
O66 Zn59 2.028 . S
O66 C69 1.247 1_545 S
O67 Zn61 2.035 1_554 S
O67 C69 1.258 . S
C68 O62 1.247 . S
C68 O63 1.258 1_556 S
C69 O66 1.247 1_565 S
C69 O67 1.258 . S
C70 O72 1.247 . S
C70 O74 1.258 . S
C71 O78 1.247 . S
C71 O79 1.258 . S
O72 C70 1.247 . S
O72 Zn73 2.028 . S
Zn73 O72 2.028 . S
Zn73 O77 2.035 . S
Zn73 O79 2.035 . S
Zn73 O80 2.028 . S
O74 C70 1.258 . S
O74 Zn75 2.035 . S
Zn75 O74 2.035 . S
Zn75 O76 2.028 . S
Zn75 O78 2.028 . S
Zn75 O81 2.035 . S
O76 Zn75 2.028 . S
O76 C82 1.247 . S
O77 Zn73 2.035 . S
O77 C82 1.258 . S
O78 C71 1.247 . S
O78 Zn75 2.028 . S
O79 C71 1.258 . S
O79 Zn73 2.035 . S
O80 Zn73 2.028 . S
O80 C83 1.247 . S
O81 Zn75 2.035 . S
O81 C83 1.258 . S
C82 O76 1.247 . S
C82 O77 1.258 . S
C83 O80 1.247 . S
C83 O81 1.258 . S
H84 C111 0.929 . S
N85 C110 1.433 . S
N85 C116 1.435 . S
N85 C122 1.423 . S
H86 C112 0.930 . S
H87 C115 0.931 . S
H88 C114 0.929 . S
H89 C117 0.930 . S
H90 C118 0.932 . S
H91 C121 0.929 . S
H92 C120 0.931 . S
H93 C123 0.929 . S
H94 C127 0.932 . S
H95 C124 0.931 . S
H96 C126 0.929 . S
H97 C129 0.929 . S
H98 C130 0.930 . S
H99 C132 0.929 . S
H100 C133 0.931 . S
H101 C135 0.930 . S
H102 C136 0.932 . S
H103 C138 0.931 . S
H104 C139 0.929 . S
H105 C141 0.929 . S
H106 C142 0.931 . S
H107 C144 0.929 . S
N108 C128 1.433 . S
N108 C134 1.435 . S
N108 C140 1.423 . S
H109 C145 0.932 . S
C110 N85 1.433 . S
C110 C111 1.363 . S
C110 C115 1.370 . S
C111 H84 0.929 . S
C111 C110 1.363 . S
C111 C112 1.385 . S
C112 H86 0.930 . S
C112 C111 1.385 . S
C112 C113 1.357 . S
C113 C112 1.357 . S
C113 C114 1.406 . S
C114 H88 0.929 . S
C114 C113 1.406 . S
C114 C115 1.391 . S
C115 H87 0.931 . S
C115 C110 1.370 . S
C115 C114 1.391 . S
C116 N85 1.435 . S
C116 C117 1.358 . S
C116 C121 1.371 . S
C117 H89 0.930 . S
C117 C116 1.358 . S
C117 C118 1.405 . S
C118 H90 0.932 . S
C118 C117 1.405 . S
C118 C119 1.383 . S
C119 C118 1.383 . S
C119 C120 1.393 . S
C120 H92 0.931 . S
C120 C119 1.393 . S
C120 C121 1.382 . S
C121 H91 0.929 . S
C121 C116 1.371 . S
C121 C120 1.382 . S
C122 N85 1.423 . S
C122 C123 1.362 . S
C122 C127 1.388 . S
C123 H93 0.929 . S
C123 C122 1.362 . S
C123 C124 1.376 . S
C124 H95 0.931 . S
C124 C123 1.376 . S
C124 C125 1.396 . S
C125 C124 1.396 . S
C125 C126 1.348 . S
C125 C143 1.472 . S
C126 H96 0.929 . S
C126 C125 1.348 . S
C126 C127 1.443 . S
C127 H94 0.932 . S
C127 C122 1.388 . S
C127 C126 1.443 . S
C128 N108 1.433 . S
C128 C129 1.363 . S
C128 C133 1.370 . S
C129 H97 0.929 . S
C129 C128 1.363 . S
C129 C130 1.385 . S
C130 H98 0.930 . S
C130 C129 1.385 . S
C130 C131 1.357 . S
C131 C130 1.357 . S
C131 C132 1.406 . S
C132 H99 0.929 . S
C132 C131 1.406 . S
C132 C133 1.391 . S
C133 H100 0.931 . S
C133 C128 1.370 . S
C133 C132 1.391 . S
C134 N108 1.435 . S
C134 C135 1.358 . S
C134 C139 1.371 . S
C135 H101 0.930 . S
C135 C134 1.358 . S
C135 C136 1.405 . S
C136 H102 0.932 . S
C136 C135 1.405 . S
C136 C137 1.383 . S
C137 C136 1.383 . S
C137 C138 1.393 . S
C138 H103 0.931 . S
C138 C137 1.393 . S
C138 C139 1.382 . S
C139 H104 0.929 . S
C139 C134 1.371 . S
C139 C138 1.382 . S
C140 N108 1.423 . S
C140 C141 1.362 . S
C140 C145 1.388 . S
C141 H105 0.929 . S
C141 C140 1.362 . S
C141 C142 1.376 . S
C142 H106 0.931 . S
C142 C141 1.376 . S
C142 C143 1.396 . S
C143 C125 1.472 . S
C143 C142 1.396 . S
C143 C144 1.348 . S
C144 H107 0.929 . S
C144 C143 1.348 . S
C144 C145 1.443 . S
C145 H109 0.932 . S
C145 C140 1.388 . S
C145 C144 1.443 . S
H146 C173 0.929 . S
N147 C172 1.433 . S
N147 C178 1.435 . S
N147 C184 1.423 . S
H148 C174 0.930 . S
H149 C177 0.931 . S
H150 C176 0.929 . S
H151 C179 0.930 . S
H152 C180 0.932 . S
H153 C183 0.929 . S
H154 C182 0.931 . S
H155 C185 0.929 . S
H156 C189 0.932 . S
H157 C186 0.931 . S
H158 C188 0.929 . S
H159 C191 0.929 . S
H160 C192 0.930 . S
H161 C194 0.929 . S
H162 C195 0.931 . S
H163 C197 0.930 . S
H164 C198 0.932 . S
H165 C200 0.931 . S
H166 C201 0.929 . S
H167 C203 0.929 . S
H168 C204 0.931 . S
H169 C206 0.929 . S
N170 C190 1.433 . S
N170 C196 1.435 . S
N170 C202 1.423 . S
H171 C207 0.932 . S
C172 N147 1.433 . S
C172 C173 1.363 . S
C172 C177 1.370 . S
C173 H146 0.929 . S
C173 C172 1.363 . S
C173 C174 1.385 . S
C174 H148 0.930 . S
C174 C173 1.385 . S
C174 C175 1.357 . S
C175 C174 1.357 . S
C175 C176 1.406 . S
C176 H150 0.929 . S
C176 C175 1.406 . S
C176 C177 1.391 . S
C177 H149 0.931 . S
C177 C172 1.370 . S
C177 C176 1.391 . S
C178 N147 1.435 . S
C178 C179 1.358 . S
C178 C183 1.371 . S
C179 H151 0.930 . S
C179 C178 1.358 . S
C179 C180 1.405 . S
C180 H152 0.932 . S
C180 C179 1.405 . S
C180 C181 1.383 . S
C181 C180 1.383 . S
C181 C182 1.393 . S
C182 H154 0.931 . S
C182 C181 1.393 . S
C182 C183 1.382 . S
C183 H153 0.929 . S
C183 C178 1.371 . S
C183 C182 1.382 . S
C184 N147 1.423 . S
C184 C185 1.362 . S
C184 C189 1.388 . S
C185 H155 0.929 . S
C185 C184 1.362 . S
C185 C186 1.376 . S
C186 H157 0.931 . S
C186 C185 1.376 . S
C186 C187 1.396 . S
C187 C186 1.396 . S
C187 C188 1.348 . S
C187 C205 1.472 . S
C188 H158 0.929 . S
C188 C187 1.348 . S
C188 C189 1.443 . S
C189 H156 0.932 . S
C189 C184 1.388 . S
C189 C188 1.443 . S
C190 N170 1.433 . S
C190 C191 1.363 . S
C190 C195 1.370 . S
C191 H159 0.929 . S
C191 C190 1.363 . S
C191 C192 1.385 . S
C192 H160 0.930 . S
C192 C191 1.385 . S
C192 C193 1.357 . S
C193 C192 1.357 . S
C193 C194 1.406 . S
C194 H161 0.929 . S
C194 C193 1.406 . S
C194 C195 1.391 . S
C195 H162 0.931 . S
C195 C190 1.370 . S
C195 C194 1.391 . S
C196 N170 1.435 . S
C196 C197 1.358 . S
C196 C201 1.371 . S
C197 H163 0.930 . S
C197 C196 1.358 . S
C197 C198 1.405 . S
C198 H164 0.932 . S
C198 C197 1.405 . S
C198 C199 1.383 . S
C199 C198 1.383 . S
C199 C200 1.393 . S
C200 H165 0.931 . S
C200 C199 1.393 . S
C200 C201 1.382 . S
C201 H166 0.929 . S
C201 C196 1.371 . S
C201 C200 1.382 . S
C202 N170 1.423 . S
C202 C203 1.362 . S
C202 C207 1.388 . S
C203 H167 0.929 . S
C203 C202 1.362 . S
C203 C204 1.376 . S
C204 H168 0.931 . S
C204 C203 1.376 . S
C204 C205 1.396 . S
C205 C187 1.472 . S
C205 C204 1.396 . S
C205 C206 1.348 . S
C206 H169 0.929 . S
C206 C205 1.348 . S
C206 C207 1.443 . S
C207 H171 0.932 . S
C207 C202 1.388 . S
C207 C206 1.443 . S
H208 C235 0.929 . S
N209 C234 1.433 . S
N209 C240 1.435 . S
N209 C246 1.423 . S
H210 C236 0.930 . S
H211 C239 0.931 . S
H212 C238 0.929 . S
H213 C241 0.930 . S
H214 C242 0.932 . S
H215 C245 0.929 . S
H216 C244 0.931 . S
H217 C247 0.929 . S
H218 C251 0.932 . S
H219 C248 0.931 . S
H220 C250 0.929 . S
H221 C253 0.929 . S
H222 C254 0.930 . S
H223 C256 0.929 . S
H224 C257 0.931 . S
H225 C259 0.930 . S
H226 C260 0.932 . S
H227 C262 0.931 . S
H228 C263 0.929 . S
H229 C265 0.929 . S
H230 C266 0.931 . S
H231 C268 0.929 . S
N232 C252 1.433 . S
N232 C258 1.435 . S
N232 C264 1.423 . S
H233 C269 0.932 . S
C234 N209 1.433 . S
C234 C235 1.363 . S
C234 C239 1.370 . S
C235 H208 0.929 . S
C235 C234 1.363 . S
C235 C236 1.385 . S
C236 H210 0.930 . S
C236 C235 1.385 . S
C236 C237 1.357 . S
C237 C236 1.357 . S
C237 C238 1.406 . S
C238 H212 0.929 . S
C238 C237 1.406 . S
C238 C239 1.391 . S
C239 H211 0.931 . S
C239 C234 1.370 . S
C239 C238 1.391 . S
C240 N209 1.435 . S
C240 C241 1.358 . S
C240 C245 1.371 . S
C241 H213 0.930 . S
C241 C240 1.358 . S
C241 C242 1.405 . S
C242 H214 0.932 . S
C242 C241 1.405 . S
C242 C243 1.383 . S
C243 C242 1.383 . S
C243 C244 1.393 . S
C244 H216 0.931 . S
C244 C243 1.393 . S
C244 C245 1.382 . S
C245 H215 0.929 . S
C245 C240 1.371 . S
C245 C244 1.382 . S
C246 N209 1.423 . S
C246 C247 1.362 . S
C246 C251 1.388 . S
C247 H217 0.929 . S
C247 C246 1.362 . S
C247 C248 1.376 . S
C248 H219 0.931 . S
C248 C247 1.376 . S
C248 C249 1.396 . S
C249 C248 1.396 . S
C249 C250 1.348 . S
C249 C267 1.472 . S
C250 H220 0.929 . S
C250 C249 1.348 . S
C250 C251 1.443 . S
C251 H218 0.932 . S
C251 C246 1.388 . S
C251 C250 1.443 . S
C252 N232 1.433 . S
C252 C253 1.363 . S
C252 C257 1.370 . S
C253 H221 0.929 . S
C253 C252 1.363 . S
C253 C254 1.385 . S
C254 H222 0.930 . S
C254 C253 1.385 . S
C254 C255 1.357 . S
C255 C254 1.357 . S
C255 C256 1.406 . S
C256 H223 0.929 . S
C256 C255 1.406 . S
C256 C257 1.391 . S
C257 H224 0.931 . S
C257 C252 1.370 . S
C257 C256 1.391 . S
C258 N232 1.435 . S
C258 C259 1.358 . S
C258 C263 1.371 . S
C259 H225 0.930 . S
C259 C258 1.358 . S
C259 C260 1.405 . S
C260 H226 0.932 . S
C260 C259 1.405 . S
C260 C261 1.383 . S
C261 C260 1.383 . S
C261 C262 1.393 . S
C262 H227 0.931 . S
C262 C261 1.393 . S
C262 C263 1.382 . S
C263 H228 0.929 . S
C263 C258 1.371 . S
C263 C262 1.382 . S
C264 N232 1.423 . S
C264 C265 1.362 . S
C264 C269 1.388 . S
C265 H229 0.929 . S
C265 C264 1.362 . S
C265 C266 1.376 . S
C266 H230 0.931 . S
C266 C265 1.376 . S
C266 C267 1.396 . S
C267 C249 1.472 . S
C267 C266 1.396 . S
C267 C268 1.348 . S
C268 H231 0.929 . S
C268 C267 1.348 . S
C268 C269 1.443 . S
C269 H233 0.932 . S
C269 C264 1.388 . S
C269 C268 1.443 . S
H270 C297 0.929 . S
N271 C296 1.433 . S
N271 C302 1.435 . S
N271 C308 1.423 . S
H272 C298 0.930 . S
H273 C301 0.931 . S
H274 C300 0.929 . S
H275 C303 0.930 . S
H276 C304 0.932 . S
H277 C307 0.929 . S
H278 C306 0.931 . S
H279 C309 0.929 . S
H280 C313 0.932 . S
H281 C310 0.931 . S
H282 C312 0.929 . S
H283 C315 0.929 . S
H284 C316 0.930 . S
H285 C318 0.929 . S
H286 C319 0.931 . S
H287 C321 0.930 . S
H288 C322 0.932 . S
H289 C324 0.931 . S
H290 C325 0.929 . S
H291 C327 0.929 . S
H292 C328 0.931 . S
H293 C330 0.929 . S
N294 C314 1.433 . S
N294 C320 1.435 . S
N294 C326 1.423 . S
H295 C331 0.932 . S
C296 N271 1.433 . S
C296 C297 1.363 . S
C296 C301 1.370 . S
C297 H270 0.929 . S
C297 C296 1.363 . S
C297 C298 1.385 . S
C298 H272 0.930 . S
C298 C297 1.385 . S
C298 C299 1.357 . S
C299 C298 1.357 . S
C299 C300 1.406 . S
C300 H274 0.929 . S
C300 C299 1.406 . S
C300 C301 1.391 . S
C301 H273 0.931 . S
C301 C296 1.370 . S
C301 C300 1.391 . S
C302 N271 1.435 . S
C302 C303 1.358 . S
C302 C307 1.371 . S
C303 H275 0.930 . S
C303 C302 1.358 . S
C303 C304 1.405 . S
C304 H276 0.932 . S
C304 C303 1.405 . S
C304 C305 1.383 . S
C305 C304 1.383 . S
C305 C306 1.393 . S
C306 H278 0.931 . S
C306 C305 1.393 . S
C306 C307 1.382 . S
C307 H277 0.929 . S
C307 C302 1.371 . S
C307 C306 1.382 . S
C308 N271 1.423 . S
C308 C309 1.362 . S
C308 C313 1.388 . S
C309 H279 0.929 . S
C309 C308 1.362 . S
C309 C310 1.376 . S
C310 H281 0.931 . S
C310 C309 1.376 . S
C310 C311 1.396 . S
C311 C310 1.396 . S
C311 C312 1.348 . S
C311 C329 1.472 . S
C312 H282 0.929 . S
C312 C311 1.348 . S
C312 C313 1.443 . S
C313 H280 0.932 . S
C313 C308 1.388 . S
C313 C312 1.443 . S
C314 N294 1.433 . S
C314 C315 1.363 . S
C314 C319 1.370 . S
C315 H283 0.929 . S
C315 C314 1.363 . S
C315 C316 1.385 . S
C316 H284 0.930 . S
C316 C315 1.385 . S
C316 C317 1.357 . S
C317 C316 1.357 . S
C317 C318 1.406 . S
C318 H285 0.929 . S
C318 C317 1.406 . S
C318 C319 1.391 . S
C319 H286 0.931 . S
C319 C314 1.370 . S
C319 C318 1.391 . S
C320 N294 1.435 . S
C320 C321 1.358 . S
C320 C325 1.371 . S
C321 H287 0.930 . S
C321 C320 1.358 . S
C321 C322 1.405 . S
C322 H288 0.932 . S
C322 C321 1.405 . S
C322 C323 1.383 . S
C323 C322 1.383 . S
C323 C324 1.393 . S
C324 H289 0.931 . S
C324 C323 1.393 . S
C324 C325 1.382 . S
C325 H290 0.929 . S
C325 C320 1.371 . S
C325 C324 1.382 . S
C326 N294 1.423 . S
C326 C327 1.362 . S
C326 C331 1.388 . S
C327 H291 0.929 . S
C327 C326 1.362 . S
C327 C328 1.376 . S
C328 H292 0.931 . S
C328 C327 1.376 . S
C328 C329 1.396 . S
C329 C311 1.472 . S
C329 C328 1.396 . S
C329 C330 1.348 . S
C330 H293 0.929 . S
C330 C329 1.348 . S
C330 C331 1.443 . S
C331 H295 0.932 . S
C331 C326 1.388 . S
C331 C330 1.443 . S
H332 C359 0.929 . S
N333 C358 1.433 . S
N333 C364 1.435 . S
N333 C370 1.423 . S
H334 C360 0.930 . S
H335 C363 0.931 . S
H336 C362 0.929 . S
H337 C365 0.930 . S
H338 C366 0.932 . S
H339 C369 0.929 . S
H340 C368 0.931 . S
H341 C371 0.929 . S
H342 C375 0.932 . S
H343 C372 0.931 . S
H344 C374 0.929 . S
H345 C377 0.929 . S
H346 C378 0.930 . S
H347 C380 0.929 . S
H348 C381 0.931 . S
H349 C383 0.930 . S
H350 C384 0.932 . S
H351 C386 0.931 . S
H352 C387 0.929 . S
H353 C389 0.929 . S
H354 C390 0.931 . S
H355 C392 0.929 . S
N356 C376 1.433 . S
N356 C382 1.435 . S
N356 C388 1.423 . S
H357 C393 0.932 . S
C358 N333 1.433 . S
C358 C359 1.363 . S
C358 C363 1.370 . S
C359 H332 0.929 . S
C359 C358 1.363 . S
C359 C360 1.385 . S
C360 H334 0.930 . S
C360 C359 1.385 . S
C360 C361 1.357 . S
C361 C360 1.357 . S
C361 C362 1.406 . S
C362 H336 0.929 . S
C362 C361 1.406 . S
C362 C363 1.391 . S
C363 H335 0.931 . S
C363 C358 1.370 . S
C363 C362 1.391 . S
C364 N333 1.435 . S
C364 C365 1.358 . S
C364 C369 1.371 . S
C365 H337 0.930 . S
C365 C364 1.358 . S
C365 C366 1.405 . S
C366 H338 0.932 . S
C366 C365 1.405 . S
C366 C367 1.383 . S
C367 C366 1.383 . S
C367 C368 1.393 . S
C368 H340 0.931 . S
C368 C367 1.393 . S
C368 C369 1.382 . S
C369 H339 0.929 . S
C369 C364 1.371 . S
C369 C368 1.382 . S
C370 N333 1.423 . S
C370 C371 1.362 . S
C370 C375 1.388 . S
C371 H341 0.929 . S
C371 C370 1.362 . S
C371 C372 1.376 . S
C372 H343 0.931 . S
C372 C371 1.376 . S
C372 C373 1.396 . S
C373 C372 1.396 . S
C373 C374 1.348 . S
C373 C391 1.472 . S
C374 H344 0.929 . S
C374 C373 1.348 . S
C374 C375 1.443 . S
C375 H342 0.932 . S
C375 C370 1.388 . S
C375 C374 1.443 . S
C376 N356 1.433 . S
C376 C377 1.363 . S
C376 C381 1.370 . S
C377 H345 0.929 . S
C377 C376 1.363 . S
C377 C378 1.385 . S
C378 H346 0.930 . S
C378 C377 1.385 . S
C378 C379 1.357 . S
C379 C378 1.357 . S
C379 C380 1.406 . S
C380 H347 0.929 . S
C380 C379 1.406 . S
C380 C381 1.391 . S
C381 H348 0.931 . S
C381 C376 1.370 . S
C381 C380 1.391 . S
C382 N356 1.435 . S
C382 C383 1.358 . S
C382 C387 1.371 . S
C383 H349 0.930 . S
C383 C382 1.358 . S
C383 C384 1.405 . S
C384 H350 0.932 . S
C384 C383 1.405 . S
C384 C385 1.383 . S
C385 C384 1.383 . S
C385 C386 1.393 . S
C386 H351 0.931 . S
C386 C385 1.393 . S
C386 C387 1.382 . S
C387 H352 0.929 . S
C387 C382 1.371 . S
C387 C386 1.382 . S
C388 N356 1.423 . S
C388 C389 1.362 . S
C388 C393 1.388 . S
C389 H353 0.929 . S
C389 C388 1.362 . S
C389 C390 1.376 . S
C390 H354 0.931 . S
C390 C389 1.376 . S
C390 C391 1.396 . S
C391 C373 1.472 . S
C391 C390 1.396 . S
C391 C392 1.348 . S
C392 H355 0.929 . S
C392 C391 1.348 . S
C392 C393 1.443 . S
C393 H357 0.932 . S
C393 C388 1.388 . S
C393 C392 1.443 . S
H394 C421 0.929 . S
N395 C420 1.433 . S
N395 C426 1.435 . S
N395 C432 1.423 . S
H396 C422 0.930 . S
H397 C425 0.931 . S
H398 C424 0.929 . S
H399 C427 0.930 . S
H400 C428 0.932 . S
H401 C431 0.929 . S
H402 C430 0.931 . S
H403 C433 0.929 . S
H404 C437 0.932 . S
H405 C434 0.931 . S
H406 C436 0.929 . S
H407 C439 0.929 . S
H408 C440 0.930 . S
H409 C442 0.929 . S
H410 C443 0.931 . S
H411 C445 0.930 . S
H412 C446 0.932 . S
H413 C448 0.931 . S
H414 C449 0.929 . S
H415 C451 0.929 . S
H416 C452 0.931 . S
H417 C454 0.929 . S
N418 C438 1.433 . S
N418 C444 1.435 . S
N418 C450 1.423 . S
H419 C455 0.932 . S
C420 N395 1.433 . S
C420 C421 1.363 . S
C420 C425 1.370 . S
C421 H394 0.929 . S
C421 C420 1.363 . S
C421 C422 1.385 . S
C422 H396 0.930 . S
C422 C421 1.385 . S
C422 C423 1.357 . S
C423 C422 1.357 . S
C423 C424 1.406 . S
C424 H398 0.929 . S
C424 C423 1.406 . S
C424 C425 1.391 . S
C425 H397 0.931 . S
C425 C420 1.370 . S
C425 C424 1.391 . S
C426 N395 1.435 . S
C426 C427 1.358 . S
C426 C431 1.371 . S
C427 H399 0.930 . S
C427 C426 1.358 . S
C427 C428 1.405 . S
C428 H400 0.932 . S
C428 C427 1.405 . S
C428 C429 1.383 . S
C429 C428 1.383 . S
C429 C430 1.393 . S
C430 H402 0.931 . S
C430 C429 1.393 . S
C430 C431 1.382 . S
C431 H401 0.929 . S
C431 C426 1.371 . S
C431 C430 1.382 . S
C432 N395 1.423 . S
C432 C433 1.362 . S
C432 C437 1.388 . S
C433 H403 0.929 . S
C433 C432 1.362 . S
C433 C434 1.376 . S
C434 H405 0.931 . S
C434 C433 1.376 . S
C434 C435 1.396 . S
C435 C434 1.396 . S
C435 C436 1.348 . S
C435 C453 1.472 . S
C436 H406 0.929 . S
C436 C435 1.348 . S
C436 C437 1.443 . S
C437 H404 0.932 . S
C437 C432 1.388 . S
C437 C436 1.443 . S
C438 N418 1.433 . S
C438 C439 1.363 . S
C438 C443 1.370 . S
C439 H407 0.929 . S
C439 C438 1.363 . S
C439 C440 1.385 . S
C440 H408 0.930 . S
C440 C439 1.385 . S
C440 C441 1.357 . S
C441 C440 1.357 . S
C441 C442 1.406 . S
C442 H409 0.929 . S
C442 C441 1.406 . S
C442 C443 1.391 . S
C443 H410 0.931 . S
C443 C438 1.370 . S
C443 C442 1.391 . S
C444 N418 1.435 . S
C444 C445 1.358 . S
C444 C449 1.371 . S
C445 H411 0.930 . S
C445 C444 1.358 . S
C445 C446 1.405 . S
C446 H412 0.932 . S
C446 C445 1.405 . S
C446 C447 1.383 . S
C447 C446 1.383 . S
C447 C448 1.393 . S
C448 H413 0.931 . S
C448 C447 1.393 . S
C448 C449 1.382 . S
C449 H414 0.929 . S
C449 C444 1.371 . S
C449 C448 1.382 . S
C450 N418 1.423 . S
C450 C451 1.362 . S
C450 C455 1.388 . S
C451 H415 0.929 . S
C451 C450 1.362 . S
C451 C452 1.376 . S
C452 H416 0.931 . S
C452 C451 1.376 . S
C452 C453 1.396 . S
C453 C435 1.472 . S
C453 C452 1.396 . S
C453 C454 1.348 . S
C454 H417 0.929 . S
C454 C453 1.348 . S
C454 C455 1.443 . S
C455 H419 0.932 . S
C455 C450 1.388 . S
C455 C454 1.443 . S
C456 C457 1.349 . S
C456 C458 1.327 . S
C456 H481 0.950 . S
C457 C456 1.349 . S
C457 C473 1.349 . S
C458 C456 1.327 . S
C458 C477 1.429 . S
C458 H482 0.950 . S
C459 C476 1.574 . S
C459 C478 1.368 . S
C459 H483 0.949 . S
H460 C464 0.949 . S
C461 C462 1.349 . S
C461 C463 1.327 . S
C461 H484 0.950 . S
C462 C461 1.349 . S
C462 C474 1.349 . S
C463 C461 1.327 . S
C463 C479 1.429 . S
C463 H485 0.950 . S
C464 H460 0.949 . S
C464 C472 1.574 . S
C464 C480 1.368 . S
H465 C473 0.950 . S
H466 C471 0.950 . S
H467 C472 0.949 . S
H468 C474 0.950 . S
H469 C475 0.950 . S
H470 C476 0.949 . S
C471 H466 0.950 . S
C471 C473 1.327 . S
C471 C477 1.429 . S
C472 C464 1.574 . S
C472 H467 0.949 . S
C472 C478 1.368 . S
C473 C457 1.349 . S
C473 H465 0.950 . S
C473 C471 1.327 . S
C474 C462 1.349 . S
C474 H468 0.950 . S
C474 C475 1.327 . S
C475 H469 0.950 . S
C475 C474 1.327 . S
C475 C479 1.429 . S
C476 C459 1.574 . S
C476 H470 0.949 . S
C476 C480 1.368 . S
C477 C458 1.429 . S
C477 C471 1.429 . S
C477 C478 1.523 . S
C478 C459 1.368 . S
C478 C472 1.368 . S
C478 C477 1.523 . S
C479 C463 1.429 . S
C479 C475 1.429 . S
C479 C480 1.523 . S
C480 C464 1.368 . S
C480 C476 1.368 . S
C480 C479 1.523 . S
H481 C456 0.950 . S
H482 C458 0.950 . S
H483 C459 0.949 . S
H484 C461 0.950 . S
H485 C463 0.950 . S
C486 C487 1.349 . S
C486 C488 1.327 . S
C486 H511 0.950 . S
C487 C486 1.349 . S
C487 C503 1.349 . S
C488 C486 1.327 . S
C488 C507 1.429 . S
C488 H512 0.950 . S
C489 C506 1.574 . S
C489 C508 1.368 . S
C489 H513 0.949 . S
H490 C494 0.949 . S
C491 C492 1.349 . S
C491 C493 1.327 . S
C491 H514 0.950 . S
C492 C491 1.349 . S
C492 C504 1.349 . S
C493 C491 1.327 . S
C493 C509 1.429 . S
C493 H515 0.950 . S
C494 H490 0.949 . S
C494 C502 1.574 . S
C494 C510 1.368 . S
H495 C503 0.950 . S
H496 C501 0.950 . S
H497 C502 0.949 . S
H498 C504 0.950 . S
H499 C505 0.950 . S
H500 C506 0.949 . S
C501 H496 0.950 . S
C501 C503 1.327 . S
C501 C507 1.429 . S
C502 C494 1.574 . S
C502 H497 0.949 . S
C502 C508 1.368 . S
C503 C487 1.349 . S
C503 H495 0.950 . S
C503 C501 1.327 . S
C504 C492 1.349 . S
C504 H498 0.950 . S
C504 C505 1.327 . S
C505 H499 0.950 . S
C505 C504 1.327 . S
C505 C509 1.429 . S
C506 C489 1.574 . S
C506 H500 0.949 . S
C506 C510 1.368 . S
C507 C488 1.429 . S
C507 C501 1.429 . S
C507 C508 1.523 . S
C508 C489 1.368 . S
C508 C502 1.368 . S
C508 C507 1.523 . S
C509 C493 1.429 . S
C509 C505 1.429 . S
C509 C510 1.523 . S
C510 C494 1.368 . S
C510 C506 1.368 . S
C510 C509 1.523 . S
H511 C486 0.950 . S
H512 C488 0.950 . S
H513 C489 0.949 . S
H514 C491 0.950 . S
H515 C493 0.950 . S
C516 C517 1.349 . S
C516 C518 1.327 . S
C516 H541 0.950 . S
C517 C516 1.349 . S
C517 C533 1.349 . S
C518 C516 1.327 . S
C518 C537 1.429 . S
C518 H542 0.950 . S
C519 C536 1.574 . S
C519 C538 1.368 . S
C519 H543 0.949 . S
H520 C524 0.949 . S
C521 C522 1.349 . S
C521 C523 1.327 . S
C521 H544 0.950 . S
C522 C521 1.349 . S
C522 C534 1.349 . S
C523 C521 1.327 . S
C523 C539 1.429 . S
C523 H545 0.950 . S
C524 H520 0.949 . S
C524 C532 1.574 . S
C524 C540 1.368 . S
H525 C533 0.950 . S
H526 C531 0.950 . S
H527 C532 0.949 . S
H528 C534 0.950 . S
H529 C535 0.950 . S
H530 C536 0.949 . S
C531 H526 0.950 . S
C531 C533 1.327 . S
C531 C537 1.429 . S
C532 C524 1.574 . S
C532 H527 0.949 . S
C532 C538 1.368 . S
C533 C517 1.349 . S
C533 H525 0.950 . S
C533 C531 1.327 . S
C534 C522 1.349 . S
C534 H528 0.950 . S
C534 C535 1.327 . S
C535 H529 0.950 . S
C535 C534 1.327 . S
C535 C539 1.429 . S
C536 C519 1.574 . S
C536 H530 0.949 . S
C536 C540 1.368 . S
C537 C518 1.429 . S
C537 C531 1.429 . S
C537 C538 1.523 . S
C538 C519 1.368 . S
C538 C532 1.368 . S
C538 C537 1.523 . S
C539 C523 1.429 . S
C539 C535 1.429 . S
C539 C540 1.523 . S
C540 C524 1.368 . S
C540 C536 1.368 . S
C540 C539 1.523 . S
H541 C516 0.950 . S
H542 C518 0.950 . S
H543 C519 0.949 . S
H544 C521 0.950 . S
H545 C523 0.950 . S
C546 C547 1.349 . S
C546 C548 1.332 . S
C546 H571 0.950 . S
C547 C546 1.349 . S
C547 C563 1.349 . S
C548 C546 1.332 . S
C548 C567 1.425 1_455 S
C548 H572 0.948 1_455 S
C549 C566 1.574 . S
C549 C568 1.368 . S
C549 H573 0.949 . S
H550 C554 0.949 . S
C551 C552 1.349 . S
C551 C553 1.327 . S
C551 H574 0.950 . S
C552 C551 1.349 . S
C552 C564 1.349 . S
C553 C551 1.327 . S
C553 C569 1.429 . S
C553 H575 0.950 . S
C554 H550 0.949 . S
C554 C562 1.574 . S
C554 C570 1.368 . S
H555 C563 0.950 . S
H556 C561 0.950 1_655 S
H557 C562 0.949 . S
H558 C564 0.950 . S
H559 C565 0.950 . S
H560 C566 0.949 . S
C561 H556 0.950 1_455 S
C561 C563 1.327 . S
C561 C567 1.429 1_455 S
C562 C554 1.574 . S
C562 H557 0.949 . S
C562 C568 1.368 . S
C563 C547 1.349 . S
C563 H555 0.950 . S
C563 C561 1.327 . S
C564 C552 1.349 . S
C564 H558 0.950 . S
C564 C565 1.327 . S
C565 H559 0.950 . S
C565 C564 1.327 . S
C565 C569 1.429 . S
C566 C549 1.574 . S
C566 H560 0.949 . S
C566 C570 1.368 . S
C567 C548 1.425 1_655 S
C567 C561 1.429 1_655 S
C567 C568 1.523 . S
C568 C549 1.368 . S
C568 C562 1.368 . S
C568 C567 1.523 . S
C569 C553 1.429 . S
C569 C565 1.429 . S
C569 C570 1.523 . S
C570 C554 1.368 . S
C570 C566 1.368 . S
C570 C569 1.523 . S
H571 C546 0.950 . S
H572 C548 0.948 1_655 S
H573 C549 0.949 . S
H574 C551 0.950 . S
H575 C553 0.950 . S
C576 C577 1.349 . S
C576 C578 1.327 . S
C576 H601 0.950 . S
C577 C576 1.349 . S
C577 C593 1.349 . S
C578 C576 1.327 . S
C578 C597 1.429 . S
C578 H602 0.950 . S
C579 C596 1.574 . S
C579 C598 1.368 . S
C579 H603 0.949 . S
H580 C584 0.949 . S
C581 C582 1.349 . S
C581 C583 1.327 . S
C581 H604 0.950 . S
C582 C581 1.349 . S
C582 C594 1.349 . S
C583 C581 1.327 . S
C583 C599 1.429 . S
C583 H605 0.950 . S
C584 H580 0.949 . S
C584 C592 1.574 . S
C584 C600 1.368 . S
H585 C593 0.950 . S
H586 C591 0.950 . S
H587 C592 0.949 . S
H588 C594 0.950 . S
H589 C595 0.950 . S
H590 C596 0.949 . S
C591 H586 0.950 . S
C591 C593 1.327 . S
C591 C597 1.429 . S
C592 C584 1.574 . S
C592 H587 0.949 . S
C592 C598 1.368 . S
C593 C577 1.349 . S
C593 H585 0.950 . S
C593 C591 1.327 . S
C594 C582 1.349 . S
C594 H588 0.950 . S
C594 C595 1.327 . S
C595 H589 0.950 . S
C595 C594 1.327 . S
C595 C599 1.429 . S
C596 C579 1.574 . S
C596 H590 0.949 . S
C596 C600 1.368 . S
C597 C578 1.429 . S
C597 C591 1.429 . S
C597 C598 1.523 . S
C598 C579 1.368 . S
C598 C592 1.368 . S
C598 C597 1.523 . S
C599 C583 1.429 . S
C599 C595 1.429 . S
C599 C600 1.523 . S
C600 C584 1.368 . S
C600 C596 1.368 . S
C600 C599 1.523 . S
H601 C576 0.950 . S
H602 C578 0.950 . S
H603 C579 0.949 . S
H604 C581 0.950 . S
H605 C583 0.950 . S
C606 C607 1.349 . S
C606 C608 1.327 . S
C606 H631 0.950 . S
C607 C606 1.349 . S
C607 C623 1.349 . S
C608 C606 1.327 . S
C608 C627 1.429 . S
C608 H632 0.950 . S
C609 C626 1.574 . S
C609 C628 1.368 . S
C609 H633 0.949 . S
H610 C614 0.949 . S
C611 C612 1.349 . S
C611 C613 1.327 . S
C611 H634 0.950 . S
C612 C611 1.349 . S
C612 C624 1.349 . S
C613 C611 1.327 . S
C613 C629 1.429 . S
C613 H635 0.950 . S
C614 H610 0.949 . S
C614 C622 1.574 . S
C614 C630 1.368 . S
H615 C623 0.950 . S
H616 C621 0.950 . S
H617 C622 0.949 . S
H618 C624 0.950 . S
H619 C625 0.950 . S
H620 C626 0.949 . S
C621 H616 0.950 . S
C621 C623 1.327 . S
C621 C627 1.429 . S
C622 C614 1.574 . S
C622 H617 0.949 . S
C622 C628 1.368 . S
C623 C607 1.349 . S
C623 H615 0.950 . S
C623 C621 1.327 . S
C624 C612 1.349 . S
C624 H618 0.950 . S
C624 C625 1.327 . S
C625 H619 0.950 . S
C625 C624 1.327 . S
C625 C629 1.429 . S
C626 C609 1.574 . S
C626 H620 0.949 . S
C626 C630 1.368 . S
C627 C608 1.429 . S
C627 C621 1.429 . S
C627 C628 1.523 . S
C628 C609 1.368 . S
C628 C622 1.368 . S
C628 C627 1.523 . S
C629 C613 1.429 . S
C629 C625 1.429 . S
C629 C630 1.523 . S
C630 C614 1.368 . S
C630 C626 1.368 . S
C630 C629 1.523 . S
H631 C606 0.950 . S
H632 C608 0.950 . S
H633 C609 0.949 . S
H634 C611 0.950 . S
H635 C613 0.950 . S
C636 C637 1.349 . S
C636 C638 1.327 . S
C636 H661 0.950 . S
C637 C636 1.349 . S
C637 C653 1.349 . S
C638 C636 1.327 . S
C638 C657 1.429 . S
C638 H662 0.950 . S
C639 C656 1.574 . S
C639 C658 1.368 . S
C639 H663 0.949 . S
H640 C644 0.949 . S
C641 C642 1.349 . S
C641 C643 1.327 . S
C641 H664 0.950 . S
C642 C641 1.349 . S
C642 C654 1.349 . S
C643 C641 1.327 . S
C643 C659 1.429 . S
C643 H665 0.950 . S
C644 H640 0.949 . S
C644 C652 1.574 . S
C644 C660 1.368 . S
H645 C653 0.950 . S
H646 C651 0.950 . S
H647 C652 0.949 . S
H648 C654 0.950 . S
H649 C655 0.950 . S
H650 C656 0.949 . S
C651 H646 0.950 . S
C651 C653 1.327 . S
C651 C657 1.429 . S
C652 C644 1.574 . S
C652 H647 0.949 . S
C652 C658 1.368 . S
C653 C637 1.349 . S
C653 H645 0.950 . S
C653 C651 1.327 . S
C654 C642 1.349 . S
C654 H648 0.950 . S
C654 C655 1.327 . S
C655 H649 0.950 . S
C655 C654 1.327 . S
C655 C659 1.429 . S
C656 C639 1.574 . S
C656 H650 0.949 . S
C656 C660 1.368 . S
C657 C638 1.429 . S
C657 C651 1.429 . S
C657 C658 1.523 . S
C658 C639 1.368 . S
C658 C652 1.368 . S
C658 C657 1.523 . S
C659 C643 1.429 . S
C659 C655 1.429 . S
C659 C660 1.523 . S
C660 C644 1.368 . S
C660 C656 1.368 . S
C660 C659 1.523 . S
H661 C636 0.950 . S
H662 C638 0.950 . S
H663 C639 0.949 . S
H664 C641 0.950 . S
H665 C643 0.950 . S
C666 C667 1.349 . S
C666 C668 1.327 . S
C666 H691 0.950 . S
C667 C666 1.349 . S
C667 C683 1.349 . S
C668 C666 1.327 . S
C668 C687 1.429 . S
C668 H692 0.950 . S
C669 C686 1.574 . S
C669 C688 1.368 . S
C669 H693 0.949 . S
H670 C674 0.949 . S
C671 C672 1.349 . S
C671 C673 1.327 . S
C671 H694 0.950 . S
C672 C671 1.349 . S
C672 C684 1.349 . S
C673 C671 1.327 . S
C673 C689 1.429 . S
C673 H695 0.950 . S
C674 H670 0.949 . S
C674 C682 1.574 . S
C674 C690 1.368 . S
H675 C683 0.950 . S
H676 C681 0.950 . S
H677 C682 0.949 . S
H678 C684 0.950 . S
H679 C685 0.950 . S
H680 C686 0.949 . S
C681 H676 0.950 . S
C681 C683 1.327 . S
C681 C687 1.429 . S
C682 C674 1.574 . S
C682 H677 0.949 . S
C682 C688 1.368 . S
C683 C667 1.349 . S
C683 H675 0.950 . S
C683 C681 1.327 . S
C684 C672 1.349 . S
C684 H678 0.950 . S
C684 C685 1.327 . S
C685 H679 0.950 . S
C685 C684 1.327 . S
C685 C689 1.429 . S
C686 C669 1.574 . S
C686 H680 0.949 . S
C686 C690 1.368 . S
C687 C668 1.429 . S
C687 C681 1.429 . S
C687 C688 1.523 . S
C688 C669 1.368 . S
C688 C682 1.368 . S
C688 C687 1.523 . S
C689 C673 1.429 . S
C689 C685 1.429 . S
C689 C690 1.523 . S
C690 C674 1.368 . S
C690 C686 1.368 . S
C690 C689 1.523 . S
H691 C666 0.950 . S
H692 C668 0.950 . S
H693 C669 0.949 . S
H694 C671 0.950 . S
H695 C673 0.950 . S
C696 C697 1.349 . S
C696 C698 1.327 . S
C696 H721 0.950 . S
C697 C696 1.349 . S
C697 C713 1.349 . S
C698 C696 1.327 . S
C698 C717 1.429 . S
C698 H722 0.950 . S
C699 C716 1.574 . S
C699 C718 1.368 . S
C699 H723 0.949 . S
H700 C704 0.949 . S
C701 C702 1.349 . S
C701 C703 1.327 . S
C701 H724 0.950 . S
C702 C701 1.349 . S
C702 C714 1.349 . S
C703 C701 1.327 . S
C703 C719 1.429 . S
C703 H725 0.950 . S
C704 H700 0.949 . S
C704 C712 1.574 . S
C704 C720 1.368 . S
H705 C713 0.950 . S
H706 C711 0.950 . S
H707 C712 0.949 . S
H708 C714 0.950 . S
H709 C715 0.950 . S
H710 C716 0.949 . S
C711 H706 0.950 . S
C711 C713 1.327 . S
C711 C717 1.429 . S
C712 C704 1.574 . S
C712 H707 0.949 . S
C712 C718 1.368 . S
C713 C697 1.349 . S
C713 H705 0.950 . S
C713 C711 1.327 . S
C714 C702 1.349 . S
C714 H708 0.950 . S
C714 C715 1.327 . S
C715 H709 0.950 . S
C715 C714 1.327 . S
C715 C719 1.429 . S
C716 C699 1.574 . S
C716 H710 0.949 . S
C716 C720 1.368 . S
C717 C698 1.429 . S
C717 C711 1.429 . S
C717 C718 1.523 . S
C718 C699 1.368 . S
C718 C712 1.368 . S
C718 C717 1.523 . S
C719 C703 1.429 . S
C719 C715 1.429 . S
C719 C720 1.523 . S
C720 C704 1.368 . S
C720 C716 1.368 . S
C720 C719 1.523 . S
H721 C696 0.950 . S
H722 C698 0.950 . S
H723 C699 0.949 . S
H724 C701 0.950 . S
H725 C703 0.950 . S
C726 C727 1.349 . S
C726 C728 1.327 . S
C726 H751 0.950 . S
C727 C726 1.349 . S
C727 C743 1.349 . S
C728 C726 1.327 . S
C728 C747 1.429 . S
C728 H752 0.950 . S
C729 C746 1.574 . S
C729 C748 1.368 . S
C729 H753 0.949 . S
H730 C734 0.949 . S
C731 C732 1.349 . S
C731 C733 1.327 . S
C731 H754 0.950 . S
C732 C731 1.349 . S
C732 C744 1.349 . S
C733 C731 1.327 . S
C733 C749 1.429 . S
C733 H755 0.950 . S
C734 H730 0.949 . S
C734 C742 1.574 . S
C734 C750 1.368 . S
H735 C743 0.950 . S
H736 C741 0.950 . S
H737 C742 0.949 . S
H738 C744 0.950 . S
H739 C745 0.950 . S
H740 C746 0.949 . S
C741 H736 0.950 . S
C741 C743 1.327 . S
C741 C747 1.429 . S
C742 C734 1.574 . S
C742 H737 0.949 . S
C742 C748 1.368 . S
C743 C727 1.349 . S
C743 H735 0.950 . S
C743 C741 1.327 . S
C744 C732 1.349 . S
C744 H738 0.950 . S
C744 C745 1.327 . S
C745 H739 0.950 . S
C745 C744 1.327 . S
C745 C749 1.429 . S
C746 C729 1.574 . S
C746 H740 0.949 . S
C746 C750 1.368 . S
C747 C728 1.429 . S
C747 C741 1.429 . S
C747 C748 1.523 . S
C748 C729 1.368 . S
C748 C742 1.368 . S
C748 C747 1.523 . S
C749 C733 1.429 . S
C749 C745 1.429 . S
C749 C750 1.523 . S
C750 C734 1.368 . S
C750 C746 1.368 . S
C750 C749 1.523 . S
H751 C726 0.950 . S
H752 C728 0.950 . S
H753 C729 0.949 . S
H754 C731 0.950 . S
H755 C733 0.950 . S
C756 C757 1.349 . S
C756 C758 1.327 . S
C756 H781 0.950 . S
C757 C756 1.349 . S
C757 C773 1.349 . S
C758 C756 1.327 . S
C758 C777 1.429 . S
C758 H782 0.950 . S
C759 C776 1.574 . S
C759 C778 1.368 . S
C759 H783 0.949 . S
H760 C764 0.949 . S
C761 C762 1.349 . S
C761 C763 1.327 . S
C761 H784 0.950 . S
C762 C761 1.349 . S
C762 C774 1.349 . S
C763 C761 1.327 . S
C763 C779 1.429 . S
C763 H785 0.950 . S
C764 H760 0.949 . S
C764 C772 1.574 . S
C764 C780 1.368 . S
H765 C773 0.950 . S
H766 C771 0.950 . S
H767 C772 0.949 . S
H768 C774 0.950 . S
H769 C775 0.950 . S
H770 C776 0.949 . S
C771 H766 0.950 . S
C771 C773 1.327 . S
C771 C777 1.429 . S
C772 C764 1.574 . S
C772 H767 0.949 . S
C772 C778 1.368 . S
C773 C757 1.349 . S
C773 H765 0.950 . S
C773 C771 1.327 . S
C774 C762 1.349 . S
C774 H768 0.950 . S
C774 C775 1.327 . S
C775 H769 0.950 . S
C775 C774 1.327 . S
C775 C779 1.429 . S
C776 C759 1.574 . S
C776 H770 0.949 . S
C776 C780 1.368 . S
C777 C758 1.429 . S
C777 C771 1.429 . S
C777 C778 1.523 . S
C778 C759 1.368 . S
C778 C772 1.368 . S
C778 C777 1.523 . S
C779 C763 1.429 . S
C779 C775 1.429 . S
C779 C780 1.523 . S
C780 C764 1.368 . S
C780 C776 1.368 . S
C780 C779 1.523 . S
H781 C756 0.950 . S
H782 C758 0.950 . S
H783 C759 0.949 . S
H784 C761 0.950 . S
H785 C763 0.950 . S
C786 C787 1.349 1_556 S
C786 C788 1.327 . S
C786 H811 0.950 1_556 S
C787 C786 1.349 1_554 S
C787 C803 1.349 . S
C788 C786 1.327 . S
C788 C807 1.429 . S
C788 H812 0.950 . S
C789 C806 1.574 . S
C789 C808 1.368 . S
C789 H813 0.949 . S
H790 C794 0.949 . S
C791 C792 1.349 . S
C791 C793 1.327 . S
C791 H814 0.950 . S
C792 C791 1.349 . S
C792 C804 1.349 . S
C793 C791 1.327 . S
C793 C809 1.429 . S
C793 H815 0.950 . S
C794 H790 0.949 . S
C794 C802 1.574 . S
C794 C810 1.368 . S
H795 C803 0.950 . S
H796 C801 0.950 . S
H797 C802 0.949 . S
H798 C804 0.950 . S
H799 C805 0.950 . S
H800 C806 0.949 . S
C801 H796 0.950 . S
C801 C803 1.327 1_556 S
C801 C807 1.429 . S
C802 C794 1.574 . S
C802 H797 0.949 . S
C802 C808 1.368 . S
C803 C787 1.349 . S
C803 H795 0.950 . S
C803 C801 1.327 1_554 S
C804 C792 1.349 . S
C804 H798 0.950 . S
C804 C805 1.327 . S
C805 H799 0.950 . S
C805 C804 1.327 . S
C805 C809 1.429 . S
C806 C789 1.574 . S
C806 H800 0.949 . S
C806 C810 1.368 . S
C807 C788 1.429 . S
C807 C801 1.429 . S
C807 C808 1.523 . S
C808 C789 1.368 . S
C808 C802 1.368 . S
C808 C807 1.523 . S
C809 C793 1.429 . S
C809 C805 1.429 . S
C809 C810 1.523 . S
C810 C794 1.368 . S
C810 C806 1.368 . S
C810 C809 1.523 . S
H811 C786 0.950 1_554 S
H812 C788 0.950 . S
H813 C789 0.949 . S
H814 C791 0.950 . S
H815 C793 0.950 . S
C816 C817 1.349 1_556 S
C816 C818 1.327 . S
C816 H841 0.950 . S
C817 C816 1.349 1_554 S
C817 C833 1.349 . S
C818 C816 1.327 . S
C818 C837 1.429 . S
C818 H842 0.950 . S
C819 C836 1.574 . S
C819 C838 1.368 . S
C819 H843 0.949 . S
H820 C824 0.949 . S
C821 C822 1.349 . S
C821 C823 1.327 . S
C821 H844 0.950 . S
C822 C821 1.349 . S
C822 C834 1.349 . S
C823 C821 1.327 . S
C823 C839 1.429 . S
C823 H845 0.950 . S
C824 H820 0.949 . S
C824 C832 1.574 . S
C824 C840 1.368 . S
H825 C833 0.950 . S
H826 C831 0.950 1_554 S
H827 C832 0.949 . S
H828 C834 0.950 . S
H829 C835 0.950 . S
H830 C836 0.949 . S
C831 H826 0.950 1_556 S
C831 C833 1.327 1_556 S
C831 C837 1.429 . S
C832 C824 1.574 . S
C832 H827 0.949 . S
C832 C838 1.368 . S
C833 C817 1.349 . S
C833 H825 0.950 . S
C833 C831 1.327 1_554 S
C834 C822 1.349 . S
C834 H828 0.950 . S
C834 C835 1.327 . S
C835 H829 0.950 . S
C835 C834 1.327 . S
C835 C839 1.429 . S
C836 C819 1.574 . S
C836 H830 0.949 . S
C836 C840 1.368 . S
C837 C818 1.429 . S
C837 C831 1.429 . S
C837 C838 1.523 . S
C838 C819 1.368 . S
C838 C832 1.368 . S
C838 C837 1.523 . S
C839 C823 1.429 . S
C839 C835 1.429 . S
C839 C840 1.523 . S
C840 C824 1.368 . S
C840 C836 1.368 . S
C840 C839 1.523 . S
H841 C816 0.950 . S
H842 C818 0.950 . S
H843 C819 0.949 . S
H844 C821 0.950 . S
H845 C823 0.950 . S
C846 C847 1.349 . S
C846 C848 1.327 . S
C846 H871 0.950 . S
C847 C846 1.349 . S
C847 C863 1.349 . S
C848 C846 1.327 . S
C848 C867 1.429 . S
C848 H872 0.950 . S
C849 C866 1.574 . S
C849 C868 1.368 . S
C849 H873 0.949 . S
H850 C854 0.949 . S
C851 C852 1.349 . S
C851 C853 1.327 . S
C851 H874 0.950 . S
C852 C851 1.349 . S
C852 C864 1.349 . S
C853 C851 1.327 . S
C853 C869 1.429 . S
C853 H875 0.950 . S
C854 H850 0.949 . S
C854 C862 1.574 . S
C854 C870 1.368 . S
H855 C863 0.950 . S
H856 C861 0.950 . S
H857 C862 0.949 . S
H858 C864 0.950 . S
H859 C865 0.950 . S
H860 C866 0.949 . S
C861 H856 0.950 . S
C861 C863 1.327 . S
C861 C867 1.429 . S
C862 C854 1.574 . S
C862 H857 0.949 . S
C862 C868 1.368 . S
C863 C847 1.349 . S
C863 H855 0.950 . S
C863 C861 1.327 . S
C864 C852 1.349 . S
C864 H858 0.950 . S
C864 C865 1.327 . S
C865 H859 0.950 . S
C865 C864 1.327 . S
C865 C869 1.429 . S
C866 C849 1.574 . S
C866 H860 0.949 . S
C866 C870 1.368 . S
C867 C848 1.429 . S
C867 C861 1.429 . S
C867 C868 1.523 . S
C868 C849 1.368 . S
C868 C862 1.368 . S
C868 C867 1.523 . S
C869 C853 1.429 . S
C869 C865 1.429 . S
C869 C870 1.523 . S
C870 C854 1.368 . S
C870 C866 1.368 . S
C870 C869 1.523 . S
H871 C846 0.950 . S
H872 C848 0.950 . S
H873 C849 0.949 . S
H874 C851 0.950 . S
H875 C853 0.950 . S
C876 C877 1.349 . S
C876 C878 1.327 . S
C876 H901 0.950 . S
C877 C876 1.349 . S
C877 C893 1.349 . S
C878 C876 1.327 . S
C878 C897 1.429 . S
C878 H902 0.950 . S
C879 C896 1.574 . S
C879 C898 1.368 . S
C879 H903 0.949 . S
H880 C884 0.949 . S
C881 C882 1.349 . S
C881 C883 1.327 . S
C881 H904 0.950 . S
C882 C881 1.349 . S
C882 C894 1.349 . S
C883 C881 1.327 . S
C883 C899 1.429 . S
C883 H905 0.950 . S
C884 H880 0.949 . S
C884 C892 1.574 . S
C884 C900 1.368 . S
H885 C893 0.950 . S
H886 C891 0.950 . S
H887 C892 0.949 . S
H888 C894 0.950 . S
H889 C895 0.950 . S
H890 C896 0.949 . S
C891 H886 0.950 . S
C891 C893 1.327 . S
C891 C897 1.429 . S
C892 C884 1.574 . S
C892 H887 0.949 . S
C892 C898 1.368 . S
C893 C877 1.349 . S
C893 H885 0.950 . S
C893 C891 1.327 . S
C894 C882 1.349 . S
C894 H888 0.950 . S
C894 C895 1.327 . S
C895 H889 0.950 . S
C895 C894 1.327 . S
C895 C899 1.429 . S
C896 C879 1.574 . S
C896 H890 0.949 . S
C896 C900 1.368 . S
C897 C878 1.429 . S
C897 C891 1.429 . S
C897 C898 1.523 . S
C898 C879 1.368 . S
C898 C892 1.368 . S
C898 C897 1.523 . S
C899 C883 1.429 . S
C899 C895 1.429 . S
C899 C900 1.523 . S
C900 C884 1.368 . S
C900 C896 1.368 . S
C900 C899 1.523 . S
H901 C876 0.950 . S
H902 C878 0.950 . S
H903 C879 0.949 . S
H904 C881 0.950 . S
H905 C883 0.950 . S
C906 C907 1.349 . S
C906 C908 1.327 . S
C906 H931 0.950 . S
C907 C906 1.349 . S
C907 C923 1.349 . S
C908 C906 1.327 . S
C908 C927 1.429 . S
C908 H932 0.950 . S
C909 C926 1.574 . S
C909 C928 1.368 . S
C909 H933 0.949 . S
H910 C914 0.949 . S
C911 C912 1.349 . S
C911 C913 1.327 . S
C911 H934 0.950 . S
C912 C911 1.349 . S
C912 C924 1.349 . S
C913 C911 1.327 . S
C913 C929 1.429 . S
C913 H935 0.950 . S
C914 H910 0.949 . S
C914 C922 1.574 . S
C914 C930 1.368 . S
H915 C923 0.950 . S
H916 C921 0.950 . S
H917 C922 0.949 . S
H918 C924 0.950 . S
H919 C925 0.950 . S
H920 C926 0.949 . S
C921 H916 0.950 . S
C921 C923 1.327 . S
C921 C927 1.429 . S
C922 C914 1.574 . S
C922 H917 0.949 . S
C922 C928 1.368 . S
C923 C907 1.349 . S
C923 H915 0.950 . S
C923 C921 1.327 . S
C924 C912 1.349 . S
C924 H918 0.950 . S
C924 C925 1.327 . S
C925 H919 0.950 . S
C925 C924 1.327 . S
C925 C929 1.429 . S
C926 C909 1.574 . S
C926 H920 0.949 . S
C926 C930 1.368 . S
C927 C908 1.429 . S
C927 C921 1.429 . S
C927 C928 1.523 . S
C928 C909 1.368 . S
C928 C922 1.368 . S
C928 C927 1.523 . S
C929 C913 1.429 . S
C929 C925 1.429 . S
C929 C930 1.523 . S
C930 C914 1.368 . S
C930 C926 1.368 . S
C930 C929 1.523 . S
H931 C906 0.950 . S
H932 C908 0.950 . S
H933 C909 0.949 . S
H934 C911 0.950 . S
H935 C913 0.950 . S
C936 C937 1.349 . S
C936 C938 1.327 . S
C936 H961 0.950 . S
C937 C936 1.349 . S
C937 C953 1.349 . S
C938 C936 1.327 . S
C938 C957 1.429 . S
C938 H962 0.950 . S
C939 C956 1.574 . S
C939 C958 1.368 . S
C939 H963 0.949 . S
H940 C944 0.949 . S
C941 C942 1.349 . S
C941 C943 1.327 . S
C941 H964 0.950 . S
C942 C941 1.349 . S
C942 C954 1.349 . S
C943 C941 1.327 . S
C943 C959 1.429 . S
C943 H965 0.950 . S
C944 H940 0.949 . S
C944 C952 1.574 . S
C944 C960 1.368 . S
H945 C953 0.923 1_554 S
H946 C951 0.950 . S
H947 C952 0.949 . S
H948 C954 0.950 . S
H949 C955 0.950 . S
H950 C956 0.949 . S
C951 H946 0.950 . S
C951 C953 1.327 . S
C951 C957 1.429 . S
C952 C944 1.574 . S
C952 H947 0.949 . S
C952 C958 1.368 . S
C953 C937 1.349 . S
C953 H945 0.923 1_556 S
C953 C951 1.327 . S
C954 C942 1.349 . S
C954 H948 0.950 . S
C954 C955 1.327 . S
C955 H949 0.950 . S
C955 C954 1.327 . S
C955 C959 1.429 . S
C956 C939 1.574 . S
C956 H950 0.949 . S
C956 C960 1.368 . S
C957 C938 1.429 . S
C957 C951 1.429 . S
C957 C958 1.523 . S
C958 C939 1.368 . S
C958 C952 1.368 . S
C958 C957 1.523 . S
C959 C943 1.429 . S
C959 C955 1.429 . S
C959 C960 1.523 . S
C960 C944 1.368 . S
C960 C956 1.368 . S
C960 C959 1.523 . S
H961 C936 0.950 . S
H962 C938 0.950 . S
H963 C939 0.949 . S
H964 C941 0.950 . S
H965 C943 0.950 . S
C966 C967 1.349 . S
C966 C968 1.327 . S
C966 H991 0.950 . S
C967 C966 1.349 . S
C967 C983 1.349 . S
C968 C966 1.327 . S
C968 C987 1.429 . S
C968 H992 0.950 . S
C969 C986 1.574 . S
C969 C988 1.368 . S
C969 H993 0.949 . S
H970 C974 0.949 . S
C971 C972 1.349 . S
C971 C973 1.327 . S
C971 H994 0.950 . S
C972 C971 1.349 . S
C972 C984 1.349 . S
C973 C971 1.327 . S
C973 C989 1.429 . S
C973 H995 0.950 . S
C974 H970 0.949 . S
C974 C982 1.574 . S
C974 C990 1.368 . S
H975 C983 0.950 . S
H976 C981 0.950 . S
H977 C982 0.949 . S
H978 C984 0.950 . S
H979 C985 0.950 . S
H980 C986 0.949 . S
C981 H976 0.950 . S
C981 C983 1.327 . S
C981 C987 1.429 . S
C982 C974 1.574 . S
C982 H977 0.949 . S
C982 C988 1.368 . S
C983 C967 1.349 . S
C983 H975 0.950 . S
C983 C981 1.327 . S
C984 C972 1.349 . S
C984 H978 0.950 . S
C984 C985 1.327 . S
C985 H979 0.950 . S
C985 C984 1.327 . S
C985 C989 1.429 . S
C986 C969 1.574 . S
C986 H980 0.949 . S
C986 C990 1.368 . S
C987 C968 1.429 . S
C987 C981 1.429 . S
C987 C988 1.523 . S
C988 C969 1.368 . S
C988 C982 1.368 . S
C988 C987 1.523 . S
C989 C973 1.429 . S
C989 C985 1.429 . S
C989 C990 1.523 . S
C990 C974 1.368 . S
C990 C986 1.368 . S
C990 C989 1.523 . S
H991 C966 0.950 . S
H992 C968 0.950 . S
H993 C969 0.949 . S
H994 C971 0.950 . S
H995 C973 0.950 . S
C996 C997 1.349 . S
C996 C998 1.327 . S
C996 H1021 0.950 . S
C997 C996 1.349 . S
C997 C1013 1.349 . S
C998 C996 1.327 . S
C998 C1017 1.429 . S
C998 H1022 0.950 . S
C999 C1016 1.574 . S
C999 C1018 1.368 . S
C999 H1023 0.949 . S
H1000 C1004 0.949 . S
C1001 C1002 1.349 . S
C1001 C1003 1.327 . S
C1001 H1024 0.950 . S
C1002 C1001 1.349 . S
C1002 C1014 1.349 . S
C1003 C1001 1.327 . S
C1003 C1019 1.429 . S
C1003 H1025 0.950 . S
C1004 H1000 0.949 . S
C1004 C1012 1.574 . S
C1004 C1020 1.368 . S
H1005 C1013 0.950 . S
H1006 C1011 0.950 . S
H1007 C1012 0.949 . S
H1008 C1014 0.950 . S
H1009 C1015 0.950 . S
H1010 C1016 0.949 . S
C1011 H1006 0.950 . S
C1011 C1013 1.327 . S
C1011 C1017 1.429 . S
C1012 C1004 1.574 . S
C1012 H1007 0.949 . S
C1012 C1018 1.368 . S
C1013 C997 1.349 . S
C1013 H1005 0.950 . S
C1013 C1011 1.327 . S
C1014 C1002 1.349 . S
C1014 H1008 0.950 . S
C1014 C1015 1.327 . S
C1015 H1009 0.950 . S
C1015 C1014 1.327 . S
C1015 C1019 1.429 . S
C1016 C999 1.574 . S
C1016 H1010 0.949 . S
C1016 C1020 1.368 . S
C1017 C998 1.429 . S
C1017 C1011 1.429 . S
C1017 C1018 1.523 . S
C1018 C999 1.368 . S
C1018 C1012 1.368 . S
C1018 C1017 1.523 . S
C1019 C1003 1.429 . S
C1019 C1015 1.429 . S
C1019 C1020 1.523 . S
C1020 C1004 1.368 . S
C1020 C1016 1.368 . S
C1020 C1019 1.523 . S
H1021 C996 0.950 . S
H1022 C998 0.950 . S
H1023 C999 0.949 . S
H1024 C1001 0.950 . S
H1025 C1003 0.950 . S
C1026 C1027 1.349 . S
C1026 C1028 1.327 . S
C1026 H1051 0.950 . S
C1027 C1026 1.349 . S
C1027 C1043 1.349 . S
C1028 C1026 1.327 . S
C1028 C1047 1.429 . S
C1028 H1052 0.950 . S
C1029 C1046 1.574 . S
C1029 C1048 1.368 . S
C1029 H1053 0.949 . S
H1030 C1034 0.949 . S
C1031 C1032 1.349 . S
C1031 C1033 1.327 . S
C1031 H1054 0.950 . S
C1032 C1031 1.349 . S
C1032 C1044 1.349 . S
C1033 C1031 1.327 . S
C1033 C1049 1.429 . S
C1033 H1055 0.950 . S
C1034 H1030 0.949 . S
C1034 C1042 1.574 . S
C1034 C1050 1.368 . S
H1035 C1043 0.950 . S
H1036 C1041 0.950 . S
H1037 C1042 0.949 . S
H1038 C1044 0.950 . S
H1039 C1045 0.950 . S
H1040 C1046 0.949 . S
C1041 H1036 0.950 . S
C1041 C1043 1.327 . S
C1041 C1047 1.429 . S
C1042 C1034 1.574 . S
C1042 H1037 0.949 . S
C1042 C1048 1.368 . S
C1043 C1027 1.349 . S
C1043 H1035 0.950 . S
C1043 C1041 1.327 . S
C1044 C1032 1.349 . S
C1044 H1038 0.950 . S
C1044 C1045 1.327 . S
C1045 H1039 0.950 . S
C1045 C1044 1.327 . S
C1045 C1049 1.429 . S
C1046 C1029 1.574 . S
C1046 H1040 0.949 . S
C1046 C1050 1.368 . S
C1047 C1028 1.429 . S
C1047 C1041 1.429 . S
C1047 C1048 1.523 . S
C1048 C1029 1.368 . S
C1048 C1042 1.368 . S
C1048 C1047 1.523 . S
C1049 C1033 1.429 . S
C1049 C1045 1.429 . S
C1049 C1050 1.523 . S
C1050 C1034 1.368 . S
C1050 C1046 1.368 . S
C1050 C1049 1.523 . S
H1051 C1026 0.950 . S
H1052 C1028 0.950 . S
H1053 C1029 0.949 . S
H1054 C1031 0.950 . S
H1055 C1033 0.950 . S
C1056 C1057 1.349 . S
C1056 C1058 1.327 1_455 S
C1056 H1081 0.950 . S
C1057 C1056 1.349 . S
C1057 C1073 1.349 . S
C1058 C1056 1.327 1_655 S
C1058 C1077 1.429 . S
C1058 H1082 0.950 . S
C1059 C1076 1.574 . S
C1059 C1078 1.368 . S
C1059 H1083 0.949 . S
H1060 C1064 0.949 . S
C1061 C1062 1.349 . S
C1061 C1063 1.327 . S
C1061 H1084 0.950 . S
C1062 C1061 1.349 . S
C1062 C1074 1.349 . S
C1063 C1061 1.327 . S
C1063 C1079 1.429 . S
C1063 H1085 0.950 . S
C1064 H1060 0.949 . S
C1064 C1072 1.574 . S
C1064 C1080 1.368 . S
H1065 C1073 0.950 . S
H1066 C1071 0.950 . S
H1067 C1072 0.949 . S
H1068 C1074 0.950 . S
H1069 C1075 0.950 . S
H1070 C1076 0.949 . S
C1071 H1066 0.950 . S
C1071 C1073 1.327 . S
C1071 C1077 1.429 1_455 S
C1072 C1064 1.574 . S
C1072 H1067 0.949 . S
C1072 C1078 1.368 . S
C1073 C1057 1.349 . S
C1073 H1065 0.950 . S
C1073 C1071 1.327 . S
C1074 C1062 1.349 . S
C1074 H1068 0.950 . S
C1074 C1075 1.327 . S
C1075 H1069 0.950 . S
C1075 C1074 1.327 . S
C1075 C1079 1.429 . S
C1076 C1059 1.574 . S
C1076 H1070 0.949 . S
C1076 C1080 1.368 . S
C1077 C1058 1.429 . S
C1077 C1071 1.429 1_655 S
C1077 C1078 1.523 . S
C1078 C1059 1.368 . S
C1078 C1072 1.368 . S
C1078 C1077 1.523 . S
C1079 C1063 1.429 . S
C1079 C1075 1.429 . S
C1079 C1080 1.523 . S
C1080 C1064 1.368 . S
C1080 C1076 1.368 . S
C1080 C1079 1.523 . S
H1081 C1056 0.950 . S
H1082 C1058 0.950 . S
H1083 C1059 0.949 . S
H1084 C1061 0.950 . S
H1085 C1063 0.950 . S
C1086 C1087 1.349 . S
C1086 C1088 1.327 . S
C1086 H1111 0.950 . S
C1087 C1086 1.349 . S
C1087 C1103 1.349 . S
C1088 C1086 1.327 . S
C1088 C1107 1.429 . S
C1088 H1112 0.950 . S
C1089 C1106 1.574 . S
C1089 C1108 1.368 . S
C1089 H1113 0.949 . S
H1090 C1094 0.949 . S
C1091 C1092 1.349 . S
C1091 C1093 1.327 . S
C1091 H1114 0.950 . S
C1092 C1091 1.349 . S
C1092 C1104 1.349 . S
C1093 C1091 1.327 . S
C1093 C1109 1.429 . S
C1093 H1115 0.950 . S
C1094 H1090 0.949 . S
C1094 C1102 1.574 . S
C1094 C1110 1.368 . S
H1095 C1103 0.950 . S
H1096 C1101 0.950 . S
H1097 C1102 0.949 . S
H1098 C1104 0.950 . S
H1099 C1105 0.950 . S
H1100 C1106 0.949 . S
C1101 H1096 0.950 . S
C1101 C1103 1.327 . S
C1101 C1107 1.429 . S
C1102 C1094 1.574 . S
C1102 H1097 0.949 . S
C1102 C1108 1.368 . S
C1103 C1087 1.349 . S
C1103 H1095 0.950 . S
C1103 C1101 1.327 . S
C1104 C1092 1.349 . S
C1104 H1098 0.950 . S
C1104 C1105 1.327 . S
C1105 H1099 0.950 . S
C1105 C1104 1.327 . S
C1105 C1109 1.429 . S
C1106 C1089 1.574 . S
C1106 H1100 0.949 . S
C1106 C1110 1.368 . S
C1107 C1088 1.429 . S
C1107 C1101 1.429 . S
C1107 C1108 1.523 . S
C1108 C1089 1.368 . S
C1108 C1102 1.368 . S
C1108 C1107 1.523 . S
C1109 C1093 1.429 . S
C1109 C1105 1.429 . S
C1109 C1110 1.523 . S
C1110 C1094 1.368 . S
C1110 C1106 1.368 . S
C1110 C1109 1.523 . S
H1111 C1086 0.950 . S
H1112 C1088 0.950 . S
H1113 C1089 0.949 . S
H1114 C1091 0.950 . S
H1115 C1093 0.950 . S
C1116 C1117 1.349 . S
C1116 C1118 1.327 . S
C1116 H1141 0.950 . S
C1117 C1116 1.349 . S
C1117 C1133 1.349 . S
C1118 C1116 1.327 . S
C1118 C1137 1.429 . S
C1118 H1142 0.950 . S
C1119 C1136 1.574 . S
C1119 C1138 1.368 . S
C1119 H1143 0.949 . S
H1120 C1124 0.949 . S
C1121 C1122 1.349 . S
C1121 C1123 1.327 . S
C1121 H1144 0.950 . S
C1122 C1121 1.349 . S
C1122 C1134 1.349 . S
C1123 C1121 1.327 . S
C1123 C1139 1.429 . S
C1123 H1145 0.950 . S
C1124 H1120 0.949 . S
C1124 C1132 1.574 . S
C1124 C1140 1.368 . S
H1125 C1133 0.950 . S
H1126 C1131 0.950 . S
H1127 C1132 0.949 . S
H1128 C1134 0.950 . S
H1129 C1135 0.950 . S
H1130 C1136 0.949 . S
C1131 H1126 0.950 . S
C1131 C1133 1.327 . S
C1131 C1137 1.429 . S
C1132 C1124 1.574 . S
C1132 H1127 0.949 . S
C1132 C1138 1.368 . S
C1133 C1117 1.349 . S
C1133 H1125 0.950 . S
C1133 C1131 1.327 . S
C1134 C1122 1.349 . S
C1134 H1128 0.950 . S
C1134 C1135 1.327 . S
C1135 H1129 0.950 . S
C1135 C1134 1.327 . S
C1135 C1139 1.429 . S
C1136 C1119 1.574 . S
C1136 H1130 0.949 . S
C1136 C1140 1.368 . S
C1137 C1118 1.429 . S
C1137 C1131 1.429 . S
C1137 C1138 1.523 . S
C1138 C1119 1.368 . S
C1138 C1132 1.368 . S
C1138 C1137 1.523 . S
C1139 C1123 1.429 . S
C1139 C1135 1.429 . S
C1139 C1140 1.523 . S
C1140 C1124 1.368 . S
C1140 C1136 1.368 . S
C1140 C1139 1.523 . S
H1141 C1116 0.950 . S
H1142 C1118 0.950 . S
H1143 C1119 0.949 . S
H1144 C1121 0.950 . S
H1145 C1123 0.950 . S
C1146 C1147 1.349 . S
C1146 C1148 1.327 . S
C1146 H1171 0.950 . S
C1147 C1146 1.349 . S
C1147 C1163 1.349 . S
C1148 C1146 1.327 . S
C1148 C1167 1.429 . S
C1148 H1172 0.950 . S
C1149 C1166 1.574 . S
C1149 C1168 1.368 . S
C1149 H1173 0.949 . S
H1150 C1154 0.949 . S
C1151 C1152 1.349 . S
C1151 C1153 1.327 . S
C1151 H1174 0.950 . S
C1152 C1151 1.349 . S
C1152 C1164 1.349 . S
C1153 C1151 1.327 . S
C1153 C1169 1.429 . S
C1153 H1175 0.950 . S
C1154 H1150 0.949 . S
C1154 C1162 1.574 . S
C1154 C1170 1.368 . S
H1155 C1163 0.950 . S
H1156 C1161 0.950 . S
H1157 C1162 0.949 . S
H1158 C1164 0.950 . S
H1159 C1165 0.950 . S
H1160 C1166 0.949 . S
C1161 H1156 0.950 . S
C1161 C1163 1.327 . S
C1161 C1167 1.429 . S
C1162 C1154 1.574 . S
C1162 H1157 0.949 . S
C1162 C1168 1.368 . S
C1163 C1147 1.349 . S
C1163 H1155 0.950 . S
C1163 C1161 1.327 . S
C1164 C1152 1.349 . S
C1164 H1158 0.950 . S
C1164 C1165 1.327 . S
C1165 H1159 0.950 . S
C1165 C1164 1.327 . S
C1165 C1169 1.429 . S
C1166 C1149 1.574 . S
C1166 H1160 0.949 . S
C1166 C1170 1.368 . S
C1167 C1148 1.429 . S
C1167 C1161 1.429 . S
C1167 C1168 1.523 . S
C1168 C1149 1.368 . S
C1168 C1162 1.368 . S
C1168 C1167 1.523 . S
C1169 C1153 1.429 . S
C1169 C1165 1.429 . S
C1169 C1170 1.523 . S
C1170 C1154 1.368 . S
C1170 C1166 1.368 . S
C1170 C1169 1.523 . S
H1171 C1146 0.950 . S
H1172 C1148 0.950 . S
H1173 C1149 0.949 . S
H1174 C1151 0.950 . S
H1175 C1153 0.950 . S
C457 C13 1.718 . S
C462 C137 1.631 . S
C487 C27 1.832 . S
C492 C181 1.769 . S
C522 C261 1.545 . S
C517 C29 1.618 . S
C552 C305 1.656 . S
C547 C54 1.714 . S
C582 C385 1.707 . S
C577 C69 1.806 . S
C612 C441 1.784 . S
C607 C83 1.931 . S
C637 C15 1.964 . S
C642 C237 1.751 . S
C667 C41 1.724 . S
C672 C317 1.616 . S
C702 C361 1.730 . S
C697 C42 1.905 . S
C732 C429 1.614 . S
C727 C57 1.654 . S
C757 C71 1.754 . S
C762 C113 1.586 . S
C792 C193 1.802 . S
C787 C1 1.904 . S
C822 C299 1.803 . S
C817 C12 1.904 . S
C847 C26 1.753 . S
C852 C379 1.585 . S
C882 C447 1.614 . S
C877 C28 1.654 . S
C907 C55 1.906 . S
C912 C131 1.730 . S
C937 C68 1.724 . S
C942 C175 1.615 . S
C967 C82 1.964 . S
C972 C255 1.751 . S
C997 C14 1.931 . S
C1002 C423 1.784 . S
C1032 C119 1.707 . S
C1027 C40 1.807 . S
C1057 C43 1.713 . S
C1062 C199 1.655 . S
C1087 C56 1.618 . S
C1092 C243 1.545 . S
C1117 C70 1.833 . S
C1122 C323 1.769 . S
C1147 C0 1.717 . S
C1152 C367 1.630 . S
