# Generated by pormake.
# Topology ptr, (4,4)-cn, num edge types: 1
# Building blocks:
#     Node 0, Type 0, BuildingBlock: QUQFOY_clean_sbu_3, # of connection points: 4
#     Node 1, Type 0, BuildingBlock: QUQFOY_clean_sbu_3, # of connection points: 4
#     Node 2, Type 0, BuildingBlock: QUQFOY_clean_sbu_3, # of connection points: 4
#     Node 3, Type 0, BuildingBlock: QUQFOY_clean_sbu_3, # of connection points: 4
#     Node 4, Type 0, BuildingBlock: QUQFOY_clean_sbu_3, # of connection points: 4
#     Node 5, Type 0, BuildingBlock: QUQFOY_clean_sbu_3, # of connection points: 4
#     Node 6, Type 0, BuildingBlock: QUQFOY_clean_sbu_3, # of connection points: 4
#     Node 7, Type 0, BuildingBlock: QUQFOY_clean_sbu_3, # of connection points: 4
#     Node 8, Type 0, BuildingBlock: QUQFOY_clean_sbu_3, # of connection points: 4
#     Node 9, Type 0, BuildingBlock: QUQFOY_clean_sbu_3, # of connection points: 4
#     Node 10, Type 0, BuildingBlock: QUQFOY_clean_sbu_3, # of connection points: 4
#     Node 11, Type 0, BuildingBlock: QUQFOY_clean_sbu_3, # of connection points: 4
#     Node 12, Type 0, BuildingBlock: QUQFOY_clean_sbu_3, # of connection points: 4
#     Node 13, Type 0, BuildingBlock: QUQFOY_clean_sbu_3, # of connection points: 4
#     Node 14, Type 0, BuildingBlock: QUQFOY_clean_sbu_3, # of connection points: 4
#     Node 15, Type 0, BuildingBlock: QUQFOY_clean_sbu_3, # of connection points: 4
#     Node 16, Type 0, BuildingBlock: QUQFOY_clean_sbu_3, # of connection points: 4
#     Node 17, Type 0, BuildingBlock: QUQFOY_clean_sbu_3, # of connection points: 4
#     Node 18, Type 1, BuildingBlock: MIFKUJ_clean_linker_1, # of connection points: 4
#     Node 19, Type 1, BuildingBlock: MIFKUJ_clean_linker_1, # of connection points: 4
#     Node 20, Type 1, BuildingBlock: MIFKUJ_clean_linker_1, # of connection points: 4
#     Node 21, Type 1, BuildingBlock: MIFKUJ_clean_linker_1, # of connection points: 4
#     Node 22, Type 1, BuildingBlock: MIFKUJ_clean_linker_1, # of connection points: 4
#     Node 23, Type 1, BuildingBlock: MIFKUJ_clean_linker_1, # of connection points: 4
#     Node 24, Type 1, BuildingBlock: MIFKUJ_clean_linker_1, # of connection points: 4
#     Node 25, Type 1, BuildingBlock: MIFKUJ_clean_linker_1, # of connection points: 4
#     Node 26, Type 1, BuildingBlock: MIFKUJ_clean_linker_1, # of connection points: 4
#     Node 27, Type 1, BuildingBlock: MIFKUJ_clean_linker_1, # of connection points: 4
#     Node 28, Type 1, BuildingBlock: MIFKUJ_clean_linker_1, # of connection points: 4
#     Node 29, Type 1, BuildingBlock: MIFKUJ_clean_linker_1, # of connection points: 4
#     Node 30, Type 1, BuildingBlock: MIFKUJ_clean_linker_1, # of connection points: 4
#     Node 31, Type 1, BuildingBlock: MIFKUJ_clean_linker_1, # of connection points: 4
#     Node 32, Type 1, BuildingBlock: MIFKUJ_clean_linker_1, # of connection points: 4
#     Node 33, Type 1, BuildingBlock: MIFKUJ_clean_linker_1, # of connection points: 4
#     Node 34, Type 1, BuildingBlock: MIFKUJ_clean_linker_1, # of connection points: 4
#     Node 35, Type 1, BuildingBlock: MIFKUJ_clean_linker_1, # of connection points: 4
#     Edge 36, Type (0, 1), BuildingBlock: XUDNAN_clean_linker_2, # of connection points: 2
#     Edge 37, Type (0, 1), BuildingBlock: XUDNAN_clean_linker_2, # of connection points: 2
#     Edge 38, Type (0, 1), BuildingBlock: XUDNAN_clean_linker_2, # of connection points: 2
#     Edge 39, Type (0, 1), BuildingBlock: XUDNAN_clean_linker_2, # of connection points: 2
#     Edge 40, Type (0, 1), BuildingBlock: XUDNAN_clean_linker_2, # of connection points: 2
#     Edge 41, Type (0, 1), BuildingBlock: XUDNAN_clean_linker_2, # of connection points: 2
#     Edge 42, Type (0, 1), BuildingBlock: XUDNAN_clean_linker_2, # of connection points: 2
#     Edge 43, Type (0, 1), BuildingBlock: XUDNAN_clean_linker_2, # of connection points: 2
#     Edge 44, Type (0, 1), BuildingBlock: XUDNAN_clean_linker_2, # of connection points: 2
#     Edge 45, Type (0, 1), BuildingBlock: XUDNAN_clean_linker_2, # of connection points: 2
#     Edge 46, Type (0, 1), BuildingBlock: XUDNAN_clean_linker_2, # of connection points: 2
#     Edge 47, Type (0, 1), BuildingBlock: XUDNAN_clean_linker_2, # of connection points: 2
#     Edge 48, Type (0, 1), BuildingBlock: XUDNAN_clean_linker_2, # of connection points: 2
#     Edge 49, Type (0, 1), BuildingBlock: XUDNAN_clean_linker_2, # of connection points: 2
#     Edge 50, Type (0, 1), BuildingBlock: XUDNAN_clean_linker_2, # of connection points: 2
#     Edge 51, Type (0, 1), BuildingBlock: XUDNAN_clean_linker_2, # of connection points: 2
#     Edge 52, Type (0, 1), BuildingBlock: XUDNAN_clean_linker_2, # of connection points: 2
#     Edge 53, Type (0, 1), BuildingBlock: XUDNAN_clean_linker_2, # of connection points: 2
#     Edge 54, Type (0, 1), BuildingBlock: XUDNAN_clean_linker_2, # of connection points: 2
#     Edge 55, Type (0, 1), BuildingBlock: XUDNAN_clean_linker_2, # of connection points: 2
#     Edge 56, Type (0, 1), BuildingBlock: XUDNAN_clean_linker_2, # of connection points: 2
#     Edge 57, Type (0, 1), BuildingBlock: XUDNAN_clean_linker_2, # of connection points: 2
#     Edge 58, Type (0, 1), BuildingBlock: XUDNAN_clean_linker_2, # of connection points: 2
#     Edge 59, Type (0, 1), BuildingBlock: XUDNAN_clean_linker_2, # of connection points: 2
#     Edge 60, Type (0, 1), BuildingBlock: XUDNAN_clean_linker_2, # of connection points: 2
#     Edge 61, Type (0, 1), BuildingBlock: XUDNAN_clean_linker_2, # of connection points: 2
#     Edge 62, Type (0, 1), BuildingBlock: XUDNAN_clean_linker_2, # of connection points: 2
#     Edge 63, Type (0, 1), BuildingBlock: XUDNAN_clean_linker_2, # of connection points: 2
#     Edge 64, Type (0, 1), BuildingBlock: XUDNAN_clean_linker_2, # of connection points: 2
#     Edge 65, Type (0, 1), BuildingBlock: XUDNAN_clean_linker_2, # of connection points: 2
#     Edge 66, Type (0, 1), BuildingBlock: XUDNAN_clean_linker_2, # of connection points: 2
#     Edge 67, Type (0, 1), BuildingBlock: XUDNAN_clean_linker_2, # of connection points: 2
#     Edge 68, Type (0, 1), BuildingBlock: XUDNAN_clean_linker_2, # of connection points: 2
#     Edge 69, Type (0, 1), BuildingBlock: XUDNAN_clean_linker_2, # of connection points: 2
#     Edge 70, Type (0, 1), BuildingBlock: XUDNAN_clean_linker_2, # of connection points: 2
#     Edge 71, Type (0, 1), BuildingBlock: XUDNAN_clean_linker_2, # of connection points: 2
#     Edge 72, Type (0, 1), BuildingBlock: XUDNAN_clean_linker_2, # of connection points: 2
#     Edge 73, Type (0, 1), BuildingBlock: XUDNAN_clean_linker_2, # of connection points: 2
#     Edge 74, Type (0, 1), BuildingBlock: XUDNAN_clean_linker_2, # of connection points: 2
#     Edge 75, Type (0, 1), BuildingBlock: XUDNAN_clean_linker_2, # of connection points: 2
#     Edge 76, Type (0, 1), BuildingBlock: XUDNAN_clean_linker_2, # of connection points: 2
#     Edge 77, Type (0, 1), BuildingBlock: XUDNAN_clean_linker_2, # of connection points: 2
#     Edge 78, Type (0, 1), BuildingBlock: XUDNAN_clean_linker_2, # of connection points: 2
#     Edge 79, Type (0, 1), BuildingBlock: XUDNAN_clean_linker_2, # of connection points: 2
#     Edge 80, Type (0, 1), BuildingBlock: XUDNAN_clean_linker_2, # of connection points: 2
#     Edge 81, Type (0, 1), BuildingBlock: XUDNAN_clean_linker_2, # of connection points: 2
#     Edge 82, Type (0, 1), BuildingBlock: XUDNAN_clean_linker_2, # of connection points: 2
#     Edge 83, Type (0, 1), BuildingBlock: XUDNAN_clean_linker_2, # of connection points: 2
#     Edge 84, Type (0, 1), BuildingBlock: XUDNAN_clean_linker_2, # of connection points: 2
#     Edge 85, Type (0, 1), BuildingBlock: XUDNAN_clean_linker_2, # of connection points: 2
#     Edge 86, Type (0, 1), BuildingBlock: XUDNAN_clean_linker_2, # of connection points: 2
#     Edge 87, Type (0, 1), BuildingBlock: XUDNAN_clean_linker_2, # of connection points: 2
#     Edge 88, Type (0, 1), BuildingBlock: XUDNAN_clean_linker_2, # of connection points: 2
#     Edge 89, Type (0, 1), BuildingBlock: XUDNAN_clean_linker_2, # of connection points: 2
#     Edge 90, Type (0, 1), BuildingBlock: XUDNAN_clean_linker_2, # of connection points: 2
#     Edge 91, Type (0, 1), BuildingBlock: XUDNAN_clean_linker_2, # of connection points: 2
#     Edge 92, Type (0, 1), BuildingBlock: XUDNAN_clean_linker_2, # of connection points: 2
#     Edge 93, Type (0, 1), BuildingBlock: XUDNAN_clean_linker_2, # of connection points: 2
#     Edge 94, Type (0, 1), BuildingBlock: XUDNAN_clean_linker_2, # of connection points: 2
#     Edge 95, Type (0, 1), BuildingBlock: XUDNAN_clean_linker_2, # of connection points: 2
#     Edge 96, Type (0, 1), BuildingBlock: XUDNAN_clean_linker_2, # of connection points: 2
#     Edge 97, Type (0, 1), BuildingBlock: XUDNAN_clean_linker_2, # of connection points: 2
#     Edge 98, Type (0, 1), BuildingBlock: XUDNAN_clean_linker_2, # of connection points: 2
#     Edge 99, Type (0, 1), BuildingBlock: XUDNAN_clean_linker_2, # of connection points: 2
#     Edge 100, Type (0, 1), BuildingBlock: XUDNAN_clean_linker_2, # of connection points: 2
#     Edge 101, Type (0, 1), BuildingBlock: XUDNAN_clean_linker_2, # of connection points: 2
#     Edge 102, Type (0, 1), BuildingBlock: XUDNAN_clean_linker_2, # of connection points: 2
#     Edge 103, Type (0, 1), BuildingBlock: XUDNAN_clean_linker_2, # of connection points: 2
#     Edge 104, Type (0, 1), BuildingBlock: XUDNAN_clean_linker_2, # of connection points: 2
#     Edge 105, Type (0, 1), BuildingBlock: XUDNAN_clean_linker_2, # of connection points: 2
#     Edge 106, Type (0, 1), BuildingBlock: XUDNAN_clean_linker_2, # of connection points: 2
#     Edge 107, Type (0, 1), BuildingBlock: XUDNAN_clean_linker_2, # of connection points: 2
# Relax obj value: 0.033
# Max RMSD: 0.122
# Mean RMSD: 0.057
data_MOF--net-ptr--node1-QUQFOY_clean_sbu_3--node2-MIFKUJ_clean_linker_1--edge1-XUDNAN_clean_linker_2
_symmetry_space_group_name_H-M    P1
_symmetry_Int_Tables_number       1
_symmetry_cell_setting            triclinic
loop_
_symmetry_equiv_pos_as_xyz
'x, y, z'
_cell_length_a     90.420165
_cell_length_b     90.83895
_cell_length_c     62.682005
_cell_angle_alpha  90.408071
_cell_angle_beta   89.501894
_cell_angle_gamma 120.57305
loop_
_atom_site_label
_atom_site_type_symbol
_atom_site_fract_x
_atom_site_fract_y
_atom_site_fract_z
_atom_type_partial_charge
C0 C 0.9711 0.31967 0.99044 0.0
O1 O 0.96144 0.32529 0.99647 0.0
Cd2 Cd 0.9727 0.35227 0.01454 0.0
O3 O 0.98686 0.32732 0.9958 0.0
Cd4 Cd 0.00792 0.3513 0.01839 0.0
C5 C 0.00747 0.37789 0.98135 0.0
O6 O 0.98792 0.35126 0.04484 0.0
O7 O 0.01369 0.37294 0.04567 0.0
O8 O 0.01278 0.32942 0.03258 0.0
C9 C -0.00133 0.36527 0.05358 0.0
O10 O 0.99258 0.3733 0.9888 0.0
C11 C 0.02906 0.33811 0.03194 0.0
O12 O 0.01611 0.37146 0.98853 0.0
O13 O 0.03585 0.35325 0.02471 0.0
C14 C 0.64629 0.69161 0.02705 0.0
O15 O 0.63006 0.6846 0.02625 0.0
Cd16 Cd 0.61315 0.65679 0.01043 0.0
O17 O 0.65375 0.68436 0.01847 0.0
Cd18 Cd 0.64789 0.65902 0.99718 0.0
C19 C 0.62694 0.63386 0.03929 0.0
O20 O 0.62464 0.65725 0.97533 0.0
O21 O 0.62906 0.63604 0.97307 0.0
O22 O 0.67333 0.68054 0.97861 0.0
C23 C 0.62097 0.64315 0.96657 0.0
O24 O 0.61533 0.63747 0.03545 0.0
C25 C 0.68101 0.67212 0.97812 0.0
O26 O 0.64066 0.64029 0.02816 0.0
O27 O 0.67313 0.65723 0.98618 0.0
C28 C 0.31013 0.9629 0.02247 0.0
O29 O 0.31445 0.95195 0.0179 0.0
Cd30 Cd 0.34184 0.9593 0.00281 0.0
O31 O 0.31994 0.97861 0.01781 0.0
Cd32 Cd 0.34757 0.99682 0.99906 0.0
C33 C 0.36865 0.99008 0.03868 0.0
O34 O 0.34546 0.97621 0.97199 0.0
O35 O 0.36992 -0.00041 0.97455 0.0
O36 O 0.33346 0.01063 0.9825 0.0
C37 C 0.36064 0.98553 0.96495 0.0
O38 O 0.36302 0.97525 0.03067 0.0
C39 C 0.34552 0.02577 0.98628 0.0
O40 O 0.3643 0.00025 0.03096 0.0
O41 O 0.35845 0.02743 0.99628 0.0
C42 C 0.94835 0.6317 0.99561 0.0
O43 O 0.94352 0.61648 0.00114 0.0
Cd44 Cd 0.96035 0.60651 0.0176 0.0
O45 O 0.96379 0.64377 0.99868 0.0
Cd46 Cd 0.99036 0.64643 0.0149 0.0
C47 C 0.99228 0.61828 0.98002 0.0
O48 O 0.97521 0.62766 0.0442 0.0
O49 O 0.00191 0.63537 0.04256 0.0
O50 O -0.00085 0.67414 0.0316 0.0
C51 C 0.9877 0.6273 0.05247 0.0
O52 O 0.97927 0.60639 0.98968 0.0
C53 C 0.01335 0.68221 0.02162 0.0
O54 O -0.0016 0.63386 0.98542 0.0
O55 O 0.01666 0.67373 0.00818 0.0
C56 C 0.32565 0.35302 0.02879 0.0
O57 O 0.33254 0.36896 0.02542 0.0
Cd58 Cd 0.35973 0.38563 0.00756 0.0
O59 O 0.33296 0.34495 0.02234 0.0
Cd60 Cd 0.35914 0.35073 0.00266 0.0
C61 C 0.38593 0.37891 0.03998 0.0
O62 O 0.35855 0.37013 0.97574 0.0
O63 O 0.37986 0.36561 0.97437 0.0
O64 O 0.34132 0.32233 0.98698 0.0
C65 C 0.37204 0.37247 0.96631 0.0
O66 O 0.38152 0.38925 0.03306 0.0
C67 C 0.35172 0.31723 0.99098 0.0
O68 O 0.37928 0.36385 0.03234 0.0
O69 O 0.36537 0.3276 0.00083 0.0
C70 C 0.68532 0.0526 0.00395 0.0
O71 O 0.67559 0.05811 0.01004 0.0
Cd72 Cd 0.64804 0.04085 0.02586 0.0
O73 O 0.68118 0.03712 0.00728 0.0
Cd74 Cd 0.65774 0.01162 0.02634 0.0
C75 C 0.62927 0.00772 0.98902 0.0
O76 O 0.65304 0.02717 0.0547 0.0
O77 O 0.6335 0.0006 0.05201 0.0
O78 O 0.68037 0.00986 0.04413 0.0
C79 C 0.63959 0.01454 0.0623 0.0
O80 O 0.63029 0.02081 0.99808 0.0
C81 C 0.67467 0.99412 0.04059 0.0
O82 O 0.63848 0.00167 0.9953 0.0
O83 O 0.66112 0.98628 0.02944 0.0
C84 C 0.63517 0.65896 0.33234 0.0
O85 O 0.62686 0.66673 0.33406 0.0
Cd86 Cd 0.64021 0.69585 0.34704 0.0
O87 O 0.65099 0.66649 0.33725 0.0
Cd88 Cd 0.67375 0.69476 0.34997 0.0
C89 C 0.67044 0.71717 0.30872 0.0
O90 O 0.65771 0.70018 0.37815 0.0
O91 O 0.68329 0.72073 0.37026 0.0
O92 O 0.68595 0.68119 0.37154 0.0
C93 C 0.67017 0.7151 0.38225 0.0
O94 O 0.65654 0.71447 0.3175 0.0
C95 C 0.70012 0.68772 0.36146 0.0
O96 O 0.67878 0.71062 0.31644 0.0
O97 O 0.70206 0.69758 0.34606 0.0
C98 C 0.30503 0.00771 0.36634 0.0
O99 O 0.28882 0.00099 0.36734 0.0
Cd100 Cd 0.26848 0.97401 0.35214 0.0
O101 O 0.31166 -0.00015 0.35711 0.0
Cd102 Cd 0.30011 0.97153 0.33897 0.0
C103 C 0.27687 0.94799 0.38167 0.0
O104 O 0.27913 0.974 0.31682 0.0
O105 O 0.27812 0.94984 0.31538 0.0
O106 O 0.3273 0.98465 0.31851 0.0
C107 C 0.27305 0.95946 0.30807 0.0
O108 O 0.26576 0.95203 0.3768 0.0
C109 C 0.32889 0.97156 0.31971 0.0
O110 O 0.29098 0.95429 0.37142 0.0
O111 O 0.31745 0.95893 0.33017 0.0
C112 C 0.98574 0.29675 0.36334 0.0
O113 O 0.99192 0.28729 0.35883 0.0
Cd114 Cd 0.01909 0.29806 0.34131 0.0
O115 O 0.99313 0.31219 0.35699 0.0
Cd116 Cd 0.01762 0.33217 0.33425 0.0
C117 C 0.04433 0.33379 0.37251 0.0
O118 O 0.01689 0.31103 0.30942 0.0
O119 O 0.03887 0.33652 0.3069 0.0
O120 O 0.99681 0.33817 0.31877 0.0
C121 C 0.03068 0.32135 0.29975 0.0
O122 O 0.04008 0.31872 0.36648 0.0
C123 C 0.0064 0.35432 0.31919 0.0
O124 O 0.0377 0.34173 0.36392 0.0
O125 O 0.02133 0.3603 0.32694 0.0
C126 C 0.61797 0.96793 0.34455 0.0
O127 O 0.60946 0.95271 0.35147 0.0
Cd128 Cd 0.62337 0.9392 0.36836 0.0
O129 O 0.63424 0.97662 0.34643 0.0
Cd130 Cd 0.65898 0.97524 0.3603 0.0
C131 C 0.65034 0.94244 0.32676 0.0
O132 O 0.64394 0.95963 0.39274 0.0
O133 O 0.67007 0.96527 0.38831 0.0
O134 O 0.66736 0.00479 0.36658 0.0
C135 C 0.65658 0.9587 0.39969 0.0
O136 O 0.63729 0.9337 0.33868 0.0
C137 C 0.68327 0.01096 0.36309 0.0
O138 O 0.66052 0.95833 0.33026 0.0
O139 O 0.68811 0.00052 0.35784 0.0
C140 C 0.99137 0.69352 0.36326 0.0
O141 O -0.00028 0.70971 0.36216 0.0
Cd142 Cd 0.02875 0.72444 0.34856 0.0
O143 O -0.00175 0.68492 0.35749 0.0
Cd144 Cd 0.02554 0.6891 0.3433 0.0
C145 C 0.04815 0.71257 0.38574 0.0
O146 O 0.03074 0.71085 0.31623 0.0
O147 O 0.05104 0.70538 0.32175 0.0
O148 O 0.00548 0.66307 0.3249 0.0
C149 C 0.04525 0.71296 0.31072 0.0
O150 O 0.04647 0.72437 0.37743 0.0
C151 C 0.01378 0.65542 0.32752 0.0
O152 O 0.04086 0.69767 0.37747 0.0
O153 O 0.02777 0.66339 0.33778 0.0
C154 C 0.35752 0.37394 0.32207 0.0
O155 O 0.35059 0.38295 0.32494 0.0
Cd156 Cd 0.32448 0.37326 0.34501 0.0
O157 O 0.35089 0.35911 0.33031 0.0
Cd158 Cd 0.32639 0.33932 0.35332 0.0
C159 C 0.2978 0.33662 0.31657 0.0
O160 O 0.32785 0.36138 0.37714 0.0
O161 O 0.30578 0.33617 0.38125 0.0
O162 O 0.34753 0.33381 0.36894 0.0
C163 C 0.31425 0.35159 0.38748 0.0
O164 O 0.30159 0.35147 0.32297 0.0
C165 C 0.33814 0.31764 0.36935 0.0
O166 O 0.30572 0.32941 0.32367 0.0
O167 O 0.32303 0.31127 0.362 0.0
C168 C 0.30941 0.98742 0.66518 0.0
O169 O 0.30024 0.99371 0.67074 0.0
Cd170 Cd 0.31332 0.02318 0.68173 0.0
O171 O 0.32564 0.99609 0.66737 0.0
Cd172 Cd 0.34767 0.02393 0.68232 0.0
C173 C 0.34201 0.04385 0.64086 0.0
O174 O 0.33218 0.02918 0.71154 0.0
O175 O 0.3563 0.05048 0.70057 0.0
O176 O 0.35911 0.00885 0.70207 0.0
C177 C 0.34411 0.04462 0.71404 0.0
O178 O 0.32825 0.04071 0.6505 0.0
C179 C 0.37449 0.01824 0.69568 0.0
O180 O 0.35139 0.03835 0.64825 0.0
O181 O 0.37733 0.03002 0.68257 0.0
C182 C 0.9825 0.34831 0.6915 0.0
O183 O 0.96655 0.34176 0.68802 0.0
Cd184 Cd 0.94897 0.31461 0.67104 0.0
O185 O 0.9905 0.34094 0.68489 0.0
Cd186 Cd 0.98387 0.31501 0.66359 0.0
C187 C 0.95737 0.28878 0.70225 0.0
O188 O 0.96335 0.31531 0.6385 0.0
O189 O 0.96482 0.29239 0.63876 0.0
O190 O 0.01161 0.3311 0.6449 0.0
C191 C 0.95865 0.30076 0.63043 0.0
O192 O 0.94646 0.2927 0.69595 0.0
C193 C 0.0162 0.32029 0.64879 0.0
O194 O 0.97235 0.29585 0.69405 0.0
O195 O 0.00588 0.30732 0.65972 0.0
C196 C 0.65394 0.6235 0.6798 0.0
O197 O 0.66455 0.61916 0.67336 0.0
Cd198 Cd 0.69325 0.63893 0.66127 0.0
O199 O 0.6578 0.63907 0.67927 0.0
Cd200 Cd 0.68208 0.66689 0.66748 0.0
C201 C 0.70843 0.66585 0.70468 0.0
O202 O 0.69109 0.6573 0.63617 0.0
O203 O 0.70855 0.68312 0.64668 0.0
O204 O 0.66317 0.67466 0.64975 0.0
C205 C 0.70484 0.67142 0.63298 0.0
O206 O 0.70955 0.65514 0.69256 0.0
C207 C 0.66733 0.68775 0.66123 0.0
O208 O 0.69838 0.67135 0.70022 0.0
O209 O 0.67816 0.69099 0.67593 0.0
C210 C 0.29469 0.31364 0.65728 0.0
O211 O 0.28483 0.29753 0.65828 0.0
Cd212 Cd 0.29273 0.27831 0.67351 0.0
O213 O 0.3099 0.32071 0.66461 0.0
Cd214 Cd 0.32876 0.31208 0.68223 0.0
C215 C 0.32661 0.28583 0.64149 0.0
O216 O 0.30694 0.29124 0.7065 0.0
O217 O 0.33169 0.2931 0.70712 0.0
O218 O 0.34233 0.33852 0.70338 0.0
C219 C 0.31662 0.28654 0.71475 0.0
O220 O 0.31122 0.27536 0.64725 0.0
C221 C 0.35731 0.34383 0.69591 0.0
O222 O 0.33533 0.30018 0.65089 0.0
O223 O 0.35891 0.33434 0.68225 0.0
C224 C 0.66167 0.03313 0.69523 0.0
O225 O 0.67253 0.04791 0.6883 0.0
Cd226 Cd 0.6973 0.05523 0.6667 0.0
O227 O 0.66324 0.02024 0.69095 0.0
Cd228 Cd 0.68395 0.01459 0.67159 0.0
C229 C 0.71769 0.04326 0.70237 0.0
O230 O 0.68795 0.0327 0.64125 0.0
O231 O 0.70368 0.02112 0.64111 0.0
O232 O 0.66144 0.98656 0.65884 0.0
C233 C 0.69905 0.03043 0.63177 0.0
O234 O 0.71735 0.05514 0.69213 0.0
C235 C 0.66749 0.97832 0.66791 0.0
O236 O 0.7067 0.02761 0.69866 0.0
O237 O 0.68083 0.98689 0.6792 0.0
C238 C 0.0036 0.70131 0.66522 0.0
O239 O 0.9926 0.70521 0.67134 0.0
Cd240 Cd 0.96516 0.68577 0.68605 0.0
O241 O 0.00088 0.6862 0.66786 0.0
Cd242 Cd 0.97821 0.65861 0.68402 0.0
C243 C 0.95079 0.65555 0.6455 0.0
O244 O 0.96961 0.67046 0.71342 0.0
O245 O 0.95316 0.64348 0.70755 0.0
O246 O 0.00148 0.65779 0.70175 0.0
C247 C 0.95665 0.65639 0.719 0.0
O248 O 0.95058 0.66765 0.65561 0.0
C249 C 0.99668 0.64236 0.69725 0.0
O250 O 0.96005 0.64952 0.65172 0.0
O251 O 0.98351 0.63443 0.68546 0.0
H252 H 0.14707 0.32894 0.19444 0.0
H253 H 0.12315 0.32724 0.2146 0.0
H254 H 0.0875 0.28479 0.17521 0.0
H255 H 0.11164 0.28584 0.15603 0.0
H256 H 0.15792 0.30791 0.19181 0.0
H257 H 0.13842 0.33307 0.14105 0.0
H258 H 0.11673 0.3346 0.11973 0.0
H259 H 0.10698 0.2891 0.08543 0.0
H260 H 0.12835 0.28737 0.10728 0.0
H261 H 0.17499 0.28667 0.11295 0.0
H262 H 0.20005 0.28981 0.0935 0.0
H263 H 0.23264 0.33668 0.12795 0.0
H264 H 0.20753 0.33377 0.14668 0.0
H265 H 0.1624 0.30874 0.11284 0.0
H266 H 0.18105 0.28351 0.17009 0.0
H267 H 0.20212 0.28375 0.19455 0.0
H268 H 0.21664 0.33514 0.21416 0.0
H269 H 0.19483 0.33423 0.19077 0.0
C270 C 0.13119 0.3076 0.17361 0.0
C271 C 0.1341 0.31923 0.19017 0.0
C272 C 0.12036 0.31837 0.20152 0.0
C273 C 0.10333 0.30594 0.19645 0.0
C274 C 0.10043 0.29441 0.17969 0.0
C275 C 0.11422 0.29514 0.16851 0.0
C276 C 0.14596 0.3082 0.1623 0.0
C277 C 0.15891 0.30823 0.17453 0.0
C278 C 0.14728 0.30849 0.13975 0.0
C279 C 0.1348 0.30995 0.12599 0.0
C280 C 0.13157 0.3234 0.12897 0.0
C281 C 0.1193 0.32436 0.11662 0.0
C282 C 0.11007 0.31192 0.10094 0.0
C283 C 0.11369 0.29873 0.09759 0.0
C284 C 0.12598 0.29779 0.10995 0.0
C285 C 0.18944 0.30987 0.13142 0.0
C286 C 0.18756 0.29757 0.11632 0.0
C287 C 0.20189 0.29933 0.10534 0.0
C288 C 0.21832 0.31349 0.1092 0.0
C289 C 0.22014 0.32572 0.12446 0.0
C290 C 0.20583 0.32396 0.13538 0.0
C291 C 0.17422 0.30843 0.14241 0.0
C292 C 0.16122 0.30825 0.13009 0.0
C293 C 0.17303 0.30845 0.16488 0.0
C294 C 0.18637 0.30882 0.17876 0.0
C295 C 0.1888 0.29478 0.17975 0.0
C296 C 0.20096 0.29501 0.19365 0.0
C297 C 0.21109 0.30941 0.20659 0.0
C298 C 0.20882 0.32361 0.20502 0.0
C299 C 0.19645 0.32321 0.19148 0.0
H300 H 0.71987 0.89136 0.19777 0.0
H301 H 0.70938 0.90448 0.22355 0.0
H302 H 0.66526 0.88997 0.18376 0.0
H303 H 0.67521 0.87624 0.15886 0.0
H304 H 0.70316 0.85806 0.19046 0.0
H305 H 0.72835 0.90541 0.13896 0.0
H306 H 0.7286 0.92914 0.12079 0.0
H307 H 0.67659 0.89486 0.09934 0.0
H308 H 0.67726 0.87103 0.11597 0.0
H309 H 0.67744 0.82723 0.10986 0.0
H310 H 0.67263 0.80232 0.08934 0.0
H311 H 0.71703 0.805 0.11871 0.0
H312 H 0.72231 0.83056 0.13838 0.0
H313 H 0.7021 0.85933 0.11139 0.0
H314 H 0.67669 0.81221 0.16234 0.0
H315 H 0.67448 0.78861 0.18357 0.0
H316 H 0.72494 0.82245 0.20933 0.0
H317 H 0.72712 0.84594 0.18792 0.0
C318 C 0.69847 0.88298 0.17618 0.0
C319 C 0.70815 0.89138 0.19439 0.0
C320 C 0.7022 0.89894 0.20904 0.0
C321 C 0.68642 0.89808 0.20575 0.0
C322 C 0.67738 0.89067 0.18683 0.0
C323 C 0.68323 0.88305 0.17235 0.0
C324 C 0.70255 0.87185 0.16296 0.0
C325 C 0.70351 0.85866 0.17316 0.0
C326 C 0.7026 0.87233 0.14043 0.0
C327 C 0.70276 0.88655 0.12888 0.0
C328 C 0.71711 0.90306 0.1301 0.0
C329 C 0.71711 0.91666 0.11985 0.0
C330 C 0.7025 0.91415 0.10872 0.0
C331 C 0.68822 0.89742 0.10735 0.0
C332 C 0.68848 0.88373 0.11702 0.0
C333 C 0.70013 0.83068 0.12583 0.0
C334 C 0.68628 0.8226 0.11168 0.0
C335 C 0.68342 0.80821 0.10015 0.0
C336 C 0.6943 0.80151 0.10259 0.0
C337 C 0.70845 0.80987 0.11637 0.0
C338 C 0.71139 0.82439 0.12779 0.0
C339 C 0.70226 0.84528 0.13893 0.0
C340 C 0.7024 0.85905 0.12868 0.0
C341 C 0.70316 0.84527 0.16147 0.0
C342 C 0.70213 0.83077 0.17345 0.0
C343 C 0.68734 0.81447 0.17237 0.0
C344 C 0.68606 0.80105 0.1846 0.0
C345 C 0.69955 0.80368 0.19808 0.0
C346 C 0.71443 0.81997 0.19888 0.0
C347 C 0.71565 0.83342 0.18679 0.0
H348 H 0.10299 0.83082 0.18115 0.0
H349 H 0.08862 0.80669 0.20567 0.0
H350 H 0.10729 0.77916 0.16849 0.0
H351 H 0.12254 0.80363 0.14505 0.0
H352 H 0.13582 0.84927 0.17838 0.0
H353 H 0.09258 0.81871 0.1246 0.0
H354 H 0.07363 0.7948 0.10127 0.0
H355 H 0.11782 0.79431 0.07524 0.0
H356 H 0.13657 0.81827 0.09818 0.0
H357 H 0.17901 0.85915 0.1128 0.0
H358 H 0.2056 0.88053 0.09596 0.0
H359 H 0.19002 0.91812 0.10389 0.0
H360 H 0.16383 0.89667 0.12218 0.0
H361 H 0.14356 0.84933 0.09999 0.0
H362 H 0.18437 0.87148 0.15729 0.0
H363 H 0.20541 0.89249 0.18191 0.0
H364 H 0.16809 0.90586 0.20298 0.0
H365 H 0.14723 0.88512 0.17773 0.0
C366 C 0.11379 0.81908 0.16111 0.0
C367 C 0.10372 0.81945 0.17807 0.0
C368 C 0.09541 0.80559 0.19202 0.0
C369 C 0.09699 0.79107 0.18921 0.0
C370 C 0.10608 0.79027 0.17135 0.0
C371 C 0.11456 0.80419 0.15764 0.0
C372 C 0.12561 0.83494 0.14922 0.0
C373 C 0.13706 0.84945 0.16114 0.0
C374 C 0.12768 0.83507 0.12677 0.0
C375 C 0.116 0.82035 0.11307 0.0
C376 C 0.09814 0.8134 0.11388 0.0
C377 C 0.08733 0.79971 0.10057 0.0
C378 C 0.09421 0.79272 0.08622 0.0
C379 C 0.1121 0.79962 0.08569 0.0
C380 C 0.12285 0.8133 0.09888 0.0
C381 C 0.16951 0.87637 0.1186 0.0
C382 C 0.18136 0.87201 0.11086 0.0
C383 C 0.19651 0.88427 0.10105 0.0
C384 C 0.19996 0.9011 0.0982 0.0
C385 C 0.18795 0.90539 0.10598 0.0
C386 C 0.1729 0.89314 0.11627 0.0
C387 C 0.15373 0.86316 0.12927 0.0
C388 C 0.14168 0.84929 0.11712 0.0
C389 C 0.15128 0.86341 0.1515 0.0
C390 C 0.16434 0.87697 0.16541 0.0
C391 C 0.18085 0.87921 0.16685 0.0
C392 C 0.19278 0.89107 0.18114 0.0
C393 C 0.18841 0.90082 0.19445 0.0
C394 C 0.17193 0.89871 0.19277 0.0
C395 C 0.15997 0.88682 0.17844 0.0
H396 H 0.2787 0.17459 0.86374 0.0
H397 H 0.27783 0.1961 0.84147 0.0
H398 H 0.3167 0.19679 0.80012 0.0
H399 H 0.31829 0.1762 0.82309 0.0
H400 H 0.29923 0.14592 0.83231 0.0
H401 H 0.28407 0.16857 0.91359 0.0
H402 H 0.29393 0.19503 0.93434 0.0
H403 H 0.33904 0.22071 0.89424 0.0
H404 H 0.32912 0.19448 0.87346 0.0
H405 H 0.32858 0.14922 0.91528 0.0
H406 H 0.3375 0.13275 0.93612 0.0
H407 H 0.30048 0.08671 0.90315 0.0
H408 H 0.29041 0.10311 0.88378 0.0
H409 H 0.30426 0.153 0.91086 0.0
H410 H 0.3333 0.13615 0.86473 0.0
H411 H 0.34294 0.12031 0.84296 0.0
H412 H 0.2951 0.09703 0.80834 0.0
H413 H 0.2851 0.11227 0.83111 0.0
C414 C 0.29862 0.17379 0.84521 0.0
C415 C 0.28717 0.17952 0.85 0.0
C416 C 0.28655 0.1917 0.8371 0.0
C417 C 0.29724 0.19826 0.81901 0.0
C418 C 0.30851 0.1923 0.81412 0.0
C419 C 0.30925 0.18029 0.82712 0.0
C420 C 0.2997 0.16114 0.85906 0.0
C421 C 0.30013 0.14733 0.84953 0.0
C422 C 0.30158 0.16333 0.88142 0.0
C423 C 0.30579 0.17965 0.89189 0.0
C424 C 0.29587 0.18003 0.90901 0.0
C425 C 0.30148 0.19509 0.9208 0.0
C426 C 0.31726 0.20977 0.91588 0.0
C427 C 0.32687 0.20949 0.89835 0.0
C428 C 0.32114 0.19458 0.8864 0.0
C429 C 0.30887 0.12749 0.89773 0.0
C430 C 0.32203 0.13551 0.91286 0.0
C431 C 0.32738 0.12607 0.92455 0.0
C432 C 0.32001 0.1084 0.92108 0.0
C433 C 0.30643 0.10027 0.90641 0.0
C434 C 0.30079 0.10969 0.89507 0.0
C435 C 0.30442 0.13803 0.8841 0.0
C436 C 0.3029 0.15123 0.89371 0.0
C437 C 0.3034 0.13632 0.86157 0.0
C438 C 0.30836 0.12523 0.84979 0.0
C439 C 0.32464 0.12725 0.85291 0.0
C440 C 0.33025 0.11835 0.84021 0.0
C441 C 0.31987 0.10753 0.82373 0.0
C442 C 0.30335 0.10511 0.82102 0.0
C443 C 0.29766 0.11391 0.83392 0.0
H444 H 0.83835 0.10922 0.84141 0.0
H445 H 0.81675 0.08773 0.81738 0.0
H446 H 0.78618 0.11171 0.82439 0.0
H447 H 0.80789 0.13325 0.8479 0.0
H448 H 0.85525 0.1453 0.831 0.0
H449 H 0.82223 0.10991 0.89878 0.0
H450 H 0.79654 0.09643 0.92176 0.0
H451 H 0.78768 0.13794 0.9082 0.0
H452 H 0.81362 0.15155 0.88633 0.0
H453 H 0.8608 0.19271 0.89431 0.0
H454 H 0.88253 0.21923 0.91091 0.0
H455 H 0.91961 0.20272 0.90403 0.0
H456 H 0.89795 0.17673 0.88614 0.0
H457 H 0.8478 0.15903 0.90561 0.0
H458 H 0.87254 0.19527 0.8497 0.0
H459 H 0.89288 0.21657 0.82496 0.0
H460 H 0.91015 0.18196 0.80574 0.0
H461 H 0.89008 0.16078 0.83146 0.0
C462 C 0.82459 0.12266 0.84667 0.0
C463 C 0.82682 0.10961 0.83805 0.0
C464 C 0.81447 0.09734 0.8244 0.0
C465 C 0.79984 0.09811 0.81894 0.0
C466 C 0.79741 0.11088 0.82817 0.0
C467 C 0.80969 0.12307 0.84184 0.0
C468 C 0.83865 0.13699 0.85861 0.0
C469 C 0.85394 0.14797 0.84758 0.0
C470 C 0.83633 0.14124 0.87959 0.0
C471 C 0.81978 0.13173 0.89106 0.0
C472 C 0.81458 0.11593 0.90068 0.0
C473 C 0.79989 0.10825 0.91372 0.0
C474 C 0.79021 0.11626 0.91715 0.0
C475 C 0.79508 0.13165 0.90646 0.0
C476 C 0.80981 0.13939 0.89378 0.0
C477 C 0.8778 0.1828 0.88903 0.0
C478 C 0.87363 0.19484 0.89644 0.0
C479 C 0.88609 0.20997 0.90607 0.0
C480 C 0.90292 0.21321 0.90899 0.0
C481 C 0.90694 0.20092 0.90174 0.0
C482 C 0.89454 0.18595 0.89168 0.0
C483 C 0.86464 0.16702 0.87826 0.0
C484 C 0.84955 0.15591 0.88939 0.0
C485 C 0.86662 0.16334 0.85683 0.0
C486 C 0.88002 0.17654 0.84279 0.0
C487 C 0.88101 0.19239 0.84063 0.0
C488 C 0.89247 0.20448 0.82619 0.0
C489 C 0.90304 0.20091 0.81325 0.0
C490 C 0.90228 0.18514 0.81563 0.0
C491 C 0.89078 0.17301 0.83022 0.0
H492 H 0.79605 0.67578 0.86459 0.0
H493 H 0.77327 0.67479 0.84269 0.0
H494 H 0.81143 0.71356 0.80146 0.0
H495 H 0.83428 0.71528 0.82402 0.0
H496 H 0.84158 0.69152 0.82973 0.0
H497 H 0.81289 0.67735 0.91462 0.0
H498 H 0.79033 0.67886 0.93406 0.0
H499 H 0.79899 0.72177 0.89527 0.0
H500 H 0.82258 0.72107 0.87707 0.0
H501 H 0.87957 0.70661 0.9101 0.0
H502 H 0.89365 0.6948 0.93172 0.0
H503 H 0.86497 0.64661 0.8984 0.0
H504 H 0.85073 0.65823 0.87743 0.0
H505 H 0.84451 0.69445 0.90872 0.0
H506 H 0.88896 0.70321 0.85769 0.0
H507 H 0.90582 0.69365 0.83726 0.0
H508 H 0.8593 0.65424 0.80765 0.0
H509 H 0.84256 0.66354 0.82839 0.0
C510 C 0.81693 0.69586 0.84623 0.0
C511 C 0.79956 0.6845 0.85128 0.0
C512 C 0.78655 0.68386 0.83873 0.0
C513 C 0.79069 0.69415 0.82054 0.0
C514 C 0.808 0.70555 0.81549 0.0
C515 C 0.82101 0.7065 0.82833 0.0
C516 C 0.83081 0.69559 0.85842 0.0
C517 C 0.84236 0.69245 0.847 0.0
C518 C 0.83181 0.69669 0.88101 0.0
C519 C 0.81933 0.69895 0.89414 0.0
C520 C 0.81025 0.68738 0.91063 0.0
C521 C 0.79711 0.68807 0.92153 0.0
C522 C 0.79252 0.7002 0.91598 0.0
C523 C 0.80216 0.71229 0.9001 0.0
C524 C 0.81556 0.7118 0.88948 0.0
C525 C 0.86426 0.68335 0.89202 0.0
C526 C 0.87646 0.69355 0.90741 0.0
C527 C 0.88454 0.68684 0.91963 0.0
C528 C 0.88032 0.66976 0.91681 0.0
C529 C 0.86833 0.65974 0.90111 0.0
C530 C 0.86032 0.66643 0.88895 0.0
C531 C 0.85468 0.68979 0.88 0.0
C532 C 0.84403 0.69414 0.89143 0.0
C533 C 0.85404 0.68923 0.85748 0.0
C534 C 0.8645 0.68407 0.84458 0.0
C535 C 0.88243 0.69249 0.84682 0.0
C536 C 0.89204 0.68708 0.83508 0.0
C537 C 0.88386 0.67312 0.82097 0.0
C538 C 0.86594 0.66485 0.81864 0.0
C539 C 0.85638 0.67029 0.8303 0.0
H540 H 0.80676 0.67271 0.48643 0.0
H541 H 0.78936 0.68099 0.50741 0.0
H542 H 0.76662 0.63285 0.54101 0.0
H543 H 0.78339 0.62422 0.519 0.0
H544 H 0.81721 0.63892 0.51876 0.0
H545 H 0.8213 0.67169 0.43982 0.0
H546 H 0.80423 0.67922 0.41753 0.0
H547 H 0.75781 0.63487 0.44052 0.0
H548 H 0.77508 0.62766 0.46331 0.0
H549 H 0.8417 0.61701 0.45406 0.0
H550 H 0.86767 0.62202 0.43542 0.0
H551 H 0.88823 0.67663 0.44047 0.0
H552 H 0.86301 0.67132 0.46088 0.0
H553 H 0.82557 0.6453 0.44038 0.0
H554 H 0.84165 0.61448 0.49191 0.0
H555 H 0.86291 0.61325 0.51435 0.0
H556 H 0.87051 0.65814 0.54847 0.0
H557 H 0.8505 0.66011 0.52469 0.0
C558 C 0.79618 0.6477 0.50085 0.0
C559 C 0.79765 0.66369 0.49783 0.0
C560 C 0.78788 0.66854 0.51012 0.0
C561 C 0.77667 0.65764 0.52602 0.0
C562 C 0.77495 0.64147 0.52872 0.0
C563 C 0.78462 0.63656 0.51626 0.0
C564 C 0.80793 0.64341 0.48938 0.0
C565 C 0.81873 0.63986 0.50155 0.0
C566 C 0.81013 0.64494 0.46696 0.0
C567 C 0.79948 0.6491 0.45319 0.0
C568 C 0.80745 0.66352 0.43996 0.0
C569 C 0.79764 0.66777 0.42714 0.0
C570 C 0.77962 0.65759 0.42707 0.0
C571 C 0.77164 0.64311 0.44034 0.0
C572 C 0.78149 0.63891 0.45331 0.0
C573 C 0.85073 0.6438 0.45934 0.0
C574 C 0.85209 0.63002 0.45167 0.0
C575 C 0.86685 0.63296 0.44063 0.0
C576 C 0.88023 0.64978 0.43631 0.0
C577 C 0.87857 0.66351 0.4439 0.0
C578 C 0.86406 0.66053 0.45544 0.0
C579 C 0.83488 0.6411 0.46981 0.0
C580 C 0.82348 0.64356 0.45748 0.0
C581 C 0.83239 0.63896 0.4921 0.0
C582 C 0.84485 0.63768 0.50614 0.0
C583 C 0.84831 0.62434 0.50379 0.0
C584 C 0.86025 0.62347 0.51698 0.0
C585 C 0.86869 0.6357 0.53318 0.0
C586 C 0.86476 0.64876 0.53583 0.0
C587 C 0.8531 0.6498 0.52238 0.0
H588 H 0.38165 0.22683 0.49059 0.0
H589 H 0.37919 0.24753 0.51324 0.0
H590 H 0.33755 0.20591 0.548 0.0
H591 H 0.33933 0.18549 0.52449 0.0
H592 H 0.36354 0.17852 0.51926 0.0
H593 H 0.38311 0.21331 0.43967 0.0
H594 H 0.38241 0.23653 0.42113 0.0
H595 H 0.33549 0.2242 0.45449 0.0
H596 H 0.33604 0.20067 0.47261 0.0
H597 H 0.33616 0.14582 0.43953 0.0
H598 H 0.33189 0.12073 0.41984 0.0
H599 H 0.37815 0.12641 0.44752 0.0
H600 H 0.38281 0.15209 0.46641 0.0
H601 H 0.35985 0.17856 0.44036 0.0
H602 H 0.33709 0.13181 0.49237 0.0
H603 H 0.33674 0.10909 0.51367 0.0
H604 H 0.38768 0.14495 0.53655 0.0
H605 H 0.38796 0.16755 0.51518 0.0
C606 C 0.36053 0.20458 0.50564 0.0
C607 C 0.37181 0.22221 0.50286 0.0
C608 C 0.37051 0.23403 0.51602 0.0
C609 C 0.35809 0.22844 0.53242 0.0
C610 C 0.347 0.21076 0.53526 0.0
C611 C 0.34816 0.19901 0.52198 0.0
C612 C 0.3616 0.19173 0.49195 0.0
C613 C 0.36281 0.17861 0.50199 0.0
C614 C 0.36077 0.19183 0.46941 0.0
C615 C 0.35975 0.20541 0.4577 0.0
C616 C 0.3726 0.21553 0.44286 0.0
C617 C 0.37225 0.22886 0.4324 0.0
C618 C 0.35898 0.2323 0.43649 0.0
C619 C 0.34583 0.22182 0.45091 0.0
C620 C 0.34621 0.20847 0.46141 0.0
C621 C 0.35967 0.15071 0.45468 0.0
C622 C 0.34554 0.14183 0.44112 0.0
C623 C 0.34301 0.12735 0.43005 0.0
C624 C 0.35453 0.12138 0.43237 0.0
C625 C 0.36906 0.13068 0.44533 0.0
C626 C 0.37164 0.14527 0.45631 0.0
C627 C 0.36129 0.16514 0.46777 0.0
C628 C 0.36072 0.17859 0.45762 0.0
C629 C 0.36252 0.16529 0.49025 0.0
C630 C 0.36259 0.15131 0.50215 0.0
C631 C 0.34823 0.1347 0.50181 0.0
C632 C 0.34802 0.12178 0.51404 0.0
C633 C 0.3622 0.12526 0.52673 0.0
C634 C 0.37666 0.14184 0.52673 0.0
C635 C 0.3768 0.15478 0.51466 0.0
H636 H 0.7727 0.1538 0.50869 0.0
H637 H 0.75176 0.12757 0.52699 0.0
H638 H 0.78284 0.10507 0.51166 0.0
H639 H 0.80282 0.1308 0.49226 0.0
H640 H 0.81213 0.17335 0.51784 0.0
H641 H 0.76987 0.14768 0.46382 0.0
H642 H 0.74893 0.12476 0.4411 0.0
H643 H 0.78951 0.11909 0.41275 0.0
H644 H 0.81036 0.14164 0.43625 0.0
H645 H 0.85735 0.18533 0.45349 0.0
H646 H 0.88389 0.20787 0.43773 0.0
H647 H 0.86514 0.24308 0.44439 0.0
H648 H 0.83908 0.22054 0.46165 0.0
H649 H 0.82063 0.17438 0.43937 0.0
H650 H 0.86119 0.1956 0.4976 0.0
H651 H 0.88297 0.2185 0.51965 0.0
H652 H 0.84587 0.23259 0.53938 0.0
H653 H 0.82427 0.20995 0.51655 0.0
C654 C 0.78918 0.14411 0.49912 0.0
C655 C 0.7748 0.14308 0.50918 0.0
C656 C 0.76293 0.1281 0.51974 0.0
C657 C 0.76551 0.11406 0.52089 0.0
C658 C 0.78007 0.11532 0.51074 0.0
C659 C 0.79166 0.13012 0.49981 0.0
C660 C 0.80204 0.15986 0.4882 0.0
C661 C 0.81373 0.1738 0.50064 0.0
C662 C 0.80428 0.16019 0.46583 0.0
C663 C 0.79165 0.14623 0.45194 0.0
C664 C 0.77424 0.14136 0.45292 0.0
C665 C 0.76231 0.12841 0.43968 0.0
C666 C 0.76756 0.12016 0.42501 0.0
C667 C 0.78503 0.12509 0.424 0.0
C668 C 0.79697 0.13805 0.43731 0.0
C669 C 0.84635 0.20135 0.45861 0.0
C670 C 0.85901 0.19793 0.45148 0.0
C671 C 0.87413 0.21084 0.44231 0.0
C672 C 0.87669 0.22735 0.43951 0.0
C673 C 0.86379 0.23064 0.44654 0.0
C674 C 0.84881 0.21776 0.4562 0.0
C675 C 0.83078 0.18769 0.46903 0.0
C676 C 0.81871 0.17411 0.45651 0.0
C677 C 0.82822 0.18767 0.49129 0.0
C678 C 0.84121 0.20127 0.5052 0.0
C679 C 0.85781 0.20375 0.50649 0.0
C680 C 0.87019 0.21673 0.5193 0.0
C681 C 0.86617 0.2274 0.53127 0.0
C682 C 0.84945 0.22475 0.53012 0.0
C683 C 0.83706 0.21175 0.51724 0.0
H684 H 0.97132 0.52252 0.2016 0.0
H685 H 0.9683 0.54368 0.18172 0.0
H686 H 0.00906 0.55027 0.13896 0.0
H687 H 0.01307 0.53024 0.16026 0.0
H688 H 0.99265 0.49798 0.16571 0.0
H689 H 0.9727 0.50839 0.24852 0.0
H690 H 0.97256 0.53109 0.26954 0.0
H691 H 0.01838 0.56871 0.23656 0.0
H692 H 0.01858 0.54586 0.2157 0.0
H693 H 0.0161 0.47225 0.21264 0.0
H694 H 0.01438 0.44792 0.23158 0.0
H695 H 0.96909 0.44038 0.26512 0.0
H696 H 0.9707 0.46447 0.24589 0.0
H697 H 0.99542 0.49788 0.24469 0.0
H698 H 0.01306 0.48568 0.15948 0.0
H699 H 0.00971 0.46215 0.13706 0.0
H700 H 0.96624 0.42662 0.17549 0.0
H701 H 0.96893 0.45038 0.19682 0.0
C702 C 0.99267 0.525 0.18275 0.0
C703 C 0.97998 0.5289 0.18836 0.0
C704 C 0.97804 0.54081 0.17666 0.0
C705 C 0.98834 0.54869 0.15856 0.0
C706 C 0.00107 0.54476 0.15298 0.0
C707 C 0.00326 0.53312 0.16501 0.0
C708 C 0.99421 0.51172 0.19458 0.0
C709 C 0.99366 0.49818 0.18296 0.0
C710 C 0.99496 0.51164 0.21713 0.0
C711 C 0.99557 0.52547 0.23045 0.0
C712 C 0.98281 0.52151 0.24596 0.0
C713 C 0.98268 0.53448 0.25784 0.0
C714 C 0.9954 0.55165 0.25458 0.0
C715 C 0.00848 0.55557 0.23948 0.0
C716 C 0.00854 0.54257 0.22748 0.0
C717 C 0.99345 0.47004 0.22776 0.0
C718 C 0.00582 0.46533 0.22407 0.0
C719 C 0.00488 0.45153 0.23499 0.0
C720 C 0.99156 0.44223 0.24975 0.0
C721 C 0.97937 0.44718 0.25364 0.0
C722 C 0.98035 0.461 0.24281 0.0
C723 C 0.99392 0.48426 0.21581 0.0
C724 C 0.99479 0.49791 0.22741 0.0
C725 C 0.99331 0.48433 0.19326 0.0
C726 C 0.99143 0.46981 0.18007 0.0
C727 C 0.00276 0.47282 0.16301 0.0
C728 C 0.00094 0.45929 0.15034 0.0
C729 C 0.98778 0.44239 0.15453 0.0
C730 C 0.97641 0.43944 0.17162 0.0
C731 C 0.9781 0.45302 0.18408 0.0
H732 H 0.49885 0.445 0.19091 0.0
H733 H 0.47661 0.42336 0.16784 0.0
H734 H 0.47813 0.46347 0.12941 0.0
H735 H 0.49938 0.48483 0.15321 0.0
H736 H 0.53023 0.49396 0.16193 0.0
H737 H 0.50878 0.45843 0.24227 0.0
H738 H 0.48276 0.43661 0.26039 0.0
H739 H 0.45205 0.4495 0.2209 0.0
H740 H 0.47815 0.47155 0.20322 0.0
H741 H 0.52896 0.52718 0.23691 0.0
H742 H 0.54718 0.55119 0.2603 0.0
H743 H 0.59056 0.54547 0.2439 0.0
H744 H 0.57194 0.52076 0.22178 0.0
H745 H 0.52137 0.49354 0.24015 0.0
H746 H 0.53634 0.53144 0.17146 0.0
H747 H 0.55658 0.55391 0.14787 0.0
H748 H 0.59482 0.5402 0.1622 0.0
H749 H 0.57372 0.51668 0.18429 0.0
C750 C 0.50067 0.46657 0.17398 0.0
C751 C 0.49422 0.44909 0.17766 0.0
C752 C 0.48163 0.43673 0.1643 0.0
C753 C 0.47543 0.44163 0.14683 0.0
C754 C 0.48225 0.45916 0.14296 0.0
C755 C 0.49463 0.47145 0.15643 0.0
C756 C 0.51364 0.47995 0.1883 0.0
C757 C 0.52834 0.4937 0.17908 0.0
C758 C 0.51117 0.47985 0.21065 0.0
C759 C 0.49536 0.46646 0.22128 0.0
C760 C 0.49643 0.45652 0.23754 0.0
C761 C 0.48155 0.44399 0.24775 0.0
C762 C 0.46535 0.44129 0.24201 0.0
C763 C 0.46435 0.45136 0.22578 0.0
C764 C 0.47923 0.46386 0.21555 0.0
C765 C 0.54917 0.52239 0.22725 0.0
C766 C 0.54241 0.53112 0.23841 0.0
C767 C 0.5529 0.54495 0.25163 0.0
C768 C 0.57042 0.55041 0.25394 0.0
C769 C 0.57712 0.54157 0.24272 0.0
C770 C 0.56656 0.52761 0.2297 0.0
C771 C 0.53781 0.5075 0.21368 0.0
C772 C 0.52343 0.49347 0.22308 0.0
C773 C 0.54027 0.50754 0.1914 0.0
C774 C 0.55368 0.52268 0.17995 0.0
C775 C 0.54919 0.53348 0.16972 0.0
C776 C 0.56091 0.54646 0.15632 0.0
C777 C 0.57754 0.54911 0.15308 0.0
C778 C 0.58212 0.5385 0.16398 0.0
C779 C 0.57019 0.52521 0.17698 0.0
H780 H 0.53656 0.03524 0.17806 0.0
H781 H 0.56193 0.03922 0.15871 0.0
H782 H 0.54937 0.98819 0.17621 0.0
H783 H 0.52382 0.9842 0.19534 0.0
H784 H 0.50295 0.01164 0.17068 0.0
H785 H 0.54384 0.02616 0.22609 0.0
H786 H 0.56466 0.02375 0.24782 0.0
H787 H 0.52426 0.97486 0.27129 0.0
H788 H 0.50387 0.97669 0.24799 0.0
H789 H 0.46098 0.9721 0.24206 0.0
H790 H 0.43385 0.96429 0.25935 0.0
H791 H 0.43677 0.01002 0.23448 0.0
H792 H 0.46477 0.01851 0.2188 0.0
H793 H 0.49159 0.99618 0.2472 0.0
H794 H 0.45231 0.97904 0.18748 0.0
H795 H 0.43159 0.97996 0.16347 0.0
H796 H 0.46843 0.03277 0.14903 0.0
H797 H 0.48885 0.03189 0.17351 0.0
C798 C 0.5284 0.00949 0.18825 0.0
C799 C 0.5393 0.02493 0.17776 0.0
C800 C 0.55384 0.02722 0.16686 0.0
C801 C 0.55767 0.01404 0.16605 0.0
C802 C 0.54669 0.99854 0.17649 0.0
C803 C 0.53218 0.99629 0.18752 0.0
C804 C 0.51281 0.00704 0.19942 0.0
C805 C 0.50054 0.00845 0.18749 0.0
C806 C 0.50961 0.00262 0.22126 0.0
C807 C 0.5223 0.00146 0.23501 0.0
C808 C 0.53953 0.01475 0.23555 0.0
C809 C 0.5514 0.01348 0.24835 0.0
C810 C 0.54623 -0.00091 0.26142 0.0
C811 C 0.52887 0.98597 0.26116 0.0
C812 C 0.51709 0.9871 0.24801 0.0
C813 C 0.46487 0.99578 0.22881 0.0
C814 C 0.4559 0.98057 0.24052 0.0
C815 C 0.44019 0.97599 0.25017 0.0
C816 C 0.43286 0.98635 0.24806 0.0
C817 C 0.44201 0.00175 0.2366 0.0
C818 C 0.45794 0.00651 0.22731 0.0
C819 C 0.48143 0.00021 0.2183 0.0
C820 C 0.49397 -0.00067 0.23038 0.0
C821 C 0.48483 0.0049 0.19653 0.0
C822 C 0.47205 0.00545 0.18243 0.0
C823 C 0.45582 0.99086 0.17933 0.0
C824 C 0.44406 0.99137 0.16548 0.0
C825 C 0.44836 0.00645 0.15437 0.0
C826 C 0.46462 0.02104 0.15758 0.0
C827 C 0.47635 0.02052 0.17142 0.0
H828 H 0.47791 0.98465 0.87018 0.0
H829 H 0.45392 0.98276 0.89038 0.0
H830 H 0.41872 0.94894 0.84241 0.0
H831 H 0.44281 0.95005 0.82287 0.0
H832 H 0.48807 0.96415 0.8596 0.0
H833 H 0.47674 0.00239 0.8178 0.0
H834 H 0.46076 0.01216 0.79646 0.0
H835 H 0.44127 0.96692 0.75714 0.0
H836 H 0.45769 0.9574 0.77823 0.0
H837 H 0.52792 0.96261 0.80655 0.0
H838 H 0.55643 0.97523 0.78989 0.0
H839 H 0.55397 0.02015 0.7738 0.0
H840 H 0.52616 0.00797 0.79132 0.0
H841 H 0.49679 0.98217 0.78385 0.0
H842 H 0.50578 0.94641 0.85435 0.0
H843 H 0.528 0.94855 0.87846 0.0
H844 H 0.55879 0.00262 0.86523 0.0
H845 H 0.5364 0.00047 0.84167 0.0
C846 C 0.46222 0.96761 0.84489 0.0
C847 C 0.46501 0.97662 0.86412 0.0
C848 C 0.45127 0.97572 0.87552 0.0
C849 C 0.43438 0.9659 0.86787 0.0
C850 C 0.43154 0.95657 0.84881 0.0
C851 C 0.44533 0.95735 0.83749 0.0
C852 C 0.47714 0.96952 0.83242 0.0
C853 C 0.48987 0.96783 0.84292 0.0
C854 C 0.47967 0.97457 0.8108 0.0
C855 C 0.46826 0.97915 0.79962 0.0
C856 C 0.46883 0.99447 0.80478 0.0
C857 C 0.4598 6e-05 0.79256 0.0
C858 C 0.44987 0.99028 0.7752 0.0
C859 C 0.44878 0.97461 0.77054 0.0
C860 C 0.45812 0.96919 0.78251 0.0
C861 C 0.52492 0.98437 0.80031 0.0
C862 C 0.53361 0.97522 0.79955 0.0
C863 C 0.54983 0.98239 0.78987 0.0
C864 C 0.55755 -0.00122 0.78069 0.0
C865 C 0.5486 0.00768 0.78111 0.0
C866 C 0.53255 0.0006 0.79089 0.0
C867 C 0.50806 0.97749 0.81123 0.0
C868 C 0.4948 0.97793 0.80032 0.0
C869 C 0.50551 0.97224 0.83282 0.0
C870 C 0.51952 0.97324 0.84605 0.0
C871 C 0.5174 0.95868 0.85653 0.0
C872 C 0.53014 0.9599 0.87019 0.0
C873 C 0.54514 0.97576 0.87378 0.0
C874 C 0.54731 0.99026 0.86297 0.0
C875 C 0.5346 0.98902 0.84933 0.0
H876 H 0.05365 0.55088 0.85441 0.0
H877 H 0.0518 0.57178 0.87761 0.0
H878 H 0.00029 0.55377 0.8553 0.0
H879 H 0.00212 0.53285 0.83245 0.0
H880 H 0.03273 0.5158 0.85725 0.0
H881 H 0.05178 0.5561 0.79809 0.0
H882 H 0.05146 0.5788 0.77799 0.0
H883 H 0.99665 0.54625 0.76886 0.0
H884 H -0.00252 0.52324 0.78781 0.0
H885 H 0.99555 0.47078 0.79243 0.0
H886 H 0.99207 0.44541 0.77422 0.0
H887 H 0.04705 0.46632 0.7771 0.0
H888 H 0.05007 0.49102 0.79672 0.0
H889 H 0.02068 0.50852 0.77956 0.0
H890 H 0.00384 0.46653 0.8354 0.0
H891 H 0.00481 0.44539 0.85827 0.0
H892 H 0.05646 0.48298 0.87704 0.0
H893 H 0.05559 0.50395 0.85354 0.0
C894 C 0.02809 0.54043 0.84157 0.0
C895 C 0.04206 0.55161 0.85435 0.0
C896 C 0.04102 0.56358 0.8675 0.0
C897 C 0.02588 0.56435 0.8683 0.0
C898 C 0.01207 0.55338 0.85513 0.0
C899 C 0.01316 0.54154 0.8419 0.0
C900 C 0.0284 0.52662 0.82919 0.0
C901 C 0.03048 0.5144 0.84018 0.0
C902 C 0.02509 0.5246 0.80705 0.0
C903 C 0.02466 0.53808 0.79445 0.0
C904 C 0.03975 0.55387 0.79156 0.0
C905 C 0.03947 0.56689 0.78022 0.0
C906 C 0.02398 0.56455 0.77191 0.0
C907 C 0.00888 0.54854 0.77467 0.0
C908 C 0.00927 0.53537 0.78565 0.0
C909 C 0.02304 0.48267 0.7959 0.0
C910 C 0.00681 0.46981 0.7891 0.0
C911 C 0.0049 0.45537 0.77852 0.0
C912 C 0.01929 0.4537 0.77399 0.0
C913 C 0.0356 0.46687 0.78061 0.0
C914 C 0.03742 0.48112 0.79165 0.0
C915 C 0.02489 0.49765 0.8077 0.0
C916 C 0.02318 0.51005 0.79657 0.0
C917 C 0.02869 0.49988 0.82972 0.0
C918 C 0.02973 0.48676 0.84253 0.0
C919 C 0.01552 0.47012 0.84405 0.0
C920 C 0.01601 0.45811 0.85735 0.0
C921 C 0.0307 0.46252 0.86954 0.0
C922 C 0.04504 0.47911 0.86769 0.0
C923 C 0.04452 0.49114 0.85438 0.0
H924 H 0.4443 0.49635 0.84082 0.0
H925 H 0.4222 0.47129 0.86046 0.0
H926 H 0.45054 0.44545 0.84856 0.0
H927 H 0.47213 0.47015 0.8289 0.0
H928 H 0.48177 0.51647 0.84773 0.0
H929 H 0.44178 0.48281 0.79113 0.0
H930 H 0.42351 0.45704 0.77016 0.0
H931 H 0.46676 0.44976 0.76018 0.0
H932 H 0.48494 0.4757 0.78055 0.0
H933 H 0.52772 0.51708 0.7932 0.0
H934 H 0.55338 0.53247 0.77109 0.0
H935 H 0.54053 0.57146 0.75909 0.0
H936 H 0.51503 0.55613 0.78216 0.0
H937 H 0.4937 0.50781 0.77272 0.0
H938 H 0.53249 0.53668 0.83048 0.0
H939 H 0.55284 0.56055 0.85239 0.0
H940 H 0.51429 0.57433 0.86478 0.0
H941 H 0.49429 0.55095 0.84161 0.0
C942 C 0.45965 0.48494 0.83316 0.0
C943 C 0.44565 0.48524 0.84251 0.0
C944 C 0.43309 0.47095 0.8537 0.0
C945 C 0.43446 0.45625 0.85574 0.0
C946 C 0.44879 0.45631 0.84678 0.0
C947 C 0.46122 0.47048 0.83564 0.0
C948 C 0.47283 0.49951 0.82059 0.0
C949 C 0.48413 0.51487 0.83111 0.0
C950 C 0.47607 0.49719 0.79912 0.0
C951 C 0.46473 0.48122 0.78722 0.0
C952 C 0.44726 0.47559 0.78444 0.0
C953 C 0.43683 0.46082 0.77254 0.0
C954 C 0.4437 0.45139 0.7633 0.0
C955 C 0.46113 0.45691 0.76661 0.0
C956 C 0.47154 0.47171 0.77833 0.0
C957 C 0.51958 0.53552 0.78928 0.0
C958 C 0.53063 0.52912 0.78613 0.0
C959 C 0.54518 0.53785 0.7733 0.0
C960 C 0.5488 0.553 0.76293 0.0
C961 C 0.53811 0.55984 0.76688 0.0
C962 C 0.52356 0.55112 0.78002 0.0
C963 C 0.50294 0.52454 0.8 0.0
C964 C 0.49098 0.50981 0.78905 0.0
C965 C 0.4994 0.52736 0.82116 0.0
C966 C 0.51198 0.54226 0.83391 0.0
C967 C 0.52855 0.54512 0.83736 0.0
C968 C 0.5401 0.55863 0.85028 0.0
C969 C 0.53522 0.56938 0.86045 0.0
C970 C 0.51859 0.56649 0.85695 0.0
C971 C 0.50709 0.55305 0.84383 0.0
H972 H 0.60571 0.83863 0.52944 0.0
H973 H 0.61217 0.86516 0.51138 0.0
H974 H 0.66518 0.87846 0.50441 0.0
H975 H 0.65872 0.85241 0.52315 0.0
H976 H 0.63045 0.81624 0.51044 0.0
H977 H 0.60499 0.83878 0.56891 0.0
H978 H 0.6093 0.86231 0.59263 0.0
H979 H 0.65982 0.87167 0.60828 0.0
H980 H 0.65553 0.84844 0.5845 0.0
H981 H 0.65264 0.80844 0.59092 0.0
H982 H 0.65645 0.78867 0.61288 0.0
H983 H 0.61411 0.74598 0.58072 0.0
H984 H 0.61044 0.76603 0.55841 0.0
H985 H 0.62669 0.81324 0.58936 0.0
H986 H 0.65742 0.79788 0.54259 0.0
H987 H 0.66665 0.78265 0.51893 0.0
H988 H 0.62209 0.7672 0.47953 0.0
H989 H 0.61251 0.78193 0.50389 0.0
C990 C 0.63179 0.84373 0.52778 0.0
C991 C 0.61872 0.8474 0.52417 0.0
C992 C 0.62242 0.86248 0.51372 0.0
C993 C 0.63924 0.87404 0.50663 0.0
C994 C 0.65219 0.87009 0.51008 0.0
C995 C 0.6485 0.85511 0.52058 0.0
C996 C 0.62835 0.82813 0.5392 0.0
C997 C 0.62899 0.81515 0.52766 0.0
C998 C 0.62748 0.82737 0.56165 0.0
C999 C 0.63002 0.84202 0.57485 0.0
C1000 C 0.61708 0.84612 0.5772 0.0
C1001 C 0.61952 0.85948 0.59079 0.0
C1002 C 0.63482 0.86868 0.60245 0.0
C1003 C 0.64778 0.86461 0.5998 0.0
C1004 C 0.6454 0.85143 0.58613 0.0
C1005 C 0.63116 0.78871 0.57315 0.0
C1006 C 0.6441 0.79482 0.58862 0.0
C1007 C 0.64622 0.7835 0.60125 0.0
C1008 C 0.6354 0.76576 0.5988 0.0
C1009 C 0.62265 0.75959 0.58295 0.0
C1010 C 0.62054 0.771 0.57023 0.0
C1011 C 0.62877 0.80115 0.5607 0.0
C1012 C 0.62711 0.81361 0.57205 0.0
C1013 C 0.62973 0.8019 0.53814 0.0
C1014 C 0.63411 0.79085 0.52524 0.0
C1015 C 0.64932 0.79077 0.52928 0.0
C1016 C 0.65472 0.78225 0.51552 0.0
C1017 C 0.64519 0.77383 0.49722 0.0
C1018 C 0.62965 0.77341 0.49359 0.0
C1019 C 0.6242 0.7819 0.50743 0.0
H1020 H 0.16708 0.77628 0.52383 0.0
H1021 H 0.14461 0.75543 0.5003 0.0
H1022 H 0.11303 0.77722 0.51573 0.0
H1023 H 0.13575 0.79833 0.53868 0.0
H1024 H 0.18335 0.81169 0.51756 0.0
H1025 H 0.14572 0.77056 0.57169 0.0
H1026 H 0.11704 0.75439 0.58768 0.0
H1027 H 0.12064 0.80179 0.60749 0.0
H1028 H 0.14854 0.81778 0.59024 0.0
H1029 H 0.19211 0.85742 0.58378 0.0
H1030 H 0.21506 0.88343 0.59995 0.0
H1031 H 0.24981 0.86419 0.59131 0.0
H1032 H 0.22699 0.83885 0.57365 0.0
H1033 H 0.17827 0.82212 0.59431 0.0
H1034 H 0.20297 0.86112 0.53971 0.0
H1035 H 0.22255 0.88233 0.51424 0.0
H1036 H 0.23695 0.84653 0.4906 0.0
H1037 H 0.21775 0.82547 0.51692 0.0
C1038 C 0.15302 0.78874 0.53314 0.0
C1039 C 0.15523 0.77642 0.5223 0.0
C1040 C 0.14233 0.76444 0.50898 0.0
C1041 C 0.12704 0.76468 0.50613 0.0
C1042 C 0.12472 0.7768 0.51743 0.0
C1043 C 0.13762 0.78878 0.53071 0.0
C1044 C 0.16734 0.80239 0.54561 0.0
C1045 C 0.18247 0.81365 0.53452 0.0
C1046 C 0.16561 0.80559 0.56739 0.0
C1047 C 0.1492 0.79542 0.57934 0.0
C1048 C 0.14027 0.77745 0.57938 0.0
C1049 C 0.12394 0.76821 0.58875 0.0
C1050 C 0.11637 0.77678 0.59856 0.0
C1051 C 0.12582 0.79475 0.59955 0.0
C1052 C 0.14195 0.80394 0.58994 0.0
C1053 C 0.20792 0.84631 0.57748 0.0
C1054 C 0.20469 0.85885 0.58548 0.0
C1055 C 0.21786 0.87369 0.59489 0.0
C1056 C 0.23445 0.87608 0.59705 0.0
C1057 C 0.23741 0.86312 0.58954 0.0
C1058 C 0.22433 0.84849 0.57962 0.0
C1059 C 0.19424 0.83117 0.56626 0.0
C1060 C 0.17935 0.81971 0.57756 0.0
C1061 C 0.19562 0.82838 0.54433 0.0
C1062 C 0.20912 0.84179 0.53055 0.0
C1063 C 0.21075 0.85799 0.52957 0.0
C1064 C 0.22175 0.87003 0.51473 0.0
C1065 C 0.23119 0.86607 0.50026 0.0
C1066 C 0.22997 0.85003 0.50165 0.0
C1067 C 0.21896 0.83796 0.51662 0.0
H1068 H 0.16051 0.35169 0.48524 0.0
H1069 H 0.1378 0.34937 0.46247 0.0
H1070 H 0.13249 0.38513 0.50306 0.0
H1071 H 0.15601 0.38807 0.52531 0.0
H1072 H 0.19063 0.37642 0.49309 0.0
H1073 H 0.14251 0.33924 0.53637 0.0
H1074 H 0.11552 0.32846 0.55618 0.0
H1075 H 0.1383 0.37464 0.59412 0.0
H1076 H 0.16544 0.38535 0.57429 0.0
H1077 H 0.21955 0.38926 0.57822 0.0
H1078 H 0.23893 0.38377 0.59935 0.0
H1079 H 0.22791 0.341 0.55826 0.0
H1080 H 0.20827 0.34626 0.5377 0.0
H1081 H 0.18431 0.36686 0.57125 0.0
H1082 H 0.23695 0.39457 0.52827 0.0
H1083 H 0.26046 0.39455 0.5086 0.0
H1084 H 0.22354 0.35526 0.46666 0.0
H1085 H 0.20023 0.35469 0.48697 0.0
C1086 C 0.15997 0.37003 0.50703 0.0
C1087 C 0.15456 0.35913 0.4892 0.0
C1088 C 0.14139 0.35765 0.47633 0.0
C1089 C 0.13318 0.36693 0.48105 0.0
C1090 C 0.13861 0.37788 0.49892 0.0
C1091 C 0.15193 0.37944 0.51177 0.0
C1092 C 0.17414 0.37147 0.52038 0.0
C1093 C 0.18925 0.37434 0.5102 0.0
C1094 C 0.17243 0.36891 0.54269 0.0
C1095 C 0.15589 0.36312 0.55381 0.0
C1096 C 0.14164 0.34712 0.5488 0.0
C1097 C 0.12629 0.34094 0.56019 0.0
C1098 C 0.12489 0.35072 0.57668 0.0
C1099 C 0.13905 0.36692 0.58137 0.0
C1100 C 0.15452 0.37301 0.57015 0.0
C1101 C 0.21266 0.3683 0.55626 0.0
C1102 C 0.22137 0.37873 0.5738 0.0
C1103 C 0.2325 0.37564 0.58575 0.0
C1104 C 0.23496 0.36196 0.58046 0.0
C1105 C 0.22617 0.35153 0.56288 0.0
C1106 C 0.21507 0.35463 0.55098 0.0
C1107 C 0.20056 0.37125 0.54383 0.0
C1108 C 0.18591 0.36942 0.55424 0.0
C1109 C 0.20228 0.37377 0.52148 0.0
C1110 C 0.2168 0.37454 0.50921 0.0
C1111 C 0.23395 0.38585 0.51495 0.0
C1112 C 0.24738 0.38593 0.50357 0.0
C1113 C 0.2439 0.37481 0.48613 0.0
C1114 C 0.22671 0.36374 0.48026 0.0
C1115 C 0.21334 0.36357 0.4917 0.0
H1116 H 0.01962 0.39381 0.0771 0.0
H1117 H 0.96611 0.35514 0.0676 0.0
H1118 H 0.95744 0.36997 0.09364 0.0
H1119 H 0.01597 0.39986 0.13437 0.0
H1120 H 0.03103 0.42253 0.13314 0.0
H1121 H 0.03295 0.40828 0.1147 0.0
H1122 H 0.03177 0.42583 0.08301 0.0
H1123 H 0.02971 0.44004 0.10133 0.0
H1124 H 0.01384 0.42921 0.08089 0.0
H1125 H 0.95461 0.39033 0.11855 0.0
H1126 H 0.9578 0.41385 0.14163 0.0
H1127 H 0.01331 0.43834 0.1362 0.0
C1128 C 0.00608 0.38835 0.08067 0.0
C1129 C 0.99352 0.37334 0.07033 0.0
C1130 C 0.97594 0.3666 0.07541 0.0
C1131 C 0.97091 0.37495 0.09014 0.0
C1132 C 0.98362 0.38989 0.0998 0.0
C1133 C 0.00085 0.39642 0.09544 0.0
C1134 C 0.01194 0.41286 0.10762 0.0
C1135 C 0.02366 0.41075 0.1234 0.0
C1136 C 0.02243 0.42787 0.09229 0.0
C1137 C -0.00176 0.41475 0.11918 0.0
C1138 C 0.98199 0.40137 0.1145 0.0
C1139 C 0.96728 0.40073 0.1226 0.0
C1140 C 0.96925 0.41413 0.13583 0.0
C1141 C 0.98581 0.42798 0.14093 0.0
C1142 C 0.00045 0.4281 0.13253 0.0
H1143 H 0.60739 0.62791 0.07508 0.0
H1144 H 0.63995 0.61252 0.04258 0.0
H1145 H 0.63293 0.59053 0.07022 0.0
H1146 H 0.61815 0.62148 0.12985 0.0
H1147 H 0.59665 0.61404 0.13945 0.0
H1148 H 0.60541 0.62936 0.11806 0.0
H1149 H 0.57943 0.60921 0.09437 0.0
H1150 H 0.57066 0.59382 0.11559 0.0
H1151 H 0.57456 0.58758 0.08976 0.0
H1152 H 0.61917 0.56785 0.09875 0.0
H1153 H 0.60149 0.54763 0.12689 0.0
H1154 H 0.58039 0.57998 0.14288 0.0
C1155 C 0.61322 0.62006 0.07394 0.0
C1156 C 0.62413 0.62181 0.05668 0.0
C1157 C 0.6316 0.6114 0.05575 0.0
C1158 C 0.62768 0.59889 0.07135 0.0
C1159 C 0.61661 0.59728 0.08798 0.0
C1160 C 0.60974 0.6078 0.08956 0.0
C1161 C 0.59782 0.60321 0.10861 0.0
C1162 C 0.60494 0.6179 0.12496 0.0
C1163 C 0.57954 0.59815 0.10166 0.0
C1164 C 0.59849 0.588 0.11704 0.0
C1165 C 0.60941 0.58478 0.10499 0.0
C1166 C 0.61092 0.5705 0.10864 0.0
C1167 C 0.60087 0.55912 0.12485 0.0
C1168 C 0.5895 0.56212 0.1374 0.0
C1169 C 0.58873 0.57706 0.1336 0.0
H1170 H 0.38204 0.97239 0.05792 0.0
H1171 H 0.38194 0.02013 0.06129 0.0
H1172 H 0.40167 0.0292 0.09194 0.0
H1173 H 0.38315 0.96653 0.11463 0.0
H1174 H 0.39723 0.95798 0.11222 0.0
H1175 H 0.38279 0.95508 0.09084 0.0
H1176 H 0.40846 0.96907 0.06436 0.0
H1177 H 0.42297 0.97196 0.08563 0.0
H1178 H 0.4264 0.99007 0.0701 0.0
H1179 H 0.4218 0.03323 0.12193 0.0
H1180 H 0.44109 0.03204 0.14867 0.0
H1181 H 0.42824 0.98187 0.12513 0.0
C1182 C 0.38608 0.98473 0.06512 0.0
C1183 C 0.38039 0.99553 0.05718 0.0
C1184 C 0.3861 0.01161 0.06706 0.0
C1185 C 0.3973 0.01688 0.08451 0.0
C1186 C 0.40266 0.00592 0.09189 0.0
C1187 C 0.39725 0.9902 0.08249 0.0
C1188 C 0.40516 0.98096 0.09317 0.0
C1189 C 0.39125 0.96414 0.10332 0.0
C1190 C 0.41642 0.97784 0.07737 0.0
C1191 C 0.41593 0.99397 0.11001 0.0
C1192 C 0.41428 0.00826 0.10906 0.0
C1193 C 0.4232 0.0221 0.12283 0.0
C1194 C 0.43418 0.02135 0.13788 0.0
C1195 C 0.43617 0.00687 0.139 0.0
C1196 C 0.42681 0.993 0.1249 0.0
H1197 H 0.39181 0.00395 0.9452 0.0
H1198 H 0.34588 0.95364 0.94668 0.0
H1199 H 0.35904 0.94333 0.9202 0.0
H1200 H 0.40102 0.00384 0.88814 0.0
H1201 H 0.42391 0.01506 0.89225 0.0
H1202 H 0.41031 0.01861 0.91011 0.0
H1203 H 0.42267 0.01061 0.94225 0.0
H1204 H 0.43622 0.00693 0.92451 0.0
H1205 H 0.42164 0.99026 0.94235 0.0
H1206 H 0.37833 0.93808 0.89565 0.0
H1207 H 0.40176 0.93852 0.87452 0.0
H1208 H 0.43434 0.99266 0.88832 0.0
C1209 C 0.38442 0.99081 0.93978 0.0
C1210 C 0.36783 0.97958 0.94799 0.0
C1211 C 0.35859 0.96247 0.94053 0.0
C1212 C 0.36596 0.95651 0.92551 0.0
C1213 C 0.38247 0.96787 0.91799 0.0
C1214 C 0.39151 0.98471 0.92475 0.0
C1215 C 0.40924 0.99421 0.91481 0.0
C1216 C 0.41123 0.00879 0.90048 0.0
C1217 C 0.42326 0.00089 0.93201 0.0
C1218 C 0.40895 0.98001 0.90179 0.0
C1219 C 0.3934 0.96492 0.90371 0.0
C1220 C 0.39047 0.94989 0.89381 0.0
C1221 C 0.40384 0.95028 0.88176 0.0
C1222 C 0.41993 0.96562 0.87974 0.0
C1223 C 0.42231 0.98066 0.88972 0.0
H1224 H 0.99143 0.39255 0.96132 0.0
H1225 H 0.03931 0.39229 0.96192 0.0
H1226 H 0.05058 0.41374 0.93295 0.0
H1227 H 0.98932 0.39639 0.9047 0.0
H1228 H 0.98042 0.41016 0.90681 0.0
H1229 H 0.97628 0.39482 0.92746 0.0
H1230 H 0.98841 0.41908 0.95575 0.0
H1231 H 0.99255 0.43448 0.9352 0.0
H1232 H 0.00973 0.43726 0.95227 0.0
H1233 H 0.05659 0.43573 0.90396 0.0
H1234 H 0.05666 0.45591 0.87753 0.0
H1235 H 0.00474 0.44131 0.89665 0.0
C1236 C 0.0043 0.39695 0.95543 0.0
C1237 C 0.01449 0.39071 0.96396 0.0
C1238 C 0.03125 0.39686 0.95566 0.0
C1239 C 0.03776 0.40904 0.9392 0.0
C1240 C 0.02732 0.4149 0.9312 0.0
C1241 C 0.01094 0.40901 0.93907 0.0
C1242 C 0.00225 0.41728 0.92791 0.0
C1243 C 0.98612 0.40386 0.91601 0.0
C1244 C -0.002 0.42764 0.94373 0.0
C1245 C 0.01631 0.42882 0.91252 0.0
C1246 C 0.03069 0.42732 0.91461 0.0
C1247 C 0.04538 0.43697 0.90219 0.0
C1248 C 0.04533 0.44844 0.8873 0.0
C1249 C 0.03068 0.45013 0.88493 0.0
C1250 C 0.01603 0.44012 0.89777 0.0
H1251 H 0.60768 0.61112 0.9496 0.0
H1252 H 0.60394 0.65682 0.94627 0.0
H1253 H 0.58163 0.6431 0.91849 0.0
H1254 H 0.60219 0.60084 0.89387 0.0
H1255 H 0.58955 0.57809 0.89818 0.0
H1256 H 0.60527 0.59162 0.91759 0.0
H1257 H 0.58179 0.57991 0.94711 0.0
H1258 H 0.56601 0.56631 0.9278 0.0
H1259 H 0.56265 0.58106 0.94351 0.0
H1260 H 0.55989 0.62425 0.89059 0.0
H1261 H 0.54013 0.60172 0.86564 0.0
H1262 H 0.55756 0.56819 0.88882 0.0
C1263 C 0.60222 0.61829 0.94301 0.0
C1264 C 0.60759 0.63507 0.95002 0.0
C1265 C 0.60002 0.64395 0.9411 0.0
C1266 C 0.58736 0.63627 0.92532 0.0
C1267 C 0.58237 0.61969 0.91876 0.0
C1268 C 0.58952 0.61079 0.92742 0.0
C1269 C 0.58179 0.59305 0.91792 0.0
C1270 C 0.59552 0.59078 0.90619 0.0
C1271 C 0.57251 0.57927 0.93511 0.0
C1272 C 0.5692 0.59335 0.90245 0.0
C1273 C 0.56973 0.60881 0.90309 0.0
C1274 C 0.55931 0.61206 0.89005 0.0
C1275 C 0.54805 0.59914 0.87602 0.0
C1276 C 0.54725 0.58314 0.87519 0.0
C1277 C 0.558 0.58032 0.88871 0.0
H1278 H 0.97943 0.58731 0.96 0.0
H1279 H 0.02325 0.63906 0.96006 0.0
H1280 H 0.0367 0.63114 0.93112 0.0
H1281 H 0.00268 0.56581 0.95079 0.0
H1282 H 0.98654 0.54973 0.93369 0.0
H1283 H 0.98043 0.55961 0.9542 0.0
H1284 H 0.96583 0.5686 0.92586 0.0
H1285 H 0.9719 0.55874 0.90526 0.0
H1286 H 0.97808 0.58093 0.90311 0.0
H1287 H 0.04573 0.61701 0.9028 0.0
H1288 H 0.04892 0.59822 0.8766 0.0
H1289 H -0.00119 0.5562 0.89502 0.0
C1290 C 0.99186 0.59702 0.95396 0.0
C1291 C 0.00031 0.61381 0.96237 0.0
C1292 C 0.01651 0.62612 0.95386 0.0
C1293 C 0.02427 0.62174 0.93745 0.0
C1294 C 0.01559 0.60503 0.92962 0.0
C1295 C -0.00031 0.59291 0.93753 0.0
C1296 C 0.99295 0.57588 0.92637 0.0
C1297 C 0.99051 0.56194 0.94221 0.0
C1298 C 0.9762 0.57074 0.91444 0.0
C1299 C 0.00758 0.58023 0.91102 0.0
C1300 C 0.02057 0.59708 0.91313 0.0
C1301 C 0.03559 0.60383 0.90093 0.0
C1302 C 0.03732 0.59308 0.88618 0.0
C1303 C 0.02406 0.57583 0.88367 0.0
C1304 C 0.00904 0.56942 0.8963 0.0
H1305 H 0.38054 0.40534 0.95836 0.0
H1306 H 0.37735 0.36043 0.92926 0.0
H1307 H 0.3892 0.37634 0.89559 0.0
H1308 H 0.37248 0.42357 0.90962 0.0
H1309 H 0.38834 0.44517 0.91688 0.0
H1310 H 0.37673 0.42954 0.93736 0.0
H1311 H 0.40551 0.43563 0.95384 0.0
H1312 H 0.41716 0.45126 0.93349 0.0
H1313 H 0.42092 0.43379 0.93733 0.0
H1314 H 0.40317 0.39731 0.86639 0.0
H1315 H 0.42138 0.42276 0.84456 0.0
H1316 H 0.41811 0.45503 0.89357 0.0
C1317 C 0.38193 0.39883 0.94463 0.0
C1318 C 0.37779 0.38166 0.94602 0.0
C1319 C 0.38032 0.37356 0.92821 0.0
C1320 C 0.38692 0.38245 0.90906 0.0
C1321 C 0.39116 0.39948 0.90818 0.0
C1322 C 0.38895 0.40768 0.92554 0.0
C1323 C 0.39669 0.42662 0.92127 0.0
C1324 C 0.38272 0.43151 0.92128 0.0
C1325 C 0.41091 0.43745 0.93744 0.0
C1326 C 0.40398 0.42784 0.89906 0.0
C1327 C 0.40024 0.41195 0.89165 0.0
C1328 C 0.40616 0.40982 0.87198 0.0
C1329 C 0.41661 0.42438 0.85978 0.0
C1330 C 0.42135 0.44091 0.86746 0.0
C1331 C 0.41455 0.44257 0.88714 0.0
H1332 H 0.60986 0.01921 0.9703 0.0
H1333 H 0.62155 0.97843 0.96653 0.0
H1334 H 0.60135 0.96563 0.93633 0.0
H1335 H 0.5651 0.99369 0.95891 0.0
H1336 H 0.56465 0.01014 0.94353 0.0
H1337 H 0.58002 0.0159 0.96465 0.0
H1338 H 0.60482 0.03381 0.93802 0.0
H1339 H 0.58953 0.02808 0.9168 0.0
H1340 H 0.60688 0.02382 0.91412 0.0
H1341 H 0.57928 0.95722 0.90652 0.0
H1342 H 0.55798 0.95434 0.8797 0.0
H1343 H 0.56137 0.00085 0.90377 0.0
C1344 C 0.60823 0.00757 0.96321 0.0
C1345 C 0.6173 -0.00018 0.97086 0.0
C1346 C 0.61475 0.98462 0.96097 0.0
C1347 C 0.6033 0.97725 0.94381 0.0
C1348 C 0.59457 0.98528 0.93673 0.0
C1349 C 0.59697 0.00013 0.94614 0.0
C1350 C 0.58616 0.00636 0.93568 0.0
C1351 C 0.57322 0.00652 0.95164 0.0
C1352 C 0.59753 0.02407 0.92555 0.0
C1353 C 0.57723 0.9927 0.91886 0.0
C1354 C 0.58217 0.9806 0.91967 0.0
C1355 C 0.57537 0.96665 0.90575 0.0
C1356 C 0.56323 0.96508 0.89065 0.0
C1357 C 0.5581 0.97743 0.88954 0.0
C1358 C 0.56524 0.99136 0.90392 0.0
H1359 H 0.60729 0.99168 0.07758 0.0
H1360 H 0.65129 0.04237 0.08835 0.0
H1361 H 0.63577 0.04694 0.11776 0.0
H1362 H 0.57577 0.00304 0.08578 0.0
H1363 H 0.56062 0.98347 0.09902 0.0
H1364 H 0.57569 0.98353 0.08003 0.0
H1365 H 0.58668 0.97089 0.10855 0.0
H1366 H 0.5716 0.97078 0.12765 0.0
H1367 H 0.59418 0.98171 0.1338 0.0
H1368 H 0.61498 0.04683 0.14429 0.0
H1369 H 0.59011 0.04201 0.16627 0.0
H1370 H 0.55945 0.99156 0.13817 0.0
C1371 C 0.61375 0.00364 0.08635 0.0
C1372 C 0.63052 0.01667 0.08072 0.0
C1373 C 0.63846 0.03222 0.09238 0.0
C1374 C 0.62976 0.03491 0.10916 0.0
C1375 C 0.61315 0.02193 0.11411 0.0
C1376 C 0.60522 0.00658 0.10311 0.0
C1377 C 0.58696 0.9951 0.11093 0.0
C1378 C 0.574 0.99106 0.09286 0.0
C1379 C 0.58473 0.97865 0.12082 0.0
C1380 C 0.58579 0.00653 0.12776 0.0
C1381 C 0.60109 0.02189 0.12943 0.0
C1382 C 0.60296 0.0348 0.14324 0.0
C1383 C 0.58876 0.03199 0.15556 0.0
C1384 C 0.57289 0.01642 0.15394 0.0
C1385 C 0.5715 0.00348 0.14 0.0
H1386 H 0.01174 0.62267 0.0733 0.0
H1387 H 0.95737 0.60581 0.0723 0.0
H1388 H 0.952 0.58506 0.10068 0.0
H1389 H 0.00702 0.5821 0.08071 0.0
H1390 H 0.02492 0.58924 0.09858 0.0
H1391 H 0.02489 0.60374 0.07918 0.0
H1392 H 0.02913 0.62526 0.10924 0.0
H1393 H 0.02928 0.61085 0.12875 0.0
H1394 H 0.01429 0.6183 0.13143 0.0
H1395 H 0.95196 0.56446 0.12646 0.0
H1396 H 0.9574 0.54606 0.14961 0.0
H1397 H 0.01209 0.57723 0.13603 0.0
C1398 C -0.00124 0.61476 0.07926 0.0
C1399 C 0.98498 0.61584 0.07057 0.0
C1400 C 0.96814 0.60523 0.07872 0.0
C1401 C 0.96494 0.59339 0.09486 0.0
C1402 C 0.97874 0.59244 0.10285 0.0
C1403 C 0.99534 0.60293 0.09553 0.0
C1404 C 0.00772 0.59889 0.10652 0.0
C1405 C 0.01666 0.59315 0.09028 0.0
C1406 C 0.02088 0.61424 0.11977 0.0
C1407 C 0.99539 0.58423 0.12071 0.0
C1408 C 0.97876 0.58078 0.11835 0.0
C1409 C 0.96497 0.56725 0.12883 0.0
C1410 C 0.96825 0.55692 0.14211 0.0
C1411 C 0.98523 0.56024 0.14501 0.0
C1412 C -0.00105 0.57422 0.13419 0.0
H1413 H 0.3978 0.40732 0.06524 0.0
H1414 H 0.40369 0.36346 0.05312 0.0
H1415 H 0.42641 0.37389 0.08052 0.0
H1416 H 0.44159 0.43774 0.0724 0.0
H1417 H 0.43798 0.44919 0.09345 0.0
H1418 H 0.42169 0.4378 0.07367 0.0
H1419 H 0.39957 0.42069 0.10349 0.0
H1420 H 0.41579 0.43208 0.12338 0.0
H1421 H 0.4044 0.40904 0.12266 0.0
H1422 H 0.4499 0.39036 0.10775 0.0
H1423 H 0.47154 0.41099 0.1329 0.0
H1424 H 0.44879 0.44297 0.12817 0.0
C1425 C 0.40378 0.39983 0.06838 0.0
C1426 C 0.39901 0.3846 0.05697 0.0
C1427 C 0.40711 0.37515 0.06169 0.0
C1428 C 0.42003 0.38097 0.07722 0.0
C1429 C 0.42452 0.39614 0.08803 0.0
C1430 C 0.41651 0.40534 0.08391 0.0
C1431 C 0.42381 0.42136 0.09743 0.0
C1432 C 0.43174 0.43747 0.08339 0.0
C1433 C 0.41007 0.42074 0.11264 0.0
C1434 C 0.43745 0.41997 0.10948 0.0
C1435 C 0.43767 0.40533 0.10393 0.0
C1436 C 0.44969 0.40175 0.11241 0.0
C1437 C 0.46188 0.41351 0.12679 0.0
C1438 C 0.46194 0.42866 0.13257 0.0
C1439 C 0.44933 0.43168 0.12394 0.0
H1440 H 0.64237 0.7092 0.40719 0.0
H1441 H 0.69682 0.74489 0.39743 0.0
H1442 H 0.69636 0.76302 0.4265 0.0
H1443 H 0.63083 0.74087 0.41762 0.0
H1444 H 0.61501 0.72859 0.43775 0.0
H1445 H 0.61961 0.71784 0.41677 0.0
H1446 H 0.62649 0.70146 0.44492 0.0
H1447 H 0.62189 0.71216 0.46601 0.0
H1448 H 0.64237 0.71328 0.46505 0.0
H1449 H 0.69016 0.77766 0.45577 0.0
H1450 H 0.67836 0.78843 0.48319 0.0
H1451 H 0.6278 0.74357 0.47447 0.0
C1452 C 0.6542 0.72076 0.4113 0.0
C1453 C 0.66964 0.7256 0.40007 0.0
C1454 C 0.68483 0.74091 0.40578 0.0
C1455 C 0.68473 0.7513 0.42231 0.0
C1456 C 0.66932 0.74624 0.43298 0.0
C1457 C 0.65432 0.73138 0.42774 0.0
C1458 C 0.63942 0.72927 0.4414 0.0
C1459 C 0.62539 0.72914 0.42755 0.0
C1460 C 0.63212 0.71308 0.45516 0.0
C1461 C 0.64842 0.74533 0.45499 0.0
C1462 C 0.66569 0.75484 0.44992 0.0
C1463 C 0.67669 0.77027 0.46002 0.0
C1464 C 0.66987 0.77622 0.4757 0.0
C1465 C 0.65218 0.76678 0.48118 0.0
C1466 C 0.64136 0.7511 0.47063 0.0
H1467 H 0.24821 0.93232 0.40729 0.0
H1468 H 0.29749 0.9361 0.39605 0.0
H1469 H 0.29143 0.91574 0.42538 0.0
H1470 H 0.24854 0.92988 0.46445 0.0
H1471 H 0.22581 0.9148 0.46648 0.0
H1472 H 0.23411 0.92972 0.44466 0.0
H1473 H 0.21991 0.9046 0.41766 0.0
H1474 H 0.21154 0.88962 0.43939 0.0
H1475 H 0.2246 0.88757 0.41904 0.0
H1476 H 0.27969 0.89457 0.45594 0.0
H1477 H 0.2633 0.87461 0.48528 0.0
H1478 H 0.22184 0.88482 0.47586 0.0
C1479 C 0.25777 0.92891 0.41096 0.0
C1480 C 0.27333 0.93584 0.39933 0.0
C1481 C 0.28546 0.93099 0.40472 0.0
C1482 C 0.28215 0.91943 0.42136 0.0
C1483 C 0.26666 0.91284 0.43248 0.0
C1484 C 0.25468 0.91743 0.42749 0.0
C1485 C 0.239 0.9085 0.44177 0.0
C1486 C 0.23674 0.9215 0.45513 0.0
C1487 C 0.22281 0.89688 0.42868 0.0
C1488 C 0.244 0.89815 0.45556 0.0
C1489 C 0.25998 0.90079 0.45 0.0
C1490 C 0.26717 0.89242 0.46044 0.0
C1491 C 0.25774 0.88106 0.47701 0.0
C1492 C 0.24135 0.87824 0.48297 0.0
C1493 C 0.23447 0.88693 0.47199 0.0
H1494 H 0.05712 0.31881 0.3983 0.0
H1495 H 0.0604 0.36733 0.38575 0.0
H1496 H 0.08233 0.38097 0.41395 0.0
H1497 H 0.06241 0.32416 0.45591 0.0
H1498 H 0.0749 0.3138 0.4571 0.0
H1499 H 0.05889 0.30783 0.43671 0.0
H1500 H 0.08191 0.31428 0.40756 0.0
H1501 H 0.09797 0.32027 0.42783 0.0
H1502 H 0.10115 0.33506 0.40681 0.0
H1503 H 0.10533 0.38956 0.44213 0.0
H1504 H 0.12727 0.39229 0.4677 0.0
H1505 H 0.10765 0.33775 0.4624 0.0
C1506 C 0.06235 0.33229 0.40151 0.0
C1507 C 0.05707 0.34201 0.38977 0.0
C1508 C 0.06423 0.35961 0.39457 0.0
C1509 C 0.07667 0.36746 0.41056 0.0
C1510 C 0.08166 0.35749 0.42173 0.0
C1511 C 0.07463 0.34026 0.41746 0.0
C1512 C 0.08244 0.33242 0.43126 0.0
C1513 C 0.06885 0.31875 0.44613 0.0
C1514 C 0.0914 0.32509 0.41754 0.0
C1515 C 0.09527 0.34801 0.44364 0.0
C1516 C 0.0946 0.36234 0.43806 0.0
C1517 C 0.10582 0.37837 0.4468 0.0
C1518 C 0.11818 0.37978 0.46141 0.0
C1519 C 0.11921 0.36525 0.46706 0.0
C1520 C 0.10735 0.34915 0.45827 0.0
H1521 H 0.05855 0.34121 0.27444 0.0
H1522 H 0.01879 0.28856 0.28601 0.0
H1523 H 0.03179 0.27889 0.25856 0.0
H1524 H 0.06214 0.33665 0.21648 0.0
H1525 H 0.08507 0.35099 0.21645 0.0
H1526 H 0.07178 0.35378 0.23573 0.0
H1527 H 0.09 0.35218 0.26637 0.0
H1528 H 0.10328 0.34933 0.24722 0.0
H1529 H 0.09266 0.33386 0.26815 0.0
H1530 H 0.05073 0.27489 0.23241 0.0
H1531 H 0.07374 0.27686 0.20905 0.0
H1532 H 0.10019 0.33227 0.21325 0.0
C1533 C 0.05244 0.32766 0.27101 0.0
C1534 C 0.03768 0.31562 0.28234 0.0
C1535 C 0.03008 0.298 0.27745 0.0
C1536 C 0.03736 0.29239 0.26188 0.0
C1537 C 0.05208 0.30459 0.25121 0.0
C1538 C 0.05944 0.32187 0.25543 0.0
C1539 C 0.07563 0.33232 0.2424 0.0
C1540 C 0.07352 0.34413 0.22684 0.0
C1541 C 0.09131 0.34251 0.2569 0.0
C1542 C 0.07651 0.31819 0.23065 0.0
C1543 C 0.06277 0.3023 0.23583 0.0
C1544 C 0.06139 0.28728 0.22793 0.0
C1545 C 0.0745 0.28854 0.21455 0.0
C1546 C 0.0888 0.30472 0.20918 0.0
C1547 C 0.08955 0.31969 0.21713 0.0
H1548 H 0.65497 0.73174 0.28696 0.0
H1549 H 0.7014 0.72878 0.28816 0.0
H1550 H 0.71336 0.74943 0.25845 0.0
H1551 H 0.65352 0.73577 0.22909 0.0
H1552 H 0.64575 0.75048 0.23129 0.0
H1553 H 0.64046 0.73462 0.25164 0.0
H1554 H 0.65322 0.75847 0.28043 0.0
H1555 H 0.65857 0.77439 0.26019 0.0
H1556 H 0.67505 0.77588 0.27761 0.0
H1557 H 0.72107 0.7721 0.23032 0.0
H1558 H 0.72347 0.79426 0.20542 0.0
H1559 H 0.67187 0.78196 0.22266 0.0
C1560 C 0.66758 0.73525 0.28085 0.0
C1561 C 0.67724 0.72861 0.28993 0.0
C1562 C 0.69372 0.73363 0.28145 0.0
C1563 C 0.70063 0.74536 0.26457 0.0
C1564 C 0.69085 0.75184 0.25623 0.0
C1565 C 0.67462 0.74686 0.264 0.0
C1566 C 0.66695 0.75612 0.25282 0.0
C1567 C 0.65071 0.74349 0.24047 0.0
C1568 C 0.66324 0.76685 0.26871 0.0
C1569 C 0.68152 0.76736 0.23779 0.0
C1570 C 0.69518 0.76468 0.23993 0.0
C1571 C 0.71038 0.77418 0.22837 0.0
C1572 C 0.71167 0.78678 0.21437 0.0
C1573 C 0.69782 0.78974 0.21201 0.0
C1574 C 0.68254 0.77976 0.2238 0.0
H1575 H 0.2582 0.929 0.28645 0.0
H1576 H 0.25896 0.9771 0.29063 0.0
H1577 H 0.23752 0.96752 0.26175 0.0
H1578 H 0.2543 0.92451 0.22942 0.0
H1579 H 0.24019 0.90165 0.23021 0.0
H1580 H 0.25558 0.91233 0.25117 0.0
H1581 H 0.2311 0.8992 0.27935 0.0
H1582 H 0.21564 0.88844 0.25849 0.0
H1583 H 0.21306 0.90236 0.27683 0.0
H1584 H 0.21574 0.95246 0.23251 0.0
H1585 H 0.19551 0.93317 0.20509 0.0
H1586 H 0.20909 0.89503 0.22049 0.0
C1587 C 0.25387 0.93753 0.28131 0.0
C1588 C 0.26024 0.95379 0.29079 0.0
C1589 C 0.25425 0.96458 0.28358 0.0
C1590 C 0.24208 0.95926 0.2672 0.0
C1591 C 0.23607 0.94314 0.25819 0.0
C1592 C 0.24178 0.93245 0.26499 0.0
C1593 C 0.23328 0.91574 0.25275 0.0
C1594 C 0.24664 0.91343 0.24014 0.0
C1595 C 0.22264 0.90054 0.26775 0.0
C1596 C 0.22187 0.91867 0.23801 0.0
C1597 C 0.22364 0.93454 0.24138 0.0
C1598 C 0.21425 0.94 0.22974 0.0
C1599 C 0.20274 0.92894 0.21429 0.0
C1600 C 0.20076 0.91262 0.21059 0.0
C1601 C 0.21051 0.90752 0.22268 0.0
H1602 H 0.67973 0.95326 0.3022 0.0
H1603 H 0.62682 0.91197 0.30942 0.0
H1604 H 0.63045 0.89695 0.27898 0.0
H1605 H 0.68115 0.95239 0.24424 0.0
H1606 H 0.70281 0.95637 0.24296 0.0
H1607 H 0.69617 0.96446 0.2651 0.0
H1608 H 0.70552 0.94893 0.29148 0.0
H1609 H 0.71219 0.9408 0.26942 0.0
H1610 H 0.6969 0.92624 0.28866 0.0
H1611 H 0.63928 0.88613 0.24845 0.0
H1612 H 0.65339 0.87941 0.21946 0.0
H1613 H 0.70099 0.92705 0.23134 0.0
C1614 C 0.66892 0.94111 0.29727 0.0
C1615 C 0.65299 0.93382 0.30823 0.0
C1616 C 0.63918 0.91781 0.30141 0.0
C1617 C 0.64107 0.90917 0.28405 0.0
C1618 C 0.65688 0.91662 0.27369 0.0
C1619 C 0.67062 0.93215 0.27999 0.0
C1620 C 0.68634 0.93691 0.26624 0.0
C1621 C 0.69194 0.95352 0.25391 0.0
C1622 C 0.70111 0.9383 0.27976 0.0
C1623 C 0.6792 0.92158 0.25133 0.0
C1624 C 0.66214 0.91015 0.25592 0.0
C1625 C 0.65261 0.89501 0.24457 0.0
C1626 C 0.66072 0.89137 0.22804 0.0
C1627 C 0.67822 0.9028 0.22296 0.0
C1628 C 0.68759 0.9181 0.23486 0.0
H1629 H 0.03718 0.73224 0.28482 0.0
H1630 H 0.07535 0.71744 0.2947 0.0
H1631 H 0.09186 0.73482 0.26384 0.0
H1632 H 0.03877 0.73232 0.22686 0.0
H1633 H 0.03642 0.75079 0.22436 0.0
H1634 H 0.02716 0.73677 0.24695 0.0
H1635 H 0.04385 0.76245 0.27262 0.0
H1636 H 0.05313 0.77654 0.25013 0.0
H1637 H 0.06686 0.77557 0.27005 0.0
H1638 H 0.10466 0.75415 0.23292 0.0
H1639 H 0.11353 0.77506 0.2039 0.0
H1640 H 0.06701 0.77728 0.21309 0.0
C1641 C 0.04898 0.73261 0.28042 0.0
C1642 C 0.05497 0.72346 0.29215 0.0
C1643 C 0.07051 0.72434 0.28597 0.0
C1644 C 0.07997 0.73414 0.26843 0.0
C1645 C 0.07373 0.74299 0.25721 0.0
C1646 C 0.05864 0.74239 0.26292 0.0
C1647 C 0.05511 0.75351 0.24837 0.0
C1648 C 0.03837 0.7427 0.23589 0.0
C1649 C 0.05472 0.76787 0.26105 0.0
C1650 C 0.07068 0.76055 0.23376 0.0
C1651 C 0.08116 0.75421 0.23913 0.0
C1652 C 0.09648 0.75908 0.22838 0.0
C1653 C 0.10133 0.77087 0.21177 0.0
C1654 C 0.09087 0.77768 0.20595 0.0
C1655 C 0.07529 0.77233 0.21711 0.0
H1656 H 0.27099 0.34152 0.30905 0.0
H1657 H 0.29464 0.31297 0.28662 0.0
H1658 H 0.27399 0.30147 0.25669 0.0
H1659 H 0.22664 0.30867 0.29535 0.0
H1660 H 0.22115 0.32445 0.288 0.0
H1661 H 0.23706 0.32932 0.30822 0.0
H1662 H 0.25893 0.35609 0.28688 0.0
H1663 H 0.24318 0.35121 0.2665 0.0
H1664 H 0.2637 0.35367 0.25953 0.0
H1665 H 0.25263 0.29581 0.22698 0.0
H1666 H 0.23114 0.2946 0.2019 0.0
H1667 H 0.22021 0.32504 0.24597 0.0
C1668 C 0.2717 0.33267 0.298 0.0
C1669 C 0.28444 0.32817 0.30006 0.0
C1670 C 0.2849 0.31649 0.28537 0.0
C1671 C 0.27327 0.30995 0.2683 0.0
C1672 C 0.26108 0.31497 0.26648 0.0
C1673 C 0.26005 0.32582 0.28119 0.0
C1674 C 0.24602 0.32952 0.27558 0.0
C1675 C 0.23188 0.32257 0.29281 0.0
C1676 C 0.25341 0.34876 0.2719 0.0
C1677 C 0.23964 0.31949 0.25503 0.0
C1678 C 0.24845 0.31118 0.24998 0.0
C1679 C 0.24542 0.30199 0.23102 0.0
C1680 C 0.23309 0.30131 0.21689 0.0
C1681 C 0.22383 0.30968 0.22184 0.0
C1682 C 0.22712 0.31867 0.24138 0.0
H1683 H 0.28499 0.33356 0.41146 0.0
H1684 H 0.32816 0.38477 0.40089 0.0
H1685 H 0.31588 0.39619 0.427 0.0
H1686 H 0.25326 0.34478 0.41494 0.0
H1687 H 0.24092 0.32961 0.43554 0.0
H1688 H 0.25381 0.32531 0.41742 0.0
H1689 H 0.26973 0.32171 0.44934 0.0
H1690 H 0.25682 0.32595 0.4676 0.0
H1691 H 0.27992 0.33865 0.46878 0.0
H1692 H 0.29768 0.40224 0.45219 0.0
H1693 H 0.27514 0.40238 0.4746 0.0
H1694 H 0.24449 0.34707 0.46948 0.0
C1695 C 0.29199 0.34714 0.41483 0.0
C1696 C 0.30754 0.35827 0.40416 0.0
C1697 C 0.31624 0.37599 0.40893 0.0
C1698 C 0.30938 0.3826 0.42375 0.0
C1699 C 0.29389 0.3713 0.43377 0.0
C1700 C 0.28536 0.35393 0.42961 0.0
C1701 C 0.26856 0.34461 0.44181 0.0
C1702 C 0.25324 0.33555 0.42651 0.0
C1703 C 0.26878 0.33199 0.45784 0.0
C1704 C 0.26877 0.35949 0.45309 0.0
C1705 C 0.28352 0.37477 0.44839 0.0
C1706 C 0.28618 0.39033 0.45622 0.0
C1707 C 0.27334 0.39027 0.46904 0.0
C1708 C 0.25802 0.37475 0.47385 0.0
C1709 C 0.25594 0.35919 0.46596 0.0
H1710 H 0.6296 0.92881 0.41467 0.0
H1711 H 0.68187 0.96833 0.42884 0.0
H1712 H 0.68161 0.95233 0.46071 0.0
H1713 H 0.6141 0.91618 0.47052 0.0
H1714 H 0.6019 0.89378 0.46377 0.0
H1715 H 0.60506 0.90961 0.44424 0.0
H1716 H 0.61796 0.89694 0.4179 0.0
H1717 H 0.61486 0.88112 0.43732 0.0
H1718 H 0.63592 0.89495 0.42615 0.0
H1719 H 0.67657 0.93132 0.48916 0.0
H1720 H 0.66808 0.90568 0.51083 0.0
H1721 H 0.61988 0.87853 0.4765 0.0
C1722 C 0.64076 0.93427 0.4249 0.0
C1723 C 0.65566 0.94989 0.41968 0.0
C1724 C 0.67031 0.95643 0.43282 0.0
C1725 C 0.67024 0.94748 0.45096 0.0
C1726 C 0.65548 0.93192 0.45552 0.0
C1727 C 0.64104 0.92527 0.44281 0.0
C1728 C 0.6277 0.90735 0.44975 0.0
C1729 C 0.61121 0.9067 0.45754 0.0
C1730 C 0.6239 0.89433 0.43171 0.0
C1731 C 0.63705 0.90485 0.46804 0.0
C1732 C 0.65289 0.91932 0.47135 0.0
C1733 C 0.66417 0.91992 0.48677 0.0
C1734 C 0.65929 0.90523 0.49888 0.0
C1735 C 0.64337 0.89001 0.49527 0.0
C1736 C 0.63201 0.89 0.47988 0.0
H1737 H 0.06445 0.7428 0.40763 0.0
H1738 H 0.05608 0.6913 0.40771 0.0
H1739 H 0.07452 0.69853 0.4396 0.0
H1740 H 0.1083 0.76411 0.42212 0.0
H1741 H 0.10706 0.77984 0.43848 0.0
H1742 H 0.09269 0.77026 0.41633 0.0
H1743 H 0.06659 0.76068 0.44171 0.0
H1744 H 0.08089 0.77021 0.46397 0.0
H1745 H 0.06434 0.74797 0.4648 0.0
H1746 H 0.09492 0.71205 0.47095 0.0
H1747 H 0.11527 0.73055 0.49883 0.0
H1748 H 0.10993 0.7729 0.47731 0.0
C1749 C 0.06637 0.73295 0.41434 0.0
C1750 C 0.05879 0.71646 0.40513 0.0
C1751 C 0.06173 0.70402 0.41449 0.0
C1752 C 0.07217 0.708 0.43261 0.0
C1753 C 0.07949 0.72444 0.44118 0.0
C1754 C 0.07667 0.73668 0.43233 0.0
C1755 C 0.08628 0.75352 0.44413 0.0
C1756 C 0.09936 0.76777 0.42938 0.0
C1757 C 0.07377 0.75837 0.45425 0.0
C1758 C 0.09512 0.74894 0.46094 0.0
C1759 C 0.09105 0.73212 0.45908 0.0
C1760 C 0.09812 0.72522 0.47259 0.0
C1761 C 0.10972 0.73583 0.4883 0.0
C1762 C 0.1141 0.75314 0.49034 0.0
C1763 C 0.10658 0.75965 0.47648 0.0
H1764 H 0.3173 0.03841 0.74114 0.0
H1765 H 0.37024 0.07601 0.72555 0.0
H1766 H 0.36998 0.09537 0.75299 0.0
H1767 H 0.30327 0.06823 0.74921 0.0
H1768 H 0.28908 0.05693 0.7712 0.0
H1769 H 0.29355 0.04535 0.75122 0.0
H1770 H 0.3038 0.03266 0.78055 0.0
H1771 H 0.29931 0.04417 0.80064 0.0
H1772 H 0.32044 0.04684 0.79867 0.0
H1773 H 0.36392 0.11121 0.78053 0.0
H1774 H 0.35225 0.12292 0.8068 0.0
H1775 H 0.3032 0.07528 0.80543 0.0
C1776 C 0.32888 0.05064 0.74369 0.0
C1777 C 0.34381 0.05569 0.73123 0.0
C1778 C 0.35864 0.07187 0.73487 0.0
C1779 C 0.35866 0.08296 0.75046 0.0
C1780 C 0.34373 0.07771 0.76231 0.0
C1781 C 0.3291 0.06196 0.75919 0.0
C1782 C 0.3146 0.05986 0.77365 0.0
C1783 C 0.29922 0.05745 0.76053 0.0
C1784 C 0.30923 0.045 0.78931 0.0
C1785 C 0.32336 0.07696 0.78514 0.0
C1786 C 0.34019 0.08697 0.7784 0.0
C1787 C 0.35082 0.10344 0.78616 0.0
C1788 C 0.34409 0.10993 0.80122 0.0
C1789 C 0.32686 0.09997 0.80844 0.0
C1790 C 0.3164 0.08323 0.80025 0.0
H1791 H 0.92637 0.2707 0.72295 0.0
H1792 H 0.97733 0.27714 0.71959 0.0
H1793 H 0.969 0.25504 0.74729 0.0
H1794 H 0.92076 0.26465 0.77946 0.0
H1795 H 0.89822 0.2489 0.77771 0.0
H1796 H 0.90823 0.26513 0.75754 0.0
H1797 H 0.89783 0.24169 0.72827 0.0
H1798 H 0.88779 0.22538 0.74836 0.0
H1799 H 0.90325 0.2252 0.73018 0.0
H1800 H 0.95491 0.23207 0.7756 0.0
H1801 H 0.93638 0.21066 0.80259 0.0
H1802 H 0.89481 0.21932 0.78659 0.0
C1803 C 0.93582 0.26751 0.72801 0.0
C1804 C 0.95252 0.27569 0.71907 0.0
C1805 C 0.96446 0.27108 0.72619 0.0
C1806 C 0.95985 0.25852 0.74191 0.0
C1807 C 0.94326 0.25069 0.75033 0.0
C1808 C 0.93145 0.25504 0.74363 0.0
C1809 C 0.91448 0.24481 0.75522 0.0
C1810 C 0.91018 0.25658 0.76826 0.0
C1811 C 0.89999 0.2336 0.73957 0.0
C1812 C 0.91859 0.23407 0.76957 0.0
C1813 C 0.93522 0.23758 0.76652 0.0
C1814 C 0.94186 0.2292 0.7781 0.0
C1815 C 0.93122 0.21701 0.7933 0.0
C1816 C 0.9142 0.21339 0.79679 0.0
C1817 C 0.90786 0.22199 0.78457 0.0
H1818 H 0.73883 0.66724 0.71182 0.0
H1819 H 0.70191 0.6782 0.74141 0.0
H1820 H 0.71925 0.68733 0.77441 0.0
H1821 H 0.74835 0.6508 0.75751 0.0
H1822 H 0.77091 0.66049 0.75133 0.0
H1823 H 0.75563 0.655 0.73016 0.0
H1824 H 0.77237 0.6863 0.71666 0.0
H1825 H 0.78772 0.69188 0.7378 0.0
H1826 H 0.77657 0.70348 0.73479 0.0
H1827 H 0.73981 0.69333 0.80503 0.0
H1828 H 0.76316 0.69793 0.82966 0.0
H1829 H 0.78732 0.68493 0.77882 0.0
C1830 C 0.73439 0.67157 0.72524 0.0
C1831 C 0.71898 0.67191 0.72416 0.0
C1832 C 0.7137 0.67787 0.74193 0.0
C1833 C 0.72344 0.68303 0.76073 0.0
C1834 C 0.73853 0.68243 0.76129 0.0
C1835 C 0.74409 0.67706 0.7439 0.0
C1836 C 0.76087 0.67783 0.7484 0.0
C1837 C 0.7588 0.65997 0.74675 0.0
C1838 C 0.77523 0.69064 0.73353 0.0
C1839 C 0.76379 0.68421 0.77118 0.0
C1840 C 0.75072 0.68669 0.77844 0.0
C1841 C 0.75023 0.69168 0.79941 0.0
C1842 C 0.76346 0.69423 0.81327 0.0
C1843 C 0.77704 0.69202 0.80592 0.0
C1844 C 0.77721 0.68703 0.78462 0.0
H1845 H 0.70201 0.64699 0.60469 0.0
H1846 H 0.73536 0.7001 0.62289 0.0
H1847 H 0.75662 0.7028 0.59585 0.0
H1848 H 0.73462 0.63713 0.59758 0.0
H1849 H 0.72486 0.62322 0.57495 0.0
H1850 H 0.71162 0.6258 0.59445 0.0
H1851 H 0.69827 0.63503 0.56474 0.0
H1852 H 0.71142 0.6324 0.5451 0.0
H1853 H 0.71213 0.65254 0.54744 0.0
H1854 H 0.77502 0.69917 0.56878 0.0
H1855 H 0.78934 0.68959 0.54335 0.0
H1856 H 0.74374 0.63896 0.54214 0.0
C1857 C 0.71367 0.65926 0.60279 0.0
C1858 C 0.71703 0.67336 0.61585 0.0
C1859 C 0.73252 0.68915 0.61302 0.0
C1860 C 0.74465 0.69081 0.59769 0.0
C1861 C 0.74105 0.6766 0.58529 0.0
C1862 C 0.72592 0.66115 0.58759 0.0
C1863 C 0.72554 0.64764 0.57292 0.0
C1864 C 0.72408 0.63256 0.58575 0.0
C1865 C 0.71098 0.64155 0.55658 0.0
C1866 C 0.74298 0.65783 0.56231 0.0
C1867 C 0.75166 0.67453 0.56957 0.0
C1868 C 0.76826 0.6862 0.56274 0.0
C1869 C 0.77624 0.68064 0.54817 0.0
C1870 C 0.76763 0.66355 0.54054 0.0
C1871 C 0.75071 0.65208 0.54767 0.0
H1872 H 0.32437 0.05647 0.61984 0.0
H1873 H 0.37198 0.05567 0.61795 0.0
H1874 H 0.38164 0.07504 0.5869 0.0
H1875 H 0.31963 0.05791 0.56205 0.0
H1876 H 0.31117 0.07204 0.56437 0.0
H1877 H 0.30754 0.05717 0.58546 0.0
H1878 H 0.32101 0.08218 0.61267 0.0
H1879 H 0.32468 0.09711 0.5917 0.0
H1880 H 0.34235 0.09999 0.60789 0.0
H1881 H 0.387 0.09629 0.55778 0.0
H1882 H 0.38727 0.11716 0.53238 0.0
H1883 H 0.33604 0.10364 0.55327 0.0
C1884 C 0.33675 0.06018 0.61278 0.0
C1885 C 0.34741 0.05452 0.62136 0.0
C1886 C 0.36355 0.05977 0.61164 0.0
C1887 C 0.36915 0.07077 0.59398 0.0
C1888 C 0.35841 0.07628 0.58613 0.0
C1889 C 0.3425 0.07107 0.59514 0.0
C1890 C 0.33367 0.07932 0.58425 0.0
C1891 C 0.31702 0.0658 0.57338 0.0
C1892 C 0.33023 0.0903 0.60007 0.0
C1893 C 0.34724 0.09028 0.56798 0.0
C1894 C 0.36139 0.08832 0.56924 0.0
C1895 C 0.37591 0.09779 0.5565 0.0
C1896 C 0.37598 0.10965 0.54221 0.0
C1897 C 0.36163 0.11191 0.54077 0.0
C1898 C 0.34705 0.10194 0.55371 0.0
H1899 H 0.94398 0.26852 0.6135 0.0
H1900 H 0.94236 0.31541 0.61073 0.0
H1901 H 0.91869 0.30193 0.58467 0.0
H1902 H 0.93507 0.25713 0.55773 0.0
H1903 H 0.92201 0.23457 0.56307 0.0
H1904 H 0.93916 0.24815 0.58093 0.0
H1905 H 0.91758 0.23787 0.61259 0.0
H1906 H 0.90037 0.2243 0.59483 0.0
H1907 H 0.8988 0.23991 0.61106 0.0
H1908 H 0.89465 0.28294 0.55949 0.0
H1909 H 0.87253 0.26015 0.53675 0.0
H1910 H 0.88972 0.22569 0.55685 0.0
C1911 C 0.93875 0.27602 0.60731 0.0
C1912 C 0.94504 0.29303 0.61411 0.0
C1913 C 0.93776 0.30236 0.60571 0.0
C1914 C 0.92432 0.29481 0.59091 0.0
C1915 C 0.91831 0.27795 0.58471 0.0
C1916 C 0.92533 0.26869 0.59261 0.0
C1917 C 0.91637 0.25068 0.58371 0.0
C1918 C 0.9289 0.24745 0.57058 0.0
C1919 C 0.90777 0.23741 0.60162 0.0
C1920 C 0.90317 0.25122 0.56961 0.0
C1921 C 0.90448 0.26704 0.57037 0.0
C1922 C 0.89351 0.2705 0.55878 0.0
C1923 C 0.88092 0.25744 0.54602 0.0
C1924 C 0.87939 0.24113 0.54498 0.0
C1925 C 0.89069 0.23807 0.55703 0.0
H1926 H 0.31065 0.25863 0.61395 0.0
H1927 H 0.3606 0.30211 0.62975 0.0
H1928 H 0.37403 0.29321 0.60197 0.0
H1929 H 0.32414 0.22897 0.60529 0.0
H1930 H 0.30991 0.21833 0.58323 0.0
H1931 H 0.30413 0.22872 0.60342 0.0
H1932 H 0.30066 0.24694 0.57441 0.0
H1933 H 0.30638 0.23655 0.55411 0.0
H1934 H 0.31824 0.25953 0.55638 0.0
H1935 H 0.38223 0.27821 0.5743 0.0
H1936 H 0.38441 0.25874 0.54851 0.0
H1937 H 0.32886 0.22609 0.54958 0.0
C1938 C 0.3244 0.26638 0.61148 0.0
C1939 C 0.33457 0.28106 0.62407 0.0
C1940 C 0.35252 0.29084 0.62027 0.0
C1941 C 0.36027 0.28589 0.60452 0.0
C1942 C 0.34988 0.27125 0.59256 0.0
C1943 C 0.33231 0.26173 0.59573 0.0
C1944 C 0.32406 0.24629 0.58113 0.0
C1945 C 0.31503 0.22959 0.59404 0.0
C1946 C 0.3116 0.2474 0.56558 0.0
C1947 C 0.33978 0.24838 0.56961 0.0
C1948 C 0.35455 0.26287 0.57633 0.0
C1949 C 0.37071 0.26696 0.56867 0.0
C1950 C 0.37181 0.25586 0.5539 0.0
C1951 C 0.35682 0.24084 0.5469 0.0
C1952 C 0.34062 0.23732 0.55471 0.0
H1953 H 0.70772 0.06287 0.62133 0.0
H1954 H 0.70984 0.01886 0.59834 0.0
H1955 H 0.72473 0.03472 0.56551 0.0
H1956 H 0.70268 0.07869 0.57003 0.0
H1957 H 0.71681 0.10078 0.57718 0.0
H1958 H 0.70454 0.08532 0.59754 0.0
H1959 H 0.73253 0.09385 0.61814 0.0
H1960 H 0.74485 0.10938 0.59794 0.0
H1961 H 0.74985 0.09313 0.60465 0.0
H1962 H 0.73952 0.05553 0.5355 0.0
H1963 H 0.75638 0.08062 0.51258 0.0
H1964 H 0.74754 0.11198 0.55766 0.0
C1965 C 0.71106 0.05651 0.60916 0.0
C1966 C 0.70745 0.03961 0.61203 0.0
C1967 C 0.71245 0.03179 0.59622 0.0
C1968 C 0.7208 0.04065 0.57754 0.0
C1969 C 0.72428 0.05738 0.57521 0.0
C1970 C 0.7198 0.06532 0.59075 0.0
C1971 C 0.72658 0.0839 0.58542 0.0
C1972 C 0.71176 0.08737 0.58236 0.0
C1973 C 0.7392 0.09576 0.60255 0.0
C1974 C 0.73567 0.08523 0.56453 0.0
C1975 C 0.73388 0.06972 0.55869 0.0
C1976 C 0.74116 0.06779 0.54001 0.0
C1977 C 0.75087 0.08221 0.52719 0.0
C1978 C 0.75361 0.09848 0.53336 0.0
C1979 C 0.74562 0.09981 0.55218 0.0
H1980 H 0.94481 0.6739 0.61669 0.0
H1981 H 0.93238 0.62227 0.63127 0.0
H1982 H 0.91124 0.61126 0.60173 0.0
H1983 H 0.90398 0.66533 0.60611 0.0
H1984 H 0.90985 0.68022 0.58439 0.0
H1985 H 0.9252 0.684 0.60487 0.0
H1986 H 0.94686 0.68544 0.5764 0.0
H1987 H 0.93164 0.68188 0.55573 0.0
H1988 H 0.94035 0.66797 0.55785 0.0
H1989 H 0.88854 0.60601 0.57385 0.0
H1990 H 0.8683 0.60703 0.54858 0.0
H1991 H 0.89781 0.66254 0.5507 0.0
C1992 C 0.93788 0.6603 0.61339 0.0
C1993 C 0.94012 0.64889 0.6262 0.0
C1994 C 0.93089 0.63119 0.62146 0.0
C1995 C 0.91885 0.62486 0.60479 0.0
C1996 C 0.91658 0.63648 0.5928 0.0
C1997 C 0.92615 0.65387 0.59666 0.0
C1998 C 0.92099 0.66372 0.58219 0.0
C1999 C 0.91462 0.67391 0.59517 0.0
C2000 C 0.93584 0.67544 0.56715 0.0
C2001 C 0.9065 0.64914 0.57012 0.0
C2002 C 0.90413 0.63351 0.57635 0.0
C2003 C 0.89057 0.61821 0.5685 0.0
C2004 C 0.87915 0.61894 0.55404 0.0
C2005 C 0.88137 0.63487 0.54748 0.0
C2006 C 0.8955 0.6501 0.55545 0.0
H2007 H 0.95695 0.683 0.74027 0.0
H2008 H 0.9301 0.62759 0.73675 0.0
H2009 H 0.90972 0.62585 0.76449 0.0
H2010 H 0.95142 0.68635 0.79784 0.0
H2011 H 0.94816 0.70422 0.79485 0.0
H2012 H 0.96152 0.70108 0.77606 0.0
H2013 H 0.94287 0.70113 0.74491 0.0
H2014 H 0.92947 0.70425 0.76357 0.0
H2015 H 0.92001 0.68636 0.74538 0.0
H2016 H 0.89136 0.63014 0.79091 0.0
H2017 H 0.87587 0.64013 0.81386 0.0
H2018 H 0.91432 0.69276 0.7996 0.0
C2019 C 0.94694 0.67049 0.74558 0.0
C2020 C 0.94513 0.6554 0.73645 0.0
C2021 C 0.93172 0.63929 0.74356 0.0
C2022 C 0.92013 0.63819 0.75935 0.0
C2023 C 0.92215 0.65331 0.76784 0.0
C2024 C 0.93521 0.66916 0.76123 0.0
C2025 C 0.93392 0.68344 0.772 0.0
C2026 C 0.94969 0.69442 0.78602 0.0
C2027 C 0.93141 0.69444 0.75548 0.0
C2028 C 0.91791 0.67314 0.78542 0.0
C2029 C 0.91142 0.65579 0.78293 0.0
C2030 C 0.89636 0.64369 0.79308 0.0
C2031 C 0.88761 0.64949 0.80596 0.0
C2032 C 0.89388 0.66721 0.80848 0.0
C2033 C 0.90935 0.67915 0.79825 0.0
H2034 H 0.33545 0.27635 0.73767 0.0
H2035 H 0.28366 0.26683 0.72964 0.0
H2036 H 0.27309 0.24391 0.75666 0.0
H2037 H 0.32442 0.23327 0.74338 0.0
H2038 H 0.34043 0.23765 0.76329 0.0
H2039 H 0.34399 0.25379 0.74409 0.0
H2040 H 0.34866 0.27502 0.77474 0.0
H2041 H 0.34517 0.25895 0.79405 0.0
H2042 H 0.33236 0.26898 0.79505 0.0
H2043 H 0.26801 0.22089 0.78309 0.0
H2044 H 0.26891 0.20002 0.80727 0.0
H2045 H 0.32428 0.2257 0.79902 0.0
C2046 C 0.3219 0.26953 0.74169 0.0
C2047 C 0.31037 0.27334 0.73155 0.0
C2048 C 0.29273 0.26414 0.73726 0.0
C2049 C 0.28661 0.25111 0.75258 0.0
C2050 C 0.29831 0.24757 0.76215 0.0
C2051 C 0.31561 0.25661 0.75702 0.0
C2052 C 0.32548 0.25014 0.76932 0.0
C2053 C 0.33408 0.2433 0.75411 0.0
C2054 C 0.3387 0.2641 0.78417 0.0
C2055 C 0.311 0.23583 0.78187 0.0
C2056 C 0.29544 0.23457 0.77758 0.0
C2057 C 0.28016 0.22189 0.78676 0.0
C2058 C 0.28082 0.21015 0.80059 0.0
C2059 C 0.29666 0.21118 0.80513 0.0
C2060 C 0.31192 0.22437 0.79574 0.0
H2061 H 0.74003 0.07529 0.71747 0.0
H2062 H 0.7239 0.02185 0.72677 0.0
H2063 H 0.74398 0.02998 0.75709 0.0
H2064 H 0.78494 0.09304 0.73091 0.0
H2065 H 0.78627 0.11134 0.74418 0.0
H2066 H 0.7715 0.10125 0.72248 0.0
H2067 H 0.74641 0.09725 0.74686 0.0
H2068 H 0.76106 0.10721 0.76867 0.0
H2069 H 0.74257 0.08611 0.77183 0.0
H2070 H 0.76541 0.04426 0.78743 0.0
H2071 H 0.78576 0.0633 0.81508 0.0
H2072 H 0.78689 0.10687 0.7855 0.0
C2073 C 0.74082 0.06525 0.72565 0.0
C2074 C 0.73042 0.04792 0.71965 0.0
C2075 C 0.73177 0.03523 0.73102 0.0
C2076 C 0.74315 0.03972 0.74826 0.0
C2077 C 0.75303 0.05694 0.7539 0.0
C2078 C 0.75195 0.06948 0.74286 0.0
C2079 C 0.76335 0.08698 0.75249 0.0
C2080 C 0.77734 0.09884 0.73656 0.0
C2081 C 0.7527 0.09484 0.76043 0.0
C2082 C 0.7709 0.08236 0.77086 0.0
C2083 C 0.76495 0.06502 0.77138 0.0
C2084 C 0.77017 0.05786 0.78712 0.0
C2085 C 0.78173 0.06874 0.80271 0.0
C2086 C 0.78775 0.08651 0.80251 0.0
C2087 C 0.78229 0.09331 0.78627 0.0
H2088 H 0.06327 0.35527 0.04285 0.0
H2089 H 0.01797 0.30457 0.03939 0.0
H2090 H 0.03431 0.29227 0.05473 0.0
H2091 H 0.09502 0.34247 0.03083 0.0
H2092 H 0.11044 0.3575 0.04952 0.0
H2093 H 0.09562 0.36224 0.03661 0.0
H2094 H 0.08519 0.36649 0.07354 0.0
H2095 H 0.09991 0.36169 0.08655 0.0
H2096 H 0.07732 0.34955 0.09295 0.0
H2097 H 0.0549 0.28555 0.07205 0.0
H2098 H 0.07837 0.28491 0.09097 0.0
H2099 H 0.11042 0.33992 0.08366 0.0
C2100 C 0.0569 0.34155 0.045 0.0
C2101 C 0.03938 0.33086 0.03982 0.0
C2102 C 0.03139 0.31301 0.04323 0.0
C2103 C 0.04057 0.30588 0.05188 0.0
C2104 C 0.05773 0.31678 0.05712 0.0
C2105 C 0.06585 0.33422 0.05384 0.0
C2106 C 0.08414 0.34314 0.06199 0.0
C2107 C 0.09707 0.35185 0.04364 0.0
C2108 C 0.08679 0.35597 0.07982 0.0
C2109 C 0.08492 0.32799 0.0706 0.0
C2110 C 0.0696 0.3129 0.06743 0.0
C2111 C 0.06703 0.29726 0.07444 0.0
C2112 C 0.08048 0.29702 0.08508 0.0
C2113 C 0.09628 0.31234 0.08871 0.0
C2114 C 0.09848 0.328 0.08123 0.0
H2115 H 0.63484 0.70939 0.05085 0.0
H2116 H 0.68135 0.71176 0.02738 0.0
H2117 H 0.69879 0.73987 0.04473 0.0
H2118 H 0.64884 0.75351 0.04396 0.0
H2119 H 0.63862 0.75508 0.06799 0.0
H2120 H 0.62979 0.73497 0.05407 0.0
H2121 H 0.63163 0.72042 0.08858 0.0
H2122 H 0.64044 0.74049 0.10262 0.0
H2123 H 0.65191 0.72907 0.10209 0.0
H2124 H 0.71115 0.76815 0.06379 0.0
H2125 H 0.71744 0.79435 0.08349 0.0
H2126 H 0.6629 0.77288 0.09542 0.0
C2127 C 0.64869 0.71579 0.04937 0.0
C2128 C 0.65671 0.70836 0.03772 0.0
C2129 C 0.67489 0.71716 0.03625 0.0
C2130 C 0.68492 0.73315 0.04604 0.0
C2131 C 0.6766 0.74011 0.05734 0.0
C2132 C 0.6589 0.73169 0.05913 0.0
C2133 C 0.65314 0.74199 0.07212 0.0
C2134 C 0.64194 0.74666 0.05873 0.0
C2135 C 0.64373 0.73242 0.09256 0.0
C2136 C 0.67034 0.7576 0.07714 0.0
C2137 C 0.68373 0.75628 0.06852 0.0
C2138 C 0.70078 0.76929 0.07076 0.0
C2139 C 0.70423 0.78408 0.08207 0.0
C2140 C 0.69068 0.78571 0.091 0.0
C2141 C 0.67355 0.77217 0.08855 0.0
H2142 H 0.28155 0.931 0.02288 0.0
H2143 H 0.30186 0.98241 0.04771 0.0
H2144 H 0.27512 0.97268 0.06855 0.0
H2145 H 0.23705 0.92133 0.01813 0.0
H2146 H 0.22829 0.89927 0.02552 0.0
H2147 H 0.24871 0.91057 0.01193 0.0
H2148 H 0.2628 0.90297 0.04248 0.0
H2149 H 0.24247 0.89173 0.0562 0.0
H2150 H 0.26092 0.9087 0.06955 0.0
H2151 H 0.24724 0.9565 0.08933 0.0
H2152 H 0.21984 0.93571 0.1065 0.0
H2153 H 0.21691 0.89568 0.06519 0.0
C2154 C 0.28031 0.94024 0.03257 0.0
C2155 C 0.29377 0.95742 0.0338 0.0
C2156 C 0.29165 0.96918 0.04652 0.0
C2157 C 0.27654 0.96377 0.05842 0.0
C2158 C 0.26359 0.94667 0.05707 0.0
C2159 C 0.26523 0.93515 0.0442 0.0
C2160 C 0.24953 0.91746 0.04564 0.0
C2161 C 0.24035 0.91183 0.02402 0.0
C2162 C 0.25422 0.90446 0.05397 0.0
C2163 C 0.23899 0.9207 0.06181 0.0
C2164 C 0.24728 0.93759 0.06825 0.0
C2165 C 0.24047 0.9433 0.0841 0.0
C2166 C 0.22481 0.93138 0.09367 0.0
C2167 C 0.21607 0.91397 0.08726 0.0
C2168 C 0.22325 0.90877 0.0708 0.0
H2169 H 0.31739 0.02659 0.97203 0.0
H2170 H 0.37213 0.05872 0.98324 0.0
H2171 H 0.37139 0.08348 0.96853 0.0
H2172 H 0.31602 0.04491 0.92295 0.0
H2173 H 0.29579 0.04366 0.9283 0.0
H2174 H 0.30043 0.02853 0.94034 0.0
H2175 H 0.29482 0.03691 0.97787 0.0
H2176 H 0.29005 0.05199 0.96593 0.0
H2177 H 0.30642 0.05903 0.98604 0.0
H2178 H 0.36514 0.10404 0.95014 0.0
H2179 H 0.35356 0.11977 0.93175 0.0
H2180 H 0.30234 0.07487 0.93508 0.0
C2181 C 0.32919 0.03887 0.97151 0.0
C2182 C 0.34483 0.04075 0.9787 0.0
C2183 C 0.36 0.05702 0.97787 0.0
C2184 C 0.35971 0.07114 0.96951 0.0
C2185 C 0.34412 0.0688 0.96233 0.0
C2186 C 0.32909 0.05315 0.9635 0.0
C2187 C 0.31406 0.05411 0.9547 0.0
C2188 C 0.30611 0.04209 0.93543 0.0
C2189 C 0.30054 0.05029 0.97218 0.0
C2190 C 0.32306 0.07269 0.94804 0.0
C2191 C 0.34039 0.08089 0.95252 0.0
C2192 C 0.35152 0.09786 0.94694 0.0
C2193 C 0.34475 0.10673 0.93662 0.0
C2194 C 0.32692 0.09873 0.93219 0.0
C2195 C 0.316 0.08144 0.93808 0.0
H2196 H 0.93754 0.29389 0.98715 0.0
H2197 H 0.98886 0.31047 0.96333 0.0
H2198 H 0.97712 0.28497 0.93999 0.0
H2199 H 0.92354 0.24876 0.98847 0.0
H2200 H 0.90187 0.24209 0.9807 0.0
H2201 H 0.91434 0.26174 0.99532 0.0
H2202 H 0.90919 0.27829 0.96557 0.0
H2203 H 0.89677 0.25871 0.95082 0.0
H2204 H 0.91499 0.27671 0.93841 0.0
H2205 H 0.9595 0.25847 0.91787 0.0
H2206 H 0.9377 0.23192 0.90042 0.0
H2207 H 0.8983 0.23138 0.94124 0.0
C2208 C 0.9463 0.29216 0.977 0.0
C2209 C 0.96409 0.30419 0.97692 0.0
C2210 C 0.97518 0.30138 0.96364 0.0
C2211 C 0.96863 0.28697 0.9503 0.0
C2212 C 0.95101 0.27538 0.9507 0.0
C2213 C 0.94003 0.2777 0.96389 0.0
C2214 C 0.92168 0.26312 0.96166 0.0
C2215 C 0.91497 0.25335 0.98279 0.0
C2216 C 0.90998 0.2696 0.95364 0.0
C2217 C 0.92403 0.25239 0.94491 0.0
C2218 C 0.94101 0.25972 0.93869 0.0
C2219 C 0.94619 0.25246 0.92285 0.0
C2220 C 0.93368 0.23726 0.91313 0.0
C2221 C 0.91618 0.22932 0.91947 0.0
C2222 C 0.91145 0.23708 0.93571 0.0
H2223 H 0.69763 0.65536 0.96515 0.0
H2224 H 0.7038 0.70584 0.97062 0.0
H2225 H 0.73326 0.71868 0.9561 0.0
H2226 H 0.74078 0.66713 0.97901 0.0
H2227 H 0.74207 0.65296 0.9598 0.0
H2228 H 0.7216 0.64774 0.97112 0.0
H2229 H 0.70937 0.64543 0.93319 0.0
H2230 H 0.72978 0.65055 0.92176 0.0
H2231 H 0.72028 0.6632 0.9151 0.0
H2232 H 0.76231 0.72607 0.94179 0.0
H2233 H 0.78818 0.7273 0.92657 0.0
H2234 H 0.76211 0.67181 0.92808 0.0
C2235 C 0.70521 0.66911 0.96334 0.0
C2236 C 0.6985 0.67962 0.96908 0.0
C2237 C 0.70871 0.69755 0.96627 0.0
C2238 C 0.72547 0.70497 0.95812 0.0
C2239 C 0.73174 0.69426 0.95264 0.0
C2240 C 0.72187 0.67671 0.95492 0.0
C2241 C 0.73146 0.66805 0.94713 0.0
C2242 C 0.73413 0.65841 0.96536 0.0
C2243 C 0.72217 0.65611 0.92817 0.0
C2244 C 0.74827 0.68348 0.94025 0.0
C2245 C 0.74824 0.69848 0.94369 0.0
C2246 C 0.76245 0.71438 0.93884 0.0
C2247 C 0.77705 0.71494 0.93006 0.0
C2248 C 0.77728 0.69967 0.92603 0.0
C2249 C 0.76259 0.68377 0.93125 0.0
H2250 H 0.95402 0.66103 0.9751 0.0
H2251 H 0.91373 0.61015 0.99388 0.0
H2252 H 0.89218 0.61511 0.9772 0.0
H2253 H 0.92902 0.68204 0.98283 0.0
H2254 H 0.93805 0.69557 0.95977 0.0
H2255 H 0.95053 0.68852 0.97409 0.0
H2256 H 0.95504 0.6758 0.93919 0.0
H2257 H 0.9426 0.68282 0.92478 0.0
H2258 H 0.9366 0.66062 0.92407 0.0
H2259 H 0.87503 0.62479 0.95792 0.0
H2260 H 0.86309 0.6387 0.93616 0.0
H2261 H 0.91407 0.68328 0.92893 0.0
C2262 C 0.94065 0.651 0.97585 0.0
C2263 C 0.9356 0.6352 0.98583 0.0
C2264 C 0.91798 0.62234 0.98629 0.0
C2265 C 0.90559 0.62504 0.97692 0.0
C2266 C 0.91098 0.64066 0.96711 0.0
C2267 C 0.92805 0.65344 0.96643 0.0
C2268 C 0.93031 0.66879 0.95411 0.0
C2269 C 0.9374 0.68467 0.96857 0.0
C2270 C 0.94182 0.6722 0.93436 0.0
C2271 C 0.91186 0.66249 0.94786 0.0
C2272 C 0.90096 0.64626 0.95567 0.0
C2273 C 0.8834 0.6375 0.9517 0.0
C2274 C 0.87677 0.64547 0.93922 0.0
C2275 C 0.88767 0.662 0.93074 0.0
C2276 C 0.90543 0.67069 0.93535 0.0
H2277 H 0.32295 0.29183 0.97121 0.0
H2278 H 0.37353 0.30481 0.99348 0.0
H2279 H 0.36941 0.27785 0.97831 0.0
H2280 H 0.30218 0.24548 0.98078 0.0
H2281 H 0.28913 0.24011 0.95721 0.0
H2282 H 0.29553 0.25986 0.97114 0.0
H2283 H 0.30885 0.27672 0.93622 0.0
H2284 H 0.30259 0.25706 0.92221 0.0
H2285 H 0.32476 0.274 0.92209 0.0
H2286 H 0.36107 0.2511 0.958 0.0
H2287 H 0.34822 0.22511 0.93546 0.0
H2288 H 0.3026 0.22873 0.92738 0.0
C2289 C 0.33306 0.28888 0.97316 0.0
C2290 C 0.34857 0.30042 0.98353 0.0
C2291 C 0.36152 0.29614 0.98567 0.0
C2292 C 0.3593 0.28087 0.9771 0.0
C2293 C 0.344 0.26993 0.96666 0.0
C2294 C 0.331 0.27361 0.96485 0.0
C2295 C 0.31603 0.2599 0.95224 0.0
C2296 C 0.29976 0.2508 0.96618 0.0
C2297 C 0.31288 0.26737 0.93199 0.0
C2298 C 0.32283 0.24813 0.94682 0.0
C2299 C 0.33898 0.25418 0.95532 0.0
C2300 C 0.34834 0.2461 0.9515 0.0
C2301 C 0.341 0.23144 0.93863 0.0
C2302 C 0.32445 0.22499 0.92986 0.0
C2303 C 0.31518 0.23334 0.93418 0.0
H2304 H 0.70446 0.0451 0.97623 0.0
H2305 H 0.70333 0.08719 0.0079 0.0
H2306 H 0.73059 0.10763 0.99033 0.0
H2307 H 0.75086 0.0632 0.97758 0.0
H2308 H 0.7519 0.05553 0.95133 0.0
H2309 H 0.73274 0.0439 0.96733 0.0
H2310 H 0.71462 0.04588 0.9369 0.0
H2311 H 0.73372 0.05749 0.9208 0.0
H2312 H 0.72037 0.06654 0.92633 0.0
H2313 H 0.75757 0.12351 0.96971 0.0
H2314 H 0.78222 0.13437 0.94518 0.0
H2315 H 0.76544 0.08243 0.92461 0.0
C2316 C 0.71007 0.05861 0.9796 0.0
C2317 C 0.70183 0.06457 0.9935 0.0
C2318 C 0.7094 0.08235 0.99727 0.0
C2319 C 0.72491 0.09406 0.98745 0.0
C2320 C 0.73265 0.08782 0.97375 0.0
C2321 C 0.72549 0.07056 0.96964 0.0
C2322 C 0.73611 0.06744 0.95331 0.0
C2323 C 0.74333 0.05689 0.96297 0.0
C2324 C 0.72557 0.05883 0.93314 0.0
C2325 C 0.75027 0.08567 0.94889 0.0
C2326 C 0.74806 0.09714 0.96106 0.0
C2327 C 0.75938 0.11468 0.95993 0.0
C2328 C 0.77328 0.12072 0.94578 0.0
C2329 C 0.77566 0.1093 0.93263 0.0
C2330 C 0.76404 0.0915 0.93445 0.0
H2331 H 0.66734 0.96095 0.03419 0.0
H2332 H 0.70022 0.00732 0.07 0.0
H2333 H 0.71198 0.9923 0.08976 0.0
H2334 H 0.65696 0.93203 0.07624 0.0
H2335 H 0.65768 0.91562 0.06075 0.0
H2336 H 0.65262 0.9302 0.04803 0.0
H2337 H 0.67762 0.93891 0.02113 0.0
H2338 H 0.68267 0.92421 0.03366 0.0
H2339 H 0.69899 0.94642 0.03093 0.0
H2340 H 0.71753 0.97171 0.10862 0.0
H2341 H 0.71868 0.94741 0.12337 0.0
H2342 H 0.68454 0.9147 0.07321 0.0
C2343 C 0.67722 0.968 0.04593 0.0
C2344 C 0.68284 0.98531 0.05055 0.0
C2345 C 0.69574 0.99408 0.06611 0.0
C2346 C 0.7025 0.98566 0.07746 0.0
C2347 C 0.69645 0.96853 0.07287 0.0
C2348 C 0.68433 0.95983 0.05725 0.0
C2349 C 0.67984 0.94132 0.0559 0.0
C2350 C 0.66064 0.92908 0.06051 0.0
C2351 C 0.6851 0.93749 0.03411 0.0
C2352 C 0.69095 0.94092 0.07363 0.0
C2353 C 0.70038 0.95675 0.08319 0.0
C2354 C 0.71059 0.95934 0.10091 0.0
C2355 C 0.71125 0.94538 0.10907 0.0
C2356 C 0.70198 0.92899 0.09936 0.0
C2357 C 0.69179 0.92691 0.08123 0.0
H2358 H 0.01502 0.70048 0.05733 0.0
H2359 H 0.04023 0.70464 0.9966 0.0
H2360 H 0.06242 0.73436 0.00542 0.0
H2361 H 0.02453 0.74495 0.06081 0.0
H2362 H 0.02836 0.74625 0.08912 0.0
H2363 H 0.01341 0.72602 0.07704 0.0
H2364 H 0.03026 0.71259 0.09276 0.0
H2365 H 0.04526 0.73275 0.10484 0.0
H2366 H 0.05292 0.7223 0.08716 0.0
H2367 H 0.08263 0.76293 0.02158 0.0
H2368 H 0.1002 0.78796 0.04449 0.0
H2369 H 0.06267 0.76458 0.09559 0.0
C2370 C 0.02501 0.70778 0.04571 0.0
C2371 C 0.02584 0.70036 0.02618 0.0
C2372 C 0.03934 0.71014 0.0116 0.0
C2373 C 0.05195 0.72703 0.01644 0.0
C2374 C 0.05092 0.73389 0.03598 0.0
C2375 C 0.03784 0.72457 0.05042 0.0
C2376 C 0.04046 0.73445 0.07099 0.0
C2377 C 0.02582 0.73814 0.0747 0.0
C2378 C 0.04234 0.72496 0.09006 0.0
C2379 C 0.05721 0.75068 0.06597 0.0
C2380 C 0.0629 0.75018 0.0456 0.0
C2381 C 0.07829 0.76348 0.03755 0.0
C2382 C 0.08825 0.77759 0.05077 0.0
C2383 C 0.0829 0.77823 0.07192 0.0
C2384 C 0.06704 0.76463 0.07943 0.0
H2385 H 0.30663 0.36619 0.04549 0.0
H2386 H 0.30712 0.31883 0.03832 0.0
H2387 H 0.27956 0.30343 0.05785 0.0
H2388 H 0.28924 0.35835 0.09841 0.0
H2389 H 0.27632 0.36793 0.09384 0.0
H2390 H 0.29596 0.37518 0.07902 0.0
H2391 H 0.27926 0.36896 0.04352 0.0
H2392 H 0.25957 0.36173 0.05824 0.0
H2393 H 0.2611 0.34791 0.03869 0.0
H2394 H 0.25199 0.29322 0.07848 0.0
H2395 H 0.22661 0.28914 0.09882 0.0
H2396 H 0.24424 0.34312 0.09192 0.0
C2397 C 0.30096 0.35257 0.04797 0.0
C2398 C 0.30906 0.34373 0.04035 0.0
C2399 C 0.30118 0.3259 0.04399 0.0
C2400 C 0.28551 0.31703 0.05506 0.0
C2401 C 0.27791 0.32615 0.06238 0.0
C2402 C 0.28537 0.34352 0.05897 0.0
C2403 C 0.27464 0.35037 0.06858 0.0
C2404 C 0.28464 0.36374 0.086 0.0
C2405 C 0.26827 0.35767 0.05122 0.0
C2406 C 0.26002 0.33414 0.078 0.0
C2407 C 0.26209 0.3203 0.07423 0.0
C2408 C 0.25019 0.30396 0.08148 0.0
C2409 C 0.2358 0.30175 0.09291 0.0
C2410 C 0.23348 0.31581 0.097 0.0
C2411 C 0.24577 0.33217 0.08933 0.0
H2412 H 0.70222 0.67248 0.398 0.0
H2413 H 0.72869 0.69464 0.33828 0.0
H2414 H 0.75133 0.68837 0.34802 0.0
H2415 H 0.74012 0.68911 0.42987 0.0
H2416 H 0.73178 0.67044 0.44655 0.0
H2417 H 0.71731 0.67603 0.43447 0.0
H2418 H 0.70051 0.64593 0.41718 0.0
H2419 H 0.71499 0.64027 0.42915 0.0
H2420 H 0.71182 0.63847 0.40068 0.0
H2421 H 0.77099 0.67962 0.36417 0.0
H2422 H 0.78717 0.67041 0.38636 0.0
H2423 H 0.74864 0.65528 0.43642 0.0
C2424 C 0.71273 0.67593 0.38692 0.0
C2425 C 0.71367 0.68398 0.36733 0.0
C2426 C 0.72772 0.68847 0.35337 0.0
C2427 C 0.74061 0.68491 0.35873 0.0
C2428 C 0.7393 0.67697 0.37817 0.0
C2429 C 0.72579 0.67264 0.39212 0.0
C2430 C 0.72778 0.66478 0.41235 0.0
C2431 C 0.72934 0.67575 0.43196 0.0
C2432 C 0.71289 0.64626 0.41498 0.0
C2433 C 0.74453 0.66539 0.40759 0.0
C2434 C 0.75089 0.67235 0.38774 0.0
C2435 C 0.76619 0.67425 0.37981 0.0
C2436 C 0.77535 0.66908 0.39262 0.0
C2437 C 0.76929 0.66223 0.41326 0.0
C2438 C 0.75357 0.66027 0.42067 0.0
H2439 H 0.29481 0.02631 0.39017 0.0
H2440 H 0.34024 0.02813 0.36368 0.0
H2441 H 0.35824 0.05732 0.37838 0.0
H2442 H 0.3071 0.06923 0.37947 0.0
H2443 H 0.29806 0.07203 0.40383 0.0
H2444 H 0.28899 0.05113 0.39192 0.0
H2445 H 0.29337 0.03916 0.42723 0.0
H2446 H 0.30237 0.06001 0.4393 0.0
H2447 H 0.31443 0.04917 0.439 0.0
H2448 H 0.37105 0.08699 0.3951 0.0
H2449 H 0.37746 0.1141 0.41264 0.0
H2450 H 0.32344 0.09188 0.42854 0.0
C2451 C 0.30856 0.03276 0.38749 0.0
C2452 C 0.31611 0.02491 0.37573 0.0
C2453 C 0.33416 0.03386 0.37268 0.0
C2454 C 0.34449 0.05044 0.38095 0.0
C2455 C 0.33656 0.05783 0.39232 0.0
C2456 C 0.319 0.0492 0.39566 0.0
C2457 C 0.3135 0.05992 0.40814 0.0
C2458 C 0.30119 0.06328 0.39505 0.0
C2459 C 0.30545 0.05157 0.4297 0.0
C2460 C 0.33067 0.07607 0.4111 0.0
C2461 C 0.34386 0.07467 0.40195 0.0
C2462 C 0.36082 0.08817 0.40244 0.0
C2463 C 0.36435 0.10349 0.41251 0.0
C2464 C 0.35095 0.10517 0.4219 0.0
C2465 C 0.33395 0.09116 0.42123 0.0
H2466 H 0.95978 0.26351 0.36525 0.0
H2467 H 0.97561 0.31423 0.38952 0.0
H2468 H 0.949 0.30223 0.41126 0.0
H2469 H 0.91456 0.24979 0.36102 0.0
H2470 H 0.90756 0.22807 0.36847 0.0
H2471 H 0.92784 0.24076 0.35497 0.0
H2472 H 0.94331 0.23506 0.38568 0.0
H2473 H 0.9231 0.22241 0.3993 0.0
H2474 H 0.94066 0.24031 0.41271 0.0
H2475 H 0.92152 0.28418 0.4321 0.0
H2476 H 0.8945 0.26193 0.44855 0.0
H2477 H 0.89561 0.22372 0.40752 0.0
C2478 C 0.95765 0.27208 0.37516 0.0
C2479 C 0.96975 0.28975 0.3759 0.0
C2480 C 0.96643 0.30064 0.38878 0.0
C2481 C 0.95141 0.29395 0.40118 0.0
C2482 C 0.93975 0.27642 0.40015 0.0
C2483 C 0.9426 0.2657 0.38725 0.0
C2484 C 0.92793 0.24742 0.38865 0.0
C2485 C 0.91894 0.24114 0.36699 0.0
C2486 C 0.93413 0.23561 0.39709 0.0
C2487 C 0.91655 0.24946 0.40473 0.0
C2488 C 0.92358 0.26624 0.41127 0.0
C2489 C 0.91573 0.27103 0.42683 0.0
C2490 C 0.90029 0.25829 0.43598 0.0
C2491 C 0.89276 0.24098 0.42935 0.0
C2492 C 0.90102 0.2367 0.41328 0.0
H2493 H 0.02594 0.38844 0.30981 0.0
H2494 H 0.97371 0.34529 0.30822 0.0
H2495 H 0.96405 0.36347 0.29154 0.0
H2496 H 0.01514 0.42143 0.32069 0.0
H2497 H 0.03199 0.43688 0.30366 0.0
H2498 H 0.03459 0.42078 0.31683 0.0
H2499 H 0.04043 0.41109 0.2803 0.0
H2500 H 0.03775 0.42709 0.26701 0.0
H2501 H 0.02488 0.40496 0.25925 0.0
H2502 H 0.96024 0.38588 0.27386 0.0
H2503 H 0.96262 0.41109 0.25583 0.0
H2504 H 0.01738 0.43952 0.26843 0.0
C2505 C 0.01244 0.38288 0.30622 0.0
C2506 C 0.00055 0.36549 0.31039 0.0
C2507 C 0.98303 0.3586 0.30517 0.0
C2508 C 0.97741 0.36882 0.29574 0.0
C2509 C 0.98949 0.38586 0.29157 0.0
C2510 C 0.00664 0.39286 0.29663 0.0
C2511 C 0.01711 0.41132 0.28958 0.0
C2512 C 0.02518 0.42331 0.30884 0.0
C2513 C 0.03085 0.41375 0.27305 0.0
C2514 C 0.00319 0.41353 0.27958 0.0
C2515 C 0.98734 0.39874 0.28105 0.0
C2516 C 0.97256 0.39759 0.27273 0.0
C2517 C 0.97402 0.41197 0.2626 0.0
C2518 C 0.99017 0.42724 0.2608 0.0
C2519 C 0.0049 0.42797 0.26945 0.0
H2520 H 0.6063 0.64259 0.30747 0.0
H2521 H 0.64532 0.63559 0.33762 0.0
H2522 H 0.63234 0.60665 0.32199 0.0
H2523 H 0.5708 0.59866 0.31258 0.0
H2524 H 0.56214 0.59857 0.28675 0.0
H2525 H 0.57375 0.61826 0.30156 0.0
H2526 H 0.59448 0.63225 0.26949 0.0
H2527 H 0.58297 0.61261 0.25462 0.0
H2528 H 0.60576 0.62224 0.25865 0.0
H2529 H 0.6155 0.57873 0.30255 0.0
H2530 H 0.59654 0.55412 0.27978 0.0
H2531 H 0.56962 0.58006 0.26042 0.0
C2532 C 0.61195 0.63487 0.31105 0.0
C2533 C 0.62674 0.64128 0.3239 0.0
C2534 C 0.63397 0.63092 0.32784 0.0
C2535 C 0.62667 0.61445 0.31908 0.0
C2536 C 0.61222 0.60858 0.30626 0.0
C2537 C 0.60497 0.61848 0.30217 0.0
C2538 C 0.59002 0.60949 0.28692 0.0
C2539 C 0.57318 0.60604 0.2976 0.0
C2540 C 0.59353 0.61976 0.26619 0.0
C2541 C 0.59006 0.59304 0.28303 0.0
C2542 C 0.60287 0.59271 0.29447 0.0
C2543 C 0.60546 0.57887 0.29343 0.0
C2544 C 0.5947 0.56499 0.28028 0.0
C2545 C 0.5816 0.56511 0.26812 0.0
C2546 C 0.57932 0.57939 0.26966 0.0
H2547 H 0.36032 0.99815 0.30675 0.0
H2548 H 0.32903 0.94277 0.30811 0.0
H2549 H 0.35188 0.94067 0.2891 0.0
H2550 H 0.37962 0.00207 0.25496 0.0
H2551 H 0.40049 0.01931 0.26272 0.0
H2552 H 0.38149 0.01663 0.2759 0.0
H2553 H 0.39383 0.01528 0.31253 0.0
H2554 H 0.4129 0.01805 0.29947 0.0
H2555 H 0.40051 -0.00011 0.31657 0.0
H2556 H 0.3774 0.94444 0.26894 0.0
H2557 H 0.40524 0.95371 0.25159 0.0
H2558 H 0.4213 0.00666 0.266 0.0
C2559 C 0.3583 0.98561 0.30297 0.0
C2560 C 0.3429 0.97061 0.30878 0.0
C2561 C 0.34077 0.95441 0.30383 0.0
C2562 C 0.35363 0.95308 0.29296 0.0
C2563 C 0.36864 0.96808 0.28741 0.0
C2564 C 0.37117 0.98403 0.29245 0.0
C2565 C 0.38885 0.99807 0.28538 0.0
C2566 C 0.38752 0.0097 0.26875 0.0
C2567 C 0.39966 0.00843 0.30463 0.0
C2568 C 0.39576 0.98747 0.27549 0.0
C2569 C 0.3838 0.97023 0.27665 0.0
C2570 C 0.38699 0.95791 0.2682 0.0
C2571 C 0.40295 0.96333 0.25853 0.0
C2572 C 0.41571 0.98093 0.25766 0.0
C2573 C 0.4119 0.99312 0.26619 0.0
H2574 H 0.58778 0.95175 0.32227 0.0
H2575 H 0.6284 0.00181 0.3428 0.0
H2576 H 0.61407 0.0152 0.3246 0.0
H2577 H 0.58367 0.96511 0.27012 0.0
H2578 H 0.56072 0.95101 0.26899 0.0
H2579 H 0.5736 0.94528 0.28471 0.0
H2580 H 0.55506 0.94205 0.31808 0.0
H2581 H 0.54214 0.94779 0.30245 0.0
H2582 H 0.55247 0.95968 0.32631 0.0
H2583 H 0.59514 0.02305 0.30466 0.0
H2584 H 0.57394 0.02511 0.28247 0.0
H2585 H 0.54712 0.97013 0.27217 0.0
C2586 C 0.59354 0.96551 0.32312 0.0
C2587 C 0.60909 0.97576 0.33409 0.0
C2588 C 0.61645 0.99375 0.33449 0.0
C2589 C 0.6084 0.00145 0.32427 0.0
C2590 C 0.59313 0.991 0.31347 0.0
C2591 C 0.58585 0.97345 0.31263 0.0
C2592 C 0.56986 0.96525 0.299 0.0
C2593 C 0.57211 0.95613 0.27955 0.0
C2594 C 0.55394 0.95297 0.31226 0.0
C2595 C 0.56924 0.98093 0.29241 0.0
C2596 C 0.58268 0.99563 0.30109 0.0
C2597 C 0.58465 0.01165 0.29757 0.0
C2598 C 0.57259 0.01269 0.28475 0.0
C2599 C 0.55884 0.99782 0.27529 0.0
C2600 C 0.55727 0.98176 0.27928 0.0
H2601 H 0.03234 0.63983 0.31845 0.0
H2602 H 0.98108 0.6325 0.31549 0.0
H2603 H 0.97059 0.6045 0.29807 0.0
H2604 H 0.03136 0.62256 0.26734 0.0
H2605 H 0.04331 0.61247 0.27485 0.0
H2606 H 0.04659 0.63126 0.28887 0.0
H2607 H 0.03946 0.61497 0.32475 0.0
H2608 H 0.03625 0.59614 0.31085 0.0
H2609 H 0.01946 0.59504 0.32768 0.0
H2610 H 0.96585 0.57802 0.27982 0.0
H2611 H 0.9673 0.55486 0.26089 0.0
H2612 H 0.02177 0.5796 0.27458 0.0
C2613 C 0.01886 0.63218 0.31445 0.0
C2614 C 0.00748 0.63823 0.31843 0.0
C2615 C 0.99 0.62806 0.31259 0.0
C2616 C 0.98391 0.61213 0.30275 0.0
C2617 C 0.9955 0.60663 0.29874 0.0
C2618 C 0.01261 0.61632 0.30434 0.0
C2619 C 0.02254 0.60786 0.29705 0.0
C2620 C 0.03679 0.61922 0.28108 0.0
C2621 C 0.02986 0.60322 0.31623 0.0
C2622 C 0.00836 0.592 0.28632 0.0
C2623 C 0.99284 0.59148 0.28768 0.0
C2624 C 0.97789 0.5782 0.27876 0.0
C2625 C 0.97883 0.5651 0.26812 0.0
C2626 C 0.99462 0.56543 0.26636 0.0
C2627 C 0.00955 0.57907 0.2756 0.0
H2628 H 0.37556 0.40525 0.30253 0.0
H2629 H 0.37601 0.35828 0.31317 0.0
H2630 H 0.40326 0.37008 0.29304 0.0
H2631 H 0.39306 0.41295 0.24885 0.0
H2632 H 0.40563 0.4358 0.25247 0.0
H2633 H 0.38588 0.42344 0.26717 0.0
H2634 H 0.40217 0.43575 0.30268 0.0
H2635 H 0.42196 0.44814 0.2881 0.0
H2636 H 0.42049 0.43365 0.30863 0.0
H2637 H 0.43094 0.38736 0.27266 0.0
H2638 H 0.45686 0.40878 0.25321 0.0
H2639 H 0.43829 0.4444 0.25621 0.0
C2640 C 0.3813 0.39738 0.30055 0.0
C2641 C 0.37361 0.38082 0.30945 0.0
C2642 C 0.38163 0.37099 0.3065 0.0
C2643 C 0.39711 0.37758 0.29508 0.0
C2644 C 0.40439 0.39398 0.28664 0.0
C2645 C 0.39673 0.40373 0.28919 0.0
C2646 C 0.40735 0.4211 0.27889 0.0
C2647 C 0.39739 0.42345 0.26077 0.0
C2648 C 0.41335 0.4355 0.29557 0.0
C2649 C 0.42225 0.41965 0.2703 0.0
C2650 C 0.42029 0.4039 0.27489 0.0
C2651 C 0.4326 0.39972 0.26893 0.0
C2652 C 0.44731 0.412 0.25801 0.0
C2653 C 0.44959 0.42824 0.25317 0.0
C2654 C 0.43681 0.43201 0.25938 0.0
H2655 H 0.31973 0.28331 0.37905 0.0
H2656 H 0.37108 0.32796 0.38052 0.0
H2657 H 0.38195 0.31079 0.39706 0.0
H2658 H 0.32203 0.26676 0.42963 0.0
H2659 H 0.31004 0.24465 0.42148 0.0
H2660 H 0.30627 0.26016 0.40877 0.0
H2661 H 0.31259 0.2515 0.37183 0.0
H2662 H 0.3163 0.23591 0.38442 0.0
H2663 H 0.3326 0.25206 0.36748 0.0
H2664 H 0.38725 0.28922 0.41416 0.0
H2665 H 0.38659 0.26447 0.43107 0.0
H2666 H 0.33186 0.23365 0.41887 0.0
C2667 C 0.33329 0.28942 0.38267 0.0
C2668 C 0.34457 0.30697 0.37843 0.0
C2669 C 0.36219 0.31454 0.38362 0.0
C2670 C 0.36851 0.3049 0.39299 0.0
C2671 C 0.35705 0.2877 0.39716 0.0
C2672 C 0.33981 0.27999 0.39219 0.0
C2673 C 0.3302 0.26139 0.39894 0.0
C2674 C 0.31632 0.25805 0.4157 0.0
C2675 C 0.32247 0.24951 0.37951 0.0
C2676 C 0.34471 0.25991 0.40856 0.0
C2677 C 0.36009 0.27523 0.40725 0.0
C2678 C 0.37531 0.27712 0.41516 0.0
C2679 C 0.37481 0.26296 0.42464 0.0
C2680 C 0.35921 0.2471 0.4262 0.0
C2681 C 0.34397 0.24563 0.41805 0.0
H2682 H 0.71657 0.02598 0.37647 0.0
H2683 H 0.67706 0.03705 0.35836 0.0
H2684 H 0.69606 0.06733 0.36837 0.0
H2685 H 0.72821 0.05034 0.42255 0.0
H2686 H 0.75085 0.05778 0.42085 0.0
H2687 H 0.73559 0.03778 0.40871 0.0
H2688 H 0.75118 0.04829 0.37228 0.0
H2689 H 0.76659 0.06834 0.38437 0.0
H2690 H 0.75466 0.06812 0.36135 0.0
H2691 H 0.71784 0.09539 0.38364 0.0
H2692 H 0.74062 0.11931 0.4042 0.0
H2693 H 0.76538 0.08968 0.41446 0.0
C2694 C 0.71219 0.03493 0.37397 0.0
C2695 C 0.6955 0.02932 0.36636 0.0
C2696 C 0.68989 0.0412 0.36401 0.0
C2697 C 0.7006 0.0584 0.36958 0.0
C2698 C 0.71683 0.06348 0.37762 0.0
C2699 C 0.72263 0.05212 0.37984 0.0
C2700 C 0.73977 0.06041 0.39116 0.0
C2701 C 0.73852 0.05102 0.41205 0.0
C2702 C 0.75389 0.06135 0.3764 0.0
C2703 C 0.74244 0.07803 0.39546 0.0
C2704 C 0.7292 0.07961 0.38718 0.0
C2705 C 0.72835 0.09437 0.39005 0.0
C2706 C 0.74127 0.10783 0.40192 0.0
C2707 C 0.75476 0.10636 0.41102 0.0
C2708 C 0.75542 0.09132 0.40742 0.0
H2709 H 0.97738 0.70385 0.39464 0.0
H2710 H 0.96544 0.66246 0.35027 0.0
H2711 H 0.93563 0.64666 0.36404 0.0
H2712 H 0.95284 0.67645 0.43832 0.0
H2713 H 0.94605 0.69075 0.4483 0.0
H2714 H 0.96618 0.69917 0.43422 0.0
H2715 H 0.95656 0.71428 0.40749 0.0
H2716 H 0.9364 0.70591 0.4215 0.0
H2717 H 0.93663 0.70189 0.39334 0.0
H2718 H 0.90693 0.63601 0.38166 0.0
H2719 H 0.8818 0.63023 0.40342 0.0
H2720 H 0.91352 0.67703 0.43931 0.0
C2721 C 0.96841 0.69154 0.38773 0.0
C2722 C 0.97356 0.68441 0.37126 0.0
C2723 C 0.96165 0.66811 0.36287 0.0
C2724 C 0.94473 0.65908 0.37056 0.0
C2725 C 0.94005 0.6664 0.3869 0.0
C2726 C 0.95159 0.68215 0.39558 0.0
C2727 C 0.9435 0.68675 0.41371 0.0
C2728 C 0.95269 0.68837 0.43489 0.0
C2729 C 0.94326 0.70318 0.4087 0.0
C2730 C 0.92556 0.67124 0.41365 0.0
C2731 C 0.9238 0.65973 0.39795 0.0
C2732 C 0.90822 0.64479 0.39425 0.0
C2733 C 0.89402 0.64154 0.40691 0.0
C2734 C 0.89553 0.65304 0.42337 0.0
C2735 C 0.91167 0.668 0.42678 0.0
H2736 H 0.37173 0.99129 0.71846 0.0
H2737 H 0.409 0.04074 0.69226 0.0
H2738 H 0.43243 0.03855 0.709 0.0
H2739 H 0.39164 0.99614 0.76821 0.0
H2740 H 0.38681 0.97433 0.76986 0.0
H2741 H 0.37299 0.97932 0.75498 0.0
H2742 H 0.37699 0.96492 0.72134 0.0
H2743 H 0.39074 0.95977 0.73617 0.0
H2744 H 0.39837 0.97173 0.71172 0.0
H2745 H 0.45146 0.03215 0.73108 0.0
H2746 H 0.46516 0.02074 0.75452 0.0
H2747 H 0.4158 0.97482 0.76481 0.0
C2748 C 0.38484 0.00157 0.71605 0.0
C2749 C 0.38856 0.0162 0.70409 0.0
C2750 C 0.40587 0.02938 0.70128 0.0
C2751 C 0.41926 0.02827 0.71077 0.0
C2752 C 0.41512 0.0138 0.72276 0.0
C2753 C 0.39837 0.00057 0.72517 0.0
C2754 C 0.39741 0.98649 0.73901 0.0
C2755 C 0.38657 0.98393 0.75921 0.0
C2756 C 0.39047 0.96974 0.7263 0.0
C2757 C 0.41621 0.99403 0.74434 0.0
C2758 C 0.42619 0.00984 0.73488 0.0
C2759 C 0.44382 0.0197 0.73834 0.0
C2760 C 0.45146 0.01318 0.75172 0.0
C2761 C 0.44151 0.99692 0.76128 0.0
C2762 C 0.42368 0.9872 0.75744 0.0
H2763 H 0.97363 0.37278 0.69628 0.0
H2764 H 0.01196 0.3601 0.71472 0.0
H2765 H 0.0261 0.38609 0.7373 0.0
H2766 H 0.00315 0.4189 0.69348 0.0
H2767 H 0.98737 0.42377 0.70348 0.0
H2768 H 0.98065 0.40442 0.68848 0.0
H2769 H 0.96061 0.38668 0.7197 0.0
H2770 H 0.96736 0.40595 0.73485 0.0
H2771 H 0.96947 0.38887 0.74598 0.0
H2772 H 0.03448 0.41222 0.76015 0.0
H2773 H 0.038 0.43762 0.77912 0.0
H2774 H 0.99568 0.43448 0.74292 0.0
C2775 C 0.98506 0.37551 0.70497 0.0
C2776 C 0.99167 0.36439 0.70386 0.0
C2777 C 0.00673 0.36849 0.71531 0.0
C2778 C 0.0148 0.38318 0.72822 0.0
C2779 C 0.00781 0.39376 0.72917 0.0
C2780 C 0.99343 0.39024 0.71758 0.0
C2781 C 0.98854 0.40371 0.72123 0.0
C2782 C 0.99002 0.41327 0.70043 0.0
C2783 C 0.97042 0.39583 0.73102 0.0
C2784 C 0.00218 0.41518 0.73704 0.0
C2785 C 0.01313 0.40919 0.74151 0.0
C2786 C 0.02619 0.41721 0.75646 0.0
C2787 C 0.02816 0.43175 0.76706 0.0
C2788 C 0.01724 0.43832 0.76251 0.0
C2789 C 0.00417 0.42984 0.74711 0.0
H2790 H 0.63301 0.62841 0.70716 0.0
H2791 H 0.6372 0.58904 0.67272 0.0
H2792 H 0.60975 0.56698 0.68864 0.0
H2793 H 0.61714 0.60507 0.7551 0.0
H2794 H 0.60289 0.61294 0.76133 0.0
H2795 H 0.62204 0.62581 0.74579 0.0
H2796 H 0.60372 0.62786 0.71566 0.0
H2797 H 0.5845 0.61499 0.73113 0.0
H2798 H 0.58628 0.60853 0.70443 0.0
H2799 H 0.58258 0.54927 0.70886 0.0
H2800 H 0.55791 0.53662 0.73356 0.0
H2801 H 0.57204 0.58731 0.75658 0.0
C2802 C 0.62801 0.61517 0.70271 0.0
C2803 C 0.63714 0.61041 0.68857 0.0
C2804 C 0.63039 0.59294 0.68349 0.0
C2805 C 0.61479 0.58035 0.69238 0.0
C2806 C 0.6062 0.58544 0.70642 0.0
C2807 C 0.61258 0.60241 0.71166 0.0
C2808 C 0.60136 0.60432 0.72826 0.0
C2809 C 0.61146 0.61252 0.74884 0.0
C2810 C 0.5935 0.61453 0.71933 0.0
C2811 C 0.58778 0.58574 0.73167 0.0
C2812 C 0.59074 0.57512 0.71872 0.0
C2813 C 0.58015 0.55744 0.71914 0.0
C2814 C 0.56625 0.55038 0.73339 0.0
C2815 C 0.56315 0.56095 0.74725 0.0
C2816 C 0.57399 0.5789 0.74612 0.0
H2817 H 0.65275 0.69013 0.62441 0.0
H2818 H 0.66716 0.71146 0.68816 0.0
H2819 H 0.65763 0.73193 0.68006 0.0
H2820 H 0.66845 0.72931 0.59857 0.0
H2821 H 0.65173 0.72157 0.57883 0.0
H2822 H 0.65751 0.70717 0.59049 0.0
H2823 H 0.6259 0.6871 0.60225 0.0
H2824 H 0.62001 0.70147 0.5906 0.0
H2825 H 0.61521 0.69551 0.61826 0.0
H2826 H 0.64841 0.75116 0.66438 0.0
H2827 H 0.64158 0.76895 0.64171 0.0
H2828 H 0.63455 0.73603 0.58751 0.0
C2829 C 0.65354 0.69886 0.63682 0.0
C2830 C 0.66051 0.69913 0.65699 0.0
C2831 C 0.66178 0.71102 0.67264 0.0
C2832 C 0.65633 0.72262 0.66821 0.0
C2833 C 0.64976 0.7222 0.64804 0.0
C2834 C 0.6484 0.71068 0.63256 0.0
C2835 C 0.64235 0.71391 0.61158 0.0
C2836 C 0.65581 0.71825 0.59383 0.0
C2837 C 0.62482 0.69858 0.60531 0.0
C2838 C 0.64085 0.72927 0.61756 0.0
C2839 C 0.64493 0.73367 0.63875 0.0
C2840 C 0.64513 0.7478 0.64779 0.0
C2841 C 0.64135 0.75789 0.63474 0.0
C2842 C 0.63764 0.75394 0.6128 0.0
C2843 C 0.6371 0.73924 0.60427 0.0
H2844 H 0.27556 0.96177 0.66696 0.0
H2845 H 0.32513 0.9746 0.64018 0.0
H2846 H 0.31157 0.94703 0.62094 0.0
H2847 H 0.26006 0.91605 0.67406 0.0
H2848 H 0.23826 0.90972 0.66741 0.0
H2849 H 0.25201 0.9302 0.67974 0.0
H2850 H 0.24625 0.94516 0.64855 0.0
H2851 H 0.2326 0.92476 0.63605 0.0
H2852 H 0.25058 0.9414 0.62154 0.0
H2853 H 0.29224 0.91947 0.60196 0.0
H2854 H 0.26895 0.89274 0.58677 0.0
H2855 H 0.23232 0.89643 0.6286 0.0
C2856 C 0.28358 0.9587 0.6572 0.0
C2857 C 0.30139 0.97035 0.65501 0.0
C2858 C 0.31147 0.96584 0.64217 0.0
C2859 C 0.30388 0.95023 0.63113 0.0
C2860 C 0.28626 0.93915 0.63339 0.0
C2861 C 0.27627 0.94304 0.64636 0.0
C2862 C 0.25761 0.92888 0.64595 0.0
C2863 C 0.25164 0.92073 0.66811 0.0
C2864 C 0.24609 0.93545 0.63751 0.0
C2865 C 0.25863 0.91663 0.6303 0.0
C2866 C 0.27525 0.92283 0.62321 0.0
C2867 C 0.27922 0.91428 0.60775 0.0
C2868 C 0.26584 0.89897 0.59933 0.0
C2869 C 0.24866 0.89216 0.60656 0.0
C2870 C 0.24518 0.90118 0.62245 0.0
H2871 H 0.04234 0.34804 0.62801 0.0
H2872 H 0.02683 0.2971 0.65066 0.0
H2873 H 0.05334 0.29975 0.63551 0.0
H2874 H 0.06062 0.34533 0.57875 0.0
H2875 H 0.07822 0.36712 0.57929 0.0
H2876 H 0.0583 0.36153 0.59253 0.0
H2877 H 0.07458 0.37416 0.62795 0.0
H2878 H 0.09458 0.37982 0.6148 0.0
H2879 H 0.08809 0.36664 0.63833 0.0
H2880 H 0.08052 0.30714 0.6163 0.0
H2881 H 0.10758 0.31947 0.59557 0.0
H2882 H 0.1061 0.36597 0.5863 0.0
C2883 C 0.04458 0.3375 0.6299 0.0
C2884 C 0.03251 0.32235 0.6405 0.0
C2885 C 0.03591 0.30883 0.64265 0.0
C2886 C 0.05092 0.31021 0.63409 0.0
C2887 C 0.06247 0.32523 0.62359 0.0
C2888 C 0.05959 0.33871 0.6216 0.0
C2889 C 0.07405 0.35338 0.60937 0.0
C2890 C 0.06739 0.35705 0.58876 0.0
C2891 C 0.08338 0.36945 0.62346 0.0
C2892 C 0.08539 0.34594 0.60457 0.0
C2893 C 0.07843 0.32967 0.61288 0.0
C2894 C 0.08618 0.31991 0.60986 0.0
C2895 C 0.10147 0.32697 0.598 0.0
C2896 C 0.10888 0.34364 0.58944 0.0
C2897 C 0.10078 0.35327 0.59291 0.0
H2898 H 0.2637 0.30264 0.63791 0.0
H2899 H 0.31169 0.34863 0.65395 0.0
H2900 H 0.30144 0.36617 0.63677 0.0
H2901 H 0.25893 0.31626 0.5866 0.0
H2902 H 0.23592 0.30632 0.5887 0.0
H2903 H 0.24685 0.29747 0.60283 0.0
H2904 H 0.23333 0.29979 0.63842 0.0
H2905 H 0.22233 0.30862 0.62438 0.0
H2906 H 0.23613 0.32015 0.64646 0.0
H2907 H 0.286 0.37864 0.61722 0.0
H2908 H 0.26676 0.38495 0.59639 0.0
H2909 H 0.22903 0.33072 0.5936 0.0
C2910 C 0.27206 0.3164 0.63793 0.0
C2911 C 0.2885 0.32424 0.64733 0.0
C2912 C 0.29904 0.34231 0.64687 0.0
C2913 C 0.29332 0.35239 0.63717 0.0
C2914 C 0.27706 0.34422 0.62801 0.0
C2915 C 0.26659 0.32663 0.62831 0.0
C2916 C 0.24981 0.32095 0.61701 0.0
C2917 C 0.24777 0.30958 0.59764 0.0
C2918 C 0.2345 0.31184 0.6325 0.0
C2919 C 0.2525 0.33807 0.61017 0.0
C2920 C 0.26825 0.35136 0.61672 0.0
C2921 C 0.2736 0.36834 0.61208 0.0
C2922 C 0.26257 0.3718 0.60035 0.0
C2923 C 0.24642 0.35833 0.59334 0.0
C2924 C 0.24137 0.34128 0.59849 0.0
H2925 H 0.64728 0.95909 0.63474 0.0
H2926 H 0.67217 0.95618 0.69211 0.0
H2927 H 0.66317 0.92621 0.68352 0.0
H2928 H 0.61105 0.91375 0.63433 0.0
H2929 H 0.61197 0.91225 0.60571 0.0
H2930 H 0.61782 0.93245 0.61811 0.0
H2931 H 0.6474 0.94644 0.59897 0.0
H2932 H 0.64169 0.92631 0.58663 0.0
H2933 H 0.66096 0.9374 0.60234 0.0
H2934 H 0.65455 0.89806 0.66688 0.0
H2935 H 0.64727 0.87363 0.64298 0.0
H2936 H 0.62868 0.89494 0.59574 0.0
C2937 C 0.65037 0.95196 0.64582 0.0
C2938 C 0.66024 0.95984 0.66422 0.0
C2939 C 0.66451 0.95031 0.678 0.0
C2940 C 0.65941 0.93328 0.6733 0.0
C2941 C 0.65008 0.926 0.65473 0.0
C2942 C 0.64555 0.935 0.64121 0.0
C2943 C 0.6371 0.92482 0.62117 0.0
C2944 C 0.61837 0.92057 0.61975 0.0
C2945 C 0.64741 0.93431 0.6011 0.0
C2946 C 0.63806 0.90891 0.62525 0.0
C2947 C 0.64536 0.90977 0.64485 0.0
C2948 C 0.64863 0.89714 0.65162 0.0
C2949 C 0.64456 0.88339 0.63789 0.0
C2950 C 0.63742 0.88242 0.61754 0.0
C2951 C 0.63385 0.89521 0.61135 0.0
H2952 H 0.03379 0.70132 0.65808 0.0
H2953 H 0.00901 0.73093 0.64751 0.0
H2954 H 0.03484 0.75283 0.62877 0.0
H2955 H 0.07588 0.73756 0.66835 0.0
H2956 H 0.08718 0.72847 0.65512 0.0
H2957 H 0.06652 0.71468 0.66725 0.0
H2958 H 0.05514 0.69883 0.63124 0.0
H2959 H 0.07575 0.71261 0.61899 0.0
H2960 H 0.05664 0.71087 0.60774 0.0
H2961 H 0.06271 0.77118 0.61069 0.0
H2962 H 0.09201 0.78605 0.59594 0.0
H2963 H 0.0999 0.74575 0.61974 0.0
C2964 C 0.0338 0.71239 0.65175 0.0
C2965 C 0.01936 0.71439 0.65424 0.0
C2966 C 0.01993 0.72913 0.6459 0.0
C2967 C 0.03452 0.74163 0.63514 0.0
C2968 C 0.04851 0.7393 0.63297 0.0
C2969 C 0.04839 0.72515 0.64115 0.0
C2970 C 0.06545 0.72615 0.63709 0.0
C2971 C 0.07428 0.72676 0.65821 0.0
C2972 C 0.0631 0.71123 0.62292 0.0
C2973 C 0.0751 0.74305 0.62535 0.0
C2974 C 0.06498 0.7503 0.62305 0.0
C2975 C 0.07085 0.76575 0.61258 0.0
C2976 C 0.0876 0.77417 0.60441 0.0
C2977 C 0.09845 0.76726 0.60695 0.0
C2978 C 0.09197 0.75138 0.61744 0.0
H2979 H 0.98734 0.60837 0.69466 0.0
H2980 H 0.02496 0.65698 0.72265 0.0
H2981 H 0.03701 0.64251 0.74307 0.0
H2982 H 0.97884 0.58378 0.74054 0.0
H2983 H 0.97686 0.56515 0.72741 0.0
H2984 H 0.97215 0.57937 0.71308 0.0
H2985 H 0.99434 0.58341 0.68386 0.0
H2986 H -0.00102 0.56902 0.69798 0.0
H2987 H 0.01611 0.59024 0.69137 0.0
H2988 H 0.04269 0.62266 0.76366 0.0
H2989 H 0.04329 0.59888 0.78114 0.0
H2990 H 0.00332 0.56299 0.73844 0.0
C2991 C -0.00164 0.61602 0.7047 0.0
C2992 C 0.00521 0.63383 0.70702 0.0
C2993 C 0.0195 0.64334 0.72056 0.0
C2994 C 0.02645 0.63523 0.73225 0.0
C2995 C 0.0191 0.61762 0.7301 0.0
C2996 C 0.00555 0.60812 0.71645 0.0
C2997 C -0.00037 0.58924 0.71786 0.0
C2998 C 0.98075 0.57877 0.72516 0.0
C2999 C 0.00244 0.58259 0.6965 0.0
C3000 C 0.01165 0.58962 0.73486 0.0
C3001 C 0.02278 0.60613 0.74164 0.0
C3002 C 0.03434 0.60969 0.75812 0.0
C3003 C 0.03465 0.59603 0.76788 0.0
C3004 C 0.02358 0.57893 0.76104 0.0
C3005 C 0.01197 0.57581 0.74419 0.0
H3006 H 0.3593 0.36399 0.7299 0.0
H3007 H 0.38902 0.36075 0.67722 0.0
H3008 H 0.41406 0.38821 0.68831 0.0
H3009 H 0.37711 0.4097 0.7284 0.0
H3010 H 0.37737 0.412 0.757 0.0
H3011 H 0.36155 0.39229 0.74464 0.0
H3012 H 0.3714 0.37546 0.76803 0.0
H3013 H 0.3872 0.39511 0.78049 0.0
H3014 H 0.3937 0.3814 0.76782 0.0
H3015 H 0.4357 0.41594 0.70478 0.0
H3016 H 0.4531 0.44176 0.72649 0.0
H3017 H 0.40983 0.42638 0.76962 0.0
C3018 C 0.37105 0.3691 0.72065 0.0
C3019 C 0.37221 0.36028 0.70265 0.0
C3020 C 0.38786 0.36729 0.69107 0.0
C3021 C 0.40213 0.38289 0.69721 0.0
C3022 C 0.40058 0.39125 0.71503 0.0
C3023 C 0.38549 0.38459 0.72668 0.0
C3024 C 0.38743 0.39594 0.74556 0.0
C3025 C 0.37514 0.40289 0.74378 0.0
C3026 C 0.38478 0.38641 0.76672 0.0
C3027 C 0.40596 0.41002 0.74267 0.0
C3028 C 0.41325 0.40709 0.72489 0.0
C3029 C 0.43019 0.41832 0.71884 0.0
C3030 C 0.44 0.43289 0.73138 0.0
C3031 C 0.43292 0.43606 0.74992 0.0
C3032 C 0.41561 0.42444 0.75548 0.0
H3033 H 0.63179 0.00345 0.70551 0.0
H3034 H 0.65965 0.05829 0.71669 0.0
H3035 H 0.63664 0.05512 0.74097 0.0
H3036 H 0.58987 -0.00123 0.7046 0.0
H3037 H 0.57942 0.97827 0.71766 0.0
H3038 H 0.5984 0.98472 0.70171 0.0
H3039 H 0.61311 0.97983 0.73397 0.0
H3040 H 0.59421 0.97347 0.75007 0.0
H3041 H 0.61477 0.99064 0.75885 0.0
H3042 H 0.61111 0.04617 0.76431 0.0
H3043 H 0.58329 0.03226 0.7832 0.0
H3044 H 0.57105 0.98338 0.75552 0.0
C3045 C 0.63306 0.01478 0.71312 0.0
C3046 C 0.64754 0.03111 0.70926 0.0
C3047 C 0.64865 0.04565 0.71934 0.0
C3048 C 0.6357 0.04398 0.73326 0.0
C3049 C 0.62166 0.02772 0.73679 0.0
C3050 C 0.62013 0.01338 0.72688 0.0
C3051 C 0.60334 0.99748 0.73283 0.0
C3052 C 0.59209 0.98934 0.71302 0.0
C3053 C 0.60656 0.9846 0.74463 0.0
C3054 C 0.59568 0.00517 0.7476 0.0
C3055 C 0.60657 0.02259 0.7498 0.0
C3056 C 0.60239 0.03255 0.76259 0.0
C3057 C 0.58651 0.02453 0.77315 0.0
C3058 C 0.57486 0.00675 0.77065 0.0
C3059 C 0.57968 0.99695 0.7579 0.0
loop_
_geom_bond_atom_site_label_1
_geom_bond_atom_site_label_2
_geom_bond_distance
_geom_bond_site_symmetry_2
_ccdc_geom_bond_type
C0 O1 1.306 1_556 S
C0 O3 1.160 . S
O1 C0 1.306 1_554 S
O1 Cd2 2.228 . S
Cd2 O1 2.228 . S
Cd2 O6 2.273 . S
Cd2 O10 2.277 1_554 S
O3 C0 1.160 . S
O3 Cd4 2.203 1_656 S
Cd4 O3 2.203 1_454 S
Cd4 O6 2.411 1_455 S
Cd4 O7 2.333 . S
Cd4 O8 2.352 . S
Cd4 O12 2.277 1_554 S
Cd4 O13 2.356 . S
C5 O10 1.209 1_455 S
C5 O12 1.226 . S
O6 Cd2 2.273 . S
O6 Cd4 2.411 1_655 S
O6 C9 1.300 1_655 S
O7 Cd4 2.333 . S
O7 C9 1.266 . S
O8 Cd4 2.352 . S
O8 C11 1.258 . S
C9 O6 1.300 1_455 S
C9 O7 1.266 . S
O10 Cd2 2.277 1_556 S
O10 C5 1.209 1_655 S
C11 O8 1.258 . S
C11 O13 1.282 . S
O12 Cd4 2.277 1_556 S
O12 C5 1.226 . S
O13 Cd4 2.356 . S
O13 C11 1.282 . S
C14 O15 1.306 . S
C14 O17 1.160 . S
O15 C14 1.306 . S
O15 Cd16 2.228 . S
Cd16 O15 2.228 . S
Cd16 O20 2.273 1_554 S
Cd16 O24 2.277 . S
O17 C14 1.160 . S
O17 Cd18 2.203 . S
Cd18 O17 2.203 . S
Cd18 O20 2.411 1_554 S
Cd18 O21 2.333 1_554 S
Cd18 O22 2.352 1_554 S
Cd18 O26 2.277 . S
Cd18 O27 2.356 . S
C19 O24 1.209 . S
C19 O26 1.226 . S
O20 Cd16 2.273 1_556 S
O20 Cd18 2.411 1_556 S
O20 C23 1.320 . S
O21 Cd18 2.333 1_556 S
O21 C23 1.214 . S
O22 Cd18 2.352 1_556 S
O22 C25 1.258 . S
C23 O20 1.320 . S
C23 O21 1.214 . S
O24 Cd16 2.277 . S
O24 C19 1.209 . S
C25 O22 1.258 . S
C25 O27 1.282 1_556 S
O26 Cd18 2.277 . S
O26 C19 1.226 . S
O27 Cd18 2.356 . S
O27 C25 1.282 1_554 S
C28 O29 1.306 . S
C28 O31 1.160 . S
O29 C28 1.306 . S
O29 Cd30 2.228 . S
Cd30 O29 2.228 . S
Cd30 O34 2.273 1_554 S
Cd30 O38 2.277 . S
O31 C28 1.160 . S
O31 Cd32 2.203 1_565 S
Cd32 O31 2.203 1_545 S
Cd32 O34 2.411 1_544 S
Cd32 O35 2.333 1_554 S
Cd32 O36 2.352 1_554 S
Cd32 O40 2.277 . S
Cd32 O41 2.356 . S
C33 O38 1.209 1_545 S
C33 O40 1.226 . S
O34 Cd30 2.273 1_556 S
O34 Cd32 2.411 1_566 S
O34 C37 1.320 1_565 S
O35 Cd32 2.333 1_556 S
O35 C37 1.214 . S
O36 Cd32 2.352 1_556 S
O36 C39 1.258 . S
C37 O34 1.320 1_545 S
C37 O35 1.214 . S
O38 Cd30 2.277 . S
O38 C33 1.209 1_565 S
C39 O36 1.258 . S
C39 O41 1.282 1_556 S
O40 Cd32 2.277 . S
O40 C33 1.226 . S
O41 Cd32 2.356 . S
O41 C39 1.282 1_554 S
C42 O43 1.285 1_556 S
C42 O45 1.160 . S
O43 C42 1.285 1_554 S
O43 Cd44 2.241 . S
Cd44 O43 2.241 . S
Cd44 O48 2.273 . S
Cd44 O52 2.277 1_554 S
O45 C42 1.160 . S
O45 Cd46 2.203 1_656 S
Cd46 O45 2.203 1_454 S
Cd46 O48 2.411 1_455 S
Cd46 O49 2.333 . S
Cd46 O50 2.352 . S
Cd46 O54 2.277 1_554 S
Cd46 O55 2.356 . S
C47 O52 1.209 1_455 S
C47 O54 1.226 . S
O48 Cd44 2.273 . S
O48 Cd46 2.411 1_655 S
O48 C51 1.370 . S
O49 Cd46 2.333 . S
O49 C51 1.173 1_455 S
O50 Cd46 2.352 . S
O50 C53 1.258 . S
C51 O48 1.370 . S
C51 O49 1.173 1_655 S
O52 Cd44 2.277 1_556 S
O52 C47 1.209 1_655 S
C53 O50 1.258 . S
C53 O55 1.282 . S
O54 Cd46 2.277 1_556 S
O54 C47 1.226 . S
O55 Cd46 2.356 . S
O55 C53 1.282 . S
C56 O57 1.306 . S
C56 O59 1.160 . S
O57 C56 1.306 . S
O57 Cd58 2.228 . S
Cd58 O57 2.228 . S
Cd58 O62 2.273 1_554 S
Cd58 O66 2.277 . S
O59 C56 1.160 . S
O59 Cd60 2.203 . S
Cd60 O59 2.203 . S
Cd60 O62 2.411 1_554 S
Cd60 O63 2.333 1_554 S
Cd60 O64 2.352 1_554 S
Cd60 O68 2.277 . S
Cd60 O69 2.356 . S
C61 O66 1.209 . S
C61 O68 1.226 . S
O62 Cd58 2.273 1_556 S
O62 Cd60 2.411 1_556 S
O62 C65 1.320 . S
O63 Cd60 2.333 1_556 S
O63 C65 1.214 . S
O64 Cd60 2.352 1_556 S
O64 C67 1.258 . S
C65 O62 1.320 . S
C65 O63 1.214 . S
O66 Cd58 2.277 . S
O66 C61 1.209 . S
C67 O64 1.258 . S
C67 O69 1.282 1_556 S
O68 Cd60 2.277 . S
O68 C61 1.226 . S
O69 Cd60 2.356 . S
O69 C67 1.282 1_554 S
C70 O71 1.306 1_556 S
C70 O73 1.160 . S
O71 C70 1.306 1_554 S
O71 Cd72 2.228 . S
Cd72 O71 2.228 . S
Cd72 O76 2.273 . S
Cd72 O80 2.277 1_554 S
O73 C70 1.160 . S
O73 Cd74 2.203 1_546 S
Cd74 O73 2.203 1_564 S
Cd74 O76 2.411 1_565 S
Cd74 O77 2.333 . S
Cd74 O78 2.352 . S
Cd74 O82 2.277 1_554 S
Cd74 O83 2.356 . S
C75 O80 1.209 1_565 S
C75 O82 1.226 . S
O76 Cd72 2.273 . S
O76 Cd74 2.411 1_545 S
O76 C79 1.320 . S
O77 Cd74 2.333 . S
O77 C79 1.214 1_565 S
O78 Cd74 2.352 . S
O78 C81 1.258 . S
C79 O76 1.320 . S
C79 O77 1.214 1_545 S
O80 Cd72 2.277 1_556 S
O80 C75 1.209 1_545 S
C81 O78 1.258 . S
C81 O83 1.282 . S
O82 Cd74 2.277 1_556 S
O82 C75 1.226 . S
O83 Cd74 2.356 . S
O83 C81 1.282 . S
C84 O85 1.306 . S
C84 O87 1.160 . S
O85 C84 1.306 . S
O85 Cd86 2.228 . S
Cd86 O85 2.228 . S
Cd86 O90 2.273 . S
Cd86 O94 2.277 . S
O87 C84 1.160 . S
O87 Cd88 2.203 . S
Cd88 O87 2.203 . S
Cd88 O90 2.411 . S
Cd88 O91 2.333 . S
Cd88 O92 2.352 . S
Cd88 O96 2.277 . S
Cd88 O97 2.356 . S
C89 O94 1.209 . S
C89 O96 1.226 . S
O90 Cd86 2.273 . S
O90 Cd88 2.411 . S
O90 C93 1.320 . S
O91 Cd88 2.333 . S
O91 C93 1.214 . S
O92 Cd88 2.352 . S
O92 C95 1.258 . S
C93 O90 1.320 . S
C93 O91 1.214 . S
O94 Cd86 2.277 . S
O94 C89 1.209 . S
C95 O92 1.258 . S
C95 O97 1.282 . S
O96 Cd88 2.277 . S
O96 C89 1.226 . S
O97 Cd88 2.356 . S
O97 C95 1.282 . S
C98 O99 1.306 . S
C98 O101 1.160 . S
O99 C98 1.306 . S
O99 Cd100 2.228 1_545 S
Cd100 O99 2.228 1_565 S
Cd100 O104 2.273 . S
Cd100 O108 2.277 . S
O101 C98 1.160 . S
O101 Cd102 2.203 1_545 S
Cd102 O101 2.203 1_565 S
Cd102 O104 2.411 . S
Cd102 O105 2.333 . S
Cd102 O106 2.370 . S
Cd102 O110 2.277 . S
Cd102 O111 2.356 . S
C103 O108 1.209 . S
C103 O110 1.226 . S
O104 Cd100 2.273 . S
O104 Cd102 2.411 . S
O104 C107 1.320 . S
O105 Cd102 2.333 . S
O105 C107 1.214 . S
O106 Cd102 2.370 . S
O106 C109 1.326 . S
C107 O104 1.320 . S
C107 O105 1.214 . S
O108 Cd100 2.277 . S
O108 C103 1.209 . S
C109 O106 1.326 . S
C109 O111 1.282 . S
O110 Cd102 2.277 . S
O110 C103 1.226 . S
O111 Cd102 2.356 . S
O111 C109 1.282 . S
C112 O113 1.306 . S
C112 O115 1.160 1_655 S
O113 C112 1.306 . S
O113 Cd114 2.228 1_655 S
Cd114 O113 2.228 1_455 S
Cd114 O118 2.273 . S
Cd114 O122 2.277 . S
O115 C112 1.160 1_455 S
O115 Cd116 2.234 . S
Cd116 O115 2.234 . S
Cd116 O118 2.411 . S
Cd116 O119 2.333 . S
Cd116 O120 2.352 . S
Cd116 O124 2.277 . S
Cd116 O125 2.356 . S
C117 O122 1.209 . S
C117 O124 1.226 . S
O118 Cd114 2.273 . S
O118 Cd116 2.411 . S
O118 C121 1.320 . S
O119 Cd116 2.333 . S
O119 C121 1.214 . S
O120 Cd116 2.352 . S
O120 C123 1.258 . S
C121 O118 1.320 . S
C121 O119 1.214 . S
O122 Cd114 2.277 . S
O122 C117 1.209 . S
C123 O120 1.258 . S
C123 O125 1.282 . S
O124 Cd116 2.277 . S
O124 C117 1.226 . S
O125 Cd116 2.356 . S
O125 C123 1.282 . S
C126 O127 1.306 . S
C126 O129 1.160 . S
O127 C126 1.306 . S
O127 Cd128 2.228 . S
Cd128 O127 2.228 . S
Cd128 O132 2.273 . S
Cd128 O136 2.277 . S
O129 C126 1.160 . S
O129 Cd130 2.203 . S
Cd130 O129 2.203 . S
Cd130 O132 2.411 . S
Cd130 O133 2.333 . S
Cd130 O134 2.352 1_565 S
Cd130 O138 2.277 . S
Cd130 O139 2.356 1_565 S
C131 O136 1.209 . S
C131 O138 1.226 . S
O132 Cd128 2.273 . S
O132 Cd130 2.411 . S
O132 C135 1.320 . S
O133 Cd130 2.333 . S
O133 C135 1.214 . S
O134 Cd130 2.352 1_545 S
O134 C137 1.258 . S
C135 O132 1.320 . S
C135 O133 1.214 . S
O136 Cd128 2.277 . S
O136 C131 1.209 . S
C137 O134 1.258 . S
C137 O139 1.282 . S
O138 Cd130 2.277 . S
O138 C131 1.226 . S
O139 Cd130 2.356 1_545 S
O139 C137 1.282 . S
C140 O141 1.306 . S
C140 O143 1.160 . S
O141 C140 1.306 . S
O141 Cd142 2.228 1_655 S
Cd142 O141 2.228 1_455 S
Cd142 O146 2.273 . S
Cd142 O150 2.277 . S
O143 C140 1.160 . S
O143 Cd144 2.203 1_655 S
Cd144 O143 2.203 1_455 S
Cd144 O146 2.411 . S
Cd144 O147 2.333 . S
Cd144 O148 2.352 . S
Cd144 O152 2.277 . S
Cd144 O153 2.356 . S
C145 O150 1.209 . S
C145 O152 1.226 . S
O146 Cd142 2.273 . S
O146 Cd144 2.411 . S
O146 C149 1.320 . S
O147 Cd144 2.333 . S
O147 C149 1.214 . S
O148 Cd144 2.352 . S
O148 C151 1.258 . S
C149 O146 1.320 . S
C149 O147 1.214 . S
O150 Cd142 2.277 . S
O150 C145 1.209 . S
C151 O148 1.258 . S
C151 O153 1.282 . S
O152 Cd144 2.277 . S
O152 C145 1.226 . S
O153 Cd144 2.356 . S
O153 C151 1.282 . S
C154 O155 1.306 . S
C154 O157 1.160 . S
O155 C154 1.306 . S
O155 Cd156 2.228 . S
Cd156 O155 2.228 . S
Cd156 O160 2.273 . S
Cd156 O164 2.277 . S
O157 C154 1.160 . S
O157 Cd158 2.203 . S
Cd158 O157 2.203 . S
Cd158 O160 2.411 . S
Cd158 O161 2.333 . S
Cd158 O162 2.352 . S
Cd158 O166 2.277 . S
Cd158 O167 2.356 . S
C159 O164 1.209 . S
C159 O166 1.226 . S
O160 Cd156 2.273 . S
O160 Cd158 2.411 . S
O160 C163 1.320 . S
O161 Cd158 2.333 . S
O161 C163 1.214 . S
O162 Cd158 2.352 . S
O162 C165 1.258 . S
C163 O160 1.320 . S
C163 O161 1.214 . S
O164 Cd156 2.277 . S
O164 C159 1.209 . S
C165 O162 1.258 . S
C165 O167 1.282 . S
O166 Cd158 2.277 . S
O166 C159 1.226 . S
O167 Cd158 2.356 . S
O167 C165 1.282 . S
C168 O169 1.306 . S
C168 O171 1.160 . S
O169 C168 1.306 . S
O169 Cd170 2.228 1_565 S
Cd170 O169 2.228 1_545 S
Cd170 O174 2.273 . S
Cd170 O178 2.277 . S
O171 C168 1.160 . S
O171 Cd172 2.203 1_565 S
Cd172 O171 2.203 1_545 S
Cd172 O174 2.411 . S
Cd172 O175 2.333 . S
Cd172 O176 2.352 . S
Cd172 O180 2.277 . S
Cd172 O181 2.356 . S
C173 O178 1.209 . S
C173 O180 1.226 . S
O174 Cd170 2.273 . S
O174 Cd172 2.411 . S
O174 C177 1.320 . S
O175 Cd172 2.333 . S
O175 C177 1.214 . S
O176 Cd172 2.352 . S
O176 C179 1.258 . S
C177 O174 1.320 . S
C177 O175 1.214 . S
O178 Cd170 2.277 . S
O178 C173 1.209 . S
C179 O176 1.258 . S
C179 O181 1.282 . S
O180 Cd172 2.277 . S
O180 C173 1.226 . S
O181 Cd172 2.356 . S
O181 C179 1.282 . S
C182 O183 1.306 . S
C182 O185 1.160 . S
O183 C182 1.306 . S
O183 Cd184 2.228 . S
Cd184 O183 2.228 . S
Cd184 O188 2.273 . S
Cd184 O192 2.277 . S
O185 C182 1.160 . S
O185 Cd186 2.203 . S
Cd186 O185 2.203 . S
Cd186 O188 2.411 . S
Cd186 O189 2.333 . S
Cd186 O190 2.352 1_655 S
Cd186 O194 2.277 . S
Cd186 O195 2.356 1_655 S
C187 O192 1.209 . S
C187 O194 1.226 . S
O188 Cd184 2.273 . S
O188 Cd186 2.411 . S
O188 C191 1.320 . S
O189 Cd186 2.333 . S
O189 C191 1.214 . S
O190 Cd186 2.352 1_455 S
O190 C193 1.258 . S
C191 O188 1.320 . S
C191 O189 1.214 . S
O192 Cd184 2.277 . S
O192 C187 1.209 . S
C193 O190 1.258 . S
C193 O195 1.282 . S
O194 Cd186 2.277 . S
O194 C187 1.226 . S
O195 Cd186 2.356 1_455 S
O195 C193 1.282 . S
C196 O197 1.306 . S
C196 O199 1.160 . S
O197 C196 1.306 . S
O197 Cd198 2.228 . S
Cd198 O197 2.228 . S
Cd198 O202 2.273 . S
Cd198 O206 2.277 . S
O199 C196 1.160 . S
O199 Cd200 2.203 . S
Cd200 O199 2.203 . S
Cd200 O202 2.411 . S
Cd200 O203 2.333 . S
Cd200 O204 2.352 . S
Cd200 O208 2.277 . S
Cd200 O209 2.356 . S
C201 O206 1.209 . S
C201 O208 1.226 . S
O202 Cd198 2.273 . S
O202 Cd200 2.411 . S
O202 C205 1.320 . S
O203 Cd200 2.333 . S
O203 C205 1.214 . S
O204 Cd200 2.352 . S
O204 C207 1.258 . S
C205 O202 1.320 . S
C205 O203 1.214 . S
O206 Cd198 2.277 . S
O206 C201 1.209 . S
C207 O204 1.258 . S
C207 O209 1.282 . S
O208 Cd200 2.277 . S
O208 C201 1.226 . S
O209 Cd200 2.356 . S
O209 C207 1.282 . S
C210 O211 1.306 . S
C210 O213 1.160 . S
O211 C210 1.306 . S
O211 Cd212 2.228 . S
Cd212 O211 2.228 . S
Cd212 O216 2.273 . S
Cd212 O220 2.277 . S
O213 C210 1.160 . S
O213 Cd214 2.203 . S
Cd214 O213 2.203 . S
Cd214 O216 2.411 . S
Cd214 O217 2.333 . S
Cd214 O218 2.352 . S
Cd214 O222 2.277 . S
Cd214 O223 2.356 . S
C215 O220 1.209 . S
C215 O222 1.226 . S
O216 Cd212 2.273 . S
O216 Cd214 2.411 . S
O216 C219 1.320 . S
O217 Cd214 2.333 . S
O217 C219 1.214 . S
O218 Cd214 2.352 . S
O218 C221 1.258 . S
C219 O216 1.320 . S
C219 O217 1.214 . S
O220 Cd212 2.277 . S
O220 C215 1.209 . S
C221 O218 1.258 . S
C221 O223 1.282 . S
O222 Cd214 2.277 . S
O222 C215 1.226 . S
O223 Cd214 2.356 . S
O223 C221 1.282 . S
C224 O225 1.306 . S
C224 O227 1.160 . S
O225 C224 1.306 . S
O225 Cd226 2.228 . S
Cd226 O225 2.228 . S
Cd226 O230 2.273 . S
Cd226 O234 2.277 . S
O227 C224 1.160 . S
O227 Cd228 2.203 . S
Cd228 O227 2.203 . S
Cd228 O230 2.411 . S
Cd228 O231 2.333 . S
Cd228 O232 2.352 1_545 S
Cd228 O236 2.277 . S
Cd228 O237 2.356 1_545 S
C229 O234 1.209 . S
C229 O236 1.226 . S
O230 Cd226 2.273 . S
O230 Cd228 2.411 . S
O230 C233 1.320 . S
O231 Cd228 2.333 . S
O231 C233 1.214 . S
O232 Cd228 2.352 1_565 S
O232 C235 1.258 . S
C233 O230 1.320 . S
C233 O231 1.214 . S
O234 Cd226 2.277 . S
O234 C229 1.209 . S
C235 O232 1.258 . S
C235 O237 1.282 . S
O236 Cd228 2.277 . S
O236 C229 1.226 . S
O237 Cd228 2.356 1_565 S
O237 C235 1.282 . S
C238 O239 1.306 . S
C238 O241 1.160 . S
O239 C238 1.306 . S
O239 Cd240 2.228 1_455 S
Cd240 O239 2.228 1_655 S
Cd240 O244 2.273 . S
Cd240 O248 2.277 . S
O241 C238 1.160 . S
O241 Cd242 2.203 1_455 S
Cd242 O241 2.203 1_655 S
Cd242 O244 2.411 . S
Cd242 O245 2.333 . S
Cd242 O246 2.352 . S
Cd242 O250 2.277 . S
Cd242 O251 2.356 . S
C243 O248 1.209 . S
C243 O250 1.226 . S
O244 Cd240 2.273 . S
O244 Cd242 2.411 . S
O244 C247 1.320 . S
O245 Cd242 2.333 . S
O245 C247 1.214 . S
O246 Cd242 2.352 . S
O246 C249 1.258 . S
C247 O244 1.320 . S
C247 O245 1.214 . S
O248 Cd240 2.277 . S
O248 C243 1.209 . S
C249 O246 1.258 . S
C249 O251 1.282 . S
O250 Cd242 2.277 . S
O250 C243 1.226 . S
O251 Cd242 2.356 . S
O251 C249 1.282 . S
H252 C271 0.949 . S
H253 C272 0.950 . S
H254 C274 0.950 . S
H255 C275 0.950 . S
H256 C277 0.950 . S
H257 C280 0.950 . S
H258 C281 0.950 . S
H259 C283 0.951 . S
H260 C284 0.949 . S
H261 C286 0.949 . S
H262 C287 0.950 . S
H263 C289 0.950 . S
H264 C290 0.950 . S
H265 C292 0.950 . S
H266 C295 0.950 . S
H267 C296 0.950 . S
H268 C298 0.951 . S
H269 C299 0.949 . S
C270 C271 1.376 . S
C270 C275 1.386 . S
C270 C276 1.483 . S
C271 H252 0.949 . S
C271 C270 1.376 . S
C271 C272 1.397 . S
C272 H253 0.950 . S
C272 C271 1.397 . S
C272 C273 1.391 . S
C273 C272 1.391 . S
C273 C274 1.405 . S
C274 H254 0.950 . S
C274 C273 1.405 . S
C274 C275 1.367 . S
C275 H255 0.950 . S
C275 C270 1.386 . S
C275 C274 1.367 . S
C276 C270 1.483 . S
C276 C277 1.382 . S
C276 C278 1.403 . S
C277 H256 0.950 . S
C277 C276 1.382 . S
C277 C293 1.411 . S
C278 C276 1.403 . S
C278 C279 1.489 . S
C278 C292 1.411 . S
C279 C278 1.489 . S
C279 C280 1.383 . S
C279 C284 1.382 . S
C280 H257 0.950 . S
C280 C279 1.383 . S
C280 C281 1.395 . S
C281 H258 0.950 . S
C281 C280 1.395 . S
C281 C282 1.288 . S
C282 C281 1.288 . S
C282 C283 1.392 . S
C283 H259 0.951 . S
C283 C282 1.392 . S
C283 C284 1.392 . S
C284 H260 0.949 . S
C284 C279 1.382 . S
C284 C283 1.392 . S
C285 C286 1.376 . S
C285 C290 1.386 . S
C285 C291 1.483 . S
C286 H261 0.949 . S
C286 C285 1.376 . S
C286 C287 1.397 . S
C287 H262 0.950 . S
C287 C286 1.397 . S
C287 C288 1.391 . S
C288 C287 1.391 . S
C288 C289 1.405 . S
C289 H263 0.950 . S
C289 C288 1.405 . S
C289 C290 1.367 . S
C290 H264 0.950 . S
C290 C285 1.386 . S
C290 C289 1.367 . S
C291 C285 1.483 . S
C291 C292 1.382 . S
C291 C293 1.403 . S
C292 H265 0.950 . S
C292 C278 1.411 . S
C292 C291 1.382 . S
C293 C277 1.411 . S
C293 C291 1.403 . S
C293 C294 1.489 . S
C294 C293 1.489 . S
C294 C295 1.383 . S
C294 C299 1.382 . S
C295 H266 0.950 . S
C295 C294 1.383 . S
C295 C296 1.395 . S
C296 H267 0.950 . S
C296 C295 1.395 . S
C296 C297 1.288 . S
C297 C296 1.288 . S
C297 C298 1.392 . S
C298 H268 0.951 . S
C298 C297 1.392 . S
C298 C299 1.392 . S
C299 H269 0.949 . S
C299 C294 1.382 . S
C299 C298 1.392 . S
H300 C319 0.949 . S
H301 C320 0.950 . S
H302 C322 0.950 . S
H303 C323 0.950 . S
H304 C325 0.950 . S
H305 C328 0.950 . S
H306 C329 0.950 . S
H307 C331 0.951 . S
H308 C332 0.949 . S
H309 C334 0.949 . S
H310 C335 0.950 . S
H311 C337 0.950 . S
H312 C338 0.950 . S
H313 C340 0.950 . S
H314 C343 0.950 . S
H315 C344 0.950 . S
H316 C346 0.951 . S
H317 C347 0.949 . S
C318 C319 1.376 . S
C318 C323 1.386 . S
C318 C324 1.483 . S
C319 H300 0.949 . S
C319 C318 1.376 . S
C319 C320 1.397 . S
C320 H301 0.950 . S
C320 C319 1.397 . S
C320 C321 1.391 . S
C321 C320 1.391 . S
C321 C322 1.405 . S
C322 H302 0.950 . S
C322 C321 1.405 . S
C322 C323 1.367 . S
C323 H303 0.950 . S
C323 C318 1.386 . S
C323 C322 1.367 . S
C324 C318 1.483 . S
C324 C325 1.382 . S
C324 C326 1.403 . S
C325 H304 0.950 . S
C325 C324 1.382 . S
C325 C341 1.411 . S
C326 C324 1.403 . S
C326 C327 1.489 . S
C326 C340 1.411 . S
C327 C326 1.489 . S
C327 C328 1.383 . S
C327 C332 1.382 . S
C328 H305 0.950 . S
C328 C327 1.383 . S
C328 C329 1.395 . S
C329 H306 0.950 . S
C329 C328 1.395 . S
C329 C330 1.288 . S
C330 C329 1.288 . S
C330 C331 1.392 . S
C331 H307 0.951 . S
C331 C330 1.392 . S
C331 C332 1.392 . S
C332 H308 0.949 . S
C332 C327 1.382 . S
C332 C331 1.392 . S
C333 C334 1.376 . S
C333 C338 1.386 . S
C333 C339 1.483 . S
C334 H309 0.949 . S
C334 C333 1.376 . S
C334 C335 1.397 . S
C335 H310 0.950 . S
C335 C334 1.397 . S
C335 C336 1.391 . S
C336 C335 1.391 . S
C336 C337 1.405 . S
C337 H311 0.950 . S
C337 C336 1.405 . S
C337 C338 1.367 . S
C338 H312 0.950 . S
C338 C333 1.386 . S
C338 C337 1.367 . S
C339 C333 1.483 . S
C339 C340 1.382 . S
C339 C341 1.403 . S
C340 H313 0.950 . S
C340 C326 1.411 . S
C340 C339 1.382 . S
C341 C325 1.411 . S
C341 C339 1.403 . S
C341 C342 1.489 . S
C342 C341 1.489 . S
C342 C343 1.383 . S
C342 C347 1.382 . S
C343 H314 0.950 . S
C343 C342 1.383 . S
C343 C344 1.395 . S
C344 H315 0.950 . S
C344 C343 1.395 . S
C344 C345 1.288 . S
C345 C344 1.288 . S
C345 C346 1.392 . S
C346 H316 0.951 . S
C346 C345 1.392 . S
C346 C347 1.392 . S
C347 H317 0.949 . S
C347 C342 1.382 . S
C347 C346 1.392 . S
H348 C367 0.949 . S
H349 C368 0.950 . S
H350 C370 0.950 . S
H351 C371 0.950 . S
H352 C373 0.950 . S
H353 C376 0.950 . S
H354 C377 0.950 . S
H355 C379 0.951 . S
H356 C380 0.949 . S
H357 C382 0.949 . S
H358 C383 0.950 . S
H359 C385 0.950 . S
H360 C386 0.950 . S
H361 C388 0.950 . S
H362 C391 0.950 . S
H363 C392 0.950 . S
H364 C394 0.951 . S
H365 C395 0.949 . S
C366 C367 1.376 . S
C366 C371 1.386 . S
C366 C372 1.483 . S
C367 H348 0.949 . S
C367 C366 1.376 . S
C367 C368 1.397 . S
C368 H349 0.950 . S
C368 C367 1.397 . S
C368 C369 1.391 . S
C369 C368 1.391 . S
C369 C370 1.405 . S
C370 H350 0.950 . S
C370 C369 1.405 . S
C370 C371 1.367 . S
C371 H351 0.950 . S
C371 C366 1.386 . S
C371 C370 1.367 . S
C372 C366 1.483 . S
C372 C373 1.382 . S
C372 C374 1.403 . S
C373 H352 0.950 . S
C373 C372 1.382 . S
C373 C389 1.411 . S
C374 C372 1.403 . S
C374 C375 1.489 . S
C374 C388 1.411 . S
C375 C374 1.489 . S
C375 C376 1.383 . S
C375 C380 1.382 . S
C376 H353 0.950 . S
C376 C375 1.383 . S
C376 C377 1.395 . S
C377 H354 0.950 . S
C377 C376 1.395 . S
C377 C378 1.288 . S
C378 C377 1.288 . S
C378 C379 1.392 . S
C379 H355 0.951 . S
C379 C378 1.392 . S
C379 C380 1.392 . S
C380 H356 0.949 . S
C380 C375 1.382 . S
C380 C379 1.392 . S
C381 C382 1.376 . S
C381 C386 1.386 . S
C381 C387 1.483 . S
C382 H357 0.949 . S
C382 C381 1.376 . S
C382 C383 1.397 . S
C383 H358 0.950 . S
C383 C382 1.397 . S
C383 C384 1.391 . S
C384 C383 1.391 . S
C384 C385 1.405 . S
C385 H359 0.950 . S
C385 C384 1.405 . S
C385 C386 1.367 . S
C386 H360 0.950 . S
C386 C381 1.386 . S
C386 C385 1.367 . S
C387 C381 1.483 . S
C387 C388 1.382 . S
C387 C389 1.403 . S
C388 H361 0.950 . S
C388 C374 1.411 . S
C388 C387 1.382 . S
C389 C373 1.411 . S
C389 C387 1.403 . S
C389 C390 1.489 . S
C390 C389 1.489 . S
C390 C391 1.383 . S
C390 C395 1.382 . S
C391 H362 0.950 . S
C391 C390 1.383 . S
C391 C392 1.395 . S
C392 H363 0.950 . S
C392 C391 1.395 . S
C392 C393 1.288 . S
C393 C392 1.288 . S
C393 C394 1.392 . S
C394 H364 0.951 . S
C394 C393 1.392 . S
C394 C395 1.392 . S
C395 H365 0.949 . S
C395 C390 1.382 . S
C395 C394 1.392 . S
H396 C415 0.949 . S
H397 C416 0.950 . S
H398 C418 0.950 . S
H399 C419 0.950 . S
H400 C421 0.950 . S
H401 C424 0.950 . S
H402 C425 0.950 . S
H403 C427 0.951 . S
H404 C428 0.949 . S
H405 C430 0.949 . S
H406 C431 0.950 . S
H407 C433 0.950 . S
H408 C434 0.950 . S
H409 C436 0.950 . S
H410 C439 0.950 . S
H411 C440 0.950 . S
H412 C442 0.951 . S
H413 C443 0.949 . S
C414 C415 1.376 . S
C414 C419 1.386 . S
C414 C420 1.483 . S
C415 H396 0.949 . S
C415 C414 1.376 . S
C415 C416 1.397 . S
C416 H397 0.950 . S
C416 C415 1.397 . S
C416 C417 1.391 . S
C417 C416 1.391 . S
C417 C418 1.405 . S
C418 H398 0.950 . S
C418 C417 1.405 . S
C418 C419 1.367 . S
C419 H399 0.950 . S
C419 C414 1.386 . S
C419 C418 1.367 . S
C420 C414 1.483 . S
C420 C421 1.382 . S
C420 C422 1.403 . S
C421 H400 0.950 . S
C421 C420 1.382 . S
C421 C437 1.411 . S
C422 C420 1.403 . S
C422 C423 1.489 . S
C422 C436 1.411 . S
C423 C422 1.489 . S
C423 C424 1.383 . S
C423 C428 1.382 . S
C424 H401 0.950 . S
C424 C423 1.383 . S
C424 C425 1.395 . S
C425 H402 0.950 . S
C425 C424 1.395 . S
C425 C426 1.288 . S
C426 C425 1.288 . S
C426 C427 1.392 . S
C427 H403 0.951 . S
C427 C426 1.392 . S
C427 C428 1.392 . S
C428 H404 0.949 . S
C428 C423 1.382 . S
C428 C427 1.392 . S
C429 C430 1.376 . S
C429 C434 1.386 . S
C429 C435 1.483 . S
C430 H405 0.949 . S
C430 C429 1.376 . S
C430 C431 1.397 . S
C431 H406 0.950 . S
C431 C430 1.397 . S
C431 C432 1.391 . S
C432 C431 1.391 . S
C432 C433 1.405 . S
C433 H407 0.950 . S
C433 C432 1.405 . S
C433 C434 1.367 . S
C434 H408 0.950 . S
C434 C429 1.386 . S
C434 C433 1.367 . S
C435 C429 1.483 . S
C435 C436 1.382 . S
C435 C437 1.403 . S
C436 H409 0.950 . S
C436 C422 1.411 . S
C436 C435 1.382 . S
C437 C421 1.411 . S
C437 C435 1.403 . S
C437 C438 1.489 . S
C438 C437 1.489 . S
C438 C439 1.383 . S
C438 C443 1.382 . S
C439 H410 0.950 . S
C439 C438 1.383 . S
C439 C440 1.395 . S
C440 H411 0.950 . S
C440 C439 1.395 . S
C440 C441 1.288 . S
C441 C440 1.288 . S
C441 C442 1.392 . S
C442 H412 0.951 . S
C442 C441 1.392 . S
C442 C443 1.392 . S
C443 H413 0.949 . S
C443 C438 1.382 . S
C443 C442 1.392 . S
H444 C463 0.949 . S
H445 C464 0.950 . S
H446 C466 0.950 . S
H447 C467 0.950 . S
H448 C469 0.950 . S
H449 C472 0.950 . S
H450 C473 0.950 . S
H451 C475 0.951 . S
H452 C476 0.949 . S
H453 C478 0.949 . S
H454 C479 0.950 . S
H455 C481 0.950 . S
H456 C482 0.950 . S
H457 C484 0.950 . S
H458 C487 0.950 . S
H459 C488 0.950 . S
H460 C490 0.951 . S
H461 C491 0.949 . S
C462 C463 1.376 . S
C462 C467 1.386 . S
C462 C468 1.483 . S
C463 H444 0.949 . S
C463 C462 1.376 . S
C463 C464 1.397 . S
C464 H445 0.950 . S
C464 C463 1.397 . S
C464 C465 1.391 . S
C465 C464 1.391 . S
C465 C466 1.405 . S
C466 H446 0.950 . S
C466 C465 1.405 . S
C466 C467 1.367 . S
C467 H447 0.950 . S
C467 C462 1.386 . S
C467 C466 1.367 . S
C468 C462 1.483 . S
C468 C469 1.382 . S
C468 C470 1.403 . S
C469 H448 0.950 . S
C469 C468 1.382 . S
C469 C485 1.411 . S
C470 C468 1.403 . S
C470 C471 1.489 . S
C470 C484 1.411 . S
C471 C470 1.489 . S
C471 C472 1.383 . S
C471 C476 1.382 . S
C472 H449 0.950 . S
C472 C471 1.383 . S
C472 C473 1.395 . S
C473 H450 0.950 . S
C473 C472 1.395 . S
C473 C474 1.288 . S
C474 C473 1.288 . S
C474 C475 1.392 . S
C475 H451 0.951 . S
C475 C474 1.392 . S
C475 C476 1.392 . S
C476 H452 0.949 . S
C476 C471 1.382 . S
C476 C475 1.392 . S
C477 C478 1.376 . S
C477 C482 1.386 . S
C477 C483 1.483 . S
C478 H453 0.949 . S
C478 C477 1.376 . S
C478 C479 1.397 . S
C479 H454 0.950 . S
C479 C478 1.397 . S
C479 C480 1.391 . S
C480 C479 1.391 . S
C480 C481 1.405 . S
C481 H455 0.950 . S
C481 C480 1.405 . S
C481 C482 1.367 . S
C482 H456 0.950 . S
C482 C477 1.386 . S
C482 C481 1.367 . S
C483 C477 1.483 . S
C483 C484 1.382 . S
C483 C485 1.403 . S
C484 H457 0.950 . S
C484 C470 1.411 . S
C484 C483 1.382 . S
C485 C469 1.411 . S
C485 C483 1.403 . S
C485 C486 1.489 . S
C486 C485 1.489 . S
C486 C487 1.383 . S
C486 C491 1.382 . S
C487 H458 0.950 . S
C487 C486 1.383 . S
C487 C488 1.395 . S
C488 H459 0.950 . S
C488 C487 1.395 . S
C488 C489 1.288 . S
C489 C488 1.288 . S
C489 C490 1.392 . S
C490 H460 0.951 . S
C490 C489 1.392 . S
C490 C491 1.392 . S
C491 H461 0.949 . S
C491 C486 1.382 . S
C491 C490 1.392 . S
H492 C511 0.949 . S
H493 C512 0.950 . S
H494 C514 0.950 . S
H495 C515 0.950 . S
H496 C517 0.950 . S
H497 C520 0.950 . S
H498 C521 0.950 . S
H499 C523 0.951 . S
H500 C524 0.949 . S
H501 C526 0.949 . S
H502 C527 0.950 . S
H503 C529 0.950 . S
H504 C530 0.950 . S
H505 C532 0.950 . S
H506 C535 0.950 . S
H507 C536 0.950 . S
H508 C538 0.951 . S
H509 C539 0.949 . S
C510 C511 1.376 . S
C510 C515 1.386 . S
C510 C516 1.483 . S
C511 H492 0.949 . S
C511 C510 1.376 . S
C511 C512 1.397 . S
C512 H493 0.950 . S
C512 C511 1.397 . S
C512 C513 1.391 . S
C513 C512 1.391 . S
C513 C514 1.405 . S
C514 H494 0.950 . S
C514 C513 1.405 . S
C514 C515 1.367 . S
C515 H495 0.950 . S
C515 C510 1.386 . S
C515 C514 1.367 . S
C516 C510 1.483 . S
C516 C517 1.382 . S
C516 C518 1.403 . S
C517 H496 0.950 . S
C517 C516 1.382 . S
C517 C533 1.411 . S
C518 C516 1.403 . S
C518 C519 1.489 . S
C518 C532 1.411 . S
C519 C518 1.489 . S
C519 C520 1.383 . S
C519 C524 1.382 . S
C520 H497 0.950 . S
C520 C519 1.383 . S
C520 C521 1.395 . S
C521 H498 0.950 . S
C521 C520 1.395 . S
C521 C522 1.288 . S
C522 C521 1.288 . S
C522 C523 1.392 . S
C523 H499 0.951 . S
C523 C522 1.392 . S
C523 C524 1.392 . S
C524 H500 0.949 . S
C524 C519 1.382 . S
C524 C523 1.392 . S
C525 C526 1.376 . S
C525 C530 1.386 . S
C525 C531 1.483 . S
C526 H501 0.949 . S
C526 C525 1.376 . S
C526 C527 1.397 . S
C527 H502 0.950 . S
C527 C526 1.397 . S
C527 C528 1.391 . S
C528 C527 1.391 . S
C528 C529 1.405 . S
C529 H503 0.950 . S
C529 C528 1.405 . S
C529 C530 1.367 . S
C530 H504 0.950 . S
C530 C525 1.386 . S
C530 C529 1.367 . S
C531 C525 1.483 . S
C531 C532 1.382 . S
C531 C533 1.403 . S
C532 H505 0.950 . S
C532 C518 1.411 . S
C532 C531 1.382 . S
C533 C517 1.411 . S
C533 C531 1.403 . S
C533 C534 1.489 . S
C534 C533 1.489 . S
C534 C535 1.383 . S
C534 C539 1.382 . S
C535 H506 0.950 . S
C535 C534 1.383 . S
C535 C536 1.395 . S
C536 H507 0.950 . S
C536 C535 1.395 . S
C536 C537 1.288 . S
C537 C536 1.288 . S
C537 C538 1.392 . S
C538 H508 0.951 . S
C538 C537 1.392 . S
C538 C539 1.392 . S
C539 H509 0.949 . S
C539 C534 1.382 . S
C539 C538 1.392 . S
H540 C559 0.949 . S
H541 C560 0.950 . S
H542 C562 0.950 . S
H543 C563 0.950 . S
H544 C565 0.950 . S
H545 C568 0.950 . S
H546 C569 0.950 . S
H547 C571 0.951 . S
H548 C572 0.949 . S
H549 C574 0.949 . S
H550 C575 0.950 . S
H551 C577 0.950 . S
H552 C578 0.950 . S
H553 C580 0.950 . S
H554 C583 0.950 . S
H555 C584 0.950 . S
H556 C586 0.951 . S
H557 C587 0.949 . S
C558 C559 1.376 . S
C558 C563 1.386 . S
C558 C564 1.483 . S
C559 H540 0.949 . S
C559 C558 1.376 . S
C559 C560 1.397 . S
C560 H541 0.950 . S
C560 C559 1.397 . S
C560 C561 1.391 . S
C561 C560 1.391 . S
C561 C562 1.405 . S
C562 H542 0.950 . S
C562 C561 1.405 . S
C562 C563 1.367 . S
C563 H543 0.950 . S
C563 C558 1.386 . S
C563 C562 1.367 . S
C564 C558 1.483 . S
C564 C565 1.382 . S
C564 C566 1.403 . S
C565 H544 0.950 . S
C565 C564 1.382 . S
C565 C581 1.411 . S
C566 C564 1.403 . S
C566 C567 1.489 . S
C566 C580 1.411 . S
C567 C566 1.489 . S
C567 C568 1.383 . S
C567 C572 1.382 . S
C568 H545 0.950 . S
C568 C567 1.383 . S
C568 C569 1.395 . S
C569 H546 0.950 . S
C569 C568 1.395 . S
C569 C570 1.288 . S
C570 C569 1.288 . S
C570 C571 1.392 . S
C571 H547 0.951 . S
C571 C570 1.392 . S
C571 C572 1.392 . S
C572 H548 0.949 . S
C572 C567 1.382 . S
C572 C571 1.392 . S
C573 C574 1.376 . S
C573 C578 1.386 . S
C573 C579 1.483 . S
C574 H549 0.949 . S
C574 C573 1.376 . S
C574 C575 1.397 . S
C575 H550 0.950 . S
C575 C574 1.397 . S
C575 C576 1.391 . S
C576 C575 1.391 . S
C576 C577 1.405 . S
C577 H551 0.950 . S
C577 C576 1.405 . S
C577 C578 1.367 . S
C578 H552 0.950 . S
C578 C573 1.386 . S
C578 C577 1.367 . S
C579 C573 1.483 . S
C579 C580 1.382 . S
C579 C581 1.403 . S
C580 H553 0.950 . S
C580 C566 1.411 . S
C580 C579 1.382 . S
C581 C565 1.411 . S
C581 C579 1.403 . S
C581 C582 1.489 . S
C582 C581 1.489 . S
C582 C583 1.383 . S
C582 C587 1.382 . S
C583 H554 0.950 . S
C583 C582 1.383 . S
C583 C584 1.395 . S
C584 H555 0.950 . S
C584 C583 1.395 . S
C584 C585 1.288 . S
C585 C584 1.288 . S
C585 C586 1.392 . S
C586 H556 0.951 . S
C586 C585 1.392 . S
C586 C587 1.392 . S
C587 H557 0.949 . S
C587 C582 1.382 . S
C587 C586 1.392 . S
H588 C607 0.949 . S
H589 C608 0.950 . S
H590 C610 0.950 . S
H591 C611 0.950 . S
H592 C613 0.950 . S
H593 C616 0.950 . S
H594 C617 0.950 . S
H595 C619 0.951 . S
H596 C620 0.949 . S
H597 C622 0.949 . S
H598 C623 0.950 . S
H599 C625 0.950 . S
H600 C626 0.950 . S
H601 C628 0.950 . S
H602 C631 0.950 . S
H603 C632 0.950 . S
H604 C634 0.951 . S
H605 C635 0.949 . S
C606 C607 1.376 . S
C606 C611 1.386 . S
C606 C612 1.483 . S
C607 H588 0.949 . S
C607 C606 1.376 . S
C607 C608 1.397 . S
C608 H589 0.950 . S
C608 C607 1.397 . S
C608 C609 1.391 . S
C609 C608 1.391 . S
C609 C610 1.405 . S
C610 H590 0.950 . S
C610 C609 1.405 . S
C610 C611 1.367 . S
C611 H591 0.950 . S
C611 C606 1.386 . S
C611 C610 1.367 . S
C612 C606 1.483 . S
C612 C613 1.382 . S
C612 C614 1.403 . S
C613 H592 0.950 . S
C613 C612 1.382 . S
C613 C629 1.411 . S
C614 C612 1.403 . S
C614 C615 1.489 . S
C614 C628 1.411 . S
C615 C614 1.489 . S
C615 C616 1.383 . S
C615 C620 1.382 . S
C616 H593 0.950 . S
C616 C615 1.383 . S
C616 C617 1.395 . S
C617 H594 0.950 . S
C617 C616 1.395 . S
C617 C618 1.288 . S
C618 C617 1.288 . S
C618 C619 1.392 . S
C619 H595 0.951 . S
C619 C618 1.392 . S
C619 C620 1.392 . S
C620 H596 0.949 . S
C620 C615 1.382 . S
C620 C619 1.392 . S
C621 C622 1.376 . S
C621 C626 1.386 . S
C621 C627 1.483 . S
C622 H597 0.949 . S
C622 C621 1.376 . S
C622 C623 1.397 . S
C623 H598 0.950 . S
C623 C622 1.397 . S
C623 C624 1.391 . S
C624 C623 1.391 . S
C624 C625 1.405 . S
C625 H599 0.950 . S
C625 C624 1.405 . S
C625 C626 1.367 . S
C626 H600 0.950 . S
C626 C621 1.386 . S
C626 C625 1.367 . S
C627 C621 1.483 . S
C627 C628 1.382 . S
C627 C629 1.403 . S
C628 H601 0.950 . S
C628 C614 1.411 . S
C628 C627 1.382 . S
C629 C613 1.411 . S
C629 C627 1.403 . S
C629 C630 1.489 . S
C630 C629 1.489 . S
C630 C631 1.383 . S
C630 C635 1.382 . S
C631 H602 0.950 . S
C631 C630 1.383 . S
C631 C632 1.395 . S
C632 H603 0.950 . S
C632 C631 1.395 . S
C632 C633 1.288 . S
C633 C632 1.288 . S
C633 C634 1.392 . S
C634 H604 0.951 . S
C634 C633 1.392 . S
C634 C635 1.392 . S
C635 H605 0.949 . S
C635 C630 1.382 . S
C635 C634 1.392 . S
H636 C655 0.949 . S
H637 C656 0.950 . S
H638 C658 0.950 . S
H639 C659 0.950 . S
H640 C661 0.950 . S
H641 C664 0.950 . S
H642 C665 0.950 . S
H643 C667 0.951 . S
H644 C668 0.949 . S
H645 C670 0.949 . S
H646 C671 0.950 . S
H647 C673 0.950 . S
H648 C674 0.950 . S
H649 C676 0.950 . S
H650 C679 0.950 . S
H651 C680 0.950 . S
H652 C682 0.951 . S
H653 C683 0.949 . S
C654 C655 1.376 . S
C654 C659 1.386 . S
C654 C660 1.483 . S
C655 H636 0.949 . S
C655 C654 1.376 . S
C655 C656 1.397 . S
C656 H637 0.950 . S
C656 C655 1.397 . S
C656 C657 1.391 . S
C657 C656 1.391 . S
C657 C658 1.405 . S
C658 H638 0.950 . S
C658 C657 1.405 . S
C658 C659 1.367 . S
C659 H639 0.950 . S
C659 C654 1.386 . S
C659 C658 1.367 . S
C660 C654 1.483 . S
C660 C661 1.382 . S
C660 C662 1.403 . S
C661 H640 0.950 . S
C661 C660 1.382 . S
C661 C677 1.411 . S
C662 C660 1.403 . S
C662 C663 1.489 . S
C662 C676 1.411 . S
C663 C662 1.489 . S
C663 C664 1.383 . S
C663 C668 1.382 . S
C664 H641 0.950 . S
C664 C663 1.383 . S
C664 C665 1.395 . S
C665 H642 0.950 . S
C665 C664 1.395 . S
C665 C666 1.288 . S
C666 C665 1.288 . S
C666 C667 1.392 . S
C667 H643 0.951 . S
C667 C666 1.392 . S
C667 C668 1.392 . S
C668 H644 0.949 . S
C668 C663 1.382 . S
C668 C667 1.392 . S
C669 C670 1.376 . S
C669 C674 1.386 . S
C669 C675 1.483 . S
C670 H645 0.949 . S
C670 C669 1.376 . S
C670 C671 1.397 . S
C671 H646 0.950 . S
C671 C670 1.397 . S
C671 C672 1.391 . S
C672 C671 1.391 . S
C672 C673 1.405 . S
C673 H647 0.950 . S
C673 C672 1.405 . S
C673 C674 1.367 . S
C674 H648 0.950 . S
C674 C669 1.386 . S
C674 C673 1.367 . S
C675 C669 1.483 . S
C675 C676 1.382 . S
C675 C677 1.403 . S
C676 H649 0.950 . S
C676 C662 1.411 . S
C676 C675 1.382 . S
C677 C661 1.411 . S
C677 C675 1.403 . S
C677 C678 1.489 . S
C678 C677 1.489 . S
C678 C679 1.383 . S
C678 C683 1.382 . S
C679 H650 0.950 . S
C679 C678 1.383 . S
C679 C680 1.395 . S
C680 H651 0.950 . S
C680 C679 1.395 . S
C680 C681 1.288 . S
C681 C680 1.288 . S
C681 C682 1.392 . S
C682 H652 0.951 . S
C682 C681 1.392 . S
C682 C683 1.392 . S
C683 H653 0.949 . S
C683 C678 1.382 . S
C683 C682 1.392 . S
H684 C703 0.949 . S
H685 C704 0.950 . S
H686 C706 0.950 . S
H687 C707 0.950 . S
H688 C709 0.950 . S
H689 C712 0.950 . S
H690 C713 0.950 . S
H691 C715 0.951 . S
H692 C716 0.949 . S
H693 C718 0.949 . S
H694 C719 0.950 . S
H695 C721 0.950 . S
H696 C722 0.950 . S
H697 C724 0.950 . S
H698 C727 0.950 . S
H699 C728 0.950 . S
H700 C730 0.951 . S
H701 C731 0.949 . S
C702 C703 1.376 . S
C702 C707 1.386 1_655 S
C702 C708 1.483 . S
C703 H684 0.949 . S
C703 C702 1.376 . S
C703 C704 1.397 . S
C704 H685 0.950 . S
C704 C703 1.397 . S
C704 C705 1.391 . S
C705 C704 1.391 . S
C705 C706 1.405 1_655 S
C706 H686 0.950 . S
C706 C705 1.405 1_455 S
C706 C707 1.367 . S
C707 H687 0.950 . S
C707 C702 1.386 1_455 S
C707 C706 1.367 . S
C708 C702 1.483 . S
C708 C709 1.382 . S
C708 C710 1.403 1_655 S
C709 H688 0.950 . S
C709 C708 1.382 . S
C709 C725 1.411 . S
C710 C708 1.403 1_455 S
C710 C711 1.489 . S
C710 C724 1.411 . S
C711 C710 1.489 . S
C711 C712 1.383 1_455 S
C711 C716 1.382 . S
C712 H689 0.950 . S
C712 C711 1.383 1_655 S
C712 C713 1.395 . S
C713 H690 0.950 . S
C713 C712 1.395 . S
C713 C714 1.288 1_655 S
C714 C713 1.288 1_455 S
C714 C715 1.392 . S
C715 H691 0.951 . S
C715 C714 1.392 . S
C715 C716 1.392 . S
C716 H692 0.949 . S
C716 C711 1.382 . S
C716 C715 1.392 . S
C717 C718 1.376 . S
C717 C722 1.386 1_455 S
C717 C723 1.483 . S
C718 H693 0.949 . S
C718 C717 1.376 . S
C718 C719 1.397 . S
C719 H694 0.950 . S
C719 C718 1.397 . S
C719 C720 1.391 . S
C720 C719 1.391 . S
C720 C721 1.405 1_455 S
C721 H695 0.950 . S
C721 C720 1.405 1_655 S
C721 C722 1.367 . S
C722 H696 0.950 . S
C722 C717 1.386 1_655 S
C722 C721 1.367 . S
C723 C717 1.483 . S
C723 C724 1.382 . S
C723 C725 1.403 1_455 S
C724 H697 0.950 . S
C724 C710 1.411 . S
C724 C723 1.382 . S
C725 C709 1.411 . S
C725 C723 1.403 1_655 S
C725 C726 1.489 . S
C726 C725 1.489 . S
C726 C727 1.383 1_655 S
C726 C731 1.382 . S
C727 H698 0.950 . S
C727 C726 1.383 1_455 S
C727 C728 1.395 . S
C728 H699 0.950 . S
C728 C727 1.395 . S
C728 C729 1.288 1_455 S
C729 C728 1.288 1_655 S
C729 C730 1.392 . S
C730 H700 0.951 . S
C730 C729 1.392 . S
C730 C731 1.392 . S
C731 H701 0.949 . S
C731 C726 1.382 . S
C731 C730 1.392 . S
H732 C751 0.949 . S
H733 C752 0.950 . S
H734 C754 0.950 . S
H735 C755 0.950 . S
H736 C757 0.950 . S
H737 C760 0.950 . S
H738 C761 0.950 . S
H739 C763 0.951 . S
H740 C764 0.949 . S
H741 C766 0.949 . S
H742 C767 0.950 . S
H743 C769 0.950 . S
H744 C770 0.950 . S
H745 C772 0.950 . S
H746 C775 0.950 . S
H747 C776 0.950 . S
H748 C778 0.951 . S
H749 C779 0.949 . S
C750 C751 1.376 . S
C750 C755 1.386 . S
C750 C756 1.483 . S
C751 H732 0.949 . S
C751 C750 1.376 . S
C751 C752 1.397 . S
C752 H733 0.950 . S
C752 C751 1.397 . S
C752 C753 1.391 . S
C753 C752 1.391 . S
C753 C754 1.405 . S
C754 H734 0.950 . S
C754 C753 1.405 . S
C754 C755 1.367 . S
C755 H735 0.950 . S
C755 C750 1.386 . S
C755 C754 1.367 . S
C756 C750 1.483 . S
C756 C757 1.382 . S
C756 C758 1.403 . S
C757 H736 0.950 . S
C757 C756 1.382 . S
C757 C773 1.411 . S
C758 C756 1.403 . S
C758 C759 1.489 . S
C758 C772 1.411 . S
C759 C758 1.489 . S
C759 C760 1.383 . S
C759 C764 1.382 . S
C760 H737 0.950 . S
C760 C759 1.383 . S
C760 C761 1.395 . S
C761 H738 0.950 . S
C761 C760 1.395 . S
C761 C762 1.288 . S
C762 C761 1.288 . S
C762 C763 1.392 . S
C763 H739 0.951 . S
C763 C762 1.392 . S
C763 C764 1.392 . S
C764 H740 0.949 . S
C764 C759 1.382 . S
C764 C763 1.392 . S
C765 C766 1.376 . S
C765 C770 1.386 . S
C765 C771 1.483 . S
C766 H741 0.949 . S
C766 C765 1.376 . S
C766 C767 1.397 . S
C767 H742 0.950 . S
C767 C766 1.397 . S
C767 C768 1.391 . S
C768 C767 1.391 . S
C768 C769 1.405 . S
C769 H743 0.950 . S
C769 C768 1.405 . S
C769 C770 1.367 . S
C770 H744 0.950 . S
C770 C765 1.386 . S
C770 C769 1.367 . S
C771 C765 1.483 . S
C771 C772 1.382 . S
C771 C773 1.403 . S
C772 H745 0.950 . S
C772 C758 1.411 . S
C772 C771 1.382 . S
C773 C757 1.411 . S
C773 C771 1.403 . S
C773 C774 1.489 . S
C774 C773 1.489 . S
C774 C775 1.383 . S
C774 C779 1.382 . S
C775 H746 0.950 . S
C775 C774 1.383 . S
C775 C776 1.395 . S
C776 H747 0.950 . S
C776 C775 1.395 . S
C776 C777 1.288 . S
C777 C776 1.288 . S
C777 C778 1.392 . S
C778 H748 0.951 . S
C778 C777 1.392 . S
C778 C779 1.392 . S
C779 H749 0.949 . S
C779 C774 1.382 . S
C779 C778 1.392 . S
H780 C799 0.949 . S
H781 C800 0.950 . S
H782 C802 0.950 . S
H783 C803 0.950 . S
H784 C805 0.950 . S
H785 C808 0.950 . S
H786 C809 0.950 . S
H787 C811 0.951 . S
H788 C812 0.949 . S
H789 C814 0.949 . S
H790 C815 0.950 . S
H791 C817 0.950 . S
H792 C818 0.950 . S
H793 C820 0.950 . S
H794 C823 0.950 . S
H795 C824 0.950 . S
H796 C826 0.951 . S
H797 C827 0.949 . S
C798 C799 1.376 . S
C798 C803 1.386 1_545 S
C798 C804 1.483 . S
C799 H780 0.949 . S
C799 C798 1.376 . S
C799 C800 1.397 . S
C800 H781 0.950 . S
C800 C799 1.397 . S
C800 C801 1.391 . S
C801 C800 1.391 . S
C801 C802 1.405 1_545 S
C802 H782 0.950 . S
C802 C801 1.405 1_565 S
C802 C803 1.367 . S
C803 H783 0.950 . S
C803 C798 1.386 1_565 S
C803 C802 1.367 . S
C804 C798 1.483 . S
C804 C805 1.382 . S
C804 C806 1.403 1_545 S
C805 H784 0.950 . S
C805 C804 1.382 . S
C805 C821 1.411 . S
C806 C804 1.403 1_565 S
C806 C807 1.489 . S
C806 C820 1.411 . S
C807 C806 1.489 . S
C807 C808 1.383 1_565 S
C807 C812 1.382 . S
C808 H785 0.950 . S
C808 C807 1.383 1_545 S
C808 C809 1.395 . S
C809 H786 0.950 . S
C809 C808 1.395 . S
C809 C810 1.288 1_545 S
C810 C809 1.288 1_565 S
C810 C811 1.392 . S
C811 H787 0.951 . S
C811 C810 1.392 . S
C811 C812 1.392 . S
C812 H788 0.949 . S
C812 C807 1.382 . S
C812 C811 1.392 . S
C813 C814 1.376 . S
C813 C818 1.386 1_565 S
C813 C819 1.483 . S
C814 H789 0.949 . S
C814 C813 1.376 . S
C814 C815 1.397 . S
C815 H790 0.950 . S
C815 C814 1.397 . S
C815 C816 1.391 . S
C816 C815 1.391 . S
C816 C817 1.405 1_565 S
C817 H791 0.950 . S
C817 C816 1.405 1_545 S
C817 C818 1.367 . S
C818 H792 0.950 . S
C818 C813 1.386 1_545 S
C818 C817 1.367 . S
C819 C813 1.483 . S
C819 C820 1.382 . S
C819 C821 1.403 1_565 S
C820 H793 0.950 . S
C820 C806 1.411 . S
C820 C819 1.382 . S
C821 C805 1.411 . S
C821 C819 1.403 1_545 S
C821 C822 1.489 . S
C822 C821 1.489 . S
C822 C823 1.383 1_545 S
C822 C827 1.382 . S
C823 H794 0.950 . S
C823 C822 1.383 1_565 S
C823 C824 1.395 . S
C824 H795 0.950 . S
C824 C823 1.395 . S
C824 C825 1.288 1_565 S
C825 C824 1.288 1_545 S
C825 C826 1.392 . S
C826 H796 0.951 . S
C826 C825 1.392 . S
C826 C827 1.392 . S
C827 H797 0.949 . S
C827 C822 1.382 . S
C827 C826 1.392 . S
H828 C847 0.949 . S
H829 C848 0.950 . S
H830 C850 0.950 . S
H831 C851 0.950 . S
H832 C853 0.950 . S
H833 C856 0.950 . S
H834 C857 0.950 . S
H835 C859 0.951 . S
H836 C860 0.949 . S
H837 C862 0.949 . S
H838 C863 0.950 . S
H839 C865 0.950 . S
H840 C866 0.950 . S
H841 C868 0.950 . S
H842 C871 0.950 . S
H843 C872 0.950 . S
H844 C874 0.951 . S
H845 C875 0.949 . S
C846 C847 1.394 . S
C846 C851 1.377 1_545 S
C846 C852 1.501 . S
C847 H828 0.949 . S
C847 C846 1.394 . S
C847 C848 1.397 . S
C848 H829 0.950 . S
C848 C847 1.397 . S
C848 C849 1.391 1_545 S
C849 C848 1.391 1_565 S
C849 C850 1.405 . S
C850 H830 0.950 . S
C850 C849 1.405 . S
C850 C851 1.367 . S
C851 H831 0.950 . S
C851 C846 1.377 1_565 S
C851 C850 1.367 . S
C852 C846 1.501 . S
C852 C853 1.355 . S
C852 C854 1.399 1_545 S
C853 H832 0.950 . S
C853 C852 1.355 . S
C853 C869 1.443 . S
C854 C852 1.399 1_565 S
C854 C855 1.482 . S
C854 C868 1.434 . S
C855 C854 1.482 . S
C855 C856 1.354 1_565 S
C855 C860 1.397 . S
C856 H833 0.950 . S
C856 C855 1.354 1_545 S
C856 C857 1.395 . S
C857 H834 0.950 . S
C857 C856 1.395 . S
C857 C858 1.288 . S
C858 C857 1.288 . S
C858 C859 1.392 1_545 S
C859 H835 0.951 . S
C859 C858 1.392 1_565 S
C859 C860 1.392 . S
C860 H836 0.949 . S
C860 C855 1.397 . S
C860 C859 1.392 . S
C861 C862 1.381 . S
C861 C866 1.384 1_565 S
C861 C867 1.501 . S
C862 H837 0.949 . S
C862 C861 1.381 . S
C862 C863 1.397 . S
C863 H838 0.950 . S
C863 C862 1.397 . S
C863 C864 1.391 1_565 S
C864 C863 1.391 1_545 S
C864 C865 1.405 . S
C865 H839 0.950 . S
C865 C864 1.405 . S
C865 C866 1.367 . S
C866 H840 0.950 . S
C866 C861 1.384 1_545 S
C866 C865 1.367 . S
C867 C861 1.501 . S
C867 C868 1.362 . S
C867 C869 1.399 1_565 S
C868 H841 0.950 . S
C868 C854 1.434 . S
C868 C867 1.362 . S
C869 C853 1.443 . S
C869 C867 1.399 1_545 S
C869 C870 1.482 . S
C870 C869 1.482 . S
C870 C871 1.337 1_545 S
C870 C875 1.407 . S
C871 H842 0.950 . S
C871 C870 1.337 1_565 S
C871 C872 1.395 . S
C872 H843 0.950 . S
C872 C871 1.395 . S
C872 C873 1.288 . S
C873 C872 1.288 . S
C873 C874 1.392 1_565 S
C874 H844 0.951 . S
C874 C873 1.392 1_545 S
C874 C875 1.392 . S
C875 H845 0.949 . S
C875 C870 1.407 . S
C875 C874 1.392 . S
H876 C895 0.949 . S
H877 C896 0.950 . S
H878 C898 0.950 . S
H879 C899 0.950 . S
H880 C901 0.950 . S
H881 C904 0.950 . S
H882 C905 0.950 . S
H883 C907 0.951 . S
H884 C908 0.949 . S
H885 C910 0.949 . S
H886 C911 0.950 . S
H887 C913 0.950 . S
H888 C914 0.950 . S
H889 C916 0.950 . S
H890 C919 0.950 . S
H891 C920 0.950 . S
H892 C922 0.951 . S
H893 C923 0.949 . S
C894 C895 1.376 . S
C894 C899 1.386 1_455 S
C894 C900 1.483 . S
C895 H876 0.949 . S
C895 C894 1.376 . S
C895 C896 1.397 . S
C896 H877 0.950 . S
C896 C895 1.397 . S
C896 C897 1.391 . S
C897 C896 1.391 . S
C897 C898 1.405 1_455 S
C898 H878 0.950 . S
C898 C897 1.405 1_655 S
C898 C899 1.367 . S
C899 H879 0.950 . S
C899 C894 1.386 1_655 S
C899 C898 1.367 . S
C900 C894 1.483 . S
C900 C901 1.382 . S
C900 C902 1.403 1_455 S
C901 H880 0.950 . S
C901 C900 1.382 . S
C901 C917 1.411 . S
C902 C900 1.403 1_655 S
C902 C903 1.489 . S
C902 C916 1.411 . S
C903 C902 1.489 . S
C903 C904 1.383 1_655 S
C903 C908 1.382 . S
C904 H881 0.950 . S
C904 C903 1.383 1_455 S
C904 C905 1.395 . S
C905 H882 0.950 . S
C905 C904 1.395 . S
C905 C906 1.288 1_455 S
C906 C905 1.288 1_655 S
C906 C907 1.392 . S
C907 H883 0.951 . S
C907 C906 1.392 . S
C907 C908 1.392 . S
C908 H884 0.949 . S
C908 C903 1.382 . S
C908 C907 1.392 . S
C909 C910 1.376 . S
C909 C914 1.386 1_655 S
C909 C915 1.483 . S
C910 H885 0.949 . S
C910 C909 1.376 . S
C910 C911 1.397 . S
C911 H886 0.950 . S
C911 C910 1.397 . S
C911 C912 1.391 . S
C912 C911 1.391 . S
C912 C913 1.405 1_655 S
C913 H887 0.950 . S
C913 C912 1.405 1_455 S
C913 C914 1.367 . S
C914 H888 0.950 . S
C914 C909 1.386 1_455 S
C914 C913 1.367 . S
C915 C909 1.483 . S
C915 C916 1.382 . S
C915 C917 1.403 1_655 S
C916 H889 0.950 . S
C916 C902 1.411 . S
C916 C915 1.382 . S
C917 C901 1.411 . S
C917 C915 1.403 1_455 S
C917 C918 1.489 . S
C918 C917 1.489 . S
C918 C919 1.383 1_455 S
C918 C923 1.382 . S
C919 H890 0.950 . S
C919 C918 1.383 1_655 S
C919 C920 1.395 . S
C920 H891 0.950 . S
C920 C919 1.395 . S
C920 C921 1.288 1_655 S
C921 C920 1.288 1_455 S
C921 C922 1.392 . S
C922 H892 0.951 . S
C922 C921 1.392 . S
C922 C923 1.392 . S
C923 H893 0.949 . S
C923 C918 1.382 . S
C923 C922 1.392 . S
H924 C943 0.949 . S
H925 C944 0.950 . S
H926 C946 0.950 . S
H927 C947 0.950 . S
H928 C949 0.950 . S
H929 C952 0.950 . S
H930 C953 0.950 . S
H931 C955 0.951 . S
H932 C956 0.949 . S
H933 C958 0.949 . S
H934 C959 0.950 . S
H935 C961 0.950 . S
H936 C962 0.950 . S
H937 C964 0.950 . S
H938 C967 0.950 . S
H939 C968 0.950 . S
H940 C970 0.951 . S
H941 C971 0.949 . S
C942 C943 1.376 . S
C942 C947 1.386 . S
C942 C948 1.483 . S
C943 H924 0.949 . S
C943 C942 1.376 . S
C943 C944 1.397 . S
C944 H925 0.950 . S
C944 C943 1.397 . S
C944 C945 1.391 . S
C945 C944 1.391 . S
C945 C946 1.405 . S
C946 H926 0.950 . S
C946 C945 1.405 . S
C946 C947 1.367 . S
C947 H927 0.950 . S
C947 C942 1.386 . S
C947 C946 1.367 . S
C948 C942 1.483 . S
C948 C949 1.382 . S
C948 C950 1.403 . S
C949 H928 0.950 . S
C949 C948 1.382 . S
C949 C965 1.411 . S
C950 C948 1.403 . S
C950 C951 1.489 . S
C950 C964 1.411 . S
C951 C950 1.489 . S
C951 C952 1.383 . S
C951 C956 1.382 . S
C952 H929 0.950 . S
C952 C951 1.383 . S
C952 C953 1.395 . S
C953 H930 0.950 . S
C953 C952 1.395 . S
C953 C954 1.288 . S
C954 C953 1.288 . S
C954 C955 1.392 . S
C955 H931 0.951 . S
C955 C954 1.392 . S
C955 C956 1.392 . S
C956 H932 0.949 . S
C956 C951 1.382 . S
C956 C955 1.392 . S
C957 C958 1.376 . S
C957 C962 1.386 . S
C957 C963 1.483 . S
C958 H933 0.949 . S
C958 C957 1.376 . S
C958 C959 1.397 . S
C959 H934 0.950 . S
C959 C958 1.397 . S
C959 C960 1.391 . S
C960 C959 1.391 . S
C960 C961 1.405 . S
C961 H935 0.950 . S
C961 C960 1.405 . S
C961 C962 1.367 . S
C962 H936 0.950 . S
C962 C957 1.386 . S
C962 C961 1.367 . S
C963 C957 1.483 . S
C963 C964 1.382 . S
C963 C965 1.403 . S
C964 H937 0.950 . S
C964 C950 1.411 . S
C964 C963 1.382 . S
C965 C949 1.411 . S
C965 C963 1.403 . S
C965 C966 1.489 . S
C966 C965 1.489 . S
C966 C967 1.383 . S
C966 C971 1.382 . S
C967 H938 0.950 . S
C967 C966 1.383 . S
C967 C968 1.395 . S
C968 H939 0.950 . S
C968 C967 1.395 . S
C968 C969 1.288 . S
C969 C968 1.288 . S
C969 C970 1.392 . S
C970 H940 0.951 . S
C970 C969 1.392 . S
C970 C971 1.392 . S
C971 H941 0.949 . S
C971 C966 1.382 . S
C971 C970 1.392 . S
H972 C991 0.949 . S
H973 C992 0.950 . S
H974 C994 0.950 . S
H975 C995 0.950 . S
H976 C997 0.950 . S
H977 C1000 0.950 . S
H978 C1001 0.950 . S
H979 C1003 0.951 . S
H980 C1004 0.949 . S
H981 C1006 0.949 . S
H982 C1007 0.950 . S
H983 C1009 0.950 . S
H984 C1010 0.950 . S
H985 C1012 0.950 . S
H986 C1015 0.950 . S
H987 C1016 0.950 . S
H988 C1018 0.951 . S
H989 C1019 0.949 . S
C990 C991 1.376 . S
C990 C995 1.386 . S
C990 C996 1.483 . S
C991 H972 0.949 . S
C991 C990 1.376 . S
C991 C992 1.397 . S
C992 H973 0.950 . S
C992 C991 1.397 . S
C992 C993 1.391 . S
C993 C992 1.391 . S
C993 C994 1.405 . S
C994 H974 0.950 . S
C994 C993 1.405 . S
C994 C995 1.367 . S
C995 H975 0.950 . S
C995 C990 1.386 . S
C995 C994 1.367 . S
C996 C990 1.483 . S
C996 C997 1.382 . S
C996 C998 1.403 . S
C997 H976 0.950 . S
C997 C996 1.382 . S
C997 C1013 1.411 . S
C998 C996 1.403 . S
C998 C999 1.489 . S
C998 C1012 1.411 . S
C999 C998 1.489 . S
C999 C1000 1.383 . S
C999 C1004 1.382 . S
C1000 H977 0.950 . S
C1000 C999 1.383 . S
C1000 C1001 1.395 . S
C1001 H978 0.950 . S
C1001 C1000 1.395 . S
C1001 C1002 1.288 . S
C1002 C1001 1.288 . S
C1002 C1003 1.392 . S
C1003 H979 0.951 . S
C1003 C1002 1.392 . S
C1003 C1004 1.392 . S
C1004 H980 0.949 . S
C1004 C999 1.382 . S
C1004 C1003 1.392 . S
C1005 C1006 1.376 . S
C1005 C1010 1.386 . S
C1005 C1011 1.483 . S
C1006 H981 0.949 . S
C1006 C1005 1.376 . S
C1006 C1007 1.397 . S
C1007 H982 0.950 . S
C1007 C1006 1.397 . S
C1007 C1008 1.391 . S
C1008 C1007 1.391 . S
C1008 C1009 1.405 . S
C1009 H983 0.950 . S
C1009 C1008 1.405 . S
C1009 C1010 1.367 . S
C1010 H984 0.950 . S
C1010 C1005 1.386 . S
C1010 C1009 1.367 . S
C1011 C1005 1.483 . S
C1011 C1012 1.382 . S
C1011 C1013 1.403 . S
C1012 H985 0.950 . S
C1012 C998 1.411 . S
C1012 C1011 1.382 . S
C1013 C997 1.411 . S
C1013 C1011 1.403 . S
C1013 C1014 1.489 . S
C1014 C1013 1.489 . S
C1014 C1015 1.383 . S
C1014 C1019 1.382 . S
C1015 H986 0.950 . S
C1015 C1014 1.383 . S
C1015 C1016 1.395 . S
C1016 H987 0.950 . S
C1016 C1015 1.395 . S
C1016 C1017 1.288 . S
C1017 C1016 1.288 . S
C1017 C1018 1.392 . S
C1018 H988 0.951 . S
C1018 C1017 1.392 . S
C1018 C1019 1.392 . S
C1019 H989 0.949 . S
C1019 C1014 1.382 . S
C1019 C1018 1.392 . S
H1020 C1039 0.949 . S
H1021 C1040 0.950 . S
H1022 C1042 0.950 . S
H1023 C1043 0.950 . S
H1024 C1045 0.950 . S
H1025 C1048 0.950 . S
H1026 C1049 0.950 . S
H1027 C1051 0.951 . S
H1028 C1052 0.949 . S
H1029 C1054 0.949 . S
H1030 C1055 0.950 . S
H1031 C1057 0.950 . S
H1032 C1058 0.950 . S
H1033 C1060 0.950 . S
H1034 C1063 0.950 . S
H1035 C1064 0.950 . S
H1036 C1066 0.951 . S
H1037 C1067 0.949 . S
C1038 C1039 1.376 . S
C1038 C1043 1.386 . S
C1038 C1044 1.483 . S
C1039 H1020 0.949 . S
C1039 C1038 1.376 . S
C1039 C1040 1.397 . S
C1040 H1021 0.950 . S
C1040 C1039 1.397 . S
C1040 C1041 1.391 . S
C1041 C1040 1.391 . S
C1041 C1042 1.405 . S
C1042 H1022 0.950 . S
C1042 C1041 1.405 . S
C1042 C1043 1.367 . S
C1043 H1023 0.950 . S
C1043 C1038 1.386 . S
C1043 C1042 1.367 . S
C1044 C1038 1.483 . S
C1044 C1045 1.382 . S
C1044 C1046 1.403 . S
C1045 H1024 0.950 . S
C1045 C1044 1.382 . S
C1045 C1061 1.411 . S
C1046 C1044 1.403 . S
C1046 C1047 1.489 . S
C1046 C1060 1.411 . S
C1047 C1046 1.489 . S
C1047 C1048 1.383 . S
C1047 C1052 1.382 . S
C1048 H1025 0.950 . S
C1048 C1047 1.383 . S
C1048 C1049 1.395 . S
C1049 H1026 0.950 . S
C1049 C1048 1.395 . S
C1049 C1050 1.288 . S
C1050 C1049 1.288 . S
C1050 C1051 1.392 . S
C1051 H1027 0.951 . S
C1051 C1050 1.392 . S
C1051 C1052 1.392 . S
C1052 H1028 0.949 . S
C1052 C1047 1.382 . S
C1052 C1051 1.392 . S
C1053 C1054 1.376 . S
C1053 C1058 1.386 . S
C1053 C1059 1.483 . S
C1054 H1029 0.949 . S
C1054 C1053 1.376 . S
C1054 C1055 1.397 . S
C1055 H1030 0.950 . S
C1055 C1054 1.397 . S
C1055 C1056 1.391 . S
C1056 C1055 1.391 . S
C1056 C1057 1.405 . S
C1057 H1031 0.950 . S
C1057 C1056 1.405 . S
C1057 C1058 1.367 . S
C1058 H1032 0.950 . S
C1058 C1053 1.386 . S
C1058 C1057 1.367 . S
C1059 C1053 1.483 . S
C1059 C1060 1.382 . S
C1059 C1061 1.403 . S
C1060 H1033 0.950 . S
C1060 C1046 1.411 . S
C1060 C1059 1.382 . S
C1061 C1045 1.411 . S
C1061 C1059 1.403 . S
C1061 C1062 1.489 . S
C1062 C1061 1.489 . S
C1062 C1063 1.383 . S
C1062 C1067 1.382 . S
C1063 H1034 0.950 . S
C1063 C1062 1.383 . S
C1063 C1064 1.395 . S
C1064 H1035 0.950 . S
C1064 C1063 1.395 . S
C1064 C1065 1.288 . S
C1065 C1064 1.288 . S
C1065 C1066 1.392 . S
C1066 H1036 0.951 . S
C1066 C1065 1.392 . S
C1066 C1067 1.392 . S
C1067 H1037 0.949 . S
C1067 C1062 1.382 . S
C1067 C1066 1.392 . S
H1068 C1087 0.949 . S
H1069 C1088 0.950 . S
H1070 C1090 0.950 . S
H1071 C1091 0.950 . S
H1072 C1093 0.950 . S
H1073 C1096 0.950 . S
H1074 C1097 0.950 . S
H1075 C1099 0.951 . S
H1076 C1100 0.949 . S
H1077 C1102 0.949 . S
H1078 C1103 0.950 . S
H1079 C1105 0.950 . S
H1080 C1106 0.950 . S
H1081 C1108 0.950 . S
H1082 C1111 0.950 . S
H1083 C1112 0.950 . S
H1084 C1114 0.951 . S
H1085 C1115 0.949 . S
C1086 C1087 1.376 . S
C1086 C1091 1.386 . S
C1086 C1092 1.483 . S
C1087 H1068 0.949 . S
C1087 C1086 1.376 . S
C1087 C1088 1.397 . S
C1088 H1069 0.950 . S
C1088 C1087 1.397 . S
C1088 C1089 1.391 . S
C1089 C1088 1.391 . S
C1089 C1090 1.405 . S
C1090 H1070 0.950 . S
C1090 C1089 1.405 . S
C1090 C1091 1.367 . S
C1091 H1071 0.950 . S
C1091 C1086 1.386 . S
C1091 C1090 1.367 . S
C1092 C1086 1.483 . S
C1092 C1093 1.382 . S
C1092 C1094 1.403 . S
C1093 H1072 0.950 . S
C1093 C1092 1.382 . S
C1093 C1109 1.411 . S
C1094 C1092 1.403 . S
C1094 C1095 1.489 . S
C1094 C1108 1.411 . S
C1095 C1094 1.489 . S
C1095 C1096 1.383 . S
C1095 C1100 1.382 . S
C1096 H1073 0.950 . S
C1096 C1095 1.383 . S
C1096 C1097 1.395 . S
C1097 H1074 0.950 . S
C1097 C1096 1.395 . S
C1097 C1098 1.288 . S
C1098 C1097 1.288 . S
C1098 C1099 1.392 . S
C1099 H1075 0.951 . S
C1099 C1098 1.392 . S
C1099 C1100 1.392 . S
C1100 H1076 0.949 . S
C1100 C1095 1.382 . S
C1100 C1099 1.392 . S
C1101 C1102 1.376 . S
C1101 C1106 1.386 . S
C1101 C1107 1.483 . S
C1102 H1077 0.949 . S
C1102 C1101 1.376 . S
C1102 C1103 1.397 . S
C1103 H1078 0.950 . S
C1103 C1102 1.397 . S
C1103 C1104 1.391 . S
C1104 C1103 1.391 . S
C1104 C1105 1.405 . S
C1105 H1079 0.950 . S
C1105 C1104 1.405 . S
C1105 C1106 1.367 . S
C1106 H1080 0.950 . S
C1106 C1101 1.386 . S
C1106 C1105 1.367 . S
C1107 C1101 1.483 . S
C1107 C1108 1.382 . S
C1107 C1109 1.403 . S
C1108 H1081 0.950 . S
C1108 C1094 1.411 . S
C1108 C1107 1.382 . S
C1109 C1093 1.411 . S
C1109 C1107 1.403 . S
C1109 C1110 1.489 . S
C1110 C1109 1.489 . S
C1110 C1111 1.383 . S
C1110 C1115 1.382 . S
C1111 H1082 0.950 . S
C1111 C1110 1.383 . S
C1111 C1112 1.395 . S
C1112 H1083 0.950 . S
C1112 C1111 1.395 . S
C1112 C1113 1.288 . S
C1113 C1112 1.288 . S
C1113 C1114 1.392 . S
C1114 H1084 0.951 . S
C1114 C1113 1.392 . S
C1114 C1115 1.392 . S
C1115 H1085 0.949 . S
C1115 C1110 1.382 . S
C1115 C1114 1.392 . S
H1116 C1128 0.930 . S
H1117 C1130 0.930 . S
H1118 C1131 0.930 . S
H1119 C1135 0.958 1_655 S
H1120 C1135 0.959 . S
H1121 C1135 0.961 . S
H1122 C1136 0.960 . S
H1123 C1136 0.961 . S
H1124 C1136 0.959 . S
H1125 C1139 0.929 . S
H1126 C1140 0.931 . S
H1127 C1142 0.930 . S
C1128 H1116 0.930 . S
C1128 C1129 1.399 1_455 S
C1128 C1133 1.399 . S
C1129 C1128 1.399 1_655 S
C1129 C1130 1.376 . S
C1130 H1117 0.930 . S
C1130 C1129 1.376 . S
C1130 C1131 1.388 . S
C1131 H1118 0.930 . S
C1131 C1130 1.388 . S
C1131 C1132 1.390 . S
C1132 C1131 1.390 . S
C1132 C1133 1.394 1_655 S
C1132 C1138 1.465 . S
C1133 C1128 1.399 . S
C1133 C1132 1.394 1_455 S
C1133 C1134 1.516 . S
C1134 C1133 1.516 . S
C1134 C1135 1.502 . S
C1134 C1136 1.561 . S
C1134 C1137 1.526 . S
C1135 H1119 0.958 1_455 S
C1135 H1120 0.959 . S
C1135 H1121 0.961 . S
C1135 C1134 1.502 . S
C1136 H1122 0.960 . S
C1136 H1123 0.961 . S
C1136 H1124 0.959 . S
C1136 C1134 1.561 . S
C1137 C1134 1.526 . S
C1137 C1138 1.396 1_455 S
C1137 C1142 1.390 . S
C1138 C1132 1.465 . S
C1138 C1137 1.396 1_655 S
C1138 C1139 1.399 . S
C1139 H1125 0.929 . S
C1139 C1138 1.399 . S
C1139 C1140 1.385 . S
C1140 H1126 0.931 . S
C1140 C1139 1.385 . S
C1140 C1141 1.389 . S
C1141 C1140 1.389 . S
C1141 C1142 1.387 1_655 S
C1142 H1127 0.930 . S
C1142 C1137 1.390 . S
C1142 C1141 1.387 1_455 S
H1143 C1155 0.930 . S
H1144 C1157 0.930 . S
H1145 C1158 0.930 . S
H1146 C1162 0.959 . S
H1147 C1162 0.959 . S
H1148 C1162 0.961 . S
H1149 C1163 0.960 . S
H1150 C1163 0.961 . S
H1151 C1163 0.959 . S
H1152 C1166 0.929 . S
H1153 C1167 0.931 . S
H1154 C1169 0.930 . S
C1155 H1143 0.930 . S
C1155 C1156 1.399 . S
C1155 C1160 1.399 . S
C1156 C1155 1.399 . S
C1156 C1157 1.376 . S
C1157 H1144 0.930 . S
C1157 C1156 1.376 . S
C1157 C1158 1.388 . S
C1158 H1145 0.930 . S
C1158 C1157 1.388 . S
C1158 C1159 1.390 . S
C1159 C1158 1.390 . S
C1159 C1160 1.394 . S
C1159 C1165 1.465 . S
C1160 C1155 1.399 . S
C1160 C1159 1.394 . S
C1160 C1161 1.516 . S
C1161 C1160 1.516 . S
C1161 C1162 1.502 . S
C1161 C1163 1.561 . S
C1161 C1164 1.526 . S
C1162 H1146 0.959 . S
C1162 H1147 0.959 . S
C1162 H1148 0.961 . S
C1162 C1161 1.502 . S
C1163 H1149 0.960 . S
C1163 H1150 0.961 . S
C1163 H1151 0.959 . S
C1163 C1161 1.561 . S
C1164 C1161 1.526 . S
C1164 C1165 1.396 . S
C1164 C1169 1.390 . S
C1165 C1159 1.465 . S
C1165 C1164 1.396 . S
C1165 C1166 1.399 . S
C1166 H1152 0.929 . S
C1166 C1165 1.399 . S
C1166 C1167 1.385 . S
C1167 H1153 0.931 . S
C1167 C1166 1.385 . S
C1167 C1168 1.389 . S
C1168 C1167 1.389 . S
C1168 C1169 1.387 . S
C1169 H1154 0.930 . S
C1169 C1164 1.390 . S
C1169 C1168 1.387 . S
H1170 C1182 0.930 . S
H1171 C1184 0.930 . S
H1172 C1185 0.930 . S
H1173 C1189 0.959 . S
H1174 C1189 0.959 . S
H1175 C1189 0.961 . S
H1176 C1190 0.960 . S
H1177 C1190 0.961 . S
H1178 C1190 0.959 . S
H1179 C1193 0.929 . S
H1180 C1194 0.931 . S
H1181 C1196 0.930 . S
C1182 H1170 0.930 . S
C1182 C1183 1.399 1_565 S
C1182 C1187 1.399 . S
C1183 C1182 1.399 1_545 S
C1183 C1184 1.376 . S
C1184 H1171 0.930 . S
C1184 C1183 1.376 . S
C1184 C1185 1.388 . S
C1185 H1172 0.930 . S
C1185 C1184 1.388 . S
C1185 C1186 1.390 . S
C1186 C1185 1.390 . S
C1186 C1187 1.394 1_545 S
C1186 C1192 1.465 . S
C1187 C1182 1.399 . S
C1187 C1186 1.394 1_565 S
C1187 C1188 1.516 . S
C1188 C1187 1.516 . S
C1188 C1189 1.502 . S
C1188 C1190 1.561 . S
C1188 C1191 1.526 . S
C1189 H1173 0.959 . S
C1189 H1174 0.959 . S
C1189 H1175 0.961 . S
C1189 C1188 1.502 . S
C1190 H1176 0.960 . S
C1190 H1177 0.961 . S
C1190 H1178 0.959 . S
C1190 C1188 1.561 . S
C1191 C1188 1.526 . S
C1191 C1192 1.396 1_565 S
C1191 C1196 1.390 . S
C1192 C1186 1.465 . S
C1192 C1191 1.396 1_545 S
C1192 C1193 1.399 . S
C1193 H1179 0.929 . S
C1193 C1192 1.399 . S
C1193 C1194 1.385 . S
C1194 H1180 0.931 . S
C1194 C1193 1.385 . S
C1194 C1195 1.389 . S
C1195 C1194 1.389 . S
C1195 C1196 1.387 1_545 S
C1196 H1181 0.930 . S
C1196 C1191 1.390 . S
C1196 C1195 1.387 1_565 S
H1197 C1209 0.930 . S
H1198 C1211 0.930 . S
H1199 C1212 0.930 . S
H1200 C1216 0.959 . S
H1201 C1216 0.959 . S
H1202 C1216 0.961 . S
H1203 C1217 0.960 . S
H1204 C1217 0.961 . S
H1205 C1217 0.959 . S
H1206 C1220 0.929 . S
H1207 C1221 0.931 . S
H1208 C1223 0.930 . S
C1209 H1197 0.930 . S
C1209 C1210 1.399 1_545 S
C1209 C1214 1.399 . S
C1210 C1209 1.399 1_565 S
C1210 C1211 1.376 . S
C1211 H1198 0.930 . S
C1211 C1210 1.376 . S
C1211 C1212 1.388 . S
C1212 H1199 0.930 . S
C1212 C1211 1.388 . S
C1212 C1213 1.390 . S
C1213 C1212 1.390 . S
C1213 C1214 1.394 1_565 S
C1213 C1219 1.465 . S
C1214 C1209 1.399 . S
C1214 C1213 1.394 1_545 S
C1214 C1215 1.516 . S
C1215 C1214 1.516 . S
C1215 C1216 1.502 . S
C1215 C1217 1.561 . S
C1215 C1218 1.526 . S
C1216 H1200 0.959 . S
C1216 H1201 0.959 . S
C1216 H1202 0.961 . S
C1216 C1215 1.502 . S
C1217 H1203 0.960 . S
C1217 H1204 0.961 . S
C1217 H1205 0.959 . S
C1217 C1215 1.561 . S
C1218 C1215 1.526 . S
C1218 C1219 1.396 1_545 S
C1218 C1223 1.390 . S
C1219 C1213 1.465 . S
C1219 C1218 1.396 1_565 S
C1219 C1220 1.399 . S
C1220 H1206 0.929 . S
C1220 C1219 1.399 . S
C1220 C1221 1.385 . S
C1221 H1207 0.931 . S
C1221 C1220 1.385 . S
C1221 C1222 1.389 . S
C1222 C1221 1.389 . S
C1222 C1223 1.387 1_565 S
C1223 H1208 0.930 . S
C1223 C1218 1.390 . S
C1223 C1222 1.387 1_545 S
H1224 C1236 0.930 . S
H1225 C1238 0.930 . S
H1226 C1239 0.930 . S
H1227 C1243 0.959 . S
H1228 C1243 0.959 . S
H1229 C1243 0.961 . S
H1230 C1244 0.960 . S
H1231 C1244 0.961 . S
H1232 C1244 0.959 . S
H1233 C1247 0.929 . S
H1234 C1248 0.931 . S
H1235 C1250 0.930 . S
C1236 H1224 0.930 . S
C1236 C1237 1.399 1_655 S
C1236 C1241 1.399 . S
C1237 C1236 1.399 1_455 S
C1237 C1238 1.376 . S
C1238 H1225 0.930 . S
C1238 C1237 1.376 . S
C1238 C1239 1.388 . S
C1239 H1226 0.930 . S
C1239 C1238 1.388 . S
C1239 C1240 1.390 . S
C1240 C1239 1.390 . S
C1240 C1241 1.394 1_455 S
C1240 C1246 1.465 . S
C1241 C1236 1.399 . S
C1241 C1240 1.394 1_655 S
C1241 C1242 1.516 . S
C1242 C1241 1.516 . S
C1242 C1243 1.502 . S
C1242 C1244 1.561 . S
C1242 C1245 1.526 . S
C1243 H1227 0.959 . S
C1243 H1228 0.959 . S
C1243 H1229 0.961 . S
C1243 C1242 1.502 . S
C1244 H1230 0.960 . S
C1244 H1231 0.961 . S
C1244 H1232 0.959 . S
C1244 C1242 1.561 . S
C1245 C1242 1.526 . S
C1245 C1246 1.396 1_655 S
C1245 C1250 1.390 . S
C1246 C1240 1.465 . S
C1246 C1245 1.396 1_455 S
C1246 C1247 1.399 . S
C1247 H1233 0.929 . S
C1247 C1246 1.399 . S
C1247 C1248 1.385 . S
C1248 H1234 0.931 . S
C1248 C1247 1.385 . S
C1248 C1249 1.389 . S
C1249 C1248 1.389 . S
C1249 C1250 1.387 1_455 S
C1250 H1235 0.930 . S
C1250 C1245 1.390 . S
C1250 C1249 1.387 1_655 S
H1251 C1263 0.930 . S
H1252 C1265 0.930 . S
H1253 C1266 0.930 . S
H1254 C1270 0.959 . S
H1255 C1270 0.959 . S
H1256 C1270 0.961 . S
H1257 C1271 0.960 . S
H1258 C1271 0.961 . S
H1259 C1271 0.959 . S
H1260 C1274 0.929 . S
H1261 C1275 0.931 . S
H1262 C1277 0.930 . S
C1263 H1251 0.930 . S
C1263 C1264 1.399 . S
C1263 C1268 1.399 . S
C1264 C1263 1.399 . S
C1264 C1265 1.376 . S
C1265 H1252 0.930 . S
C1265 C1264 1.376 . S
C1265 C1266 1.388 . S
C1266 H1253 0.930 . S
C1266 C1265 1.388 . S
C1266 C1267 1.390 . S
C1267 C1266 1.390 . S
C1267 C1268 1.394 . S
C1267 C1273 1.465 . S
C1268 C1263 1.399 . S
C1268 C1267 1.394 . S
C1268 C1269 1.516 . S
C1269 C1268 1.516 . S
C1269 C1270 1.502 . S
C1269 C1271 1.561 . S
C1269 C1272 1.526 . S
C1270 H1254 0.959 . S
C1270 H1255 0.959 . S
C1270 H1256 0.961 . S
C1270 C1269 1.502 . S
C1271 H1257 0.960 . S
C1271 H1258 0.961 . S
C1271 H1259 0.959 . S
C1271 C1269 1.561 . S
C1272 C1269 1.526 . S
C1272 C1273 1.396 . S
C1272 C1277 1.390 . S
C1273 C1267 1.465 . S
C1273 C1272 1.396 . S
C1273 C1274 1.399 . S
C1274 H1260 0.929 . S
C1274 C1273 1.399 . S
C1274 C1275 1.385 . S
C1275 H1261 0.931 . S
C1275 C1274 1.385 . S
C1275 C1276 1.389 . S
C1276 C1275 1.389 . S
C1276 C1277 1.387 . S
C1277 H1262 0.930 . S
C1277 C1272 1.390 . S
C1277 C1276 1.387 . S
H1278 C1290 0.930 . S
H1279 C1292 0.930 . S
H1280 C1293 0.930 . S
H1281 C1297 0.959 . S
H1282 C1297 0.959 . S
H1283 C1297 0.961 . S
H1284 C1298 0.960 . S
H1285 C1298 0.961 . S
H1286 C1298 0.959 . S
H1287 C1301 0.929 . S
H1288 C1302 0.931 . S
H1289 C1304 0.930 . S
C1290 H1278 0.930 . S
C1290 C1291 1.399 . S
C1290 C1295 1.399 . S
C1291 C1290 1.399 . S
C1291 C1292 1.376 . S
C1292 H1279 0.930 . S
C1292 C1291 1.376 . S
C1292 C1293 1.388 . S
C1293 H1280 0.930 . S
C1293 C1292 1.388 . S
C1293 C1294 1.390 . S
C1294 C1293 1.390 . S
C1294 C1295 1.394 . S
C1294 C1300 1.465 . S
C1295 C1290 1.399 . S
C1295 C1294 1.394 . S
C1295 C1296 1.516 . S
C1296 C1295 1.516 . S
C1296 C1297 1.502 . S
C1296 C1298 1.561 1_455 S
C1296 C1299 1.526 . S
C1297 H1281 0.959 . S
C1297 H1282 0.959 . S
C1297 H1283 0.961 . S
C1297 C1296 1.502 . S
C1298 H1284 0.960 . S
C1298 H1285 0.961 . S
C1298 H1286 0.959 . S
C1298 C1296 1.561 1_655 S
C1299 C1296 1.526 . S
C1299 C1300 1.396 . S
C1299 C1304 1.390 . S
C1300 C1294 1.465 . S
C1300 C1299 1.396 . S
C1300 C1301 1.399 . S
C1301 H1287 0.929 . S
C1301 C1300 1.399 . S
C1301 C1302 1.385 . S
C1302 H1288 0.931 . S
C1302 C1301 1.385 . S
C1302 C1303 1.389 . S
C1303 C1302 1.389 . S
C1303 C1304 1.387 . S
C1304 H1289 0.930 . S
C1304 C1299 1.390 . S
C1304 C1303 1.387 . S
H1305 C1317 0.930 . S
H1306 C1319 0.930 . S
H1307 C1320 0.930 . S
H1308 C1324 0.959 . S
H1309 C1324 0.959 . S
H1310 C1324 0.961 . S
H1311 C1325 0.960 . S
H1312 C1325 0.961 . S
H1313 C1325 0.959 . S
H1314 C1328 0.929 . S
H1315 C1329 0.931 . S
H1316 C1331 0.930 . S
C1317 H1305 0.930 . S
C1317 C1318 1.399 . S
C1317 C1322 1.399 . S
C1318 C1317 1.399 . S
C1318 C1319 1.376 . S
C1319 H1306 0.930 . S
C1319 C1318 1.376 . S
C1319 C1320 1.388 . S
C1320 H1307 0.930 . S
C1320 C1319 1.388 . S
C1320 C1321 1.390 . S
C1321 C1320 1.390 . S
C1321 C1322 1.394 . S
C1321 C1327 1.465 . S
C1322 C1317 1.399 . S
C1322 C1321 1.394 . S
C1322 C1323 1.516 . S
C1323 C1322 1.516 . S
C1323 C1324 1.502 . S
C1323 C1325 1.561 . S
C1323 C1326 1.526 . S
C1324 H1308 0.959 . S
C1324 H1309 0.959 . S
C1324 H1310 0.961 . S
C1324 C1323 1.502 . S
C1325 H1311 0.960 . S
C1325 H1312 0.961 . S
C1325 H1313 0.959 . S
C1325 C1323 1.561 . S
C1326 C1323 1.526 . S
C1326 C1327 1.396 . S
C1326 C1331 1.390 . S
C1327 C1321 1.465 . S
C1327 C1326 1.396 . S
C1327 C1328 1.399 . S
C1328 H1314 0.929 . S
C1328 C1327 1.399 . S
C1328 C1329 1.385 . S
C1329 H1315 0.931 . S
C1329 C1328 1.385 . S
C1329 C1330 1.389 . S
C1330 C1329 1.389 . S
C1330 C1331 1.387 . S
C1331 H1316 0.930 . S
C1331 C1326 1.390 . S
C1331 C1330 1.387 . S
H1332 C1344 0.943 . S
H1333 C1346 0.930 . S
H1334 C1347 0.930 . S
H1335 C1351 0.959 . S
H1336 C1351 0.959 . S
H1337 C1351 0.961 . S
H1338 C1352 0.960 . S
H1339 C1352 0.961 . S
H1340 C1352 0.959 . S
H1341 C1355 0.929 . S
H1342 C1356 0.931 . S
H1343 C1358 0.954 . S
C1344 H1332 0.943 . S
C1344 C1345 1.376 1_545 S
C1344 C1349 1.402 . S
C1345 C1344 1.376 1_565 S
C1345 C1346 1.376 . S
C1346 H1333 0.930 . S
C1346 C1345 1.376 . S
C1346 C1347 1.388 . S
C1347 H1334 0.930 . S
C1347 C1346 1.388 . S
C1347 C1348 1.390 . S
C1348 C1347 1.390 . S
C1348 C1349 1.385 1_565 S
C1348 C1354 1.465 . S
C1349 C1344 1.402 . S
C1349 C1348 1.385 1_545 S
C1349 C1350 1.533 . S
C1350 C1349 1.533 . S
C1350 C1351 1.502 1_545 S
C1350 C1352 1.561 . S
C1350 C1353 1.527 . S
C1351 H1335 0.959 . S
C1351 H1336 0.959 . S
C1351 H1337 0.961 . S
C1351 C1350 1.502 1_565 S
C1352 H1338 0.960 . S
C1352 H1339 0.961 . S
C1352 H1340 0.959 . S
C1352 C1350 1.561 . S
C1353 C1350 1.527 . S
C1353 C1354 1.386 1_545 S
C1353 C1358 1.380 . S
C1354 C1348 1.465 . S
C1354 C1353 1.386 1_565 S
C1354 C1355 1.399 . S
C1355 H1341 0.929 . S
C1355 C1354 1.399 . S
C1355 C1356 1.385 . S
C1356 H1342 0.931 . S
C1356 C1355 1.385 . S
C1356 C1357 1.389 . S
C1357 C1356 1.389 . S
C1357 C1358 1.380 1_565 S
C1358 H1343 0.954 . S
C1358 C1353 1.380 . S
C1358 C1357 1.380 1_545 S
H1359 C1371 0.930 . S
H1360 C1373 0.930 . S
H1361 C1374 0.930 . S
H1362 C1378 0.959 . S
H1363 C1378 0.959 . S
H1364 C1378 0.961 . S
H1365 C1379 0.960 . S
H1366 C1379 0.961 . S
H1367 C1379 0.959 . S
H1368 C1382 0.929 . S
H1369 C1383 0.931 . S
H1370 C1385 0.930 . S
C1371 H1359 0.930 . S
C1371 C1372 1.399 1_565 S
C1371 C1376 1.399 . S
C1372 C1371 1.399 1_545 S
C1372 C1373 1.376 . S
C1373 H1360 0.930 . S
C1373 C1372 1.376 . S
C1373 C1374 1.388 . S
C1374 H1361 0.930 . S
C1374 C1373 1.388 . S
C1374 C1375 1.390 . S
C1375 C1374 1.390 . S
C1375 C1376 1.394 1_545 S
C1375 C1381 1.465 . S
C1376 C1371 1.399 . S
C1376 C1375 1.394 1_565 S
C1376 C1377 1.516 . S
C1377 C1376 1.516 . S
C1377 C1378 1.502 . S
C1377 C1379 1.561 . S
C1377 C1380 1.526 . S
C1378 H1362 0.959 . S
C1378 H1363 0.959 . S
C1378 H1364 0.961 . S
C1378 C1377 1.502 . S
C1379 H1365 0.960 . S
C1379 H1366 0.961 . S
C1379 H1367 0.959 . S
C1379 C1377 1.561 . S
C1380 C1377 1.526 . S
C1380 C1381 1.396 1_565 S
C1380 C1385 1.390 . S
C1381 C1375 1.465 . S
C1381 C1380 1.396 1_545 S
C1381 C1382 1.399 . S
C1382 H1368 0.929 . S
C1382 C1381 1.399 . S
C1382 C1383 1.385 . S
C1383 H1369 0.931 . S
C1383 C1382 1.385 . S
C1383 C1384 1.389 . S
C1384 C1383 1.389 . S
C1384 C1385 1.387 1_545 S
C1385 H1370 0.930 . S
C1385 C1380 1.390 . S
C1385 C1384 1.387 1_565 S
H1386 C1398 0.930 . S
H1387 C1400 0.930 . S
H1388 C1401 0.930 . S
H1389 C1405 0.959 . S
H1390 C1405 0.959 . S
H1391 C1405 0.961 . S
H1392 C1406 0.960 . S
H1393 C1406 0.961 . S
H1394 C1406 0.959 . S
H1395 C1409 0.929 . S
H1396 C1410 0.931 . S
H1397 C1412 0.930 . S
C1398 H1386 0.930 . S
C1398 C1399 1.399 1_455 S
C1398 C1403 1.399 . S
C1399 C1398 1.399 1_655 S
C1399 C1400 1.376 . S
C1400 H1387 0.930 . S
C1400 C1399 1.376 . S
C1400 C1401 1.388 . S
C1401 H1388 0.930 . S
C1401 C1400 1.388 . S
C1401 C1402 1.390 . S
C1402 C1401 1.390 . S
C1402 C1403 1.394 1_655 S
C1402 C1408 1.465 . S
C1403 C1398 1.399 . S
C1403 C1402 1.394 1_455 S
C1403 C1404 1.516 . S
C1404 C1403 1.516 . S
C1404 C1405 1.502 . S
C1404 C1406 1.561 . S
C1404 C1407 1.526 . S
C1405 H1389 0.959 . S
C1405 H1390 0.959 . S
C1405 H1391 0.961 . S
C1405 C1404 1.502 . S
C1406 H1392 0.960 . S
C1406 H1393 0.961 . S
C1406 H1394 0.959 . S
C1406 C1404 1.561 . S
C1407 C1404 1.526 . S
C1407 C1408 1.396 1_455 S
C1407 C1412 1.390 . S
C1408 C1402 1.465 . S
C1408 C1407 1.396 1_655 S
C1408 C1409 1.399 . S
C1409 H1395 0.929 . S
C1409 C1408 1.399 . S
C1409 C1410 1.385 . S
C1410 H1396 0.931 . S
C1410 C1409 1.385 . S
C1410 C1411 1.389 . S
C1411 C1410 1.389 . S
C1411 C1412 1.387 1_655 S
C1412 H1397 0.930 . S
C1412 C1407 1.390 . S
C1412 C1411 1.387 1_455 S
H1413 C1425 0.930 . S
H1414 C1427 0.930 . S
H1415 C1428 0.930 . S
H1416 C1432 0.959 . S
H1417 C1432 0.959 . S
H1418 C1432 0.961 . S
H1419 C1433 0.960 . S
H1420 C1433 0.961 . S
H1421 C1433 0.959 . S
H1422 C1436 0.929 . S
H1423 C1437 0.931 . S
H1424 C1439 0.930 . S
C1425 H1413 0.930 . S
C1425 C1426 1.399 . S
C1425 C1430 1.399 . S
C1426 C1425 1.399 . S
C1426 C1427 1.376 . S
C1427 H1414 0.930 . S
C1427 C1426 1.376 . S
C1427 C1428 1.388 . S
C1428 H1415 0.930 . S
C1428 C1427 1.388 . S
C1428 C1429 1.390 . S
C1429 C1428 1.390 . S
C1429 C1430 1.394 . S
C1429 C1435 1.465 . S
C1430 C1425 1.399 . S
C1430 C1429 1.394 . S
C1430 C1431 1.516 . S
C1431 C1430 1.516 . S
C1431 C1432 1.502 . S
C1431 C1433 1.561 . S
C1431 C1434 1.526 . S
C1432 H1416 0.959 . S
C1432 H1417 0.959 . S
C1432 H1418 0.961 . S
C1432 C1431 1.502 . S
C1433 H1419 0.960 . S
C1433 H1420 0.961 . S
C1433 H1421 0.959 . S
C1433 C1431 1.561 . S
C1434 C1431 1.526 . S
C1434 C1435 1.396 . S
C1434 C1439 1.390 . S
C1435 C1429 1.465 . S
C1435 C1434 1.396 . S
C1435 C1436 1.399 . S
C1436 H1422 0.929 . S
C1436 C1435 1.399 . S
C1436 C1437 1.385 . S
C1437 H1423 0.931 . S
C1437 C1436 1.385 . S
C1437 C1438 1.389 . S
C1438 C1437 1.389 . S
C1438 C1439 1.387 . S
C1439 H1424 0.930 . S
C1439 C1434 1.390 . S
C1439 C1438 1.387 . S
H1440 C1452 0.930 . S
H1441 C1454 0.930 . S
H1442 C1455 0.930 . S
H1443 C1459 0.959 . S
H1444 C1459 0.959 . S
H1445 C1459 0.961 . S
H1446 C1460 0.960 . S
H1447 C1460 0.961 . S
H1448 C1460 0.959 . S
H1449 C1463 0.929 . S
H1450 C1464 0.931 . S
H1451 C1466 0.930 . S
C1452 H1440 0.930 . S
C1452 C1453 1.399 . S
C1452 C1457 1.399 . S
C1453 C1452 1.399 . S
C1453 C1454 1.376 . S
C1454 H1441 0.930 . S
C1454 C1453 1.376 . S
C1454 C1455 1.388 . S
C1455 H1442 0.930 . S
C1455 C1454 1.388 . S
C1455 C1456 1.390 . S
C1456 C1455 1.390 . S
C1456 C1457 1.394 . S
C1456 C1462 1.465 . S
C1457 C1452 1.399 . S
C1457 C1456 1.394 . S
C1457 C1458 1.516 . S
C1458 C1457 1.516 . S
C1458 C1459 1.502 . S
C1458 C1460 1.561 . S
C1458 C1461 1.526 . S
C1459 H1443 0.959 . S
C1459 H1444 0.959 . S
C1459 H1445 0.961 . S
C1459 C1458 1.502 . S
C1460 H1446 0.960 . S
C1460 H1447 0.961 . S
C1460 H1448 0.959 . S
C1460 C1458 1.561 . S
C1461 C1458 1.526 . S
C1461 C1462 1.396 . S
C1461 C1466 1.390 . S
C1462 C1456 1.465 . S
C1462 C1461 1.396 . S
C1462 C1463 1.399 . S
C1463 H1449 0.929 . S
C1463 C1462 1.399 . S
C1463 C1464 1.385 . S
C1464 H1450 0.931 . S
C1464 C1463 1.385 . S
C1464 C1465 1.389 . S
C1465 C1464 1.389 . S
C1465 C1466 1.387 . S
C1466 H1451 0.930 . S
C1466 C1461 1.390 . S
C1466 C1465 1.387 . S
H1467 C1479 0.930 . S
H1468 C1481 0.930 . S
H1469 C1482 0.930 . S
H1470 C1486 0.959 . S
H1471 C1486 0.959 . S
H1472 C1486 0.961 . S
H1473 C1487 0.960 . S
H1474 C1487 0.961 . S
H1475 C1487 0.959 . S
H1476 C1490 0.929 . S
H1477 C1491 0.931 . S
H1478 C1493 0.930 . S
C1479 H1467 0.930 . S
C1479 C1480 1.399 . S
C1479 C1484 1.399 . S
C1480 C1479 1.399 . S
C1480 C1481 1.376 . S
C1481 H1468 0.930 . S
C1481 C1480 1.376 . S
C1481 C1482 1.388 . S
C1482 H1469 0.930 . S
C1482 C1481 1.388 . S
C1482 C1483 1.390 . S
C1483 C1482 1.390 . S
C1483 C1484 1.394 . S
C1483 C1489 1.465 . S
C1484 C1479 1.399 . S
C1484 C1483 1.394 . S
C1484 C1485 1.516 . S
C1485 C1484 1.516 . S
C1485 C1486 1.502 . S
C1485 C1487 1.561 . S
C1485 C1488 1.526 . S
C1486 H1470 0.959 . S
C1486 H1471 0.959 . S
C1486 H1472 0.961 . S
C1486 C1485 1.502 . S
C1487 H1473 0.960 . S
C1487 H1474 0.961 . S
C1487 H1475 0.959 . S
C1487 C1485 1.561 . S
C1488 C1485 1.526 . S
C1488 C1489 1.396 . S
C1488 C1493 1.390 . S
C1489 C1483 1.465 . S
C1489 C1488 1.396 . S
C1489 C1490 1.399 . S
C1490 H1476 0.929 . S
C1490 C1489 1.399 . S
C1490 C1491 1.385 . S
C1491 H1477 0.931 . S
C1491 C1490 1.385 . S
C1491 C1492 1.389 . S
C1492 C1491 1.389 . S
C1492 C1493 1.387 . S
C1493 H1478 0.930 . S
C1493 C1488 1.390 . S
C1493 C1492 1.387 . S
H1494 C1506 0.930 . S
H1495 C1508 0.930 . S
H1496 C1509 0.930 . S
H1497 C1513 0.959 . S
H1498 C1513 0.959 . S
H1499 C1513 0.961 . S
H1500 C1514 0.960 . S
H1501 C1514 0.961 . S
H1502 C1514 0.959 . S
H1503 C1517 0.929 . S
H1504 C1518 0.931 . S
H1505 C1520 0.930 . S
C1506 H1494 0.930 . S
C1506 C1507 1.399 . S
C1506 C1511 1.399 . S
C1507 C1506 1.399 . S
C1507 C1508 1.376 . S
C1508 H1495 0.930 . S
C1508 C1507 1.376 . S
C1508 C1509 1.388 . S
C1509 H1496 0.930 . S
C1509 C1508 1.388 . S
C1509 C1510 1.390 . S
C1510 C1509 1.390 . S
C1510 C1511 1.394 . S
C1510 C1516 1.465 . S
C1511 C1506 1.399 . S
C1511 C1510 1.394 . S
C1511 C1512 1.516 . S
C1512 C1511 1.516 . S
C1512 C1513 1.502 . S
C1512 C1514 1.561 . S
C1512 C1515 1.526 . S
C1513 H1497 0.959 . S
C1513 H1498 0.959 . S
C1513 H1499 0.961 . S
C1513 C1512 1.502 . S
C1514 H1500 0.960 . S
C1514 H1501 0.961 . S
C1514 H1502 0.959 . S
C1514 C1512 1.561 . S
C1515 C1512 1.526 . S
C1515 C1516 1.396 . S
C1515 C1520 1.390 . S
C1516 C1510 1.465 . S
C1516 C1515 1.396 . S
C1516 C1517 1.399 . S
C1517 H1503 0.929 . S
C1517 C1516 1.399 . S
C1517 C1518 1.385 . S
C1518 H1504 0.931 . S
C1518 C1517 1.385 . S
C1518 C1519 1.389 . S
C1519 C1518 1.389 . S
C1519 C1520 1.387 . S
C1520 H1505 0.930 . S
C1520 C1515 1.390 . S
C1520 C1519 1.387 . S
H1521 C1533 0.930 . S
H1522 C1535 0.930 . S
H1523 C1536 0.930 . S
H1524 C1540 0.959 . S
H1525 C1540 0.959 . S
H1526 C1540 0.961 . S
H1527 C1541 0.960 . S
H1528 C1541 0.961 . S
H1529 C1541 0.959 . S
H1530 C1544 0.929 . S
H1531 C1545 0.931 . S
H1532 C1547 0.930 . S
C1533 H1521 0.930 . S
C1533 C1534 1.399 . S
C1533 C1538 1.399 . S
C1534 C1533 1.399 . S
C1534 C1535 1.376 . S
C1535 H1522 0.930 . S
C1535 C1534 1.376 . S
C1535 C1536 1.388 . S
C1536 H1523 0.930 . S
C1536 C1535 1.388 . S
C1536 C1537 1.390 . S
C1537 C1536 1.390 . S
C1537 C1538 1.394 . S
C1537 C1543 1.465 . S
C1538 C1533 1.399 . S
C1538 C1537 1.394 . S
C1538 C1539 1.516 . S
C1539 C1538 1.516 . S
C1539 C1540 1.502 . S
C1539 C1541 1.561 . S
C1539 C1542 1.526 . S
C1540 H1524 0.959 . S
C1540 H1525 0.959 . S
C1540 H1526 0.961 . S
C1540 C1539 1.502 . S
C1541 H1527 0.960 . S
C1541 H1528 0.961 . S
C1541 H1529 0.959 . S
C1541 C1539 1.561 . S
C1542 C1539 1.526 . S
C1542 C1543 1.396 . S
C1542 C1547 1.390 . S
C1543 C1537 1.465 . S
C1543 C1542 1.396 . S
C1543 C1544 1.399 . S
C1544 H1530 0.929 . S
C1544 C1543 1.399 . S
C1544 C1545 1.385 . S
C1545 H1531 0.931 . S
C1545 C1544 1.385 . S
C1545 C1546 1.389 . S
C1546 C1545 1.389 . S
C1546 C1547 1.387 . S
C1547 H1532 0.930 . S
C1547 C1542 1.390 . S
C1547 C1546 1.387 . S
H1548 C1560 0.930 . S
H1549 C1562 0.930 . S
H1550 C1563 0.930 . S
H1551 C1567 0.959 . S
H1552 C1567 0.959 . S
H1553 C1567 0.961 . S
H1554 C1568 0.960 . S
H1555 C1568 0.961 . S
H1556 C1568 0.959 . S
H1557 C1571 0.929 . S
H1558 C1572 0.931 . S
H1559 C1574 0.930 . S
C1560 H1548 0.930 . S
C1560 C1561 1.399 . S
C1560 C1565 1.399 . S
C1561 C1560 1.399 . S
C1561 C1562 1.376 . S
C1562 H1549 0.930 . S
C1562 C1561 1.376 . S
C1562 C1563 1.388 . S
C1563 H1550 0.930 . S
C1563 C1562 1.388 . S
C1563 C1564 1.390 . S
C1564 C1563 1.390 . S
C1564 C1565 1.394 . S
C1564 C1570 1.465 . S
C1565 C1560 1.399 . S
C1565 C1564 1.394 . S
C1565 C1566 1.516 . S
C1566 C1565 1.516 . S
C1566 C1567 1.502 . S
C1566 C1568 1.561 . S
C1566 C1569 1.526 . S
C1567 H1551 0.959 . S
C1567 H1552 0.959 . S
C1567 H1553 0.961 . S
C1567 C1566 1.502 . S
C1568 H1554 0.960 . S
C1568 H1555 0.961 . S
C1568 H1556 0.959 . S
C1568 C1566 1.561 . S
C1569 C1566 1.526 . S
C1569 C1570 1.396 . S
C1569 C1574 1.390 . S
C1570 C1564 1.465 . S
C1570 C1569 1.396 . S
C1570 C1571 1.399 . S
C1571 H1557 0.929 . S
C1571 C1570 1.399 . S
C1571 C1572 1.385 . S
C1572 H1558 0.931 . S
C1572 C1571 1.385 . S
C1572 C1573 1.389 . S
C1573 C1572 1.389 . S
C1573 C1574 1.387 . S
C1574 H1559 0.930 . S
C1574 C1569 1.390 . S
C1574 C1573 1.387 . S
H1575 C1587 0.930 . S
H1576 C1589 0.930 . S
H1577 C1590 0.930 . S
H1578 C1594 0.959 . S
H1579 C1594 0.959 . S
H1580 C1594 0.961 . S
H1581 C1595 0.960 . S
H1582 C1595 0.961 . S
H1583 C1595 0.959 . S
H1584 C1598 0.929 . S
H1585 C1599 0.931 . S
H1586 C1601 0.930 . S
C1587 H1575 0.930 . S
C1587 C1588 1.399 . S
C1587 C1592 1.399 . S
C1588 C1587 1.399 . S
C1588 C1589 1.376 . S
C1589 H1576 0.930 . S
C1589 C1588 1.376 . S
C1589 C1590 1.388 . S
C1590 H1577 0.930 . S
C1590 C1589 1.388 . S
C1590 C1591 1.390 . S
C1591 C1590 1.390 . S
C1591 C1592 1.394 . S
C1591 C1597 1.465 . S
C1592 C1587 1.399 . S
C1592 C1591 1.394 . S
C1592 C1593 1.516 . S
C1593 C1592 1.516 . S
C1593 C1594 1.502 . S
C1593 C1595 1.561 . S
C1593 C1596 1.526 . S
C1594 H1578 0.959 . S
C1594 H1579 0.959 . S
C1594 H1580 0.961 . S
C1594 C1593 1.502 . S
C1595 H1581 0.960 . S
C1595 H1582 0.961 . S
C1595 H1583 0.959 . S
C1595 C1593 1.561 . S
C1596 C1593 1.526 . S
C1596 C1597 1.396 . S
C1596 C1601 1.390 . S
C1597 C1591 1.465 . S
C1597 C1596 1.396 . S
C1597 C1598 1.399 . S
C1598 H1584 0.929 . S
C1598 C1597 1.399 . S
C1598 C1599 1.385 . S
C1599 H1585 0.931 . S
C1599 C1598 1.385 . S
C1599 C1600 1.389 . S
C1600 C1599 1.389 . S
C1600 C1601 1.387 . S
C1601 H1586 0.930 . S
C1601 C1596 1.390 . S
C1601 C1600 1.387 . S
H1602 C1614 0.930 . S
H1603 C1616 0.930 . S
H1604 C1617 0.930 . S
H1605 C1621 0.959 . S
H1606 C1621 0.959 . S
H1607 C1621 0.961 . S
H1608 C1622 0.960 . S
H1609 C1622 0.961 . S
H1610 C1622 0.959 . S
H1611 C1625 0.929 . S
H1612 C1626 0.931 . S
H1613 C1628 0.930 . S
C1614 H1602 0.930 . S
C1614 C1615 1.399 . S
C1614 C1619 1.399 . S
C1615 C1614 1.399 . S
C1615 C1616 1.376 . S
C1616 H1603 0.930 . S
C1616 C1615 1.376 . S
C1616 C1617 1.388 . S
C1617 H1604 0.930 . S
C1617 C1616 1.388 . S
C1617 C1618 1.390 . S
C1618 C1617 1.390 . S
C1618 C1619 1.394 . S
C1618 C1624 1.465 . S
C1619 C1614 1.399 . S
C1619 C1618 1.394 . S
C1619 C1620 1.516 . S
C1620 C1619 1.516 . S
C1620 C1621 1.502 . S
C1620 C1622 1.561 . S
C1620 C1623 1.526 . S
C1621 H1605 0.959 . S
C1621 H1606 0.959 . S
C1621 H1607 0.961 . S
C1621 C1620 1.502 . S
C1622 H1608 0.960 . S
C1622 H1609 0.961 . S
C1622 H1610 0.959 . S
C1622 C1620 1.561 . S
C1623 C1620 1.526 . S
C1623 C1624 1.396 . S
C1623 C1628 1.390 . S
C1624 C1618 1.465 . S
C1624 C1623 1.396 . S
C1624 C1625 1.399 . S
C1625 H1611 0.929 . S
C1625 C1624 1.399 . S
C1625 C1626 1.385 . S
C1626 H1612 0.931 . S
C1626 C1625 1.385 . S
C1626 C1627 1.389 . S
C1627 C1626 1.389 . S
C1627 C1628 1.387 . S
C1628 H1613 0.930 . S
C1628 C1623 1.390 . S
C1628 C1627 1.387 . S
H1629 C1641 0.930 . S
H1630 C1643 0.930 . S
H1631 C1644 0.930 . S
H1632 C1648 0.959 . S
H1633 C1648 0.959 . S
H1634 C1648 0.961 . S
H1635 C1649 0.960 . S
H1636 C1649 0.961 . S
H1637 C1649 0.959 . S
H1638 C1652 0.929 . S
H1639 C1653 0.931 . S
H1640 C1655 0.930 . S
C1641 H1629 0.930 . S
C1641 C1642 1.399 . S
C1641 C1646 1.399 . S
C1642 C1641 1.399 . S
C1642 C1643 1.376 . S
C1643 H1630 0.930 . S
C1643 C1642 1.376 . S
C1643 C1644 1.388 . S
C1644 H1631 0.930 . S
C1644 C1643 1.388 . S
C1644 C1645 1.390 . S
C1645 C1644 1.390 . S
C1645 C1646 1.394 . S
C1645 C1651 1.465 . S
C1646 C1641 1.399 . S
C1646 C1645 1.394 . S
C1646 C1647 1.516 . S
C1647 C1646 1.516 . S
C1647 C1648 1.502 . S
C1647 C1649 1.561 . S
C1647 C1650 1.526 . S
C1648 H1632 0.959 . S
C1648 H1633 0.959 . S
C1648 H1634 0.961 . S
C1648 C1647 1.502 . S
C1649 H1635 0.960 . S
C1649 H1636 0.961 . S
C1649 H1637 0.959 . S
C1649 C1647 1.561 . S
C1650 C1647 1.526 . S
C1650 C1651 1.396 . S
C1650 C1655 1.390 . S
C1651 C1645 1.465 . S
C1651 C1650 1.396 . S
C1651 C1652 1.399 . S
C1652 H1638 0.929 . S
C1652 C1651 1.399 . S
C1652 C1653 1.385 . S
C1653 H1639 0.931 . S
C1653 C1652 1.385 . S
C1653 C1654 1.389 . S
C1654 C1653 1.389 . S
C1654 C1655 1.387 . S
C1655 H1640 0.930 . S
C1655 C1650 1.390 . S
C1655 C1654 1.387 . S
H1656 C1668 0.930 . S
H1657 C1670 0.930 . S
H1658 C1671 0.930 . S
H1659 C1675 0.959 . S
H1660 C1675 0.959 . S
H1661 C1675 0.961 . S
H1662 C1676 0.960 . S
H1663 C1676 0.961 . S
H1664 C1676 0.959 . S
H1665 C1679 0.929 . S
H1666 C1680 0.931 . S
H1667 C1682 0.930 . S
C1668 H1656 0.930 . S
C1668 C1669 1.399 . S
C1668 C1673 1.399 . S
C1669 C1668 1.399 . S
C1669 C1670 1.376 . S
C1670 H1657 0.930 . S
C1670 C1669 1.376 . S
C1670 C1671 1.388 . S
C1671 H1658 0.930 . S
C1671 C1670 1.388 . S
C1671 C1672 1.390 . S
C1672 C1671 1.390 . S
C1672 C1673 1.394 . S
C1672 C1678 1.465 . S
C1673 C1668 1.399 . S
C1673 C1672 1.394 . S
C1673 C1674 1.516 . S
C1674 C1673 1.516 . S
C1674 C1675 1.502 . S
C1674 C1676 1.561 . S
C1674 C1677 1.526 . S
C1675 H1659 0.959 . S
C1675 H1660 0.959 . S
C1675 H1661 0.961 . S
C1675 C1674 1.502 . S
C1676 H1662 0.960 . S
C1676 H1663 0.961 . S
C1676 H1664 0.959 . S
C1676 C1674 1.561 . S
C1677 C1674 1.526 . S
C1677 C1678 1.396 . S
C1677 C1682 1.390 . S
C1678 C1672 1.465 . S
C1678 C1677 1.396 . S
C1678 C1679 1.399 . S
C1679 H1665 0.929 . S
C1679 C1678 1.399 . S
C1679 C1680 1.385 . S
C1680 H1666 0.931 . S
C1680 C1679 1.385 . S
C1680 C1681 1.389 . S
C1681 C1680 1.389 . S
C1681 C1682 1.387 . S
C1682 H1667 0.930 . S
C1682 C1677 1.390 . S
C1682 C1681 1.387 . S
H1683 C1695 0.930 . S
H1684 C1697 0.930 . S
H1685 C1698 0.930 . S
H1686 C1702 0.959 . S
H1687 C1702 0.959 . S
H1688 C1702 0.961 . S
H1689 C1703 0.960 . S
H1690 C1703 0.961 . S
H1691 C1703 0.959 . S
H1692 C1706 0.929 . S
H1693 C1707 0.931 . S
H1694 C1709 0.930 . S
C1695 H1683 0.930 . S
C1695 C1696 1.399 . S
C1695 C1700 1.399 . S
C1696 C1695 1.399 . S
C1696 C1697 1.376 . S
C1697 H1684 0.930 . S
C1697 C1696 1.376 . S
C1697 C1698 1.388 . S
C1698 H1685 0.930 . S
C1698 C1697 1.388 . S
C1698 C1699 1.390 . S
C1699 C1698 1.390 . S
C1699 C1700 1.394 . S
C1699 C1705 1.465 . S
C1700 C1695 1.399 . S
C1700 C1699 1.394 . S
C1700 C1701 1.516 . S
C1701 C1700 1.516 . S
C1701 C1702 1.502 . S
C1701 C1703 1.561 . S
C1701 C1704 1.526 . S
C1702 H1686 0.959 . S
C1702 H1687 0.959 . S
C1702 H1688 0.961 . S
C1702 C1701 1.502 . S
C1703 H1689 0.960 . S
C1703 H1690 0.961 . S
C1703 H1691 0.959 . S
C1703 C1701 1.561 . S
C1704 C1701 1.526 . S
C1704 C1705 1.396 . S
C1704 C1709 1.390 . S
C1705 C1699 1.465 . S
C1705 C1704 1.396 . S
C1705 C1706 1.399 . S
C1706 H1692 0.929 . S
C1706 C1705 1.399 . S
C1706 C1707 1.385 . S
C1707 H1693 0.931 . S
C1707 C1706 1.385 . S
C1707 C1708 1.389 . S
C1708 C1707 1.389 . S
C1708 C1709 1.387 . S
C1709 H1694 0.930 . S
C1709 C1704 1.390 . S
C1709 C1708 1.387 . S
H1710 C1722 0.930 . S
H1711 C1724 0.930 . S
H1712 C1725 0.930 . S
H1713 C1729 0.959 . S
H1714 C1729 0.959 . S
H1715 C1729 0.961 . S
H1716 C1730 0.960 . S
H1717 C1730 0.961 . S
H1718 C1730 0.959 . S
H1719 C1733 0.929 . S
H1720 C1734 0.931 . S
H1721 C1736 0.930 . S
C1722 H1710 0.930 . S
C1722 C1723 1.399 . S
C1722 C1727 1.399 . S
C1723 C1722 1.399 . S
C1723 C1724 1.376 . S
C1724 H1711 0.930 . S
C1724 C1723 1.376 . S
C1724 C1725 1.388 . S
C1725 H1712 0.930 . S
C1725 C1724 1.388 . S
C1725 C1726 1.390 . S
C1726 C1725 1.390 . S
C1726 C1727 1.394 . S
C1726 C1732 1.465 . S
C1727 C1722 1.399 . S
C1727 C1726 1.394 . S
C1727 C1728 1.516 . S
C1728 C1727 1.516 . S
C1728 C1729 1.502 . S
C1728 C1730 1.561 . S
C1728 C1731 1.526 . S
C1729 H1713 0.959 . S
C1729 H1714 0.959 . S
C1729 H1715 0.961 . S
C1729 C1728 1.502 . S
C1730 H1716 0.960 . S
C1730 H1717 0.961 . S
C1730 H1718 0.959 . S
C1730 C1728 1.561 . S
C1731 C1728 1.526 . S
C1731 C1732 1.396 . S
C1731 C1736 1.390 . S
C1732 C1726 1.465 . S
C1732 C1731 1.396 . S
C1732 C1733 1.399 . S
C1733 H1719 0.929 . S
C1733 C1732 1.399 . S
C1733 C1734 1.385 . S
C1734 H1720 0.931 . S
C1734 C1733 1.385 . S
C1734 C1735 1.389 . S
C1735 C1734 1.389 . S
C1735 C1736 1.387 . S
C1736 H1721 0.930 . S
C1736 C1731 1.390 . S
C1736 C1735 1.387 . S
H1737 C1749 0.930 . S
H1738 C1751 0.930 . S
H1739 C1752 0.930 . S
H1740 C1756 0.959 . S
H1741 C1756 0.959 . S
H1742 C1756 0.961 . S
H1743 C1757 0.960 . S
H1744 C1757 0.961 . S
H1745 C1757 0.959 . S
H1746 C1760 0.929 . S
H1747 C1761 0.931 . S
H1748 C1763 0.930 . S
C1749 H1737 0.930 . S
C1749 C1750 1.399 . S
C1749 C1754 1.399 . S
C1750 C1749 1.399 . S
C1750 C1751 1.376 . S
C1751 H1738 0.930 . S
C1751 C1750 1.376 . S
C1751 C1752 1.388 . S
C1752 H1739 0.930 . S
C1752 C1751 1.388 . S
C1752 C1753 1.390 . S
C1753 C1752 1.390 . S
C1753 C1754 1.394 . S
C1753 C1759 1.465 . S
C1754 C1749 1.399 . S
C1754 C1753 1.394 . S
C1754 C1755 1.516 . S
C1755 C1754 1.516 . S
C1755 C1756 1.502 . S
C1755 C1757 1.561 . S
C1755 C1758 1.526 . S
C1756 H1740 0.959 . S
C1756 H1741 0.959 . S
C1756 H1742 0.961 . S
C1756 C1755 1.502 . S
C1757 H1743 0.960 . S
C1757 H1744 0.961 . S
C1757 H1745 0.959 . S
C1757 C1755 1.561 . S
C1758 C1755 1.526 . S
C1758 C1759 1.396 . S
C1758 C1763 1.390 . S
C1759 C1753 1.465 . S
C1759 C1758 1.396 . S
C1759 C1760 1.399 . S
C1760 H1746 0.929 . S
C1760 C1759 1.399 . S
C1760 C1761 1.385 . S
C1761 H1747 0.931 . S
C1761 C1760 1.385 . S
C1761 C1762 1.389 . S
C1762 C1761 1.389 . S
C1762 C1763 1.387 . S
C1763 H1748 0.930 . S
C1763 C1758 1.390 . S
C1763 C1762 1.387 . S
H1764 C1776 0.930 . S
H1765 C1778 0.930 . S
H1766 C1779 0.930 . S
H1767 C1783 0.959 . S
H1768 C1783 0.959 . S
H1769 C1783 0.961 . S
H1770 C1784 0.960 . S
H1771 C1784 0.961 . S
H1772 C1784 0.959 . S
H1773 C1787 0.929 . S
H1774 C1788 0.931 . S
H1775 C1790 0.930 . S
C1776 H1764 0.930 . S
C1776 C1777 1.399 . S
C1776 C1781 1.399 . S
C1777 C1776 1.399 . S
C1777 C1778 1.376 . S
C1778 H1765 0.930 . S
C1778 C1777 1.376 . S
C1778 C1779 1.388 . S
C1779 H1766 0.930 . S
C1779 C1778 1.388 . S
C1779 C1780 1.390 . S
C1780 C1779 1.390 . S
C1780 C1781 1.394 . S
C1780 C1786 1.465 . S
C1781 C1776 1.399 . S
C1781 C1780 1.394 . S
C1781 C1782 1.516 . S
C1782 C1781 1.516 . S
C1782 C1783 1.502 . S
C1782 C1784 1.561 . S
C1782 C1785 1.526 . S
C1783 H1767 0.959 . S
C1783 H1768 0.959 . S
C1783 H1769 0.961 . S
C1783 C1782 1.502 . S
C1784 H1770 0.960 . S
C1784 H1771 0.961 . S
C1784 H1772 0.959 . S
C1784 C1782 1.561 . S
C1785 C1782 1.526 . S
C1785 C1786 1.396 . S
C1785 C1790 1.390 . S
C1786 C1780 1.465 . S
C1786 C1785 1.396 . S
C1786 C1787 1.399 . S
C1787 H1773 0.929 . S
C1787 C1786 1.399 . S
C1787 C1788 1.385 . S
C1788 H1774 0.931 . S
C1788 C1787 1.385 . S
C1788 C1789 1.389 . S
C1789 C1788 1.389 . S
C1789 C1790 1.387 . S
C1790 H1775 0.930 . S
C1790 C1785 1.390 . S
C1790 C1789 1.387 . S
H1791 C1803 0.930 . S
H1792 C1805 0.930 . S
H1793 C1806 0.930 . S
H1794 C1810 0.959 . S
H1795 C1810 0.959 . S
H1796 C1810 0.961 . S
H1797 C1811 0.960 . S
H1798 C1811 0.961 . S
H1799 C1811 0.959 . S
H1800 C1814 0.929 . S
H1801 C1815 0.931 . S
H1802 C1817 0.930 . S
C1803 H1791 0.930 . S
C1803 C1804 1.399 . S
C1803 C1808 1.399 . S
C1804 C1803 1.399 . S
C1804 C1805 1.376 . S
C1805 H1792 0.930 . S
C1805 C1804 1.376 . S
C1805 C1806 1.388 . S
C1806 H1793 0.930 . S
C1806 C1805 1.388 . S
C1806 C1807 1.390 . S
C1807 C1806 1.390 . S
C1807 C1808 1.394 . S
C1807 C1813 1.465 . S
C1808 C1803 1.399 . S
C1808 C1807 1.394 . S
C1808 C1809 1.516 . S
C1809 C1808 1.516 . S
C1809 C1810 1.502 . S
C1809 C1811 1.561 . S
C1809 C1812 1.526 . S
C1810 H1794 0.959 . S
C1810 H1795 0.959 . S
C1810 H1796 0.961 . S
C1810 C1809 1.502 . S
C1811 H1797 0.960 . S
C1811 H1798 0.961 . S
C1811 H1799 0.959 . S
C1811 C1809 1.561 . S
C1812 C1809 1.526 . S
C1812 C1813 1.396 . S
C1812 C1817 1.390 . S
C1813 C1807 1.465 . S
C1813 C1812 1.396 . S
C1813 C1814 1.399 . S
C1814 H1800 0.929 . S
C1814 C1813 1.399 . S
C1814 C1815 1.385 . S
C1815 H1801 0.931 . S
C1815 C1814 1.385 . S
C1815 C1816 1.389 . S
C1816 C1815 1.389 . S
C1816 C1817 1.387 . S
C1817 H1802 0.930 . S
C1817 C1812 1.390 . S
C1817 C1816 1.387 . S
H1818 C1830 0.930 . S
H1819 C1832 0.930 . S
H1820 C1833 0.930 . S
H1821 C1837 0.959 . S
H1822 C1837 0.959 . S
H1823 C1837 0.961 . S
H1824 C1838 0.960 . S
H1825 C1838 0.961 . S
H1826 C1838 0.959 . S
H1827 C1841 0.929 . S
H1828 C1842 0.931 . S
H1829 C1844 0.930 . S
C1830 H1818 0.930 . S
C1830 C1831 1.399 . S
C1830 C1835 1.399 . S
C1831 C1830 1.399 . S
C1831 C1832 1.376 . S
C1832 H1819 0.930 . S
C1832 C1831 1.376 . S
C1832 C1833 1.388 . S
C1833 H1820 0.930 . S
C1833 C1832 1.388 . S
C1833 C1834 1.390 . S
C1834 C1833 1.390 . S
C1834 C1835 1.394 . S
C1834 C1840 1.465 . S
C1835 C1830 1.399 . S
C1835 C1834 1.394 . S
C1835 C1836 1.516 . S
C1836 C1835 1.516 . S
C1836 C1837 1.502 . S
C1836 C1838 1.561 . S
C1836 C1839 1.526 . S
C1837 H1821 0.959 . S
C1837 H1822 0.959 . S
C1837 H1823 0.961 . S
C1837 C1836 1.502 . S
C1838 H1824 0.960 . S
C1838 H1825 0.961 . S
C1838 H1826 0.959 . S
C1838 C1836 1.561 . S
C1839 C1836 1.526 . S
C1839 C1840 1.396 . S
C1839 C1844 1.390 . S
C1840 C1834 1.465 . S
C1840 C1839 1.396 . S
C1840 C1841 1.399 . S
C1841 H1827 0.929 . S
C1841 C1840 1.399 . S
C1841 C1842 1.385 . S
C1842 H1828 0.931 . S
C1842 C1841 1.385 . S
C1842 C1843 1.389 . S
C1843 C1842 1.389 . S
C1843 C1844 1.387 . S
C1844 H1829 0.930 . S
C1844 C1839 1.390 . S
C1844 C1843 1.387 . S
H1845 C1857 0.930 . S
H1846 C1859 0.930 . S
H1847 C1860 0.930 . S
H1848 C1864 0.959 . S
H1849 C1864 0.959 . S
H1850 C1864 0.961 . S
H1851 C1865 0.960 . S
H1852 C1865 0.961 . S
H1853 C1865 0.959 . S
H1854 C1868 0.929 . S
H1855 C1869 0.931 . S
H1856 C1871 0.930 . S
C1857 H1845 0.930 . S
C1857 C1858 1.399 . S
C1857 C1862 1.399 . S
C1858 C1857 1.399 . S
C1858 C1859 1.376 . S
C1859 H1846 0.930 . S
C1859 C1858 1.376 . S
C1859 C1860 1.388 . S
C1860 H1847 0.930 . S
C1860 C1859 1.388 . S
C1860 C1861 1.390 . S
C1861 C1860 1.390 . S
C1861 C1862 1.394 . S
C1861 C1867 1.465 . S
C1862 C1857 1.399 . S
C1862 C1861 1.394 . S
C1862 C1863 1.516 . S
C1863 C1862 1.516 . S
C1863 C1864 1.502 . S
C1863 C1865 1.561 . S
C1863 C1866 1.526 . S
C1864 H1848 0.959 . S
C1864 H1849 0.959 . S
C1864 H1850 0.961 . S
C1864 C1863 1.502 . S
C1865 H1851 0.960 . S
C1865 H1852 0.961 . S
C1865 H1853 0.959 . S
C1865 C1863 1.561 . S
C1866 C1863 1.526 . S
C1866 C1867 1.396 . S
C1866 C1871 1.390 . S
C1867 C1861 1.465 . S
C1867 C1866 1.396 . S
C1867 C1868 1.399 . S
C1868 H1854 0.929 . S
C1868 C1867 1.399 . S
C1868 C1869 1.385 . S
C1869 H1855 0.931 . S
C1869 C1868 1.385 . S
C1869 C1870 1.389 . S
C1870 C1869 1.389 . S
C1870 C1871 1.387 . S
C1871 H1856 0.930 . S
C1871 C1866 1.390 . S
C1871 C1870 1.387 . S
H1872 C1884 0.930 . S
H1873 C1886 0.930 . S
H1874 C1887 0.930 . S
H1875 C1891 0.959 . S
H1876 C1891 0.959 . S
H1877 C1891 0.961 . S
H1878 C1892 0.960 . S
H1879 C1892 0.961 . S
H1880 C1892 0.959 . S
H1881 C1895 0.929 . S
H1882 C1896 0.931 . S
H1883 C1898 0.930 . S
C1884 H1872 0.930 . S
C1884 C1885 1.399 . S
C1884 C1889 1.399 . S
C1885 C1884 1.399 . S
C1885 C1886 1.376 . S
C1886 H1873 0.930 . S
C1886 C1885 1.376 . S
C1886 C1887 1.388 . S
C1887 H1874 0.930 . S
C1887 C1886 1.388 . S
C1887 C1888 1.390 . S
C1888 C1887 1.390 . S
C1888 C1889 1.394 . S
C1888 C1894 1.465 . S
C1889 C1884 1.399 . S
C1889 C1888 1.394 . S
C1889 C1890 1.516 . S
C1890 C1889 1.516 . S
C1890 C1891 1.502 . S
C1890 C1892 1.561 . S
C1890 C1893 1.526 . S
C1891 H1875 0.959 . S
C1891 H1876 0.959 . S
C1891 H1877 0.961 . S
C1891 C1890 1.502 . S
C1892 H1878 0.960 . S
C1892 H1879 0.961 . S
C1892 H1880 0.959 . S
C1892 C1890 1.561 . S
C1893 C1890 1.526 . S
C1893 C1894 1.396 . S
C1893 C1898 1.390 . S
C1894 C1888 1.465 . S
C1894 C1893 1.396 . S
C1894 C1895 1.399 . S
C1895 H1881 0.929 . S
C1895 C1894 1.399 . S
C1895 C1896 1.385 . S
C1896 H1882 0.931 . S
C1896 C1895 1.385 . S
C1896 C1897 1.389 . S
C1897 C1896 1.389 . S
C1897 C1898 1.387 . S
C1898 H1883 0.930 . S
C1898 C1893 1.390 . S
C1898 C1897 1.387 . S
H1899 C1911 0.930 . S
H1900 C1913 0.930 . S
H1901 C1914 0.930 . S
H1902 C1918 0.959 . S
H1903 C1918 0.959 . S
H1904 C1918 0.961 . S
H1905 C1919 0.960 . S
H1906 C1919 0.961 . S
H1907 C1919 0.959 . S
H1908 C1922 0.929 . S
H1909 C1923 0.931 . S
H1910 C1925 0.930 . S
C1911 H1899 0.930 . S
C1911 C1912 1.399 . S
C1911 C1916 1.399 . S
C1912 C1911 1.399 . S
C1912 C1913 1.376 . S
C1913 H1900 0.930 . S
C1913 C1912 1.376 . S
C1913 C1914 1.388 . S
C1914 H1901 0.930 . S
C1914 C1913 1.388 . S
C1914 C1915 1.390 . S
C1915 C1914 1.390 . S
C1915 C1916 1.394 . S
C1915 C1921 1.465 . S
C1916 C1911 1.399 . S
C1916 C1915 1.394 . S
C1916 C1917 1.516 . S
C1917 C1916 1.516 . S
C1917 C1918 1.502 . S
C1917 C1919 1.561 . S
C1917 C1920 1.526 . S
C1918 H1902 0.959 . S
C1918 H1903 0.959 . S
C1918 H1904 0.961 . S
C1918 C1917 1.502 . S
C1919 H1905 0.960 . S
C1919 H1906 0.961 . S
C1919 H1907 0.959 . S
C1919 C1917 1.561 . S
C1920 C1917 1.526 . S
C1920 C1921 1.396 . S
C1920 C1925 1.390 . S
C1921 C1915 1.465 . S
C1921 C1920 1.396 . S
C1921 C1922 1.399 . S
C1922 H1908 0.929 . S
C1922 C1921 1.399 . S
C1922 C1923 1.385 . S
C1923 H1909 0.931 . S
C1923 C1922 1.385 . S
C1923 C1924 1.389 . S
C1924 C1923 1.389 . S
C1924 C1925 1.387 . S
C1925 H1910 0.930 . S
C1925 C1920 1.390 . S
C1925 C1924 1.387 . S
H1926 C1938 0.930 . S
H1927 C1940 0.930 . S
H1928 C1941 0.930 . S
H1929 C1945 0.959 . S
H1930 C1945 0.959 . S
H1931 C1945 0.961 . S
H1932 C1946 0.960 . S
H1933 C1946 0.961 . S
H1934 C1946 0.959 . S
H1935 C1949 0.929 . S
H1936 C1950 0.931 . S
H1937 C1952 0.930 . S
C1938 H1926 0.930 . S
C1938 C1939 1.399 . S
C1938 C1943 1.399 . S
C1939 C1938 1.399 . S
C1939 C1940 1.376 . S
C1940 H1927 0.930 . S
C1940 C1939 1.376 . S
C1940 C1941 1.388 . S
C1941 H1928 0.930 . S
C1941 C1940 1.388 . S
C1941 C1942 1.390 . S
C1942 C1941 1.390 . S
C1942 C1943 1.394 . S
C1942 C1948 1.465 . S
C1943 C1938 1.399 . S
C1943 C1942 1.394 . S
C1943 C1944 1.516 . S
C1944 C1943 1.516 . S
C1944 C1945 1.502 . S
C1944 C1946 1.561 . S
C1944 C1947 1.526 . S
C1945 H1929 0.959 . S
C1945 H1930 0.959 . S
C1945 H1931 0.961 . S
C1945 C1944 1.502 . S
C1946 H1932 0.960 . S
C1946 H1933 0.961 . S
C1946 H1934 0.959 . S
C1946 C1944 1.561 . S
C1947 C1944 1.526 . S
C1947 C1948 1.396 . S
C1947 C1952 1.390 . S
C1948 C1942 1.465 . S
C1948 C1947 1.396 . S
C1948 C1949 1.399 . S
C1949 H1935 0.929 . S
C1949 C1948 1.399 . S
C1949 C1950 1.385 . S
C1950 H1936 0.931 . S
C1950 C1949 1.385 . S
C1950 C1951 1.389 . S
C1951 C1950 1.389 . S
C1951 C1952 1.387 . S
C1952 H1937 0.930 . S
C1952 C1947 1.390 . S
C1952 C1951 1.387 . S
H1953 C1965 0.930 . S
H1954 C1967 0.930 . S
H1955 C1968 0.930 . S
H1956 C1972 0.959 . S
H1957 C1972 0.959 . S
H1958 C1972 0.961 . S
H1959 C1973 0.960 . S
H1960 C1973 0.961 . S
H1961 C1973 0.959 . S
H1962 C1976 0.929 . S
H1963 C1977 0.931 . S
H1964 C1979 0.930 . S
C1965 H1953 0.930 . S
C1965 C1966 1.399 . S
C1965 C1970 1.399 . S
C1966 C1965 1.399 . S
C1966 C1967 1.376 . S
C1967 H1954 0.930 . S
C1967 C1966 1.376 . S
C1967 C1968 1.388 . S
C1968 H1955 0.930 . S
C1968 C1967 1.388 . S
C1968 C1969 1.390 . S
C1969 C1968 1.390 . S
C1969 C1970 1.394 . S
C1969 C1975 1.465 . S
C1970 C1965 1.399 . S
C1970 C1969 1.394 . S
C1970 C1971 1.516 . S
C1971 C1970 1.516 . S
C1971 C1972 1.502 . S
C1971 C1973 1.561 . S
C1971 C1974 1.526 . S
C1972 H1956 0.959 . S
C1972 H1957 0.959 . S
C1972 H1958 0.961 . S
C1972 C1971 1.502 . S
C1973 H1959 0.960 . S
C1973 H1960 0.961 . S
C1973 H1961 0.959 . S
C1973 C1971 1.561 . S
C1974 C1971 1.526 . S
C1974 C1975 1.396 . S
C1974 C1979 1.390 . S
C1975 C1969 1.465 . S
C1975 C1974 1.396 . S
C1975 C1976 1.399 . S
C1976 H1962 0.929 . S
C1976 C1975 1.399 . S
C1976 C1977 1.385 . S
C1977 H1963 0.931 . S
C1977 C1976 1.385 . S
C1977 C1978 1.389 . S
C1978 C1977 1.389 . S
C1978 C1979 1.387 . S
C1979 H1964 0.930 . S
C1979 C1974 1.390 . S
C1979 C1978 1.387 . S
H1980 C1992 0.930 . S
H1981 C1994 0.930 . S
H1982 C1995 0.930 . S
H1983 C1999 0.959 . S
H1984 C1999 0.959 . S
H1985 C1999 0.961 . S
H1986 C2000 0.960 . S
H1987 C2000 0.961 . S
H1988 C2000 0.959 . S
H1989 C2003 0.929 . S
H1990 C2004 0.931 . S
H1991 C2006 0.930 . S
C1992 H1980 0.930 . S
C1992 C1993 1.399 . S
C1992 C1997 1.399 . S
C1993 C1992 1.399 . S
C1993 C1994 1.376 . S
C1994 H1981 0.930 . S
C1994 C1993 1.376 . S
C1994 C1995 1.388 . S
C1995 H1982 0.930 . S
C1995 C1994 1.388 . S
C1995 C1996 1.390 . S
C1996 C1995 1.390 . S
C1996 C1997 1.394 . S
C1996 C2002 1.465 . S
C1997 C1992 1.399 . S
C1997 C1996 1.394 . S
C1997 C1998 1.516 . S
C1998 C1997 1.516 . S
C1998 C1999 1.502 . S
C1998 C2000 1.561 . S
C1998 C2001 1.526 . S
C1999 H1983 0.959 . S
C1999 H1984 0.959 . S
C1999 H1985 0.961 . S
C1999 C1998 1.502 . S
C2000 H1986 0.960 . S
C2000 H1987 0.961 . S
C2000 H1988 0.959 . S
C2000 C1998 1.561 . S
C2001 C1998 1.526 . S
C2001 C2002 1.396 . S
C2001 C2006 1.390 . S
C2002 C1996 1.465 . S
C2002 C2001 1.396 . S
C2002 C2003 1.399 . S
C2003 H1989 0.929 . S
C2003 C2002 1.399 . S
C2003 C2004 1.385 . S
C2004 H1990 0.931 . S
C2004 C2003 1.385 . S
C2004 C2005 1.389 . S
C2005 C2004 1.389 . S
C2005 C2006 1.387 . S
C2006 H1991 0.930 . S
C2006 C2001 1.390 . S
C2006 C2005 1.387 . S
H2007 C2019 0.930 . S
H2008 C2021 0.930 . S
H2009 C2022 0.930 . S
H2010 C2026 0.959 . S
H2011 C2026 0.959 . S
H2012 C2026 0.961 . S
H2013 C2027 0.960 . S
H2014 C2027 0.961 . S
H2015 C2027 0.959 . S
H2016 C2030 0.929 . S
H2017 C2031 0.931 . S
H2018 C2033 0.930 . S
C2019 H2007 0.930 . S
C2019 C2020 1.399 . S
C2019 C2024 1.399 . S
C2020 C2019 1.399 . S
C2020 C2021 1.376 . S
C2021 H2008 0.930 . S
C2021 C2020 1.376 . S
C2021 C2022 1.388 . S
C2022 H2009 0.930 . S
C2022 C2021 1.388 . S
C2022 C2023 1.390 . S
C2023 C2022 1.390 . S
C2023 C2024 1.394 . S
C2023 C2029 1.465 . S
C2024 C2019 1.399 . S
C2024 C2023 1.394 . S
C2024 C2025 1.516 . S
C2025 C2024 1.516 . S
C2025 C2026 1.502 . S
C2025 C2027 1.561 . S
C2025 C2028 1.526 . S
C2026 H2010 0.959 . S
C2026 H2011 0.959 . S
C2026 H2012 0.961 . S
C2026 C2025 1.502 . S
C2027 H2013 0.960 . S
C2027 H2014 0.961 . S
C2027 H2015 0.959 . S
C2027 C2025 1.561 . S
C2028 C2025 1.526 . S
C2028 C2029 1.396 . S
C2028 C2033 1.390 . S
C2029 C2023 1.465 . S
C2029 C2028 1.396 . S
C2029 C2030 1.399 . S
C2030 H2016 0.929 . S
C2030 C2029 1.399 . S
C2030 C2031 1.385 . S
C2031 H2017 0.931 . S
C2031 C2030 1.385 . S
C2031 C2032 1.389 . S
C2032 C2031 1.389 . S
C2032 C2033 1.387 . S
C2033 H2018 0.930 . S
C2033 C2028 1.390 . S
C2033 C2032 1.387 . S
H2034 C2046 0.930 . S
H2035 C2048 0.930 . S
H2036 C2049 0.930 . S
H2037 C2053 0.959 . S
H2038 C2053 0.959 . S
H2039 C2053 0.961 . S
H2040 C2054 0.960 . S
H2041 C2054 0.961 . S
H2042 C2054 0.959 . S
H2043 C2057 0.929 . S
H2044 C2058 0.931 . S
H2045 C2060 0.930 . S
C2046 H2034 0.930 . S
C2046 C2047 1.399 . S
C2046 C2051 1.399 . S
C2047 C2046 1.399 . S
C2047 C2048 1.376 . S
C2048 H2035 0.930 . S
C2048 C2047 1.376 . S
C2048 C2049 1.388 . S
C2049 H2036 0.930 . S
C2049 C2048 1.388 . S
C2049 C2050 1.390 . S
C2050 C2049 1.390 . S
C2050 C2051 1.394 . S
C2050 C2056 1.465 . S
C2051 C2046 1.399 . S
C2051 C2050 1.394 . S
C2051 C2052 1.516 . S
C2052 C2051 1.516 . S
C2052 C2053 1.502 . S
C2052 C2054 1.561 . S
C2052 C2055 1.526 . S
C2053 H2037 0.959 . S
C2053 H2038 0.959 . S
C2053 H2039 0.961 . S
C2053 C2052 1.502 . S
C2054 H2040 0.960 . S
C2054 H2041 0.961 . S
C2054 H2042 0.959 . S
C2054 C2052 1.561 . S
C2055 C2052 1.526 . S
C2055 C2056 1.396 . S
C2055 C2060 1.390 . S
C2056 C2050 1.465 . S
C2056 C2055 1.396 . S
C2056 C2057 1.399 . S
C2057 H2043 0.929 . S
C2057 C2056 1.399 . S
C2057 C2058 1.385 . S
C2058 H2044 0.931 . S
C2058 C2057 1.385 . S
C2058 C2059 1.389 . S
C2059 C2058 1.389 . S
C2059 C2060 1.387 . S
C2060 H2045 0.930 . S
C2060 C2055 1.390 . S
C2060 C2059 1.387 . S
H2061 C2073 0.930 . S
H2062 C2075 0.930 . S
H2063 C2076 0.930 . S
H2064 C2080 0.959 . S
H2065 C2080 0.959 . S
H2066 C2080 0.961 . S
H2067 C2081 0.960 . S
H2068 C2081 0.961 . S
H2069 C2081 0.959 . S
H2070 C2084 0.929 . S
H2071 C2085 0.931 . S
H2072 C2087 0.930 . S
C2073 H2061 0.930 . S
C2073 C2074 1.399 . S
C2073 C2078 1.399 . S
C2074 C2073 1.399 . S
C2074 C2075 1.376 . S
C2075 H2062 0.930 . S
C2075 C2074 1.376 . S
C2075 C2076 1.388 . S
C2076 H2063 0.930 . S
C2076 C2075 1.388 . S
C2076 C2077 1.390 . S
C2077 C2076 1.390 . S
C2077 C2078 1.394 . S
C2077 C2083 1.465 . S
C2078 C2073 1.399 . S
C2078 C2077 1.394 . S
C2078 C2079 1.516 . S
C2079 C2078 1.516 . S
C2079 C2080 1.502 . S
C2079 C2081 1.561 . S
C2079 C2082 1.526 . S
C2080 H2064 0.959 . S
C2080 H2065 0.959 . S
C2080 H2066 0.961 . S
C2080 C2079 1.502 . S
C2081 H2067 0.960 . S
C2081 H2068 0.961 . S
C2081 H2069 0.959 . S
C2081 C2079 1.561 . S
C2082 C2079 1.526 . S
C2082 C2083 1.396 . S
C2082 C2087 1.390 . S
C2083 C2077 1.465 . S
C2083 C2082 1.396 . S
C2083 C2084 1.399 . S
C2084 H2070 0.929 . S
C2084 C2083 1.399 . S
C2084 C2085 1.385 . S
C2085 H2071 0.931 . S
C2085 C2084 1.385 . S
C2085 C2086 1.389 . S
C2086 C2085 1.389 . S
C2086 C2087 1.387 . S
C2087 H2072 0.930 . S
C2087 C2082 1.390 . S
C2087 C2086 1.387 . S
H2088 C2100 0.930 . S
H2089 C2102 0.930 . S
H2090 C2103 0.930 . S
H2091 C2107 0.959 . S
H2092 C2107 0.959 . S
H2093 C2107 0.961 . S
H2094 C2108 0.960 . S
H2095 C2108 0.961 . S
H2096 C2108 0.959 . S
H2097 C2111 0.929 . S
H2098 C2112 0.931 . S
H2099 C2114 0.930 . S
C2100 H2088 0.930 . S
C2100 C2101 1.399 . S
C2100 C2105 1.399 . S
C2101 C2100 1.399 . S
C2101 C2102 1.376 . S
C2102 H2089 0.930 . S
C2102 C2101 1.376 . S
C2102 C2103 1.388 . S
C2103 H2090 0.930 . S
C2103 C2102 1.388 . S
C2103 C2104 1.390 . S
C2104 C2103 1.390 . S
C2104 C2105 1.394 . S
C2104 C2110 1.465 . S
C2105 C2100 1.399 . S
C2105 C2104 1.394 . S
C2105 C2106 1.516 . S
C2106 C2105 1.516 . S
C2106 C2107 1.502 . S
C2106 C2108 1.561 . S
C2106 C2109 1.526 . S
C2107 H2091 0.959 . S
C2107 H2092 0.959 . S
C2107 H2093 0.961 . S
C2107 C2106 1.502 . S
C2108 H2094 0.960 . S
C2108 H2095 0.961 . S
C2108 H2096 0.959 . S
C2108 C2106 1.561 . S
C2109 C2106 1.526 . S
C2109 C2110 1.396 . S
C2109 C2114 1.390 . S
C2110 C2104 1.465 . S
C2110 C2109 1.396 . S
C2110 C2111 1.399 . S
C2111 H2097 0.929 . S
C2111 C2110 1.399 . S
C2111 C2112 1.385 . S
C2112 H2098 0.931 . S
C2112 C2111 1.385 . S
C2112 C2113 1.389 . S
C2113 C2112 1.389 . S
C2113 C2114 1.387 . S
C2114 H2099 0.930 . S
C2114 C2109 1.390 . S
C2114 C2113 1.387 . S
H2115 C2127 0.930 . S
H2116 C2129 0.930 . S
H2117 C2130 0.930 . S
H2118 C2134 0.959 . S
H2119 C2134 0.959 . S
H2120 C2134 0.961 . S
H2121 C2135 0.960 . S
H2122 C2135 0.961 . S
H2123 C2135 0.959 . S
H2124 C2138 0.929 . S
H2125 C2139 0.931 . S
H2126 C2141 0.930 . S
C2127 H2115 0.930 . S
C2127 C2128 1.399 . S
C2127 C2132 1.399 . S
C2128 C2127 1.399 . S
C2128 C2129 1.376 . S
C2129 H2116 0.930 . S
C2129 C2128 1.376 . S
C2129 C2130 1.388 . S
C2130 H2117 0.930 . S
C2130 C2129 1.388 . S
C2130 C2131 1.390 . S
C2131 C2130 1.390 . S
C2131 C2132 1.394 . S
C2131 C2137 1.465 . S
C2132 C2127 1.399 . S
C2132 C2131 1.394 . S
C2132 C2133 1.516 . S
C2133 C2132 1.516 . S
C2133 C2134 1.502 . S
C2133 C2135 1.561 . S
C2133 C2136 1.526 . S
C2134 H2118 0.959 . S
C2134 H2119 0.959 . S
C2134 H2120 0.961 . S
C2134 C2133 1.502 . S
C2135 H2121 0.960 . S
C2135 H2122 0.961 . S
C2135 H2123 0.959 . S
C2135 C2133 1.561 . S
C2136 C2133 1.526 . S
C2136 C2137 1.396 . S
C2136 C2141 1.390 . S
C2137 C2131 1.465 . S
C2137 C2136 1.396 . S
C2137 C2138 1.399 . S
C2138 H2124 0.929 . S
C2138 C2137 1.399 . S
C2138 C2139 1.385 . S
C2139 H2125 0.931 . S
C2139 C2138 1.385 . S
C2139 C2140 1.389 . S
C2140 C2139 1.389 . S
C2140 C2141 1.387 . S
C2141 H2126 0.930 . S
C2141 C2136 1.390 . S
C2141 C2140 1.387 . S
H2142 C2154 0.930 . S
H2143 C2156 0.930 . S
H2144 C2157 0.930 . S
H2145 C2161 0.959 . S
H2146 C2161 0.959 . S
H2147 C2161 0.961 . S
H2148 C2162 0.960 . S
H2149 C2162 0.961 . S
H2150 C2162 0.959 . S
H2151 C2165 0.929 . S
H2152 C2166 0.931 . S
H2153 C2168 0.930 . S
C2154 H2142 0.930 . S
C2154 C2155 1.399 . S
C2154 C2159 1.399 . S
C2155 C2154 1.399 . S
C2155 C2156 1.376 . S
C2156 H2143 0.930 . S
C2156 C2155 1.376 . S
C2156 C2157 1.388 . S
C2157 H2144 0.930 . S
C2157 C2156 1.388 . S
C2157 C2158 1.390 . S
C2158 C2157 1.390 . S
C2158 C2159 1.394 . S
C2158 C2164 1.465 . S
C2159 C2154 1.399 . S
C2159 C2158 1.394 . S
C2159 C2160 1.516 . S
C2160 C2159 1.516 . S
C2160 C2161 1.502 . S
C2160 C2162 1.561 . S
C2160 C2163 1.526 . S
C2161 H2145 0.959 . S
C2161 H2146 0.959 . S
C2161 H2147 0.961 . S
C2161 C2160 1.502 . S
C2162 H2148 0.960 . S
C2162 H2149 0.961 . S
C2162 H2150 0.959 . S
C2162 C2160 1.561 . S
C2163 C2160 1.526 . S
C2163 C2164 1.396 . S
C2163 C2168 1.390 . S
C2164 C2158 1.465 . S
C2164 C2163 1.396 . S
C2164 C2165 1.399 . S
C2165 H2151 0.929 . S
C2165 C2164 1.399 . S
C2165 C2166 1.385 . S
C2166 H2152 0.931 . S
C2166 C2165 1.385 . S
C2166 C2167 1.389 . S
C2167 C2166 1.389 . S
C2167 C2168 1.387 . S
C2168 H2153 0.930 . S
C2168 C2163 1.390 . S
C2168 C2167 1.387 . S
H2169 C2181 0.930 . S
H2170 C2183 0.930 . S
H2171 C2184 0.930 . S
H2172 C2188 0.959 . S
H2173 C2188 0.959 . S
H2174 C2188 0.961 . S
H2175 C2189 0.960 . S
H2176 C2189 0.961 . S
H2177 C2189 0.959 . S
H2178 C2192 0.929 . S
H2179 C2193 0.931 . S
H2180 C2195 0.930 . S
C2181 H2169 0.930 . S
C2181 C2182 1.399 . S
C2181 C2186 1.399 . S
C2182 C2181 1.399 . S
C2182 C2183 1.376 . S
C2183 H2170 0.930 . S
C2183 C2182 1.376 . S
C2183 C2184 1.388 . S
C2184 H2171 0.930 . S
C2184 C2183 1.388 . S
C2184 C2185 1.390 . S
C2185 C2184 1.390 . S
C2185 C2186 1.394 . S
C2185 C2191 1.465 . S
C2186 C2181 1.399 . S
C2186 C2185 1.394 . S
C2186 C2187 1.516 . S
C2187 C2186 1.516 . S
C2187 C2188 1.502 . S
C2187 C2189 1.561 . S
C2187 C2190 1.526 . S
C2188 H2172 0.959 . S
C2188 H2173 0.959 . S
C2188 H2174 0.961 . S
C2188 C2187 1.502 . S
C2189 H2175 0.960 . S
C2189 H2176 0.961 . S
C2189 H2177 0.959 . S
C2189 C2187 1.561 . S
C2190 C2187 1.526 . S
C2190 C2191 1.396 . S
C2190 C2195 1.390 . S
C2191 C2185 1.465 . S
C2191 C2190 1.396 . S
C2191 C2192 1.399 . S
C2192 H2178 0.929 . S
C2192 C2191 1.399 . S
C2192 C2193 1.385 . S
C2193 H2179 0.931 . S
C2193 C2192 1.385 . S
C2193 C2194 1.389 . S
C2194 C2193 1.389 . S
C2194 C2195 1.387 . S
C2195 H2180 0.930 . S
C2195 C2190 1.390 . S
C2195 C2194 1.387 . S
H2196 C2208 0.930 1_554 S
H2197 C2210 0.930 . S
H2198 C2211 0.930 . S
H2199 C2215 0.959 . S
H2200 C2215 0.959 . S
H2201 C2215 0.961 1_554 S
H2202 C2216 0.960 1_554 S
H2203 C2216 0.952 1_554 S
H2204 C2216 0.959 . S
H2205 C2219 0.929 . S
H2206 C2220 0.931 . S
H2207 C2222 0.930 . S
C2208 H2196 0.930 1_556 S
C2208 C2209 1.399 . S
C2208 C2213 1.399 . S
C2209 C2208 1.399 . S
C2209 C2210 1.376 . S
C2210 H2197 0.930 . S
C2210 C2209 1.376 . S
C2210 C2211 1.388 . S
C2211 H2198 0.930 . S
C2211 C2210 1.388 . S
C2211 C2212 1.390 . S
C2212 C2211 1.390 . S
C2212 C2213 1.394 . S
C2212 C2218 1.465 . S
C2213 C2208 1.399 . S
C2213 C2212 1.394 . S
C2213 C2214 1.516 . S
C2214 C2213 1.516 . S
C2214 C2215 1.502 . S
C2214 C2216 1.561 . S
C2214 C2217 1.526 . S
C2215 H2199 0.959 . S
C2215 H2200 0.959 . S
C2215 H2201 0.961 1_556 S
C2215 C2214 1.502 . S
C2216 H2202 0.960 1_556 S
C2216 H2203 0.952 1_556 S
C2216 H2204 0.959 . S
C2216 C2214 1.561 . S
C2217 C2214 1.526 . S
C2217 C2218 1.396 . S
C2217 C2222 1.390 . S
C2218 C2212 1.465 . S
C2218 C2217 1.396 . S
C2218 C2219 1.399 . S
C2219 H2205 0.929 . S
C2219 C2218 1.399 . S
C2219 C2220 1.385 . S
C2220 H2206 0.931 . S
C2220 C2219 1.385 . S
C2220 C2221 1.389 . S
C2221 C2220 1.389 . S
C2221 C2222 1.387 . S
C2222 H2207 0.930 . S
C2222 C2217 1.390 . S
C2222 C2221 1.387 . S
H2223 C2235 0.930 . S
H2224 C2237 0.930 1_554 S
H2225 C2238 0.930 . S
H2226 C2242 0.959 . S
H2227 C2242 0.959 . S
H2228 C2242 0.961 . S
H2229 C2243 0.960 . S
H2230 C2243 0.961 . S
H2231 C2243 0.959 . S
H2232 C2246 0.929 . S
H2233 C2247 0.931 . S
H2234 C2249 0.930 . S
C2235 H2223 0.930 . S
C2235 C2236 1.399 . S
C2235 C2240 1.399 . S
C2236 C2235 1.399 . S
C2236 C2237 1.376 . S
C2237 H2224 0.930 1_556 S
C2237 C2236 1.376 . S
C2237 C2238 1.388 . S
C2238 H2225 0.930 . S
C2238 C2237 1.388 . S
C2238 C2239 1.390 . S
C2239 C2238 1.390 . S
C2239 C2240 1.394 . S
C2239 C2245 1.465 . S
C2240 C2235 1.399 . S
C2240 C2239 1.394 . S
C2240 C2241 1.516 . S
C2241 C2240 1.516 . S
C2241 C2242 1.502 . S
C2241 C2243 1.561 . S
C2241 C2244 1.526 . S
C2242 H2226 0.959 . S
C2242 H2227 0.959 . S
C2242 H2228 0.961 . S
C2242 C2241 1.502 . S
C2243 H2229 0.960 . S
C2243 H2230 0.961 . S
C2243 H2231 0.959 . S
C2243 C2241 1.561 . S
C2244 C2241 1.526 . S
C2244 C2245 1.396 . S
C2244 C2249 1.390 . S
C2245 C2239 1.465 . S
C2245 C2244 1.396 . S
C2245 C2246 1.399 . S
C2246 H2232 0.929 . S
C2246 C2245 1.399 . S
C2246 C2247 1.385 . S
C2247 H2233 0.931 . S
C2247 C2246 1.385 . S
C2247 C2248 1.389 . S
C2248 C2247 1.389 . S
C2248 C2249 1.387 . S
C2249 H2234 0.930 . S
C2249 C2244 1.390 . S
C2249 C2248 1.387 . S
H2250 C2262 0.930 . S
H2251 C2264 0.930 . S
H2252 C2265 0.930 . S
H2253 C2269 0.959 . S
H2254 C2269 0.959 . S
H2255 C2269 0.961 . S
H2256 C2270 0.960 . S
H2257 C2270 0.961 . S
H2258 C2270 0.959 . S
H2259 C2273 0.929 . S
H2260 C2274 0.931 . S
H2261 C2276 0.930 . S
C2262 H2250 0.930 . S
C2262 C2263 1.399 . S
C2262 C2267 1.399 . S
C2263 C2262 1.399 . S
C2263 C2264 1.376 . S
C2264 H2251 0.930 . S
C2264 C2263 1.376 . S
C2264 C2265 1.388 . S
C2265 H2252 0.930 . S
C2265 C2264 1.388 . S
C2265 C2266 1.390 . S
C2266 C2265 1.390 . S
C2266 C2267 1.394 . S
C2266 C2272 1.465 . S
C2267 C2262 1.399 . S
C2267 C2266 1.394 . S
C2267 C2268 1.516 . S
C2268 C2267 1.516 . S
C2268 C2269 1.502 . S
C2268 C2270 1.561 . S
C2268 C2271 1.526 . S
C2269 H2253 0.959 . S
C2269 H2254 0.959 . S
C2269 H2255 0.961 . S
C2269 C2268 1.502 . S
C2270 H2256 0.960 . S
C2270 H2257 0.961 . S
C2270 H2258 0.959 . S
C2270 C2268 1.561 . S
C2271 C2268 1.526 . S
C2271 C2272 1.396 . S
C2271 C2276 1.390 . S
C2272 C2266 1.465 . S
C2272 C2271 1.396 . S
C2272 C2273 1.399 . S
C2273 H2259 0.929 . S
C2273 C2272 1.399 . S
C2273 C2274 1.385 . S
C2274 H2260 0.931 . S
C2274 C2273 1.385 . S
C2274 C2275 1.389 . S
C2275 C2274 1.389 . S
C2275 C2276 1.387 . S
C2276 H2261 0.930 . S
C2276 C2271 1.390 . S
C2276 C2275 1.387 . S
H2277 C2289 0.930 . S
H2278 C2291 0.930 1_554 S
H2279 C2292 0.909 1_554 S
H2280 C2296 0.959 . S
H2281 C2296 0.959 . S
H2282 C2296 0.961 . S
H2283 C2297 0.960 . S
H2284 C2297 0.961 . S
H2285 C2297 0.959 . S
H2286 C2300 0.929 . S
H2287 C2301 0.931 . S
H2288 C2303 0.930 . S
C2289 H2277 0.930 . S
C2289 C2290 1.399 . S
C2289 C2294 1.399 . S
C2290 C2289 1.399 . S
C2290 C2291 1.376 . S
C2291 H2278 0.930 1_556 S
C2291 C2290 1.376 . S
C2291 C2292 1.388 . S
C2292 H2279 0.909 1_556 S
C2292 C2291 1.388 . S
C2292 C2293 1.390 . S
C2293 C2292 1.390 . S
C2293 C2294 1.394 . S
C2293 C2299 1.465 . S
C2294 C2289 1.399 . S
C2294 C2293 1.394 . S
C2294 C2295 1.516 . S
C2295 C2294 1.516 . S
C2295 C2296 1.502 . S
C2295 C2297 1.561 . S
C2295 C2298 1.526 . S
C2296 H2280 0.959 . S
C2296 H2281 0.959 . S
C2296 H2282 0.961 . S
C2296 C2295 1.502 . S
C2297 H2283 0.960 . S
C2297 H2284 0.961 . S
C2297 H2285 0.959 . S
C2297 C2295 1.561 . S
C2298 C2295 1.526 . S
C2298 C2299 1.396 . S
C2298 C2303 1.390 . S
C2299 C2293 1.465 . S
C2299 C2298 1.396 . S
C2299 C2300 1.399 . S
C2300 H2286 0.929 . S
C2300 C2299 1.399 . S
C2300 C2301 1.385 . S
C2301 H2287 0.931 . S
C2301 C2300 1.385 . S
C2301 C2302 1.389 . S
C2302 C2301 1.389 . S
C2302 C2303 1.387 . S
C2303 H2288 0.930 . S
C2303 C2298 1.390 . S
C2303 C2302 1.387 . S
H2304 C2316 0.930 . S
H2305 C2318 0.930 . S
H2306 C2319 0.930 . S
H2307 C2323 0.959 . S
H2308 C2323 0.959 . S
H2309 C2323 0.961 . S
H2310 C2324 0.960 . S
H2311 C2324 0.961 . S
H2312 C2324 0.959 . S
H2313 C2327 0.929 . S
H2314 C2328 0.931 . S
H2315 C2330 0.930 . S
C2316 H2304 0.930 . S
C2316 C2317 1.399 . S
C2316 C2321 1.399 . S
C2317 C2316 1.399 . S
C2317 C2318 1.376 . S
C2318 H2305 0.930 . S
C2318 C2317 1.376 . S
C2318 C2319 1.388 . S
C2319 H2306 0.930 . S
C2319 C2318 1.388 . S
C2319 C2320 1.390 . S
C2320 C2319 1.390 . S
C2320 C2321 1.394 . S
C2320 C2326 1.465 . S
C2321 C2316 1.399 . S
C2321 C2320 1.394 . S
C2321 C2322 1.516 . S
C2322 C2321 1.516 . S
C2322 C2323 1.502 . S
C2322 C2324 1.561 . S
C2322 C2325 1.526 . S
C2323 H2307 0.959 . S
C2323 H2308 0.959 . S
C2323 H2309 0.961 . S
C2323 C2322 1.502 . S
C2324 H2310 0.960 . S
C2324 H2311 0.961 . S
C2324 H2312 0.959 . S
C2324 C2322 1.561 . S
C2325 C2322 1.526 . S
C2325 C2326 1.396 . S
C2325 C2330 1.390 . S
C2326 C2320 1.465 . S
C2326 C2325 1.396 . S
C2326 C2327 1.399 . S
C2327 H2313 0.929 . S
C2327 C2326 1.399 . S
C2327 C2328 1.385 . S
C2328 H2314 0.931 . S
C2328 C2327 1.385 . S
C2328 C2329 1.389 . S
C2329 C2328 1.389 . S
C2329 C2330 1.387 . S
C2330 H2315 0.930 . S
C2330 C2325 1.390 . S
C2330 C2329 1.387 . S
H2331 C2343 0.930 . S
H2332 C2345 0.930 . S
H2333 C2346 0.930 . S
H2334 C2350 0.959 . S
H2335 C2350 0.959 . S
H2336 C2350 0.961 . S
H2337 C2351 0.960 . S
H2338 C2351 0.961 . S
H2339 C2351 0.959 . S
H2340 C2354 0.929 . S
H2341 C2355 0.931 . S
H2342 C2357 0.930 . S
C2343 H2331 0.930 . S
C2343 C2344 1.399 . S
C2343 C2348 1.399 . S
C2344 C2343 1.399 . S
C2344 C2345 1.376 . S
C2345 H2332 0.930 . S
C2345 C2344 1.376 . S
C2345 C2346 1.388 . S
C2346 H2333 0.930 . S
C2346 C2345 1.388 . S
C2346 C2347 1.390 . S
C2347 C2346 1.390 . S
C2347 C2348 1.394 . S
C2347 C2353 1.465 . S
C2348 C2343 1.399 . S
C2348 C2347 1.394 . S
C2348 C2349 1.516 . S
C2349 C2348 1.516 . S
C2349 C2350 1.502 . S
C2349 C2351 1.561 . S
C2349 C2352 1.526 . S
C2350 H2334 0.959 . S
C2350 H2335 0.959 . S
C2350 H2336 0.961 . S
C2350 C2349 1.502 . S
C2351 H2337 0.960 . S
C2351 H2338 0.961 . S
C2351 H2339 0.959 . S
C2351 C2349 1.561 . S
C2352 C2349 1.526 . S
C2352 C2353 1.396 . S
C2352 C2357 1.390 . S
C2353 C2347 1.465 . S
C2353 C2352 1.396 . S
C2353 C2354 1.399 . S
C2354 H2340 0.929 . S
C2354 C2353 1.399 . S
C2354 C2355 1.385 . S
C2355 H2341 0.931 . S
C2355 C2354 1.385 . S
C2355 C2356 1.389 . S
C2356 C2355 1.389 . S
C2356 C2357 1.387 . S
C2357 H2342 0.930 . S
C2357 C2352 1.390 . S
C2357 C2356 1.387 . S
H2358 C2370 0.930 . S
H2359 C2372 0.930 . S
H2360 C2373 0.930 . S
H2361 C2377 0.959 . S
H2362 C2377 0.959 . S
H2363 C2377 0.961 . S
H2364 C2378 0.960 . S
H2365 C2378 0.961 . S
H2366 C2378 0.959 . S
H2367 C2381 0.929 . S
H2368 C2382 0.931 . S
H2369 C2384 0.930 . S
C2370 H2358 0.930 . S
C2370 C2371 1.399 . S
C2370 C2375 1.399 . S
C2371 C2370 1.399 . S
C2371 C2372 1.376 . S
C2372 H2359 0.930 . S
C2372 C2371 1.376 . S
C2372 C2373 1.388 . S
C2373 H2360 0.930 . S
C2373 C2372 1.388 . S
C2373 C2374 1.390 . S
C2374 C2373 1.390 . S
C2374 C2375 1.394 . S
C2374 C2380 1.465 . S
C2375 C2370 1.399 . S
C2375 C2374 1.394 . S
C2375 C2376 1.516 . S
C2376 C2375 1.516 . S
C2376 C2377 1.502 . S
C2376 C2378 1.561 . S
C2376 C2379 1.526 . S
C2377 H2361 0.959 . S
C2377 H2362 0.959 . S
C2377 H2363 0.961 . S
C2377 C2376 1.502 . S
C2378 H2364 0.960 . S
C2378 H2365 0.961 . S
C2378 H2366 0.959 . S
C2378 C2376 1.561 . S
C2379 C2376 1.526 . S
C2379 C2380 1.396 . S
C2379 C2384 1.390 . S
C2380 C2374 1.465 . S
C2380 C2379 1.396 . S
C2380 C2381 1.399 . S
C2381 H2367 0.929 . S
C2381 C2380 1.399 . S
C2381 C2382 1.385 . S
C2382 H2368 0.931 . S
C2382 C2381 1.385 . S
C2382 C2383 1.389 . S
C2383 C2382 1.389 . S
C2383 C2384 1.387 . S
C2384 H2369 0.930 . S
C2384 C2379 1.390 . S
C2384 C2383 1.387 . S
H2385 C2397 0.930 . S
H2386 C2399 0.930 . S
H2387 C2400 0.930 . S
H2388 C2404 0.959 . S
H2389 C2404 0.959 . S
H2390 C2404 0.961 . S
H2391 C2405 0.960 . S
H2392 C2405 0.961 . S
H2393 C2405 0.959 . S
H2394 C2408 0.929 . S
H2395 C2409 0.931 . S
H2396 C2411 0.930 . S
C2397 H2385 0.930 . S
C2397 C2398 1.399 . S
C2397 C2402 1.399 . S
C2398 C2397 1.399 . S
C2398 C2399 1.376 . S
C2399 H2386 0.930 . S
C2399 C2398 1.376 . S
C2399 C2400 1.388 . S
C2400 H2387 0.930 . S
C2400 C2399 1.388 . S
C2400 C2401 1.390 . S
C2401 C2400 1.390 . S
C2401 C2402 1.394 . S
C2401 C2407 1.465 . S
C2402 C2397 1.399 . S
C2402 C2401 1.394 . S
C2402 C2403 1.516 . S
C2403 C2402 1.516 . S
C2403 C2404 1.502 . S
C2403 C2405 1.561 . S
C2403 C2406 1.526 . S
C2404 H2388 0.959 . S
C2404 H2389 0.959 . S
C2404 H2390 0.961 . S
C2404 C2403 1.502 . S
C2405 H2391 0.960 . S
C2405 H2392 0.961 . S
C2405 H2393 0.959 . S
C2405 C2403 1.561 . S
C2406 C2403 1.526 . S
C2406 C2407 1.396 . S
C2406 C2411 1.390 . S
C2407 C2401 1.465 . S
C2407 C2406 1.396 . S
C2407 C2408 1.399 . S
C2408 H2394 0.929 . S
C2408 C2407 1.399 . S
C2408 C2409 1.385 . S
C2409 H2395 0.931 . S
C2409 C2408 1.385 . S
C2409 C2410 1.389 . S
C2410 C2409 1.389 . S
C2410 C2411 1.387 . S
C2411 H2396 0.930 . S
C2411 C2406 1.390 . S
C2411 C2410 1.387 . S
H2412 C2424 0.930 . S
H2413 C2426 0.930 . S
H2414 C2427 0.930 . S
H2415 C2431 0.959 . S
H2416 C2431 0.959 . S
H2417 C2431 0.961 . S
H2418 C2432 0.960 . S
H2419 C2432 0.961 . S
H2420 C2432 0.959 . S
H2421 C2435 0.929 . S
H2422 C2436 0.931 . S
H2423 C2438 0.930 . S
C2424 H2412 0.930 . S
C2424 C2425 1.399 . S
C2424 C2429 1.399 . S
C2425 C2424 1.399 . S
C2425 C2426 1.376 . S
C2426 H2413 0.930 . S
C2426 C2425 1.376 . S
C2426 C2427 1.388 . S
C2427 H2414 0.930 . S
C2427 C2426 1.388 . S
C2427 C2428 1.390 . S
C2428 C2427 1.390 . S
C2428 C2429 1.394 . S
C2428 C2434 1.465 . S
C2429 C2424 1.399 . S
C2429 C2428 1.394 . S
C2429 C2430 1.516 . S
C2430 C2429 1.516 . S
C2430 C2431 1.502 . S
C2430 C2432 1.561 . S
C2430 C2433 1.526 . S
C2431 H2415 0.959 . S
C2431 H2416 0.959 . S
C2431 H2417 0.961 . S
C2431 C2430 1.502 . S
C2432 H2418 0.960 . S
C2432 H2419 0.961 . S
C2432 H2420 0.959 . S
C2432 C2430 1.561 . S
C2433 C2430 1.526 . S
C2433 C2434 1.396 . S
C2433 C2438 1.390 . S
C2434 C2428 1.465 . S
C2434 C2433 1.396 . S
C2434 C2435 1.399 . S
C2435 H2421 0.929 . S
C2435 C2434 1.399 . S
C2435 C2436 1.385 . S
C2436 H2422 0.931 . S
C2436 C2435 1.385 . S
C2436 C2437 1.389 . S
C2437 C2436 1.389 . S
C2437 C2438 1.387 . S
C2438 H2423 0.930 . S
C2438 C2433 1.390 . S
C2438 C2437 1.387 . S
H2439 C2451 0.930 . S
H2440 C2453 0.930 . S
H2441 C2454 0.930 . S
H2442 C2458 0.959 . S
H2443 C2458 0.959 . S
H2444 C2458 0.961 . S
H2445 C2459 0.960 . S
H2446 C2459 0.961 . S
H2447 C2459 0.959 . S
H2448 C2462 0.929 . S
H2449 C2463 0.931 . S
H2450 C2465 0.930 . S
C2451 H2439 0.930 . S
C2451 C2452 1.399 . S
C2451 C2456 1.399 . S
C2452 C2451 1.399 . S
C2452 C2453 1.376 . S
C2453 H2440 0.930 . S
C2453 C2452 1.376 . S
C2453 C2454 1.388 . S
C2454 H2441 0.930 . S
C2454 C2453 1.388 . S
C2454 C2455 1.390 . S
C2455 C2454 1.390 . S
C2455 C2456 1.394 . S
C2455 C2461 1.465 . S
C2456 C2451 1.399 . S
C2456 C2455 1.394 . S
C2456 C2457 1.516 . S
C2457 C2456 1.516 . S
C2457 C2458 1.502 . S
C2457 C2459 1.561 . S
C2457 C2460 1.526 . S
C2458 H2442 0.959 . S
C2458 H2443 0.959 . S
C2458 H2444 0.961 . S
C2458 C2457 1.502 . S
C2459 H2445 0.960 . S
C2459 H2446 0.961 . S
C2459 H2447 0.959 . S
C2459 C2457 1.561 . S
C2460 C2457 1.526 . S
C2460 C2461 1.396 . S
C2460 C2465 1.390 . S
C2461 C2455 1.465 . S
C2461 C2460 1.396 . S
C2461 C2462 1.399 . S
C2462 H2448 0.929 . S
C2462 C2461 1.399 . S
C2462 C2463 1.385 . S
C2463 H2449 0.931 . S
C2463 C2462 1.385 . S
C2463 C2464 1.389 . S
C2464 C2463 1.389 . S
C2464 C2465 1.387 . S
C2465 H2450 0.930 . S
C2465 C2460 1.390 . S
C2465 C2464 1.387 . S
H2466 C2478 0.930 . S
H2467 C2480 0.930 . S
H2468 C2481 0.930 . S
H2469 C2485 0.959 . S
H2470 C2485 0.959 . S
H2471 C2485 0.961 . S
H2472 C2486 0.960 . S
H2473 C2486 0.961 . S
H2474 C2486 0.959 . S
H2475 C2489 0.929 . S
H2476 C2490 0.931 . S
H2477 C2492 0.930 . S
C2478 H2466 0.930 . S
C2478 C2479 1.399 . S
C2478 C2483 1.399 . S
C2479 C2478 1.399 . S
C2479 C2480 1.376 . S
C2480 H2467 0.930 . S
C2480 C2479 1.376 . S
C2480 C2481 1.388 . S
C2481 H2468 0.930 . S
C2481 C2480 1.388 . S
C2481 C2482 1.390 . S
C2482 C2481 1.390 . S
C2482 C2483 1.394 . S
C2482 C2488 1.465 . S
C2483 C2478 1.399 . S
C2483 C2482 1.394 . S
C2483 C2484 1.516 . S
C2484 C2483 1.516 . S
C2484 C2485 1.502 . S
C2484 C2486 1.561 . S
C2484 C2487 1.526 . S
C2485 H2469 0.959 . S
C2485 H2470 0.959 . S
C2485 H2471 0.961 . S
C2485 C2484 1.502 . S
C2486 H2472 0.960 . S
C2486 H2473 0.961 . S
C2486 H2474 0.959 . S
C2486 C2484 1.561 . S
C2487 C2484 1.526 . S
C2487 C2488 1.396 . S
C2487 C2492 1.390 . S
C2488 C2482 1.465 . S
C2488 C2487 1.396 . S
C2488 C2489 1.399 . S
C2489 H2475 0.929 . S
C2489 C2488 1.399 . S
C2489 C2490 1.385 . S
C2490 H2476 0.931 . S
C2490 C2489 1.385 . S
C2490 C2491 1.389 . S
C2491 C2490 1.389 . S
C2491 C2492 1.387 . S
C2492 H2477 0.930 . S
C2492 C2487 1.390 . S
C2492 C2491 1.387 . S
H2493 C2505 0.930 . S
H2494 C2507 0.930 . S
H2495 C2508 0.930 . S
H2496 C2512 0.959 . S
H2497 C2512 0.959 . S
H2498 C2512 0.961 . S
H2499 C2513 0.960 . S
H2500 C2513 0.961 . S
H2501 C2513 0.959 . S
H2502 C2516 0.929 . S
H2503 C2517 0.931 . S
H2504 C2519 0.930 . S
C2505 H2493 0.930 . S
C2505 C2506 1.399 . S
C2505 C2510 1.399 . S
C2506 C2505 1.399 . S
C2506 C2507 1.376 . S
C2507 H2494 0.930 . S
C2507 C2506 1.376 . S
C2507 C2508 1.388 . S
C2508 H2495 0.930 . S
C2508 C2507 1.388 . S
C2508 C2509 1.390 . S
C2509 C2508 1.390 . S
C2509 C2510 1.394 . S
C2509 C2515 1.465 . S
C2510 C2505 1.399 . S
C2510 C2509 1.394 . S
C2510 C2511 1.516 . S
C2511 C2510 1.516 . S
C2511 C2512 1.502 1_455 S
C2511 C2513 1.561 . S
C2511 C2514 1.526 . S
C2512 H2496 0.959 . S
C2512 H2497 0.959 . S
C2512 H2498 0.961 . S
C2512 C2511 1.502 1_655 S
C2513 H2499 0.960 . S
C2513 H2500 0.961 . S
C2513 H2501 0.959 . S
C2513 C2511 1.561 . S
C2514 C2511 1.526 . S
C2514 C2515 1.396 . S
C2514 C2519 1.390 . S
C2515 C2509 1.465 . S
C2515 C2514 1.396 . S
C2515 C2516 1.399 . S
C2516 H2502 0.929 . S
C2516 C2515 1.399 . S
C2516 C2517 1.385 . S
C2517 H2503 0.931 . S
C2517 C2516 1.385 . S
C2517 C2518 1.389 . S
C2518 C2517 1.389 . S
C2518 C2519 1.387 . S
C2519 H2504 0.930 . S
C2519 C2514 1.390 . S
C2519 C2518 1.387 . S
H2520 C2532 0.930 . S
H2521 C2534 0.930 . S
H2522 C2535 0.930 . S
H2523 C2539 0.959 . S
H2524 C2539 0.959 . S
H2525 C2539 0.961 . S
H2526 C2540 0.960 . S
H2527 C2540 0.961 . S
H2528 C2540 0.959 . S
H2529 C2543 0.929 . S
H2530 C2544 0.931 . S
H2531 C2546 0.930 . S
C2532 H2520 0.930 . S
C2532 C2533 1.399 . S
C2532 C2537 1.399 . S
C2533 C2532 1.399 . S
C2533 C2534 1.376 . S
C2534 H2521 0.930 . S
C2534 C2533 1.376 . S
C2534 C2535 1.388 . S
C2535 H2522 0.930 . S
C2535 C2534 1.388 . S
C2535 C2536 1.390 . S
C2536 C2535 1.390 . S
C2536 C2537 1.394 . S
C2536 C2542 1.465 . S
C2537 C2532 1.399 . S
C2537 C2536 1.394 . S
C2537 C2538 1.516 . S
C2538 C2537 1.516 . S
C2538 C2539 1.502 . S
C2538 C2540 1.561 . S
C2538 C2541 1.526 . S
C2539 H2523 0.959 . S
C2539 H2524 0.959 . S
C2539 H2525 0.961 . S
C2539 C2538 1.502 . S
C2540 H2526 0.960 . S
C2540 H2527 0.961 . S
C2540 H2528 0.959 . S
C2540 C2538 1.561 . S
C2541 C2538 1.526 . S
C2541 C2542 1.396 . S
C2541 C2546 1.390 . S
C2542 C2536 1.465 . S
C2542 C2541 1.396 . S
C2542 C2543 1.399 . S
C2543 H2529 0.929 . S
C2543 C2542 1.399 . S
C2543 C2544 1.385 . S
C2544 H2530 0.931 . S
C2544 C2543 1.385 . S
C2544 C2545 1.389 . S
C2545 C2544 1.389 . S
C2545 C2546 1.387 . S
C2546 H2531 0.930 . S
C2546 C2541 1.390 . S
C2546 C2545 1.387 . S
H2547 C2559 0.930 . S
H2548 C2561 0.930 . S
H2549 C2562 0.930 . S
H2550 C2566 0.959 . S
H2551 C2566 0.959 . S
H2552 C2566 0.961 . S
H2553 C2567 0.960 . S
H2554 C2567 0.961 . S
H2555 C2567 0.959 . S
H2556 C2570 0.929 . S
H2557 C2571 0.931 . S
H2558 C2573 0.930 . S
C2559 H2547 0.930 . S
C2559 C2560 1.399 1_545 S
C2559 C2564 1.399 . S
C2560 C2559 1.399 1_565 S
C2560 C2561 1.376 . S
C2561 H2548 0.930 . S
C2561 C2560 1.376 . S
C2561 C2562 1.388 . S
C2562 H2549 0.930 . S
C2562 C2561 1.388 . S
C2562 C2563 1.390 . S
C2563 C2562 1.390 . S
C2563 C2564 1.394 1_565 S
C2563 C2569 1.465 . S
C2564 C2559 1.399 . S
C2564 C2563 1.394 1_545 S
C2564 C2565 1.516 . S
C2565 C2564 1.516 . S
C2565 C2566 1.502 . S
C2565 C2567 1.561 . S
C2565 C2568 1.526 . S
C2566 H2550 0.959 . S
C2566 H2551 0.959 . S
C2566 H2552 0.961 . S
C2566 C2565 1.502 . S
C2567 H2553 0.960 . S
C2567 H2554 0.961 . S
C2567 H2555 0.959 . S
C2567 C2565 1.561 . S
C2568 C2565 1.526 . S
C2568 C2569 1.396 1_545 S
C2568 C2573 1.390 . S
C2569 C2563 1.465 . S
C2569 C2568 1.396 1_565 S
C2569 C2570 1.399 . S
C2570 H2556 0.929 . S
C2570 C2569 1.399 . S
C2570 C2571 1.385 . S
C2571 H2557 0.931 . S
C2571 C2570 1.385 . S
C2571 C2572 1.389 . S
C2572 C2571 1.389 . S
C2572 C2573 1.387 1_565 S
C2573 H2558 0.930 . S
C2573 C2568 1.390 . S
C2573 C2572 1.387 1_545 S
H2574 C2586 0.930 . S
H2575 C2588 0.930 . S
H2576 C2589 0.930 . S
H2577 C2593 0.959 . S
H2578 C2593 0.959 . S
H2579 C2593 0.961 . S
H2580 C2594 0.960 . S
H2581 C2594 0.961 . S
H2582 C2594 0.959 . S
H2583 C2597 0.929 . S
H2584 C2598 0.931 . S
H2585 C2600 0.930 . S
C2586 H2574 0.930 . S
C2586 C2587 1.399 . S
C2586 C2591 1.399 . S
C2587 C2586 1.399 . S
C2587 C2588 1.376 1_565 S
C2588 H2575 0.930 . S
C2588 C2587 1.376 1_545 S
C2588 C2589 1.388 . S
C2589 H2576 0.930 . S
C2589 C2588 1.388 . S
C2589 C2590 1.390 1_545 S
C2590 C2589 1.390 1_565 S
C2590 C2591 1.394 . S
C2590 C2596 1.467 1_565 S
C2591 C2586 1.399 . S
C2591 C2590 1.394 . S
C2591 C2592 1.516 . S
C2592 C2591 1.516 . S
C2592 C2593 1.502 . S
C2592 C2594 1.561 . S
C2592 C2595 1.526 . S
C2593 H2577 0.959 . S
C2593 H2578 0.959 . S
C2593 H2579 0.961 . S
C2593 C2592 1.502 . S
C2594 H2580 0.960 . S
C2594 H2581 0.961 . S
C2594 H2582 0.959 . S
C2594 C2592 1.561 . S
C2595 C2592 1.526 . S
C2595 C2596 1.398 1_565 S
C2595 C2600 1.390 . S
C2596 C2590 1.467 1_545 S
C2596 C2595 1.398 1_545 S
C2596 C2597 1.396 . S
C2597 H2583 0.929 . S
C2597 C2596 1.396 . S
C2597 C2598 1.385 . S
C2598 H2584 0.931 . S
C2598 C2597 1.385 . S
C2598 C2599 1.389 1_545 S
C2599 C2598 1.389 1_565 S
C2599 C2600 1.387 . S
C2600 H2585 0.930 . S
C2600 C2595 1.390 . S
C2600 C2599 1.387 . S
H2601 C2613 0.930 . S
H2602 C2615 0.926 1_655 S
H2603 C2616 0.930 . S
H2604 C2620 0.959 . S
H2605 C2620 0.959 . S
H2606 C2620 0.961 . S
H2607 C2621 0.959 . S
H2608 C2621 0.969 . S
H2609 C2621 0.948 1_655 S
H2610 C2624 0.929 . S
H2611 C2625 0.931 . S
H2612 C2627 0.930 . S
C2613 H2601 0.930 . S
C2613 C2614 1.399 . S
C2613 C2618 1.399 . S
C2614 C2613 1.399 . S
C2614 C2615 1.380 . S
C2615 H2602 0.926 1_455 S
C2615 C2614 1.380 . S
C2615 C2616 1.390 1_455 S
C2616 H2603 0.930 . S
C2616 C2615 1.390 1_655 S
C2616 C2617 1.390 1_655 S
C2617 C2616 1.390 1_455 S
C2617 C2618 1.394 . S
C2617 C2623 1.443 . S
C2618 C2613 1.399 . S
C2618 C2617 1.394 . S
C2618 C2619 1.516 . S
C2619 C2618 1.516 . S
C2619 C2620 1.502 . S
C2619 C2621 1.566 . S
C2619 C2622 1.526 . S
C2620 H2604 0.959 . S
C2620 H2605 0.959 . S
C2620 H2606 0.961 . S
C2620 C2619 1.502 . S
C2621 H2607 0.959 . S
C2621 H2608 0.969 . S
C2621 H2609 0.948 1_455 S
C2621 C2619 1.566 . S
C2622 C2619 1.526 . S
C2622 C2623 1.437 . S
C2622 C2627 1.390 . S
C2623 C2617 1.443 . S
C2623 C2622 1.437 . S
C2623 C2624 1.388 1_455 S
C2624 H2610 0.929 . S
C2624 C2623 1.388 1_655 S
C2624 C2625 1.385 . S
C2625 H2611 0.931 . S
C2625 C2624 1.385 . S
C2625 C2626 1.389 1_655 S
C2626 C2625 1.389 1_455 S
C2626 C2627 1.387 . S
C2627 H2612 0.930 . S
C2627 C2622 1.390 . S
C2627 C2626 1.387 . S
H2628 C2640 0.930 . S
H2629 C2642 0.930 . S
H2630 C2643 0.930 . S
H2631 C2647 0.959 . S
H2632 C2647 0.959 . S
H2633 C2647 0.961 . S
H2634 C2648 0.960 . S
H2635 C2648 0.961 . S
H2636 C2648 0.959 . S
H2637 C2651 0.929 . S
H2638 C2652 0.931 . S
H2639 C2654 0.930 . S
C2640 H2628 0.930 . S
C2640 C2641 1.399 . S
C2640 C2645 1.399 . S
C2641 C2640 1.399 . S
C2641 C2642 1.376 . S
C2642 H2629 0.930 . S
C2642 C2641 1.376 . S
C2642 C2643 1.388 . S
C2643 H2630 0.930 . S
C2643 C2642 1.388 . S
C2643 C2644 1.390 . S
C2644 C2643 1.390 . S
C2644 C2645 1.394 . S
C2644 C2650 1.465 . S
C2645 C2640 1.399 . S
C2645 C2644 1.394 . S
C2645 C2646 1.516 . S
C2646 C2645 1.516 . S
C2646 C2647 1.502 . S
C2646 C2648 1.561 . S
C2646 C2649 1.526 . S
C2647 H2631 0.959 . S
C2647 H2632 0.959 . S
C2647 H2633 0.961 . S
C2647 C2646 1.502 . S
C2648 H2634 0.960 . S
C2648 H2635 0.961 . S
C2648 H2636 0.959 . S
C2648 C2646 1.561 . S
C2649 C2646 1.526 . S
C2649 C2650 1.396 . S
C2649 C2654 1.390 . S
C2650 C2644 1.465 . S
C2650 C2649 1.396 . S
C2650 C2651 1.399 . S
C2651 H2637 0.929 . S
C2651 C2650 1.399 . S
C2651 C2652 1.385 . S
C2652 H2638 0.931 . S
C2652 C2651 1.385 . S
C2652 C2653 1.389 . S
C2653 C2652 1.389 . S
C2653 C2654 1.387 . S
C2654 H2639 0.930 . S
C2654 C2649 1.390 . S
C2654 C2653 1.387 . S
H2655 C2667 0.930 . S
H2656 C2669 0.930 . S
H2657 C2670 0.930 . S
H2658 C2674 0.959 . S
H2659 C2674 0.959 . S
H2660 C2674 0.961 . S
H2661 C2675 0.960 . S
H2662 C2675 0.961 . S
H2663 C2675 0.959 . S
H2664 C2678 0.929 . S
H2665 C2679 0.931 . S
H2666 C2681 0.930 . S
C2667 H2655 0.930 . S
C2667 C2668 1.399 . S
C2667 C2672 1.399 . S
C2668 C2667 1.399 . S
C2668 C2669 1.376 . S
C2669 H2656 0.930 . S
C2669 C2668 1.376 . S
C2669 C2670 1.388 . S
C2670 H2657 0.930 . S
C2670 C2669 1.388 . S
C2670 C2671 1.390 . S
C2671 C2670 1.390 . S
C2671 C2672 1.394 . S
C2671 C2677 1.465 . S
C2672 C2667 1.399 . S
C2672 C2671 1.394 . S
C2672 C2673 1.516 . S
C2673 C2672 1.516 . S
C2673 C2674 1.502 . S
C2673 C2675 1.561 . S
C2673 C2676 1.526 . S
C2674 H2658 0.959 . S
C2674 H2659 0.959 . S
C2674 H2660 0.961 . S
C2674 C2673 1.502 . S
C2675 H2661 0.960 . S
C2675 H2662 0.961 . S
C2675 H2663 0.959 . S
C2675 C2673 1.561 . S
C2676 C2673 1.526 . S
C2676 C2677 1.396 . S
C2676 C2681 1.390 . S
C2677 C2671 1.465 . S
C2677 C2676 1.396 . S
C2677 C2678 1.399 . S
C2678 H2664 0.929 . S
C2678 C2677 1.399 . S
C2678 C2679 1.385 . S
C2679 H2665 0.931 . S
C2679 C2678 1.385 . S
C2679 C2680 1.389 . S
C2680 C2679 1.389 . S
C2680 C2681 1.387 . S
C2681 H2666 0.930 . S
C2681 C2676 1.390 . S
C2681 C2680 1.387 . S
H2682 C2694 0.930 . S
H2683 C2696 0.930 . S
H2684 C2697 0.930 . S
H2685 C2701 0.959 . S
H2686 C2701 0.959 . S
H2687 C2701 0.961 . S
H2688 C2702 0.960 . S
H2689 C2702 0.961 . S
H2690 C2702 0.959 . S
H2691 C2705 0.929 . S
H2692 C2706 0.931 . S
H2693 C2708 0.930 . S
C2694 H2682 0.930 . S
C2694 C2695 1.399 . S
C2694 C2699 1.399 . S
C2695 C2694 1.399 . S
C2695 C2696 1.376 . S
C2696 H2683 0.930 . S
C2696 C2695 1.376 . S
C2696 C2697 1.388 . S
C2697 H2684 0.930 . S
C2697 C2696 1.388 . S
C2697 C2698 1.390 . S
C2698 C2697 1.390 . S
C2698 C2699 1.394 . S
C2698 C2704 1.465 . S
C2699 C2694 1.399 . S
C2699 C2698 1.394 . S
C2699 C2700 1.516 . S
C2700 C2699 1.516 . S
C2700 C2701 1.502 . S
C2700 C2702 1.561 . S
C2700 C2703 1.526 . S
C2701 H2685 0.959 . S
C2701 H2686 0.959 . S
C2701 H2687 0.961 . S
C2701 C2700 1.502 . S
C2702 H2688 0.960 . S
C2702 H2689 0.961 . S
C2702 H2690 0.959 . S
C2702 C2700 1.561 . S
C2703 C2700 1.526 . S
C2703 C2704 1.396 . S
C2703 C2708 1.390 . S
C2704 C2698 1.465 . S
C2704 C2703 1.396 . S
C2704 C2705 1.399 . S
C2705 H2691 0.929 . S
C2705 C2704 1.399 . S
C2705 C2706 1.385 . S
C2706 H2692 0.931 . S
C2706 C2705 1.385 . S
C2706 C2707 1.389 . S
C2707 C2706 1.389 . S
C2707 C2708 1.387 . S
C2708 H2693 0.930 . S
C2708 C2703 1.390 . S
C2708 C2707 1.387 . S
H2709 C2721 0.930 . S
H2710 C2723 0.930 . S
H2711 C2724 0.930 . S
H2712 C2728 0.959 . S
H2713 C2728 0.959 . S
H2714 C2728 0.961 . S
H2715 C2729 0.960 . S
H2716 C2729 0.961 . S
H2717 C2729 0.959 . S
H2718 C2732 0.929 . S
H2719 C2733 0.931 . S
H2720 C2735 0.930 . S
C2721 H2709 0.930 . S
C2721 C2722 1.399 . S
C2721 C2726 1.399 . S
C2722 C2721 1.399 . S
C2722 C2723 1.376 . S
C2723 H2710 0.930 . S
C2723 C2722 1.376 . S
C2723 C2724 1.388 . S
C2724 H2711 0.930 . S
C2724 C2723 1.388 . S
C2724 C2725 1.390 . S
C2725 C2724 1.390 . S
C2725 C2726 1.394 . S
C2725 C2731 1.465 . S
C2726 C2721 1.399 . S
C2726 C2725 1.394 . S
C2726 C2727 1.516 . S
C2727 C2726 1.516 . S
C2727 C2728 1.502 . S
C2727 C2729 1.561 . S
C2727 C2730 1.526 . S
C2728 H2712 0.959 . S
C2728 H2713 0.959 . S
C2728 H2714 0.961 . S
C2728 C2727 1.502 . S
C2729 H2715 0.960 . S
C2729 H2716 0.961 . S
C2729 H2717 0.959 . S
C2729 C2727 1.561 . S
C2730 C2727 1.526 . S
C2730 C2731 1.396 . S
C2730 C2735 1.390 . S
C2731 C2725 1.465 . S
C2731 C2730 1.396 . S
C2731 C2732 1.399 . S
C2732 H2718 0.929 . S
C2732 C2731 1.399 . S
C2732 C2733 1.385 . S
C2733 H2719 0.931 . S
C2733 C2732 1.385 . S
C2733 C2734 1.389 . S
C2734 C2733 1.389 . S
C2734 C2735 1.387 . S
C2735 H2720 0.930 . S
C2735 C2730 1.390 . S
C2735 C2734 1.387 . S
H2736 C2748 0.930 . S
H2737 C2750 0.930 . S
H2738 C2751 0.930 . S
H2739 C2755 0.959 . S
H2740 C2755 0.959 . S
H2741 C2755 0.961 . S
H2742 C2756 0.960 . S
H2743 C2756 0.961 . S
H2744 C2756 0.959 . S
H2745 C2759 0.929 . S
H2746 C2760 0.931 . S
H2747 C2762 0.930 . S
C2748 H2736 0.930 . S
C2748 C2749 1.399 1_565 S
C2748 C2753 1.377 . S
C2749 C2748 1.399 1_545 S
C2749 C2750 1.376 . S
C2750 H2737 0.930 . S
C2750 C2749 1.376 . S
C2750 C2751 1.388 . S
C2751 H2738 0.930 . S
C2751 C2750 1.388 . S
C2751 C2752 1.390 . S
C2752 C2751 1.390 . S
C2752 C2753 1.358 1_545 S
C2752 C2758 1.465 . S
C2753 C2748 1.377 . S
C2753 C2752 1.358 1_565 S
C2753 C2754 1.575 . S
C2754 C2753 1.575 . S
C2754 C2755 1.502 . S
C2754 C2756 1.561 . S
C2754 C2757 1.526 . S
C2755 H2739 0.959 . S
C2755 H2740 0.959 . S
C2755 H2741 0.961 . S
C2755 C2754 1.502 . S
C2756 H2742 0.960 . S
C2756 H2743 0.961 . S
C2756 H2744 0.959 . S
C2756 C2754 1.561 . S
C2757 C2754 1.526 . S
C2757 C2758 1.396 1_565 S
C2757 C2762 1.390 . S
C2758 C2752 1.465 . S
C2758 C2757 1.396 1_545 S
C2758 C2759 1.399 . S
C2759 H2745 0.929 . S
C2759 C2758 1.399 . S
C2759 C2760 1.385 . S
C2760 H2746 0.931 . S
C2760 C2759 1.385 . S
C2760 C2761 1.389 . S
C2761 C2760 1.389 . S
C2761 C2762 1.387 1_545 S
C2762 H2747 0.930 . S
C2762 C2757 1.390 . S
C2762 C2761 1.387 1_565 S
H2763 C2775 0.909 1_455 S
H2764 C2777 0.930 . S
H2765 C2778 0.930 . S
H2766 C2782 0.959 . S
H2767 C2782 0.959 . S
H2768 C2782 0.961 . S
H2769 C2783 0.960 . S
H2770 C2783 0.961 . S
H2771 C2783 0.959 . S
H2772 C2786 0.929 . S
H2773 C2787 0.931 . S
H2774 C2789 0.930 . S
C2775 H2763 0.909 1_655 S
C2775 C2776 1.393 . S
C2775 C2780 1.430 . S
C2776 C2775 1.393 . S
C2776 C2777 1.376 . S
C2777 H2764 0.930 . S
C2777 C2776 1.376 . S
C2777 C2778 1.388 . S
C2778 H2765 0.930 . S
C2778 C2777 1.388 . S
C2778 C2779 1.390 . S
C2779 C2778 1.390 . S
C2779 C2780 1.394 . S
C2779 C2785 1.465 . S
C2780 C2775 1.430 . S
C2780 C2779 1.394 . S
C2780 C2781 1.516 1_655 S
C2781 C2780 1.516 1_455 S
C2781 C2782 1.502 . S
C2781 C2783 1.561 1_455 S
C2781 C2784 1.526 1_455 S
C2782 H2766 0.959 . S
C2782 H2767 0.959 . S
C2782 H2768 0.961 . S
C2782 C2781 1.502 . S
C2783 H2769 0.960 . S
C2783 H2770 0.961 . S
C2783 H2771 0.959 . S
C2783 C2781 1.561 1_655 S
C2784 C2781 1.526 1_655 S
C2784 C2785 1.396 . S
C2784 C2789 1.390 1_655 S
C2785 C2779 1.465 . S
C2785 C2784 1.396 . S
C2785 C2786 1.399 . S
C2786 H2772 0.929 . S
C2786 C2785 1.399 . S
C2786 C2787 1.385 . S
C2787 H2773 0.931 . S
C2787 C2786 1.385 . S
C2787 C2788 1.389 . S
C2788 C2787 1.389 . S
C2788 C2789 1.387 1_655 S
C2789 H2774 0.930 . S
C2789 C2784 1.390 1_455 S
C2789 C2788 1.387 1_455 S
H2790 C2802 0.930 . S
H2791 C2804 0.930 . S
H2792 C2805 0.930 . S
H2793 C2809 0.959 . S
H2794 C2809 0.959 . S
H2795 C2809 0.961 . S
H2796 C2810 0.960 . S
H2797 C2810 0.961 . S
H2798 C2810 0.959 . S
H2799 C2813 0.929 . S
H2800 C2814 0.931 . S
H2801 C2816 0.930 . S
C2802 H2790 0.930 . S
C2802 C2803 1.399 . S
C2802 C2807 1.399 . S
C2803 C2802 1.399 . S
C2803 C2804 1.376 . S
C2804 H2791 0.930 . S
C2804 C2803 1.376 . S
C2804 C2805 1.388 . S
C2805 H2792 0.930 . S
C2805 C2804 1.388 . S
C2805 C2806 1.390 . S
C2806 C2805 1.390 . S
C2806 C2807 1.394 . S
C2806 C2812 1.465 . S
C2807 C2802 1.399 . S
C2807 C2806 1.394 . S
C2807 C2808 1.516 . S
C2808 C2807 1.516 . S
C2808 C2809 1.502 . S
C2808 C2810 1.561 . S
C2808 C2811 1.526 . S
C2809 H2793 0.959 . S
C2809 H2794 0.959 . S
C2809 H2795 0.961 . S
C2809 C2808 1.502 . S
C2810 H2796 0.960 . S
C2810 H2797 0.961 . S
C2810 H2798 0.959 . S
C2810 C2808 1.561 . S
C2811 C2808 1.526 . S
C2811 C2812 1.396 . S
C2811 C2816 1.390 . S
C2812 C2806 1.465 . S
C2812 C2811 1.396 . S
C2812 C2813 1.399 . S
C2813 H2799 0.929 . S
C2813 C2812 1.399 . S
C2813 C2814 1.385 . S
C2814 H2800 0.931 . S
C2814 C2813 1.385 . S
C2814 C2815 1.389 . S
C2815 C2814 1.389 . S
C2815 C2816 1.387 . S
C2816 H2801 0.930 . S
C2816 C2811 1.390 . S
C2816 C2815 1.387 . S
H2817 C2829 0.930 . S
H2818 C2831 0.930 . S
H2819 C2832 0.930 . S
H2820 C2836 0.959 . S
H2821 C2836 0.959 . S
H2822 C2836 0.961 . S
H2823 C2837 0.960 . S
H2824 C2837 0.961 . S
H2825 C2837 0.959 . S
H2826 C2840 0.929 . S
H2827 C2841 0.931 . S
H2828 C2843 0.930 . S
C2829 H2817 0.930 . S
C2829 C2830 1.399 . S
C2829 C2834 1.399 . S
C2830 C2829 1.399 . S
C2830 C2831 1.376 . S
C2831 H2818 0.930 . S
C2831 C2830 1.376 . S
C2831 C2832 1.388 . S
C2832 H2819 0.930 . S
C2832 C2831 1.388 . S
C2832 C2833 1.390 . S
C2833 C2832 1.390 . S
C2833 C2834 1.394 . S
C2833 C2839 1.465 . S
C2834 C2829 1.399 . S
C2834 C2833 1.394 . S
C2834 C2835 1.516 . S
C2835 C2834 1.516 . S
C2835 C2836 1.502 . S
C2835 C2837 1.561 . S
C2835 C2838 1.526 . S
C2836 H2820 0.959 . S
C2836 H2821 0.959 . S
C2836 H2822 0.961 . S
C2836 C2835 1.502 . S
C2837 H2823 0.960 . S
C2837 H2824 0.961 . S
C2837 H2825 0.959 . S
C2837 C2835 1.561 . S
C2838 C2835 1.526 . S
C2838 C2839 1.396 . S
C2838 C2843 1.390 . S
C2839 C2833 1.465 . S
C2839 C2838 1.396 . S
C2839 C2840 1.399 . S
C2840 H2826 0.929 . S
C2840 C2839 1.399 . S
C2840 C2841 1.385 . S
C2841 H2827 0.931 . S
C2841 C2840 1.385 . S
C2841 C2842 1.389 . S
C2842 C2841 1.389 . S
C2842 C2843 1.387 . S
C2843 H2828 0.930 . S
C2843 C2838 1.390 . S
C2843 C2842 1.387 . S
H2844 C2856 0.930 . S
H2845 C2858 0.930 . S
H2846 C2859 0.930 . S
H2847 C2863 0.959 . S
H2848 C2863 0.959 . S
H2849 C2863 0.961 . S
H2850 C2864 0.960 . S
H2851 C2864 0.961 . S
H2852 C2864 0.959 . S
H2853 C2867 0.929 . S
H2854 C2868 0.931 . S
H2855 C2870 0.930 . S
C2856 H2844 0.930 . S
C2856 C2857 1.399 . S
C2856 C2861 1.399 . S
C2857 C2856 1.399 . S
C2857 C2858 1.376 . S
C2858 H2845 0.930 . S
C2858 C2857 1.376 . S
C2858 C2859 1.388 . S
C2859 H2846 0.930 . S
C2859 C2858 1.388 . S
C2859 C2860 1.390 . S
C2860 C2859 1.390 . S
C2860 C2861 1.394 . S
C2860 C2866 1.465 . S
C2861 C2856 1.399 . S
C2861 C2860 1.394 . S
C2861 C2862 1.516 . S
C2862 C2861 1.516 . S
C2862 C2863 1.502 . S
C2862 C2864 1.561 . S
C2862 C2865 1.526 . S
C2863 H2847 0.959 . S
C2863 H2848 0.959 . S
C2863 H2849 0.961 . S
C2863 C2862 1.502 . S
C2864 H2850 0.960 . S
C2864 H2851 0.961 . S
C2864 H2852 0.959 . S
C2864 C2862 1.561 . S
C2865 C2862 1.526 . S
C2865 C2866 1.396 . S
C2865 C2870 1.390 . S
C2866 C2860 1.465 . S
C2866 C2865 1.396 . S
C2866 C2867 1.399 . S
C2867 H2853 0.929 . S
C2867 C2866 1.399 . S
C2867 C2868 1.385 . S
C2868 H2854 0.931 . S
C2868 C2867 1.385 . S
C2868 C2869 1.389 . S
C2869 C2868 1.389 . S
C2869 C2870 1.387 . S
C2870 H2855 0.930 . S
C2870 C2865 1.390 . S
C2870 C2869 1.387 . S
H2871 C2883 0.930 . S
H2872 C2885 0.930 . S
H2873 C2886 0.930 . S
H2874 C2890 0.959 . S
H2875 C2890 0.959 . S
H2876 C2890 0.961 . S
H2877 C2891 0.960 . S
H2878 C2891 0.961 . S
H2879 C2891 0.959 . S
H2880 C2894 0.929 . S
H2881 C2895 0.931 . S
H2882 C2897 0.930 . S
C2883 H2871 0.930 . S
C2883 C2884 1.399 . S
C2883 C2888 1.399 . S
C2884 C2883 1.399 . S
C2884 C2885 1.376 . S
C2885 H2872 0.930 . S
C2885 C2884 1.376 . S
C2885 C2886 1.388 . S
C2886 H2873 0.930 . S
C2886 C2885 1.388 . S
C2886 C2887 1.390 . S
C2887 C2886 1.390 . S
C2887 C2888 1.394 . S
C2887 C2893 1.465 . S
C2888 C2883 1.399 . S
C2888 C2887 1.394 . S
C2888 C2889 1.516 . S
C2889 C2888 1.516 . S
C2889 C2890 1.502 . S
C2889 C2891 1.561 . S
C2889 C2892 1.526 . S
C2890 H2874 0.959 . S
C2890 H2875 0.959 . S
C2890 H2876 0.961 . S
C2890 C2889 1.502 . S
C2891 H2877 0.960 . S
C2891 H2878 0.961 . S
C2891 H2879 0.959 . S
C2891 C2889 1.561 . S
C2892 C2889 1.526 . S
C2892 C2893 1.396 . S
C2892 C2897 1.390 . S
C2893 C2887 1.465 . S
C2893 C2892 1.396 . S
C2893 C2894 1.399 . S
C2894 H2880 0.929 . S
C2894 C2893 1.399 . S
C2894 C2895 1.385 . S
C2895 H2881 0.931 . S
C2895 C2894 1.385 . S
C2895 C2896 1.389 . S
C2896 C2895 1.389 . S
C2896 C2897 1.387 . S
C2897 H2882 0.930 . S
C2897 C2892 1.390 . S
C2897 C2896 1.387 . S
H2898 C2910 0.930 . S
H2899 C2912 0.930 . S
H2900 C2913 0.930 . S
H2901 C2917 0.959 . S
H2902 C2917 0.959 . S
H2903 C2917 0.961 . S
H2904 C2918 0.960 . S
H2905 C2918 0.961 . S
H2906 C2918 0.959 . S
H2907 C2921 0.929 . S
H2908 C2922 0.931 . S
H2909 C2924 0.930 . S
C2910 H2898 0.930 . S
C2910 C2911 1.399 . S
C2910 C2915 1.399 . S
C2911 C2910 1.399 . S
C2911 C2912 1.376 . S
C2912 H2899 0.930 . S
C2912 C2911 1.376 . S
C2912 C2913 1.388 . S
C2913 H2900 0.930 . S
C2913 C2912 1.388 . S
C2913 C2914 1.390 . S
C2914 C2913 1.390 . S
C2914 C2915 1.394 . S
C2914 C2920 1.465 . S
C2915 C2910 1.399 . S
C2915 C2914 1.394 . S
C2915 C2916 1.516 . S
C2916 C2915 1.516 . S
C2916 C2917 1.502 . S
C2916 C2918 1.561 . S
C2916 C2919 1.526 . S
C2917 H2901 0.959 . S
C2917 H2902 0.959 . S
C2917 H2903 0.961 . S
C2917 C2916 1.502 . S
C2918 H2904 0.960 . S
C2918 H2905 0.961 . S
C2918 H2906 0.959 . S
C2918 C2916 1.561 . S
C2919 C2916 1.526 . S
C2919 C2920 1.396 . S
C2919 C2924 1.390 . S
C2920 C2914 1.465 . S
C2920 C2919 1.396 . S
C2920 C2921 1.399 . S
C2921 H2907 0.929 . S
C2921 C2920 1.399 . S
C2921 C2922 1.385 . S
C2922 H2908 0.931 . S
C2922 C2921 1.385 . S
C2922 C2923 1.389 . S
C2923 C2922 1.389 . S
C2923 C2924 1.387 . S
C2924 H2909 0.930 . S
C2924 C2919 1.390 . S
C2924 C2923 1.387 . S
H2925 C2937 0.930 . S
H2926 C2939 0.930 . S
H2927 C2940 0.930 . S
H2928 C2944 0.959 . S
H2929 C2944 0.959 . S
H2930 C2944 0.961 . S
H2931 C2945 0.960 . S
H2932 C2945 0.961 . S
H2933 C2945 0.959 . S
H2934 C2948 0.929 . S
H2935 C2949 0.931 . S
H2936 C2951 0.930 . S
C2937 H2925 0.930 . S
C2937 C2938 1.399 . S
C2937 C2942 1.399 . S
C2938 C2937 1.399 . S
C2938 C2939 1.376 . S
C2939 H2926 0.930 . S
C2939 C2938 1.376 . S
C2939 C2940 1.388 . S
C2940 H2927 0.930 . S
C2940 C2939 1.388 . S
C2940 C2941 1.390 . S
C2941 C2940 1.390 . S
C2941 C2942 1.394 . S
C2941 C2947 1.465 . S
C2942 C2937 1.399 . S
C2942 C2941 1.394 . S
C2942 C2943 1.516 . S
C2943 C2942 1.516 . S
C2943 C2944 1.502 . S
C2943 C2945 1.561 . S
C2943 C2946 1.526 . S
C2944 H2928 0.959 . S
C2944 H2929 0.959 . S
C2944 H2930 0.961 . S
C2944 C2943 1.502 . S
C2945 H2931 0.960 . S
C2945 H2932 0.961 . S
C2945 H2933 0.959 . S
C2945 C2943 1.561 . S
C2946 C2943 1.526 . S
C2946 C2947 1.396 . S
C2946 C2951 1.390 . S
C2947 C2941 1.465 . S
C2947 C2946 1.396 . S
C2947 C2948 1.399 . S
C2948 H2934 0.929 . S
C2948 C2947 1.399 . S
C2948 C2949 1.385 . S
C2949 H2935 0.931 . S
C2949 C2948 1.385 . S
C2949 C2950 1.389 . S
C2950 C2949 1.389 . S
C2950 C2951 1.387 . S
C2951 H2936 0.930 . S
C2951 C2946 1.390 . S
C2951 C2950 1.387 . S
H2952 C2964 0.930 . S
H2953 C2966 0.930 . S
H2954 C2967 0.930 . S
H2955 C2971 0.959 . S
H2956 C2971 0.959 . S
H2957 C2971 0.961 . S
H2958 C2972 0.960 . S
H2959 C2972 0.961 . S
H2960 C2972 0.959 . S
H2961 C2975 0.929 . S
H2962 C2976 0.931 . S
H2963 C2978 0.930 . S
C2964 H2952 0.930 . S
C2964 C2965 1.399 . S
C2964 C2969 1.399 . S
C2965 C2964 1.399 . S
C2965 C2966 1.376 . S
C2966 H2953 0.930 . S
C2966 C2965 1.376 . S
C2966 C2967 1.388 . S
C2967 H2954 0.930 . S
C2967 C2966 1.388 . S
C2967 C2968 1.390 . S
C2968 C2967 1.390 . S
C2968 C2969 1.394 . S
C2968 C2974 1.465 . S
C2969 C2964 1.399 . S
C2969 C2968 1.394 . S
C2969 C2970 1.516 . S
C2970 C2969 1.516 . S
C2970 C2971 1.502 . S
C2970 C2972 1.561 . S
C2970 C2973 1.526 . S
C2971 H2955 0.959 . S
C2971 H2956 0.959 . S
C2971 H2957 0.961 . S
C2971 C2970 1.502 . S
C2972 H2958 0.960 . S
C2972 H2959 0.961 . S
C2972 H2960 0.959 . S
C2972 C2970 1.561 . S
C2973 C2970 1.526 . S
C2973 C2974 1.396 . S
C2973 C2978 1.390 . S
C2974 C2968 1.465 . S
C2974 C2973 1.396 . S
C2974 C2975 1.399 . S
C2975 H2961 0.929 . S
C2975 C2974 1.399 . S
C2975 C2976 1.385 . S
C2976 H2962 0.931 . S
C2976 C2975 1.385 . S
C2976 C2977 1.389 . S
C2977 C2976 1.389 . S
C2977 C2978 1.387 . S
C2978 H2963 0.930 . S
C2978 C2973 1.390 . S
C2978 C2977 1.387 . S
H2979 C2991 0.930 . S
H2980 C2993 0.930 . S
H2981 C2994 0.930 . S
H2982 C2998 0.959 . S
H2983 C2998 0.959 . S
H2984 C2998 0.961 . S
H2985 C2999 0.960 . S
H2986 C2999 0.961 . S
H2987 C2999 0.959 . S
H2988 C3002 0.929 . S
H2989 C3003 0.931 . S
H2990 C3005 0.930 . S
C2991 H2979 0.930 . S
C2991 C2992 1.399 . S
C2991 C2996 1.399 . S
C2992 C2991 1.399 . S
C2992 C2993 1.376 . S
C2993 H2980 0.930 . S
C2993 C2992 1.376 . S
C2993 C2994 1.388 . S
C2994 H2981 0.930 . S
C2994 C2993 1.388 . S
C2994 C2995 1.390 . S
C2995 C2994 1.390 . S
C2995 C2996 1.394 . S
C2995 C3001 1.465 . S
C2996 C2991 1.399 . S
C2996 C2995 1.394 . S
C2996 C2997 1.516 . S
C2997 C2996 1.516 . S
C2997 C2998 1.502 . S
C2997 C2999 1.561 1_655 S
C2997 C3000 1.526 . S
C2998 H2982 0.959 . S
C2998 H2983 0.959 . S
C2998 H2984 0.961 . S
C2998 C2997 1.502 . S
C2999 H2985 0.960 . S
C2999 H2986 0.961 . S
C2999 H2987 0.959 . S
C2999 C2997 1.561 1_455 S
C3000 C2997 1.526 . S
C3000 C3001 1.396 . S
C3000 C3005 1.390 . S
C3001 C2995 1.465 . S
C3001 C3000 1.396 . S
C3001 C3002 1.399 . S
C3002 H2988 0.929 . S
C3002 C3001 1.399 . S
C3002 C3003 1.385 . S
C3003 H2989 0.931 . S
C3003 C3002 1.385 . S
C3003 C3004 1.389 . S
C3004 C3003 1.389 . S
C3004 C3005 1.387 . S
C3005 H2990 0.930 . S
C3005 C3000 1.390 . S
C3005 C3004 1.387 . S
H3006 C3018 0.930 . S
H3007 C3020 0.930 . S
H3008 C3021 0.930 . S
H3009 C3025 0.959 . S
H3010 C3025 0.959 . S
H3011 C3025 0.961 . S
H3012 C3026 0.960 . S
H3013 C3026 0.961 . S
H3014 C3026 0.959 . S
H3015 C3029 0.929 . S
H3016 C3030 0.931 . S
H3017 C3032 0.930 . S
C3018 H3006 0.930 . S
C3018 C3019 1.399 . S
C3018 C3023 1.399 . S
C3019 C3018 1.399 . S
C3019 C3020 1.376 . S
C3020 H3007 0.930 . S
C3020 C3019 1.376 . S
C3020 C3021 1.388 . S
C3021 H3008 0.930 . S
C3021 C3020 1.388 . S
C3021 C3022 1.390 . S
C3022 C3021 1.390 . S
C3022 C3023 1.394 . S
C3022 C3028 1.465 . S
C3023 C3018 1.399 . S
C3023 C3022 1.394 . S
C3023 C3024 1.516 . S
C3024 C3023 1.516 . S
C3024 C3025 1.502 . S
C3024 C3026 1.561 . S
C3024 C3027 1.526 . S
C3025 H3009 0.959 . S
C3025 H3010 0.959 . S
C3025 H3011 0.961 . S
C3025 C3024 1.502 . S
C3026 H3012 0.960 . S
C3026 H3013 0.961 . S
C3026 H3014 0.959 . S
C3026 C3024 1.561 . S
C3027 C3024 1.526 . S
C3027 C3028 1.396 . S
C3027 C3032 1.390 . S
C3028 C3022 1.465 . S
C3028 C3027 1.396 . S
C3028 C3029 1.399 . S
C3029 H3015 0.929 . S
C3029 C3028 1.399 . S
C3029 C3030 1.385 . S
C3030 H3016 0.931 . S
C3030 C3029 1.385 . S
C3030 C3031 1.389 . S
C3031 C3030 1.389 . S
C3031 C3032 1.387 . S
C3032 H3017 0.930 . S
C3032 C3027 1.390 . S
C3032 C3031 1.387 . S
H3033 C3045 0.930 1_565 S
H3034 C3047 0.930 . S
H3035 C3048 0.930 . S
H3036 C3052 0.959 1_545 S
H3037 C3052 0.959 . S
H3038 C3052 0.961 . S
H3039 C3053 0.960 . S
H3040 C3053 0.961 . S
H3041 C3053 0.959 . S
H3042 C3056 0.929 . S
H3043 C3057 0.931 . S
H3044 C3059 0.930 . S
C3045 H3033 0.930 1_545 S
C3045 C3046 1.399 . S
C3045 C3050 1.399 . S
C3046 C3045 1.399 . S
C3046 C3047 1.376 . S
C3047 H3034 0.930 . S
C3047 C3046 1.376 . S
C3047 C3048 1.388 . S
C3048 H3035 0.930 . S
C3048 C3047 1.388 . S
C3048 C3049 1.390 . S
C3049 C3048 1.390 . S
C3049 C3050 1.394 . S
C3049 C3055 1.465 . S
C3050 C3045 1.399 . S
C3050 C3049 1.394 . S
C3050 C3051 1.516 1_545 S
C3051 C3050 1.516 1_565 S
C3051 C3052 1.502 . S
C3051 C3053 1.561 . S
C3051 C3054 1.569 . S
C3052 H3036 0.959 1_565 S
C3052 H3037 0.959 . S
C3052 H3038 0.961 . S
C3052 C3051 1.502 . S
C3053 H3039 0.960 . S
C3053 H3040 0.961 . S
C3053 H3041 0.959 . S
C3053 C3051 1.561 . S
C3054 C3051 1.569 . S
C3054 C3055 1.376 1_565 S
C3054 C3059 1.371 . S
C3055 C3049 1.465 . S
C3055 C3054 1.376 1_545 S
C3055 C3056 1.399 . S
C3056 H3042 0.929 . S
C3056 C3055 1.399 . S
C3056 C3057 1.385 . S
C3057 H3043 0.931 . S
C3057 C3056 1.385 . S
C3057 C3058 1.389 . S
C3058 C3057 1.389 . S
C3058 C3059 1.387 1_545 S
C3059 H3044 0.930 . S
C3059 C3054 1.371 . S
C3059 C3058 1.387 1_565 S
C1129 C9 1.442 1_655 S
C1141 C729 1.465 . S
C1156 C19 1.563 . S
C1168 C777 1.552 . S
C1195 C825 1.505 . S
C1183 C33 1.522 . S
C1210 C37 1.497 1_565 S
C1222 C849 1.503 . S
C1237 C5 1.472 . S
C1249 C921 1.459 . S
C1264 C23 1.613 . S
C1276 C969 1.610 . S
C1291 C47 1.498 . S
C1303 C897 1.499 . S
C1330 C945 1.609 . S
C1318 C65 1.619 . S
C1357 C873 1.497 . S
C1345 C75 1.499 . S
C1372 C79 1.451 . S
C1384 C801 1.441 . S
C1411 C705 1.519 . S
C1399 C51 1.519 . S
C1426 C61 1.587 . S
C1438 C753 1.585 . S
C1453 C93 1.694 . S
C1465 C1017 1.686 . S
C1480 C103 1.639 . S
C1492 C1065 1.643 . S
C1519 C1089 1.649 . S
C1507 C117 1.649 . S
C1534 C121 1.625 . S
C1546 C273 1.614 . S
C1561 C89 1.638 . S
C1573 C345 1.639 . S
C1588 C107 1.654 . S
C1600 C393 1.654 . S
C1615 C131 1.599 . S
C1627 C321 1.579 . S
C1642 C149 1.658 . S
C1654 C369 1.636 . S
C1681 C297 1.550 . S
C1669 C159 1.621 . S
C1708 C1113 1.645 . S
C1696 C163 1.668 . S
C1735 C993 1.663 . S
C1723 C135 1.681 . S
C1762 C1041 1.667 . S
C1750 C145 1.665 . S
C1777 C177 1.611 . S
C1789 C441 1.597 . S
C1804 C187 1.606 . S
C1816 C489 1.611 . S
C1831 C201 1.671 . S
C1843 C513 1.634 . S
C1858 C205 1.697 . S
C1870 C561 1.662 . S
C1897 C633 1.631 . S
C1885 C173 1.639 . S
C1924 C681 1.686 . S
C1912 C191 1.688 . S
C1951 C609 1.674 . S
C1939 C215 1.682 . S
C1978 C657 1.687 . S
C1966 C233 1.698 . S
C1993 C243 1.618 . S
C2005 C585 1.604 . S
C2032 C537 1.507 . S
C2020 C247 1.570 . S
C2047 C219 1.691 . S
C2059 C417 1.684 . S
C2086 C465 1.635 . S
C2074 C229 1.646 . S
C2113 C282 1.553 . S
C2101 C11 1.561 . S
C2128 C14 1.515 . S
C2140 C336 1.510 . S
C2167 C384 1.588 . S
C2155 C28 1.637 . S
C2194 C432 1.579 . S
C2182 C39 1.636 . S
C2221 C480 1.531 . S
C2209 C0 1.573 . S
C2248 C522 1.481 . S
C2236 C25 1.474 . S
C2263 C42 1.631 . S
C2275 C528 1.611 . S
C2290 C67 1.525 . S
C2302 C426 1.496 . S
C2317 C70 1.525 . S
C2329 C474 1.465 . S
C2344 C81 1.558 . S
C2356 C330 1.550 . S
C2383 C378 1.561 . S
C2371 C53 1.615 . S
C2398 C56 1.548 . S
C2410 C288 1.517 . S
C2437 C570 1.521 . S
C2425 C95 1.528 . S
C2452 C98 1.629 . S
C2464 C624 1.620 . S
C2479 C112 1.686 . S
C2491 C672 1.642 . S
C2518 C720 1.422 . S
C2506 C123 1.426 . S
C2533 C84 1.562 . S
C2545 C768 1.555 . S
C2560 C109 1.353 . S
C2572 C816 1.380 . S
C2587 C126 1.463 . S
C2599 C810 1.470 . S
C2614 C151 1.424 . S
C2626 C714 1.419 . S
C2653 C762 1.505 . S
C2641 C154 1.532 . S
C2668 C165 1.523 . S
C2680 C618 1.506 . S
C2695 C137 1.651 . S
C2707 C666 1.632 . S
C2734 C576 1.662 . S
C2722 C140 1.661 . S
C2761 C858 1.421 . S
C2749 C179 1.382 . S
C2776 C182 1.380 . S
C2788 C912 1.401 . S
C2803 C196 1.619 . S
C2815 C960 1.604 . S
C2842 C1008 1.587 . S
C2830 C207 1.597 . S
C2869 C1056 1.573 . S
C2857 C168 1.613 . S
C2884 C193 1.583 . S
C2896 C1098 1.582 . S
C2911 C210 1.610 . S
C2923 C1104 1.578 . S
C2938 C235 1.633 . S
C2950 C1002 1.599 . S
C2977 C1050 1.531 . S
C2965 C238 1.577 . S
C3004 C906 1.367 . S
C2992 C249 1.373 . S
C3031 C954 1.555 . S
C3019 C221 1.576 . S
C3046 C224 1.423 . S
C3058 C864 1.433 . S
