# Generated by pormake.
# Topology anh, (6,3)-cn, num edge types: 1
# Building blocks:
#     Node 0, Type 0, BuildingBlock: VOLQOD_clean_sbu_1, # of connection points: 6
#     Node 1, Type 0, BuildingBlock: VOLQOD_clean_sbu_1, # of connection points: 6
#     Node 2, Type 0, BuildingBlock: VOLQOD_clean_sbu_1, # of connection points: 6
#     Node 3, Type 1, BuildingBlock: BETDAH_clean_linker_0, # of connection points: 3
#     Node 4, Type 1, BuildingBlock: BETDAH_clean_linker_0, # of connection points: 3
#     Node 5, Type 1, BuildingBlock: BETDAH_clean_linker_0, # of connection points: 3
#     Node 6, Type 1, BuildingBlock: BETDAH_clean_linker_0, # of connection points: 3
#     Node 7, Type 1, BuildingBlock: BETDAH_clean_linker_0, # of connection points: 3
#     Node 8, Type 1, BuildingBlock: BETDAH_clean_linker_0, # of connection points: 3
#     Edge 9, Type (0, 1), BuildingBlock: FUNLAD_clean_linker_1, # of connection points: 2
#     Edge 10, Type (0, 1), BuildingBlock: FUNLAD_clean_linker_1, # of connection points: 2
#     Edge 11, Type (0, 1), BuildingBlock: FUNLAD_clean_linker_1, # of connection points: 2
#     Edge 12, Type (0, 1), BuildingBlock: FUNLAD_clean_linker_1, # of connection points: 2
#     Edge 13, Type (0, 1), BuildingBlock: FUNLAD_clean_linker_1, # of connection points: 2
#     Edge 14, Type (0, 1), BuildingBlock: FUNLAD_clean_linker_1, # of connection points: 2
#     Edge 15, Type (0, 1), BuildingBlock: FUNLAD_clean_linker_1, # of connection points: 2
#     Edge 16, Type (0, 1), BuildingBlock: FUNLAD_clean_linker_1, # of connection points: 2
#     Edge 17, Type (0, 1), BuildingBlock: FUNLAD_clean_linker_1, # of connection points: 2
#     Edge 18, Type (0, 1), BuildingBlock: FUNLAD_clean_linker_1, # of connection points: 2
#     Edge 19, Type (0, 1), BuildingBlock: FUNLAD_clean_linker_1, # of connection points: 2
#     Edge 20, Type (0, 1), BuildingBlock: FUNLAD_clean_linker_1, # of connection points: 2
#     Edge 21, Type (0, 1), BuildingBlock: FUNLAD_clean_linker_1, # of connection points: 2
#     Edge 22, Type (0, 1), BuildingBlock: FUNLAD_clean_linker_1, # of connection points: 2
#     Edge 23, Type (0, 1), BuildingBlock: FUNLAD_clean_linker_1, # of connection points: 2
#     Edge 24, Type (0, 1), BuildingBlock: FUNLAD_clean_linker_1, # of connection points: 2
#     Edge 25, Type (0, 1), BuildingBlock: FUNLAD_clean_linker_1, # of connection points: 2
#     Edge 26, Type (0, 1), BuildingBlock: FUNLAD_clean_linker_1, # of connection points: 2
# Relax obj value: 0.157
# Max RMSD: 0.216
# Mean RMSD: 0.137
data_MOF--net-anh--node1-VOLQOD_clean_sbu_1--node2-BETDAH_clean_linker_0--edge1-FUNLAD_clean_linker_1
_symmetry_space_group_name_H-M    P1
_symmetry_Int_Tables_number       1
_symmetry_cell_setting            triclinic
loop_
_symmetry_equiv_pos_as_xyz
'x, y, z'
_cell_length_a     30.507287
_cell_length_b     30.505889
_cell_length_c     58.85913
_cell_angle_alpha  92.813594
_cell_angle_beta   92.539768
_cell_angle_gamma 120.10809
loop_
_atom_site_label
_atom_site_type_symbol
_atom_site_fract_x
_atom_site_fract_y
_atom_site_fract_z
_atom_type_partial_charge
O0 O 0.04366 0.61885 0.21798 0.0
Zn1 Zn 0.03625 0.62976 0.18486 0.0
O2 O 0.03554 0.57575 0.1651 0.0
Zn3 Zn 0.96894 0.53429 0.14887 0.0
Zn4 Zn 0.05137 0.53288 0.18355 0.0
Zn5 Zn 0.08517 0.606 0.14259 0.0
O6 O 0.97273 0.52895 0.11475 0.0
O7 O 0.05289 0.58693 0.11041 0.0
O8 O 0.97166 0.63257 0.17935 0.0
O9 O 0.9262 0.56545 0.15448 0.0
O10 O 0.93258 0.46441 0.16002 0.0
O11 O 0.99244 0.461 0.18148 0.0
O12 O 0.11336 0.53166 0.17347 0.0
O13 O 0.09635 0.69769 0.1796 0.0
O14 O 0.13414 0.58063 0.14444 0.0
O15 O 0.12688 0.68197 0.14858 0.0
C16 C 0.05475 0.58934 0.22809 0.0
C17 C 0.00834 0.55399 0.10204 0.0
C18 C 0.94716 0.44038 0.17245 0.0
C19 C 0.93125 0.6036 0.16664 0.0
C20 C 0.14149 0.55231 0.15732 0.0
C21 C 0.12805 0.71264 0.16435 0.0
O22 O 0.06137 0.5564 0.21704 0.0
O23 O 0.5208 0.09432 0.45464 0.0
Zn24 Zn 0.49912 0.08174 0.48692 0.0
O25 O 0.5444 0.06716 0.5054 0.0
Zn26 Zn 0.58457 0.12109 0.52907 0.0
Zn27 Zn 0.58928 0.05928 0.48542 0.0
Zn28 Zn 0.50534 0.00582 0.52056 0.0
O29 O 0.5792 0.09512 0.56038 0.0
O30 O 0.50897 0.01936 0.55464 0.0
O31 O 0.49804 0.14277 0.50136 0.0
O32 O 0.55717 0.16811 0.53039 0.0
O33 O 0.65778 0.16252 0.52183 0.0
O34 O 0.6597 0.11922 0.4908 0.0
O35 O 0.5921 0.9963 0.49073 0.0
O36 O 0.42811 0.02028 0.48362 0.0
O37 O 0.53395 0.96007 0.51566 0.0
O38 O 0.43319 0.96819 0.50735 0.0
C39 C 0.54542 0.07856 0.44315 0.0
C40 C 0.5439 0.05515 0.56799 0.0
C41 C 0.68143 0.15702 0.50568 0.0
C42 C 0.52382 0.17284 0.51881 0.0
C43 C 0.56775 0.96074 0.50352 0.0
C44 C 0.40802 0.97817 0.49276 0.0
O45 O 0.56887 0.05868 0.45253 0.0
O46 O 0.51563 0.52149 0.78123 0.0
Zn47 Zn 0.49526 0.49639 0.8123 0.0
O48 O 0.55037 0.53844 0.8358 0.0
Zn49 Zn 0.53046 0.57745 0.85552 0.0
Zn50 Zn 0.6119 0.58393 0.82114 0.0
Zn51 Zn 0.5636 0.4952 0.85453 0.0
O52 O 0.53677 0.56636 0.88886 0.0
O53 O 0.54648 0.49878 0.88693 0.0
O54 O 0.43042 0.49608 0.81883 0.0
O55 O 0.45679 0.5543 0.8483 0.0
O56 O 0.57104 0.65182 0.85041 0.0
O57 O 0.62793 0.65658 0.82673 0.0
O58 O 0.67263 0.57753 0.83205 0.0
O59 O 0.482 0.42424 0.81022 0.0
O60 O 0.63734 0.5171 0.856 0.0
O61 O 0.52761 0.42339 0.84052 0.0
C62 C 0.55933 0.54715 0.77372 0.0
C63 C 0.53975 0.53116 0.89834 0.0
C64 C 0.608 0.67739 0.8384 0.0
C65 C 0.42192 0.52207 0.83376 0.0
C66 C 0.67575 0.54874 0.84624 0.0
C67 C 0.49768 0.40112 0.82267 0.0
O68 O 0.59985 0.56908 0.787 0.0
H69 H 0.42227 0.04549 0.26935 0.0
H70 H 0.58436 0.12595 0.26469 0.0
H71 H 0.48546 0.0242 0.20868 0.0
C72 C 0.45483 0.05525 0.25957 0.0
C73 C 0.44722 0.03236 0.23741 0.0
C74 C 0.504 0.08812 0.26979 0.0
C75 C 0.54618 0.10035 0.25711 0.0
C76 C 0.53892 0.07755 0.23486 0.0
C77 C 0.48978 0.04309 0.22536 0.0
N78 N 0.58031 0.08596 0.22207 0.0
C79 C 0.62514 0.13235 0.22275 0.0
H80 H 0.51959 0.48069 0.59408 0.0
H81 H 0.61687 0.64317 0.5976 0.0
H82 H 0.60501 0.552 0.53714 0.0
C83 C 0.54645 0.51445 0.58632 0.0
C84 C 0.5593 0.51056 0.56397 0.0
C85 C 0.56745 0.56223 0.59859 0.0
C86 C 0.60041 0.60621 0.58821 0.0
C87 C 0.61452 0.60221 0.56615 0.0
C88 C 0.59395 0.5546 0.5542 0.0
N89 N 0.65014 0.64556 0.55583 0.0
C90 C 0.64551 0.68836 0.55545 0.0
H91 H 0.98263 0.55314 0.92038 0.0
H92 H 0.03955 0.45026 0.92593 0.0
H93 H 0.99017 0.47171 0.86018 0.0
C94 C 0.99096 0.52565 0.91249 0.0
C95 C 0.98196 0.51386 0.88868 0.0
C96 C 0.01141 0.50259 0.92612 0.0
C97 C 0.02433 0.46883 0.91564 0.0
C98 C 0.01768 0.45852 0.89194 0.0
C99 C 0.99694 0.48135 0.87846 0.0
N100 N 0.02842 0.42205 0.88213 0.0
C101 C 0.06334 0.43371 0.86584 0.0
H102 H 0.13228 0.63596 0.4022 0.0
H103 H 0.03826 0.47562 0.40883 0.0
H104 H 0.12676 0.57657 0.46732 0.0
C105 C 0.11576 0.60452 0.41282 0.0
C106 C 0.13154 0.61278 0.43622 0.0
C107 C 0.08166 0.55511 0.40278 0.0
C108 C 0.0636 0.51389 0.41646 0.0
C109 C 0.07993 0.52188 0.43978 0.0
C110 C 0.11397 0.57101 0.44937 0.0
N111 N 0.06484 0.48129 0.45397 0.0
C112 C 0.01873 0.43605 0.45073 0.0
H113 H 0.5685 0.13146 0.74332 0.0
H114 H 0.63963 0.04183 0.75292 0.0
H115 H 0.62234 0.12241 0.81057 0.0
C116 C 0.58422 0.11498 0.75459 0.0
C117 C 0.59103 0.12878 0.77816 0.0
C118 C 0.60141 0.08336 0.74533 0.0
C119 C 0.62545 0.06537 0.75998 0.0
C120 C 0.63256 0.07915 0.7836 0.0
C121 C 0.61588 0.11119 0.79241 0.0
N122 N 0.65792 0.06319 0.79898 0.0
C123 C 0.66413 0.02158 0.79451 0.0
H124 H 0.60705 0.57336 0.07429 0.0
H125 H 0.44558 0.47933 0.0794 0.0
H126 H 0.55032 0.49755 0.13504 0.0
C127 C 0.5752 0.54887 0.08376 0.0
C128 C 0.58479 0.53971 0.10603 0.0
C129 C 0.52507 0.52682 0.07381 0.0
C130 C 0.48441 0.4968 0.0868 0.0
C131 C 0.49387 0.48648 0.10888 0.0
C132 C 0.5438 0.50749 0.11831 0.0
N133 N 0.45368 0.45188 0.12116 0.0
C134 C 0.41882 0.46364 0.12959 0.0
H135 H 0.20444 0.55987 0.13795 0.0
C136 C 0.18309 0.54287 0.15253 0.0
H137 H 0.17308 0.49493 0.17896 0.0
H138 H 0.26808 0.38303 0.12352 0.0
H139 H 0.18128 0.31483 0.12562 0.0
H140 H 0.11777 0.33173 0.14214 0.0
H141 H 0.14076 0.41683 0.15683 0.0
C142 C 0.19485 0.5137 0.16477 0.0
C143 C 0.23462 0.5026 0.1575 0.0
C144 C 0.22047 0.45259 0.14902 0.0
C145 C 0.2569 0.44298 0.13921 0.0
C146 C 0.24182 0.39262 0.13092 0.0
C147 C 0.19212 0.35307 0.13205 0.0
C148 C 0.15638 0.36258 0.14136 0.0
C149 C 0.17012 0.41167 0.14974 0.0
H150 H 0.38977 0.48732 0.15789 0.0
C151 C 0.38388 0.47589 0.13973 0.0
H152 H 0.33801 0.45979 0.10917 0.0
H153 H 0.27636 0.60073 0.17599 0.0
H154 H 0.36268 0.66951 0.17325 0.0
H155 H 0.42409 0.65443 0.15343 0.0
H156 H 0.3999 0.57044 0.13668 0.0
C157 C 0.34476 0.47301 0.12717 0.0
C158 C 0.3073 0.48342 0.13785 0.0
C159 C 0.32174 0.5333 0.14677 0.0
C160 C 0.28568 0.54258 0.15716 0.0
C161 C 0.30168 0.59211 0.16702 0.0
C162 C 0.3512 0.63184 0.16572 0.0
C163 C 0.38582 0.6233 0.15465 0.0
C164 C 0.37149 0.57474 0.14523 0.0
H165 H 0.75084 0.23092 0.51538 0.0
C166 C 0.73372 0.19793 0.50302 0.0
H167 H 0.74087 0.16584 0.47174 0.0
H168 H 0.88177 0.37981 0.43497 0.0
H169 H 0.80479 0.3473 0.41 0.0
H170 H 0.72764 0.26695 0.41659 0.0
H171 H 0.72696 0.21885 0.44824 0.0
C172 C 0.75846 0.19763 0.48472 0.0
C173 C 0.8064 0.24359 0.47984 0.0
C174 C 0.80645 0.27062 0.46089 0.0
C175 C 0.85111 0.31662 0.45691 0.0
C176 C 0.84941 0.344 0.43846 0.0
C177 C 0.80531 0.32594 0.42406 0.0
C178 C 0.76187 0.28074 0.42778 0.0
C179 C 0.7621 0.2534 0.44601 0.0
H180 H 0.95964 0.35911 0.43788 0.0
C181 C 0.97076 0.38976 0.45107 0.0
H182 H 0.95513 0.41454 0.48206 0.0
H183 H 0.82075 0.19761 0.51596 0.0
H184 H 0.89796 0.22958 0.54076 0.0
H185 H 0.97511 0.31003 0.53427 0.0
H186 H 0.97558 0.35878 0.50287 0.0
C187 C 0.94209 0.3841 0.46851 0.0
C188 C 0.89578 0.33494 0.47171 0.0
C189 C 0.89602 0.30725 0.49034 0.0
C190 C 0.8514 0.26126 0.4943 0.0
C191 C 0.85316 0.23351 0.51257 0.0
C192 C 0.89736 0.25124 0.52684 0.0
C193 C 0.94079 0.2965 0.52317 0.0
C194 C 0.94045 0.32421 0.50512 0.0
H195 H 0.60641 0.74762 0.84685 0.0
C196 C 0.62412 0.73132 0.83644 0.0
H197 H 0.67066 0.7422 0.80926 0.0
H198 H 0.60547 0.89161 0.76803 0.0
H199 H 0.57192 0.82226 0.73844 0.0
H200 H 0.57859 0.74602 0.74369 0.0
H201 H 0.61842 0.73855 0.77865 0.0
C202 C 0.65462 0.75872 0.82058 0.0
C203 C 0.65986 0.80855 0.81577 0.0
C204 C 0.63799 0.81305 0.79486 0.0
C205 C 0.63492 0.85743 0.79167 0.0
C206 C 0.61017 0.85955 0.77117 0.0
C207 C 0.59041 0.8198 0.75406 0.0
C208 C 0.59409 0.77685 0.75702 0.0
C209 C 0.61719 0.77312 0.7772 0.0
H210 H 0.69432 0.97461 0.78109 0.0
C211 C 0.66967 0.97732 0.79314 0.0
H212 H 0.62367 0.94618 0.8202 0.0
H213 H 0.71303 0.81592 0.85578 0.0
H214 H 0.75028 0.88691 0.88482 0.0
H215 H 0.74458 0.96368 0.87952 0.0
H216 H 0.70188 0.97007 0.84515 0.0
C217 C 0.64633 0.94139 0.80761 0.0
C218 C 0.65485 0.89765 0.80923 0.0
C219 C 0.67985 0.89449 0.82946 0.0
C220 C 0.68267 0.85006 0.83265 0.0
C221 C 0.70867 0.8483 0.85281 0.0
C222 C 0.73054 0.88891 0.86951 0.0
C223 C 0.72737 0.93215 0.86652 0.0
C224 C 0.70252 0.9352 0.84675 0.0
H225 H 0.89145 0.64423 0.17764 0.0
C226 C 0.88855 0.61344 0.16636 0.0
H227 H 0.84221 0.5521 0.14197 0.0
H228 H 0.62815 0.50125 0.16537 0.0
H229 H 0.63687 0.44028 0.18715 0.0
H230 H 0.7204 0.44689 0.1942 0.0
H231 H 0.79572 0.51457 0.17937 0.0
C232 C 0.84588 0.58385 0.1528 0.0
C233 C 0.79984 0.5884 0.15351 0.0
C234 C 0.7566 0.54972 0.16291 0.0
C235 C 0.70869 0.54635 0.15909 0.0
C236 C 0.66566 0.50602 0.16791 0.0
C237 C 0.67011 0.47069 0.18046 0.0
C238 C 0.71712 0.47438 0.1844 0.0
C239 C 0.75997 0.51328 0.17574 0.0
H240 H 0.66569 0.56478 0.10307 0.0
C241 C 0.63802 0.56012 0.11518 0.0
H242 H 0.62641 0.56789 0.14996 0.0
H243 H 0.87663 0.67056 0.13531 0.0
H244 H 0.86922 0.7354 0.11606 0.0
H245 H 0.7867 0.73185 0.11112 0.0
H246 H 0.71087 0.66283 0.12514 0.0
C247 C 0.65306 0.57135 0.13756 0.0
C248 C 0.70438 0.58182 0.14589 0.0
C249 C 0.74866 0.62367 0.13864 0.0
C250 C 0.79646 0.62657 0.14214 0.0
C251 C 0.83956 0.66704 0.13351 0.0
C252 C 0.83581 0.70449 0.12241 0.0
C253 C 0.78933 0.70245 0.11959 0.0
C254 C 0.7461 0.66256 0.12757 0.0
H255 H 0.34002 0.94327 0.46835 0.0
C256 C 0.35705 0.93734 0.48365 0.0
H257 H 0.35331 0.88437 0.50635 0.0
H258 H 0.12797 0.74949 0.44763 0.0
H259 H 0.10642 0.80912 0.46525 0.0
H260 H 0.17118 0.88578 0.48873 0.0
H261 H 0.25795 0.90331 0.49473 0.0
C262 C 0.33556 0.89099 0.49151 0.0
C263 C 0.29597 0.84554 0.47725 0.0
C264 C 0.2456 0.83612 0.47385 0.0
C265 C 0.2082 0.79173 0.46043 0.0
C266 C 0.15793 0.78269 0.45759 0.0
C267 C 0.14503 0.81657 0.46763 0.0
C268 C 0.18151 0.85977 0.48084 0.0
C269 C 0.23122 0.86951 0.48406 0.0
H270 H 0.18846 0.66506 0.46359 0.0
C271 C 0.16921 0.6637 0.44732 0.0
H272 H 0.16087 0.7092 0.42329 0.0
H273 H 0.38985 0.8534 0.47972 0.0
H274 H 0.41185 0.79517 0.46126 0.0
H275 H 0.34775 0.7201 0.43674 0.0
H276 H 0.26114 0.70253 0.43086 0.0
C277 C 0.18118 0.70796 0.43862 0.0
C278 C 0.2213 0.75686 0.45064 0.0
C279 C 0.27226 0.76749 0.45324 0.0
C280 C 0.30942 0.81141 0.46689 0.0
C281 C 0.35987 0.82058 0.46957 0.0
C282 C 0.37317 0.78756 0.45898 0.0
C283 C 0.33708 0.74526 0.44522 0.0
C284 C 0.2873 0.73535 0.44219 0.0
H285 H 0.46417 0.33301 0.79817 0.0
C286 C 0.48716 0.3501 0.81422 0.0
H287 H 0.53756 0.34707 0.83905 0.0
H288 H 0.45221 0.1161 0.79318 0.0
H289 H 0.37699 0.09372 0.81345 0.0
H290 H 0.36501 0.16026 0.83267 0.0
H291 H 0.42822 0.24972 0.83176 0.0
C292 C 0.51229 0.32896 0.82366 0.0
C293 C 0.5168 0.28854 0.81077 0.0
C294 C 0.47935 0.23669 0.81129 0.0
C295 C 0.48631 0.19835 0.8002 0.0
C296 C 0.44872 0.14672 0.80126 0.0
C297 C 0.40542 0.13338 0.81284 0.0
C298 C 0.39867 0.17087 0.82367 0.0
C299 C 0.43516 0.22201 0.82301 0.0
H300 H 0.59739 0.1872 0.80403 0.0
C301 C 0.57671 0.16503 0.78817 0.0
H302 H 0.51608 0.14852 0.76374 0.0
H303 H 0.59443 0.38486 0.80538 0.0
H304 H 0.66736 0.40738 0.7836 0.0
H305 H 0.67839 0.34099 0.76359 0.0
H306 H 0.61641 0.25169 0.7652 0.0
C307 C 0.54007 0.17214 0.77866 0.0
C308 C 0.53077 0.21212 0.78873 0.0
C309 C 0.56704 0.26417 0.78729 0.0
C310 C 0.56031 0.3024 0.79854 0.0
C311 C 0.59747 0.35415 0.7971 0.0
C312 C 0.63953 0.36765 0.78461 0.0
C313 C 0.64576 0.33029 0.77337 0.0
C314 C 0.61004 0.27912 0.77458 0.0
H315 H 0.61053 0.92245 0.4948 0.0
C316 C 0.58136 0.9211 0.5052 0.0
H317 H 0.53144 0.8831 0.53053 0.0
H318 H 0.53851 0.6807 0.51265 0.0
H319 H 0.45453 0.65406 0.49517 0.0
H320 H 0.4265 0.71629 0.48999 0.0
H321 H 0.4822 0.80548 0.50249 0.0
C322 C 0.56124 0.88574 0.52023 0.0
C323 C 0.57866 0.84883 0.52308 0.0
C324 C 0.5458 0.79705 0.51549 0.0
C325 C 0.56229 0.76144 0.51814 0.0
C326 C 0.52832 0.70964 0.51078 0.0
C327 C 0.4799 0.69377 0.50075 0.0
C328 C 0.46409 0.72877 0.49786 0.0
C329 C 0.49646 0.77985 0.50513 0.0
H330 H 0.63375 0.74994 0.56783 0.0
C331 C 0.63623 0.72952 0.55276 0.0
H332 H 0.62828 0.71774 0.5169 0.0
H333 H 0.64913 0.94473 0.54164 0.0
H334 H 0.73449 0.97233 0.55753 0.0
H335 H 0.76573 0.9119 0.5592 0.0
H336 H 0.71133 0.82335 0.54543 0.0
C337 C 0.62776 0.74008 0.53177 0.0
C338 C 0.61174 0.77795 0.52827 0.0
C339 C 0.64504 0.83006 0.5354 0.0
C340 C 0.62796 0.86534 0.53336 0.0
C341 C 0.66079 0.91662 0.54191 0.0
C342 C 0.70984 0.93295 0.55121 0.0
C343 C 0.72735 0.8989 0.55223 0.0
C344 C 0.69555 0.84805 0.54442 0.0
H345 H 0.72372 0.52514 0.86438 0.0
C346 C 0.72377 0.54943 0.85143 0.0
H347 H 0.76801 0.60108 0.82777 0.0
H348 H 0.96409 0.63931 0.8908 0.0
H349 H 0.97159 0.72255 0.89507 0.0
H350 H 0.90593 0.73717 0.87704 0.0
H351 H 0.8324 0.66869 0.85455 0.0
C352 C 0.76603 0.57574 0.84054 0.0
C353 C 0.8112 0.57075 0.84659 0.0
C354 C 0.85434 0.61137 0.85917 0.0
C355 C 0.89198 0.60282 0.86969 0.0
C356 C 0.93419 0.64373 0.88263 0.0
C357 C 0.939 0.69165 0.88516 0.0
C358 C 0.90203 0.69988 0.875 0.0
C359 C 0.86002 0.6603 0.86218 0.0
H360 H 0.9587 0.53283 0.856 0.0
C361 C 0.95441 0.53248 0.87425 0.0
H362 H 0.9129 0.54079 0.90038 0.0
H363 H 0.73979 0.48878 0.81895 0.0
H364 H 0.73257 0.40569 0.81417 0.0
H365 H 0.7948 0.38912 0.83416 0.0
H366 H 0.86499 0.45528 0.85873 0.0
C367 C 0.91958 0.54252 0.88241 0.0
C368 C 0.88642 0.55378 0.86751 0.0
C369 C 0.8453 0.51417 0.85338 0.0
C370 C 0.80825 0.52309 0.84252 0.0
C371 C 0.76802 0.48338 0.82815 0.0
C372 C 0.76358 0.4357 0.82515 0.0
C373 C 0.79873 0.4264 0.83637 0.0
C374 C 0.83907 0.46493 0.85039 0.0
H375 H 0.1971 0.77696 0.15286 0.0
C376 C 0.17127 0.76516 0.16638 0.0
H377 H 0.15918 0.78422 0.19966 0.0
H378 H 0.40952 0.91258 0.20169 0.0
H379 H 0.40254 0.82969 0.19885 0.0
H380 H 0.31864 0.75138 0.1929 0.0
H381 H 0.24153 0.75547 0.18946 0.0
C382 C 0.18415 0.79527 0.18583 0.0
C383 C 0.23471 0.84223 0.18995 0.0
C384 C 0.2794 0.83877 0.19252 0.0
C385 C 0.32763 0.88372 0.19673 0.0
C386 C 0.37182 0.87951 0.19878 0.0
C387 C 0.36839 0.83219 0.19719 0.0
C388 C 0.32119 0.78813 0.19378 0.0
C389 C 0.27712 0.79111 0.1916 0.0
H390 H 0.36662 0.97565 0.24075 0.0
C391 C 0.39481 0.99346 0.22844 0.0
H392 H 0.40699 0.99444 0.19316 0.0
H393 H 0.1567 0.86198 0.186 0.0
H394 H 0.16398 0.9451 0.19006 0.0
H395 H 0.24774 0.02289 0.19834 0.0
H396 H 0.32482 0.01808 0.20256 0.0
C397 C 0.38087 0.97755 0.20624 0.0
C398 C 0.33088 0.93167 0.19939 0.0
C399 C 0.28641 0.9352 0.19694 0.0
C400 C 0.23818 0.89036 0.19219 0.0
C401 C 0.19428 0.89487 0.18973 0.0
C402 C 0.19794 0.94232 0.19199 0.0
C403 C 0.24511 0.98613 0.19666 0.0
C404 C 0.28899 0.98286 0.1991 0.0
H405 H 0.54205 0.24084 0.54053 0.0
C406 C 0.51806 0.21639 0.5257 0.0
H407 H 0.46365 0.20655 0.49914 0.0
H408 H 0.43718 0.3617 0.56982 0.0
H409 H 0.35671 0.2841 0.57272 0.0
H410 H 0.33774 0.20348 0.55193 0.0
H411 H 0.39911 0.20013 0.52789 0.0
C412 C 0.48843 0.22969 0.51399 0.0
C413 C 0.49275 0.27914 0.52102 0.0
C414 C 0.45642 0.28059 0.53462 0.0
C415 C 0.46764 0.32695 0.54672 0.0
C416 C 0.4308 0.32735 0.5604 0.0
C417 C 0.38446 0.28312 0.56218 0.0
C418 C 0.37377 0.23771 0.55048 0.0
C419 C 0.40927 0.23622 0.53684 0.0
H420 H 0.53538 0.4611 0.53186 0.0
C421 C 0.53807 0.46124 0.55037 0.0
H422 H 0.53216 0.4174 0.57806 0.0
H423 H 0.56459 0.29058 0.49213 0.0
H424 H 0.64611 0.36716 0.48936 0.0
H425 H 0.67005 0.44588 0.51321 0.0
H426 H 0.61263 0.44894 0.53938 0.0
C427 C 0.52877 0.41844 0.55968 0.0
C428 C 0.51534 0.37149 0.54522 0.0
C429 C 0.5508 0.37042 0.53066 0.0
C430 C 0.53844 0.32449 0.51789 0.0
C431 C 0.5732 0.32435 0.50276 0.0
C432 C 0.6199 0.36797 0.50095 0.0
C433 C 0.63326 0.41231 0.5143 0.0
C434 C 0.59948 0.41367 0.52911 0.0
H435 H 0.36476 0.53402 0.8498 0.0
C436 C 0.37029 0.51367 0.83555 0.0
H437 H 0.33424 0.45891 0.80742 0.0
H438 H 0.12797 0.35467 0.85646 0.0
H439 H 0.14672 0.28638 0.85185 0.0
H440 H 0.22573 0.30098 0.83564 0.0
H441 H 0.28626 0.38373 0.82381 0.0
C442 C 0.32995 0.48076 0.82138 0.0
C443 C 0.27801 0.46925 0.82658 0.0
C444 C 0.24278 0.4204 0.83307 0.0
C445 C 0.1976 0.41218 0.84272 0.0
C446 C 0.16325 0.36317 0.84934 0.0
C447 C 0.17345 0.3236 0.84672 0.0
C448 C 0.2179 0.33181 0.83757 0.0
C449 C 0.25236 0.37957 0.83086 0.0
H450 H 0.09859 0.4487 0.83329 0.0
C451 C 0.10348 0.4439 0.8512 0.0
H452 H 0.14896 0.4392 0.87776 0.0
H453 H 0.33107 0.56303 0.81048 0.0
H454 H 0.312 0.63129 0.81455 0.0
H455 H 0.2367 0.61904 0.83363 0.0
H456 H 0.17958 0.53847 0.84834 0.0
C457 C 0.14591 0.44614 0.85996 0.0
C458 C 0.18785 0.45279 0.84592 0.0
C459 C 0.22116 0.50058 0.8378 0.0
C460 C 0.26575 0.5084 0.82766 0.0
C461 C 0.29773 0.55587 0.81907 0.0
C462 C 0.28704 0.59517 0.82116 0.0
C463 C 0.24456 0.58821 0.83184 0.0
C464 C 0.21193 0.54162 0.84015 0.0
H465 H 0.92422 0.36618 0.18591 0.0
C466 C 0.91008 0.38887 0.17823 0.0
H467 H 0.84537 0.39432 0.16904 0.0
H468 H 0.68074 0.16318 0.16435 0.0
H469 H 0.68288 0.17864 0.12435 0.0
H470 H 0.7493 0.25944 0.1113 0.0
H471 H 0.81378 0.32542 0.13826 0.0
C472 C 0.85995 0.37188 0.17659 0.0
C473 C 0.82251 0.32206 0.18457 0.0
C474 C 0.78567 0.28351 0.16854 0.0
C475 C 0.74798 0.2366 0.17603 0.0
C476 C 0.71083 0.19927 0.15966 0.0
C477 C 0.7115 0.20766 0.1366 0.0
C478 C 0.74884 0.25317 0.12926 0.0
C479 C 0.78557 0.29077 0.14495 0.0
H480 H 0.67333 0.21494 0.22642 0.0
C481 C 0.67065 0.17963 0.21996 0.0
H482 H 0.70145 0.14424 0.19995 0.0
H483 H 0.88437 0.38977 0.22035 0.0
H484 H 0.88534 0.37244 0.25997 0.0
H485 H 0.82445 0.28843 0.27243 0.0
H486 H 0.76178 0.22141 0.24521 0.0
C487 C 0.70612 0.17997 0.20721 0.0
C488 C 0.7475 0.22816 0.19953 0.0
C489 C 0.78534 0.26608 0.21549 0.0
C490 C 0.82209 0.31364 0.20811 0.0
C491 C 0.85715 0.35207 0.2247 0.0
C492 C 0.85781 0.34282 0.24761 0.0
C493 C 0.82345 0.29558 0.25463 0.0
C494 C 0.78749 0.25754 0.23884 0.0
H495 H 0.95858 0.51681 0.07038 0.0
C496 C 0.99741 0.54365 0.07706 0.0
H497 H 0.07266 0.59292 0.06888 0.0
H498 H 0.96205 0.43362 0.97528 0.0
H499 H 0.9547 0.36762 0.99881 0.0
H500 H 0.98054 0.38662 0.04006 0.0
H501 H 0.0127 0.47139 0.05807 0.0
C502 C 0.0339 0.56514 0.06252 0.0
C503 C 0.02226 0.55414 0.03736 0.0
C504 C 0.00582 0.50482 0.02695 0.0
C505 C 0.99364 0.49453 0.00296 0.0
C506 C 0.97414 0.44419 0.99323 0.0
C507 C 0.96935 0.40579 0.00658 0.0
C508 C 0.98369 0.41644 0.02981 0.0
C509 C 0.00176 0.46527 0.03996 0.0
H510 H 0.04918 0.50796 0.95996 0.0
C511 C 0.01986 0.5129 0.95132 0.0
H512 H 0.96072 0.52896 0.95602 0.0
H513 H 0.05249 0.65262 0.05187 0.0
H514 H 0.0632 0.71946 0.02806 0.0
H515 H 0.04599 0.70258 0.98625 0.0
H516 H 0.01763 0.61867 0.968 0.0
C517 C 0.99104 0.52475 0.96398 0.0
C518 C 0.00073 0.53427 0.98926 0.0
C519 C 0.01758 0.58362 0.99964 0.0
C520 C 0.02823 0.59353 0.02371 0.0
C521 C 0.04446 0.64307 0.03364 0.0
C522 C 0.05068 0.68181 0.02017 0.0
C523 C 0.04094 0.6723 0.99664 0.0
C524 C 0.0246 0.6239 0.98639 0.0
H525 H 0.56291 0.06272 0.40892 0.0
C526 C 0.54686 0.08223 0.41831 0.0
H527 H 0.5154 0.13006 0.41592 0.0
H528 H 0.61487 0.20019 0.32118 0.0
H529 H 0.66974 0.27617 0.34628 0.0
H530 H 0.66202 0.27659 0.38784 0.0
H531 H 0.59924 0.20116 0.40458 0.0
C532 C 0.52965 0.10839 0.40694 0.0
C533 C 0.53162 0.10948 0.38176 0.0
C534 C 0.56822 0.15394 0.37227 0.0
C535 C 0.57293 0.15361 0.34832 0.0
C536 C 0.60991 0.19842 0.33927 0.0
C537 C 0.6416 0.24223 0.35348 0.0
C538 C 0.63724 0.24247 0.37688 0.0
C539 C 0.60108 0.19895 0.38627 0.0
H540 H 0.47738 0.10604 0.30131 0.0
C541 C 0.50926 0.10488 0.29433 0.0
H542 H 0.57746 0.10486 0.30285 0.0
H543 H 0.45355 0.01977 0.39415 0.0
H544 H 0.40072 0.94302 0.36935 0.0
H545 H 0.41271 0.94049 0.32824 0.0
H546 H 0.47688 0.01477 0.31164 0.0
C547 C 0.54608 0.10815 0.30894 0.0
C548 C 0.541 0.10887 0.33396 0.0
C549 C 0.50437 0.0643 0.34349 0.0
C550 C 0.4989 0.06502 0.36733 0.0
C551 C 0.46051 0.02078 0.37627 0.0
C552 C 0.4297 0.97652 0.36221 0.0
C553 C 0.43634 0.97516 0.33906 0.0
C554 C 0.47318 0.01832 0.32972 0.0
H555 H 0.60151 0.56469 0.74291 0.0
C556 C 0.56404 0.55108 0.74901 0.0
H557 H 0.48668 0.52509 0.73991 0.0
H558 H 0.62926 0.63149 0.65196 0.0
H559 H 0.67082 0.70988 0.67639 0.0
H560 H 0.64584 0.71278 0.7155 0.0
H561 H 0.5805 0.63655 0.73061 0.0
C562 C 0.52434 0.53904 0.73402 0.0
C563 C 0.53015 0.54048 0.709 0.0
C564 C 0.56535 0.58622 0.69981 0.0
C565 C 0.57664 0.58543 0.67665 0.0
C566 C 0.61633 0.63045 0.66882 0.0
C567 C 0.64102 0.67574 0.68278 0.0
C568 C 0.6272 0.67731 0.70483 0.0
C569 C 0.58993 0.63318 0.71336 0.0
H570 H 0.54754 0.59566 0.62782 0.0
C571 C 0.55627 0.56644 0.6225 0.0
H572 H 0.57033 0.50903 0.63248 0.0
H573 H 0.45808 0.44659 0.72078 0.0
H574 H 0.4103 0.36996 0.69545 0.0
H575 H 0.42398 0.3703 0.65446 0.0
H576 H 0.48609 0.44711 0.63864 0.0
C577 C 0.56053 0.53743 0.63791 0.0
C578 C 0.54904 0.5398 0.66213 0.0
C579 C 0.51121 0.49492 0.67097 0.0
C580 C 0.50227 0.49507 0.69448 0.0
C581 C 0.46584 0.44907 0.703 0.0
C582 C 0.43812 0.40466 0.68864 0.0
C583 C 0.44588 0.40483 0.66558 0.0
C584 C 0.48188 0.44925 0.65675 0.0
H585 H 0.50857 0.01852 0.59884 0.0
C586 C 0.54235 0.04992 0.59278 0.0
H587 H 0.61437 0.11451 0.60212 0.0
H588 H 0.57076 0.15735 0.70154 0.0
H589 H 0.57752 0.22943 0.68309 0.0
H590 H 0.58312 0.23336 0.6415 0.0
H591 H 0.58249 0.16539 0.61815 0.0
C592 C 0.58081 0.08241 0.60791 0.0
C593 C 0.57665 0.07893 0.63297 0.0
C594 C 0.57638 0.11872 0.64636 0.0
C595 C 0.57201 0.1159 0.67026 0.0
C596 C 0.57297 0.15683 0.68325 0.0
C597 C 0.577 0.19864 0.67289 0.0
C598 C 0.58024 0.20089 0.64949 0.0
C599 C 0.57995 0.16157 0.63629 0.0
H600 H 0.63024 0.07017 0.71334 0.0
C601 C 0.59942 0.07343 0.72023 0.0
H602 H 0.53108 0.07325 0.71245 0.0
H603 H 0.58222 0.99896 0.61294 0.0
H604 H 0.5717 0.92498 0.63108 0.0
H605 H 0.55674 0.9167 0.6719 0.0
H606 H 0.55332 0.98291 0.69492 0.0
C607 C 0.56258 0.07094 0.70582 0.0
C608 C 0.56725 0.07296 0.68076 0.0
C609 C 0.5669 0.03284 0.66735 0.0
C610 C 0.5729 0.03642 0.64353 0.0
C611 C 0.57552 0.99725 0.63084 0.0
C612 C 0.5699 0.9547 0.64108 0.0
C613 C 0.56168 0.95013 0.66409 0.0
C614 C 0.56013 0.98859 0.67714 0.0
H615 H 0.54289 0.49929 0.93073 0.0
C616 C 0.5364 0.52758 0.92317 0.0
H617 H 0.52074 0.58696 0.92954 0.0
H618 H 0.46633 0.44978 0.0212 0.0
H619 H 0.39784 0.382 0.99645 0.0
H620 H 0.38582 0.39313 0.95585 0.0
H621 H 0.44306 0.47191 0.93969 0.0
C622 C 0.52616 0.55766 0.93666 0.0
C623 C 0.52665 0.55453 0.96186 0.0
C624 C 0.4912 0.50932 0.97132 0.0
C625 C 0.49667 0.50386 0.99499 0.0
C626 C 0.46291 0.4569 0.00359 0.0
C627 C 0.42351 0.41748 0.98952 0.0
C628 C 0.41685 0.42367 0.96665 0.0
C629 C 0.45018 0.46895 0.95756 0.0
H630 H 0.47878 0.53151 0.04484 0.0
C631 C 0.51452 0.5334 0.04971 0.0
H632 H 0.58128 0.53849 0.03786 0.0
H633 H 0.59807 0.64805 0.9496 0.0
H634 H 0.66319 0.71802 0.97481 0.0
H635 H 0.67043 0.70988 0.0161 0.0
H636 H 0.61272 0.63155 0.03243 0.0
C637 C 0.54605 0.53798 0.03352 0.0
C638 C 0.53613 0.54465 0.00932 0.0
C639 C 0.56939 0.59104 1.00011 0.0
C640 C 0.56474 0.59598 0.97635 0.0
C641 C 0.59947 0.64232 0.96755 0.0
C642 C 0.6371 0.68283 0.98183 0.0
C643 C 0.64121 0.67823 0.00507 0.0
C644 C 0.60792 0.63299 0.0142 0.0
H645 H 0.05963 0.62585 0.26214 0.0
C646 C 0.05922 0.59352 0.25326 0.0
H647 H 0.05802 0.52429 0.25692 0.0
H648 H 0.16011 0.64736 0.3585 0.0
H649 H 0.23454 0.69986 0.33857 0.0
H650 H 0.23195 0.68974 0.29661 0.0
H651 H 0.15481 0.62711 0.27434 0.0
C652 C 0.06096 0.55821 0.26542 0.0
C653 C 0.06333 0.56281 0.29078 0.0
C654 C 0.10886 0.59938 0.30355 0.0
C655 C 0.11042 0.6049 0.32774 0.0
C656 C 0.15653 0.64166 0.34008 0.0
C657 C 0.19967 0.67199 0.32886 0.0
C658 C 0.19821 0.66632 0.30524 0.0
C659 C 0.15354 0.63039 0.29265 0.0
H660 H 0.06017 0.50863 0.3697 0.0
C661 C 0.0687 0.54525 0.3777 0.0
H662 H 0.0766 0.61674 0.372 0.0
H663 H 0.9705 0.48834 0.27138 0.0
H664 H 0.89553 0.43638 0.29128 0.0
H665 H 0.89784 0.44685 0.3332 0.0
H666 H 0.97498 0.50945 0.35553 0.0
C667 C 0.06912 0.5802 0.36448 0.0
C668 C 0.06663 0.57344 0.33915 0.0
C669 C 0.02114 0.53669 0.32639 0.0
C670 C 0.01966 0.53106 0.30217 0.0
C671 C 0.97372 0.49422 0.2898 0.0
C672 C 0.93042 0.46414 0.30099 0.0
C673 C 0.93171 0.47005 0.32461 0.0
C674 C 0.97636 0.50594 0.33724 0.0
loop_
_geom_bond_atom_site_label_1
_geom_bond_atom_site_label_2
_geom_bond_distance
_geom_bond_site_symmetry_2
_ccdc_geom_bond_type
O0 Zn1 1.953 . S
O0 C16 1.225 . S
Zn1 O0 1.953 . S
Zn1 O2 1.949 . S
Zn1 O8 1.919 1_455 S
Zn1 O13 1.924 . S
O2 Zn1 1.949 . S
O2 Zn3 1.923 1_455 S
O2 Zn4 1.950 . S
O2 Zn5 1.945 . S
Zn3 O2 1.923 1_655 S
Zn3 O6 1.933 1_655 S
Zn3 O9 1.941 . S
Zn3 O10 1.965 . S
Zn4 O2 1.950 . S
Zn4 O11 1.938 1_455 S
Zn4 O12 1.906 . S
Zn4 O22 1.953 . S
Zn5 O2 1.945 . S
Zn5 O7 1.932 . S
Zn5 O14 1.977 . S
Zn5 O15 1.910 . S
O6 Zn3 1.933 1_455 S
O6 C17 1.226 . S
O7 Zn5 1.932 . S
O7 C17 1.307 . S
O8 Zn1 1.919 1_655 S
O8 C19 1.253 . S
O9 Zn3 1.941 . S
O9 C19 1.283 . S
O10 Zn3 1.965 . S
O10 C18 1.303 . S
O11 Zn4 1.938 1_655 S
O11 C18 1.247 . S
O12 Zn4 1.906 . S
O12 C20 1.304 . S
O13 Zn1 1.924 . S
O13 C21 1.311 . S
O14 Zn5 1.977 . S
O14 C20 1.272 . S
O15 Zn5 1.910 . S
O15 C21 1.231 . S
C16 O0 1.225 . S
C16 O22 1.298 . S
C17 O6 1.226 . S
C17 O7 1.307 . S
C18 O10 1.303 . S
C18 O11 1.247 . S
C19 O8 1.253 . S
C19 O9 1.283 . S
C20 O12 1.304 . S
C20 O14 1.272 . S
C21 O13 1.311 . S
C21 O15 1.231 . S
O22 Zn4 1.953 . S
O22 C16 1.298 . S
O23 Zn24 1.953 . S
O23 C39 1.225 . S
Zn24 O23 1.953 . S
Zn24 O25 1.949 . S
Zn24 O31 1.919 . S
Zn24 O36 1.924 . S
O25 Zn24 1.949 . S
O25 Zn26 1.923 . S
O25 Zn27 1.950 . S
O25 Zn28 1.945 1_545 S
Zn26 O25 1.923 . S
Zn26 O29 1.933 . S
Zn26 O32 1.941 . S
Zn26 O33 1.965 . S
Zn27 O25 1.950 . S
Zn27 O34 1.938 . S
Zn27 O35 1.906 1_545 S
Zn27 O45 1.953 . S
Zn28 O25 1.945 1_565 S
Zn28 O30 1.932 1_565 S
Zn28 O37 1.977 . S
Zn28 O38 1.910 . S
O29 Zn26 1.933 . S
O29 C40 1.226 . S
O30 Zn28 1.932 1_545 S
O30 C40 1.307 . S
O31 Zn24 1.919 . S
O31 C42 1.253 . S
O32 Zn26 1.941 . S
O32 C42 1.283 . S
O33 Zn26 1.965 . S
O33 C41 1.303 . S
O34 Zn27 1.938 . S
O34 C41 1.247 . S
O35 Zn27 1.906 1_565 S
O35 C43 1.304 . S
O36 Zn24 1.924 . S
O36 C44 1.311 1_545 S
O37 Zn28 1.977 . S
O37 C43 1.272 . S
O38 Zn28 1.910 . S
O38 C44 1.231 . S
C39 O23 1.225 . S
C39 O45 1.298 . S
C40 O29 1.226 . S
C40 O30 1.307 . S
C41 O33 1.303 . S
C41 O34 1.247 . S
C42 O31 1.253 . S
C42 O32 1.283 . S
C43 O35 1.304 . S
C43 O37 1.272 . S
C44 O36 1.311 1_565 S
C44 O38 1.231 . S
O45 Zn27 1.953 . S
O45 C39 1.298 . S
O46 Zn47 1.953 . S
O46 C62 1.225 . S
Zn47 O46 1.953 . S
Zn47 O48 1.949 . S
Zn47 O54 1.919 . S
Zn47 O59 1.924 . S
O48 Zn47 1.949 . S
O48 Zn49 1.923 . S
O48 Zn50 1.950 . S
O48 Zn51 1.945 . S
Zn49 O48 1.923 . S
Zn49 O52 1.933 . S
Zn49 O55 1.941 . S
Zn49 O56 1.965 . S
Zn50 O48 1.950 . S
Zn50 O57 1.938 . S
Zn50 O58 1.906 . S
Zn50 O68 1.953 . S
Zn51 O48 1.945 . S
Zn51 O53 1.932 . S
Zn51 O60 1.977 . S
Zn51 O61 1.910 . S
O52 Zn49 1.933 . S
O52 C63 1.226 . S
O53 Zn51 1.932 . S
O53 C63 1.307 . S
O54 Zn47 1.919 . S
O54 C65 1.253 . S
O55 Zn49 1.941 . S
O55 C65 1.283 . S
O56 Zn49 1.965 . S
O56 C64 1.303 . S
O57 Zn50 1.938 . S
O57 C64 1.247 . S
O58 Zn50 1.906 . S
O58 C66 1.304 . S
O59 Zn47 1.924 . S
O59 C67 1.311 . S
O60 Zn51 1.977 . S
O60 C66 1.272 . S
O61 Zn51 1.910 . S
O61 C67 1.231 . S
C62 O46 1.225 . S
C62 O68 1.298 . S
C63 O52 1.226 . S
C63 O53 1.307 . S
C64 O56 1.303 . S
C64 O57 1.247 . S
C65 O54 1.253 . S
C65 O55 1.283 . S
C66 O58 1.304 . S
C66 O60 1.272 . S
C67 O59 1.311 . S
C67 O61 1.231 . S
O68 Zn50 1.953 . S
O68 C62 1.298 . S
H69 C72 0.929 . S
H70 C75 0.929 . S
H71 C77 0.930 . S
C72 H69 0.929 . S
C72 C73 1.398 . S
C72 C74 1.396 . S
C73 C72 1.398 . S
C73 C77 1.407 . S
C74 C72 1.396 . S
C74 C75 1.394 . S
C75 H70 0.929 . S
C75 C74 1.394 . S
C75 C76 1.382 . S
C76 C75 1.382 . S
C76 C77 1.392 . S
C76 N78 1.420 . S
C77 H71 0.930 . S
C77 C73 1.407 . S
C77 C76 1.392 . S
N78 C76 1.420 . S
N78 C79 1.244 . S
C79 N78 1.244 . S
H80 C83 0.929 . S
H81 C86 0.929 . S
H82 C88 0.930 . S
C83 H80 0.929 . S
C83 C84 1.398 . S
C83 C85 1.396 . S
C84 C83 1.398 . S
C84 C88 1.407 . S
C85 C83 1.396 . S
C85 C86 1.394 . S
C86 H81 0.929 . S
C86 C85 1.394 . S
C86 C87 1.382 . S
C87 C86 1.382 . S
C87 C88 1.392 . S
C87 N89 1.420 . S
C88 H82 0.930 . S
C88 C84 1.407 . S
C88 C87 1.392 . S
N89 C87 1.420 . S
N89 C90 1.244 . S
C90 N89 1.244 . S
H91 C94 0.929 1_655 S
H92 C97 0.929 . S
H93 C99 0.930 . S
C94 H91 0.929 1_455 S
C94 C95 1.398 . S
C94 C96 1.396 . S
C95 C94 1.398 . S
C95 C99 1.407 . S
C96 C94 1.396 . S
C96 C97 1.394 . S
C97 H92 0.929 . S
C97 C96 1.394 . S
C97 C98 1.382 . S
C98 C97 1.382 . S
C98 C99 1.392 . S
C98 N100 1.420 . S
C99 H93 0.930 . S
C99 C95 1.407 . S
C99 C98 1.392 . S
N100 C98 1.420 . S
N100 C101 1.244 . S
C101 N100 1.244 . S
H102 C105 0.929 . S
H103 C108 0.929 1_655 S
H104 C110 0.930 . S
C105 H102 0.929 . S
C105 C106 1.398 . S
C105 C107 1.396 . S
C106 C105 1.398 . S
C106 C110 1.407 . S
C107 C105 1.396 . S
C107 C108 1.394 . S
C108 H103 0.929 1_455 S
C108 C107 1.394 . S
C108 C109 1.382 . S
C109 C108 1.382 . S
C109 C110 1.392 . S
C109 N111 1.420 1_455 S
C110 H104 0.930 . S
C110 C106 1.407 . S
C110 C109 1.392 . S
N111 C109 1.420 1_655 S
N111 C112 1.244 . S
C112 N111 1.244 . S
H113 C116 0.929 . S
H114 C119 0.929 1_565 S
H115 C121 0.930 . S
C116 H113 0.929 . S
C116 C117 1.398 . S
C116 C118 1.396 . S
C117 C116 1.398 . S
C117 C121 1.407 . S
C118 C116 1.396 . S
C118 C119 1.394 . S
C119 H114 0.929 1_545 S
C119 C118 1.394 . S
C119 C120 1.382 . S
C120 C119 1.382 . S
C120 C121 1.392 . S
C120 N122 1.420 1_545 S
C121 H115 0.930 . S
C121 C117 1.407 . S
C121 C120 1.392 . S
N122 C120 1.420 1_565 S
N122 C123 1.244 . S
C123 N122 1.244 . S
H124 C127 0.929 . S
H125 C130 0.929 . S
H126 C132 0.930 . S
C127 H124 0.929 . S
C127 C128 1.398 . S
C127 C129 1.396 . S
C128 C127 1.398 . S
C128 C132 1.407 . S
C129 C127 1.396 . S
C129 C130 1.394 . S
C130 H125 0.929 . S
C130 C129 1.394 . S
C130 C131 1.382 . S
C131 C130 1.382 . S
C131 C132 1.392 . S
C131 N133 1.420 . S
C132 H126 0.930 . S
C132 C128 1.407 . S
C132 C131 1.392 . S
N133 C131 1.420 . S
N133 C134 1.244 . S
C134 N133 1.244 . S
H135 C136 0.951 . S
C136 H135 0.951 . S
C136 C142 1.265 . S
H137 C142 0.950 . S
H138 C146 0.949 . S
H139 C147 0.950 . S
H140 C148 0.951 . S
H141 C149 0.951 . S
C142 C136 1.265 . S
C142 H137 0.950 . S
C142 C143 1.478 . S
C143 C142 1.478 . S
C143 C144 1.397 . S
C143 C160 1.394 . S
C144 C143 1.397 . S
C144 C145 1.438 . S
C144 C149 1.429 . S
C145 C144 1.438 . S
C145 C146 1.428 . S
C145 C158 1.394 . S
C146 H138 0.949 . S
C146 C145 1.428 . S
C146 C147 1.345 . S
C147 H139 0.950 . S
C147 C146 1.345 . S
C147 C148 1.424 . S
C148 H140 0.951 . S
C148 C147 1.424 . S
C148 C149 1.347 . S
C149 H141 0.951 . S
C149 C144 1.429 . S
C149 C148 1.347 . S
H150 C151 0.951 . S
C151 H150 0.951 . S
C151 C157 1.265 . S
H152 C157 0.950 . S
H153 C161 0.949 . S
H154 C162 0.950 . S
H155 C163 0.951 . S
H156 C164 0.951 . S
C157 C151 1.265 . S
C157 H152 0.950 . S
C157 C158 1.478 . S
C158 C145 1.394 . S
C158 C157 1.478 . S
C158 C159 1.397 . S
C159 C158 1.397 . S
C159 C160 1.438 . S
C159 C164 1.429 . S
C160 C143 1.394 . S
C160 C159 1.438 . S
C160 C161 1.428 . S
C161 H153 0.949 . S
C161 C160 1.428 . S
C161 C162 1.345 . S
C162 H154 0.950 . S
C162 C161 1.345 . S
C162 C163 1.424 . S
C163 H155 0.951 . S
C163 C162 1.424 . S
C163 C164 1.347 . S
C164 H156 0.951 . S
C164 C159 1.429 . S
C164 C163 1.347 . S
H165 C166 0.951 . S
C166 H165 0.951 . S
C166 C172 1.265 . S
H167 C172 0.950 . S
H168 C176 0.949 . S
H169 C177 0.950 . S
H170 C178 0.951 . S
H171 C179 0.951 . S
C172 C166 1.265 . S
C172 H167 0.950 . S
C172 C173 1.478 . S
C173 C172 1.478 . S
C173 C174 1.397 . S
C173 C190 1.394 . S
C174 C173 1.397 . S
C174 C175 1.438 . S
C174 C179 1.429 . S
C175 C174 1.438 . S
C175 C176 1.428 . S
C175 C188 1.394 . S
C176 H168 0.949 . S
C176 C175 1.428 . S
C176 C177 1.345 . S
C177 H169 0.950 . S
C177 C176 1.345 . S
C177 C178 1.424 . S
C178 H170 0.951 . S
C178 C177 1.424 . S
C178 C179 1.347 . S
C179 H171 0.951 . S
C179 C174 1.429 . S
C179 C178 1.347 . S
H180 C181 0.951 . S
C181 H180 0.951 . S
C181 C187 1.265 . S
H182 C187 0.950 . S
H183 C191 0.949 . S
H184 C192 0.950 . S
H185 C193 0.951 . S
H186 C194 0.951 . S
C187 C181 1.265 . S
C187 H182 0.950 . S
C187 C188 1.478 . S
C188 C175 1.394 . S
C188 C187 1.478 . S
C188 C189 1.397 . S
C189 C188 1.397 . S
C189 C190 1.438 . S
C189 C194 1.429 . S
C190 C173 1.394 . S
C190 C189 1.438 . S
C190 C191 1.428 . S
C191 H183 0.949 . S
C191 C190 1.428 . S
C191 C192 1.345 . S
C192 H184 0.950 . S
C192 C191 1.345 . S
C192 C193 1.424 . S
C193 H185 0.951 . S
C193 C192 1.424 . S
C193 C194 1.347 . S
C194 H186 0.951 . S
C194 C189 1.429 . S
C194 C193 1.347 . S
H195 C196 0.951 . S
C196 H195 0.951 . S
C196 C202 1.265 . S
H197 C202 0.950 . S
H198 C206 0.949 . S
H199 C207 0.950 . S
H200 C208 0.951 . S
H201 C209 0.951 . S
C202 C196 1.265 . S
C202 H197 0.950 . S
C202 C203 1.478 . S
C203 C202 1.478 . S
C203 C204 1.397 . S
C203 C220 1.394 . S
C204 C203 1.397 . S
C204 C205 1.438 . S
C204 C209 1.429 . S
C205 C204 1.438 . S
C205 C206 1.428 . S
C205 C218 1.394 . S
C206 H198 0.949 . S
C206 C205 1.428 . S
C206 C207 1.345 . S
C207 H199 0.950 . S
C207 C206 1.345 . S
C207 C208 1.424 . S
C208 H200 0.951 . S
C208 C207 1.424 . S
C208 C209 1.347 . S
C209 H201 0.951 . S
C209 C204 1.429 . S
C209 C208 1.347 . S
H210 C211 0.951 . S
C211 H210 0.951 . S
C211 C217 1.265 . S
H212 C217 0.950 . S
H213 C221 0.949 . S
H214 C222 0.950 . S
H215 C223 0.951 . S
H216 C224 0.951 . S
C217 C211 1.265 . S
C217 H212 0.950 . S
C217 C218 1.478 . S
C218 C205 1.394 . S
C218 C217 1.478 . S
C218 C219 1.397 . S
C219 C218 1.397 . S
C219 C220 1.438 . S
C219 C224 1.429 . S
C220 C203 1.394 . S
C220 C219 1.438 . S
C220 C221 1.428 . S
C221 H213 0.949 . S
C221 C220 1.428 . S
C221 C222 1.345 . S
C222 H214 0.950 . S
C222 C221 1.345 . S
C222 C223 1.424 . S
C223 H215 0.951 . S
C223 C222 1.424 . S
C223 C224 1.347 . S
C224 H216 0.951 . S
C224 C219 1.429 . S
C224 C223 1.347 . S
H225 C226 0.951 . S
C226 H225 0.951 . S
C226 C232 1.265 . S
H227 C232 0.950 . S
H228 C236 0.949 . S
H229 C237 0.950 . S
H230 C238 0.951 . S
H231 C239 0.951 . S
C232 C226 1.265 . S
C232 H227 0.950 . S
C232 C233 1.478 . S
C233 C232 1.478 . S
C233 C234 1.397 . S
C233 C250 1.394 . S
C234 C233 1.397 . S
C234 C235 1.438 . S
C234 C239 1.429 . S
C235 C234 1.438 . S
C235 C236 1.428 . S
C235 C248 1.394 . S
C236 H228 0.949 . S
C236 C235 1.428 . S
C236 C237 1.345 . S
C237 H229 0.950 . S
C237 C236 1.345 . S
C237 C238 1.424 . S
C238 H230 0.951 . S
C238 C237 1.424 . S
C238 C239 1.347 . S
C239 H231 0.951 . S
C239 C234 1.429 . S
C239 C238 1.347 . S
H240 C241 0.951 . S
C241 H240 0.951 . S
C241 C247 1.265 . S
H242 C247 0.950 . S
H243 C251 0.949 . S
H244 C252 0.950 . S
H245 C253 0.951 . S
H246 C254 0.951 . S
C247 C241 1.265 . S
C247 H242 0.950 . S
C247 C248 1.478 . S
C248 C235 1.394 . S
C248 C247 1.478 . S
C248 C249 1.397 . S
C249 C248 1.397 . S
C249 C250 1.438 . S
C249 C254 1.429 . S
C250 C233 1.394 . S
C250 C249 1.438 . S
C250 C251 1.428 . S
C251 H243 0.949 . S
C251 C250 1.428 . S
C251 C252 1.345 . S
C252 H244 0.950 . S
C252 C251 1.345 . S
C252 C253 1.424 . S
C253 H245 0.951 . S
C253 C252 1.424 . S
C253 C254 1.347 . S
C254 H246 0.951 . S
C254 C249 1.429 . S
C254 C253 1.347 . S
H255 C256 0.951 . S
C256 H255 0.951 . S
C256 C262 1.265 . S
H257 C262 0.950 . S
H258 C266 0.949 . S
H259 C267 0.950 . S
H260 C268 0.951 . S
H261 C269 0.951 . S
C262 C256 1.265 . S
C262 H257 0.950 . S
C262 C263 1.478 . S
C263 C262 1.478 . S
C263 C264 1.397 . S
C263 C280 1.394 . S
C264 C263 1.397 . S
C264 C265 1.438 . S
C264 C269 1.429 . S
C265 C264 1.438 . S
C265 C266 1.428 . S
C265 C278 1.394 . S
C266 H258 0.949 . S
C266 C265 1.428 . S
C266 C267 1.345 . S
C267 H259 0.950 . S
C267 C266 1.345 . S
C267 C268 1.424 . S
C268 H260 0.951 . S
C268 C267 1.424 . S
C268 C269 1.347 . S
C269 H261 0.951 . S
C269 C264 1.429 . S
C269 C268 1.347 . S
H270 C271 0.951 . S
C271 H270 0.951 . S
C271 C277 1.265 . S
H272 C277 0.950 . S
H273 C281 0.949 . S
H274 C282 0.950 . S
H275 C283 0.951 . S
H276 C284 0.951 . S
C277 C271 1.265 . S
C277 H272 0.950 . S
C277 C278 1.478 . S
C278 C265 1.394 . S
C278 C277 1.478 . S
C278 C279 1.397 . S
C279 C278 1.397 . S
C279 C280 1.438 . S
C279 C284 1.429 . S
C280 C263 1.394 . S
C280 C279 1.438 . S
C280 C281 1.428 . S
C281 H273 0.949 . S
C281 C280 1.428 . S
C281 C282 1.345 . S
C282 H274 0.950 . S
C282 C281 1.345 . S
C282 C283 1.424 . S
C283 H275 0.951 . S
C283 C282 1.424 . S
C283 C284 1.347 . S
C284 H276 0.951 . S
C284 C279 1.429 . S
C284 C283 1.347 . S
H285 C286 0.951 . S
C286 H285 0.951 . S
C286 C292 1.265 . S
H287 C292 0.950 . S
H288 C296 0.949 . S
H289 C297 0.950 . S
H290 C298 0.951 . S
H291 C299 0.951 . S
C292 C286 1.265 . S
C292 H287 0.950 . S
C292 C293 1.478 . S
C293 C292 1.478 . S
C293 C294 1.397 . S
C293 C310 1.394 . S
C294 C293 1.397 . S
C294 C295 1.438 . S
C294 C299 1.429 . S
C295 C294 1.438 . S
C295 C296 1.428 . S
C295 C308 1.394 . S
C296 H288 0.949 . S
C296 C295 1.428 . S
C296 C297 1.345 . S
C297 H289 0.950 . S
C297 C296 1.345 . S
C297 C298 1.424 . S
C298 H290 0.951 . S
C298 C297 1.424 . S
C298 C299 1.347 . S
C299 H291 0.951 . S
C299 C294 1.429 . S
C299 C298 1.347 . S
H300 C301 0.951 . S
C301 H300 0.951 . S
C301 C307 1.265 . S
H302 C307 0.950 . S
H303 C311 0.949 . S
H304 C312 0.950 . S
H305 C313 0.951 . S
H306 C314 0.951 . S
C307 C301 1.265 . S
C307 H302 0.950 . S
C307 C308 1.478 . S
C308 C295 1.394 . S
C308 C307 1.478 . S
C308 C309 1.397 . S
C309 C308 1.397 . S
C309 C310 1.438 . S
C309 C314 1.429 . S
C310 C293 1.394 . S
C310 C309 1.438 . S
C310 C311 1.428 . S
C311 H303 0.949 . S
C311 C310 1.428 . S
C311 C312 1.345 . S
C312 H304 0.950 . S
C312 C311 1.345 . S
C312 C313 1.424 . S
C313 H305 0.951 . S
C313 C312 1.424 . S
C313 C314 1.347 . S
C314 H306 0.951 . S
C314 C309 1.429 . S
C314 C313 1.347 . S
H315 C316 0.951 . S
C316 H315 0.951 . S
C316 C322 1.265 . S
H317 C322 0.950 . S
H318 C326 0.949 . S
H319 C327 0.950 . S
H320 C328 0.951 . S
H321 C329 0.951 . S
C322 C316 1.265 . S
C322 H317 0.950 . S
C322 C323 1.478 . S
C323 C322 1.478 . S
C323 C324 1.397 . S
C323 C340 1.394 . S
C324 C323 1.397 . S
C324 C325 1.438 . S
C324 C329 1.429 . S
C325 C324 1.438 . S
C325 C326 1.428 . S
C325 C338 1.394 . S
C326 H318 0.949 . S
C326 C325 1.428 . S
C326 C327 1.345 . S
C327 H319 0.950 . S
C327 C326 1.345 . S
C327 C328 1.424 . S
C328 H320 0.951 . S
C328 C327 1.424 . S
C328 C329 1.347 . S
C329 H321 0.951 . S
C329 C324 1.429 . S
C329 C328 1.347 . S
H330 C331 0.951 . S
C331 H330 0.951 . S
C331 C337 1.265 . S
H332 C337 0.950 . S
H333 C341 0.949 . S
H334 C342 0.950 . S
H335 C343 0.951 . S
H336 C344 0.951 . S
C337 C331 1.265 . S
C337 H332 0.950 . S
C337 C338 1.478 . S
C338 C325 1.394 . S
C338 C337 1.478 . S
C338 C339 1.397 . S
C339 C338 1.397 . S
C339 C340 1.438 . S
C339 C344 1.429 . S
C340 C323 1.394 . S
C340 C339 1.438 . S
C340 C341 1.428 . S
C341 H333 0.949 . S
C341 C340 1.428 . S
C341 C342 1.345 . S
C342 H334 0.950 . S
C342 C341 1.345 . S
C342 C343 1.424 . S
C343 H335 0.951 . S
C343 C342 1.424 . S
C343 C344 1.347 . S
C344 H336 0.951 . S
C344 C339 1.429 . S
C344 C343 1.347 . S
H345 C346 0.951 . S
C346 H345 0.951 . S
C346 C352 1.265 . S
H347 C352 0.950 . S
H348 C356 0.949 . S
H349 C357 0.950 1_455 S
H350 C358 0.951 . S
H351 C359 0.951 . S
C352 C346 1.265 . S
C352 H347 0.950 . S
C352 C353 1.478 . S
C353 C352 1.478 . S
C353 C354 1.397 . S
C353 C370 1.394 . S
C354 C353 1.397 . S
C354 C355 1.438 . S
C354 C359 1.429 . S
C355 C354 1.438 . S
C355 C356 1.428 . S
C355 C368 1.394 . S
C356 H348 0.949 . S
C356 C355 1.428 . S
C356 C357 1.345 . S
C357 H349 0.950 1_655 S
C357 C356 1.345 . S
C357 C358 1.424 . S
C358 H350 0.951 . S
C358 C357 1.424 . S
C358 C359 1.347 . S
C359 H351 0.951 . S
C359 C354 1.429 . S
C359 C358 1.347 . S
H360 C361 0.951 . S
C361 H360 0.951 . S
C361 C367 1.265 . S
H362 C367 0.950 . S
H363 C371 0.949 . S
H364 C372 0.950 . S
H365 C373 0.951 . S
H366 C374 0.951 . S
C367 C361 1.265 . S
C367 H362 0.950 . S
C367 C368 1.478 . S
C368 C355 1.394 . S
C368 C367 1.478 . S
C368 C369 1.397 . S
C369 C368 1.397 . S
C369 C370 1.438 . S
C369 C374 1.429 . S
C370 C353 1.394 . S
C370 C369 1.438 . S
C370 C371 1.428 . S
C371 H363 0.949 . S
C371 C370 1.428 . S
C371 C372 1.345 . S
C372 H364 0.950 . S
C372 C371 1.345 . S
C372 C373 1.424 . S
C373 H365 0.951 . S
C373 C372 1.424 . S
C373 C374 1.347 . S
C374 H366 0.951 . S
C374 C369 1.429 . S
C374 C373 1.347 . S
H375 C376 0.951 . S
C376 H375 0.951 . S
C376 C382 1.265 . S
H377 C382 0.950 . S
H378 C386 0.949 . S
H379 C387 0.950 . S
H380 C388 0.951 . S
H381 C389 0.951 . S
C382 C376 1.265 . S
C382 H377 0.950 . S
C382 C383 1.478 . S
C383 C382 1.478 . S
C383 C384 1.397 . S
C383 C400 1.394 . S
C384 C383 1.397 . S
C384 C385 1.438 . S
C384 C389 1.429 . S
C385 C384 1.438 . S
C385 C386 1.428 . S
C385 C398 1.394 . S
C386 H378 0.949 . S
C386 C385 1.428 . S
C386 C387 1.345 . S
C387 H379 0.950 . S
C387 C386 1.345 . S
C387 C388 1.424 . S
C388 H380 0.951 . S
C388 C387 1.424 . S
C388 C389 1.347 . S
C389 H381 0.951 . S
C389 C384 1.429 . S
C389 C388 1.347 . S
H390 C391 0.951 . S
C391 H390 0.951 . S
C391 C397 1.265 . S
H392 C397 0.950 . S
H393 C401 0.949 . S
H394 C402 0.950 . S
H395 C403 0.951 1_545 S
H396 C404 0.951 . S
C397 C391 1.265 . S
C397 H392 0.950 . S
C397 C398 1.478 . S
C398 C385 1.394 . S
C398 C397 1.478 . S
C398 C399 1.397 . S
C399 C398 1.397 . S
C399 C400 1.438 . S
C399 C404 1.429 . S
C400 C383 1.394 . S
C400 C399 1.438 . S
C400 C401 1.428 . S
C401 H393 0.949 . S
C401 C400 1.428 . S
C401 C402 1.345 . S
C402 H394 0.950 . S
C402 C401 1.345 . S
C402 C403 1.424 . S
C403 H395 0.951 1_565 S
C403 C402 1.424 . S
C403 C404 1.347 . S
C404 H396 0.951 . S
C404 C399 1.429 . S
C404 C403 1.347 . S
H405 C406 0.951 . S
C406 H405 0.951 . S
C406 C412 1.265 . S
H407 C412 0.950 . S
H408 C416 0.949 . S
H409 C417 0.950 . S
H410 C418 0.951 . S
H411 C419 0.951 . S
C412 C406 1.265 . S
C412 H407 0.950 . S
C412 C413 1.478 . S
C413 C412 1.478 . S
C413 C414 1.397 . S
C413 C430 1.394 . S
C414 C413 1.397 . S
C414 C415 1.438 . S
C414 C419 1.429 . S
C415 C414 1.438 . S
C415 C416 1.428 . S
C415 C428 1.394 . S
C416 H408 0.949 . S
C416 C415 1.428 . S
C416 C417 1.345 . S
C417 H409 0.950 . S
C417 C416 1.345 . S
C417 C418 1.424 . S
C418 H410 0.951 . S
C418 C417 1.424 . S
C418 C419 1.347 . S
C419 H411 0.951 . S
C419 C414 1.429 . S
C419 C418 1.347 . S
H420 C421 0.951 . S
C421 H420 0.951 . S
C421 C427 1.265 . S
H422 C427 0.950 . S
H423 C431 0.949 . S
H424 C432 0.950 . S
H425 C433 0.951 . S
H426 C434 0.951 . S
C427 C421 1.265 . S
C427 H422 0.950 . S
C427 C428 1.478 . S
C428 C415 1.394 . S
C428 C427 1.478 . S
C428 C429 1.397 . S
C429 C428 1.397 . S
C429 C430 1.438 . S
C429 C434 1.429 . S
C430 C413 1.394 . S
C430 C429 1.438 . S
C430 C431 1.428 . S
C431 H423 0.949 . S
C431 C430 1.428 . S
C431 C432 1.345 . S
C432 H424 0.950 . S
C432 C431 1.345 . S
C432 C433 1.424 . S
C433 H425 0.951 . S
C433 C432 1.424 . S
C433 C434 1.347 . S
C434 H426 0.951 . S
C434 C429 1.429 . S
C434 C433 1.347 . S
H435 C436 0.951 . S
C436 H435 0.951 . S
C436 C442 1.265 . S
H437 C442 0.950 . S
H438 C446 0.949 . S
H439 C447 0.950 . S
H440 C448 0.951 . S
H441 C449 0.951 . S
C442 C436 1.265 . S
C442 H437 0.950 . S
C442 C443 1.478 . S
C443 C442 1.478 . S
C443 C444 1.397 . S
C443 C460 1.394 . S
C444 C443 1.397 . S
C444 C445 1.438 . S
C444 C449 1.429 . S
C445 C444 1.438 . S
C445 C446 1.428 . S
C445 C458 1.394 . S
C446 H438 0.949 . S
C446 C445 1.428 . S
C446 C447 1.345 . S
C447 H439 0.950 . S
C447 C446 1.345 . S
C447 C448 1.424 . S
C448 H440 0.951 . S
C448 C447 1.424 . S
C448 C449 1.347 . S
C449 H441 0.951 . S
C449 C444 1.429 . S
C449 C448 1.347 . S
H450 C451 0.951 . S
C451 H450 0.951 . S
C451 C457 1.265 . S
H452 C457 0.950 . S
H453 C461 0.949 . S
H454 C462 0.950 . S
H455 C463 0.951 . S
H456 C464 0.951 . S
C457 C451 1.265 . S
C457 H452 0.950 . S
C457 C458 1.478 . S
C458 C445 1.394 . S
C458 C457 1.478 . S
C458 C459 1.397 . S
C459 C458 1.397 . S
C459 C460 1.438 . S
C459 C464 1.429 . S
C460 C443 1.394 . S
C460 C459 1.438 . S
C460 C461 1.428 . S
C461 H453 0.949 . S
C461 C460 1.428 . S
C461 C462 1.345 . S
C462 H454 0.950 . S
C462 C461 1.345 . S
C462 C463 1.424 . S
C463 H455 0.951 . S
C463 C462 1.424 . S
C463 C464 1.347 . S
C464 H456 0.951 . S
C464 C459 1.429 . S
C464 C463 1.347 . S
H465 C466 0.951 . S
C466 H465 0.951 . S
C466 C472 1.265 . S
H467 C472 0.950 . S
H468 C476 0.949 . S
H469 C477 0.950 . S
H470 C478 0.951 . S
H471 C479 0.951 . S
C472 C466 1.265 . S
C472 H467 0.950 . S
C472 C473 1.478 . S
C473 C472 1.478 . S
C473 C474 1.397 . S
C473 C490 1.394 . S
C474 C473 1.397 . S
C474 C475 1.438 . S
C474 C479 1.429 . S
C475 C474 1.438 . S
C475 C476 1.428 . S
C475 C488 1.394 . S
C476 H468 0.949 . S
C476 C475 1.428 . S
C476 C477 1.345 . S
C477 H469 0.950 . S
C477 C476 1.345 . S
C477 C478 1.424 . S
C478 H470 0.951 . S
C478 C477 1.424 . S
C478 C479 1.347 . S
C479 H471 0.951 . S
C479 C474 1.429 . S
C479 C478 1.347 . S
H480 C481 0.951 . S
C481 H480 0.951 . S
C481 C487 1.265 . S
H482 C487 0.950 . S
H483 C491 0.949 . S
H484 C492 0.950 . S
H485 C493 0.951 . S
H486 C494 0.951 . S
C487 C481 1.265 . S
C487 H482 0.950 . S
C487 C488 1.478 . S
C488 C475 1.394 . S
C488 C487 1.478 . S
C488 C489 1.397 . S
C489 C488 1.397 . S
C489 C490 1.438 . S
C489 C494 1.429 . S
C490 C473 1.394 . S
C490 C489 1.438 . S
C490 C491 1.428 . S
C491 H483 0.949 . S
C491 C490 1.428 . S
C491 C492 1.345 . S
C492 H484 0.950 . S
C492 C491 1.345 . S
C492 C493 1.424 . S
C493 H485 0.951 . S
C493 C492 1.424 . S
C493 C494 1.347 . S
C494 H486 0.951 . S
C494 C489 1.429 . S
C494 C493 1.347 . S
H495 C496 0.951 . S
C496 H495 0.951 . S
C496 C502 1.265 . S
H497 C502 0.950 . S
H498 C506 0.949 . S
H499 C507 0.950 1_556 S
H500 C508 0.951 . S
H501 C509 0.951 . S
C502 C496 1.265 . S
C502 H497 0.950 . S
C502 C503 1.478 . S
C503 C502 1.478 . S
C503 C504 1.397 . S
C503 C520 1.394 . S
C504 C503 1.397 . S
C504 C505 1.438 . S
C504 C509 1.429 . S
C505 C504 1.438 . S
C505 C506 1.428 1_554 S
C505 C518 1.394 1_554 S
C506 H498 0.949 . S
C506 C505 1.428 1_556 S
C506 C507 1.345 1_456 S
C507 H499 0.950 1_554 S
C507 C506 1.345 1_654 S
C507 C508 1.424 . S
C508 H500 0.951 . S
C508 C507 1.424 . S
C508 C509 1.347 1_655 S
C509 H501 0.951 . S
C509 C504 1.429 . S
C509 C508 1.347 1_455 S
H510 C511 0.951 . S
C511 H510 0.951 . S
C511 C517 1.265 . S
H512 C517 0.950 . S
H513 C521 0.949 . S
H514 C522 0.950 . S
H515 C523 0.931 1_556 S
H516 C524 0.951 . S
C517 C511 1.265 . S
C517 H512 0.950 . S
C517 C518 1.478 . S
C518 C505 1.394 1_556 S
C518 C517 1.478 . S
C518 C519 1.397 1_556 S
C519 C518 1.397 1_554 S
C519 C520 1.438 . S
C519 C524 1.429 1_554 S
C520 C503 1.394 . S
C520 C519 1.438 . S
C520 C521 1.428 . S
C521 H513 0.949 . S
C521 C520 1.428 . S
C521 C522 1.345 . S
C522 H514 0.950 . S
C522 C521 1.345 . S
C522 C523 1.424 . S
C523 H515 0.931 1_554 S
C523 C522 1.424 . S
C523 C524 1.347 1_554 S
C524 H516 0.951 . S
C524 C519 1.429 1_556 S
C524 C523 1.347 1_556 S
H525 C526 0.951 . S
C526 H525 0.951 . S
C526 C532 1.265 . S
H527 C532 0.950 . S
H528 C536 0.949 . S
H529 C537 0.950 . S
H530 C538 0.951 . S
H531 C539 0.951 . S
C532 C526 1.265 . S
C532 H527 0.950 . S
C532 C533 1.478 . S
C533 C532 1.478 . S
C533 C534 1.397 . S
C533 C550 1.394 . S
C534 C533 1.397 . S
C534 C535 1.438 . S
C534 C539 1.429 . S
C535 C534 1.438 . S
C535 C536 1.428 . S
C535 C548 1.394 . S
C536 H528 0.949 . S
C536 C535 1.428 . S
C536 C537 1.345 . S
C537 H529 0.950 . S
C537 C536 1.345 . S
C537 C538 1.424 . S
C538 H530 0.951 . S
C538 C537 1.424 . S
C538 C539 1.347 . S
C539 H531 0.951 . S
C539 C534 1.429 . S
C539 C538 1.347 . S
H540 C541 0.951 . S
C541 H540 0.951 . S
C541 C547 1.265 . S
H542 C547 0.950 . S
H543 C551 0.949 . S
H544 C552 0.950 . S
H545 C553 0.951 . S
H546 C554 0.951 . S
C547 C541 1.265 . S
C547 H542 0.950 . S
C547 C548 1.478 . S
C548 C535 1.394 . S
C548 C547 1.478 . S
C548 C549 1.397 . S
C549 C548 1.397 . S
C549 C550 1.438 . S
C549 C554 1.429 1_545 S
C550 C533 1.394 . S
C550 C549 1.438 . S
C550 C551 1.428 1_545 S
C551 H543 0.949 . S
C551 C550 1.428 1_565 S
C551 C552 1.345 . S
C552 H544 0.950 . S
C552 C551 1.345 . S
C552 C553 1.424 . S
C553 H545 0.951 . S
C553 C552 1.424 . S
C553 C554 1.347 . S
C554 H546 0.951 . S
C554 C549 1.429 1_565 S
C554 C553 1.347 . S
H555 C556 0.951 . S
C556 H555 0.951 . S
C556 C562 1.265 . S
H557 C562 0.950 . S
H558 C566 0.949 . S
H559 C567 0.950 . S
H560 C568 0.951 . S
H561 C569 0.951 . S
C562 C556 1.265 . S
C562 H557 0.950 . S
C562 C563 1.478 . S
C563 C562 1.478 . S
C563 C564 1.397 . S
C563 C580 1.394 . S
C564 C563 1.397 . S
C564 C565 1.438 . S
C564 C569 1.429 . S
C565 C564 1.438 . S
C565 C566 1.428 . S
C565 C578 1.394 . S
C566 H558 0.949 . S
C566 C565 1.428 . S
C566 C567 1.345 . S
C567 H559 0.950 . S
C567 C566 1.345 . S
C567 C568 1.424 . S
C568 H560 0.951 . S
C568 C567 1.424 . S
C568 C569 1.347 . S
C569 H561 0.951 . S
C569 C564 1.429 . S
C569 C568 1.347 . S
H570 C571 0.951 . S
C571 H570 0.951 . S
C571 C577 1.265 . S
H572 C577 0.950 . S
H573 C581 0.949 . S
H574 C582 0.950 . S
H575 C583 0.951 . S
H576 C584 0.951 . S
C577 C571 1.265 . S
C577 H572 0.950 . S
C577 C578 1.478 . S
C578 C565 1.394 . S
C578 C577 1.478 . S
C578 C579 1.397 . S
C579 C578 1.397 . S
C579 C580 1.438 . S
C579 C584 1.429 . S
C580 C563 1.394 . S
C580 C579 1.438 . S
C580 C581 1.428 . S
C581 H573 0.949 . S
C581 C580 1.428 . S
C581 C582 1.345 . S
C582 H574 0.950 . S
C582 C581 1.345 . S
C582 C583 1.424 . S
C583 H575 0.951 . S
C583 C582 1.424 . S
C583 C584 1.347 . S
C584 H576 0.951 . S
C584 C579 1.429 . S
C584 C583 1.347 . S
H585 C586 0.951 . S
C586 H585 0.951 . S
C586 C592 1.265 . S
H587 C592 0.950 . S
H588 C596 0.949 . S
H589 C597 0.950 . S
H590 C598 0.951 . S
H591 C599 0.951 . S
C592 C586 1.265 . S
C592 H587 0.950 . S
C592 C593 1.478 . S
C593 C592 1.478 . S
C593 C594 1.397 . S
C593 C610 1.394 . S
C594 C593 1.397 . S
C594 C595 1.438 . S
C594 C599 1.429 . S
C595 C594 1.438 . S
C595 C596 1.428 . S
C595 C608 1.394 . S
C596 H588 0.949 . S
C596 C595 1.428 . S
C596 C597 1.345 . S
C597 H589 0.950 . S
C597 C596 1.345 . S
C597 C598 1.424 . S
C598 H590 0.951 . S
C598 C597 1.424 . S
C598 C599 1.347 . S
C599 H591 0.951 . S
C599 C594 1.429 . S
C599 C598 1.347 . S
H600 C601 0.951 . S
C601 H600 0.951 . S
C601 C607 1.265 . S
H602 C607 0.950 . S
H603 C611 0.949 . S
H604 C612 0.950 . S
H605 C613 0.951 . S
H606 C614 0.951 . S
C607 C601 1.265 . S
C607 H602 0.950 . S
C607 C608 1.478 . S
C608 C595 1.394 . S
C608 C607 1.478 . S
C608 C609 1.397 . S
C609 C608 1.397 . S
C609 C610 1.438 . S
C609 C614 1.429 1_545 S
C610 C593 1.394 . S
C610 C609 1.438 . S
C610 C611 1.428 1_545 S
C611 H603 0.949 . S
C611 C610 1.428 1_565 S
C611 C612 1.345 . S
C612 H604 0.950 . S
C612 C611 1.345 . S
C612 C613 1.424 . S
C613 H605 0.951 . S
C613 C612 1.424 . S
C613 C614 1.347 . S
C614 H606 0.951 . S
C614 C609 1.429 1_565 S
C614 C613 1.347 . S
H615 C616 0.951 . S
C616 H615 0.951 . S
C616 C622 1.265 . S
H617 C622 0.950 . S
H618 C626 0.949 . S
H619 C627 0.950 1_554 S
H620 C628 0.951 . S
H621 C629 0.951 . S
C622 C616 1.265 . S
C622 H617 0.950 . S
C622 C623 1.478 . S
C623 C622 1.478 . S
C623 C624 1.397 . S
C623 C640 1.394 . S
C624 C623 1.397 . S
C624 C625 1.438 . S
C624 C629 1.429 . S
C625 C624 1.438 . S
C625 C626 1.428 1_556 S
C625 C638 1.394 1_556 S
C626 H618 0.949 . S
C626 C625 1.428 1_554 S
C626 C627 1.345 1_554 S
C627 H619 0.950 1_556 S
C627 C626 1.345 1_556 S
C627 C628 1.424 . S
C628 H620 0.951 . S
C628 C627 1.424 . S
C628 C629 1.347 . S
C629 H621 0.951 . S
C629 C624 1.429 . S
C629 C628 1.347 . S
H630 C631 0.951 . S
C631 H630 0.951 . S
C631 C637 1.265 . S
H632 C637 0.950 . S
H633 C641 0.949 . S
H634 C642 0.950 . S
H635 C643 0.951 1_554 S
H636 C644 0.951 . S
C637 C631 1.265 . S
C637 H632 0.950 . S
C637 C638 1.478 . S
C638 C625 1.394 1_554 S
C638 C637 1.478 . S
C638 C639 1.397 1_554 S
C639 C638 1.397 1_556 S
C639 C640 1.438 . S
C639 C644 1.429 1_556 S
C640 C623 1.394 . S
C640 C639 1.438 . S
C640 C641 1.428 . S
C641 H633 0.949 . S
C641 C640 1.428 . S
C641 C642 1.345 . S
C642 H634 0.950 . S
C642 C641 1.345 . S
C642 C643 1.424 . S
C643 H635 0.951 1_556 S
C643 C642 1.424 . S
C643 C644 1.347 1_556 S
C644 H636 0.951 . S
C644 C639 1.429 1_554 S
C644 C643 1.347 1_554 S
H645 C646 0.951 . S
C646 H645 0.951 . S
C646 C652 1.265 . S
H647 C652 0.950 . S
H648 C656 0.949 . S
H649 C657 0.950 . S
H650 C658 0.951 . S
H651 C659 0.951 . S
C652 C646 1.265 . S
C652 H647 0.950 . S
C652 C653 1.478 . S
C653 C652 1.478 . S
C653 C654 1.397 . S
C653 C670 1.394 . S
C654 C653 1.397 . S
C654 C655 1.438 . S
C654 C659 1.429 . S
C655 C654 1.438 . S
C655 C656 1.428 . S
C655 C668 1.394 . S
C656 H648 0.949 . S
C656 C655 1.428 . S
C656 C657 1.345 . S
C657 H649 0.950 . S
C657 C656 1.345 . S
C657 C658 1.424 . S
C658 H650 0.951 . S
C658 C657 1.424 . S
C658 C659 1.347 . S
C659 H651 0.951 . S
C659 C654 1.429 . S
C659 C658 1.347 . S
H660 C661 0.951 . S
C661 H660 0.951 . S
C661 C667 1.265 . S
H662 C667 0.950 1_655 S
H663 C671 0.949 . S
H664 C672 0.950 . S
H665 C673 0.951 . S
H666 C674 0.951 . S
C667 C661 1.265 . S
C667 H662 0.950 1_455 S
C667 C668 1.478 . S
C668 C655 1.394 . S
C668 C667 1.478 . S
C668 C669 1.397 . S
C669 C668 1.397 . S
C669 C670 1.438 . S
C669 C674 1.429 1_455 S
C670 C653 1.394 . S
C670 C669 1.438 . S
C670 C671 1.428 1_455 S
C671 H663 0.949 . S
C671 C670 1.428 1_655 S
C671 C672 1.345 . S
C672 H664 0.950 . S
C672 C671 1.345 . S
C672 C673 1.424 . S
C673 H665 0.951 . S
C673 C672 1.424 . S
C673 C674 1.347 . S
C674 H666 0.951 . S
C674 C669 1.429 1_655 S
C674 C673 1.347 . S
C136 C20 1.279 . S
C151 C134 1.310 . S
C166 C41 1.295 . S
C181 C112 1.264 . S
C196 C64 1.311 . S
C211 C123 1.293 . S
C226 C19 1.246 . S
C241 C128 1.287 . S
C271 C106 1.262 . S
C256 C44 1.237 . S
C301 C117 1.233 . S
C286 C67 1.218 . S
C316 C43 1.296 . S
C331 C90 1.260 . S
C346 C66 1.169 . S
C361 C95 1.228 1_655 S
C376 C21 1.243 . S
C391 C73 1.242 1_565 S
C421 C84 1.290 . S
C406 C42 1.204 . S
C451 C101 1.330 . S
C436 C65 1.278 . S
C466 C18 1.291 . S
C481 C79 1.277 . S
C511 C96 1.527 . S
C496 C17 1.527 . S
C526 C39 1.510 . S
C541 C74 1.501 . S
C556 C62 1.532 . S
C571 C85 1.525 . S
C601 C118 1.511 . S
C586 C40 1.520 . S
C631 C129 1.524 . S
C616 C63 1.521 . S
C646 C16 1.515 . S
C661 C107 1.502 . S
