# Generated by pormake.
# Topology bwt, (3,3)-cn, num edge types: 1
# Building blocks:
#     Node 0, Type 0, BuildingBlock: WUSLED_clean_sbu_0, # of connection points: 3
#     Node 1, Type 0, BuildingBlock: WUSLED_clean_sbu_0, # of connection points: 3
#     Node 2, Type 0, BuildingBlock: WUSLED_clean_sbu_0, # of connection points: 3
#     Node 3, Type 0, BuildingBlock: WUSLED_clean_sbu_0, # of connection points: 3
#     Node 4, Type 0, BuildingBlock: WUSLED_clean_sbu_0, # of connection points: 3
#     Node 5, Type 0, BuildingBlock: WUSLED_clean_sbu_0, # of connection points: 3
#     Node 6, Type 0, BuildingBlock: WUSLED_clean_sbu_0, # of connection points: 3
#     Node 7, Type 0, BuildingBlock: WUSLED_clean_sbu_0, # of connection points: 3
#     Node 8, Type 0, BuildingBlock: WUSLED_clean_sbu_0, # of connection points: 3
#     Node 9, Type 0, BuildingBlock: WUSLED_clean_sbu_0, # of connection points: 3
#     Node 10, Type 0, BuildingBlock: WUSLED_clean_sbu_0, # of connection points: 3
#     Node 11, Type 0, BuildingBlock: WUSLED_clean_sbu_0, # of connection points: 3
#     Node 12, Type 0, BuildingBlock: WUSLED_clean_sbu_0, # of connection points: 3
#     Node 13, Type 0, BuildingBlock: WUSLED_clean_sbu_0, # of connection points: 3
#     Node 14, Type 0, BuildingBlock: WUSLED_clean_sbu_0, # of connection points: 3
#     Node 15, Type 0, BuildingBlock: WUSLED_clean_sbu_0, # of connection points: 3
#     Node 16, Type 0, BuildingBlock: WUSLED_clean_sbu_0, # of connection points: 3
#     Node 17, Type 0, BuildingBlock: WUSLED_clean_sbu_0, # of connection points: 3
#     Node 18, Type 0, BuildingBlock: WUSLED_clean_sbu_0, # of connection points: 3
#     Node 19, Type 0, BuildingBlock: WUSLED_clean_sbu_0, # of connection points: 3
#     Node 20, Type 0, BuildingBlock: WUSLED_clean_sbu_0, # of connection points: 3
#     Node 21, Type 0, BuildingBlock: WUSLED_clean_sbu_0, # of connection points: 3
#     Node 22, Type 0, BuildingBlock: WUSLED_clean_sbu_0, # of connection points: 3
#     Node 23, Type 0, BuildingBlock: WUSLED_clean_sbu_0, # of connection points: 3
#     Node 24, Type 1, BuildingBlock: CUQRIR_clean_linker_1, # of connection points: 3
#     Node 25, Type 1, BuildingBlock: CUQRIR_clean_linker_1, # of connection points: 3
#     Node 26, Type 1, BuildingBlock: CUQRIR_clean_linker_1, # of connection points: 3
#     Node 27, Type 1, BuildingBlock: CUQRIR_clean_linker_1, # of connection points: 3
#     Node 28, Type 1, BuildingBlock: CUQRIR_clean_linker_1, # of connection points: 3
#     Node 29, Type 1, BuildingBlock: CUQRIR_clean_linker_1, # of connection points: 3
#     Node 30, Type 1, BuildingBlock: CUQRIR_clean_linker_1, # of connection points: 3
#     Node 31, Type 1, BuildingBlock: CUQRIR_clean_linker_1, # of connection points: 3
#     Node 32, Type 1, BuildingBlock: CUQRIR_clean_linker_1, # of connection points: 3
#     Node 33, Type 1, BuildingBlock: CUQRIR_clean_linker_1, # of connection points: 3
#     Node 34, Type 1, BuildingBlock: CUQRIR_clean_linker_1, # of connection points: 3
#     Node 35, Type 1, BuildingBlock: CUQRIR_clean_linker_1, # of connection points: 3
#     Node 36, Type 1, BuildingBlock: CUQRIR_clean_linker_1, # of connection points: 3
#     Node 37, Type 1, BuildingBlock: CUQRIR_clean_linker_1, # of connection points: 3
#     Node 38, Type 1, BuildingBlock: CUQRIR_clean_linker_1, # of connection points: 3
#     Node 39, Type 1, BuildingBlock: CUQRIR_clean_linker_1, # of connection points: 3
#     Node 40, Type 1, BuildingBlock: CUQRIR_clean_linker_1, # of connection points: 3
#     Node 41, Type 1, BuildingBlock: CUQRIR_clean_linker_1, # of connection points: 3
#     Node 42, Type 1, BuildingBlock: CUQRIR_clean_linker_1, # of connection points: 3
#     Node 43, Type 1, BuildingBlock: CUQRIR_clean_linker_1, # of connection points: 3
#     Node 44, Type 1, BuildingBlock: CUQRIR_clean_linker_1, # of connection points: 3
#     Node 45, Type 1, BuildingBlock: CUQRIR_clean_linker_1, # of connection points: 3
#     Node 46, Type 1, BuildingBlock: CUQRIR_clean_linker_1, # of connection points: 3
#     Node 47, Type 1, BuildingBlock: CUQRIR_clean_linker_1, # of connection points: 3
#     Edge 48, Type (0, 1), BuildingBlock: UVAHIK_clean_linker_0, # of connection points: 2
#     Edge 49, Type (0, 1), BuildingBlock: UVAHIK_clean_linker_0, # of connection points: 2
#     Edge 50, Type (0, 1), BuildingBlock: UVAHIK_clean_linker_0, # of connection points: 2
#     Edge 51, Type (0, 1), BuildingBlock: UVAHIK_clean_linker_0, # of connection points: 2
#     Edge 52, Type (0, 1), BuildingBlock: UVAHIK_clean_linker_0, # of connection points: 2
#     Edge 53, Type (0, 1), BuildingBlock: UVAHIK_clean_linker_0, # of connection points: 2
#     Edge 54, Type (0, 1), BuildingBlock: UVAHIK_clean_linker_0, # of connection points: 2
#     Edge 55, Type (0, 1), BuildingBlock: UVAHIK_clean_linker_0, # of connection points: 2
#     Edge 56, Type (0, 1), BuildingBlock: UVAHIK_clean_linker_0, # of connection points: 2
#     Edge 57, Type (0, 1), BuildingBlock: UVAHIK_clean_linker_0, # of connection points: 2
#     Edge 58, Type (0, 1), BuildingBlock: UVAHIK_clean_linker_0, # of connection points: 2
#     Edge 59, Type (0, 1), BuildingBlock: UVAHIK_clean_linker_0, # of connection points: 2
#     Edge 60, Type (0, 1), BuildingBlock: UVAHIK_clean_linker_0, # of connection points: 2
#     Edge 61, Type (0, 1), BuildingBlock: UVAHIK_clean_linker_0, # of connection points: 2
#     Edge 62, Type (0, 1), BuildingBlock: UVAHIK_clean_linker_0, # of connection points: 2
#     Edge 63, Type (0, 1), BuildingBlock: UVAHIK_clean_linker_0, # of connection points: 2
#     Edge 64, Type (0, 1), BuildingBlock: UVAHIK_clean_linker_0, # of connection points: 2
#     Edge 65, Type (0, 1), BuildingBlock: UVAHIK_clean_linker_0, # of connection points: 2
#     Edge 66, Type (0, 1), BuildingBlock: UVAHIK_clean_linker_0, # of connection points: 2
#     Edge 67, Type (0, 1), BuildingBlock: UVAHIK_clean_linker_0, # of connection points: 2
#     Edge 68, Type (0, 1), BuildingBlock: UVAHIK_clean_linker_0, # of connection points: 2
#     Edge 69, Type (0, 1), BuildingBlock: UVAHIK_clean_linker_0, # of connection points: 2
#     Edge 70, Type (0, 1), BuildingBlock: UVAHIK_clean_linker_0, # of connection points: 2
#     Edge 71, Type (0, 1), BuildingBlock: UVAHIK_clean_linker_0, # of connection points: 2
#     Edge 72, Type (0, 1), BuildingBlock: UVAHIK_clean_linker_0, # of connection points: 2
#     Edge 73, Type (0, 1), BuildingBlock: UVAHIK_clean_linker_0, # of connection points: 2
#     Edge 74, Type (0, 1), BuildingBlock: UVAHIK_clean_linker_0, # of connection points: 2
#     Edge 75, Type (0, 1), BuildingBlock: UVAHIK_clean_linker_0, # of connection points: 2
#     Edge 76, Type (0, 1), BuildingBlock: UVAHIK_clean_linker_0, # of connection points: 2
#     Edge 77, Type (0, 1), BuildingBlock: UVAHIK_clean_linker_0, # of connection points: 2
#     Edge 78, Type (0, 1), BuildingBlock: UVAHIK_clean_linker_0, # of connection points: 2
#     Edge 79, Type (0, 1), BuildingBlock: UVAHIK_clean_linker_0, # of connection points: 2
#     Edge 80, Type (0, 1), BuildingBlock: UVAHIK_clean_linker_0, # of connection points: 2
#     Edge 81, Type (0, 1), BuildingBlock: UVAHIK_clean_linker_0, # of connection points: 2
#     Edge 82, Type (0, 1), BuildingBlock: UVAHIK_clean_linker_0, # of connection points: 2
#     Edge 83, Type (0, 1), BuildingBlock: UVAHIK_clean_linker_0, # of connection points: 2
#     Edge 84, Type (0, 1), BuildingBlock: UVAHIK_clean_linker_0, # of connection points: 2
#     Edge 85, Type (0, 1), BuildingBlock: UVAHIK_clean_linker_0, # of connection points: 2
#     Edge 86, Type (0, 1), BuildingBlock: UVAHIK_clean_linker_0, # of connection points: 2
#     Edge 87, Type (0, 1), BuildingBlock: UVAHIK_clean_linker_0, # of connection points: 2
#     Edge 88, Type (0, 1), BuildingBlock: UVAHIK_clean_linker_0, # of connection points: 2
#     Edge 89, Type (0, 1), BuildingBlock: UVAHIK_clean_linker_0, # of connection points: 2
#     Edge 90, Type (0, 1), BuildingBlock: UVAHIK_clean_linker_0, # of connection points: 2
#     Edge 91, Type (0, 1), BuildingBlock: UVAHIK_clean_linker_0, # of connection points: 2
#     Edge 92, Type (0, 1), BuildingBlock: UVAHIK_clean_linker_0, # of connection points: 2
#     Edge 93, Type (0, 1), BuildingBlock: UVAHIK_clean_linker_0, # of connection points: 2
#     Edge 94, Type (0, 1), BuildingBlock: UVAHIK_clean_linker_0, # of connection points: 2
#     Edge 95, Type (0, 1), BuildingBlock: UVAHIK_clean_linker_0, # of connection points: 2
#     Edge 96, Type (0, 1), BuildingBlock: UVAHIK_clean_linker_0, # of connection points: 2
#     Edge 97, Type (0, 1), BuildingBlock: UVAHIK_clean_linker_0, # of connection points: 2
#     Edge 98, Type (0, 1), BuildingBlock: UVAHIK_clean_linker_0, # of connection points: 2
#     Edge 99, Type (0, 1), BuildingBlock: UVAHIK_clean_linker_0, # of connection points: 2
#     Edge 100, Type (0, 1), BuildingBlock: UVAHIK_clean_linker_0, # of connection points: 2
#     Edge 101, Type (0, 1), BuildingBlock: UVAHIK_clean_linker_0, # of connection points: 2
#     Edge 102, Type (0, 1), BuildingBlock: UVAHIK_clean_linker_0, # of connection points: 2
#     Edge 103, Type (0, 1), BuildingBlock: UVAHIK_clean_linker_0, # of connection points: 2
#     Edge 104, Type (0, 1), BuildingBlock: UVAHIK_clean_linker_0, # of connection points: 2
#     Edge 105, Type (0, 1), BuildingBlock: UVAHIK_clean_linker_0, # of connection points: 2
#     Edge 106, Type (0, 1), BuildingBlock: UVAHIK_clean_linker_0, # of connection points: 2
#     Edge 107, Type (0, 1), BuildingBlock: UVAHIK_clean_linker_0, # of connection points: 2
#     Edge 108, Type (0, 1), BuildingBlock: UVAHIK_clean_linker_0, # of connection points: 2
#     Edge 109, Type (0, 1), BuildingBlock: UVAHIK_clean_linker_0, # of connection points: 2
#     Edge 110, Type (0, 1), BuildingBlock: UVAHIK_clean_linker_0, # of connection points: 2
#     Edge 111, Type (0, 1), BuildingBlock: UVAHIK_clean_linker_0, # of connection points: 2
#     Edge 112, Type (0, 1), BuildingBlock: UVAHIK_clean_linker_0, # of connection points: 2
#     Edge 113, Type (0, 1), BuildingBlock: UVAHIK_clean_linker_0, # of connection points: 2
#     Edge 114, Type (0, 1), BuildingBlock: UVAHIK_clean_linker_0, # of connection points: 2
#     Edge 115, Type (0, 1), BuildingBlock: UVAHIK_clean_linker_0, # of connection points: 2
#     Edge 116, Type (0, 1), BuildingBlock: UVAHIK_clean_linker_0, # of connection points: 2
#     Edge 117, Type (0, 1), BuildingBlock: UVAHIK_clean_linker_0, # of connection points: 2
#     Edge 118, Type (0, 1), BuildingBlock: UVAHIK_clean_linker_0, # of connection points: 2
#     Edge 119, Type (0, 1), BuildingBlock: UVAHIK_clean_linker_0, # of connection points: 2
# Relax obj value: 0.126
# Max RMSD: 0.180
# Mean RMSD: 0.087
data_MOF--net-bwt--node1-WUSLED_clean_sbu_0--node2-CUQRIR_clean_linker_1--edge1-UVAHIK_clean_linker_0
_symmetry_space_group_name_H-M    P1
_symmetry_Int_Tables_number       1
_symmetry_cell_setting            triclinic
loop_
_symmetry_equiv_pos_as_xyz
'x, y, z'
_cell_length_a     78.967223
_cell_length_b     78.932149
_cell_length_c     79.011899
_cell_angle_alpha  96.353207
_cell_angle_beta   96.404564
_cell_angle_gamma 96.382659
loop_
_atom_site_label
_atom_site_type_symbol
_atom_site_fract_x
_atom_site_fract_y
_atom_site_fract_z
_atom_type_partial_charge
C0 C 0.31033 0.66559 0.37734 0.0
C1 C 0.32489 0.66643 0.38954 0.0
C2 C 0.34331 0.66403 0.36671 0.0
C3 C 0.34124 0.66575 0.38427 0.0
C4 C 0.32868 0.66345 0.3546 0.0
C5 C 0.31241 0.66422 0.35987 0.0
U6 U 0.27779 0.65637 0.40869 0.0
O7 O 0.25627 0.66998 0.41601 0.0
O8 O 0.25129 0.64326 0.40377 0.0
C9 C 0.24465 0.65683 0.40992 0.0
C10 C 0.29284 0.66537 0.38241 0.0
C11 C 0.22866 0.6605 0.4002 0.0
C12 C 0.21283 0.67196 0.37666 0.0
C13 C 0.22851 0.66897 0.38547 0.0
C14 C 0.19748 0.65812 0.39728 0.0
C15 C 0.19707 0.66644 0.3824 0.0
C16 C 0.21304 0.65517 0.40601 0.0
C17 C 0.29475 0.63813 0.45009 0.0
C18 C 0.27818 0.63012 0.47286 0.0
C19 C 0.307 0.62248 0.47226 0.0
C20 C 0.30845 0.63048 0.4575 0.0
C21 C 0.2918 0.62199 0.48 0.0
C22 C 0.2796 0.63805 0.45791 0.0
C23 C 0.29654 0.64536 0.43388 0.0
O24 O 0.28458 0.65002 0.38265 0.0
O25 O 0.29098 0.67634 0.39568 0.0
O26 O 0.29425 0.66157 0.4336 0.0
O27 O 0.28945 0.63545 0.41987 0.0
H28 H 0.32359 0.66736 0.40311 0.0
H29 H 0.35218 0.66609 0.39394 0.0
H30 H 0.3298 0.66238 0.341 0.0
H31 H 0.30136 0.66355 0.35025 0.0
H32 H 0.21304 0.67832 0.36521 0.0
H33 H 0.24045 0.67319 0.38077 0.0
H34 H 0.18572 0.654 0.40235 0.0
H35 H 0.21287 0.64868 0.41739 0.0
H36 H 0.2663 0.62989 0.47852 0.0
H37 H 0.3178 0.61657 0.47759 0.0
H38 H 0.32025 0.63046 0.45169 0.0
H39 H 0.26885 0.64385 0.45233 0.0
C40 C 0.22385 0.32905 0.81051 0.0
C41 C 0.21298 0.34157 0.814 0.0
C42 C 0.18925 0.32412 0.79523 0.0
C43 C 0.19584 0.33915 0.80639 0.0
C44 C 0.19999 0.31125 0.79251 0.0
C45 C 0.21713 0.31374 0.80004 0.0
U46 U 0.26377 0.35139 0.84076 0.0
O47 O 0.28841 0.34161 0.848 0.0
O48 O 0.28775 0.36422 0.83417 0.0
C49 C 0.29707 0.35287 0.84009 0.0
C50 C 0.2425 0.33234 0.81621 0.0
C51 C 0.30937 0.34637 0.82889 0.0
C52 C 0.32198 0.3459 0.80213 0.0
C53 C 0.30869 0.34958 0.81169 0.0
C54 C 0.33633 0.33462 0.82634 0.0
C55 C 0.33623 0.33877 0.80944 0.0
C56 C 0.3231 0.33848 0.83598 0.0
C57 C 0.26026 0.38401 0.87918 0.0
C58 C 0.28217 0.40799 0.8904 0.0
C59 C 0.25781 0.40167 0.90577 0.0
C60 C 0.2515 0.3877 0.89334 0.0
C61 C 0.27295 0.41234 0.90418 0.0
C62 C 0.27591 0.39393 0.87806 0.0
C63 C 0.25229 0.37074 0.86505 0.0
O64 O 0.24982 0.34782 0.81478 0.0
O65 O 0.24805 0.32665 0.83059 0.0
O66 O 0.25532 0.35489 0.86653 0.0
O67 O 0.25341 0.375 0.84957 0.0
H68 H 0.21787 0.35346 0.82214 0.0
H69 H 0.18784 0.34918 0.80899 0.0
H70 H 0.19539 0.29959 0.78392 0.0
H71 H 0.22532 0.30393 0.79716 0.0
H72 H 0.32143 0.34949 0.78926 0.0
H73 H 0.29825 0.35561 0.80581 0.0
H74 H 0.34685 0.32877 0.83232 0.0
H75 H 0.32391 0.33585 0.84919 0.0
H76 H 0.29379 0.41592 0.88866 0.0
H77 H 0.25058 0.40435 0.91642 0.0
H78 H 0.23948 0.38011 0.89452 0.0
H79 H 0.28295 0.39121 0.86727 0.0
C80 C 0.67026 0.99834 0.61721 0.0
C81 C 0.68552 0.00308 0.61042 0.0
C82 C 0.70229 0.99496 0.6353 0.0
C83 C 0.70139 1.00149 0.61941 0.0
C84 C 0.68692 0.99022 0.64204 0.0
C85 C 0.67103 0.99192 0.63306 0.0
U86 U 0.64584 1.00188 0.5747 0.0
O87 O 0.62152 0.9884 0.56106 0.0
O88 O 0.6246 0.0165 0.56723 0.0
C89 C 0.61396 1.00245 0.56173 0.0
C90 C 0.65363 0.99933 0.60731 0.0
C91 C 0.59747 1.00136 0.56882 0.0
C92 C 0.57788 0.9886 0.58687 0.0
C93 C 0.59372 0.98972 0.58053 0.0
C94 C 0.56957 0.01121 0.57048 0.0
C95 C 0.56565 0.99928 0.58185 0.0
C96 C 0.58533 0.01215 0.56393 0.0
C97 C 0.67307 0.00336 0.53749 0.0
C98 C 0.66135 1.00039 0.50742 0.0
C99 C 0.69216 0.00335 0.51556 0.0
C100 C 0.68967 0.00449 0.53281 0.0
C101 C 0.67804 1.00111 0.50263 0.0
C102 C 0.65888 1.00149 0.52476 0.0
C103 C 0.67093 1.00298 0.5556 0.0
O104 O 0.65205 0.01408 0.6014 0.0
O105 O 0.64811 0.98596 0.59581 0.0
O106 O 0.66286 0.9886 0.55919 0.0
O107 O 0.6661 0.01682 0.56356 0.0
H108 H 0.68515 0.00793 0.59809 0.0
H109 H 0.71294 0.0055 0.61394 0.0
H110 H 0.68714 0.98491 0.65411 0.0
H111 H 0.65935 0.98802 0.63837 0.0
H112 H 0.57521 0.97947 0.59581 0.0
H113 H 0.60299 0.98144 0.58474 0.0
H114 H 0.5603 0.01955 0.56641 0.0
H115 H 0.58802 0.02127 0.55499 0.0
H116 H 0.65022 0.99886 0.49779 0.0
H117 H 0.70516 0.00365 0.51237 0.0
H118 H 0.70074 0.00581 0.54251 0.0
H119 H 0.64594 1.00057 0.52823 0.0
C120 C 0.83408 0.02842 0.29036 0.0
C121 C 0.81874 0.03294 0.2824 0.0
C122 C 0.80391 0.02456 0.30607 0.0
C123 C 0.80381 0.03111 0.29023 0.0
C124 C 0.81951 0.02133 0.3147 0.0
C125 C 0.83454 0.02322 0.30683 0.0
U126 U 0.84898 0.01638 0.24768 0.0
O127 O 0.87123 0.02589 0.23546 0.0
O128 O 0.86753 0.99895 0.24046 0.0
C129 C 0.87779 0.01129 0.23564 0.0
C130 C 0.8485 0.02624 0.28039 0.0
C131 C 0.89585 0.0124 0.24299 0.0
C132 C 0.92056 0.02625 0.26271 0.0
C133 C 0.90338 0.02569 0.25583 0.0
C134 C 0.92264 1.00004 0.24433 0.0
C135 C 0.93031 0.0134 0.25703 0.0
C136 C 0.90557 0.99959 0.23734 0.0
C137 C 0.81579 1.00283 0.20877 0.0
C138 C 0.82459 0.99137 0.18173 0.0
C139 C 0.79435 0.9912 0.18469 0.0
C140 C 0.79858 0.99899 0.20163 0.0
C141 C 0.80729 0.98706 0.17462 0.0
C142 C 0.8288 0.99916 0.19869 0.0
C143 C 0.82006 0.00965 0.22699 0.0
O144 O 0.84913 0.01023 0.27414 0.0
O145 O 0.85094 0.03712 0.26915 0.0
O146 O 0.82888 0.02504 0.23022 0.0
O147 O 0.82594 0.99867 0.2368 0.0
H148 H 0.81799 0.0368 0.26962 0.0
H149 H 0.79189 0.03372 0.28338 0.0
H150 H 0.81981 0.01617 0.32686 0.0
H151 H 0.84626 0.01954 0.31309 0.0
H152 H 0.92618 0.03663 0.27254 0.0
H153 H 0.89602 0.0356 0.26055 0.0
H154 H 0.92996 0.99011 0.23957 0.0
H155 H 0.89994 0.98922 0.22749 0.0
H156 H 0.83485 0.9882 0.1744 0.0
H157 H 0.78092 0.98828 0.17952 0.0
H158 H 0.78839 1.00173 0.20925 0.0
H159 H 0.84219 1.00195 0.20409 0.0
C160 C 0.37373 0.30745 0.66257 0.0
C161 C 0.38534 0.32085 0.65867 0.0
C162 C 0.36394 0.34084 0.66131 0.0
C163 C 0.38052 0.3374 0.6581 0.0
C164 C 0.35254 0.32738 0.66554 0.0
C165 C 0.35738 0.31089 0.66614 0.0
U166 U 0.40414 0.2738 0.65387 0.0
O167 O 0.41047 0.2521 0.66777 0.0
O168 O 0.39869 0.24726 0.64091 0.0
C169 C 0.40433 0.24051 0.65462 0.0
C170 C 0.37816 0.28971 0.66232 0.0
C171 C 0.39405 0.22475 0.65816 0.0
C172 C 0.36845 0.20932 0.66665 0.0
C173 C 0.378 0.22485 0.66426 0.0
C174 C 0.39098 0.19363 0.65706 0.0
C175 C 0.37474 0.19347 0.66281 0.0
C176 C 0.40048 0.20905 0.65477 0.0
C177 C 0.44671 0.29025 0.63694 0.0
C178 C 0.47026 0.27409 0.63058 0.0
C179 C 0.4703 0.30314 0.62345 0.0
C180 C 0.45471 0.30419 0.63006 0.0
C181 C 0.47836 0.28812 0.62363 0.0
C182 C 0.45455 0.27515 0.63718 0.0
C183 C 0.43014 0.292 0.6435 0.0
O184 O 0.37855 0.28149 0.64701 0.0
O185 O 0.39109 0.28745 0.6735 0.0
O186 O 0.4293 0.28977 0.65964 0.0
O187 O 0.41633 0.28496 0.63322 0.0
H188 H 0.39803 0.31845 0.65582 0.0
H189 H 0.3896 0.34737 0.65467 0.0
H190 H 0.3398 0.32956 0.66838 0.0
H191 H 0.34824 0.30075 0.66922 0.0
H192 H 0.35598 0.20968 0.67106 0.0
H193 H 0.3728 0.23685 0.66695 0.0
H194 H 0.39642 0.18176 0.65431 0.0
H195 H 0.41286 0.20868 0.65014 0.0
H196 H 0.47612 0.26236 0.63106 0.0
H197 H 0.47586 0.31408 0.6179 0.0
H198 H 0.44881 0.31592 0.62966 0.0
H199 H 0.44854 0.26423 0.64244 0.0
C200 C 0.28134 0.82912 0.02299 0.0
C201 C 0.27085 0.81558 0.02817 0.0
C202 C 0.29051 0.79558 0.0198 0.0
C203 C 0.2754 0.79902 0.02664 0.0
C204 C 0.3014 0.80926 0.01528 0.0
C205 C 0.29682 0.82594 0.01686 0.0
U206 U 0.2426 0.84935 0.01154 0.0
O207 O 0.23225 0.87266 0.02141 0.0
O208 O 0.23704 0.8687 0.99442 0.0
C209 C 0.23301 0.87932 0.00692 0.0
C210 C 0.27449 0.84541 0.02098 0.0
C211 C 0.24167 0.89691 0.00838 0.0
C212 C 0.264 0.91965 0.02171 0.0
C213 C 0.2561 0.90273 0.02054 0.0
C214 C 0.24342 0.92481 0.99826 0.0
C215 C 0.25768 0.93084 0.01058 0.0
C216 C 0.23548 0.908 0.9972 0.0
C217 C 0.20185 0.81809 0.99899 0.0
C218 C 0.17493 0.82794 0.98894 0.0
C219 C 0.17691 0.79743 0.98824 0.0
C220 C 0.19414 0.80106 0.99523 0.0
C221 C 0.16713 0.81083 0.98491 0.0
C222 C 0.19218 0.83154 0.9959 0.0
C223 C 0.22019 0.82164 0.00528 0.0
O224 O 0.26862 0.84682 0.00503 0.0
O225 O 0.26403 0.84998 0.03205 0.0
O226 O 0.2241 0.83052 0.02058 0.0
O227 O 0.2299 0.82693 0.99398 0.0
H228 H 0.25861 0.81759 0.03255 0.0
H229 H 0.2666 0.78875 0.02999 0.0
H230 H 0.31322 0.80699 0.01015 0.0
H231 H 0.30494 0.83618 0.01256 0.0
H232 H 0.27501 0.92396 0.03126 0.0
H233 H 0.26119 0.89424 0.02916 0.0
H234 H 0.2381 0.93323 0.9897 0.0
H235 H 0.22441 0.90367 0.9877 0.0
H236 H 0.16771 0.83854 0.9867 0.0
H237 H 0.1714 0.78412 0.98503 0.0
H238 H 0.20152 0.79055 0.99742 0.0
H239 H 0.19804 0.84479 0.99869 0.0
C240 C 0.8097 0.22231 0.3253 0.0
C241 C 0.81578 0.20933 0.33424 0.0
C242 C 0.79384 0.18795 0.31722 0.0
C243 C 0.80796 0.19224 0.33016 0.0
C244 C 0.78827 0.20099 0.30799 0.0
C245 C 0.79611 0.21794 0.31199 0.0
U246 U 0.84081 0.26112 0.35023 0.0
O247 O 0.84884 0.28592 0.34112 0.0
O248 O 0.83404 0.28508 0.36301 0.0
C249 C 0.84075 0.29457 0.35219 0.0
C250 C 0.81626 0.24066 0.3302 0.0
C251 C 0.83024 0.30739 0.34566 0.0
C252 C 0.80311 0.31937 0.34244 0.0
C253 C 0.81236 0.30573 0.34587 0.0
C254 C 0.82925 0.33609 0.3374 0.0
C255 C 0.81152 0.33494 0.33868 0.0
C256 C 0.8385 0.32249 0.34092 0.0
C257 C 0.87884 0.25728 0.38293 0.0
C258 C 0.89372 0.28257 0.40126 0.0
C259 C 0.90111 0.25431 0.40584 0.0
C260 C 0.8889 0.24695 0.39204 0.0
C261 C 0.90349 0.27219 0.41084 0.0
C262 C 0.88151 0.27517 0.38744 0.0
C263 C 0.86476 0.24919 0.3697 0.0
O264 O 0.81479 0.24702 0.34597 0.0
O265 O 0.83092 0.24623 0.32506 0.0
O266 O 0.86632 0.25219 0.35386 0.0
O267 O 0.84929 0.25057 0.37389 0.0
H268 H 0.82626 0.21246 0.34459 0.0
H269 H 0.81255 0.18253 0.33755 0.0
H270 H 0.77767 0.19811 0.29774 0.0
H271 H 0.79125 0.22776 0.30492 0.0
H272 H 0.78952 0.31799 0.34367 0.0
H273 H 0.80563 0.29418 0.34941 0.0
H274 H 0.83611 0.34772 0.33416 0.0
H275 H 0.85226 0.32405 0.34061 0.0
H276 H 0.89536 0.29638 0.4046 0.0
H277 H 0.9082 0.24589 0.41303 0.0
H278 H 0.88695 0.23311 0.38881 0.0
H279 H 0.87384 0.28336 0.38053 0.0
C280 C 0.62374 0.66957 0.99629 0.0
C281 C 0.61562 0.68432 0.99957 0.0
C282 C 0.64048 0.70218 0.99291 0.0
C283 C 0.62393 0.70048 0.99797 0.0
C284 C 0.64852 0.68731 0.98951 0.0
C285 C 0.64019 0.67111 0.9912 0.0
U286 U 0.58227 0.64479 1.00108 0.0
O287 O 0.56859 0.62011 0.98844 0.0
O288 O 0.57491 0.62429 0.0165 0.0
C289 C 0.56891 0.61326 0.00288 0.0
C290 C 0.6146 0.65269 0.99764 0.0
C291 C 0.5756 0.59672 0.00243 0.0
C292 C 0.59887 0.5796 0.9989 0.0
C293 C 0.59262 0.59547 0.99951 0.0
C294 C 0.57117 0.56617 0.00434 0.0
C295 C 0.58818 0.56478 1.00124 0.0
C296 C 0.56492 0.58206 0.0049 0.0
C297 C 0.54428 0.66908 0.00356 0.0
C298 C 0.51606 0.65317 0.00278 0.0
C299 C 0.51948 0.6843 0.00496 0.0
C300 C 0.53713 0.68451 0.00485 0.0
C301 C 0.50875 0.66862 0.00374 0.0
C302 C 0.53374 0.6534 0.00273 0.0
C303 C 0.56259 0.66928 0.00237 0.0
O304 O 0.60918 0.65115 0.01262 0.0
O305 O 0.60287 0.64676 0.98457 0.0
O306 O 0.56615 0.66141 0.98789 0.0
O307 O 0.5717 0.66538 0.01603 0.0
H308 H 0.60282 0.68331 0.00339 0.0
H309 H 0.61747 0.71164 1.00093 0.0
H310 H 0.66116 0.68816 0.98534 0.0
H311 H 0.64653 0.65981 0.98845 0.0
H312 H 0.61209 0.57894 0.99672 0.0
H313 H 0.60102 0.60676 0.99767 0.0
H314 H 0.56262 0.55494 0.00603 0.0
H315 H 0.55174 0.58289 0.00717 0.0
H316 H 0.5081 0.64094 1.00196 0.0
H317 H 0.51416 0.69639 0.00544 0.0
H318 H 0.54515 0.69668 0.00543 0.0
H319 H 0.53917 0.64136 1.00175 0.0
C320 C 0.6646 0.37935 0.31276 0.0
C321 C 0.65523 0.38776 0.32449 0.0
C322 C 0.66307 0.36881 0.34576 0.0
C323 C 0.65445 0.38252 0.3408 0.0
C324 C 0.67271 0.36068 0.33401 0.0
C325 C 0.67343 0.36589 0.3177 0.0
U326 U 0.65657 0.41054 0.2799 0.0
O327 O 0.67166 0.41846 0.25957 0.0
O328 O 0.64516 0.40584 0.25287 0.0
C329 C 0.65933 0.412 0.24719 0.0
C330 C 0.66498 0.38424 0.29529 0.0
C331 C 0.66444 0.40229 0.23182 0.0
C332 C 0.66054 0.37737 0.20993 0.0
C333 C 0.65714 0.38533 0.22576 0.0
C334 C 0.67908 0.40291 0.20628 0.0
C335 C 0.67133 0.38618 0.19986 0.0
C336 C 0.67562 0.41086 0.22203 0.0
C337 C 0.6385 0.45233 0.29479 0.0
C338 C 0.6232 0.47017 0.27672 0.0
C339 C 0.63311 0.48073 0.30654 0.0
C340 C 0.64007 0.46544 0.30857 0.0
C341 C 0.62438 0.48321 0.29065 0.0
C342 C 0.63025 0.45489 0.27875 0.0
C343 C 0.6449 0.4359 0.2977 0.0
O344 O 0.64989 0.38448 0.28647 0.0
O345 O 0.67608 0.39755 0.29387 0.0
O346 O 0.66132 0.43525 0.29676 0.0
O347 O 0.63511 0.42191 0.29022 0.0
H348 H 0.64833 0.39821 0.32093 0.0
H349 H 0.64674 0.38899 0.34936 0.0
H350 H 0.67977 0.3503 0.33743 0.0
H351 H 0.68082 0.35931 0.30887 0.0
H352 H 0.65454 0.3644 0.20548 0.0
H353 H 0.64848 0.37835 0.23301 0.0
H354 H 0.68728 0.41015 0.19881 0.0
H355 H 0.68126 0.424 0.22631 0.0
H356 H 0.61677 0.47176 0.26426 0.0
H357 H 0.63409 0.49039 0.31758 0.0
H358 H 0.64638 0.4637 0.32105 0.0
H359 H 0.62901 0.44497 0.2679 0.0
C360 C 0.01558 0.28389 0.82869 0.0
C361 C 0.01848 0.2722 0.81493 0.0
C362 C 0.01423 0.29328 0.79527 0.0
C363 C 0.01782 0.27682 0.79846 0.0
C364 C 0.01146 0.30513 0.80908 0.0
C365 C 0.01212 0.30043 0.82573 0.0
U366 U 0.00516 0.24571 0.84947 0.0
O367 O 0.01722 0.23447 0.8712 0.0
O368 O 0.99043 0.23988 0.8706 0.0
C369 C 0.00368 0.23485 0.87944 0.0
C370 C 0.01409 0.27763 0.84533 0.0
C371 C 0.00734 0.24212 0.89747 0.0
C372 C 0.01738 0.266 0.91972 0.0
C373 C 0.0129 0.25968 0.90234 0.0
C374 C 0.01057 0.23727 0.92725 0.0
C375 C 0.0165 0.25476 0.93229 0.0
C376 C 0.00605 0.23102 0.90999 0.0
C377 C 0.99235 0.20514 0.81789 0.0
C378 C 0.98604 0.17726 0.82754 0.0
C379 C 0.982 0.18017 0.79716 0.0
C380 C 0.9876 0.19773 0.80087 0.0
C381 C 0.98111 0.16973 0.81045 0.0
C382 C 0.99161 0.19485 0.83123 0.0
C383 C 0.99775 0.22364 0.82157 0.0
O384 O 0.99831 0.27176 0.84742 0.0
O385 O 0.02537 0.26729 0.84967 0.0
O386 O 0.01345 0.22808 0.82938 0.0
O387 O 0.98644 0.23261 0.82807 0.0
H388 H 0.02076 0.25921 0.8168 0.0
H389 H 0.0196 0.26724 0.7881 0.0
H390 H 0.00871 0.31793 0.80698 0.0
H391 H 0.00955 0.30951 0.83617 0.0
H392 H 0.02188 0.27953 0.92329 0.0
H393 H 0.014 0.26838 0.89272 0.0
H394 H 0.0094 0.22839 0.9367 0.0
H395 H 1.00175 0.21744 0.90639 0.0
H396 H 0.98567 0.16955 0.83804 0.0
H397 H 0.97802 0.17485 0.7839 0.0
H398 H 0.98804 0.20556 0.79046 0.0
H399 H 0.99526 0.20045 0.84447 0.0
C400 C 0.32957 0.81002 0.2227 0.0
C401 C 0.34196 0.81409 0.21185 0.0
C402 C 0.32521 0.79467 0.18815 0.0
C403 C 0.3398 0.80649 0.19473 0.0
C404 C 0.31251 0.79129 0.19891 0.0
C405 C 0.31469 0.79887 0.216 0.0
U406 U 0.35177 0.84076 0.26218 0.0
O407 O 0.34178 0.84922 0.28632 0.0
O408 O 0.3638 0.83452 0.2867 0.0
C409 C 0.35275 0.84156 0.29562 0.0
C410 C 0.33257 0.81602 0.24127 0.0
C411 C 0.34587 0.83118 0.30823 0.0
C412 C 0.33336 0.80394 0.31586 0.0
C413 C 0.33747 0.81445 0.30334 0.0
C414 C 0.34533 0.82707 0.33817 0.0
C415 C 0.33767 0.80998 0.33346 0.0
C416 C 0.34937 0.83754 0.32567 0.0
C417 C 0.38514 0.87822 0.25857 0.0
C418 C 0.40441 0.89197 0.28369 0.0
C419 C 0.40736 0.90126 0.25583 0.0
C420 C 0.39346 0.88916 0.24846 0.0
C421 C 0.41325 0.90257 0.27348 0.0
C422 C 0.39047 0.87991 0.2763 0.0
C423 C 0.37194 0.86419 0.25037 0.0
O424 O 0.34785 0.81444 0.24894 0.0
O425 O 0.32711 0.83068 0.24633 0.0
O426 O 0.35601 0.86602 0.25281 0.0
O427 O 0.37588 0.84871 0.25224 0.0
H428 H 0.35355 0.82269 0.21677 0.0
H429 H 0.34989 0.80933 0.18688 0.0
H430 H 0.30096 0.78256 0.1942 0.0
H431 H 0.30496 0.79563 0.22415 0.0
H432 H 0.3272 0.79096 0.31175 0.0
H433 H 0.33465 0.80933 0.28989 0.0
H434 H 0.34907 0.83215 0.35153 0.0
H435 H 0.35593 0.8504 0.32967 0.0
H436 H 0.40845 0.89281 0.29735 0.0
H437 H 0.41395 0.90907 0.24755 0.0
H438 H 0.38955 0.88799 0.23475 0.0
H439 H 0.38415 0.87157 0.28432 0.0
C440 C 0.00362 0.62559 0.66764 0.0
C441 C 0.00415 0.61649 0.68193 0.0
C442 C 0.9995 0.64198 0.70014 0.0
C443 C 1.00217 0.62461 0.69803 0.0
C444 C 0.99912 0.65111 0.68577 0.0
C445 C 1.00115 0.64294 0.66962 0.0
U446 U 1.00276 0.58334 0.64209 0.0
O447 O 0.98929 0.57144 0.61711 0.0
O448 O 0.01744 0.57346 0.6219 0.0
C449 C 0.00364 0.56934 0.61061 0.0
C450 C 0.00461 0.61646 0.65067 0.0
C451 C 0.00475 0.57569 0.59405 0.0
C452 C 0.0042 0.5989 0.57645 0.0
C453 C 0.00418 0.59313 0.5925 0.0
C454 C 0.00573 0.56987 0.56345 0.0
C455 C 0.0048 0.58729 0.56173 0.0
C456 C 0.00571 0.56412 0.57953 0.0
C457 C 0.99675 0.54448 0.66509 0.0
C458 C 0.98778 0.51627 0.64908 0.0
C459 C 0.99917 0.51907 0.67922 0.0
C460 C 1.00138 0.5369 0.67981 0.0
C461 C 0.99226 0.5086 0.66388 0.0
C462 C 0.99011 0.53411 0.64966 0.0
C463 C 0.99901 0.56318 0.66583 0.0
O464 O 0.0183 0.60849 0.64961 0.0
O465 O 0.99028 0.6069 0.6438 0.0
O466 O 0.98613 0.56957 0.65785 0.0
O467 O 0.01414 0.56991 0.66267 0.0
H468 H 0.00593 0.60301 0.68058 0.0
H469 H 1.0028 0.61727 0.70884 0.0
H470 H 0.99689 0.66445 0.68695 0.0
H471 H 1.00054 0.65008 0.65866 0.0
H472 H 0.00324 0.61235 0.57548 0.0
H473 H 0.00338 0.60219 0.60366 0.0
H474 H 0.00638 0.56069 0.55236 0.0
H475 H 0.0062 0.5506 0.5806 0.0
H476 H 0.98259 0.50848 0.63708 0.0
H477 H 1.00256 0.51349 0.69086 0.0
H478 H 0.00661 0.54477 0.69176 0.0
H479 H 0.98666 0.53981 0.6381 0.0
C480 C 0.6992 0.34704 0.63166 0.0
C481 C 0.68767 0.35709 0.62394 0.0
C482 C 0.66559 0.34704 0.64116 0.0
C483 C 0.67107 0.35712 0.62866 0.0
C484 C 0.67714 0.33675 0.64859 0.0
C485 C 0.69375 0.33678 0.6439 0.0
U486 U 0.73244 0.35676 0.60139 0.0
O487 O 0.75929 0.36893 0.60656 0.0
O488 O 0.75334 0.34262 0.59331 0.0
C489 C 0.76538 0.35531 0.59966 0.0
C490 C 0.71694 0.34732 0.62724 0.0
C491 C 0.78135 0.35073 0.60862 0.0
C492 C 0.79793 0.34112 0.63288 0.0
C493 C 0.78225 0.34508 0.6249 0.0
C494 C 0.8118 0.34849 0.6084 0.0
C495 C 0.81293 0.34273 0.62468 0.0
C496 C 0.79622 0.35238 0.6005 0.0
C497 C 0.7158 0.37494 0.55987 0.0
C498 C 0.73269 0.38277 0.53732 0.0
C499 C 0.7025 0.3864 0.5351 0.0
C500 C 0.70136 0.38002 0.55078 0.0
C501 C 0.71815 0.38783 0.52809 0.0
C502 C 0.73152 0.37634 0.55308 0.0
C503 C 0.71393 0.36828 0.57635 0.0
O504 O 0.71898 0.33653 0.61392 0.0
O505 O 0.72542 0.36266 0.62738 0.0
O506 O 0.72157 0.37814 0.5902 0.0
O507 O 0.71558 0.35194 0.57676 0.0
H508 H 0.69158 0.36507 0.61441 0.0
H509 H 0.66267 0.36534 0.62277 0.0
H510 H 0.67334 0.32858 0.65801 0.0
H511 H 0.70239 0.32883 0.64991 0.0
H512 H 0.79824 0.33662 0.64535 0.0
H513 H 0.7709 0.34374 0.63141 0.0
H514 H 0.82304 0.35029 0.6018 0.0
H515 H 0.79583 0.35682 0.58798 0.0
H516 H 0.74491 0.3836 0.53226 0.0
H517 H 0.69113 0.39047 0.52858 0.0
H518 H 0.68914 0.37911 0.55586 0.0
H519 H 0.74281 0.37245 0.55994 0.0
C520 C 0.78313 0.67033 0.19582 0.0
C521 C 0.7942 0.65927 0.18921 0.0
C522 C 0.81812 0.67397 0.20982 0.0
C523 C 0.81154 0.66107 0.19614 0.0
C524 C 0.80703 0.68537 0.21594 0.0
C525 C 0.78974 0.68354 0.20901 0.0
U526 U 0.74304 0.64872 0.16555 0.0
O527 O 0.7184 0.63726 0.17207 0.0
O528 O 0.7191 0.65936 0.15748 0.0
C529 C 0.70973 0.6487 0.1654 0.0
C530 C 0.76451 0.66759 0.19009 0.0
C531 C 0.69772 0.65613 0.17624 0.0
C532 C 0.69022 0.66575 0.20444 0.0
C533 C 0.70256 0.66141 0.19384 0.0
C534 C 0.6683 0.66062 0.17981 0.0
C535 C 0.67284 0.66491 0.19763 0.0
C536 C 0.68063 0.65624 0.16924 0.0
C537 C 0.74637 0.61515 0.12779 0.0
C538 C 0.72128 0.59649 0.11297 0.0
C539 C 0.7496 0.59241 0.10546 0.0
C540 C 0.7568 0.60628 0.11767 0.0
C541 C 0.73178 0.58711 0.10319 0.0
C542 C 0.72852 0.61039 0.12517 0.0
C543 C 0.75438 0.6283 0.14196 0.0
O544 O 0.75936 0.67312 0.17551 0.0
O545 O 0.75674 0.65235 0.19169 0.0
O546 O 0.75233 0.6243 0.15736 0.0
O547 O 0.75208 0.64429 0.14018 0.0
H548 H 0.78934 0.649 0.17897 0.0
H549 H 0.81974 0.65224 0.19091 0.0
H550 H 0.81154 0.69533 0.22655 0.0
H551 H 0.78137 0.69217 0.21432 0.0
H552 H 0.69419 0.66926 0.21807 0.0
H553 H 0.71573 0.6615 0.19948 0.0
H554 H 0.65505 0.65969 0.17413 0.0
H555 H 0.67665 0.65216 0.15569 0.0
H556 H 0.70751 0.59291 0.1114 0.0
H557 H 0.7581 0.58539 0.09835 0.0
H558 H 0.77061 0.60972 0.11959 0.0
H559 H 0.72025 0.61712 0.13289 0.0
C560 C 0.33009 0.99304 0.38505 0.0
C561 C 0.31539 0.99213 0.39352 0.0
C562 C 0.2982 0.99787 0.36778 0.0
C563 C 0.29958 0.99452 0.38497 0.0
C564 C 0.31295 0.99843 0.35926 0.0
C565 C 0.3288 0.99607 0.36786 0.0
U566 U 0.35601 0.99036 0.42714 0.0
O567 O 0.37825 0.97699 0.43431 0.0
O568 O 0.38024 0.0051 0.43956 0.0
C569 C 0.38838 0.99147 0.43941 0.0
C570 C 0.34687 0.99203 0.39456 0.0
C571 C 0.40447 0.99328 0.43189 0.0
C572 C 0.41956 0.99547 0.40701 0.0
C573 C 0.40423 0.99254 0.41406 0.0
C574 C 0.43546 0.99981 0.43556 0.0
C575 C 0.43532 0.99924 0.4177 0.0
C576 C 0.42011 0.99684 0.4426 0.0
C577 C 0.33558 0.99018 0.46749 0.0
C578 C 0.35114 0.98286 0.49346 0.0
C579 C 0.33288 0.00559 0.49517 0.0
C580 C 0.32835 1.00266 0.47742 0.0
C581 C 0.34453 0.99591 0.50325 0.0
C582 C 0.34684 0.98012 0.47566 0.0
C583 C 0.33326 0.98959 0.4487 0.0
O584 O 0.35268 0.00561 0.40569 0.0
O585 O 0.34853 0.97744 0.4008 0.0
O586 O 0.33695 0.97561 0.43989 0.0
O587 O 0.33954 0.00383 0.44324 0.0
H588 H 0.31625 0.98996 0.40688 0.0
H589 H 0.28855 0.99424 0.39198 0.0
H590 H 0.31226 1.00076 0.34596 0.0
H591 H 0.34008 0.99687 0.3612 0.0
H592 H 0.41902 0.99519 0.39322 0.0
H593 H 0.39218 0.99001 0.40565 0.0
H594 H 0.44743 1.00253 0.44408 0.0
H595 H 0.42043 0.99755 0.45641 0.0
H596 H 0.36015 0.97528 0.4995 0.0
H597 H 0.32749 0.01558 0.50258 0.0
H598 H 0.31976 0.01062 0.47136 0.0
H599 H 0.35284 0.97059 0.46829 0.0
C600 C 0.19121 0.9871 0.73186 0.0
C601 C 0.2035 0.99458 0.7456 0.0
C602 C 0.22651 0.98686 0.72957 0.0
C603 C 0.22092 0.99444 0.74451 0.0
C604 C 0.21421 0.97906 0.71581 0.0
C605 C 0.19659 0.97921 0.71694 0.0
U606 U 0.16202 1.00154 0.76148 0.0
O607 O 0.13881 0.01453 0.75983 0.0
O608 O 0.13849 0.98973 0.77018 0.0
C609 C 0.12957 1.00192 0.76549 0.0
C610 C 0.17302 0.98776 0.73383 0.0
C611 C 0.11216 0.99626 0.75644 0.0
C612 C 0.08882 0.99885 0.7344 0.0
C613 C 0.10614 1.00259 0.74123 0.0
C614 C 0.08355 0.98181 0.75739 0.0
C615 C 0.07728 0.9887 0.74262 0.0
C616 C 0.10078 0.98561 0.76425 0.0
C617 C 0.1875 0.02305 0.80428 0.0
C618 C 0.175 0.03203 0.82999 0.0
C619 C 0.20595 0.03441 0.83053 0.0
C620 C 0.20394 0.0278 0.81324 0.0
C621 C 0.19152 0.03632 0.83919 0.0
C622 C 0.173 0.02536 0.81261 0.0
C623 C 0.18598 0.01482 0.78658 0.0
O624 O 0.16755 0.97863 0.74553 0.0
O625 O 0.16857 0.00339 0.73532 0.0
O626 O 0.17991 0.02365 0.77462 0.0
O627 O 0.17964 0.99852 0.78414 0.0
H628 H 0.1996 1.00062 0.75726 0.0
H629 H 0.23003 1.00029 0.75542 0.0
H630 H 0.21821 0.9732 0.70409 0.0
H631 H 0.18726 0.97333 0.70623 0.0
H632 H 0.08438 0.00421 0.72291 0.0
H633 H 0.11463 0.01084 0.73492 0.0
H634 H 0.07495 0.97418 0.76419 0.0
H635 H 0.10508 0.98074 0.77608 0.0
H636 H 0.16367 0.03333 0.83635 0.0
H637 H 0.21884 0.03793 0.83716 0.0
H638 H 0.21524 0.02611 0.80693 0.0
H639 H 0.16021 0.02168 0.80579 0.0
C640 C 0.63098 0.69716 0.34437 0.0
C641 C 0.61851 0.68269 0.34245 0.0
C642 C 0.64087 0.66378 0.34591 0.0
C643 C 0.62339 0.6662 0.34314 0.0
C644 C 0.65328 0.67839 0.34798 0.0
C645 C 0.64838 0.69485 0.34718 0.0
U646 U 0.59996 0.73047 0.35158 0.0
O647 O 0.60473 0.75792 0.36178 0.0
O648 O 0.5914 0.75 0.33572 0.0
C649 C 0.59763 0.76286 0.34758 0.0
C650 C 0.62616 0.7147 0.34359 0.0
C651 C 0.60608 0.77851 0.3418 0.0
C652 C 0.63137 0.79787 0.33826 0.0
C653 C 0.62399 0.78211 0.34254 0.0
C654 C 0.60304 0.80642 0.33222 0.0
C655 C 0.62098 0.81036 0.33322 0.0
C656 C 0.59573 0.79071 0.33642 0.0
C657 C 0.55826 0.71552 0.37032 0.0
C658 C 0.54091 0.73051 0.38926 0.0
C659 C 0.52876 0.70376 0.372 0.0
C660 C 0.54421 0.70281 0.36506 0.0
C661 C 0.52702 0.71741 0.38448 0.0
C662 C 0.55638 0.72958 0.38225 0.0
C663 C 0.5749 0.71306 0.36407 0.0
O664 O 0.61289 0.71609 0.33242 0.0
O665 O 0.62609 0.72394 0.35848 0.0
O666 O 0.58881 0.72108 0.37359 0.0
O667 O 0.57547 0.71326 0.34754 0.0
H668 H 0.60498 0.68413 0.34034 0.0
H669 H 0.61344 0.65533 0.34128 0.0
H670 H 0.66682 0.67719 0.35047 0.0
H671 H 0.65822 0.70582 0.34882 0.0
H672 H 0.64521 0.8003 0.33899 0.0
H673 H 0.63225 0.77288 0.34667 0.0
H674 H 0.59457 0.8157 0.32874 0.0
H675 H 0.58189 0.78827 0.33588 0.0
H676 H 0.54008 0.74116 0.3989 0.0
H677 H 0.51825 0.69363 0.36774 0.0
H678 H 0.54532 0.69188 0.35584 0.0
H679 H 0.567 0.73961 0.38651 0.0
C680 C 0.72045 0.17307 0.99251 0.0
C681 C 0.73104 0.18851 0.9983 0.0
C682 C 0.70698 0.20456 0.99287 0.0
C683 C 0.72442 0.20406 0.99843 0.0
C684 C 0.69633 0.18907 0.98681 0.0
C685 C 0.70305 0.17334 0.98669 0.0
U686 U 0.7603 0.15429 0.00275 0.0
O687 O 0.76672 0.13235 0.01589 0.0
O688 O 0.77254 0.13387 0.98948 0.0
C689 C 0.77187 0.12448 1.00218 0.0
C690 C 0.72816 0.15708 0.9927 0.0
C691 C 0.76409 0.10669 0.99725 0.0
C692 C 0.73896 0.08532 0.99077 0.0
C693 C 0.74618 0.10246 0.99489 0.0
C694 C 0.76751 0.07669 0.99087 0.0
C695 C 0.74959 0.07227 0.98881 0.0
C696 C 0.7747 0.09379 0.99508 0.0
C697 C 0.79948 0.18628 0.02019 0.0
C698 C 0.82702 0.17667 0.02843 0.0
C699 C 0.8244 0.20713 0.03048 0.0
C700 C 0.80696 0.20337 0.02432 0.0
C701 C 0.83465 0.19383 0.03256 0.0
C702 C 0.80956 0.17293 0.02228 0.0
C703 C 0.7812 0.18252 0.01366 0.0
O704 O 0.73963 0.15542 0.98197 0.0
O705 O 0.73354 0.15369 0.00818 0.0
O706 O 0.77166 0.17447 0.02361 0.0
O707 O 0.77781 0.17615 0.99739 0.0
H708 H 0.74454 0.18853 0.00269 0.0
H709 H 0.73308 0.21576 0.00272 0.0
H710 H 0.68286 0.18915 0.98238 0.0
H711 H 0.69475 0.16147 0.98211 0.0
H712 H 0.72511 0.08226 0.98917 0.0
H713 H 0.73783 0.11238 0.99643 0.0
H714 H 0.77602 0.06687 0.98973 0.0
H715 H 0.78855 0.09691 0.99688 0.0
H716 H 0.83458 0.16615 0.02973 0.0
H717 H 0.82981 0.22046 0.03379 0.0
H718 H 0.7993 0.2138 0.02282 0.0
H719 H 0.80391 0.15964 0.01909 0.0
C720 C 0.19406 0.78814 0.67153 0.0
C721 C 0.18566 0.79794 0.66023 0.0
C722 C 0.20279 0.82426 0.67484 0.0
C723 C 0.19 0.81582 0.66185 0.0
C724 C 0.21084 0.81436 0.68638 0.0
C725 C 0.20653 0.79649 0.68471 0.0
U726 U 0.16808 0.74612 0.64963 0.0
O727 O 0.17667 0.72233 0.63847 0.0
O728 O 0.1608 0.72159 0.65956 0.0
C729 C 0.16938 0.7129 0.64899 0.0
C730 C 0.19062 0.76919 0.66921 0.0
C731 C 0.17954 0.70011 0.65596 0.0
C732 C 0.20659 0.69153 0.66784 0.0
C733 C 0.19659 0.70446 0.66366 0.0
C734 C 0.1824 0.66992 0.65727 0.0
C735 C 0.19976 0.67403 0.66427 0.0
C736 C 0.17244 0.68281 0.6532 0.0
C737 C 0.13047 0.74796 0.61513 0.0
C738 C 0.11925 0.72444 0.59272 0.0
C739 C 0.10581 0.75061 0.59476 0.0
C740 C 0.11754 0.75739 0.60912 0.0
C741 C 0.10683 0.73426 0.58607 0.0
C742 C 0.13099 0.73125 0.60713 0.0
C743 C 0.14408 0.75627 0.62872 0.0
O744 O 0.17632 0.76253 0.67431 0.0
O745 O 0.19339 0.76167 0.65426 0.0
O746 O 0.15983 0.75527 0.62518 0.0
O747 O 0.14201 0.75354 0.64451 0.0
H748 H 0.17595 0.79173 0.64998 0.0
H749 H 0.18337 0.82302 0.65288 0.0
H750 H 0.22088 0.82033 0.69641 0.0
H751 H 0.21321 0.78915 0.69353 0.0
H752 H 0.2198 0.69523 0.67351 0.0
H753 H 0.2023 0.71776 0.66593 0.0
H754 H 0.17667 0.65667 0.65409 0.0
H755 H 0.15932 0.6792 0.64719 0.0
H756 H 0.12042 0.71185 0.58631 0.0
H757 H 0.09618 0.75835 0.59019 0.0
H758 H 0.11687 0.77025 0.6152 0.0
H759 H 0.14086 0.72374 0.61164 0.0
C760 C 0.38382 0.33372 0.99223 0.0
C761 C 0.39337 0.31993 0.99403 0.0
C762 C 0.36727 0.30105 0.99566 0.0
C763 C 0.38519 0.30377 0.9958 0.0
C764 C 0.3577 0.31484 0.99333 0.0
C765 C 0.36594 0.33109 0.99169 0.0
U766 U 0.42547 0.36072 0.99161 0.0
O767 O 0.4333 0.38346 0.97932 0.0
O768 O 0.43729 0.38466 0.00744 0.0
C769 C 0.43787 0.39319 0.99411 0.0
C770 C 0.3928 0.35092 0.992 0.0
C771 C 0.43096 0.40967 0.99589 0.0
C772 C 0.408 0.42708 0.99032 0.0
C773 C 0.41428 0.41122 0.98854 0.0
C774 C 0.43481 0.43986 0.00725 0.0
C775 C 0.41824 0.44153 0.99965 0.0
C776 C 0.44115 0.42403 0.00531 0.0
C777 C 0.46566 0.34035 0.99064 0.0
C778 C 0.49247 0.35939 0.99666 0.0
C779 C 0.49262 0.32883 0.98864 0.0
C780 C 0.47469 0.32635 0.9872 0.0
C781 C 0.50165 0.34535 0.99364 0.0
C782 C 0.4746 0.35691 0.99509 0.0
C783 C 0.44697 0.33788 0.99001 0.0
O784 O 0.40346 0.3566 0.00596 0.0
O785 O 0.39944 0.35339 0.97778 0.0
O786 O 0.43857 0.34245 0.97628 0.0
O787 O 0.44137 0.34359 0.00436 0.0
H788 H 0.40723 0.32181 0.99452 0.0
H789 H 0.39301 0.29356 0.99782 0.0
H790 H 0.34385 0.3131 0.99289 0.0
H791 H 0.35842 0.34163 0.99029 0.0
H792 H 0.3951 0.42803 0.98453 0.0
H793 H 0.40613 0.40019 0.98141 0.0
H794 H 0.44296 0.45084 0.01443 0.0
H795 H 0.45402 0.42299 0.01113 0.0
H796 H 0.49913 0.37225 1.00036 0.0
H797 H 0.49944 0.31779 0.98638 0.0
H798 H 0.46792 0.3135 0.98371 0.0
H799 H 0.46774 0.36789 0.99763 0.0
C800 C 0.346 0.63186 0.69637 0.0
C801 C 0.35582 0.62407 0.68468 0.0
C802 C 0.3464 0.64215 0.66313 0.0
C803 C 0.35605 0.62918 0.66824 0.0
C804 C 0.33629 0.64961 0.67483 0.0
C805 C 0.33614 0.64453 0.69125 0.0
U806 U 0.35464 0.60104 0.72962 0.0
O807 O 0.36664 0.60619 0.75649 0.0
O808 O 0.34006 0.59365 0.75048 0.0
C809 C 0.35276 0.59985 0.76254 0.0
C810 C 0.34616 0.62719 0.714 0.0
C811 C 0.34827 0.60932 0.77829 0.0
C812 C 0.34351 0.63552 0.79558 0.0
C813 C 0.34674 0.62698 0.77989 0.0
C814 C 0.3431 0.60881 0.808 0.0
C815 C 0.34192 0.62655 0.80992 0.0
C816 C 0.34622 0.60033 0.7924 0.0
C817 C 0.37155 0.55841 0.71406 0.0
C818 C 0.39081 0.54091 0.72843 0.0
C819 C 0.37231 0.52867 0.70246 0.0
C820 C 0.36558 0.54426 0.70167 0.0
C821 C 0.3853 0.52688 0.71563 0.0
C822 C 0.384 0.55652 0.72767 0.0
C823 C 0.36544 0.57516 0.71172 0.0
O824 O 0.33499 0.61412 0.71594 0.0
O825 O 0.36142 0.62684 0.72243 0.0
O826 O 0.37559 0.58903 0.71892 0.0
O827 O 0.34913 0.57619 0.71302 0.0
H828 H 0.3635 0.6142 0.68834 0.0
H829 H 0.36411 0.62324 0.65971 0.0
H830 H 0.32843 0.65937 0.6713 0.0
H831 H 0.32838 0.65062 0.70003 0.0
H832 H 0.34272 0.6492 0.79663 0.0
H833 H 0.3483 0.63417 0.76913 0.0
H834 H 0.34163 0.60142 0.81863 0.0
H835 H 0.34729 0.58669 0.79143 0.0
H836 H 0.40086 0.54006 0.7387 0.0
H837 H 0.36747 0.51808 0.69258 0.0
H838 H 0.35594 0.54539 0.69109 0.0
H839 H 0.38881 0.56721 0.73745 0.0
C840 C 0.99065 0.72625 0.17763 0.0
C841 C 0.98523 0.73695 0.19086 0.0
C842 C 0.99317 0.71762 0.21136 0.0
C843 C 0.98641 0.73264 0.20751 0.0
C844 C 0.99822 0.70666 0.19806 0.0
C845 C 0.99695 0.71096 0.18128 0.0
U846 U 1.0019 0.76402 0.15595 0.0
O847 O 0.01693 0.76889 0.13485 0.0
O848 O 0.99015 0.77449 0.13347 0.0
C849 C 0.00368 0.77319 0.12535 0.0
C850 C 0.99219 0.73251 0.16097 0.0
C851 C 1.00004 0.76466 0.10762 0.0
C852 C 1.00278 0.74152 0.08549 0.0
C853 C 0.00599 0.74896 0.10261 0.0
C854 C 0.98708 0.76503 0.0784 0.0
C855 C 0.99337 0.74957 0.07322 0.0
C856 C 0.99044 0.77252 0.09543 0.0
C857 C 0.01642 0.80501 0.18664 0.0
C858 C 0.02486 0.83221 0.17645 0.0
C859 C 0.02909 0.82963 0.20689 0.0
C860 C 0.02196 0.81244 0.20353 0.0
C861 C 0.03081 0.83964 0.19337 0.0
C862 C 0.01776 0.81497 0.17309 0.0
C863 C 0.01007 0.78668 0.18331 0.0
O864 O 0.9812 0.74311 0.15656 0.0
O865 O 0.00804 0.73785 0.15866 0.0
O866 O 0.02094 0.77694 0.17711 0.0
O867 O 0.99431 0.78279 0.17549 0.0
H868 H 0.98072 0.74905 0.18852 0.0
H869 H 0.98266 0.74147 0.21751 0.0
H870 H 0.00334 0.69491 0.20068 0.0
H871 H 1.00145 0.70269 0.1713 0.0
H872 H 0.00771 0.72957 0.0818 0.0
H873 H 0.01328 0.74253 0.11184 0.0
H874 H 0.98003 0.77164 0.06916 0.0
H875 H 0.98572 0.78462 0.09907 0.0
H876 H 0.02617 0.83958 0.16578 0.0
H877 H 0.03337 0.83507 0.22007 0.0
H878 H 0.021 0.80487 0.2141 0.0
H879 H 0.01362 0.80932 0.15995 0.0
C880 C 0.67595 0.20026 0.77999 0.0
C881 C 0.66859 0.19228 0.79293 0.0
C882 C 0.68137 0.21643 0.81423 0.0
C883 C 0.67137 0.20027 0.80997 0.0
C884 C 0.68897 0.2241 0.80123 0.0
C885 C 0.6863 0.21608 0.78431 0.0
U886 U 0.6531 0.16715 0.74237 0.0
O887 O 0.64055 0.17205 0.71751 0.0
O888 O 0.66277 0.15762 0.7184 0.0
C889 C 0.6516 0.16476 0.70879 0.0
C890 C 0.67228 0.19302 0.76177 0.0
C891 C 0.65831 0.17464 0.69573 0.0
C892 C 0.67071 0.20142 0.68707 0.0
C893 C 0.6665 0.19152 0.70002 0.0
C894 C 0.6592 0.1774 0.66555 0.0
C895 C 0.66673 0.19461 0.66963 0.0
C896 C 0.65505 0.16754 0.67848 0.0
C897 C 0.62054 0.12981 0.7482 0.0
C898 C 0.60058 0.11505 0.724 0.0
C899 C 0.59881 0.10699 0.75252 0.0
C900 C 0.61281 0.11929 0.75904 0.0
C901 C 0.59222 0.10505 0.73501 0.0
C902 C 0.61462 0.12736 0.73056 0.0
C903 C 0.63363 0.14425 0.7556 0.0
O904 O 0.67784 0.17825 0.7574 0.0
O905 O 0.65668 0.19394 0.75447 0.0
O906 O 0.62935 0.15946 0.75304 0.0
O907 O 0.64955 0.14251 0.75305 0.0
H908 H 0.66047 0.18009 0.7898 0.0
H909 H 0.6653 0.19407 0.81969 0.0
H910 H 0.69696 0.23639 0.80414 0.0
H911 H 0.69211 0.22242 0.77451 0.0
H912 H 0.67672 0.21453 0.6907 0.0
H913 H 0.66914 0.19719 0.71332 0.0
H914 H 0.65573 0.17176 0.65231 0.0
H915 H 0.64866 0.15455 0.67495 0.0
H916 H 0.59579 0.11395 0.71048 0.0
H917 H 0.59287 0.09926 0.76127 0.0
H918 H 0.61726 0.12095 0.77267 0.0
H919 H 0.62044 0.13541 0.72198 0.0
C920 C 0.993 0.38097 0.33782 0.0
C921 C 0.98803 0.38807 0.3228 0.0
C922 C 0.99802 0.36463 0.30555 0.0
C923 C 0.99042 0.37993 0.30681 0.0
C924 C 1.00282 0.35747 0.32066 0.0
C925 C 1.00032 0.3656 0.33668 0.0
U926 U 0.99073 0.42339 0.3625 0.0
O927 O 0.97758 0.43195 0.38444 0.0
O928 O 0.00568 0.43691 0.38615 0.0
C929 C 0.99212 0.43733 0.39437 0.0
C930 C 0.99217 0.39059 0.35463 0.0
C931 C 0.9939 0.43055 0.41088 0.0
C932 C 0.99874 0.40698 0.42729 0.0
C933 C 0.99605 0.41324 0.4115 0.0
C934 C 0.99678 0.43523 0.44197 0.0
C935 C 0.99929 0.41795 0.44269 0.0
C936 C 0.99415 0.4415 0.42614 0.0
C937 C 0.99131 0.46127 0.33693 0.0
C938 C 0.9886 0.49013 0.34969 0.0
C939 C 0.00424 0.48584 0.32513 0.0
C940 C 1.00059 0.46813 0.32467 0.0
C941 C 0.99857 0.49697 0.33783 0.0
C942 C 0.98512 0.47232 0.34935 0.0
C943 C 0.99009 0.44274 0.33768 0.0
O944 O 0.00584 0.40167 0.36024 0.0
O945 O 0.97766 0.39694 0.35642 0.0
O946 O 0.97605 0.43541 0.34274 0.0
O947 O 0.00423 0.43774 0.34477 0.0
H948 H 0.98258 0.4001 0.32346 0.0
H949 H 0.98636 0.38568 0.29545 0.0
H950 H 0.00893 0.34583 0.32017 0.0
H951 H 0.00451 0.36012 0.34818 0.0
H952 H 1.00037 0.39355 0.42745 0.0
H953 H 0.99586 0.40463 0.39978 0.0
H954 H 0.99725 0.44397 0.45364 0.0
H955 H 0.99257 0.45492 0.42581 0.0
H956 H 0.98411 0.49852 0.35957 0.0
H957 H 0.01174 0.49087 0.31571 0.0
H958 H 0.00555 0.45977 0.31509 0.0
H959 H 0.97811 0.46722 0.35908 0.0
C960 C 0.29584 0.5154 0.64866 0.0
N961 N 0.29237 0.52886 0.6401 0.0
N962 N 0.30447 0.50459 0.63931 0.0
C963 C 0.29132 0.51303 0.66628 0.0
C964 C 0.30611 0.51192 0.62479 0.0
N965 N 0.29885 0.52669 0.62529 0.0
C966 C 0.31445 0.50446 0.60996 0.0
H967 H 0.30004 0.50498 0.67276 0.0
H968 H 0.27799 0.50647 0.6651 0.0
H969 H 0.29195 0.52565 0.67422 0.0
H970 H 0.31476 0.49044 0.60998 0.0
H971 H 0.32786 0.5108 0.61103 0.0
H972 H 0.30756 0.5069 0.59761 0.0
C973 C 0.32714 0.60191 0.01798 0.0
N974 N 0.328 0.58534 0.01205 0.0
N975 N 0.31108 0.60605 0.01382 0.0
C976 C 0.34241 0.61453 0.02593 0.0
C977 C 0.30236 0.59135 0.005 0.0
N978 N 0.31265 0.57879 0.00395 0.0
C979 C 0.28377 0.58917 0.99759 0.0
H980 H 0.34186 0.61714 0.03993 0.0
H981 H 0.34211 0.62687 0.02045 0.0
H982 H 0.3547 0.60951 0.02394 0.0
H983 H 0.28283 0.59123 0.98388 0.0
H984 H 0.27669 0.59857 0.0045 0.0
H985 H 0.27773 0.57592 0.9983 0.0
C986 C 0.70698 0.99834 0.32044 0.0
N987 N 0.69313 0.98449 0.31718 0.0
N988 N 0.70722 0.02073 0.31213 0.0
C989 C 0.71927 0.97826 0.3133 0.0
C990 C 0.70967 0.01726 0.32268 0.0
N991 N 0.70438 0.99618 0.3277 0.0
C992 C 0.7157 0.0382 0.33378 0.0
H993 H 0.72474 0.97264 0.32446 0.0
H994 H 0.73116 0.97947 0.30707 0.0
H995 H 0.71182 0.96811 0.30347 0.0
H996 H 0.70607 0.04707 0.3306 0.0
H997 H 0.72849 0.04394 0.33103 0.0
H998 H 0.71755 0.04117 0.34809 0.0
C999 C 0.73312 0.88132 0.98591 0.0
N1000 N 0.74107 0.89525 0.99646 0.0
N1001 N 0.73479 0.86682 0.99331 0.0
C1002 C 0.72215 0.88208 0.96925 0.0
C1003 C 0.74406 0.8725 0.00877 0.0
N1004 N 0.74773 0.88982 0.01076 0.0
C1005 C 0.74816 0.86123 0.02247 0.0
H1006 H 0.70999 0.887 0.97202 0.0
H1007 H 0.71914 0.86922 0.9616 0.0
H1008 H 0.7288 0.8911 0.9616 0.0
H1009 H 0.75254 0.84924 0.01685 0.0
H1010 H 0.73636 0.85764 0.02835 0.0
H1011 H 0.75835 0.86781 0.03261 0.0
C1012 C 0.6458 0.29556 0.51616 0.0
N1013 N 0.63746 0.2913 0.52949 0.0
N1014 N 0.63651 0.30515 0.50634 0.0
C1015 C 0.6635 0.29144 0.51338 0.0
C1016 C 0.62223 0.30658 0.51421 0.0
N1017 N 0.62283 0.29821 0.52829 0.0
C1018 C 0.60726 0.31521 0.50753 0.0
H1019 H 0.67012 0.30118 0.50646 0.0
H1020 H 0.66239 0.27873 0.50549 0.0
H1021 H 0.67135 0.2908 0.52579 0.0
H1022 H 0.60636 0.31501 0.49339 0.0
H1023 H 0.60909 0.32879 0.51349 0.0
H1024 H 0.59504 0.30887 0.5109 0.0
C1025 C 0.98181 0.72898 0.87889 0.0
N1026 N 0.99099 0.73782 0.89325 0.0
N1027 N 0.99046 0.73056 0.86517 0.0
C1028 C 0.96418 0.71929 0.87811 0.0
C1029 C 0.00527 0.74065 0.87172 0.0
N1030 N 0.00551 0.7452 0.88876 0.0
C1031 C 0.0204 0.74411 0.86198 0.0
H1032 H 0.96537 0.70588 0.88053 0.0
H1033 H 0.95683 0.71899 0.86525 0.0
H1034 H 0.95707 0.72526 0.88807 0.0
H1035 H 0.01894 0.75572 0.85548 0.0
H1036 H 0.02105 0.73318 0.85207 0.0
H1037 H 0.0327 0.74641 0.87065 0.0
C1038 C 0.01489 0.32294 0.60096 0.0
N1039 N 0.00849 0.32443 0.58472 0.0
N1040 N 0.0102 0.30687 0.60482 0.0
C1041 C 0.02476 0.33751 0.6133 0.0
C1042 C 1.00061 0.29877 0.59021 0.0
N1043 N 0.99968 0.30948 0.57801 0.0
C1044 C 0.99188 0.28062 0.58795 0.0
H1045 H 0.03866 0.33622 0.61406 0.0
H1046 H 0.02083 0.33713 0.62632 0.0
H1047 H 0.02274 0.35012 0.60899 0.0
H1048 H 0.97828 0.28079 0.59021 0.0
H1049 H 0.99821 0.27292 0.59713 0.0
H1050 H 0.99198 0.27446 0.57466 0.0
C1051 C 0.3054 0.69642 0.99193 0.0
N1052 N 0.32133 0.69629 0.98162 0.0
N1053 N 0.32001 0.70487 0.01714 0.0
C1054 C 0.28678 0.6928 0.98262 0.0
C1055 C 0.3393 0.70653 0.01202 0.0
N1056 N 0.33841 0.70147 0.99218 0.0
C1057 C 0.35547 0.70987 0.02452 0.0
H1058 H 0.27948 0.70398 0.98399 0.0
H1059 H 0.27942 0.68153 0.98676 0.0
H1060 H 0.2869 0.6898 0.96864 0.0
H1061 H 0.35284 0.70751 0.0376 0.0
H1062 H 0.3611 0.72345 0.02492 0.0
H1063 H 0.36499 0.70147 0.02039 0.0
C1064 C 0.51594 0.65003 0.29571 0.0
N1065 N 0.52888 0.64119 0.29116 0.0
N1066 N 0.50477 0.64015 0.30353 0.0
C1067 C 0.51354 0.66775 0.29144 0.0
C1068 C 0.5114 0.62504 0.30358 0.0
N1069 N 0.52599 0.62564 0.29605 0.0
C1070 C 0.50408 0.61002 0.3118 0.0
H1071 H 0.52067 0.67731 0.30188 0.0
H1072 H 0.49977 0.66969 0.29033 0.0
H1073 H 0.51868 0.67006 0.27927 0.0
H1074 H 0.49522 0.60116 0.30198 0.0
H1075 H 0.49676 0.61434 0.32233 0.0
H1076 H 0.51443 0.60287 0.31695 0.0
C1077 C 0.88243 0.98379 0.72385 0.0
N1078 N 0.89688 0.99261 0.73293 0.0
N1079 N 0.86866 0.99214 0.72638 0.0
C1080 C 0.8816 0.9667 0.7131 0.0
C1081 C 0.87526 0.00638 0.73732 0.0
N1082 N 0.89238 0.00656 0.74143 0.0
C1083 C 0.86543 0.0211 0.74221 0.0
H1084 H 0.88379 0.96882 0.69982 0.0
H1085 H 0.86879 0.95916 0.71259 0.0
H1086 H 0.89168 0.95928 0.71832 0.0
H1087 H 0.85948 0.01875 0.75394 0.0
H1088 H 0.85506 0.02222 0.73184 0.0
H1089 H 0.87396 0.03348 0.74492 0.0
C1090 C 0.5999 0.01794 0.33409 0.0
N1091 N 0.583 0.01217 0.33197 0.0
N1092 N 0.60823 0.00832 0.32321 0.0
C1093 C 0.60812 0.03302 0.34675 0.0
C1094 C 0.59564 0.99634 0.31455 0.0
N1095 N 0.58031 0.99878 0.31989 0.0
C1096 C 0.59848 0.98172 0.30172 0.0
H1097 H 0.59893 0.04252 0.34866 0.0
H1098 H 0.61982 0.03933 0.34234 0.0
H1099 H 0.61172 0.02849 0.35931 0.0
H1100 H 0.61093 0.97702 0.30546 0.0
H1101 H 0.5989 0.98637 0.28901 0.0
H1102 H 0.58796 0.97095 0.30046 0.0
C1103 C 0.99411 0.30658 0.69484 0.0
N1104 N 0.98572 0.3236 0.69317 0.0
N1105 N 0.02022 0.31886 0.70271 0.0
C1106 C 0.9829 0.2889 0.69222 0.0
C1107 C 0.01738 0.33885 0.70273 0.0
N1108 N 0.99787 0.33986 0.69719 0.0
C1109 C 0.03119 0.35389 0.70717 0.0
H1110 H 0.98232 0.28315 0.70435 0.0
H1111 H 0.98695 0.27953 0.68244 0.0
H1112 H 0.96947 0.29042 0.68755 0.0
H1113 H 0.04241 0.35138 0.70041 0.0
H1114 H 0.03548 0.35548 0.72115 0.0
H1115 H 0.02658 0.366 0.70388 0.0
C1116 C 0.70965 0.48944 0.35653 0.0
N1117 N 0.71474 0.47671 0.36531 0.0
N1118 N 0.70119 0.5001 0.36634 0.0
C1119 C 0.7127 0.49126 0.33836 0.0
C1120 C 0.70141 0.49325 0.38139 0.0
N1121 N 0.70966 0.47911 0.38073 0.0
C1122 C 0.69435 0.50079 0.39705 0.0
H1123 H 0.72524 0.49918 0.33847 0.0
H1124 H 0.70248 0.49767 0.33181 0.0
H1125 H 0.71321 0.47852 0.33106 0.0
H1126 H 0.6806 0.49563 0.39628 0.0
H1127 H 0.69537 0.515 0.39777 0.0
H1128 H 0.70122 0.49726 0.40892 0.0
C1129 C 0.66878 0.39698 0.99524 0.0
N1130 N 0.66945 0.41361 1.00166 0.0
N1131 N 0.68451 0.39157 0.99803 0.0
C1132 C 0.65253 0.38605 0.98695 0.0
C1133 C 0.69468 0.40578 0.00638 0.0
N1134 N 0.68545 0.41912 0.00853 0.0
C1135 C 0.71362 0.40687 0.01205 0.0
H1136 H 0.6527 0.37247 0.98924 0.0
H1137 H 0.65124 0.38667 0.97291 0.0
H1138 H 0.64114 0.39088 0.99194 0.0
H1139 H 0.7196 0.39749 0.00385 0.0
H1140 H 0.7156 0.40405 0.02553 0.0
H1141 H 0.72013 0.41997 0.01162 0.0
C1142 C 0.28642 0.01117 0.67753 0.0
N1143 N 0.2995 0.02088 0.67193 0.0
N1144 N 0.28695 0.99413 0.67267 0.0
C1145 C 0.27329 0.01825 0.68774 0.0
C1146 C 0.30053 0.99399 0.66358 0.0
N1147 N 0.3082 0.0101 0.66334 0.0
C1148 C 0.30512 0.97831 0.6532 0.0
H1149 H 0.27873 0.03055 0.69565 0.0
H1150 H 0.26842 0.00891 0.69609 0.0
H1151 H 0.26231 0.02078 0.67874 0.0
H1152 H 0.29391 0.96825 0.64981 0.0
H1153 H 0.31551 0.97303 0.66084 0.0
H1154 H 0.30993 0.9816 0.64116 0.0
C1155 C 0.2813 0.12513 0.02415 0.0
N1156 N 0.27078 0.1113 0.01586 0.0
N1157 N 0.27808 0.13948 0.01713 0.0
C1158 C 0.29492 0.12478 0.03895 0.0
C1159 C 0.26526 0.13392 0.0042 0.0
N1160 N 0.26069 0.11679 0.00351 0.0
C1161 C 0.25893 0.14468 0.99077 0.0
H1162 H 0.29145 0.11409 0.04642 0.0
H1163 H 0.29679 0.13716 0.04749 0.0
H1164 H 0.30726 0.12297 0.03394 0.0
H1165 H 0.26764 0.15673 0.99094 0.0
H1166 H 0.24609 0.14806 0.99325 0.0
H1167 H 0.25755 0.13731 0.97779 0.0
C1168 C 0.35674 0.71087 0.48874 0.0
N1169 N 0.36541 0.71454 0.47544 0.0
N1170 N 0.36618 0.70245 0.4997 0.0
C1171 C 0.33867 0.71445 0.49047 0.0
C1172 C 0.38092 0.70121 0.49262 0.0
N1173 N 0.38044 0.70847 0.47785 0.0
C1174 C 0.39626 0.69409 0.50085 0.0
H1175 H 0.33906 0.72751 0.49744 0.0
H1176 H 0.33215 0.70507 0.49785 0.0
H1177 H 0.33114 0.714 0.47766 0.0
H1178 H 0.39545 0.68025 0.496 0.0
H1179 H 0.39658 0.69536 0.51501 0.0
H1180 H 0.40838 0.70076 0.49762 0.0
C1181 C 0.02021 0.28389 0.12549 0.0
N1182 N 0.0122 0.27394 0.11122 0.0
N1183 N 0.012 0.28083 0.1392 0.0
C1184 C 0.03622 0.29627 0.12607 0.0
C1185 C 0.99863 0.26873 0.13268 0.0
N1186 N 0.99889 0.26438 0.11567 0.0
C1187 C 0.98416 0.26284 0.14243 0.0
H1188 H 0.04359 0.29834 0.13909 0.0
H1189 H 0.03257 0.30877 0.12272 0.0
H1190 H 0.04446 0.29146 0.11657 0.0
H1191 H 0.98248 0.27286 0.15289 0.0
H1192 H 0.98716 0.25116 0.14818 0.0
H1193 H 0.97185 0.25963 0.13384 0.0
C1194 C 0.97651 0.68344 0.40755 0.0
N1195 N 0.98477 0.68302 0.42333 0.0
N1196 N 0.98496 0.69532 0.39923 0.0
C1197 C 0.96028 0.67189 0.40031 0.0
C1198 C 0.99869 0.70222 0.4109 0.0
N1199 N 0.99847 0.69473 0.4255 0.0
C1200 C 0.0128 0.71543 0.40757 0.0
H1201 H 0.96348 0.65886 0.3961 0.0
H1202 H 0.95339 0.67697 0.38932 0.0
H1203 H 0.95173 0.67058 0.41044 0.0
H1204 H 0.00759 0.72777 0.40636 0.0
H1205 H 0.01766 0.71126 0.39532 0.0
H1206 H 0.02362 0.7178 0.41806 0.0
C1207 C 0.69731 0.30821 0.01808 0.0
N1208 N 0.68665 0.31826 0.02567 0.0
N1209 N 0.69097 0.29963 1.00039 0.0
C1210 C 0.71309 0.30431 0.02975 0.0
C1211 C 0.67439 0.29858 0.00709 0.0
N1212 N 0.67183 0.31225 0.0175 0.0
C1213 C 0.66386 0.28178 0.0096 0.0
H1214 H 0.72541 0.31016 0.02622 0.0
H1215 H 0.7131 0.29025 0.02956 0.0
H1216 H 0.71354 0.30945 0.04338 0.0
H1217 H 0.66984 0.27007 0.0065 0.0
H1218 H 0.651 0.28064 1.00199 0.0
H1219 H 0.66195 0.28185 0.0233 0.0
C1220 C 0.4919 0.35804 0.71051 0.0
N1221 N 0.47839 0.36638 0.71419 0.0
N1222 N 0.50185 0.36705 0.7008 0.0
C1223 C 0.49482 0.34069 0.71555 0.0
C1224 C 0.49389 0.38121 0.6988 0.0
N1225 N 0.47958 0.38076 0.70684 0.0
C1226 C 0.50095 0.39613 0.69028 0.0
H1227 H 0.50262 0.34244 0.72834 0.0
H1228 H 0.50187 0.33369 0.70619 0.0
H1229 H 0.48245 0.33288 0.71645 0.0
H1230 H 0.49539 0.39427 0.67658 0.0
H1231 H 0.51513 0.39701 0.69094 0.0
H1232 H 0.49748 0.40839 0.6964 0.0
C1233 C 0.12353 0.02609 0.27885 0.0
N1234 N 0.11059 0.01629 0.26832 0.0
N1235 N 0.13891 0.02146 0.27544 0.0
C1236 C 0.12103 0.03822 0.29417 0.0
C1237 C 0.13478 0.00848 0.26243 0.0
N1238 N 0.11755 0.00511 0.25824 0.0
C1239 C 0.14765 0.998 0.25511 0.0
H1240 H 0.11207 0.04735 0.29025 0.0
H1241 H 0.13339 0.04556 0.30034 0.0
H1242 H 0.11517 0.03076 0.30362 0.0
H1243 H 0.15108 0.98858 0.26394 0.0
H1244 H 0.15957 0.00645 0.25399 0.0
H1245 H 0.14241 0.99102 0.2423 0.0
C1246 C 0.40162 0.99744 0.66848 0.0
N1247 N 0.41856 1.00206 0.66804 0.0
N1248 N 0.39693 0.0039 0.6837 0.0
C1249 C 0.38987 0.98639 0.65422 0.0
C1250 C 0.41174 0.01254 0.69241 0.0
N1251 N 0.4248 0.01142 0.68286 0.0
C1252 C 0.41356 0.02177 0.71037 0.0
H1253 H 0.37623 0.98799 0.65514 0.0
H1254 H 0.39161 0.97274 0.65502 0.0
H1255 H 0.3931 0.98952 0.64153 0.0
H1256 H 0.40441 0.0154 0.71807 0.0
H1257 H 0.41078 0.03517 0.70973 0.0
H1258 H 0.4268 0.02228 0.71693 0.0
C1259 C 0.01435 0.69905 0.31031 0.0
N1260 N 0.02557 0.68374 0.31029 0.0
N1261 N 0.99021 0.68358 0.29935 0.0
C1262 C 0.02252 0.71789 0.31594 0.0
C1263 C 0.99641 0.66473 0.297 0.0
N1264 N 0.01611 0.6664 0.30354 0.0
C1265 C 0.98472 0.64812 0.29203 0.0
H1266 H 0.01713 0.72389 0.32717 0.0
H1267 H 0.02156 0.72614 0.30549 0.0
H1268 H 0.03645 0.71837 0.31993 0.0
H1269 H 0.98617 0.64294 0.27871 0.0
H1270 H 0.9711 0.64993 0.29273 0.0
H1271 H 0.98824 0.63856 0.30066 0.0
C1272 C 0.16586 0.65661 0.37181 0.0
C1273 C 0.18019 0.66922 0.37314 0.0
C1274 C 0.14968 0.65955 0.36441 0.0
C1275 C 0.12701 0.68566 0.33555 0.0
H1276 H 0.08842 0.67281 0.35986 0.0
C1277 C 0.04942 0.692 0.3338 0.0
C1278 C 0.04365 0.68588 0.31654 0.0
C1279 C 0.06657 0.69168 0.34047 0.0
C1280 C 0.09905 0.67662 0.35297 0.0
H1281 H 0.18865 0.6947 0.36709 0.0
H1282 H 0.16037 0.69971 0.35387 0.0
H1283 H 0.11733 0.66863 0.37162 0.0
H1284 H 0.05108 0.67496 0.29263 0.0
H1285 H 0.08122 0.67462 0.30413 0.0
H1286 H 0.10858 0.69346 0.31678 0.0
C1287 C 0.16174 0.68753 0.35866 0.0
C1288 C 0.11562 0.67405 0.35962 0.0
C1289 C 0.17797 0.68464 0.36621 0.0
C1290 C 0.05539 0.67993 0.30593 0.0
C1291 C 0.07259 0.67977 0.31252 0.0
C1292 C 0.11036 0.68804 0.32877 0.0
C1293 C 0.14734 0.67513 0.35797 0.0
C1294 C 0.12981 0.67843 0.35097 0.0
C1295 C 0.07832 0.68533 0.32997 0.0
C1296 C 0.09617 0.68351 0.33739 0.0
H1297 H 0.16709 0.6444 0.37656 0.0
H1298 H 0.13896 0.64956 0.36373 0.0
H1299 H 0.13763 0.68911 0.32852 0.0
H1300 H 0.04046 0.69634 0.34225 0.0
H1301 H 0.07058 0.69615 0.35394 0.0
C1302 C 0.36821 0.34058 0.80873 0.0
C1303 C 0.35144 0.33709 0.79996 0.0
C1304 C 0.38249 0.34103 0.79973 0.0
C1305 C 0.39619 0.33088 0.75616 0.0
H1306 H 0.43335 0.36698 0.77395 0.0
C1307 C 0.44764 0.35816 0.71587 0.0
C1308 C 0.46473 0.36064 0.72365 0.0
C1309 C 0.43427 0.35329 0.72525 0.0
C1310 C 0.42317 0.35672 0.76891 0.0
H1311 H 0.33678 0.33021 0.77474 0.0
H1312 H 0.36154 0.33186 0.75906 0.0
H1313 H 0.40928 0.36187 0.79018 0.0
H1314 H 0.48144 0.36001 0.74708 0.0
H1315 H 0.45803 0.35174 0.76372 0.0
H1316 H 0.40994 0.32637 0.73446 0.0
C1317 C 0.36373 0.33402 0.77294 0.0
C1318 C 0.40936 0.35369 0.77827 0.0
C1319 C 0.34944 0.33333 0.78196 0.0
C1320 C 0.46831 0.35805 0.74088 0.0
C1321 C 0.45495 0.35343 0.75036 0.0
C1322 C 0.40992 0.3341 0.74667 0.0
C1323 C 0.38046 0.33826 0.78168 0.0
C1324 C 0.39561 0.34077 0.77201 0.0
C1325 C 0.43777 0.35109 0.74266 0.0
C1326 C 0.42351 0.3471 0.75294 0.0
H1327 H 0.37038 0.34368 0.82255 0.0
H1328 H 0.39515 0.34391 0.80699 0.0
H1329 H 0.38605 0.32063 0.75102 0.0
H1330 H 0.44468 0.36011 0.70256 0.0
H1331 H 0.42116 0.35172 0.71902 0.0
C1332 C 0.54253 0.01243 0.59583 0.0
C1333 C 0.54877 0.99782 0.58831 0.0
C1334 C 0.52663 0.01098 0.60207 0.0
C1335 C 0.49405 0.97879 0.61512 0.0
H1336 H 0.46703 0.01686 0.61493 0.0
C1337 C 0.44235 0.9871 0.6596 0.0
C1338 C 0.42893 0.99658 0.65518 0.0
C1339 C 0.45488 0.98481 0.64876 0.0
C1340 C 0.47415 0.00591 0.61479 0.0
H1341 H 0.5433 0.97033 0.58105 0.0
H1342 H 0.51523 0.9678 0.59127 0.0
H1343 H 0.49285 0.01797 0.60096 0.0
H1344 H 0.41729 0.01036 0.63576 0.0
H1345 H 0.43865 0.00553 0.61607 0.0
H1346 H 0.47501 0.96645 0.62839 0.0
C1347 C 0.52275 0.98033 0.5929 0.0
C1348 C 0.48923 0.00671 0.60705 0.0
C1349 C 0.53879 0.98176 0.58696 0.0
C1350 C 0.42749 1.00281 0.63923 0.0
C1351 C 0.43989 1.00028 0.62817 0.0
C1352 C 0.47879 0.97784 0.62256 0.0
C1353 C 0.51647 0.99491 0.60062 0.0
C1354 C 0.49963 0.99337 0.60751 0.0
C1355 C 0.4541 0.99178 0.63309 0.0
C1356 C 0.46888 0.99159 0.62292 0.0
H1357 H 0.5501 0.02493 0.59718 0.0
H1358 H 0.52249 0.02244 0.6083 0.0
H1359 H 0.50172 0.96829 0.61588 0.0
H1360 H 0.44363 0.98231 0.67195 0.0
H1361 H 0.46568 0.97843 0.65322 0.0
C1362 C 0.95532 0.99937 0.26841 0.0
C1363 C 0.94866 0.01417 0.26369 0.0
C1364 C 0.97296 0.99953 0.27271 0.0
C1365 C 0.0145 0.02826 0.28245 0.0
H1366 H 0.03255 0.9887 0.26084 0.0
C1367 C 0.08405 0.02979 0.2667 0.0
C1368 C 0.09265 0.01572 0.27006 0.0
C1369 C 0.06665 0.02944 0.26854 0.0
C1370 C 0.0277 0.99972 0.26717 0.0
H1371 H 0.95501 0.04093 0.26044 0.0
H1372 H 0.98587 0.04117 0.26755 0.0
H1373 H 1.00166 0.98851 0.26013 0.0
H1374 H 0.09034 0.99048 0.27838 0.0
H1375 H 0.05964 0.98956 0.28123 0.0
H1376 H 0.04067 0.03969 0.28882 0.0
C1377 C 0.97751 0.0295 0.26827 0.0
C1378 C 0.01 0.99961 0.26683 0.0
C1379 C 0.95984 0.02937 0.26414 0.0
C1380 C 0.08375 1.00131 0.27543 0.0
C1381 C 0.0663 1.00084 0.27712 0.0
C1382 C 0.03223 0.02842 0.28265 0.0
C1383 C 0.98431 0.01446 0.27219 0.0
C1384 C 0.00317 0.01398 0.27423 0.0
C1385 C 0.05759 0.01492 0.27368 0.0
C1386 C 0.03896 0.01425 0.27478 0.0
H1387 H 0.94689 0.98756 0.26843 0.0
H1388 H 0.97775 0.98784 0.27605 0.0
H1389 H 0.00967 0.03942 0.28852 0.0
H1390 H 0.09082 0.04097 0.26252 0.0
H1391 H 0.06019 0.04036 0.26558 0.0
C1392 C 0.36406 0.1626 0.65165 0.0
C1393 C 0.36448 0.17669 0.66433 0.0
C1394 C 0.35552 0.14651 0.65336 0.0
C1395 C 0.32346 0.12346 0.67673 0.0
H1396 H 0.34705 0.08463 0.66303 0.0
C1397 C 0.29338 0.05107 0.67072 0.0
C1398 C 0.30468 0.03926 0.67517 0.0
C1399 C 0.29957 0.06855 0.67093 0.0
C1400 C 0.3403 0.09529 0.66709 0.0
H1401 H 0.35567 0.18486 0.68859 0.0
H1402 H 0.34079 0.1566 0.69166 0.0
H1403 H 0.35979 0.11345 0.66042 0.0
H1404 H 0.33111 0.03661 0.68375 0.0
H1405 H 0.34173 0.06678 0.68483 0.0
H1406 H 0.30405 0.10503 0.68365 0.0
C1407 C 0.34701 0.15812 0.68029 0.0
C1408 C 0.34753 0.11189 0.66536 0.0
C1409 C 0.35556 0.17433 0.67854 0.0
C1410 C 0.32204 0.04541 0.68055 0.0
C1411 C 0.32818 0.06272 0.68087 0.0
C1412 C 0.31615 0.10673 0.67843 0.0
C1413 C 0.34714 0.1439 0.66784 0.0
C1414 C 0.33923 0.12625 0.67007 0.0
C1415 C 0.31719 0.07448 0.67554 0.0
C1416 C 0.32454 0.09242 0.6737 0.0
H1417 H 0.37041 0.164 0.64033 0.0
H1418 H 0.35555 0.13604 0.64328 0.0
H1419 H 0.31663 0.13418 0.6804 0.0
H1420 H 0.28001 0.04663 0.66617 0.0
H1421 H 0.29075 0.07721 0.66665 0.0
C1422 C 0.26825 0.95903 0.02844 0.0
C1423 C 0.26514 0.94907 0.01227 0.0
C1424 C 0.2722 0.97686 0.0297 0.0
C1425 C 0.26184 0.01084 0.00482 0.0
H1426 H 0.29438 0.04092 0.0385 0.0
C1427 C 0.28732 0.08678 0.01801 0.0
C1428 C 0.27166 0.09361 0.01822 0.0
C1429 C 0.28794 0.06928 0.0187 0.0
C1430 C 0.28526 0.03261 0.02904 0.0
H1431 H 0.26543 0.94964 0.98493 0.0
H1432 H 0.27223 0.98079 0.98714 0.0
H1433 H 0.29469 0.00968 0.03645 0.0
H1434 H 0.24448 0.08782 0.01948 0.0
H1435 H 0.24541 0.05694 0.02032 0.0
H1436 H 0.25224 0.03361 0.99752 0.0
C1437 C 0.27129 0.97485 0.99878 0.0
C1438 C 0.28542 0.01482 0.02789 0.0
C1439 C 0.26739 0.95707 0.99752 0.0
C1440 C 0.25666 0.08274 0.01935 0.0
C1441 C 0.25721 0.06518 0.0198 0.0
C1442 C 0.26153 0.02853 0.00612 0.0
C1443 C 0.27306 0.98495 0.0148 0.0
C1444 C 0.27372 0.00381 0.01572 0.0
C1445 C 0.27284 0.0583 0.0193 0.0
C1446 C 0.27319 0.03956 0.01826 0.0
H1447 H 0.26654 0.95319 0.04001 0.0
H1448 H 0.27347 0.98438 0.0422 0.0
H1449 H 0.25251 1.00261 0.99549 0.0
H1450 H 0.29895 0.09486 0.01661 0.0
H1451 H 0.30008 0.06421 0.01804 0.0
C1452 C 0.78489 0.34878 0.33048 0.0
C1453 C 0.80219 0.35033 0.33773 0.0
C1454 C 0.77571 0.363 0.33143 0.0
C1455 C 0.77623 0.40457 0.35812 0.0
H1456 H 0.74192 0.41337 0.32217 0.0
C1457 C 0.74243 0.4654 0.36487 0.0
C1458 C 0.7247 0.46344 0.35978 0.0
C1459 C 0.75204 0.45203 0.36073 0.0
C1460 C 0.75136 0.411 0.33238 0.0
H1461 H 0.82348 0.36838 0.35116 0.0
H1462 H 0.80769 0.39309 0.35233 0.0
H1463 H 0.75857 0.38933 0.31718 0.0
H1464 H 0.70294 0.44637 0.34638 0.0
H1465 H 0.71967 0.42271 0.33908 0.0
H1466 H 0.769 0.42601 0.3734 0.0
C1467 C 0.8011 0.38081 0.34619 0.0
C1468 C 0.76091 0.39722 0.32952 0.0
C1469 C 0.81024 0.36664 0.34529 0.0
C1470 C 0.71667 0.44806 0.35024 0.0
C1471 C 0.72627 0.43463 0.34606 0.0
C1472 C 0.76673 0.41829 0.36097 0.0
C1473 C 0.7836 0.37911 0.33966 0.0
C1474 C 0.77351 0.39387 0.34236 0.0
C1475 C 0.74407 0.43636 0.35147 0.0
C1476 C 0.75419 0.42174 0.34815 0.0
H1477 H 0.77833 0.33649 0.32434 0.0
H1478 H 0.76225 0.3612 0.32627 0.0
H1479 H 0.78551 0.40216 0.36846 0.0
H1480 H 0.74874 0.47722 0.37228 0.0
H1481 H 0.76573 0.45394 0.36487 0.0
C1482 C 0.60463 0.54307 0.98724 0.0
C1483 C 0.59472 0.5479 1.00024 0.0
C1484 C 0.61098 0.52726 0.98634 0.0
C1485 C 0.60515 0.48429 1.00064 0.0
H1486 H 0.65229 0.48354 0.99144 0.0
C1487 C 0.64531 0.42803 0.01052 0.0
C1488 C 0.65666 0.42474 0.99851 0.0
C1489 C 0.63554 0.44167 0.00936 0.0
C1490 C 0.63901 0.48348 0.99375 0.0
H1491 H 0.5837 0.54002 0.0225 0.0
H1492 H 0.59493 0.51236 0.021 0.0
H1493 H 0.63996 0.51044 0.99254 0.0
H1494 H 0.66634 0.432 0.97555 0.0
H1495 H 0.64899 0.45568 0.97312 0.0
H1496 H 0.60442 0.45725 1.00213 0.0
C1497 C 0.59754 0.5207 0.01135 0.0
C1498 C 0.63196 0.4989 0.99441 0.0
C1499 C 0.59115 0.53653 0.01223 0.0
C1500 C 0.65746 0.43442 0.98478 0.0
C1501 C 0.64772 0.44799 0.98356 0.0
C1502 C 0.61224 0.46881 1.00002 0.0
C1503 C 0.6076 0.51595 0.99845 0.0
C1504 C 0.61495 0.49947 0.9978 0.0
C1505 C 0.63714 0.45214 0.99619 0.0
C1506 C 0.62922 0.46827 0.99648 0.0
H1507 H 0.60734 0.55145 0.97766 0.0
H1508 H 0.61846 0.52383 0.97608 0.0
H1509 H 0.59194 0.48433 0.00315 0.0
H1510 H 0.6448 0.42069 0.02128 0.0
H1511 H 0.62757 0.44465 0.01932 0.0
C1512 C 0.65975 0.36963 0.17105 0.0
C1513 C 0.67379 0.3784 0.18234 0.0
C1514 C 0.66177 0.36322 0.15425 0.0
C1515 C 0.69151 0.3675 0.1209 0.0
H1516 H 0.66402 0.32538 0.09926 0.0
C1517 C 0.68987 0.34323 0.04826 0.0
C1518 C 0.68792 0.32543 0.04348 0.0
C1519 C 0.68874 0.34995 0.06527 0.0
C1520 C 0.67201 0.33705 0.1051 0.0
H1521 H 0.70112 0.38685 0.18487 0.0
H1522 H 0.70477 0.37534 0.15574 0.0
H1523 H 0.66149 0.3358 0.12876 0.0
H1524 H 0.68268 0.30067 0.05228 0.0
H1525 H 0.68171 0.31211 0.08204 0.0
H1526 H 0.70252 0.36833 0.09738 0.0
C1527 C 0.69205 0.3738 0.15969 0.0
C1528 C 0.67032 0.34322 0.12204 0.0
C1529 C 0.68999 0.38034 0.17646 0.0
C1530 C 0.68468 0.31446 0.05588 0.0
C1531 C 0.68384 0.32108 0.07284 0.0
C1532 C 0.69333 0.36122 0.10398 0.0
C1533 C 0.67794 0.36525 0.14827 0.0
C1534 C 0.68 0.35857 0.13021 0.0
C1535 C 0.68558 0.33894 0.0778 0.0
C1536 C 0.68362 0.34587 0.09581 0.0
H1537 H 0.64703 0.36814 0.17504 0.0
H1538 H 0.65051 0.35701 0.14584 0.0
H1539 H 0.69902 0.3795 0.1266 0.0
H1540 H 0.69172 0.35188 0.03875 0.0
H1541 H 0.6898 0.36376 0.06843 0.0
C1542 C 0.01537 0.27549 0.95852 0.0
C1543 C 0.02157 0.26093 0.95072 0.0
C1544 C 0.01775 0.27936 0.97642 0.0
C1545 C 0.01876 0.25595 0.01249 0.0
H1546 H 0.03546 0.29872 0.04152 0.0
C1547 C 0.02089 0.25916 0.08526 0.0
C1548 C 0.01654 0.27406 0.0941 0.0
C1549 C 0.0239 0.25885 0.06818 0.0
C1550 C 0.03056 0.28674 0.03357 0.0
H1551 H 0.03662 0.24013 0.95521 0.0
H1552 H 0.04047 0.24672 0.98638 0.0
H1553 H 0.03674 0.29688 0.01053 0.0
H1554 H 0.01192 0.30032 0.09256 0.0
H1555 H 0.01641 0.29974 0.06237 0.0
H1556 H 0.01172 0.24589 0.03496 0.0
C1557 C 0.03363 0.25497 0.97873 0.0
C1558 C 0.03141 0.28571 0.01589 0.0
C1559 C 0.03135 0.25118 0.96094 0.0
C1560 C 0.01548 0.28879 0.08584 0.0
C1561 C 0.01814 0.28842 0.06863 0.0
C1562 C 0.01763 0.25705 0.03 0.0
C1563 C 0.0263 0.26868 0.98662 0.0
C1564 C 0.02565 0.27024 0.00528 0.0
C1565 C 0.02217 0.27335 0.05951 0.0
C1566 C 0.02364 0.27239 0.04084 0.0
H1567 H 0.0078 0.28322 0.95091 0.0
H1568 H 0.01196 0.28998 0.9823 0.0
H1569 H 0.01392 0.24398 0.00446 0.0
H1570 H 0.02179 0.24774 0.09159 0.0
H1571 H 0.02741 0.24715 0.06174 0.0
C1572 C 0.33159 0.80421 0.36314 0.0
C1573 C 0.33574 0.7982 0.34685 0.0
C1574 C 0.33218 0.79385 0.37642 0.0
C1575 C 0.35329 0.757 0.38957 0.0
H1576 H 0.32346 0.75861 0.42535 0.0
C1577 C 0.35965 0.71445 0.44409 0.0
C1578 C 0.35939 0.72258 0.46075 0.0
C1579 C 0.35489 0.72266 0.42981 0.0
C1580 C 0.33195 0.7581 0.41549 0.0
H1581 H 0.34295 0.77613 0.33166 0.0
H1582 H 0.34334 0.75792 0.35452 0.0
H1583 H 0.31792 0.77443 0.40081 0.0
H1584 H 0.3537 0.74541 0.47568 0.0
H1585 H 0.34524 0.75987 0.45071 0.0
H1586 H 0.36739 0.74081 0.40424 0.0
C1587 C 0.34005 0.77083 0.35718 0.0
C1588 C 0.32879 0.76718 0.40143 0.0
C1589 C 0.33956 0.78121 0.34395 0.0
C1590 C 0.35383 0.73887 0.46292 0.0
C1591 C 0.34899 0.74708 0.44863 0.0
C1592 C 0.35639 0.74789 0.40354 0.0
C1593 C 0.33685 0.77716 0.37373 0.0
C1594 C 0.33949 0.76682 0.38832 0.0
C1595 C 0.34971 0.73917 0.4319 0.0
C1596 C 0.34584 0.74839 0.41674 0.0
H1597 H 0.32829 0.81712 0.36578 0.0
H1598 H 0.32967 0.79921 0.38897 0.0
H1599 H 0.36207 0.75671 0.37997 0.0
H1600 H 0.36369 0.70179 0.44216 0.0
H1601 H 0.35533 0.71608 0.41711 0.0
C1602 C 0.99277 0.58386 0.53068 0.0
C1603 C 0.00372 0.59329 0.54461 0.0
C1604 C 0.99061 0.59027 0.51491 0.0
C1605 C 0.00972 0.6223 0.48959 0.0
H1606 H 0.96271 0.62326 0.46961 0.0
C1607 C 0.99524 0.65648 0.43065 0.0
C1608 C 0.98361 0.66849 0.4327 0.0
C1609 C 0.9965 0.64397 0.44168 0.0
C1610 C 0.97589 0.623 0.47502 0.0
H1611 H 0.02158 0.61641 0.55275 0.0
H1612 H 0.01767 0.62773 0.52532 0.0
H1613 H 0.96842 0.6076 0.49424 0.0
H1614 H 0.96364 0.6767 0.44702 0.0
H1615 H 0.96572 0.65467 0.4666 0.0
H1616 H 0.0172 0.63828 0.47091 0.0
C1617 C 0.01082 0.61534 0.52653 0.0
C1618 C 0.97917 0.61393 0.48898 0.0
C1619 C 0.01293 0.60896 0.54229 0.0
C1620 C 0.97254 0.66735 0.44527 0.0
C1621 C 0.97376 0.65478 0.45636 0.0
C1622 C 0.00645 0.6313 0.47561 0.0
C1623 C 0.99944 0.60619 0.51277 0.0
C1624 C 0.9961 0.61385 0.49665 0.0
C1625 C 0.98613 0.64332 0.45498 0.0
C1626 C 0.98949 0.63204 0.46841 0.0
H1627 H 0.98541 0.57179 0.53214 0.0
H1628 H 0.98187 0.58291 0.50447 0.0
H1629 H 0.0229 0.6223 0.49514 0.0
H1630 H 0.00388 0.65736 0.42097 0.0
H1631 H 0.006 0.63519 0.4402 0.0
C1632 C 0.84123 0.33105 0.62285 0.0
C1633 C 0.8298 0.33866 0.63291 0.0
C1634 C 0.85752 0.32832 0.63015 0.0
C1635 C 0.88989 0.34255 0.66871 0.0
H1636 H 0.91165 0.30418 0.65001 0.0
C1637 C 0.95602 0.32659 0.69864 0.0
C1638 C 0.96786 0.32359 0.68704 0.0
C1639 C 0.93885 0.32772 0.69265 0.0
C1640 C 0.90577 0.31501 0.65531 0.0
H1641 H 0.82662 0.34891 0.65882 0.0
H1642 H 0.85477 0.34356 0.67168 0.0
H1643 H 0.88214 0.30695 0.63897 0.0
H1644 H 0.97132 0.31891 0.6603 0.0
H1645 H 0.94114 0.32046 0.64964 0.0
H1646 H 0.91357 0.35037 0.68525 0.0
C1647 C 0.85129 0.34009 0.65799 0.0
C1648 C 0.88884 0.31667 0.64894 0.0
C1649 C 0.83498 0.34294 0.65064 0.0
C1650 C 0.96228 0.32121 0.66939 0.0
C1651 C 0.94507 0.32209 0.66336 0.0
C1652 C 0.90677 0.34075 0.67522 0.0
C1653 C 0.8629 0.33291 0.64781 0.0
C1654 C 0.88067 0.33059 0.65537 0.0
C1655 C 0.93317 0.32554 0.67492 0.0
C1656 C 0.91498 0.32707 0.66847 0.0
H1657 H 0.83766 0.32726 0.60921 0.0
H1658 H 0.86605 0.32296 0.62176 0.0
H1659 H 0.88426 0.3536 0.67385 0.0
H1660 H 0.96018 0.32833 0.71232 0.0
H1661 H 0.92999 0.33022 0.70188 0.0
C1662 C 0.65988 0.65861 0.22418 0.0
C1663 C 0.65924 0.66666 0.20915 0.0
C1664 C 0.64615 0.65816 0.23391 0.0
C1665 C 0.60669 0.67704 0.24244 0.0
H1666 H 0.59186 0.63156 0.25367 0.0
C1667 C 0.55394 0.66141 0.28692 0.0
C1668 C 0.54234 0.64653 0.28123 0.0
C1669 C 0.56798 0.66553 0.27806 0.0
C1670 C 0.59579 0.64433 0.25059 0.0
H1671 H 0.644 0.68142 0.19314 0.0
H1672 H 0.61992 0.68057 0.2102 0.0
H1673 H 0.61723 0.63616 0.23905 0.0
H1674 H 0.53567 0.62484 0.26149 0.0
H1675 H 0.56024 0.6318 0.24612 0.0
H1676 H 0.58505 0.68511 0.25401 0.0
C1677 C 0.6311 0.6746 0.21439 0.0
C1678 C 0.61044 0.64701 0.24237 0.0
C1679 C 0.64483 0.67496 0.20456 0.0
C1680 C 0.54463 0.63621 0.26624 0.0
C1681 C 0.55868 0.6402 0.25749 0.0
C1682 C 0.59208 0.67439 0.25089 0.0
C1683 C 0.63143 0.66578 0.22892 0.0
C1684 C 0.61605 0.66336 0.23813 0.0
C1685 C 0.5707 0.65473 0.26346 0.0
C1686 C 0.5864 0.65795 0.25491 0.0
H1687 H 0.67067 0.65194 0.22804 0.0
H1688 H 0.64688 0.65145 0.24517 0.0
H1689 H 0.61074 0.68979 0.23938 0.0
H1690 H 0.55245 0.66947 0.29853 0.0
H1691 H 0.57707 0.67676 0.28301 0.0
C1692 C 0.45444 0.99279 0.39526 0.0
C1693 C 0.45148 1.00286 0.41018 0.0
C1694 C 0.46939 0.99651 0.38781 0.0
C1695 C 0.51355 0.01832 0.39688 0.0
H1696 H 0.51005 0.01466 0.34723 0.0
C1697 C 0.55778 0.02628 0.33784 0.0
C1698 C 0.57074 0.01665 0.3432 0.0
C1699 C 0.5441 0.02803 0.34739 0.0
C1700 C 0.51125 0.01604 0.36112 0.0
H1701 H 0.46184 0.02472 0.42901 0.0
H1702 H 0.48806 0.0312 0.41596 0.0
H1703 H 0.48411 0.01079 0.36101 0.0
H1704 H 0.58032 1.00177 0.36265 0.0
H1705 H 0.55635 0.00462 0.37949 0.0
H1706 H 0.54077 0.02351 0.39692 0.0
C1707 C 0.47886 0.02034 0.41015 0.0
C1708 C 0.4964 0.01357 0.369 0.0
C1709 C 0.46388 0.01661 0.41762 0.0
C1710 C 0.57043 0.00945 0.35858 0.0
C1711 C 0.55677 0.01113 0.36814 0.0
C1712 C 0.52845 0.0208 0.38898 0.0
C1713 C 0.48169 0.01039 0.3951 0.0
C1714 C 0.49741 0.01436 0.38693 0.0
C1715 C 0.54321 0.02004 0.36239 0.0
C1716 C 0.52746 0.01942 0.371 0.0
H1717 H 0.44525 0.98195 0.38941 0.0
H1718 H 0.47139 0.98839 0.37641 0.0
H1719 H 0.51473 0.01894 0.41073 0.0
H1720 H 0.55794 0.03183 0.32591 0.0
H1721 H 0.53395 0.03516 0.34276 0.0
C1722 C 0.04847 0.97076 0.73714 0.0
C1723 C 0.05854 0.98656 0.73693 0.0
C1724 C 0.03057 0.96943 0.73425 0.0
C1725 C 0.99415 0.99196 0.71853 0.0
H1726 H 0.97037 0.96751 0.75067 0.0
C1727 C 0.92059 0.98639 0.71641 0.0
C1728 C 0.91423 0.98887 0.73225 0.0
C1729 C 0.93783 0.98428 0.71573 0.0
C1730 C 0.97682 0.97444 0.74165 0.0
H1731 H 0.05774 0.0132 0.73288 0.0
H1732 H 0.02656 0.01092 0.72789 0.0
H1733 H 1.00121 0.96741 0.75092 0.0
H1734 H 0.92057 0.99089 0.75976 0.0
H1735 H 0.95091 0.98758 0.75876 0.0
H1736 H 0.96989 0.99963 0.70978 0.0
C1737 C 0.03246 0.99948 0.73007 0.0
C1738 C 0.99447 0.97418 0.74161 0.0
C1739 C 0.05036 1.00079 0.73292 0.0
C1740 C 0.92528 0.98893 0.74743 0.0
C1741 C 0.94256 0.98691 0.7468 0.0
C1742 C 0.97651 0.99226 0.71859 0.0
C1743 C 0.02235 0.9839 0.73113 0.0
C1744 C 0.00338 0.98309 0.73017 0.0
C1745 C 0.94908 0.98474 0.73093 0.0
C1746 C 0.96766 0.98364 0.73027 0.0
H1747 H 0.05444 0.9595 0.73994 0.0
H1748 H 0.02316 0.95715 0.7348 0.0
H1749 H 1.0006 0.99883 0.70945 0.0
H1750 H 0.91234 0.98664 0.70457 0.0
H1751 H 0.94237 0.98244 0.70331 0.0
C1752 C 0.6204 0.83642 0.31721 0.0
C1753 C 0.62865 0.82771 0.32978 0.0
C1754 C 0.62674 0.85324 0.31501 0.0
C1755 C 0.65531 0.89154 0.33822 0.0
H1756 H 0.65238 0.90801 0.29364 0.0
C1757 C 0.69445 0.95382 0.32696 0.0
C1758 C 0.68611 0.96624 0.31843 0.0
C1759 C 0.6862 0.93737 0.32751 0.0
C1760 C 0.65307 0.90364 0.30619 0.0
H1761 H 0.65047 0.83003 0.34953 0.0
H1762 H 0.66187 0.85891 0.34523 0.0
H1763 H 0.64122 0.87825 0.29597 0.0
H1764 H 0.66259 0.9695 0.30309 0.0
H1765 H 0.6483 0.94036 0.30382 0.0
H1766 H 0.66761 0.91674 0.34834 0.0
C1767 C 0.65018 0.85293 0.33736 0.0
C1768 C 0.64668 0.88656 0.30757 0.0
C1769 C 0.64378 0.83616 0.33964 0.0
C1770 C 0.66943 0.96066 0.30994 0.0
C1771 C 0.66123 0.94396 0.31031 0.0
C1772 C 0.66181 0.90847 0.33682 0.0
C1773 C 0.64159 0.86187 0.32523 0.0
C1774 C 0.64791 0.88019 0.3236 0.0
C1775 C 0.66948 0.93223 0.31939 0.0
C1776 C 0.66098 0.91468 0.32078 0.0
H1777 H 0.6089 0.8303 0.30911 0.0
H1778 H 0.61968 0.85963 0.30558 0.0
H1779 H 0.65608 0.88738 0.35086 0.0
H1780 H 0.70712 0.95617 0.33378 0.0
H1781 H 0.69305 0.92853 0.33436 0.0
C1782 C 0.72975 0.04761 0.99549 0.0
C1783 C 0.74224 0.05398 0.98568 0.0
C1784 C 0.72492 0.02994 0.99457 0.0
C1785 C 0.72856 0.98764 0.97044 0.0
H1786 H 0.73301 0.97273 0.0157 0.0
C1787 C 0.74659 0.92105 0.98225 0.0
C1788 C 0.73872 0.9127 0.99457 0.0
C1789 C 0.74384 0.93787 0.98005 0.0
C1790 C 0.73139 0.97662 0.00296 0.0
H1791 H 0.75836 0.0471 0.96616 0.0
H1792 H 0.75015 0.01627 0.96475 0.0
H1793 H 0.73237 1.00302 0.01296 0.0
H1794 H 0.72171 0.91473 0.01407 0.0
H1795 H 0.71678 0.94429 0.01034 0.0
H1796 H 0.72813 0.96123 0.96049 0.0
C1797 C 0.74403 0.02485 0.97311 0.0
C1798 C 0.73097 0.99399 1.00138 0.0
C1799 C 0.74889 0.04248 0.97405 0.0
C1800 C 0.72802 0.92121 0.00466 0.0
C1801 C 0.72522 0.93802 0.00249 0.0
C1802 C 0.72896 0.97024 0.97202 0.0
C1803 C 0.73245 0.01837 0.98379 0.0
C1804 C 0.72998 0.99973 0.98513 0.0
C1805 C 0.73312 0.94654 0.99016 0.0
C1806 C 0.73081 0.96463 0.98832 0.0
H1807 H 0.72444 0.05619 0.00458 0.0
H1808 H 0.7158 0.02529 0.0028 0.0
H1809 H 0.72757 0.99169 0.95774 0.0
H1810 H 0.75489 0.91453 0.97441 0.0
H1811 H 0.75035 0.94419 0.97067 0.0
C1812 C 0.22785 0.66204 0.66229 0.0
C1813 C 0.21089 0.66005 0.66632 0.0
C1814 C 0.23759 0.64828 0.66201 0.0
C1815 C 0.2394 0.60395 0.67417 0.0
H1816 H 0.26641 0.59968 0.63619 0.0
C1817 C 0.26772 0.54146 0.65099 0.0
C1818 C 0.28425 0.54355 0.64598 0.0
C1819 C 0.25938 0.55583 0.65536 0.0
C1820 C 0.25912 0.60076 0.647 0.0
H1821 H 0.1914 0.64211 0.67438 0.0
H1822 H 0.20814 0.618 0.67329 0.0
H1823 H 0.25104 0.62445 0.64066 0.0
H1824 H 0.30537 0.56211 0.64232 0.0
H1825 H 0.29088 0.58722 0.64977 0.0
H1826 H 0.24725 0.57987 0.68013 0.0
C1827 C 0.21399 0.63026 0.67046 0.0
C1828 C 0.25032 0.61504 0.64963 0.0
C1829 C 0.20427 0.64409 0.67087 0.0
C1830 C 0.29251 0.56021 0.6459 0.0
C1831 C 0.2842 0.57454 0.65014 0.0
C1832 C 0.24815 0.58955 0.67145 0.0
C1833 C 0.23064 0.63205 0.66559 0.0
C1834 C 0.24035 0.6169 0.66326 0.0
C1835 C 0.26742 0.57254 0.65467 0.0
C1836 C 0.25816 0.58782 0.65785 0.0
H1837 H 0.23342 0.67403 0.65859 0.0
H1838 H 0.25051 0.65031 0.6586 0.0
H1839 H 0.23201 0.60499 0.6849 0.0
H1840 H 0.26106 0.52871 0.65098 0.0
H1841 H 0.24643 0.55383 0.65866 0.0
C1842 C 0.41299 0.46834 0.0173 0.0
C1843 C 0.41169 0.45837 1.00125 0.0
C1844 C 0.40633 0.48404 0.01878 0.0
C1845 C 0.37496 0.50749 0.99562 0.0
H1846 H 0.39652 0.54663 0.0279 0.0
C1847 C 0.34862 0.57135 0.99624 0.0
C1848 C 0.34302 0.57669 0.01194 0.0
C1849 C 0.36012 0.55922 0.99532 0.0
C1850 C 0.39044 0.53577 0.01883 0.0
H1851 H 0.40311 0.45716 0.97409 0.0
H1852 H 0.39189 0.48471 0.97652 0.0
H1853 H 0.41025 0.52026 0.02523 0.0
H1854 H 0.34592 0.57506 0.03918 0.0
H1855 H 0.36646 0.55384 0.03772 0.0
H1856 H 0.35527 0.523 0.98914 0.0
C1857 C 0.39755 0.48026 0.98808 0.0
C1858 C 0.39819 0.52066 0.01736 0.0
C1859 C 0.40401 0.4645 0.98665 0.0
C1860 C 0.35026 0.57106 0.027 0.0
C1861 C 0.36191 0.55898 0.02613 0.0
C1862 C 0.36739 0.5226 0.99693 0.0
C1863 C 0.39841 0.49011 0.00419 0.0
C1864 C 0.39051 0.50634 0.00573 0.0
C1865 C 0.36627 0.5524 0.01015 0.0
C1866 C 0.37505 0.53686 0.00852 0.0
H1867 H 0.41878 0.4638 0.02876 0.0
H1868 H 0.407 0.49117 0.03141 0.0
H1869 H 0.36842 0.4966 0.98689 0.0
H1870 H 0.34314 0.57571 0.98455 0.0
H1871 H 0.36346 0.55446 0.98289 0.0
C1872 C 0.34857 0.63146 0.84206 0.0
C1873 C 0.33945 0.63547 0.827 0.0
C1874 C 0.3457 0.63889 0.85823 0.0
C1875 C 0.32671 0.6748 0.88083 0.0
H1876 H 0.32777 0.64566 0.91724 0.0
C1877 C 0.32801 0.70135 0.95268 0.0
C1878 C 0.31999 0.69085 0.96341 0.0
C1879 C 0.32896 0.69518 0.93552 0.0
C1880 C 0.32718 0.65397 0.90723 0.0
H1881 H 0.32038 0.65085 0.81721 0.0
H1882 H 0.31518 0.66374 0.84551 0.0
H1883 H 0.3321 0.63399 0.88855 0.0
H1884 H 0.3065 0.6658 0.96473 0.0
H1885 H 0.30742 0.6551 0.93462 0.0
H1886 H 0.3214 0.6947 0.89954 0.0
C1887 C 0.32472 0.65493 0.84479 0.0
C1888 C 0.32996 0.64732 0.89075 0.0
C1889 C 0.32768 0.64753 0.82854 0.0
C1890 C 0.31248 0.67421 0.95658 0.0
C1891 C 0.31329 0.66804 0.93941 0.0
C1892 C 0.32386 0.68146 0.89736 0.0
C1893 C 0.33353 0.65051 0.85989 0.0
C1894 C 0.32994 0.65766 0.87732 0.0
C1895 C 0.32186 0.67831 0.9287 0.0
C1896 C 0.32415 0.67116 0.91084 0.0
H1897 H 0.35801 0.62253 0.84137 0.0
H1898 H 0.3531 0.6355 0.86946 0.0
H1899 H 0.3267 0.68321 0.87089 0.0
H1900 H 0.33406 0.71417 0.95778 0.0
H1901 H 0.33586 0.70343 0.92783 0.0
C1902 C 0.00547 0.73844 0.04692 0.0
C1903 C 0.9912 0.74276 0.05482 0.0
C1904 C 0.00418 0.73499 0.02909 0.0
C1905 C 0.97437 0.72518 0.98898 0.0
H1906 H 0.00928 0.75378 0.97052 0.0
C1907 C 0.98405 0.7217 0.91701 0.0
C1908 C 0.98723 0.73747 0.91059 0.0
C1909 C 0.98282 0.72124 0.93443 0.0
C1910 C 0.99941 0.74579 0.97551 0.0
H1911 H 0.96409 0.74545 0.05052 0.0
H1912 H 0.96183 0.73938 0.01929 0.0
H1913 H 0.01094 0.75315 1.00143 0.0
H1914 H 0.99099 0.76508 0.91692 0.0
H1915 H 0.9891 0.76437 0.94762 0.0
H1916 H 0.96282 0.71792 0.96293 0.0
C1917 C 0.97401 0.73875 0.02686 0.0
C1918 C 1.00049 0.74524 0.99315 0.0
C1919 C 0.97533 0.74234 0.04469 0.0
C1920 C 0.98856 0.75281 0.9217 0.0
C1921 C 0.98754 0.75237 0.93917 0.0
C1922 C 0.9734 0.72557 0.97126 0.0
C1923 C 0.98858 0.73566 0.01889 0.0
C1924 C 0.98793 0.73503 1.00007 0.0
C1925 C 0.985 0.73657 0.94572 0.0
C1926 C 0.98582 0.73604 0.96442 0.0
H1927 H 0.01787 0.73873 0.05442 0.0
H1928 H 0.01555 0.73244 0.02322 0.0
H1929 H 0.96455 0.7172 0.99403 0.0
H1930 H 0.9834 0.70973 0.9087 0.0
H1931 H 0.98105 0.7089 0.93921 0.0
C1932 C 0.67373 0.19896 0.63992 0.0
C1933 C 0.66896 0.20567 0.65572 0.0
C1934 C 0.67355 0.20865 0.62612 0.0
C1935 C 0.67196 0.25263 0.61414 0.0
H1936 H 0.64731 0.22896 0.57135 0.0
C1937 C 0.64395 0.28912 0.56038 0.0
C1938 C 0.64356 0.28205 0.54324 0.0
C1939 C 0.6493 0.28 0.57378 0.0
C1940 C 0.65451 0.23575 0.58307 0.0
H1941 H 0.66093 0.22816 0.66946 0.0
H1942 H 0.66089 0.24507 0.64551 0.0
H1943 H 0.65353 0.21291 0.5954 0.0
H1944 H 0.64859 0.26009 0.52654 0.0
H1945 H 0.65849 0.24423 0.5499 0.0
H1946 H 0.67285 0.27551 0.60187 0.0
C1947 C 0.66483 0.23234 0.64383 0.0
C1948 C 0.65807 0.22652 0.59689 0.0
C1949 C 0.6649 0.22263 0.6576 0.0
C1950 C 0.6489 0.26581 0.53969 0.0
C1951 C 0.65438 0.2567 0.55308 0.0
C1952 C 0.66851 0.26186 0.60028 0.0
C1953 C 0.66874 0.22531 0.62781 0.0
C1954 C 0.66657 0.23489 0.61267 0.0
C1955 C 0.65452 0.26362 0.57032 0.0
C1956 C 0.65946 0.2536 0.58464 0.0
H1957 H 0.67726 0.18608 0.63811 0.0
H1958 H 0.67692 0.20298 0.61402 0.0
H1959 H 0.67875 0.25941 0.62606 0.0
H1960 H 0.64004 0.30171 0.56339 0.0
H1961 H 0.64898 0.28567 0.58684 0.0
C1962 C 0.0156 0.40061 0.46186 0.0
C1963 C 1.00273 0.41133 0.45939 0.0
C1964 C 0.01836 0.3936 0.47721 0.0
C1965 C 0.00954 0.39705 0.52242 0.0
H1966 H 0.01516 0.34864 0.51726 0.0
C1967 C 1.00135 0.35144 0.57469 0.0
C1968 C 0.01211 0.3385 0.57516 0.0
C1969 C 1.00242 0.36283 0.56238 0.0
C1970 C 0.01392 0.36224 0.51898 0.0
H1971 H 0.98292 0.42349 0.4712 0.0
H1972 H 0.98761 0.41104 0.49807 0.0
H1973 H 0.01249 0.36358 0.49206 0.0
H1974 H 0.03295 0.32764 0.56431 0.0
H1975 H 0.0353 0.34779 0.54301 0.0
H1976 H 0.01058 0.39543 0.54945 0.0
C1977 C 0.99571 0.40825 0.48818 0.0
C1978 C 0.01237 0.3708 0.50451 0.0
C1979 C 0.993 0.41534 0.4728 0.0
C1980 C 0.02469 0.3377 0.56408 0.0
C1981 C 0.02585 0.34908 0.55186 0.0
C1982 C 0.01107 0.38842 0.53697 0.0
C1983 C 0.00824 0.39709 0.49043 0.0
C1984 C 0.01019 0.3883 0.50604 0.0
C1985 C 0.01427 0.3613 0.55043 0.0
C1986 C 0.01333 0.37093 0.53536 0.0
H1987 H 0.02354 0.3976 0.45187 0.0
H1988 H 0.02835 0.38533 0.47868 0.0
H1989 H 0.00797 0.41057 0.524 0.0
H1990 H 0.99146 0.35199 0.58311 0.0
H1991 H 0.99326 0.37204 0.56151 0.0
C1992 C 0.29539 0.59598 0.49483 0.0
C1993 C 0.29022 0.61245 0.4951 0.0
C1994 C 0.29522 0.58728 0.50928 0.0
C1995 C 0.27893 0.58668 0.55177 0.0
H1996 H 0.31662 0.55993 0.56011 0.0
C1997 C 0.28132 0.54008 0.60387 0.0
C1998 C 0.29747 0.53765 0.6119 0.0
C1999 C 0.28003 0.55018 0.59037 0.0
C2000 C 0.30611 0.5675 0.55821 0.0
H2001 H 0.28029 0.63253 0.5106 0.0
H2002 H 0.28035 0.61748 0.53613 0.0
H2003 H 0.31502 0.57574 0.53558 0.0
H2004 H 0.32483 0.54433 0.61294 0.0
H2005 H 0.32277 0.56243 0.5898 0.0
H2006 H 0.2704 0.57885 0.57486 0.0
C2007 C 0.28433 0.61117 0.52463 0.0
C2008 C 0.30501 0.57638 0.54387 0.0
C2009 C 0.28433 0.61983 0.51002 0.0
C2010 C 0.31229 0.54586 0.60665 0.0
C2011 C 0.31103 0.55613 0.59335 0.0
C2012 C 0.28011 0.57789 0.56627 0.0
C2013 C 0.29008 0.59488 0.52453 0.0
C2014 C 0.29132 0.58594 0.54029 0.0
C2015 C 0.29489 0.5582 0.58477 0.0
C2016 C 0.2937 0.56808 0.56965 0.0
H2017 H 0.29966 0.5898 0.48341 0.0
H2018 H 0.29923 0.57456 0.50846 0.0
H2019 H 0.26814 0.59382 0.54942 0.0
H2020 H 0.26976 0.53381 0.6078 0.0
H2021 H 0.26738 0.55126 0.58403 0.0
C2022 C 0.26573 0.43869 0.92137 0.0
C2023 C 0.27825 0.42868 0.91594 0.0
C2024 C 0.27046 0.45464 0.93125 0.0
C2025 C 0.3065 0.48235 0.95866 0.0
H2026 H 0.27871 0.51813 0.94771 0.0
C2027 C 0.31109 0.54727 1.00216 0.0
C2028 C 0.30876 0.56201 0.99421 0.0
C2029 C 0.30858 0.53104 0.99248 0.0
C2030 C 0.28677 0.5084 0.95085 0.0
H2031 H 0.30569 0.42752 0.91728 0.0
H2032 H 0.31396 0.45566 0.93422 0.0
H2033 H 0.27249 0.48993 0.93118 0.0
H2034 H 0.30283 0.57167 0.97001 0.0
H2035 H 0.29844 0.54341 0.95293 0.0
H2036 H 0.32109 0.50112 0.97808 0.0
C2037 C 0.30044 0.45102 0.93091 0.0
C2038 C 0.28302 0.49209 0.94151 0.0
C2039 C 0.29569 0.43495 0.92104 0.0
C2040 C 0.30412 0.56036 0.97641 0.0
C2041 C 0.30171 0.54418 0.96669 0.0
C2042 C 0.31033 0.49877 0.96799 0.0
C2043 C 0.28786 0.46119 0.93589 0.0
C2044 C 0.29264 0.47875 0.94544 0.0
C2045 C 0.30378 0.52927 0.9746 0.0
C2046 C 0.30038 0.51196 0.96431 0.0
H2047 H 0.25219 0.43448 0.91754 0.0
H2048 H 0.26041 0.46193 0.93513 0.0
H2049 H 0.31417 0.4724 0.96206 0.0
H2050 H 0.31489 0.54838 0.01587 0.0
H2051 H 0.31014 0.51988 0.99905 0.0
C2052 C 0.69504 0.00811 0.47879 0.0
C2053 C 0.68092 0.99876 0.48429 0.0
C2054 C 0.69893 0.00466 0.46207 0.0
C2055 C 0.69018 0.97117 0.42397 0.0
H2056 H 0.70909 0.00841 0.40084 0.0
C2057 C 0.68779 0.9834 0.3527 0.0
C2058 C 0.70388 0.98677 0.34634 0.0
C2059 C 0.68676 0.97954 0.36928 0.0
C2060 C 0.70422 0.99785 0.40736 0.0
H2061 H 0.65938 0.97885 0.47625 0.0
H2062 H 0.66563 0.97345 0.44678 0.0
H2063 H 0.70233 0.01453 0.43001 0.0
H2064 H 0.73099 0.9832 0.35213 0.0
H2065 H 0.72914 0.97834 0.38182 0.0
H2066 H 0.69079 0.95485 0.40041 0.0
C2067 C 0.67409 0.98305 0.45559 0.0
C2068 C 0.70028 1.00132 0.42405 0.0
C2069 C 0.67032 0.98637 0.47242 0.0
C2070 C 0.71849 0.98252 0.35657 0.0
C2071 C 0.71748 0.97933 0.37356 0.0
C2072 C 0.69383 0.96777 0.40708 0.0
C2073 C 0.68864 0.99194 0.45028 0.0
C2074 C 0.69311 0.98806 0.43257 0.0
C2075 C 0.7017 0.97873 0.38016 0.0
C2076 C 0.70085 0.98112 0.39872 0.0
H2077 H 0.70329 0.01798 0.4875 0.0
H2078 H 0.71029 0.01173 0.45856 0.0
H2079 H 0.68492 0.96059 0.43019 0.0
H2080 H 0.67604 0.98529 0.34515 0.0
H2081 H 0.67441 0.97885 0.37409 0.0
C2082 C 0.81179 0.98184 0.14347 0.0
C2083 C 0.80271 0.97759 0.15707 0.0
C2084 C 0.80744 0.97269 0.12704 0.0
C2085 C 0.78478 0.93126 0.10484 0.0
H2086 H 0.78085 0.95516 0.06451 0.0
C2087 C 0.74708 0.89914 0.04141 0.0
C2088 C 0.7547 0.9007 0.02637 0.0
C2089 C 0.75425 0.90898 0.05679 0.0
C2090 C 0.7821 0.94831 0.07564 0.0
H2091 H 0.78218 0.96018 0.16413 0.0
H2092 H 0.7744 0.94453 0.13556 0.0
H2093 H 0.79135 0.97136 0.09268 0.0
H2094 H 0.77499 0.91438 0.01516 0.0
H2095 H 0.78767 0.93194 0.04227 0.0
H2096 H 0.77525 0.9083 0.08795 0.0
C2097 C 0.78497 0.95482 0.13755 0.0
C2098 C 0.78813 0.95756 0.09175 0.0
C2099 C 0.78927 0.96396 0.1539 0.0
C2100 C 0.76911 0.91291 0.02673 0.0
C2101 C 0.77627 0.9229 0.04217 0.0
C2102 C 0.77873 0.92206 0.08881 0.0
C2103 C 0.794 0.95903 0.12393 0.0
C2104 C 0.78918 0.94917 0.10658 0.0
C2105 C 0.76908 0.92077 0.05742 0.0
C2106 C 0.77697 0.93052 0.07409 0.0
H2107 H 0.82215 0.99234 0.14548 0.0
H2108 H 0.81471 0.97618 0.11684 0.0
H2109 H 0.78585 0.92434 0.11593 0.0
H2110 H 0.73563 0.89016 0.04122 0.0
H2111 H 0.74815 0.90737 0.06823 0.0
C2112 C 0.49821 0.27213 0.60656 0.0
C2113 C 0.49494 0.2872 0.61626 0.0
C2114 C 0.51317 0.27184 0.59853 0.0
C2115 C 0.55621 0.29691 0.59715 0.0
H2116 H 0.55195 0.27202 0.55143 0.0
C2117 C 0.60429 0.31023 0.5485 0.0
C2118 C 0.60957 0.29594 0.53929 0.0
C2119 C 0.59129 0.30806 0.55903 0.0
C2120 C 0.5534 0.27889 0.56427 0.0
H2121 H 0.50549 0.31353 0.62582 0.0
H2122 H 0.53099 0.31327 0.61137 0.0
H2123 H 0.5276 0.27009 0.56785 0.0
H2124 H 0.60568 0.26828 0.53378 0.0
H2125 H 0.5826 0.26438 0.55199 0.0
H2126 H 0.58185 0.30623 0.59315 0.0
C2127 C 0.52218 0.30154 0.61006 0.0
C2128 C 0.53944 0.27773 0.57376 0.0
C2129 C 0.50733 0.30178 0.61818 0.0
C2130 C 0.60173 0.27943 0.5408 0.0
C2131 C 0.58854 0.27725 0.55114 0.0
C2132 C 0.57008 0.29824 0.58756 0.0
C2133 C 0.52524 0.28664 0.59991 0.0
C2134 C 0.54056 0.28688 0.59029 0.0
C2135 C 0.58315 0.29155 0.56036 0.0
C2136 C 0.56877 0.28938 0.57094 0.0
H2137 H 0.48897 0.26067 0.60471 0.0
H2138 H 0.51517 0.26002 0.59111 0.0
H2139 H 0.55779 0.30384 0.60995 0.0
H2140 H 0.61029 0.32304 0.54753 0.0
H2141 H 0.58734 0.31933 0.56586 0.0
C2142 C 0.14267 0.8162 0.96383 0.0
C2143 C 0.14903 0.80687 0.97679 0.0
C2144 C 0.12595 0.81179 0.95549 0.0
C2145 C 0.0841 0.78623 0.95858 0.0
H2146 H 0.07782 0.78562 0.90912 0.0
C2147 C 0.02757 0.74639 0.91368 0.0
C2148 C 0.01984 0.75428 0.90029 0.0
C2149 C 0.04215 0.75481 0.92416 0.0
C2150 C 0.07932 0.78596 0.92296 0.0
H2151 H 0.14259 0.786 0.99155 0.0
H2152 H 0.1137 0.77795 0.97665 0.0
H2153 H 0.10565 0.7967 0.92532 0.0
H2154 H 0.02091 0.777 0.88732 0.0
H2155 H 0.04677 0.79174 0.90547 0.0
H2156 H 0.05787 0.7748 0.956 0.0
C2157 C 0.1215 0.78884 0.97308 0.0
C2158 C 0.09525 0.79235 0.93227 0.0
C2159 C 0.13817 0.7933 0.98147 0.0
C2160 C 0.02676 0.77077 0.89762 0.0
C2161 C 0.04149 0.77912 0.90794 0.0
C2162 C 0.06821 0.77968 0.94923 0.0
C2163 C 0.11523 0.79792 0.95986 0.0
C2164 C 0.09791 0.79236 0.95017 0.0
C2165 C 0.0494 0.77114 0.92121 0.0
C2166 C 0.06574 0.77931 0.93132 0.0
H2167 H 0.15075 0.82662 0.9598 0.0
H2168 H 0.12147 0.81919 0.94551 0.0
H2169 H 0.08561 0.78635 0.97238 0.0
H2170 H 0.02258 0.73354 0.91571 0.0
H2171 H 0.04813 0.74828 0.93415 0.0
C2172 C 0.93092 0.27334 0.43082 0.0
C2173 C 0.91524 0.27971 0.42664 0.0
C2174 C 0.94097 0.27897 0.44659 0.0
C2175 C 0.93629 0.29681 0.49064 0.0
H2176 H 0.98607 0.30157 0.49693 0.0
C2177 C 0.97572 0.3151 0.55762 0.0
C2178 C 0.98994 0.30635 0.56122 0.0
C2179 C 0.9671 0.31343 0.54097 0.0
C2180 C 0.97216 0.30013 0.4954 0.0
H2181 H 0.89827 0.29763 0.43559 0.0
H2182 H 0.91594 0.30766 0.46292 0.0
H2183 H 0.97056 0.29675 0.46795 0.0
H2184 H 0.00663 0.2893 0.55053 0.0
H2185 H 0.99129 0.28584 0.52133 0.0
H2186 H 0.93782 0.29989 0.51802 0.0
C2187 C 0.92033 0.29809 0.45409 0.0
C2188 C 0.96327 0.29741 0.47878 0.0
C2189 C 0.91028 0.29247 0.43831 0.0
C2190 C 0.99547 0.29588 0.54797 0.0
C2191 C 0.98684 0.29416 0.53128 0.0
C2192 C 0.94517 0.2995 0.50723 0.0
C2193 C 0.93559 0.2911 0.45861 0.0
C2194 C 0.94521 0.29549 0.47619 0.0
C2195 C 0.97255 0.30295 0.52756 0.0
C2196 C 0.96321 0.30096 0.50984 0.0
H2197 H 0.93528 0.26372 0.42203 0.0
H2198 H 0.95261 0.27325 0.44964 0.0
H2199 H 0.92239 0.29514 0.48916 0.0
H2200 H 0.97146 0.3234 0.56772 0.0
H2201 H 0.95633 0.32059 0.53857 0.0
C2202 C 0.48296 0.68083 0.01292 0.0
C2203 C 0.48995 0.66853 0.00252 0.0
C2204 C 0.46553 0.68243 0.01018 0.0
C2205 C 0.42937 0.67423 0.97568 0.0
H2206 H 0.40401 0.68943 0.01264 0.0
C2207 C 0.35638 0.68209 0.97837 0.0
C2208 C 0.35403 0.69873 0.9852 0.0
C2209 C 0.37283 0.67799 0.97648 0.0
C2210 C 0.41107 0.68528 1.00224 0.0
H2211 H 0.48407 0.64754 0.98177 0.0
H2212 H 0.4534 0.65003 0.97727 0.0
H2213 H 0.43227 0.68043 0.01945 0.0
H2214 H 0.36636 0.72461 0.99335 0.0
H2215 H 0.39545 0.7173 0.99068 0.0
H2216 H 0.40764 0.67872 0.95855 0.0
C2217 C 0.4615 0.6587 0.98728 0.0
C2218 C 0.42718 0.68013 0.0061 0.0
C2219 C 0.479 0.65714 0.98999 0.0
C2220 C 0.36804 0.71169 0.98824 0.0
C2221 C 0.38454 0.70753 0.98668 0.0
C2222 C 0.41306 0.67915 0.97183 0.0
C2223 C 0.45469 0.67168 0.99704 0.0
C2224 C 0.43669 0.67494 0.99288 0.0
C2225 C 0.38702 0.69048 0.98158 0.0
C2226 C 0.40407 0.68507 0.98512 0.0
H2227 H 0.49108 0.68958 0.02286 0.0
H2228 H 0.46075 0.69265 0.01787 0.0
H2229 H 0.43645 0.67044 0.9652 0.0
H2230 H 0.34577 0.67187 0.976 0.0
H2231 H 0.37458 0.66475 0.97264 0.0
C2232 C 0.5993 0.49789 0.27997 0.0
C2233 C 0.61588 0.49899 0.28893 0.0
C2234 C 0.59075 0.51247 0.27943 0.0
C2235 C 0.59042 0.55557 0.30319 0.0
H2236 H 0.55966 0.56196 0.26323 0.0
C2237 C 0.55437 0.61542 0.30082 0.0
C2238 C 0.53693 0.61226 0.29417 0.0
C2239 C 0.56495 0.60238 0.2992 0.0
C2240 C 0.56812 0.5603 0.27453 0.0
H2241 H 0.63676 0.51651 0.30371 0.0
H2242 H 0.62195 0.54197 0.30265 0.0
H2243 H 0.57666 0.53796 0.2619 0.0
H2244 H 0.51689 0.59336 0.28024 0.0
H2245 H 0.53525 0.57039 0.27752 0.0
H2246 H 0.5818 0.57786 0.31584 0.0
C2247 C 0.61537 0.52974 0.29634 0.0
C2248 C 0.57786 0.54652 0.27379 0.0
C2249 C 0.62389 0.51515 0.29693 0.0
C2250 C 0.53028 0.59596 0.28562 0.0
C2251 C 0.54084 0.58293 0.28392 0.0
C2252 C 0.58073 0.56938 0.30391 0.0
C2253 C 0.59859 0.52856 0.28779 0.0
C2254 C 0.589 0.54385 0.28817 0.0
C2255 C 0.55829 0.58593 0.2908 0.0
C2256 C 0.56931 0.57181 0.28966 0.0
H2257 H 0.59264 0.48562 0.27386 0.0
H2258 H 0.57776 0.51098 0.27293 0.0
H2259 H 0.59863 0.55381 0.31462 0.0
H2260 H 0.55973 0.62795 0.30742 0.0
H2261 H 0.57836 0.60519 0.30447 0.0
C2262 C 0.96326 0.14329 0.81658 0.0
C2263 C 0.97458 0.15119 0.80644 0.0
C2264 C 0.95616 0.12615 0.81209 0.0
C2265 C 0.96038 0.08609 0.78413 0.0
H2266 H 0.91149 0.07635 0.7862 0.0
C2267 C 0.91693 0.02915 0.74344 0.0
C2268 C 0.90394 0.0205 0.75114 0.0
C2269 C 0.92717 0.04364 0.75238 0.0
C2270 C 0.9252 0.07877 0.78581 0.0
H2271 H 0.98793 0.14704 0.78408 0.0
H2272 H 0.97516 0.11736 0.77594 0.0
H2273 H 0.92648 0.10451 0.79796 0.0
H2274 H 0.89158 0.01967 0.77413 0.0
H2275 H 0.9094 0.04524 0.78988 0.0
H2276 H 0.95887 0.06046 0.77136 0.0
C2277 C 0.97191 0.12431 0.78749 0.0
C2278 C 0.93382 0.09491 0.79258 0.0
C2279 C 0.97905 0.14141 0.79202 0.0
C2280 C 0.90156 0.02627 0.76803 0.0
C2281 C 0.91169 0.04084 0.77695 0.0
C2282 C 0.95173 0.06997 0.77726 0.0
C2283 C 0.96019 0.11654 0.79733 0.0
C2284 C 0.95146 0.09886 0.79158 0.0
C2285 C 0.92444 0.04981 0.76912 0.0
C2286 C 0.93401 0.06624 0.77782 0.0
H2287 H 0.95945 0.15049 0.82771 0.0
H2288 H 0.94734 0.1205 0.82006 0.0
H2289 H 0.97403 0.08862 0.78343 0.0
H2290 H 0.91874 0.02503 0.73031 0.0
H2291 H 0.93673 0.05043 0.74593 0.0
C2292 C 0.43279 0.93039 0.2756 0.0
C2293 C 0.42924 0.91406 0.28085 0.0
C2294 C 0.44864 0.94037 0.28106 0.0
C2295 C 0.48798 0.94506 0.31269 0.0
H2296 H 0.5093 0.96611 0.27697 0.0
C2297 C 0.55992 0.97313 0.32132 0.0
C2298 C 0.56395 0.98859 0.31463 0.0
C2299 C 0.54331 0.96425 0.31772 0.0
C2300 C 0.50348 0.96051 0.28717 0.0
H2301 H 0.43943 0.89569 0.29647 0.0
H2302 H 0.46702 0.91307 0.30599 0.0
H2303 H 0.48031 0.95106 0.27057 0.0
H2304 H 0.55415 0.00719 0.29937 0.0
H2305 H 0.52503 0.99184 0.29299 0.0
H2306 H 0.51128 0.95449 0.32926 0.0
C2307 C 0.4575 0.91825 0.29776 0.0
C2308 C 0.48681 0.95189 0.28351 0.0
C2309 C 0.44165 0.90828 0.2923 0.0
C2310 C 0.55125 0.99508 0.30431 0.0
C2311 C 0.53466 0.98628 0.30071 0.0
C2312 C 0.50469 0.95372 0.31637 0.0
C2313 C 0.46134 0.93425 0.29189 0.0
C2314 C 0.47884 0.94402 0.29619 0.0
C2315 C 0.53043 0.97077 0.30741 0.0
C2316 C 0.51266 0.96152 0.30363 0.0
H2317 H 0.4234 0.93538 0.26705 0.0
H2318 H 0.45102 0.9528 0.2766 0.0
H2319 H 0.48216 0.9393 0.32281 0.0
H2320 H 0.56957 0.96817 0.32959 0.0
H2321 H 0.54055 0.95229 0.32297 0.0
C2322 C 0.97378 0.48028 0.65592 0.0
C2323 C 0.98941 0.48977 0.6636 0.0
C2324 C 0.97042 0.46281 0.65753 0.0
C2325 C 0.9759 0.42337 0.65724 0.0
H2326 H 0.98121 0.41468 0.70486 0.0
C2327 C 0.99919 0.36302 0.67902 0.0
C2328 C 0.99255 0.35572 0.69265 0.0
C2329 C 0.99377 0.37802 0.67394 0.0
C2330 C 0.97924 0.41684 0.69152 0.0
H2331 H 0.01427 0.48826 0.67771 0.0
H2332 H 0.00824 0.45784 0.68076 0.0
H2333 H 0.98182 0.44411 0.69808 0.0
H2334 H 0.9754 0.35836 0.71198 0.0
H2335 H 0.96576 0.385 0.70312 0.0
H2336 H 0.97433 0.39612 0.65068 0.0
C2337 C 0.99855 0.464 0.67378 0.0
C2338 C 0.97975 0.43365 0.68767 0.0
C2339 C 1.00196 0.48134 0.67207 0.0
C2340 C 0.98041 0.36369 0.70125 0.0
C2341 C 0.97498 0.37885 0.6962 0.0
C2342 C 0.97553 0.4065 0.6611 0.0
C2343 C 0.98261 0.45477 0.66693 0.0
C2344 C 0.97872 0.43702 0.67055 0.0
C2345 C 0.98167 0.38614 0.68249 0.0
C2346 C 0.97787 0.40318 0.67829 0.0
H2347 H 0.96388 0.48651 0.64935 0.0
H2348 H 0.95808 0.45578 0.65211 0.0
H2349 H 0.97508 0.42579 0.64396 0.0
H2350 H 0.00887 0.35734 0.67246 0.0
H2351 H 0.99958 0.38361 0.66372 0.0
C2352 C 0.70546 0.39044 0.49799 0.0
C2353 C 0.7191 0.39481 0.51137 0.0
C2354 C 0.70546 0.39812 0.48288 0.0
C2355 C 0.73278 0.42312 0.45672 0.0
H2356 H 0.68978 0.43886 0.44053 0.0
C2357 C 0.72704 0.47022 0.40532 0.0
C2358 C 0.71186 0.46804 0.39387 0.0
C2359 C 0.72869 0.46015 0.4188 0.0
C2360 C 0.70183 0.43433 0.44465 0.0
H2361 H 0.74381 0.41027 0.51895 0.0
H2362 H 0.74384 0.42365 0.49248 0.0
H2363 H 0.69145 0.42323 0.46535 0.0
H2364 H 0.68678 0.45359 0.38688 0.0
H2365 H 0.68959 0.43563 0.41019 0.0
H2366 H 0.74315 0.43432 0.43597 0.0
C2367 C 0.73315 0.41421 0.49371 0.0
C2368 C 0.7028 0.42536 0.45895 0.0
C2369 C 0.73313 0.40653 0.5089 0.0
C2370 C 0.69852 0.45542 0.39572 0.0
C2371 C 0.70015 0.44529 0.40912 0.0
C2372 C 0.7318 0.43206 0.44232 0.0
C2373 C 0.71913 0.41036 0.48067 0.0
C2374 C 0.71826 0.41964 0.46519 0.0
C2375 C 0.71515 0.4477 0.42104 0.0
C2376 C 0.7163 0.4378 0.4361 0.0
H2377 H 0.69463 0.38116 0.49925 0.0
H2378 H 0.69464 0.39455 0.47294 0.0
H2379 H 0.74486 0.41876 0.4611 0.0
H2380 H 0.73741 0.47999 0.40402 0.0
H2381 H 0.74035 0.4625 0.42777 0.0
C2382 C 0.71205 0.55927 0.09686 0.0
C2383 C 0.72447 0.57111 0.09163 0.0
C2384 C 0.70659 0.54337 0.087 0.0
C2385 C 0.70608 0.51858 0.04411 0.0
H2386 H 0.70456 0.47951 0.06988 0.0
C2387 C 0.70114 0.44836 0.01123 0.0
C2388 C 0.69082 0.43585 0.01802 0.0
C2389 C 0.70479 0.46513 0.01978 0.0
C2390 C 0.70468 0.49025 0.06245 0.0
H2391 H 0.7401 0.57584 0.07133 0.0
H2392 H 0.73073 0.54799 0.05425 0.0
H2393 H 0.71063 0.50844 0.08507 0.0
H2394 H 0.67593 0.43079 0.0386 0.0
H2395 H 0.682 0.46003 0.05351 0.0
H2396 H 0.70007 0.5003 0.02146 0.0
C2397 C 0.7252 0.55103 0.06599 0.0
C2398 C 0.70816 0.50688 0.07119 0.0
C2399 C 0.73071 0.56693 0.07588 0.0
C2400 C 0.68417 0.44027 0.03338 0.0
C2401 C 0.6877 0.45699 0.04188 0.0
C2402 C 0.7025 0.5019 0.03534 0.0
C2403 C 0.71338 0.53889 0.07164 0.0
C2404 C 0.70896 0.52126 0.06215 0.0
C2405 C 0.69807 0.46968 0.03521 0.0
C2406 C 0.70182 0.4875 0.04441 0.0
H2407 H 0.70704 0.56197 0.10895 0.0
H2408 H 0.69726 0.53443 0.0916 0.0
H2409 H 0.70642 0.52938 0.03676 0.0
H2410 H 0.70607 0.44519 0.99918 0.0
H2411 H 0.71293 0.4745 0.01432 0.0
C2412 C 0.3571 0.01644 0.52896 0.0
C2413 C 0.35001 0.99976 0.52184 0.0
C2414 C 0.36095 0.02051 0.54672 0.0
C2415 C 0.36123 1.0012 0.58815 0.0
H2416 H 0.34456 0.04388 0.60364 0.0
C2417 C 0.3366 0.00959 0.65327 0.0
C2418 C 0.32024 0.01499 0.65192 0.0
C2419 C 0.34716 0.01215 0.64047 0.0
C2420 C 0.34935 0.03195 0.59958 0.0
H2421 H 0.34205 0.97404 0.52731 0.0
H2422 H 0.34776 0.98121 0.55832 0.0
H2423 H 0.35031 0.03842 0.57425 0.0
H2424 H 0.30226 0.02793 0.63709 0.0
H2425 H 0.32017 0.03195 0.61446 0.0
H2426 H 0.35841 0.99397 0.61301 0.0
C2427 C 0.351 0.99113 0.55038 0.0
C2428 C 0.35291 0.02888 0.58271 0.0
C2429 C 0.34751 0.987 0.5326 0.0
C2430 C 0.31493 0.02383 0.6383 0.0
C2431 C 0.32532 0.02622 0.62545 0.0
C2432 C 0.35731 0.00412 0.60495 0.0
C2433 C 0.35736 0.00806 0.5577 0.0
C2434 C 0.35799 0.01305 0.57651 0.0
C2435 C 0.34134 0.0199 0.62605 0.0
C2436 C 0.35036 0.01912 0.61051 0.0
H2437 H 0.3594 0.02639 0.52079 0.0
H2438 H 0.36622 0.03356 0.55183 0.0
H2439 H 0.36573 0.98914 0.58401 0.0
H2440 H 0.34085 1.00284 0.66386 0.0
H2441 H 0.35954 0.00745 0.64147 0.0
C2442 C 0.20648 0.03612 0.86871 0.0
C2443 C 0.19394 0.04235 0.85784 0.0
C2444 C 0.20983 0.04257 0.88604 0.0
C2445 C 0.2063 0.08115 0.91542 0.0
H2446 H 0.22303 0.05324 0.94959 0.0
C2447 C 0.23284 0.10941 0.98526 0.0
C2448 C 0.24975 0.10609 0.9897 0.0
C2449 C 0.22282 0.10033 0.97069 0.0
C2450 C 0.21826 0.06114 0.94019 0.0
H2451 H 0.17457 0.05975 0.85675 0.0
H2452 H 0.18017 0.07084 0.88726 0.0
H2453 H 0.21035 0.03949 0.92111 0.0
H2454 H 0.26948 0.09071 0.98261 0.0
H2455 H 0.25177 0.07426 0.95754 0.0
H2456 H 0.21441 0.10281 0.93458 0.0
C2457 C 0.18763 0.06114 0.88227 0.0
C2458 C 0.21109 0.05332 0.92387 0.0
C2459 C 0.1843 0.05469 0.86484 0.0
C2460 C 0.25633 0.09317 0.97969 0.0
C2461 C 0.24623 0.08384 0.96534 0.0
C2462 C 0.21325 0.08894 0.93184 0.0
C2463 C 0.20063 0.05534 0.89302 0.0
C2464 C 0.20555 0.06328 0.9111 0.0
C2465 C 0.22951 0.08757 0.96052 0.0
C2466 C 0.21975 0.07905 0.94418 0.0
H2467 H 0.21392 0.02639 0.86376 0.0
H2468 H 0.22009 0.03794 0.89382 0.0
H2469 H 0.20237 0.08926 0.90588 0.0
H2470 H 0.22757 0.11934 0.99287 0.0
H2471 H 0.20996 0.1034 0.96721 0.0
C2472 C 0.50407 0.73267 0.39743 0.0
C2473 C 0.51115 0.71739 0.39314 0.0
C2474 C 0.48948 0.7325 0.40608 0.0
C2475 C 0.46534 0.70623 0.4337 0.0
H2476 H 0.42843 0.73307 0.42203 0.0
C2477 C 0.40105 0.69545 0.46079 0.0
C2478 C 0.39398 0.71006 0.46705 0.0
C2479 C 0.41487 0.69698 0.45122 0.0
C2480 C 0.43871 0.72562 0.42553 0.0
H2481 H 0.50835 0.68997 0.39476 0.0
H2482 H 0.48288 0.68962 0.40936 0.0
H2483 H 0.45361 0.73471 0.4065 0.0
H2484 H 0.39533 0.73765 0.46789 0.0
H2485 H 0.41955 0.74044 0.45098 0.0
H2486 H 0.45053 0.69707 0.45263 0.0
C2487 C 0.48866 0.70179 0.40623 0.0
C2488 C 0.45315 0.72658 0.41665 0.0
C2489 C 0.50318 0.70196 0.39761 0.0
C2490 C 0.40059 0.72621 0.46311 0.0
C2491 C 0.4144 0.72777 0.45344 0.0
C2492 C 0.45095 0.70524 0.4425 0.0
C2493 C 0.48169 0.71706 0.41073 0.0
C2494 C 0.46657 0.71673 0.42051 0.0
C2495 C 0.4219 0.71318 0.44764 0.0
C2496 C 0.43736 0.71477 0.43843 0.0
H2497 H 0.50978 0.74477 0.39407 0.0
H2498 H 0.48452 0.74451 0.40942 0.0
H2499 H 0.47559 0.69879 0.43732 0.0
H2500 H 0.39593 0.68286 0.46345 0.0
H2501 H 0.4201 0.68545 0.44666 0.0
C2502 C 0.86319 0.2116 0.03354 0.0
C2503 C 0.8532 0.19789 0.03907 0.0
C2504 C 0.88047 0.21591 0.04015 0.0
C2505 C 0.91092 0.2119 0.07792 0.0
H2506 H 0.94454 0.23012 0.05022 0.0
C2507 C 0.98039 0.23684 0.10712 0.0
C2508 C 0.98562 0.25368 0.10406 0.0
C2509 C 0.96585 0.2273 0.09748 0.0
C2510 C 0.93529 0.22501 0.05808 0.0
H2511 H 0.85362 0.1778 0.05569 0.0
H2512 H 0.8839 0.18507 0.06692 0.0
H2513 H 0.91573 0.21823 0.03662 0.0
H2514 H 0.98026 0.27363 0.08831 0.0
H2515 H 0.95509 0.25687 0.07107 0.0
H2516 H 0.93042 0.21889 0.0994 0.0
C2517 C 0.87831 0.19263 0.05764 0.0
C2518 C 0.91878 0.21827 0.05033 0.0
C2519 C 0.86099 0.18835 0.05107 0.0
C2520 C 0.97665 0.26054 0.09063 0.0
C2521 C 0.96223 0.25096 0.08084 0.0
C2522 C 0.92746 0.21849 0.08563 0.0
C2523 C 0.88821 0.20658 0.05239 0.0
C2524 C 0.90628 0.212 0.06023 0.0
C2525 C 0.95641 0.23443 0.08448 0.0
C2526 C 0.93969 0.22544 0.07585 0.0
H2527 H 0.85765 0.21906 0.02413 0.0
H2528 H 0.88762 0.22688 0.03597 0.0
H2529 H 0.90158 0.20741 0.08599 0.0
H2530 H 0.98723 0.23135 0.11742 0.0
H2531 H 0.96172 0.21454 0.10045 0.0
C2532 C 0.09335 0.73958 0.55722 0.0
C2533 C 0.0959 0.72815 0.56944 0.0
C2534 C 0.08368 0.73399 0.54131 0.0
C2535 C 0.04991 0.701 0.5188 0.0
H2536 H 0.06563 0.71791 0.47824 0.0
C2537 C 0.00467 0.70222 0.45669 0.0
C2538 C 0.01058 0.6979 0.4409 0.0
C2539 C 0.01573 0.70379 0.472 0.0
C2540 C 0.06115 0.71291 0.48938 0.0
H2541 H 0.09008 0.70182 0.5745 0.0
H2542 H 0.07306 0.69201 0.54654 0.0
H2543 H 0.08392 0.72437 0.50573 0.0
H2544 H 0.03236 0.69095 0.42859 0.0
H2545 H 0.05211 0.69427 0.45544 0.0
H2546 H 0.02701 0.68972 0.50245 0.0
C2547 C 0.0786 0.70534 0.54938 0.0
C2548 C 0.07155 0.71675 0.50517 0.0
C2549 C 0.08843 0.71093 0.56534 0.0
C2550 C 0.02774 0.69491 0.44062 0.0
C2551 C 0.03892 0.69666 0.45596 0.0
C2552 C 0.03944 0.69725 0.50301 0.0
C2553 C 0.07625 0.71681 0.53714 0.0
C2554 C 0.06591 0.71115 0.52013 0.0
C2555 C 0.033 0.70108 0.47184 0.0
C2556 C 0.04481 0.70346 0.4882 0.0
H2557 H 0.09911 0.75286 0.55983 0.0
H2558 H 0.08191 0.74321 0.53228 0.0
H2559 H 0.04519 0.69651 0.53008 0.0
H2560 H 0.99138 0.70425 0.45712 0.0
H2561 H 0.01079 0.70737 0.48397 0.0
C2562 C 0.53017 0.33997 0.98474 0.0
C2563 C 0.5206 0.34778 0.99663 0.0
C2564 C 0.54799 0.34109 0.98832 0.0
C2565 C 0.58061 0.34389 0.02465 0.0
H2566 H 0.61196 0.34852 0.99052 0.0
C2567 C 0.64182 0.31126 0.02424 0.0
C2568 C 0.6563 0.31995 0.01877 0.0
C2569 C 0.62654 0.31861 0.02396 0.0
C2570 C 0.60344 0.34748 1.0003 0.0
H2571 H 0.52206 0.3633 0.0213 0.0
H2572 H 0.55326 0.36513 0.02761 0.0
H2573 H 0.58255 0.35507 0.98436 0.0
H2574 H 0.66671 0.34343 0.01003 0.0
H2575 H 0.63993 0.35644 0.00966 0.0
H2576 H 0.60128 0.33565 0.04033 0.0
C2577 C 0.54698 0.35821 0.01553 0.0
C2578 C 0.58661 0.3511 0.99671 0.0
C2579 C 0.52918 0.35724 0.01188 0.0
C2580 C 0.65557 0.33647 0.01402 0.0
C2581 C 0.64031 0.34383 0.01374 0.0
C2582 C 0.59739 0.34013 0.02818 0.0
C2583 C 0.55649 0.34989 0.00391 0.0
C2584 C 0.57493 0.34887 0.00867 0.0
C2585 C 0.62555 0.33479 0.01832 0.0
C2586 C 0.60879 0.34141 0.01584 0.0
H2587 H 0.52384 0.33274 0.97283 0.0
H2588 H 0.55502 0.33441 0.97921 0.0
H2589 H 0.57183 0.34197 0.03406 0.0
H2590 H 0.64212 0.29883 0.02862 0.0
H2591 H 0.61533 0.31134 0.02755 0.0
C2592 C 0.39874 0.50402 0.73066 0.0
C2593 C 0.39369 0.5108 0.7154 0.0
C2594 C 0.40722 0.4893 0.73029 0.0
C2595 C 0.43298 0.46406 0.70274 0.0
H2596 H 0.4237 0.42863 0.73195 0.0
C2597 C 0.46092 0.39993 0.69343 0.0
C2598 C 0.46828 0.39389 0.70823 0.0
C2599 C 0.451 0.41352 0.69473 0.0
C2600 C 0.42652 0.43849 0.72381 0.0
H2601 H 0.39371 0.50726 0.68776 0.0
H2602 H 0.40796 0.48153 0.68708 0.0
H2603 H 0.40804 0.45372 0.73353 0.0
H2604 H 0.47072 0.39688 0.73595 0.0
H2605 H 0.45318 0.42061 0.73833 0.0
H2606 H 0.45139 0.44889 0.69297 0.0
C2607 C 0.40559 0.48767 0.6994 0.0
C2608 C 0.41757 0.45289 0.72473 0.0
C2609 C 0.39717 0.50234 0.69977 0.0
C2610 C 0.46505 0.40127 0.72437 0.0
C2611 C 0.45503 0.41483 0.7257 0.0
C2612 C 0.44184 0.44968 0.70177 0.0
C2613 C 0.41091 0.48104 0.71464 0.0
C2614 C 0.42061 0.46581 0.71411 0.0
C2615 C 0.44815 0.42134 0.71089 0.0
C2616 C 0.43867 0.43665 0.71219 0.0
H2617 H 0.39614 0.51008 0.74292 0.0
H2618 H 0.41121 0.48462 0.7423 0.0
H2619 H 0.436 0.47392 0.69466 0.0
H2620 H 0.46304 0.39423 0.68086 0.0
H2621 H 0.44563 0.41799 0.68305 0.0
C2622 C 0.03263 0.87082 0.18899 0.0
C2623 C 0.03941 0.85754 0.19695 0.0
C2624 C 0.04079 0.88771 0.19269 0.0
C2625 C 0.08257 0.91266 0.21035 0.0
H2626 H 0.05594 0.9496 0.22259 0.0
C2627 C 0.11228 0.97363 0.2533 0.0
C2628 C 0.10846 0.98956 0.2487 0.0
C2629 C 0.10355 0.95843 0.24437 0.0
C2630 C 0.06349 0.93947 0.2189 0.0
H2631 H 0.06023 0.85141 0.21463 0.0
H2632 H 0.07428 0.88079 0.22123 0.0
H2633 H 0.04119 0.92093 0.21143 0.0
H2634 H 0.09201 1.0023 0.23187 0.0
H2635 H 0.07632 0.97538 0.21608 0.0
H2636 H 0.10486 0.93096 0.21835 0.0
C2637 C 0.06275 0.87821 0.21207 0.0
C2638 C 0.05507 0.92308 0.21252 0.0
C2639 C 0.05459 0.86141 0.20847 0.0
C2640 C 0.09529 0.99008 0.23536 0.0
C2641 C 0.08636 0.97476 0.22645 0.0
C2642 C 0.09094 0.92896 0.21673 0.0
C2643 C 0.05595 0.89155 0.20426 0.0
C2644 C 0.06457 0.90941 0.20868 0.0
C2645 C 0.09061 0.9588 0.23076 0.0
C2646 C 0.08152 0.94239 0.22155 0.0
H2647 H 0.0209 0.86819 0.18012 0.0
H2648 H 0.0353 0.89774 0.18644 0.0
H2649 H 0.09021 0.90246 0.20713 0.0
H2650 H 0.1219 0.97298 0.26402 0.0
H2651 H 0.10675 0.94633 0.2483 0.0
C2652 C 0.56211 0.0936 0.7384 0.0
C2653 C 0.57592 0.09365 0.72863 0.0
C2654 C 0.54657 0.08336 0.73251 0.0
C2655 C 0.52042 0.0599 0.6934 0.0
H2656 H 0.49514 0.0397 0.72708 0.0
C2657 C 0.44831 0.03323 0.67894 0.0
C2658 C 0.44224 0.01939 0.68721 0.0
C2659 C 0.46535 0.04086 0.68291 0.0
C2660 C 0.50206 0.04498 0.71739 0.0
H2661 H 0.58418 0.08294 0.7049 0.0
H2662 H 0.55697 0.06477 0.69465 0.0
H2663 H 0.52366 0.05493 0.73591 0.0
H2664 H 0.44902 1.0019 0.70522 0.0
H2665 H 0.479 0.01485 0.71204 0.0
H2666 H 0.49889 0.04953 0.67479 0.0
C2667 C 0.55815 0.07285 0.70682 0.0
C2668 C 0.51838 0.05399 0.72254 0.0
C2669 C 0.57376 0.08323 0.71271 0.0
C2670 C 0.45349 0.01287 0.69907 0.0
C2671 C 0.47058 0.02033 0.70293 0.0
C2672 C 0.50409 0.05073 0.6882 0.0
C2673 C 0.54438 0.07276 0.71671 0.0
C2674 C 0.52765 0.06188 0.71071 0.0
C2675 C 0.47671 0.0346 0.6951 0.0
C2676 C 0.49458 0.04337 0.7002 0.0
H2677 H 0.56316 0.10179 0.7505 0.0
H2678 H 0.53613 0.08401 0.74027 0.0
H2679 H 0.52715 0.06585 0.68393 0.0
H2680 H 0.43974 0.03821 0.66956 0.0
H2681 H 0.46948 0.05191 0.67673 0.0
C2682 C 0.99127 0.52708 0.33889 0.0
C2683 C 0.00364 0.51562 0.33875 0.0
C2684 C 0.99597 0.54439 0.33737 0.0
C2685 C 0.01132 0.58203 0.34033 0.0
H2686 H 0.03915 0.58912 0.30356 0.0
C2687 C 0.02919 0.64917 0.32417 0.0
C2688 C 0.02345 0.65108 0.3071 0.0
C2689 C 0.03109 0.63299 0.32892 0.0
C2690 C 0.03147 0.58731 0.3139 0.0
H2691 H 0.03069 0.51331 0.33849 0.0
H2692 H 0.03892 0.54356 0.33599 0.0
H2693 H 0.03289 0.56027 0.31162 0.0
H2694 H 0.01754 0.63811 0.28122 0.0
H2695 H 0.02065 0.60945 0.28952 0.0
H2696 H 0.00943 0.60894 0.34225 0.0
C2697 C 0.02558 0.53914 0.33677 0.0
C2698 C 0.02798 0.57088 0.31861 0.0
C2699 C 0.02089 0.52189 0.33823 0.0
C2700 C 0.02173 0.63683 0.29449 0.0
C2701 C 0.02355 0.62051 0.29925 0.0
C2702 C 0.01492 0.59846 0.33571 0.0
C2703 C 0.01309 0.55043 0.33577 0.0
C2704 C 0.01772 0.56806 0.33174 0.0
C2705 C 0.02729 0.61842 0.31667 0.0
C2706 C 0.02489 0.60122 0.32235 0.0
H2707 H 0.97789 0.5225 0.3393 0.0
H2708 H 0.98607 0.55284 0.33658 0.0
H2709 H 0.00342 0.58021 0.35051 0.0
H2710 H 0.03068 0.65989 0.3342 0.0
H2711 H 0.03437 0.63174 0.34237 0.0
C2712 C 0.362 0.65029 0.34677 0.0
C2713 C 0.36049 0.6623 0.36089 0.0
C2714 C 0.37798 0.64854 0.34117 0.0
C2715 C 0.42176 0.67107 0.34199 0.0
H2716 H 0.43274 0.62522 0.32862 0.0
C2717 C 0.48864 0.65782 0.32233 0.0
C2718 C 0.48886 0.64413 0.30944 0.0
C2719 C 0.4733 0.66074 0.32895 0.0
C2720 C 0.42984 0.63815 0.33205 0.0
H2721 H 0.37475 0.68199 0.38013 0.0
H2722 H 0.40275 0.67888 0.37035 0.0
H2723 H 0.40568 0.62888 0.33967 0.0
H2724 H 0.47332 0.62325 0.29283 0.0
H2725 H 0.44646 0.62846 0.30393 0.0
H2726 H 0.44587 0.68035 0.33413 0.0
C2727 C 0.39148 0.67087 0.36358 0.0
C2728 C 0.41429 0.64024 0.33846 0.0
C2729 C 0.37545 0.67253 0.36928 0.0
C2730 C 0.47344 0.63375 0.30291 0.0
C2731 C 0.45811 0.6367 0.3094 0.0
C2732 C 0.43732 0.66899 0.33546 0.0
C2733 C 0.39295 0.65879 0.34947 0.0
C2734 C 0.40994 0.65672 0.34337 0.0
C2735 C 0.45783 0.65006 0.32273 0.0
C2736 C 0.44152 0.65248 0.33022 0.0
H2737 H 0.35082 0.64204 0.34011 0.0
H2738 H 0.37858 0.63923 0.33016 0.0
H2739 H 0.41877 0.68396 0.34553 0.0
H2740 H 0.50045 0.66592 0.32759 0.0
H2741 H 0.47368 0.67106 0.33928 0.0
C2742 C 0.16584 0.33625 0.77795 0.0
C2743 C 0.17168 0.32233 0.78556 0.0
C2744 C 0.14983 0.33439 0.76793 0.0
C2745 C 0.10747 0.30843 0.76027 0.0
H2746 H 0.10294 0.32865 0.71764 0.0
C2747 C 0.05099 0.31243 0.70068 0.0
C2748 C 0.03798 0.31714 0.7105 0.0
C2749 C 0.06769 0.31162 0.70863 0.0
C2750 C 0.10404 0.32276 0.72939 0.0
H2751 H 0.165 0.29561 0.78889 0.0
H2752 H 0.13695 0.2924 0.77145 0.0
H2753 H 0.13131 0.32999 0.73419 0.0
H2754 H 0.03403 0.32837 0.73592 0.0
H2755 H 0.06234 0.32599 0.74968 0.0
H2756 H 0.08017 0.30159 0.75571 0.0
C2757 C 0.14484 0.30474 0.7732 0.0
C2758 C 0.12024 0.32369 0.73897 0.0
C2759 C 0.16095 0.30656 0.78312 0.0
C2760 C 0.04291 0.32286 0.72811 0.0
C2761 C 0.05933 0.32178 0.73604 0.0
C2762 C 0.09127 0.30769 0.75081 0.0
C2763 C 0.13916 0.3186 0.76534 0.0
C2764 C 0.12211 0.31673 0.75464 0.0
C2765 C 0.07187 0.31589 0.72649 0.0
C2766 C 0.08934 0.31505 0.73539 0.0
H2767 H 0.17383 0.34852 0.77941 0.0
H2768 H 0.14574 0.34539 0.76227 0.0
H2769 H 0.10843 0.303 0.7723 0.0
H2770 H 0.04844 0.30948 0.68693 0.0
H2771 H 0.07731 0.30757 0.70083 0.0
C2772 C 0.72224 0.99691 0.66271 0.0
C2773 C 0.71922 0.99312 0.64475 0.0
C2774 C 0.73819 0.99539 0.67158 0.0
C2775 C 0.77837 0.97577 0.66711 0.0
H2776 H 0.79657 0.00972 0.70604 0.0
C2777 C 0.84908 0.98616 0.69931 0.0
C2778 C 0.85159 0.98853 0.71732 0.0
C2779 C 0.83257 0.98488 0.69046 0.0
C2780 C 0.79154 1.00004 0.69531 0.0
H2781 H 0.7306 0.98445 0.62207 0.0
H2782 H 0.75862 0.98246 0.63746 0.0
H2783 H 0.76867 0.01172 0.69035 0.0
H2784 H 0.83901 0.99071 0.74025 0.0
H2785 H 0.81002 0.98881 0.72479 0.0
H2786 H 0.80167 0.9645 0.67187 0.0
C2787 C 0.74855 0.98632 0.64475 0.0
C2788 C 0.77554 1.00114 0.68633 0.0
C2789 C 0.73254 0.98771 0.63589 0.0
C2790 C 0.8373 0.98899 0.72636 0.0
C2791 C 0.82082 0.98795 0.71753 0.0
C2792 C 0.79449 0.9748 0.67599 0.0
C2793 C 0.75159 0.99017 0.66271 0.0
C2794 C 0.7687 0.98898 0.67217 0.0
C2795 C 0.81835 0.98619 0.69951 0.0
C2796 C 0.80116 0.98688 0.69022 0.0
H2797 H 0.71234 1.00131 0.66994 0.0
H2798 H 0.73998 0.99824 0.68543 0.0
H2799 H 0.77341 0.96605 0.65641 0.0
H2800 H 0.85996 0.98611 0.69211 0.0
H2801 H 0.83102 0.9837 0.67656 0.0
C2802 C 0.77574 0.00673 0.30019 0.0
C2803 C 0.78736 0.01844 0.31168 0.0
C2804 C 0.75915 1.00236 0.30379 0.0
C2805 C 0.726 0.01326 0.34549 0.0
H2806 H 0.68052 0.99895 0.28467 0.0
C2807 C 0.63773 0.0102 0.33772 0.0
C2808 C 0.62645 0.00933 0.32256 0.0
C2809 C 0.6554 0.01134 0.33727 0.0
C2810 C 0.68943 1.00212 0.29631 0.0
H2811 H 0.79136 0.03371 0.33662 0.0
H2812 H 0.76174 0.0261 0.34294 0.0
H2813 H 0.72215 0.99872 0.2836 0.0
H2814 H 0.62471 0.00899 0.29501 0.0
H2815 H 0.65574 0.01018 0.29407 0.0
H2816 H 0.69246 0.02036 0.35787 0.0
C2817 C 0.76568 0.02023 0.33121 0.0
C2818 C 0.71728 1.00166 0.29572 0.0
C2819 C 0.7825 0.0247 0.32755 0.0
C2820 C 0.63318 0.00944 0.30685 0.0
C2821 C 0.65092 0.0102 0.30635 0.0
C2822 C 0.69737 0.01647 0.34598 0.0
C2823 C 0.75374 0.00947 0.31903 0.0
C2824 C 0.73515 0.00815 0.32033 0.0
C2825 C 0.66216 0.0111 0.32158 0.0
C2826 C 0.68074 0.01086 0.32117 0.0
H2827 H 0.77931 1.00151 0.288 0.0
H2828 H 0.75038 0.99417 0.29399 0.0
H2829 H 0.735 0.01625 0.3571 0.0
H2830 H 0.63283 0.00976 0.34994 0.0
H2831 H 0.66358 0.01188 0.34925 0.0
C2832 C 0.36945 0.37338 0.66561 0.0
C2833 C 0.3583 0.35816 0.65973 0.0
C2834 C 0.364 0.38954 0.66402 0.0
C2835 C 0.3309 0.41048 0.63945 0.0
H2836 H 0.34334 0.44831 0.676 0.0
C2837 C 0.29956 0.47313 0.63836 0.0
C2838 C 0.31022 0.48868 0.64344 0.0
C2839 C 0.3056 0.45748 0.64099 0.0
C2840 C 0.33988 0.43794 0.66558 0.0
H2841 H 0.3327 0.3482 0.64729 0.0
H2842 H 0.32316 0.37617 0.64481 0.0
H2843 H 0.3538 0.42068 0.67914 0.0
H2844 H 0.33534 0.50035 0.65533 0.0
H2845 H 0.34609 0.47299 0.66006 0.0
H2846 H 0.31702 0.42765 0.62587 0.0
C2847 C 0.33618 0.37568 0.65055 0.0
C2848 C 0.34591 0.42207 0.66738 0.0
C2849 C 0.3416 0.35958 0.65218 0.0
C2850 C 0.32692 0.48843 0.65148 0.0
C2851 C 0.333 0.47277 0.65419 0.0
C2852 C 0.32489 0.4263 0.63766 0.0
C2853 C 0.34729 0.39092 0.65639 0.0
C2854 C 0.34139 0.40806 0.65438 0.0
C2855 C 0.32249 0.45704 0.64877 0.0
C2856 C 0.32917 0.44024 0.65074 0.0
H2857 H 0.38236 0.37282 0.67162 0.0
H2858 H 0.37298 0.40096 0.66855 0.0
H2859 H 0.32745 0.40016 0.62899 0.0
H2860 H 0.28665 0.47315 0.63207 0.0
H2861 H 0.29703 0.4457 0.63688 0.0
C2862 C 0.29991 0.7714 1.00111 0.0
C2863 C 0.29417 0.77759 0.01658 0.0
C2864 C 0.30218 0.75408 0.99769 0.0
C2865 C 0.29029 0.70997 0.01521 0.0
H2866 H 0.33137 0.67278 1.00103 0.0
C2867 C 0.30923 0.63415 0.03026 0.0
C2868 C 0.30596 0.62304 0.01478 0.0
C2869 C 0.30739 0.6516 0.03041 0.0
C2870 C 0.32214 0.68144 0.00442 0.0
H2871 H 0.28677 0.77062 0.04075 0.0
H2872 H 0.29078 0.74069 0.03492 0.0
H2873 H 0.32823 0.73006 0.99323 0.0
H2874 H 0.29725 0.62114 0.98761 0.0
H2875 H 0.2936 0.65144 0.98796 0.0
H2876 H 0.28105 0.68396 0.02372 0.0
C2877 C 0.293 0.74894 0.02511 0.0
C2878 C 0.31964 0.72087 0.99858 0.0
C2879 C 0.29089 0.76618 0.02858 0.0
C2880 C 0.2995 0.62933 0.99976 0.0
C2881 C 0.29743 0.64665 0.99996 0.0
C2882 C 0.29174 0.68973 0.01797 0.0
C2883 C 0.2986 0.74267 0.00961 0.0
C2884 C 0.30221 0.72468 0.00687 0.0
C2885 C 0.30195 0.65803 0.01513 0.0
C2886 C 0.30548 0.67638 0.01354 0.0
H2887 H 0.30231 0.77984 0.9915 0.0
H2888 H 0.30658 0.74962 0.98568 0.0
H2889 H 0.27903 0.71439 0.01999 0.0
H2890 H 0.31414 0.62951 0.04199 0.0
H2891 H 0.31135 0.66014 0.04219 0.0
C2892 C 0.76627 0.16784 0.3111 0.0
C2893 C 0.78434 0.17021 0.31371 0.0
C2894 C 0.75714 0.15136 0.30756 0.0
C2895 C 0.76122 0.10622 0.2916 0.0
H2896 H 0.72075 0.09597 0.31407 0.0
C2897 C 0.73151 0.0376 0.29817 0.0
C2898 C 0.71417 0.03444 0.3014 0.0
C2899 C 0.73863 0.05386 0.29526 0.0
C2900 C 0.73176 0.09866 0.30733 0.0
H2901 H 0.80696 0.15695 0.31469 0.0
H2902 H 0.79098 0.12806 0.30859 0.0
H2903 H 0.73654 0.12471 0.31933 0.0
H2904 H 0.69021 0.0453 0.29958 0.0
H2905 H 0.7026 0.07375 0.29427 0.0
H2906 H 0.75658 0.08008 0.27979 0.0
C2907 C 0.78389 0.13904 0.30913 0.0
C2908 C 0.74092 0.11518 0.31045 0.0
C2909 C 0.79306 0.15559 0.31281 0.0
C2910 C 0.70368 0.04729 0.29788 0.0
C2911 C 0.71087 0.06373 0.29517 0.0
C2912 C 0.75201 0.0897 0.28842 0.0
C2913 C 0.76579 0.13672 0.30647 0.0
C2914 C 0.75588 0.11915 0.30278 0.0
C2915 C 0.72869 0.06749 0.29497 0.0
C2916 C 0.73725 0.08561 0.2964 0.0
H2917 H 0.75912 0.17878 0.31193 0.0
H2918 H 0.74325 0.15012 0.30548 0.0
H2919 H 0.77251 0.10888 0.28524 0.0
H2920 H 0.74016 0.02822 0.29859 0.0
H2921 H 0.75231 0.05596 0.29457 0.0
C2922 C 0.66705 0.72347 0.99709 0.0
C2923 C 0.6494 0.71944 0.9915 0.0
C2924 C 0.67544 0.73975 0.99608 0.0
C2925 C 0.67139 0.77902 0.97492 0.0
H2926 H 0.70797 0.79847 0.01104 0.0
C2927 C 0.70641 0.84958 0.98809 0.0
C2928 C 0.72435 0.85053 0.98887 0.0
C2929 C 0.69634 0.83365 0.9864 0.0
C2930 C 0.69783 0.7931 1.00085 0.0
H2931 H 0.62675 0.72938 0.98027 0.0
H2932 H 0.64129 0.75803 0.97912 0.0
H2933 H 0.69164 0.77089 0.01314 0.0
H2934 H 0.74583 0.83593 0.98758 0.0
H2935 H 0.72823 0.80788 0.98528 0.0
H2936 H 0.67739 0.80181 0.96306 0.0
C2937 C 0.64871 0.74849 0.984 0.0
C2938 C 0.68853 0.77729 1.00197 0.0
C2939 C 0.64033 0.73211 0.98487 0.0
C2940 C 0.73203 0.83537 0.98717 0.0
C2941 C 0.72202 0.81946 0.98582 0.0
C2942 C 0.68054 0.79504 0.97397 0.0
C2943 C 0.66637 0.75251 0.98964 0.0
C2944 C 0.67542 0.76988 0.98887 0.0
C2945 C 0.70416 0.81854 0.98578 0.0
C2946 C 0.69401 0.80198 0.98679 0.0
H2947 H 0.67438 0.71411 0.00249 0.0
H2948 H 0.68911 0.74228 1.00027 0.0
H2949 H 0.66146 0.77365 0.96455 0.0
H2950 H 0.70032 0.86119 0.98961 0.0
H2951 H 0.68258 0.83316 0.98651 0.0
C2952 C 0.66132 0.37447 0.37762 0.0
C2953 C 0.66172 0.36275 0.36291 0.0
C2954 C 0.65962 0.3687 0.39357 0.0
C2955 C 0.66487 0.33149 0.41768 0.0
H2956 H 0.63303 0.35119 0.44578 0.0
C2957 C 0.64392 0.30106 0.47672 0.0
C2958 C 0.64066 0.312 0.4909 0.0
C2959 C 0.64736 0.30761 0.46152 0.0
C2960 C 0.6422 0.3457 0.43827 0.0
H2961 H 0.66047 0.33565 0.35364 0.0
H2962 H 0.65771 0.32567 0.38141 0.0
H2963 H 0.63762 0.36205 0.41877 0.0
H2964 H 0.63886 0.33831 0.50063 0.0
H2965 H 0.64524 0.34997 0.47427 0.0
H2966 H 0.66955 0.3152 0.43719 0.0
C2967 C 0.65892 0.33936 0.38063 0.0
C2968 C 0.6448 0.35193 0.42272 0.0
C2969 C 0.66053 0.34511 0.36468 0.0
C2970 C 0.64117 0.32964 0.48975 0.0
C2971 C 0.64473 0.33625 0.47461 0.0
C2972 C 0.66236 0.32533 0.43329 0.0
C2973 C 0.65834 0.35106 0.39527 0.0
C2974 C 0.65607 0.34483 0.41215 0.0
C2975 C 0.64773 0.32531 0.4602 0.0
C2976 C 0.65088 0.33225 0.44378 0.0
H2977 H 0.6625 0.38816 0.37687 0.0
H2978 H 0.65947 0.37809 0.40462 0.0
H2979 H 0.67384 0.32588 0.40999 0.0
H2980 H 0.64344 0.28738 0.47733 0.0
H2981 H 0.64932 0.2987 0.45068 0.0
C2982 C 0.9996 0.30608 0.77062 0.0
C2983 C 0.01301 0.29752 0.77741 0.0
C2984 C 0.99767 0.30833 0.75319 0.0
C2985 C 0.01492 0.28998 0.711 0.0
H2986 H 0.00551 0.32879 0.66904 0.0
C2987 C 0.02881 0.30376 0.6313 0.0
C2988 C 0.01257 0.301 0.62145 0.0
C2989 C 0.03039 0.30204 0.64883 0.0
C2990 C 0.00838 0.32043 0.67873 0.0
H2991 H 0.03538 0.28543 0.77151 0.0
H2992 H 0.03194 0.28908 0.74144 0.0
H2993 H 0.99692 0.33227 0.72658 0.0
H2994 H 0.98557 0.29272 0.62174 0.0
H2995 H 0.98838 0.28925 0.65215 0.0
H2996 H 0.02339 0.27694 0.68203 0.0
C2997 C 0.0226 0.29371 0.74927 0.0
C2998 C 1.0017 0.32234 0.71835 0.0
C2999 C 0.02467 0.29171 0.7666 0.0
C3000 C 0.99826 0.29465 0.62894 0.0
C3001 C 0.9999 0.29257 0.64633 0.0
C3002 C 0.01838 0.28897 0.68955 0.0
C3003 C 0.00902 0.3019 0.74232 0.0
C3004 C 0.00766 0.30443 0.72401 0.0
C3005 C 0.01581 0.29708 0.65657 0.0
C3006 C 0.0155 0.3024 0.6749 0.0
H3007 H 0.99033 0.31055 0.77862 0.0
H3008 H 0.9871 0.31473 0.74819 0.0
H3009 H 0.01662 0.29003 0.69941 0.0
H3010 H 0.04005 0.30845 0.6257 0.0
H3011 H 0.04271 0.30601 0.65653 0.0
C3012 C 0.32906 0.79341 0.15674 0.0
C3013 C 0.32371 0.78519 0.1705 0.0
C3014 C 0.32838 0.78421 0.14041 0.0
C3015 C 0.30876 0.74361 0.11335 0.0
H3016 H 0.34667 0.75338 0.08727 0.0
C3017 C 0.31604 0.70304 0.04869 0.0
C3018 C 0.31984 0.71266 0.03525 0.0
C3019 C 0.31656 0.71114 0.06555 0.0
C3020 C 0.33591 0.75056 0.09432 0.0
H3021 H 0.31349 0.76072 0.17774 0.0
H3022 H 0.31231 0.74475 0.14938 0.0
H3023 H 0.34678 0.76934 0.11547 0.0
H3024 H 0.33053 0.73795 0.03032 0.0
H3025 H 0.33095 0.75193 0.05911 0.0
H3026 H 0.29791 0.7248 0.09207 0.0
C3027 C 0.31678 0.75838 0.15111 0.0
C3028 C 0.33594 0.75977 0.11049 0.0
C3029 C 0.31745 0.76758 0.16742 0.0
C3030 C 0.32609 0.73023 0.03982 0.0
C3031 C 0.32671 0.73827 0.05652 0.0
C3032 C 0.30874 0.73435 0.09714 0.0
C3033 C 0.32238 0.76652 0.13741 0.0
C3034 C 0.32231 0.75653 0.12019 0.0
C3035 C 0.32175 0.72891 0.0696 0.0
C3036 C 0.32224 0.73784 0.08734 0.0
H3037 H 0.33371 0.807 0.15856 0.0
H3038 H 0.33249 0.79099 0.13011 0.0
H3039 H 0.29795 0.74087 0.12036 0.0
H3040 H 0.31278 0.68932 0.04642 0.0
H3041 H 0.31325 0.70342 0.07549 0.0
C3042 C 0.98731 0.64167 0.72815 0.0
C3043 C 0.99711 0.65046 0.71726 0.0
C3044 C 0.98534 0.64956 0.7444 0.0
C3045 C 0.00486 0.68587 0.77704 0.0
H3046 H 0.96116 0.67934 0.79507 0.0
C3047 C 0.98824 0.72965 0.83383 0.0
C3048 C 0.98663 0.72112 0.84832 0.0
C3049 C 0.98767 0.72029 0.8177 0.0
C3050 C 0.9734 0.68117 0.79013 0.0
H3051 H 0.01254 0.67439 0.71497 0.0
H3052 H 0.00858 0.68838 0.74297 0.0
H3053 H 0.9644 0.66431 0.76699 0.0
H3054 H 0.98233 0.69628 0.85738 0.0
H3055 H 0.98053 0.67982 0.82888 0.0
H3056 H 0.0136 0.70317 0.79996 0.0
C3057 C 1.00269 0.67526 0.73912 0.0
C3058 C 0.97533 0.67253 0.77416 0.0
C3059 C 0.00476 0.66734 0.72294 0.0
C3060 C 0.98328 0.70311 0.84631 0.0
C3061 C 0.98237 0.69373 0.8301 0.0
C3062 C 1.00282 0.69469 0.79281 0.0
C3063 C 0.99303 0.66644 0.75009 0.0
C3064 C 0.99105 0.67493 0.76736 0.0
C3065 C 0.98511 0.70228 0.81583 0.0
C3066 C 0.98706 0.69252 0.79936 0.0
H3067 H 0.98107 0.62871 0.72407 0.0
H3068 H 0.97795 0.64233 0.75256 0.0
H3069 H 0.01727 0.68765 0.77245 0.0
H3070 H 0.99074 0.74353 0.83517 0.0
H3071 H 0.98976 0.72707 0.80677 0.0
C3072 C 0.63374 0.34879 0.63479 0.0
C3073 C 0.64808 0.34753 0.64668 0.0
C3074 C 0.61746 0.34967 0.64009 0.0
C3075 C 0.59193 0.34091 0.67575 0.0
H3076 H 0.56369 0.37331 0.65724 0.0
C3077 C 0.53146 0.35951 0.70537 0.0
C3078 C 0.51742 0.36283 0.69425 0.0
C3079 C 0.54693 0.35648 0.69912 0.0
C3080 C 0.57126 0.36399 0.66238 0.0
H3081 H 0.65633 0.34635 0.67361 0.0
H3082 H 0.62804 0.34778 0.68279 0.0
H3083 H 0.59132 0.37016 0.64711 0.0
H3084 H 0.50821 0.36499 0.66789 0.0
H3085 H 0.53509 0.35951 0.65681 0.0
H3086 H 0.57188 0.33478 0.69106 0.0
C3087 C 0.62933 0.34785 0.66929 0.0
C3088 C 0.58716 0.3622 0.65656 0.0
C3089 C 0.6456 0.34701 0.664 0.0
C3090 C 0.51897 0.36266 0.67671 0.0
C3091 C 0.53439 0.35959 0.67043 0.0
C3092 C 0.576 0.34267 0.68154 0.0
C3093 C 0.61503 0.34928 0.65744 0.0
C3094 C 0.59779 0.35072 0.66323 0.0
C3095 C 0.54869 0.35666 0.68158 0.0
C3096 C 0.56546 0.35432 0.67502 0.0
H3097 H 0.63503 0.34893 0.6213 0.0
H3098 H 0.60672 0.3505 0.63055 0.0
H3099 H 0.59962 0.33174 0.68099 0.0
H3100 H 0.53059 0.35974 0.71897 0.0
H3101 H 0.55767 0.35449 0.70815 0.0
C3102 C 0.84597 0.691 0.22423 0.0
C3103 C 0.83615 0.67502 0.21831 0.0
C3104 C 0.86249 0.69191 0.23313 0.0
C3105 C 0.89845 0.66611 0.24121 0.0
H3106 H 0.91279 0.70059 0.28064 0.0
C3107 C 0.96855 0.67908 0.27315 0.0
C3108 C 0.97218 0.68332 0.29111 0.0
C3109 C 0.95192 0.67805 0.26471 0.0
C3110 C 0.90893 0.69079 0.26975 0.0
H3111 H 0.83618 0.64744 0.21723 0.0
H3112 H 0.8649 0.64901 0.23261 0.0
H3113 H 0.88411 0.69913 0.26485 0.0
H3114 H 0.95966 0.68579 0.31433 0.0
H3115 H 0.93074 0.68454 0.29959 0.0
H3116 H 0.92309 0.65758 0.24621 0.0
C3117 C 0.85993 0.66088 0.23019 0.0
C3118 C 0.89256 0.69009 0.26055 0.0
C3119 C 0.84343 0.65998 0.22131 0.0
C3120 C 0.95803 0.6844 0.30049 0.0
C3121 C 0.94126 0.68339 0.292 0.0
C3122 C 0.91479 0.66684 0.25037 0.0
C3123 C 0.86965 0.67685 0.23635 0.0
C3124 C 0.88711 0.67774 0.24613 0.0
C3125 C 0.93804 0.68038 0.27397 0.0
C3126 C 0.9203 0.67923 0.26472 0.0
H3127 H 0.84091 0.70286 0.22193 0.0
H3128 H 0.8697 0.70443 0.23738 0.0
H3129 H 0.8948 0.65654 0.2301 0.0
H3130 H 0.97868 0.67646 0.26547 0.0
H3131 H 0.95001 0.67547 0.25083 0.0
C3132 C 0.26611 0.9917 0.36159 0.0
C3133 C 0.28152 1.00123 0.359 0.0
C3134 C 0.25039 0.99519 0.35371 0.0
C3135 C 0.22977 0.02861 0.33243 0.0
H3136 H 0.19503 0.99036 0.31419 0.0
C3137 C 0.16944 0.0321 0.28414 0.0
C3138 C 0.15411 0.02314 0.2875 0.0
C3139 C 0.18482 0.0312 0.29444 0.0
C3140 C 0.20455 1.00117 0.3194 0.0
H3141 H 0.29247 0.02205 0.34625 0.0
H3142 H 0.26509 0.02772 0.332 0.0
H3143 H 0.22236 0.98483 0.32863 0.0
H3144 H 0.14236 0.00662 0.3041 0.0
H3145 H 0.16925 0.00494 0.32221 0.0
H3146 H 0.21195 0.04487 0.32262 0.0
C3147 C 0.26513 0.01774 0.34036 0.0
C3148 C 0.22019 0.99803 0.32771 0.0
C3149 C 0.28085 0.0143 0.34831 0.0
C3150 C 0.15413 0.01378 0.30156 0.0
C3151 C 0.16946 0.01272 0.31174 0.0
C3152 C 0.21415 0.03175 0.32394 0.0
C3153 C 0.24971 0.00823 0.34298 0.0
C3154 C 0.233 0.0117 0.33433 0.0
C3155 C 0.18499 0.02108 0.30802 0.0
C3156 C 0.20141 0.01804 0.31739 0.0
H3157 H 0.26619 0.98144 0.36963 0.0
H3158 H 0.23875 0.98775 0.35618 0.0
H3159 H 0.23926 0.03945 0.33762 0.0
H3160 H 0.16954 0.03917 0.27315 0.0
H3161 H 0.19667 0.03766 0.29127 0.0
C3162 C 0.25591 0.00324 0.73415 0.0
C3163 C 0.24518 0.9878 0.72838 0.0
C3164 C 0.27346 0.00444 0.73294 0.0
C3165 C 0.30897 0.97896 0.72158 0.0
H3166 H 0.32567 0.02182 0.70621 0.0
C3167 C 0.37086 0.98562 0.68866 0.0
C3168 C 0.38027 1.00192 0.68958 0.0
C3169 C 0.355 0.98373 0.69502 0.0
C3170 C 0.32155 0.00979 0.71062 0.0
H3171 H 0.24456 0.96121 0.71777 0.0
H3172 H 0.27527 0.96325 0.71577 0.0
H3173 H 0.29834 0.01888 0.71634 0.0
H3174 H 0.38047 0.02901 0.69759 0.0
H3175 H 0.35394 0.02578 0.71019 0.0
H3176 H 0.33267 0.97013 0.71626 0.0
C3177 C 0.27012 0.97457 0.72086 0.0
C3178 C 0.30559 0.00806 0.71651 0.0
C3179 C 0.25247 0.97339 0.72194 0.0
C3180 C 0.37358 0.01628 0.69697 0.0
C3181 C 0.3581 0.01437 0.70391 0.0
C3182 C 0.3252 0.9808 0.71592 0.0
C3183 C 0.28074 0.9903 0.72569 0.0
C3184 C 0.29879 0.9925 0.72162 0.0
C3185 C 0.34846 0.99807 0.70298 0.0
C3186 C 0.33158 0.99617 0.70996 0.0
H3187 H 0.25069 0.01457 0.73928 0.0
H3188 H 0.28123 0.01662 0.73742 0.0
H3189 H 0.30442 0.9669 0.72585 0.0
H3190 H 0.37585 0.97431 0.68316 0.0
H3191 H 0.34792 0.97101 0.69358 0.0
C3192 C 0.66121 0.64178 0.34017 0.0
C3193 C 0.64618 0.64618 0.34672 0.0
C3194 C 0.66644 0.62551 0.34131 0.0
C3195 C 0.66004 0.58737 0.36506 0.0
H3196 H 0.68345 0.56579 0.32944 0.0
C3197 C 0.6773 0.51792 0.36506 0.0
C3198 C 0.69414 0.51549 0.36216 0.0
C3199 C 0.67085 0.53334 0.36225 0.0
C3200 C 0.67702 0.57169 0.33955 0.0
H3201 H 0.62488 0.63652 0.35957 0.0
H3202 H 0.63361 0.60806 0.36097 0.0
H3203 H 0.67308 0.5934 0.32623 0.0
H3204 H 0.71732 0.52715 0.35372 0.0
H3205 H 0.70596 0.55399 0.34835 0.0
H3206 H 0.66382 0.5655 0.37824 0.0
C3207 C 0.6416 0.61733 0.35525 0.0
C3208 C 0.67111 0.58759 0.33775 0.0
C3209 C 0.63642 0.63366 0.35421 0.0
C3210 C 0.70423 0.52861 0.35585 0.0
C3211 C 0.69772 0.54398 0.35284 0.0
C3212 C 0.66579 0.5714 0.36675 0.0
C3213 C 0.65676 0.61303 0.34893 0.0
C3214 C 0.66262 0.59576 0.35054 0.0
C3215 C 0.68103 0.54664 0.35624 0.0
C3216 C 0.67445 0.5634 0.35408 0.0
H3217 H 0.66896 0.6509 0.33405 0.0
H3218 H 0.67829 0.62286 0.33646 0.0
H3219 H 0.65389 0.59329 0.37536 0.0
H3220 H 0.66918 0.5079 0.36966 0.0
H3221 H 0.65786 0.53485 0.36476 0.0
C3222 C 0.70632 0.23413 0.00718 0.0
C3223 C 0.70053 0.22146 0.99318 0.0
C3224 C 0.70372 0.25112 0.00618 0.0
C3225 C 0.6758 0.2821 0.97827 0.0
H3226 H 0.72695 0.32436 0.9987 0.0
C3227 C 0.68253 0.36459 0.97823 0.0
C3228 C 0.68896 0.37444 0.99404 0.0
C3229 C 0.68493 0.34727 0.97529 0.0
C3230 C 0.71588 0.31315 0.99479 0.0
H3231 H 0.68597 0.21634 0.96781 0.0
H3232 H 0.68078 0.2463 0.96641 0.0
H3233 H 0.71871 0.30164 0.99735 0.0
H3234 H 0.7037 0.37397 0.01876 0.0
H3235 H 0.70952 0.34442 0.01289 0.0
H3236 H 0.6644 0.31059 0.97177 0.0
C3237 C 0.68762 0.24293 0.97797 0.0
C3238 C 0.7153 0.28901 0.99767 0.0
C3239 C 0.69054 0.22584 0.9788 0.0
C3240 C 0.69894 0.36693 0.0063 0.0
C3241 C 0.70217 0.34993 0.00297 0.0
C3242 C 0.67591 0.30579 0.97703 0.0
C3243 C 0.69486 0.25568 0.99139 0.0
C3244 C 0.69488 0.27392 0.98954 0.0
C3245 C 0.69475 0.33982 0.98767 0.0
C3246 C 0.69581 0.32122 0.98572 0.0
H3247 H 0.71366 0.23104 0.01861 0.0
H3248 H 0.70912 0.26077 0.01679 0.0
H3249 H 0.66444 0.27331 0.9731 0.0
H3250 H 0.67521 0.37014 0.96833 0.0
H3251 H 0.67898 0.33976 0.9634 0.0
C3252 C 0.21016 0.85104 0.66106 0.0
C3253 C 0.20826 0.84316 0.67599 0.0
C3254 C 0.21641 0.86851 0.66213 0.0
C3255 C 0.24225 0.90378 0.69232 0.0
H3256 H 0.22789 0.93186 0.65738 0.0
C3257 C 0.28397 0.96507 0.6815 0.0
C3258 C 0.27626 0.97917 0.6763 0.0
C3259 C 0.27408 0.94956 0.68272 0.0
C3260 C 0.23191 0.92431 0.6674 0.0
H3261 H 0.21076 0.84785 0.70376 0.0
H3262 H 0.2215 0.87827 0.70565 0.0
H3263 H 0.21303 0.90297 0.657 0.0
H3264 H 0.25196 0.98818 0.66887 0.0
H3265 H 0.2344 0.96127 0.67208 0.0
H3266 H 0.26103 0.92511 0.7028 0.0
C3267 C 0.21852 0.87086 0.69308 0.0
C3268 C 0.22352 0.90761 0.66705 0.0
C3269 C 0.21233 0.85338 0.692 0.0
C3270 C 0.25825 0.97763 0.67312 0.0
C3271 C 0.24824 0.96211 0.67468 0.0
C3272 C 0.25058 0.92045 0.6927 0.0
C3273 C 0.22089 0.87865 0.67817 0.0
C3274 C 0.22878 0.89697 0.67932 0.0
C3275 C 0.25607 0.94779 0.67932 0.0
C3276 C 0.2458 0.93083 0.68002 0.0
H3277 H 0.20739 0.84357 0.64851 0.0
H3278 H 0.21827 0.87389 0.65036 0.0
H3279 H 0.2468 0.89603 0.70194 0.0
H3280 H 0.2978 0.96594 0.68421 0.0
H3281 H 0.28065 0.93884 0.68612 0.0
C3282 C 0.34533 0.28301 0.00883 0.0
C3283 C 0.35879 0.28407 0.99861 0.0
C3284 C 0.3378 0.26708 0.01218 0.0
C3285 C 0.33284 0.22075 0.99613 0.0
H3286 H 0.31766 0.2158 0.04058 0.0
C3287 C 0.30552 0.15547 0.01352 0.0
C3288 C 0.28925 0.15531 0.01901 0.0
C3289 C 0.31553 0.17102 0.01287 0.0
C3290 C 0.32185 0.21705 0.02813 0.0
H3291 H 0.37471 0.26913 0.98369 0.0
H3292 H 0.36204 0.24143 0.99007 0.0
H3293 H 0.33235 0.24333 0.03546 0.0
H3294 H 0.27067 0.17076 0.02861 0.0
H3295 H 0.28835 0.19828 0.0278 0.0
H3296 H 0.32247 0.1944 0.9889 0.0
C3297 C 0.35708 0.25289 0.99527 0.0
C3298 C 0.33016 0.2328 0.02514 0.0
C3299 C 0.3645 0.26881 0.99178 0.0
C3300 C 0.28332 0.1708 0.02453 0.0
C3301 C 0.2934 0.1864 0.02407 0.0
C3302 C 0.32474 0.20497 0.9992 0.0
C3303 C 0.34364 0.25183 0.00552 0.0
C3304 C 0.33556 0.23489 0.00902 0.0
C3305 C 0.3094 0.18662 0.01782 0.0
C3306 C 0.31902 0.20304 0.01515 0.0
H3307 H 0.34078 0.29451 0.01452 0.0
H3308 H 0.32729 0.26674 0.0199 0.0
H3309 H 0.33656 0.22195 0.98349 0.0
H3310 H 0.31011 0.14355 0.00903 0.0
H3311 H 0.32786 0.17089 0.00809 0.0
C3312 C 0.34819 0.6366 0.63123 0.0
C3313 C 0.34715 0.64818 0.64586 0.0
C3314 C 0.34919 0.64238 0.61517 0.0
C3315 C 0.36008 0.68216 0.59509 0.0
H3316 H 0.3377 0.65435 0.5534 0.0
C3317 C 0.35782 0.70748 0.5289 0.0
C3318 C 0.36177 0.69618 0.51532 0.0
C3319 C 0.35492 0.7016 0.54457 0.0
C3320 C 0.34412 0.66223 0.56492 0.0
H3321 H 0.34647 0.67506 0.65486 0.0
H3322 H 0.34764 0.68499 0.62694 0.0
H3323 H 0.3349 0.64416 0.58114 0.0
H3324 H 0.36525 0.66991 0.50712 0.0
H3325 H 0.36011 0.65951 0.53443 0.0
H3326 H 0.36921 0.70026 0.57885 0.0
C3327 C 0.34796 0.67144 0.62787 0.0
C3328 C 0.34256 0.65636 0.58086 0.0
C3329 C 0.34702 0.66568 0.64391 0.0
C3330 C 0.36227 0.67882 0.51748 0.0
C3331 C 0.35923 0.6729 0.53306 0.0
C3332 C 0.36153 0.68807 0.57918 0.0
C3333 C 0.34915 0.65991 0.61325 0.0
C3334 C 0.35058 0.66621 0.59619 0.0
C3335 C 0.35575 0.68426 0.54691 0.0
C3336 C 0.35363 0.67816 0.56387 0.0
H3337 H 0.34812 0.62301 0.63213 0.0
H3338 H 0.35027 0.6331 0.6043 0.0
H3339 H 0.36673 0.68999 0.60652 0.0
H3340 H 0.35744 0.72093 0.52751 0.0
H3341 H 0.35208 0.71066 0.55488 0.0
C3342 C 0.01067 0.70842 0.23646 0.0
C3343 C 0.99539 0.71389 0.22937 0.0
C3344 C 0.01289 0.7056 0.25369 0.0
C3345 C 0.99111 0.71373 0.29609 0.0
H3346 H 0.0046 0.67057 0.33109 0.0
C3347 C 0.98545 0.71185 0.37416 0.0
C3348 C 0.98318 0.6961 0.38094 0.0
C3349 C 0.98684 0.71215 0.35662 0.0
C3350 C 1.00152 0.68042 0.32307 0.0
H3351 H 0.97041 0.7205 0.23463 0.0
H3352 H 0.97407 0.7153 0.26435 0.0
H3353 H 0.01659 0.6786 0.27607 0.0
H3354 H 0.97934 0.66844 0.37427 0.0
H3355 H 0.97938 0.66899 0.34391 0.0
H3356 H 0.97962 0.72023 0.32109 0.0
C3357 C 0.98466 0.71377 0.25696 0.0
C3358 C 0.01012 0.68621 0.28512 0.0
C3359 C 0.98243 0.71654 0.23981 0.0
C3360 C 0.98072 0.68081 0.3696 0.0
C3361 C 0.9812 0.68114 0.35214 0.0
C3362 C 0.98684 0.71059 0.31561 0.0
C3363 C 0.99988 0.70823 0.2641 0.0
C3364 C 1.00121 0.70341 0.2817 0.0
C3365 C 0.9854 0.69669 0.3456 0.0
C3366 C 0.99094 0.69605 0.32828 0.0
H3367 H 0.02098 0.70654 0.22876 0.0
H3368 H 0.02477 0.70136 0.25882 0.0
H3369 H 0.98604 0.72499 0.29201 0.0
H3370 H 0.98689 0.72387 0.3825 0.0
H3371 H 0.99002 0.72436 0.35196 0.0
C3372 C 0.68802 0.21712 0.84629 0.0
C3373 C 0.68362 0.22561 0.832 0.0
C3374 C 0.69097 0.22614 0.86288 0.0
C3375 C 0.68148 0.26474 0.88895 0.0
H3376 H 0.72297 0.25983 0.91817 0.0
C3377 C 0.69809 0.30403 0.95619 0.0
C3378 C 0.70116 0.29493 0.97208 0.0
C3379 C 0.69742 0.29697 0.93893 0.0
C3380 C 0.71117 0.26122 0.91038 0.0
H3381 H 0.67821 0.25005 0.824 0.0
H3382 H 0.68312 0.26571 0.85291 0.0
H3383 H 0.71686 0.24365 0.88968 0.0
H3384 H 0.71913 0.27332 0.97238 0.0
H3385 H 0.71638 0.26211 0.94526 0.0
H3386 H 0.67543 0.28186 0.90973 0.0
C3387 C 0.68446 0.25213 0.85129 0.0
C3388 C 0.70772 0.25194 0.89396 0.0
C3389 C 0.68177 0.24319 0.83473 0.0
C3390 C 0.71153 0.28118 0.96493 0.0
C3391 C 0.71073 0.27388 0.94784 0.0
C3392 C 0.68479 0.27384 0.90547 0.0
C3393 C 0.68928 0.24378 0.86555 0.0
C3394 C 0.69282 0.25354 0.88307 0.0
C3395 C 0.70249 0.28103 0.93459 0.0
C3396 C 0.69965 0.27217 0.91651 0.0
H3397 H 0.68958 0.2036 0.84461 0.0
H3398 H 0.69451 0.21932 0.87364 0.0
H3399 H 0.66983 0.26618 0.88088 0.0
H3400 H 0.69394 0.31659 0.95596 0.0
H3401 H 0.69284 0.30427 0.92889 0.0
C3402 C 0.99856 0.33836 0.2847 0.0
C3403 C 1.00111 0.35633 0.28855 0.0
C3404 C 1.00134 0.33055 0.2687 0.0
C3405 C 0.02246 0.33855 0.23011 0.0
H3406 H 0.99137 0.29824 0.20942 0.0
C3407 C 0.01592 0.30786 0.15882 0.0
C3408 C 0.01509 0.28989 0.15625 0.0
C3409 C 0.01638 0.31644 0.17533 0.0
C3410 C 1.00025 0.30939 0.21515 0.0
H3411 H 0.00894 0.38018 0.27865 0.0
H3412 H 0.01312 0.36659 0.2505 0.0
H3413 H 0.98713 0.31251 0.23725 0.0
H3414 H 0.01504 0.26684 0.16867 0.0
H3415 H 0.01545 0.28179 0.19764 0.0
H3416 H 0.03514 0.33561 0.20749 0.0
C3417 C 0.00924 0.3585 0.25995 0.0
C3418 C 0.99788 0.31754 0.23111 0.0
C3419 C 0.00659 0.36631 0.27603 0.0
C3420 C 0.01554 0.2807 0.17045 0.0
C3421 C 0.01575 0.28922 0.18691 0.0
C3422 C 0.02469 0.33049 0.21398 0.0
C3423 C 0.0066 0.34052 0.25608 0.0
C3424 C 0.00904 0.33213 0.23889 0.0
C3425 C 0.01577 0.30711 0.18943 0.0
C3426 C 0.01368 0.31575 0.20647 0.0
H3427 H 0.99419 0.33029 0.29397 0.0
H3428 H 0.99943 0.31666 0.26626 0.0
H3429 H 0.03141 0.34965 0.2358 0.0
H3430 H 0.01533 0.31513 0.14798 0.0
H3431 H 0.01627 0.33024 0.17697 0.0
loop_
_geom_bond_atom_site_label_1
_geom_bond_atom_site_label_2
_geom_bond_distance
_geom_bond_site_symmetry_2
_ccdc_geom_bond_type
C0 C1 1.264 . S
C0 C5 1.479 . S
C0 C10 1.465 . S
C1 C0 1.264 . S
C1 C3 1.339 . S
C1 H28 0.931 . S
C2 C3 1.395 . S
C2 C4 1.320 . S
C3 C1 1.339 . S
C3 C2 1.395 . S
C3 H29 0.929 . S
C4 C2 1.320 . S
C4 C5 1.405 . S
C4 H30 0.930 . S
C5 C0 1.479 . S
C5 C4 1.405 . S
C5 H31 0.931 . S
U6 O7 2.454 . S
U6 O8 2.458 . S
U6 C9 2.984 . S
U6 C10 2.847 . S
U6 C23 2.882 . S
U6 O24 2.441 . S
U6 O25 2.420 . S
U6 O26 2.455 . S
U6 O27 2.449 . S
O7 U6 2.454 . S
O7 C9 1.353 . S
O8 U6 2.458 . S
O8 C9 1.286 . S
C9 U6 2.984 . S
C9 O7 1.353 . S
C9 O8 1.286 . S
C9 C11 1.363 . S
C10 C0 1.465 . S
C10 U6 2.847 . S
C10 O24 1.249 . S
C10 O25 1.202 . S
C11 C9 1.363 . S
C11 C13 1.408 . S
C11 C16 1.342 . S
C12 C13 1.310 . S
C12 C15 1.461 . S
C12 H32 0.932 . S
C13 C11 1.408 . S
C13 C12 1.310 . S
C13 H33 0.930 . S
C14 C15 1.474 . S
C14 C16 1.285 . S
C14 H34 0.929 . S
C15 C12 1.461 . S
C15 C14 1.474 . S
C16 C11 1.342 . S
C16 C14 1.285 . S
C16 H35 0.930 . S
C17 C20 1.424 . S
C17 C22 1.245 . S
C17 C23 1.428 . S
C18 C21 1.260 . S
C18 C22 1.477 . S
C18 H36 0.932 . S
C19 C20 1.384 . S
C19 C21 1.479 . S
C19 H37 0.929 . S
C20 C17 1.424 . S
C20 C19 1.384 . S
C20 H38 0.928 . S
C21 C18 1.260 . S
C21 C19 1.479 . S
C22 C17 1.245 . S
C22 C18 1.477 . S
C22 H39 0.932 . S
C23 U6 2.882 . S
C23 C17 1.428 . S
C23 O26 1.301 . S
C23 O27 1.282 . S
O24 U6 2.441 . S
O24 C10 1.249 . S
O25 U6 2.420 . S
O25 C10 1.202 . S
O26 U6 2.455 . S
O26 C23 1.301 . S
O27 U6 2.449 . S
O27 C23 1.282 . S
H28 C1 0.931 . S
H29 C3 0.929 . S
H30 C4 0.930 . S
H31 C5 0.931 . S
H32 C12 0.932 . S
H33 C13 0.930 . S
H34 C14 0.929 . S
H35 C16 0.930 . S
H36 C18 0.932 . S
H37 C19 0.929 . S
H38 C20 0.928 . S
H39 C22 0.932 . S
C40 C41 1.264 . S
C40 C45 1.479 . S
C40 C50 1.465 . S
C41 C40 1.264 . S
C41 C43 1.339 . S
C41 H68 0.931 . S
C42 C43 1.395 . S
C42 C44 1.320 . S
C43 C41 1.339 . S
C43 C42 1.395 . S
C43 H69 0.929 . S
C44 C42 1.320 . S
C44 C45 1.405 . S
C44 H70 0.930 . S
C45 C40 1.479 . S
C45 C44 1.405 . S
C45 H71 0.931 . S
U46 O47 2.454 . S
U46 O48 2.458 . S
U46 C49 2.984 . S
U46 C50 2.847 . S
U46 C63 2.882 . S
U46 O64 2.441 . S
U46 O65 2.420 . S
U46 O66 2.455 . S
U46 O67 2.449 . S
O47 U46 2.454 . S
O47 C49 1.353 . S
O48 U46 2.458 . S
O48 C49 1.286 . S
C49 U46 2.984 . S
C49 O47 1.353 . S
C49 O48 1.286 . S
C49 C51 1.363 . S
C50 C40 1.465 . S
C50 U46 2.847 . S
C50 O64 1.249 . S
C50 O65 1.202 . S
C51 C49 1.363 . S
C51 C53 1.408 . S
C51 C56 1.342 . S
C52 C53 1.310 . S
C52 C55 1.461 . S
C52 H72 0.932 . S
C53 C51 1.408 . S
C53 C52 1.310 . S
C53 H73 0.930 . S
C54 C55 1.474 . S
C54 C56 1.285 . S
C54 H74 0.929 . S
C55 C52 1.461 . S
C55 C54 1.474 . S
C56 C51 1.342 . S
C56 C54 1.285 . S
C56 H75 0.930 . S
C57 C60 1.424 . S
C57 C62 1.245 . S
C57 C63 1.428 . S
C58 C61 1.260 . S
C58 C62 1.477 . S
C58 H76 0.932 . S
C59 C60 1.384 . S
C59 C61 1.479 . S
C59 H77 0.929 . S
C60 C57 1.424 . S
C60 C59 1.384 . S
C60 H78 0.928 . S
C61 C58 1.260 . S
C61 C59 1.479 . S
C62 C57 1.245 . S
C62 C58 1.477 . S
C62 H79 0.932 . S
C63 U46 2.882 . S
C63 C57 1.428 . S
C63 O66 1.301 . S
C63 O67 1.282 . S
O64 U46 2.441 . S
O64 C50 1.249 . S
O65 U46 2.420 . S
O65 C50 1.202 . S
O66 U46 2.455 . S
O66 C63 1.301 . S
O67 U46 2.449 . S
O67 C63 1.282 . S
H68 C41 0.931 . S
H69 C43 0.929 . S
H70 C44 0.930 . S
H71 C45 0.931 . S
H72 C52 0.932 . S
H73 C53 0.930 . S
H74 C54 0.929 . S
H75 C56 0.930 . S
H76 C58 0.932 . S
H77 C59 0.929 . S
H78 C60 0.928 . S
H79 C62 0.932 . S
C80 C81 1.264 . S
C80 C85 1.479 . S
C80 C90 1.465 . S
C81 C80 1.264 . S
C81 C83 1.339 . S
C81 H108 0.931 . S
C82 C83 1.395 . S
C82 C84 1.320 . S
C83 C81 1.339 . S
C83 C82 1.395 . S
C83 H109 0.929 . S
C84 C82 1.320 . S
C84 C85 1.405 . S
C84 H110 0.926 1_565 S
C85 C80 1.479 . S
C85 C84 1.405 . S
C85 H111 0.931 . S
U86 O87 2.454 . S
U86 O88 2.458 . S
U86 C89 2.984 . S
U86 C90 2.847 . S
U86 C103 2.882 . S
U86 O104 2.441 . S
U86 O105 2.420 . S
U86 O106 2.455 . S
U86 O107 2.449 . S
O87 U86 2.454 . S
O87 C89 1.353 . S
O88 U86 2.458 . S
O88 C89 1.286 . S
C89 U86 2.984 . S
C89 O87 1.353 . S
C89 O88 1.286 . S
C89 C91 1.363 . S
C90 C80 1.465 . S
C90 U86 2.847 . S
C90 O104 1.249 . S
C90 O105 1.202 . S
C91 C89 1.363 . S
C91 C93 1.408 . S
C91 C96 1.342 . S
C92 C93 1.310 . S
C92 C95 1.461 . S
C92 H112 0.930 . S
C93 C91 1.408 . S
C93 C92 1.310 . S
C93 H113 0.930 . S
C94 C95 1.473 1_545 S
C94 C96 1.284 1_545 S
C94 H114 0.932 . S
C95 C92 1.461 . S
C95 C94 1.473 1_565 S
C96 C91 1.342 . S
C96 C94 1.284 1_565 S
C96 H115 0.935 . S
C97 C100 1.424 . S
C97 C102 1.245 . S
C97 C103 1.428 . S
C98 C101 1.260 . S
C98 C102 1.477 . S
C98 H116 0.932 . S
C99 C100 1.384 . S
C99 C101 1.479 . S
C99 H117 0.929 . S
C100 C97 1.424 . S
C100 C99 1.384 . S
C100 H118 0.928 . S
C101 C98 1.260 . S
C101 C99 1.479 . S
C102 C97 1.245 . S
C102 C98 1.477 . S
C102 H119 0.932 . S
C103 U86 2.882 . S
C103 C97 1.428 . S
C103 O106 1.301 . S
C103 O107 1.282 . S
O104 U86 2.441 . S
O104 C90 1.249 . S
O105 U86 2.420 . S
O105 C90 1.202 . S
O106 U86 2.455 . S
O106 C103 1.301 . S
O107 U86 2.449 . S
O107 C103 1.282 . S
H108 C81 0.931 . S
H109 C83 0.929 . S
H110 C84 0.926 1_545 S
H111 C85 0.931 . S
H112 C92 0.930 . S
H113 C93 0.930 . S
H114 C94 0.932 . S
H115 C96 0.935 . S
H116 C98 0.932 . S
H117 C99 0.929 . S
H118 C100 0.928 . S
H119 C102 0.932 . S
C120 C121 1.264 . S
C120 C125 1.479 . S
C120 C130 1.465 . S
C121 C120 1.264 . S
C121 C123 1.339 . S
C121 H148 0.931 . S
C122 C123 1.395 . S
C122 C124 1.320 . S
C123 C121 1.339 . S
C123 C122 1.395 . S
C123 H149 0.929 . S
C124 C122 1.320 . S
C124 C125 1.405 . S
C124 H150 0.930 . S
C125 C120 1.479 . S
C125 C124 1.405 . S
C125 H151 0.931 . S
U126 O127 2.454 . S
U126 O128 2.458 . S
U126 C129 2.984 . S
U126 C130 2.847 . S
U126 C143 2.882 1_545 S
U126 O144 2.441 . S
U126 O145 2.420 . S
U126 O146 2.455 . S
U126 O147 2.449 . S
O127 U126 2.454 . S
O127 C129 1.353 . S
O128 U126 2.458 . S
O128 C129 1.286 . S
C129 U126 2.984 . S
C129 O127 1.353 . S
C129 O128 1.286 . S
C129 C131 1.363 . S
C130 C120 1.465 . S
C130 U126 2.847 . S
C130 O144 1.249 . S
C130 O145 1.202 . S
C131 C129 1.363 . S
C131 C133 1.408 . S
C131 C136 1.342 . S
C132 C133 1.310 . S
C132 C135 1.461 . S
C132 H152 0.932 . S
C133 C131 1.408 . S
C133 C132 1.310 . S
C133 H153 0.930 . S
C134 C135 1.474 . S
C134 C136 1.285 . S
C134 H154 0.929 . S
C135 C132 1.461 . S
C135 C134 1.474 . S
C136 C131 1.342 . S
C136 C134 1.285 . S
C136 H155 0.930 . S
C137 C140 1.424 . S
C137 C142 1.245 . S
C137 C143 1.428 . S
C138 C141 1.260 . S
C138 C142 1.477 . S
C138 H156 0.932 . S
C139 C140 1.384 . S
C139 C141 1.479 . S
C139 H157 0.929 . S
C140 C137 1.424 . S
C140 C139 1.384 . S
C140 H158 0.928 . S
C141 C138 1.260 . S
C141 C139 1.479 . S
C142 C137 1.245 . S
C142 C138 1.477 . S
C142 H159 0.932 . S
C143 U126 2.882 1_565 S
C143 C137 1.428 . S
C143 O146 1.301 1_565 S
C143 O147 1.282 1_565 S
O144 U126 2.441 . S
O144 C130 1.249 . S
O145 U126 2.420 . S
O145 C130 1.202 . S
O146 U126 2.455 . S
O146 C143 1.301 1_545 S
O147 U126 2.449 . S
O147 C143 1.282 1_545 S
H148 C121 0.931 . S
H149 C123 0.929 . S
H150 C124 0.930 . S
H151 C125 0.931 . S
H152 C132 0.932 . S
H153 C133 0.930 . S
H154 C134 0.929 . S
H155 C136 0.930 . S
H156 C138 0.932 . S
H157 C139 0.929 . S
H158 C140 0.928 . S
H159 C142 0.932 . S
C160 C161 1.264 . S
C160 C165 1.479 . S
C160 C170 1.465 . S
C161 C160 1.264 . S
C161 C163 1.339 . S
C161 H188 0.931 . S
C162 C163 1.395 . S
C162 C164 1.320 . S
C163 C161 1.339 . S
C163 C162 1.395 . S
C163 H189 0.929 . S
C164 C162 1.320 . S
C164 C165 1.405 . S
C164 H190 0.930 . S
C165 C160 1.479 . S
C165 C164 1.405 . S
C165 H191 0.931 . S
U166 O167 2.454 . S
U166 O168 2.458 . S
U166 C169 2.984 . S
U166 C170 2.847 . S
U166 C183 2.882 . S
U166 O184 2.441 . S
U166 O185 2.420 . S
U166 O186 2.455 . S
U166 O187 2.449 . S
O167 U166 2.454 . S
O167 C169 1.353 . S
O168 U166 2.458 . S
O168 C169 1.286 . S
C169 U166 2.984 . S
C169 O167 1.353 . S
C169 O168 1.286 . S
C169 C171 1.363 . S
C170 C160 1.465 . S
C170 U166 2.847 . S
C170 O184 1.249 . S
C170 O185 1.202 . S
C171 C169 1.363 . S
C171 C173 1.408 . S
C171 C176 1.342 . S
C172 C173 1.310 . S
C172 C175 1.461 . S
C172 H192 0.932 . S
C173 C171 1.408 . S
C173 C172 1.310 . S
C173 H193 0.930 . S
C174 C175 1.474 . S
C174 C176 1.285 . S
C174 H194 0.929 . S
C175 C172 1.461 . S
C175 C174 1.474 . S
C176 C171 1.342 . S
C176 C174 1.285 . S
C176 H195 0.930 . S
C177 C180 1.424 . S
C177 C182 1.245 . S
C177 C183 1.428 . S
C178 C181 1.260 . S
C178 C182 1.477 . S
C178 H196 0.932 . S
C179 C180 1.384 . S
C179 C181 1.479 . S
C179 H197 0.929 . S
C180 C177 1.424 . S
C180 C179 1.384 . S
C180 H198 0.928 . S
C181 C178 1.260 . S
C181 C179 1.479 . S
C182 C177 1.245 . S
C182 C178 1.477 . S
C182 H199 0.932 . S
C183 U166 2.882 . S
C183 C177 1.428 . S
C183 O186 1.301 . S
C183 O187 1.282 . S
O184 U166 2.441 . S
O184 C170 1.249 . S
O185 U166 2.420 . S
O185 C170 1.202 . S
O186 U166 2.455 . S
O186 C183 1.301 . S
O187 U166 2.449 . S
O187 C183 1.282 . S
H188 C161 0.931 . S
H189 C163 0.929 . S
H190 C164 0.930 . S
H191 C165 0.931 . S
H192 C172 0.932 . S
H193 C173 0.930 . S
H194 C174 0.929 . S
H195 C176 0.930 . S
H196 C178 0.932 . S
H197 C179 0.929 . S
H198 C180 0.928 . S
H199 C182 0.932 . S
C200 C201 1.264 . S
C200 C205 1.479 . S
C200 C210 1.465 . S
C201 C200 1.264 . S
C201 C203 1.339 . S
C201 H228 0.931 . S
C202 C203 1.395 . S
C202 C204 1.320 . S
C203 C201 1.339 . S
C203 C202 1.395 . S
C203 H229 0.929 . S
C204 C202 1.320 . S
C204 C205 1.405 . S
C204 H230 0.930 . S
C205 C200 1.479 . S
C205 C204 1.405 . S
C205 H231 0.931 . S
U206 O207 2.454 . S
U206 O208 2.458 . S
U206 C209 2.984 . S
U206 C210 2.847 . S
U206 C223 2.882 1_554 S
U206 O224 2.441 . S
U206 O225 2.420 . S
U206 O226 2.455 . S
U206 O227 2.449 . S
O207 U206 2.454 . S
O207 C209 1.353 . S
O208 U206 2.458 . S
O208 C209 1.286 . S
C209 U206 2.984 . S
C209 O207 1.353 . S
C209 O208 1.286 . S
C209 C211 1.363 . S
C210 C200 1.465 . S
C210 U206 2.847 . S
C210 O224 1.249 . S
C210 O225 1.202 . S
C211 C209 1.363 . S
C211 C213 1.408 . S
C211 C216 1.342 . S
C212 C213 1.310 . S
C212 C215 1.461 . S
C212 H232 0.932 . S
C213 C211 1.408 . S
C213 C212 1.310 . S
C213 H233 0.930 . S
C214 C215 1.474 . S
C214 C216 1.285 . S
C214 H234 0.929 . S
C215 C212 1.461 . S
C215 C214 1.474 . S
C216 C211 1.342 . S
C216 C214 1.285 . S
C216 H235 0.930 . S
C217 C220 1.424 . S
C217 C222 1.245 . S
C217 C223 1.428 . S
C218 C221 1.260 . S
C218 C222 1.477 . S
C218 H236 0.932 . S
C219 C220 1.384 . S
C219 C221 1.479 . S
C219 H237 0.929 . S
C220 C217 1.424 . S
C220 C219 1.384 . S
C220 H238 0.928 . S
C221 C218 1.260 . S
C221 C219 1.479 . S
C222 C217 1.245 . S
C222 C218 1.477 . S
C222 H239 0.932 . S
C223 U206 2.882 1_556 S
C223 C217 1.428 . S
C223 O226 1.301 1_556 S
C223 O227 1.282 1_556 S
O224 U206 2.441 . S
O224 C210 1.249 . S
O225 U206 2.420 . S
O225 C210 1.202 . S
O226 U206 2.455 . S
O226 C223 1.301 1_554 S
O227 U206 2.449 . S
O227 C223 1.282 1_554 S
H228 C201 0.931 . S
H229 C203 0.929 . S
H230 C204 0.930 . S
H231 C205 0.931 . S
H232 C212 0.932 . S
H233 C213 0.930 . S
H234 C214 0.929 . S
H235 C216 0.930 . S
H236 C218 0.932 . S
H237 C219 0.929 . S
H238 C220 0.928 . S
H239 C222 0.932 . S
C240 C241 1.264 . S
C240 C245 1.479 . S
C240 C250 1.465 . S
C241 C240 1.264 . S
C241 C243 1.339 . S
C241 H268 0.931 . S
C242 C243 1.395 . S
C242 C244 1.320 . S
C243 C241 1.339 . S
C243 C242 1.395 . S
C243 H269 0.929 . S
C244 C242 1.320 . S
C244 C245 1.405 . S
C244 H270 0.930 . S
C245 C240 1.479 . S
C245 C244 1.405 . S
C245 H271 0.931 . S
U246 O247 2.454 . S
U246 O248 2.458 . S
U246 C249 2.984 . S
U246 C250 2.847 . S
U246 C263 2.882 . S
U246 O264 2.441 . S
U246 O265 2.420 . S
U246 O266 2.455 . S
U246 O267 2.449 . S
O247 U246 2.454 . S
O247 C249 1.353 . S
O248 U246 2.458 . S
O248 C249 1.286 . S
C249 U246 2.984 . S
C249 O247 1.353 . S
C249 O248 1.286 . S
C249 C251 1.363 . S
C250 C240 1.465 . S
C250 U246 2.847 . S
C250 O264 1.249 . S
C250 O265 1.202 . S
C251 C249 1.363 . S
C251 C253 1.408 . S
C251 C256 1.342 . S
C252 C253 1.310 . S
C252 C255 1.461 . S
C252 H272 0.932 . S
C253 C251 1.408 . S
C253 C252 1.310 . S
C253 H273 0.930 . S
C254 C255 1.474 . S
C254 C256 1.285 . S
C254 H274 0.929 . S
C255 C252 1.461 . S
C255 C254 1.474 . S
C256 C251 1.342 . S
C256 C254 1.285 . S
C256 H275 0.930 . S
C257 C260 1.424 . S
C257 C262 1.245 . S
C257 C263 1.428 . S
C258 C261 1.260 . S
C258 C262 1.477 . S
C258 H276 0.932 . S
C259 C260 1.384 . S
C259 C261 1.479 . S
C259 H277 0.929 . S
C260 C257 1.424 . S
C260 C259 1.384 . S
C260 H278 0.928 . S
C261 C258 1.260 . S
C261 C259 1.479 . S
C262 C257 1.245 . S
C262 C258 1.477 . S
C262 H279 0.932 . S
C263 U246 2.882 . S
C263 C257 1.428 . S
C263 O266 1.301 . S
C263 O267 1.282 . S
O264 U246 2.441 . S
O264 C250 1.249 . S
O265 U246 2.420 . S
O265 C250 1.202 . S
O266 U246 2.455 . S
O266 C263 1.301 . S
O267 U246 2.449 . S
O267 C263 1.282 . S
H268 C241 0.931 . S
H269 C243 0.929 . S
H270 C244 0.930 . S
H271 C245 0.931 . S
H272 C252 0.932 . S
H273 C253 0.930 . S
H274 C254 0.929 . S
H275 C256 0.930 . S
H276 C258 0.932 . S
H277 C259 0.929 . S
H278 C260 0.928 . S
H279 C262 0.932 . S
C280 C281 1.264 . S
C280 C285 1.479 . S
C280 C290 1.465 . S
C281 C280 1.264 . S
C281 C283 1.339 . S
C281 H308 0.931 . S
C282 C283 1.395 . S
C282 C284 1.320 . S
C283 C281 1.339 . S
C283 C282 1.395 . S
C283 H309 0.929 . S
C284 C282 1.320 . S
C284 C285 1.405 . S
C284 H310 0.926 1_556 S
C285 C280 1.479 . S
C285 C284 1.405 . S
C285 H311 0.931 . S
U286 O287 2.454 . S
U286 O288 2.458 . S
U286 C289 2.984 . S
U286 C290 2.847 . S
U286 C303 2.882 . S
U286 O304 2.441 . S
U286 O305 2.420 . S
U286 O306 2.455 . S
U286 O307 2.449 . S
O287 U286 2.454 . S
O287 C289 1.353 . S
O288 U286 2.458 . S
O288 C289 1.286 . S
C289 U286 2.984 . S
C289 O287 1.353 . S
C289 O288 1.286 . S
C289 C291 1.363 . S
C290 C280 1.465 . S
C290 U286 2.847 . S
C290 O304 1.249 . S
C290 O305 1.202 . S
C291 C289 1.363 . S
C291 C293 1.408 . S
C291 C296 1.342 . S
C292 C293 1.310 . S
C292 C295 1.461 . S
C292 H312 0.930 . S
C293 C291 1.408 . S
C293 C292 1.310 . S
C293 H313 0.930 . S
C294 C295 1.473 1_554 S
C294 C296 1.284 1_554 S
C294 H314 0.932 . S
C295 C292 1.461 . S
C295 C294 1.473 1_556 S
C296 C291 1.342 . S
C296 C294 1.284 1_556 S
C296 H315 0.935 . S
C297 C300 1.424 . S
C297 C302 1.245 . S
C297 C303 1.428 . S
C298 C301 1.260 . S
C298 C302 1.477 . S
C298 H316 0.932 . S
C299 C300 1.384 . S
C299 C301 1.479 . S
C299 H317 0.929 . S
C300 C297 1.424 . S
C300 C299 1.384 . S
C300 H318 0.928 . S
C301 C298 1.260 . S
C301 C299 1.479 . S
C302 C297 1.245 . S
C302 C298 1.477 . S
C302 H319 0.932 . S
C303 U286 2.882 . S
C303 C297 1.428 . S
C303 O306 1.301 . S
C303 O307 1.282 . S
O304 U286 2.441 . S
O304 C290 1.249 . S
O305 U286 2.420 . S
O305 C290 1.202 . S
O306 U286 2.455 . S
O306 C303 1.301 . S
O307 U286 2.449 . S
O307 C303 1.282 . S
H308 C281 0.931 . S
H309 C283 0.929 . S
H310 C284 0.926 1_554 S
H311 C285 0.931 . S
H312 C292 0.930 . S
H313 C293 0.930 . S
H314 C294 0.932 . S
H315 C296 0.935 . S
H316 C298 0.932 . S
H317 C299 0.929 . S
H318 C300 0.928 . S
H319 C302 0.932 . S
C320 C321 1.264 . S
C320 C325 1.479 . S
C320 C330 1.465 . S
C321 C320 1.264 . S
C321 C323 1.339 . S
C321 H348 0.931 . S
C322 C323 1.395 . S
C322 C324 1.320 . S
C323 C321 1.339 . S
C323 C322 1.395 . S
C323 H349 0.929 . S
C324 C322 1.320 . S
C324 C325 1.405 . S
C324 H350 0.930 . S
C325 C320 1.479 . S
C325 C324 1.405 . S
C325 H351 0.931 . S
U326 O327 2.454 . S
U326 O328 2.458 . S
U326 C329 2.984 . S
U326 C330 2.847 . S
U326 C343 2.882 . S
U326 O344 2.441 . S
U326 O345 2.420 . S
U326 O346 2.455 . S
U326 O347 2.449 . S
O327 U326 2.454 . S
O327 C329 1.353 . S
O328 U326 2.458 . S
O328 C329 1.286 . S
C329 U326 2.984 . S
C329 O327 1.353 . S
C329 O328 1.286 . S
C329 C331 1.363 . S
C330 C320 1.465 . S
C330 U326 2.847 . S
C330 O344 1.249 . S
C330 O345 1.202 . S
C331 C329 1.363 . S
C331 C333 1.408 . S
C331 C336 1.342 . S
C332 C333 1.310 . S
C332 C335 1.461 . S
C332 H352 0.932 . S
C333 C331 1.408 . S
C333 C332 1.310 . S
C333 H353 0.930 . S
C334 C335 1.474 . S
C334 C336 1.285 . S
C334 H354 0.929 . S
C335 C332 1.461 . S
C335 C334 1.474 . S
C336 C331 1.342 . S
C336 C334 1.285 . S
C336 H355 0.930 . S
C337 C340 1.424 . S
C337 C342 1.245 . S
C337 C343 1.428 . S
C338 C341 1.260 . S
C338 C342 1.477 . S
C338 H356 0.932 . S
C339 C340 1.384 . S
C339 C341 1.479 . S
C339 H357 0.929 . S
C340 C337 1.424 . S
C340 C339 1.384 . S
C340 H358 0.928 . S
C341 C338 1.260 . S
C341 C339 1.479 . S
C342 C337 1.245 . S
C342 C338 1.477 . S
C342 H359 0.932 . S
C343 U326 2.882 . S
C343 C337 1.428 . S
C343 O346 1.301 . S
C343 O347 1.282 . S
O344 U326 2.441 . S
O344 C330 1.249 . S
O345 U326 2.420 . S
O345 C330 1.202 . S
O346 U326 2.455 . S
O346 C343 1.301 . S
O347 U326 2.449 . S
O347 C343 1.282 . S
H348 C321 0.931 . S
H349 C323 0.929 . S
H350 C324 0.930 . S
H351 C325 0.931 . S
H352 C332 0.932 . S
H353 C333 0.930 . S
H354 C334 0.929 . S
H355 C336 0.930 . S
H356 C338 0.932 . S
H357 C339 0.929 . S
H358 C340 0.928 . S
H359 C342 0.932 . S
C360 C361 1.264 . S
C360 C365 1.479 . S
C360 C370 1.465 . S
C361 C360 1.264 . S
C361 C363 1.339 . S
C361 H388 0.931 . S
C362 C363 1.395 . S
C362 C364 1.320 . S
C363 C361 1.339 . S
C363 C362 1.395 . S
C363 H389 0.929 . S
C364 C362 1.320 . S
C364 C365 1.405 . S
C364 H390 0.930 . S
C365 C360 1.479 . S
C365 C364 1.405 . S
C365 H391 0.931 . S
U366 O367 2.454 . S
U366 O368 2.458 . S
U366 C369 2.984 . S
U366 C370 2.847 . S
U366 C383 2.882 1_455 S
U366 O384 2.441 . S
U366 O385 2.420 . S
U366 O386 2.455 . S
U366 O387 2.449 . S
O367 U366 2.454 . S
O367 C369 1.353 . S
O368 U366 2.458 . S
O368 C369 1.286 . S
C369 U366 2.984 . S
C369 O367 1.353 . S
C369 O368 1.286 . S
C369 C371 1.363 . S
C370 C360 1.465 . S
C370 U366 2.847 . S
C370 O384 1.249 . S
C370 O385 1.202 . S
C371 C369 1.363 . S
C371 C373 1.408 . S
C371 C376 1.342 . S
C372 C373 1.310 . S
C372 C375 1.461 . S
C372 H392 0.932 . S
C373 C371 1.408 . S
C373 C372 1.310 . S
C373 H393 0.930 . S
C374 C375 1.474 . S
C374 C376 1.285 . S
C374 H394 0.929 . S
C375 C372 1.461 . S
C375 C374 1.474 . S
C376 C371 1.342 . S
C376 C374 1.285 . S
C376 H395 0.930 . S
C377 C380 1.424 . S
C377 C382 1.245 . S
C377 C383 1.428 . S
C378 C381 1.260 . S
C378 C382 1.477 . S
C378 H396 0.932 . S
C379 C380 1.384 . S
C379 C381 1.479 . S
C379 H397 0.929 . S
C380 C377 1.424 . S
C380 C379 1.384 . S
C380 H398 0.928 . S
C381 C378 1.260 . S
C381 C379 1.479 . S
C382 C377 1.245 . S
C382 C378 1.477 . S
C382 H399 0.932 . S
C383 U366 2.882 1_655 S
C383 C377 1.428 . S
C383 O386 1.301 1_655 S
C383 O387 1.282 1_655 S
O384 U366 2.441 . S
O384 C370 1.249 . S
O385 U366 2.420 . S
O385 C370 1.202 . S
O386 U366 2.455 . S
O386 C383 1.301 1_455 S
O387 U366 2.449 . S
O387 C383 1.282 1_455 S
H388 C361 0.931 . S
H389 C363 0.929 . S
H390 C364 0.930 . S
H391 C365 0.931 . S
H392 C372 0.932 . S
H393 C373 0.930 . S
H394 C374 0.929 . S
H395 C376 0.930 . S
H396 C378 0.932 . S
H397 C379 0.929 . S
H398 C380 0.928 . S
H399 C382 0.932 . S
C400 C401 1.264 . S
C400 C405 1.479 . S
C400 C410 1.465 . S
C401 C400 1.264 . S
C401 C403 1.339 . S
C401 H428 0.931 . S
C402 C403 1.395 . S
C402 C404 1.320 . S
C403 C401 1.339 . S
C403 C402 1.395 . S
C403 H429 0.929 . S
C404 C402 1.320 . S
C404 C405 1.405 . S
C404 H430 0.930 . S
C405 C400 1.479 . S
C405 C404 1.405 . S
C405 H431 0.931 . S
U406 O407 2.454 . S
U406 O408 2.458 . S
U406 C409 2.984 . S
U406 C410 2.847 . S
U406 C423 2.882 . S
U406 O424 2.441 . S
U406 O425 2.420 . S
U406 O426 2.455 . S
U406 O427 2.449 . S
O407 U406 2.454 . S
O407 C409 1.353 . S
O408 U406 2.458 . S
O408 C409 1.286 . S
C409 U406 2.984 . S
C409 O407 1.353 . S
C409 O408 1.286 . S
C409 C411 1.363 . S
C410 C400 1.465 . S
C410 U406 2.847 . S
C410 O424 1.249 . S
C410 O425 1.202 . S
C411 C409 1.363 . S
C411 C413 1.408 . S
C411 C416 1.342 . S
C412 C413 1.310 . S
C412 C415 1.461 . S
C412 H432 0.932 . S
C413 C411 1.408 . S
C413 C412 1.310 . S
C413 H433 0.930 . S
C414 C415 1.474 . S
C414 C416 1.285 . S
C414 H434 0.929 . S
C415 C412 1.461 . S
C415 C414 1.474 . S
C416 C411 1.342 . S
C416 C414 1.285 . S
C416 H435 0.930 . S
C417 C420 1.424 . S
C417 C422 1.245 . S
C417 C423 1.428 . S
C418 C421 1.260 . S
C418 C422 1.477 . S
C418 H436 0.932 . S
C419 C420 1.384 . S
C419 C421 1.479 . S
C419 H437 0.929 . S
C420 C417 1.424 . S
C420 C419 1.384 . S
C420 H438 0.928 . S
C421 C418 1.260 . S
C421 C419 1.479 . S
C422 C417 1.245 . S
C422 C418 1.477 . S
C422 H439 0.932 . S
C423 U406 2.882 . S
C423 C417 1.428 . S
C423 O426 1.301 . S
C423 O427 1.282 . S
O424 U406 2.441 . S
O424 C410 1.249 . S
O425 U406 2.420 . S
O425 C410 1.202 . S
O426 U406 2.455 . S
O426 C423 1.301 . S
O427 U406 2.449 . S
O427 C423 1.282 . S
H428 C401 0.931 . S
H429 C403 0.929 . S
H430 C404 0.930 . S
H431 C405 0.931 . S
H432 C412 0.932 . S
H433 C413 0.930 . S
H434 C414 0.929 . S
H435 C416 0.930 . S
H436 C418 0.932 . S
H437 C419 0.929 . S
H438 C420 0.928 . S
H439 C422 0.932 . S
C440 C441 1.264 . S
C440 C445 1.479 . S
C440 C450 1.465 . S
C441 C440 1.264 . S
C441 C443 1.339 . S
C441 H468 0.931 . S
C442 C443 1.395 . S
C442 C444 1.320 . S
C443 C441 1.339 . S
C443 C442 1.395 . S
C443 H469 0.929 . S
C444 C442 1.320 . S
C444 C445 1.405 . S
C444 H470 0.926 1_655 S
C445 C440 1.479 . S
C445 C444 1.405 . S
C445 H471 0.931 . S
U446 O447 2.454 . S
U446 O448 2.458 . S
U446 C449 2.984 . S
U446 C450 2.847 . S
U446 C463 2.882 . S
U446 O464 2.441 . S
U446 O465 2.420 . S
U446 O466 2.455 . S
U446 O467 2.449 . S
O447 U446 2.454 . S
O447 C449 1.353 . S
O448 U446 2.458 . S
O448 C449 1.286 . S
C449 U446 2.984 . S
C449 O447 1.353 . S
C449 O448 1.286 . S
C449 C451 1.363 . S
C450 C440 1.465 . S
C450 U446 2.847 . S
C450 O464 1.249 . S
C450 O465 1.202 . S
C451 C449 1.363 . S
C451 C453 1.408 . S
C451 C456 1.342 . S
C452 C453 1.310 . S
C452 C455 1.461 . S
C452 H472 0.930 . S
C453 C451 1.408 . S
C453 C452 1.310 . S
C453 H473 0.930 . S
C454 C455 1.473 1_455 S
C454 C456 1.284 1_455 S
C454 H474 0.932 . S
C455 C452 1.461 . S
C455 C454 1.473 1_655 S
C456 C451 1.342 . S
C456 C454 1.284 1_655 S
C456 H475 0.935 . S
C457 C460 1.424 . S
C457 C462 1.245 . S
C457 C463 1.428 . S
C458 C461 1.260 . S
C458 C462 1.477 . S
C458 H476 0.932 . S
C459 C460 1.384 . S
C459 C461 1.479 . S
C459 H477 0.929 . S
C460 C457 1.424 . S
C460 C459 1.384 . S
C460 H478 0.928 . S
C461 C458 1.260 . S
C461 C459 1.479 . S
C462 C457 1.245 . S
C462 C458 1.477 . S
C462 H479 0.932 . S
C463 U446 2.882 . S
C463 C457 1.428 . S
C463 O466 1.301 . S
C463 O467 1.282 . S
O464 U446 2.441 . S
O464 C450 1.249 . S
O465 U446 2.420 . S
O465 C450 1.202 . S
O466 U446 2.455 . S
O466 C463 1.301 . S
O467 U446 2.449 . S
O467 C463 1.282 . S
H468 C441 0.931 . S
H469 C443 0.929 . S
H470 C444 0.926 1_455 S
H471 C445 0.931 . S
H472 C452 0.930 . S
H473 C453 0.930 . S
H474 C454 0.932 . S
H475 C456 0.935 . S
H476 C458 0.932 . S
H477 C459 0.929 . S
H478 C460 0.928 . S
H479 C462 0.932 . S
C480 C481 1.264 . S
C480 C485 1.479 . S
C480 C490 1.465 . S
C481 C480 1.264 . S
C481 C483 1.339 . S
C481 H508 0.931 . S
C482 C483 1.395 . S
C482 C484 1.320 . S
C483 C481 1.339 . S
C483 C482 1.395 . S
C483 H509 0.929 . S
C484 C482 1.320 . S
C484 C485 1.405 . S
C484 H510 0.930 . S
C485 C480 1.479 . S
C485 C484 1.405 . S
C485 H511 0.931 . S
U486 O487 2.454 . S
U486 O488 2.458 . S
U486 C489 2.984 . S
U486 C490 2.847 . S
U486 C503 2.882 . S
U486 O504 2.441 . S
U486 O505 2.420 . S
U486 O506 2.455 . S
U486 O507 2.449 . S
O487 U486 2.454 . S
O487 C489 1.353 . S
O488 U486 2.458 . S
O488 C489 1.286 . S
C489 U486 2.984 . S
C489 O487 1.353 . S
C489 O488 1.286 . S
C489 C491 1.363 . S
C490 C480 1.465 . S
C490 U486 2.847 . S
C490 O504 1.249 . S
C490 O505 1.202 . S
C491 C489 1.363 . S
C491 C493 1.408 . S
C491 C496 1.342 . S
C492 C493 1.310 . S
C492 C495 1.461 . S
C492 H512 0.932 . S
C493 C491 1.408 . S
C493 C492 1.310 . S
C493 H513 0.930 . S
C494 C495 1.474 . S
C494 C496 1.285 . S
C494 H514 0.929 . S
C495 C492 1.461 . S
C495 C494 1.474 . S
C496 C491 1.342 . S
C496 C494 1.285 . S
C496 H515 0.930 . S
C497 C500 1.424 . S
C497 C502 1.245 . S
C497 C503 1.428 . S
C498 C501 1.260 . S
C498 C502 1.477 . S
C498 H516 0.932 . S
C499 C500 1.384 . S
C499 C501 1.479 . S
C499 H517 0.929 . S
C500 C497 1.424 . S
C500 C499 1.384 . S
C500 H518 0.928 . S
C501 C498 1.260 . S
C501 C499 1.479 . S
C502 C497 1.245 . S
C502 C498 1.477 . S
C502 H519 0.932 . S
C503 U486 2.882 . S
C503 C497 1.428 . S
C503 O506 1.301 . S
C503 O507 1.282 . S
O504 U486 2.441 . S
O504 C490 1.249 . S
O505 U486 2.420 . S
O505 C490 1.202 . S
O506 U486 2.455 . S
O506 C503 1.301 . S
O507 U486 2.449 . S
O507 C503 1.282 . S
H508 C481 0.931 . S
H509 C483 0.929 . S
H510 C484 0.930 . S
H511 C485 0.931 . S
H512 C492 0.932 . S
H513 C493 0.930 . S
H514 C494 0.929 . S
H515 C496 0.930 . S
H516 C498 0.932 . S
H517 C499 0.929 . S
H518 C500 0.928 . S
H519 C502 0.932 . S
C520 C521 1.264 . S
C520 C525 1.479 . S
C520 C530 1.465 . S
C521 C520 1.264 . S
C521 C523 1.339 . S
C521 H548 0.931 . S
C522 C523 1.395 . S
C522 C524 1.320 . S
C523 C521 1.339 . S
C523 C522 1.395 . S
C523 H549 0.929 . S
C524 C522 1.320 . S
C524 C525 1.405 . S
C524 H550 0.930 . S
C525 C520 1.479 . S
C525 C524 1.405 . S
C525 H551 0.931 . S
U526 O527 2.454 . S
U526 O528 2.458 . S
U526 C529 2.984 . S
U526 C530 2.847 . S
U526 C543 2.882 . S
U526 O544 2.441 . S
U526 O545 2.420 . S
U526 O546 2.455 . S
U526 O547 2.449 . S
O527 U526 2.454 . S
O527 C529 1.353 . S
O528 U526 2.458 . S
O528 C529 1.286 . S
C529 U526 2.984 . S
C529 O527 1.353 . S
C529 O528 1.286 . S
C529 C531 1.363 . S
C530 C520 1.465 . S
C530 U526 2.847 . S
C530 O544 1.249 . S
C530 O545 1.202 . S
C531 C529 1.363 . S
C531 C533 1.408 . S
C531 C536 1.342 . S
C532 C533 1.310 . S
C532 C535 1.461 . S
C532 H552 0.932 . S
C533 C531 1.408 . S
C533 C532 1.310 . S
C533 H553 0.930 . S
C534 C535 1.474 . S
C534 C536 1.285 . S
C534 H554 0.929 . S
C535 C532 1.461 . S
C535 C534 1.474 . S
C536 C531 1.342 . S
C536 C534 1.285 . S
C536 H555 0.930 . S
C537 C540 1.424 . S
C537 C542 1.245 . S
C537 C543 1.428 . S
C538 C541 1.260 . S
C538 C542 1.477 . S
C538 H556 0.932 . S
C539 C540 1.384 . S
C539 C541 1.479 . S
C539 H557 0.929 . S
C540 C537 1.424 . S
C540 C539 1.384 . S
C540 H558 0.928 . S
C541 C538 1.260 . S
C541 C539 1.479 . S
C542 C537 1.245 . S
C542 C538 1.477 . S
C542 H559 0.932 . S
C543 U526 2.882 . S
C543 C537 1.428 . S
C543 O546 1.301 . S
C543 O547 1.282 . S
O544 U526 2.441 . S
O544 C530 1.249 . S
O545 U526 2.420 . S
O545 C530 1.202 . S
O546 U526 2.455 . S
O546 C543 1.301 . S
O547 U526 2.449 . S
O547 C543 1.282 . S
H548 C521 0.931 . S
H549 C523 0.929 . S
H550 C524 0.930 . S
H551 C525 0.931 . S
H552 C532 0.932 . S
H553 C533 0.930 . S
H554 C534 0.929 . S
H555 C536 0.930 . S
H556 C538 0.932 . S
H557 C539 0.929 . S
H558 C540 0.928 . S
H559 C542 0.932 . S
C560 C561 1.264 . S
C560 C565 1.479 . S
C560 C570 1.465 . S
C561 C560 1.264 . S
C561 C563 1.339 . S
C561 H588 0.931 . S
C562 C563 1.395 . S
C562 C564 1.320 . S
C563 C561 1.339 . S
C563 C562 1.395 . S
C563 H589 0.929 . S
C564 C562 1.320 . S
C564 C565 1.405 . S
C564 H590 0.920 1_565 S
C565 C560 1.479 . S
C565 C564 1.405 . S
C565 H591 0.931 . S
U566 O567 2.454 . S
U566 O568 2.458 . S
U566 C569 2.984 . S
U566 C570 2.847 . S
U566 C583 2.882 . S
U566 O584 2.441 . S
U566 O585 2.420 . S
U566 O586 2.455 . S
U566 O587 2.449 . S
O567 U566 2.454 . S
O567 C569 1.353 . S
O568 U566 2.458 . S
O568 C569 1.286 . S
C569 U566 2.984 . S
C569 O567 1.353 . S
C569 O568 1.286 . S
C569 C571 1.363 . S
C570 C560 1.465 . S
C570 U566 2.847 . S
C570 O584 1.249 . S
C570 O585 1.202 . S
C571 C569 1.363 . S
C571 C573 1.408 . S
C571 C576 1.342 . S
C572 C573 1.310 . S
C572 C575 1.459 . S
C572 H592 0.932 . S
C573 C571 1.408 . S
C573 C572 1.310 . S
C573 H593 0.930 . S
C574 C575 1.475 1_545 S
C574 C576 1.285 1_545 S
C574 H594 0.930 . S
C575 C572 1.459 . S
C575 C574 1.475 1_565 S
C576 C571 1.342 . S
C576 C574 1.285 1_565 S
C576 H595 0.929 . S
C577 C580 1.424 . S
C577 C582 1.245 . S
C577 C583 1.428 . S
C578 C581 1.260 . S
C578 C582 1.477 . S
C578 H596 0.932 . S
C579 C580 1.384 . S
C579 C581 1.479 . S
C579 H597 0.929 . S
C580 C577 1.424 . S
C580 C579 1.384 . S
C580 H598 0.928 . S
C581 C578 1.260 . S
C581 C579 1.479 . S
C582 C577 1.245 . S
C582 C578 1.477 . S
C582 H599 0.932 . S
C583 U566 2.882 . S
C583 C577 1.428 . S
C583 O586 1.301 . S
C583 O587 1.282 . S
O584 U566 2.441 . S
O584 C570 1.249 . S
O585 U566 2.420 . S
O585 C570 1.202 . S
O586 U566 2.455 . S
O586 C583 1.301 . S
O587 U566 2.449 . S
O587 C583 1.282 . S
H588 C561 0.931 . S
H589 C563 0.929 . S
H590 C564 0.920 1_545 S
H591 C565 0.931 . S
H592 C572 0.932 . S
H593 C573 0.930 . S
H594 C574 0.930 . S
H595 C576 0.929 . S
H596 C578 0.932 . S
H597 C579 0.929 . S
H598 C580 0.928 . S
H599 C582 0.932 . S
C600 C601 1.262 1_565 S
C600 C605 1.479 . S
C600 C610 1.465 1_565 S
C601 C600 1.262 1_545 S
C601 C603 1.328 1_545 S
C601 H628 0.945 . S
C602 C603 1.395 . S
C602 C604 1.320 . S
C603 C601 1.328 1_565 S
C603 C602 1.395 . S
C603 H629 0.929 . S
C604 C602 1.320 . S
C604 C605 1.405 . S
C604 H630 0.930 . S
C605 C600 1.479 . S
C605 C604 1.405 . S
C605 H631 0.931 . S
U606 O607 2.454 1_545 S
U606 O608 2.458 . S
U606 C609 2.984 1_545 S
U606 C610 2.847 . S
U606 C623 2.882 . S
U606 O624 2.441 1_545 S
U606 O625 2.420 . S
U606 O626 2.455 . S
U606 O627 2.449 . S
O607 U606 2.454 1_565 S
O607 C609 1.353 . S
O608 U606 2.458 . S
O608 C609 1.286 1_545 S
C609 U606 2.984 1_565 S
C609 O607 1.353 . S
C609 O608 1.286 1_565 S
C609 C611 1.363 . S
C610 C600 1.465 1_545 S
C610 U606 2.847 . S
C610 O624 1.249 1_545 S
C610 O625 1.202 . S
C611 C609 1.363 . S
C611 C613 1.408 . S
C611 C616 1.342 . S
C612 C613 1.310 . S
C612 C615 1.461 . S
C612 H632 0.932 . S
C613 C611 1.408 . S
C613 C612 1.310 . S
C613 H633 0.930 . S
C614 C615 1.474 . S
C614 C616 1.285 . S
C614 H634 0.929 . S
C615 C612 1.461 . S
C615 C614 1.474 . S
C616 C611 1.342 . S
C616 C614 1.285 . S
C616 H635 0.930 . S
C617 C620 1.424 . S
C617 C622 1.245 . S
C617 C623 1.428 . S
C618 C621 1.260 . S
C618 C622 1.477 . S
C618 H636 0.932 . S
C619 C620 1.384 . S
C619 C621 1.479 . S
C619 H637 0.929 . S
C620 C617 1.424 . S
C620 C619 1.384 . S
C620 H638 0.928 . S
C621 C618 1.260 . S
C621 C619 1.479 . S
C622 C617 1.245 . S
C622 C618 1.477 . S
C622 H639 0.932 . S
C623 U606 2.882 . S
C623 C617 1.428 . S
C623 O626 1.301 . S
C623 O627 1.282 . S
O624 U606 2.441 1_565 S
O624 C610 1.249 1_565 S
O625 U606 2.420 . S
O625 C610 1.202 . S
O626 U606 2.455 . S
O626 C623 1.301 . S
O627 U606 2.449 . S
O627 C623 1.282 . S
H628 C601 0.945 . S
H629 C603 0.929 . S
H630 C604 0.930 . S
H631 C605 0.931 . S
H632 C612 0.932 . S
H633 C613 0.930 . S
H634 C614 0.929 . S
H635 C616 0.930 . S
H636 C618 0.932 . S
H637 C619 0.929 . S
H638 C620 0.928 . S
H639 C622 0.932 . S
C640 C641 1.264 . S
C640 C645 1.479 . S
C640 C650 1.465 . S
C641 C640 1.264 . S
C641 C643 1.339 . S
C641 H668 0.931 . S
C642 C643 1.395 . S
C642 C644 1.320 . S
C643 C641 1.339 . S
C643 C642 1.395 . S
C643 H669 0.929 . S
C644 C642 1.320 . S
C644 C645 1.405 . S
C644 H670 0.930 . S
C645 C640 1.479 . S
C645 C644 1.405 . S
C645 H671 0.931 . S
U646 O647 2.454 . S
U646 O648 2.458 . S
U646 C649 2.984 . S
U646 C650 2.847 . S
U646 C663 2.882 . S
U646 O664 2.441 . S
U646 O665 2.420 . S
U646 O666 2.455 . S
U646 O667 2.449 . S
O647 U646 2.454 . S
O647 C649 1.353 . S
O648 U646 2.458 . S
O648 C649 1.286 . S
C649 U646 2.984 . S
C649 O647 1.353 . S
C649 O648 1.286 . S
C649 C651 1.363 . S
C650 C640 1.465 . S
C650 U646 2.847 . S
C650 O664 1.249 . S
C650 O665 1.202 . S
C651 C649 1.363 . S
C651 C653 1.408 . S
C651 C656 1.342 . S
C652 C653 1.310 . S
C652 C655 1.461 . S
C652 H672 0.932 . S
C653 C651 1.408 . S
C653 C652 1.310 . S
C653 H673 0.930 . S
C654 C655 1.474 . S
C654 C656 1.285 . S
C654 H674 0.929 . S
C655 C652 1.461 . S
C655 C654 1.474 . S
C656 C651 1.342 . S
C656 C654 1.285 . S
C656 H675 0.930 . S
C657 C660 1.424 . S
C657 C662 1.245 . S
C657 C663 1.428 . S
C658 C661 1.260 . S
C658 C662 1.477 . S
C658 H676 0.932 . S
C659 C660 1.384 . S
C659 C661 1.479 . S
C659 H677 0.929 . S
C660 C657 1.424 . S
C660 C659 1.384 . S
C660 H678 0.928 . S
C661 C658 1.260 . S
C661 C659 1.479 . S
C662 C657 1.245 . S
C662 C658 1.477 . S
C662 H679 0.932 . S
C663 U646 2.882 . S
C663 C657 1.428 . S
C663 O666 1.301 . S
C663 O667 1.282 . S
O664 U646 2.441 . S
O664 C650 1.249 . S
O665 U646 2.420 . S
O665 C650 1.202 . S
O666 U646 2.455 . S
O666 C663 1.301 . S
O667 U646 2.449 . S
O667 C663 1.282 . S
H668 C641 0.931 . S
H669 C643 0.929 . S
H670 C644 0.930 . S
H671 C645 0.931 . S
H672 C652 0.932 . S
H673 C653 0.930 . S
H674 C654 0.929 . S
H675 C656 0.930 . S
H676 C658 0.932 . S
H677 C659 0.929 . S
H678 C660 0.928 . S
H679 C662 0.932 . S
C680 C681 1.262 1_556 S
C680 C685 1.479 . S
C680 C690 1.465 1_556 S
C681 C680 1.262 1_554 S
C681 C683 1.328 1_554 S
C681 H708 0.945 . S
C682 C683 1.395 . S
C682 C684 1.320 . S
C683 C681 1.328 1_556 S
C683 C682 1.395 . S
C683 H709 0.929 . S
C684 C682 1.320 . S
C684 C685 1.405 . S
C684 H710 0.930 . S
C685 C680 1.479 . S
C685 C684 1.405 . S
C685 H711 0.931 . S
U686 O687 2.454 1_554 S
U686 O688 2.458 . S
U686 C689 2.984 1_554 S
U686 C690 2.847 . S
U686 C703 2.882 . S
U686 O704 2.441 1_554 S
U686 O705 2.420 . S
U686 O706 2.455 . S
U686 O707 2.449 . S
O687 U686 2.454 1_556 S
O687 C689 1.353 . S
O688 U686 2.458 . S
O688 C689 1.286 1_554 S
C689 U686 2.984 1_556 S
C689 O687 1.353 . S
C689 O688 1.286 1_556 S
C689 C691 1.363 . S
C690 C680 1.465 1_554 S
C690 U686 2.847 . S
C690 O704 1.249 1_554 S
C690 O705 1.202 . S
C691 C689 1.363 . S
C691 C693 1.408 . S
C691 C696 1.342 . S
C692 C693 1.310 . S
C692 C695 1.461 . S
C692 H712 0.932 . S
C693 C691 1.408 . S
C693 C692 1.310 . S
C693 H713 0.930 . S
C694 C695 1.474 . S
C694 C696 1.285 . S
C694 H714 0.929 . S
C695 C692 1.461 . S
C695 C694 1.474 . S
C696 C691 1.342 . S
C696 C694 1.285 . S
C696 H715 0.930 . S
C697 C700 1.424 . S
C697 C702 1.245 . S
C697 C703 1.428 . S
C698 C701 1.260 . S
C698 C702 1.477 . S
C698 H716 0.932 . S
C699 C700 1.384 . S
C699 C701 1.479 . S
C699 H717 0.929 . S
C700 C697 1.424 . S
C700 C699 1.384 . S
C700 H718 0.928 . S
C701 C698 1.260 . S
C701 C699 1.479 . S
C702 C697 1.245 . S
C702 C698 1.477 . S
C702 H719 0.932 . S
C703 U686 2.882 . S
C703 C697 1.428 . S
C703 O706 1.301 . S
C703 O707 1.282 . S
O704 U686 2.441 1_556 S
O704 C690 1.249 1_556 S
O705 U686 2.420 . S
O705 C690 1.202 . S
O706 U686 2.455 . S
O706 C703 1.301 . S
O707 U686 2.449 . S
O707 C703 1.282 . S
H708 C681 0.945 . S
H709 C683 0.929 . S
H710 C684 0.930 . S
H711 C685 0.931 . S
H712 C692 0.932 . S
H713 C693 0.930 . S
H714 C694 0.929 . S
H715 C696 0.930 . S
H716 C698 0.932 . S
H717 C699 0.929 . S
H718 C700 0.928 . S
H719 C702 0.932 . S
C720 C721 1.264 . S
C720 C725 1.479 . S
C720 C730 1.465 . S
C721 C720 1.264 . S
C721 C723 1.339 . S
C721 H748 0.931 . S
C722 C723 1.395 . S
C722 C724 1.320 . S
C723 C721 1.339 . S
C723 C722 1.395 . S
C723 H749 0.929 . S
C724 C722 1.320 . S
C724 C725 1.405 . S
C724 H750 0.930 . S
C725 C720 1.479 . S
C725 C724 1.405 . S
C725 H751 0.931 . S
U726 O727 2.454 . S
U726 O728 2.458 . S
U726 C729 2.984 . S
U726 C730 2.847 . S
U726 C743 2.882 . S
U726 O744 2.441 . S
U726 O745 2.420 . S
U726 O746 2.455 . S
U726 O747 2.449 . S
O727 U726 2.454 . S
O727 C729 1.353 . S
O728 U726 2.458 . S
O728 C729 1.286 . S
C729 U726 2.984 . S
C729 O727 1.353 . S
C729 O728 1.286 . S
C729 C731 1.363 . S
C730 C720 1.465 . S
C730 U726 2.847 . S
C730 O744 1.249 . S
C730 O745 1.202 . S
C731 C729 1.363 . S
C731 C733 1.408 . S
C731 C736 1.342 . S
C732 C733 1.310 . S
C732 C735 1.461 . S
C732 H752 0.932 . S
C733 C731 1.408 . S
C733 C732 1.310 . S
C733 H753 0.930 . S
C734 C735 1.474 . S
C734 C736 1.285 . S
C734 H754 0.929 . S
C735 C732 1.461 . S
C735 C734 1.474 . S
C736 C731 1.342 . S
C736 C734 1.285 . S
C736 H755 0.930 . S
C737 C740 1.424 . S
C737 C742 1.245 . S
C737 C743 1.428 . S
C738 C741 1.260 . S
C738 C742 1.477 . S
C738 H756 0.932 . S
C739 C740 1.384 . S
C739 C741 1.479 . S
C739 H757 0.929 . S
C740 C737 1.424 . S
C740 C739 1.384 . S
C740 H758 0.928 . S
C741 C738 1.260 . S
C741 C739 1.479 . S
C742 C737 1.245 . S
C742 C738 1.477 . S
C742 H759 0.932 . S
C743 U726 2.882 . S
C743 C737 1.428 . S
C743 O746 1.301 . S
C743 O747 1.282 . S
O744 U726 2.441 . S
O744 C730 1.249 . S
O745 U726 2.420 . S
O745 C730 1.202 . S
O746 U726 2.455 . S
O746 C743 1.301 . S
O747 U726 2.449 . S
O747 C743 1.282 . S
H748 C721 0.931 . S
H749 C723 0.929 . S
H750 C724 0.930 . S
H751 C725 0.931 . S
H752 C732 0.932 . S
H753 C733 0.930 . S
H754 C734 0.929 . S
H755 C736 0.930 . S
H756 C738 0.932 . S
H757 C739 0.929 . S
H758 C740 0.928 . S
H759 C742 0.932 . S
C760 C761 1.264 . S
C760 C765 1.479 . S
C760 C770 1.465 . S
C761 C760 1.264 . S
C761 C763 1.339 . S
C761 H788 0.931 . S
C762 C763 1.395 . S
C762 C764 1.320 . S
C763 C761 1.339 . S
C763 C762 1.395 . S
C763 H789 0.929 . S
C764 C762 1.320 . S
C764 C765 1.405 . S
C764 H790 0.920 1_556 S
C765 C760 1.479 . S
C765 C764 1.405 . S
C765 H791 0.931 . S
U766 O767 2.454 . S
U766 O768 2.458 . S
U766 C769 2.984 . S
U766 C770 2.847 . S
U766 C783 2.882 . S
U766 O784 2.441 . S
U766 O785 2.420 . S
U766 O786 2.455 . S
U766 O787 2.449 . S
O767 U766 2.454 . S
O767 C769 1.353 . S
O768 U766 2.458 . S
O768 C769 1.286 . S
C769 U766 2.984 . S
C769 O767 1.353 . S
C769 O768 1.286 . S
C769 C771 1.363 . S
C770 C760 1.465 . S
C770 U766 2.847 . S
C770 O784 1.249 . S
C770 O785 1.202 . S
C771 C769 1.363 . S
C771 C773 1.408 . S
C771 C776 1.342 . S
C772 C773 1.310 . S
C772 C775 1.459 . S
C772 H792 0.932 . S
C773 C771 1.408 . S
C773 C772 1.310 . S
C773 H793 0.930 . S
C774 C775 1.475 1_554 S
C774 C776 1.285 1_554 S
C774 H794 0.930 . S
C775 C772 1.459 . S
C775 C774 1.475 1_556 S
C776 C771 1.342 . S
C776 C774 1.285 1_556 S
C776 H795 0.929 . S
C777 C780 1.424 . S
C777 C782 1.245 . S
C777 C783 1.428 . S
C778 C781 1.260 . S
C778 C782 1.477 . S
C778 H796 0.932 . S
C779 C780 1.384 . S
C779 C781 1.479 . S
C779 H797 0.929 . S
C780 C777 1.424 . S
C780 C779 1.384 . S
C780 H798 0.928 . S
C781 C778 1.260 . S
C781 C779 1.479 . S
C782 C777 1.245 . S
C782 C778 1.477 . S
C782 H799 0.932 . S
C783 U766 2.882 . S
C783 C777 1.428 . S
C783 O786 1.301 . S
C783 O787 1.282 . S
O784 U766 2.441 . S
O784 C770 1.249 . S
O785 U766 2.420 . S
O785 C770 1.202 . S
O786 U766 2.455 . S
O786 C783 1.301 . S
O787 U766 2.449 . S
O787 C783 1.282 . S
H788 C761 0.931 . S
H789 C763 0.929 . S
H790 C764 0.920 1_554 S
H791 C765 0.931 . S
H792 C772 0.932 . S
H793 C773 0.930 . S
H794 C774 0.930 . S
H795 C776 0.929 . S
H796 C778 0.932 . S
H797 C779 0.929 . S
H798 C780 0.928 . S
H799 C782 0.932 . S
C800 C801 1.264 . S
C800 C805 1.479 . S
C800 C810 1.465 . S
C801 C800 1.264 . S
C801 C803 1.339 . S
C801 H828 0.931 . S
C802 C803 1.395 . S
C802 C804 1.320 . S
C803 C801 1.339 . S
C803 C802 1.395 . S
C803 H829 0.929 . S
C804 C802 1.320 . S
C804 C805 1.405 . S
C804 H830 0.930 . S
C805 C800 1.479 . S
C805 C804 1.405 . S
C805 H831 0.931 . S
U806 O807 2.454 . S
U806 O808 2.458 . S
U806 C809 2.984 . S
U806 C810 2.847 . S
U806 C823 2.882 . S
U806 O824 2.441 . S
U806 O825 2.420 . S
U806 O826 2.455 . S
U806 O827 2.449 . S
O807 U806 2.454 . S
O807 C809 1.353 . S
O808 U806 2.458 . S
O808 C809 1.286 . S
C809 U806 2.984 . S
C809 O807 1.353 . S
C809 O808 1.286 . S
C809 C811 1.363 . S
C810 C800 1.465 . S
C810 U806 2.847 . S
C810 O824 1.249 . S
C810 O825 1.202 . S
C811 C809 1.363 . S
C811 C813 1.408 . S
C811 C816 1.342 . S
C812 C813 1.310 . S
C812 C815 1.461 . S
C812 H832 0.932 . S
C813 C811 1.408 . S
C813 C812 1.310 . S
C813 H833 0.930 . S
C814 C815 1.474 . S
C814 C816 1.285 . S
C814 H834 0.929 . S
C815 C812 1.461 . S
C815 C814 1.474 . S
C816 C811 1.342 . S
C816 C814 1.285 . S
C816 H835 0.930 . S
C817 C820 1.424 . S
C817 C822 1.245 . S
C817 C823 1.428 . S
C818 C821 1.260 . S
C818 C822 1.477 . S
C818 H836 0.932 . S
C819 C820 1.384 . S
C819 C821 1.479 . S
C819 H837 0.929 . S
C820 C817 1.424 . S
C820 C819 1.384 . S
C820 H838 0.928 . S
C821 C818 1.260 . S
C821 C819 1.479 . S
C822 C817 1.245 . S
C822 C818 1.477 . S
C822 H839 0.932 . S
C823 U806 2.882 . S
C823 C817 1.428 . S
C823 O826 1.301 . S
C823 O827 1.282 . S
O824 U806 2.441 . S
O824 C810 1.249 . S
O825 U806 2.420 . S
O825 C810 1.202 . S
O826 U806 2.455 . S
O826 C823 1.301 . S
O827 U806 2.449 . S
O827 C823 1.282 . S
H828 C801 0.931 . S
H829 C803 0.929 . S
H830 C804 0.930 . S
H831 C805 0.931 . S
H832 C812 0.932 . S
H833 C813 0.930 . S
H834 C814 0.929 . S
H835 C816 0.930 . S
H836 C818 0.932 . S
H837 C819 0.929 . S
H838 C820 0.928 . S
H839 C822 0.932 . S
C840 C841 1.262 1_655 S
C840 C845 1.479 . S
C840 C850 1.465 1_655 S
C841 C840 1.262 1_455 S
C841 C843 1.328 1_455 S
C841 H868 0.945 . S
C842 C843 1.395 . S
C842 C844 1.320 . S
C843 C841 1.328 1_655 S
C843 C842 1.395 . S
C843 H869 0.929 . S
C844 C842 1.320 . S
C844 C845 1.405 . S
C844 H870 0.930 . S
C845 C840 1.479 . S
C845 C844 1.405 . S
C845 H871 0.931 . S
U846 O847 2.454 1_455 S
U846 O848 2.458 . S
U846 C849 2.984 1_455 S
U846 C850 2.847 . S
U846 C863 2.882 . S
U846 O864 2.441 1_455 S
U846 O865 2.420 . S
U846 O866 2.455 . S
U846 O867 2.449 . S
O847 U846 2.454 1_655 S
O847 C849 1.353 . S
O848 U846 2.458 . S
O848 C849 1.286 1_455 S
C849 U846 2.984 1_655 S
C849 O847 1.353 . S
C849 O848 1.286 1_655 S
C849 C851 1.363 . S
C850 C840 1.465 1_455 S
C850 U846 2.847 . S
C850 O864 1.249 1_455 S
C850 O865 1.202 . S
C851 C849 1.363 . S
C851 C853 1.408 . S
C851 C856 1.342 . S
C852 C853 1.310 . S
C852 C855 1.461 . S
C852 H872 0.932 . S
C853 C851 1.408 . S
C853 C852 1.310 . S
C853 H873 0.930 . S
C854 C855 1.474 . S
C854 C856 1.285 . S
C854 H874 0.929 . S
C855 C852 1.461 . S
C855 C854 1.474 . S
C856 C851 1.342 . S
C856 C854 1.285 . S
C856 H875 0.930 . S
C857 C860 1.424 . S
C857 C862 1.245 . S
C857 C863 1.428 . S
C858 C861 1.260 . S
C858 C862 1.477 . S
C858 H876 0.932 . S
C859 C860 1.384 . S
C859 C861 1.479 . S
C859 H877 0.929 . S
C860 C857 1.424 . S
C860 C859 1.384 . S
C860 H878 0.928 . S
C861 C858 1.260 . S
C861 C859 1.479 . S
C862 C857 1.245 . S
C862 C858 1.477 . S
C862 H879 0.932 . S
C863 U846 2.882 . S
C863 C857 1.428 . S
C863 O866 1.301 . S
C863 O867 1.282 . S
O864 U846 2.441 1_655 S
O864 C850 1.249 1_655 S
O865 U846 2.420 . S
O865 C850 1.202 . S
O866 U846 2.455 . S
O866 C863 1.301 . S
O867 U846 2.449 . S
O867 C863 1.282 . S
H868 C841 0.945 . S
H869 C843 0.929 . S
H870 C844 0.930 . S
H871 C845 0.931 . S
H872 C852 0.932 . S
H873 C853 0.930 . S
H874 C854 0.929 . S
H875 C856 0.930 . S
H876 C858 0.932 . S
H877 C859 0.929 . S
H878 C860 0.928 . S
H879 C862 0.932 . S
C880 C881 1.264 . S
C880 C885 1.479 . S
C880 C890 1.465 . S
C881 C880 1.264 . S
C881 C883 1.339 . S
C881 H908 0.931 . S
C882 C883 1.395 . S
C882 C884 1.320 . S
C883 C881 1.339 . S
C883 C882 1.395 . S
C883 H909 0.929 . S
C884 C882 1.320 . S
C884 C885 1.405 . S
C884 H910 0.930 . S
C885 C880 1.479 . S
C885 C884 1.405 . S
C885 H911 0.931 . S
U886 O887 2.454 . S
U886 O888 2.458 . S
U886 C889 2.984 . S
U886 C890 2.847 . S
U886 C903 2.882 . S
U886 O904 2.441 . S
U886 O905 2.420 . S
U886 O906 2.455 . S
U886 O907 2.449 . S
O887 U886 2.454 . S
O887 C889 1.353 . S
O888 U886 2.458 . S
O888 C889 1.286 . S
C889 U886 2.984 . S
C889 O887 1.353 . S
C889 O888 1.286 . S
C889 C891 1.363 . S
C890 C880 1.465 . S
C890 U886 2.847 . S
C890 O904 1.249 . S
C890 O905 1.202 . S
C891 C889 1.363 . S
C891 C893 1.408 . S
C891 C896 1.342 . S
C892 C893 1.310 . S
C892 C895 1.461 . S
C892 H912 0.932 . S
C893 C891 1.408 . S
C893 C892 1.310 . S
C893 H913 0.930 . S
C894 C895 1.474 . S
C894 C896 1.285 . S
C894 H914 0.929 . S
C895 C892 1.461 . S
C895 C894 1.474 . S
C896 C891 1.342 . S
C896 C894 1.285 . S
C896 H915 0.930 . S
C897 C900 1.424 . S
C897 C902 1.245 . S
C897 C903 1.428 . S
C898 C901 1.260 . S
C898 C902 1.477 . S
C898 H916 0.932 . S
C899 C900 1.384 . S
C899 C901 1.479 . S
C899 H917 0.929 . S
C900 C897 1.424 . S
C900 C899 1.384 . S
C900 H918 0.928 . S
C901 C898 1.260 . S
C901 C899 1.479 . S
C902 C897 1.245 . S
C902 C898 1.477 . S
C902 H919 0.932 . S
C903 U886 2.882 . S
C903 C897 1.428 . S
C903 O906 1.301 . S
C903 O907 1.282 . S
O904 U886 2.441 . S
O904 C890 1.249 . S
O905 U886 2.420 . S
O905 C890 1.202 . S
O906 U886 2.455 . S
O906 C903 1.301 . S
O907 U886 2.449 . S
O907 C903 1.282 . S
H908 C881 0.931 . S
H909 C883 0.929 . S
H910 C884 0.930 . S
H911 C885 0.931 . S
H912 C892 0.932 . S
H913 C893 0.930 . S
H914 C894 0.929 . S
H915 C896 0.930 . S
H916 C898 0.932 . S
H917 C899 0.929 . S
H918 C900 0.928 . S
H919 C902 0.932 . S
C920 C921 1.264 . S
C920 C925 1.479 . S
C920 C930 1.465 . S
C921 C920 1.264 . S
C921 C923 1.339 . S
C921 H948 0.931 . S
C922 C923 1.395 . S
C922 C924 1.320 . S
C923 C921 1.339 . S
C923 C922 1.395 . S
C923 H949 0.929 . S
C924 C922 1.320 . S
C924 C925 1.405 . S
C924 H950 0.920 1_655 S
C925 C920 1.479 . S
C925 C924 1.405 . S
C925 H951 0.931 . S
U926 O927 2.454 . S
U926 O928 2.458 . S
U926 C929 2.984 . S
U926 C930 2.847 . S
U926 C943 2.882 . S
U926 O944 2.441 . S
U926 O945 2.420 . S
U926 O946 2.455 . S
U926 O947 2.449 . S
O927 U926 2.454 . S
O927 C929 1.353 . S
O928 U926 2.458 . S
O928 C929 1.286 . S
C929 U926 2.984 . S
C929 O927 1.353 . S
C929 O928 1.286 . S
C929 C931 1.363 . S
C930 C920 1.465 . S
C930 U926 2.847 . S
C930 O944 1.249 . S
C930 O945 1.202 . S
C931 C929 1.363 . S
C931 C933 1.408 . S
C931 C936 1.342 . S
C932 C933 1.310 . S
C932 C935 1.459 . S
C932 H952 0.932 . S
C933 C931 1.408 . S
C933 C932 1.310 . S
C933 H953 0.930 . S
C934 C935 1.475 1_455 S
C934 C936 1.285 1_455 S
C934 H954 0.930 . S
C935 C932 1.459 . S
C935 C934 1.475 1_655 S
C936 C931 1.342 . S
C936 C934 1.285 1_655 S
C936 H955 0.929 . S
C937 C940 1.424 . S
C937 C942 1.245 . S
C937 C943 1.428 . S
C938 C941 1.260 . S
C938 C942 1.477 . S
C938 H956 0.932 . S
C939 C940 1.384 . S
C939 C941 1.479 . S
C939 H957 0.929 . S
C940 C937 1.424 . S
C940 C939 1.384 . S
C940 H958 0.928 . S
C941 C938 1.260 . S
C941 C939 1.479 . S
C942 C937 1.245 . S
C942 C938 1.477 . S
C942 H959 0.932 . S
C943 U926 2.882 . S
C943 C937 1.428 . S
C943 O946 1.301 . S
C943 O947 1.282 . S
O944 U926 2.441 . S
O944 C930 1.249 . S
O945 U926 2.420 . S
O945 C930 1.202 . S
O946 U926 2.455 . S
O946 C943 1.301 . S
O947 U926 2.449 . S
O947 C943 1.282 . S
H948 C921 0.931 . S
H949 C923 0.929 . S
H950 C924 0.920 1_455 S
H951 C925 0.931 . S
H952 C932 0.932 . S
H953 C933 0.930 . S
H954 C934 0.930 . S
H955 C936 0.929 . S
H956 C938 0.932 . S
H957 C939 0.929 . S
H958 C940 0.928 . S
H959 C942 0.932 . S
C960 N961 1.317 . S
C960 N962 1.348 . S
C960 C963 1.485 . S
N961 C960 1.317 . S
N961 N965 1.370 . S
N962 C960 1.348 . S
N962 C964 1.346 . S
C963 C960 1.485 . S
C963 H967 0.960 . S
C963 H968 0.961 . S
C963 H969 0.960 . S
C964 N962 1.346 . S
C964 N965 1.307 . S
C964 C966 1.486 . S
N965 N961 1.370 . S
N965 C964 1.307 . S
C966 C964 1.486 . S
C966 H970 0.960 . S
C966 H971 0.960 . S
C966 H972 0.959 . S
H967 C963 0.960 . S
H968 C963 0.961 . S
H969 C963 0.960 . S
H970 C966 0.960 . S
H971 C966 0.960 . S
H972 C966 0.959 . S
C973 N974 1.317 . S
C973 N975 1.348 . S
C973 C976 1.485 . S
N974 C973 1.317 . S
N974 N978 1.370 1_554 S
N975 C973 1.348 . S
N975 C977 1.346 1_554 S
C976 C973 1.485 . S
C976 H980 0.960 . S
C976 H981 0.961 . S
C976 H982 0.960 . S
C977 N975 1.346 1_556 S
C977 N978 1.307 . S
C977 C979 1.486 . S
N978 N974 1.370 1_556 S
N978 C977 1.307 . S
C979 C977 1.486 . S
C979 H983 0.960 . S
C979 H984 0.960 . S
C979 H985 0.959 . S
H980 C976 0.960 . S
H981 C976 0.961 . S
H982 C976 0.960 . S
H983 C979 0.960 . S
H984 C979 0.960 . S
H985 C979 0.959 . S
C986 N987 1.317 . S
C986 N988 1.348 1_565 S
C986 C989 1.485 . S
N987 C986 1.317 . S
N987 N991 1.359 1_565 S
N988 C986 1.348 1_545 S
N988 C990 1.346 . S
C989 C986 1.485 . S
C989 H993 0.960 . S
C989 H994 0.966 1_565 S
C989 H995 0.960 . S
C990 N988 1.346 . S
C990 N991 1.326 . S
C990 C992 1.486 . S
N991 N987 1.359 1_545 S
N991 C990 1.326 . S
C992 C990 1.486 . S
C992 H996 0.960 . S
C992 H997 0.960 . S
C992 H998 0.959 . S
H993 C989 0.960 . S
H994 C989 0.966 1_545 S
H995 C989 0.960 . S
H996 C992 0.960 . S
H997 C992 0.960 . S
H998 C992 0.959 . S
C999 N1000 1.317 . S
C999 N1001 1.348 . S
C999 C1002 1.485 . S
N1000 C999 1.317 . S
N1000 N1004 1.370 1_556 S
N1001 C999 1.348 . S
N1001 C1003 1.346 1_556 S
C1002 C999 1.485 . S
C1002 H1006 0.960 . S
C1002 H1007 0.961 . S
C1002 H1008 0.960 . S
C1003 N1001 1.346 1_554 S
C1003 N1004 1.307 . S
C1003 C1005 1.486 . S
N1004 N1000 1.370 1_554 S
N1004 C1003 1.307 . S
C1005 C1003 1.486 . S
C1005 H1009 0.960 . S
C1005 H1010 0.960 . S
C1005 H1011 0.959 . S
H1006 C1002 0.960 . S
H1007 C1002 0.961 . S
H1008 C1002 0.960 . S
H1009 C1005 0.960 . S
H1010 C1005 0.960 . S
H1011 C1005 0.959 . S
C1012 N1013 1.317 . S
C1012 N1014 1.348 . S
C1012 C1015 1.485 . S
N1013 C1012 1.317 . S
N1013 N1017 1.370 . S
N1014 C1012 1.348 . S
N1014 C1016 1.346 . S
C1015 C1012 1.485 . S
C1015 H1019 0.960 . S
C1015 H1020 0.961 . S
C1015 H1021 0.960 . S
C1016 N1014 1.346 . S
C1016 N1017 1.307 . S
C1016 C1018 1.486 . S
N1017 N1013 1.370 . S
N1017 C1016 1.307 . S
C1018 C1016 1.486 . S
C1018 H1022 0.960 . S
C1018 H1023 0.960 . S
C1018 H1024 0.959 . S
H1019 C1015 0.960 . S
H1020 C1015 0.961 . S
H1021 C1015 0.960 . S
H1022 C1018 0.960 . S
H1023 C1018 0.960 . S
H1024 C1018 0.959 . S
C1025 N1026 1.317 . S
C1025 N1027 1.348 . S
C1025 C1028 1.485 . S
N1026 C1025 1.317 . S
N1026 N1030 1.370 1_655 S
N1027 C1025 1.348 . S
N1027 C1029 1.346 1_655 S
C1028 C1025 1.485 . S
C1028 H1032 0.960 . S
C1028 H1033 0.961 . S
C1028 H1034 0.960 . S
C1029 N1027 1.346 1_455 S
C1029 N1030 1.307 . S
C1029 C1031 1.486 . S
N1030 N1026 1.370 1_455 S
N1030 C1029 1.307 . S
C1031 C1029 1.486 . S
C1031 H1035 0.960 . S
C1031 H1036 0.960 . S
C1031 H1037 0.959 . S
H1032 C1028 0.960 . S
H1033 C1028 0.961 . S
H1034 C1028 0.960 . S
H1035 C1031 0.960 . S
H1036 C1031 0.960 . S
H1037 C1031 0.959 . S
C1038 N1039 1.317 . S
C1038 N1040 1.348 . S
C1038 C1041 1.485 . S
N1039 C1038 1.317 . S
N1039 N1043 1.370 1_455 S
N1040 C1038 1.348 . S
N1040 C1042 1.346 1_455 S
C1041 C1038 1.485 . S
C1041 H1045 0.960 . S
C1041 H1046 0.961 . S
C1041 H1047 0.960 . S
C1042 N1040 1.346 1_655 S
C1042 N1043 1.307 . S
C1042 C1044 1.486 . S
N1043 N1039 1.370 1_655 S
N1043 C1042 1.307 . S
C1044 C1042 1.486 . S
C1044 H1048 0.960 . S
C1044 H1049 0.960 . S
C1044 H1050 0.959 . S
H1045 C1041 0.960 . S
H1046 C1041 0.961 . S
H1047 C1041 0.960 . S
H1048 C1044 0.960 . S
H1049 C1044 0.960 . S
H1050 C1044 0.959 . S
C1051 N1052 1.317 . S
C1051 N1053 1.348 1_556 S
C1051 C1054 1.485 . S
N1052 C1051 1.317 . S
N1052 N1056 1.359 1_556 S
N1053 C1051 1.348 1_554 S
N1053 C1055 1.346 . S
C1054 C1051 1.485 . S
C1054 H1058 0.960 . S
C1054 H1059 0.966 1_556 S
C1054 H1060 0.960 . S
C1055 N1053 1.346 . S
C1055 N1056 1.326 . S
C1055 C1057 1.486 . S
N1056 N1052 1.359 1_554 S
N1056 C1055 1.326 . S
C1057 C1055 1.486 . S
C1057 H1061 0.960 . S
C1057 H1062 0.960 . S
C1057 H1063 0.959 . S
H1058 C1054 0.960 . S
H1059 C1054 0.966 1_554 S
H1060 C1054 0.960 . S
H1061 C1057 0.960 . S
H1062 C1057 0.960 . S
H1063 C1057 0.959 . S
C1064 N1065 1.317 . S
C1064 N1066 1.348 . S
C1064 C1067 1.485 . S
N1065 C1064 1.317 . S
N1065 N1069 1.370 . S
N1066 C1064 1.348 . S
N1066 C1068 1.346 . S
C1067 C1064 1.485 . S
C1067 H1071 0.960 . S
C1067 H1072 0.961 . S
C1067 H1073 0.960 . S
C1068 N1066 1.346 . S
C1068 N1069 1.307 . S
C1068 C1070 1.486 . S
N1069 N1065 1.370 . S
N1069 C1068 1.307 . S
C1070 C1068 1.486 . S
C1070 H1074 0.960 . S
C1070 H1075 0.960 . S
C1070 H1076 0.959 . S
H1071 C1067 0.960 . S
H1072 C1067 0.961 . S
H1073 C1067 0.960 . S
H1074 C1070 0.960 . S
H1075 C1070 0.960 . S
H1076 C1070 0.959 . S
C1077 N1078 1.317 . S
C1077 N1079 1.348 . S
C1077 C1080 1.485 . S
N1078 C1077 1.317 . S
N1078 N1082 1.370 1_565 S
N1079 C1077 1.348 . S
N1079 C1081 1.346 1_565 S
C1080 C1077 1.485 . S
C1080 H1084 0.960 . S
C1080 H1085 0.961 . S
C1080 H1086 0.960 . S
C1081 N1079 1.346 1_545 S
C1081 N1082 1.307 . S
C1081 C1083 1.486 . S
N1082 N1078 1.370 1_545 S
N1082 C1081 1.307 . S
C1083 C1081 1.486 . S
C1083 H1087 0.960 . S
C1083 H1088 0.960 . S
C1083 H1089 0.959 . S
H1084 C1080 0.960 . S
H1085 C1080 0.961 . S
H1086 C1080 0.960 . S
H1087 C1083 0.960 . S
H1088 C1083 0.960 . S
H1089 C1083 0.959 . S
C1090 N1091 1.317 . S
C1090 N1092 1.348 . S
C1090 C1093 1.485 . S
N1091 C1090 1.317 . S
N1091 N1095 1.370 1_545 S
N1092 C1090 1.348 . S
N1092 C1094 1.346 1_545 S
C1093 C1090 1.485 . S
C1093 H1097 0.960 . S
C1093 H1098 0.961 . S
C1093 H1099 0.960 . S
C1094 N1092 1.346 1_565 S
C1094 N1095 1.307 . S
C1094 C1096 1.486 . S
N1095 N1091 1.370 1_565 S
N1095 C1094 1.307 . S
C1096 C1094 1.486 . S
C1096 H1100 0.960 . S
C1096 H1101 0.960 . S
C1096 H1102 0.959 . S
H1097 C1093 0.960 . S
H1098 C1093 0.961 . S
H1099 C1093 0.960 . S
H1100 C1096 0.960 . S
H1101 C1096 0.960 . S
H1102 C1096 0.959 . S
C1103 N1104 1.317 . S
C1103 N1105 1.348 1_655 S
C1103 C1106 1.485 . S
N1104 C1103 1.317 . S
N1104 N1108 1.359 1_655 S
N1105 C1103 1.348 1_455 S
N1105 C1107 1.346 . S
C1106 C1103 1.485 . S
C1106 H1110 0.960 . S
C1106 H1111 0.966 1_655 S
C1106 H1112 0.960 . S
C1107 N1105 1.346 . S
C1107 N1108 1.326 . S
C1107 C1109 1.486 . S
N1108 N1104 1.359 1_455 S
N1108 C1107 1.326 . S
C1109 C1107 1.486 . S
C1109 H1113 0.960 . S
C1109 H1114 0.960 . S
C1109 H1115 0.959 . S
H1110 C1106 0.960 . S
H1111 C1106 0.966 1_455 S
H1112 C1106 0.960 . S
H1113 C1109 0.960 . S
H1114 C1109 0.960 . S
H1115 C1109 0.959 . S
C1116 N1117 1.317 . S
C1116 N1118 1.348 . S
C1116 C1119 1.485 . S
N1117 C1116 1.317 . S
N1117 N1121 1.370 . S
N1118 C1116 1.348 . S
N1118 C1120 1.346 . S
C1119 C1116 1.485 . S
C1119 H1123 0.960 . S
C1119 H1124 0.961 . S
C1119 H1125 0.960 . S
C1120 N1118 1.346 . S
C1120 N1121 1.307 . S
C1120 C1122 1.486 . S
N1121 N1117 1.370 . S
N1121 C1120 1.307 . S
C1122 C1120 1.486 . S
C1122 H1126 0.960 . S
C1122 H1127 0.960 . S
C1122 H1128 0.959 . S
H1123 C1119 0.960 . S
H1124 C1119 0.961 . S
H1125 C1119 0.960 . S
H1126 C1122 0.960 . S
H1127 C1122 0.960 . S
H1128 C1122 0.959 . S
C1129 N1130 1.317 . S
C1129 N1131 1.348 . S
C1129 C1132 1.485 . S
N1130 C1129 1.317 . S
N1130 N1134 1.370 1_556 S
N1131 C1129 1.348 . S
N1131 C1133 1.346 1_556 S
C1132 C1129 1.485 . S
C1132 H1136 0.960 . S
C1132 H1137 0.961 . S
C1132 H1138 0.960 . S
C1133 N1131 1.346 1_554 S
C1133 N1134 1.307 . S
C1133 C1135 1.486 . S
N1134 N1130 1.370 1_554 S
N1134 C1133 1.307 . S
C1135 C1133 1.486 . S
C1135 H1139 0.960 . S
C1135 H1140 0.960 . S
C1135 H1141 0.959 . S
H1136 C1132 0.960 . S
H1137 C1132 0.961 . S
H1138 C1132 0.960 . S
H1139 C1135 0.960 . S
H1140 C1135 0.960 . S
H1141 C1135 0.959 . S
C1142 N1143 1.317 . S
C1142 N1144 1.348 1_545 S
C1142 C1145 1.485 . S
N1143 C1142 1.317 . S
N1143 N1147 1.362 1_545 S
N1144 C1142 1.348 1_565 S
N1144 C1146 1.346 . S
C1145 C1142 1.485 . S
C1145 H1149 0.960 . S
C1145 H1150 0.961 . S
C1145 H1151 0.960 . S
C1146 N1144 1.346 . S
C1146 N1147 1.320 . S
C1146 C1148 1.486 . S
N1147 N1143 1.362 1_565 S
N1147 C1146 1.320 . S
C1148 C1146 1.486 . S
C1148 H1152 0.960 . S
C1148 H1153 0.960 . S
C1148 H1154 0.959 . S
H1149 C1145 0.960 . S
H1150 C1145 0.961 . S
H1151 C1145 0.960 . S
H1152 C1148 0.960 . S
H1153 C1148 0.960 . S
H1154 C1148 0.959 . S
C1155 N1156 1.317 . S
C1155 N1157 1.348 . S
C1155 C1158 1.485 . S
N1156 C1155 1.317 . S
N1156 N1160 1.370 1_554 S
N1157 C1155 1.348 . S
N1157 C1159 1.346 1_554 S
C1158 C1155 1.485 . S
C1158 H1162 0.960 . S
C1158 H1163 0.961 . S
C1158 H1164 0.960 . S
C1159 N1157 1.346 1_556 S
C1159 N1160 1.307 . S
C1159 C1161 1.486 . S
N1160 N1156 1.370 1_556 S
N1160 C1159 1.307 . S
C1161 C1159 1.486 . S
C1161 H1165 0.960 . S
C1161 H1166 0.960 . S
C1161 H1167 0.959 . S
H1162 C1158 0.960 . S
H1163 C1158 0.961 . S
H1164 C1158 0.960 . S
H1165 C1161 0.960 . S
H1166 C1161 0.960 . S
H1167 C1161 0.959 . S
C1168 N1169 1.317 . S
C1168 N1170 1.348 . S
C1168 C1171 1.485 . S
N1169 C1168 1.317 . S
N1169 N1173 1.370 . S
N1170 C1168 1.348 . S
N1170 C1172 1.346 . S
C1171 C1168 1.485 . S
C1171 H1175 0.960 . S
C1171 H1176 0.961 . S
C1171 H1177 0.960 . S
C1172 N1170 1.346 . S
C1172 N1173 1.307 . S
C1172 C1174 1.486 . S
N1173 N1169 1.370 . S
N1173 C1172 1.307 . S
C1174 C1172 1.486 . S
C1174 H1178 0.960 . S
C1174 H1179 0.960 . S
C1174 H1180 0.959 . S
H1175 C1171 0.960 . S
H1176 C1171 0.961 . S
H1177 C1171 0.960 . S
H1178 C1174 0.960 . S
H1179 C1174 0.960 . S
H1180 C1174 0.959 . S
C1181 N1182 1.317 . S
C1181 N1183 1.348 . S
C1181 C1184 1.485 . S
N1182 C1181 1.317 . S
N1182 N1186 1.370 1_455 S
N1183 C1181 1.348 . S
N1183 C1185 1.346 1_455 S
C1184 C1181 1.485 . S
C1184 H1188 0.960 . S
C1184 H1189 0.961 . S
C1184 H1190 0.960 . S
C1185 N1183 1.346 1_655 S
C1185 N1186 1.307 . S
C1185 C1187 1.486 . S
N1186 N1182 1.370 1_655 S
N1186 C1185 1.307 . S
C1187 C1185 1.486 . S
C1187 H1191 0.960 . S
C1187 H1192 0.960 . S
C1187 H1193 0.959 . S
H1188 C1184 0.960 . S
H1189 C1184 0.961 . S
H1190 C1184 0.960 . S
H1191 C1187 0.960 . S
H1192 C1187 0.960 . S
H1193 C1187 0.959 . S
C1194 N1195 1.317 . S
C1194 N1196 1.348 . S
C1194 C1197 1.485 . S
N1195 C1194 1.317 . S
N1195 N1199 1.370 1_655 S
N1196 C1194 1.348 . S
N1196 C1198 1.346 1_655 S
C1197 C1194 1.485 . S
C1197 H1201 0.960 . S
C1197 H1202 0.961 . S
C1197 H1203 0.960 . S
C1198 N1196 1.346 1_455 S
C1198 N1199 1.307 . S
C1198 C1200 1.486 . S
N1199 N1195 1.370 1_455 S
N1199 C1198 1.307 . S
C1200 C1198 1.486 . S
C1200 H1204 0.960 . S
C1200 H1205 0.960 . S
C1200 H1206 0.959 . S
H1201 C1197 0.960 . S
H1202 C1197 0.961 . S
H1203 C1197 0.960 . S
H1204 C1200 0.960 . S
H1205 C1200 0.960 . S
H1206 C1200 0.959 . S
C1207 N1208 1.317 . S
C1207 N1209 1.348 1_554 S
C1207 C1210 1.485 . S
N1208 C1207 1.317 . S
N1208 N1212 1.362 1_554 S
N1209 C1207 1.348 1_556 S
N1209 C1211 1.346 . S
C1210 C1207 1.485 . S
C1210 H1214 0.960 . S
C1210 H1215 0.961 . S
C1210 H1216 0.960 . S
C1211 N1209 1.346 . S
C1211 N1212 1.320 . S
C1211 C1213 1.486 . S
N1212 N1208 1.362 1_556 S
N1212 C1211 1.320 . S
C1213 C1211 1.486 . S
C1213 H1217 0.960 . S
C1213 H1218 0.960 . S
C1213 H1219 0.959 . S
H1214 C1210 0.960 . S
H1215 C1210 0.961 . S
H1216 C1210 0.960 . S
H1217 C1213 0.960 . S
H1218 C1213 0.960 . S
H1219 C1213 0.959 . S
C1220 N1221 1.317 . S
C1220 N1222 1.348 . S
C1220 C1223 1.485 . S
N1221 C1220 1.317 . S
N1221 N1225 1.370 . S
N1222 C1220 1.348 . S
N1222 C1224 1.346 . S
C1223 C1220 1.485 . S
C1223 H1227 0.960 . S
C1223 H1228 0.961 . S
C1223 H1229 0.960 . S
C1224 N1222 1.346 . S
C1224 N1225 1.307 . S
C1224 C1226 1.486 . S
N1225 N1221 1.370 . S
N1225 C1224 1.307 . S
C1226 C1224 1.486 . S
C1226 H1230 0.960 . S
C1226 H1231 0.960 . S
C1226 H1232 0.959 . S
H1227 C1223 0.960 . S
H1228 C1223 0.961 . S
H1229 C1223 0.960 . S
H1230 C1226 0.960 . S
H1231 C1226 0.960 . S
H1232 C1226 0.959 . S
C1233 N1234 1.317 . S
C1233 N1235 1.348 . S
C1233 C1236 1.485 . S
N1234 C1233 1.317 . S
N1234 N1238 1.370 1_545 S
N1235 C1233 1.348 . S
N1235 C1237 1.346 1_545 S
C1236 C1233 1.485 . S
C1236 H1240 0.960 . S
C1236 H1241 0.961 . S
C1236 H1242 0.960 . S
C1237 N1235 1.346 1_565 S
C1237 N1238 1.307 . S
C1237 C1239 1.486 . S
N1238 N1234 1.370 1_565 S
N1238 C1237 1.307 . S
C1239 C1237 1.486 . S
C1239 H1243 0.960 . S
C1239 H1244 0.960 . S
C1239 H1245 0.959 . S
H1240 C1236 0.960 . S
H1241 C1236 0.961 . S
H1242 C1236 0.960 . S
H1243 C1239 0.960 . S
H1244 C1239 0.960 . S
H1245 C1239 0.959 . S
C1246 N1247 1.317 . S
C1246 N1248 1.348 . S
C1246 C1249 1.485 . S
N1247 C1246 1.317 . S
N1247 N1251 1.370 1_565 S
N1248 C1246 1.348 . S
N1248 C1250 1.346 1_565 S
C1249 C1246 1.485 . S
C1249 H1253 0.960 . S
C1249 H1254 0.961 . S
C1249 H1255 0.960 . S
C1250 N1248 1.346 1_545 S
C1250 N1251 1.307 . S
C1250 C1252 1.486 . S
N1251 N1247 1.370 1_545 S
N1251 C1250 1.307 . S
C1252 C1250 1.486 . S
C1252 H1256 0.960 . S
C1252 H1257 0.960 . S
C1252 H1258 0.959 . S
H1253 C1249 0.960 . S
H1254 C1249 0.961 . S
H1255 C1249 0.960 . S
H1256 C1252 0.960 . S
H1257 C1252 0.960 . S
H1258 C1252 0.959 . S
C1259 N1260 1.317 . S
C1259 N1261 1.348 1_455 S
C1259 C1262 1.485 . S
N1260 C1259 1.317 . S
N1260 N1264 1.362 1_455 S
N1261 C1259 1.348 1_655 S
N1261 C1263 1.346 . S
C1262 C1259 1.485 . S
C1262 H1266 0.960 . S
C1262 H1267 0.961 . S
C1262 H1268 0.960 . S
C1263 N1261 1.346 . S
C1263 N1264 1.320 . S
C1263 C1265 1.486 . S
N1264 N1260 1.362 1_655 S
N1264 C1263 1.320 . S
C1265 C1263 1.486 . S
C1265 H1269 0.960 . S
C1265 H1270 0.960 . S
C1265 H1271 0.959 . S
H1266 C1262 0.960 . S
H1267 C1262 0.961 . S
H1268 C1262 0.960 . S
H1269 C1265 0.960 . S
H1270 C1265 0.960 . S
H1271 C1265 0.959 . S
C1272 C1273 1.349 . S
C1272 C1274 1.327 . S
C1272 H1297 0.950 . S
C1273 C1272 1.349 . S
C1273 C1289 1.349 . S
C1274 C1272 1.327 . S
C1274 C1293 1.429 . S
C1274 H1298 0.950 . S
C1275 C1292 1.574 . S
C1275 C1294 1.368 . S
C1275 H1299 0.949 . S
H1276 C1280 0.949 . S
C1277 C1278 1.349 . S
C1277 C1279 1.327 . S
C1277 H1300 0.950 . S
C1278 C1277 1.349 . S
C1278 C1290 1.349 . S
C1279 C1277 1.327 . S
C1279 C1295 1.429 . S
C1279 H1301 0.950 . S
C1280 H1276 0.949 . S
C1280 C1288 1.574 . S
C1280 C1296 1.368 . S
H1281 C1289 0.950 . S
H1282 C1287 0.950 . S
H1283 C1288 0.949 . S
H1284 C1290 0.950 . S
H1285 C1291 0.950 . S
H1286 C1292 0.949 . S
C1287 H1282 0.950 . S
C1287 C1289 1.327 . S
C1287 C1293 1.429 . S
C1288 C1280 1.574 . S
C1288 H1283 0.949 . S
C1288 C1294 1.368 . S
C1289 C1273 1.349 . S
C1289 H1281 0.950 . S
C1289 C1287 1.327 . S
C1290 C1278 1.349 . S
C1290 H1284 0.950 . S
C1290 C1291 1.327 . S
C1291 H1285 0.950 . S
C1291 C1290 1.327 . S
C1291 C1295 1.429 . S
C1292 C1275 1.574 . S
C1292 H1286 0.949 . S
C1292 C1296 1.368 . S
C1293 C1274 1.429 . S
C1293 C1287 1.429 . S
C1293 C1294 1.523 . S
C1294 C1275 1.368 . S
C1294 C1288 1.368 . S
C1294 C1293 1.523 . S
C1295 C1279 1.429 . S
C1295 C1291 1.429 . S
C1295 C1296 1.523 . S
C1296 C1280 1.368 . S
C1296 C1292 1.368 . S
C1296 C1295 1.523 . S
H1297 C1272 0.950 . S
H1298 C1274 0.950 . S
H1299 C1275 0.949 . S
H1300 C1277 0.950 . S
H1301 C1279 0.950 . S
C1302 C1303 1.349 . S
C1302 C1304 1.327 . S
C1302 H1327 0.950 . S
C1303 C1302 1.349 . S
C1303 C1319 1.349 . S
C1304 C1302 1.327 . S
C1304 C1323 1.429 . S
C1304 H1328 0.950 . S
C1305 C1322 1.574 . S
C1305 C1324 1.368 . S
C1305 H1329 0.949 . S
H1306 C1310 0.949 . S
C1307 C1308 1.349 . S
C1307 C1309 1.327 . S
C1307 H1330 0.950 . S
C1308 C1307 1.349 . S
C1308 C1320 1.349 . S
C1309 C1307 1.327 . S
C1309 C1325 1.429 . S
C1309 H1331 0.950 . S
C1310 H1306 0.949 . S
C1310 C1318 1.574 . S
C1310 C1326 1.368 . S
H1311 C1319 0.950 . S
H1312 C1317 0.950 . S
H1313 C1318 0.949 . S
H1314 C1320 0.950 . S
H1315 C1321 0.950 . S
H1316 C1322 0.949 . S
C1317 H1312 0.950 . S
C1317 C1319 1.327 . S
C1317 C1323 1.429 . S
C1318 C1310 1.574 . S
C1318 H1313 0.949 . S
C1318 C1324 1.368 . S
C1319 C1303 1.349 . S
C1319 H1311 0.950 . S
C1319 C1317 1.327 . S
C1320 C1308 1.349 . S
C1320 H1314 0.950 . S
C1320 C1321 1.327 . S
C1321 H1315 0.950 . S
C1321 C1320 1.327 . S
C1321 C1325 1.429 . S
C1322 C1305 1.574 . S
C1322 H1316 0.949 . S
C1322 C1326 1.368 . S
C1323 C1304 1.429 . S
C1323 C1317 1.429 . S
C1323 C1324 1.523 . S
C1324 C1305 1.368 . S
C1324 C1318 1.368 . S
C1324 C1323 1.523 . S
C1325 C1309 1.429 . S
C1325 C1321 1.429 . S
C1325 C1326 1.523 . S
C1326 C1310 1.368 . S
C1326 C1322 1.368 . S
C1326 C1325 1.523 . S
H1327 C1302 0.950 . S
H1328 C1304 0.950 . S
H1329 C1305 0.949 . S
H1330 C1307 0.950 . S
H1331 C1309 0.950 . S
C1332 C1333 1.362 . S
C1332 C1334 1.327 . S
C1332 H1357 0.950 . S
C1333 C1332 1.362 . S
C1333 C1349 1.336 1_545 S
C1334 C1332 1.327 . S
C1334 C1353 1.429 1_545 S
C1334 H1358 0.950 . S
C1335 C1352 1.574 . S
C1335 C1354 1.368 . S
C1335 H1359 0.949 . S
H1336 C1340 0.949 . S
C1337 C1338 1.349 . S
C1337 C1339 1.327 . S
C1337 H1360 0.950 . S
C1338 C1337 1.349 . S
C1338 C1350 1.349 1_565 S
C1339 C1337 1.327 . S
C1339 C1355 1.429 . S
C1339 H1361 0.950 . S
C1340 H1336 0.949 . S
C1340 C1348 1.574 . S
C1340 C1356 1.368 1_545 S
H1341 C1349 0.950 . S
H1342 C1347 0.950 . S
H1343 C1348 0.949 . S
H1344 C1350 0.950 . S
H1345 C1351 0.950 . S
H1346 C1352 0.949 . S
C1347 H1342 0.950 . S
C1347 C1349 1.327 . S
C1347 C1353 1.429 . S
C1348 C1340 1.574 . S
C1348 H1343 0.949 . S
C1348 C1354 1.368 1_545 S
C1349 C1333 1.336 1_565 S
C1349 H1341 0.950 . S
C1349 C1347 1.327 . S
C1350 C1338 1.349 1_545 S
C1350 H1344 0.950 . S
C1350 C1351 1.327 . S
C1351 H1345 0.950 . S
C1351 C1350 1.327 . S
C1351 C1355 1.429 1_545 S
C1352 C1335 1.574 . S
C1352 H1346 0.949 . S
C1352 C1356 1.368 . S
C1353 C1334 1.429 1_565 S
C1353 C1347 1.429 . S
C1353 C1354 1.523 . S
C1354 C1335 1.368 . S
C1354 C1348 1.368 1_565 S
C1354 C1353 1.523 . S
C1355 C1339 1.429 . S
C1355 C1351 1.429 1_565 S
C1355 C1356 1.523 . S
C1356 C1340 1.368 1_565 S
C1356 C1352 1.368 . S
C1356 C1355 1.523 . S
H1357 C1332 0.950 . S
H1358 C1334 0.950 . S
H1359 C1335 0.949 . S
H1360 C1337 0.950 . S
H1361 C1339 0.950 . S
C1362 C1363 1.382 . S
C1362 C1364 1.314 1_545 S
C1362 H1387 0.923 1_545 S
C1363 C1362 1.382 . S
C1363 C1379 1.349 . S
C1364 C1362 1.314 1_565 S
C1364 C1383 1.392 1_565 S
C1364 H1388 0.997 . S
C1365 C1382 1.574 . S
C1365 C1384 1.363 1_455 S
C1365 H1389 0.949 . S
H1366 C1370 0.949 . S
C1367 C1368 1.349 . S
C1367 C1369 1.327 . S
C1367 H1390 0.950 . S
C1368 C1367 1.349 . S
C1368 C1380 1.349 1_545 S
C1369 C1367 1.327 . S
C1369 C1385 1.429 . S
C1369 H1391 0.950 . S
C1370 H1366 0.949 . S
C1370 C1378 1.574 . S
C1370 C1386 1.368 1_565 S
H1371 C1379 0.950 . S
H1372 C1377 0.950 . S
H1373 C1378 0.949 1_655 S
H1374 C1380 0.950 . S
H1375 C1381 0.950 . S
H1376 C1382 0.949 . S
C1377 H1372 0.950 . S
C1377 C1379 1.327 . S
C1377 C1383 1.429 . S
C1378 C1370 1.574 . S
C1378 H1373 0.949 1_455 S
C1378 C1384 1.364 1_465 S
C1379 C1363 1.349 . S
C1379 H1371 0.950 . S
C1379 C1377 1.327 . S
C1380 C1368 1.349 1_565 S
C1380 H1374 0.950 . S
C1380 C1381 1.327 . S
C1381 H1375 0.950 . S
C1381 C1380 1.327 . S
C1381 C1385 1.429 1_565 S
C1382 C1365 1.574 . S
C1382 H1376 0.949 . S
C1382 C1386 1.368 . S
C1383 C1364 1.392 1_545 S
C1383 C1377 1.429 . S
C1383 C1384 1.536 . S
C1384 C1365 1.363 1_655 S
C1384 C1378 1.364 1_645 S
C1384 C1383 1.536 . S
C1385 C1369 1.429 . S
C1385 C1381 1.429 1_545 S
C1385 C1386 1.523 . S
C1386 C1370 1.368 1_545 S
C1386 C1382 1.368 . S
C1386 C1385 1.523 . S
H1387 C1362 0.923 1_565 S
H1388 C1364 0.997 . S
H1389 C1365 0.949 . S
H1390 C1367 0.950 . S
H1391 C1369 0.950 . S
C1392 C1393 1.349 . S
C1392 C1394 1.327 . S
C1392 H1417 0.950 . S
C1393 C1392 1.349 . S
C1393 C1409 1.349 . S
C1394 C1392 1.327 . S
C1394 C1413 1.429 . S
C1394 H1418 0.950 . S
C1395 C1412 1.574 . S
C1395 C1414 1.368 . S
C1395 H1419 0.949 . S
H1396 C1400 0.949 . S
C1397 C1398 1.349 . S
C1397 C1399 1.327 . S
C1397 H1420 0.950 . S
C1398 C1397 1.349 . S
C1398 C1410 1.349 . S
C1399 C1397 1.327 . S
C1399 C1415 1.429 . S
C1399 H1421 0.950 . S
C1400 H1396 0.949 . S
C1400 C1408 1.574 . S
C1400 C1416 1.368 . S
H1401 C1409 0.950 . S
H1402 C1407 0.950 . S
H1403 C1408 0.949 . S
H1404 C1410 0.950 . S
H1405 C1411 0.950 . S
H1406 C1412 0.949 . S
C1407 H1402 0.950 . S
C1407 C1409 1.327 . S
C1407 C1413 1.429 . S
C1408 C1400 1.574 . S
C1408 H1403 0.949 . S
C1408 C1414 1.368 . S
C1409 C1393 1.349 . S
C1409 H1401 0.950 . S
C1409 C1407 1.327 . S
C1410 C1398 1.349 . S
C1410 H1404 0.950 . S
C1410 C1411 1.327 . S
C1411 H1405 0.950 . S
C1411 C1410 1.327 . S
C1411 C1415 1.429 . S
C1412 C1395 1.574 . S
C1412 H1406 0.949 . S
C1412 C1416 1.368 . S
C1413 C1394 1.429 . S
C1413 C1407 1.429 . S
C1413 C1414 1.523 . S
C1414 C1395 1.368 . S
C1414 C1408 1.368 . S
C1414 C1413 1.523 . S
C1415 C1399 1.429 . S
C1415 C1411 1.429 . S
C1415 C1416 1.523 . S
C1416 C1400 1.368 . S
C1416 C1412 1.368 . S
C1416 C1415 1.523 . S
H1417 C1392 0.950 . S
H1418 C1394 0.950 . S
H1419 C1395 0.949 . S
H1420 C1397 0.950 . S
H1421 C1399 0.950 . S
C1422 C1423 1.349 . S
C1422 C1424 1.327 . S
C1422 H1447 0.950 . S
C1423 C1422 1.349 . S
C1423 C1439 1.376 . S
C1424 C1422 1.327 . S
C1424 C1443 1.429 . S
C1424 H1448 0.950 . S
C1425 C1442 1.574 . S
C1425 C1444 1.364 1_546 S
C1425 H1449 0.949 1_545 S
H1426 C1430 0.949 . S
C1427 C1428 1.349 1_556 S
C1427 C1429 1.327 . S
C1427 H1450 0.950 . S
C1428 C1427 1.349 1_554 S
C1428 C1440 1.349 . S
C1429 C1427 1.327 . S
C1429 C1445 1.429 1_556 S
C1429 H1451 0.950 . S
C1430 H1426 0.949 . S
C1430 C1438 1.574 . S
C1430 C1446 1.368 . S
H1431 C1439 0.928 1_556 S
H1432 C1437 1.004 . S
H1433 C1438 0.949 . S
H1434 C1440 0.950 . S
H1435 C1441 0.950 . S
H1436 C1442 0.949 . S
C1437 H1432 1.004 . S
C1437 C1439 1.314 1_556 S
C1437 C1443 1.387 1_556 S
C1438 C1430 1.574 . S
C1438 H1433 0.949 . S
C1438 C1444 1.363 1_545 S
C1439 C1423 1.376 . S
C1439 H1431 0.928 1_554 S
C1439 C1437 1.314 1_554 S
C1440 C1428 1.349 . S
C1440 H1434 0.950 . S
C1440 C1441 1.327 . S
C1441 H1435 0.950 . S
C1441 C1440 1.327 . S
C1441 C1445 1.429 . S
C1442 C1425 1.574 . S
C1442 H1436 0.949 . S
C1442 C1446 1.368 1_556 S
C1443 C1424 1.429 . S
C1443 C1437 1.387 1_554 S
C1443 C1444 1.536 . S
C1444 C1425 1.364 1_564 S
C1444 C1438 1.363 1_565 S
C1444 C1443 1.536 . S
C1445 C1429 1.429 1_554 S
C1445 C1441 1.429 . S
C1445 C1446 1.523 . S
C1446 C1430 1.368 . S
C1446 C1442 1.368 1_554 S
C1446 C1445 1.523 . S
H1447 C1422 0.950 . S
H1448 C1424 0.950 . S
H1449 C1425 0.949 1_565 S
H1450 C1427 0.950 . S
H1451 C1429 0.950 . S
C1452 C1453 1.349 . S
C1452 C1454 1.327 . S
C1452 H1477 0.950 . S
C1453 C1452 1.349 . S
C1453 C1469 1.349 . S
C1454 C1452 1.327 . S
C1454 C1473 1.429 . S
C1454 H1478 0.950 . S
C1455 C1472 1.574 . S
C1455 C1474 1.368 . S
C1455 H1479 0.949 . S
H1456 C1460 0.949 . S
C1457 C1458 1.349 . S
C1457 C1459 1.327 . S
C1457 H1480 0.950 . S
C1458 C1457 1.349 . S
C1458 C1470 1.349 . S
C1459 C1457 1.327 . S
C1459 C1475 1.429 . S
C1459 H1481 0.950 . S
C1460 H1456 0.949 . S
C1460 C1468 1.574 . S
C1460 C1476 1.368 . S
H1461 C1469 0.950 . S
H1462 C1467 0.950 . S
H1463 C1468 0.949 . S
H1464 C1470 0.950 . S
H1465 C1471 0.950 . S
H1466 C1472 0.949 . S
C1467 H1462 0.950 . S
C1467 C1469 1.327 . S
C1467 C1473 1.429 . S
C1468 C1460 1.574 . S
C1468 H1463 0.949 . S
C1468 C1474 1.368 . S
C1469 C1453 1.349 . S
C1469 H1461 0.950 . S
C1469 C1467 1.327 . S
C1470 C1458 1.349 . S
C1470 H1464 0.950 . S
C1470 C1471 1.327 . S
C1471 H1465 0.950 . S
C1471 C1470 1.327 . S
C1471 C1475 1.429 . S
C1472 C1455 1.574 . S
C1472 H1466 0.949 . S
C1472 C1476 1.368 . S
C1473 C1454 1.429 . S
C1473 C1467 1.429 . S
C1473 C1474 1.523 . S
C1474 C1455 1.368 . S
C1474 C1468 1.368 . S
C1474 C1473 1.523 . S
C1475 C1459 1.429 . S
C1475 C1471 1.429 . S
C1475 C1476 1.523 . S
C1476 C1460 1.368 . S
C1476 C1472 1.368 . S
C1476 C1475 1.523 . S
H1477 C1452 0.950 . S
H1478 C1454 0.950 . S
H1479 C1455 0.949 . S
H1480 C1457 0.950 . S
H1481 C1459 0.950 . S
C1482 C1483 1.336 1_556 S
C1482 C1484 1.327 . S
C1482 H1507 0.950 . S
C1483 C1482 1.336 1_554 S
C1483 C1499 1.362 . S
C1484 C1482 1.327 . S
C1484 C1503 1.429 . S
C1484 H1508 0.950 . S
C1485 C1502 1.574 . S
C1485 C1504 1.368 1_554 S
C1485 H1509 0.949 . S
H1486 C1490 0.949 . S
C1487 C1488 1.349 1_554 S
C1487 C1489 1.327 . S
C1487 H1510 0.950 . S
C1488 C1487 1.349 1_556 S
C1488 C1500 1.349 . S
C1489 C1487 1.327 . S
C1489 C1505 1.429 1_554 S
C1489 H1511 0.950 . S
C1490 H1486 0.949 . S
C1490 C1498 1.574 . S
C1490 C1506 1.368 . S
H1491 C1499 0.950 . S
H1492 C1497 0.950 . S
H1493 C1498 0.949 . S
H1494 C1500 0.950 . S
H1495 C1501 0.950 . S
H1496 C1502 0.949 . S
C1497 H1492 0.950 . S
C1497 C1499 1.327 . S
C1497 C1503 1.429 1_554 S
C1498 C1490 1.574 . S
C1498 H1493 0.949 . S
C1498 C1504 1.368 . S
C1499 C1483 1.362 . S
C1499 H1491 0.950 . S
C1499 C1497 1.327 . S
C1500 C1488 1.349 . S
C1500 H1494 0.950 . S
C1500 C1501 1.327 . S
C1501 H1495 0.950 . S
C1501 C1500 1.327 . S
C1501 C1505 1.429 . S
C1502 C1485 1.574 . S
C1502 H1496 0.949 . S
C1502 C1506 1.368 1_554 S
C1503 C1484 1.429 . S
C1503 C1497 1.429 1_556 S
C1503 C1504 1.523 . S
C1504 C1485 1.368 1_556 S
C1504 C1498 1.368 . S
C1504 C1503 1.523 . S
C1505 C1489 1.429 1_556 S
C1505 C1501 1.429 . S
C1505 C1506 1.523 . S
C1506 C1490 1.368 . S
C1506 C1502 1.368 1_556 S
C1506 C1505 1.523 . S
H1507 C1482 0.950 . S
H1508 C1484 0.950 . S
H1509 C1485 0.949 . S
H1510 C1487 0.950 . S
H1511 C1489 0.950 . S
C1512 C1513 1.349 . S
C1512 C1514 1.327 . S
C1512 H1537 0.950 . S
C1513 C1512 1.349 . S
C1513 C1529 1.349 . S
C1514 C1512 1.327 . S
C1514 C1533 1.429 . S
C1514 H1538 0.950 . S
C1515 C1532 1.574 . S
C1515 C1534 1.368 . S
C1515 H1539 0.949 . S
H1516 C1520 0.949 . S
C1517 C1518 1.349 . S
C1517 C1519 1.327 . S
C1517 H1540 0.950 . S
C1518 C1517 1.349 . S
C1518 C1530 1.349 . S
C1519 C1517 1.327 . S
C1519 C1535 1.429 . S
C1519 H1541 0.950 . S
C1520 H1516 0.949 . S
C1520 C1528 1.574 . S
C1520 C1536 1.368 . S
H1521 C1529 0.950 . S
H1522 C1527 0.950 . S
H1523 C1528 0.949 . S
H1524 C1530 0.950 . S
H1525 C1531 0.950 . S
H1526 C1532 0.949 . S
C1527 H1522 0.950 . S
C1527 C1529 1.327 . S
C1527 C1533 1.429 . S
C1528 C1520 1.574 . S
C1528 H1523 0.949 . S
C1528 C1534 1.368 . S
C1529 C1513 1.349 . S
C1529 H1521 0.950 . S
C1529 C1527 1.327 . S
C1530 C1518 1.349 . S
C1530 H1524 0.950 . S
C1530 C1531 1.327 . S
C1531 H1525 0.950 . S
C1531 C1530 1.327 . S
C1531 C1535 1.429 . S
C1532 C1515 1.574 . S
C1532 H1526 0.949 . S
C1532 C1536 1.368 . S
C1533 C1514 1.429 . S
C1533 C1527 1.429 . S
C1533 C1534 1.523 . S
C1534 C1515 1.368 . S
C1534 C1528 1.368 . S
C1534 C1533 1.523 . S
C1535 C1519 1.429 . S
C1535 C1531 1.429 . S
C1535 C1536 1.523 . S
C1536 C1520 1.368 . S
C1536 C1532 1.368 . S
C1536 C1535 1.523 . S
H1537 C1512 0.950 . S
H1538 C1514 0.950 . S
H1539 C1515 0.949 . S
H1540 C1517 0.950 . S
H1541 C1519 0.950 . S
C1542 C1543 1.349 . S
C1542 C1544 1.327 . S
C1542 H1567 0.950 . S
C1543 C1542 1.349 . S
C1543 C1559 1.349 . S
C1544 C1542 1.327 . S
C1544 C1563 1.429 . S
C1544 H1568 0.975 . S
C1545 C1562 1.574 . S
C1545 C1564 1.364 1_554 S
C1545 H1569 0.949 1_554 S
H1546 C1550 0.949 1_655 S
C1547 C1548 1.349 . S
C1547 C1549 1.327 . S
C1547 H1570 0.950 . S
C1548 C1547 1.349 . S
C1548 C1560 1.362 . S
C1549 C1547 1.327 . S
C1549 C1565 1.429 . S
C1549 H1571 0.950 . S
C1550 H1546 0.949 1_455 S
C1550 C1558 1.574 . S
C1550 C1566 1.368 . S
H1551 C1559 0.950 . S
H1552 C1557 0.950 . S
H1553 C1558 0.926 1_655 S
H1554 C1560 0.933 1_655 S
H1555 C1561 0.950 1_655 S
H1556 C1562 0.949 . S
C1557 H1552 0.950 . S
C1557 C1559 1.327 . S
C1557 C1563 1.429 . S
C1558 C1550 1.574 . S
C1558 H1553 0.926 1_455 S
C1558 C1564 1.363 1_554 S
C1559 C1543 1.349 . S
C1559 H1551 0.950 . S
C1559 C1557 1.327 . S
C1560 C1548 1.362 . S
C1560 H1554 0.933 1_455 S
C1560 C1561 1.332 . S
C1561 H1555 0.950 1_455 S
C1561 C1560 1.332 . S
C1561 C1565 1.429 . S
C1562 C1545 1.574 . S
C1562 H1556 0.949 . S
C1562 C1566 1.368 . S
C1563 C1544 1.429 . S
C1563 C1557 1.429 . S
C1563 C1564 1.536 . S
C1564 C1545 1.364 1_556 S
C1564 C1558 1.363 1_556 S
C1564 C1563 1.536 . S
C1565 C1549 1.429 . S
C1565 C1561 1.429 . S
C1565 C1566 1.523 . S
C1566 C1550 1.368 . S
C1566 C1562 1.368 . S
C1566 C1565 1.523 . S
H1567 C1542 0.950 . S
H1568 C1544 0.975 . S
H1569 C1545 0.949 1_556 S
H1570 C1547 0.950 . S
H1571 C1549 0.950 . S
C1572 C1573 1.349 . S
C1572 C1574 1.327 . S
C1572 H1597 0.950 . S
C1573 C1572 1.349 . S
C1573 C1589 1.349 . S
C1574 C1572 1.327 . S
C1574 C1593 1.429 . S
C1574 H1598 0.950 . S
C1575 C1592 1.574 . S
C1575 C1594 1.368 . S
C1575 H1599 0.949 . S
H1576 C1580 0.949 . S
C1577 C1578 1.349 . S
C1577 C1579 1.327 . S
C1577 H1600 0.950 . S
C1578 C1577 1.349 . S
C1578 C1590 1.349 . S
C1579 C1577 1.327 . S
C1579 C1595 1.429 . S
C1579 H1601 0.950 . S
C1580 H1576 0.949 . S
C1580 C1588 1.574 . S
C1580 C1596 1.368 . S
H1581 C1589 0.950 . S
H1582 C1587 0.950 . S
H1583 C1588 0.949 . S
H1584 C1590 0.950 . S
H1585 C1591 0.950 . S
H1586 C1592 0.949 . S
C1587 H1582 0.950 . S
C1587 C1589 1.327 . S
C1587 C1593 1.429 . S
C1588 C1580 1.574 . S
C1588 H1583 0.949 . S
C1588 C1594 1.368 . S
C1589 C1573 1.349 . S
C1589 H1581 0.950 . S
C1589 C1587 1.327 . S
C1590 C1578 1.349 . S
C1590 H1584 0.950 . S
C1590 C1591 1.327 . S
C1591 H1585 0.950 . S
C1591 C1590 1.327 . S
C1591 C1595 1.429 . S
C1592 C1575 1.574 . S
C1592 H1586 0.949 . S
C1592 C1596 1.368 . S
C1593 C1574 1.429 . S
C1593 C1587 1.429 . S
C1593 C1594 1.523 . S
C1594 C1575 1.368 . S
C1594 C1588 1.368 . S
C1594 C1593 1.523 . S
C1595 C1579 1.429 . S
C1595 C1591 1.429 . S
C1595 C1596 1.523 . S
C1596 C1580 1.368 . S
C1596 C1592 1.368 . S
C1596 C1595 1.523 . S
H1597 C1572 0.950 . S
H1598 C1574 0.950 . S
H1599 C1575 0.949 . S
H1600 C1577 0.950 . S
H1601 C1579 0.950 . S
C1602 C1603 1.337 1_655 S
C1602 C1604 1.327 . S
C1602 H1627 0.950 . S
C1603 C1602 1.337 1_455 S
C1603 C1619 1.361 . S
C1604 C1602 1.327 . S
C1604 C1623 1.429 . S
C1604 H1628 0.950 . S
C1605 C1622 1.574 . S
C1605 C1624 1.368 1_455 S
C1605 H1629 0.949 . S
H1606 C1610 0.949 . S
C1607 C1608 1.349 1_455 S
C1607 C1609 1.327 . S
C1607 H1630 0.950 . S
C1608 C1607 1.349 1_655 S
C1608 C1620 1.349 . S
C1609 C1607 1.327 . S
C1609 C1625 1.429 1_455 S
C1609 H1631 0.950 . S
C1610 H1606 0.949 . S
C1610 C1618 1.574 . S
C1610 C1626 1.368 . S
H1611 C1619 0.950 . S
H1612 C1617 0.950 . S
H1613 C1618 0.949 . S
H1614 C1620 0.950 . S
H1615 C1621 0.950 . S
H1616 C1622 0.949 . S
C1617 H1612 0.950 . S
C1617 C1619 1.327 . S
C1617 C1623 1.429 1_455 S
C1618 C1610 1.574 . S
C1618 H1613 0.949 . S
C1618 C1624 1.368 . S
C1619 C1603 1.361 . S
C1619 H1611 0.950 . S
C1619 C1617 1.327 . S
C1620 C1608 1.349 . S
C1620 H1614 0.950 . S
C1620 C1621 1.327 . S
C1621 H1615 0.950 . S
C1621 C1620 1.327 . S
C1621 C1625 1.429 . S
C1622 C1605 1.574 . S
C1622 H1616 0.949 . S
C1622 C1626 1.368 1_455 S
C1623 C1604 1.429 . S
C1623 C1617 1.429 1_655 S
C1623 C1624 1.523 . S
C1624 C1605 1.368 1_655 S
C1624 C1618 1.368 . S
C1624 C1623 1.523 . S
C1625 C1609 1.429 1_655 S
C1625 C1621 1.429 . S
C1625 C1626 1.523 . S
C1626 C1610 1.368 . S
C1626 C1622 1.368 1_655 S
C1626 C1625 1.523 . S
H1627 C1602 0.950 . S
H1628 C1604 0.950 . S
H1629 C1605 0.949 . S
H1630 C1607 0.950 . S
H1631 C1609 0.950 . S
C1632 C1633 1.349 . S
C1632 C1634 1.327 . S
C1632 H1657 0.950 . S
C1633 C1632 1.349 . S
C1633 C1649 1.349 . S
C1634 C1632 1.327 . S
C1634 C1653 1.429 . S
C1634 H1658 0.950 . S
C1635 C1652 1.574 . S
C1635 C1654 1.368 . S
C1635 H1659 0.949 . S
H1636 C1640 0.949 . S
C1637 C1638 1.349 . S
C1637 C1639 1.327 . S
C1637 H1660 0.950 . S
C1638 C1637 1.349 . S
C1638 C1650 1.349 . S
C1639 C1637 1.327 . S
C1639 C1655 1.429 . S
C1639 H1661 0.950 . S
C1640 H1636 0.949 . S
C1640 C1648 1.574 . S
C1640 C1656 1.368 . S
H1641 C1649 0.950 . S
H1642 C1647 0.950 . S
H1643 C1648 0.949 . S
H1644 C1650 0.950 . S
H1645 C1651 0.950 . S
H1646 C1652 0.949 . S
C1647 H1642 0.950 . S
C1647 C1649 1.327 . S
C1647 C1653 1.429 . S
C1648 C1640 1.574 . S
C1648 H1643 0.949 . S
C1648 C1654 1.368 . S
C1649 C1633 1.349 . S
C1649 H1641 0.950 . S
C1649 C1647 1.327 . S
C1650 C1638 1.349 . S
C1650 H1644 0.950 . S
C1650 C1651 1.327 . S
C1651 H1645 0.950 . S
C1651 C1650 1.327 . S
C1651 C1655 1.429 . S
C1652 C1635 1.574 . S
C1652 H1646 0.949 . S
C1652 C1656 1.368 . S
C1653 C1634 1.429 . S
C1653 C1647 1.429 . S
C1653 C1654 1.523 . S
C1654 C1635 1.368 . S
C1654 C1648 1.368 . S
C1654 C1653 1.523 . S
C1655 C1639 1.429 . S
C1655 C1651 1.429 . S
C1655 C1656 1.523 . S
C1656 C1640 1.368 . S
C1656 C1652 1.368 . S
C1656 C1655 1.523 . S
H1657 C1632 0.950 . S
H1658 C1634 0.950 . S
H1659 C1635 0.949 . S
H1660 C1637 0.950 . S
H1661 C1639 0.950 . S
C1662 C1663 1.349 . S
C1662 C1664 1.327 . S
C1662 H1687 0.950 . S
C1663 C1662 1.349 . S
C1663 C1679 1.349 . S
C1664 C1662 1.327 . S
C1664 C1683 1.429 . S
C1664 H1688 0.950 . S
C1665 C1682 1.574 . S
C1665 C1684 1.368 . S
C1665 H1689 0.949 . S
H1666 C1670 0.949 . S
C1667 C1668 1.349 . S
C1667 C1669 1.327 . S
C1667 H1690 0.950 . S
C1668 C1667 1.349 . S
C1668 C1680 1.349 . S
C1669 C1667 1.327 . S
C1669 C1685 1.429 . S
C1669 H1691 0.950 . S
C1670 H1666 0.949 . S
C1670 C1678 1.574 . S
C1670 C1686 1.368 . S
H1671 C1679 0.950 . S
H1672 C1677 0.950 . S
H1673 C1678 0.949 . S
H1674 C1680 0.950 . S
H1675 C1681 0.950 . S
H1676 C1682 0.949 . S
C1677 H1672 0.950 . S
C1677 C1679 1.327 . S
C1677 C1683 1.429 . S
C1678 C1670 1.574 . S
C1678 H1673 0.949 . S
C1678 C1684 1.368 . S
C1679 C1663 1.349 . S
C1679 H1671 0.950 . S
C1679 C1677 1.327 . S
C1680 C1668 1.349 . S
C1680 H1674 0.950 . S
C1680 C1681 1.327 . S
C1681 H1675 0.950 . S
C1681 C1680 1.327 . S
C1681 C1685 1.429 . S
C1682 C1665 1.574 . S
C1682 H1676 0.949 . S
C1682 C1686 1.368 . S
C1683 C1664 1.429 . S
C1683 C1677 1.429 . S
C1683 C1684 1.523 . S
C1684 C1665 1.368 . S
C1684 C1678 1.368 . S
C1684 C1683 1.523 . S
C1685 C1669 1.429 . S
C1685 C1681 1.429 . S
C1685 C1686 1.523 . S
C1686 C1670 1.368 . S
C1686 C1682 1.368 . S
C1686 C1685 1.523 . S
H1687 C1662 0.950 . S
H1688 C1664 0.950 . S
H1689 C1665 0.949 . S
H1690 C1667 0.950 . S
H1691 C1669 0.950 . S
C1692 C1693 1.360 . S
C1692 C1694 1.327 . S
C1692 H1717 0.950 . S
C1693 C1692 1.360 . S
C1693 C1709 1.338 1_565 S
C1694 C1692 1.327 . S
C1694 C1713 1.429 1_565 S
C1694 H1718 0.950 . S
C1695 C1712 1.574 . S
C1695 C1714 1.368 . S
C1695 H1719 0.949 . S
H1696 C1700 0.949 . S
C1697 C1698 1.349 . S
C1697 C1699 1.327 . S
C1697 H1720 0.950 . S
C1698 C1697 1.349 . S
C1698 C1710 1.349 1_545 S
C1699 C1697 1.327 . S
C1699 C1715 1.429 . S
C1699 H1721 0.950 . S
C1700 H1696 0.949 . S
C1700 C1708 1.574 . S
C1700 C1716 1.368 1_565 S
H1701 C1709 0.950 . S
H1702 C1707 0.950 . S
H1703 C1708 0.949 . S
H1704 C1710 0.950 . S
H1705 C1711 0.950 . S
H1706 C1712 0.949 . S
C1707 H1702 0.950 . S
C1707 C1709 1.327 . S
C1707 C1713 1.429 . S
C1708 C1700 1.574 . S
C1708 H1703 0.949 . S
C1708 C1714 1.368 1_565 S
C1709 C1693 1.338 1_545 S
C1709 H1701 0.950 . S
C1709 C1707 1.327 . S
C1710 C1698 1.349 1_565 S
C1710 H1704 0.950 . S
C1710 C1711 1.327 . S
C1711 H1705 0.950 . S
C1711 C1710 1.327 . S
C1711 C1715 1.429 1_565 S
C1712 C1695 1.574 . S
C1712 H1706 0.949 . S
C1712 C1716 1.368 . S
C1713 C1694 1.429 1_545 S
C1713 C1707 1.429 . S
C1713 C1714 1.523 . S
C1714 C1695 1.368 . S
C1714 C1708 1.368 1_545 S
C1714 C1713 1.523 . S
C1715 C1699 1.429 . S
C1715 C1711 1.429 1_545 S
C1715 C1716 1.523 . S
C1716 C1700 1.368 1_545 S
C1716 C1712 1.368 . S
C1716 C1715 1.523 . S
H1717 C1692 0.950 . S
H1718 C1694 0.950 . S
H1719 C1695 0.949 . S
H1720 C1697 0.950 . S
H1721 C1699 0.950 . S
C1722 C1723 1.349 . S
C1722 C1724 1.327 . S
C1722 H1747 0.950 . S
C1723 C1722 1.349 . S
C1723 C1739 1.349 . S
C1724 C1722 1.327 . S
C1724 C1743 1.429 . S
C1724 H1748 0.950 . S
C1725 C1742 1.574 . S
C1725 C1744 1.363 1_655 S
C1725 H1749 0.949 . S
H1726 C1730 0.949 . S
C1727 C1728 1.349 . S
C1727 C1729 1.327 . S
C1727 H1750 0.950 1_565 S
C1728 C1727 1.349 . S
C1728 C1740 1.349 . S
C1729 C1727 1.327 . S
C1729 C1745 1.429 . S
C1729 H1751 0.928 1_565 S
C1730 H1726 0.949 . S
C1730 C1738 1.574 . S
C1730 C1746 1.368 . S
H1731 C1739 0.950 . S
H1732 C1737 0.950 . S
H1733 C1738 0.949 1_455 S
H1734 C1740 0.950 . S
H1735 C1741 0.950 . S
H1736 C1742 0.960 . S
C1737 H1732 0.950 . S
C1737 C1739 1.327 . S
C1737 C1743 1.429 . S
C1738 C1730 1.574 . S
C1738 H1733 0.949 1_655 S
C1738 C1744 1.364 1_655 S
C1739 C1723 1.349 . S
C1739 H1731 0.950 . S
C1739 C1737 1.327 . S
C1740 C1728 1.349 . S
C1740 H1734 0.950 . S
C1740 C1741 1.327 . S
C1741 H1735 0.950 . S
C1741 C1740 1.327 . S
C1741 C1745 1.429 . S
C1742 C1725 1.574 . S
C1742 H1736 0.960 . S
C1742 C1746 1.368 . S
C1743 C1724 1.429 . S
C1743 C1737 1.429 . S
C1743 C1744 1.536 . S
C1744 C1725 1.363 1_455 S
C1744 C1738 1.364 1_455 S
C1744 C1743 1.536 . S
C1745 C1729 1.429 . S
C1745 C1741 1.429 . S
C1745 C1746 1.523 . S
C1746 C1730 1.368 . S
C1746 C1742 1.368 . S
C1746 C1745 1.523 . S
H1747 C1722 0.950 . S
H1748 C1724 0.950 . S
H1749 C1725 0.949 . S
H1750 C1727 0.950 1_545 S
H1751 C1729 0.928 1_545 S
C1752 C1753 1.349 . S
C1752 C1754 1.327 . S
C1752 H1777 0.950 . S
C1753 C1752 1.349 . S
C1753 C1769 1.349 . S
C1754 C1752 1.327 . S
C1754 C1773 1.429 . S
C1754 H1778 0.950 . S
C1755 C1772 1.574 . S
C1755 C1774 1.368 . S
C1755 H1779 0.949 . S
H1756 C1760 0.949 . S
C1757 C1758 1.349 . S
C1757 C1759 1.327 . S
C1757 H1780 0.950 . S
C1758 C1757 1.349 . S
C1758 C1770 1.349 . S
C1759 C1757 1.327 . S
C1759 C1775 1.429 . S
C1759 H1781 0.950 . S
C1760 H1756 0.949 . S
C1760 C1768 1.574 . S
C1760 C1776 1.368 . S
H1761 C1769 0.950 . S
H1762 C1767 0.950 . S
H1763 C1768 0.949 . S
H1764 C1770 0.950 . S
H1765 C1771 0.950 . S
H1766 C1772 0.949 . S
C1767 H1762 0.950 . S
C1767 C1769 1.327 . S
C1767 C1773 1.429 . S
C1768 C1760 1.574 . S
C1768 H1763 0.949 . S
C1768 C1774 1.368 . S
C1769 C1753 1.349 . S
C1769 H1761 0.950 . S
C1769 C1767 1.327 . S
C1770 C1758 1.349 . S
C1770 H1764 0.950 . S
C1770 C1771 1.327 . S
C1771 H1765 0.950 . S
C1771 C1770 1.327 . S
C1771 C1775 1.429 . S
C1772 C1755 1.574 . S
C1772 H1766 0.949 . S
C1772 C1776 1.368 . S
C1773 C1754 1.429 . S
C1773 C1767 1.429 . S
C1773 C1774 1.523 . S
C1774 C1755 1.368 . S
C1774 C1768 1.368 . S
C1774 C1773 1.523 . S
C1775 C1759 1.429 . S
C1775 C1771 1.429 . S
C1775 C1776 1.523 . S
C1776 C1760 1.368 . S
C1776 C1772 1.368 . S
C1776 C1775 1.523 . S
H1777 C1752 0.950 . S
H1778 C1754 0.950 . S
H1779 C1755 0.949 . S
H1780 C1757 0.950 . S
H1781 C1759 0.950 . S
C1782 C1783 1.349 . S
C1782 C1784 1.327 . S
C1782 H1807 0.950 1_556 S
C1783 C1782 1.349 . S
C1783 C1799 1.349 . S
C1784 C1782 1.327 . S
C1784 C1803 1.429 . S
C1784 H1808 0.950 1_556 S
C1785 C1802 1.574 . S
C1785 C1804 1.363 1_565 S
C1785 H1809 0.970 . S
H1786 C1790 0.949 . S
C1787 C1788 1.349 . S
C1787 C1789 1.327 . S
C1787 H1810 0.950 . S
C1788 C1787 1.349 . S
C1788 C1800 1.349 1_556 S
C1789 C1787 1.327 . S
C1789 C1805 1.429 . S
C1789 H1811 0.950 . S
C1790 H1786 0.949 . S
C1790 C1798 1.575 . S
C1790 C1806 1.368 1_554 S
H1791 C1799 0.950 . S
H1792 C1797 0.950 . S
H1793 C1798 0.918 1_545 S
H1794 C1800 0.950 . S
H1795 C1801 0.950 . S
H1796 C1802 0.949 . S
C1797 H1792 0.950 . S
C1797 C1799 1.327 . S
C1797 C1803 1.429 . S
C1798 C1790 1.575 . S
C1798 H1793 0.918 1_565 S
C1798 C1804 1.356 1_564 S
C1799 C1783 1.349 . S
C1799 H1791 0.950 . S
C1799 C1797 1.327 . S
C1800 C1788 1.349 1_554 S
C1800 H1794 0.950 . S
C1800 C1801 1.327 . S
C1801 H1795 0.950 . S
C1801 C1800 1.327 . S
C1801 C1805 1.429 1_554 S
C1802 C1785 1.574 . S
C1802 H1796 0.949 . S
C1802 C1806 1.368 . S
C1803 C1784 1.429 . S
C1803 C1797 1.429 . S
C1803 C1804 1.536 . S
C1804 C1785 1.363 1_545 S
C1804 C1798 1.356 1_546 S
C1804 C1803 1.536 . S
C1805 C1789 1.429 . S
C1805 C1801 1.429 1_556 S
C1805 C1806 1.523 . S
C1806 C1790 1.368 1_556 S
C1806 C1802 1.368 . S
C1806 C1805 1.523 . S
H1807 C1782 0.950 1_554 S
H1808 C1784 0.950 1_554 S
H1809 C1785 0.970 . S
H1810 C1787 0.950 . S
H1811 C1789 0.950 . S
C1812 C1813 1.349 . S
C1812 C1814 1.327 . S
C1812 H1837 0.950 . S
C1813 C1812 1.349 . S
C1813 C1829 1.349 . S
C1814 C1812 1.327 . S
C1814 C1833 1.429 . S
C1814 H1838 0.950 . S
C1815 C1832 1.574 . S
C1815 C1834 1.368 . S
C1815 H1839 0.949 . S
H1816 C1820 0.949 . S
C1817 C1818 1.349 . S
C1817 C1819 1.327 . S
C1817 H1840 0.950 . S
C1818 C1817 1.349 . S
C1818 C1830 1.349 . S
C1819 C1817 1.327 . S
C1819 C1835 1.429 . S
C1819 H1841 0.950 . S
C1820 H1816 0.949 . S
C1820 C1828 1.574 . S
C1820 C1836 1.368 . S
H1821 C1829 0.950 . S
H1822 C1827 0.950 . S
H1823 C1828 0.949 . S
H1824 C1830 0.950 . S
H1825 C1831 0.950 . S
H1826 C1832 0.949 . S
C1827 H1822 0.950 . S
C1827 C1829 1.327 . S
C1827 C1833 1.429 . S
C1828 C1820 1.574 . S
C1828 H1823 0.949 . S
C1828 C1834 1.368 . S
C1829 C1813 1.349 . S
C1829 H1821 0.950 . S
C1829 C1827 1.327 . S
C1830 C1818 1.349 . S
C1830 H1824 0.950 . S
C1830 C1831 1.327 . S
C1831 H1825 0.950 . S
C1831 C1830 1.327 . S
C1831 C1835 1.429 . S
C1832 C1815 1.574 . S
C1832 H1826 0.949 . S
C1832 C1836 1.368 . S
C1833 C1814 1.429 . S
C1833 C1827 1.429 . S
C1833 C1834 1.523 . S
C1834 C1815 1.368 . S
C1834 C1828 1.368 . S
C1834 C1833 1.523 . S
C1835 C1819 1.429 . S
C1835 C1831 1.429 . S
C1835 C1836 1.523 . S
C1836 C1820 1.368 . S
C1836 C1832 1.368 . S
C1836 C1835 1.523 . S
H1837 C1812 0.950 . S
H1838 C1814 0.950 . S
H1839 C1815 0.949 . S
H1840 C1817 0.950 . S
H1841 C1819 0.950 . S
C1842 C1843 1.337 1_554 S
C1842 C1844 1.327 . S
C1842 H1867 0.950 . S
C1843 C1842 1.337 1_556 S
C1843 C1859 1.361 . S
C1844 C1842 1.327 . S
C1844 C1863 1.429 . S
C1844 H1868 0.950 . S
C1845 C1862 1.574 . S
C1845 C1864 1.368 1_556 S
C1845 H1869 0.949 . S
H1846 C1850 0.949 . S
C1847 C1848 1.349 1_556 S
C1847 C1849 1.327 . S
C1847 H1870 0.950 . S
C1848 C1847 1.349 1_554 S
C1848 C1860 1.349 . S
C1849 C1847 1.327 . S
C1849 C1865 1.429 1_556 S
C1849 H1871 0.950 . S
C1850 H1846 0.949 . S
C1850 C1858 1.574 . S
C1850 C1866 1.368 . S
H1851 C1859 0.950 . S
H1852 C1857 0.950 . S
H1853 C1858 0.949 . S
H1854 C1860 0.950 . S
H1855 C1861 0.950 . S
H1856 C1862 0.949 . S
C1857 H1852 0.950 . S
C1857 C1859 1.327 . S
C1857 C1863 1.429 1_556 S
C1858 C1850 1.574 . S
C1858 H1853 0.949 . S
C1858 C1864 1.368 . S
C1859 C1843 1.361 . S
C1859 H1851 0.950 . S
C1859 C1857 1.327 . S
C1860 C1848 1.349 . S
C1860 H1854 0.950 . S
C1860 C1861 1.327 . S
C1861 H1855 0.950 . S
C1861 C1860 1.327 . S
C1861 C1865 1.429 . S
C1862 C1845 1.574 . S
C1862 H1856 0.949 . S
C1862 C1866 1.368 1_556 S
C1863 C1844 1.429 . S
C1863 C1857 1.429 1_554 S
C1863 C1864 1.523 . S
C1864 C1845 1.368 1_554 S
C1864 C1858 1.368 . S
C1864 C1863 1.523 . S
C1865 C1849 1.429 1_554 S
C1865 C1861 1.429 . S
C1865 C1866 1.523 . S
C1866 C1850 1.368 . S
C1866 C1862 1.368 1_554 S
C1866 C1865 1.523 . S
H1867 C1842 0.950 . S
H1868 C1844 0.950 . S
H1869 C1845 0.949 . S
H1870 C1847 0.950 . S
H1871 C1849 0.950 . S
C1872 C1873 1.349 . S
C1872 C1874 1.327 . S
C1872 H1897 0.950 . S
C1873 C1872 1.349 . S
C1873 C1889 1.349 . S
C1874 C1872 1.327 . S
C1874 C1893 1.429 . S
C1874 H1898 0.950 . S
C1875 C1892 1.574 . S
C1875 C1894 1.368 . S
C1875 H1899 0.949 . S
H1876 C1880 0.949 . S
C1877 C1878 1.349 . S
C1877 C1879 1.327 . S
C1877 H1900 0.950 . S
C1878 C1877 1.349 . S
C1878 C1890 1.349 . S
C1879 C1877 1.327 . S
C1879 C1895 1.429 . S
C1879 H1901 0.950 . S
C1880 H1876 0.949 . S
C1880 C1888 1.574 . S
C1880 C1896 1.368 . S
H1881 C1889 0.950 . S
H1882 C1887 0.950 . S
H1883 C1888 0.949 . S
H1884 C1890 0.950 . S
H1885 C1891 0.950 . S
H1886 C1892 0.949 . S
C1887 H1882 0.950 . S
C1887 C1889 1.327 . S
C1887 C1893 1.429 . S
C1888 C1880 1.574 . S
C1888 H1883 0.949 . S
C1888 C1894 1.368 . S
C1889 C1873 1.349 . S
C1889 H1881 0.950 . S
C1889 C1887 1.327 . S
C1890 C1878 1.349 . S
C1890 H1884 0.950 . S
C1890 C1891 1.327 . S
C1891 H1885 0.950 . S
C1891 C1890 1.327 . S
C1891 C1895 1.429 . S
C1892 C1875 1.574 . S
C1892 H1886 0.949 . S
C1892 C1896 1.368 . S
C1893 C1874 1.429 . S
C1893 C1887 1.429 . S
C1893 C1894 1.523 . S
C1894 C1875 1.368 . S
C1894 C1888 1.368 . S
C1894 C1893 1.523 . S
C1895 C1879 1.429 . S
C1895 C1891 1.429 . S
C1895 C1896 1.523 . S
C1896 C1880 1.368 . S
C1896 C1892 1.368 . S
C1896 C1895 1.523 . S
H1897 C1872 0.950 . S
H1898 C1874 0.950 . S
H1899 C1875 0.949 . S
H1900 C1877 0.950 . S
H1901 C1879 0.950 . S
C1902 C1903 1.349 . S
C1902 C1904 1.327 . S
C1902 H1927 0.950 1_655 S
C1903 C1902 1.349 . S
C1903 C1919 1.349 . S
C1904 C1902 1.327 . S
C1904 C1923 1.429 . S
C1904 H1928 0.950 1_655 S
C1905 C1922 1.574 . S
C1905 C1924 1.362 1_556 S
C1905 H1929 0.949 . S
H1906 C1910 0.970 . S
C1907 C1908 1.349 . S
C1907 C1909 1.327 . S
C1907 H1930 0.950 . S
C1908 C1907 1.349 . S
C1908 C1920 1.349 1_655 S
C1909 C1907 1.327 . S
C1909 C1925 1.429 . S
C1909 H1931 0.950 . S
C1910 H1906 0.970 . S
C1910 C1918 1.564 1_455 S
C1910 C1926 1.351 1_455 S
H1911 C1919 0.950 . S
H1912 C1917 0.950 . S
H1913 C1918 0.933 1_454 S
H1914 C1920 0.950 . S
H1915 C1921 0.950 . S
H1916 C1922 0.949 . S
C1917 H1912 0.950 . S
C1917 C1919 1.327 . S
C1917 C1923 1.429 . S
C1918 C1910 1.564 1_655 S
C1918 H1913 0.933 1_656 S
C1918 C1924 1.390 1_556 S
C1919 C1903 1.349 . S
C1919 H1911 0.950 . S
C1919 C1917 1.327 . S
C1920 C1908 1.349 1_455 S
C1920 H1914 0.950 . S
C1920 C1921 1.327 . S
C1921 H1915 0.950 . S
C1921 C1920 1.327 . S
C1921 C1925 1.429 1_455 S
C1922 C1905 1.574 . S
C1922 H1916 0.949 . S
C1922 C1926 1.368 . S
C1923 C1904 1.429 . S
C1923 C1917 1.429 . S
C1923 C1924 1.536 . S
C1924 C1905 1.362 1_554 S
C1924 C1918 1.390 1_554 S
C1924 C1923 1.536 . S
C1925 C1909 1.429 . S
C1925 C1921 1.429 1_655 S
C1925 C1926 1.523 . S
C1926 C1910 1.351 1_655 S
C1926 C1922 1.368 . S
C1926 C1925 1.523 . S
H1927 C1902 0.950 1_455 S
H1928 C1904 0.950 1_455 S
H1929 C1905 0.949 . S
H1930 C1907 0.950 . S
H1931 C1909 0.950 . S
C1932 C1933 1.349 . S
C1932 C1934 1.327 . S
C1932 H1957 0.950 . S
C1933 C1932 1.349 . S
C1933 C1949 1.349 . S
C1934 C1932 1.327 . S
C1934 C1953 1.429 . S
C1934 H1958 0.950 . S
C1935 C1952 1.574 . S
C1935 C1954 1.368 . S
C1935 H1959 0.949 . S
H1936 C1940 0.949 . S
C1937 C1938 1.349 . S
C1937 C1939 1.327 . S
C1937 H1960 0.950 . S
C1938 C1937 1.349 . S
C1938 C1950 1.349 . S
C1939 C1937 1.327 . S
C1939 C1955 1.429 . S
C1939 H1961 0.950 . S
C1940 H1936 0.949 . S
C1940 C1948 1.574 . S
C1940 C1956 1.368 . S
H1941 C1949 0.950 . S
H1942 C1947 0.950 . S
H1943 C1948 0.949 . S
H1944 C1950 0.950 . S
H1945 C1951 0.950 . S
H1946 C1952 0.949 . S
C1947 H1942 0.950 . S
C1947 C1949 1.327 . S
C1947 C1953 1.429 . S
C1948 C1940 1.574 . S
C1948 H1943 0.949 . S
C1948 C1954 1.368 . S
C1949 C1933 1.349 . S
C1949 H1941 0.950 . S
C1949 C1947 1.327 . S
C1950 C1938 1.349 . S
C1950 H1944 0.950 . S
C1950 C1951 1.327 . S
C1951 H1945 0.950 . S
C1951 C1950 1.327 . S
C1951 C1955 1.429 . S
C1952 C1935 1.574 . S
C1952 H1946 0.949 . S
C1952 C1956 1.368 . S
C1953 C1934 1.429 . S
C1953 C1947 1.429 . S
C1953 C1954 1.523 . S
C1954 C1935 1.368 . S
C1954 C1948 1.368 . S
C1954 C1953 1.523 . S
C1955 C1939 1.429 . S
C1955 C1951 1.429 . S
C1955 C1956 1.523 . S
C1956 C1940 1.368 . S
C1956 C1952 1.368 . S
C1956 C1955 1.523 . S
H1957 C1932 0.950 . S
H1958 C1934 0.950 . S
H1959 C1935 0.949 . S
H1960 C1937 0.950 . S
H1961 C1939 0.950 . S
C1962 C1963 1.340 1_455 S
C1962 C1964 1.327 . S
C1962 H1987 0.950 . S
C1963 C1962 1.340 1_655 S
C1963 C1979 1.358 . S
C1964 C1962 1.327 . S
C1964 C1983 1.429 . S
C1964 H1988 0.950 . S
C1965 C1982 1.574 . S
C1965 C1984 1.368 1_655 S
C1965 H1989 0.949 . S
H1966 C1970 0.949 . S
C1967 C1968 1.383 . S
C1967 C1969 1.329 1_455 S
C1967 H1990 0.918 1_455 S
C1968 C1967 1.383 . S
C1968 C1980 1.349 . S
C1969 C1967 1.329 1_655 S
C1969 C1985 1.421 1_655 S
C1969 H1991 0.957 . S
C1970 H1966 0.949 . S
C1970 C1978 1.574 . S
C1970 C1986 1.368 . S
H1971 C1979 0.950 . S
H1972 C1977 0.950 . S
H1973 C1978 0.949 . S
H1974 C1980 0.950 . S
H1975 C1981 0.950 . S
H1976 C1982 0.949 . S
C1977 H1972 0.950 . S
C1977 C1979 1.327 . S
C1977 C1983 1.429 1_655 S
C1978 C1970 1.574 . S
C1978 H1973 0.949 . S
C1978 C1984 1.368 . S
C1979 C1963 1.358 . S
C1979 H1971 0.950 . S
C1979 C1977 1.327 . S
C1980 C1968 1.349 . S
C1980 H1974 0.950 . S
C1980 C1981 1.327 . S
C1981 H1975 0.950 . S
C1981 C1980 1.327 . S
C1981 C1985 1.429 . S
C1982 C1965 1.574 . S
C1982 H1976 0.949 . S
C1982 C1986 1.368 1_655 S
C1983 C1964 1.429 . S
C1983 C1977 1.429 1_455 S
C1983 C1984 1.523 . S
C1984 C1965 1.368 1_455 S
C1984 C1978 1.368 . S
C1984 C1983 1.523 . S
C1985 C1969 1.421 1_455 S
C1985 C1981 1.429 . S
C1985 C1986 1.523 . S
C1986 C1970 1.368 . S
C1986 C1982 1.368 1_455 S
C1986 C1985 1.523 . S
H1987 C1962 0.950 . S
H1988 C1964 0.950 . S
H1989 C1965 0.949 . S
H1990 C1967 0.918 1_655 S
H1991 C1969 0.957 . S
C1992 C1993 1.349 . S
C1992 C1994 1.327 . S
C1992 H2017 0.950 . S
C1993 C1992 1.349 . S
C1993 C2009 1.349 . S
C1994 C1992 1.327 . S
C1994 C2013 1.429 . S
C1994 H2018 0.950 . S
C1995 C2012 1.574 . S
C1995 C2014 1.368 . S
C1995 H2019 0.949 . S
H1996 C2000 0.949 . S
C1997 C1998 1.349 . S
C1997 C1999 1.327 . S
C1997 H2020 0.950 . S
C1998 C1997 1.349 . S
C1998 C2010 1.349 . S
C1999 C1997 1.327 . S
C1999 C2015 1.429 . S
C1999 H2021 0.950 . S
C2000 H1996 0.949 . S
C2000 C2008 1.574 . S
C2000 C2016 1.368 . S
H2001 C2009 0.950 . S
H2002 C2007 0.950 . S
H2003 C2008 0.949 . S
H2004 C2010 0.950 . S
H2005 C2011 0.950 . S
H2006 C2012 0.949 . S
C2007 H2002 0.950 . S
C2007 C2009 1.327 . S
C2007 C2013 1.429 . S
C2008 C2000 1.574 . S
C2008 H2003 0.949 . S
C2008 C2014 1.368 . S
C2009 C1993 1.349 . S
C2009 H2001 0.950 . S
C2009 C2007 1.327 . S
C2010 C1998 1.349 . S
C2010 H2004 0.950 . S
C2010 C2011 1.327 . S
C2011 H2005 0.950 . S
C2011 C2010 1.327 . S
C2011 C2015 1.429 . S
C2012 C1995 1.574 . S
C2012 H2006 0.949 . S
C2012 C2016 1.368 . S
C2013 C1994 1.429 . S
C2013 C2007 1.429 . S
C2013 C2014 1.523 . S
C2014 C1995 1.368 . S
C2014 C2008 1.368 . S
C2014 C2013 1.523 . S
C2015 C1999 1.429 . S
C2015 C2011 1.429 . S
C2015 C2016 1.523 . S
C2016 C2000 1.368 . S
C2016 C2012 1.368 . S
C2016 C2015 1.523 . S
H2017 C1992 0.950 . S
H2018 C1994 0.950 . S
H2019 C1995 0.949 . S
H2020 C1997 0.950 . S
H2021 C1999 0.950 . S
C2022 C2023 1.349 . S
C2022 C2024 1.327 . S
C2022 H2047 0.950 . S
C2023 C2022 1.349 . S
C2023 C2039 1.349 . S
C2024 C2022 1.327 . S
C2024 C2043 1.429 . S
C2024 H2048 0.950 . S
C2025 C2042 1.574 . S
C2025 C2044 1.368 . S
C2025 H2049 0.949 . S
H2026 C2030 0.949 . S
C2027 C2028 1.349 . S
C2027 C2029 1.327 . S
C2027 H2050 0.950 . S
C2028 C2027 1.349 . S
C2028 C2040 1.349 . S
C2029 C2027 1.327 . S
C2029 C2045 1.429 . S
C2029 H2051 0.950 . S
C2030 H2026 0.949 . S
C2030 C2038 1.574 . S
C2030 C2046 1.368 . S
H2031 C2039 0.950 . S
H2032 C2037 0.950 . S
H2033 C2038 0.949 . S
H2034 C2040 0.950 . S
H2035 C2041 0.950 . S
H2036 C2042 0.949 . S
C2037 H2032 0.950 . S
C2037 C2039 1.327 . S
C2037 C2043 1.429 . S
C2038 C2030 1.574 . S
C2038 H2033 0.949 . S
C2038 C2044 1.368 . S
C2039 C2023 1.349 . S
C2039 H2031 0.950 . S
C2039 C2037 1.327 . S
C2040 C2028 1.349 . S
C2040 H2034 0.950 . S
C2040 C2041 1.327 . S
C2041 H2035 0.950 . S
C2041 C2040 1.327 . S
C2041 C2045 1.429 . S
C2042 C2025 1.574 . S
C2042 H2036 0.949 . S
C2042 C2046 1.368 . S
C2043 C2024 1.429 . S
C2043 C2037 1.429 . S
C2043 C2044 1.523 . S
C2044 C2025 1.368 . S
C2044 C2038 1.368 . S
C2044 C2043 1.523 . S
C2045 C2029 1.429 . S
C2045 C2041 1.429 . S
C2045 C2046 1.523 . S
C2046 C2030 1.368 . S
C2046 C2042 1.368 . S
C2046 C2045 1.523 . S
H2047 C2022 0.950 . S
H2048 C2024 0.950 . S
H2049 C2025 0.949 . S
H2050 C2027 0.950 . S
H2051 C2029 0.950 . S
C2052 C2053 1.348 . S
C2052 C2054 1.327 . S
C2052 H2077 0.950 . S
C2053 C2052 1.348 . S
C2053 C2069 1.349 1_545 S
C2054 C2052 1.327 . S
C2054 C2073 1.414 1_545 S
C2054 H2078 0.950 . S
C2055 C2072 1.574 . S
C2055 C2074 1.400 . S
C2055 H2079 0.949 . S
H2056 C2060 0.949 . S
C2057 C2058 1.349 . S
C2057 C2059 1.327 . S
C2057 H2080 0.950 . S
C2058 C2057 1.349 . S
C2058 C2070 1.349 1_565 S
C2059 C2057 1.327 . S
C2059 C2075 1.429 . S
C2059 H2081 0.950 . S
C2060 H2056 0.949 . S
C2060 C2068 1.574 . S
C2060 C2076 1.368 1_545 S
H2061 C2069 0.950 . S
H2062 C2067 0.950 . S
H2063 C2068 0.949 . S
H2064 C2070 0.950 . S
H2065 C2071 0.950 . S
H2066 C2072 0.949 . S
C2067 H2062 0.950 . S
C2067 C2069 1.327 . S
C2067 C2073 1.445 . S
C2068 C2060 1.574 . S
C2068 H2063 0.949 . S
C2068 C2074 1.335 1_545 S
C2069 C2053 1.349 1_565 S
C2069 H2061 0.950 . S
C2069 C2067 1.327 . S
C2070 C2058 1.349 1_545 S
C2070 H2064 0.950 . S
C2070 C2071 1.327 . S
C2071 H2065 0.950 . S
C2071 C2070 1.327 . S
C2071 C2075 1.429 1_545 S
C2072 C2055 1.574 . S
C2072 H2066 0.949 . S
C2072 C2076 1.368 . S
C2073 C2054 1.414 1_565 S
C2073 C2067 1.445 . S
C2073 C2074 1.524 . S
C2074 C2055 1.400 . S
C2074 C2068 1.335 1_565 S
C2074 C2073 1.524 . S
C2075 C2059 1.429 . S
C2075 C2071 1.429 1_565 S
C2075 C2076 1.523 . S
C2076 C2060 1.368 1_565 S
C2076 C2072 1.368 . S
C2076 C2075 1.523 . S
H2077 C2052 0.950 . S
H2078 C2054 0.950 . S
H2079 C2055 0.949 . S
H2080 C2057 0.950 . S
H2081 C2059 0.950 . S
C2082 C2083 1.349 . S
C2082 C2084 1.327 . S
C2082 H2107 0.950 . S
C2083 C2082 1.349 . S
C2083 C2099 1.349 . S
C2084 C2082 1.327 . S
C2084 C2103 1.429 . S
C2084 H2108 0.950 . S
C2085 C2102 1.574 . S
C2085 C2104 1.368 . S
C2085 H2109 0.949 . S
H2086 C2090 0.949 . S
C2087 C2088 1.349 . S
C2087 C2089 1.327 . S
C2087 H2110 0.950 . S
C2088 C2087 1.349 . S
C2088 C2100 1.349 . S
C2089 C2087 1.327 . S
C2089 C2105 1.429 . S
C2089 H2111 0.950 . S
C2090 H2086 0.949 . S
C2090 C2098 1.574 . S
C2090 C2106 1.368 . S
H2091 C2099 0.950 . S
H2092 C2097 0.950 . S
H2093 C2098 0.949 . S
H2094 C2100 0.950 . S
H2095 C2101 0.950 . S
H2096 C2102 0.949 . S
C2097 H2092 0.950 . S
C2097 C2099 1.327 . S
C2097 C2103 1.429 . S
C2098 C2090 1.574 . S
C2098 H2093 0.949 . S
C2098 C2104 1.368 . S
C2099 C2083 1.349 . S
C2099 H2091 0.950 . S
C2099 C2097 1.327 . S
C2100 C2088 1.349 . S
C2100 H2094 0.950 . S
C2100 C2101 1.327 . S
C2101 H2095 0.950 . S
C2101 C2100 1.327 . S
C2101 C2105 1.429 . S
C2102 C2085 1.574 . S
C2102 H2096 0.949 . S
C2102 C2106 1.368 . S
C2103 C2084 1.429 . S
C2103 C2097 1.429 . S
C2103 C2104 1.523 . S
C2104 C2085 1.368 . S
C2104 C2098 1.368 . S
C2104 C2103 1.523 . S
C2105 C2089 1.429 . S
C2105 C2101 1.429 . S
C2105 C2106 1.523 . S
C2106 C2090 1.368 . S
C2106 C2102 1.368 . S
C2106 C2105 1.523 . S
H2107 C2082 0.950 . S
H2108 C2084 0.950 . S
H2109 C2085 0.949 . S
H2110 C2087 0.950 . S
H2111 C2089 0.950 . S
C2112 C2113 1.349 . S
C2112 C2114 1.327 . S
C2112 H2137 0.950 . S
C2113 C2112 1.349 . S
C2113 C2129 1.349 . S
C2114 C2112 1.327 . S
C2114 C2133 1.429 . S
C2114 H2138 0.950 . S
C2115 C2132 1.574 . S
C2115 C2134 1.368 . S
C2115 H2139 0.949 . S
H2116 C2120 0.949 . S
C2117 C2118 1.349 . S
C2117 C2119 1.327 . S
C2117 H2140 0.950 . S
C2118 C2117 1.349 . S
C2118 C2130 1.349 . S
C2119 C2117 1.327 . S
C2119 C2135 1.429 . S
C2119 H2141 0.950 . S
C2120 H2116 0.949 . S
C2120 C2128 1.574 . S
C2120 C2136 1.368 . S
H2121 C2129 0.950 . S
H2122 C2127 0.950 . S
H2123 C2128 0.949 . S
H2124 C2130 0.950 . S
H2125 C2131 0.950 . S
H2126 C2132 0.949 . S
C2127 H2122 0.950 . S
C2127 C2129 1.327 . S
C2127 C2133 1.429 . S
C2128 C2120 1.574 . S
C2128 H2123 0.949 . S
C2128 C2134 1.368 . S
C2129 C2113 1.349 . S
C2129 H2121 0.950 . S
C2129 C2127 1.327 . S
C2130 C2118 1.349 . S
C2130 H2124 0.950 . S
C2130 C2131 1.327 . S
C2131 H2125 0.950 . S
C2131 C2130 1.327 . S
C2131 C2135 1.429 . S
C2132 C2115 1.574 . S
C2132 H2126 0.949 . S
C2132 C2136 1.368 . S
C2133 C2114 1.429 . S
C2133 C2127 1.429 . S
C2133 C2134 1.523 . S
C2134 C2115 1.368 . S
C2134 C2128 1.368 . S
C2134 C2133 1.523 . S
C2135 C2119 1.429 . S
C2135 C2131 1.429 . S
C2135 C2136 1.523 . S
C2136 C2120 1.368 . S
C2136 C2132 1.368 . S
C2136 C2135 1.523 . S
H2137 C2112 0.950 . S
H2138 C2114 0.950 . S
H2139 C2115 0.949 . S
H2140 C2117 0.950 . S
H2141 C2119 0.950 . S
C2142 C2143 1.349 . S
C2142 C2144 1.327 . S
C2142 H2167 0.950 . S
C2143 C2142 1.349 . S
C2143 C2159 1.349 . S
C2144 C2142 1.327 . S
C2144 C2163 1.429 . S
C2144 H2168 0.950 . S
C2145 C2162 1.574 . S
C2145 C2164 1.368 . S
C2145 H2169 0.949 . S
H2146 C2150 0.949 . S
C2147 C2148 1.349 . S
C2147 C2149 1.327 . S
C2147 H2170 0.950 . S
C2148 C2147 1.349 . S
C2148 C2160 1.349 . S
C2149 C2147 1.327 . S
C2149 C2165 1.429 . S
C2149 H2171 0.950 . S
C2150 H2146 0.949 . S
C2150 C2158 1.574 . S
C2150 C2166 1.368 . S
H2151 C2159 0.950 . S
H2152 C2157 0.950 . S
H2153 C2158 0.949 . S
H2154 C2160 0.950 . S
H2155 C2161 0.950 . S
H2156 C2162 0.949 . S
C2157 H2152 0.950 . S
C2157 C2159 1.327 . S
C2157 C2163 1.429 . S
C2158 C2150 1.574 . S
C2158 H2153 0.949 . S
C2158 C2164 1.368 . S
C2159 C2143 1.349 . S
C2159 H2151 0.950 . S
C2159 C2157 1.327 . S
C2160 C2148 1.349 . S
C2160 H2154 0.950 . S
C2160 C2161 1.327 . S
C2161 H2155 0.950 . S
C2161 C2160 1.327 . S
C2161 C2165 1.429 . S
C2162 C2145 1.574 . S
C2162 H2156 0.949 . S
C2162 C2166 1.368 . S
C2163 C2144 1.429 . S
C2163 C2157 1.429 . S
C2163 C2164 1.523 . S
C2164 C2145 1.368 . S
C2164 C2158 1.368 . S
C2164 C2163 1.523 . S
C2165 C2149 1.429 . S
C2165 C2161 1.429 . S
C2165 C2166 1.523 . S
C2166 C2150 1.368 . S
C2166 C2162 1.368 . S
C2166 C2165 1.523 . S
H2167 C2142 0.950 . S
H2168 C2144 0.950 . S
H2169 C2145 0.949 . S
H2170 C2147 0.950 . S
H2171 C2149 0.950 . S
C2172 C2173 1.349 . S
C2172 C2174 1.327 . S
C2172 H2197 0.950 . S
C2173 C2172 1.349 . S
C2173 C2189 1.349 . S
C2174 C2172 1.327 . S
C2174 C2193 1.429 . S
C2174 H2198 0.950 . S
C2175 C2192 1.574 . S
C2175 C2194 1.368 . S
C2175 H2199 0.949 . S
H2176 C2180 0.949 . S
C2177 C2178 1.349 . S
C2177 C2179 1.327 . S
C2177 H2200 0.950 . S
C2178 C2177 1.349 . S
C2178 C2190 1.349 . S
C2179 C2177 1.327 . S
C2179 C2195 1.429 . S
C2179 H2201 0.950 . S
C2180 H2176 0.949 . S
C2180 C2188 1.574 . S
C2180 C2196 1.368 . S
H2181 C2189 0.950 . S
H2182 C2187 0.950 . S
H2183 C2188 0.949 . S
H2184 C2190 0.950 . S
H2185 C2191 0.950 . S
H2186 C2192 0.949 . S
C2187 H2182 0.950 . S
C2187 C2189 1.327 . S
C2187 C2193 1.429 . S
C2188 C2180 1.574 . S
C2188 H2183 0.949 . S
C2188 C2194 1.368 . S
C2189 C2173 1.349 . S
C2189 H2181 0.950 . S
C2189 C2187 1.327 . S
C2190 C2178 1.349 . S
C2190 H2184 0.950 . S
C2190 C2191 1.327 . S
C2191 H2185 0.950 . S
C2191 C2190 1.327 . S
C2191 C2195 1.429 . S
C2192 C2175 1.574 . S
C2192 H2186 0.949 . S
C2192 C2196 1.368 . S
C2193 C2174 1.429 . S
C2193 C2187 1.429 . S
C2193 C2194 1.523 . S
C2194 C2175 1.368 . S
C2194 C2188 1.368 . S
C2194 C2193 1.523 . S
C2195 C2179 1.429 . S
C2195 C2191 1.429 . S
C2195 C2196 1.523 . S
C2196 C2180 1.368 . S
C2196 C2192 1.368 . S
C2196 C2195 1.523 . S
H2197 C2172 0.950 . S
H2198 C2174 0.950 . S
H2199 C2175 0.949 . S
H2200 C2177 0.950 . S
H2201 C2179 0.950 . S
C2202 C2203 1.348 . S
C2202 C2204 1.327 . S
C2202 H2227 0.950 . S
C2203 C2202 1.348 . S
C2203 C2219 1.349 1_554 S
C2204 C2202 1.327 . S
C2204 C2223 1.413 1_554 S
C2204 H2228 0.950 . S
C2205 C2222 1.574 . S
C2205 C2224 1.402 . S
C2205 H2229 0.949 . S
H2206 C2210 0.949 . S
C2207 C2208 1.349 . S
C2207 C2209 1.327 . S
C2207 H2230 0.950 . S
C2208 C2207 1.349 . S
C2208 C2220 1.349 1_556 S
C2209 C2207 1.327 . S
C2209 C2225 1.429 . S
C2209 H2231 0.950 . S
C2210 H2206 0.949 . S
C2210 C2218 1.574 . S
C2210 C2226 1.368 1_554 S
H2211 C2219 0.950 . S
H2212 C2217 0.950 . S
H2213 C2218 0.949 . S
H2214 C2220 0.950 . S
H2215 C2221 0.950 . S
H2216 C2222 0.949 . S
C2217 H2212 0.950 . S
C2217 C2219 1.327 . S
C2217 C2223 1.446 . S
C2218 C2210 1.574 . S
C2218 H2213 0.949 . S
C2218 C2224 1.333 1_554 S
C2219 C2203 1.349 1_556 S
C2219 H2211 0.950 . S
C2219 C2217 1.327 . S
C2220 C2208 1.349 1_554 S
C2220 H2214 0.950 . S
C2220 C2221 1.327 . S
C2221 H2215 0.950 . S
C2221 C2220 1.327 . S
C2221 C2225 1.429 1_554 S
C2222 C2205 1.574 . S
C2222 H2216 0.949 . S
C2222 C2226 1.368 . S
C2223 C2204 1.413 1_556 S
C2223 C2217 1.446 . S
C2223 C2224 1.524 . S
C2224 C2205 1.402 . S
C2224 C2218 1.333 1_556 S
C2224 C2223 1.524 . S
C2225 C2209 1.429 . S
C2225 C2221 1.429 1_556 S
C2225 C2226 1.523 . S
C2226 C2210 1.368 1_556 S
C2226 C2222 1.368 . S
C2226 C2225 1.523 . S
H2227 C2202 0.950 . S
H2228 C2204 0.950 . S
H2229 C2205 0.949 . S
H2230 C2207 0.950 . S
H2231 C2209 0.950 . S
C2232 C2233 1.349 . S
C2232 C2234 1.327 . S
C2232 H2257 0.950 . S
C2233 C2232 1.349 . S
C2233 C2249 1.349 . S
C2234 C2232 1.327 . S
C2234 C2253 1.429 . S
C2234 H2258 0.950 . S
C2235 C2252 1.574 . S
C2235 C2254 1.368 . S
C2235 H2259 0.949 . S
H2236 C2240 0.949 . S
C2237 C2238 1.349 . S
C2237 C2239 1.327 . S
C2237 H2260 0.950 . S
C2238 C2237 1.349 . S
C2238 C2250 1.349 . S
C2239 C2237 1.327 . S
C2239 C2255 1.429 . S
C2239 H2261 0.950 . S
C2240 H2236 0.949 . S
C2240 C2248 1.574 . S
C2240 C2256 1.368 . S
H2241 C2249 0.950 . S
H2242 C2247 0.950 . S
H2243 C2248 0.949 . S
H2244 C2250 0.950 . S
H2245 C2251 0.950 . S
H2246 C2252 0.949 . S
C2247 H2242 0.950 . S
C2247 C2249 1.327 . S
C2247 C2253 1.429 . S
C2248 C2240 1.574 . S
C2248 H2243 0.949 . S
C2248 C2254 1.368 . S
C2249 C2233 1.349 . S
C2249 H2241 0.950 . S
C2249 C2247 1.327 . S
C2250 C2238 1.349 . S
C2250 H2244 0.950 . S
C2250 C2251 1.327 . S
C2251 H2245 0.950 . S
C2251 C2250 1.327 . S
C2251 C2255 1.429 . S
C2252 C2235 1.574 . S
C2252 H2246 0.949 . S
C2252 C2256 1.368 . S
C2253 C2234 1.429 . S
C2253 C2247 1.429 . S
C2253 C2254 1.523 . S
C2254 C2235 1.368 . S
C2254 C2248 1.368 . S
C2254 C2253 1.523 . S
C2255 C2239 1.429 . S
C2255 C2251 1.429 . S
C2255 C2256 1.523 . S
C2256 C2240 1.368 . S
C2256 C2252 1.368 . S
C2256 C2255 1.523 . S
H2257 C2232 0.950 . S
H2258 C2234 0.950 . S
H2259 C2235 0.949 . S
H2260 C2237 0.950 . S
H2261 C2239 0.950 . S
C2262 C2263 1.349 . S
C2262 C2264 1.327 . S
C2262 H2287 0.950 . S
C2263 C2262 1.349 . S
C2263 C2279 1.349 . S
C2264 C2262 1.327 . S
C2264 C2283 1.429 . S
C2264 H2288 0.950 . S
C2265 C2282 1.574 . S
C2265 C2284 1.368 . S
C2265 H2289 0.949 . S
H2266 C2270 0.949 . S
C2267 C2268 1.349 . S
C2267 C2269 1.327 . S
C2267 H2290 0.950 . S
C2268 C2267 1.349 . S
C2268 C2280 1.349 . S
C2269 C2267 1.327 . S
C2269 C2285 1.429 . S
C2269 H2291 0.950 . S
C2270 H2266 0.949 . S
C2270 C2278 1.574 . S
C2270 C2286 1.368 . S
H2271 C2279 0.950 . S
H2272 C2277 0.950 . S
H2273 C2278 0.949 . S
H2274 C2280 0.950 . S
H2275 C2281 0.950 . S
H2276 C2282 0.949 . S
C2277 H2272 0.950 . S
C2277 C2279 1.327 . S
C2277 C2283 1.429 . S
C2278 C2270 1.574 . S
C2278 H2273 0.949 . S
C2278 C2284 1.368 . S
C2279 C2263 1.349 . S
C2279 H2271 0.950 . S
C2279 C2277 1.327 . S
C2280 C2268 1.349 . S
C2280 H2274 0.950 . S
C2280 C2281 1.327 . S
C2281 H2275 0.950 . S
C2281 C2280 1.327 . S
C2281 C2285 1.429 . S
C2282 C2265 1.574 . S
C2282 H2276 0.949 . S
C2282 C2286 1.368 . S
C2283 C2264 1.429 . S
C2283 C2277 1.429 . S
C2283 C2284 1.523 . S
C2284 C2265 1.368 . S
C2284 C2278 1.368 . S
C2284 C2283 1.523 . S
C2285 C2269 1.429 . S
C2285 C2281 1.429 . S
C2285 C2286 1.523 . S
C2286 C2270 1.368 . S
C2286 C2282 1.368 . S
C2286 C2285 1.523 . S
H2287 C2262 0.950 . S
H2288 C2264 0.950 . S
H2289 C2265 0.949 . S
H2290 C2267 0.950 . S
H2291 C2269 0.950 . S
C2292 C2293 1.349 . S
C2292 C2294 1.327 . S
C2292 H2317 0.950 . S
C2293 C2292 1.349 . S
C2293 C2309 1.349 . S
C2294 C2292 1.327 . S
C2294 C2313 1.429 . S
C2294 H2318 0.950 . S
C2295 C2312 1.574 . S
C2295 C2314 1.368 . S
C2295 H2319 0.949 . S
H2296 C2300 0.949 . S
C2297 C2298 1.349 . S
C2297 C2299 1.327 . S
C2297 H2320 0.950 . S
C2298 C2297 1.349 . S
C2298 C2310 1.349 . S
C2299 C2297 1.327 . S
C2299 C2315 1.429 . S
C2299 H2321 0.950 . S
C2300 H2296 0.949 . S
C2300 C2308 1.574 . S
C2300 C2316 1.368 . S
H2301 C2309 0.950 . S
H2302 C2307 0.950 . S
H2303 C2308 0.949 . S
H2304 C2310 0.950 . S
H2305 C2311 0.950 . S
H2306 C2312 0.949 . S
C2307 H2302 0.950 . S
C2307 C2309 1.327 . S
C2307 C2313 1.429 . S
C2308 C2300 1.574 . S
C2308 H2303 0.949 . S
C2308 C2314 1.368 . S
C2309 C2293 1.349 . S
C2309 H2301 0.950 . S
C2309 C2307 1.327 . S
C2310 C2298 1.349 . S
C2310 H2304 0.950 . S
C2310 C2311 1.327 . S
C2311 H2305 0.950 . S
C2311 C2310 1.327 . S
C2311 C2315 1.429 . S
C2312 C2295 1.574 . S
C2312 H2306 0.949 . S
C2312 C2316 1.368 . S
C2313 C2294 1.429 . S
C2313 C2307 1.429 . S
C2313 C2314 1.523 . S
C2314 C2295 1.368 . S
C2314 C2308 1.368 . S
C2314 C2313 1.523 . S
C2315 C2299 1.429 . S
C2315 C2311 1.429 . S
C2315 C2316 1.523 . S
C2316 C2300 1.368 . S
C2316 C2312 1.368 . S
C2316 C2315 1.523 . S
H2317 C2292 0.950 . S
H2318 C2294 0.950 . S
H2319 C2295 0.949 . S
H2320 C2297 0.950 . S
H2321 C2299 0.950 . S
C2322 C2323 1.349 1_655 S
C2322 C2324 1.327 . S
C2322 H2347 0.950 . S
C2323 C2322 1.349 1_455 S
C2323 C2339 1.348 . S
C2324 C2322 1.327 . S
C2324 C2343 1.443 . S
C2324 H2348 0.950 . S
C2325 C2342 1.574 . S
C2325 C2344 1.339 1_455 S
C2325 H2349 0.949 . S
H2326 C2330 0.949 . S
C2327 C2328 1.349 1_455 S
C2327 C2329 1.327 . S
C2327 H2350 0.950 . S
C2328 C2327 1.349 1_655 S
C2328 C2340 1.349 . S
C2329 C2327 1.327 . S
C2329 C2345 1.429 1_455 S
C2329 H2351 0.950 . S
C2330 H2326 0.949 . S
C2330 C2338 1.574 . S
C2330 C2346 1.368 . S
H2331 C2339 0.950 . S
H2332 C2337 0.950 . S
H2333 C2338 0.949 . S
H2334 C2340 0.950 . S
H2335 C2341 0.950 . S
H2336 C2342 0.949 . S
C2337 H2332 0.950 . S
C2337 C2339 1.327 . S
C2337 C2343 1.415 1_455 S
C2338 C2330 1.574 . S
C2338 H2333 0.949 . S
C2338 C2344 1.397 . S
C2339 C2323 1.348 . S
C2339 H2331 0.950 . S
C2339 C2337 1.327 . S
C2340 C2328 1.349 . S
C2340 H2334 0.950 . S
C2340 C2341 1.327 . S
C2341 H2335 0.950 . S
C2341 C2340 1.327 . S
C2341 C2345 1.429 . S
C2342 C2325 1.574 . S
C2342 H2336 0.949 . S
C2342 C2346 1.368 1_455 S
C2343 C2324 1.443 . S
C2343 C2337 1.415 1_655 S
C2343 C2344 1.524 . S
C2344 C2325 1.339 1_655 S
C2344 C2338 1.397 . S
C2344 C2343 1.524 . S
C2345 C2329 1.429 1_655 S
C2345 C2341 1.429 . S
C2345 C2346 1.523 . S
C2346 C2330 1.368 . S
C2346 C2342 1.368 1_655 S
C2346 C2345 1.523 . S
H2347 C2322 0.950 . S
H2348 C2324 0.950 . S
H2349 C2325 0.949 . S
H2350 C2327 0.950 . S
H2351 C2329 0.950 . S
C2352 C2353 1.349 . S
C2352 C2354 1.327 . S
C2352 H2377 0.950 . S
C2353 C2352 1.349 . S
C2353 C2369 1.349 . S
C2354 C2352 1.327 . S
C2354 C2373 1.429 . S
C2354 H2378 0.950 . S
C2355 C2372 1.574 . S
C2355 C2374 1.368 . S
C2355 H2379 0.949 . S
H2356 C2360 0.949 . S
C2357 C2358 1.349 . S
C2357 C2359 1.327 . S
C2357 H2380 0.950 . S
C2358 C2357 1.349 . S
C2358 C2370 1.349 . S
C2359 C2357 1.327 . S
C2359 C2375 1.429 . S
C2359 H2381 0.950 . S
C2360 H2356 0.949 . S
C2360 C2368 1.574 . S
C2360 C2376 1.368 . S
H2361 C2369 0.950 . S
H2362 C2367 0.950 . S
H2363 C2368 0.949 . S
H2364 C2370 0.950 . S
H2365 C2371 0.950 . S
H2366 C2372 0.949 . S
C2367 H2362 0.950 . S
C2367 C2369 1.327 . S
C2367 C2373 1.429 . S
C2368 C2360 1.574 . S
C2368 H2363 0.949 . S
C2368 C2374 1.368 . S
C2369 C2353 1.349 . S
C2369 H2361 0.950 . S
C2369 C2367 1.327 . S
C2370 C2358 1.349 . S
C2370 H2364 0.950 . S
C2370 C2371 1.327 . S
C2371 H2365 0.950 . S
C2371 C2370 1.327 . S
C2371 C2375 1.429 . S
C2372 C2355 1.574 . S
C2372 H2366 0.949 . S
C2372 C2376 1.368 . S
C2373 C2354 1.429 . S
C2373 C2367 1.429 . S
C2373 C2374 1.523 . S
C2374 C2355 1.368 . S
C2374 C2368 1.368 . S
C2374 C2373 1.523 . S
C2375 C2359 1.429 . S
C2375 C2371 1.429 . S
C2375 C2376 1.523 . S
C2376 C2360 1.368 . S
C2376 C2372 1.368 . S
C2376 C2375 1.523 . S
H2377 C2352 0.950 . S
H2378 C2354 0.950 . S
H2379 C2355 0.949 . S
H2380 C2357 0.950 . S
H2381 C2359 0.950 . S
C2382 C2383 1.349 . S
C2382 C2384 1.327 . S
C2382 H2407 0.950 . S
C2383 C2382 1.349 . S
C2383 C2399 1.349 . S
C2384 C2382 1.327 . S
C2384 C2403 1.429 . S
C2384 H2408 0.950 . S
C2385 C2402 1.574 . S
C2385 C2404 1.368 . S
C2385 H2409 0.949 . S
H2386 C2390 0.949 . S
C2387 C2388 1.349 . S
C2387 C2389 1.327 . S
C2387 H2410 0.950 . S
C2388 C2387 1.349 . S
C2388 C2400 1.349 . S
C2389 C2387 1.327 . S
C2389 C2405 1.429 . S
C2389 H2411 0.950 . S
C2390 H2386 0.949 . S
C2390 C2398 1.574 . S
C2390 C2406 1.368 . S
H2391 C2399 0.950 . S
H2392 C2397 0.950 . S
H2393 C2398 0.949 . S
H2394 C2400 0.950 . S
H2395 C2401 0.950 . S
H2396 C2402 0.949 . S
C2397 H2392 0.950 . S
C2397 C2399 1.327 . S
C2397 C2403 1.429 . S
C2398 C2390 1.574 . S
C2398 H2393 0.949 . S
C2398 C2404 1.368 . S
C2399 C2383 1.349 . S
C2399 H2391 0.950 . S
C2399 C2397 1.327 . S
C2400 C2388 1.349 . S
C2400 H2394 0.950 . S
C2400 C2401 1.327 . S
C2401 H2395 0.950 . S
C2401 C2400 1.327 . S
C2401 C2405 1.429 . S
C2402 C2385 1.574 . S
C2402 H2396 0.949 . S
C2402 C2406 1.368 . S
C2403 C2384 1.429 . S
C2403 C2397 1.429 . S
C2403 C2404 1.523 . S
C2404 C2385 1.368 . S
C2404 C2398 1.368 . S
C2404 C2403 1.523 . S
C2405 C2389 1.429 . S
C2405 C2401 1.429 . S
C2405 C2406 1.523 . S
C2406 C2390 1.368 . S
C2406 C2402 1.368 . S
C2406 C2405 1.523 . S
H2407 C2382 0.950 . S
H2408 C2384 0.950 . S
H2409 C2385 0.949 . S
H2410 C2387 0.950 . S
H2411 C2389 0.950 . S
C2412 C2413 1.349 1_545 S
C2412 C2414 1.327 . S
C2412 H2437 0.950 . S
C2413 C2412 1.349 1_565 S
C2413 C2429 1.348 . S
C2414 C2412 1.327 . S
C2414 C2433 1.447 . S
C2414 H2438 0.950 . S
C2415 C2432 1.574 . S
C2415 C2434 1.331 1_565 S
C2415 H2439 0.949 . S
H2416 C2420 0.949 . S
C2417 C2418 1.349 1_565 S
C2417 C2419 1.327 . S
C2417 H2440 0.950 . S
C2418 C2417 1.349 1_545 S
C2418 C2430 1.349 . S
C2419 C2417 1.327 . S
C2419 C2435 1.429 1_565 S
C2419 H2441 0.950 . S
C2420 H2416 0.949 . S
C2420 C2428 1.574 . S
C2420 C2436 1.368 . S
H2421 C2429 0.950 . S
H2422 C2427 0.950 . S
H2423 C2428 0.949 . S
H2424 C2430 0.950 . S
H2425 C2431 0.950 . S
H2426 C2432 0.949 . S
C2427 H2422 0.950 . S
C2427 C2429 1.327 . S
C2427 C2433 1.412 1_565 S
C2428 C2420 1.574 . S
C2428 H2423 0.949 . S
C2428 C2434 1.404 . S
C2429 C2413 1.348 . S
C2429 H2421 0.950 . S
C2429 C2427 1.327 . S
C2430 C2418 1.349 . S
C2430 H2424 0.950 . S
C2430 C2431 1.327 . S
C2431 H2425 0.950 . S
C2431 C2430 1.327 . S
C2431 C2435 1.429 . S
C2432 C2415 1.574 . S
C2432 H2426 0.949 . S
C2432 C2436 1.368 1_565 S
C2433 C2414 1.447 . S
C2433 C2427 1.412 1_545 S
C2433 C2434 1.524 . S
C2434 C2415 1.331 1_545 S
C2434 C2428 1.404 . S
C2434 C2433 1.524 . S
C2435 C2419 1.429 1_545 S
C2435 C2431 1.429 . S
C2435 C2436 1.523 . S
C2436 C2420 1.368 . S
C2436 C2432 1.368 1_545 S
C2436 C2435 1.523 . S
H2437 C2412 0.950 . S
H2438 C2414 0.950 . S
H2439 C2415 0.949 . S
H2440 C2417 0.950 . S
H2441 C2419 0.950 . S
C2442 C2443 1.349 . S
C2442 C2444 1.327 . S
C2442 H2467 0.950 . S
C2443 C2442 1.349 . S
C2443 C2459 1.349 . S
C2444 C2442 1.327 . S
C2444 C2463 1.429 . S
C2444 H2468 0.950 . S
C2445 C2462 1.574 . S
C2445 C2464 1.368 . S
C2445 H2469 0.949 . S
H2446 C2450 0.949 . S
C2447 C2448 1.349 . S
C2447 C2449 1.327 . S
C2447 H2470 0.950 . S
C2448 C2447 1.349 . S
C2448 C2460 1.349 . S
C2449 C2447 1.327 . S
C2449 C2465 1.429 . S
C2449 H2471 0.950 . S
C2450 H2446 0.949 . S
C2450 C2458 1.574 . S
C2450 C2466 1.368 . S
H2451 C2459 0.950 . S
H2452 C2457 0.950 . S
H2453 C2458 0.949 . S
H2454 C2460 0.950 . S
H2455 C2461 0.950 . S
H2456 C2462 0.949 . S
C2457 H2452 0.950 . S
C2457 C2459 1.327 . S
C2457 C2463 1.429 . S
C2458 C2450 1.574 . S
C2458 H2453 0.949 . S
C2458 C2464 1.368 . S
C2459 C2443 1.349 . S
C2459 H2451 0.950 . S
C2459 C2457 1.327 . S
C2460 C2448 1.349 . S
C2460 H2454 0.950 . S
C2460 C2461 1.327 . S
C2461 H2455 0.950 . S
C2461 C2460 1.327 . S
C2461 C2465 1.429 . S
C2462 C2445 1.574 . S
C2462 H2456 0.949 . S
C2462 C2466 1.368 . S
C2463 C2444 1.429 . S
C2463 C2457 1.429 . S
C2463 C2464 1.523 . S
C2464 C2445 1.368 . S
C2464 C2458 1.368 . S
C2464 C2463 1.523 . S
C2465 C2449 1.429 . S
C2465 C2461 1.429 . S
C2465 C2466 1.523 . S
C2466 C2450 1.368 . S
C2466 C2462 1.368 . S
C2466 C2465 1.523 . S
H2467 C2442 0.950 . S
H2468 C2444 0.950 . S
H2469 C2445 0.949 . S
H2470 C2447 0.950 . S
H2471 C2449 0.950 . S
C2472 C2473 1.349 . S
C2472 C2474 1.327 . S
C2472 H2497 0.950 . S
C2473 C2472 1.349 . S
C2473 C2489 1.349 . S
C2474 C2472 1.327 . S
C2474 C2493 1.429 . S
C2474 H2498 0.950 . S
C2475 C2492 1.574 . S
C2475 C2494 1.368 . S
C2475 H2499 0.949 . S
H2476 C2480 0.949 . S
C2477 C2478 1.349 . S
C2477 C2479 1.327 . S
C2477 H2500 0.950 . S
C2478 C2477 1.349 . S
C2478 C2490 1.349 . S
C2479 C2477 1.327 . S
C2479 C2495 1.429 . S
C2479 H2501 0.950 . S
C2480 H2476 0.949 . S
C2480 C2488 1.574 . S
C2480 C2496 1.368 . S
H2481 C2489 0.950 . S
H2482 C2487 0.950 . S
H2483 C2488 0.949 . S
H2484 C2490 0.950 . S
H2485 C2491 0.950 . S
H2486 C2492 0.949 . S
C2487 H2482 0.950 . S
C2487 C2489 1.327 . S
C2487 C2493 1.429 . S
C2488 C2480 1.574 . S
C2488 H2483 0.949 . S
C2488 C2494 1.368 . S
C2489 C2473 1.349 . S
C2489 H2481 0.950 . S
C2489 C2487 1.327 . S
C2490 C2478 1.349 . S
C2490 H2484 0.950 . S
C2490 C2491 1.327 . S
C2491 H2485 0.950 . S
C2491 C2490 1.327 . S
C2491 C2495 1.429 . S
C2492 C2475 1.574 . S
C2492 H2486 0.949 . S
C2492 C2496 1.368 . S
C2493 C2474 1.429 . S
C2493 C2487 1.429 . S
C2493 C2494 1.523 . S
C2494 C2475 1.368 . S
C2494 C2488 1.368 . S
C2494 C2493 1.523 . S
C2495 C2479 1.429 . S
C2495 C2491 1.429 . S
C2495 C2496 1.523 . S
C2496 C2480 1.368 . S
C2496 C2492 1.368 . S
C2496 C2495 1.523 . S
H2497 C2472 0.950 . S
H2498 C2474 0.950 . S
H2499 C2475 0.949 . S
H2500 C2477 0.950 . S
H2501 C2479 0.950 . S
C2502 C2503 1.349 . S
C2502 C2504 1.327 . S
C2502 H2527 0.950 . S
C2503 C2502 1.349 . S
C2503 C2519 1.349 . S
C2504 C2502 1.327 . S
C2504 C2523 1.429 . S
C2504 H2528 0.950 . S
C2505 C2522 1.574 . S
C2505 C2524 1.368 . S
C2505 H2529 0.949 . S
H2506 C2510 0.949 . S
C2507 C2508 1.349 . S
C2507 C2509 1.327 . S
C2507 H2530 0.950 . S
C2508 C2507 1.349 . S
C2508 C2520 1.349 . S
C2509 C2507 1.327 . S
C2509 C2525 1.429 . S
C2509 H2531 0.950 . S
C2510 H2506 0.949 . S
C2510 C2518 1.574 . S
C2510 C2526 1.368 . S
H2511 C2519 0.950 . S
H2512 C2517 0.950 . S
H2513 C2518 0.949 . S
H2514 C2520 0.950 . S
H2515 C2521 0.950 . S
H2516 C2522 0.949 . S
C2517 H2512 0.950 . S
C2517 C2519 1.327 . S
C2517 C2523 1.429 . S
C2518 C2510 1.574 . S
C2518 H2513 0.949 . S
C2518 C2524 1.368 . S
C2519 C2503 1.349 . S
C2519 H2511 0.950 . S
C2519 C2517 1.327 . S
C2520 C2508 1.349 . S
C2520 H2514 0.950 . S
C2520 C2521 1.327 . S
C2521 H2515 0.950 . S
C2521 C2520 1.327 . S
C2521 C2525 1.429 . S
C2522 C2505 1.574 . S
C2522 H2516 0.949 . S
C2522 C2526 1.368 . S
C2523 C2504 1.429 . S
C2523 C2517 1.429 . S
C2523 C2524 1.523 . S
C2524 C2505 1.368 . S
C2524 C2518 1.368 . S
C2524 C2523 1.523 . S
C2525 C2509 1.429 . S
C2525 C2521 1.429 . S
C2525 C2526 1.523 . S
C2526 C2510 1.368 . S
C2526 C2522 1.368 . S
C2526 C2525 1.523 . S
H2527 C2502 0.950 . S
H2528 C2504 0.950 . S
H2529 C2505 0.949 . S
H2530 C2507 0.950 . S
H2531 C2509 0.950 . S
C2532 C2533 1.349 . S
C2532 C2534 1.327 . S
C2532 H2557 0.950 . S
C2533 C2532 1.349 . S
C2533 C2549 1.349 . S
C2534 C2532 1.327 . S
C2534 C2553 1.429 . S
C2534 H2558 0.950 . S
C2535 C2552 1.574 . S
C2535 C2554 1.368 . S
C2535 H2559 0.949 . S
H2536 C2540 0.949 . S
C2537 C2538 1.349 . S
C2537 C2539 1.327 . S
C2537 H2560 0.950 . S
C2538 C2537 1.349 . S
C2538 C2550 1.349 . S
C2539 C2537 1.327 . S
C2539 C2555 1.429 . S
C2539 H2561 0.950 . S
C2540 H2536 0.949 . S
C2540 C2548 1.574 . S
C2540 C2556 1.368 . S
H2541 C2549 0.950 . S
H2542 C2547 0.950 . S
H2543 C2548 0.949 . S
H2544 C2550 0.950 . S
H2545 C2551 0.950 . S
H2546 C2552 0.949 . S
C2547 H2542 0.950 . S
C2547 C2549 1.327 . S
C2547 C2553 1.429 . S
C2548 C2540 1.574 . S
C2548 H2543 0.949 . S
C2548 C2554 1.368 . S
C2549 C2533 1.349 . S
C2549 H2541 0.950 . S
C2549 C2547 1.327 . S
C2550 C2538 1.349 . S
C2550 H2544 0.950 . S
C2550 C2551 1.327 . S
C2551 H2545 0.950 . S
C2551 C2550 1.327 . S
C2551 C2555 1.429 . S
C2552 C2535 1.574 . S
C2552 H2546 0.949 . S
C2552 C2556 1.368 . S
C2553 C2534 1.429 . S
C2553 C2547 1.429 . S
C2553 C2554 1.523 . S
C2554 C2535 1.368 . S
C2554 C2548 1.368 . S
C2554 C2553 1.523 . S
C2555 C2539 1.429 . S
C2555 C2551 1.429 . S
C2555 C2556 1.523 . S
C2556 C2540 1.368 . S
C2556 C2552 1.368 . S
C2556 C2555 1.523 . S
H2557 C2532 0.950 . S
H2558 C2534 0.950 . S
H2559 C2535 0.949 . S
H2560 C2537 0.950 . S
H2561 C2539 0.950 . S
C2562 C2563 1.348 . S
C2562 C2564 1.327 . S
C2562 H2587 0.950 . S
C2563 C2562 1.348 . S
C2563 C2579 1.349 1_556 S
C2564 C2562 1.327 . S
C2564 C2583 1.412 1_556 S
C2564 H2588 0.950 . S
C2565 C2582 1.574 . S
C2565 C2584 1.404 . S
C2565 H2589 0.949 . S
H2566 C2570 0.949 . S
C2567 C2568 1.349 . S
C2567 C2569 1.327 . S
C2567 H2590 0.950 . S
C2568 C2567 1.349 . S
C2568 C2580 1.349 1_554 S
C2569 C2567 1.327 . S
C2569 C2585 1.429 . S
C2569 H2591 0.950 . S
C2570 H2566 0.949 . S
C2570 C2578 1.574 . S
C2570 C2586 1.368 1_556 S
H2571 C2579 0.950 . S
H2572 C2577 0.950 . S
H2573 C2578 0.949 . S
H2574 C2580 0.950 . S
H2575 C2581 0.950 . S
H2576 C2582 0.949 . S
C2577 H2572 0.950 . S
C2577 C2579 1.327 . S
C2577 C2583 1.447 . S
C2578 C2570 1.574 . S
C2578 H2573 0.949 . S
C2578 C2584 1.331 1_556 S
C2579 C2563 1.349 1_554 S
C2579 H2571 0.950 . S
C2579 C2577 1.327 . S
C2580 C2568 1.349 1_556 S
C2580 H2574 0.950 . S
C2580 C2581 1.327 . S
C2581 H2575 0.950 . S
C2581 C2580 1.327 . S
C2581 C2585 1.429 1_556 S
C2582 C2565 1.574 . S
C2582 H2576 0.949 . S
C2582 C2586 1.368 . S
C2583 C2564 1.412 1_554 S
C2583 C2577 1.447 . S
C2583 C2584 1.524 . S
C2584 C2565 1.404 . S
C2584 C2578 1.331 1_554 S
C2584 C2583 1.524 . S
C2585 C2569 1.429 . S
C2585 C2581 1.429 1_554 S
C2585 C2586 1.523 . S
C2586 C2570 1.368 1_554 S
C2586 C2582 1.368 . S
C2586 C2585 1.523 . S
H2587 C2562 0.950 . S
H2588 C2564 0.950 . S
H2589 C2565 0.949 . S
H2590 C2567 0.950 . S
H2591 C2569 0.950 . S
C2592 C2593 1.349 . S
C2592 C2594 1.327 . S
C2592 H2617 0.950 . S
C2593 C2592 1.349 . S
C2593 C2609 1.349 . S
C2594 C2592 1.327 . S
C2594 C2613 1.429 . S
C2594 H2618 0.950 . S
C2595 C2612 1.574 . S
C2595 C2614 1.368 . S
C2595 H2619 0.949 . S
H2596 C2600 0.949 . S
C2597 C2598 1.349 . S
C2597 C2599 1.327 . S
C2597 H2620 0.950 . S
C2598 C2597 1.349 . S
C2598 C2610 1.349 . S
C2599 C2597 1.327 . S
C2599 C2615 1.429 . S
C2599 H2621 0.950 . S
C2600 H2596 0.949 . S
C2600 C2608 1.574 . S
C2600 C2616 1.368 . S
H2601 C2609 0.950 . S
H2602 C2607 0.950 . S
H2603 C2608 0.949 . S
H2604 C2610 0.950 . S
H2605 C2611 0.950 . S
H2606 C2612 0.949 . S
C2607 H2602 0.950 . S
C2607 C2609 1.327 . S
C2607 C2613 1.429 . S
C2608 C2600 1.574 . S
C2608 H2603 0.949 . S
C2608 C2614 1.368 . S
C2609 C2593 1.349 . S
C2609 H2601 0.950 . S
C2609 C2607 1.327 . S
C2610 C2598 1.349 . S
C2610 H2604 0.950 . S
C2610 C2611 1.327 . S
C2611 H2605 0.950 . S
C2611 C2610 1.327 . S
C2611 C2615 1.429 . S
C2612 C2595 1.574 . S
C2612 H2606 0.949 . S
C2612 C2616 1.368 . S
C2613 C2594 1.429 . S
C2613 C2607 1.429 . S
C2613 C2614 1.523 . S
C2614 C2595 1.368 . S
C2614 C2608 1.368 . S
C2614 C2613 1.523 . S
C2615 C2599 1.429 . S
C2615 C2611 1.429 . S
C2615 C2616 1.523 . S
C2616 C2600 1.368 . S
C2616 C2612 1.368 . S
C2616 C2615 1.523 . S
H2617 C2592 0.950 . S
H2618 C2594 0.950 . S
H2619 C2595 0.949 . S
H2620 C2597 0.950 . S
H2621 C2599 0.950 . S
C2622 C2623 1.349 . S
C2622 C2624 1.327 . S
C2622 H2647 0.950 . S
C2623 C2622 1.349 . S
C2623 C2639 1.349 . S
C2624 C2622 1.327 . S
C2624 C2643 1.429 . S
C2624 H2648 0.950 . S
C2625 C2642 1.574 . S
C2625 C2644 1.368 . S
C2625 H2649 0.949 . S
H2626 C2630 0.949 . S
C2627 C2628 1.349 . S
C2627 C2629 1.327 . S
C2627 H2650 0.950 . S
C2628 C2627 1.349 . S
C2628 C2640 1.349 . S
C2629 C2627 1.327 . S
C2629 C2645 1.429 . S
C2629 H2651 0.950 . S
C2630 H2626 0.949 . S
C2630 C2638 1.574 . S
C2630 C2646 1.368 . S
H2631 C2639 0.950 . S
H2632 C2637 0.950 . S
H2633 C2638 0.949 . S
H2634 C2640 0.950 . S
H2635 C2641 0.950 . S
H2636 C2642 0.949 . S
C2637 H2632 0.950 . S
C2637 C2639 1.327 . S
C2637 C2643 1.429 . S
C2638 C2630 1.574 . S
C2638 H2633 0.949 . S
C2638 C2644 1.368 . S
C2639 C2623 1.349 . S
C2639 H2631 0.950 . S
C2639 C2637 1.327 . S
C2640 C2628 1.349 . S
C2640 H2634 0.950 . S
C2640 C2641 1.327 . S
C2641 H2635 0.950 . S
C2641 C2640 1.327 . S
C2641 C2645 1.429 . S
C2642 C2625 1.574 . S
C2642 H2636 0.949 . S
C2642 C2646 1.368 . S
C2643 C2624 1.429 . S
C2643 C2637 1.429 . S
C2643 C2644 1.523 . S
C2644 C2625 1.368 . S
C2644 C2638 1.368 . S
C2644 C2643 1.523 . S
C2645 C2629 1.429 . S
C2645 C2641 1.429 . S
C2645 C2646 1.523 . S
C2646 C2630 1.368 . S
C2646 C2642 1.368 . S
C2646 C2645 1.523 . S
H2647 C2622 0.950 . S
H2648 C2624 0.950 . S
H2649 C2625 0.949 . S
H2650 C2627 0.950 . S
H2651 C2629 0.950 . S
C2652 C2653 1.349 . S
C2652 C2654 1.327 . S
C2652 H2677 0.950 . S
C2653 C2652 1.349 . S
C2653 C2669 1.349 . S
C2654 C2652 1.327 . S
C2654 C2673 1.429 . S
C2654 H2678 0.950 . S
C2655 C2672 1.574 . S
C2655 C2674 1.368 . S
C2655 H2679 0.949 . S
H2656 C2660 0.949 . S
C2657 C2658 1.349 . S
C2657 C2659 1.327 . S
C2657 H2680 0.950 . S
C2658 C2657 1.349 . S
C2658 C2670 1.349 . S
C2659 C2657 1.327 . S
C2659 C2675 1.429 . S
C2659 H2681 0.950 . S
C2660 H2656 0.949 . S
C2660 C2668 1.574 . S
C2660 C2676 1.368 . S
H2661 C2669 0.950 . S
H2662 C2667 0.950 . S
H2663 C2668 0.949 . S
H2664 C2670 0.950 . S
H2665 C2671 0.950 . S
H2666 C2672 0.949 . S
C2667 H2662 0.950 . S
C2667 C2669 1.327 . S
C2667 C2673 1.429 . S
C2668 C2660 1.574 . S
C2668 H2663 0.949 . S
C2668 C2674 1.368 . S
C2669 C2653 1.349 . S
C2669 H2661 0.950 . S
C2669 C2667 1.327 . S
C2670 C2658 1.349 . S
C2670 H2664 0.950 . S
C2670 C2671 1.327 . S
C2671 H2665 0.950 . S
C2671 C2670 1.327 . S
C2671 C2675 1.429 . S
C2672 C2655 1.574 . S
C2672 H2666 0.949 . S
C2672 C2676 1.368 . S
C2673 C2654 1.429 . S
C2673 C2667 1.429 . S
C2673 C2674 1.523 . S
C2674 C2655 1.368 . S
C2674 C2668 1.368 . S
C2674 C2673 1.523 . S
C2675 C2659 1.429 . S
C2675 C2671 1.429 . S
C2675 C2676 1.523 . S
C2676 C2660 1.368 . S
C2676 C2672 1.368 . S
C2676 C2675 1.523 . S
H2677 C2652 0.950 . S
H2678 C2654 0.950 . S
H2679 C2655 0.949 . S
H2680 C2657 0.950 . S
H2681 C2659 0.950 . S
C2682 C2683 1.349 . S
C2682 C2684 1.327 . S
C2682 H2707 0.950 . S
C2683 C2682 1.349 . S
C2683 C2699 1.349 1_655 S
C2684 C2682 1.327 . S
C2684 C2703 1.422 1_655 S
C2684 H2708 0.950 . S
C2685 C2702 1.574 . S
C2685 C2704 1.384 . S
C2685 H2709 0.949 . S
H2686 C2690 0.949 . S
C2687 C2688 1.349 . S
C2687 C2689 1.327 . S
C2687 H2710 0.950 . S
C2688 C2687 1.349 . S
C2688 C2700 1.349 1_455 S
C2689 C2687 1.327 . S
C2689 C2705 1.429 . S
C2689 H2711 0.950 . S
C2690 H2686 0.949 . S
C2690 C2698 1.574 . S
C2690 C2706 1.368 1_655 S
H2691 C2699 0.950 . S
H2692 C2697 0.950 . S
H2693 C2698 0.949 . S
H2694 C2700 0.950 . S
H2695 C2701 0.950 . S
H2696 C2702 0.949 . S
C2697 H2692 0.950 . S
C2697 C2699 1.327 . S
C2697 C2703 1.437 . S
C2698 C2690 1.574 . S
C2698 H2693 0.949 . S
C2698 C2704 1.352 1_655 S
C2699 C2683 1.349 1_455 S
C2699 H2691 0.950 . S
C2699 C2697 1.327 . S
C2700 C2688 1.349 1_655 S
C2700 H2694 0.950 . S
C2700 C2701 1.327 . S
C2701 H2695 0.950 . S
C2701 C2700 1.327 . S
C2701 C2705 1.429 1_655 S
C2702 C2685 1.574 . S
C2702 H2696 0.949 . S
C2702 C2706 1.368 . S
C2703 C2684 1.422 1_455 S
C2703 C2697 1.437 . S
C2703 C2704 1.524 . S
C2704 C2685 1.384 . S
C2704 C2698 1.352 1_455 S
C2704 C2703 1.524 . S
C2705 C2689 1.429 . S
C2705 C2701 1.429 1_455 S
C2705 C2706 1.523 . S
C2706 C2690 1.368 1_455 S
C2706 C2702 1.368 . S
C2706 C2705 1.523 . S
H2707 C2682 0.950 . S
H2708 C2684 0.950 . S
H2709 C2685 0.949 . S
H2710 C2687 0.950 . S
H2711 C2689 0.950 . S
C2712 C2713 1.349 . S
C2712 C2714 1.327 . S
C2712 H2737 0.950 . S
C2713 C2712 1.349 . S
C2713 C2729 1.349 . S
C2714 C2712 1.327 . S
C2714 C2733 1.429 . S
C2714 H2738 0.950 . S
C2715 C2732 1.574 . S
C2715 C2734 1.368 . S
C2715 H2739 0.949 . S
H2716 C2720 0.949 . S
C2717 C2718 1.349 . S
C2717 C2719 1.327 . S
C2717 H2740 0.950 . S
C2718 C2717 1.349 . S
C2718 C2730 1.349 . S
C2719 C2717 1.327 . S
C2719 C2735 1.429 . S
C2719 H2741 0.950 . S
C2720 H2716 0.949 . S
C2720 C2728 1.574 . S
C2720 C2736 1.368 . S
H2721 C2729 0.950 . S
H2722 C2727 0.950 . S
H2723 C2728 0.949 . S
H2724 C2730 0.950 . S
H2725 C2731 0.950 . S
H2726 C2732 0.949 . S
C2727 H2722 0.950 . S
C2727 C2729 1.327 . S
C2727 C2733 1.429 . S
C2728 C2720 1.574 . S
C2728 H2723 0.949 . S
C2728 C2734 1.368 . S
C2729 C2713 1.349 . S
C2729 H2721 0.950 . S
C2729 C2727 1.327 . S
C2730 C2718 1.349 . S
C2730 H2724 0.950 . S
C2730 C2731 1.327 . S
C2731 H2725 0.950 . S
C2731 C2730 1.327 . S
C2731 C2735 1.429 . S
C2732 C2715 1.574 . S
C2732 H2726 0.949 . S
C2732 C2736 1.368 . S
C2733 C2714 1.429 . S
C2733 C2727 1.429 . S
C2733 C2734 1.523 . S
C2734 C2715 1.368 . S
C2734 C2728 1.368 . S
C2734 C2733 1.523 . S
C2735 C2719 1.429 . S
C2735 C2731 1.429 . S
C2735 C2736 1.523 . S
C2736 C2720 1.368 . S
C2736 C2732 1.368 . S
C2736 C2735 1.523 . S
H2737 C2712 0.950 . S
H2738 C2714 0.950 . S
H2739 C2715 0.949 . S
H2740 C2717 0.950 . S
H2741 C2719 0.950 . S
C2742 C2743 1.349 . S
C2742 C2744 1.327 . S
C2742 H2767 0.950 . S
C2743 C2742 1.349 . S
C2743 C2759 1.349 . S
C2744 C2742 1.327 . S
C2744 C2763 1.429 . S
C2744 H2768 0.950 . S
C2745 C2762 1.574 . S
C2745 C2764 1.368 . S
C2745 H2769 0.949 . S
H2746 C2750 0.949 . S
C2747 C2748 1.349 . S
C2747 C2749 1.327 . S
C2747 H2770 0.950 . S
C2748 C2747 1.349 . S
C2748 C2760 1.349 . S
C2749 C2747 1.327 . S
C2749 C2765 1.429 . S
C2749 H2771 0.950 . S
C2750 H2746 0.949 . S
C2750 C2758 1.574 . S
C2750 C2766 1.368 . S
H2751 C2759 0.950 . S
H2752 C2757 0.950 . S
H2753 C2758 0.949 . S
H2754 C2760 0.950 . S
H2755 C2761 0.950 . S
H2756 C2762 0.949 . S
C2757 H2752 0.950 . S
C2757 C2759 1.327 . S
C2757 C2763 1.429 . S
C2758 C2750 1.574 . S
C2758 H2753 0.949 . S
C2758 C2764 1.368 . S
C2759 C2743 1.349 . S
C2759 H2751 0.950 . S
C2759 C2757 1.327 . S
C2760 C2748 1.349 . S
C2760 H2754 0.950 . S
C2760 C2761 1.327 . S
C2761 H2755 0.950 . S
C2761 C2760 1.327 . S
C2761 C2765 1.429 . S
C2762 C2745 1.574 . S
C2762 H2756 0.949 . S
C2762 C2766 1.368 . S
C2763 C2744 1.429 . S
C2763 C2757 1.429 . S
C2763 C2764 1.523 . S
C2764 C2745 1.368 . S
C2764 C2758 1.368 . S
C2764 C2763 1.523 . S
C2765 C2749 1.429 . S
C2765 C2761 1.429 . S
C2765 C2766 1.523 . S
C2766 C2750 1.368 . S
C2766 C2762 1.368 . S
C2766 C2765 1.523 . S
H2767 C2742 0.950 . S
H2768 C2744 0.950 . S
H2769 C2745 0.949 . S
H2770 C2747 0.950 . S
H2771 C2749 0.950 . S
C2772 C2773 1.338 1_545 S
C2772 C2774 1.327 . S
C2772 H2797 0.950 . S
C2773 C2772 1.338 1_565 S
C2773 C2789 1.367 . S
C2774 C2772 1.327 . S
C2774 C2793 1.429 1_545 S
C2774 H2798 0.950 . S
C2775 C2792 1.574 . S
C2775 C2794 1.368 . S
C2775 H2799 0.949 . S
H2776 C2780 0.949 . S
C2777 C2778 1.349 . S
C2777 C2779 1.327 . S
C2777 H2800 0.950 . S
C2778 C2777 1.349 . S
C2778 C2790 1.346 1_565 S
C2779 C2777 1.327 . S
C2779 C2795 1.429 . S
C2779 H2801 0.950 . S
C2780 H2776 0.949 . S
C2780 C2788 1.574 . S
C2780 C2796 1.368 1_545 S
H2781 C2789 0.950 . S
H2782 C2787 0.950 . S
H2783 C2788 0.949 . S
H2784 C2790 0.952 . S
H2785 C2791 0.950 . S
H2786 C2792 0.949 . S
C2787 H2782 0.950 . S
C2787 C2789 1.327 . S
C2787 C2793 1.429 . S
C2788 C2780 1.574 . S
C2788 H2783 0.949 . S
C2788 C2794 1.368 1_545 S
C2789 C2773 1.367 . S
C2789 H2781 0.950 . S
C2789 C2787 1.327 . S
C2790 C2778 1.346 1_545 S
C2790 H2784 0.952 . S
C2790 C2791 1.328 . S
C2791 H2785 0.950 . S
C2791 C2790 1.328 . S
C2791 C2795 1.429 1_545 S
C2792 C2775 1.574 . S
C2792 H2786 0.949 . S
C2792 C2796 1.368 . S
C2793 C2774 1.429 1_565 S
C2793 C2787 1.429 . S
C2793 C2794 1.523 . S
C2794 C2775 1.368 . S
C2794 C2788 1.368 1_565 S
C2794 C2793 1.523 . S
C2795 C2779 1.429 . S
C2795 C2791 1.429 1_565 S
C2795 C2796 1.523 . S
C2796 C2780 1.368 1_565 S
C2796 C2792 1.368 . S
C2796 C2795 1.523 . S
H2797 C2772 0.950 . S
H2798 C2774 0.950 . S
H2799 C2775 0.949 . S
H2800 C2777 0.950 . S
H2801 C2779 0.950 . S
C2802 C2803 1.349 . S
C2802 C2804 1.327 . S
C2802 H2827 0.950 . S
C2803 C2802 1.349 . S
C2803 C2819 1.349 . S
C2804 C2802 1.327 . S
C2804 C2823 1.429 . S
C2804 H2828 0.950 . S
C2805 C2822 1.574 . S
C2805 C2824 1.368 . S
C2805 H2829 0.949 . S
H2806 C2810 0.949 . S
C2807 C2808 1.349 . S
C2807 C2809 1.327 . S
C2807 H2830 0.950 . S
C2808 C2807 1.349 . S
C2808 C2820 1.349 . S
C2809 C2807 1.327 . S
C2809 C2825 1.429 . S
C2809 H2831 0.950 . S
C2810 H2806 0.949 . S
C2810 C2818 1.574 . S
C2810 C2826 1.368 . S
H2811 C2819 0.950 . S
H2812 C2817 0.950 . S
H2813 C2818 0.949 . S
H2814 C2820 0.954 . S
H2815 C2821 0.950 . S
H2816 C2822 0.949 . S
C2817 H2812 0.950 . S
C2817 C2819 1.327 . S
C2817 C2823 1.429 . S
C2818 C2810 1.574 . S
C2818 H2813 0.949 . S
C2818 C2824 1.368 . S
C2819 C2803 1.349 . S
C2819 H2811 0.950 . S
C2819 C2817 1.327 . S
C2820 C2808 1.349 . S
C2820 H2814 0.954 . S
C2820 C2821 1.327 . S
C2821 H2815 0.950 . S
C2821 C2820 1.327 . S
C2821 C2825 1.429 . S
C2822 C2805 1.574 . S
C2822 H2816 0.949 . S
C2822 C2826 1.368 . S
C2823 C2804 1.429 . S
C2823 C2817 1.429 . S
C2823 C2824 1.523 . S
C2824 C2805 1.368 . S
C2824 C2818 1.368 . S
C2824 C2823 1.523 . S
C2825 C2809 1.429 . S
C2825 C2821 1.429 . S
C2825 C2826 1.523 . S
C2826 C2810 1.368 . S
C2826 C2822 1.368 . S
C2826 C2825 1.523 . S
H2827 C2802 0.950 . S
H2828 C2804 0.950 . S
H2829 C2805 0.949 . S
H2830 C2807 0.950 . S
H2831 C2809 0.950 . S
C2832 C2833 1.349 . S
C2832 C2834 1.327 . S
C2832 H2857 0.950 . S
C2833 C2832 1.349 . S
C2833 C2849 1.349 . S
C2834 C2832 1.327 . S
C2834 C2853 1.429 . S
C2834 H2858 0.950 . S
C2835 C2852 1.574 . S
C2835 C2854 1.368 . S
C2835 H2859 0.949 . S
H2836 C2840 0.949 . S
C2837 C2838 1.349 . S
C2837 C2839 1.327 . S
C2837 H2860 0.950 . S
C2838 C2837 1.349 . S
C2838 C2850 1.349 . S
C2839 C2837 1.327 . S
C2839 C2855 1.429 . S
C2839 H2861 0.950 . S
C2840 H2836 0.949 . S
C2840 C2848 1.574 . S
C2840 C2856 1.368 . S
H2841 C2849 0.950 . S
H2842 C2847 0.950 . S
H2843 C2848 0.949 . S
H2844 C2850 0.950 . S
H2845 C2851 0.950 . S
H2846 C2852 0.949 . S
C2847 H2842 0.950 . S
C2847 C2849 1.327 . S
C2847 C2853 1.429 . S
C2848 C2840 1.574 . S
C2848 H2843 0.949 . S
C2848 C2854 1.368 . S
C2849 C2833 1.349 . S
C2849 H2841 0.950 . S
C2849 C2847 1.327 . S
C2850 C2838 1.349 . S
C2850 H2844 0.950 . S
C2850 C2851 1.327 . S
C2851 H2845 0.950 . S
C2851 C2850 1.327 . S
C2851 C2855 1.429 . S
C2852 C2835 1.574 . S
C2852 H2846 0.949 . S
C2852 C2856 1.368 . S
C2853 C2834 1.429 . S
C2853 C2847 1.429 . S
C2853 C2854 1.523 . S
C2854 C2835 1.368 . S
C2854 C2848 1.368 . S
C2854 C2853 1.523 . S
C2855 C2839 1.429 . S
C2855 C2851 1.429 . S
C2855 C2856 1.523 . S
C2856 C2840 1.368 . S
C2856 C2852 1.368 . S
C2856 C2855 1.523 . S
H2857 C2832 0.950 . S
H2858 C2834 0.950 . S
H2859 C2835 0.949 . S
H2860 C2837 0.950 . S
H2861 C2839 0.950 . S
C2862 C2863 1.349 . S
C2862 C2864 1.327 . S
C2862 H2887 0.950 1_554 S
C2863 C2862 1.349 . S
C2863 C2879 1.349 . S
C2864 C2862 1.327 . S
C2864 C2883 1.429 . S
C2864 H2888 0.950 1_554 S
C2865 C2882 1.574 . S
C2865 C2884 1.368 . S
C2865 H2889 0.949 . S
H2866 C2870 0.949 . S
C2867 C2868 1.349 . S
C2867 C2869 1.327 . S
C2867 H2890 0.950 . S
C2868 C2867 1.349 . S
C2868 C2880 1.349 1_554 S
C2869 C2867 1.327 . S
C2869 C2885 1.429 . S
C2869 H2891 0.950 . S
C2870 H2866 0.949 . S
C2870 C2878 1.574 . S
C2870 C2886 1.368 1_556 S
H2871 C2879 0.950 . S
H2872 C2877 0.950 . S
H2873 C2878 0.957 . S
H2874 C2880 0.950 . S
H2875 C2881 0.950 . S
H2876 C2882 0.949 . S
C2877 H2872 0.950 . S
C2877 C2879 1.327 . S
C2877 C2883 1.429 . S
C2878 C2870 1.574 . S
C2878 H2873 0.957 . S
C2878 C2884 1.360 1_556 S
C2879 C2863 1.349 . S
C2879 H2871 0.950 . S
C2879 C2877 1.327 . S
C2880 C2868 1.349 1_556 S
C2880 H2874 0.950 . S
C2880 C2881 1.327 . S
C2881 H2875 0.950 . S
C2881 C2880 1.327 . S
C2881 C2885 1.429 1_556 S
C2882 C2865 1.574 . S
C2882 H2876 0.949 . S
C2882 C2886 1.368 . S
C2883 C2864 1.429 . S
C2883 C2877 1.429 . S
C2883 C2884 1.523 . S
C2884 C2865 1.368 . S
C2884 C2878 1.360 1_554 S
C2884 C2883 1.523 . S
C2885 C2869 1.429 . S
C2885 C2881 1.429 1_554 S
C2885 C2886 1.523 . S
C2886 C2870 1.368 1_554 S
C2886 C2882 1.368 . S
C2886 C2885 1.523 . S
H2887 C2862 0.950 1_556 S
H2888 C2864 0.950 1_556 S
H2889 C2865 0.949 . S
H2890 C2867 0.950 . S
H2891 C2869 0.950 . S
C2892 C2893 1.349 . S
C2892 C2894 1.327 . S
C2892 H2917 0.950 . S
C2893 C2892 1.349 . S
C2893 C2909 1.349 . S
C2894 C2892 1.327 . S
C2894 C2913 1.429 . S
C2894 H2918 0.950 . S
C2895 C2912 1.574 . S
C2895 C2914 1.368 . S
C2895 H2919 0.949 . S
H2896 C2900 0.949 . S
C2897 C2898 1.349 . S
C2897 C2899 1.327 . S
C2897 H2920 0.950 . S
C2898 C2897 1.349 . S
C2898 C2910 1.349 . S
C2899 C2897 1.327 . S
C2899 C2915 1.429 . S
C2899 H2921 0.950 . S
C2900 H2896 0.949 . S
C2900 C2908 1.574 . S
C2900 C2916 1.368 . S
H2901 C2909 0.950 . S
H2902 C2907 0.950 . S
H2903 C2908 0.949 . S
H2904 C2910 0.950 . S
H2905 C2911 0.950 . S
H2906 C2912 0.949 . S
C2907 H2902 0.950 . S
C2907 C2909 1.327 . S
C2907 C2913 1.429 . S
C2908 C2900 1.574 . S
C2908 H2903 0.949 . S
C2908 C2914 1.368 . S
C2909 C2893 1.349 . S
C2909 H2901 0.950 . S
C2909 C2907 1.327 . S
C2910 C2898 1.349 . S
C2910 H2904 0.950 . S
C2910 C2911 1.327 . S
C2911 H2905 0.950 . S
C2911 C2910 1.327 . S
C2911 C2915 1.429 . S
C2912 C2895 1.574 . S
C2912 H2906 0.949 . S
C2912 C2916 1.368 . S
C2913 C2894 1.429 . S
C2913 C2907 1.429 . S
C2913 C2914 1.523 . S
C2914 C2895 1.368 . S
C2914 C2908 1.368 . S
C2914 C2913 1.523 . S
C2915 C2899 1.429 . S
C2915 C2911 1.429 . S
C2915 C2916 1.523 . S
C2916 C2900 1.368 . S
C2916 C2912 1.368 . S
C2916 C2915 1.523 . S
H2917 C2892 0.950 . S
H2918 C2894 0.950 . S
H2919 C2895 0.949 . S
H2920 C2897 0.950 . S
H2921 C2899 0.950 . S
C2922 C2923 1.333 1_554 S
C2922 C2924 1.327 . S
C2922 H2947 0.950 . S
C2923 C2922 1.333 1_556 S
C2923 C2939 1.372 . S
C2924 C2922 1.327 . S
C2924 C2943 1.429 1_554 S
C2924 H2948 0.950 . S
C2925 C2942 1.574 . S
C2925 C2944 1.368 . S
C2925 H2949 0.949 . S
H2926 C2930 0.949 . S
C2927 C2928 1.349 . S
C2927 C2929 1.327 . S
C2927 H2950 0.950 . S
C2928 C2927 1.349 . S
C2928 C2940 1.349 1_556 S
C2929 C2927 1.327 . S
C2929 C2945 1.429 . S
C2929 H2951 0.950 . S
C2930 H2926 0.949 . S
C2930 C2938 1.574 . S
C2930 C2946 1.368 1_554 S
H2931 C2939 0.950 . S
H2932 C2937 0.950 . S
H2933 C2938 0.949 . S
H2934 C2940 0.950 . S
H2935 C2941 0.950 . S
H2936 C2942 0.949 . S
C2937 H2932 0.950 . S
C2937 C2939 1.327 . S
C2937 C2943 1.429 . S
C2938 C2930 1.574 . S
C2938 H2933 0.949 . S
C2938 C2944 1.368 1_554 S
C2939 C2923 1.372 . S
C2939 H2931 0.950 . S
C2939 C2937 1.327 . S
C2940 C2928 1.349 1_554 S
C2940 H2934 0.950 . S
C2940 C2941 1.327 . S
C2941 H2935 0.950 . S
C2941 C2940 1.327 . S
C2941 C2945 1.429 1_554 S
C2942 C2925 1.574 . S
C2942 H2936 0.949 . S
C2942 C2946 1.368 . S
C2943 C2924 1.429 1_556 S
C2943 C2937 1.429 . S
C2943 C2944 1.523 . S
C2944 C2925 1.368 . S
C2944 C2938 1.368 1_556 S
C2944 C2943 1.523 . S
C2945 C2929 1.429 . S
C2945 C2941 1.429 1_556 S
C2945 C2946 1.523 . S
C2946 C2930 1.368 1_556 S
C2946 C2942 1.368 . S
C2946 C2945 1.523 . S
H2947 C2922 0.950 . S
H2948 C2924 0.950 . S
H2949 C2925 0.949 . S
H2950 C2927 0.950 . S
H2951 C2929 0.950 . S
C2952 C2953 1.349 . S
C2952 C2954 1.327 . S
C2952 H2977 0.950 . S
C2953 C2952 1.349 . S
C2953 C2969 1.349 . S
C2954 C2952 1.327 . S
C2954 C2973 1.429 . S
C2954 H2978 0.950 . S
C2955 C2972 1.574 . S
C2955 C2974 1.368 . S
C2955 H2979 0.949 . S
H2956 C2960 0.949 . S
C2957 C2958 1.349 . S
C2957 C2959 1.327 . S
C2957 H2980 0.950 . S
C2958 C2957 1.349 . S
C2958 C2970 1.349 . S
C2959 C2957 1.327 . S
C2959 C2975 1.429 . S
C2959 H2981 0.950 . S
C2960 H2956 0.949 . S
C2960 C2968 1.574 . S
C2960 C2976 1.368 . S
H2961 C2969 0.950 . S
H2962 C2967 0.950 . S
H2963 C2968 0.949 . S
H2964 C2970 0.950 . S
H2965 C2971 0.950 . S
H2966 C2972 0.949 . S
C2967 H2962 0.950 . S
C2967 C2969 1.327 . S
C2967 C2973 1.429 . S
C2968 C2960 1.574 . S
C2968 H2963 0.949 . S
C2968 C2974 1.368 . S
C2969 C2953 1.349 . S
C2969 H2961 0.950 . S
C2969 C2967 1.327 . S
C2970 C2958 1.349 . S
C2970 H2964 0.950 . S
C2970 C2971 1.327 . S
C2971 H2965 0.950 . S
C2971 C2970 1.327 . S
C2971 C2975 1.429 . S
C2972 C2955 1.574 . S
C2972 H2966 0.949 . S
C2972 C2976 1.368 . S
C2973 C2954 1.429 . S
C2973 C2967 1.429 . S
C2973 C2974 1.523 . S
C2974 C2955 1.368 . S
C2974 C2968 1.368 . S
C2974 C2973 1.523 . S
C2975 C2959 1.429 . S
C2975 C2971 1.429 . S
C2975 C2976 1.523 . S
C2976 C2960 1.368 . S
C2976 C2972 1.368 . S
C2976 C2975 1.523 . S
H2977 C2952 0.950 . S
H2978 C2954 0.950 . S
H2979 C2955 0.949 . S
H2980 C2957 0.950 . S
H2981 C2959 0.950 . S
C2982 C2983 1.349 . S
C2982 C2984 1.327 . S
C2982 H3007 0.950 1_455 S
C2983 C2982 1.349 . S
C2983 C2999 1.349 . S
C2984 C2982 1.327 . S
C2984 C3003 1.429 . S
C2984 H3008 0.950 1_455 S
C2985 C3002 1.574 . S
C2985 C3004 1.368 . S
C2985 H3009 0.949 . S
H2986 C2990 0.949 . S
C2987 C2988 1.349 . S
C2987 C2989 1.327 . S
C2987 H3010 0.950 . S
C2988 C2987 1.349 . S
C2988 C3000 1.349 1_455 S
C2989 C2987 1.327 . S
C2989 C3005 1.429 . S
C2989 H3011 0.950 . S
C2990 H2986 0.949 . S
C2990 C2998 1.574 . S
C2990 C3006 1.368 1_655 S
H2991 C2999 0.950 . S
H2992 C2997 0.950 . S
H2993 C2998 0.949 . S
H2994 C3000 0.950 . S
H2995 C3001 0.950 . S
H2996 C3002 0.949 . S
C2997 H2992 0.950 . S
C2997 C2999 1.327 . S
C2997 C3003 1.429 . S
C2998 C2990 1.574 . S
C2998 H2993 0.949 . S
C2998 C3004 1.368 1_655 S
C2999 C2983 1.349 . S
C2999 H2991 0.950 . S
C2999 C2997 1.327 . S
C3000 C2988 1.349 1_655 S
C3000 H2994 0.950 . S
C3000 C3001 1.327 . S
C3001 H2995 0.950 . S
C3001 C3000 1.327 . S
C3001 C3005 1.429 1_655 S
C3002 C2985 1.574 . S
C3002 H2996 0.949 . S
C3002 C3006 1.368 . S
C3003 C2984 1.429 . S
C3003 C2997 1.429 . S
C3003 C3004 1.523 . S
C3004 C2985 1.368 . S
C3004 C2998 1.368 1_455 S
C3004 C3003 1.523 . S
C3005 C2989 1.429 . S
C3005 C3001 1.429 1_455 S
C3005 C3006 1.523 . S
C3006 C2990 1.368 1_455 S
C3006 C3002 1.368 . S
C3006 C3005 1.523 . S
H3007 C2982 0.950 1_655 S
H3008 C2984 0.950 1_655 S
H3009 C2985 0.949 . S
H3010 C2987 0.950 . S
H3011 C2989 0.950 . S
C3012 C3013 1.349 . S
C3012 C3014 1.327 . S
C3012 H3037 0.950 . S
C3013 C3012 1.349 . S
C3013 C3029 1.349 . S
C3014 C3012 1.327 . S
C3014 C3033 1.429 . S
C3014 H3038 0.950 . S
C3015 C3032 1.574 . S
C3015 C3034 1.368 . S
C3015 H3039 0.949 . S
H3016 C3020 0.949 . S
C3017 C3018 1.349 . S
C3017 C3019 1.327 . S
C3017 H3040 0.950 . S
C3018 C3017 1.349 . S
C3018 C3030 1.349 . S
C3019 C3017 1.327 . S
C3019 C3035 1.429 . S
C3019 H3041 0.950 . S
C3020 H3016 0.949 . S
C3020 C3028 1.574 . S
C3020 C3036 1.368 . S
H3021 C3029 0.950 . S
H3022 C3027 0.950 . S
H3023 C3028 0.949 . S
H3024 C3030 0.950 . S
H3025 C3031 0.950 . S
H3026 C3032 0.949 . S
C3027 H3022 0.950 . S
C3027 C3029 1.327 . S
C3027 C3033 1.429 . S
C3028 C3020 1.574 . S
C3028 H3023 0.949 . S
C3028 C3034 1.368 . S
C3029 C3013 1.349 . S
C3029 H3021 0.950 . S
C3029 C3027 1.327 . S
C3030 C3018 1.349 . S
C3030 H3024 0.950 . S
C3030 C3031 1.327 . S
C3031 H3025 0.950 . S
C3031 C3030 1.327 . S
C3031 C3035 1.429 . S
C3032 C3015 1.574 . S
C3032 H3026 0.949 . S
C3032 C3036 1.368 . S
C3033 C3014 1.429 . S
C3033 C3027 1.429 . S
C3033 C3034 1.523 . S
C3034 C3015 1.368 . S
C3034 C3028 1.368 . S
C3034 C3033 1.523 . S
C3035 C3019 1.429 . S
C3035 C3031 1.429 . S
C3035 C3036 1.523 . S
C3036 C3020 1.368 . S
C3036 C3032 1.368 . S
C3036 C3035 1.523 . S
H3037 C3012 0.950 . S
H3038 C3014 0.950 . S
H3039 C3015 0.949 . S
H3040 C3017 0.950 . S
H3041 C3019 0.950 . S
C3042 C3043 1.376 . S
C3042 C3044 1.327 . S
C3042 H3067 0.950 . S
C3043 C3042 1.376 . S
C3043 C3059 1.328 1_655 S
C3044 C3042 1.327 . S
C3044 C3063 1.429 . S
C3044 H3068 0.950 . S
C3045 C3062 1.574 . S
C3045 C3064 1.368 1_455 S
C3045 H3069 0.949 . S
H3046 C3050 0.949 . S
C3047 C3048 1.349 1_455 S
C3047 C3049 1.327 . S
C3047 H3070 0.950 . S
C3048 C3047 1.349 1_655 S
C3048 C3060 1.349 . S
C3049 C3047 1.327 . S
C3049 C3065 1.429 1_455 S
C3049 H3071 0.950 . S
C3050 H3046 0.949 . S
C3050 C3058 1.574 . S
C3050 C3066 1.368 . S
H3051 C3059 0.950 . S
H3052 C3057 0.950 . S
H3053 C3058 0.949 . S
H3054 C3060 0.950 . S
H3055 C3061 0.950 . S
H3056 C3062 0.949 . S
C3057 H3052 0.950 . S
C3057 C3059 1.327 . S
C3057 C3063 1.429 1_455 S
C3058 C3050 1.574 . S
C3058 H3053 0.949 . S
C3058 C3064 1.368 . S
C3059 C3043 1.328 1_455 S
C3059 H3051 0.950 . S
C3059 C3057 1.327 . S
C3060 C3048 1.349 . S
C3060 H3054 0.950 . S
C3060 C3061 1.327 . S
C3061 H3055 0.950 . S
C3061 C3060 1.327 . S
C3061 C3065 1.429 . S
C3062 C3045 1.574 . S
C3062 H3056 0.949 . S
C3062 C3066 1.368 1_455 S
C3063 C3044 1.429 . S
C3063 C3057 1.429 1_655 S
C3063 C3064 1.523 . S
C3064 C3045 1.368 1_655 S
C3064 C3058 1.368 . S
C3064 C3063 1.523 . S
C3065 C3049 1.429 1_655 S
C3065 C3061 1.429 . S
C3065 C3066 1.523 . S
C3066 C3050 1.368 . S
C3066 C3062 1.368 1_655 S
C3066 C3065 1.523 . S
H3067 C3042 0.950 . S
H3068 C3044 0.950 . S
H3069 C3045 0.949 . S
H3070 C3047 0.950 . S
H3071 C3049 0.950 . S
C3072 C3073 1.349 . S
C3072 C3074 1.327 . S
C3072 H3097 0.950 . S
C3073 C3072 1.349 . S
C3073 C3089 1.349 . S
C3074 C3072 1.327 . S
C3074 C3093 1.429 . S
C3074 H3098 0.950 . S
C3075 C3092 1.574 . S
C3075 C3094 1.368 . S
C3075 H3099 0.949 . S
H3076 C3080 0.949 . S
C3077 C3078 1.349 . S
C3077 C3079 1.327 . S
C3077 H3100 0.950 . S
C3078 C3077 1.349 . S
C3078 C3090 1.349 . S
C3079 C3077 1.327 . S
C3079 C3095 1.429 . S
C3079 H3101 0.950 . S
C3080 H3076 0.949 . S
C3080 C3088 1.574 . S
C3080 C3096 1.368 . S
H3081 C3089 0.950 . S
H3082 C3087 0.950 . S
H3083 C3088 0.949 . S
H3084 C3090 0.950 . S
H3085 C3091 0.950 . S
H3086 C3092 0.949 . S
C3087 H3082 0.950 . S
C3087 C3089 1.327 . S
C3087 C3093 1.429 . S
C3088 C3080 1.574 . S
C3088 H3083 0.949 . S
C3088 C3094 1.368 . S
C3089 C3073 1.349 . S
C3089 H3081 0.950 . S
C3089 C3087 1.327 . S
C3090 C3078 1.349 . S
C3090 H3084 0.950 . S
C3090 C3091 1.327 . S
C3091 H3085 0.950 . S
C3091 C3090 1.327 . S
C3091 C3095 1.429 . S
C3092 C3075 1.574 . S
C3092 H3086 0.949 . S
C3092 C3096 1.368 . S
C3093 C3074 1.429 . S
C3093 C3087 1.429 . S
C3093 C3094 1.523 . S
C3094 C3075 1.368 . S
C3094 C3088 1.368 . S
C3094 C3093 1.523 . S
C3095 C3079 1.429 . S
C3095 C3091 1.429 . S
C3095 C3096 1.523 . S
C3096 C3080 1.368 . S
C3096 C3092 1.368 . S
C3096 C3095 1.523 . S
H3097 C3072 0.950 . S
H3098 C3074 0.950 . S
H3099 C3075 0.949 . S
H3100 C3077 0.950 . S
H3101 C3079 0.950 . S
C3102 C3103 1.349 . S
C3102 C3104 1.327 . S
C3102 H3127 0.950 . S
C3103 C3102 1.349 . S
C3103 C3119 1.349 . S
C3104 C3102 1.327 . S
C3104 C3123 1.429 . S
C3104 H3128 0.950 . S
C3105 C3122 1.574 . S
C3105 C3124 1.368 . S
C3105 H3129 0.949 . S
H3106 C3110 0.949 . S
C3107 C3108 1.349 . S
C3107 C3109 1.327 . S
C3107 H3130 0.950 . S
C3108 C3107 1.349 . S
C3108 C3120 1.349 . S
C3109 C3107 1.327 . S
C3109 C3125 1.429 . S
C3109 H3131 0.950 . S
C3110 H3106 0.949 . S
C3110 C3118 1.574 . S
C3110 C3126 1.368 . S
H3111 C3119 0.950 . S
H3112 C3117 0.950 . S
H3113 C3118 0.949 . S
H3114 C3120 0.950 . S
H3115 C3121 0.950 . S
H3116 C3122 0.949 . S
C3117 H3112 0.950 . S
C3117 C3119 1.327 . S
C3117 C3123 1.429 . S
C3118 C3110 1.574 . S
C3118 H3113 0.949 . S
C3118 C3124 1.368 . S
C3119 C3103 1.349 . S
C3119 H3111 0.950 . S
C3119 C3117 1.327 . S
C3120 C3108 1.349 . S
C3120 H3114 0.950 . S
C3120 C3121 1.327 . S
C3121 H3115 0.950 . S
C3121 C3120 1.327 . S
C3121 C3125 1.429 . S
C3122 C3105 1.574 . S
C3122 H3116 0.949 . S
C3122 C3126 1.368 . S
C3123 C3104 1.429 . S
C3123 C3117 1.429 . S
C3123 C3124 1.523 . S
C3124 C3105 1.368 . S
C3124 C3118 1.368 . S
C3124 C3123 1.523 . S
C3125 C3109 1.429 . S
C3125 C3121 1.429 . S
C3125 C3126 1.523 . S
C3126 C3110 1.368 . S
C3126 C3122 1.368 . S
C3126 C3125 1.523 . S
H3127 C3102 0.950 . S
H3128 C3104 0.950 . S
H3129 C3105 0.949 . S
H3130 C3107 0.950 . S
H3131 C3109 0.950 . S
C3132 C3133 1.326 1_565 S
C3132 C3134 1.327 . S
C3132 H3157 0.950 . S
C3133 C3132 1.326 1_545 S
C3133 C3149 1.378 . S
C3134 C3132 1.327 . S
C3134 C3153 1.429 1_565 S
C3134 H3158 0.950 . S
C3135 C3152 1.574 . S
C3135 C3154 1.368 . S
C3135 H3159 0.949 . S
H3136 C3140 0.949 . S
C3137 C3138 1.349 . S
C3137 C3139 1.327 . S
C3137 H3160 0.950 . S
C3138 C3137 1.349 . S
C3138 C3150 1.349 1_545 S
C3139 C3137 1.327 . S
C3139 C3155 1.429 . S
C3139 H3161 0.950 . S
C3140 H3136 0.949 . S
C3140 C3148 1.574 . S
C3140 C3156 1.368 1_565 S
H3141 C3149 0.950 . S
H3142 C3147 0.950 . S
H3143 C3148 0.949 . S
H3144 C3150 0.950 . S
H3145 C3151 0.950 . S
H3146 C3152 0.949 . S
C3147 H3142 0.950 . S
C3147 C3149 1.327 . S
C3147 C3153 1.429 . S
C3148 C3140 1.574 . S
C3148 H3143 0.949 . S
C3148 C3154 1.368 1_565 S
C3149 C3133 1.378 . S
C3149 H3141 0.950 . S
C3149 C3147 1.327 . S
C3150 C3138 1.349 1_565 S
C3150 H3144 0.950 . S
C3150 C3151 1.327 . S
C3151 H3145 0.950 . S
C3151 C3150 1.327 . S
C3151 C3155 1.429 1_565 S
C3152 C3135 1.574 . S
C3152 H3146 0.949 . S
C3152 C3156 1.368 . S
C3153 C3134 1.429 1_545 S
C3153 C3147 1.429 . S
C3153 C3154 1.523 . S
C3154 C3135 1.368 . S
C3154 C3148 1.368 1_545 S
C3154 C3153 1.523 . S
C3155 C3139 1.429 . S
C3155 C3151 1.429 1_545 S
C3155 C3156 1.523 . S
C3156 C3140 1.368 1_545 S
C3156 C3152 1.368 . S
C3156 C3155 1.523 . S
H3157 C3132 0.950 . S
H3158 C3134 0.950 . S
H3159 C3135 0.949 . S
H3160 C3137 0.950 . S
H3161 C3139 0.950 . S
C3162 C3163 1.349 . S
C3162 C3164 1.327 . S
C3162 H3187 0.950 1_565 S
C3163 C3162 1.349 . S
C3163 C3179 1.349 . S
C3164 C3162 1.327 . S
C3164 C3183 1.429 . S
C3164 H3188 0.950 1_565 S
C3165 C3182 1.574 . S
C3165 C3184 1.368 . S
C3165 H3189 0.949 . S
H3166 C3170 0.949 . S
C3167 C3168 1.349 . S
C3167 C3169 1.327 . S
C3167 H3190 0.950 . S
C3168 C3167 1.349 . S
C3168 C3180 1.349 1_565 S
C3169 C3167 1.327 . S
C3169 C3185 1.429 . S
C3169 H3191 0.950 . S
C3170 H3166 0.949 . S
C3170 C3178 1.574 . S
C3170 C3186 1.368 1_545 S
H3171 C3179 0.950 . S
H3172 C3177 0.950 . S
H3173 C3178 0.949 . S
H3174 C3180 0.950 . S
H3175 C3181 0.950 . S
H3176 C3182 0.949 . S
C3177 H3172 0.950 . S
C3177 C3179 1.327 . S
C3177 C3183 1.429 . S
C3178 C3170 1.574 . S
C3178 H3173 0.949 . S
C3178 C3184 1.368 1_545 S
C3179 C3163 1.349 . S
C3179 H3171 0.950 . S
C3179 C3177 1.327 . S
C3180 C3168 1.349 1_545 S
C3180 H3174 0.950 . S
C3180 C3181 1.327 . S
C3181 H3175 0.950 . S
C3181 C3180 1.327 . S
C3181 C3185 1.429 1_545 S
C3182 C3165 1.574 . S
C3182 H3176 0.949 . S
C3182 C3186 1.368 . S
C3183 C3164 1.429 . S
C3183 C3177 1.429 . S
C3183 C3184 1.523 . S
C3184 C3165 1.368 . S
C3184 C3178 1.368 1_565 S
C3184 C3183 1.523 . S
C3185 C3169 1.429 . S
C3185 C3181 1.429 1_565 S
C3185 C3186 1.523 . S
C3186 C3170 1.368 1_565 S
C3186 C3182 1.368 . S
C3186 C3185 1.523 . S
H3187 C3162 0.950 1_545 S
H3188 C3164 0.950 1_545 S
H3189 C3165 0.949 . S
H3190 C3167 0.950 . S
H3191 C3169 0.950 . S
C3192 C3193 1.349 . S
C3192 C3194 1.327 . S
C3192 H3217 0.950 . S
C3193 C3192 1.349 . S
C3193 C3209 1.349 . S
C3194 C3192 1.327 . S
C3194 C3213 1.429 . S
C3194 H3218 0.950 . S
C3195 C3212 1.574 . S
C3195 C3214 1.368 . S
C3195 H3219 0.949 . S
H3196 C3200 0.949 . S
C3197 C3198 1.349 . S
C3197 C3199 1.327 . S
C3197 H3220 0.950 . S
C3198 C3197 1.349 . S
C3198 C3210 1.349 . S
C3199 C3197 1.327 . S
C3199 C3215 1.429 . S
C3199 H3221 0.950 . S
C3200 H3196 0.949 . S
C3200 C3208 1.574 . S
C3200 C3216 1.368 . S
H3201 C3209 0.950 . S
H3202 C3207 0.950 . S
H3203 C3208 0.949 . S
H3204 C3210 0.950 . S
H3205 C3211 0.950 . S
H3206 C3212 0.949 . S
C3207 H3202 0.950 . S
C3207 C3209 1.327 . S
C3207 C3213 1.429 . S
C3208 C3200 1.574 . S
C3208 H3203 0.949 . S
C3208 C3214 1.368 . S
C3209 C3193 1.349 . S
C3209 H3201 0.950 . S
C3209 C3207 1.327 . S
C3210 C3198 1.349 . S
C3210 H3204 0.950 . S
C3210 C3211 1.327 . S
C3211 H3205 0.950 . S
C3211 C3210 1.327 . S
C3211 C3215 1.429 . S
C3212 C3195 1.574 . S
C3212 H3206 0.949 . S
C3212 C3216 1.368 . S
C3213 C3194 1.429 . S
C3213 C3207 1.429 . S
C3213 C3214 1.523 . S
C3214 C3195 1.368 . S
C3214 C3208 1.368 . S
C3214 C3213 1.523 . S
C3215 C3199 1.429 . S
C3215 C3211 1.429 . S
C3215 C3216 1.523 . S
C3216 C3200 1.368 . S
C3216 C3212 1.368 . S
C3216 C3215 1.523 . S
H3217 C3192 0.950 . S
H3218 C3194 0.950 . S
H3219 C3195 0.949 . S
H3220 C3197 0.950 . S
H3221 C3199 0.950 . S
C3222 C3223 1.349 . S
C3222 C3224 1.327 . S
C3222 H3247 0.950 1_556 S
C3223 C3222 1.349 . S
C3223 C3239 1.349 . S
C3224 C3222 1.327 . S
C3224 C3243 1.429 . S
C3224 H3248 0.950 1_556 S
C3225 C3242 1.574 . S
C3225 C3244 1.368 . S
C3225 H3249 0.949 . S
H3226 C3230 0.949 . S
C3227 C3228 1.349 . S
C3227 C3229 1.327 . S
C3227 H3250 0.950 . S
C3228 C3227 1.349 . S
C3228 C3240 1.349 1_556 S
C3229 C3227 1.327 . S
C3229 C3245 1.429 . S
C3229 H3251 0.950 . S
C3230 H3226 0.949 . S
C3230 C3238 1.574 . S
C3230 C3246 1.368 1_554 S
H3231 C3239 0.950 . S
H3232 C3237 0.950 . S
H3233 C3238 0.949 . S
H3234 C3240 0.950 . S
H3235 C3241 0.950 . S
H3236 C3242 0.949 . S
C3237 H3232 0.950 . S
C3237 C3239 1.327 . S
C3237 C3243 1.429 . S
C3238 C3230 1.574 . S
C3238 H3233 0.949 . S
C3238 C3244 1.368 1_554 S
C3239 C3223 1.349 . S
C3239 H3231 0.950 . S
C3239 C3237 1.327 . S
C3240 C3228 1.349 1_554 S
C3240 H3234 0.950 . S
C3240 C3241 1.327 . S
C3241 H3235 0.950 . S
C3241 C3240 1.327 . S
C3241 C3245 1.429 1_554 S
C3242 C3225 1.574 . S
C3242 H3236 0.949 . S
C3242 C3246 1.368 . S
C3243 C3224 1.429 . S
C3243 C3237 1.429 . S
C3243 C3244 1.523 . S
C3244 C3225 1.368 . S
C3244 C3238 1.368 1_556 S
C3244 C3243 1.523 . S
C3245 C3229 1.429 . S
C3245 C3241 1.429 1_556 S
C3245 C3246 1.523 . S
C3246 C3230 1.368 1_556 S
C3246 C3242 1.368 . S
C3246 C3245 1.523 . S
H3247 C3222 0.950 1_554 S
H3248 C3224 0.950 1_554 S
H3249 C3225 0.949 . S
H3250 C3227 0.950 . S
H3251 C3229 0.950 . S
C3252 C3253 1.349 . S
C3252 C3254 1.327 . S
C3252 H3277 0.950 . S
C3253 C3252 1.349 . S
C3253 C3269 1.349 . S
C3254 C3252 1.327 . S
C3254 C3273 1.429 . S
C3254 H3278 0.950 . S
C3255 C3272 1.574 . S
C3255 C3274 1.368 . S
C3255 H3279 0.949 . S
H3256 C3260 0.949 . S
C3257 C3258 1.349 . S
C3257 C3259 1.327 . S
C3257 H3280 0.950 . S
C3258 C3257 1.349 . S
C3258 C3270 1.349 . S
C3259 C3257 1.327 . S
C3259 C3275 1.429 . S
C3259 H3281 0.950 . S
C3260 H3256 0.949 . S
C3260 C3268 1.574 . S
C3260 C3276 1.368 . S
H3261 C3269 0.950 . S
H3262 C3267 0.950 . S
H3263 C3268 0.949 . S
H3264 C3270 0.950 . S
H3265 C3271 0.950 . S
H3266 C3272 0.949 . S
C3267 H3262 0.950 . S
C3267 C3269 1.327 . S
C3267 C3273 1.429 . S
C3268 C3260 1.574 . S
C3268 H3263 0.949 . S
C3268 C3274 1.368 . S
C3269 C3253 1.349 . S
C3269 H3261 0.950 . S
C3269 C3267 1.327 . S
C3270 C3258 1.349 . S
C3270 H3264 0.950 . S
C3270 C3271 1.327 . S
C3271 H3265 0.950 . S
C3271 C3270 1.327 . S
C3271 C3275 1.429 . S
C3272 C3255 1.574 . S
C3272 H3266 0.949 . S
C3272 C3276 1.368 . S
C3273 C3254 1.429 . S
C3273 C3267 1.429 . S
C3273 C3274 1.523 . S
C3274 C3255 1.368 . S
C3274 C3268 1.368 . S
C3274 C3273 1.523 . S
C3275 C3259 1.429 . S
C3275 C3271 1.429 . S
C3275 C3276 1.523 . S
C3276 C3260 1.368 . S
C3276 C3272 1.368 . S
C3276 C3275 1.523 . S
H3277 C3252 0.950 . S
H3278 C3254 0.950 . S
H3279 C3255 0.949 . S
H3280 C3257 0.950 . S
H3281 C3259 0.950 . S
C3282 C3283 1.374 . S
C3282 C3284 1.327 . S
C3282 H3307 0.950 . S
C3283 C3282 1.374 . S
C3283 C3299 1.331 1_554 S
C3284 C3282 1.327 . S
C3284 C3303 1.429 . S
C3284 H3308 0.950 . S
C3285 C3302 1.574 . S
C3285 C3304 1.368 1_556 S
C3285 H3309 0.949 . S
H3286 C3290 0.949 . S
C3287 C3288 1.349 1_556 S
C3287 C3289 1.327 . S
C3287 H3310 0.950 . S
C3288 C3287 1.349 1_554 S
C3288 C3300 1.349 . S
C3289 C3287 1.327 . S
C3289 C3305 1.429 1_556 S
C3289 H3311 0.950 . S
C3290 H3286 0.949 . S
C3290 C3298 1.574 . S
C3290 C3306 1.368 . S
H3291 C3299 0.950 . S
H3292 C3297 0.950 . S
H3293 C3298 0.949 . S
H3294 C3300 0.950 . S
H3295 C3301 0.950 . S
H3296 C3302 0.949 . S
C3297 H3292 0.950 . S
C3297 C3299 1.327 . S
C3297 C3303 1.429 1_556 S
C3298 C3290 1.574 . S
C3298 H3293 0.949 . S
C3298 C3304 1.368 . S
C3299 C3283 1.331 1_556 S
C3299 H3291 0.950 . S
C3299 C3297 1.327 . S
C3300 C3288 1.349 . S
C3300 H3294 0.950 . S
C3300 C3301 1.327 . S
C3301 H3295 0.950 . S
C3301 C3300 1.327 . S
C3301 C3305 1.429 . S
C3302 C3285 1.574 . S
C3302 H3296 0.949 . S
C3302 C3306 1.368 1_556 S
C3303 C3284 1.429 . S
C3303 C3297 1.429 1_554 S
C3303 C3304 1.523 . S
C3304 C3285 1.368 1_554 S
C3304 C3298 1.368 . S
C3304 C3303 1.523 . S
C3305 C3289 1.429 1_554 S
C3305 C3301 1.429 . S
C3305 C3306 1.523 . S
C3306 C3290 1.368 . S
C3306 C3302 1.368 1_554 S
C3306 C3305 1.523 . S
H3307 C3282 0.950 . S
H3308 C3284 0.950 . S
H3309 C3285 0.949 . S
H3310 C3287 0.950 . S
H3311 C3289 0.950 . S
C3312 C3313 1.349 . S
C3312 C3314 1.327 . S
C3312 H3337 0.950 . S
C3313 C3312 1.349 . S
C3313 C3329 1.349 . S
C3314 C3312 1.327 . S
C3314 C3333 1.429 . S
C3314 H3338 0.950 . S
C3315 C3332 1.574 . S
C3315 C3334 1.368 . S
C3315 H3339 0.949 . S
H3316 C3320 0.949 . S
C3317 C3318 1.349 . S
C3317 C3319 1.327 . S
C3317 H3340 0.950 . S
C3318 C3317 1.349 . S
C3318 C3330 1.349 . S
C3319 C3317 1.327 . S
C3319 C3335 1.429 . S
C3319 H3341 0.950 . S
C3320 H3316 0.949 . S
C3320 C3328 1.574 . S
C3320 C3336 1.368 . S
H3321 C3329 0.950 . S
H3322 C3327 0.950 . S
H3323 C3328 0.949 . S
H3324 C3330 0.950 . S
H3325 C3331 0.950 . S
H3326 C3332 0.949 . S
C3327 H3322 0.950 . S
C3327 C3329 1.327 . S
C3327 C3333 1.429 . S
C3328 C3320 1.574 . S
C3328 H3323 0.949 . S
C3328 C3334 1.368 . S
C3329 C3313 1.349 . S
C3329 H3321 0.950 . S
C3329 C3327 1.327 . S
C3330 C3318 1.349 . S
C3330 H3324 0.950 . S
C3330 C3331 1.327 . S
C3331 H3325 0.950 . S
C3331 C3330 1.327 . S
C3331 C3335 1.429 . S
C3332 C3315 1.574 . S
C3332 H3326 0.949 . S
C3332 C3336 1.368 . S
C3333 C3314 1.429 . S
C3333 C3327 1.429 . S
C3333 C3334 1.523 . S
C3334 C3315 1.368 . S
C3334 C3328 1.368 . S
C3334 C3333 1.523 . S
C3335 C3319 1.429 . S
C3335 C3331 1.429 . S
C3335 C3336 1.523 . S
C3336 C3320 1.368 . S
C3336 C3332 1.368 . S
C3336 C3335 1.523 . S
H3337 C3312 0.950 . S
H3338 C3314 0.950 . S
H3339 C3315 0.949 . S
H3340 C3317 0.950 . S
H3341 C3319 0.950 . S
C3342 C3343 1.349 . S
C3342 C3344 1.327 . S
C3342 H3367 0.950 . S
C3343 C3342 1.349 . S
C3343 C3359 1.349 . S
C3344 C3342 1.327 . S
C3344 C3363 1.429 . S
C3344 H3368 0.945 . S
C3345 C3362 1.574 . S
C3345 C3364 1.368 . S
C3345 H3369 0.949 . S
H3346 C3350 0.949 1_455 S
C3347 C3348 1.349 . S
C3347 C3349 1.327 . S
C3347 H3370 0.950 . S
C3348 C3347 1.349 . S
C3348 C3360 1.349 1_655 S
C3349 C3347 1.327 . S
C3349 C3365 1.429 . S
C3349 H3371 0.950 . S
C3350 H3346 0.949 1_655 S
C3350 C3358 1.574 . S
C3350 C3366 1.368 . S
H3351 C3359 0.950 . S
H3352 C3357 0.950 . S
H3353 C3358 0.949 1_455 S
H3354 C3360 0.950 . S
H3355 C3361 0.990 . S
H3356 C3362 0.949 . S
C3357 H3352 0.950 . S
C3357 C3359 1.327 . S
C3357 C3363 1.429 . S
C3358 C3350 1.574 . S
C3358 H3353 0.949 1_655 S
C3358 C3364 1.368 . S
C3359 C3343 1.349 . S
C3359 H3351 0.950 . S
C3359 C3357 1.327 . S
C3360 C3348 1.349 1_455 S
C3360 H3354 0.950 . S
C3360 C3361 1.328 . S
C3361 H3355 0.990 . S
C3361 C3360 1.328 . S
C3361 C3365 1.393 1_455 S
C3362 C3345 1.574 . S
C3362 H3356 0.949 . S
C3362 C3366 1.368 . S
C3363 C3344 1.429 . S
C3363 C3357 1.429 . S
C3363 C3364 1.523 . S
C3364 C3345 1.368 . S
C3364 C3358 1.368 . S
C3364 C3363 1.523 . S
C3365 C3349 1.429 . S
C3365 C3361 1.393 1_655 S
C3365 C3366 1.523 . S
C3366 C3350 1.368 . S
C3366 C3362 1.368 . S
C3366 C3365 1.523 . S
H3367 C3342 0.950 . S
H3368 C3344 0.945 . S
H3369 C3345 0.949 . S
H3370 C3347 0.950 . S
H3371 C3349 0.950 . S
C3372 C3373 1.349 . S
C3372 C3374 1.327 . S
C3372 H3397 0.950 . S
C3373 C3372 1.349 . S
C3373 C3389 1.349 . S
C3374 C3372 1.327 . S
C3374 C3393 1.429 . S
C3374 H3398 0.950 . S
C3375 C3392 1.574 . S
C3375 C3394 1.368 . S
C3375 H3399 0.949 . S
H3376 C3380 0.949 . S
C3377 C3378 1.349 . S
C3377 C3379 1.327 . S
C3377 H3400 0.950 . S
C3378 C3377 1.349 . S
C3378 C3390 1.349 . S
C3379 C3377 1.327 . S
C3379 C3395 1.429 . S
C3379 H3401 0.950 . S
C3380 H3376 0.949 . S
C3380 C3388 1.574 . S
C3380 C3396 1.368 . S
H3381 C3389 0.950 . S
H3382 C3387 0.950 . S
H3383 C3388 0.949 . S
H3384 C3390 0.950 . S
H3385 C3391 0.950 . S
H3386 C3392 0.949 . S
C3387 H3382 0.950 . S
C3387 C3389 1.327 . S
C3387 C3393 1.429 . S
C3388 C3380 1.574 . S
C3388 H3383 0.949 . S
C3388 C3394 1.368 . S
C3389 C3373 1.349 . S
C3389 H3381 0.950 . S
C3389 C3387 1.327 . S
C3390 C3378 1.349 . S
C3390 H3384 0.950 . S
C3390 C3391 1.327 . S
C3391 H3385 0.950 . S
C3391 C3390 1.327 . S
C3391 C3395 1.429 . S
C3392 C3375 1.574 . S
C3392 H3386 0.949 . S
C3392 C3396 1.368 . S
C3393 C3374 1.429 . S
C3393 C3387 1.429 . S
C3393 C3394 1.523 . S
C3394 C3375 1.368 . S
C3394 C3388 1.368 . S
C3394 C3393 1.523 . S
C3395 C3379 1.429 . S
C3395 C3391 1.429 . S
C3395 C3396 1.523 . S
C3396 C3380 1.368 . S
C3396 C3392 1.368 . S
C3396 C3395 1.523 . S
H3397 C3372 0.950 . S
H3398 C3374 0.950 . S
H3399 C3375 0.949 . S
H3400 C3377 0.950 . S
H3401 C3379 0.950 . S
C3402 C3403 1.335 1_655 S
C3402 C3404 1.327 . S
C3402 H3427 0.950 . S
C3403 C3402 1.335 1_455 S
C3403 C3419 1.370 . S
C3404 C3402 1.327 . S
C3404 C3423 1.429 1_655 S
C3404 H3428 0.950 . S
C3405 C3422 1.574 . S
C3405 C3424 1.368 . S
C3405 H3429 0.949 . S
H3406 C3410 0.949 . S
C3407 C3408 1.349 . S
C3407 C3409 1.327 . S
C3407 H3430 0.950 . S
C3408 C3407 1.349 . S
C3408 C3420 1.349 1_455 S
C3409 C3407 1.327 . S
C3409 C3425 1.429 . S
C3409 H3431 0.950 . S
C3410 H3406 0.949 . S
C3410 C3418 1.574 . S
C3410 C3426 1.368 1_655 S
H3411 C3419 0.950 . S
H3412 C3417 0.950 . S
H3413 C3418 0.949 . S
H3414 C3420 0.950 . S
H3415 C3421 0.950 . S
H3416 C3422 0.949 . S
C3417 H3412 0.950 . S
C3417 C3419 1.327 . S
C3417 C3423 1.429 . S
C3418 C3410 1.574 . S
C3418 H3413 0.949 . S
C3418 C3424 1.368 1_655 S
C3419 C3403 1.370 . S
C3419 H3411 0.950 . S
C3419 C3417 1.327 . S
C3420 C3408 1.349 1_655 S
C3420 H3414 0.950 . S
C3420 C3421 1.327 . S
C3421 H3415 0.950 . S
C3421 C3420 1.327 . S
C3421 C3425 1.429 1_655 S
C3422 C3405 1.574 . S
C3422 H3416 0.949 . S
C3422 C3426 1.368 . S
C3423 C3404 1.429 1_455 S
C3423 C3417 1.429 . S
C3423 C3424 1.523 . S
C3424 C3405 1.368 . S
C3424 C3418 1.368 1_455 S
C3424 C3423 1.523 . S
C3425 C3409 1.429 . S
C3425 C3421 1.429 1_455 S
C3425 C3426 1.523 . S
C3426 C3410 1.368 1_455 S
C3426 C3422 1.368 . S
C3426 C3425 1.523 . S
H3427 C3402 0.950 . S
H3428 C3404 0.950 . S
H3429 C3405 0.949 . S
H3430 C3407 0.950 . S
H3431 C3409 0.950 . S
C1278 N1260 1.708 . S
C1273 C15 1.722 . S
C1308 N1221 1.406 . S
C1303 C55 1.350 . S
C1338 N1247 0.516 . S
C1333 C95 0.465 1_545 S
C1368 N1234 1.396 . S
C1363 C135 1.400 . S
C1398 N1143 1.708 . S
C1393 C175 1.722 . S
C1423 C215 1.400 . S
C1428 N1156 1.396 . S
C1458 N1117 1.406 . S
C1453 C255 1.350 . S
C1483 C295 0.465 1_554 S
C1488 N1130 0.515 . S
C1518 N1208 1.708 . S
C1513 C335 1.722 . S
C1543 C375 1.400 . S
C1548 N1182 1.396 . S
C1573 C415 1.350 . S
C1578 N1169 1.406 . S
C1608 N1195 0.516 . S
C1603 C455 0.465 1_455 S
C1638 N1104 1.718 . S
C1633 C495 1.720 . S
C1663 C535 1.342 . S
C1668 N1065 1.405 . S
C1698 N1091 0.517 . S
C1693 C575 0.465 . S
C1723 C615 1.399 . S
C1728 N1078 1.420 . S
C1758 N987 1.718 . S
C1753 C655 1.720 . S
C1788 N1000 1.420 . S
C1783 C695 1.399 . S
C1813 C735 1.342 . S
C1818 N961 1.405 . S
C1843 C775 0.465 . S
C1848 N974 0.517 . S
C1873 C815 1.712 . S
C1878 N1052 1.725 . S
C1903 C855 1.399 . S
C1908 N1026 1.420 . S
C1938 N1013 1.405 . S
C1933 C895 1.342 . S
C1963 C935 0.466 . S
C1968 N1039 0.517 . S
C1998 N965 1.710 . S
C1993 C21 1.709 . S
C2028 N978 1.815 . S
C2023 C61 1.795 . S
C2053 C101 0.797 1_545 S
C2058 N991 0.792 1_565 S
C2083 C141 0.884 . S
C2088 N1004 0.874 . S
C2118 N1017 1.711 . S
C2113 C181 1.709 . S
C2143 C221 0.885 . S
C2148 N1030 0.874 . S
C2178 N1043 1.815 . S
C2173 C261 1.795 . S
C2208 N1056 0.792 1_556 S
C2203 C301 0.797 1_554 S
C2238 N1069 1.711 . S
C2233 C341 1.710 . S
C2263 C381 0.885 . S
C2268 N1082 0.874 . S
C2293 C421 1.798 . S
C2298 N1095 1.812 . S
C2323 C461 0.797 1_455 S
C2328 N1108 0.792 1_655 S
C2353 C501 1.670 . S
C2358 N1121 1.711 . S
C2383 C541 1.677 . S
C2388 N1134 1.809 . S
C2413 C581 0.797 . S
C2418 N1147 0.794 1_545 S
C2443 C621 0.877 . S
C2448 N1160 0.873 . S
C2473 C661 1.670 . S
C2478 N1173 1.711 . S
C2508 N1186 0.881 . S
C2503 C701 0.869 . S
C2538 N1199 1.812 . S
C2533 C741 1.673 . S
C2568 N1212 0.794 1_554 S
C2563 C781 0.797 . S
C2598 N1225 1.711 . S
C2593 C821 1.670 . S
C2623 C861 0.877 . S
C2628 N1238 0.873 . S
C2653 C901 1.677 . S
C2658 N1251 1.809 . S
C2683 C941 0.797 . S
C2688 N1264 0.794 1_455 S
C2713 C2 1.649 . S
C2718 N1066 1.644 . S
C2748 N1105 1.858 . S
C2743 C42 1.859 . S
C2773 C82 1.513 . S
C2778 N1079 1.508 . S
C2808 N1092 1.542 . S
C2803 C122 1.518 . S
C2833 C162 1.650 . S
C2838 N962 1.644 . S
C2863 C202 1.518 . S
C2868 N975 1.542 . S
C2893 C242 1.866 . S
C2898 N988 1.852 . S
C2923 C282 1.513 . S
C2928 N1001 1.508 . S
C2958 N1014 1.644 . S
C2953 C322 1.649 . S
C2988 N1040 1.542 . S
C2983 C362 1.518 . S
C3013 C402 1.866 . S
C3018 N1053 1.852 . S
C3043 C442 1.513 . S
C3048 N1027 1.508 . S
C3078 N1222 1.647 . S
C3073 C482 1.621 . S
C3108 N1261 1.851 . S
C3103 C522 1.766 . S
C3133 C562 1.517 1_545 S
C3138 N1235 1.499 . S
C3168 N1248 1.544 . S
C3163 C602 1.500 . S
C3193 C642 1.621 . S
C3198 N1118 1.647 . S
C3223 C682 1.500 . S
C3228 N1131 1.544 . S
C3253 C722 1.774 . S
C3258 N1144 1.845 . S
C3288 N1157 1.499 . S
C3283 C762 1.517 1_554 S
C3318 N1170 1.647 . S
C3313 C802 1.621 . S
C3348 N1196 1.544 . S
C3343 C842 1.500 . S
C3373 C882 1.774 . S
C3378 N1209 1.845 . S
C3408 N1183 1.499 . S
C3403 C922 1.517 1_455 S
