# Generated by pormake.
# Topology ssa, (4,4)-cn, num edge types: 1
# Building blocks:
#     Node 0, Type 0, BuildingBlock: NAWXER_clean_sbu_0, # of connection points: 4
#     Node 1, Type 0, BuildingBlock: NAWXER_clean_sbu_0, # of connection points: 4
#     Node 2, Type 0, BuildingBlock: NAWXER_clean_sbu_0, # of connection points: 4
#     Node 3, Type 0, BuildingBlock: NAWXER_clean_sbu_0, # of connection points: 4
#     Node 4, Type 0, BuildingBlock: NAWXER_clean_sbu_0, # of connection points: 4
#     Node 5, Type 0, BuildingBlock: NAWXER_clean_sbu_0, # of connection points: 4
#     Node 6, Type 1, BuildingBlock: GIZVER_clean_linker_0, # of connection points: 4
#     Node 7, Type 1, BuildingBlock: GIZVER_clean_linker_0, # of connection points: 4
#     Node 8, Type 1, BuildingBlock: GIZVER_clean_linker_0, # of connection points: 4
#     Node 9, Type 1, BuildingBlock: GIZVER_clean_linker_0, # of connection points: 4
#     Node 10, Type 1, BuildingBlock: GIZVER_clean_linker_0, # of connection points: 4
#     Node 11, Type 1, BuildingBlock: GIZVER_clean_linker_0, # of connection points: 4
#     Edge 12, Type (0, 1), BuildingBlock: OJICUG_clean_linker_0, # of connection points: 2
#     Edge 13, Type (0, 1), BuildingBlock: OJICUG_clean_linker_0, # of connection points: 2
#     Edge 14, Type (0, 1), BuildingBlock: OJICUG_clean_linker_0, # of connection points: 2
#     Edge 15, Type (0, 1), BuildingBlock: OJICUG_clean_linker_0, # of connection points: 2
#     Edge 16, Type (0, 1), BuildingBlock: OJICUG_clean_linker_0, # of connection points: 2
#     Edge 17, Type (0, 1), BuildingBlock: OJICUG_clean_linker_0, # of connection points: 2
#     Edge 18, Type (0, 1), BuildingBlock: OJICUG_clean_linker_0, # of connection points: 2
#     Edge 19, Type (0, 1), BuildingBlock: OJICUG_clean_linker_0, # of connection points: 2
#     Edge 20, Type (0, 1), BuildingBlock: OJICUG_clean_linker_0, # of connection points: 2
#     Edge 21, Type (0, 1), BuildingBlock: OJICUG_clean_linker_0, # of connection points: 2
#     Edge 22, Type (0, 1), BuildingBlock: OJICUG_clean_linker_0, # of connection points: 2
#     Edge 23, Type (0, 1), BuildingBlock: OJICUG_clean_linker_0, # of connection points: 2
#     Edge 24, Type (0, 1), BuildingBlock: OJICUG_clean_linker_0, # of connection points: 2
#     Edge 25, Type (0, 1), BuildingBlock: OJICUG_clean_linker_0, # of connection points: 2
#     Edge 26, Type (0, 1), BuildingBlock: OJICUG_clean_linker_0, # of connection points: 2
#     Edge 27, Type (0, 1), BuildingBlock: OJICUG_clean_linker_0, # of connection points: 2
#     Edge 28, Type (0, 1), BuildingBlock: OJICUG_clean_linker_0, # of connection points: 2
#     Edge 29, Type (0, 1), BuildingBlock: OJICUG_clean_linker_0, # of connection points: 2
#     Edge 30, Type (0, 1), BuildingBlock: OJICUG_clean_linker_0, # of connection points: 2
#     Edge 31, Type (0, 1), BuildingBlock: OJICUG_clean_linker_0, # of connection points: 2
#     Edge 32, Type (0, 1), BuildingBlock: OJICUG_clean_linker_0, # of connection points: 2
#     Edge 33, Type (0, 1), BuildingBlock: OJICUG_clean_linker_0, # of connection points: 2
#     Edge 34, Type (0, 1), BuildingBlock: OJICUG_clean_linker_0, # of connection points: 2
#     Edge 35, Type (0, 1), BuildingBlock: OJICUG_clean_linker_0, # of connection points: 2
# Relax obj value: 0.007
# Max RMSD: 0.038
# Mean RMSD: 0.029
data_MOF--net-ssa--node1-NAWXER_clean_sbu_0--node2-GIZVER_clean_linker_0--edge1-OJICUG_clean_linker_0
_symmetry_space_group_name_H-M    P1
_symmetry_Int_Tables_number       1
_symmetry_cell_setting            triclinic
loop_
_symmetry_equiv_pos_as_xyz
'x, y, z'
_cell_length_a     37.676547
_cell_length_b     37.748616
_cell_length_c     22.197524
_cell_angle_alpha  90.061925
_cell_angle_beta   90.195151
_cell_angle_gamma 118.99399
loop_
_atom_site_label
_atom_site_type_symbol
_atom_site_fract_x
_atom_site_fract_y
_atom_site_fract_z
_atom_type_partial_charge
C0 C 0.06279 0.58226 0.03442 0.0
C1 C 0.97048 0.44524 -0.03339 0.0
O2 O 0.03042 0.55607 0.05954 0.0
Zn3 Zn 1.01453 0.51393 -0.00049 0.0
O4 O 0.07283 0.57454 -0.01695 0.0
Zn5 Zn 0.04912 0.52602 0.9195 0.0
O6 O 0.03428 0.5474 0.85109 0.0
O7 O 0.9926 0.53538 0.92704 0.0
O8 O 0.99881 0.46556 0.92874 0.0
O9 O 0.9676 0.46185 0.0148 0.0
O10 O 0.06416 0.49987 0.00069 0.0
O11 O 0.09484 0.51659 0.91203 0.0
C12 C 1.00301 0.54714 0.87276 0.0
C13 C 0.09206 0.50251 -0.03518 0.0
C14 C 0.51005 0.05132 0.56198 0.0
C15 C 0.55606 0.96399 0.46915 0.0
O16 O 0.51047 0.02039 0.58356 0.0
Zn17 Zn 0.53202 1.00621 0.51492 0.0
O18 O 0.52156 0.06191 0.50766 0.0
Zn19 Zn 0.54351 0.0408 0.43493 0.0
O20 O 0.501 0.02451 0.37505 0.0
O21 O 0.48321 0.98227 0.45168 0.0
O22 O 0.55825 0.99175 0.43339 0.0
O23 O 0.5421 0.961 0.52204 0.0
O24 O 0.59219 0.05688 0.50564 0.0
O25 O 0.59541 0.08814 0.41977 0.0
C26 C 0.47508 0.9921 0.40038 0.0
C27 C 0.61226 0.08536 0.46789 0.0
C28 C 0.52652 0.47312 0.88482 0.0
C29 C 0.57047 0.60683 -0.02853 0.0
O30 O 0.52474 0.50305 0.86189 0.0
Zn31 Zn 0.54772 0.54043 0.92807 0.0
O32 O 0.54078 0.47621 0.93821 0.0
Zn33 Zn 0.56553 0.52158 0.00727 0.0
O34 O 0.52768 0.49875 0.07247 0.0
O35 O 0.50167 0.51546 -0.00438 0.0
O36 O 0.57647 0.58319 0.0065 0.0
O37 O 0.55375 0.59421 0.92033 0.0
O38 O 0.60971 0.55198 0.93132 0.0
O39 O 0.61935 0.52799 0.01724 0.0
C40 C 0.49815 0.50117 0.04889 0.0
C41 C 0.63289 0.54581 -0.03267 0.0
C42 C 0.09038 0.59837 0.46533 0.0
C43 C 1.00014 0.46392 0.54344 0.0
O44 O 0.09197 0.58558 0.5177 0.0
Zn45 Zn 0.04771 0.53129 0.50462 0.0
O46 O 0.06428 0.57468 0.42654 0.0
Zn47 Zn 1.01632 0.51272 0.42046 0.0
O48 O 0.96955 0.51916 0.40182 0.0
O49 O 0.99634 0.54155 0.49232 0.0
O50 O 0.99178 0.46829 0.48903 0.0
O51 O 0.03089 0.49225 0.56949 0.0
O52 O 0.07504 0.50929 0.44199 0.0
O53 O 0.03566 0.48843 0.36148 0.0
C54 C 0.96958 0.53566 0.45181 0.0
C55 C 0.06727 0.49345 0.38936 0.0
C56 C 0.55612 0.98463 0.04374 0.0
C57 C 0.51133 0.0806 -0.01695 0.0
O58 O 0.56096 0.01601 0.07183 0.0
Zn59 Zn 0.53559 0.03476 0.01357 0.0
O60 O 0.53974 0.97667 -0.00858 0.0
Zn61 Zn 0.5165 1.00331 0.92946 0.0
O62 O 0.55516 0.02067 0.86387 0.0
O63 O 0.5794 0.05959 0.94435 0.0
O64 O 0.50542 0.05396 0.94251 0.0
O65 O 0.52859 0.08103 0.03259 0.0
O66 O 0.47379 0.98631 0.00849 0.0
O67 O 0.46223 0.9586 0.91739 0.0
C68 C 0.58352 0.05147 0.88976 0.0
C69 C 0.44986 0.96006 -0.0299 0.0
C70 C 0.57079 0.51941 0.55467 0.0
C71 C 0.43568 0.47347 0.46991 0.0
O72 O 0.54046 0.51966 0.57917 0.0
Zn73 Zn 0.50254 0.49746 0.51277 0.0
O74 O 0.56783 0.50692 0.50033 0.0
Zn75 Zn 0.52308 0.48397 0.43083 0.0
O76 O 0.54674 0.52558 0.36989 0.0
O77 O 0.52502 0.54533 0.44852 0.0
O78 O 0.46033 0.47048 0.43306 0.0
O79 O 0.44764 0.48821 0.5223 0.0
O80 O 0.49384 0.43706 0.50401 0.0
O81 O 0.51869 0.43126 0.41648 0.0
C82 C 0.54117 0.55239 0.39623 0.0
C83 C 0.50111 0.41581 0.46594 0.0
H84 H 0.25465 0.50902 0.09931 0.0
H85 H 0.23683 0.50361 0.29146 0.0
H86 H 0.13504 0.46275 0.17127 0.0
H87 H 0.31088 0.54953 0.16627 0.0
H88 H 0.30279 0.55209 0.24475 0.0
H89 H 0.3437 0.51324 0.13401 0.0
H90 H 0.37064 0.44372 0.26064 0.0
H91 H 0.29629 0.49553 0.31409 0.0
C92 C 0.23449 0.49955 0.13775 0.0
C93 C 0.19246 0.48254 0.12856 0.0
C94 C 0.25068 0.50666 0.19668 0.0
C95 C 0.22431 0.49658 0.2463 0.0
C96 C 0.18225 0.4801 0.23759 0.0
C97 C 0.16693 0.47257 0.17867 0.0
C98 C 0.29603 0.53061 0.20652 0.0
C99 C 0.31447 0.50379 0.2205 0.0
C100 C 0.33902 0.49861 0.17745 0.0
C101 C 0.36052 0.47804 0.19245 0.0
C102 C 0.35437 0.45987 0.24919 0.0
C103 C 0.3325 0.46704 0.29408 0.0
C104 C 0.31204 0.48859 0.27922 0.0
H105 H 0.75963 0.24573 0.60972 0.0
H106 H 0.73915 0.21847 0.7987 0.0
H107 H 0.68585 0.12318 0.66687 0.0
H108 H 0.76688 0.29759 0.68268 0.0
H109 H 0.75578 0.28551 0.76023 0.0
H110 H 0.83295 0.31055 0.64071 0.0
H111 H 0.93084 0.36617 0.76845 0.0
H112 H 0.80892 0.29563 0.83102 0.0
C113 C 0.74768 0.2237 0.64575 0.0
C114 C 0.72475 0.18239 0.63178 0.0
C115 C 0.75297 0.23672 0.70616 0.0
C116 C 0.73549 0.20805 0.75245 0.0
C117 C 0.71086 0.16672 0.73893 0.0
C118 C 0.70672 0.15439 0.67854 0.0
C119 C 0.7715 0.28114 0.72087 0.0
C120 C 0.81624 0.29986 0.73419 0.0
C121 C 0.84418 0.31534 0.68663 0.0
C122 C 0.8859 0.33962 0.69835 0.0
C123 C 0.89929 0.34535 0.75836 0.0
C124 C 0.87203 0.32914 0.80643 0.0
C125 C 0.83036 0.30636 0.79414 0.0
H126 H 0.54913 0.74925 0.12235 0.0
H127 H 0.53908 0.71722 0.31011 0.0
H128 H 0.58754 0.66571 0.18366 0.0
H129 H 0.49752 0.7524 0.19066 0.0
H130 H 0.4989 0.74514 0.26956 0.0
H131 H 0.54673 0.81602 0.1426 0.0
H132 H 0.59267 0.91935 0.26005 0.0
H133 H 0.54454 0.8005 0.33502 0.0
C134 C 0.5552 0.73409 0.15918 0.0
C135 C 0.57269 0.70942 0.14724 0.0
C136 C 0.54332 0.73724 0.21818 0.0
C137 C 0.54915 0.71545 0.2651 0.0
C138 C 0.56521 0.68938 0.25328 0.0
C139 C 0.57756 0.68747 0.19444 0.0
C140 C 0.51854 0.7582 0.22934 0.0
C141 C 0.54455 0.80335 0.23766 0.0
C142 C 0.55492 0.82911 0.18732 0.0
C143 C 0.57266 0.87129 0.19491 0.0
C144 C 0.58192 0.8873 0.25338 0.0
C145 C 0.57235 0.86235 0.30417 0.0
C146 C 0.55383 0.82021 0.29605 0.0
H147 H 0.76118 0.59091 0.62508 0.0
H148 H 0.80744 0.60326 0.80638 0.0
H149 H 0.67938 0.53604 0.77296 0.0
H150 H 0.83106 0.64022 0.64818 0.0
H151 H 0.84952 0.64809 0.72382 0.0
H152 H 0.84109 0.59494 0.58127 0.0
H153 H 0.9158 0.54542 0.64312 0.0
H154 H 0.87492 0.60421 0.76912 0.0
C155 C 0.75603 0.58322 0.67243 0.0
C156 C 0.71611 0.56193 0.69434 0.0
C157 C 0.78936 0.59731 0.71246 0.0
C158 C 0.78233 0.59011 0.77473 0.0
C159 C 0.74262 0.56762 0.79622 0.0
C160 C 0.71008 0.55252 0.75564 0.0
C161 C 0.83186 0.62422 0.68981 0.0
C162 C 0.8536 0.60031 0.67733 0.0
C163 C 0.85555 0.58783 0.61805 0.0
C164 C 0.87781 0.56777 0.60609 0.0
C165 C 0.89786 0.56013 0.65312 0.0
C166 C 0.89808 0.57406 0.71156 0.0
C167 C 0.87478 0.59307 0.72406 0.0
H168 H 0.30302 0.80246 0.11242 0.0
H169 H 0.31879 0.82585 0.30307 0.0
H170 H 0.37493 0.92388 0.17705 0.0
H171 H 0.29419 0.74923 0.18308 0.0
H172 H 0.3037 0.75972 0.26142 0.0
H173 H 0.22871 0.73652 0.13808 0.0
H174 H 0.12855 0.67795 0.2601 0.0
H175 H 0.24921 0.748 0.32965 0.0
C176 C 0.31405 0.82378 0.14965 0.0
C177 C 0.33732 0.86536 0.13802 0.0
C178 C 0.30727 0.8095 0.20932 0.0
C179 C 0.32345 0.8372 0.25735 0.0
C180 C 0.34813 0.87882 0.24636 0.0
C181 C 0.35389 0.8924 0.18657 0.0
C182 C 0.28867 0.7648 0.22164 0.0
C183 C 0.24368 0.74556 0.23252 0.0
C184 C 0.21665 0.73085 0.18341 0.0
C185 C 0.17476 0.70623 0.19271 0.0
C186 C 0.16025 0.69909 0.25202 0.0
C187 C 0.18659 0.71438 0.30167 0.0
C188 C 0.22843 0.73777 0.29166 0.0
H189 H 0.45551 0.28473 0.80626 0.0
H190 H 0.44601 0.242 0.62346 0.0
H191 H 0.51152 0.3693 0.66182 0.0
H192 H 0.40589 0.21532 0.77923 0.0
H193 H 0.40077 0.19782 0.70331 0.0
H194 H 0.45055 0.20656 0.8496 0.0
H195 H 0.50609 0.13639 0.79257 0.0
H196 H 0.44732 0.17465 0.662 0.0
C197 C 0.4637 0.29081 0.75917 0.0
C198 C 0.48509 0.33105 0.73892 0.0
C199 C 0.45022 0.25836 0.71788 0.0
C200 C 0.45839 0.26653 0.65602 0.0
C201 C 0.48097 0.30657 0.63607 0.0
C202 C 0.4951 0.33832 0.67787 0.0
C203 C 0.42342 0.2155 0.73887 0.0
C204 C 0.44809 0.19488 0.75353 0.0
C205 C 0.4594 0.19305 0.81362 0.0
C206 C 0.48059 0.17215 0.82735 0.0
C207 C 0.49052 0.15332 0.78123 0.0
C208 C 0.4777 0.15289 0.72194 0.0
C209 C 0.45757 0.17489 0.70775 0.0
C210 C 0.16294 0.52356 -0.00413 0.0
C211 C 0.12272 0.49267 -0.01179 0.0
H212 H 0.2178 0.54423 0.04711 0.0
C213 C 0.1102 0.45487 0.01487 0.0
H214 H 0.17299 0.55307 -0.0241 0.0
C215 C 0.1362 0.44932 0.05387 0.0
C216 C 0.1744 0.48209 0.06883 0.0
H217 H 0.07927 0.43068 0.00934 0.0
H218 H 0.1246 0.42091 0.07791 0.0
C219 C 0.18869 0.51837 0.03629 0.0
C220 C 0.68002 0.1058 0.51056 0.0
C221 C 0.65271 0.11719 0.4861 0.0
H222 H 0.72742 0.11993 0.57483 0.0
C223 C 0.65916 0.15661 0.4959 0.0
H224 H 0.67552 0.07549 0.50339 0.0
C225 C 0.68841 0.18184 0.53779 0.0
C226 C 0.71141 0.16772 0.56955 0.0
H227 H 0.63818 0.16583 0.47767 0.0
H228 H 0.68902 0.20975 0.55107 0.0
C229 C 0.70974 0.13127 0.5513 0.0
C230 C 0.61325 0.66929 0.02933 0.0
C231 C 0.57772 0.64594 -0.004 0.0
H232 H 0.64037 0.71073 0.10258 0.0
C233 C 0.54516 0.65398 0.00099 0.0
H234 H 0.63872 0.66357 0.02602 0.0
C235 C 0.54576 0.68048 0.04573 0.0
C236 C 0.57911 0.69925 0.08519 0.0
H237 H 0.51733 0.63604 -0.02406 0.0
H238 H 0.51828 0.68207 0.05428 0.0
C239 C 0.61419 0.69632 0.073 0.0
C240 C 0.94693 0.58481 0.48011 0.0
C241 C 0.93704 0.54467 0.46753 0.0
H242 H 0.93282 0.62388 0.53263 0.0
C243 C 0.89979 0.51298 0.48708 0.0
H244 H 0.97589 0.60958 0.46615 0.0
C245 C 0.87538 0.52111 0.52582 0.0
C246 C 0.88795 0.56101 0.54464 0.0
H247 H 0.89206 0.48176 0.47872 0.0
H248 H 0.84967 0.49598 0.54707 0.0
C249 C 0.92211 0.59298 0.51774 0.0
C250 C 0.40222 0.88989 0.00112 0.0
C251 C 0.40975 0.92963 -0.00883 0.0
H252 H 0.37184 0.83718 0.05648 0.0
C253 C 0.38448 0.94279 0.01771 0.0
H254 H 0.42185 0.87946 -0.01843 0.0
C255 C 0.35533 0.91838 0.05955 0.0
C256 C 0.35213 0.88111 0.07679 0.0
H257 H 0.39004 0.97347 0.01075 0.0
H258 H 0.33892 0.93078 0.08383 0.0
C259 C 0.37351 0.86568 0.04395 0.0
C260 C 0.45429 0.34771 0.50473 0.0
C261 C 0.49334 0.37553 0.48502 0.0
H262 H 0.41943 0.30074 0.56754 0.0
C263 C 0.52638 0.3703 0.50208 0.0
H264 H 0.42852 0.35161 0.49253 0.0
C265 C 0.52131 0.34163 0.5459 0.0
C266 C 0.48306 0.31772 0.57207 0.0
H267 H 0.55684 0.3919 0.48806 0.0
H268 H 0.54798 0.34197 0.56497 0.0
C269 C 0.44908 0.31845 0.54741 0.0
C270 C 0.53474 0.89305 0.43948 0.0
C271 C 0.56564 0.93337 0.44527 0.0
H272 H 0.51287 0.83782 0.3894 0.0
C273 C 0.60276 0.9458 0.41629 0.0
H274 H 0.50575 0.88305 0.4613 0.0
C275 C 0.60742 0.91955 0.37687 0.0
C276 C 0.57433 0.88119 0.36376 0.0
H277 H 0.62699 0.9768 0.42041 0.0
H278 H 0.63523 0.93099 0.35123 0.0
C279 C 0.53895 0.86707 0.3986 0.0
C280 C 0.69907 0.59426 0.92362 0.0
C281 C 0.67335 0.55539 0.94597 0.0
H282 H 0.74506 0.62928 0.85961 0.0
C283 C 0.68123 0.52361 0.93217 0.0
H284 H 0.69321 0.61907 0.93354 0.0
C285 C 0.71047 0.52927 0.88898 0.0
C286 C 0.73232 0.56691 0.86028 0.0
H287 H 0.66134 0.49328 0.94848 0.0
H288 H 0.71206 0.50309 0.87229 0.0
C289 C 0.72901 0.60016 0.88179 0.0
C290 C 0.10721 0.66391 0.41877 0.0
C291 C 0.12063 0.63877 0.4451 0.0
H292 H 0.11949 0.7104 0.35422 0.0
C293 C 0.16079 0.64712 0.43624 0.0
H294 H 0.07621 0.65776 0.42496 0.0
C295 C 0.18534 0.67666 0.39464 0.0
C296 C 0.16984 0.69811 0.362 0.0
H297 H 0.17145 0.62764 0.45566 0.0
H298 H 0.21431 0.67908 0.38289 0.0
C299 C 0.13196 0.69393 0.37828 0.0
C300 C 0.4617 0.10225 0.95261 0.0
C301 C 0.5018 0.11278 -0.03247 0.0
H302 H 0.42314 0.11589 0.89771 0.0
C303 C 0.53347 0.15063 0.95007 0.0
H304 H 0.43696 0.07287 -0.03498 0.0
C305 C 0.52565 0.175 0.91076 0.0
C306 C 0.48605 0.1618 0.88938 0.0
H307 H 0.56469 0.1589 0.96029 0.0
H308 H 0.55103 0.20125 0.89098 0.0
C309 C 0.45379 0.12703 0.91449 0.0
C310 C 0.37194 0.4286 0.41574 0.0
C311 C 0.39578 0.46498 0.44672 0.0
H312 H 0.32923 0.3994 0.34442 0.0
C313 C 0.38732 0.4971 0.44003 0.0
H314 H 0.37798 0.40343 0.42046 0.0
C315 C 0.36012 0.49521 0.3954 0.0
C316 C 0.34112 0.46107 0.35749 0.0
H317 H 0.4056 0.52554 0.46335 0.0
H318 H 0.35857 0.52249 0.38521 0.0
C319 C 0.34399 0.42631 0.37235 0.0
C320 C 0.89913 0.39739 0.9395 0.0
C321 C 0.93895 0.40461 0.94875 0.0
H322 H 0.84524 0.36598 0.886 0.0
C323 C 0.95072 0.37753 0.92484 0.0
H324 H 0.88962 0.41818 0.95734 0.0
C325 C 0.92499 0.34699 0.8854 0.0
C326 C 0.88789 0.34429 0.8677 0.0
H327 H 0.98134 0.38261 0.93162 0.0
H328 H 0.93643 0.32924 0.86247 0.0
C329 C 0.87365 0.36735 0.89882 0.0
C330 C 0.99119 0.5754 0.7779 0.0
C331 C 0.97747 0.5581 0.83475 0.0
H332 H 0.97722 0.59512 0.69549 0.0
C333 C 0.93838 0.54952 0.85343 0.0
H334 H 1.02126 0.58287 0.76244 0.0
C335 C 0.91282 0.55625 0.81462 0.0
C336 C 0.92601 0.57165 0.75662 0.0
H337 H 0.92697 0.53626 0.89717 0.0
H338 H 0.8823 0.54784 0.82893 0.0
C339 C 0.96588 0.5823 0.7395 0.0
C340 C 0.41908 0.97688 0.32663 0.0
C341 C 0.4378 0.96336 0.36839 0.0
H342 H 0.37358 0.9605 0.25845 0.0
C343 C 0.42251 0.92158 0.37629 0.0
H344 H 0.42993 1.00897 0.3205 0.0
C345 C 0.39132 0.89382 0.33942 0.0
C346 C 0.37403 0.90721 0.29471 0.0
H347 H 0.43651 0.91036 0.40822 0.0
H348 H 0.38293 0.86216 0.34349 0.0
C349 C 0.38693 0.94903 0.29102 0.0
C350 C 0.51996 0.40397 0.87187 0.0
C351 C 0.51366 0.43546 0.84962 0.0
H352 H 0.516 0.34615 0.85428 0.0
C353 C 0.49602 0.43116 0.79247 0.0
H354 H 0.53344 0.40634 0.91588 0.0
C355 C 0.48588 0.39676 0.7577 0.0
C356 C 0.49345 0.36588 0.77886 0.0
H357 H 0.49035 0.45455 0.77417 0.0
H358 H 0.47227 0.39447 0.71379 0.0
C359 C 0.50988 0.36945 0.83681 0.0
C360 C 0.13881 0.51214 0.3665 0.0
C361 C 0.09719 0.48512 0.3593 0.0
H362 H 0.19862 0.53213 0.33312 0.0
C363 C 0.08466 0.45219 0.31988 0.0
H364 H 0.14917 0.53777 0.39691 0.0
C365 C 0.11318 0.44782 0.28526 0.0
C366 C 0.15456 0.47737 0.28733 0.0
H367 H 0.05275 0.43054 0.31456 0.0
H368 H 0.10244 0.42267 0.25393 0.0
C369 C 0.16724 0.5086 0.33036 0.0
C370 C 0.63482 0.12208 0.86568 0.0
C371 C 0.61948 0.08043 0.85619 0.0
H372 H 0.67479 0.1819 0.83559 0.0
C373 C 0.63781 0.0673 0.81345 0.0
H374 H 0.62102 0.13289 0.89849 0.0
C375 C 0.67022 0.09555 0.7791 0.0
C376 C 0.68366 0.13741 0.78498 0.0
H377 H 0.62687 0.03526 0.80625 0.0
H378 H 0.68365 0.08439 0.7463 0.0
C379 C 0.66616 0.15026 0.82998 0.0
C380 C 0.58469 0.61021 0.32889 0.0
C381 C 0.55047 0.59048 0.36562 0.0
H382 H 0.61821 0.65911 0.26846 0.0
C383 C 0.52404 0.60665 0.37153 0.0
H384 H 0.60592 0.59871 0.32463 0.0
C385 C 0.53008 0.64032 0.33775 0.0
C386 C 0.56334 0.6592 0.29846 0.0
H387 H 0.49738 0.59188 0.39976 0.0
H388 H 0.5073 0.64991 0.34002 0.0
C389 C 0.59155 0.64474 0.29668 0.0
C390 C 0.48118 0.06207 0.65687 0.0
C391 C 0.49829 0.07612 0.60001 0.0
H392 H 0.46016 0.07487 0.73883 0.0
C393 C 0.50564 0.11474 0.58117 0.0
H394 H 0.47464 0.03233 0.67245 0.0
C395 C 0.49767 0.13947 0.6197 0.0
C396 C 0.48225 0.12593 0.67759 0.0
H397 H 0.51875 0.12638 0.53744 0.0
H398 H 0.50498 0.16962 0.60515 0.0
C399 C 0.47304 0.08656 0.69498 0.0
C400 C 0.46328 0.49105 0.14741 0.0
C401 C 0.46146 0.49145 0.08443 0.0
H402 H 0.43423 0.48865 0.23024 0.0
C403 C 0.42555 0.48595 0.05638 0.0
H404 H 0.49073 0.49601 0.17043 0.0
C405 C 0.3922 0.48051 0.09094 0.0
C406 C 0.39434 0.48096 0.15419 0.0
H407 H 0.42338 0.48627 0.00773 0.0
H408 H 0.36495 0.47628 0.06816 0.0
C409 C 0.43048 0.48646 0.18176 0.0
C410 C 0.98466 0.4099 0.61999 0.0
C411 C 0.97128 0.42794 0.57702 0.0
H412 H 0.9679 0.36509 0.68864 0.0
C413 C 0.92951 0.41273 0.5681 0.0
H414 H 1.01679 0.42074 0.62676 0.0
C415 C 0.9015 0.38209 0.60493 0.0
C416 C 0.91466 0.3652 0.65053 0.0
H417 H 0.9185 0.4263 0.5351 0.0
H418 H 0.86982 0.37373 0.5999 0.0
C419 C 0.95656 0.37816 0.65545 0.0
C420 C 0.53787 0.91351 0.06749 0.0
C421 C 0.56516 0.95508 0.07335 0.0
H422 H 0.51842 0.85418 0.10189 0.0
C423 C 0.59906 0.96791 0.11104 0.0
H424 H 0.51148 0.90294 0.03841 0.0
C425 C 0.6042 0.93973 0.14539 0.0
C426 C 0.57445 0.89846 0.14491 0.0
H427 H 0.62092 0.99979 0.11524 0.0
H428 H 0.63016 0.95071 0.17537 0.0
C429 C 0.54217 0.88547 0.10345 0.0
C430 C 0.64039 0.52642 0.56458 0.0
C431 C 0.60901 0.53227 0.58864 0.0
H432 H 0.6989 0.531 0.57913 0.0
C433 C 0.61422 0.54976 0.64596 0.0
H434 H 0.63734 0.51305 0.52036 0.0
C435 C 0.6495 0.56033 0.67904 0.0
C436 C 0.6803 0.5532 0.65607 0.0
H437 H 0.59094 0.55512 0.66555 0.0
H438 H 0.65252 0.57395 0.72307 0.0
C439 C 0.67573 0.53681 0.59799 0.0
C440 C 0.07749 0.63756 0.10878 0.0
C441 C 0.09136 0.61928 0.06695 0.0
H442 H 0.09335 0.68196 0.17828 0.0
C443 C 0.13327 0.63452 0.05991 0.0
H444 H 0.0453 0.62674 0.11425 0.0
C445 C 0.16077 0.66504 0.09791 0.0
C446 C 0.14696 0.68166 0.14291 0.0
H447 H 0.14475 0.62087 0.02791 0.0
H448 H 0.1925 0.6733 0.09458 0.0
C449 C 0.10509 0.66905 0.14553 0.0
loop_
_geom_bond_atom_site_label_1
_geom_bond_atom_site_label_2
_geom_bond_distance
_geom_bond_site_symmetry_2
_ccdc_geom_bond_type
C0 O2 1.247 . S
C0 O4 1.258 . S
C1 O8 1.247 . S
C1 O9 1.258 1_556 S
O2 C0 1.247 . S
O2 Zn3 2.028 1_455 S
Zn3 O2 2.028 1_655 S
Zn3 O7 2.035 . S
Zn3 O9 2.035 . S
Zn3 O10 2.028 1_655 S
O4 C0 1.258 . S
O4 Zn5 2.035 1_554 S
Zn5 O4 2.035 1_556 S
Zn5 O6 2.028 1_455 S
Zn5 O8 2.028 1_455 S
Zn5 O11 2.035 1_556 S
O6 Zn5 2.028 1_655 S
O6 C12 1.247 . S
O7 Zn3 2.035 . S
O7 C12 1.258 1_554 S
O8 C1 1.247 . S
O8 Zn5 2.028 1_655 S
O9 C1 1.258 1_554 S
O9 Zn3 2.035 . S
O10 Zn3 2.028 1_455 S
O10 C13 1.247 . S
O11 Zn5 2.035 1_554 S
O11 C13 1.258 . S
C12 O6 1.247 . S
C12 O7 1.258 1_556 S
C13 O10 1.247 . S
C13 O11 1.258 . S
C14 O16 1.247 . S
C14 O18 1.258 . S
C15 O22 1.247 . S
C15 O23 1.258 . S
O16 C14 1.247 . S
O16 Zn17 2.028 1_545 S
Zn17 O16 2.028 1_565 S
Zn17 O21 2.035 . S
Zn17 O23 2.035 . S
Zn17 O24 2.028 1_565 S
O18 C14 1.258 . S
O18 Zn19 2.035 . S
Zn19 O18 2.035 . S
Zn19 O20 2.028 1_545 S
Zn19 O22 2.028 1_545 S
Zn19 O25 2.035 . S
O20 Zn19 2.028 1_565 S
O20 C26 1.247 . S
O21 Zn17 2.035 . S
O21 C26 1.258 . S
O22 C15 1.247 . S
O22 Zn19 2.028 1_565 S
O23 C15 1.258 . S
O23 Zn17 2.035 . S
O24 Zn17 2.028 1_545 S
O24 C27 1.247 . S
O25 Zn19 2.035 . S
O25 C27 1.258 . S
C26 O20 1.247 . S
C26 O21 1.258 . S
C27 O24 1.247 . S
C27 O25 1.258 . S
C28 O30 1.247 . S
C28 O32 1.258 1_556 S
C29 O36 1.247 . S
C29 O37 1.258 . S
O30 C28 1.247 . S
O30 Zn31 2.028 . S
Zn31 O30 2.028 . S
Zn31 O35 2.035 1_556 S
Zn31 O37 2.035 1_556 S
Zn31 O38 2.028 . S
O32 C28 1.258 1_554 S
O32 Zn33 2.035 . S
Zn33 O32 2.035 . S
Zn33 O34 2.028 . S
Zn33 O36 2.028 . S
Zn33 O39 2.035 . S
O34 Zn33 2.028 . S
O34 C40 1.247 . S
O35 Zn31 2.035 1_554 S
O35 C40 1.258 . S
O36 C29 1.247 . S
O36 Zn33 2.028 . S
O37 C29 1.258 . S
O37 Zn31 2.035 1_554 S
O38 Zn31 2.028 . S
O38 C41 1.247 . S
O39 Zn33 2.035 . S
O39 C41 1.258 1_554 S
C40 O34 1.247 . S
C40 O35 1.258 . S
C41 O38 1.247 . S
C41 O39 1.258 1_556 S
C42 O44 1.247 . S
C42 O46 1.258 . S
C43 O50 1.247 . S
C43 O51 1.258 . S
O44 C42 1.247 . S
O44 Zn45 2.028 . S
Zn45 O44 2.028 . S
Zn45 O49 2.035 1_455 S
Zn45 O51 2.035 1_455 S
Zn45 O52 2.028 . S
O46 C42 1.258 . S
O46 Zn47 2.035 1_455 S
Zn47 O46 2.035 1_655 S
Zn47 O48 2.028 . S
Zn47 O50 2.028 . S
Zn47 O53 2.035 1_655 S
O48 Zn47 2.028 . S
O48 C54 1.247 . S
O49 Zn45 2.035 1_655 S
O49 C54 1.258 . S
O50 C43 1.247 . S
O50 Zn47 2.028 . S
O51 C43 1.258 . S
O51 Zn45 2.035 1_655 S
O52 Zn45 2.028 . S
O52 C55 1.247 . S
O53 Zn47 2.035 1_455 S
O53 C55 1.258 . S
C54 O48 1.247 . S
C54 O49 1.258 . S
C55 O52 1.247 . S
C55 O53 1.258 . S
C56 O58 1.247 . S
C56 O60 1.258 1_554 S
C57 O64 1.247 . S
C57 O65 1.258 1_556 S
O58 C56 1.247 . S
O58 Zn59 2.028 1_565 S
Zn59 O58 2.028 1_545 S
Zn59 O63 2.035 . S
Zn59 O65 2.035 . S
Zn59 O66 2.028 1_545 S
O60 C56 1.258 1_556 S
O60 Zn61 2.035 . S
Zn61 O60 2.035 . S
Zn61 O62 2.028 1_565 S
Zn61 O64 2.028 1_565 S
Zn61 O67 2.044 . S
O62 Zn61 2.028 1_545 S
O62 C68 1.247 . S
O63 Zn59 2.035 . S
O63 C68 1.258 1_554 S
O64 C57 1.247 . S
O64 Zn61 2.028 1_545 S
O65 C57 1.258 1_554 S
O65 Zn59 2.035 . S
O66 Zn59 2.028 1_565 S
O66 C69 1.247 . S
O67 Zn61 2.044 . S
O67 C69 1.244 1_556 S
C68 O62 1.247 . S
C68 O63 1.258 1_556 S
C69 O66 1.247 . S
C69 O67 1.244 1_554 S
C70 O72 1.247 . S
C70 O74 1.258 . S
C71 O78 1.247 . S
C71 O79 1.258 . S
O72 C70 1.247 . S
O72 Zn73 2.028 . S
Zn73 O72 2.028 . S
Zn73 O77 2.035 . S
Zn73 O79 2.035 . S
Zn73 O80 2.028 . S
O74 C70 1.258 . S
O74 Zn75 2.035 . S
Zn75 O74 2.035 . S
Zn75 O76 2.028 . S
Zn75 O78 2.028 . S
Zn75 O81 2.035 . S
O76 Zn75 2.028 . S
O76 C82 1.247 . S
O77 Zn73 2.035 . S
O77 C82 1.258 . S
O78 C71 1.247 . S
O78 Zn75 2.028 . S
O79 C71 1.258 . S
O79 Zn73 2.035 . S
O80 Zn73 2.028 . S
O80 C83 1.247 . S
O81 Zn75 2.035 . S
O81 C83 1.258 . S
C82 O76 1.247 . S
C82 O77 1.258 . S
C83 O80 1.247 . S
C83 O81 1.258 . S
H84 C92 0.930 . S
H85 C95 0.930 . S
H86 C97 0.930 . S
H87 C98 0.970 . S
H88 C98 0.970 . S
H89 C100 0.930 . S
H90 C102 0.930 . S
H91 C104 0.930 . S
C92 H84 0.930 . S
C92 C93 1.382 . S
C92 C94 1.426 . S
C93 C92 1.382 . S
C93 C97 1.389 . S
C94 C92 1.426 . S
C94 C95 1.375 . S
C94 C98 1.532 . S
C95 H85 0.930 . S
C95 C94 1.375 . S
C95 C96 1.416 . S
C96 C95 1.416 . S
C96 C97 1.371 . S
C97 H86 0.930 . S
C97 C93 1.389 . S
C97 C96 1.371 . S
C98 H87 0.970 . S
C98 H88 0.970 . S
C98 C94 1.532 . S
C98 C99 1.499 . S
C99 C98 1.499 . S
C99 C100 1.370 . S
C99 C104 1.415 . S
C100 H89 0.930 . S
C100 C99 1.370 . S
C100 C101 1.407 . S
C101 C100 1.407 . S
C101 C102 1.365 . S
C102 H90 0.930 . S
C102 C101 1.365 . S
C102 C103 1.393 . S
C103 C102 1.393 . S
C103 C104 1.387 . S
C104 H91 0.930 . S
C104 C99 1.415 . S
C104 C103 1.387 . S
H105 C113 0.930 . S
H106 C116 0.930 . S
H107 C118 0.930 . S
H108 C119 0.970 . S
H109 C119 0.970 . S
H110 C121 0.930 . S
H111 C123 0.930 . S
H112 C125 0.930 . S
C113 H105 0.930 . S
C113 C114 1.382 . S
C113 C115 1.426 . S
C114 C113 1.382 . S
C114 C118 1.389 . S
C115 C113 1.426 . S
C115 C116 1.375 . S
C115 C119 1.532 . S
C116 H106 0.930 . S
C116 C115 1.375 . S
C116 C117 1.416 . S
C117 C116 1.416 . S
C117 C118 1.371 . S
C118 H107 0.930 . S
C118 C114 1.389 . S
C118 C117 1.371 . S
C119 H108 0.970 . S
C119 H109 0.970 . S
C119 C115 1.532 . S
C119 C120 1.499 . S
C120 C119 1.499 . S
C120 C121 1.370 . S
C120 C125 1.415 . S
C121 H110 0.930 . S
C121 C120 1.370 . S
C121 C122 1.407 . S
C122 C121 1.407 . S
C122 C123 1.365 . S
C123 H111 0.930 . S
C123 C122 1.365 . S
C123 C124 1.393 . S
C124 C123 1.393 . S
C124 C125 1.387 . S
C125 H112 0.930 . S
C125 C120 1.415 . S
C125 C124 1.387 . S
H126 C134 0.930 . S
H127 C137 0.930 . S
H128 C139 0.930 . S
H129 C140 0.970 . S
H130 C140 0.970 . S
H131 C142 0.930 . S
H132 C144 0.930 . S
H133 C146 0.930 . S
C134 H126 0.930 . S
C134 C135 1.382 . S
C134 C136 1.426 . S
C135 C134 1.382 . S
C135 C139 1.389 . S
C136 C134 1.426 . S
C136 C137 1.375 . S
C136 C140 1.532 . S
C137 H127 0.930 . S
C137 C136 1.375 . S
C137 C138 1.416 . S
C138 C137 1.416 . S
C138 C139 1.371 . S
C139 H128 0.930 . S
C139 C135 1.389 . S
C139 C138 1.371 . S
C140 H129 0.970 . S
C140 H130 0.970 . S
C140 C136 1.532 . S
C140 C141 1.499 . S
C141 C140 1.499 . S
C141 C142 1.370 . S
C141 C146 1.415 . S
C142 H131 0.930 . S
C142 C141 1.370 . S
C142 C143 1.407 . S
C143 C142 1.407 . S
C143 C144 1.365 . S
C144 H132 0.930 . S
C144 C143 1.365 . S
C144 C145 1.393 . S
C145 C144 1.393 . S
C145 C146 1.387 . S
C146 H133 0.930 . S
C146 C141 1.415 . S
C146 C145 1.387 . S
H147 C155 0.930 . S
H148 C158 0.930 . S
H149 C160 0.930 . S
H150 C161 0.970 . S
H151 C161 0.970 . S
H152 C163 0.930 . S
H153 C165 0.930 . S
H154 C167 0.930 . S
C155 H147 0.930 . S
C155 C156 1.382 . S
C155 C157 1.426 . S
C156 C155 1.382 . S
C156 C160 1.389 . S
C157 C155 1.426 . S
C157 C158 1.375 . S
C157 C161 1.532 . S
C158 H148 0.930 . S
C158 C157 1.375 . S
C158 C159 1.416 . S
C159 C158 1.416 . S
C159 C160 1.371 . S
C160 H149 0.930 . S
C160 C156 1.389 . S
C160 C159 1.371 . S
C161 H150 0.970 . S
C161 H151 0.970 . S
C161 C157 1.532 . S
C161 C162 1.499 . S
C162 C161 1.499 . S
C162 C163 1.370 . S
C162 C167 1.415 . S
C163 H152 0.930 . S
C163 C162 1.370 . S
C163 C164 1.407 . S
C164 C163 1.407 . S
C164 C165 1.365 . S
C165 H153 0.930 . S
C165 C164 1.365 . S
C165 C166 1.393 . S
C166 C165 1.393 . S
C166 C167 1.387 . S
C167 H154 0.930 . S
C167 C162 1.415 . S
C167 C166 1.387 . S
H168 C176 0.930 . S
H169 C179 0.930 . S
H170 C181 0.930 . S
H171 C182 0.970 . S
H172 C182 0.970 . S
H173 C184 0.930 . S
H174 C186 0.930 . S
H175 C188 0.930 . S
C176 H168 0.930 . S
C176 C177 1.382 . S
C176 C178 1.426 . S
C177 C176 1.382 . S
C177 C181 1.389 . S
C178 C176 1.426 . S
C178 C179 1.375 . S
C178 C182 1.532 . S
C179 H169 0.930 . S
C179 C178 1.375 . S
C179 C180 1.416 . S
C180 C179 1.416 . S
C180 C181 1.371 . S
C181 H170 0.930 . S
C181 C177 1.389 . S
C181 C180 1.371 . S
C182 H171 0.970 . S
C182 H172 0.970 . S
C182 C178 1.532 . S
C182 C183 1.499 . S
C183 C182 1.499 . S
C183 C184 1.370 . S
C183 C188 1.415 . S
C184 H173 0.930 . S
C184 C183 1.370 . S
C184 C185 1.407 . S
C185 C184 1.407 . S
C185 C186 1.365 . S
C186 H174 0.930 . S
C186 C185 1.365 . S
C186 C187 1.393 . S
C187 C186 1.393 . S
C187 C188 1.387 . S
C188 H175 0.930 . S
C188 C183 1.415 . S
C188 C187 1.387 . S
H189 C197 0.930 . S
H190 C200 0.930 . S
H191 C202 0.930 . S
H192 C203 0.970 . S
H193 C203 0.970 . S
H194 C205 0.930 . S
H195 C207 0.930 . S
H196 C209 0.930 . S
C197 H189 0.930 . S
C197 C198 1.382 . S
C197 C199 1.426 . S
C198 C197 1.382 . S
C198 C202 1.389 . S
C199 C197 1.426 . S
C199 C200 1.375 . S
C199 C203 1.532 . S
C200 H190 0.930 . S
C200 C199 1.375 . S
C200 C201 1.416 . S
C201 C200 1.416 . S
C201 C202 1.371 . S
C202 H191 0.930 . S
C202 C198 1.389 . S
C202 C201 1.371 . S
C203 H192 0.970 . S
C203 H193 0.970 . S
C203 C199 1.532 . S
C203 C204 1.499 . S
C204 C203 1.499 . S
C204 C205 1.370 . S
C204 C209 1.415 . S
C205 H194 0.930 . S
C205 C204 1.370 . S
C205 C206 1.407 . S
C206 C205 1.407 . S
C206 C207 1.365 . S
C207 H195 0.930 . S
C207 C206 1.365 . S
C207 C208 1.393 . S
C208 C207 1.393 . S
C208 C209 1.387 . S
C209 H196 0.930 . S
C209 C204 1.415 . S
C209 C208 1.387 . S
C210 C211 1.387 . S
C210 H214 0.950 . S
C210 C219 1.390 . S
C211 C210 1.387 . S
C211 C213 1.387 . S
H212 C219 0.950 . S
C213 C211 1.387 . S
C213 C215 1.390 . S
C213 H217 0.950 . S
H214 C210 0.950 . S
C215 C213 1.390 . S
C215 C216 1.387 . S
C215 H218 0.950 . S
C216 C215 1.387 . S
C216 C219 1.387 . S
H217 C213 0.950 . S
H218 C215 0.950 . S
C219 C210 1.390 . S
C219 H212 0.950 . S
C219 C216 1.387 . S
C220 C221 1.387 . S
C220 H224 0.950 . S
C220 C229 1.390 . S
C221 C220 1.387 . S
C221 C223 1.387 . S
H222 C229 0.950 . S
C223 C221 1.387 . S
C223 C225 1.390 . S
C223 H227 0.950 . S
H224 C220 0.950 . S
C225 C223 1.390 . S
C225 C226 1.387 . S
C225 H228 0.950 . S
C226 C225 1.387 . S
C226 C229 1.387 . S
H227 C223 0.950 . S
H228 C225 0.950 . S
C229 C220 1.390 . S
C229 H222 0.950 . S
C229 C226 1.387 . S
C230 C231 1.387 . S
C230 H234 0.950 . S
C230 C239 1.390 . S
C231 C230 1.387 . S
C231 C233 1.387 . S
H232 C239 0.950 . S
C233 C231 1.387 . S
C233 C235 1.390 . S
C233 H237 0.950 . S
H234 C230 0.950 . S
C235 C233 1.390 . S
C235 C236 1.387 . S
C235 H238 0.950 . S
C236 C235 1.387 . S
C236 C239 1.387 . S
H237 C233 0.950 . S
H238 C235 0.950 . S
C239 C230 1.390 . S
C239 H232 0.950 . S
C239 C236 1.387 . S
C240 C241 1.387 . S
C240 H244 0.950 . S
C240 C249 1.390 . S
C241 C240 1.387 . S
C241 C243 1.387 . S
H242 C249 0.950 . S
C243 C241 1.387 . S
C243 C245 1.390 . S
C243 H247 0.950 . S
H244 C240 0.950 . S
C245 C243 1.390 . S
C245 C246 1.387 . S
C245 H248 0.950 . S
C246 C245 1.387 . S
C246 C249 1.387 . S
H247 C243 0.950 . S
H248 C245 0.950 . S
C249 C240 1.390 . S
C249 H242 0.950 . S
C249 C246 1.387 . S
C250 C251 1.387 . S
C250 H254 0.950 . S
C250 C259 1.390 . S
C251 C250 1.387 . S
C251 C253 1.387 . S
H252 C259 0.950 . S
C253 C251 1.387 . S
C253 C255 1.390 . S
C253 H257 0.950 . S
H254 C250 0.950 . S
C255 C253 1.390 . S
C255 C256 1.387 . S
C255 H258 0.950 . S
C256 C255 1.387 . S
C256 C259 1.387 . S
H257 C253 0.950 . S
H258 C255 0.950 . S
C259 C250 1.390 . S
C259 H252 0.950 . S
C259 C256 1.387 . S
C260 C261 1.387 . S
C260 H264 0.950 . S
C260 C269 1.390 . S
C261 C260 1.387 . S
C261 C263 1.387 . S
H262 C269 0.950 . S
C263 C261 1.387 . S
C263 C265 1.390 . S
C263 H267 0.950 . S
H264 C260 0.950 . S
C265 C263 1.390 . S
C265 C266 1.387 . S
C265 H268 0.950 . S
C266 C265 1.387 . S
C266 C269 1.387 . S
H267 C263 0.950 . S
H268 C265 0.950 . S
C269 C260 1.390 . S
C269 H262 0.950 . S
C269 C266 1.387 . S
C270 C271 1.387 . S
C270 H274 0.950 . S
C270 C279 1.390 . S
C271 C270 1.387 . S
C271 C273 1.387 . S
H272 C279 0.950 . S
C273 C271 1.387 . S
C273 C275 1.390 . S
C273 H277 0.950 . S
H274 C270 0.950 . S
C275 C273 1.390 . S
C275 C276 1.387 . S
C275 H278 0.950 . S
C276 C275 1.387 . S
C276 C279 1.387 . S
H277 C273 0.950 . S
H278 C275 0.950 . S
C279 C270 1.390 . S
C279 H272 0.950 . S
C279 C276 1.387 . S
C280 C281 1.387 . S
C280 H284 0.950 . S
C280 C289 1.390 . S
C281 C280 1.387 . S
C281 C283 1.387 . S
H282 C289 0.950 . S
C283 C281 1.387 . S
C283 C285 1.390 . S
C283 H287 0.950 . S
H284 C280 0.950 . S
C285 C283 1.390 . S
C285 C286 1.387 . S
C285 H288 0.950 . S
C286 C285 1.387 . S
C286 C289 1.387 . S
H287 C283 0.950 . S
H288 C285 0.950 . S
C289 C280 1.390 . S
C289 H282 0.950 . S
C289 C286 1.387 . S
C290 C291 1.387 . S
C290 H294 0.950 . S
C290 C299 1.390 . S
C291 C290 1.387 . S
C291 C293 1.387 . S
H292 C299 0.950 . S
C293 C291 1.387 . S
C293 C295 1.390 . S
C293 H297 0.950 . S
H294 C290 0.950 . S
C295 C293 1.390 . S
C295 C296 1.387 . S
C295 H298 0.950 . S
C296 C295 1.387 . S
C296 C299 1.387 . S
H297 C293 0.950 . S
H298 C295 0.950 . S
C299 C290 1.390 . S
C299 H292 0.950 . S
C299 C296 1.387 . S
C300 C301 1.387 . S
C300 H304 0.950 . S
C300 C309 1.390 . S
C301 C300 1.387 . S
C301 C303 1.387 . S
H302 C309 0.950 . S
C303 C301 1.387 . S
C303 C305 1.390 . S
C303 H307 0.950 . S
H304 C300 0.950 . S
C305 C303 1.390 . S
C305 C306 1.387 . S
C305 H308 0.950 . S
C306 C305 1.387 . S
C306 C309 1.387 . S
H307 C303 0.950 . S
H308 C305 0.950 . S
C309 C300 1.390 . S
C309 H302 0.950 . S
C309 C306 1.387 . S
C310 C311 1.387 . S
C310 H314 0.950 . S
C310 C319 1.390 . S
C311 C310 1.387 . S
C311 C313 1.387 . S
H312 C319 0.950 . S
C313 C311 1.387 . S
C313 C315 1.390 . S
C313 H317 0.950 . S
H314 C310 0.950 . S
C315 C313 1.390 . S
C315 C316 1.387 . S
C315 H318 0.950 . S
C316 C315 1.387 . S
C316 C319 1.387 . S
H317 C313 0.950 . S
H318 C315 0.950 . S
C319 C310 1.390 . S
C319 H312 0.950 . S
C319 C316 1.387 . S
C320 C321 1.387 . S
C320 H324 0.950 . S
C320 C329 1.390 . S
C321 C320 1.387 . S
C321 C323 1.387 . S
H322 C329 0.950 . S
C323 C321 1.387 . S
C323 C325 1.390 . S
C323 H327 0.950 . S
H324 C320 0.950 . S
C325 C323 1.390 . S
C325 C326 1.387 . S
C325 H328 0.950 . S
C326 C325 1.387 . S
C326 C329 1.387 . S
H327 C323 0.950 . S
H328 C325 0.950 . S
C329 C320 1.390 . S
C329 H322 0.950 . S
C329 C326 1.387 . S
C330 C331 1.387 . S
C330 H334 0.950 . S
C330 C339 1.390 . S
C331 C330 1.387 . S
C331 C333 1.387 . S
H332 C339 0.950 . S
C333 C331 1.387 . S
C333 C335 1.390 . S
C333 H337 0.950 . S
H334 C330 0.950 . S
C335 C333 1.390 . S
C335 C336 1.387 . S
C335 H338 0.950 . S
C336 C335 1.387 . S
C336 C339 1.387 . S
H337 C333 0.950 . S
H338 C335 0.950 . S
C339 C330 1.390 . S
C339 H332 0.950 . S
C339 C336 1.387 . S
C340 C341 1.387 . S
C340 H344 0.950 . S
C340 C349 1.390 . S
C341 C340 1.387 . S
C341 C343 1.387 . S
H342 C349 0.950 . S
C343 C341 1.387 . S
C343 C345 1.390 . S
C343 H347 0.950 . S
H344 C340 0.950 . S
C345 C343 1.390 . S
C345 C346 1.387 . S
C345 H348 0.950 . S
C346 C345 1.387 . S
C346 C349 1.387 . S
H347 C343 0.950 . S
H348 C345 0.950 . S
C349 C340 1.390 . S
C349 H342 0.950 . S
C349 C346 1.387 . S
C350 C351 1.387 . S
C350 H354 0.950 . S
C350 C359 1.390 . S
C351 C350 1.387 . S
C351 C353 1.387 . S
H352 C359 0.950 . S
C353 C351 1.387 . S
C353 C355 1.390 . S
C353 H357 0.950 . S
H354 C350 0.950 . S
C355 C353 1.390 . S
C355 C356 1.387 . S
C355 H358 0.950 . S
C356 C355 1.387 . S
C356 C359 1.387 . S
H357 C353 0.950 . S
H358 C355 0.950 . S
C359 C350 1.390 . S
C359 H352 0.950 . S
C359 C356 1.387 . S
C360 C361 1.387 . S
C360 H364 0.950 . S
C360 C369 1.390 . S
C361 C360 1.387 . S
C361 C363 1.387 . S
H362 C369 0.950 . S
C363 C361 1.387 . S
C363 C365 1.390 . S
C363 H367 0.950 . S
H364 C360 0.950 . S
C365 C363 1.390 . S
C365 C366 1.387 . S
C365 H368 0.950 . S
C366 C365 1.387 . S
C366 C369 1.387 . S
H367 C363 0.950 . S
H368 C365 0.950 . S
C369 C360 1.390 . S
C369 H362 0.950 . S
C369 C366 1.387 . S
C370 C371 1.387 . S
C370 H374 0.950 . S
C370 C379 1.390 . S
C371 C370 1.387 . S
C371 C373 1.387 . S
H372 C379 0.950 . S
C373 C371 1.387 . S
C373 C375 1.390 . S
C373 H377 0.950 . S
H374 C370 0.950 . S
C375 C373 1.390 . S
C375 C376 1.387 . S
C375 H378 0.950 . S
C376 C375 1.387 . S
C376 C379 1.387 . S
H377 C373 0.950 . S
H378 C375 0.950 . S
C379 C370 1.390 . S
C379 H372 0.950 . S
C379 C376 1.387 . S
C380 C381 1.387 . S
C380 H384 0.950 . S
C380 C389 1.390 . S
C381 C380 1.387 . S
C381 C383 1.387 . S
H382 C389 0.950 . S
C383 C381 1.387 . S
C383 C385 1.390 . S
C383 H387 0.950 . S
H384 C380 0.950 . S
C385 C383 1.390 . S
C385 C386 1.387 . S
C385 H388 0.950 . S
C386 C385 1.387 . S
C386 C389 1.387 . S
H387 C383 0.950 . S
H388 C385 0.950 . S
C389 C380 1.390 . S
C389 H382 0.950 . S
C389 C386 1.387 . S
C390 C391 1.387 . S
C390 H394 0.950 . S
C390 C399 1.390 . S
C391 C390 1.387 . S
C391 C393 1.387 . S
H392 C399 0.950 . S
C393 C391 1.387 . S
C393 C395 1.390 . S
C393 H397 0.950 . S
H394 C390 0.950 . S
C395 C393 1.390 . S
C395 C396 1.387 . S
C395 H398 0.950 . S
C396 C395 1.387 . S
C396 C399 1.387 . S
H397 C393 0.950 . S
H398 C395 0.950 . S
C399 C390 1.390 . S
C399 H392 0.950 . S
C399 C396 1.387 . S
C400 C401 1.387 . S
C400 H404 0.950 . S
C400 C409 1.390 . S
C401 C400 1.387 . S
C401 C403 1.387 . S
H402 C409 0.950 . S
C403 C401 1.387 . S
C403 C405 1.390 . S
C403 H407 0.950 . S
H404 C400 0.950 . S
C405 C403 1.390 . S
C405 C406 1.387 . S
C405 H408 0.950 . S
C406 C405 1.387 . S
C406 C409 1.387 . S
H407 C403 0.950 . S
H408 C405 0.950 . S
C409 C400 1.390 . S
C409 H402 0.950 . S
C409 C406 1.387 . S
C410 C411 1.387 . S
C410 H414 0.950 . S
C410 C419 1.390 . S
C411 C410 1.387 . S
C411 C413 1.387 . S
H412 C419 0.950 . S
C413 C411 1.387 . S
C413 C415 1.390 . S
C413 H417 0.950 . S
H414 C410 0.950 . S
C415 C413 1.390 . S
C415 C416 1.387 . S
C415 H418 0.950 . S
C416 C415 1.387 . S
C416 C419 1.387 . S
H417 C413 0.950 . S
H418 C415 0.950 . S
C419 C410 1.390 . S
C419 H412 0.950 . S
C419 C416 1.387 . S
C420 C421 1.387 . S
C420 H424 0.950 . S
C420 C429 1.390 . S
C421 C420 1.387 . S
C421 C423 1.387 . S
H422 C429 0.950 . S
C423 C421 1.387 . S
C423 C425 1.390 . S
C423 H427 0.950 . S
H424 C420 0.950 . S
C425 C423 1.390 . S
C425 C426 1.387 . S
C425 H428 0.950 . S
C426 C425 1.387 . S
C426 C429 1.387 . S
H427 C423 0.950 . S
H428 C425 0.950 . S
C429 C420 1.390 . S
C429 H422 0.950 . S
C429 C426 1.387 . S
C430 C431 1.387 . S
C430 H434 0.950 . S
C430 C439 1.390 . S
C431 C430 1.387 . S
C431 C433 1.387 . S
H432 C439 0.950 . S
C433 C431 1.387 . S
C433 C435 1.390 . S
C433 H437 0.950 . S
H434 C430 0.950 . S
C435 C433 1.390 . S
C435 C436 1.387 . S
C435 H438 0.950 . S
C436 C435 1.387 . S
C436 C439 1.387 . S
H437 C433 0.950 . S
H438 C435 0.950 . S
C439 C430 1.390 . S
C439 H432 0.950 . S
C439 C436 1.387 . S
C440 C441 1.387 . S
C440 H444 0.950 . S
C440 C449 1.390 . S
C441 C440 1.387 . S
C441 C443 1.387 . S
H442 C449 0.950 . S
C443 C441 1.387 . S
C443 C445 1.390 . S
C443 H447 0.950 . S
H444 C440 0.950 . S
C445 C443 1.390 . S
C445 C446 1.387 . S
C445 H448 0.950 . S
C446 C445 1.387 . S
C446 C449 1.387 . S
H447 C443 0.950 . S
H448 C445 0.950 . S
C449 C440 1.390 . S
C449 H442 0.950 . S
C449 C446 1.387 . S
C211 C13 1.582 . S
C216 C93 1.408 . S
C221 C27 1.617 . S
C226 C114 1.445 . S
C236 C135 1.411 . S
C231 C29 1.585 . S
C246 C164 1.555 . S
C241 C54 1.631 . S
C256 C177 1.407 . S
C251 C69 1.582 . S
C266 C201 1.547 . S
C261 C83 1.618 . S
C271 C15 1.574 . S
C276 C145 1.421 . S
C281 C41 1.622 . S
C286 C159 1.551 . S
C296 C187 1.429 . S
C291 C42 1.580 . S
C306 C206 1.552 . S
C301 C57 1.631 . S
C311 C71 1.581 . S
C316 C103 1.430 . S
C326 C124 1.459 . S
C321 C1 1.614 . S
C336 C166 1.546 . S
C331 C12 1.613 . S
C341 C26 1.662 . S
C346 C180 1.434 . S
C356 C198 1.560 . S
C351 C28 1.625 . S
C361 C55 1.662 . S
C366 C96 1.437 . S
C371 C68 1.628 . S
C376 C117 1.405 . S
C381 C82 1.660 . S
C386 C138 1.434 . S
C391 C14 1.611 . S
C396 C208 1.547 . S
C406 C101 1.458 . S
C401 C40 1.661 . S
C411 C43 1.627 . S
C416 C122 1.423 . S
C421 C56 1.668 . S
C426 C143 1.465 . S
C431 C70 1.620 . S
C436 C156 1.556 . S
C441 C0 1.662 . S
C446 C185 1.456 . S
