# Generated by pormake.
# Topology ctn, (3,4)-cn, num edge types: 1
# Building blocks:
#     Node 0, Type 0, BuildingBlock: ESEHIV_clean_linker_0, # of connection points: 3
#     Node 1, Type 0, BuildingBlock: ESEHIV_clean_linker_0, # of connection points: 3
#     Node 2, Type 0, BuildingBlock: ESEHIV_clean_linker_0, # of connection points: 3
#     Node 3, Type 0, BuildingBlock: ESEHIV_clean_linker_0, # of connection points: 3
#     Node 4, Type 0, BuildingBlock: ESEHIV_clean_linker_0, # of connection points: 3
#     Node 5, Type 0, BuildingBlock: ESEHIV_clean_linker_0, # of connection points: 3
#     Node 6, Type 0, BuildingBlock: ESEHIV_clean_linker_0, # of connection points: 3
#     Node 7, Type 0, BuildingBlock: ESEHIV_clean_linker_0, # of connection points: 3
#     Node 8, Type 0, BuildingBlock: ESEHIV_clean_linker_0, # of connection points: 3
#     Node 9, Type 0, BuildingBlock: ESEHIV_clean_linker_0, # of connection points: 3
#     Node 10, Type 0, BuildingBlock: ESEHIV_clean_linker_0, # of connection points: 3
#     Node 11, Type 0, BuildingBlock: ESEHIV_clean_linker_0, # of connection points: 3
#     Node 12, Type 0, BuildingBlock: ESEHIV_clean_linker_0, # of connection points: 3
#     Node 13, Type 0, BuildingBlock: ESEHIV_clean_linker_0, # of connection points: 3
#     Node 14, Type 0, BuildingBlock: ESEHIV_clean_linker_0, # of connection points: 3
#     Node 15, Type 0, BuildingBlock: ESEHIV_clean_linker_0, # of connection points: 3
#     Node 16, Type 1, BuildingBlock: KUFVIS_clean_sbu_0, # of connection points: 4
#     Node 17, Type 1, BuildingBlock: KUFVIS_clean_sbu_0, # of connection points: 4
#     Node 18, Type 1, BuildingBlock: KUFVIS_clean_sbu_0, # of connection points: 4
#     Node 19, Type 1, BuildingBlock: KUFVIS_clean_sbu_0, # of connection points: 4
#     Node 20, Type 1, BuildingBlock: KUFVIS_clean_sbu_0, # of connection points: 4
#     Node 21, Type 1, BuildingBlock: KUFVIS_clean_sbu_0, # of connection points: 4
#     Node 22, Type 1, BuildingBlock: KUFVIS_clean_sbu_0, # of connection points: 4
#     Node 23, Type 1, BuildingBlock: KUFVIS_clean_sbu_0, # of connection points: 4
#     Node 24, Type 1, BuildingBlock: KUFVIS_clean_sbu_0, # of connection points: 4
#     Node 25, Type 1, BuildingBlock: KUFVIS_clean_sbu_0, # of connection points: 4
#     Node 26, Type 1, BuildingBlock: KUFVIS_clean_sbu_0, # of connection points: 4
#     Node 27, Type 1, BuildingBlock: KUFVIS_clean_sbu_0, # of connection points: 4
#     Edge 28, Type (0, 1), BuildingBlock: ZUJKAS_clean_linker_0, # of connection points: 2
#     Edge 29, Type (0, 1), BuildingBlock: ZUJKAS_clean_linker_0, # of connection points: 2
#     Edge 30, Type (0, 1), BuildingBlock: ZUJKAS_clean_linker_0, # of connection points: 2
#     Edge 31, Type (0, 1), BuildingBlock: ZUJKAS_clean_linker_0, # of connection points: 2
#     Edge 32, Type (0, 1), BuildingBlock: ZUJKAS_clean_linker_0, # of connection points: 2
#     Edge 33, Type (0, 1), BuildingBlock: ZUJKAS_clean_linker_0, # of connection points: 2
#     Edge 34, Type (0, 1), BuildingBlock: ZUJKAS_clean_linker_0, # of connection points: 2
#     Edge 35, Type (0, 1), BuildingBlock: ZUJKAS_clean_linker_0, # of connection points: 2
#     Edge 36, Type (0, 1), BuildingBlock: ZUJKAS_clean_linker_0, # of connection points: 2
#     Edge 37, Type (0, 1), BuildingBlock: ZUJKAS_clean_linker_0, # of connection points: 2
#     Edge 38, Type (0, 1), BuildingBlock: ZUJKAS_clean_linker_0, # of connection points: 2
#     Edge 39, Type (0, 1), BuildingBlock: ZUJKAS_clean_linker_0, # of connection points: 2
#     Edge 40, Type (0, 1), BuildingBlock: ZUJKAS_clean_linker_0, # of connection points: 2
#     Edge 41, Type (0, 1), BuildingBlock: ZUJKAS_clean_linker_0, # of connection points: 2
#     Edge 42, Type (0, 1), BuildingBlock: ZUJKAS_clean_linker_0, # of connection points: 2
#     Edge 43, Type (0, 1), BuildingBlock: ZUJKAS_clean_linker_0, # of connection points: 2
#     Edge 44, Type (0, 1), BuildingBlock: ZUJKAS_clean_linker_0, # of connection points: 2
#     Edge 45, Type (0, 1), BuildingBlock: ZUJKAS_clean_linker_0, # of connection points: 2
#     Edge 46, Type (0, 1), BuildingBlock: ZUJKAS_clean_linker_0, # of connection points: 2
#     Edge 47, Type (0, 1), BuildingBlock: ZUJKAS_clean_linker_0, # of connection points: 2
#     Edge 48, Type (0, 1), BuildingBlock: ZUJKAS_clean_linker_0, # of connection points: 2
#     Edge 49, Type (0, 1), BuildingBlock: ZUJKAS_clean_linker_0, # of connection points: 2
#     Edge 50, Type (0, 1), BuildingBlock: ZUJKAS_clean_linker_0, # of connection points: 2
#     Edge 51, Type (0, 1), BuildingBlock: ZUJKAS_clean_linker_0, # of connection points: 2
#     Edge 52, Type (0, 1), BuildingBlock: ZUJKAS_clean_linker_0, # of connection points: 2
#     Edge 53, Type (0, 1), BuildingBlock: ZUJKAS_clean_linker_0, # of connection points: 2
#     Edge 54, Type (0, 1), BuildingBlock: ZUJKAS_clean_linker_0, # of connection points: 2
#     Edge 55, Type (0, 1), BuildingBlock: ZUJKAS_clean_linker_0, # of connection points: 2
#     Edge 56, Type (0, 1), BuildingBlock: ZUJKAS_clean_linker_0, # of connection points: 2
#     Edge 57, Type (0, 1), BuildingBlock: ZUJKAS_clean_linker_0, # of connection points: 2
#     Edge 58, Type (0, 1), BuildingBlock: ZUJKAS_clean_linker_0, # of connection points: 2
#     Edge 59, Type (0, 1), BuildingBlock: ZUJKAS_clean_linker_0, # of connection points: 2
#     Edge 60, Type (0, 1), BuildingBlock: ZUJKAS_clean_linker_0, # of connection points: 2
#     Edge 61, Type (0, 1), BuildingBlock: ZUJKAS_clean_linker_0, # of connection points: 2
#     Edge 62, Type (0, 1), BuildingBlock: ZUJKAS_clean_linker_0, # of connection points: 2
#     Edge 63, Type (0, 1), BuildingBlock: ZUJKAS_clean_linker_0, # of connection points: 2
#     Edge 64, Type (0, 1), BuildingBlock: ZUJKAS_clean_linker_0, # of connection points: 2
#     Edge 65, Type (0, 1), BuildingBlock: ZUJKAS_clean_linker_0, # of connection points: 2
#     Edge 66, Type (0, 1), BuildingBlock: ZUJKAS_clean_linker_0, # of connection points: 2
#     Edge 67, Type (0, 1), BuildingBlock: ZUJKAS_clean_linker_0, # of connection points: 2
#     Edge 68, Type (0, 1), BuildingBlock: ZUJKAS_clean_linker_0, # of connection points: 2
#     Edge 69, Type (0, 1), BuildingBlock: ZUJKAS_clean_linker_0, # of connection points: 2
#     Edge 70, Type (0, 1), BuildingBlock: ZUJKAS_clean_linker_0, # of connection points: 2
#     Edge 71, Type (0, 1), BuildingBlock: ZUJKAS_clean_linker_0, # of connection points: 2
#     Edge 72, Type (0, 1), BuildingBlock: ZUJKAS_clean_linker_0, # of connection points: 2
#     Edge 73, Type (0, 1), BuildingBlock: ZUJKAS_clean_linker_0, # of connection points: 2
#     Edge 74, Type (0, 1), BuildingBlock: ZUJKAS_clean_linker_0, # of connection points: 2
#     Edge 75, Type (0, 1), BuildingBlock: ZUJKAS_clean_linker_0, # of connection points: 2
# Relax obj value: 0.012
# Max RMSD: 0.062
# Mean RMSD: 0.030
data_MOF--net-ctn--node1-KUFVIS_clean_sbu_0--node2-ESEHIV_clean_linker_0--edge1-ZUJKAS_clean_linker_0
_symmetry_space_group_name_H-M    P1
_symmetry_Int_Tables_number       1
_symmetry_cell_setting            triclinic
loop_
_symmetry_equiv_pos_as_xyz
'x, y, z'
_cell_length_a     67.470849
_cell_length_b     67.324008
_cell_length_c     67.572979
_cell_angle_alpha  90.784931
_cell_angle_beta   90.347417
_cell_angle_gamma 91.480033
loop_
_atom_site_label
_atom_site_type_symbol
_atom_site_fract_x
_atom_site_fract_y
_atom_site_fract_z
_atom_type_partial_charge
H0 H 0.01996 0.06516 0.05552 0.0
H1 H 0.0575 0.01674 0.07014 0.0
H2 H 0.07018 0.0522 0.01911 0.0
C3 C 0.03292 0.05644 0.05257 0.0
C4 C 0.04473 0.06088 0.03604 0.0
C5 C 0.03726 0.04043 0.06491 0.0
C6 C 0.0537 0.02877 0.06045 0.0
C7 C 0.06564 0.03282 0.04392 0.0
C8 C 0.06105 0.04895 0.03185 0.0
H9 H 0.3286 0.67523 0.21661 0.0
H10 H 0.34914 0.72639 0.18459 0.0
H11 H 0.29499 0.69565 0.16698 0.0
C12 C 0.32685 0.68546 0.20452 0.0
C13 C 0.31033 0.68329 0.19184 0.0
C14 C 0.3408 0.70108 0.20215 0.0
C15 C 0.33826 0.71448 0.18662 0.0
C16 C 0.3219 0.71255 0.17366 0.0
C17 C 0.30805 0.69683 0.17637 0.0
H18 H 0.96554 0.50672 0.05846 0.0
H19 H 1.00052 0.45585 0.0453 0.0
H20 H 0.95234 0.47057 0.00673 0.0
C21 C 0.96872 0.49415 0.04892 0.0
C22 C 0.95697 0.4903 0.03192 0.0
C23 C 0.98455 0.4819 0.05379 0.0
C24 C 0.98844 0.46544 0.04155 0.0
C25 C 0.97684 0.46114 0.02462 0.0
C26 C 0.96125 0.47376 0.01983 0.0
H27 H 0.67246 0.78536 0.19639 0.0
H28 H 0.72405 0.81815 0.17689 0.0
H29 H 0.69406 0.83638 0.22983 0.0
C30 C 0.68319 0.79747 0.19855 0.0
C31 C 0.68117 0.81074 0.21466 0.0
C32 C 0.69863 0.80003 0.18487 0.0
C33 C 0.71215 0.81611 0.18742 0.0
C34 C 0.71061 0.82941 0.20353 0.0
C35 C 0.69504 0.82658 0.21704 0.0
H36 H 0.014 0.94422 0.46957 0.0
H37 H 0.05335 0.99233 0.45294 0.0
H38 H 0.06778 0.95619 0.50272 0.0
C39 C 0.02752 0.95298 0.472 0.0
C40 C 0.04032 0.94821 0.48766 0.0
C41 C 0.03207 0.9689 0.45938 0.0
C42 C 0.04969 0.98008 0.46261 0.0
C43 C 0.06269 0.9756 0.47818 0.0
C44 C 0.05785 0.95968 0.49067 0.0
H45 H 0.17546 0.71639 0.82077 0.0
H46 H 0.22808 0.6872 0.83962 0.0
H47 H 0.1962 0.66615 0.78771 0.0
C48 C 0.18605 0.7047 0.81881 0.0
C49 C 0.18378 0.69131 0.80279 0.0
C50 C 0.20205 0.70345 0.8321 0.0
C51 C 0.21572 0.68826 0.82941 0.0
C52 C 0.21378 0.67466 0.81345 0.0
C53 C 0.19775 0.67636 0.80019 0.0
H54 H 0.95832 0.55003 0.49668 0.0
H55 H 0.00983 0.56186 0.46126 0.0
H56 H 0.97299 0.50973 0.44949 0.0
C57 C 0.96784 0.54599 0.48448 0.0
C58 C 0.96378 0.52833 0.47375 0.0
C59 C 0.98433 0.55824 0.47999 0.0
C60 C 0.99702 0.55251 0.46464 0.0
C61 C 0.99314 0.53497 0.45351 0.0
C62 C 0.97648 0.52296 0.45826 0.0
H63 H 0.78613 0.82513 0.83816 0.0
H64 H 0.82011 0.84793 0.78935 0.0
H65 H 0.84084 0.79806 0.82185 0.0
C66 C 0.79912 0.82466 0.82883 0.0
C67 C 0.81333 0.81011 0.83209 0.0
C68 C 0.80134 0.83839 0.81342 0.0
C69 C 0.8181 0.83737 0.80118 0.0
C70 C 0.83251 0.82301 0.80426 0.0
C71 C 0.83009 0.80956 0.81984 0.0
H72 H 0.28998 0.3262 0.33909 0.0
H73 H 0.32035 0.34444 0.28627 0.0
H74 H 0.3412 0.29499 0.31932 0.0
C75 C 0.30194 0.32442 0.32864 0.0
C76 C 0.31526 0.30887 0.33108 0.0
C77 C 0.30375 0.33752 0.31263 0.0
C78 C 0.31922 0.33491 0.29903 0.0
C79 C 0.33266 0.31947 0.3012 0.0
C80 C 0.33062 0.30665 0.31734 0.0
H81 H 0.45951 0.00648 0.56091 0.0
H82 H 0.49611 0.95697 0.54674 0.0
H83 H 0.44682 0.97042 0.50905 0.0
C84 C 0.46284 0.9939 0.55144 0.0
C85 C 0.45115 0.98991 0.53444 0.0
C86 C 0.4792 0.98218 0.55595 0.0
C87 C 0.48364 0.96617 0.5433 0.0
C88 C 0.47216 0.96185 0.5263 0.0
C89 C 0.45601 0.9739 0.52191 0.0
H90 H 0.17011 0.28669 0.69878 0.0
H91 H 0.22206 0.31957 0.68027 0.0
H92 H 0.19007 0.33877 0.7316 0.0
C93 C 0.18062 0.29898 0.70096 0.0
C94 C 0.17815 0.31237 0.71688 0.0
C95 C 0.19631 0.30156 0.68755 0.0
C96 C 0.20957 0.31784 0.69017 0.0
C97 C 0.20745 0.33133 0.70601 0.0
C98 C 0.19167 0.3285 0.71926 0.0
H99 H 0.82404 0.17468 0.71699 0.0
H100 H 0.84413 0.22806 0.68825 0.0
H101 H 0.79053 0.19757 0.66852 0.0
C102 C 0.82243 0.18551 0.70541 0.0
C103 C 0.80597 0.18399 0.6926 0.0
C104 C 0.83608 0.20156 0.70418 0.0
C105 C 0.83339 0.21591 0.68953 0.0
C106 C 0.81708 0.21459 0.67645 0.0
C107 C 0.80339 0.19858 0.6782 0.0
H108 H 0.51847 0.56801 0.55461 0.0
H109 H 0.55628 0.51973 0.56902 0.0
H110 H 0.56882 0.55554 0.51821 0.0
C111 C 0.53149 0.55938 0.55164 0.0
C112 C 0.54331 0.56399 0.53516 0.0
C113 C 0.5359 0.54333 0.56389 0.0
C114 C 0.55241 0.53179 0.55939 0.0
C115 C 0.56434 0.53599 0.5429 0.0
C116 C 0.55969 0.55217 0.53092 0.0
H117 H 0.50974 0.45381 0.97219 0.0
H118 H 0.55145 0.49997 0.95595 0.0
H119 H 0.56222 0.46489 0.00742 0.0
C120 C 0.52356 0.46198 0.97483 0.0
C121 C 0.53553 0.45712 0.99111 0.0
C122 C 0.52905 0.4776 0.96219 0.0
C123 C 0.54677 0.48846 0.96608 0.0
C124 C 0.55882 0.48417 0.98247 0.0
C125 C 0.55301 0.46844 0.99485 0.0
H126 H 0.68257 0.22519 0.31764 0.0
H127 H 0.73387 0.1944 0.33754 0.0
H128 H 0.70219 0.17396 0.28534 0.0
C129 C 0.69266 0.213 0.3161 0.0
C130 C 0.69037 0.1997 0.29999 0.0
C131 C 0.70829 0.21125 0.32974 0.0
C132 C 0.72174 0.19583 0.32712 0.0
C133 C 0.7198 0.18237 0.31107 0.0
C134 C 0.70406 0.18446 0.29755 0.0
H135 H 0.4609 0.04814 0.00417 0.0
H136 H 0.51 0.05989 0.96557 0.0
H137 H 0.46915 0.01149 0.95229 0.0
C138 C 0.46925 0.04442 0.99107 0.0
C139 C 0.46305 0.02809 0.97912 0.0
C140 C 0.48593 0.05625 0.98613 0.0
C141 C 0.49678 0.05126 0.96917 0.0
C142 C 0.49093 0.03504 0.95697 0.0
C143 C 0.47406 0.02355 0.96206 0.0
Mn144 Mn 0.25746 0.87577 1.00337 0.0
Mn145 Mn 0.25497 0.89535 0.95779 0.0
C146 C 0.24207 0.8581 0.97746 0.0
C147 C 0.27305 0.85707 0.02755 0.0
C148 C 0.22898 0.90841 0.99181 0.0
O149 O 0.27891 0.89789 0.00461 0.0
O150 O 0.27702 0.90828 0.97309 0.0
C151 C 0.29308 0.88188 0.9415 0.0
N152 N 0.27295 0.88256 0.94033 0.0
C153 C 0.27268 0.86685 0.90815 0.0
C154 C 0.29341 0.86602 0.90896 0.0
C155 C 0.30364 0.8734 0.92581 0.0
C156 C 0.26293 0.87496 0.92447 0.0
H157 H 0.30101 0.8879 0.95424 0.0
C158 C 0.285 0.90875 0.99035 0.0
O159 O 0.26022 0.87037 0.03212 0.0
O160 O 0.27743 0.85515 0.00894 0.0
N161 N 0.23445 0.88389 0.94128 0.0
C162 C 0.21443 0.88517 0.94316 0.0
C163 C 0.20197 0.87761 0.92797 0.0
C164 C 0.21024 0.86932 0.9108 0.0
C165 C 0.2309 0.86846 0.9091 0.0
C166 C 0.24254 0.8757 0.92496 0.0
H167 H 0.20801 0.89193 0.95612 0.0
O168 O 0.23771 0.85416 0.99569 0.0
O169 O 0.2552 0.87223 0.97498 0.0
O170 O 0.23557 0.89625 0.00438 0.0
O171 O 0.23552 0.90951 0.97418 0.0
C172 C 0.24042 0.86097 0.89217 0.0
C173 C 0.26131 0.86016 0.8917 0.0
H174 H 0.30163 0.85977 0.89675 0.0
H175 H 0.31964 0.8728 0.92656 0.0
H176 H 0.18604 0.87842 0.92936 0.0
H177 H 0.2006 0.86377 0.89899 0.0
H178 H 0.23182 0.85549 0.87956 0.0
H179 H 0.26844 0.85406 0.87874 0.0
Mn180 Mn 0.14221 0.51114 0.2521 0.0
Mn181 Mn 0.12061 0.5558 0.25458 0.0
C182 C 0.15766 0.53881 0.23823 0.0
C183 C 0.16249 0.48668 0.26491 0.0
C184 C 0.10788 0.52361 0.22519 0.0
O185 O 0.12183 0.50707 0.27398 0.0
O186 O 0.1086 0.53743 0.27415 0.0
C187 C 0.13476 0.56789 0.29464 0.0
N188 N 0.13312 0.57166 0.27495 0.0
C189 C 0.14823 0.60417 0.27934 0.0
C190 C 0.15003 0.6007 0.29968 0.0
C191 C 0.14339 0.58242 0.30734 0.0
C192 C 0.13981 0.58902 0.26738 0.0
H193 H 0.12945 0.55396 0.30061 0.0
C194 C 0.10968 0.51971 0.28064 0.0
O195 O 0.14863 0.48245 0.25203 0.0
O196 O 0.16432 0.50511 0.2707 0.0
N197 N 0.13055 0.5754 0.23675 0.0
C198 C 0.12846 0.57605 0.21671 0.0
C199 C 0.13462 0.59322 0.20666 0.0
C200 C 0.14244 0.60968 0.21736 0.0
C201 C 0.1444 0.60868 0.238 0.0
C202 C 0.13823 0.59109 0.24717 0.0
H203 H 0.12203 0.5636 0.20847 0.0
O204 O 0.16188 0.521 0.23233 0.0
O205 O 0.14462 0.54001 0.25229 0.0
O206 O 0.12017 0.51077 0.23095 0.0
O207 O 0.10687 0.54092 0.23299 0.0
C208 C 0.15216 0.62446 0.24986 0.0
C209 C 0.15434 0.62211 0.27047 0.0
H210 H 0.15651 0.61194 0.30954 0.0
H211 H 0.14476 0.57961 0.32301 0.0
H212 H 0.13308 0.59388 0.19073 0.0
H213 H 0.14695 0.62299 0.20957 0.0
H214 H 0.15672 0.63839 0.24325 0.0
H215 H 0.16068 0.63421 0.27936 0.0
Mn216 Mn 0.75957 0.63153 0.00465 0.0
Mn217 Mn 0.71582 0.64559 0.98534 0.0
C218 C 0.73141 0.61132 0.00789 0.0
C219 C 0.7899 0.6156 1.00216 0.0
C220 C 0.73349 0.66329 0.02326 0.0
O221 O 0.76793 0.6532 0.98521 0.0
O222 O 0.73809 0.65972 0.97198 0.0
C223 C 0.71971 0.62865 0.94493 0.0
N224 N 0.70942 0.63015 0.96214 0.0
C225 C 0.68325 0.6085 0.94945 0.0
C226 C 0.69352 0.6068 0.93155 0.0
C227 C 0.71185 0.61688 0.92931 0.0
C228 C 0.69181 0.62046 0.96448 0.0
H229 H 0.7338 0.63639 0.94316 0.0
C230 C 0.75697 0.66226 0.97293 0.0
O231 O 0.78714 0.62967 0.0151 0.0
O232 O 0.77526 0.61127 0.99017 0.0
N233 N 0.69291 0.63301 0.99673 0.0
C234 C 0.68545 0.63533 0.01529 0.0
C235 C 0.66732 0.62595 0.0201 0.0
C236 C 0.65698 0.61442 0.00574 0.0
C237 C 0.66494 0.61226 0.98674 0.0
C238 C 0.68298 0.62212 0.98276 0.0
H239 H 0.69326 0.6443 0.02634 0.0
O240 O 0.74629 0.6097 0.01996 0.0
O241 O 0.73343 0.62467 0.99428 0.0
O242 O 0.74874 0.6525 0.02373 0.0
O243 O 0.72061 0.66217 0.00934 0.0
C244 C 0.65585 0.60047 0.9717 0.0
C245 C 0.66503 0.59853 0.95309 0.0
H246 H 0.68754 0.59769 0.91948 0.0
H247 H 0.7199 0.61557 0.91556 0.0
H248 H 0.6613 0.62764 0.03481 0.0
H249 H 0.64297 0.60726 0.00949 0.0
H250 H 0.64195 0.59257 0.97439 0.0
H251 H 0.65805 0.58918 0.94174 0.0
Mn252 Mn 0.87979 0.00571 0.25935 0.0
Mn253 Mn 0.89571 0.95866 0.25612 0.0
C254 C 0.86069 0.98111 0.24334 0.0
C255 C 0.86231 0.03102 0.27485 0.0
C256 C 0.91209 0.99204 0.23083 0.0
O257 O 0.90104 0.00521 0.28113 0.0
O258 O 0.90956 0.97314 0.27819 0.0
C259 C 0.88002 0.94366 0.29409 0.0
N260 N 0.88101 0.94228 0.27399 0.0
C261 C 0.85987 0.91294 0.27343 0.0
C262 C 0.85868 0.914 0.29413 0.0
C263 C 0.86874 0.92948 0.30449 0.0
C264 C 0.87123 0.92757 0.26386 0.0
H265 H 0.88779 0.95548 0.30212 0.0
C266 C 0.91098 0.99029 0.28664 0.0
O267 O 0.87652 0.03488 0.26252 0.0
O268 O 0.85889 0.01246 0.27892 0.0
N269 N 0.88319 0.94295 0.23555 0.0
C270 C 0.88518 0.94452 0.21557 0.0
C271 C 0.87561 0.93045 0.20303 0.0
C272 C 0.86431 0.91479 0.21115 0.0
C273 C 0.86267 0.91336 0.23176 0.0
C274 C 0.87248 0.92786 0.24351 0.0
H275 H 0.89393 0.95646 0.20924 0.0
O276 O 0.85842 0.99967 0.23915 0.0
O277 O 0.87416 0.97756 0.25651 0.0
O278 O 0.9011 0.00547 0.2379 0.0
O279 O 0.91144 0.9741 0.23675 0.0
C280 C 0.85162 0.89818 0.24109 0.0
C281 C 0.85013 0.89802 0.26191 0.0
H282 H 0.85003 0.90306 0.3022 0.0
H283 H 0.86785 0.93043 0.32046 0.0
H284 H 0.87696 0.93166 0.18713 0.0
H285 H 0.85692 0.90399 0.20143 0.0
H286 H 0.84395 0.88671 0.23238 0.0
H287 H 0.8413 0.88645 0.26889 0.0
Mn288 Mn 0.25531 0.13401 0.50497 0.0
Mn289 Mn 0.21589 0.15511 0.48337 0.0
C290 C 0.22471 0.11717 0.50363 0.0
C291 C 0.28402 0.11513 0.50443 0.0
C292 C 0.23017 0.16636 0.52452 0.0
O293 O 0.26848 0.15597 0.48855 0.0
O294 O 0.24088 0.16895 0.47574 0.0
C295 C 0.22503 0.14379 0.44199 0.0
N296 N 0.21216 0.14402 0.45743 0.0
C297 C 0.18586 0.12983 0.4372 0.0
C298 C 0.1988 0.12945 0.42104 0.0
C299 C 0.21852 0.13631 0.42349 0.0
C300 C 0.19333 0.13699 0.45536 0.0
H301 H 0.2401 0.14938 0.44376 0.0
C302 C 0.25969 0.16867 0.47801 0.0
O303 O 0.28097 0.12835 0.51813 0.0
O304 O 0.27051 0.11307 0.49071 0.0
N305 N 0.19039 0.14372 0.48907 0.0
C306 C 0.18003 0.14466 0.50628 0.0
C307 C 0.16 0.13848 0.5064 0.0
C308 C 0.15074 0.13191 0.48874 0.0
C309 C 0.16174 0.13105 0.4712 0.0
C310 C 0.1817 0.13715 0.47206 0.0
H311 H 0.18692 0.15031 0.51975 0.0
O312 O 0.23791 0.11288 0.51685 0.0
O313 O 0.22979 0.13112 0.49136 0.0
O314 O 0.24485 0.1548 0.52463 0.0
O315 O 0.21818 0.16739 0.50993 0.0
C316 C 0.15366 0.12455 0.45287 0.0
C317 C 0.16578 0.12361 0.43596 0.0
H318 H 0.19375 0.12395 0.40668 0.0
H319 H 0.2286 0.13607 0.4111 0.0
H320 H 0.15161 0.13915 0.51998 0.0
H321 H 0.1352 0.12748 0.48883 0.0
H322 H 0.13818 0.12001 0.45166 0.0
H323 H 0.15948 0.11824 0.42205 0.0
Mn324 Mn 0.37979 0.50331 0.75888 0.0
Mn325 Mn 0.40121 0.45855 0.75826 0.0
C326 C 0.36367 0.47601 0.74404 0.0
C327 C 0.3598 0.52763 0.77277 0.0
C328 C 0.41313 0.49153 0.73052 0.0
O329 O 0.40069 0.50663 0.78077 0.0
O330 O 0.41409 0.4764 0.77843 0.0
C331 C 0.38894 0.4454 0.79811 0.0
N332 N 0.3896 0.44219 0.77818 0.0
C333 C 0.37468 0.40957 0.78131 0.0
C334 C 0.37388 0.41248 0.80188 0.0
C335 C 0.38093 0.43054 0.81029 0.0
C336 C 0.38253 0.42504 0.7699 0.0
H337 H 0.39458 0.45915 0.80466 0.0
C338 C 0.41315 0.4938 0.78624 0.0
O339 O 0.3736 0.532 0.76016 0.0
O340 O 0.35802 0.50914 0.7779 0.0
N341 N 0.39028 0.4395 0.73974 0.0
C342 C 0.39111 0.43952 0.7196 0.0
C343 C 0.38418 0.42273 0.70883 0.0
C344 C 0.37689 0.40597 0.71889 0.0
C345 C 0.37624 0.40629 0.73964 0.0
C346 C 0.38306 0.42354 0.74955 0.0
H347 H 0.39709 0.45222 0.71183 0.0
O348 O 0.35957 0.49395 0.73888 0.0
O349 O 0.3772 0.47449 0.7577 0.0
O350 O 0.40131 0.50423 0.73758 0.0
O351 O 0.41412 0.47387 0.73698 0.0
C352 C 0.36912 0.39018 0.75089 0.0
C353 C 0.36806 0.39191 0.77168 0.0
H354 H 0.36787 0.40098 0.81134 0.0
H355 H 0.38034 0.43291 0.82615 0.0
H356 H 0.3847 0.4226 0.69283 0.0
H357 H 0.37174 0.39297 0.71054 0.0
H358 H 0.36413 0.37647 0.74367 0.0
H359 H 0.36215 0.37957 0.78012 0.0
Mn360 Mn 0.75707 0.37935 0.50637 0.0
Mn361 Mn 0.75493 0.39793 0.46026 0.0
C362 C 0.74182 0.36115 0.48087 0.0
C363 C 0.7723 0.36116 0.53116 0.0
C364 C 0.72857 0.41169 0.49363 0.0
O365 O 0.77871 0.40119 0.50718 0.0
O366 O 0.77648 0.41165 0.47568 0.0
C367 C 0.79354 0.3844 0.44528 0.0
N368 N 0.77343 0.38487 0.44357 0.0
C369 C 0.77391 0.36614 0.413 0.0
C370 C 0.79463 0.36551 0.41439 0.0
C371 C 0.80447 0.37461 0.43065 0.0
C372 C 0.7638 0.376 0.42809 0.0
H373 H 0.80117 0.39147 0.45769 0.0
C374 C 0.78446 0.41225 0.49295 0.0
O375 O 0.75956 0.37469 0.53527 0.0
O376 O 0.77678 0.35869 0.51264 0.0
N377 N 0.73488 0.3857 0.44368 0.0
C378 C 0.7148 0.38663 0.44517 0.0
C379 C 0.70271 0.37763 0.43043 0.0
C380 C 0.7114 0.36805 0.41418 0.0
C381 C 0.73211 0.36746 0.41289 0.0
C382 C 0.74339 0.37653 0.4281 0.0
H383 H 0.70805 0.39412 0.45755 0.0
O384 O 0.73719 0.35776 0.49915 0.0
O385 O 0.75502 0.37519 0.47808 0.0
O386 O 0.73535 0.4001 0.50665 0.0
O387 O 0.735 0.41218 0.47592 0.0
C388 C 0.74201 0.35811 0.39716 0.0
C389 C 0.76288 0.35727 0.39731 0.0
H390 H 0.80312 0.35801 0.40312 0.0
H391 H 0.82046 0.37414 0.43186 0.0
H392 H 0.68674 0.37815 0.43155 0.0
H393 H 0.70204 0.36114 0.40283 0.0
H394 H 0.73368 0.35123 0.38502 0.0
H395 H 0.77029 0.34967 0.38533 0.0
Mn396 Mn 0.63871 0.00978 0.75315 0.0
Mn397 Mn 0.62139 0.05641 0.75233 0.0
C398 C 0.65676 0.03481 0.73755 0.0
C399 C 0.65703 0.98495 0.76805 0.0
C400 C 0.60528 0.02299 0.72574 0.0
O401 O 0.6179 0.00932 0.77503 0.0
O402 O 0.60877 0.04123 0.7741 0.0
C403 C 0.63802 0.07135 0.79053 0.0
N404 N 0.63599 0.07315 0.77058 0.0
C405 C 0.65539 0.10365 0.77088 0.0
C406 C 0.6576 0.10219 0.79145 0.0
C407 C 0.64893 0.08594 0.80131 0.0
C408 C 0.64433 0.08868 0.76094 0.0
H409 H 0.63137 0.05889 0.79816 0.0
C410 C 0.60788 0.02384 0.78157 0.0
O411 O 0.64286 0.98068 0.75549 0.0
O412 O 0.66007 1.00361 0.77246 0.0
N413 N 0.63245 0.07295 0.7322 0.0
C414 C 0.62991 0.07151 0.71221 0.0
C415 C 0.63781 0.08653 0.70013 0.0
C416 C 0.64812 0.10288 0.70874 0.0
C417 C 0.65076 0.10391 0.72932 0.0
C418 C 0.64231 0.08866 0.74062 0.0
H419 H 0.62181 0.05908 0.70553 0.0
O420 O 0.65934 0.01629 0.73295 0.0
O421 O 0.64367 0.03818 0.75118 0.0
O422 O 0.61692 0.0097 0.7318 0.0
O423 O 0.60555 0.04071 0.73272 0.0
C424 C 0.6616 0.11936 0.73904 0.0
C425 C 0.66399 0.11919 0.7598 0.0
H426 H 0.66606 0.11338 0.79981 0.0
H427 H 0.65064 0.08466 0.81717 0.0
H428 H 0.63584 0.08557 0.68424 0.0
H429 H 0.65404 0.11452 0.6994 0.0
H430 H 0.66839 0.13131 0.73067 0.0
H431 H 0.67261 0.13099 0.76708 0.0
Mn432 Mn 1.00198 0.25292 0.87874 0.0
Mn433 Mn 0.95689 0.25011 0.90004 0.0
C434 C 0.9756 0.23682 0.86243 0.0
C435 C 0.02612 0.2682 0.85903 0.0
C436 C 0.99067 0.224 0.91189 0.0
O437 O 0.00401 0.27495 0.89982 0.0
O438 O 0.97348 0.2715 0.91282 0.0
C439 C 0.94208 0.28914 0.88776 0.0
N440 N 0.93985 0.269 0.88841 0.0
C441 C 0.90744 0.27006 0.8735 0.0
C442 C 0.90935 0.29083 0.87272 0.0
C443 C 0.92681 0.30039 0.87976 0.0
C444 C 0.92327 0.25963 0.88136 0.0
H445 H 0.95537 0.29657 0.8934 0.0
C446 C 0.99061 0.28009 0.91201 0.0
O447 O 0.03068 0.25571 0.87266 0.0
O448 O 0.0075 0.27237 0.85724 0.0
N449 N 0.93902 0.23035 0.88908 0.0
C450 C 0.94006 0.21019 0.88976 0.0
C451 C 0.92405 0.19834 0.88268 0.0
C452 C 0.90699 0.20735 0.87537 0.0
C453 C 0.90624 0.22814 0.8749 0.0
C454 C 0.92277 0.23916 0.88184 0.0
H455 H 0.953 0.20322 0.89573 0.0
O456 O 0.99377 0.23252 0.85831 0.0
O457 O 0.97333 0.25034 0.87611 0.0
O458 O 1.00325 0.23147 0.89994 0.0
O459 O 0.97286 0.22981 0.91305 0.0
C460 C 0.88974 0.23838 0.86781 0.0
C461 C 0.89044 0.25931 0.86685 0.0
H462 H 0.89754 0.29957 0.86671 0.0
H463 H 0.92842 0.31641 0.87919 0.0
H464 H 0.92475 0.18231 0.88306 0.0
H465 H 0.89459 0.19817 0.87009 0.0
H466 H 0.87654 0.23029 0.86275 0.0
H467 H 0.87783 0.26697 0.86094 0.0
Mn468 Mn 0.50461 0.75672 0.37773 0.0
Mn469 Mn 0.45906 0.75416 0.39806 0.0
C470 C 0.47856 0.74042 0.36107 0.0
C471 C 0.52915 0.77166 0.3582 0.0
C472 C 0.49252 0.72813 0.41092 0.0
O473 O 0.50622 0.77905 0.39856 0.0
O474 O 0.47546 0.77555 0.41101 0.0
C475 C 0.44468 0.79315 0.38516 0.0
N476 N 0.44235 0.77302 0.38591 0.0
C477 C 0.41022 0.77411 0.37042 0.0
C478 C 0.41224 0.79486 0.36951 0.0
C479 C 0.42961 0.80441 0.3768 0.0
C480 C 0.42587 0.76367 0.37863 0.0
H481 H 0.45789 0.80057 0.39099 0.0
C482 C 0.49258 0.7842 0.41048 0.0
O483 O 0.53346 0.7594 0.37214 0.0
O484 O 0.51058 0.77584 0.35605 0.0
N485 N 0.44132 0.73438 0.38691 0.0
C486 C 0.44223 0.71422 0.38784 0.0
C487 C 0.42626 0.7024 0.38062 0.0
C488 C 0.40938 0.71142 0.37292 0.0
C489 C 0.40877 0.73221 0.3722 0.0
C490 C 0.42526 0.7432 0.3793 0.0
H491 H 0.45501 0.70725 0.39413 0.0
O492 O 0.49682 0.73605 0.35741 0.0
O493 O 0.47601 0.75412 0.3745 0.0
O494 O 0.50541 0.73555 0.39926 0.0
O495 O 0.47468 0.73392 0.41155 0.0
C496 C 0.39245 0.74247 0.36474 0.0
C497 C 0.39328 0.76338 0.36358 0.0
H498 H 0.40057 0.80361 0.36323 0.0
H499 H 0.4313 0.82041 0.37614 0.0
H500 H 0.42686 0.68637 0.3812 0.0
H501 H 0.39701 0.70225 0.36754 0.0
H502 H 0.37929 0.73439 0.35955 0.0
H503 H 0.38081 0.77105 0.35739 0.0
Mn504 Mn 0.00601 0.75256 0.63423 0.0
Mn505 Mn 0.98236 0.71273 0.65395 0.0
C506 C 0.00595 0.72192 0.61767 0.0
C507 C 0.00639 0.7814 0.61526 0.0
C508 C 0.02258 0.72837 0.66834 0.0
O509 O 0.98825 0.76523 0.65518 0.0
O510 O 0.97201 0.73761 0.66527 0.0
C511 C 0.94229 0.71889 0.63739 0.0
N512 N 0.95803 0.707 0.64026 0.0
C513 C 0.94027 0.67871 0.62625 0.0
C514 C 0.92378 0.6906 0.62324 0.0
C515 C 0.92487 0.71084 0.62865 0.0
C516 C 0.95737 0.6877 0.63454 0.0
H517 H 0.943 0.73437 0.64184 0.0
C518 C 0.97496 0.75645 0.66552 0.0
O519 O 0.0194 0.77864 0.6291 0.0
O520 O 0.99286 0.76751 0.61263 0.0
N521 N 0.99041 0.68733 0.64455 0.0
C522 C 0.00798 0.67825 0.64747 0.0
C523 C 0.00955 0.65803 0.64255 0.0
C524 C 0.99292 0.64727 0.63519 0.0
C525 C 0.975 0.65696 0.63228 0.0
C526 C 0.97444 0.6772 0.63708 0.0
H527 H 0.02061 0.68631 0.65376 0.0
O528 O 0.0193 0.73556 0.61396 0.0
O529 O 0.99271 0.72668 0.63069 0.0
O530 O 0.02436 0.74232 0.65587 0.0
O531 O 0.00729 0.71686 0.66913 0.0
C532 C 0.95761 0.64733 0.62493 0.0
C533 C 0.94038 0.65826 0.62156 0.0
H534 H 0.91023 0.68436 0.61678 0.0
H535 H 0.91224 0.72013 0.62633 0.0
H536 H 0.02344 0.65066 0.64479 0.0
H537 H 0.99411 0.63159 0.63171 0.0
H538 H 0.95746 0.63157 0.62145 0.0
H539 H 0.92728 0.65078 0.61543 0.0
Mn540 Mn 0.50999 0.25675 0.13213 0.0
Mn541 Mn 0.48946 0.21397 0.14925 0.0
C542 C 0.51264 0.2275 0.11385 0.0
C543 C 0.50817 0.28642 0.11468 0.0
C544 C 0.5283 0.23179 0.16489 0.0
O545 O 0.49087 0.2666 0.15322 0.0
O546 O 0.47748 0.23724 0.16242 0.0
C547 C 0.44885 0.21854 0.13335 0.0
N548 N 0.46547 0.20761 0.13513 0.0
C549 C 0.45044 0.18041 0.11652 0.0
C550 C 0.43313 0.19132 0.11458 0.0
C551 C 0.43236 0.21049 0.12297 0.0
C552 C 0.46641 0.18921 0.12701 0.0
H553 H 0.4482 0.23326 0.13983 0.0
C554 C 0.4787 0.25623 0.16347 0.0
O555 O 0.52117 0.28413 0.12864 0.0
O556 O 0.4959 0.2716 0.11113 0.0
N557 N 0.4992 0.18997 0.13793 0.0
C558 C 0.51736 0.18188 0.14021 0.0
C559 C 0.52064 0.16274 0.13261 0.0
C560 C 0.50519 0.15209 0.12287 0.0
C561 C 0.48669 0.16077 0.12057 0.0
C562 C 0.48421 0.17976 0.12871 0.0
H563 H 0.5292 0.18991 0.14792 0.0
O564 O 0.52501 0.2423 0.11126 0.0
O565 O 0.49888 0.23024 0.12698 0.0
O566 O 0.52881 0.2468 0.15358 0.0
O567 O 0.51416 0.21881 0.1646 0.0
C568 C 0.47068 0.15142 0.11033 0.0
C569 C 0.4526 0.16128 0.10821 0.0
H570 H 0.42039 0.18518 0.10655 0.0
H571 H 0.41908 0.21904 0.12147 0.0
H572 H 0.53501 0.15617 0.13433 0.0
H573 H 0.50774 0.1373 0.11707 0.0
H574 H 0.47221 0.13676 0.10379 0.0
H575 H 0.4405 0.15407 0.10005 0.0
H576 H 0.2135 0.69777 0.87072 0.0
H577 H 0.21967 0.72322 0.89648 0.0
H578 H 0.20288 0.76867 0.85574 0.0
H579 H 0.19741 0.74354 0.82981 0.0
H580 H 0.23846 0.77674 0.87445 0.0
H581 H 0.1807 0.75596 0.92913 0.0
H582 H 0.1967 0.73629 0.92175 0.0
H583 H 0.18021 0.74669 0.90392 0.0
C584 C 0.21113 0.71319 0.86726 0.0
C585 C 0.2049 0.7186 0.8482 0.0
C586 C 0.21441 0.72769 0.88208 0.0
C587 C 0.21143 0.74781 0.87812 0.0
C588 C 0.20509 0.7532 0.85917 0.0
H589 H 0.20575 0.84488 0.96395 0.0
H590 H 0.19893 0.81844 0.93924 0.0
C591 C 0.20185 0.73879 0.84439 0.0
C592 C 0.21622 0.76353 0.89312 0.0
H593 H 0.20363 0.78158 0.93866 0.0
C594 C 0.2308 0.77787 0.88849 0.0
C595 C 0.2062 0.76496 0.91137 0.0
C596 C 0.18996 0.75027 0.91686 0.0
C597 C 0.23553 0.79377 0.90141 0.0
C598 C 0.22566 0.79527 0.91986 0.0
C599 C 0.21117 0.78068 0.92456 0.0
C600 C 0.22985 0.81188 0.93435 0.0
C601 C 0.25073 0.80892 0.89462 0.0
C602 C 0.24942 0.81718 0.93993 0.0
C603 C 0.25326 0.833 0.95312 0.0
C604 C 0.23761 0.84319 0.96183 0.0
C605 C 0.21803 0.83746 0.95705 0.0
C606 C 0.21418 0.82222 0.9431 0.0
H607 H 0.25039 0.81046 0.87827 0.0
H608 H 0.24824 0.82358 0.90142 0.0
H609 H 0.26574 0.80405 0.89884 0.0
H610 H 0.2618 0.80902 0.93421 0.0
H611 H 0.26849 0.83679 0.95709 0.0
H612 H 0.00493 0.49776 0.44186 0.0
H613 H 0.02545 0.48903 0.41338 0.0
H614 H 0.0316 0.55092 0.39859 0.0
H615 H 0.01059 0.55979 0.42646 0.0
H616 H 0.01767 0.50037 0.37114 0.0
H617 H 0.0898 0.52858 0.40173 0.0
H618 H 0.06894 0.52202 0.41722 0.0
H619 H 0.06949 0.54519 0.40436 0.0
C620 C 0.01051 0.50953 0.43248 0.0
C621 C 0.00612 0.52952 0.43657 0.0
C622 C 0.02233 0.5045 0.41629 0.0
C623 C 0.0302 0.51935 0.40407 0.0
C624 C 0.02591 0.53927 0.40807 0.0
H625 H 0.07397 0.53519 0.28947 0.0
H626 H 0.0546 0.53051 0.31948 0.0
C627 C 0.01397 0.54431 0.4241 0.0
C628 C 0.04242 0.51421 0.3867 0.0
H629 H 0.08839 0.52194 0.36698 0.0
C630 C 0.03322 0.50477 0.3703 0.0
C631 C 0.06273 0.51978 0.38576 0.0
C632 C 0.07344 0.52931 0.40325 0.0
C633 C 0.04356 0.5018 0.35256 0.0
C634 C 0.06355 0.50847 0.35125 0.0
C635 C 0.07305 0.51686 0.36802 0.0
C636 C 0.07415 0.50903 0.33211 0.0
C637 C 0.0329 0.49204 0.33518 0.0
C638 C 0.09152 0.49835 0.32916 0.0
C639 C 0.10262 0.50087 0.31184 0.0
C640 C 0.09669 0.51445 0.29746 0.0
C641 C 0.07896 0.52464 0.30028 0.0
C642 C 0.0678 0.52191 0.31738 0.0
H643 H 0.01982 0.48301 0.33997 0.0
H644 H 0.02761 0.50369 0.32512 0.0
H645 H 0.04299 0.48236 0.32669 0.0
H646 H 0.09674 0.48846 0.34046 0.0
H647 H 0.11629 0.49295 0.31016 0.0
H648 H 0.77901 0.7897 0.84088 0.0
H649 H 0.77396 0.76407 0.86575 0.0
H650 H 0.83554 0.76966 0.8828 0.0
H651 H 0.84066 0.79571 0.85819 0.0
H652 H 0.79435 0.72734 0.86788 0.0
H653 H 0.80528 0.77399 0.93596 0.0
H654 H 0.80017 0.78458 0.91211 0.0
H655 H 0.82437 0.77556 0.91754 0.0
C656 C 0.79143 0.78573 0.85013 0.0
C657 C 0.81022 0.79487 0.84763 0.0
C658 C 0.78854 0.77097 0.86424 0.0
C659 C 0.80432 0.76509 0.87625 0.0
C660 C 0.8231 0.77416 0.87387 0.0
H661 H 0.79578 0.67638 0.97147 0.0
H662 H 0.81003 0.70024 0.94791 0.0
C663 C 0.82603 0.78891 0.85968 0.0
C664 C 0.80102 0.74905 0.89081 0.0
H665 H 0.79781 0.73998 0.94035 0.0
C666 C 0.79526 0.73006 0.88373 0.0
C667 C 0.80244 0.75257 0.91147 0.0
C668 C 0.80828 0.77278 0.91985 0.0
C669 C 0.79036 0.71465 0.89673 0.0
C670 C 0.79085 0.71841 0.91739 0.0
C671 C 0.79743 0.73714 0.92452 0.0
C672 C 0.78268 0.70374 0.93159 0.0
C673 C 0.78444 0.6945 0.88823 0.0
C674 C 0.76259 0.69804 0.93037 0.0
C675 C 0.75444 0.68455 0.94372 0.0
C676 C 0.76616 0.67644 0.95876 0.0
C677 C 0.78634 0.68224 0.96005 0.0
C678 C 0.7945 0.69589 0.94663 0.0
H679 H 0.79069 0.69226 0.87321 0.0
H680 H 0.78945 0.68239 0.89791 0.0
H681 H 0.76805 0.69337 0.88693 0.0
H682 H 0.7531 0.7042 0.91915 0.0
H683 H 0.73886 0.68053 0.94218 0.0
H684 H 0.02058 0.00564 0.44724 0.0
H685 H 0.9989 0.01337 0.41931 0.0
H686 H 0.9917 0.95086 0.40558 0.0
H687 H 0.01331 0.94302 0.4334 0.0
H688 H 1.00309 0.00525 0.37953 0.0
H689 H 0.93467 0.96842 0.40727 0.0
H690 H 0.95602 0.97357 0.42293 0.0
H691 H 0.9552 0.95203 0.40683 0.0
C692 C 0.01439 0.99354 0.43825 0.0
C693 C 0.01859 0.97369 0.44264 0.0
C694 C 1.00195 0.99799 0.42234 0.0
C695 C 0.99337 0.98269 0.41056 0.0
C696 C 0.9977 0.96289 0.41478 0.0
H697 H 0.93402 0.96162 0.30225 0.0
H698 H 0.95353 0.96304 0.33259 0.0
C699 C 0.01008 0.95843 0.43069 0.0
C700 C 0.98038 0.98733 0.39346 0.0
H701 H 0.93527 0.97566 0.37255 0.0
C702 C 0.98813 0.99908 0.37815 0.0
C703 C 0.96079 0.97944 0.39173 0.0
C704 C 0.95109 0.96784 0.40817 0.0
C705 C 0.9772 1.00218 0.36072 0.0
C706 C 0.95807 0.99336 0.35861 0.0
C707 C 0.95 0.98234 0.37422 0.0
C708 C 0.94701 0.99357 0.33961 0.0
C709 C 0.98642 0.01404 0.34423 0.0
C710 C 0.93698 0.01042 0.33337 0.0
C711 C 0.92561 0.00971 0.31587 0.0
C712 C 0.92415 0.9921 0.30438 0.0
C713 C 0.93469 0.97547 0.31061 0.0
C714 C 0.94588 0.97619 0.32801 0.0
H715 H 1.00174 0.01936 0.34789 0.0
H716 H 0.98676 0.00482 0.33049 0.0
H717 H 0.97723 0.0271 0.34114 0.0
H718 H 0.93762 0.02396 0.34223 0.0
H719 H 0.91768 0.02277 0.31159 0.0
H720 H 0.20569 0.30938 0.64902 0.0
H721 H 0.21127 0.2855 0.62214 0.0
H722 H 0.19941 0.23712 0.6619 0.0
H723 H 0.19371 0.26092 0.68884 0.0
H724 H 0.23894 0.25649 0.6193 0.0
H725 H 0.16297 0.223 0.6154 0.0
H726 H 0.16867 0.24577 0.62889 0.0
H727 H 0.17419 0.22219 0.63952 0.0
C728 C 0.20427 0.29365 0.65205 0.0
C729 C 0.19916 0.28706 0.67105 0.0
C730 C 0.20742 0.28002 0.63666 0.0
C731 C 0.2055 0.25952 0.63992 0.0
C732 C 0.20052 0.25287 0.6589 0.0
H733 H 0.25111 0.16838 0.5596 0.0
H734 H 0.24548 0.19032 0.58808 0.0
C735 C 0.19728 0.26649 0.67429 0.0
C736 C 0.20915 0.24516 0.62353 0.0
H737 H 0.18751 0.20748 0.59603 0.0
C738 C 0.2277 0.24577 0.6142 0.0
C739 C 0.1944 0.23132 0.61677 0.0
C740 C 0.17387 0.23059 0.62551 0.0
C741 C 0.23192 0.23289 0.59832 0.0
C742 C 0.21732 0.21875 0.59184 0.0
C743 C 0.19876 0.21818 0.60115 0.0
C744 C 0.22064 0.20504 0.57484 0.0
C745 C 0.25178 0.23493 0.58829 0.0
C746 C 0.20821 0.2056 0.55815 0.0
C747 C 0.21125 0.19298 0.54194 0.0
C748 C 0.22681 0.17943 0.54203 0.0
C749 C 0.23909 0.1787 0.55892 0.0
C750 C 0.23596 0.19132 0.57519 0.0
H751 H 0.2592 0.24951 0.5917 0.0
H752 H 0.26157 0.22309 0.59357 0.0
H753 H 0.25017 0.23329 0.57198 0.0
H754 H 0.19623 0.21601 0.55758 0.0
H755 H 0.20143 0.19397 0.52927 0.0
H756 H 0.52432 0.50652 0.5773 0.0
H757 H 0.50379 0.49872 0.60601 0.0
H758 H 0.49776 0.56123 0.61842 0.0
H759 H 0.51872 0.56924 0.59004 0.0
H760 H 0.51097 0.51182 0.6472 0.0
H761 H 0.43968 0.53752 0.6161 0.0
H762 H 0.46061 0.53171 0.60071 0.0
H763 H 0.46057 0.55458 0.61466 0.0
C764 C 0.51882 0.51865 0.58621 0.0
C765 C 0.5232 0.53853 0.58129 0.0
C766 C 0.50698 0.51414 0.60256 0.0
C767 C 0.4991 0.52939 0.61419 0.0
C768 C 0.50345 0.54924 0.60942 0.0
H769 H 0.41969 0.5288 0.71548 0.0
H770 H 0.44113 0.53824 0.68792 0.0
C771 C 0.51538 0.55378 0.59315 0.0
C772 C 0.4866 0.52449 0.63153 0.0
H773 H 0.43942 0.52692 0.64924 0.0
C774 C 0.49532 0.51508 0.64767 0.0
C775 C 0.46624 0.52891 0.63212 0.0
C776 C 0.45609 0.53861 0.61495 0.0
C777 C 0.48424 0.51011 0.66452 0.0
C778 C 0.46375 0.5142 0.665 0.0
C779 C 0.4551 0.52377 0.64888 0.0
C780 C 0.45097 0.50843 0.68195 0.0
C781 C 0.49471 0.50093 0.6818 0.0
C782 C 0.44916 0.48849 0.68763 0.0
C783 C 0.43703 0.48305 0.70347 0.0
C784 C 0.42619 0.4974 0.71383 0.0
C785 C 0.42782 0.51734 0.7079 0.0
C786 C 0.44007 0.52278 0.69212 0.0
H787 H 0.51091 0.50435 0.68161 0.0
H788 H 0.48866 0.50624 0.69612 0.0
H789 H 0.49261 0.48454 0.68094 0.0
H790 H 0.45698 0.47706 0.67968 0.0
H791 H 0.43598 0.46752 0.70743 0.0
H792 H 0.823 0.25493 0.68057 0.0
H793 H 0.81728 0.28049 0.65593 0.0
H794 H 0.79822 0.23533 0.61365 0.0
H795 H 0.80427 0.2096 0.63803 0.0
H796 H 0.83361 0.28457 0.61643 0.0
H797 H 0.75156 0.27464 0.61668 0.0
H798 H 0.76716 0.26535 0.6361 0.0
H799 H 0.76517 0.25233 0.61277 0.0
C800 C 0.81783 0.25037 0.66596 0.0
C801 C 0.81403 0.23017 0.66133 0.0
C802 C 0.81449 0.26503 0.65193 0.0
C803 C 0.80712 0.25981 0.63306 0.0
C804 C 0.80361 0.23968 0.62825 0.0
H805 H 0.79829 0.33081 0.52693 0.0
H806 H 0.80805 0.30701 0.55207 0.0
C807 C 0.80702 0.22501 0.64223 0.0
C808 C 0.80289 0.27545 0.61849 0.0
H809 H 0.7652 0.29637 0.59282 0.0
C810 C 0.81867 0.28719 0.61125 0.0
C811 C 0.78335 0.27896 0.61197 0.0
C812 C 0.76577 0.2673 0.61986 0.0
C813 C 0.81544 0.30217 0.59738 0.0
C814 C 0.79594 0.30537 0.59054 0.0
C815 C 0.78015 0.29381 0.59801 0.0
C816 C 0.79147 0.32069 0.57569 0.0
C817 C 0.83283 0.31465 0.59037 0.0
C818 C 0.77893 0.33629 0.58062 0.0
C819 C 0.77334 0.34989 0.56631 0.0
C820 C 0.78003 0.34806 0.54671 0.0
C821 C 0.79296 0.33269 0.54191 0.0
C822 C 0.79861 0.31911 0.55627 0.0
H823 H 0.84592 0.31345 0.60031 0.0
H824 H 0.83712 0.3095 0.57536 0.0
H825 H 0.82887 0.33052 0.58943 0.0
H826 H 0.77321 0.33774 0.5955 0.0
H827 H 0.76332 0.36152 0.5705 0.0
H828 H 0.51968 0.98166 0.55898 0.0
H829 H 0.54024 0.98762 0.58846 0.0
H830 H 0.48798 0.99941 0.62264 0.0
H831 H 0.46719 0.99279 0.59332 0.0
H832 H 0.54452 0.02127 0.61159 0.0
H833 H 0.51575 0.95828 0.65612 0.0
H834 H 0.51093 0.96019 0.62992 0.0
H835 H 0.49694 0.97445 0.64736 0.0
C836 C 0.5125 0.98527 0.57282 0.0
C837 C 0.49174 0.98656 0.5738 0.0
C838 C 0.52431 0.9888 0.58963 0.0
C839 C 0.51564 0.99364 0.60784 0.0
C840 C 0.49496 0.9953 0.60884 0.0
H841 H 0.57787 0.04705 0.70897 0.0
H842 H 0.556 0.0396 0.68083 0.0
C843 C 0.48312 0.99175 0.59201 0.0
C844 C 0.52838 0.99738 0.6256 0.0
H845 H 0.5375 0.98151 0.67255 0.0
C846 C 0.543 0.01256 0.62491 0.0
C847 C 0.52657 0.98582 0.64287 0.0
C848 C 0.51184 0.96864 0.64413 0.0
C849 C 0.55568 0.01669 0.64109 0.0
C850 C 0.55346 0.00555 0.6586 0.0
C851 C 0.53905 0.99016 0.6592 0.0
C852 C 0.56607 0.00964 0.67636 0.0
C853 C 0.57158 0.03272 0.63916 0.0
C854 C 0.57853 0.99502 0.68368 0.0
C855 C 0.59103 0.99917 0.69993 0.0
C856 C 0.59123 0.01802 0.70924 0.0
C857 C 0.57827 0.03241 0.70215 0.0
C858 C 0.5658 0.02824 0.68596 0.0
H859 H 0.57471 0.03609 0.62342 0.0
H860 H 0.56656 0.04655 0.64647 0.0
H861 H 0.58558 0.02833 0.64643 0.0
H862 H 0.57889 0.98052 0.67656 0.0
H863 H 0.60074 0.98769 0.70497 0.0
H864 H 0.84816 0.23551 0.72382 0.0
H865 H 0.87302 0.23909 0.75019 0.0
H866 H 0.88519 0.17669 0.74519 0.0
H867 H 0.8605 0.173 0.7185 0.0
H868 H 0.8703 0.21637 0.78635 0.0
H869 H 0.94121 0.20535 0.74651 0.0
H870 H 0.91887 0.2127 0.734 0.0
H871 H 0.92137 0.18751 0.74173 0.0
C872 C 0.85642 0.22262 0.728 0.0
C873 C 0.85237 0.20397 0.71903 0.0
C874 C 0.87055 0.22468 0.74314 0.0
C875 C 0.88105 0.2082 0.7495 0.0
C876 C 0.87743 0.18964 0.7403 0.0
H877 H 0.96914 0.20042 0.84507 0.0
H878 H 0.94527 0.19169 0.81849 0.0
C879 C 0.8632 0.18754 0.72519 0.0
C880 C 0.89452 0.21024 0.76685 0.0
H881 H 0.94314 0.20968 0.78122 0.0
C882 C 0.88623 0.2149 0.78524 0.0
C883 C 0.91524 0.20802 0.76538 0.0
C884 C 0.92484 0.20323 0.74585 0.0
C885 C 0.8981 0.2176 0.8022 0.0
C886 C 0.91891 0.21606 0.80072 0.0
C887 C 0.92719 0.21091 0.78237 0.0
C888 C 0.93234 0.22075 0.81778 0.0
C889 C 0.88825 0.22177 0.82166 0.0
C890 C 0.93298 0.23994 0.82621 0.0
C891 C 0.94655 0.24489 0.84131 0.0
C892 C 0.95957 0.2307 0.84847 0.0
C893 C 0.95892 0.21148 0.84009 0.0
C894 C 0.94538 0.20653 0.82489 0.0
H895 H 0.87223 0.2175 0.82134 0.0
H896 H 0.89557 0.21355 0.83366 0.0
H897 H 0.88957 0.23792 0.82505 0.0
H898 H 0.92347 0.25133 0.82062 0.0
H899 H 0.94739 0.26007 0.84683 0.0
H900 H 0.48224 0.92455 0.53764 0.0
H901 H 0.49003 0.8961 0.51656 0.0
H902 H 0.48048 0.93121 0.46463 0.0
H903 H 0.47265 0.95985 0.4857 0.0
H904 H 0.46149 0.89534 0.46213 0.0
H905 H 0.5394 0.88473 0.48482 0.0
H906 H 0.5229 0.8853 0.50553 0.0
H907 H 0.52629 0.9071 0.49067 0.0
C908 C 0.48209 0.92634 0.52174 0.0
C909 C 0.47693 0.94454 0.51336 0.0
C910 C 0.48663 0.91005 0.5097 0.0
C911 C 0.48628 0.91161 0.48901 0.0
C912 C 0.48101 0.9297 0.48057 0.0
H913 H 0.51982 0.81518 0.40676 0.0
H914 H 0.52024 0.84696 0.42518 0.0
C915 C 0.47641 0.94602 0.49262 0.0
C916 C 0.4901 0.89396 0.47626 0.0
H917 H 0.52317 0.85715 0.46779 0.0
C918 C 0.47509 0.88716 0.4632 0.0
C919 C 0.50796 0.88339 0.47742 0.0
C920 C 0.52514 0.89061 0.49022 0.0
C921 C 0.47705 0.86963 0.45198 0.0
C922 C 0.49437 0.85841 0.45408 0.0
C923 C 0.5098 0.86565 0.4664 0.0
C924 C 0.49599 0.83861 0.44442 0.0
C925 C 0.46042 0.86311 0.43813 0.0
C926 C 0.48283 0.82318 0.44972 0.0
C927 C 0.48256 0.80515 0.43933 0.0
C928 C 0.49555 0.80204 0.42342 0.0
C929 C 0.50964 0.81707 0.41893 0.0
C930 C 0.50985 0.83525 0.42938 0.0
H931 H 0.4509 0.87571 0.43419 0.0
H932 H 0.46631 0.85645 0.4243 0.0
H933 H 0.45098 0.8517 0.44548 0.0
H934 H 0.47229 0.82533 0.46154 0.0
H935 H 0.47168 0.79384 0.44339 0.0
H936 H 0.15433 0.34046 0.73348 0.0
H937 H 0.12786 0.3354 0.75765 0.0
H938 H 0.13805 0.27244 0.75679 0.0
H939 H 0.16467 0.27736 0.7328 0.0
H940 H 0.09769 0.28212 0.75394 0.0
H941 H 0.13554 0.32217 0.81655 0.0
H942 H 0.13357 0.33602 0.7941 0.0
H943 H 0.14852 0.31433 0.79462 0.0
C944 C 0.15108 0.32555 0.73857 0.0
C945 C 0.16171 0.30932 0.73124 0.0
C946 C 0.13593 0.32269 0.75238 0.0
C947 C 0.13116 0.30358 0.7592 0.0
C948 C 0.14151 0.28732 0.75172 0.0
H949 H 0.066 0.26261 0.86034 0.0
H950 H 0.09076 0.27273 0.83596 0.0
C951 C 0.15666 0.29016 0.73794 0.0
C952 C 0.11529 0.3004 0.77405 0.0
H953 H 0.10267 0.31058 0.82196 0.0
C954 C 0.09872 0.2884 0.76879 0.0
C955 C 0.11678 0.30848 0.79346 0.0
C956 C 0.13461 0.32084 0.80016 0.0
C957 C 0.0836 0.28421 0.78243 0.0
C958 C 0.08499 0.29244 0.80179 0.0
C959 C 0.10155 0.30447 0.80704 0.0
C960 C 0.07001 0.28768 0.81714 0.0
C961 C 0.06657 0.2705 0.77621 0.0
C962 C 0.05019 0.29319 0.81491 0.0
C963 C 0.03596 0.28743 0.82886 0.0
C964 C 0.04134 0.27611 0.8453 0.0
C965 C 0.06134 0.27126 0.84782 0.0
C966 C 0.07553 0.27705 0.83391 0.0
H967 H 0.0698 0.26219 0.76232 0.0
H968 H 0.06307 0.25965 0.788 0.0
H969 H 0.0532 0.27939 0.77363 0.0
H970 H 0.04568 0.30169 0.80223 0.0
H971 H 0.02069 0.29145 0.82652 0.0
H972 H 0.53132 0.60099 0.54659 0.0
H973 H 0.52274 0.62876 0.52547 0.0
H974 H 0.5364 0.59377 0.47364 0.0
H975 H 0.54435 0.56569 0.4946 0.0
H976 H 0.54585 0.64948 0.49849 0.0
H977 H 0.4808 0.61292 0.46124 0.0
H978 H 0.49202 0.60311 0.48324 0.0
H979 H 0.50317 0.59914 0.45947 0.0
C980 C 0.53227 0.5991 0.53069 0.0
C981 C 0.53842 0.58104 0.52231 0.0
C982 C 0.5275 0.61505 0.51864 0.0
C983 C 0.52866 0.61326 0.49797 0.0
C984 C 0.53505 0.59538 0.48955 0.0
H985 H 0.52871 0.71051 0.41385 0.0
H986 H 0.53776 0.68298 0.43502 0.0
C987 C 0.53982 0.57941 0.50157 0.0
C988 C 0.52337 0.6302 0.48526 0.0
H989 H 0.49176 0.64397 0.44852 0.0
C990 C 0.53401 0.6483 0.48758 0.0
C991 C 0.50775 0.62871 0.4712 0.0
C992 C 0.49513 0.61 0.46871 0.0
C993 C 0.52961 0.66487 0.47607 0.0
C994 C 0.51435 0.66321 0.46163 0.0
C995 C 0.50357 0.64518 0.45947 0.0
C996 C 0.50901 0.6801 0.44887 0.0
C997 C 0.54106 0.68413 0.47977 0.0
C998 C 0.48972 0.68739 0.44928 0.0
C999 C 0.48444 0.70304 0.4371 0.0
C1000 C 0.49833 0.71174 0.42414 0.0
C1001 C 0.51765 0.70432 0.42371 0.0
C1002 C 0.5229 0.68862 0.4359 0.0
H1003 H 0.54844 0.68444 0.49452 0.0
H1004 H 0.55272 0.68582 0.46836 0.0
H1005 H 0.5312 0.69704 0.47881 0.0
H1006 H 0.47873 0.68098 0.4591 0.0
H1007 H 0.4694 0.70825 0.43781 0.0
H1008 H 0.8318 0.82274 0.76386 0.0
H1009 H 0.85932 0.8166 0.74136 0.0
H1010 H 0.89935 0.8138 0.79121 0.0
H1011 H 0.87171 0.81937 0.81382 0.0
H1012 H 0.89495 0.83465 0.73335 0.0
H1013 H 0.90636 0.76023 0.76547 0.0
H1014 H 0.8853 0.77496 0.77163 0.0
H1015 H 0.90907 0.78044 0.78293 0.0
C1016 C 0.84652 0.82104 0.77 0.0
C1017 C 0.84958 0.8213 0.7906 0.0
C1018 C 0.86224 0.81755 0.75713 0.0
C1019 C 0.88136 0.81436 0.76459 0.0
C1020 C 0.88465 0.81571 0.78512 0.0
H1021 H 0.9819 0.79346 0.68288 0.0
H1022 H 0.96082 0.81014 0.70733 0.0
C1023 C 0.86887 0.81893 0.79802 0.0
C1024 C 0.89739 0.80835 0.7509 0.0
H1025 H 0.92771 0.76997 0.7399 0.0
C1026 C 0.90224 0.82057 0.73483 0.0
C1027 C 0.90679 0.7899 0.75277 0.0
C1028 C 0.90153 0.77552 0.76901 0.0
C1029 C 0.91584 0.8146 0.72033 0.0
C1030 C 0.92505 0.79608 0.72216 0.0
C1031 C 0.92069 0.78422 0.73858 0.0
C1032 C 0.93746 0.78746 0.70627 0.0
C1033 C 0.91955 0.82769 0.70273 0.0
C1034 C 0.93134 0.76931 0.69754 0.0
C1035 C 0.94335 0.75974 0.68394 0.0
C1036 C 0.96183 0.7681 0.67856 0.0
C1037 C 0.96771 0.7867 0.68667 0.0
C1038 C 0.95566 0.79626 0.70058 0.0
H1039 H 0.90864 0.83973 0.70175 0.0
H1040 H 0.9346 0.83465 0.70401 0.0
H1041 H 0.9189 0.81878 0.68878 0.0
H1042 H 0.91733 0.76229 0.70157 0.0
H1043 H 0.9382 0.74554 0.67787 0.0
H1044 H 0.06526 0.91977 0.50096 0.0
H1045 H 0.05727 0.89169 0.52238 0.0
H1046 H 0.99647 0.90966 0.52515 0.0
H1047 H 0.00442 0.93804 0.50402 0.0
H1048 H 0.01336 0.9003 0.56243 0.0
H1049 H 0.0251 0.84086 0.50631 0.0
H1050 H 0.04547 0.85842 0.50904 0.0
H1051 H 0.02204 0.86654 0.4998 0.0
C1052 C 0.05021 0.91783 0.50622 0.0
C1053 C 0.03547 0.93114 0.50073 0.0
C1054 C 0.04562 0.90165 0.51829 0.0
C1055 C 0.02622 0.89842 0.52513 0.0
C1056 C 0.01151 0.91179 0.51991 0.0
H1057 H 0.98388 0.78955 0.58257 0.0
H1058 H 0.98711 0.81841 0.56093 0.0
C1059 C 0.01606 0.92793 0.50775 0.0
C1060 C 0.02139 0.8813 0.53804 0.0
H1061 H 0.02134 0.83059 0.53967 0.0
C1062 C 0.01499 0.88505 0.55743 0.0
C1063 C 0.02325 0.86141 0.53141 0.0
C1064 C 0.02916 0.85648 0.51045 0.0
C1065 C 0.011 0.86945 0.57057 0.0
C1066 C 0.01365 0.84959 0.56418 0.0
C1067 C 0.01946 0.84583 0.5446 0.0
C1068 C 0.01107 0.83255 0.57775 0.0
C1069 C 1.00392 0.87434 0.59115 0.0
C1070 C 0.0235 0.83089 0.59434 0.0
C1071 C 0.02173 0.81444 0.60667 0.0
C1072 C 0.00749 0.79926 0.60266 0.0
C1073 C 0.99493 0.80102 0.58613 0.0
C1074 C 0.99679 0.81747 0.57372 0.0
H1075 H 0.99766 0.88943 0.59203 0.0
H1076 H 0.99249 0.86333 0.59603 0.0
H1077 H 0.01664 0.87392 0.60162 0.0
H1078 H 0.03486 0.84216 0.59754 0.0
H1079 H 0.0317 0.81352 0.61923 0.0
H1080 H 0.14497 0.69847 0.81112 0.0
H1081 H 0.11795 0.70416 0.78775 0.0
H1082 H 0.15775 0.69512 0.73894 0.0
H1083 H 0.18489 0.68942 0.76225 0.0
H1084 H 0.11597 0.73359 0.75968 0.0
H1085 H 0.11032 0.65876 0.72422 0.0
H1086 H 0.12371 0.66347 0.74708 0.0
H1087 H 0.13472 0.67005 0.72385 0.0
C1088 C 0.14797 0.69765 0.79541 0.0
C1089 C 0.16708 0.69347 0.78855 0.0
C1090 C 0.13251 0.70086 0.78207 0.0
C1091 C 0.13577 0.69988 0.7616 0.0
C1092 C 0.15478 0.69555 0.75467 0.0
H1093 H 0.05822 0.74892 0.67156 0.0
H1094 H 0.08585 0.74236 0.69392 0.0
C1095 C 0.17028 0.69229 0.76801 0.0
C1096 C 0.11941 0.70413 0.74761 0.0
H1097 H 0.09122 0.68399 0.70988 0.0
C1098 C 0.11054 0.72275 0.7488 0.0
C1099 C 0.11224 0.68989 0.73354 0.0
C1100 C 0.12059 0.66935 0.73214 0.0
C1101 C 0.09476 0.72756 0.73624 0.0
C1102 C 0.08786 0.71348 0.7219 0.0
C1103 C 0.09665 0.69482 0.72078 0.0
C1104 C 0.07113 0.71759 0.7083 0.0
C1105 C 0.08532 0.74751 0.73876 0.0
C1106 C 0.05382 0.70562 0.70869 0.0
C1107 C 0.03802 0.70925 0.69587 0.0
C1108 C 0.03922 0.72491 0.68229 0.0
C1109 C 0.05667 0.73683 0.68189 0.0
C1110 C 0.07248 0.73316 0.69473 0.0
H1111 H 0.08898 0.75447 0.75338 0.0
H1112 H 0.09088 0.75764 0.7271 0.0
H1113 H 0.06894 0.74611 0.73725 0.0
H1114 H 0.05249 0.69348 0.719 0.0
H1115 H 0.02491 0.69967 0.69658 0.0
H1116 H 0.95752 0.58601 0.49069 0.0
H1117 H 0.96298 0.61523 0.51207 0.0
H1118 H 0.02506 0.60217 0.51667 0.0
H1119 H 0.01969 0.57281 0.49525 0.0
H1120 H 0.97674 0.61202 0.55056 0.0
H1121 H 0.02612 0.66272 0.50795 0.0
H1122 H 0.01179 0.64264 0.4964 0.0
H1123 H 0.03415 0.63755 0.50974 0.0
C1124 C 0.97237 0.58943 0.49613 0.0
C1125 C 0.98814 0.57699 0.49143 0.0
C1126 C 0.9755 0.60622 0.50821 0.0
C1127 C 0.99446 0.61101 0.5158 0.0
C1128 C 0.01039 0.59902 0.51063 0.0
H1129 H 0.03549 0.69816 0.60505 0.0
H1130 H 0.03301 0.67074 0.5807 0.0
C1131 C 0.00728 0.58219 0.49847 0.0
C1132 C 0.99688 0.62708 0.53093 0.0
H1133 H 0.0203 0.67164 0.54153 0.0
C1134 C 0.98617 0.62512 0.54851 0.0
C1135 C 0.00942 0.644 0.52835 0.0
C1136 C 0.02094 0.64703 0.50954 0.0
C1137 C 0.98766 0.63952 0.56363 0.0
C1138 C 0.99991 0.65665 0.56108 0.0
C1139 C 0.01085 0.65855 0.54353 0.0
C1140 C 1.00132 0.6728 0.57639 0.0
C1141 C 0.97665 0.63587 0.58252 0.0
C1142 C 0.98437 0.68311 0.58209 0.0
C1143 C 0.98578 0.69862 0.59608 0.0
C1144 C 0.00412 0.70407 0.60472 0.0
C1145 C 0.0211 0.69393 0.5989 0.0
C1146 C 0.01971 0.67836 0.58494 0.0
H1147 H 0.97168 0.62009 0.58396 0.0
H1148 H 0.98634 0.63993 0.59528 0.0
H1149 H 0.96334 0.64519 0.58291 0.0
H1150 H 0.97011 0.67952 0.57533 0.0
H1151 H 0.97263 0.7068 0.59963 0.0
H1152 H 0.75077 0.82859 0.19748 0.0
H1153 H 0.77528 0.85542 0.20279 0.0
H1154 H 0.72929 0.89414 0.2226 0.0
H1155 H 0.70442 0.86767 0.21632 0.0
H1156 H 0.75561 0.91338 0.19864 0.0
H1157 H 0.79576 0.87297 0.2567 0.0
H1158 H 0.79404 0.85938 0.23372 0.0
H1159 H 0.77185 0.86462 0.24729 0.0
C1160 C 0.74576 0.84288 0.20268 0.0
C1161 C 0.72556 0.84589 0.20654 0.0
C1162 C 0.75987 0.85815 0.20596 0.0
C1163 C 0.75419 0.87667 0.21347 0.0
C1164 C 0.73403 0.87991 0.21694 0.0
H1165 H 0.83881 0.95964 0.26891 0.0
H1166 H 0.81187 0.93574 0.26144 0.0
C1167 C 0.71986 0.86469 0.21352 0.0
C1168 C 0.76932 0.89254 0.21797 0.0
H1169 H 0.81114 0.90245 0.24514 0.0
C1170 C 0.76783 0.91102 0.20876 0.0
C1171 C 0.78496 0.88962 0.23156 0.0
C1172 C 0.78668 0.87066 0.24305 0.0
C1173 C 0.7818 0.92653 0.21247 0.0
C1174 C 0.79807 0.92325 0.2253 0.0
C1175 C 0.79916 0.90489 0.23484 0.0
C1176 C 0.81387 0.93865 0.22959 0.0
C1177 C 0.7785 0.9464 0.20309 0.0
C1178 C 0.82409 0.94841 0.21426 0.0
C1179 C 0.83919 0.96252 0.21861 0.0
C1180 C 0.84495 0.96633 0.23829 0.0
C1181 C 0.83484 0.9566 0.25358 0.0
C1182 C 0.81943 0.94297 0.2493 0.0
H1183 H 0.76258 0.94842 0.19958 0.0
H1184 H 0.78368 0.95885 0.21291 0.0
H1185 H 0.78679 0.94719 0.18898 0.0
H1186 H 0.82063 0.94495 0.19893 0.0
H1187 H 0.84676 0.96999 0.20663 0.0
H1188 H 0.73596 0.15885 0.33949 0.0
H1189 H 0.76075 0.1333 0.33515 0.0
H1190 H 0.76132 0.14369 0.27235 0.0
H1191 H 0.7367 0.16945 0.27655 0.0
H1192 H 0.75889 0.1032 0.28232 0.0
H1193 H 0.82 0.14297 0.32311 0.0
H1194 H 0.7972 0.14038 0.33656 0.0
H1195 H 0.79808 0.15527 0.31471 0.0
C1196 C 0.74149 0.15586 0.32477 0.0
C1197 C 0.73441 0.16632 0.30838 0.0
C1198 C 0.75567 0.14124 0.32232 0.0
C1199 C 0.76311 0.13681 0.30347 0.0
C1200 C 0.75582 0.14693 0.28704 0.0
H1201 H 0.86575 0.07093 0.26824 0.0
H1202 H 0.84178 0.09638 0.27646 0.0
C1203 C 0.74166 0.16157 0.28946 0.0
C1204 C 0.77827 0.12141 0.30081 0.0
H1205 H 0.82578 0.10976 0.31303 0.0
C1206 C 0.77351 0.10461 0.28905 0.0
C1207 C 0.7974 0.1234 0.30944 0.0
C1208 C 0.80362 0.14154 0.32153 0.0
C1209 C 0.7873 0.08965 0.28579 0.0
C1210 C 0.80629 0.09143 0.29475 0.0
C1211 C 0.81113 0.10833 0.30638 0.0
C1212 C 0.82158 0.07628 0.29148 0.0
C1213 C 0.78159 0.07228 0.2724 0.0
C1214 C 0.81849 0.05666 0.29778 0.0
C1215 C 0.83219 0.04207 0.29315 0.0
C1216 C 0.84925 0.04686 0.28216 0.0
C1217 C 0.85274 0.06673 0.27668 0.0
C1218 C 0.83905 0.0813 0.28136 0.0
H1219 H 0.76828 0.07532 0.26327 0.0
H1220 H 0.79398 0.06856 0.26238 0.0
H1221 H 0.77817 0.05909 0.28156 0.0
H1222 H 0.80526 0.05255 0.30592 0.0
H1223 H 0.82908 0.02693 0.29763 0.0
H1224 H 0.42848 0.04134 0.99554 0.0
H1225 H 0.39876 0.02207 0.00379 0.0
H1226 H 0.42529 0.96904 0.98065 0.0
H1227 H 0.45578 0.98788 0.9739 0.0
H1228 H 0.37382 0.00433 0.9811 0.0
H1229 H 0.40311 0.947 0.03006 0.0
H1230 H 0.41782 0.96847 0.02297 0.0
H1231 H 0.41594 0.94685 0.00693 0.0
C1232 C 0.42833 0.02547 0.99273 0.0
C1233 C 0.44477 0.01622 0.98418 0.0
C1234 C 0.41115 0.01446 0.9973 0.0
C1235 C 0.40981 0.99396 0.99324 0.0
C1236 C 0.42609 0.98469 0.98454 0.0
H1237 H 0.30637 0.92714 0.96159 0.0
H1238 H 0.33571 0.94838 0.9651 0.0
C1239 C 0.44344 0.99562 0.98029 0.0
C1240 C 0.39085 0.98269 0.99659 0.0
H1241 H 0.37135 0.93918 0.01451 0.0
C1242 C 0.37331 0.99024 0.9887 0.0
C1243 C 0.3899 0.9645 0.00691 0.0
C1244 C 0.40768 0.95637 0.01739 0.0
C1245 C 0.35517 0.97971 0.98994 0.0
C1246 C 0.35459 0.96069 0.99865 0.0
C1247 C 0.37184 0.95359 0.00752 0.0
C1248 C 0.3367 0.9474 0.99708 0.0
C1249 C 0.33681 0.98907 0.98174 0.0
C1250 C 0.32783 0.93897 0.01389 0.0
C1251 C 0.31097 0.92638 0.01193 0.0
C1252 C 0.30275 0.92206 0.99312 0.0
C1253 C 0.31197 0.93034 0.97639 0.0
C1254 C 0.32878 0.94265 0.97834 0.0
H1255 H 0.3381 0.00555 0.98253 0.0
H1256 H 0.33499 0.98473 0.96592 0.0
H1257 H 0.32331 0.98421 0.98985 0.0
H1258 H 0.33384 0.94225 0.02851 0.0
H1259 H 0.30435 0.92015 0.0251 0.0
H1260 H 0.31104 0.37583 0.30085 0.0
H1261 H 0.28695 0.40161 0.29463 0.0
H1262 H 0.23944 0.36137 0.31145 0.0
H1263 H 0.26337 0.33542 0.31746 0.0
H1264 H 0.25529 0.39973 0.26761 0.0
H1265 H 0.22864 0.41186 0.34428 0.0
H1266 H 0.25125 0.39913 0.33885 0.0
H1267 H 0.22766 0.38638 0.33597 0.0
C1268 C 0.29547 0.37243 0.30321 0.0
C1269 C 0.28918 0.35353 0.3097 0.0
C1270 C 0.28173 0.38722 0.29974 0.0
C1271 C 0.26142 0.38351 0.30282 0.0
C1272 C 0.25507 0.36472 0.30939 0.0
H1273 H 0.16309 0.44758 0.25364 0.0
H1274 H 0.18696 0.42273 0.26339 0.0
C1275 C 0.2688 0.34989 0.31284 0.0
C1276 C 0.24684 0.39899 0.29826 0.0
H1277 H 0.21065 0.42731 0.31858 0.0
C1278 C 0.24558 0.4058 0.27876 0.0
C1279 C 0.23431 0.40704 0.31288 0.0
C1280 C 0.23558 0.40089 0.33422 0.0
C1281 C 0.23189 0.42018 0.2734 0.0
C1282 C 0.21896 0.4278 0.28788 0.0
C1283 C 0.22046 0.4213 0.30747 0.0
C1284 C 0.20384 0.44261 0.28289 0.0
C1285 C 0.23153 0.42727 0.25232 0.0
C1286 C 0.20505 0.46188 0.29108 0.0
C1287 C 0.19139 0.47614 0.28556 0.0
C1288 C 0.17618 0.47133 0.27185 0.0
C1289 C 0.17467 0.45182 0.26416 0.0
C1290 C 0.18835 0.43761 0.26964 0.0
H1291 H 0.24531 0.42355 0.24431 0.0
H1292 H 0.21882 0.41998 0.24435 0.0
H1293 H 0.22962 0.44359 0.25183 0.0
H1294 H 0.21684 0.466 0.30141 0.0
H1295 H 0.19294 0.49101 0.29179 0.0
H1296 H 0.08944 0.98787 0.45041 0.0
H1297 H 0.1185 0.00991 0.4552 0.0
H1298 H 0.10674 0.0131 0.51782 0.0
H1299 H 0.07772 0.99088 0.51313 0.0
H1300 H 0.11709 0.04763 0.46879 0.0
H1301 H 0.1662 0.00525 0.51779 0.0
H1302 H 0.14548 0.99378 0.50455 0.0
H1303 H 0.14149 0.0076 0.52708 0.0
C1304 C 0.09314 0.99314 0.46523 0.0
C1305 C 0.08123 0.98771 0.48138 0.0
C1306 C 0.10982 0.00564 0.46796 0.0
C1307 C 0.11499 0.01298 0.4869 0.0
C1308 C 0.10338 0.00724 0.50314 0.0
H1309 H 0.19989 0.10249 0.53178 0.0
H1310 H 0.17289 0.07763 0.52734 0.0
C1311 C 0.08673 0.99461 0.50043 0.0
C1312 C 0.13123 0.02822 0.48922 0.0
H1313 H 0.17467 0.03958 0.51366 0.0
C1314 C 0.12979 0.04577 0.47845 0.0
C1315 C 0.14768 0.02588 0.50199 0.0
C1316 C 0.15046 0.00704 0.51338 0.0
C1317 C 0.14408 0.06118 0.48032 0.0
C1318 C 0.16055 0.05901 0.49312 0.0
C1319 C 0.16205 0.04137 0.50388 0.0
C1320 C 0.1763 0.07486 0.49559 0.0
C1321 C 0.14083 0.08004 0.46928 0.0
C1322 C 0.18724 0.08168 0.47927 0.0
C1323 C 0.20247 0.09606 0.48179 0.0
C1324 C 0.2071 0.10389 0.50067 0.0
C1325 C 0.19632 0.09696 0.51702 0.0
C1326 C 0.18099 0.0827 0.51449 0.0
H1327 H 0.12531 0.08117 0.46391 0.0
H1328 H 0.14433 0.09292 0.4791 0.0
H1329 H 0.15074 0.08065 0.45626 0.0
H1330 H 0.18442 0.07548 0.46463 0.0
H1331 H 0.21109 0.10054 0.46907 0.0
H1332 H 0.76577 0.18699 0.69463 0.0
H1333 H 0.74116 0.16043 0.70058 0.0
H1334 H 0.78762 0.11759 0.70147 0.0
H1335 H 0.81235 0.14425 0.69609 0.0
H1336 H 0.73027 0.12768 0.68034 0.0
H1337 H 0.76092 0.10601 0.75297 0.0
H1338 H 0.76934 0.12808 0.7404 0.0
H1339 H 0.7784 0.10414 0.73319 0.0
C1340 C 0.7707 0.17189 0.69599 0.0
C1341 C 0.79097 0.16769 0.69502 0.0
C1342 C 0.75665 0.15672 0.69943 0.0
C1343 C 0.76255 0.13704 0.70188 0.0
C1344 C 0.78274 0.13272 0.70022 0.0
H1345 H 0.67279 0.03919 0.70089 0.0
H1346 H 0.69921 0.0627 0.69115 0.0
C1347 C 0.79684 0.14793 0.69704 0.0
C1348 C 0.74751 0.12118 0.70622 0.0
H1349 H 0.73496 0.08559 0.73969 0.0
C1350 C 0.7312 0.11853 0.69338 0.0
C1351 C 0.74869 0.1093 0.72329 0.0
C1352 C 0.76517 0.11212 0.73836 0.0
C1353 C 0.71591 0.10455 0.6972 0.0
C1354 C 0.7172 0.09239 0.71414 0.0
C1355 C 0.73377 0.09486 0.72676 0.0
C1356 C 0.7013 0.0777 0.71973 0.0
C1357 C 0.69844 0.10351 0.68316 0.0
C1358 C 0.69437 0.07731 0.73932 0.0
C1359 C 0.67997 0.06331 0.74503 0.0
C1360 C 0.67139 0.05002 0.73112 0.0
C1361 C 0.6786 0.0499 0.71168 0.0
C1362 C 0.69357 0.06348 0.70608 0.0
H1363 H 0.69619 0.11802 0.67594 0.0
H1364 H 0.70131 0.09239 0.67131 0.0
H1365 H 0.68459 0.09912 0.69076 0.0
H1366 H 0.70019 0.0878 0.75032 0.0
H1367 H 0.67561 0.0628 0.76041 0.0
H1368 H 0.423 1.00345 0.56 0.0
H1369 H 0.39467 0.02413 0.5525 0.0
H1370 H 0.41152 0.02519 0.49109 0.0
H1371 H 0.44009 0.0047 0.49851 0.0
H1372 H 0.40252 0.06326 0.50802 0.0
H1373 H 0.34338 0.00642 0.52207 0.0
H1374 H 0.36136 0.00965 0.54167 0.0
H1375 H 0.36892 1.00011 0.51801 0.0
C1376 C 0.42073 0.00814 0.54491 0.0
C1377 C 0.43381 1.00239 0.52985 0.0
C1378 C 0.40442 0.01981 0.54062 0.0
C1379 C 0.40083 0.02599 0.52119 0.0
C1380 C 0.41393 0.02046 0.50615 0.0
H1381 H 0.2922 0.08264 0.48116 0.0
H1382 H 0.3209 0.06109 0.48361 0.0
C1383 C 0.43018 0.00867 0.51041 0.0
C1384 C 0.38368 0.03865 0.51671 0.0
H1385 H 0.33308 0.03967 0.51808 0.0
C1386 C 0.38733 0.05807 0.5101 0.0
C1387 C 0.36386 0.03178 0.51919 0.0
C1388 C 0.35904 0.01079 0.52546 0.0
C1389 C 0.37171 0.07101 0.50651 0.0
C1390 C 0.35194 0.06439 0.50973 0.0
C1391 C 0.34825 0.04476 0.51574 0.0
C1392 C 0.33492 0.07783 0.50765 0.0
C1393 C 0.37649 0.09168 0.49929 0.0
C1394 C 0.33324 0.09432 0.5204 0.0
C1395 C 0.31686 0.10656 0.51909 0.0
C1396 C 0.30179 0.1026 0.505 0.0
C1397 C 0.30359 0.08616 0.4921 0.0
C1398 C 0.31995 0.07381 0.49352 0.0
H1399 H 0.39157 0.09279 0.49282 0.0
H1400 H 0.36552 0.09621 0.488 0.0
H1401 H 0.37589 0.10233 0.51194 0.0
H1402 H 0.34445 0.09753 0.53162 0.0
H1403 H 0.31593 0.11905 0.5293 0.0
H1404 H 0.60143 0.54795 0.53064 0.0
H1405 H 0.62938 0.52705 0.52214 0.0
H1406 H 0.59451 0.47473 0.53655 0.0
H1407 H 0.5663 0.49543 0.54445 0.0
H1408 H 0.64983 0.50053 0.54547 0.0
H1409 H 0.61437 0.46178 0.48093 0.0
H1410 H 0.60444 0.48394 0.49197 0.0
H1411 H 0.60021 0.46021 0.50329 0.0
C1412 C 0.59962 0.53198 0.53177 0.0
C1413 C 0.58155 0.52337 0.53811 0.0
C1414 C 0.61566 0.52007 0.52705 0.0
C1415 C 0.61395 0.49931 0.52844 0.0
C1416 C 0.59606 0.49068 0.53503 0.0
H1417 H 0.7101 0.41531 0.52961 0.0
H1418 H 0.68269 0.43678 0.53824 0.0
C1419 C 0.58001 0.50257 0.53976 0.0
C1420 C 0.63094 0.48671 0.52318 0.0
H1421 H 0.64505 0.44934 0.49203 0.0
C1422 C 0.64882 0.48937 0.53376 0.0
C1423 C 0.62967 0.47232 0.50773 0.0
C1424 C 0.61122 0.46947 0.49518 0.0
C1425 C 0.66536 0.47782 0.5295 0.0
C1426 C 0.66389 0.46301 0.51445 0.0
C1427 C 0.64611 0.46057 0.50369 0.0
C1428 C 0.68072 0.45012 0.50936 0.0
C1429 C 0.68437 0.48182 0.5409 0.0
C1430 C 0.68846 0.45014 0.49014 0.0
C1431 C 0.70405 0.43779 0.48509 0.0
C1432 C 0.71221 0.42504 0.49916 0.0
C1433 C 0.70432 0.425 0.51841 0.0
C1434 C 0.6887 0.43736 0.52342 0.0
H1435 H 0.68467 0.49678 0.54808 0.0
H1436 H 0.68572 0.47062 0.5527 0.0
H1437 H 0.69745 0.48071 0.53109 0.0
H1438 H 0.68246 0.45979 0.47901 0.0
H1439 H 0.70963 0.43821 0.4701 0.0
H1440 H 0.67955 0.22735 0.35315 0.0
H1441 H 0.68378 0.25287 0.3791 0.0
H1442 H 0.74705 0.25321 0.37042 0.0
H1443 H 0.74292 0.22839 0.34393 0.0
H1444 H 0.70502 0.25324 0.41449 0.0
H1445 H 0.73423 0.31144 0.36444 0.0
H1446 H 0.72258 0.28867 0.35529 0.0
H1447 H 0.74805 0.28904 0.36339 0.0
C1448 C 0.69436 0.23299 0.35663 0.0
C1449 C 0.71088 0.22592 0.34631 0.0
C1450 C 0.69675 0.24746 0.37157 0.0
C1451 C 0.71569 0.25519 0.37644 0.0
C1452 C 0.73225 0.24774 0.36662 0.0
H1453 H 0.76733 0.34287 0.45649 0.0
H1454 H 0.75987 0.31697 0.43163 0.0
C1455 C 0.72988 0.23335 0.35164 0.0
C1456 C 0.71818 0.27117 0.39167 0.0
H1457 H 0.73744 0.31796 0.39896 0.0
C1458 C 0.71187 0.26754 0.41108 0.0
C1459 C 0.72709 0.28979 0.38717 0.0
C1460 C 0.7332 0.29508 0.3664 0.0
C1461 C 0.71483 0.28182 0.42627 0.0
C1462 C 0.72406 0.30034 0.42181 0.0
C1463 C 0.73017 0.30394 0.40235 0.0
C1464 C 0.72827 0.31597 0.43712 0.0
C1465 C 0.70877 0.27665 0.44707 0.0
C1466 C 0.71298 0.32421 0.44838 0.0
C1467 C 0.71728 0.33903 0.46265 0.0
C1468 C 0.73681 0.34622 0.46539 0.0
C1469 C 0.75206 0.33794 0.45421 0.0
C1470 C 0.74782 0.32307 0.44011 0.0
H1471 H 0.70688 0.26033 0.44892 0.0
H1472 H 0.71989 0.2824 0.45804 0.0
H1473 H 0.69437 0.2835 0.4504 0.0
H1474 H 0.69773 0.3193 0.44605 0.0
H1475 H 0.70534 0.34509 0.47131 0.0
H1476 H 0.50556 0.06134 0.92996 0.0
H1477 H 0.52541 0.05435 0.90071 0.0
H1478 H 0.52187 0.9917 0.91308 0.0
H1479 H 0.50198 0.99861 0.94256 0.0
H1480 H 0.56213 0.03585 0.90006 0.0
H1481 H 0.50598 0.99391 0.8542 0.0
H1482 H 0.49927 0.0089 0.87537 0.0
H1483 H 0.50999 0.98507 0.87886 0.0
C1484 C 0.50903 0.04607 0.92652 0.0
C1485 C 0.50227 0.03054 0.93867 0.0
C1486 C 0.5203 0.04209 0.90973 0.0
C1487 C 0.525 0.0225 0.90462 0.0
C1488 C 0.51813 0.0069 0.91656 0.0
H1489 H 0.60083 0.98978 0.80314 0.0
H1490 H 0.58121 0.98665 0.83356 0.0
C1491 C 0.50678 0.01087 0.9334 0.0
C1492 C 0.53776 0.0188 0.88719 0.0
H1493 H 0.53768 0.99894 0.84033 0.0
C1494 C 0.55684 0.02761 0.88709 0.0
C1495 C 0.53089 0.00792 0.87032 0.0
C1496 C 0.51037 0.99849 0.8695 0.0
C1497 C 0.56899 0.02638 0.87037 0.0
C1498 C 0.56182 0.01624 0.85323 0.0
C1499 C 0.54311 0.00667 0.85355 0.0
C1500 C 0.57275 0.01741 0.83431 0.0
C1501 C 0.58926 0.03638 0.87095 0.0
C1502 C 0.57409 0.03559 0.82455 0.0
C1503 C 0.58512 0.03744 0.80727 0.0
C1504 C 0.59514 0.0211 0.79928 0.0
C1505 C 0.59336 1.00268 0.80886 0.0
C1506 C 0.58216 1.00084 0.82622 0.0
H1507 H 0.59443 0.03936 0.88638 0.0
H1508 H 0.60029 0.0271 0.86326 0.0
H1509 H 0.58864 0.05079 0.86322 0.0
H1510 H 0.56676 0.0485 0.83048 0.0
H1511 H 0.58602 0.05186 0.80038 0.0
H1512 H 0.31929 0.26847 0.32983 0.0
H1513 H 0.31427 0.24486 0.35668 0.0
H1514 H 0.30018 0.29296 0.39643 0.0
H1515 H 0.3056 0.31684 0.36979 0.0
H1516 H 0.33214 0.25248 0.40514 0.0
H1517 H 0.25176 0.24386 0.38623 0.0
H1518 H 0.27001 0.24803 0.36719 0.0
H1519 H 0.26431 0.26773 0.38413 0.0
C1520 C 0.31549 0.27412 0.34436 0.0
C1521 C 0.31284 0.29459 0.34762 0.0
C1522 C 0.3126 0.26058 0.35966 0.0
C1523 C 0.30699 0.26723 0.37849 0.0
C1524 C 0.30462 0.28761 0.38197 0.0
H1525 H 0.25119 0.20741 0.47516 0.0
H1526 H 0.26545 0.23159 0.45238 0.0
C1527 C 0.30753 0.30119 0.36668 0.0
C1528 C 0.30217 0.25275 0.39412 0.0
H1529 H 0.26346 0.22585 0.41314 0.0
C1530 C 0.31716 0.24659 0.40697 0.0
C1531 C 0.28264 0.24518 0.39634 0.0
C1532 C 0.26613 0.25142 0.3828 0.0
C1533 C 0.31297 0.23317 0.4223 0.0
C1534 C 0.29336 0.22559 0.42456 0.0
C1535 C 0.27849 0.23168 0.41147 0.0
C1536 C 0.28746 0.21185 0.44067 0.0
C1537 C 0.32942 0.22765 0.43623 0.0
C1538 C 0.29556 0.19287 0.44225 0.0
C1539 C 0.2876 0.17906 0.45563 0.0
C1540 C 0.27121 0.18398 0.46727 0.0
C1541 C 0.26382 0.20325 0.46632 0.0
C1542 C 0.27192 0.21706 0.45326 0.0
H1543 H 0.34215 0.23843 0.43566 0.0
H1544 H 0.32405 0.22688 0.4517 0.0
H1545 H 0.33486 0.2128 0.43192 0.0
H1546 H 0.3073 0.18836 0.43244 0.0
H1547 H 0.29334 0.16419 0.4559 0.0
H1548 H 0.50949 0.45168 0.93668 0.0
H1549 H 0.48949 0.45959 0.90768 0.0
H1550 H 0.50038 0.52213 0.91879 0.0
H1551 H 0.52013 0.51441 0.94808 0.0
H1552 H 0.45497 0.48401 0.9053 0.0
H1553 H 0.51814 0.51287 0.86051 0.0
H1554 H 0.52167 0.49787 0.88214 0.0
H1555 H 0.51547 0.52352 0.88488 0.0
C1556 C 0.50746 0.46714 0.93313 0.0
C1557 C 0.5165 0.4824 0.94473 0.0
C1558 C 0.4961 0.47163 0.91648 0.0
C1559 C 0.49364 0.49143 0.91096 0.0
C1560 C 0.50237 0.50673 0.9226 0.0
H1561 H 0.40822 0.52084 0.81665 0.0
H1562 H 0.42781 0.52374 0.84741 0.0
C1563 C 0.51369 0.50227 0.93931 0.0
C1564 C 0.482 0.49592 0.89293 0.0
H1565 H 0.48646 0.51287 0.84569 0.0
C1566 C 0.46177 0.49053 0.89232 0.0
C1567 C 0.49098 0.50433 0.87603 0.0
C1568 C 0.51279 0.5099 0.87573 0.0
C1569 C 0.45036 0.49294 0.8751 0.0
C1570 C 0.4594 0.50109 0.8581 0.0
C1571 C 0.47954 0.50686 0.85883 0.0
C1572 C 0.44879 0.50147 0.83881 0.0
C1573 C 0.42893 0.48594 0.87491 0.0
C1574 C 0.45456 0.48859 0.82357 0.0
C1575 C 0.44347 0.48689 0.80611 0.0
C1576 C 0.42642 0.49819 0.80341 0.0
C1577 C 0.42129 0.51197 0.81825 0.0
C1578 C 0.43237 0.51354 0.83587 0.0
H1579 H 0.42496 0.47746 0.88837 0.0
H1580 H 0.41925 0.49899 0.87411 0.0
H1581 H 0.42576 0.47638 0.86168 0.0
H1582 H 0.46721 0.4792 0.82551 0.0
H1583 H 0.44794 0.47624 0.79495 0.0
H1584 H 0.70664 0.8085 0.14619 0.0
H1585 H 0.71196 0.78507 0.11886 0.0
H1586 H 0.70167 0.73601 0.1582 0.0
H1587 H 0.69619 0.75939 0.18558 0.0
H1588 H 0.74015 0.75711 0.11517 0.0
H1589 H 0.66531 0.7211 0.11208 0.0
H1590 H 0.67047 0.74382 0.12586 0.0
H1591 H 0.67684 0.72026 0.13605 0.0
C1592 C 0.70547 0.79272 0.14901 0.0
C1593 C 0.70094 0.7858 0.16805 0.0
C1594 C 0.70847 0.77934 0.13337 0.0
C1595 C 0.70698 0.75877 0.1364 0.0
C1596 C 0.70245 0.75181 0.15538 0.0
H1597 H 0.75526 0.66846 0.05756 0.0
H1598 H 0.74914 0.69147 0.08502 0.0
C1599 C 0.69933 0.76519 0.17103 0.0
C1600 C 0.71084 0.74469 0.11982 0.0
H1601 H 0.69029 0.70613 0.0927 0.0
C1602 C 0.72923 0.74599 0.11022 0.0
C1603 C 0.69651 0.73033 0.11322 0.0
C1604 C 0.6761 0.72887 0.12219 0.0
C1605 C 0.73374 0.73324 0.09433 0.0
C1606 C 0.71963 0.71849 0.08812 0.0
C1607 C 0.70117 0.71731 0.0976 0.0
C1608 C 0.72348 0.70448 0.07147 0.0
C1609 C 0.75341 0.73599 0.08407 0.0
C1610 C 0.71082 0.70378 0.05491 0.0
C1611 C 0.71416 0.69052 0.03926 0.0
C1612 C 0.73024 0.6776 0.03981 0.0
C1613 C 0.74285 0.67828 0.0565 0.0
C1614 C 0.73943 0.69152 0.0722 0.0
H1615 H 0.76008 0.75102 0.087 0.0
H1616 H 0.76387 0.7249 0.08966 0.0
H1617 H 0.75178 0.73378 0.06782 0.0
H1618 H 0.69837 0.71358 0.05405 0.0
H1619 H 0.70407 0.69041 0.02672 0.0
H1620 H 0.02532 0.00378 0.07843 0.0
H1621 H 0.00465 0.99628 0.10713 0.0
H1622 H 0.99944 0.0589 0.11946 0.0
H1623 H 0.02046 0.06659 0.09104 0.0
H1624 H 0.01148 0.00849 0.14803 0.0
H1625 H 0.94123 0.03684 0.11716 0.0
H1626 H 0.96218 0.03104 0.10182 0.0
H1627 H 0.96235 0.05363 0.11626 0.0
C1628 C 0.01996 0.01599 0.08733 0.0
C1629 C 0.02457 0.03582 0.08235 0.0
C1630 C 0.00805 0.01166 0.10367 0.0
C1631 C 1.00033 0.02703 0.11527 0.0
C1632 C 0.00496 0.04682 0.11048 0.0
H1633 H 0.92113 0.0291 0.21645 0.0
H1634 H 0.94325 0.03763 0.18916 0.0
C1635 C 0.01695 0.05118 0.09419 0.0
C1636 C 0.98765 0.02232 0.13254 0.0
H1637 H 0.94067 0.02645 0.15041 0.0
C1638 C 0.99598 0.01237 0.14857 0.0
C1639 C 0.96749 0.0275 0.13322 0.0
C1640 C 0.95766 0.03771 0.11616 0.0
C1641 C 0.98474 0.00766 0.16539 0.0
C1642 C 0.96448 0.01261 0.16599 0.0
C1643 C 0.95619 0.02266 0.14997 0.0
C1644 C 0.95153 0.00735 0.18297 0.0
C1645 C 0.99482 0.99783 0.18254 0.0
C1646 C 0.94868 0.98747 0.18852 0.0
C1647 C 0.93614 0.98253 0.20422 0.0
C1648 C 0.92594 0.99736 0.21457 0.0
C1649 C 0.92873 0.01727 0.20887 0.0
C1650 C 0.94137 0.0222 0.19324 0.0
H1651 H 0.01115 1.00042 0.18226 0.0
H1652 H 0.98912 1.00336 0.19692 0.0
H1653 H 0.99188 0.98155 0.18159 0.0
H1654 H 0.95594 0.97569 0.18051 0.0
H1655 H 0.93421 0.96702 0.20801 0.0
H1656 H 0.30862 0.70591 0.13559 0.0
H1657 H 0.30247 0.73058 0.11013 0.0
H1658 H 0.32196 0.77743 0.15038 0.0
H1659 H 0.32786 0.75297 0.176 0.0
H1660 H 0.27655 0.76262 0.11259 0.0
H1661 H 0.35405 0.78884 0.09986 0.0
H1662 H 0.34804 0.7659 0.1123 0.0
H1663 H 0.34659 0.78924 0.12535 0.0
C1664 C 0.31157 0.72146 0.13905 0.0
C1665 C 0.31882 0.72742 0.15785 0.0
C1666 C 0.30815 0.73553 0.12445 0.0
C1667 C 0.31204 0.75581 0.12826 0.0
C1668 C 0.31929 0.76182 0.14696 0.0
H1669 H 0.26456 0.85643 0.067 0.0
H1670 H 0.27482 0.83205 0.09127 0.0
C1671 C 0.32267 0.74779 0.16159 0.0
C1672 C 0.30761 0.77076 0.11301 0.0
H1673 H 0.32858 0.80766 0.08519 0.0
C1674 C 0.28793 0.77241 0.10654 0.0
C1675 C 0.32252 0.78339 0.10501 0.0
C1676 C 0.34403 0.7817 0.11082 0.0
C1677 C 0.28268 0.78664 0.09257 0.0
C1678 C 0.29748 0.7997 0.08504 0.0
C1679 C 0.31724 0.79777 0.09116 0.0
C1680 C 0.29261 0.81537 0.0707 0.0
C1681 C 0.26135 0.78748 0.08585 0.0
C1682 C 0.29979 0.81449 0.05127 0.0
C1683 C 0.29398 0.82844 0.03734 0.0
C1684 C 0.28099 0.8436 0.04267 0.0
C1685 C 0.27451 0.8449 0.06238 0.0
C1686 C 0.28027 0.83092 0.07626 0.0
H1687 H 0.25283 0.77368 0.08949 0.0
H1688 H 0.25421 0.80014 0.0934 0.0
H1689 H 0.26041 0.78982 0.06964 0.0
H1690 H 0.30941 0.80264 0.04673 0.0
H1691 H 0.29926 0.82705 0.02229 0.0
H1692 H 0.97234 0.4928 0.09094 0.0
H1693 H 0.99297 0.49984 0.12029 0.0
H1694 H 0.04537 0.48701 0.08674 0.0
H1695 H 0.02494 0.48049 0.05722 0.0
H1696 H 0.01938 0.47466 0.13981 0.0
H1697 H 0.05817 0.54205 0.11135 0.0
H1698 H 0.03591 0.5316 0.09996 0.0
H1699 H 0.05946 0.52058 0.09537 0.0
C1700 C 0.98827 0.49172 0.08974 0.0
C1701 C 0.997 0.48618 0.07169 0.0
C1702 C 1.00002 0.49559 0.10657 0.0
C1703 C 0.02071 0.49417 0.10564 0.0
C1704 C 0.02946 0.48849 0.08771 0.0
H1705 H 0.10478 0.48852 0.20388 0.0
H1706 H 0.08329 0.48094 0.17532 0.0
C1707 C 0.01774 0.48458 0.0709 0.0
C1708 C 0.03315 0.49845 0.12346 0.0
H1709 H 0.07027 0.52919 0.14148 0.0
C1710 C 0.03049 0.4866 0.14022 0.0
C1711 C 0.04747 0.51418 0.12401 0.0
C1712 C 0.05036 0.52797 0.1068 0.0
C1713 C 0.04197 0.48988 0.15744 0.0
C1714 C 0.05666 0.50527 0.1578 0.0
C1715 C 0.05912 0.51728 0.14112 0.0
C1716 C 0.06935 0.50953 0.17546 0.0
C1717 C 0.03803 0.47709 0.17523 0.0
C1718 C 0.06889 0.52822 0.18484 0.0
C1719 C 0.0812 0.53265 0.20109 0.0
C1720 C 0.09437 0.51851 0.20829 0.0
C1721 C 0.09477 0.49975 0.19885 0.0
C1722 C 0.08241 0.49533 0.18256 0.0
H1723 H 0.02328 0.46941 0.17428 0.0
H1724 H 0.04948 0.46559 0.17607 0.0
H1725 H 0.0388 0.48611 0.18911 0.0
H1726 H 0.05898 0.53942 0.17956 0.0
H1727 H 0.08048 0.54728 0.20789 0.0
H1728 H 0.35335 0.73586 0.21994 0.0
H1729 H 0.37817 0.74046 0.24625 0.0
H1730 H 0.38971 0.67779 0.24429 0.0
H1731 H 0.36504 0.67307 0.21772 0.0
H1732 H 0.37461 0.71899 0.28342 0.0
H1733 H 0.44607 0.70624 0.24513 0.0
H1734 H 0.42401 0.71347 0.23203 0.0
H1735 H 0.42609 0.68849 0.24053 0.0
C1736 C 0.36149 0.72312 0.22477 0.0
C1737 C 0.35723 0.7041 0.21674 0.0
C1738 C 0.37559 0.72577 0.23986 0.0
C1739 C 0.38588 0.7095 0.24707 0.0
C1740 C 0.38212 0.69057 0.23873 0.0
H1741 H 0.47238 0.70377 0.34415 0.0
H1742 H 0.44897 0.69465 0.31728 0.0
C1743 C 0.36791 0.68788 0.22369 0.0
C1744 C 0.39911 0.71215 0.26453 0.0
H1745 H 0.44748 0.71167 0.27973 0.0
C1746 C 0.39055 0.71741 0.28263 0.0
C1747 C 0.41983 0.70975 0.26347 0.0
C1748 C 0.42968 0.70429 0.24425 0.0
C1749 C 0.40216 0.7205 0.29971 0.0
C1750 C 0.42297 0.71877 0.29863 0.0
C1751 C 0.43152 0.71306 0.28058 0.0
C1752 C 0.43615 0.72373 0.31582 0.0
C1753 C 0.392 0.7252 0.31889 0.0
C1754 C 0.4367 0.74306 0.32394 0.0
C1755 C 0.44998 0.74822 0.33922 0.0
C1756 C 0.46282 0.73411 0.34687 0.0
C1757 C 0.46229 0.71477 0.3388 0.0
C1758 C 0.44901 0.7096 0.32343 0.0
H1759 H 0.37596 0.72105 0.31838 0.0
H1760 H 0.39904 0.71719 0.33119 0.0
H1761 H 0.3934 0.74141 0.32193 0.0
H1762 H 0.42733 0.75438 0.31797 0.0
H1763 H 0.45075 0.76347 0.34452 0.0
H1764 H 0.97732 0.4578 0.98406 0.0
H1765 H 0.98309 0.42795 0.96396 0.0
H1766 H 0.99117 0.39416 0.01702 0.0
H1767 H 0.98533 0.42382 0.03719 0.0
H1768 H 0.01962 0.38643 0.9875 0.0
H1769 H 0.94258 0.38166 0.95779 0.0
H1770 H 0.95553 0.40491 0.95392 0.0
H1771 H 0.94954 0.39742 0.97863 0.0
C1772 C 0.98021 0.44398 0.99145 0.0
C1773 C 0.98077 0.44319 0.01224 0.0
C1774 C 0.98355 0.42695 0.97994 0.0
C1775 C 0.98737 0.40878 0.989 0.0
C1776 C 0.98831 0.40803 0.00972 0.0
H1777 H 0.97002 0.29012 0.94504 0.0
H1778 H 0.97159 0.32144 0.96348 0.0
C1779 C 0.985 0.42503 0.02122 0.0
C1780 C 0.98979 0.39036 0.97701 0.0
H1781 H 0.96481 0.35791 0.94598 0.0
C1782 C 0.00769 0.38021 0.97832 0.0
C1783 C 0.97414 0.38221 0.96521 0.0
C1784 C 0.95429 0.39197 0.96386 0.0
C1785 C 0.01028 0.36204 0.96825 0.0
C1786 C 0.99462 0.35393 0.95646 0.0
C1787 C 0.97684 0.36421 0.95497 0.0
C1788 C 0.99568 0.33419 0.94648 0.0
C1789 C 0.02947 0.35133 0.9708 0.0
C1790 C 0.00907 0.33072 0.93104 0.0
C1791 C 0.00829 0.31265 0.92042 0.0
C1792 C 0.99396 0.29787 0.92498 0.0
C1793 C 0.98117 0.30118 0.941 0.0
C1794 C 0.98202 0.31911 0.95158 0.0
H1795 H 0.0385 0.3576 0.98331 0.0
H1796 H 0.02656 0.33527 0.97337 0.0
H1797 H 0.03832 0.35272 0.95707 0.0
H1798 H 0.01957 0.34226 0.92668 0.0
H1799 H 0.01824 0.31065 0.90807 0.0
H1800 H 0.66666 0.77593 0.23035 0.0
H1801 H 0.63992 0.77163 0.25432 0.0
H1802 H 0.63195 0.83496 0.25602 0.0
H1803 H 0.65852 0.83941 0.23187 0.0
H1804 H 0.63365 0.81792 0.29361 0.0
H1805 H 0.58011 0.77678 0.2446 0.0
H1806 H 0.60424 0.76616 0.24552 0.0
H1807 H 0.60137 0.79039 0.23519 0.0
C1808 C 0.65905 0.78894 0.23559 0.0
C1809 C 0.66472 0.80802 0.2291 0.0
C1810 C 0.64376 0.78645 0.24932 0.0
C1811 C 0.63376 0.80295 0.25677 0.0
C1812 C 0.63944 0.82201 0.25043 0.0
H1813 H 0.52416 0.79402 0.32504 0.0
H1814 H 0.54943 0.80362 0.3008 0.0
C1815 C 0.6547 0.82452 0.23669 0.0
C1816 C 0.61773 0.80037 0.27156 0.0
H1817 H 0.57264 0.77755 0.27899 0.0
C1818 C 0.62025 0.8092 0.29038 0.0
C1819 C 0.60013 0.78923 0.26725 0.0
C1820 C 0.59614 0.78024 0.24699 0.0
C1821 C 0.6059 0.80669 0.3052 0.0
C1822 C 0.58869 0.79485 0.30114 0.0
C1823 C 0.5859 0.78651 0.28213 0.0
C1824 C 0.57366 0.79038 0.31655 0.0
C1825 C 0.60925 0.81681 0.32504 0.0
C1826 C 0.57891 0.77983 0.33348 0.0
C1827 C 0.56454 0.77434 0.34733 0.0
C1828 C 0.54458 0.77922 0.3445 0.0
C1829 C 0.53941 0.79013 0.32772 0.0
C1830 C 0.55381 0.79557 0.31382 0.0
H1831 H 0.61999 0.82955 0.32402 0.0
H1832 H 0.59514 0.82225 0.33119 0.0
H1833 H 0.61541 0.80601 0.33554 0.0
H1834 H 0.59405 0.77533 0.33572 0.0
H1835 H 0.56901 0.76585 0.36003 0.0
H1836 H 0.04558 0.06221 0.99547 0.0
H1837 H 0.03774 0.09016 0.97427 0.0
H1838 H 0.02427 0.12561 0.02584 0.0
H1839 H 0.03273 0.09799 0.04718 0.0
H1840 H 1.00254 0.10959 0.9705 0.0
H1841 H 0.06238 0.16211 0.99587 0.0
H1842 H 0.06237 0.13595 1.00142 0.0
H1843 H 0.04735 0.15255 0.01559 0.0
C1844 C 0.04124 0.07604 1.00234 0.0
C1845 C 0.03991 0.07786 0.02306 0.0
C1846 C 0.03663 0.09197 0.99018 0.0
C1847 C 0.0307 0.11009 0.99847 0.0
C1848 C 0.02918 0.11192 0.01912 0.0
H1849 H 0.9682 0.20356 0.93895 0.0
H1850 H 0.97813 0.17601 0.9596 0.0
C1851 C 0.0338 0.09601 0.03129 0.0
C1852 C 0.02553 0.12685 0.98547 0.0
H1853 H 0.03716 0.17539 0.97552 0.0
C1854 C 0.01016 0.12395 0.97154 0.0
C1855 C 0.03566 0.14551 0.98665 0.0
C1856 C 0.05299 0.14923 1.00054 0.0
C1857 C 0.00437 0.13931 0.95905 0.0
C1858 C 0.014 0.1582 0.96075 0.0
C1859 C 0.02965 0.16098 0.97438 0.0
C1860 C 0.00809 0.17523 0.94845 0.0
C1861 C 0.9882 0.13507 0.94394 0.0
C1862 C 0.0218 0.18437 0.93571 0.0
C1863 C 0.01623 0.20027 0.92394 0.0
C1864 C 0.99682 0.20745 0.92475 0.0
C1865 C 0.98323 0.19842 0.93781 0.0
C1866 C 0.98884 0.18255 0.94957 0.0
H1867 H 0.98619 0.11889 0.94088 0.0
H1868 H 0.97398 0.14064 0.9497 0.0
H1869 H 0.99147 0.14268 0.92981 0.0
H1870 H 0.03678 0.17903 0.93469 0.0
H1871 H 0.02712 0.20684 0.91413 0.0
H1872 H 0.34388 0.2842 0.28487 0.0
H1873 H 0.36964 0.27865 0.26031 0.0
H1874 H 0.38238 0.34167 0.25844 0.0
H1875 H 0.35683 0.34737 0.28344 0.0
H1876 H 0.37153 0.29514 0.22136 0.0
H1877 H 0.4374 0.31662 0.26777 0.0
H1878 H 0.41355 0.31055 0.27842 0.0
H1879 H 0.4176 0.33397 0.26656 0.0
C1880 C 0.35232 0.29689 0.27945 0.0
C1881 C 0.3484 0.31622 0.28624 0.0
C1882 C 0.36695 0.29369 0.26531 0.0
C1883 C 0.37805 0.30972 0.25771 0.0
C1884 C 0.37416 0.32908 0.26432 0.0
H1885 H 0.47575 0.29636 0.17189 0.0
H1886 H 0.45143 0.31226 0.19352 0.0
C1887 C 0.35944 0.33231 0.27847 0.0
C1888 C 0.39334 0.30593 0.24255 0.0
H1889 H 0.44342 0.30495 0.23542 0.0
C1890 C 0.38724 0.29749 0.22435 0.0
C1891 C 0.41382 0.30919 0.24642 0.0
C1892 C 0.42112 0.31797 0.26587 0.0
C1893 C 0.40108 0.2916 0.21016 0.0
C1894 C 0.42156 0.29389 0.21443 0.0
C1895 C 0.4277 0.30321 0.23222 0.0
C1896 C 0.43662 0.28469 0.20159 0.0
C1897 C 0.39365 0.28258 0.19086 0.0
C1898 C 0.43657 0.26398 0.19933 0.0
C1899 C 0.45035 0.2549 0.18715 0.0
C1900 C 0.46465 0.26631 0.17692 0.0
C1901 C 0.46493 0.28712 0.17947 0.0
C1902 C 0.45107 0.29623 0.19182 0.0
H1903 H 0.37835 0.28725 0.18739 0.0
H1904 H 0.40351 0.28682 0.17842 0.0
H1905 H 0.39337 0.26615 0.19197 0.0
H1906 H 0.42578 0.25478 0.20703 0.0
H1907 H 0.44961 0.23886 0.18568 0.0
H1908 H 0.53953 0.45429 0.03151 0.0
H1909 H 0.53295 0.4253 0.05201 0.0
H1910 H 0.51135 0.39243 1.00072 0.0
H1911 H 0.51901 0.42093 0.97989 0.0
H1912 H 0.49969 0.40442 0.06043 0.0
H1913 H 0.55184 0.35518 0.02147 0.0
H1914 H 0.5513 0.38154 0.01717 0.0
H1915 H 0.53333 0.36496 0.00542 0.0
C1916 C 0.53364 0.44083 0.02449 0.0
C1917 C 0.53008 0.43994 0.00394 0.0
C1918 C 0.5297 0.4243 0.0363 0.0
C1919 C 0.52204 0.40651 0.02787 0.0
C1920 C 0.51774 0.4058 0.00751 0.0
H1921 H 0.48785 0.29276 0.08025 0.0
H1922 H 0.48981 0.32224 0.05932 0.0
C1923 C 0.52186 0.42226 0.99565 0.0
C1924 C 0.51871 0.38874 0.04041 0.0
H1925 H 0.53118 0.34015 0.04562 0.0
C1926 C 0.50661 0.39039 0.05719 0.0
C1927 C 0.52782 0.37041 0.03626 0.0
C1928 C 0.54195 0.36791 0.01922 0.0
C1929 C 0.50329 0.37422 0.0698 0.0
C1930 C 0.51225 0.35596 0.06551 0.0
C1931 C 0.5242 0.35419 0.04872 0.0
C1932 C 0.51006 0.33868 0.07873 0.0
C1933 C 0.49022 0.37666 0.08764 0.0
C1934 C 0.52077 0.33825 0.09656 0.0
C1935 C 0.51984 0.32141 0.10845 0.0
C1936 C 0.50806 0.30473 0.10276 0.0
C1937 C 0.49699 0.30539 0.08508 0.0
C1938 C 0.49811 0.32219 0.07309 0.0
H1939 H 0.4823 0.39093 0.08753 0.0
H1940 H 0.47914 0.36419 0.08829 0.0
H1941 H 0.49944 0.37623 0.10128 0.0
H1942 H 0.53019 0.35081 0.10107 0.0
H1943 H 0.52854 0.32137 0.12197 0.0
H1944 H 0.65164 0.20729 0.30817 0.0
H1945 H 0.62457 0.21237 0.28469 0.0
H1946 H 0.66444 0.2028 0.23604 0.0
H1947 H 0.6916 0.19758 0.25947 0.0
H1948 H 0.62142 0.24071 0.25643 0.0
H1949 H 0.6181 0.16554 0.22168 0.0
H1950 H 0.63167 0.17094 0.24429 0.0
H1951 H 0.64216 0.17751 0.2208 0.0
C1952 C 0.65465 0.20625 0.29246 0.0
C1953 C 0.67376 0.20199 0.28568 0.0
C1954 C 0.63915 0.20911 0.27907 0.0
C1955 C 0.6424 0.20774 0.25861 0.0
C1956 C 0.66146 0.20349 0.25176 0.0
H1957 H 0.56285 0.25411 0.16868 0.0
H1958 H 0.5907 0.24864 0.19109 0.0
C1959 C 0.67698 0.20052 0.26516 0.0
C1960 C 0.62592 0.21135 0.24453 0.0
H1961 H 0.59851 0.19009 0.20681 0.0
C1962 C 0.61639 0.22964 0.24559 0.0
C1963 C 0.61923 0.19681 0.23053 0.0
C1964 C 0.62817 0.17652 0.22932 0.0
C1965 C 0.60043 0.23383 0.233 0.0
C1966 C 0.59407 0.21948 0.21868 0.0
C1967 C 0.60352 0.20115 0.21768 0.0
C1968 C 0.57721 0.22291 0.20499 0.0
C1969 C 0.59023 0.25338 0.2355 0.0
C1970 C 0.56055 0.21001 0.205 0.0
C1971 C 0.54466 0.21298 0.1921 0.0
C1972 C 0.54509 0.22893 0.17883 0.0
C1973 C 0.56189 0.24179 0.17879 0.0
C1974 C 0.57782 0.23874 0.19167 0.0
H1975 H 0.59341 0.26032 0.25024 0.0
H1976 H 0.59566 0.26382 0.22405 0.0
H1977 H 0.57393 0.25144 0.23371 0.0
H1978 H 0.55979 0.19765 0.2151 0.0
H1979 H 0.53206 0.20271 0.19255 0.0
H1980 H 0.48509 0.06072 0.02661 0.0
H1981 H 0.49222 0.09084 0.0462 0.0
H1982 H 0.508 0.1222 0.99312 0.0
H1983 H 0.49976 0.09253 0.97327 0.0
H1984 H 0.52561 0.11326 0.05138 0.0
H1985 H 0.46775 0.15855 0.01657 0.0
H1986 H 0.46909 0.13212 0.01238 0.0
H1987 H 0.48541 0.14894 0.99941 0.0
C1988 C 0.48982 0.07408 0.01904 0.0
C1989 C 0.49161 0.07419 0.9983 0.0
C1990 C 0.49408 0.09125 0.0303 0.0
C1991 C 0.50029 0.10891 0.02111 0.0
C1992 C 0.50278 0.10891 1.00051 0.0
H1993 H 0.54417 0.20818 0.0984 0.0
H1994 H 0.5434 0.18095 0.07393 0.0
C1995 C 0.49834 0.09179 0.9892 0.0
C1996 C 0.50396 0.12727 0.03318 0.0
H1997 H 0.48917 0.17498 0.03948 0.0
C1998 C 0.51757 0.12677 0.04892 0.0
C1999 C 0.49352 0.14488 0.02985 0.0
C2000 C 0.478 0.14618 0.01376 0.0
C2001 C 0.52072 0.14315 0.06178 0.0
C2002 C 0.5102 0.16086 0.05854 0.0
C2003 C 0.49709 0.16147 0.04228 0.0
C2004 C 0.5113 0.17842 0.07235 0.0
C2005 C 0.53503 0.14079 0.07878 0.0
C2006 C 0.4937 0.18741 0.07845 0.0
C2007 C 0.49427 0.20363 0.09156 0.0
C2008 C 0.51229 0.21056 0.09976 0.0
C2009 C 0.52999 0.20241 0.09298 0.0
C2010 C 0.52952 0.18668 0.07917 0.0
H2011 H 0.53586 0.12501 0.08326 0.0
H2012 H 0.55007 0.14568 0.07402 0.0
H2013 H 0.53096 0.1497 0.0919 0.0
H2014 H 0.47939 0.18179 0.07324 0.0
H2015 H 0.48054 0.21064 0.09544 0.0
H2016 H 0.22507 0.34345 0.74083 0.0
H2017 H 0.25107 0.36908 0.74576 0.0
H2018 H 0.25002 0.38159 0.68336 0.0
H2019 H 0.22371 0.3562 0.67834 0.0
H2020 H 0.28855 0.36798 0.72628 0.0
H2021 H 0.24892 0.43746 0.71047 0.0
H2022 H 0.23607 0.41455 0.71678 0.0
H2023 H 0.24602 0.41769 0.69242 0.0
C2024 C 0.23007 0.35193 0.72821 0.0
C2025 C 0.2223 0.34781 0.70919 0.0
C2026 C 0.24498 0.3665 0.73104 0.0
C2027 C 0.25231 0.37737 0.71497 0.0
C2028 C 0.24435 0.37359 0.69602 0.0
H2029 H 0.34744 0.46787 0.70773 0.0
H2030 H 0.32127 0.44298 0.69949 0.0
C2031 C 0.22948 0.35895 0.69315 0.0
C2032 C 0.26935 0.39147 0.71787 0.0
H2033 H 0.28357 0.44047 0.71587 0.0
C2034 C 0.28746 0.38384 0.72406 0.0
C2035 C 0.26793 0.4121 0.71469 0.0
C2036 C 0.24868 0.42106 0.70836 0.0
C2037 C 0.30421 0.39627 0.72718 0.0
C2038 C 0.30278 0.41698 0.72448 0.0
C2039 C 0.2847 0.4246 0.71797 0.0
C2040 C 0.31963 0.43103 0.72902 0.0
C2041 C 0.32345 0.38704 0.73284 0.0
C2042 C 0.32744 0.43257 0.74832 0.0
C2043 C 0.34237 0.44669 0.75297 0.0
C2044 C 0.34992 0.45943 0.7384 0.0
C2045 C 0.34215 0.45791 0.7191 0.0
C2046 C 0.32718 0.44378 0.71443 0.0
H2047 H 0.32337 0.37082 0.72954 0.0
H2048 H 0.33587 0.39424 0.72474 0.0
H2049 H 0.32602 0.38921 0.74896 0.0
H2050 H 0.3215 0.42333 0.75997 0.0
H2051 H 0.34746 0.44817 0.76816 0.0
H2052 H 0.25417 0.67808 0.81812 0.0
H2053 H 0.27872 0.65246 0.81293 0.0
H2054 H 0.23218 0.61034 0.7963 0.0
H2055 H 0.20741 0.63573 0.80187 0.0
H2056 H 0.28108 0.61357 0.83098 0.0
H2057 H 0.27186 0.60994 0.74915 0.0
H2058 H 0.26327 0.63048 0.76395 0.0
H2059 H 0.24946 0.60733 0.76327 0.0
C2060 C 0.24908 0.66331 0.8136 0.0
C2061 C 0.22876 0.65901 0.8104 0.0
C2062 C 0.26317 0.64872 0.81055 0.0
C2063 C 0.25728 0.62957 0.80407 0.0
C2064 C 0.23705 0.62511 0.80104 0.0
H2065 H 0.32849 0.52296 0.79817 0.0
H2066 H 0.30382 0.54765 0.80699 0.0
C2067 C 0.22293 0.63968 0.80416 0.0
C2068 C 0.27238 0.61436 0.8003 0.0
H2069 H 0.29333 0.5869 0.76347 0.0
C2070 C 0.28376 0.60769 0.81624 0.0
C2071 C 0.27595 0.60689 0.78103 0.0
C2072 C 0.26464 0.61409 0.76329 0.0
C2073 C 0.29854 0.59359 0.81341 0.0
C2074 C 0.30192 0.58594 0.79416 0.0
C2075 C 0.29061 0.59271 0.77823 0.0
C2076 C 0.31749 0.57129 0.79005 0.0
C2077 C 0.31071 0.58729 0.83092 0.0
C2078 C 0.33335 0.57639 0.77762 0.0
C2079 C 0.34744 0.56236 0.77258 0.0
C2080 C 0.34588 0.54287 0.77974 0.0
C2081 C 0.33018 0.53787 0.7925 0.0
C2082 C 0.31609 0.55197 0.79759 0.0
H2083 H 0.30909 0.59749 0.84384 0.0
H2084 H 0.30574 0.57217 0.83539 0.0
H2085 H 0.32665 0.5867 0.827 0.0
H2086 H 0.33468 0.5912 0.77161 0.0
H2087 H 0.35931 0.56671 0.76269 0.0
H2088 H 0.92625 0.54037 0.48201 0.0
H2089 H 0.89707 0.51969 0.48959 0.0
H2090 H 0.93186 0.46709 0.48392 0.0
H2091 H 0.96117 0.48773 0.47624 0.0
H2092 H 0.89747 0.46355 0.46357 0.0
H2093 H 0.882 0.49048 0.53953 0.0
H2094 H 0.88382 0.51034 0.52214 0.0
H2095 H 0.90521 0.49576 0.52725 0.0
C2096 C 0.92778 0.52442 0.48267 0.0
C2097 C 0.94607 0.5157 0.47859 0.0
C2098 C 0.91109 0.51261 0.48709 0.0
C2099 C 0.91235 0.49185 0.48775 0.0
C2100 C 0.93057 0.48309 0.48365 0.0
H2101 H 0.81372 0.41093 0.52154 0.0
H2102 H 0.84539 0.42984 0.52212 0.0
C2103 C 0.94727 0.49489 0.47914 0.0
C2104 C 0.89433 0.47926 0.49131 0.0
H2105 H 0.85545 0.47231 0.52293 0.0
C2106 C 0.88843 0.46531 0.47667 0.0
C2107 C 0.88265 0.48134 0.50853 0.0
C2108 C 0.88884 0.49514 0.52535 0.0
C2109 C 0.87078 0.45402 0.47837 0.0
C2110 C 0.85849 0.45699 0.49499 0.0
C2111 C 0.86477 0.47027 0.51008 0.0
C2112 C 0.83866 0.4471 0.49627 0.0
C2113 C 0.86533 0.43911 0.46224 0.0
C2114 C 0.82415 0.45115 0.48208 0.0
C2115 C 0.80617 0.44046 0.4817 0.0
C2116 C 0.80221 0.42553 0.49561 0.0
C2117 C 0.81629 0.42232 0.51062 0.0
C2118 C 0.83441 0.43305 0.51093 0.0
H2119 H 0.87852 0.4347 0.45362 0.0
H2120 H 0.85817 0.42556 0.46847 0.0
H2121 H 0.85468 0.44583 0.45186 0.0
H2122 H 0.82697 0.46223 0.47089 0.0
H2123 H 0.7956 0.44354 0.47008 0.0
H2124 H 0.78636 0.85055 0.7779 0.0
H2125 H 0.76142 0.87557 0.77216 0.0
H2126 H 0.75625 0.88528 0.83509 0.0
H2127 H 0.78142 0.86045 0.84099 0.0
H2128 H 0.71933 0.88118 0.81483 0.0
H2129 H 0.76979 0.93616 0.7791 0.0
H2130 H 0.77016 0.91165 0.76828 0.0
H2131 H 0.77877 0.91567 0.79327 0.0
C2132 C 0.78013 0.85817 0.79053 0.0
C2133 C 0.78603 0.85355 0.80992 0.0
C2134 C 0.76582 0.87244 0.78722 0.0
C2135 C 0.75716 0.88247 0.80319 0.0
C2136 C 0.76278 0.87774 0.82255 0.0
H2137 H 0.68901 0.99 0.7928 0.0
H2138 H 0.71248 0.96492 0.80298 0.0
C2139 C 0.77711 0.86348 0.82589 0.0
C2140 C 0.74215 0.8978 0.79966 0.0
H2141 H 0.73535 0.94245 0.77756 0.0
C2142 C 0.72282 0.89463 0.80676 0.0
C2143 C 0.74682 0.91544 0.78935 0.0
C2144 C 0.76755 0.9201 0.7822 0.0
C2145 C 0.70791 0.90843 0.8034 0.0
C2146 C 0.71243 0.92574 0.7925 0.0
C2147 C 0.73187 0.92911 0.7858 0.0
C2148 C 0.69722 0.94053 0.78765 0.0
C2149 C 0.68752 0.90446 0.81173 0.0
C2150 C 0.68076 0.93514 0.77576 0.0
C2151 C 0.66729 0.94945 0.76993 0.0
C2152 C 0.6701 0.96946 0.7758 0.0
C2153 C 0.68638 0.97472 0.78806 0.0
C2154 C 0.69983 0.96041 0.79386 0.0
H2155 H 0.68785 0.8936 0.82395 0.0
H2156 H 0.68096 0.9184 0.81733 0.0
H2157 H 0.6777 0.89818 0.79986 0.0
H2158 H 0.67863 0.91997 0.77049 0.0
H2159 H 0.65499 0.94492 0.7604 0.0
H2160 H 0.59436 0.47123 0.99718 0.0
H2161 H 0.62432 0.49093 0.00483 0.0
H2162 H 0.59643 0.54329 0.98298 0.0
H2163 H 0.56587 0.52412 0.97686 0.0
H2164 H 0.64915 0.5101 0.9829 0.0
H2165 H 0.61691 0.56484 0.03418 0.0
H2166 H 0.60322 0.54296 0.02571 0.0
H2167 H 0.60445 0.56491 0.01071 0.0
C2168 C 0.59436 0.48703 0.99443 0.0
C2169 C 0.57746 0.49604 0.98658 0.0
C2170 C 0.61165 0.49826 0.99862 0.0
C2171 C 0.61257 0.51873 0.9949 0.0
C2172 C 0.59595 0.52767 0.98658 0.0
H2173 H 0.71857 0.58986 0.97601 0.0
H2174 H 0.69082 0.56591 0.97419 0.0
C2175 C 0.57854 0.51654 0.98272 0.0
C2176 C 0.63111 0.53059 0.9991 0.0
H2177 H 0.64873 0.57356 0.02091 0.0
C2178 C 0.64907 0.52392 0.99135 0.0
C2179 C 0.63122 0.54835 0.01059 0.0
C2180 C 0.61294 0.55554 0.02096 0.0
C2181 C 0.66692 0.53484 0.99411 0.0
C2182 C 0.66673 0.55341 0.00425 0.0
C2183 C 0.64892 0.55963 0.01271 0.0
C2184 C 0.68449 0.56702 0.0056 0.0
C2185 C 0.68578 0.52607 0.98641 0.0
C2186 C 0.69008 0.57609 0.02376 0.0
C2187 C 0.70555 0.59037 0.02463 0.0
C2188 C 0.71545 0.59599 0.00732 0.0
C2189 C 0.71062 0.58623 0.98942 0.0
C2190 C 0.69503 0.57218 0.98847 0.0
H2191 H 0.68485 0.50956 0.98647 0.0
H2192 H 0.68803 0.53064 0.97086 0.0
H2193 H 0.69889 0.53104 0.99536 0.0
H2194 H 0.6823 0.57235 0.03723 0.0
H2195 H 0.70939 0.59742 0.03869 0.0
H2196 H 0.29464 0.67231 0.22737 0.0
H2197 H 0.26865 0.64728 0.23355 0.0
H2198 H 0.26426 0.63436 0.17098 0.0
H2199 H 0.29071 0.6591 0.16468 0.0
H2200 H 0.22991 0.64794 0.21808 0.0
H2201 H 0.26763 0.57876 0.19586 0.0
H2202 H 0.28104 0.60179 0.20122 0.0
H2203 H 0.2682 0.59834 0.17803 0.0
C2204 C 0.28844 0.66389 0.21494 0.0
C2205 C 0.29486 0.66762 0.19553 0.0
C2206 C 0.2735 0.64967 0.21849 0.0
C2207 C 0.26471 0.63877 0.20277 0.0
C2208 C 0.2711 0.64234 0.18337 0.0
H2209 H 0.17011 0.54757 0.2011 0.0
H2210 H 0.19496 0.57294 0.19162 0.0
C2211 C 0.28605 0.65664 0.17978 0.0
C2212 C 0.24802 0.62462 0.20671 0.0
H2213 H 0.23373 0.57559 0.20433 0.0
C2214 C 0.23076 0.63211 0.21512 0.0
C2215 C 0.2491 0.60402 0.20264 0.0
C2216 C 0.26752 0.59514 0.19408 0.0
C2217 C 0.2145 0.61958 0.21955 0.0
C2218 C 0.21562 0.5989 0.21586 0.0
C2219 C 0.23283 0.59143 0.20718 0.0
C2220 C 0.19933 0.58471 0.22134 0.0
C2221 C 0.19607 0.62869 0.22763 0.0
C2222 C 0.19343 0.58291 0.24117 0.0
C2223 C 0.17918 0.56853 0.24653 0.0
C2224 C 0.17047 0.55575 0.23218 0.0
C2225 C 0.17632 0.55755 0.21236 0.0
C2226 C 0.19054 0.57196 0.20697 0.0
H2227 H 0.1958 0.64495 0.22512 0.0
H2228 H 0.1828 0.62162 0.22051 0.0
H2229 H 0.19533 0.62623 0.2438 0.0
H2230 H 0.20038 0.59212 0.25263 0.0
H2231 H 0.17556 0.56686 0.26202 0.0
H2232 H 0.95531 0.53093 0.03592 0.0
H2233 H 0.92716 0.55205 0.02948 0.0
H2234 H 0.89268 0.50087 0.00914 0.0
H2235 H 0.9203 0.47946 0.01666 0.0
H2236 H 0.90724 0.56019 0.99624 0.0
H2237 H 0.85562 0.52395 0.049 0.0
H2238 H 0.88171 0.51883 0.04853 0.0
H2239 H 0.86501 0.50696 0.03089 0.0
C2240 C 0.94165 0.52407 0.03038 0.0
C2241 C 0.94009 0.50338 0.02705 0.0
C2242 C 0.9256 0.53623 0.02651 0.0
C2243 C 0.90762 0.52804 0.01918 0.0
C2244 C 0.9062 0.50751 0.01526 0.0
H2245 H 0.79696 0.58093 0.98212 0.0
H2246 H 0.82607 0.56006 0.98497 0.0
C2247 C 0.92217 0.4953 0.0193 0.0
C2248 C 0.89046 0.54103 0.01559 0.0
H2249 H 0.84183 0.54764 0.02747 0.0
C2250 C 0.89297 0.55745 1.00313 0.0
C2251 C 0.87181 0.53757 0.02466 0.0
C2252 C 0.86838 0.521 0.03917 0.0
C2253 C 0.87734 0.57032 0.99935 0.0
C2254 C 0.85872 0.56665 0.0082 0.0
C2255 C 0.85613 0.55026 0.02058 0.0
C2256 C 0.84186 0.57999 0.00526 0.0
C2257 C 0.88067 0.58773 0.98587 0.0
C2258 C 0.84121 0.59815 0.01563 0.0
C2259 C 0.82456 0.61004 0.01416 0.0
C2260 C 0.80829 0.60401 1.00219 0.0
C2261 C 0.80927 0.58605 0.99137 0.0
C2262 C 0.82585 0.57408 0.99302 0.0
H2263 H 0.89529 0.58732 0.97842 0.0
H2264 H 0.86879 0.58795 0.97443 0.0
H2265 H 0.87995 0.60176 0.99463 0.0
H2266 H 0.85339 0.60289 0.02525 0.0
H2267 H 0.82427 0.62376 0.02269 0.0
H2268 H 0.06735 0.99226 0.04554 0.0
H2269 H 0.0955 0.97137 0.03787 0.0
H2270 H 0.13063 0.02346 0.02321 0.0
H2271 H 0.10276 0.04453 0.03147 0.0
H2272 H 0.11532 0.9673 1.00242 0.0
H2273 H 0.16675 0.99481 0.06166 0.0
H2274 H 0.14059 0.9998 0.06177 0.0
H2275 H 0.15717 0.01404 0.04642 0.0
C2276 C 0.08116 0.99931 0.04096 0.0
C2277 C 0.08281 0.0201 0.03923 0.0
C2278 C 0.09719 0.98733 0.03645 0.0
C2279 C 0.11527 0.99585 0.03023 0.0
C2280 C 0.11695 0.01657 0.02834 0.0
H2281 H 0.2098 0.93542 0.96902 0.0
H2282 H 0.18239 0.95646 0.97851 0.0
C2283 C 0.10091 0.02858 0.03284 0.0
C2284 C 0.13213 0.98299 0.02516 0.0
H2285 H 0.1803 0.97368 0.037 0.0
C2286 C 0.12952 0.96866 0.01001 0.0
C2287 C 0.15056 0.98459 0.03525 0.0
C2288 C 0.15395 0.999 0.05231 0.0
C2289 C 0.14492 0.95613 0.00445 0.0
C2290 C 0.16356 0.95818 0.01409 0.0
C2291 C 0.16607 0.97226 0.02949 0.0
C2292 C 0.18057 0.94574 0.0085 0.0
C2293 C 0.14099 0.94058 0.98851 0.0
C2294 C 0.18906 0.93312 0.02237 0.0
C2295 C 0.20486 0.92111 0.01704 0.0
C2296 C 0.21259 0.92158 0.99773 0.0
C2297 C 0.20423 0.93456 0.98399 0.0
C2298 C 0.18845 0.94654 0.98935 0.0
H2299 H 0.12487 0.93747 0.98636 0.0
H2300 H 0.14708 0.946 0.97429 0.0
H2301 H 0.1483 0.92647 0.99211 0.0
H2302 H 0.18328 0.93235 0.03727 0.0
H2303 H 0.21092 0.91138 0.02805 0.0
loop_
_geom_bond_atom_site_label_1
_geom_bond_atom_site_label_2
_geom_bond_distance
_geom_bond_site_symmetry_2
_ccdc_geom_bond_type
H0 C3 0.931 . S
H1 C6 0.928 . S
H2 C8 0.930 . S
C3 H0 0.931 . S
C3 C4 1.413 . S
C3 C5 1.360 . S
C4 C3 1.413 . S
C4 C8 1.429 . S
C5 C3 1.360 . S
C5 C6 1.372 . S
C6 H1 0.928 . S
C6 C5 1.372 . S
C6 C7 1.404 . S
C7 C6 1.404 . S
C7 C8 1.391 . S
C8 H2 0.930 . S
C8 C4 1.429 . S
C8 C7 1.391 . S
H9 C12 0.931 . S
H10 C15 0.928 . S
H11 C17 0.930 . S
C12 H9 0.931 . S
C12 C13 1.413 . S
C12 C14 1.360 . S
C13 C12 1.413 . S
C13 C17 1.429 . S
C14 C12 1.360 . S
C14 C15 1.372 . S
C15 H10 0.928 . S
C15 C14 1.372 . S
C15 C16 1.404 . S
C16 C15 1.404 . S
C16 C17 1.391 . S
C17 H11 0.930 . S
C17 C13 1.429 . S
C17 C16 1.391 . S
H18 C21 0.931 . S
H19 C24 0.928 . S
H20 C26 0.930 . S
C21 H18 0.931 . S
C21 C22 1.413 . S
C21 C23 1.360 . S
C22 C21 1.413 . S
C22 C26 1.429 . S
C23 C21 1.360 . S
C23 C24 1.372 . S
C24 H19 0.928 . S
C24 C23 1.372 . S
C24 C25 1.404 . S
C25 C24 1.404 . S
C25 C26 1.391 . S
C26 H20 0.930 . S
C26 C22 1.429 . S
C26 C25 1.391 . S
H27 C30 0.931 . S
H28 C33 0.928 . S
H29 C35 0.930 . S
C30 H27 0.931 . S
C30 C31 1.413 . S
C30 C32 1.360 . S
C31 C30 1.413 . S
C31 C35 1.429 . S
C32 C30 1.360 . S
C32 C33 1.372 . S
C33 H28 0.928 . S
C33 C32 1.372 . S
C33 C34 1.404 . S
C34 C33 1.404 . S
C34 C35 1.391 . S
C35 H29 0.930 . S
C35 C31 1.429 . S
C35 C34 1.391 . S
H36 C39 0.931 . S
H37 C42 0.928 . S
H38 C44 0.930 . S
C39 H36 0.931 . S
C39 C40 1.413 . S
C39 C41 1.360 . S
C40 C39 1.413 . S
C40 C44 1.429 . S
C41 C39 1.360 . S
C41 C42 1.372 . S
C42 H37 0.928 . S
C42 C41 1.372 . S
C42 C43 1.404 . S
C43 C42 1.404 . S
C43 C44 1.391 . S
C44 H38 0.930 . S
C44 C40 1.429 . S
C44 C43 1.391 . S
H45 C48 0.931 . S
H46 C51 0.928 . S
H47 C53 0.930 . S
C48 H45 0.931 . S
C48 C49 1.413 . S
C48 C50 1.360 . S
C49 C48 1.413 . S
C49 C53 1.429 . S
C50 C48 1.360 . S
C50 C51 1.372 . S
C51 H46 0.928 . S
C51 C50 1.372 . S
C51 C52 1.404 . S
C52 C51 1.404 . S
C52 C53 1.391 . S
C53 H47 0.930 . S
C53 C49 1.429 . S
C53 C52 1.391 . S
H54 C57 0.931 . S
H55 C60 0.928 . S
H56 C62 0.930 . S
C57 H54 0.931 . S
C57 C58 1.413 . S
C57 C59 1.360 . S
C58 C57 1.413 . S
C58 C62 1.429 . S
C59 C57 1.360 . S
C59 C60 1.372 . S
C60 H55 0.928 . S
C60 C59 1.372 . S
C60 C61 1.404 . S
C61 C60 1.404 . S
C61 C62 1.391 . S
C62 H56 0.930 . S
C62 C58 1.429 . S
C62 C61 1.391 . S
H63 C66 0.931 . S
H64 C69 0.928 . S
H65 C71 0.930 . S
C66 H63 0.931 . S
C66 C67 1.413 . S
C66 C68 1.360 . S
C67 C66 1.413 . S
C67 C71 1.429 . S
C68 C66 1.360 . S
C68 C69 1.372 . S
C69 H64 0.928 . S
C69 C68 1.372 . S
C69 C70 1.404 . S
C70 C69 1.404 . S
C70 C71 1.391 . S
C71 H65 0.930 . S
C71 C67 1.429 . S
C71 C70 1.391 . S
H72 C75 0.931 . S
H73 C78 0.928 . S
H74 C80 0.930 . S
C75 H72 0.931 . S
C75 C76 1.413 . S
C75 C77 1.360 . S
C76 C75 1.413 . S
C76 C80 1.429 . S
C77 C75 1.360 . S
C77 C78 1.372 . S
C78 H73 0.928 . S
C78 C77 1.372 . S
C78 C79 1.404 . S
C79 C78 1.404 . S
C79 C80 1.391 . S
C80 H74 0.930 . S
C80 C76 1.429 . S
C80 C79 1.391 . S
H81 C84 0.931 . S
H82 C87 0.928 . S
H83 C89 0.930 . S
C84 H81 0.931 . S
C84 C85 1.413 . S
C84 C86 1.360 . S
C85 C84 1.413 . S
C85 C89 1.429 . S
C86 C84 1.360 . S
C86 C87 1.372 . S
C87 H82 0.928 . S
C87 C86 1.372 . S
C87 C88 1.404 . S
C88 C87 1.404 . S
C88 C89 1.391 . S
C89 H83 0.930 . S
C89 C85 1.429 . S
C89 C88 1.391 . S
H90 C93 0.931 . S
H91 C96 0.928 . S
H92 C98 0.930 . S
C93 H90 0.931 . S
C93 C94 1.413 . S
C93 C95 1.360 . S
C94 C93 1.413 . S
C94 C98 1.429 . S
C95 C93 1.360 . S
C95 C96 1.372 . S
C96 H91 0.928 . S
C96 C95 1.372 . S
C96 C97 1.404 . S
C97 C96 1.404 . S
C97 C98 1.391 . S
C98 H92 0.930 . S
C98 C94 1.429 . S
C98 C97 1.391 . S
H99 C102 0.931 . S
H100 C105 0.928 . S
H101 C107 0.930 . S
C102 H99 0.931 . S
C102 C103 1.413 . S
C102 C104 1.360 . S
C103 C102 1.413 . S
C103 C107 1.429 . S
C104 C102 1.360 . S
C104 C105 1.372 . S
C105 H100 0.928 . S
C105 C104 1.372 . S
C105 C106 1.404 . S
C106 C105 1.404 . S
C106 C107 1.391 . S
C107 H101 0.930 . S
C107 C103 1.429 . S
C107 C106 1.391 . S
H108 C111 0.931 . S
H109 C114 0.928 . S
H110 C116 0.930 . S
C111 H108 0.931 . S
C111 C112 1.413 . S
C111 C113 1.360 . S
C112 C111 1.413 . S
C112 C116 1.429 . S
C113 C111 1.360 . S
C113 C114 1.372 . S
C114 H109 0.928 . S
C114 C113 1.372 . S
C114 C115 1.404 . S
C115 C114 1.404 . S
C115 C116 1.391 . S
C116 H110 0.930 . S
C116 C112 1.429 . S
C116 C115 1.391 . S
H117 C120 0.931 . S
H118 C123 0.928 . S
H119 C125 0.930 . S
C120 H117 0.931 . S
C120 C121 1.413 . S
C120 C122 1.360 . S
C121 C120 1.413 . S
C121 C125 1.429 . S
C122 C120 1.360 . S
C122 C123 1.372 . S
C123 H118 0.928 . S
C123 C122 1.372 . S
C123 C124 1.404 . S
C124 C123 1.404 . S
C124 C125 1.391 . S
C125 H119 0.930 . S
C125 C121 1.429 . S
C125 C124 1.391 . S
H126 C129 0.931 . S
H127 C132 0.928 . S
H128 C134 0.930 . S
C129 H126 0.931 . S
C129 C130 1.413 . S
C129 C131 1.360 . S
C130 C129 1.413 . S
C130 C134 1.429 . S
C131 C129 1.360 . S
C131 C132 1.372 . S
C132 H127 0.928 . S
C132 C131 1.372 . S
C132 C133 1.404 . S
C133 C132 1.404 . S
C133 C134 1.391 . S
C134 H128 0.930 . S
C134 C130 1.429 . S
C134 C133 1.391 . S
H135 C138 0.931 . S
H136 C141 0.928 . S
H137 C143 0.930 . S
C138 H135 0.931 . S
C138 C139 1.413 . S
C138 C140 1.360 . S
C139 C138 1.413 . S
C139 C143 1.429 . S
C140 C138 1.360 . S
C140 C141 1.372 . S
C141 H136 0.928 . S
C141 C140 1.372 . S
C141 C142 1.404 . S
C142 C141 1.404 . S
C142 C143 1.391 . S
C143 H137 0.930 . S
C143 C139 1.429 . S
C143 C142 1.391 . S
Mn144 O149 2.095 . S
Mn144 O159 2.162 . S
Mn144 O160 2.297 . S
Mn144 O168 2.369 1_554 S
Mn144 O169 2.209 1_554 S
Mn144 O170 2.094 . S
Mn145 O150 2.121 . S
Mn145 N152 2.257 . S
Mn145 N161 2.282 . S
Mn145 O169 2.215 . S
Mn145 O171 2.117 . S
C146 O168 1.264 . S
C146 O169 1.283 . S
C147 O159 1.281 . S
C147 O160 1.236 . S
C148 O170 1.240 . S
C148 O171 1.264 1_554 S
O149 Mn144 2.095 . S
O149 C158 1.250 . S
O150 Mn145 2.121 . S
O150 C158 1.258 1_556 S
C151 N152 1.326 . S
C151 C155 1.460 . S
C151 H157 0.929 . S
N152 Mn145 2.257 . S
N152 C151 1.326 . S
N152 C156 1.362 . S
C153 C154 1.258 . S
C153 C156 1.431 . S
C153 C173 1.449 . S
C154 C153 1.258 . S
C154 C155 1.477 . S
C154 H174 0.931 . S
C155 C151 1.460 . S
C155 C154 1.477 . S
C155 H175 0.930 . S
C156 N152 1.362 . S
C156 C153 1.431 . S
C156 C166 1.476 . S
H157 C151 0.929 . S
C158 O149 1.250 . S
C158 O150 1.258 1_554 S
O159 Mn144 2.162 . S
O159 C147 1.281 . S
O160 Mn144 2.297 . S
O160 C147 1.236 . S
N161 Mn145 2.282 . S
N161 C162 1.328 . S
N161 C166 1.318 . S
C162 N161 1.328 . S
C162 C163 1.457 . S
C162 H167 0.929 . S
C163 C162 1.457 . S
C163 C164 1.291 . S
C163 H176 0.931 . S
C164 C163 1.291 . S
C164 C165 1.373 . S
C164 H177 0.929 . S
C165 C164 1.373 . S
C165 C166 1.396 . S
C165 C172 1.403 . S
C166 C156 1.476 . S
C166 N161 1.318 . S
C166 C165 1.396 . S
H167 C162 0.929 . S
O168 Mn144 2.369 1_556 S
O168 C146 1.264 . S
O169 Mn144 2.209 1_556 S
O169 Mn145 2.215 . S
O169 C146 1.283 . S
O170 Mn144 2.094 . S
O170 C148 1.240 . S
O171 Mn145 2.117 . S
O171 C148 1.264 1_556 S
C172 C165 1.403 . S
C172 C173 1.399 . S
C172 H178 0.929 . S
C173 C153 1.449 . S
C173 C172 1.399 . S
C173 H179 0.930 . S
H174 C154 0.931 . S
H175 C155 0.930 . S
H176 C163 0.931 . S
H177 C164 0.929 . S
H178 C172 0.929 . S
H179 C173 0.930 . S
Mn180 O185 2.095 . S
Mn180 O195 2.162 . S
Mn180 O196 2.297 . S
Mn180 O204 2.385 . S
Mn180 O205 2.209 . S
Mn180 O206 2.094 . S
Mn181 O186 2.121 . S
Mn181 N188 2.257 . S
Mn181 N197 2.282 . S
Mn181 O205 2.215 . S
Mn181 O207 2.117 . S
C182 O204 1.234 . S
C182 O205 1.283 . S
C183 O195 1.281 . S
C183 O196 1.236 . S
C184 O206 1.240 . S
C184 O207 1.264 . S
O185 Mn180 2.095 . S
O185 C194 1.250 . S
O186 Mn181 2.121 . S
O186 C194 1.258 . S
C187 N188 1.326 . S
C187 C191 1.460 . S
C187 H193 0.929 . S
N188 Mn181 2.257 . S
N188 C187 1.326 . S
N188 C192 1.362 . S
C189 C190 1.258 . S
C189 C192 1.431 . S
C189 C209 1.449 . S
C190 C189 1.258 . S
C190 C191 1.477 . S
C190 H210 0.931 . S
C191 C187 1.460 . S
C191 C190 1.477 . S
C191 H211 0.930 . S
C192 N188 1.362 . S
C192 C189 1.431 . S
C192 C202 1.476 . S
H193 C187 0.929 . S
C194 O185 1.250 . S
C194 O186 1.258 . S
O195 Mn180 2.162 . S
O195 C183 1.281 . S
O196 Mn180 2.297 . S
O196 C183 1.236 . S
N197 Mn181 2.282 . S
N197 C198 1.328 . S
N197 C202 1.318 . S
C198 N197 1.328 . S
C198 C199 1.457 . S
C198 H203 0.929 . S
C199 C198 1.457 . S
C199 C200 1.291 . S
C199 H212 0.931 . S
C200 C199 1.291 . S
C200 C201 1.373 . S
C200 H213 0.929 . S
C201 C200 1.373 . S
C201 C202 1.396 . S
C201 C208 1.403 . S
C202 C192 1.476 . S
C202 N197 1.318 . S
C202 C201 1.396 . S
H203 C198 0.929 . S
O204 Mn180 2.385 . S
O204 C182 1.234 . S
O205 Mn180 2.209 . S
O205 Mn181 2.215 . S
O205 C182 1.283 . S
O206 Mn180 2.094 . S
O206 C184 1.240 . S
O207 Mn181 2.117 . S
O207 C184 1.264 . S
C208 C201 1.403 . S
C208 C209 1.399 . S
C208 H214 0.929 . S
C209 C189 1.449 . S
C209 C208 1.399 . S
C209 H215 0.930 . S
H210 C190 0.931 . S
H211 C191 0.930 . S
H212 C199 0.931 . S
H213 C200 0.929 . S
H214 C208 0.929 . S
H215 C209 0.930 . S
Mn216 O221 2.095 1_554 S
Mn216 O231 2.162 . S
Mn216 O232 2.297 1_554 S
Mn216 O240 2.385 . S
Mn216 O241 2.209 1_554 S
Mn216 O242 2.094 . S
Mn217 O222 2.121 . S
Mn217 N224 2.257 . S
Mn217 N233 2.294 . S
Mn217 O241 2.215 . S
Mn217 O243 2.117 1_556 S
C218 O240 1.234 . S
C218 O241 1.283 1_554 S
C219 O231 1.281 . S
C219 O232 1.236 1_554 S
C220 O242 1.240 . S
C220 O243 1.264 . S
O221 Mn216 2.095 1_556 S
O221 C230 1.250 . S
O222 Mn217 2.121 . S
O222 C230 1.258 . S
C223 N224 1.326 . S
C223 C227 1.460 . S
C223 H229 0.929 . S
N224 Mn217 2.257 . S
N224 C223 1.326 . S
N224 C228 1.362 . S
C225 C226 1.258 . S
C225 C228 1.431 . S
C225 C245 1.449 . S
C226 C225 1.258 . S
C226 C227 1.477 . S
C226 H246 0.931 . S
C227 C223 1.460 . S
C227 C226 1.477 . S
C227 H247 0.930 . S
C228 N224 1.362 . S
C228 C225 1.431 . S
C228 C238 1.476 . S
H229 C223 0.929 . S
C230 O221 1.250 . S
C230 O222 1.258 . S
O231 Mn216 2.162 . S
O231 C219 1.281 . S
O232 Mn216 2.297 1_556 S
O232 C219 1.236 1_556 S
N233 Mn217 2.294 . S
N233 C234 1.296 1_556 S
N233 C238 1.339 . S
C234 N233 1.296 1_554 S
C234 C235 1.457 . S
C234 H239 0.929 . S
C235 C234 1.457 . S
C235 C236 1.291 . S
C235 H248 0.931 . S
C236 C235 1.291 . S
C236 C237 1.373 1_554 S
C236 H249 0.929 . S
C237 C236 1.373 1_556 S
C237 C238 1.396 . S
C237 C244 1.403 . S
C238 C228 1.476 . S
C238 N233 1.339 . S
C238 C237 1.396 . S
H239 C234 0.929 . S
O240 Mn216 2.385 . S
O240 C218 1.234 . S
O241 Mn216 2.209 1_556 S
O241 Mn217 2.215 . S
O241 C218 1.283 1_556 S
O242 Mn216 2.094 . S
O242 C220 1.240 . S
O243 Mn217 2.117 1_554 S
O243 C220 1.264 . S
C244 C237 1.403 . S
C244 C245 1.399 . S
C244 H250 0.929 . S
C245 C225 1.449 . S
C245 C244 1.399 . S
C245 H251 0.930 . S
H246 C226 0.931 . S
H247 C227 0.930 . S
H248 C235 0.931 . S
H249 C236 0.929 . S
H250 C244 0.929 . S
H251 C245 0.930 . S
Mn252 O257 2.095 . S
Mn252 O267 2.162 . S
Mn252 O268 2.297 . S
Mn252 O276 2.362 1_545 S
Mn252 O277 2.209 1_545 S
Mn252 O278 2.094 . S
Mn253 O258 2.121 . S
Mn253 N260 2.257 . S
Mn253 N269 2.282 . S
Mn253 O277 2.215 . S
Mn253 O279 2.117 . S
C254 O276 1.280 . S
C254 O277 1.283 . S
C255 O267 1.281 . S
C255 O268 1.236 . S
C256 O278 1.240 . S
C256 O279 1.264 1_545 S
O257 Mn252 2.095 . S
O257 C266 1.284 . S
O258 Mn253 2.121 . S
O258 C266 1.215 1_565 S
C259 N260 1.326 . S
C259 C263 1.460 . S
C259 H265 0.929 . S
N260 Mn253 2.257 . S
N260 C259 1.326 . S
N260 C264 1.362 . S
C261 C262 1.258 . S
C261 C264 1.431 . S
C261 C281 1.449 . S
C262 C261 1.258 . S
C262 C263 1.477 . S
C262 H282 0.931 . S
C263 C259 1.460 . S
C263 C262 1.477 . S
C263 H283 0.930 . S
C264 N260 1.362 . S
C264 C261 1.431 . S
C264 C274 1.476 . S
H265 C259 0.929 . S
C266 O257 1.284 . S
C266 O258 1.215 1_545 S
O267 Mn252 2.162 . S
O267 C255 1.281 . S
O268 Mn252 2.297 . S
O268 C255 1.236 . S
N269 Mn253 2.282 . S
N269 C270 1.328 . S
N269 C274 1.318 . S
C270 N269 1.328 . S
C270 C271 1.457 . S
C270 H275 0.929 . S
C271 C270 1.457 . S
C271 C272 1.291 . S
C271 H284 0.931 . S
C272 C271 1.291 . S
C272 C273 1.373 . S
C272 H285 0.929 . S
C273 C272 1.373 . S
C273 C274 1.396 . S
C273 C280 1.403 . S
C274 C264 1.476 . S
C274 N269 1.318 . S
C274 C273 1.396 . S
H275 C270 0.929 . S
O276 Mn252 2.362 1_565 S
O276 C254 1.280 . S
O277 Mn252 2.209 1_565 S
O277 Mn253 2.215 . S
O277 C254 1.283 . S
O278 Mn252 2.094 . S
O278 C256 1.240 . S
O279 Mn253 2.117 . S
O279 C256 1.264 1_565 S
C280 C273 1.403 . S
C280 C281 1.399 . S
C280 H286 0.929 . S
C281 C261 1.449 . S
C281 C280 1.399 . S
C281 H287 0.930 . S
H282 C262 0.931 . S
H283 C263 0.930 . S
H284 C271 0.931 . S
H285 C272 0.929 . S
H286 C280 0.929 . S
H287 C281 0.930 . S
Mn288 O293 2.095 . S
Mn288 O303 2.162 . S
Mn288 O304 2.297 . S
Mn288 O312 2.385 . S
Mn288 O313 2.209 . S
Mn288 O314 2.094 . S
Mn289 O294 2.121 . S
Mn289 N296 2.257 . S
Mn289 N305 2.282 . S
Mn289 O313 2.215 . S
Mn289 O315 2.117 . S
C290 O312 1.234 . S
C290 O313 1.283 . S
C291 O303 1.281 . S
C291 O304 1.236 . S
C292 O314 1.240 . S
C292 O315 1.264 . S
O293 Mn288 2.095 . S
O293 C302 1.250 . S
O294 Mn289 2.121 . S
O294 C302 1.258 . S
C295 N296 1.326 . S
C295 C299 1.460 . S
C295 H301 0.929 . S
N296 Mn289 2.257 . S
N296 C295 1.326 . S
N296 C300 1.362 . S
C297 C298 1.258 . S
C297 C300 1.431 . S
C297 C317 1.449 . S
C298 C297 1.258 . S
C298 C299 1.477 . S
C298 H318 0.931 . S
C299 C295 1.460 . S
C299 C298 1.477 . S
C299 H319 0.930 . S
C300 N296 1.362 . S
C300 C297 1.431 . S
C300 C310 1.476 . S
H301 C295 0.929 . S
C302 O293 1.250 . S
C302 O294 1.258 . S
O303 Mn288 2.162 . S
O303 C291 1.281 . S
O304 Mn288 2.297 . S
O304 C291 1.236 . S
N305 Mn289 2.282 . S
N305 C306 1.328 . S
N305 C310 1.318 . S
C306 N305 1.328 . S
C306 C307 1.457 . S
C306 H311 0.929 . S
C307 C306 1.457 . S
C307 C308 1.291 . S
C307 H320 0.931 . S
C308 C307 1.291 . S
C308 C309 1.373 . S
C308 H321 0.929 . S
C309 C308 1.373 . S
C309 C310 1.396 . S
C309 C316 1.403 . S
C310 C300 1.476 . S
C310 N305 1.318 . S
C310 C309 1.396 . S
H311 C306 0.929 . S
O312 Mn288 2.385 . S
O312 C290 1.234 . S
O313 Mn288 2.209 . S
O313 Mn289 2.215 . S
O313 C290 1.283 . S
O314 Mn288 2.094 . S
O314 C292 1.240 . S
O315 Mn289 2.117 . S
O315 C292 1.264 . S
C316 C309 1.403 . S
C316 C317 1.399 . S
C316 H322 0.929 . S
C317 C297 1.449 . S
C317 C316 1.399 . S
C317 H323 0.930 . S
H318 C298 0.931 . S
H319 C299 0.930 . S
H320 C307 0.931 . S
H321 C308 0.929 . S
H322 C316 0.929 . S
H323 C317 0.930 . S
Mn324 O329 2.095 . S
Mn324 O339 2.162 . S
Mn324 O340 2.297 . S
Mn324 O348 2.385 . S
Mn324 O349 2.209 . S
Mn324 O350 2.094 . S
Mn325 O330 2.121 . S
Mn325 N332 2.257 . S
Mn325 N341 2.282 . S
Mn325 O349 2.215 . S
Mn325 O351 2.117 . S
C326 O348 1.234 . S
C326 O349 1.283 . S
C327 O339 1.281 . S
C327 O340 1.236 . S
C328 O350 1.240 . S
C328 O351 1.264 . S
O329 Mn324 2.095 . S
O329 C338 1.250 . S
O330 Mn325 2.121 . S
O330 C338 1.258 . S
C331 N332 1.326 . S
C331 C335 1.460 . S
C331 H337 0.929 . S
N332 Mn325 2.257 . S
N332 C331 1.326 . S
N332 C336 1.362 . S
C333 C334 1.258 . S
C333 C336 1.431 . S
C333 C353 1.449 . S
C334 C333 1.258 . S
C334 C335 1.477 . S
C334 H354 0.931 . S
C335 C331 1.460 . S
C335 C334 1.477 . S
C335 H355 0.930 . S
C336 N332 1.362 . S
C336 C333 1.431 . S
C336 C346 1.476 . S
H337 C331 0.929 . S
C338 O329 1.250 . S
C338 O330 1.258 . S
O339 Mn324 2.162 . S
O339 C327 1.281 . S
O340 Mn324 2.297 . S
O340 C327 1.236 . S
N341 Mn325 2.282 . S
N341 C342 1.328 . S
N341 C346 1.318 . S
C342 N341 1.328 . S
C342 C343 1.457 . S
C342 H347 0.929 . S
C343 C342 1.457 . S
C343 C344 1.291 . S
C343 H356 0.931 . S
C344 C343 1.291 . S
C344 C345 1.373 . S
C344 H357 0.929 . S
C345 C344 1.373 . S
C345 C346 1.396 . S
C345 C352 1.403 . S
C346 C336 1.476 . S
C346 N341 1.318 . S
C346 C345 1.396 . S
H347 C342 0.929 . S
O348 Mn324 2.385 . S
O348 C326 1.234 . S
O349 Mn324 2.209 . S
O349 Mn325 2.215 . S
O349 C326 1.283 . S
O350 Mn324 2.094 . S
O350 C328 1.240 . S
O351 Mn325 2.117 . S
O351 C328 1.264 . S
C352 C345 1.403 . S
C352 C353 1.399 . S
C352 H358 0.929 . S
C353 C333 1.449 . S
C353 C352 1.399 . S
C353 H359 0.930 . S
H354 C334 0.931 . S
H355 C335 0.930 . S
H356 C343 0.931 . S
H357 C344 0.929 . S
H358 C352 0.929 . S
H359 C353 0.930 . S
Mn360 O365 2.095 . S
Mn360 O375 2.162 . S
Mn360 O376 2.297 . S
Mn360 O384 2.385 . S
Mn360 O385 2.209 . S
Mn360 O386 2.094 . S
Mn361 O366 2.121 . S
Mn361 N368 2.257 . S
Mn361 N377 2.282 . S
Mn361 O385 2.215 . S
Mn361 O387 2.117 . S
C362 O384 1.234 . S
C362 O385 1.283 . S
C363 O375 1.281 . S
C363 O376 1.236 . S
C364 O386 1.240 . S
C364 O387 1.264 . S
O365 Mn360 2.095 . S
O365 C374 1.250 . S
O366 Mn361 2.121 . S
O366 C374 1.258 . S
C367 N368 1.326 . S
C367 C371 1.460 . S
C367 H373 0.929 . S
N368 Mn361 2.257 . S
N368 C367 1.326 . S
N368 C372 1.362 . S
C369 C370 1.258 . S
C369 C372 1.431 . S
C369 C389 1.449 . S
C370 C369 1.258 . S
C370 C371 1.477 . S
C370 H390 0.931 . S
C371 C367 1.460 . S
C371 C370 1.477 . S
C371 H391 0.930 . S
C372 N368 1.362 . S
C372 C369 1.431 . S
C372 C382 1.476 . S
H373 C367 0.929 . S
C374 O365 1.250 . S
C374 O366 1.258 . S
O375 Mn360 2.162 . S
O375 C363 1.281 . S
O376 Mn360 2.297 . S
O376 C363 1.236 . S
N377 Mn361 2.282 . S
N377 C378 1.328 . S
N377 C382 1.318 . S
C378 N377 1.328 . S
C378 C379 1.457 . S
C378 H383 0.929 . S
C379 C378 1.457 . S
C379 C380 1.291 . S
C379 H392 0.931 . S
C380 C379 1.291 . S
C380 C381 1.373 . S
C380 H393 0.929 . S
C381 C380 1.373 . S
C381 C382 1.396 . S
C381 C388 1.403 . S
C382 C372 1.476 . S
C382 N377 1.318 . S
C382 C381 1.396 . S
H383 C378 0.929 . S
O384 Mn360 2.385 . S
O384 C362 1.234 . S
O385 Mn360 2.209 . S
O385 Mn361 2.215 . S
O385 C362 1.283 . S
O386 Mn360 2.094 . S
O386 C364 1.240 . S
O387 Mn361 2.117 . S
O387 C364 1.264 . S
C388 C381 1.403 . S
C388 C389 1.399 . S
C388 H394 0.929 . S
C389 C369 1.449 . S
C389 C388 1.399 . S
C389 H395 0.930 . S
H390 C370 0.931 . S
H391 C371 0.930 . S
H392 C379 0.931 . S
H393 C380 0.929 . S
H394 C388 0.929 . S
H395 C389 0.930 . S
Mn396 O401 2.095 . S
Mn396 O411 2.162 . S
Mn396 O412 2.297 . S
Mn396 O420 2.385 1_565 S
Mn396 O421 2.209 1_565 S
Mn396 O422 2.094 . S
Mn397 O402 2.121 . S
Mn397 N404 2.257 . S
Mn397 N413 2.282 . S
Mn397 O421 2.215 . S
Mn397 O423 2.117 . S
C398 O420 1.234 . S
C398 O421 1.283 . S
C399 O411 1.281 . S
C399 O412 1.236 . S
C400 O422 1.223 1_545 S
C400 O423 1.287 . S
O401 Mn396 2.095 . S
O401 C410 1.250 1_565 S
O402 Mn397 2.121 . S
O402 C410 1.258 . S
C403 N404 1.326 . S
C403 C407 1.460 . S
C403 H409 0.929 . S
N404 Mn397 2.257 . S
N404 C403 1.326 . S
N404 C408 1.362 . S
C405 C406 1.258 . S
C405 C408 1.431 . S
C405 C425 1.449 . S
C406 C405 1.258 . S
C406 C407 1.477 . S
C406 H426 0.931 . S
C407 C403 1.460 . S
C407 C406 1.477 . S
C407 H427 0.930 . S
C408 N404 1.362 . S
C408 C405 1.431 . S
C408 C418 1.476 . S
H409 C403 0.929 . S
C410 O401 1.250 1_545 S
C410 O402 1.258 . S
O411 Mn396 2.162 . S
O411 C399 1.281 . S
O412 Mn396 2.297 . S
O412 C399 1.236 . S
N413 Mn397 2.282 . S
N413 C414 1.328 . S
N413 C418 1.318 . S
C414 N413 1.328 . S
C414 C415 1.457 . S
C414 H419 0.929 . S
C415 C414 1.457 . S
C415 C416 1.291 . S
C415 H428 0.931 . S
C416 C415 1.291 . S
C416 C417 1.373 . S
C416 H429 0.929 . S
C417 C416 1.373 . S
C417 C418 1.396 . S
C417 C424 1.403 . S
C418 C408 1.476 . S
C418 N413 1.318 . S
C418 C417 1.396 . S
H419 C414 0.929 . S
O420 Mn396 2.385 1_545 S
O420 C398 1.234 . S
O421 Mn396 2.209 1_545 S
O421 Mn397 2.215 . S
O421 C398 1.283 . S
O422 Mn396 2.094 . S
O422 C400 1.223 1_565 S
O423 Mn397 2.117 . S
O423 C400 1.287 . S
C424 C417 1.403 . S
C424 C425 1.399 . S
C424 H430 0.929 . S
C425 C405 1.449 . S
C425 C424 1.399 . S
C425 H431 0.930 . S
H426 C406 0.931 . S
H427 C407 0.930 . S
H428 C415 0.931 . S
H429 C416 0.929 . S
H430 C424 0.929 . S
H431 C425 0.930 . S
Mn432 O437 2.095 . S
Mn432 O447 2.162 . S
Mn432 O448 2.297 . S
Mn432 O456 2.385 1_455 S
Mn432 O457 2.209 1_455 S
Mn432 O458 2.094 . S
Mn433 O438 2.121 . S
Mn433 N440 2.257 . S
Mn433 N449 2.282 . S
Mn433 O457 2.215 . S
Mn433 O459 2.117 . S
C434 O456 1.234 . S
C434 O457 1.283 . S
C435 O447 1.281 . S
C435 O448 1.236 . S
C436 O458 1.240 . S
C436 O459 1.264 1_455 S
O437 Mn432 2.095 . S
O437 C446 1.250 1_455 S
O438 Mn433 2.121 . S
O438 C446 1.258 . S
C439 N440 1.326 . S
C439 C443 1.460 . S
C439 H445 0.929 . S
N440 Mn433 2.257 . S
N440 C439 1.326 . S
N440 C444 1.362 . S
C441 C442 1.258 . S
C441 C444 1.431 . S
C441 C461 1.449 . S
C442 C441 1.258 . S
C442 C443 1.477 . S
C442 H462 0.931 . S
C443 C439 1.460 . S
C443 C442 1.477 . S
C443 H463 0.930 . S
C444 N440 1.362 . S
C444 C441 1.431 . S
C444 C454 1.476 . S
H445 C439 0.929 . S
C446 O437 1.250 1_655 S
C446 O438 1.258 . S
O447 Mn432 2.162 . S
O447 C435 1.281 . S
O448 Mn432 2.297 . S
O448 C435 1.236 . S
N449 Mn433 2.282 . S
N449 C450 1.328 . S
N449 C454 1.318 . S
C450 N449 1.328 . S
C450 C451 1.457 . S
C450 H455 0.929 . S
C451 C450 1.457 . S
C451 C452 1.291 . S
C451 H464 0.931 . S
C452 C451 1.291 . S
C452 C453 1.373 . S
C452 H465 0.929 . S
C453 C452 1.373 . S
C453 C454 1.396 . S
C453 C460 1.403 . S
C454 C444 1.476 . S
C454 N449 1.318 . S
C454 C453 1.396 . S
H455 C450 0.929 . S
O456 Mn432 2.385 1_655 S
O456 C434 1.234 . S
O457 Mn432 2.209 1_655 S
O457 Mn433 2.215 . S
O457 C434 1.283 . S
O458 Mn432 2.094 . S
O458 C436 1.240 . S
O459 Mn433 2.117 . S
O459 C436 1.264 1_655 S
C460 C453 1.403 . S
C460 C461 1.399 . S
C460 H466 0.929 . S
C461 C441 1.449 . S
C461 C460 1.399 . S
C461 H467 0.930 . S
H462 C442 0.931 . S
H463 C443 0.930 . S
H464 C451 0.931 . S
H465 C452 0.929 . S
H466 C460 0.929 . S
H467 C461 0.930 . S
Mn468 O473 2.095 . S
Mn468 O483 2.162 . S
Mn468 O484 2.297 . S
Mn468 O492 2.385 . S
Mn468 O493 2.209 . S
Mn468 O494 2.094 . S
Mn469 O474 2.121 . S
Mn469 N476 2.257 . S
Mn469 N485 2.282 . S
Mn469 O493 2.215 . S
Mn469 O495 2.117 . S
C470 O492 1.234 . S
C470 O493 1.283 . S
C471 O483 1.281 . S
C471 O484 1.236 . S
C472 O494 1.240 . S
C472 O495 1.264 . S
O473 Mn468 2.095 . S
O473 C482 1.250 . S
O474 Mn469 2.121 . S
O474 C482 1.258 . S
C475 N476 1.326 . S
C475 C479 1.460 . S
C475 H481 0.929 . S
N476 Mn469 2.257 . S
N476 C475 1.326 . S
N476 C480 1.362 . S
C477 C478 1.258 . S
C477 C480 1.431 . S
C477 C497 1.449 . S
C478 C477 1.258 . S
C478 C479 1.477 . S
C478 H498 0.931 . S
C479 C475 1.460 . S
C479 C478 1.477 . S
C479 H499 0.930 . S
C480 N476 1.362 . S
C480 C477 1.431 . S
C480 C490 1.476 . S
H481 C475 0.929 . S
C482 O473 1.250 . S
C482 O474 1.258 . S
O483 Mn468 2.162 . S
O483 C471 1.281 . S
O484 Mn468 2.297 . S
O484 C471 1.236 . S
N485 Mn469 2.282 . S
N485 C486 1.328 . S
N485 C490 1.318 . S
C486 N485 1.328 . S
C486 C487 1.457 . S
C486 H491 0.929 . S
C487 C486 1.457 . S
C487 C488 1.291 . S
C487 H500 0.931 . S
C488 C487 1.291 . S
C488 C489 1.373 . S
C488 H501 0.929 . S
C489 C488 1.373 . S
C489 C490 1.396 . S
C489 C496 1.403 . S
C490 C480 1.476 . S
C490 N485 1.318 . S
C490 C489 1.396 . S
H491 C486 0.929 . S
O492 Mn468 2.385 . S
O492 C470 1.234 . S
O493 Mn468 2.209 . S
O493 Mn469 2.215 . S
O493 C470 1.283 . S
O494 Mn468 2.094 . S
O494 C472 1.240 . S
O495 Mn469 2.117 . S
O495 C472 1.264 . S
C496 C489 1.403 . S
C496 C497 1.399 . S
C496 H502 0.929 . S
C497 C477 1.449 . S
C497 C496 1.399 . S
C497 H503 0.930 . S
H498 C478 0.931 . S
H499 C479 0.930 . S
H500 C487 0.931 . S
H501 C488 0.929 . S
H502 C496 0.929 . S
H503 C497 0.930 . S
Mn504 O509 2.095 1_455 S
Mn504 O519 2.162 . S
Mn504 O520 2.297 1_455 S
Mn504 O528 2.385 . S
Mn504 O529 2.209 1_455 S
Mn504 O530 2.094 . S
Mn505 O510 2.121 . S
Mn505 N512 2.257 . S
Mn505 N521 2.282 1_655 S
Mn505 O529 2.215 . S
Mn505 O531 2.117 1_655 S
C506 O528 1.234 . S
C506 O529 1.283 1_455 S
C507 O519 1.281 . S
C507 O520 1.236 1_455 S
C508 O530 1.240 . S
C508 O531 1.264 . S
O509 Mn504 2.095 1_655 S
O509 C518 1.250 . S
O510 Mn505 2.121 . S
O510 C518 1.258 . S
C511 N512 1.326 . S
C511 C515 1.460 . S
C511 H517 0.929 . S
N512 Mn505 2.257 . S
N512 C511 1.326 . S
N512 C516 1.362 . S
C513 C514 1.258 . S
C513 C516 1.431 . S
C513 C533 1.449 . S
C514 C513 1.258 . S
C514 C515 1.477 . S
C514 H534 0.931 . S
C515 C511 1.460 . S
C515 C514 1.477 . S
C515 H535 0.930 . S
C516 N512 1.362 . S
C516 C513 1.431 . S
C516 C526 1.476 . S
H517 C511 0.929 . S
C518 O509 1.250 . S
C518 O510 1.258 . S
O519 Mn504 2.162 . S
O519 C507 1.281 . S
O520 Mn504 2.297 1_655 S
O520 C507 1.236 1_655 S
N521 Mn505 2.282 1_455 S
N521 C522 1.328 . S
N521 C526 1.318 1_455 S
C522 N521 1.328 . S
C522 C523 1.457 . S
C522 H527 0.929 . S
C523 C522 1.457 . S
C523 C524 1.291 . S
C523 H536 0.931 . S
C524 C523 1.291 . S
C524 C525 1.373 1_455 S
C524 H537 0.929 . S
C525 C524 1.373 1_655 S
C525 C526 1.396 . S
C525 C532 1.403 . S
C526 C516 1.476 . S
C526 N521 1.318 1_655 S
C526 C525 1.396 . S
H527 C522 0.929 . S
O528 Mn504 2.385 . S
O528 C506 1.234 . S
O529 Mn504 2.209 1_655 S
O529 Mn505 2.215 . S
O529 C506 1.283 1_655 S
O530 Mn504 2.094 . S
O530 C508 1.240 . S
O531 Mn505 2.117 1_455 S
O531 C508 1.264 . S
C532 C525 1.403 . S
C532 C533 1.399 . S
C532 H538 0.929 . S
C533 C513 1.449 . S
C533 C532 1.399 . S
C533 H539 0.930 . S
H534 C514 0.931 . S
H535 C515 0.930 . S
H536 C523 0.931 . S
H537 C524 0.929 . S
H538 C532 0.929 . S
H539 C533 0.930 . S
Mn540 O545 2.095 . S
Mn540 O555 2.162 . S
Mn540 O556 2.297 . S
Mn540 O564 2.385 . S
Mn540 O565 2.209 . S
Mn540 O566 2.094 . S
Mn541 O546 2.121 . S
Mn541 N548 2.257 . S
Mn541 N557 2.282 . S
Mn541 O565 2.215 . S
Mn541 O567 2.117 . S
C542 O564 1.234 . S
C542 O565 1.283 . S
C543 O555 1.281 . S
C543 O556 1.236 . S
C544 O566 1.240 . S
C544 O567 1.264 . S
O545 Mn540 2.095 . S
O545 C554 1.250 . S
O546 Mn541 2.121 . S
O546 C554 1.258 . S
C547 N548 1.326 . S
C547 C551 1.460 . S
C547 H553 0.929 . S
N548 Mn541 2.257 . S
N548 C547 1.326 . S
N548 C552 1.362 . S
C549 C550 1.258 . S
C549 C552 1.431 . S
C549 C569 1.449 . S
C550 C549 1.258 . S
C550 C551 1.477 . S
C550 H570 0.931 . S
C551 C547 1.460 . S
C551 C550 1.477 . S
C551 H571 0.930 . S
C552 N548 1.362 . S
C552 C549 1.431 . S
C552 C562 1.476 . S
H553 C547 0.929 . S
C554 O545 1.250 . S
C554 O546 1.258 . S
O555 Mn540 2.162 . S
O555 C543 1.281 . S
O556 Mn540 2.297 . S
O556 C543 1.236 . S
N557 Mn541 2.282 . S
N557 C558 1.328 . S
N557 C562 1.318 . S
C558 N557 1.328 . S
C558 C559 1.457 . S
C558 H563 0.929 . S
C559 C558 1.457 . S
C559 C560 1.291 . S
C559 H572 0.931 . S
C560 C559 1.291 . S
C560 C561 1.373 . S
C560 H573 0.929 . S
C561 C560 1.373 . S
C561 C562 1.396 . S
C561 C568 1.403 . S
C562 C552 1.476 . S
C562 N557 1.318 . S
C562 C561 1.396 . S
H563 C558 0.929 . S
O564 Mn540 2.385 . S
O564 C542 1.234 . S
O565 Mn540 2.209 . S
O565 Mn541 2.215 . S
O565 C542 1.283 . S
O566 Mn540 2.094 . S
O566 C544 1.240 . S
O567 Mn541 2.117 . S
O567 C544 1.264 . S
C568 C561 1.403 . S
C568 C569 1.399 . S
C568 H574 0.929 . S
C569 C549 1.449 . S
C569 C568 1.399 . S
C569 H575 0.930 . S
H570 C550 0.931 . S
H571 C551 0.930 . S
H572 C559 0.931 . S
H573 C560 0.929 . S
H574 C568 0.929 . S
H575 C569 0.930 . S
H576 C584 0.929 . S
H577 C586 0.930 . S
H578 C588 0.930 . S
H579 C591 0.929 . S
H580 C594 0.930 . S
H581 C596 0.960 . S
H582 C596 0.960 . S
H583 C596 0.960 . S
C584 H576 0.929 . S
C584 C585 1.377 . S
C584 C586 1.384 . S
C585 C584 1.377 . S
C585 C591 1.390 . S
C586 H577 0.930 . S
C586 C584 1.384 . S
C586 C587 1.372 . S
C587 C586 1.372 . S
C587 C588 1.400 . S
C587 C592 1.490 . S
C588 H578 0.930 . S
C588 C587 1.400 . S
C588 C591 1.386 . S
H589 C605 0.930 . S
H590 C606 0.931 . S
C591 H579 0.929 . S
C591 C585 1.390 . S
C591 C588 1.386 . S
C592 C587 1.490 . S
C592 C594 1.395 . S
C592 C595 1.403 . S
H593 C599 0.930 . S
C594 H580 0.930 . S
C594 C592 1.395 . S
C594 C597 1.403 . S
C595 C592 1.403 . S
C595 C596 1.524 . S
C595 C599 1.400 . S
C596 H581 0.960 . S
C596 H582 0.960 . S
C596 H583 0.960 . S
C596 C595 1.524 . S
C597 C594 1.403 . S
C597 C598 1.392 . S
C597 C601 1.495 . S
C598 C597 1.392 . S
C598 C599 1.385 . S
C598 C600 1.478 . S
C599 H593 0.930 . S
C599 C595 1.400 . S
C599 C598 1.385 . S
C600 C598 1.478 . S
C600 C602 1.381 . S
C600 C606 1.383 . S
C601 C597 1.495 . S
C601 H607 0.959 . S
C601 H608 0.961 . S
C601 H609 0.960 . S
C602 C600 1.381 . S
C602 C603 1.394 . S
C602 H610 0.930 . S
C603 C602 1.394 . S
C603 C604 1.383 . S
C603 H611 0.929 . S
C604 C603 1.383 . S
C604 C605 1.377 . S
C605 H589 0.930 . S
C605 C604 1.377 . S
C605 C606 1.379 . S
C606 H590 0.931 . S
C606 C600 1.383 . S
C606 C605 1.379 . S
H607 C601 0.959 . S
H608 C601 0.961 . S
H609 C601 0.960 . S
H610 C602 0.930 . S
H611 C603 0.929 . S
H612 C620 0.929 1_655 S
H613 C622 0.930 . S
H614 C624 0.930 . S
H615 C627 0.929 . S
H616 C630 0.930 . S
H617 C632 0.960 . S
H618 C632 0.960 . S
H619 C632 0.960 . S
C620 H612 0.929 1_455 S
C620 C621 1.376 . S
C620 C622 1.384 . S
C621 C620 1.376 . S
C621 C627 1.387 . S
C622 H613 0.930 . S
C622 C620 1.384 . S
C622 C623 1.372 . S
C623 C622 1.372 . S
C623 C624 1.400 . S
C623 C628 1.490 . S
C624 H614 0.930 . S
C624 C623 1.400 . S
C624 C627 1.386 . S
H625 C641 0.930 . S
H626 C642 0.931 . S
C627 H615 0.929 . S
C627 C621 1.387 . S
C627 C624 1.386 . S
C628 C623 1.490 . S
C628 C630 1.395 . S
C628 C631 1.403 . S
H629 C635 0.930 . S
C630 H616 0.930 . S
C630 C628 1.395 . S
C630 C633 1.403 . S
C631 C628 1.403 . S
C631 C632 1.524 . S
C631 C635 1.400 . S
C632 H617 0.960 . S
C632 H618 0.960 . S
C632 H619 0.960 . S
C632 C631 1.524 . S
C633 C630 1.403 . S
C633 C634 1.392 . S
C633 C637 1.495 . S
C634 C633 1.392 . S
C634 C635 1.385 . S
C634 C636 1.478 . S
C635 H629 0.930 . S
C635 C631 1.400 . S
C635 C634 1.385 . S
C636 C634 1.478 . S
C636 C638 1.381 . S
C636 C642 1.383 . S
C637 C633 1.495 . S
C637 H643 0.959 . S
C637 H644 0.961 . S
C637 H645 0.960 . S
C638 C636 1.381 . S
C638 C639 1.394 . S
C638 H646 0.930 . S
C639 C638 1.394 . S
C639 C640 1.383 . S
C639 H647 0.929 . S
C640 C639 1.383 . S
C640 C641 1.377 . S
C641 H625 0.930 . S
C641 C640 1.377 . S
C641 C642 1.379 . S
C642 H626 0.931 . S
C642 C636 1.383 . S
C642 C641 1.379 . S
H643 C637 0.959 . S
H644 C637 0.961 . S
H645 C637 0.960 . S
H646 C638 0.930 . S
H647 C639 0.929 . S
H648 C656 0.929 . S
H649 C658 0.930 . S
H650 C660 0.930 . S
H651 C663 0.929 . S
H652 C666 0.930 . S
H653 C668 0.960 . S
H654 C668 0.960 . S
H655 C668 0.960 . S
C656 H648 0.929 . S
C656 C657 1.377 . S
C656 C658 1.384 . S
C657 C656 1.377 . S
C657 C663 1.390 . S
C658 H649 0.930 . S
C658 C656 1.384 . S
C658 C659 1.372 . S
C659 C658 1.372 . S
C659 C660 1.400 . S
C659 C664 1.490 . S
C660 H650 0.930 . S
C660 C659 1.400 . S
C660 C663 1.386 . S
H661 C677 0.930 . S
H662 C678 0.931 . S
C663 H651 0.929 . S
C663 C657 1.390 . S
C663 C660 1.386 . S
C664 C659 1.490 . S
C664 C666 1.395 . S
C664 C667 1.403 . S
H665 C671 0.930 . S
C666 H652 0.930 . S
C666 C664 1.395 . S
C666 C669 1.403 . S
C667 C664 1.403 . S
C667 C668 1.524 . S
C667 C671 1.400 . S
C668 H653 0.960 . S
C668 H654 0.960 . S
C668 H655 0.960 . S
C668 C667 1.524 . S
C669 C666 1.403 . S
C669 C670 1.392 . S
C669 C673 1.495 . S
C670 C669 1.392 . S
C670 C671 1.385 . S
C670 C672 1.478 . S
C671 H665 0.930 . S
C671 C667 1.400 . S
C671 C670 1.385 . S
C672 C670 1.478 . S
C672 C674 1.381 . S
C672 C678 1.383 . S
C673 C669 1.495 . S
C673 H679 0.959 . S
C673 H680 0.961 . S
C673 H681 0.960 . S
C674 C672 1.381 . S
C674 C675 1.394 . S
C674 H682 0.930 . S
C675 C674 1.394 . S
C675 C676 1.383 . S
C675 H683 0.929 . S
C676 C675 1.383 . S
C676 C677 1.377 . S
C677 H661 0.930 . S
C677 C676 1.377 . S
C677 C678 1.379 . S
C678 H662 0.931 . S
C678 C672 1.383 . S
C678 C677 1.379 . S
H679 C673 0.959 . S
H680 C673 0.961 . S
H681 C673 0.960 . S
H682 C674 0.930 . S
H683 C675 0.929 . S
H684 C692 0.929 1_545 S
H685 C694 0.899 1_545 S
H686 C696 0.930 . S
H687 C699 0.929 . S
H688 C702 0.930 . S
H689 C704 0.960 . S
H690 C704 0.960 . S
H691 C704 0.960 . S
C692 H684 0.929 1_565 S
C692 C693 1.377 . S
C692 C694 1.391 . S
C693 C692 1.377 . S
C693 C699 1.390 1_455 S
C694 H685 0.899 1_565 S
C694 C692 1.391 . S
C694 C695 1.396 1_455 S
C695 C694 1.396 1_655 S
C695 C696 1.400 . S
C695 C700 1.490 . S
C696 H686 0.930 . S
C696 C695 1.400 . S
C696 C699 1.386 . S
H697 C713 0.930 . S
H698 C714 0.931 . S
C699 H687 0.929 . S
C699 C693 1.390 1_655 S
C699 C696 1.386 . S
C700 C695 1.490 . S
C700 C702 1.395 . S
C700 C703 1.403 . S
H701 C707 0.930 . S
C702 H688 0.930 . S
C702 C700 1.395 . S
C702 C705 1.403 . S
C703 C700 1.403 . S
C703 C704 1.524 . S
C703 C707 1.400 . S
C704 H689 0.960 . S
C704 H690 0.960 . S
C704 H691 0.960 . S
C704 C703 1.524 . S
C705 C702 1.403 . S
C705 C706 1.392 . S
C705 C709 1.495 . S
C706 C705 1.392 . S
C706 C707 1.385 . S
C706 C708 1.478 . S
C707 H701 0.930 . S
C707 C703 1.400 . S
C707 C706 1.385 . S
C708 C706 1.478 . S
C708 C710 1.381 1_565 S
C708 C714 1.383 . S
C709 C705 1.495 . S
C709 H715 0.959 . S
C709 H716 0.961 . S
C709 H717 0.960 1_565 S
C710 C708 1.381 1_545 S
C710 C711 1.394 . S
C710 H718 0.930 . S
C711 C710 1.394 . S
C711 C712 1.383 . S
C711 H719 0.929 . S
C712 C711 1.383 . S
C712 C713 1.377 1_545 S
C713 H697 0.930 . S
C713 C712 1.377 1_565 S
C713 C714 1.379 . S
C714 H698 0.931 . S
C714 C708 1.383 . S
C714 C713 1.379 . S
H715 C709 0.959 . S
H716 C709 0.961 . S
H717 C709 0.960 1_545 S
H718 C710 0.930 . S
H719 C711 0.929 . S
H720 C728 0.929 . S
H721 C730 0.930 . S
H722 C732 0.930 . S
H723 C735 0.929 . S
H724 C738 0.930 . S
H725 C740 0.960 . S
H726 C740 0.960 . S
H727 C740 0.960 . S
C728 H720 0.929 . S
C728 C729 1.377 . S
C728 C730 1.384 . S
C729 C728 1.377 . S
C729 C735 1.390 . S
C730 H721 0.930 . S
C730 C728 1.384 . S
C730 C731 1.372 . S
C731 C730 1.372 . S
C731 C732 1.400 . S
C731 C736 1.490 . S
C732 H722 0.930 . S
C732 C731 1.400 . S
C732 C735 1.386 . S
H733 C749 0.930 . S
H734 C750 0.931 . S
C735 H723 0.929 . S
C735 C729 1.390 . S
C735 C732 1.386 . S
C736 C731 1.490 . S
C736 C738 1.395 . S
C736 C739 1.403 . S
H737 C743 0.930 . S
C738 H724 0.930 . S
C738 C736 1.395 . S
C738 C741 1.403 . S
C739 C736 1.403 . S
C739 C740 1.524 . S
C739 C743 1.400 . S
C740 H725 0.960 . S
C740 H726 0.960 . S
C740 H727 0.960 . S
C740 C739 1.524 . S
C741 C738 1.403 . S
C741 C742 1.392 . S
C741 C745 1.495 . S
C742 C741 1.392 . S
C742 C743 1.385 . S
C742 C744 1.478 . S
C743 H737 0.930 . S
C743 C739 1.400 . S
C743 C742 1.385 . S
C744 C742 1.478 . S
C744 C746 1.381 . S
C744 C750 1.383 . S
C745 C741 1.495 . S
C745 H751 0.959 . S
C745 H752 0.961 . S
C745 H753 0.960 . S
C746 C744 1.381 . S
C746 C747 1.394 . S
C746 H754 0.930 . S
C747 C746 1.394 . S
C747 C748 1.383 . S
C747 H755 0.929 . S
C748 C747 1.383 . S
C748 C749 1.377 . S
C749 H733 0.930 . S
C749 C748 1.377 . S
C749 C750 1.379 . S
C750 H734 0.931 . S
C750 C744 1.383 . S
C750 C749 1.379 . S
H751 C745 0.959 . S
H752 C745 0.961 . S
H753 C745 0.960 . S
H754 C746 0.930 . S
H755 C747 0.929 . S
H756 C764 0.929 . S
H757 C766 0.930 . S
H758 C768 0.930 . S
H759 C771 0.929 . S
H760 C774 0.930 . S
H761 C776 0.960 . S
H762 C776 0.960 . S
H763 C776 0.960 . S
C764 H756 0.929 . S
C764 C765 1.377 . S
C764 C766 1.384 . S
C765 C764 1.377 . S
C765 C771 1.390 . S
C766 H757 0.930 . S
C766 C764 1.384 . S
C766 C767 1.372 . S
C767 C766 1.372 . S
C767 C768 1.400 . S
C767 C772 1.490 . S
C768 H758 0.930 . S
C768 C767 1.400 . S
C768 C771 1.386 . S
H769 C785 0.930 . S
H770 C786 0.931 . S
C771 H759 0.929 . S
C771 C765 1.390 . S
C771 C768 1.386 . S
C772 C767 1.490 . S
C772 C774 1.395 . S
C772 C775 1.403 . S
H773 C779 0.930 . S
C774 H760 0.930 . S
C774 C772 1.395 . S
C774 C777 1.403 . S
C775 C772 1.403 . S
C775 C776 1.524 . S
C775 C779 1.400 . S
C776 H761 0.960 . S
C776 H762 0.960 . S
C776 H763 0.960 . S
C776 C775 1.524 . S
C777 C774 1.403 . S
C777 C778 1.392 . S
C777 C781 1.495 . S
C778 C777 1.392 . S
C778 C779 1.385 . S
C778 C780 1.478 . S
C779 H773 0.930 . S
C779 C775 1.400 . S
C779 C778 1.385 . S
C780 C778 1.478 . S
C780 C782 1.381 . S
C780 C786 1.383 . S
C781 C777 1.495 . S
C781 H787 0.959 . S
C781 H788 0.961 . S
C781 H789 0.960 . S
C782 C780 1.381 . S
C782 C783 1.394 . S
C782 H790 0.930 . S
C783 C782 1.394 . S
C783 C784 1.383 . S
C783 H791 0.929 . S
C784 C783 1.383 . S
C784 C785 1.377 . S
C785 H769 0.930 . S
C785 C784 1.377 . S
C785 C786 1.379 . S
C786 H770 0.931 . S
C786 C780 1.383 . S
C786 C785 1.379 . S
H787 C781 0.959 . S
H788 C781 0.961 . S
H789 C781 0.960 . S
H790 C782 0.930 . S
H791 C783 0.929 . S
H792 C800 0.929 . S
H793 C802 0.930 . S
H794 C804 0.930 . S
H795 C807 0.929 . S
H796 C810 0.930 . S
H797 C812 0.960 . S
H798 C812 0.960 . S
H799 C812 0.960 . S
C800 H792 0.929 . S
C800 C801 1.377 . S
C800 C802 1.384 . S
C801 C800 1.377 . S
C801 C807 1.390 . S
C802 H793 0.930 . S
C802 C800 1.384 . S
C802 C803 1.372 . S
C803 C802 1.372 . S
C803 C804 1.400 . S
C803 C808 1.490 . S
C804 H794 0.930 . S
C804 C803 1.400 . S
C804 C807 1.386 . S
H805 C821 0.930 . S
H806 C822 0.931 . S
C807 H795 0.929 . S
C807 C801 1.390 . S
C807 C804 1.386 . S
C808 C803 1.490 . S
C808 C810 1.395 . S
C808 C811 1.403 . S
H809 C815 0.930 . S
C810 H796 0.930 . S
C810 C808 1.395 . S
C810 C813 1.403 . S
C811 C808 1.403 . S
C811 C812 1.524 . S
C811 C815 1.400 . S
C812 H797 0.960 . S
C812 H798 0.960 . S
C812 H799 0.960 . S
C812 C811 1.524 . S
C813 C810 1.403 . S
C813 C814 1.392 . S
C813 C817 1.495 . S
C814 C813 1.392 . S
C814 C815 1.385 . S
C814 C816 1.478 . S
C815 H809 0.930 . S
C815 C811 1.400 . S
C815 C814 1.385 . S
C816 C814 1.478 . S
C816 C818 1.381 . S
C816 C822 1.383 . S
C817 C813 1.495 . S
C817 H823 0.959 . S
C817 H824 0.961 . S
C817 H825 0.960 . S
C818 C816 1.381 . S
C818 C819 1.394 . S
C818 H826 0.930 . S
C819 C818 1.394 . S
C819 C820 1.383 . S
C819 H827 0.929 . S
C820 C819 1.383 . S
C820 C821 1.377 . S
C821 H805 0.930 . S
C821 C820 1.377 . S
C821 C822 1.379 . S
C822 H806 0.931 . S
C822 C816 1.383 . S
C822 C821 1.379 . S
H823 C817 0.959 . S
H824 C817 0.961 . S
H825 C817 0.960 . S
H826 C818 0.930 . S
H827 C819 0.929 . S
H828 C836 0.929 . S
H829 C838 0.930 . S
H830 C840 0.930 . S
H831 C843 0.929 . S
H832 C846 0.930 . S
H833 C848 0.960 . S
H834 C848 0.960 . S
H835 C848 0.960 . S
C836 H828 0.929 . S
C836 C837 1.377 . S
C836 C838 1.384 . S
C837 C836 1.377 . S
C837 C843 1.390 . S
C838 H829 0.930 . S
C838 C836 1.384 . S
C838 C839 1.372 . S
C839 C838 1.372 . S
C839 C840 1.400 . S
C839 C844 1.490 . S
C840 H830 0.930 . S
C840 C839 1.400 . S
C840 C843 1.386 . S
H841 C857 0.930 . S
H842 C858 0.931 . S
C843 H831 0.929 . S
C843 C837 1.390 . S
C843 C840 1.386 . S
C844 C839 1.490 . S
C844 C846 1.395 1_565 S
C844 C847 1.403 . S
H845 C851 0.930 . S
C846 H832 0.930 . S
C846 C844 1.395 1_545 S
C846 C849 1.403 . S
C847 C844 1.403 . S
C847 C848 1.524 . S
C847 C851 1.400 . S
C848 H833 0.960 . S
C848 H834 0.960 . S
C848 H835 0.960 . S
C848 C847 1.524 . S
C849 C846 1.403 . S
C849 C850 1.392 1_545 S
C849 C853 1.495 . S
C850 C849 1.392 1_565 S
C850 C851 1.385 . S
C850 C852 1.478 . S
C851 H845 0.930 . S
C851 C847 1.400 . S
C851 C850 1.385 . S
C852 C850 1.478 . S
C852 C854 1.381 . S
C852 C858 1.383 . S
C853 C849 1.495 . S
C853 H859 0.959 . S
C853 H860 0.961 . S
C853 H861 0.960 . S
C854 C852 1.381 . S
C854 C855 1.394 . S
C854 H862 0.930 . S
C855 C854 1.394 . S
C855 C856 1.383 . S
C855 H863 0.930 . S
C856 C855 1.383 . S
C856 C857 1.377 . S
C857 H841 0.930 . S
C857 C856 1.377 . S
C857 C858 1.379 . S
C858 H842 0.931 . S
C858 C852 1.383 . S
C858 C857 1.379 . S
H859 C853 0.959 . S
H860 C853 0.961 . S
H861 C853 0.960 . S
H862 C854 0.930 . S
H863 C855 0.930 . S
H864 C872 0.929 . S
H865 C874 0.930 . S
H866 C876 0.930 . S
H867 C879 0.929 . S
H868 C882 0.930 . S
H869 C884 0.960 . S
H870 C884 0.960 . S
H871 C884 0.960 . S
C872 H864 0.929 . S
C872 C873 1.377 . S
C872 C874 1.384 . S
C873 C872 1.377 . S
C873 C879 1.390 . S
C874 H865 0.930 . S
C874 C872 1.384 . S
C874 C875 1.372 . S
C875 C874 1.372 . S
C875 C876 1.400 . S
C875 C880 1.490 . S
C876 H866 0.930 . S
C876 C875 1.400 . S
C876 C879 1.386 . S
H877 C893 0.930 . S
H878 C894 0.931 . S
C879 H867 0.929 . S
C879 C873 1.390 . S
C879 C876 1.386 . S
C880 C875 1.490 . S
C880 C882 1.395 . S
C880 C883 1.403 . S
H881 C887 0.930 . S
C882 H868 0.930 . S
C882 C880 1.395 . S
C882 C885 1.403 . S
C883 C880 1.403 . S
C883 C884 1.524 . S
C883 C887 1.400 . S
C884 H869 0.960 . S
C884 H870 0.960 . S
C884 H871 0.960 . S
C884 C883 1.524 . S
C885 C882 1.403 . S
C885 C886 1.392 . S
C885 C889 1.495 . S
C886 C885 1.392 . S
C886 C887 1.385 . S
C886 C888 1.478 . S
C887 H881 0.930 . S
C887 C883 1.400 . S
C887 C886 1.385 . S
C888 C886 1.478 . S
C888 C890 1.381 . S
C888 C894 1.383 . S
C889 C885 1.495 . S
C889 H895 0.959 . S
C889 H896 0.961 . S
C889 H897 0.960 . S
C890 C888 1.381 . S
C890 C891 1.394 . S
C890 H898 0.930 . S
C891 C890 1.394 . S
C891 C892 1.383 . S
C891 H899 0.929 . S
C892 C891 1.383 . S
C892 C893 1.377 . S
C893 H877 0.930 . S
C893 C892 1.377 . S
C893 C894 1.379 . S
C894 H878 0.931 . S
C894 C888 1.383 . S
C894 C893 1.379 . S
H895 C889 0.959 . S
H896 C889 0.961 . S
H897 C889 0.960 . S
H898 C890 0.930 . S
H899 C891 0.929 . S
H900 C908 0.929 . S
H901 C910 0.930 . S
H902 C912 0.930 . S
H903 C915 0.929 . S
H904 C918 0.930 . S
H905 C920 0.960 . S
H906 C920 0.960 . S
H907 C920 0.960 . S
C908 H900 0.929 . S
C908 C909 1.377 . S
C908 C910 1.384 . S
C909 C908 1.377 . S
C909 C915 1.390 . S
C910 H901 0.930 . S
C910 C908 1.384 . S
C910 C911 1.372 . S
C911 C910 1.372 . S
C911 C912 1.400 . S
C911 C916 1.490 . S
C912 H902 0.930 . S
C912 C911 1.400 . S
C912 C915 1.386 . S
H913 C929 0.930 . S
H914 C930 0.931 . S
C915 H903 0.929 . S
C915 C909 1.390 . S
C915 C912 1.386 . S
C916 C911 1.490 . S
C916 C918 1.395 . S
C916 C919 1.403 . S
H917 C923 0.930 . S
C918 H904 0.930 . S
C918 C916 1.395 . S
C918 C921 1.403 . S
C919 C916 1.403 . S
C919 C920 1.524 . S
C919 C923 1.400 . S
C920 H905 0.960 . S
C920 H906 0.960 . S
C920 H907 0.960 . S
C920 C919 1.524 . S
C921 C918 1.403 . S
C921 C922 1.392 . S
C921 C925 1.495 . S
C922 C921 1.392 . S
C922 C923 1.385 . S
C922 C924 1.478 . S
C923 H917 0.930 . S
C923 C919 1.400 . S
C923 C922 1.385 . S
C924 C922 1.478 . S
C924 C926 1.381 . S
C924 C930 1.383 . S
C925 C921 1.495 . S
C925 H931 0.959 . S
C925 H932 0.961 . S
C925 H933 0.960 . S
C926 C924 1.381 . S
C926 C927 1.394 . S
C926 H934 0.930 . S
C927 C926 1.394 . S
C927 C928 1.383 . S
C927 H935 0.929 . S
C928 C927 1.383 . S
C928 C929 1.377 . S
C929 H913 0.930 . S
C929 C928 1.377 . S
C929 C930 1.379 . S
C930 H914 0.931 . S
C930 C924 1.383 . S
C930 C929 1.379 . S
H931 C925 0.959 . S
H932 C925 0.961 . S
H933 C925 0.960 . S
H934 C926 0.930 . S
H935 C927 0.929 . S
H936 C944 0.929 . S
H937 C946 0.930 . S
H938 C948 0.930 . S
H939 C951 0.929 . S
H940 C954 0.930 . S
H941 C956 0.960 . S
H942 C956 0.960 . S
H943 C956 0.960 . S
C944 H936 0.929 . S
C944 C945 1.377 . S
C944 C946 1.384 . S
C945 C944 1.377 . S
C945 C951 1.390 . S
C946 H937 0.930 . S
C946 C944 1.384 . S
C946 C947 1.372 . S
C947 C946 1.372 . S
C947 C948 1.400 . S
C947 C952 1.490 . S
C948 H938 0.930 . S
C948 C947 1.400 . S
C948 C951 1.386 . S
H949 C965 0.930 . S
H950 C966 0.931 . S
C951 H939 0.929 . S
C951 C945 1.390 . S
C951 C948 1.386 . S
C952 C947 1.490 . S
C952 C954 1.395 . S
C952 C955 1.403 . S
H953 C959 0.930 . S
C954 H940 0.930 . S
C954 C952 1.395 . S
C954 C957 1.403 . S
C955 C952 1.403 . S
C955 C956 1.524 . S
C955 C959 1.400 . S
C956 H941 0.960 . S
C956 H942 0.960 . S
C956 H943 0.960 . S
C956 C955 1.524 . S
C957 C954 1.403 . S
C957 C958 1.392 . S
C957 C961 1.495 . S
C958 C957 1.392 . S
C958 C959 1.385 . S
C958 C960 1.478 . S
C959 H953 0.930 . S
C959 C955 1.400 . S
C959 C958 1.385 . S
C960 C958 1.478 . S
C960 C962 1.381 . S
C960 C966 1.383 . S
C961 C957 1.495 . S
C961 H967 0.959 . S
C961 H968 0.961 . S
C961 H969 0.960 . S
C962 C960 1.381 . S
C962 C963 1.394 . S
C962 H970 0.930 . S
C963 C962 1.394 . S
C963 C964 1.383 . S
C963 H971 0.929 . S
C964 C963 1.383 . S
C964 C965 1.377 . S
C965 H949 0.930 . S
C965 C964 1.377 . S
C965 C966 1.379 . S
C966 H950 0.931 . S
C966 C960 1.383 . S
C966 C965 1.379 . S
H967 C961 0.959 . S
H968 C961 0.961 . S
H969 C961 0.960 . S
H970 C962 0.930 . S
H971 C963 0.929 . S
H972 C980 0.929 . S
H973 C982 0.930 . S
H974 C984 0.930 . S
H975 C987 0.929 . S
H976 C990 0.930 . S
H977 C992 0.960 . S
H978 C992 0.960 . S
H979 C992 0.960 . S
C980 H972 0.929 . S
C980 C981 1.377 . S
C980 C982 1.384 . S
C981 C980 1.377 . S
C981 C987 1.390 . S
C982 H973 0.930 . S
C982 C980 1.384 . S
C982 C983 1.372 . S
C983 C982 1.372 . S
C983 C984 1.400 . S
C983 C988 1.490 . S
C984 H974 0.930 . S
C984 C983 1.400 . S
C984 C987 1.386 . S
H985 C1001 0.930 . S
H986 C1002 0.931 . S
C987 H975 0.929 . S
C987 C981 1.390 . S
C987 C984 1.386 . S
C988 C983 1.490 . S
C988 C990 1.395 . S
C988 C991 1.403 . S
H989 C995 0.930 . S
C990 H976 0.930 . S
C990 C988 1.395 . S
C990 C993 1.403 . S
C991 C988 1.403 . S
C991 C992 1.524 . S
C991 C995 1.400 . S
C992 H977 0.960 . S
C992 H978 0.960 . S
C992 H979 0.960 . S
C992 C991 1.524 . S
C993 C990 1.403 . S
C993 C994 1.392 . S
C993 C997 1.495 . S
C994 C993 1.392 . S
C994 C995 1.385 . S
C994 C996 1.478 . S
C995 H989 0.930 . S
C995 C991 1.400 . S
C995 C994 1.385 . S
C996 C994 1.478 . S
C996 C998 1.381 . S
C996 C1002 1.383 . S
C997 C993 1.495 . S
C997 H1003 0.959 . S
C997 H1004 0.961 . S
C997 H1005 0.960 . S
C998 C996 1.381 . S
C998 C999 1.394 . S
C998 H1006 0.930 . S
C999 C998 1.394 . S
C999 C1000 1.383 . S
C999 H1007 0.929 . S
C1000 C999 1.383 . S
C1000 C1001 1.377 . S
C1001 H985 0.930 . S
C1001 C1000 1.377 . S
C1001 C1002 1.379 . S
C1002 H986 0.931 . S
C1002 C996 1.383 . S
C1002 C1001 1.379 . S
H1003 C997 0.959 . S
H1004 C997 0.961 . S
H1005 C997 0.960 . S
H1006 C998 0.930 . S
H1007 C999 0.929 . S
H1008 C1016 0.929 . S
H1009 C1018 0.930 . S
H1010 C1020 0.930 . S
H1011 C1023 0.929 . S
H1012 C1026 0.930 . S
H1013 C1028 0.960 . S
H1014 C1028 0.960 . S
H1015 C1028 0.960 . S
C1016 H1008 0.929 . S
C1016 C1017 1.377 . S
C1016 C1018 1.384 . S
C1017 C1016 1.377 . S
C1017 C1023 1.390 . S
C1018 H1009 0.930 . S
C1018 C1016 1.384 . S
C1018 C1019 1.372 . S
C1019 C1018 1.372 . S
C1019 C1020 1.400 . S
C1019 C1024 1.490 . S
C1020 H1010 0.930 . S
C1020 C1019 1.400 . S
C1020 C1023 1.386 . S
H1021 C1037 0.930 . S
H1022 C1038 0.931 . S
C1023 H1011 0.929 . S
C1023 C1017 1.390 . S
C1023 C1020 1.386 . S
C1024 C1019 1.490 . S
C1024 C1026 1.395 . S
C1024 C1027 1.403 . S
H1025 C1031 0.930 . S
C1026 H1012 0.930 . S
C1026 C1024 1.395 . S
C1026 C1029 1.403 . S
C1027 C1024 1.403 . S
C1027 C1028 1.524 . S
C1027 C1031 1.400 . S
C1028 H1013 0.960 . S
C1028 H1014 0.960 . S
C1028 H1015 0.960 . S
C1028 C1027 1.524 . S
C1029 C1026 1.403 . S
C1029 C1030 1.392 . S
C1029 C1033 1.495 . S
C1030 C1029 1.392 . S
C1030 C1031 1.385 . S
C1030 C1032 1.478 . S
C1031 H1025 0.930 . S
C1031 C1027 1.400 . S
C1031 C1030 1.385 . S
C1032 C1030 1.478 . S
C1032 C1034 1.381 . S
C1032 C1038 1.383 . S
C1033 C1029 1.495 . S
C1033 H1039 0.959 . S
C1033 H1040 0.961 . S
C1033 H1041 0.960 . S
C1034 C1032 1.381 . S
C1034 C1035 1.394 . S
C1034 H1042 0.930 . S
C1035 C1034 1.394 . S
C1035 C1036 1.383 . S
C1035 H1043 0.929 . S
C1036 C1035 1.383 . S
C1036 C1037 1.377 . S
C1037 H1021 0.930 . S
C1037 C1036 1.377 . S
C1037 C1038 1.379 . S
C1038 H1022 0.931 . S
C1038 C1032 1.383 . S
C1038 C1037 1.379 . S
H1039 C1033 0.959 . S
H1040 C1033 0.961 . S
H1041 C1033 0.960 . S
H1042 C1034 0.930 . S
H1043 C1035 0.929 . S
H1044 C1052 0.929 . S
H1045 C1054 0.930 . S
H1046 C1056 0.930 . S
H1047 C1059 0.929 . S
H1048 C1062 0.930 . S
H1049 C1064 0.960 . S
H1050 C1064 0.960 . S
H1051 C1064 0.960 . S
C1052 H1044 0.929 . S
C1052 C1053 1.377 . S
C1052 C1054 1.384 . S
C1053 C1052 1.377 . S
C1053 C1059 1.390 . S
C1054 H1045 0.930 . S
C1054 C1052 1.384 . S
C1054 C1055 1.372 . S
C1055 C1054 1.372 . S
C1055 C1056 1.400 . S
C1055 C1060 1.490 . S
C1056 H1046 0.930 . S
C1056 C1055 1.400 . S
C1056 C1059 1.386 . S
H1057 C1073 0.930 1_655 S
H1058 C1074 0.922 1_655 S
C1059 H1047 0.929 . S
C1059 C1053 1.390 . S
C1059 C1056 1.386 . S
C1060 C1055 1.490 . S
C1060 C1062 1.395 . S
C1060 C1063 1.403 . S
H1061 C1067 0.930 1_655 S
C1062 H1048 0.930 . S
C1062 C1060 1.395 . S
C1062 C1065 1.403 . S
C1063 C1060 1.403 . S
C1063 C1064 1.524 1_455 S
C1063 C1067 1.400 . S
C1064 H1049 0.960 . S
C1064 H1050 0.960 . S
C1064 H1051 0.960 . S
C1064 C1063 1.524 1_655 S
C1065 C1062 1.403 . S
C1065 C1066 1.392 . S
C1065 C1069 1.495 . S
C1066 C1065 1.392 . S
C1066 C1067 1.385 . S
C1066 C1068 1.478 . S
C1067 H1061 0.930 1_455 S
C1067 C1063 1.400 . S
C1067 C1066 1.385 . S
C1068 C1066 1.478 . S
C1068 C1070 1.381 . S
C1068 C1074 1.383 . S
C1069 C1065 1.495 . S
C1069 H1075 0.959 . S
C1069 H1076 0.961 . S
C1069 H1077 0.960 . S
C1070 C1068 1.381 . S
C1070 C1071 1.394 . S
C1070 H1078 0.930 . S
C1071 C1070 1.394 . S
C1071 C1072 1.383 . S
C1071 H1079 0.929 . S
C1072 C1071 1.383 . S
C1072 C1073 1.377 . S
C1073 H1057 0.930 1_455 S
C1073 C1072 1.377 . S
C1073 C1074 1.379 . S
C1074 H1058 0.922 1_455 S
C1074 C1068 1.383 . S
C1074 C1073 1.379 . S
H1075 C1069 0.959 . S
H1076 C1069 0.961 . S
H1077 C1069 0.960 . S
H1078 C1070 0.930 . S
H1079 C1071 0.929 . S
H1080 C1088 0.929 . S
H1081 C1090 0.930 . S
H1082 C1092 0.930 . S
H1083 C1095 0.929 . S
H1084 C1098 0.930 . S
H1085 C1100 0.960 . S
H1086 C1100 0.960 . S
H1087 C1100 0.960 . S
C1088 H1080 0.929 . S
C1088 C1089 1.377 . S
C1088 C1090 1.384 . S
C1089 C1088 1.377 . S
C1089 C1095 1.390 . S
C1090 H1081 0.930 . S
C1090 C1088 1.384 . S
C1090 C1091 1.372 . S
C1091 C1090 1.372 . S
C1091 C1092 1.400 . S
C1091 C1096 1.490 . S
C1092 H1082 0.930 . S
C1092 C1091 1.400 . S
C1092 C1095 1.386 . S
H1093 C1109 0.930 . S
H1094 C1110 0.931 . S
C1095 H1083 0.929 . S
C1095 C1089 1.390 . S
C1095 C1092 1.386 . S
C1096 C1091 1.490 . S
C1096 C1098 1.395 . S
C1096 C1099 1.403 . S
H1097 C1103 0.930 . S
C1098 H1084 0.930 . S
C1098 C1096 1.395 . S
C1098 C1101 1.403 . S
C1099 C1096 1.403 . S
C1099 C1100 1.524 . S
C1099 C1103 1.400 . S
C1100 H1085 0.960 . S
C1100 H1086 0.960 . S
C1100 H1087 0.960 . S
C1100 C1099 1.524 . S
C1101 C1098 1.403 . S
C1101 C1102 1.392 . S
C1101 C1105 1.495 . S
C1102 C1101 1.392 . S
C1102 C1103 1.385 . S
C1102 C1104 1.478 . S
C1103 H1097 0.930 . S
C1103 C1099 1.400 . S
C1103 C1102 1.385 . S
C1104 C1102 1.478 . S
C1104 C1106 1.381 . S
C1104 C1110 1.383 . S
C1105 C1101 1.495 . S
C1105 H1111 0.959 . S
C1105 H1112 0.961 . S
C1105 H1113 0.960 . S
C1106 C1104 1.381 . S
C1106 C1107 1.394 . S
C1106 H1114 0.930 . S
C1107 C1106 1.394 . S
C1107 C1108 1.383 . S
C1107 H1115 0.929 . S
C1108 C1107 1.383 . S
C1108 C1109 1.377 . S
C1109 H1093 0.930 . S
C1109 C1108 1.377 . S
C1109 C1110 1.379 . S
C1110 H1094 0.931 . S
C1110 C1104 1.383 . S
C1110 C1109 1.379 . S
H1111 C1105 0.959 . S
H1112 C1105 0.961 . S
H1113 C1105 0.960 . S
H1114 C1106 0.930 . S
H1115 C1107 0.929 . S
H1116 C1124 0.929 . S
H1117 C1126 0.930 . S
H1118 C1128 0.930 1_455 S
H1119 C1131 0.929 1_455 S
H1120 C1134 0.930 . S
H1121 C1136 0.960 . S
H1122 C1136 0.960 . S
H1123 C1136 0.960 1_455 S
C1124 H1116 0.929 . S
C1124 C1125 1.377 . S
C1124 C1126 1.384 . S
C1125 C1124 1.377 . S
C1125 C1131 1.390 . S
C1126 H1117 0.930 . S
C1126 C1124 1.384 . S
C1126 C1127 1.372 . S
C1127 C1126 1.372 . S
C1127 C1128 1.400 . S
C1127 C1132 1.490 . S
C1128 H1118 0.930 1_655 S
C1128 C1127 1.400 . S
C1128 C1131 1.386 . S
H1129 C1145 0.930 . S
H1130 C1146 0.931 . S
C1131 H1119 0.929 1_655 S
C1131 C1125 1.390 . S
C1131 C1128 1.386 . S
C1132 C1127 1.490 . S
C1132 C1134 1.395 . S
C1132 C1135 1.403 . S
H1133 C1139 0.930 . S
C1134 H1120 0.930 . S
C1134 C1132 1.395 . S
C1134 C1137 1.403 . S
C1135 C1132 1.403 . S
C1135 C1136 1.524 . S
C1135 C1139 1.400 . S
C1136 H1121 0.960 . S
C1136 H1122 0.960 . S
C1136 H1123 0.960 1_655 S
C1136 C1135 1.524 . S
C1137 C1134 1.403 . S
C1137 C1138 1.392 . S
C1137 C1141 1.495 . S
C1138 C1137 1.392 . S
C1138 C1139 1.385 . S
C1138 C1140 1.478 . S
C1139 H1133 0.930 . S
C1139 C1135 1.400 . S
C1139 C1138 1.385 . S
C1140 C1138 1.478 . S
C1140 C1142 1.381 . S
C1140 C1146 1.383 1_655 S
C1141 C1137 1.495 . S
C1141 H1147 0.959 . S
C1141 H1148 0.961 . S
C1141 H1149 0.960 . S
C1142 C1140 1.381 . S
C1142 C1143 1.394 . S
C1142 H1150 0.930 . S
C1143 C1142 1.394 . S
C1143 C1144 1.404 . S
C1143 H1151 0.929 . S
C1144 C1143 1.404 . S
C1144 C1145 1.359 1_655 S
C1145 H1129 0.930 . S
C1145 C1144 1.359 1_455 S
C1145 C1146 1.379 . S
C1146 H1130 0.931 . S
C1146 C1140 1.383 1_455 S
C1146 C1145 1.379 . S
H1147 C1141 0.959 . S
H1148 C1141 0.961 . S
H1149 C1141 0.960 . S
H1150 C1142 0.930 . S
H1151 C1143 0.929 . S
H1152 C1160 0.929 . S
H1153 C1162 0.930 . S
H1154 C1164 0.930 . S
H1155 C1167 0.929 . S
H1156 C1170 0.930 . S
H1157 C1172 0.960 . S
H1158 C1172 0.960 . S
H1159 C1172 0.960 . S
C1160 H1152 0.929 . S
C1160 C1161 1.377 . S
C1160 C1162 1.384 . S
C1161 C1160 1.377 . S
C1161 C1167 1.390 . S
C1162 H1153 0.930 . S
C1162 C1160 1.384 . S
C1162 C1163 1.372 . S
C1163 C1162 1.372 . S
C1163 C1164 1.400 . S
C1163 C1168 1.490 . S
C1164 H1154 0.930 . S
C1164 C1163 1.400 . S
C1164 C1167 1.386 . S
H1165 C1181 0.930 . S
H1166 C1182 0.931 . S
C1167 H1155 0.929 . S
C1167 C1161 1.390 . S
C1167 C1164 1.386 . S
C1168 C1163 1.490 . S
C1168 C1170 1.395 . S
C1168 C1171 1.403 . S
H1169 C1175 0.930 . S
C1170 H1156 0.930 . S
C1170 C1168 1.395 . S
C1170 C1173 1.403 . S
C1171 C1168 1.403 . S
C1171 C1172 1.524 . S
C1171 C1175 1.400 . S
C1172 H1157 0.960 . S
C1172 H1158 0.960 . S
C1172 H1159 0.960 . S
C1172 C1171 1.524 . S
C1173 C1170 1.403 . S
C1173 C1174 1.392 . S
C1173 C1177 1.495 . S
C1174 C1173 1.392 . S
C1174 C1175 1.385 . S
C1174 C1176 1.478 . S
C1175 H1169 0.930 . S
C1175 C1171 1.400 . S
C1175 C1174 1.385 . S
C1176 C1174 1.478 . S
C1176 C1178 1.381 . S
C1176 C1182 1.383 . S
C1177 C1173 1.495 . S
C1177 H1183 0.959 . S
C1177 H1184 0.961 . S
C1177 H1185 0.960 . S
C1178 C1176 1.381 . S
C1178 C1179 1.394 . S
C1178 H1186 0.930 . S
C1179 C1178 1.394 . S
C1179 C1180 1.383 . S
C1179 H1187 0.929 . S
C1180 C1179 1.383 . S
C1180 C1181 1.377 . S
C1181 H1165 0.930 . S
C1181 C1180 1.377 . S
C1181 C1182 1.379 . S
C1182 H1166 0.931 . S
C1182 C1176 1.383 . S
C1182 C1181 1.379 . S
H1183 C1177 0.959 . S
H1184 C1177 0.961 . S
H1185 C1177 0.960 . S
H1186 C1178 0.930 . S
H1187 C1179 0.929 . S
H1188 C1196 0.929 . S
H1189 C1198 0.930 . S
H1190 C1200 0.930 . S
H1191 C1203 0.929 . S
H1192 C1206 0.930 . S
H1193 C1208 0.960 . S
H1194 C1208 0.960 . S
H1195 C1208 0.960 . S
C1196 H1188 0.929 . S
C1196 C1197 1.377 . S
C1196 C1198 1.384 . S
C1197 C1196 1.377 . S
C1197 C1203 1.390 . S
C1198 H1189 0.930 . S
C1198 C1196 1.384 . S
C1198 C1199 1.372 . S
C1199 C1198 1.372 . S
C1199 C1200 1.400 . S
C1199 C1204 1.490 . S
C1200 H1190 0.930 . S
C1200 C1199 1.400 . S
C1200 C1203 1.386 . S
H1201 C1217 0.930 . S
H1202 C1218 0.931 . S
C1203 H1191 0.929 . S
C1203 C1197 1.390 . S
C1203 C1200 1.386 . S
C1204 C1199 1.490 . S
C1204 C1206 1.395 . S
C1204 C1207 1.403 . S
H1205 C1211 0.930 . S
C1206 H1192 0.930 . S
C1206 C1204 1.395 . S
C1206 C1209 1.403 . S
C1207 C1204 1.403 . S
C1207 C1208 1.524 . S
C1207 C1211 1.400 . S
C1208 H1193 0.960 . S
C1208 H1194 0.960 . S
C1208 H1195 0.960 . S
C1208 C1207 1.524 . S
C1209 C1206 1.403 . S
C1209 C1210 1.392 . S
C1209 C1213 1.495 . S
C1210 C1209 1.392 . S
C1210 C1211 1.385 . S
C1210 C1212 1.478 . S
C1211 H1205 0.930 . S
C1211 C1207 1.400 . S
C1211 C1210 1.385 . S
C1212 C1210 1.478 . S
C1212 C1214 1.381 . S
C1212 C1218 1.383 . S
C1213 C1209 1.495 . S
C1213 H1219 0.959 . S
C1213 H1220 0.961 . S
C1213 H1221 0.960 . S
C1214 C1212 1.381 . S
C1214 C1215 1.394 . S
C1214 H1222 0.930 . S
C1215 C1214 1.394 . S
C1215 C1216 1.383 . S
C1215 H1223 0.929 . S
C1216 C1215 1.383 . S
C1216 C1217 1.377 . S
C1217 H1201 0.930 . S
C1217 C1216 1.377 . S
C1217 C1218 1.379 . S
C1218 H1202 0.931 . S
C1218 C1212 1.383 . S
C1218 C1217 1.379 . S
H1219 C1213 0.959 . S
H1220 C1213 0.961 . S
H1221 C1213 0.960 . S
H1222 C1214 0.930 . S
H1223 C1215 0.929 . S
H1224 C1232 0.929 . S
H1225 C1234 0.930 1_554 S
H1226 C1236 0.930 . S
H1227 C1239 0.929 . S
H1228 C1242 0.930 . S
H1229 C1244 0.960 . S
H1230 C1244 0.960 . S
H1231 C1244 0.960 1_556 S
C1232 H1224 0.929 . S
C1232 C1233 1.377 . S
C1232 C1234 1.384 . S
C1233 C1232 1.377 . S
C1233 C1239 1.390 1_545 S
C1234 H1225 0.930 1_556 S
C1234 C1232 1.384 . S
C1234 C1235 1.372 1_545 S
C1235 C1234 1.372 1_565 S
C1235 C1236 1.400 . S
C1235 C1240 1.490 . S
C1236 H1226 0.930 . S
C1236 C1235 1.400 . S
C1236 C1239 1.386 . S
H1237 C1253 0.930 . S
H1238 C1254 0.931 . S
C1239 H1227 0.929 . S
C1239 C1233 1.390 1_565 S
C1239 C1236 1.386 . S
C1240 C1235 1.490 . S
C1240 C1242 1.395 . S
C1240 C1243 1.403 . S
H1241 C1247 0.930 1_554 S
C1242 H1228 0.930 . S
C1242 C1240 1.395 . S
C1242 C1245 1.403 . S
C1243 C1240 1.403 . S
C1243 C1244 1.524 1_556 S
C1243 C1247 1.400 . S
C1244 H1229 0.960 . S
C1244 H1230 0.960 . S
C1244 H1231 0.960 1_554 S
C1244 C1243 1.524 1_554 S
C1245 C1242 1.403 . S
C1245 C1246 1.392 . S
C1245 C1249 1.495 . S
C1246 C1245 1.392 . S
C1246 C1247 1.385 . S
C1246 C1248 1.478 . S
C1247 H1241 0.930 1_556 S
C1247 C1243 1.400 . S
C1247 C1246 1.385 . S
C1248 C1246 1.478 . S
C1248 C1250 1.381 1_556 S
C1248 C1254 1.383 . S
C1249 C1245 1.495 . S
C1249 H1255 0.959 . S
C1249 H1256 0.961 . S
C1249 H1257 0.960 . S
C1250 C1248 1.381 1_554 S
C1250 C1251 1.394 . S
C1250 H1258 0.930 . S
C1251 C1250 1.394 . S
C1251 C1252 1.383 . S
C1251 H1259 0.929 . S
C1252 C1251 1.383 . S
C1252 C1253 1.377 1_554 S
C1253 H1237 0.930 . S
C1253 C1252 1.377 1_556 S
C1253 C1254 1.379 . S
C1254 H1238 0.931 . S
C1254 C1248 1.383 . S
C1254 C1253 1.379 . S
H1255 C1249 0.959 . S
H1256 C1249 0.961 . S
H1257 C1249 0.960 . S
H1258 C1250 0.930 . S
H1259 C1251 0.929 . S
H1260 C1268 0.929 . S
H1261 C1270 0.930 . S
H1262 C1272 0.930 . S
H1263 C1275 0.929 . S
H1264 C1278 0.930 . S
H1265 C1280 0.960 . S
H1266 C1280 0.960 . S
H1267 C1280 0.960 . S
C1268 H1260 0.929 . S
C1268 C1269 1.377 . S
C1268 C1270 1.384 . S
C1269 C1268 1.377 . S
C1269 C1275 1.390 . S
C1270 H1261 0.930 . S
C1270 C1268 1.384 . S
C1270 C1271 1.372 . S
C1271 C1270 1.372 . S
C1271 C1272 1.400 . S
C1271 C1276 1.490 . S
C1272 H1262 0.930 . S
C1272 C1271 1.400 . S
C1272 C1275 1.386 . S
H1273 C1289 0.930 . S
H1274 C1290 0.931 . S
C1275 H1263 0.929 . S
C1275 C1269 1.390 . S
C1275 C1272 1.386 . S
C1276 C1271 1.490 . S
C1276 C1278 1.395 . S
C1276 C1279 1.403 . S
H1277 C1283 0.930 . S
C1278 H1264 0.930 . S
C1278 C1276 1.395 . S
C1278 C1281 1.403 . S
C1279 C1276 1.403 . S
C1279 C1280 1.524 . S
C1279 C1283 1.400 . S
C1280 H1265 0.960 . S
C1280 H1266 0.960 . S
C1280 H1267 0.960 . S
C1280 C1279 1.524 . S
C1281 C1278 1.403 . S
C1281 C1282 1.392 . S
C1281 C1285 1.495 . S
C1282 C1281 1.392 . S
C1282 C1283 1.385 . S
C1282 C1284 1.478 . S
C1283 H1277 0.930 . S
C1283 C1279 1.400 . S
C1283 C1282 1.385 . S
C1284 C1282 1.478 . S
C1284 C1286 1.381 . S
C1284 C1290 1.383 . S
C1285 C1281 1.495 . S
C1285 H1291 0.959 . S
C1285 H1292 0.961 . S
C1285 H1293 0.960 . S
C1286 C1284 1.381 . S
C1286 C1287 1.394 . S
C1286 H1294 0.930 . S
C1287 C1286 1.394 . S
C1287 C1288 1.383 . S
C1287 H1295 0.929 . S
C1288 C1287 1.383 . S
C1288 C1289 1.377 . S
C1289 H1273 0.930 . S
C1289 C1288 1.377 . S
C1289 C1290 1.379 . S
C1290 H1274 0.931 . S
C1290 C1284 1.383 . S
C1290 C1289 1.379 . S
H1291 C1285 0.959 . S
H1292 C1285 0.961 . S
H1293 C1285 0.960 . S
H1294 C1286 0.930 . S
H1295 C1287 0.929 . S
H1296 C1304 0.929 . S
H1297 C1306 0.930 . S
H1298 C1308 0.930 . S
H1299 C1311 0.929 1_565 S
H1300 C1314 0.930 . S
H1301 C1316 0.960 . S
H1302 C1316 0.960 . S
H1303 C1316 0.960 . S
C1304 H1296 0.929 . S
C1304 C1305 1.387 . S
C1304 C1306 1.384 . S
C1305 C1304 1.387 . S
C1305 C1311 1.391 . S
C1306 H1297 0.930 . S
C1306 C1304 1.384 . S
C1306 C1307 1.372 . S
C1307 C1306 1.372 . S
C1307 C1308 1.400 . S
C1307 C1312 1.490 . S
C1308 H1298 0.930 . S
C1308 C1307 1.400 . S
C1308 C1311 1.386 . S
H1309 C1325 0.930 . S
H1310 C1326 0.931 . S
C1311 H1299 0.929 1_545 S
C1311 C1305 1.391 . S
C1311 C1308 1.386 . S
C1312 C1307 1.490 . S
C1312 C1314 1.395 . S
C1312 C1315 1.403 . S
H1313 C1319 0.930 . S
C1314 H1300 0.930 . S
C1314 C1312 1.395 . S
C1314 C1317 1.403 . S
C1315 C1312 1.403 . S
C1315 C1316 1.524 . S
C1315 C1319 1.400 . S
C1316 H1301 0.960 . S
C1316 H1302 0.960 . S
C1316 H1303 0.960 . S
C1316 C1315 1.524 . S
C1317 C1314 1.403 . S
C1317 C1318 1.392 . S
C1317 C1321 1.495 . S
C1318 C1317 1.392 . S
C1318 C1319 1.385 . S
C1318 C1320 1.478 . S
C1319 H1313 0.930 . S
C1319 C1315 1.400 . S
C1319 C1318 1.385 . S
C1320 C1318 1.478 . S
C1320 C1322 1.381 . S
C1320 C1326 1.383 . S
C1321 C1317 1.495 . S
C1321 H1327 0.959 . S
C1321 H1328 0.961 . S
C1321 H1329 0.960 . S
C1322 C1320 1.381 . S
C1322 C1323 1.394 . S
C1322 H1330 0.930 . S
C1323 C1322 1.394 . S
C1323 C1324 1.383 . S
C1323 H1331 0.929 . S
C1324 C1323 1.383 . S
C1324 C1325 1.377 . S
C1325 H1309 0.930 . S
C1325 C1324 1.377 . S
C1325 C1326 1.379 . S
C1326 H1310 0.931 . S
C1326 C1320 1.383 . S
C1326 C1325 1.379 . S
H1327 C1321 0.959 . S
H1328 C1321 0.961 . S
H1329 C1321 0.960 . S
H1330 C1322 0.930 . S
H1331 C1323 0.929 . S
H1332 C1340 0.929 . S
H1333 C1342 0.930 . S
H1334 C1344 0.930 . S
H1335 C1347 0.929 . S
H1336 C1350 0.930 . S
H1337 C1352 0.960 . S
H1338 C1352 0.960 . S
H1339 C1352 0.960 . S
C1340 H1332 0.929 . S
C1340 C1341 1.377 . S
C1340 C1342 1.384 . S
C1341 C1340 1.377 . S
C1341 C1347 1.390 . S
C1342 H1333 0.930 . S
C1342 C1340 1.384 . S
C1342 C1343 1.372 . S
C1343 C1342 1.372 . S
C1343 C1344 1.400 . S
C1343 C1348 1.490 . S
C1344 H1334 0.930 . S
C1344 C1343 1.400 . S
C1344 C1347 1.386 . S
H1345 C1361 0.930 . S
H1346 C1362 0.931 . S
C1347 H1335 0.929 . S
C1347 C1341 1.390 . S
C1347 C1344 1.386 . S
C1348 C1343 1.490 . S
C1348 C1350 1.395 . S
C1348 C1351 1.403 . S
H1349 C1355 0.930 . S
C1350 H1336 0.930 . S
C1350 C1348 1.395 . S
C1350 C1353 1.403 . S
C1351 C1348 1.403 . S
C1351 C1352 1.524 . S
C1351 C1355 1.400 . S
C1352 H1337 0.960 . S
C1352 H1338 0.960 . S
C1352 H1339 0.960 . S
C1352 C1351 1.524 . S
C1353 C1350 1.403 . S
C1353 C1354 1.392 . S
C1353 C1357 1.495 . S
C1354 C1353 1.392 . S
C1354 C1355 1.385 . S
C1354 C1356 1.478 . S
C1355 H1349 0.930 . S
C1355 C1351 1.400 . S
C1355 C1354 1.385 . S
C1356 C1354 1.478 . S
C1356 C1358 1.381 . S
C1356 C1362 1.383 . S
C1357 C1353 1.495 . S
C1357 H1363 0.959 . S
C1357 H1364 0.961 . S
C1357 H1365 0.960 . S
C1358 C1356 1.381 . S
C1358 C1359 1.394 . S
C1358 H1366 0.930 . S
C1359 C1358 1.394 . S
C1359 C1360 1.383 . S
C1359 H1367 0.929 . S
C1360 C1359 1.383 . S
C1360 C1361 1.377 . S
C1361 H1345 0.930 . S
C1361 C1360 1.377 . S
C1361 C1362 1.379 . S
C1362 H1346 0.931 . S
C1362 C1356 1.383 . S
C1362 C1361 1.379 . S
H1363 C1357 0.959 . S
H1364 C1357 0.961 . S
H1365 C1357 0.960 . S
H1366 C1358 0.930 . S
H1367 C1359 0.929 . S
H1368 C1376 0.929 1_565 S
H1369 C1378 0.930 . S
H1370 C1380 0.930 . S
H1371 C1383 0.917 1_565 S
H1372 C1386 0.930 . S
H1373 C1388 0.960 . S
H1374 C1388 0.960 1_565 S
H1375 C1388 0.960 . S
C1376 H1368 0.929 1_545 S
C1376 C1377 1.377 1_545 S
C1376 C1378 1.384 . S
C1377 C1376 1.377 1_565 S
C1377 C1383 1.378 1_565 S
C1378 H1369 0.930 . S
C1378 C1376 1.384 . S
C1378 C1379 1.372 . S
C1379 C1378 1.372 . S
C1379 C1380 1.400 . S
C1379 C1384 1.490 . S
C1380 H1370 0.930 . S
C1380 C1379 1.400 . S
C1380 C1383 1.411 . S
H1381 C1397 0.930 . S
H1382 C1398 0.931 . S
C1383 H1371 0.917 1_545 S
C1383 C1377 1.378 1_545 S
C1383 C1380 1.411 . S
C1384 C1379 1.490 . S
C1384 C1386 1.395 . S
C1384 C1387 1.403 . S
H1385 C1391 0.930 . S
C1386 H1372 0.930 . S
C1386 C1384 1.395 . S
C1386 C1389 1.403 . S
C1387 C1384 1.403 . S
C1387 C1388 1.524 . S
C1387 C1391 1.400 . S
C1388 H1373 0.960 . S
C1388 H1374 0.960 1_545 S
C1388 H1375 0.960 . S
C1388 C1387 1.524 . S
C1389 C1386 1.403 . S
C1389 C1390 1.392 . S
C1389 C1393 1.495 . S
C1390 C1389 1.392 . S
C1390 C1391 1.385 . S
C1390 C1392 1.478 . S
C1391 H1385 0.930 . S
C1391 C1387 1.400 . S
C1391 C1390 1.385 . S
C1392 C1390 1.478 . S
C1392 C1394 1.381 . S
C1392 C1398 1.383 . S
C1393 C1389 1.495 . S
C1393 H1399 0.959 . S
C1393 H1400 0.961 . S
C1393 H1401 0.960 . S
C1394 C1392 1.381 . S
C1394 C1395 1.394 . S
C1394 H1402 0.930 . S
C1395 C1394 1.394 . S
C1395 C1396 1.383 . S
C1395 H1403 0.929 . S
C1396 C1395 1.383 . S
C1396 C1397 1.377 . S
C1397 H1381 0.930 . S
C1397 C1396 1.377 . S
C1397 C1398 1.379 . S
C1398 H1382 0.931 . S
C1398 C1392 1.383 . S
C1398 C1397 1.379 . S
H1399 C1393 0.959 . S
H1400 C1393 0.961 . S
H1401 C1393 0.960 . S
H1402 C1394 0.930 . S
H1403 C1395 0.929 . S
H1404 C1412 0.929 . S
H1405 C1414 0.930 . S
H1406 C1416 0.930 . S
H1407 C1419 0.929 . S
H1408 C1422 0.930 . S
H1409 C1424 0.960 . S
H1410 C1424 0.960 . S
H1411 C1424 0.960 . S
C1412 H1404 0.929 . S
C1412 C1413 1.377 . S
C1412 C1414 1.384 . S
C1413 C1412 1.377 . S
C1413 C1419 1.390 . S
C1414 H1405 0.930 . S
C1414 C1412 1.384 . S
C1414 C1415 1.372 . S
C1415 C1414 1.372 . S
C1415 C1416 1.400 . S
C1415 C1420 1.490 . S
C1416 H1406 0.930 . S
C1416 C1415 1.400 . S
C1416 C1419 1.386 . S
H1417 C1433 0.930 . S
H1418 C1434 0.931 . S
C1419 H1407 0.929 . S
C1419 C1413 1.390 . S
C1419 C1416 1.386 . S
C1420 C1415 1.490 . S
C1420 C1422 1.395 . S
C1420 C1423 1.403 . S
H1421 C1427 0.930 . S
C1422 H1408 0.930 . S
C1422 C1420 1.395 . S
C1422 C1425 1.403 . S
C1423 C1420 1.403 . S
C1423 C1424 1.524 . S
C1423 C1427 1.400 . S
C1424 H1409 0.960 . S
C1424 H1410 0.960 . S
C1424 H1411 0.960 . S
C1424 C1423 1.524 . S
C1425 C1422 1.403 . S
C1425 C1426 1.392 . S
C1425 C1429 1.495 . S
C1426 C1425 1.392 . S
C1426 C1427 1.385 . S
C1426 C1428 1.478 . S
C1427 H1421 0.930 . S
C1427 C1423 1.400 . S
C1427 C1426 1.385 . S
C1428 C1426 1.478 . S
C1428 C1430 1.381 . S
C1428 C1434 1.383 . S
C1429 C1425 1.495 . S
C1429 H1435 0.959 . S
C1429 H1436 0.961 . S
C1429 H1437 0.960 . S
C1430 C1428 1.381 . S
C1430 C1431 1.394 . S
C1430 H1438 0.930 . S
C1431 C1430 1.394 . S
C1431 C1432 1.383 . S
C1431 H1439 0.929 . S
C1432 C1431 1.383 . S
C1432 C1433 1.377 . S
C1433 H1417 0.930 . S
C1433 C1432 1.377 . S
C1433 C1434 1.379 . S
C1434 H1418 0.931 . S
C1434 C1428 1.383 . S
C1434 C1433 1.379 . S
H1435 C1429 0.959 . S
H1436 C1429 0.961 . S
H1437 C1429 0.960 . S
H1438 C1430 0.930 . S
H1439 C1431 0.929 . S
H1440 C1448 0.929 . S
H1441 C1450 0.930 . S
H1442 C1452 0.930 . S
H1443 C1455 0.929 . S
H1444 C1458 0.930 . S
H1445 C1460 0.960 . S
H1446 C1460 0.960 . S
H1447 C1460 0.960 . S
C1448 H1440 0.929 . S
C1448 C1449 1.377 . S
C1448 C1450 1.384 . S
C1449 C1448 1.377 . S
C1449 C1455 1.390 . S
C1450 H1441 0.930 . S
C1450 C1448 1.384 . S
C1450 C1451 1.372 . S
C1451 C1450 1.372 . S
C1451 C1452 1.400 . S
C1451 C1456 1.490 . S
C1452 H1442 0.930 . S
C1452 C1451 1.400 . S
C1452 C1455 1.386 . S
H1453 C1469 0.930 . S
H1454 C1470 0.931 . S
C1455 H1443 0.929 . S
C1455 C1449 1.390 . S
C1455 C1452 1.386 . S
C1456 C1451 1.490 . S
C1456 C1458 1.395 . S
C1456 C1459 1.403 . S
H1457 C1463 0.930 . S
C1458 H1444 0.930 . S
C1458 C1456 1.395 . S
C1458 C1461 1.403 . S
C1459 C1456 1.403 . S
C1459 C1460 1.524 . S
C1459 C1463 1.400 . S
C1460 H1445 0.960 . S
C1460 H1446 0.960 . S
C1460 H1447 0.960 . S
C1460 C1459 1.524 . S
C1461 C1458 1.403 . S
C1461 C1462 1.392 . S
C1461 C1465 1.495 . S
C1462 C1461 1.392 . S
C1462 C1463 1.385 . S
C1462 C1464 1.478 . S
C1463 H1457 0.930 . S
C1463 C1459 1.400 . S
C1463 C1462 1.385 . S
C1464 C1462 1.478 . S
C1464 C1466 1.381 . S
C1464 C1470 1.383 . S
C1465 C1461 1.495 . S
C1465 H1471 0.959 . S
C1465 H1472 0.961 . S
C1465 H1473 0.960 . S
C1466 C1464 1.381 . S
C1466 C1467 1.394 . S
C1466 H1474 0.930 . S
C1467 C1466 1.394 . S
C1467 C1468 1.383 . S
C1467 H1475 0.929 . S
C1468 C1467 1.383 . S
C1468 C1469 1.377 . S
C1469 H1453 0.930 . S
C1469 C1468 1.377 . S
C1469 C1470 1.379 . S
C1470 H1454 0.931 . S
C1470 C1464 1.383 . S
C1470 C1469 1.379 . S
H1471 C1465 0.959 . S
H1472 C1465 0.961 . S
H1473 C1465 0.960 . S
H1474 C1466 0.930 . S
H1475 C1467 0.929 . S
H1476 C1484 0.929 . S
H1477 C1486 0.930 . S
H1478 C1488 0.929 1_565 S
H1479 C1491 0.929 . S
H1480 C1494 0.930 . S
H1481 C1496 0.960 . S
H1482 C1496 0.960 . S
H1483 C1496 0.960 . S
C1484 H1476 0.929 . S
C1484 C1485 1.377 . S
C1484 C1486 1.384 . S
C1485 C1484 1.377 . S
C1485 C1491 1.390 . S
C1486 H1477 0.930 . S
C1486 C1484 1.384 . S
C1486 C1487 1.372 . S
C1487 C1486 1.372 . S
C1487 C1488 1.400 . S
C1487 C1492 1.490 . S
C1488 H1478 0.929 1_545 S
C1488 C1487 1.400 . S
C1488 C1491 1.386 . S
H1489 C1505 0.930 . S
H1490 C1506 0.931 . S
C1491 H1479 0.929 . S
C1491 C1485 1.390 . S
C1491 C1488 1.386 . S
C1492 C1487 1.490 . S
C1492 C1494 1.395 . S
C1492 C1495 1.403 . S
H1493 C1499 0.930 . S
C1494 H1480 0.930 . S
C1494 C1492 1.395 . S
C1494 C1497 1.403 . S
C1495 C1492 1.403 . S
C1495 C1496 1.524 . S
C1495 C1499 1.400 . S
C1496 H1481 0.960 . S
C1496 H1482 0.960 . S
C1496 H1483 0.960 . S
C1496 C1495 1.524 . S
C1497 C1494 1.403 . S
C1497 C1498 1.392 . S
C1497 C1501 1.495 . S
C1498 C1497 1.392 . S
C1498 C1499 1.385 . S
C1498 C1500 1.478 . S
C1499 H1493 0.930 . S
C1499 C1495 1.400 . S
C1499 C1498 1.385 . S
C1500 C1498 1.478 . S
C1500 C1502 1.381 . S
C1500 C1506 1.383 1_545 S
C1501 C1497 1.495 . S
C1501 H1507 0.959 . S
C1501 H1508 0.961 . S
C1501 H1509 0.960 . S
C1502 C1500 1.381 . S
C1502 C1503 1.394 . S
C1502 H1510 0.930 . S
C1503 C1502 1.394 . S
C1503 C1504 1.383 . S
C1503 H1511 0.929 . S
C1504 C1503 1.383 . S
C1504 C1505 1.377 1_545 S
C1505 H1489 0.930 . S
C1505 C1504 1.377 1_565 S
C1505 C1506 1.379 . S
C1506 H1490 0.931 . S
C1506 C1500 1.383 1_565 S
C1506 C1505 1.379 . S
H1507 C1501 0.959 . S
H1508 C1501 0.961 . S
H1509 C1501 0.960 . S
H1510 C1502 0.930 . S
H1511 C1503 0.929 . S
H1512 C1520 0.929 . S
H1513 C1522 0.930 . S
H1514 C1524 0.930 . S
H1515 C1527 0.929 . S
H1516 C1530 0.930 . S
H1517 C1532 0.960 . S
H1518 C1532 0.960 . S
H1519 C1532 0.960 . S
C1520 H1512 0.929 . S
C1520 C1521 1.377 . S
C1520 C1522 1.384 . S
C1521 C1520 1.377 . S
C1521 C1527 1.390 . S
C1522 H1513 0.930 . S
C1522 C1520 1.384 . S
C1522 C1523 1.372 . S
C1523 C1522 1.372 . S
C1523 C1524 1.400 . S
C1523 C1528 1.490 . S
C1524 H1514 0.930 . S
C1524 C1523 1.400 . S
C1524 C1527 1.386 . S
H1525 C1541 0.930 . S
H1526 C1542 0.931 . S
C1527 H1515 0.929 . S
C1527 C1521 1.390 . S
C1527 C1524 1.386 . S
C1528 C1523 1.490 . S
C1528 C1530 1.395 . S
C1528 C1531 1.403 . S
H1529 C1535 0.930 . S
C1530 H1516 0.930 . S
C1530 C1528 1.395 . S
C1530 C1533 1.403 . S
C1531 C1528 1.403 . S
C1531 C1532 1.524 . S
C1531 C1535 1.400 . S
C1532 H1517 0.960 . S
C1532 H1518 0.960 . S
C1532 H1519 0.960 . S
C1532 C1531 1.524 . S
C1533 C1530 1.403 . S
C1533 C1534 1.392 . S
C1533 C1537 1.495 . S
C1534 C1533 1.392 . S
C1534 C1535 1.385 . S
C1534 C1536 1.478 . S
C1535 H1529 0.930 . S
C1535 C1531 1.400 . S
C1535 C1534 1.385 . S
C1536 C1534 1.478 . S
C1536 C1538 1.381 . S
C1536 C1542 1.383 . S
C1537 C1533 1.495 . S
C1537 H1543 0.959 . S
C1537 H1544 0.961 . S
C1537 H1545 0.960 . S
C1538 C1536 1.381 . S
C1538 C1539 1.394 . S
C1538 H1546 0.930 . S
C1539 C1538 1.394 . S
C1539 C1540 1.383 . S
C1539 H1547 0.929 . S
C1540 C1539 1.383 . S
C1540 C1541 1.377 . S
C1541 H1525 0.930 . S
C1541 C1540 1.377 . S
C1541 C1542 1.379 . S
C1542 H1526 0.931 . S
C1542 C1536 1.383 . S
C1542 C1541 1.379 . S
H1543 C1537 0.959 . S
H1544 C1537 0.961 . S
H1545 C1537 0.960 . S
H1546 C1538 0.930 . S
H1547 C1539 0.929 . S
H1548 C1556 0.929 . S
H1549 C1558 0.930 . S
H1550 C1560 0.930 . S
H1551 C1563 0.929 . S
H1552 C1566 0.930 . S
H1553 C1568 0.960 . S
H1554 C1568 0.960 . S
H1555 C1568 0.960 . S
C1556 H1548 0.929 . S
C1556 C1557 1.377 . S
C1556 C1558 1.384 . S
C1557 C1556 1.377 . S
C1557 C1563 1.390 . S
C1558 H1549 0.930 . S
C1558 C1556 1.384 . S
C1558 C1559 1.372 . S
C1559 C1558 1.372 . S
C1559 C1560 1.400 . S
C1559 C1564 1.490 . S
C1560 H1550 0.930 . S
C1560 C1559 1.400 . S
C1560 C1563 1.386 . S
H1561 C1577 0.930 . S
H1562 C1578 0.931 . S
C1563 H1551 0.929 . S
C1563 C1557 1.390 . S
C1563 C1560 1.386 . S
C1564 C1559 1.490 . S
C1564 C1566 1.395 . S
C1564 C1567 1.403 . S
H1565 C1571 0.930 . S
C1566 H1552 0.930 . S
C1566 C1564 1.395 . S
C1566 C1569 1.403 . S
C1567 C1564 1.403 . S
C1567 C1568 1.524 . S
C1567 C1571 1.400 . S
C1568 H1553 0.960 . S
C1568 H1554 0.960 . S
C1568 H1555 0.960 . S
C1568 C1567 1.524 . S
C1569 C1566 1.403 . S
C1569 C1570 1.392 . S
C1569 C1573 1.495 . S
C1570 C1569 1.392 . S
C1570 C1571 1.385 . S
C1570 C1572 1.478 . S
C1571 H1565 0.930 . S
C1571 C1567 1.400 . S
C1571 C1570 1.385 . S
C1572 C1570 1.478 . S
C1572 C1574 1.381 . S
C1572 C1578 1.383 . S
C1573 C1569 1.495 . S
C1573 H1579 0.959 . S
C1573 H1580 0.961 . S
C1573 H1581 0.960 . S
C1574 C1572 1.381 . S
C1574 C1575 1.394 . S
C1574 H1582 0.930 . S
C1575 C1574 1.394 . S
C1575 C1576 1.383 . S
C1575 H1583 0.929 . S
C1576 C1575 1.383 . S
C1576 C1577 1.377 . S
C1577 H1561 0.930 . S
C1577 C1576 1.377 . S
C1577 C1578 1.379 . S
C1578 H1562 0.931 . S
C1578 C1572 1.383 . S
C1578 C1577 1.379 . S
H1579 C1573 0.959 . S
H1580 C1573 0.961 . S
H1581 C1573 0.960 . S
H1582 C1574 0.930 . S
H1583 C1575 0.929 . S
H1584 C1592 0.929 . S
H1585 C1594 0.930 . S
H1586 C1596 0.930 . S
H1587 C1599 0.929 . S
H1588 C1602 0.930 . S
H1589 C1604 0.960 . S
H1590 C1604 0.960 . S
H1591 C1604 0.960 . S
C1592 H1584 0.929 . S
C1592 C1593 1.377 . S
C1592 C1594 1.384 . S
C1593 C1592 1.377 . S
C1593 C1599 1.390 . S
C1594 H1585 0.930 . S
C1594 C1592 1.384 . S
C1594 C1595 1.372 . S
C1595 C1594 1.372 . S
C1595 C1596 1.400 . S
C1595 C1600 1.490 . S
C1596 H1586 0.930 . S
C1596 C1595 1.400 . S
C1596 C1599 1.386 . S
H1597 C1613 0.930 . S
H1598 C1614 0.931 . S
C1599 H1587 0.929 . S
C1599 C1593 1.390 . S
C1599 C1596 1.386 . S
C1600 C1595 1.490 . S
C1600 C1602 1.395 . S
C1600 C1603 1.403 . S
H1601 C1607 0.930 . S
C1602 H1588 0.930 . S
C1602 C1600 1.395 . S
C1602 C1605 1.403 . S
C1603 C1600 1.403 . S
C1603 C1604 1.524 . S
C1603 C1607 1.400 . S
C1604 H1589 0.960 . S
C1604 H1590 0.960 . S
C1604 H1591 0.960 . S
C1604 C1603 1.524 . S
C1605 C1602 1.403 . S
C1605 C1606 1.392 . S
C1605 C1609 1.495 . S
C1606 C1605 1.392 . S
C1606 C1607 1.385 . S
C1606 C1608 1.478 . S
C1607 H1601 0.930 . S
C1607 C1603 1.400 . S
C1607 C1606 1.385 . S
C1608 C1606 1.478 . S
C1608 C1610 1.381 . S
C1608 C1614 1.383 . S
C1609 C1605 1.495 . S
C1609 H1615 0.959 . S
C1609 H1616 0.961 . S
C1609 H1617 0.960 . S
C1610 C1608 1.381 . S
C1610 C1611 1.394 . S
C1610 H1618 0.930 . S
C1611 C1610 1.394 . S
C1611 C1612 1.383 . S
C1611 H1619 0.929 . S
C1612 C1611 1.383 . S
C1612 C1613 1.377 . S
C1613 H1597 0.930 . S
C1613 C1612 1.377 . S
C1613 C1614 1.379 . S
C1614 H1598 0.931 . S
C1614 C1608 1.383 . S
C1614 C1613 1.379 . S
H1615 C1609 0.959 . S
H1616 C1609 0.961 . S
H1617 C1609 0.960 . S
H1618 C1610 0.930 . S
H1619 C1611 0.929 . S
H1620 C1628 0.896 1_565 S
H1621 C1630 0.930 1_565 S
H1622 C1632 0.930 . S
H1623 C1635 0.929 . S
H1624 C1638 0.930 . S
H1625 C1640 0.960 . S
H1626 C1640 0.960 . S
H1627 C1640 0.960 . S
C1628 H1620 0.896 1_545 S
C1628 C1629 1.377 . S
C1628 C1630 1.384 1_455 S
C1629 C1628 1.377 . S
C1629 C1635 1.390 1_455 S
C1630 H1621 0.930 1_545 S
C1630 C1628 1.384 1_655 S
C1630 C1631 1.372 . S
C1631 C1630 1.372 . S
C1631 C1632 1.400 . S
C1631 C1636 1.490 . S
C1632 H1622 0.930 . S
C1632 C1631 1.400 . S
C1632 C1635 1.386 . S
H1633 C1649 0.930 . S
H1634 C1650 0.931 . S
C1635 H1623 0.929 . S
C1635 C1629 1.390 1_655 S
C1635 C1632 1.386 . S
C1636 C1631 1.490 . S
C1636 C1638 1.395 . S
C1636 C1639 1.403 . S
H1637 C1643 0.930 . S
C1638 H1624 0.930 . S
C1638 C1636 1.395 . S
C1638 C1641 1.403 . S
C1639 C1636 1.403 . S
C1639 C1640 1.524 . S
C1639 C1643 1.400 . S
C1640 H1625 0.960 . S
C1640 H1626 0.960 . S
C1640 H1627 0.960 . S
C1640 C1639 1.524 . S
C1641 C1638 1.403 . S
C1641 C1642 1.392 . S
C1641 C1645 1.495 . S
C1642 C1641 1.392 . S
C1642 C1643 1.385 . S
C1642 C1644 1.478 . S
C1643 H1637 0.930 . S
C1643 C1639 1.400 . S
C1643 C1642 1.385 . S
C1644 C1642 1.478 . S
C1644 C1646 1.381 1_545 S
C1644 C1650 1.383 . S
C1645 C1641 1.495 . S
C1645 H1651 0.959 . S
C1645 H1652 0.961 . S
C1645 H1653 0.960 1_545 S
C1646 C1644 1.381 1_565 S
C1646 C1647 1.394 . S
C1646 H1654 0.930 . S
C1647 C1646 1.394 . S
C1647 C1648 1.383 1_565 S
C1647 H1655 0.929 . S
C1648 C1647 1.383 1_545 S
C1648 C1649 1.377 . S
C1649 H1633 0.930 . S
C1649 C1648 1.377 . S
C1649 C1650 1.379 . S
C1650 H1634 0.931 . S
C1650 C1644 1.383 . S
C1650 C1649 1.379 . S
H1651 C1645 0.959 . S
H1652 C1645 0.961 . S
H1653 C1645 0.960 1_565 S
H1654 C1646 0.930 . S
H1655 C1647 0.929 . S
H1656 C1664 0.929 . S
H1657 C1666 0.930 . S
H1658 C1668 0.930 . S
H1659 C1671 0.929 . S
H1660 C1674 0.930 . S
H1661 C1676 0.960 . S
H1662 C1676 0.960 . S
H1663 C1676 0.960 . S
C1664 H1656 0.929 . S
C1664 C1665 1.377 . S
C1664 C1666 1.384 . S
C1665 C1664 1.377 . S
C1665 C1671 1.390 . S
C1666 H1657 0.930 . S
C1666 C1664 1.384 . S
C1666 C1667 1.372 . S
C1667 C1666 1.372 . S
C1667 C1668 1.400 . S
C1667 C1672 1.490 . S
C1668 H1658 0.930 . S
C1668 C1667 1.400 . S
C1668 C1671 1.386 . S
H1669 C1685 0.930 . S
H1670 C1686 0.931 . S
C1671 H1659 0.929 . S
C1671 C1665 1.390 . S
C1671 C1668 1.386 . S
C1672 C1667 1.490 . S
C1672 C1674 1.395 . S
C1672 C1675 1.403 . S
H1673 C1679 0.930 . S
C1674 H1660 0.930 . S
C1674 C1672 1.395 . S
C1674 C1677 1.403 . S
C1675 C1672 1.403 . S
C1675 C1676 1.524 . S
C1675 C1679 1.400 . S
C1676 H1661 0.960 . S
C1676 H1662 0.960 . S
C1676 H1663 0.960 . S
C1676 C1675 1.524 . S
C1677 C1674 1.403 . S
C1677 C1678 1.392 . S
C1677 C1681 1.495 . S
C1678 C1677 1.392 . S
C1678 C1679 1.385 . S
C1678 C1680 1.478 . S
C1679 H1673 0.930 . S
C1679 C1675 1.400 . S
C1679 C1678 1.385 . S
C1680 C1678 1.478 . S
C1680 C1682 1.381 . S
C1680 C1686 1.383 . S
C1681 C1677 1.495 . S
C1681 H1687 0.959 . S
C1681 H1688 0.961 . S
C1681 H1689 0.960 . S
C1682 C1680 1.381 . S
C1682 C1683 1.394 . S
C1682 H1690 0.930 . S
C1683 C1682 1.394 . S
C1683 C1684 1.383 . S
C1683 H1691 0.929 . S
C1684 C1683 1.383 . S
C1684 C1685 1.377 . S
C1685 H1669 0.930 . S
C1685 C1684 1.377 . S
C1685 C1686 1.379 . S
C1686 H1670 0.931 . S
C1686 C1680 1.383 . S
C1686 C1685 1.379 . S
H1687 C1681 0.959 . S
H1688 C1681 0.961 . S
H1689 C1681 0.960 . S
H1690 C1682 0.930 . S
H1691 C1683 0.929 . S
H1692 C1700 0.929 . S
H1693 C1702 0.930 1_655 S
H1694 C1704 0.930 . S
H1695 C1707 0.929 . S
H1696 C1710 0.930 . S
H1697 C1712 0.960 . S
H1698 C1712 0.960 . S
H1699 C1712 0.960 . S
C1700 H1692 0.929 . S
C1700 C1701 1.377 . S
C1700 C1702 1.384 1_655 S
C1701 C1700 1.377 . S
C1701 C1707 1.390 1_655 S
C1702 H1693 0.930 1_455 S
C1702 C1700 1.384 1_455 S
C1702 C1703 1.372 . S
C1703 C1702 1.372 . S
C1703 C1704 1.400 . S
C1703 C1708 1.490 . S
C1704 H1694 0.930 . S
C1704 C1703 1.400 . S
C1704 C1707 1.386 . S
H1705 C1721 0.930 . S
H1706 C1722 0.931 . S
C1707 H1695 0.929 . S
C1707 C1701 1.390 1_455 S
C1707 C1704 1.386 . S
C1708 C1703 1.490 . S
C1708 C1710 1.395 . S
C1708 C1711 1.403 . S
H1709 C1715 0.930 . S
C1710 H1696 0.930 . S
C1710 C1708 1.395 . S
C1710 C1713 1.403 . S
C1711 C1708 1.403 . S
C1711 C1712 1.524 . S
C1711 C1715 1.400 . S
C1712 H1697 0.960 . S
C1712 H1698 0.960 . S
C1712 H1699 0.960 . S
C1712 C1711 1.524 . S
C1713 C1710 1.403 . S
C1713 C1714 1.392 . S
C1713 C1717 1.495 . S
C1714 C1713 1.392 . S
C1714 C1715 1.385 . S
C1714 C1716 1.478 . S
C1715 H1709 0.930 . S
C1715 C1711 1.400 . S
C1715 C1714 1.385 . S
C1716 C1714 1.478 . S
C1716 C1718 1.381 . S
C1716 C1722 1.383 . S
C1717 C1713 1.495 . S
C1717 H1723 0.959 . S
C1717 H1724 0.961 . S
C1717 H1725 0.960 . S
C1718 C1716 1.381 . S
C1718 C1719 1.394 . S
C1718 H1726 0.930 . S
C1719 C1718 1.394 . S
C1719 C1720 1.383 . S
C1719 H1727 0.929 . S
C1720 C1719 1.383 . S
C1720 C1721 1.377 . S
C1721 H1705 0.930 . S
C1721 C1720 1.377 . S
C1721 C1722 1.379 . S
C1722 H1706 0.931 . S
C1722 C1716 1.383 . S
C1722 C1721 1.379 . S
H1723 C1717 0.959 . S
H1724 C1717 0.961 . S
H1725 C1717 0.960 . S
H1726 C1718 0.930 . S
H1727 C1719 0.929 . S
H1728 C1736 0.929 . S
H1729 C1738 0.930 . S
H1730 C1740 0.930 . S
H1731 C1743 0.929 . S
H1732 C1746 0.930 . S
H1733 C1748 0.960 . S
H1734 C1748 0.960 . S
H1735 C1748 0.960 . S
C1736 H1728 0.929 . S
C1736 C1737 1.377 . S
C1736 C1738 1.384 . S
C1737 C1736 1.377 . S
C1737 C1743 1.390 . S
C1738 H1729 0.930 . S
C1738 C1736 1.384 . S
C1738 C1739 1.372 . S
C1739 C1738 1.372 . S
C1739 C1740 1.400 . S
C1739 C1744 1.490 . S
C1740 H1730 0.930 . S
C1740 C1739 1.400 . S
C1740 C1743 1.386 . S
H1741 C1757 0.930 . S
H1742 C1758 0.931 . S
C1743 H1731 0.929 . S
C1743 C1737 1.390 . S
C1743 C1740 1.386 . S
C1744 C1739 1.490 . S
C1744 C1746 1.395 . S
C1744 C1747 1.403 . S
H1745 C1751 0.930 . S
C1746 H1732 0.930 . S
C1746 C1744 1.395 . S
C1746 C1749 1.403 . S
C1747 C1744 1.403 . S
C1747 C1748 1.524 . S
C1747 C1751 1.400 . S
C1748 H1733 0.960 . S
C1748 H1734 0.960 . S
C1748 H1735 0.960 . S
C1748 C1747 1.524 . S
C1749 C1746 1.403 . S
C1749 C1750 1.392 . S
C1749 C1753 1.495 . S
C1750 C1749 1.392 . S
C1750 C1751 1.385 . S
C1750 C1752 1.478 . S
C1751 H1745 0.930 . S
C1751 C1747 1.400 . S
C1751 C1750 1.385 . S
C1752 C1750 1.478 . S
C1752 C1754 1.381 . S
C1752 C1758 1.383 . S
C1753 C1749 1.495 . S
C1753 H1759 0.959 . S
C1753 H1760 0.961 . S
C1753 H1761 0.960 . S
C1754 C1752 1.381 . S
C1754 C1755 1.394 . S
C1754 H1762 0.930 . S
C1755 C1754 1.394 . S
C1755 C1756 1.383 . S
C1755 H1763 0.929 . S
C1756 C1755 1.383 . S
C1756 C1757 1.377 . S
C1757 H1741 0.930 . S
C1757 C1756 1.377 . S
C1757 C1758 1.379 . S
C1758 H1742 0.931 . S
C1758 C1752 1.383 . S
C1758 C1757 1.379 . S
H1759 C1753 0.959 . S
H1760 C1753 0.961 . S
H1761 C1753 0.960 . S
H1762 C1754 0.930 . S
H1763 C1755 0.929 . S
H1764 C1772 0.929 . S
H1765 C1774 0.930 . S
H1766 C1776 0.930 . S
H1767 C1779 0.929 . S
H1768 C1782 0.954 . S
H1769 C1784 0.960 . S
H1770 C1784 0.960 . S
H1771 C1784 0.960 . S
C1772 H1764 0.929 . S
C1772 C1773 1.377 1_556 S
C1772 C1774 1.384 . S
C1773 C1772 1.377 1_554 S
C1773 C1779 1.390 . S
C1774 H1765 0.930 . S
C1774 C1772 1.384 . S
C1774 C1775 1.372 . S
C1775 C1774 1.372 . S
C1775 C1776 1.400 1_556 S
C1775 C1780 1.490 . S
C1776 H1766 0.930 . S
C1776 C1775 1.400 1_554 S
C1776 C1779 1.386 . S
H1777 C1793 0.930 . S
H1778 C1794 0.928 1_455 S
C1779 H1767 0.929 . S
C1779 C1773 1.390 . S
C1779 C1776 1.386 . S
C1780 C1775 1.490 . S
C1780 C1782 1.362 1_655 S
C1780 C1783 1.403 . S
H1781 C1787 0.930 . S
C1782 H1768 0.954 . S
C1782 C1780 1.362 1_455 S
C1782 C1785 1.414 . S
C1783 C1780 1.403 . S
C1783 C1784 1.524 . S
C1783 C1787 1.400 . S
C1784 H1769 0.960 . S
C1784 H1770 0.960 . S
C1784 H1771 0.960 . S
C1784 C1783 1.524 . S
C1785 C1782 1.414 . S
C1785 C1786 1.392 1_455 S
C1785 C1789 1.495 . S
C1786 C1785 1.392 1_655 S
C1786 C1787 1.385 . S
C1786 C1788 1.478 . S
C1787 H1781 0.930 . S
C1787 C1783 1.400 . S
C1787 C1786 1.385 . S
C1788 C1786 1.478 . S
C1788 C1790 1.381 . S
C1788 C1794 1.389 . S
C1789 C1785 1.495 . S
C1789 H1795 0.959 . S
C1789 H1796 0.961 . S
C1789 H1797 0.960 . S
C1790 C1788 1.381 . S
C1790 C1791 1.394 . S
C1790 H1798 0.930 . S
C1791 C1790 1.394 . S
C1791 C1792 1.387 . S
C1791 H1799 0.929 . S
C1792 C1791 1.387 . S
C1792 C1793 1.375 1_655 S
C1793 H1777 0.930 . S
C1793 C1792 1.375 1_455 S
C1793 C1794 1.376 1_455 S
C1794 H1778 0.928 1_655 S
C1794 C1788 1.389 . S
C1794 C1793 1.376 1_655 S
H1795 C1789 0.959 . S
H1796 C1789 0.961 . S
H1797 C1789 0.960 . S
H1798 C1790 0.930 . S
H1799 C1791 0.929 . S
H1800 C1808 0.929 . S
H1801 C1810 0.930 . S
H1802 C1812 0.930 . S
H1803 C1815 0.929 . S
H1804 C1818 0.930 . S
H1805 C1820 0.960 . S
H1806 C1820 0.960 . S
H1807 C1820 0.960 . S
C1808 H1800 0.929 . S
C1808 C1809 1.377 . S
C1808 C1810 1.384 . S
C1809 C1808 1.377 . S
C1809 C1815 1.390 . S
C1810 H1801 0.930 . S
C1810 C1808 1.384 . S
C1810 C1811 1.372 . S
C1811 C1810 1.372 . S
C1811 C1812 1.400 . S
C1811 C1816 1.490 . S
C1812 H1802 0.930 . S
C1812 C1811 1.400 . S
C1812 C1815 1.386 . S
H1813 C1829 0.930 . S
H1814 C1830 0.931 . S
C1815 H1803 0.929 . S
C1815 C1809 1.390 . S
C1815 C1812 1.386 . S
C1816 C1811 1.490 . S
C1816 C1818 1.395 . S
C1816 C1819 1.403 . S
H1817 C1823 0.930 . S
C1818 H1804 0.930 . S
C1818 C1816 1.395 . S
C1818 C1821 1.403 . S
C1819 C1816 1.403 . S
C1819 C1820 1.524 . S
C1819 C1823 1.400 . S
C1820 H1805 0.960 . S
C1820 H1806 0.960 . S
C1820 H1807 0.960 . S
C1820 C1819 1.524 . S
C1821 C1818 1.403 . S
C1821 C1822 1.392 . S
C1821 C1825 1.495 . S
C1822 C1821 1.392 . S
C1822 C1823 1.385 . S
C1822 C1824 1.478 . S
C1823 H1817 0.930 . S
C1823 C1819 1.400 . S
C1823 C1822 1.385 . S
C1824 C1822 1.478 . S
C1824 C1826 1.381 . S
C1824 C1830 1.383 . S
C1825 C1821 1.495 . S
C1825 H1831 0.959 . S
C1825 H1832 0.961 . S
C1825 H1833 0.960 . S
C1826 C1824 1.381 . S
C1826 C1827 1.394 . S
C1826 H1834 0.930 . S
C1827 C1826 1.394 . S
C1827 C1828 1.383 . S
C1827 H1835 0.929 . S
C1828 C1827 1.383 . S
C1828 C1829 1.377 . S
C1829 H1813 0.930 . S
C1829 C1828 1.377 . S
C1829 C1830 1.379 . S
C1830 H1814 0.931 . S
C1830 C1824 1.383 . S
C1830 C1829 1.379 . S
H1831 C1825 0.959 . S
H1832 C1825 0.961 . S
H1833 C1825 0.960 . S
H1834 C1826 0.930 . S
H1835 C1827 0.929 . S
H1836 C1844 0.929 . S
H1837 C1846 0.930 . S
H1838 C1848 0.930 . S
H1839 C1851 0.929 . S
H1840 C1854 0.930 1_655 S
H1841 C1856 0.960 . S
H1842 C1856 0.960 . S
H1843 C1856 0.960 . S
C1844 H1836 0.929 . S
C1844 C1845 1.377 1_556 S
C1844 C1846 1.384 . S
C1845 C1844 1.377 1_554 S
C1845 C1851 1.390 . S
C1846 H1837 0.930 . S
C1846 C1844 1.384 . S
C1846 C1847 1.372 . S
C1847 C1846 1.372 . S
C1847 C1848 1.400 1_556 S
C1847 C1852 1.490 . S
C1848 H1838 0.930 . S
C1848 C1847 1.400 1_554 S
C1848 C1851 1.386 . S
H1849 C1865 0.945 . S
H1850 C1866 0.931 . S
C1851 H1839 0.929 . S
C1851 C1845 1.390 . S
C1851 C1848 1.386 . S
C1852 C1847 1.490 . S
C1852 C1854 1.395 . S
C1852 C1855 1.403 . S
H1853 C1859 0.930 . S
C1854 H1840 0.930 1_455 S
C1854 C1852 1.395 . S
C1854 C1857 1.418 . S
C1855 C1852 1.403 . S
C1855 C1856 1.524 . S
C1855 C1859 1.400 . S
C1856 H1841 0.960 . S
C1856 H1842 0.960 . S
C1856 H1843 0.960 . S
C1856 C1855 1.524 . S
C1857 C1854 1.418 . S
C1857 C1858 1.428 . S
C1857 C1861 1.449 1_455 S
C1858 C1857 1.428 . S
C1858 C1859 1.385 . S
C1858 C1860 1.478 . S
C1859 H1853 0.930 . S
C1859 C1855 1.400 . S
C1859 C1858 1.385 . S
C1860 C1858 1.478 . S
C1860 C1862 1.381 . S
C1860 C1866 1.383 . S
C1861 C1857 1.449 1_655 S
C1861 H1867 0.959 . S
C1861 H1868 0.961 . S
C1861 H1869 0.960 . S
C1862 C1860 1.381 . S
C1862 C1863 1.394 . S
C1862 H1870 0.930 . S
C1863 C1862 1.394 . S
C1863 C1864 1.383 . S
C1863 H1871 0.929 . S
C1864 C1863 1.383 . S
C1864 C1865 1.377 . S
C1865 H1849 0.945 . S
C1865 C1864 1.377 . S
C1865 C1866 1.379 . S
C1866 H1850 0.931 . S
C1866 C1860 1.383 . S
C1866 C1865 1.379 . S
H1867 C1861 0.959 . S
H1868 C1861 0.961 . S
H1869 C1861 0.960 . S
H1870 C1862 0.930 . S
H1871 C1863 0.929 . S
H1872 C1880 0.929 . S
H1873 C1882 0.930 . S
H1874 C1884 0.930 . S
H1875 C1887 0.929 . S
H1876 C1890 0.930 . S
H1877 C1892 0.960 . S
H1878 C1892 0.960 . S
H1879 C1892 0.960 . S
C1880 H1872 0.929 . S
C1880 C1881 1.377 . S
C1880 C1882 1.384 . S
C1881 C1880 1.377 . S
C1881 C1887 1.390 . S
C1882 H1873 0.930 . S
C1882 C1880 1.384 . S
C1882 C1883 1.372 . S
C1883 C1882 1.372 . S
C1883 C1884 1.400 . S
C1883 C1888 1.490 . S
C1884 H1874 0.930 . S
C1884 C1883 1.400 . S
C1884 C1887 1.386 . S
H1885 C1901 0.930 . S
H1886 C1902 0.931 . S
C1887 H1875 0.929 . S
C1887 C1881 1.390 . S
C1887 C1884 1.386 . S
C1888 C1883 1.490 . S
C1888 C1890 1.395 . S
C1888 C1891 1.403 . S
H1889 C1895 0.930 . S
C1890 H1876 0.930 . S
C1890 C1888 1.395 . S
C1890 C1893 1.403 . S
C1891 C1888 1.403 . S
C1891 C1892 1.524 . S
C1891 C1895 1.400 . S
C1892 H1877 0.960 . S
C1892 H1878 0.960 . S
C1892 H1879 0.960 . S
C1892 C1891 1.524 . S
C1893 C1890 1.403 . S
C1893 C1894 1.392 . S
C1893 C1897 1.495 . S
C1894 C1893 1.392 . S
C1894 C1895 1.385 . S
C1894 C1896 1.478 . S
C1895 H1889 0.930 . S
C1895 C1891 1.400 . S
C1895 C1894 1.385 . S
C1896 C1894 1.478 . S
C1896 C1898 1.381 . S
C1896 C1902 1.383 . S
C1897 C1893 1.495 . S
C1897 H1903 0.959 . S
C1897 H1904 0.961 . S
C1897 H1905 0.960 . S
C1898 C1896 1.381 . S
C1898 C1899 1.394 . S
C1898 H1906 0.930 . S
C1899 C1898 1.394 . S
C1899 C1900 1.383 . S
C1899 H1907 0.929 . S
C1900 C1899 1.383 . S
C1900 C1901 1.377 . S
C1901 H1885 0.930 . S
C1901 C1900 1.377 . S
C1901 C1902 1.379 . S
C1902 H1886 0.931 . S
C1902 C1896 1.383 . S
C1902 C1901 1.379 . S
H1903 C1897 0.959 . S
H1904 C1897 0.961 . S
H1905 C1897 0.960 . S
H1906 C1898 0.930 . S
H1907 C1899 0.929 . S
H1908 C1916 0.929 . S
H1909 C1918 0.930 . S
H1910 C1920 0.953 . S
H1911 C1923 0.929 . S
H1912 C1926 0.930 . S
H1913 C1928 0.960 . S
H1914 C1928 0.960 . S
H1915 C1928 0.960 . S
C1916 H1908 0.929 . S
C1916 C1917 1.377 1_554 S
C1916 C1918 1.384 . S
C1917 C1916 1.377 1_556 S
C1917 C1923 1.390 . S
C1918 H1909 0.930 . S
C1918 C1916 1.384 . S
C1918 C1919 1.372 . S
C1919 C1918 1.372 . S
C1919 C1920 1.341 1_554 S
C1919 C1924 1.490 . S
C1920 H1910 0.953 . S
C1920 C1919 1.341 1_556 S
C1920 C1923 1.424 . S
H1921 C1937 0.930 . S
H1922 C1938 0.931 . S
C1923 H1911 0.929 . S
C1923 C1917 1.390 . S
C1923 C1920 1.424 . S
C1924 C1919 1.490 . S
C1924 C1926 1.395 . S
C1924 C1927 1.403 . S
H1925 C1931 0.930 . S
C1926 H1912 0.930 . S
C1926 C1924 1.395 . S
C1926 C1929 1.403 . S
C1927 C1924 1.403 . S
C1927 C1928 1.524 . S
C1927 C1931 1.400 . S
C1928 H1913 0.960 . S
C1928 H1914 0.960 . S
C1928 H1915 0.960 . S
C1928 C1927 1.524 . S
C1929 C1926 1.403 . S
C1929 C1930 1.392 . S
C1929 C1933 1.495 . S
C1930 C1929 1.392 . S
C1930 C1931 1.385 . S
C1930 C1932 1.478 . S
C1931 H1925 0.930 . S
C1931 C1927 1.400 . S
C1931 C1930 1.385 . S
C1932 C1930 1.478 . S
C1932 C1934 1.381 . S
C1932 C1938 1.383 . S
C1933 C1929 1.495 . S
C1933 H1939 0.959 . S
C1933 H1940 0.961 . S
C1933 H1941 0.960 . S
C1934 C1932 1.381 . S
C1934 C1935 1.394 . S
C1934 H1942 0.930 . S
C1935 C1934 1.394 . S
C1935 C1936 1.383 . S
C1935 H1943 0.929 . S
C1936 C1935 1.383 . S
C1936 C1937 1.377 . S
C1937 H1921 0.930 . S
C1937 C1936 1.377 . S
C1937 C1938 1.379 . S
C1938 H1922 0.931 . S
C1938 C1932 1.383 . S
C1938 C1937 1.379 . S
H1939 C1933 0.959 . S
H1940 C1933 0.961 . S
H1941 C1933 0.960 . S
H1942 C1934 0.930 . S
H1943 C1935 0.929 . S
H1944 C1952 0.929 . S
H1945 C1954 0.930 . S
H1946 C1956 0.930 . S
H1947 C1959 0.929 . S
H1948 C1962 0.930 . S
H1949 C1964 0.960 . S
H1950 C1964 0.960 . S
H1951 C1964 0.960 . S
C1952 H1944 0.929 . S
C1952 C1953 1.377 . S
C1952 C1954 1.384 . S
C1953 C1952 1.377 . S
C1953 C1959 1.390 . S
C1954 H1945 0.930 . S
C1954 C1952 1.384 . S
C1954 C1955 1.372 . S
C1955 C1954 1.372 . S
C1955 C1956 1.400 . S
C1955 C1960 1.490 . S
C1956 H1946 0.930 . S
C1956 C1955 1.400 . S
C1956 C1959 1.386 . S
H1957 C1973 0.930 . S
H1958 C1974 0.931 . S
C1959 H1947 0.929 . S
C1959 C1953 1.390 . S
C1959 C1956 1.386 . S
C1960 C1955 1.490 . S
C1960 C1962 1.395 . S
C1960 C1963 1.403 . S
H1961 C1967 0.930 . S
C1962 H1948 0.930 . S
C1962 C1960 1.395 . S
C1962 C1965 1.403 . S
C1963 C1960 1.403 . S
C1963 C1964 1.524 . S
C1963 C1967 1.400 . S
C1964 H1949 0.960 . S
C1964 H1950 0.960 . S
C1964 H1951 0.960 . S
C1964 C1963 1.524 . S
C1965 C1962 1.403 . S
C1965 C1966 1.392 . S
C1965 C1969 1.495 . S
C1966 C1965 1.392 . S
C1966 C1967 1.385 . S
C1966 C1968 1.478 . S
C1967 H1961 0.930 . S
C1967 C1963 1.400 . S
C1967 C1966 1.385 . S
C1968 C1966 1.478 . S
C1968 C1970 1.381 . S
C1968 C1974 1.383 . S
C1969 C1965 1.495 . S
C1969 H1975 0.959 . S
C1969 H1976 0.961 . S
C1969 H1977 0.960 . S
C1970 C1968 1.381 . S
C1970 C1971 1.394 . S
C1970 H1978 0.930 . S
C1971 C1970 1.394 . S
C1971 C1972 1.383 . S
C1971 H1979 0.929 . S
C1972 C1971 1.383 . S
C1972 C1973 1.377 . S
C1973 H1957 0.930 . S
C1973 C1972 1.377 . S
C1973 C1974 1.379 . S
C1974 H1958 0.931 . S
C1974 C1968 1.383 . S
C1974 C1973 1.379 . S
H1975 C1969 0.959 . S
H1976 C1969 0.961 . S
H1977 C1969 0.960 . S
H1978 C1970 0.930 . S
H1979 C1971 0.929 . S
H1980 C1988 0.929 . S
H1981 C1990 0.930 . S
H1982 C1992 0.930 1_556 S
H1983 C1995 0.929 . S
H1984 C1998 0.930 . S
H1985 C2000 0.960 . S
H1986 C2000 0.960 . S
H1987 C2000 0.960 . S
C1988 H1980 0.929 . S
C1988 C1989 1.377 1_554 S
C1988 C1990 1.384 . S
C1989 C1988 1.377 1_556 S
C1989 C1995 1.390 . S
C1990 H1981 0.930 . S
C1990 C1988 1.384 . S
C1990 C1991 1.372 . S
C1991 C1990 1.372 . S
C1991 C1992 1.400 . S
C1991 C1996 1.490 . S
C1992 H1982 0.930 1_554 S
C1992 C1991 1.400 . S
C1992 C1995 1.386 1_554 S
H1993 C2009 0.930 . S
H1994 C2010 0.931 . S
C1995 H1983 0.929 . S
C1995 C1989 1.390 . S
C1995 C1992 1.386 1_556 S
C1996 C1991 1.490 . S
C1996 C1998 1.395 . S
C1996 C1999 1.403 . S
H1997 C2003 0.930 . S
C1998 H1984 0.930 . S
C1998 C1996 1.395 . S
C1998 C2001 1.403 . S
C1999 C1996 1.403 . S
C1999 C2000 1.524 . S
C1999 C2003 1.400 . S
C2000 H1985 0.960 . S
C2000 H1986 0.960 . S
C2000 H1987 0.960 . S
C2000 C1999 1.524 . S
C2001 C1998 1.403 . S
C2001 C2002 1.392 . S
C2001 C2005 1.495 . S
C2002 C2001 1.392 . S
C2002 C2003 1.385 . S
C2002 C2004 1.478 . S
C2003 H1997 0.930 . S
C2003 C1999 1.400 . S
C2003 C2002 1.385 . S
C2004 C2002 1.478 . S
C2004 C2006 1.381 . S
C2004 C2010 1.383 . S
C2005 C2001 1.495 . S
C2005 H2011 0.959 . S
C2005 H2012 0.961 . S
C2005 H2013 0.960 . S
C2006 C2004 1.381 . S
C2006 C2007 1.394 . S
C2006 H2014 0.930 . S
C2007 C2006 1.394 . S
C2007 C2008 1.383 . S
C2007 H2015 0.929 . S
C2008 C2007 1.383 . S
C2008 C2009 1.377 . S
C2009 H1993 0.930 . S
C2009 C2008 1.377 . S
C2009 C2010 1.379 . S
C2010 H1994 0.931 . S
C2010 C2004 1.383 . S
C2010 C2009 1.379 . S
H2011 C2005 0.959 . S
H2012 C2005 0.961 . S
H2013 C2005 0.960 . S
H2014 C2006 0.930 . S
H2015 C2007 0.929 . S
H2016 C2024 0.929 . S
H2017 C2026 0.930 . S
H2018 C2028 0.930 . S
H2019 C2031 0.929 . S
H2020 C2034 0.930 . S
H2021 C2036 0.960 . S
H2022 C2036 0.960 . S
H2023 C2036 0.960 . S
C2024 H2016 0.929 . S
C2024 C2025 1.377 . S
C2024 C2026 1.384 . S
C2025 C2024 1.377 . S
C2025 C2031 1.390 . S
C2026 H2017 0.930 . S
C2026 C2024 1.384 . S
C2026 C2027 1.372 . S
C2027 C2026 1.372 . S
C2027 C2028 1.400 . S
C2027 C2032 1.490 . S
C2028 H2018 0.930 . S
C2028 C2027 1.400 . S
C2028 C2031 1.386 . S
H2029 C2045 0.930 . S
H2030 C2046 0.931 . S
C2031 H2019 0.929 . S
C2031 C2025 1.390 . S
C2031 C2028 1.386 . S
C2032 C2027 1.490 . S
C2032 C2034 1.395 . S
C2032 C2035 1.403 . S
H2033 C2039 0.930 . S
C2034 H2020 0.930 . S
C2034 C2032 1.395 . S
C2034 C2037 1.403 . S
C2035 C2032 1.403 . S
C2035 C2036 1.524 . S
C2035 C2039 1.400 . S
C2036 H2021 0.960 . S
C2036 H2022 0.960 . S
C2036 H2023 0.960 . S
C2036 C2035 1.524 . S
C2037 C2034 1.403 . S
C2037 C2038 1.392 . S
C2037 C2041 1.495 . S
C2038 C2037 1.392 . S
C2038 C2039 1.385 . S
C2038 C2040 1.478 . S
C2039 H2033 0.930 . S
C2039 C2035 1.400 . S
C2039 C2038 1.385 . S
C2040 C2038 1.478 . S
C2040 C2042 1.381 . S
C2040 C2046 1.383 . S
C2041 C2037 1.495 . S
C2041 H2047 0.959 . S
C2041 H2048 0.961 . S
C2041 H2049 0.960 . S
C2042 C2040 1.381 . S
C2042 C2043 1.394 . S
C2042 H2050 0.930 . S
C2043 C2042 1.394 . S
C2043 C2044 1.383 . S
C2043 H2051 0.929 . S
C2044 C2043 1.383 . S
C2044 C2045 1.377 . S
C2045 H2029 0.930 . S
C2045 C2044 1.377 . S
C2045 C2046 1.379 . S
C2046 H2030 0.931 . S
C2046 C2040 1.383 . S
C2046 C2045 1.379 . S
H2047 C2041 0.959 . S
H2048 C2041 0.961 . S
H2049 C2041 0.960 . S
H2050 C2042 0.930 . S
H2051 C2043 0.929 . S
H2052 C2060 0.929 . S
H2053 C2062 0.930 . S
H2054 C2064 0.930 . S
H2055 C2067 0.929 . S
H2056 C2070 0.930 . S
H2057 C2072 0.960 . S
H2058 C2072 0.960 . S
H2059 C2072 0.960 . S
C2060 H2052 0.929 . S
C2060 C2061 1.377 . S
C2060 C2062 1.384 . S
C2061 C2060 1.377 . S
C2061 C2067 1.390 . S
C2062 H2053 0.930 . S
C2062 C2060 1.384 . S
C2062 C2063 1.372 . S
C2063 C2062 1.372 . S
C2063 C2064 1.400 . S
C2063 C2068 1.490 . S
C2064 H2054 0.930 . S
C2064 C2063 1.400 . S
C2064 C2067 1.386 . S
H2065 C2081 0.930 . S
H2066 C2082 0.931 . S
C2067 H2055 0.929 . S
C2067 C2061 1.390 . S
C2067 C2064 1.386 . S
C2068 C2063 1.490 . S
C2068 C2070 1.395 . S
C2068 C2071 1.403 . S
H2069 C2075 0.930 . S
C2070 H2056 0.930 . S
C2070 C2068 1.395 . S
C2070 C2073 1.403 . S
C2071 C2068 1.403 . S
C2071 C2072 1.524 . S
C2071 C2075 1.400 . S
C2072 H2057 0.960 . S
C2072 H2058 0.960 . S
C2072 H2059 0.960 . S
C2072 C2071 1.524 . S
C2073 C2070 1.403 . S
C2073 C2074 1.392 . S
C2073 C2077 1.495 . S
C2074 C2073 1.392 . S
C2074 C2075 1.385 . S
C2074 C2076 1.478 . S
C2075 H2069 0.930 . S
C2075 C2071 1.400 . S
C2075 C2074 1.385 . S
C2076 C2074 1.478 . S
C2076 C2078 1.381 . S
C2076 C2082 1.383 . S
C2077 C2073 1.495 . S
C2077 H2083 0.959 . S
C2077 H2084 0.961 . S
C2077 H2085 0.960 . S
C2078 C2076 1.381 . S
C2078 C2079 1.394 . S
C2078 H2086 0.930 . S
C2079 C2078 1.394 . S
C2079 C2080 1.383 . S
C2079 H2087 0.929 . S
C2080 C2079 1.383 . S
C2080 C2081 1.377 . S
C2081 H2065 0.930 . S
C2081 C2080 1.377 . S
C2081 C2082 1.379 . S
C2082 H2066 0.931 . S
C2082 C2076 1.383 . S
C2082 C2081 1.379 . S
H2083 C2077 0.959 . S
H2084 C2077 0.961 . S
H2085 C2077 0.960 . S
H2086 C2078 0.930 . S
H2087 C2079 0.929 . S
H2088 C2096 0.929 . S
H2089 C2098 0.930 . S
H2090 C2100 0.930 . S
H2091 C2103 0.929 . S
H2092 C2106 0.930 . S
H2093 C2108 0.960 . S
H2094 C2108 0.960 . S
H2095 C2108 0.960 . S
C2096 H2088 0.929 . S
C2096 C2097 1.377 . S
C2096 C2098 1.384 . S
C2097 C2096 1.377 . S
C2097 C2103 1.390 . S
C2098 H2089 0.930 . S
C2098 C2096 1.384 . S
C2098 C2099 1.372 . S
C2099 C2098 1.372 . S
C2099 C2100 1.400 . S
C2099 C2104 1.490 . S
C2100 H2090 0.930 . S
C2100 C2099 1.400 . S
C2100 C2103 1.386 . S
H2101 C2117 0.930 . S
H2102 C2118 0.931 . S
C2103 H2091 0.929 . S
C2103 C2097 1.390 . S
C2103 C2100 1.386 . S
C2104 C2099 1.490 . S
C2104 C2106 1.395 . S
C2104 C2107 1.403 . S
H2105 C2111 0.930 . S
C2106 H2092 0.930 . S
C2106 C2104 1.395 . S
C2106 C2109 1.403 . S
C2107 C2104 1.403 . S
C2107 C2108 1.524 . S
C2107 C2111 1.400 . S
C2108 H2093 0.960 . S
C2108 H2094 0.960 . S
C2108 H2095 0.960 . S
C2108 C2107 1.524 . S
C2109 C2106 1.403 . S
C2109 C2110 1.392 . S
C2109 C2113 1.495 . S
C2110 C2109 1.392 . S
C2110 C2111 1.385 . S
C2110 C2112 1.478 . S
C2111 H2105 0.930 . S
C2111 C2107 1.400 . S
C2111 C2110 1.385 . S
C2112 C2110 1.478 . S
C2112 C2114 1.381 . S
C2112 C2118 1.383 . S
C2113 C2109 1.495 . S
C2113 H2119 0.959 . S
C2113 H2120 0.961 . S
C2113 H2121 0.960 . S
C2114 C2112 1.381 . S
C2114 C2115 1.394 . S
C2114 H2122 0.930 . S
C2115 C2114 1.394 . S
C2115 C2116 1.383 . S
C2115 H2123 0.929 . S
C2116 C2115 1.383 . S
C2116 C2117 1.377 . S
C2117 H2101 0.930 . S
C2117 C2116 1.377 . S
C2117 C2118 1.379 . S
C2118 H2102 0.931 . S
C2118 C2112 1.383 . S
C2118 C2117 1.379 . S
H2119 C2113 0.959 . S
H2120 C2113 0.961 . S
H2121 C2113 0.960 . S
H2122 C2114 0.930 . S
H2123 C2115 0.929 . S
H2124 C2132 0.929 . S
H2125 C2134 0.930 . S
H2126 C2136 0.930 . S
H2127 C2139 0.929 . S
H2128 C2142 0.930 . S
H2129 C2144 0.960 . S
H2130 C2144 0.960 . S
H2131 C2144 0.960 . S
C2132 H2124 0.929 . S
C2132 C2133 1.377 . S
C2132 C2134 1.384 . S
C2133 C2132 1.377 . S
C2133 C2139 1.390 . S
C2134 H2125 0.930 . S
C2134 C2132 1.384 . S
C2134 C2135 1.372 . S
C2135 C2134 1.372 . S
C2135 C2136 1.400 . S
C2135 C2140 1.490 . S
C2136 H2126 0.930 . S
C2136 C2135 1.400 . S
C2136 C2139 1.386 . S
H2137 C2153 0.930 . S
H2138 C2154 0.931 . S
C2139 H2127 0.929 . S
C2139 C2133 1.390 . S
C2139 C2136 1.386 . S
C2140 C2135 1.490 . S
C2140 C2142 1.395 . S
C2140 C2143 1.403 . S
H2141 C2147 0.930 . S
C2142 H2128 0.930 . S
C2142 C2140 1.395 . S
C2142 C2145 1.403 . S
C2143 C2140 1.403 . S
C2143 C2144 1.524 . S
C2143 C2147 1.400 . S
C2144 H2129 0.960 . S
C2144 H2130 0.960 . S
C2144 H2131 0.960 . S
C2144 C2143 1.524 . S
C2145 C2142 1.403 . S
C2145 C2146 1.392 . S
C2145 C2149 1.495 . S
C2146 C2145 1.392 . S
C2146 C2147 1.385 . S
C2146 C2148 1.478 . S
C2147 H2141 0.930 . S
C2147 C2143 1.400 . S
C2147 C2146 1.385 . S
C2148 C2146 1.478 . S
C2148 C2150 1.381 . S
C2148 C2154 1.383 . S
C2149 C2145 1.495 . S
C2149 H2155 0.959 . S
C2149 H2156 0.961 . S
C2149 H2157 0.960 . S
C2150 C2148 1.381 . S
C2150 C2151 1.394 . S
C2150 H2158 0.930 . S
C2151 C2150 1.394 . S
C2151 C2152 1.383 . S
C2151 H2159 0.929 . S
C2152 C2151 1.383 . S
C2152 C2153 1.377 . S
C2153 H2137 0.930 . S
C2153 C2152 1.377 . S
C2153 C2154 1.379 . S
C2154 H2138 0.931 . S
C2154 C2148 1.383 . S
C2154 C2153 1.379 . S
H2155 C2149 0.959 . S
H2156 C2149 0.961 . S
H2157 C2149 0.960 . S
H2158 C2150 0.930 . S
H2159 C2151 0.929 . S
H2160 C2168 0.929 . S
H2161 C2170 0.930 . S
H2162 C2172 0.930 . S
H2163 C2175 0.929 . S
H2164 C2178 0.930 . S
H2165 C2180 0.960 1_554 S
H2166 C2180 0.960 1_554 S
H2167 C2180 0.960 . S
C2168 H2160 0.929 . S
C2168 C2169 1.377 . S
C2168 C2170 1.384 . S
C2169 C2168 1.377 . S
C2169 C2175 1.390 . S
C2170 H2161 0.930 . S
C2170 C2168 1.384 . S
C2170 C2171 1.372 . S
C2171 C2170 1.372 . S
C2171 C2172 1.400 . S
C2171 C2176 1.490 . S
C2172 H2162 0.930 . S
C2172 C2171 1.400 . S
C2172 C2175 1.386 . S
H2173 C2189 0.930 . S
H2174 C2190 0.931 . S
C2175 H2163 0.929 . S
C2175 C2169 1.390 . S
C2175 C2172 1.386 . S
C2176 C2171 1.490 . S
C2176 C2178 1.395 . S
C2176 C2179 1.403 . S
H2177 C2183 0.930 . S
C2178 H2164 0.930 . S
C2178 C2176 1.395 . S
C2178 C2181 1.403 . S
C2179 C2176 1.403 . S
C2179 C2180 1.524 . S
C2179 C2183 1.400 . S
C2180 H2165 0.960 1_556 S
C2180 H2166 0.960 1_556 S
C2180 H2167 0.960 . S
C2180 C2179 1.524 . S
C2181 C2178 1.403 . S
C2181 C2182 1.392 . S
C2181 C2185 1.495 . S
C2182 C2181 1.392 . S
C2182 C2183 1.385 . S
C2182 C2184 1.478 . S
C2183 H2177 0.930 . S
C2183 C2179 1.400 . S
C2183 C2182 1.385 . S
C2184 C2182 1.478 . S
C2184 C2186 1.381 1_556 S
C2184 C2190 1.383 . S
C2185 C2181 1.495 . S
C2185 H2191 0.959 . S
C2185 H2192 0.961 . S
C2185 H2193 0.960 . S
C2186 C2184 1.381 1_554 S
C2186 C2187 1.394 . S
C2186 H2194 0.930 . S
C2187 C2186 1.394 . S
C2187 C2188 1.383 1_554 S
C2187 H2195 0.929 . S
C2188 C2187 1.383 1_556 S
C2188 C2189 1.377 . S
C2189 H2173 0.930 . S
C2189 C2188 1.377 . S
C2189 C2190 1.379 . S
C2190 H2174 0.931 . S
C2190 C2184 1.383 . S
C2190 C2189 1.379 . S
H2191 C2185 0.959 . S
H2192 C2185 0.961 . S
H2193 C2185 0.960 . S
H2194 C2186 0.930 . S
H2195 C2187 0.929 . S
H2196 C2204 0.929 . S
H2197 C2206 0.930 . S
H2198 C2208 0.930 . S
H2199 C2211 0.929 . S
H2200 C2214 0.930 . S
H2201 C2216 0.960 . S
H2202 C2216 0.960 . S
H2203 C2216 0.960 . S
C2204 H2196 0.929 . S
C2204 C2205 1.377 . S
C2204 C2206 1.384 . S
C2205 C2204 1.377 . S
C2205 C2211 1.390 . S
C2206 H2197 0.930 . S
C2206 C2204 1.384 . S
C2206 C2207 1.372 . S
C2207 C2206 1.372 . S
C2207 C2208 1.400 . S
C2207 C2212 1.490 . S
C2208 H2198 0.930 . S
C2208 C2207 1.400 . S
C2208 C2211 1.386 . S
H2209 C2225 0.930 . S
H2210 C2226 0.931 . S
C2211 H2199 0.929 . S
C2211 C2205 1.390 . S
C2211 C2208 1.386 . S
C2212 C2207 1.490 . S
C2212 C2214 1.395 . S
C2212 C2215 1.403 . S
H2213 C2219 0.930 . S
C2214 H2200 0.930 . S
C2214 C2212 1.395 . S
C2214 C2217 1.403 . S
C2215 C2212 1.403 . S
C2215 C2216 1.524 . S
C2215 C2219 1.400 . S
C2216 H2201 0.960 . S
C2216 H2202 0.960 . S
C2216 H2203 0.960 . S
C2216 C2215 1.524 . S
C2217 C2214 1.403 . S
C2217 C2218 1.392 . S
C2217 C2221 1.495 . S
C2218 C2217 1.392 . S
C2218 C2219 1.385 . S
C2218 C2220 1.478 . S
C2219 H2213 0.930 . S
C2219 C2215 1.400 . S
C2219 C2218 1.385 . S
C2220 C2218 1.478 . S
C2220 C2222 1.381 . S
C2220 C2226 1.383 . S
C2221 C2217 1.495 . S
C2221 H2227 0.959 . S
C2221 H2228 0.961 . S
C2221 H2229 0.960 . S
C2222 C2220 1.381 . S
C2222 C2223 1.394 . S
C2222 H2230 0.930 . S
C2223 C2222 1.394 . S
C2223 C2224 1.383 . S
C2223 H2231 0.929 . S
C2224 C2223 1.383 . S
C2224 C2225 1.377 . S
C2225 H2209 0.930 . S
C2225 C2224 1.377 . S
C2225 C2226 1.379 . S
C2226 H2210 0.931 . S
C2226 C2220 1.383 . S
C2226 C2225 1.379 . S
H2227 C2221 0.959 . S
H2228 C2221 0.961 . S
H2229 C2221 0.960 . S
H2230 C2222 0.930 . S
H2231 C2223 0.929 . S
H2232 C2240 0.929 . S
H2233 C2242 0.930 . S
H2234 C2244 0.930 . S
H2235 C2247 0.929 . S
H2236 C2250 0.930 . S
H2237 C2252 0.960 . S
H2238 C2252 0.960 . S
H2239 C2252 0.960 . S
C2240 H2232 0.929 . S
C2240 C2241 1.377 . S
C2240 C2242 1.384 . S
C2241 C2240 1.377 . S
C2241 C2247 1.390 . S
C2242 H2233 0.930 . S
C2242 C2240 1.384 . S
C2242 C2243 1.372 . S
C2243 C2242 1.372 . S
C2243 C2244 1.400 . S
C2243 C2248 1.490 . S
C2244 H2234 0.930 . S
C2244 C2243 1.400 . S
C2244 C2247 1.386 . S
H2245 C2261 0.930 . S
H2246 C2262 0.931 . S
C2247 H2235 0.929 . S
C2247 C2241 1.390 . S
C2247 C2244 1.386 . S
C2248 C2243 1.490 . S
C2248 C2250 1.395 . S
C2248 C2251 1.403 . S
H2249 C2255 0.930 . S
C2250 H2236 0.930 . S
C2250 C2248 1.395 . S
C2250 C2253 1.403 . S
C2251 C2248 1.403 . S
C2251 C2252 1.524 . S
C2251 C2255 1.400 . S
C2252 H2237 0.960 . S
C2252 H2238 0.960 . S
C2252 H2239 0.960 . S
C2252 C2251 1.524 . S
C2253 C2250 1.403 . S
C2253 C2254 1.392 . S
C2253 C2257 1.495 1_554 S
C2254 C2253 1.392 . S
C2254 C2255 1.385 . S
C2254 C2256 1.478 . S
C2255 H2249 0.930 . S
C2255 C2251 1.400 . S
C2255 C2254 1.385 . S
C2256 C2254 1.478 . S
C2256 C2258 1.381 . S
C2256 C2262 1.383 1_554 S
C2257 C2253 1.495 1_556 S
C2257 H2263 0.959 . S
C2257 H2264 0.961 . S
C2257 H2265 0.960 1_556 S
C2258 C2256 1.381 . S
C2258 C2259 1.394 . S
C2258 H2266 0.930 . S
C2259 C2258 1.394 . S
C2259 C2260 1.383 . S
C2259 H2267 0.929 . S
C2260 C2259 1.383 . S
C2260 C2261 1.377 1_554 S
C2261 H2245 0.930 . S
C2261 C2260 1.377 1_556 S
C2261 C2262 1.379 . S
C2262 H2246 0.931 . S
C2262 C2256 1.383 1_556 S
C2262 C2261 1.379 . S
H2263 C2257 0.959 . S
H2264 C2257 0.961 . S
H2265 C2257 0.960 1_554 S
H2266 C2258 0.930 . S
H2267 C2259 0.929 . S
H2268 C2276 0.929 . S
H2269 C2278 0.930 . S
H2270 C2280 0.930 . S
H2271 C2283 0.929 . S
H2272 C2286 0.930 1_556 S
H2273 C2288 0.960 . S
H2274 C2288 0.960 . S
H2275 C2288 0.960 . S
C2276 H2268 0.929 . S
C2276 C2277 1.377 1_565 S
C2276 C2278 1.384 . S
C2277 C2276 1.377 1_545 S
C2277 C2283 1.390 . S
C2278 H2269 0.930 . S
C2278 C2276 1.384 . S
C2278 C2279 1.372 . S
C2279 C2278 1.372 . S
C2279 C2280 1.400 1_565 S
C2279 C2284 1.490 . S
C2280 H2270 0.930 . S
C2280 C2279 1.400 1_545 S
C2280 C2283 1.386 . S
H2281 C2297 0.930 . S
H2282 C2298 0.931 . S
C2283 H2271 0.929 . S
C2283 C2277 1.390 . S
C2283 C2280 1.386 . S
C2284 C2279 1.490 . S
C2284 C2286 1.395 . S
C2284 C2287 1.403 . S
H2285 C2291 0.930 . S
C2286 H2272 0.930 1_554 S
C2286 C2284 1.395 . S
C2286 C2289 1.412 . S
C2287 C2284 1.403 . S
C2287 C2288 1.524 . S
C2287 C2291 1.400 . S
C2288 H2273 0.960 . S
C2288 H2274 0.960 . S
C2288 H2275 0.960 . S
C2288 C2287 1.524 . S
C2289 C2286 1.412 . S
C2289 C2290 1.423 . S
C2289 C2293 1.458 1_554 S
C2290 C2289 1.423 . S
C2290 C2291 1.385 . S
C2290 C2292 1.478 . S
C2291 H2285 0.930 . S
C2291 C2287 1.400 . S
C2291 C2290 1.385 . S
C2292 C2290 1.478 . S
C2292 C2294 1.381 . S
C2292 C2298 1.383 . S
C2293 C2289 1.458 1_556 S
C2293 H2299 0.959 . S
C2293 H2300 0.961 . S
C2293 H2301 0.960 . S
C2294 C2292 1.381 . S
C2294 C2295 1.394 . S
C2294 H2302 0.930 . S
C2295 C2294 1.394 . S
C2295 C2296 1.383 . S
C2295 H2303 0.929 . S
C2296 C2295 1.383 . S
C2296 C2297 1.377 . S
C2297 H2281 0.930 . S
C2297 C2296 1.377 . S
C2297 C2298 1.379 . S
C2298 H2282 0.931 . S
C2298 C2292 1.383 . S
C2298 C2297 1.379 . S
H2299 C2293 0.959 . S
H2300 C2293 0.961 . S
H2301 C2293 0.960 . S
H2302 C2294 0.930 . S
H2303 C2295 0.929 . S
C604 C146 1.417 . S
C585 C50 1.416 . S
C640 C194 1.605 . S
C621 C61 1.673 1_455 S
C657 C67 1.411 . S
C676 C230 1.338 . S
C712 C266 1.553 . S
C693 C41 1.622 . S
C748 C292 1.425 . S
C729 C95 1.421 . S
C784 C328 1.583 . S
C765 C113 1.589 . S
C801 C106 1.447 . S
C820 C363 1.454 . S
C856 C400 1.605 1_565 S
C837 C86 1.620 . S
C873 C104 1.403 . S
C892 C434 1.408 . S
C928 C482 1.531 . S
C909 C88 1.604 . S
C945 C94 1.414 . S
C964 C435 1.416 . S
C1000 C472 1.603 . S
C981 C112 1.604 . S
C1017 C70 1.429 . S
C1036 C518 1.396 . S
C1053 C40 1.634 . S
C1072 C507 1.619 . S
C1089 C49 1.460 . S
C1108 C508 1.456 . S
C1125 C59 1.659 . S
C1144 C506 1.648 1_655 S
C1161 C34 1.395 . S
C1180 C254 1.377 . S
C1197 C133 1.392 . S
C1216 C255 1.397 . S
C1252 C158 1.579 . S
C1233 C139 1.657 . S
C1288 C183 1.446 . S
C1269 C77 1.452 . S
C1305 C43 1.610 1_545 S
C1324 C290 1.615 . S
C1360 C398 1.445 . S
C1341 C103 1.443 . S
C1396 C291 1.597 . S
C1377 C85 1.613 . S
C1432 C364 1.601 . S
C1413 C115 1.603 . S
C1468 C362 1.397 . S
C1449 C131 1.415 . S
C1485 C142 1.669 . S
C1504 C410 1.625 . S
C1521 C76 1.408 . S
C1540 C302 1.367 . S
C1576 C338 1.574 . S
C1557 C122 1.620 . S
C1593 C32 1.420 . S
C1612 C220 1.414 . S
C1648 C256 1.585 . S
C1629 C5 1.590 . S
C1684 C147 1.448 . S
C1665 C16 1.450 . S
C1720 C184 1.617 . S
C1701 C23 1.619 . S
C1737 C14 1.404 . S
C1756 C470 1.409 . S
C1773 C25 1.607 . S
C1792 C446 1.577 . S
C1809 C31 1.415 . S
C1828 C471 1.415 . S
C1845 C4 1.604 . S
C1864 C436 1.593 . S
C1900 C554 1.383 . S
C1881 C79 1.430 . S
C1936 C543 1.625 . S
C1917 C121 1.634 . S
C1972 C544 1.453 . S
C1953 C130 1.460 . S
C1989 C140 1.659 . S
C2008 C542 1.643 . S
C2025 C97 1.399 . S
C2044 C326 1.404 . S
C2080 C327 1.401 . S
C2061 C52 1.392 . S
C2116 C374 1.576 . S
C2097 C58 1.656 . S
C2152 C399 1.449 . S
C2133 C68 1.457 . S
C2169 C124 1.622 . S
C2188 C218 1.617 1_556 S
C2224 C182 1.447 . S
C2205 C13 1.449 . S
C2241 C22 1.613 . S
C2260 C219 1.602 . S
C2296 C148 1.590 . S
C2277 C7 1.602 . S
