# Generated by pormake.
# Topology ant, (3,6)-cn, num edge types: 1
# Building blocks:
#     Node 0, Type 0, BuildingBlock: INOVEN_clean_linker_0, # of connection points: 3
#     Node 1, Type 0, BuildingBlock: INOVEN_clean_linker_0, # of connection points: 3
#     Node 2, Type 0, BuildingBlock: INOVEN_clean_linker_0, # of connection points: 3
#     Node 3, Type 0, BuildingBlock: INOVEN_clean_linker_0, # of connection points: 3
#     Node 4, Type 0, BuildingBlock: INOVEN_clean_linker_0, # of connection points: 3
#     Node 5, Type 0, BuildingBlock: INOVEN_clean_linker_0, # of connection points: 3
#     Node 6, Type 0, BuildingBlock: INOVEN_clean_linker_0, # of connection points: 3
#     Node 7, Type 0, BuildingBlock: INOVEN_clean_linker_0, # of connection points: 3
#     Node 8, Type 1, BuildingBlock: MIDCAF_clean_sbu_0, # of connection points: 6
#     Node 9, Type 1, BuildingBlock: MIDCAF_clean_sbu_0, # of connection points: 6
#     Node 10, Type 1, BuildingBlock: MIDCAF_clean_sbu_0, # of connection points: 6
#     Node 11, Type 1, BuildingBlock: MIDCAF_clean_sbu_0, # of connection points: 6
#     Edge 12, Type (0, 1), BuildingBlock: OJICUG_clean_linker_0, # of connection points: 2
#     Edge 13, Type (0, 1), BuildingBlock: OJICUG_clean_linker_0, # of connection points: 2
#     Edge 14, Type (0, 1), BuildingBlock: OJICUG_clean_linker_0, # of connection points: 2
#     Edge 15, Type (0, 1), BuildingBlock: OJICUG_clean_linker_0, # of connection points: 2
#     Edge 16, Type (0, 1), BuildingBlock: OJICUG_clean_linker_0, # of connection points: 2
#     Edge 17, Type (0, 1), BuildingBlock: OJICUG_clean_linker_0, # of connection points: 2
#     Edge 18, Type (0, 1), BuildingBlock: OJICUG_clean_linker_0, # of connection points: 2
#     Edge 19, Type (0, 1), BuildingBlock: OJICUG_clean_linker_0, # of connection points: 2
#     Edge 20, Type (0, 1), BuildingBlock: OJICUG_clean_linker_0, # of connection points: 2
#     Edge 21, Type (0, 1), BuildingBlock: OJICUG_clean_linker_0, # of connection points: 2
#     Edge 22, Type (0, 1), BuildingBlock: OJICUG_clean_linker_0, # of connection points: 2
#     Edge 23, Type (0, 1), BuildingBlock: OJICUG_clean_linker_0, # of connection points: 2
#     Edge 24, Type (0, 1), BuildingBlock: OJICUG_clean_linker_0, # of connection points: 2
#     Edge 25, Type (0, 1), BuildingBlock: OJICUG_clean_linker_0, # of connection points: 2
#     Edge 26, Type (0, 1), BuildingBlock: OJICUG_clean_linker_0, # of connection points: 2
#     Edge 27, Type (0, 1), BuildingBlock: OJICUG_clean_linker_0, # of connection points: 2
#     Edge 28, Type (0, 1), BuildingBlock: OJICUG_clean_linker_0, # of connection points: 2
#     Edge 29, Type (0, 1), BuildingBlock: OJICUG_clean_linker_0, # of connection points: 2
#     Edge 30, Type (0, 1), BuildingBlock: OJICUG_clean_linker_0, # of connection points: 2
#     Edge 31, Type (0, 1), BuildingBlock: OJICUG_clean_linker_0, # of connection points: 2
#     Edge 32, Type (0, 1), BuildingBlock: OJICUG_clean_linker_0, # of connection points: 2
#     Edge 33, Type (0, 1), BuildingBlock: OJICUG_clean_linker_0, # of connection points: 2
#     Edge 34, Type (0, 1), BuildingBlock: OJICUG_clean_linker_0, # of connection points: 2
#     Edge 35, Type (0, 1), BuildingBlock: OJICUG_clean_linker_0, # of connection points: 2
# Relax obj value: 0.055
# Max RMSD: 0.146
# Mean RMSD: 0.085
data_MOF--net-ant--node1-MIDCAF_clean_sbu_0--node2-INOVEN_clean_linker_0--edge1-OJICUG_clean_linker_0
_symmetry_space_group_name_H-M    P1
_symmetry_Int_Tables_number       1
_symmetry_cell_setting            triclinic
loop_
_symmetry_equiv_pos_as_xyz
'x, y, z'
_cell_length_a     20.924623
_cell_length_b     20.908797
_cell_length_c     51.152519
_cell_angle_alpha  93.906443
_cell_angle_beta   99.343464
_cell_angle_gamma 89.764203
loop_
_atom_site_label
_atom_site_type_symbol
_atom_site_fract_x
_atom_site_fract_y
_atom_site_fract_z
_atom_type_partial_charge
H0 H 0.04409 0.15766 0.08833 0.0
H1 H 0.11061 0.26319 0.02833 0.0
H2 H 0.11969 0.05774 0.02371 0.0
N3 N 0.07271 0.04284 0.06918 0.0
N4 N 0.10673 0.995 0.06539 0.0
C5 C 0.06402 0.15895 0.0701 0.0
C6 C 0.07464 0.21807 0.05984 0.0
C7 C 0.08113 0.10119 0.05748 0.0
C8 C 0.10672 0.10212 0.03371 0.0
C9 C 0.11653 0.16057 0.02307 0.0
C10 C 0.10072 0.2181 0.03623 0.0
H11 H 0.02773 0.89057 0.34093 0.0
H12 H 0.13505 0.82966 0.2789 0.0
H13 H 0.92919 0.80252 0.26685 0.0
N14 N 0.9136 0.84972 0.31597 0.0
N15 N 0.85981 0.83396 0.30273 0.0
C16 C 0.02875 0.87219 0.32067 0.0
C17 C 0.08816 0.86639 0.31132 0.0
C18 C 0.97097 0.8507 0.30455 0.0
C19 C 0.97277 0.82283 0.27885 0.0
C20 C 0.03203 0.81499 0.26971 0.0
C21 C 0.08905 0.83842 0.28566 0.0
H22 H 0.82103 0.83643 0.58293 0.0
H23 H 0.67974 0.89085 0.51731 0.0
H24 H 0.72295 0.69209 0.527 0.0
N25 N 0.80917 0.71081 0.57183 0.0
N26 N 0.82149 0.65733 0.56143 0.0
C27 C 0.78698 0.82397 0.565 0.0
C28 C 0.75236 0.87243 0.55089 0.0
C29 C 0.77763 0.75904 0.55623 0.0
C30 C 0.73194 0.74214 0.53348 0.0
C31 C 0.695 0.7894 0.51999 0.0
C32 C 0.70618 0.85429 0.52856 0.0
H33 H 0.72134 0.33898 0.85153 0.0
H34 H 0.81642 0.33502 0.78295 0.0
H35 H 0.61116 0.30567 0.77301 0.0
N36 N 0.60383 0.31477 0.82562 0.0
N37 N 0.55217 0.29161 0.81289 0.0
C38 C 0.71902 0.33668 0.83016 0.0
C39 C 0.77626 0.34096 0.81929 0.0
C40 C 0.65921 0.32461 0.81365 0.0
C41 C 0.65644 0.31772 0.78594 0.0
C42 C 0.71315 0.32263 0.77501 0.0
C43 C 0.77238 0.33542 0.79161 0.0
H44 H 0.11438 0.69634 0.88322 0.0
H45 H 0.11294 0.57912 0.94872 0.0
H46 H 0.15459 0.78125 0.96318 0.0
N47 N 0.13989 0.80506 0.91085 0.0
N48 N 0.15941 0.85559 0.92408 0.0
C49 C 0.11928 0.69147 0.90442 0.0
C50 C 0.11205 0.6312 0.91394 0.0
C51 C 0.13428 0.74557 0.92198 0.0
C52 C 0.14249 0.73949 0.94957 0.0
C53 C 0.13497 0.67915 0.95943 0.0
C54 C 0.11888 0.62577 0.94138 0.0
H55 H 0.5281 0.70265 0.12021 0.0
H56 H 0.42997 0.77123 0.184 0.0
H57 H 0.6369 0.75258 0.19771 0.0
N58 N 0.64588 0.7044 0.14806 0.0
N59 N 0.69944 0.70262 0.16287 0.0
C60 C 0.52967 0.72239 0.14045 0.0
C61 C 0.47187 0.73951 0.14974 0.0
C62 C 0.58932 0.72722 0.15759 0.0
C63 C 0.5912 0.74991 0.18424 0.0
C64 C 0.53389 0.76656 0.19389 0.0
C65 C 0.47478 0.76238 0.17634 0.0
H66 H 0.43404 0.25303 0.39098 0.0
H67 H 0.53798 0.13242 0.44829 0.0
H68 H 0.57458 0.33547 0.45476 0.0
N69 N 0.49126 0.36154 0.41076 0.0
N70 N 0.51737 0.41235 0.42162 0.0
C71 C 0.46834 0.24744 0.40897 0.0
C72 C 0.48026 0.18627 0.41845 0.0
C73 C 0.50189 0.30137 0.42202 0.0
C74 C 0.54814 0.29394 0.44474 0.0
C75 C 0.5614 0.23301 0.45435 0.0
C76 C 0.52636 0.17965 0.44142 0.0
H77 H 0.24504 0.37995 0.63971 0.0
H78 H 0.14273 0.33532 0.70268 0.0
H79 H 0.34897 0.31337 0.71254 0.0
N80 N 0.36145 0.34977 0.66362 0.0
N81 N 0.41298 0.32472 0.67386 0.0
C82 C 0.24532 0.36598 0.65975 0.0
C83 C 0.18671 0.36202 0.66965 0.0
C84 C 0.30412 0.34905 0.67513 0.0
C85 C 0.3043 0.3283 0.70077 0.0
C86 C 0.24603 0.32364 0.71067 0.0
C87 C 0.18788 0.3414 0.69525 0.0
Zn88 Zn 0.14417 0.56158 0.15138 0.0
Zn89 Zn 0.99434 0.62887 0.08643 0.0
Zn90 Zn 0.07412 0.61612 0.11953 0.0
C91 C 0.09759 0.61983 0.0624 0.0
C92 C 0.05945 0.74734 0.09864 0.0
O93 O 0.04325 0.65704 0.15542 0.0
O94 O 0.11593 0.60845 0.18317 0.0
C95 C 0.07896 0.4669 0.11601 0.0
O96 O 0.11671 0.64701 0.08566 0.0
O97 O 0.04385 0.59012 0.05807 0.0
O98 O 1.00115 0.72807 0.09355 0.0
O99 O 0.10404 0.7047 0.10346 0.0
O100 O 0.11355 0.47209 0.13876 0.0
O101 O 0.06036 0.51755 0.10444 0.0
O102 O 0.16333 0.66464 0.11438 0.0
O103 O 0.22312 0.59654 0.139 0.0
C104 C 0.21924 0.64339 0.12438 0.0
O105 O 0.98398 0.64489 0.1342 0.0
O106 O 0.92417 0.58768 0.10163 0.0
C107 C 0.07083 0.6489 0.17923 0.0
C108 C 0.92886 0.61957 0.12383 0.0
Zn109 Zn 0.41614 0.72785 0.33531 0.0
Zn110 Zn 0.5612 0.86681 0.38484 0.0
Zn111 Zn 0.49265 0.79646 0.36185 0.0
C112 C 0.47113 0.94426 0.36876 0.0
C113 C 0.63687 0.81982 0.3535 0.0
O114 O 0.4965 0.70435 0.38198 0.0
O115 O 0.45002 0.64486 0.347 0.0
C116 C 0.34002 0.81584 0.35466 0.0
O117 O 0.4441 0.88963 0.37031 0.0
O118 O 0.53066 0.94574 0.36744 0.0
O119 O 0.6459 0.83447 0.37814 0.0
O120 O 0.5783 0.81057 0.34123 0.0
O121 O 0.33567 0.7567 0.348 0.0
O122 O 0.39588 0.84354 0.35827 0.0
O123 O 0.52566 0.78685 0.32323 0.0
O124 O 0.4315 0.75496 0.30016 0.0
C125 C 0.48857 0.77493 0.30081 0.0
O126 O 0.52944 0.75502 0.39978 0.0
O127 O 0.53599 0.85154 0.41979 0.0
C128 C 0.47977 0.64865 0.37058 0.0
C129 C 0.537 0.79157 0.42135 0.0
Zn130 Zn 0.71242 0.35348 0.59048 0.0
Zn131 Zn 0.85441 0.20964 0.63847 0.0
Zn132 Zn 0.77888 0.28235 0.61148 0.0
C133 C 0.93297 0.30549 0.62667 0.0
C134 C 0.80014 0.1319 0.59515 0.0
O135 O 0.69306 0.30324 0.63243 0.0
O136 O 0.62598 0.33352 0.59791 0.0
C137 C 0.80831 0.42974 0.60638 0.0
O138 O 0.87721 0.32782 0.61714 0.0
O139 O 0.93707 0.25176 0.63655 0.0
O140 O 0.83736 0.12914 0.61703 0.0
O141 O 0.77349 0.18559 0.58859 0.0
O142 O 0.7489 0.43596 0.60735 0.0
O143 O 0.83181 0.37261 0.60462 0.0
O144 O 0.73904 0.23394 0.57271 0.0
O145 O 0.73038 0.32622 0.55437 0.0
C146 C 0.72879 0.26577 0.55179 0.0
O147 O 0.74487 0.28108 0.64992 0.0
O148 O 0.81914 0.22106 0.67213 0.0
C149 C 0.6352 0.31792 0.62157 0.0
C150 C 0.76939 0.25563 0.67151 0.0
Zn151 Zn 0.11005 0.17025 0.83553 0.0
Zn152 Zn 0.25566 0.29938 0.89699 0.0
Zn153 Zn 0.17979 0.23955 0.86664 0.0
C154 C 0.20633 0.21897 0.92789 0.0
C155 C 0.16512 0.38509 0.87664 0.0
O156 O 0.22281 0.23622 0.82995 0.0
O157 O 0.13697 0.19785 0.80268 0.0
C158 C 0.15975 0.08915 0.87177 0.0
O159 O 0.19009 0.19142 0.90441 0.0
O160 O 0.23212 0.27393 0.93054 0.0
O161 O 0.22557 0.38377 0.88409 0.0
O162 O 0.13282 0.33221 0.8724 0.0
O163 O 0.13836 0.08591 0.84721 0.0
O164 O 0.17287 0.14464 0.88411 0.0
O165 O 0.08525 0.2892 0.85964 0.0
O166 O 0.02679 0.20275 0.84525 0.0
C167 C 0.02972 0.26113 0.85344 0.0
O168 O 0.27312 0.2517 0.85054 0.0
O169 O 0.33904 0.27018 0.88843 0.0
C170 C 0.1925 0.22343 0.80616 0.0
C171 C 0.33122 0.25913 0.86359 0.0
C172 C 0.08535 0.28715 0.10237 0.0
C173 C 0.06479 0.28002 0.07479 0.0
H174 H 0.10517 0.35145 0.13699 0.0
C175 C 0.04129 0.33418 0.06139 0.0
H176 H 0.10426 0.24676 0.11331 0.0
C177 C 0.04228 0.39471 0.07499 0.0
C178 C 0.06685 0.40229 0.10227 0.0
H179 H 0.02412 0.33012 0.0402 0.0
H180 H 0.02661 0.43587 0.0639 0.0
C181 C 0.08633 0.34748 0.11593 0.0
C182 C 0.74232 0.82787 0.2999 0.0
C183 C 0.80439 0.82852 0.31518 0.0
H184 H 0.63989 0.8269 0.30015 0.0
C185 C 0.8108 0.82235 0.34264 0.0
H186 H 0.73659 0.83233 0.27868 0.0
C187 C 0.75613 0.817 0.35465 0.0
C188 C 0.69363 0.81834 0.3396 0.0
H189 H 0.85813 0.82153 0.35487 0.0
H190 H 0.76298 0.81282 0.37591 0.0
C191 C 0.6872 0.82366 0.31207 0.0
C192 C 0.83395 0.60362 0.60335 0.0
C193 C 0.84267 0.60456 0.57669 0.0
H194 H 0.81858 0.54478 0.63447 0.0
C195 C 0.85997 0.54769 0.56348 0.0
H196 H 0.82058 0.64672 0.61408 0.0
C197 C 0.86058 0.48934 0.57548 0.0
C198 C 0.84244 0.48727 0.60065 0.0
H199 H 0.86678 0.54751 0.54294 0.0
H200 H 0.86653 0.44532 0.56369 0.0
C201 C 0.83347 0.54525 0.61516 0.0
C202 C 0.89399 0.37183 0.83075 0.0
C203 C 0.84094 0.33625 0.83593 0.0
H204 H 0.99741 0.37662 0.83323 0.0
C205 C 0.85262 0.28527 0.85253 0.0
H206 H 0.88621 0.41146 0.81804 0.0
C207 C 0.9158 0.26495 0.86079 0.0
C208 C 0.96838 0.29599 0.85305 0.0
H209 H 0.81292 0.25665 0.85672 0.0
H210 H 0.92319 0.22158 0.87132 0.0
C211 C 0.95753 0.3521 0.83949 0.0
C212 C 0.06817 0.52039 0.90003 0.0
C213 C 0.10759 0.57214 0.89605 0.0
H214 H 0.05469 0.4183 0.89593 0.0
C215 C 0.15351 0.56234 0.87904 0.0
H216 H 0.03168 0.52705 0.91274 0.0
C217 C 0.16663 0.50047 0.86958 0.0
C218 C 0.13355 0.44782 0.87674 0.0
H219 H 0.18449 0.60119 0.87556 0.0
H220 H 0.20713 0.49324 0.85893 0.0
C221 C 0.08092 0.45833 0.89026 0.0
C222 C 0.81549 0.68273 0.17028 0.0
C223 C 0.75557 0.67844 0.1534 0.0
H224 H 0.91761 0.66564 0.17446 0.0
C225 C 0.75241 0.65027 0.12749 0.0
H226 H 0.81858 0.70355 0.19043 0.0
C227 C 0.80863 0.62873 0.11843 0.0
C228 C 0.86926 0.63526 0.13497 0.0
H229 H 0.70673 0.64561 0.11408 0.0
H230 H 0.80468 0.60884 0.09811 0.0
C231 C 0.87197 0.66138 0.16114 0.0
C232 C 0.53071 0.52892 0.42305 0.0
C233 C 0.50799 0.47113 0.40909 0.0
H234 H 0.53912 0.63114 0.42211 0.0
C235 C 0.47741 0.4723 0.38261 0.0
H236 H 0.55464 0.52886 0.44348 0.0
C237 C 0.46952 0.52991 0.37039 0.0
C238 C 0.4915 0.58827 0.38428 0.0
H239 H 0.45983 0.42859 0.37117 0.0
H240 H 0.4456 0.52841 0.34992 0.0
C241 C 0.52218 0.58722 0.41082 0.0
C242 C 0.10871 0.32887 0.62876 0.0
C243 C 0.12299 0.36823 0.65235 0.0
H244 H 0.03435 0.27896 0.60128 0.0
C245 C 0.07214 0.40136 0.66214 0.0
H246 H 0.14676 0.30237 0.62088 0.0
C247 C 0.00767 0.38889 0.65051 0.0
C248 C 0.99337 0.34262 0.6292 0.0
H249 H 0.0819 0.43211 0.68027 0.0
H250 H 0.96922 0.40928 0.66023 0.0
C251 C 0.0443 0.31573 0.61742 0.0
C252 C 0.47145 0.36072 0.63942 0.0
C253 C 0.46929 0.32528 0.66161 0.0
H254 H 0.5257 0.38647 0.60985 0.0
C255 C 0.5231 0.28837 0.67126 0.0
H256 H 0.43094 0.38994 0.63155 0.0
C257 C 0.57776 0.28569 0.65853 0.0
C258 C 0.5796 0.32079 0.63621 0.0
H259 H 0.52209 0.26047 0.68827 0.0
H260 H 0.61749 0.25489 0.66567 0.0
C261 C 0.5259 0.35853 0.62694 0.0
C262 C 0.39622 0.65846 0.12353 0.0
C263 C 0.40755 0.72197 0.13398 0.0
H264 H 0.32583 0.5837 0.11184 0.0
C265 C 0.35431 0.76328 0.13453 0.0
H266 H 0.43604 0.62537 0.123 0.0
C267 C 0.29085 0.73939 0.12779 0.0
C268 C 0.28019 0.67385 0.12079 0.0
H269 H 0.36178 0.81259 0.14238 0.0
H270 H 0.25081 0.77048 0.13087 0.0
C271 C 0.33306 0.63451 0.11721 0.0
C272 C 0.44199 0.25137 0.81133 0.0
C273 C 0.49784 0.28182 0.82561 0.0
H274 H 0.34571 0.21736 0.81235 0.0
C275 C 0.49918 0.30183 0.85245 0.0
H276 H 0.44042 0.23505 0.79068 0.0
C277 C 0.44539 0.29272 0.86457 0.0
C278 C 0.3887 0.26337 0.85028 0.0
H279 H 0.54153 0.32527 0.86408 0.0
H280 H 0.44805 0.31012 0.88516 0.0
C281 C 0.38785 0.24173 0.82362 0.0
C282 C 0.20238 0.90767 0.32133 0.0
C283 C 0.15072 0.87573 0.32949 0.0
H284 H 0.30555 0.91574 0.3244 0.0
C285 C 0.16348 0.83903 0.35171 0.0
H286 H 0.19366 0.93622 0.30422 0.0
C287 C 0.22734 0.82669 0.36297 0.0
C288 C 0.27916 0.85192 0.35251 0.0
H289 H 0.12468 0.81353 0.35831 0.0
H290 H 0.23617 0.79181 0.37785 0.0
C291 C 0.26636 0.89637 0.333 0.0
C292 C 0.71341 0.98649 0.55795 0.0
C293 C 0.7645 0.94178 0.55926 0.0
H294 H 0.68466 0.08305 0.56777 0.0
C295 C 0.82777 0.96377 0.56888 0.0
H296 H 0.66393 0.97128 0.55072 0.0
C297 C 0.83929 0.02742 0.57848 0.0
C298 C 0.78803 0.07113 0.57856 0.0
H299 H 0.8685 0.93146 0.56951 0.0
H300 H 0.88838 0.04194 0.58694 0.0
C301 C 0.72514 0.05072 0.56746 0.0
C302 C 0.03908 0.92239 0.08554 0.0
C303 C 0.0968 0.93569 0.07615 0.0
H304 H 0.98236 0.85192 0.10009 0.0
C305 C 0.14427 0.8882 0.0762 0.0
H306 H 1.0015 0.9581 0.08565 0.0
C307 C 0.13393 0.82772 0.08498 0.0
C308 C 0.07501 0.81345 0.09321 0.0
H309 H 0.18894 0.89774 0.06899 0.0
H310 H 0.17067 0.79132 0.08412 0.0
C311 C 0.02815 0.86164 0.09379 0.0
C312 C 0.45931 0.12002 0.37547 0.0
C313 C 0.45284 0.12802 0.40241 0.0
H314 H 0.46762 0.05277 0.34277 0.0
C315 C 0.43158 0.07575 0.41473 0.0
H316 H 0.47566 0.15933 0.36542 0.0
C317 C 0.42537 0.0148 0.40141 0.0
C318 C 0.44172 0.00545 0.37589 0.0
H319 H 0.42542 0.08088 0.43539 0.0
H320 H 0.41651 0.97406 0.41238 0.0
C321 C 0.45413 0.05904 0.36236 0.0
C322 C 0.18991 0.969 0.92524 0.0
C323 C 0.16181 0.91343 0.91115 0.0
H324 H 0.21406 0.06833 0.92369 0.0
C325 C 0.13563 0.91593 0.88415 0.0
H326 H 0.21074 0.96788 0.94602 0.0
C327 C 0.13645 0.97276 0.87167 0.0
C328 C 0.16356 0.029 0.88569 0.0
H329 H 0.11351 0.87408 0.8726 0.0
H330 H 0.11465 0.97251 0.85095 0.0
C331 C 0.19133 0.02638 0.91254 0.0
C332 C 0.20319 0.19857 0.0 0.0
C333 C 0.14597 0.16322 -0.00116 0.0
H334 H 0.26817 0.2421 0.97828 0.0
C335 C 0.11361 0.13771 0.97413 0.0
H336 H 0.22904 0.21831 0.0189 0.0
C337 C 0.13563 0.15186 0.95069 0.0
C338 C 0.19061 0.19103 0.95184 0.0
H339 H 0.06913 0.11051 0.97288 0.0
H340 H 0.10746 0.13563 0.93174 0.0
C341 C 0.22544 0.21211 0.97676 0.0
C342 C 0.00841 0.78601 0.22058 0.0
C343 C 0.03684 0.77141 0.24623 0.0
H344 H 0.99762 0.75875 0.17886 0.0
C345 C 0.07183 0.71451 0.24976 0.0
H346 H 0.98105 0.82971 0.21754 0.0
C347 C 0.08013 0.67355 0.228 0.0
C348 C 0.05411 0.68887 0.20211 0.0
H349 H 0.09344 0.70206 0.26947 0.0
H350 H 0.1084 0.63055 0.23148 0.0
C351 C 0.01762 0.74529 0.19859 0.0
C352 C 0.66085 0.73405 0.47485 0.0
C353 C 0.64519 0.77234 0.49655 0.0
H354 H 0.63613 0.70858 0.43311 0.0
C355 C 0.58431 0.80177 0.49432 0.0
H356 H 0.70748 0.71074 0.47614 0.0
C357 C 0.54333 0.79979 0.46992 0.0
C358 C 0.56257 0.76832 0.44739 0.0
H359 H 0.57063 0.83052 0.51094 0.0
H360 H 0.49969 0.82837 0.46806 0.0
C361 C 0.61967 0.73213 0.45032 0.0
C362 C 0.73842 0.24139 0.74111 0.0
C363 C 0.71414 0.30223 0.74706 0.0
H364 H 0.77416 0.17869 0.71216 0.0
C365 C 0.7004 0.34529 0.7271 0.0
H366 H 0.74949 0.20779 0.75642 0.0
C367 C 0.71457 0.32875 0.70168 0.0
C368 C 0.74285 0.2692 0.69622 0.0
H369 H 0.68216 0.39268 0.73154 0.0
H370 H 0.70687 0.36375 0.68683 0.0
C371 C 0.75275 0.225 0.71591 0.0
C372 C 0.16568 0.6139 -0.00099 0.0
C373 C 0.14019 0.67089 0.98833 0.0
H374 H 0.17144 0.55239 0.03128 0.0
C375 C 0.1116 0.71547 0.0046 0.0
H376 H 0.18967 0.57929 0.98726 0.0
C377 C 0.10323 0.70067 0.03002 0.0
C378 C 0.12311 0.64117 0.0395 0.0
H379 H 0.09108 0.75949 -0.00297 0.0
H380 H 0.0764 0.7335 0.04138 0.0
C381 C 0.15611 0.59864 0.02426 0.0
C382 C 0.48979 0.82345 0.2318 0.0
C383 C 0.53344 0.77909 0.2228 0.0
H384 H 0.44137 0.85647 0.26397 0.0
C385 C 0.56954 0.74016 0.24117 0.0
H386 H 0.46199 0.85472 0.21825 0.0
C387 C 0.5584 0.74211 0.26743 0.0
C388 C 0.5112 0.78298 0.27563 0.0
H389 H 0.60296 0.70491 0.23487 0.0
H390 H 0.58367 0.70897 0.28084 0.0
C391 C 0.47821 0.82478 0.25791 0.0
C392 C 0.60226 0.19136 0.49901 0.0
C393 C 0.61326 0.22582 0.47746 0.0
H394 H 0.63308 0.17543 0.54015 0.0
C395 C 0.67216 0.25902 0.47917 0.0
H396 H 0.55747 0.16493 0.49813 0.0
C397 C 0.71541 0.26443 0.503 0.0
C398 C 0.70076 0.2365 0.52551 0.0
H399 H 0.68282 0.28444 0.4626 0.0
H400 H 0.75739 0.29549 0.50452 0.0
C401 C 0.64594 0.19661 0.52295 0.0
C402 C 0.26952 0.32314 0.76038 0.0
C403 C 0.24336 0.29301 0.73561 0.0
H404 H 0.27354 0.32459 0.80266 0.0
C405 C 0.20812 0.2358 0.73455 0.0
H406 H 0.29663 0.36754 0.76152 0.0
C407 C 0.19576 0.21093 0.7578 0.0
C408 C 0.21809 0.24295 0.78262 0.0
H409 H 0.18784 0.21172 0.7156 0.0
H410 H 0.1661 0.16805 0.75626 0.0
C411 C 0.25658 0.29843 0.78381 0.0
loop_
_geom_bond_atom_site_label_1
_geom_bond_atom_site_label_2
_geom_bond_distance
_geom_bond_site_symmetry_2
_ccdc_geom_bond_type
H0 C5 0.929 . S
H1 C10 0.931 . S
H2 C8 0.930 . S
N3 N4 1.234 . S
N3 C7 1.453 . S
N4 N3 1.234 . S
C5 H0 0.929 . S
C5 C6 1.373 . S
C5 C7 1.368 . S
C6 C5 1.373 . S
C6 C10 1.397 . S
C7 N3 1.453 . S
C7 C5 1.368 . S
C7 C8 1.373 . S
C8 H2 0.930 . S
C8 C7 1.373 . S
C8 C9 1.371 . S
C9 C8 1.371 . S
C9 C10 1.383 . S
C10 H1 0.931 . S
C10 C6 1.397 . S
C10 C9 1.383 . S
H11 C16 0.929 . S
H12 C21 0.931 . S
H13 C19 0.930 . S
N14 N15 1.234 1_455 S
N14 C18 1.453 . S
N15 N14 1.234 1_655 S
C16 H11 0.929 . S
C16 C17 1.373 . S
C16 C18 1.368 . S
C17 C16 1.373 . S
C17 C21 1.397 . S
C18 N14 1.453 . S
C18 C16 1.368 . S
C18 C19 1.373 . S
C19 H13 0.930 . S
C19 C18 1.373 . S
C19 C20 1.371 . S
C20 C19 1.371 . S
C20 C21 1.383 . S
C21 H12 0.931 . S
C21 C17 1.397 . S
C21 C20 1.383 . S
H22 C27 0.929 . S
H23 C32 0.931 . S
H24 C30 0.930 . S
N25 N26 1.234 . S
N25 C29 1.453 . S
N26 N25 1.234 . S
C27 H22 0.929 . S
C27 C28 1.373 . S
C27 C29 1.368 . S
C28 C27 1.373 . S
C28 C32 1.397 . S
C29 N25 1.453 . S
C29 C27 1.368 . S
C29 C30 1.373 . S
C30 H24 0.930 . S
C30 C29 1.373 . S
C30 C31 1.371 . S
C31 C30 1.371 . S
C31 C32 1.383 . S
C32 H23 0.931 . S
C32 C28 1.397 . S
C32 C31 1.383 . S
H33 C38 0.929 . S
H34 C43 0.931 . S
H35 C41 0.930 . S
N36 N37 1.234 . S
N36 C40 1.453 . S
N37 N36 1.234 . S
C38 H33 0.929 . S
C38 C39 1.373 . S
C38 C40 1.368 . S
C39 C38 1.373 . S
C39 C43 1.397 . S
C40 N36 1.453 . S
C40 C38 1.368 . S
C40 C41 1.373 . S
C41 H35 0.930 . S
C41 C40 1.373 . S
C41 C42 1.371 . S
C42 C41 1.371 . S
C42 C43 1.383 . S
C43 H34 0.931 . S
C43 C39 1.397 . S
C43 C42 1.383 . S
H44 C49 0.929 . S
H45 C54 0.931 . S
H46 C52 0.930 . S
N47 N48 1.234 . S
N47 C51 1.453 . S
N48 N47 1.234 . S
C49 H44 0.929 . S
C49 C50 1.373 . S
C49 C51 1.368 . S
C50 C49 1.373 . S
C50 C54 1.397 . S
C51 N47 1.453 . S
C51 C49 1.368 . S
C51 C52 1.373 . S
C52 H46 0.930 . S
C52 C51 1.373 . S
C52 C53 1.371 . S
C53 C52 1.371 . S
C53 C54 1.383 . S
C54 H45 0.931 . S
C54 C50 1.397 . S
C54 C53 1.383 . S
H55 C60 0.929 . S
H56 C65 0.931 . S
H57 C63 0.930 . S
N58 N59 1.234 . S
N58 C62 1.453 . S
N59 N58 1.234 . S
C60 H55 0.929 . S
C60 C61 1.373 . S
C60 C62 1.368 . S
C61 C60 1.373 . S
C61 C65 1.397 . S
C62 N58 1.453 . S
C62 C60 1.368 . S
C62 C63 1.373 . S
C63 H57 0.930 . S
C63 C62 1.373 . S
C63 C64 1.371 . S
C64 C63 1.371 . S
C64 C65 1.383 . S
C65 H56 0.931 . S
C65 C61 1.397 . S
C65 C64 1.383 . S
H66 C71 0.929 . S
H67 C76 0.931 . S
H68 C74 0.930 . S
N69 N70 1.234 . S
N69 C73 1.453 . S
N70 N69 1.234 . S
C71 H66 0.929 . S
C71 C72 1.373 . S
C71 C73 1.368 . S
C72 C71 1.373 . S
C72 C76 1.397 . S
C73 N69 1.453 . S
C73 C71 1.368 . S
C73 C74 1.373 . S
C74 H68 0.930 . S
C74 C73 1.373 . S
C74 C75 1.371 . S
C75 C74 1.371 . S
C75 C76 1.383 . S
C76 H67 0.931 . S
C76 C72 1.397 . S
C76 C75 1.383 . S
H77 C82 0.929 . S
H78 C87 0.931 . S
H79 C85 0.930 . S
N80 N81 1.234 . S
N80 C84 1.453 . S
N81 N80 1.234 . S
C82 H77 0.929 . S
C82 C83 1.373 . S
C82 C84 1.368 . S
C83 C82 1.373 . S
C83 C87 1.397 . S
C84 N80 1.453 . S
C84 C82 1.368 . S
C84 C85 1.373 . S
C85 H79 0.930 . S
C85 C84 1.373 . S
C85 C86 1.371 . S
C86 C85 1.371 . S
C86 C87 1.383 . S
C87 H78 0.931 . S
C87 C83 1.397 . S
C87 C86 1.383 . S
Zn88 O94 1.920 . S
Zn88 O100 1.898 . S
Zn88 O103 1.905 . S
Zn89 O97 1.905 . S
Zn89 O98 1.898 . S
Zn89 O106 1.920 1_455 S
Zn90 O93 2.080 . S
Zn90 O96 2.114 . S
Zn90 O99 2.120 . S
Zn90 O101 2.120 . S
Zn90 O102 2.114 . S
Zn90 O105 2.080 . S
C91 O96 1.166 . S
C91 O97 1.182 . S
C92 O98 1.167 . S
C92 O99 1.299 . S
O93 Zn90 2.080 . S
O93 C107 1.305 . S
O94 Zn88 1.920 . S
O94 C107 1.234 . S
C95 O100 1.167 . S
C95 O101 1.299 . S
O96 Zn90 2.114 . S
O96 C91 1.166 . S
O97 Zn89 1.905 . S
O97 C91 1.182 . S
O98 Zn89 1.898 . S
O98 C92 1.167 . S
O99 Zn90 2.120 . S
O99 C92 1.299 . S
O100 Zn88 1.898 . S
O100 C95 1.167 . S
O101 Zn90 2.120 . S
O101 C95 1.299 . S
O102 Zn90 2.114 . S
O102 C104 1.166 . S
O103 Zn88 1.905 . S
O103 C104 1.182 . S
C104 O102 1.166 . S
C104 O103 1.182 . S
O105 Zn90 2.080 . S
O105 C108 1.305 . S
O106 Zn89 1.920 1_655 S
O106 C108 1.234 1_655 S
C107 O93 1.305 . S
C107 O94 1.234 . S
C108 O105 1.305 . S
C108 O106 1.234 1_455 S
Zn109 O115 1.920 . S
Zn109 O121 1.898 . S
Zn109 O124 1.905 . S
Zn110 O118 1.905 . S
Zn110 O119 1.898 . S
Zn110 O127 1.920 . S
Zn111 O114 2.080 . S
Zn111 O117 2.114 . S
Zn111 O120 2.120 . S
Zn111 O122 2.120 . S
Zn111 O123 2.114 . S
Zn111 O126 2.080 . S
C112 O117 1.166 . S
C112 O118 1.182 . S
C113 O119 1.167 . S
C113 O120 1.299 . S
O114 Zn111 2.080 . S
O114 C128 1.305 . S
O115 Zn109 1.920 . S
O115 C128 1.234 . S
C116 O121 1.167 . S
C116 O122 1.299 . S
O117 Zn111 2.114 . S
O117 C112 1.166 . S
O118 Zn110 1.905 . S
O118 C112 1.182 . S
O119 Zn110 1.898 . S
O119 C113 1.167 . S
O120 Zn111 2.120 . S
O120 C113 1.299 . S
O121 Zn109 1.898 . S
O121 C116 1.167 . S
O122 Zn111 2.120 . S
O122 C116 1.299 . S
O123 Zn111 2.114 . S
O123 C125 1.166 . S
O124 Zn109 1.905 . S
O124 C125 1.182 . S
C125 O123 1.166 . S
C125 O124 1.182 . S
O126 Zn111 2.080 . S
O126 C129 1.305 . S
O127 Zn110 1.920 . S
O127 C129 1.234 . S
C128 O114 1.305 . S
C128 O115 1.234 . S
C129 O126 1.305 . S
C129 O127 1.234 . S
Zn130 O136 1.920 . S
Zn130 O142 1.898 . S
Zn130 O145 1.905 . S
Zn131 O139 1.905 . S
Zn131 O140 1.898 . S
Zn131 O148 1.920 . S
Zn132 O135 2.080 . S
Zn132 O138 2.114 . S
Zn132 O141 2.120 . S
Zn132 O143 2.120 . S
Zn132 O144 2.114 . S
Zn132 O147 2.080 . S
C133 O138 1.166 . S
C133 O139 1.182 . S
C134 O140 1.167 . S
C134 O141 1.299 . S
O135 Zn132 2.080 . S
O135 C149 1.305 . S
O136 Zn130 1.920 . S
O136 C149 1.234 . S
C137 O142 1.167 . S
C137 O143 1.299 . S
O138 Zn132 2.114 . S
O138 C133 1.166 . S
O139 Zn131 1.905 . S
O139 C133 1.182 . S
O140 Zn131 1.898 . S
O140 C134 1.167 . S
O141 Zn132 2.120 . S
O141 C134 1.299 . S
O142 Zn130 1.898 . S
O142 C137 1.167 . S
O143 Zn132 2.120 . S
O143 C137 1.299 . S
O144 Zn132 2.114 . S
O144 C146 1.166 . S
O145 Zn130 1.905 . S
O145 C146 1.182 . S
C146 O144 1.166 . S
C146 O145 1.182 . S
O147 Zn132 2.080 . S
O147 C150 1.305 . S
O148 Zn131 1.920 . S
O148 C150 1.234 . S
C149 O135 1.305 . S
C149 O136 1.234 . S
C150 O147 1.305 . S
C150 O148 1.234 . S
Zn151 O157 1.920 1_655 S
Zn151 O163 1.898 1_655 S
Zn151 O166 1.905 . S
Zn152 O160 1.905 . S
Zn152 O161 1.898 . S
Zn152 O169 1.920 . S
Zn153 O156 2.080 . S
Zn153 O159 2.114 . S
Zn153 O162 2.120 . S
Zn153 O164 2.120 . S
Zn153 O165 2.123 . S
Zn153 O168 2.080 . S
C154 O159 1.166 . S
C154 O160 1.182 . S
C155 O161 1.167 . S
C155 O162 1.299 . S
O156 Zn153 2.080 . S
O156 C170 1.305 . S
O157 Zn151 1.920 1_455 S
O157 C170 1.234 . S
C158 O163 1.167 . S
C158 O164 1.299 . S
O159 Zn153 2.114 . S
O159 C154 1.166 . S
O160 Zn152 1.905 . S
O160 C154 1.182 . S
O161 Zn152 1.898 . S
O161 C155 1.167 . S
O162 Zn153 2.120 . S
O162 C155 1.299 . S
O163 Zn151 1.898 1_455 S
O163 C158 1.167 . S
O164 Zn153 2.120 . S
O164 C158 1.299 . S
O165 Zn153 2.123 . S
O165 C167 1.160 1_455 S
O166 Zn151 1.905 . S
O166 C167 1.182 . S
C167 O165 1.160 1_655 S
C167 O166 1.182 . S
O168 Zn153 2.080 . S
O168 C171 1.305 . S
O169 Zn152 1.920 . S
O169 C171 1.234 . S
C170 O156 1.305 . S
C170 O157 1.234 . S
C171 O168 1.305 . S
C171 O169 1.234 . S
C172 C173 1.387 . S
C172 H176 0.950 . S
C172 C181 1.390 . S
C173 C172 1.387 . S
C173 C175 1.387 . S
H174 C181 0.950 . S
C175 C173 1.387 . S
C175 C177 1.390 . S
C175 H179 0.950 . S
H176 C172 0.950 . S
C177 C175 1.390 . S
C177 C178 1.387 . S
C177 H180 0.950 . S
C178 C177 1.387 . S
C178 C181 1.387 . S
H179 C175 0.950 . S
H180 C177 0.950 . S
C181 C172 1.390 . S
C181 H174 0.950 . S
C181 C178 1.387 . S
C182 C183 1.387 . S
C182 H186 0.950 . S
C182 C191 1.390 . S
C183 C182 1.387 . S
C183 C185 1.387 . S
H184 C191 0.950 . S
C185 C183 1.387 . S
C185 C187 1.390 . S
C185 H189 0.950 . S
H186 C182 0.950 . S
C187 C185 1.390 . S
C187 C188 1.387 . S
C187 H190 0.950 . S
C188 C187 1.387 . S
C188 C191 1.387 . S
H189 C185 0.950 . S
H190 C187 0.950 . S
C191 C182 1.390 . S
C191 H184 0.950 . S
C191 C188 1.387 . S
C192 C193 1.387 . S
C192 H196 0.950 . S
C192 C201 1.390 . S
C193 C192 1.387 . S
C193 C195 1.387 . S
H194 C201 0.950 . S
C195 C193 1.387 . S
C195 C197 1.390 . S
C195 H199 0.950 . S
H196 C192 0.950 . S
C197 C195 1.390 . S
C197 C198 1.387 . S
C197 H200 0.950 . S
C198 C197 1.387 . S
C198 C201 1.387 . S
H199 C195 0.950 . S
H200 C197 0.950 . S
C201 C192 1.390 . S
C201 H194 0.950 . S
C201 C198 1.387 . S
C202 C203 1.387 . S
C202 H206 0.950 . S
C202 C211 1.390 . S
C203 C202 1.387 . S
C203 C205 1.387 . S
H204 C211 0.950 . S
C205 C203 1.387 . S
C205 C207 1.390 . S
C205 H209 0.950 . S
H206 C202 0.950 . S
C207 C205 1.390 . S
C207 C208 1.387 . S
C207 H210 0.950 . S
C208 C207 1.387 . S
C208 C211 1.387 . S
H209 C205 0.950 . S
H210 C207 0.950 . S
C211 C202 1.390 . S
C211 H204 0.950 . S
C211 C208 1.387 . S
C212 C213 1.387 . S
C212 H216 0.950 1_455 S
C212 C221 1.390 . S
C213 C212 1.387 . S
C213 C215 1.387 . S
H214 C221 0.950 1_655 S
C215 C213 1.387 . S
C215 C217 1.390 . S
C215 H219 0.950 . S
H216 C212 0.950 1_655 S
C217 C215 1.390 . S
C217 C218 1.387 . S
C217 H220 0.950 . S
C218 C217 1.387 . S
C218 C221 1.387 . S
H219 C215 0.950 . S
H220 C217 0.950 . S
C221 C212 1.390 . S
C221 H214 0.950 1_455 S
C221 C218 1.387 . S
C222 C223 1.387 . S
C222 H226 0.950 . S
C222 C231 1.390 . S
C223 C222 1.387 . S
C223 C225 1.387 . S
H224 C231 0.950 . S
C225 C223 1.387 . S
C225 C227 1.390 . S
C225 H229 0.950 . S
H226 C222 0.950 . S
C227 C225 1.390 . S
C227 C228 1.387 . S
C227 H230 0.950 . S
C228 C227 1.387 . S
C228 C231 1.387 . S
H229 C225 0.950 . S
H230 C227 0.950 . S
C231 C222 1.390 . S
C231 H224 0.950 . S
C231 C228 1.387 . S
C232 C233 1.387 . S
C232 H236 0.950 . S
C232 C241 1.390 . S
C233 C232 1.387 . S
C233 C235 1.387 . S
H234 C241 0.950 . S
C235 C233 1.387 . S
C235 C237 1.390 . S
C235 H239 0.950 . S
H236 C232 0.950 . S
C237 C235 1.390 . S
C237 C238 1.387 . S
C237 H240 0.950 . S
C238 C237 1.387 . S
C238 C241 1.387 . S
H239 C235 0.950 . S
H240 C237 0.950 . S
C241 C232 1.390 . S
C241 H234 0.950 . S
C241 C238 1.387 . S
C242 C243 1.387 . S
C242 H246 0.950 . S
C242 C251 1.390 . S
C243 C242 1.387 . S
C243 C245 1.387 . S
H244 C251 0.950 . S
C245 C243 1.387 . S
C245 C247 1.390 . S
C245 H249 0.950 . S
H246 C242 0.950 . S
C247 C245 1.390 . S
C247 C248 1.387 . S
C247 H250 0.950 . S
C248 C247 1.387 . S
C248 C251 1.387 . S
H249 C245 0.950 . S
H250 C247 0.950 . S
C251 C242 1.390 . S
C251 H244 0.950 . S
C251 C248 1.387 . S
C252 C253 1.387 . S
C252 H256 0.950 . S
C252 C261 1.390 . S
C253 C252 1.387 . S
C253 C255 1.387 . S
H254 C261 0.950 . S
C255 C253 1.387 . S
C255 C257 1.390 . S
C255 H259 0.950 . S
H256 C252 0.950 . S
C257 C255 1.390 . S
C257 C258 1.387 . S
C257 H260 0.950 . S
C258 C257 1.387 . S
C258 C261 1.387 . S
H259 C255 0.950 . S
H260 C257 0.950 . S
C261 C252 1.390 . S
C261 H254 0.950 . S
C261 C258 1.387 . S
C262 C263 1.387 . S
C262 H266 0.950 . S
C262 C271 1.390 . S
C263 C262 1.387 . S
C263 C265 1.387 . S
H264 C271 0.950 . S
C265 C263 1.387 . S
C265 C267 1.390 . S
C265 H269 0.950 . S
H266 C262 0.950 . S
C267 C265 1.390 . S
C267 C268 1.387 . S
C267 H270 0.950 . S
C268 C267 1.387 . S
C268 C271 1.387 . S
H269 C265 0.950 . S
H270 C267 0.950 . S
C271 C262 1.390 . S
C271 H264 0.950 . S
C271 C268 1.387 . S
C272 C273 1.387 . S
C272 H276 0.950 . S
C272 C281 1.390 . S
C273 C272 1.387 . S
C273 C275 1.387 . S
H274 C281 0.950 . S
C275 C273 1.387 . S
C275 C277 1.390 . S
C275 H279 0.950 . S
H276 C272 0.950 . S
C277 C275 1.390 . S
C277 C278 1.387 . S
C277 H280 0.950 . S
C278 C277 1.387 . S
C278 C281 1.387 . S
H279 C275 0.950 . S
H280 C277 0.950 . S
C281 C272 1.390 . S
C281 H274 0.950 . S
C281 C278 1.387 . S
C282 C283 1.387 . S
C282 H286 0.950 . S
C282 C291 1.390 . S
C283 C282 1.387 . S
C283 C285 1.387 . S
H284 C291 0.950 . S
C285 C283 1.387 . S
C285 C287 1.390 . S
C285 H289 0.950 . S
H286 C282 0.950 . S
C287 C285 1.390 . S
C287 C288 1.387 . S
C287 H290 0.950 . S
C288 C287 1.387 . S
C288 C291 1.387 . S
H289 C285 0.950 . S
H290 C287 0.950 . S
C291 C282 1.390 . S
C291 H284 0.950 . S
C291 C288 1.387 . S
C292 C293 1.387 . S
C292 H296 0.950 . S
C292 C301 1.390 . S
C293 C292 1.387 . S
C293 C295 1.387 . S
H294 C301 0.950 1_545 S
C295 C293 1.387 . S
C295 C297 1.390 . S
C295 H299 0.950 . S
H296 C292 0.950 . S
C297 C295 1.390 . S
C297 C298 1.387 1_565 S
C297 H300 0.950 . S
C298 C297 1.387 1_545 S
C298 C301 1.387 1_545 S
H299 C295 0.950 . S
H300 C297 0.950 . S
C301 C292 1.390 . S
C301 H294 0.950 1_565 S
C301 C298 1.387 1_565 S
C302 C303 1.387 . S
C302 H306 0.950 . S
C302 C311 1.390 1_545 S
C303 C302 1.387 . S
C303 C305 1.387 . S
H304 C311 0.950 . S
C305 C303 1.387 . S
C305 C307 1.390 1_545 S
C305 H309 0.950 . S
H306 C302 0.950 . S
C307 C305 1.390 1_565 S
C307 C308 1.387 . S
C307 H310 0.950 . S
C308 C307 1.387 . S
C308 C311 1.387 . S
H309 C305 0.950 . S
H310 C307 0.950 . S
C311 C302 1.390 1_565 S
C311 H304 0.950 . S
C311 C308 1.387 . S
C312 C313 1.387 . S
C312 H316 0.950 . S
C312 C321 1.390 . S
C313 C312 1.387 . S
C313 C315 1.387 . S
H314 C321 0.950 1_565 S
C315 C313 1.387 . S
C315 C317 1.390 1_545 S
C315 H319 0.950 . S
H316 C312 0.950 . S
C317 C315 1.390 1_565 S
C317 C318 1.387 . S
C317 H320 0.950 . S
C318 C317 1.387 . S
C318 C321 1.387 1_565 S
H319 C315 0.950 . S
H320 C317 0.950 . S
C321 C312 1.390 . S
C321 H314 0.950 1_545 S
C321 C318 1.387 1_545 S
C322 C323 1.387 . S
C322 H326 0.950 1_455 S
C322 C331 1.390 1_565 S
C323 C322 1.387 . S
C323 C325 1.387 . S
H324 C331 0.950 . S
C325 C323 1.387 . S
C325 C327 1.390 1_565 S
C325 H329 0.950 . S
H326 C322 0.950 1_655 S
C327 C325 1.390 1_545 S
C327 C328 1.387 . S
C327 H330 0.950 . S
C328 C327 1.387 . S
C328 C331 1.387 . S
H329 C325 0.950 . S
H330 C327 0.950 . S
C331 C322 1.390 1_545 S
C331 H324 0.950 . S
C331 C328 1.387 . S
C332 C333 1.387 . S
C332 H336 0.950 . S
C332 C341 1.390 1_554 S
C333 C332 1.387 . S
C333 C335 1.387 1_554 S
H334 C341 0.950 . S
C335 C333 1.387 1_556 S
C335 C337 1.390 . S
C335 H339 0.950 1_556 S
H336 C332 0.950 . S
C337 C335 1.390 . S
C337 C338 1.387 . S
C337 H340 0.950 . S
C338 C337 1.387 . S
C338 C341 1.387 . S
H339 C335 0.950 1_554 S
H340 C337 0.950 . S
C341 C332 1.390 1_556 S
C341 H334 0.950 . S
C341 C338 1.387 . S
C342 C343 1.387 . S
C342 H346 0.950 . S
C342 C351 1.390 . S
C343 C342 1.387 . S
C343 C345 1.387 . S
H344 C351 0.950 . S
C345 C343 1.387 . S
C345 C347 1.390 . S
C345 H349 0.950 . S
H346 C342 0.950 . S
C347 C345 1.390 . S
C347 C348 1.387 . S
C347 H350 0.950 . S
C348 C347 1.387 . S
C348 C351 1.387 . S
H349 C345 0.950 . S
H350 C347 0.950 . S
C351 C342 1.390 . S
C351 H344 0.950 . S
C351 C348 1.387 . S
C352 C353 1.387 . S
C352 H356 0.950 . S
C352 C361 1.390 . S
C353 C352 1.387 . S
C353 C355 1.387 . S
H354 C361 0.950 . S
C355 C353 1.387 . S
C355 C357 1.390 . S
C355 H359 0.950 . S
H356 C352 0.950 . S
C357 C355 1.390 . S
C357 C358 1.387 . S
C357 H360 0.950 . S
C358 C357 1.387 . S
C358 C361 1.387 . S
H359 C355 0.950 . S
H360 C357 0.950 . S
C361 C352 1.390 . S
C361 H354 0.950 . S
C361 C358 1.387 . S
C362 C363 1.387 . S
C362 H366 0.950 . S
C362 C371 1.390 . S
C363 C362 1.387 . S
C363 C365 1.387 . S
H364 C371 0.950 . S
C365 C363 1.387 . S
C365 C367 1.390 . S
C365 H369 0.950 . S
H366 C362 0.950 . S
C367 C365 1.390 . S
C367 C368 1.387 . S
C367 H370 0.950 . S
C368 C367 1.387 . S
C368 C371 1.387 . S
H369 C365 0.950 . S
H370 C367 0.950 . S
C371 C362 1.390 . S
C371 H364 0.950 . S
C371 C368 1.387 . S
C372 C373 1.387 . S
C372 H376 0.950 . S
C372 C381 1.390 1_556 S
C373 C372 1.387 . S
C373 C375 1.387 1_556 S
H374 C381 0.950 . S
C375 C373 1.387 1_554 S
C375 C377 1.390 . S
C375 H379 0.953 . S
H376 C372 0.950 . S
C377 C375 1.390 . S
C377 C378 1.387 . S
C377 H380 0.950 . S
C378 C377 1.387 . S
C378 C381 1.387 . S
H379 C375 0.953 . S
H380 C377 0.950 . S
C381 C372 1.390 1_554 S
C381 H374 0.950 . S
C381 C378 1.387 . S
C382 C383 1.387 . S
C382 H386 0.950 . S
C382 C391 1.390 . S
C383 C382 1.387 . S
C383 C385 1.387 . S
H384 C391 0.950 . S
C385 C383 1.387 . S
C385 C387 1.390 . S
C385 H389 0.950 . S
H386 C382 0.950 . S
C387 C385 1.390 . S
C387 C388 1.387 . S
C387 H390 0.950 . S
C388 C387 1.387 . S
C388 C391 1.387 . S
H389 C385 0.950 . S
H390 C387 0.950 . S
C391 C382 1.390 . S
C391 H384 0.950 . S
C391 C388 1.387 . S
C392 C393 1.387 . S
C392 H396 0.950 . S
C392 C401 1.390 . S
C393 C392 1.387 . S
C393 C395 1.387 . S
H394 C401 0.950 . S
C395 C393 1.387 . S
C395 C397 1.390 . S
C395 H399 0.950 . S
H396 C392 0.950 . S
C397 C395 1.390 . S
C397 C398 1.387 . S
C397 H400 0.950 . S
C398 C397 1.387 . S
C398 C401 1.387 . S
H399 C395 0.950 . S
H400 C397 0.950 . S
C401 C392 1.390 . S
C401 H394 0.950 . S
C401 C398 1.387 . S
C402 C403 1.387 . S
C402 H406 0.950 . S
C402 C411 1.390 . S
C403 C402 1.387 . S
C403 C405 1.387 . S
H404 C411 0.950 . S
C405 C403 1.387 . S
C405 C407 1.390 . S
C405 H409 0.950 . S
H406 C402 0.950 . S
C407 C405 1.390 . S
C407 C408 1.387 . S
C407 H410 0.950 . S
C408 C407 1.387 . S
C408 C411 1.387 . S
H409 C405 0.950 . S
H410 C407 0.950 . S
C411 C402 1.390 . S
C411 H404 0.950 . S
C411 C408 1.387 . S
C178 C95 1.407 . S
C173 C6 1.550 . S
C188 C113 1.385 . S
C183 N15 1.455 . S
C193 N26 1.423 . S
C198 C137 1.334 . S
C208 C167 1.292 . S
C203 C39 1.445 . S
C218 C155 1.295 . S
C213 C50 1.386 . S
C223 N59 1.471 . S
C228 C108 1.406 1_655 S
C233 N70 1.573 . S
C238 C128 1.474 . S
C243 C83 1.445 1_655 S
C248 C133 1.309 . S
C253 N81 1.465 . S
C258 C149 1.398 . S
C263 C61 1.449 . S
C268 C104 1.308 . S
C278 C171 1.400 . S
C273 N37 1.464 . S
C288 C116 1.279 . S
C283 C17 1.438 . S
C293 C28 1.544 . S
C298 C134 1.402 . S
C303 N4 1.429 . S
C308 C92 1.339 . S
C318 C112 1.297 . S
C313 C72 1.388 . S
C328 C158 1.464 . S
C323 N48 1.571 . S
C338 C154 1.363 . S
C333 C9 1.523 . S
C348 C107 1.491 . S
C343 C20 1.530 . S
C353 C31 1.508 . S
C358 C129 1.344 . S
C363 C42 1.543 . S
C368 C150 1.503 . S
C378 C91 1.326 . S
C373 C53 1.569 . S
C383 C64 1.518 . S
C388 C125 1.463 . S
C398 C146 1.341 . S
C393 C75 1.584 . S
C408 C170 1.441 . S
C403 C86 1.497 . S
