# Generated by pormake.
# Topology anh, (6,3)-cn, num edge types: 1
# Building blocks:
#     Node 0, Type 0, BuildingBlock: HISSIN_clean_sbu_0, # of connection points: 6
#     Node 1, Type 0, BuildingBlock: HISSIN_clean_sbu_0, # of connection points: 6
#     Node 2, Type 0, BuildingBlock: HISSIN_clean_sbu_0, # of connection points: 6
#     Node 3, Type 1, BuildingBlock: BETDIP_clean_linker_0, # of connection points: 3
#     Node 4, Type 1, BuildingBlock: BETDIP_clean_linker_0, # of connection points: 3
#     Node 5, Type 1, BuildingBlock: BETDIP_clean_linker_0, # of connection points: 3
#     Node 6, Type 1, BuildingBlock: BETDIP_clean_linker_0, # of connection points: 3
#     Node 7, Type 1, BuildingBlock: BETDIP_clean_linker_0, # of connection points: 3
#     Node 8, Type 1, BuildingBlock: BETDIP_clean_linker_0, # of connection points: 3
#     Edge 9, Type (0, 1), BuildingBlock: EZIPEK_clean_linker_0, # of connection points: 2
#     Edge 10, Type (0, 1), BuildingBlock: EZIPEK_clean_linker_0, # of connection points: 2
#     Edge 11, Type (0, 1), BuildingBlock: EZIPEK_clean_linker_0, # of connection points: 2
#     Edge 12, Type (0, 1), BuildingBlock: EZIPEK_clean_linker_0, # of connection points: 2
#     Edge 13, Type (0, 1), BuildingBlock: EZIPEK_clean_linker_0, # of connection points: 2
#     Edge 14, Type (0, 1), BuildingBlock: EZIPEK_clean_linker_0, # of connection points: 2
#     Edge 15, Type (0, 1), BuildingBlock: EZIPEK_clean_linker_0, # of connection points: 2
#     Edge 16, Type (0, 1), BuildingBlock: EZIPEK_clean_linker_0, # of connection points: 2
#     Edge 17, Type (0, 1), BuildingBlock: EZIPEK_clean_linker_0, # of connection points: 2
#     Edge 18, Type (0, 1), BuildingBlock: EZIPEK_clean_linker_0, # of connection points: 2
#     Edge 19, Type (0, 1), BuildingBlock: EZIPEK_clean_linker_0, # of connection points: 2
#     Edge 20, Type (0, 1), BuildingBlock: EZIPEK_clean_linker_0, # of connection points: 2
#     Edge 21, Type (0, 1), BuildingBlock: EZIPEK_clean_linker_0, # of connection points: 2
#     Edge 22, Type (0, 1), BuildingBlock: EZIPEK_clean_linker_0, # of connection points: 2
#     Edge 23, Type (0, 1), BuildingBlock: EZIPEK_clean_linker_0, # of connection points: 2
#     Edge 24, Type (0, 1), BuildingBlock: EZIPEK_clean_linker_0, # of connection points: 2
#     Edge 25, Type (0, 1), BuildingBlock: EZIPEK_clean_linker_0, # of connection points: 2
#     Edge 26, Type (0, 1), BuildingBlock: EZIPEK_clean_linker_0, # of connection points: 2
# Relax obj value: 0.374
# Max RMSD: 0.198
# Mean RMSD: 0.133
data_MOF--net-anh--node1-HISSIN_clean_sbu_0--node2-BETDIP_clean_linker_0--edge1-EZIPEK_clean_linker_0
_symmetry_space_group_name_H-M    P1
_symmetry_Int_Tables_number       1
_symmetry_cell_setting            triclinic
loop_
_symmetry_equiv_pos_as_xyz
'x, y, z'
_cell_length_a     23.021005
_cell_length_b     22.735087
_cell_length_c     36.736258
_cell_angle_alpha  96.911252
_cell_angle_beta   87.292601
_cell_angle_gamma 120.25931
loop_
_atom_site_label
_atom_site_type_symbol
_atom_site_fract_x
_atom_site_fract_y
_atom_site_fract_z
_atom_type_partial_charge
Eu0 Eu 1.15335 0.53069 0.14015 0.0
Eu1 Eu 0.22584 0.69136 0.1557 0.0
C2 C 0.17154 0.60255 0.22444 0.0
C3 C 0.99676 0.37229 0.1208 0.0
C4 C 0.95533 0.33307 0.14805 0.0
C5 C 0.91463 0.40561 0.10963 0.0
C6 C 0.89676 0.33493 0.15796 0.0
C7 C 0.97207 0.40245 0.0992 0.0
C8 C 0.88022 0.37698 0.14103 0.0
C9 C 1.07035 0.40085 0.12345 0.0
O10 O 0.31431 0.66673 0.15183 0.0
O11 O 0.26087 0.54926 0.14533 0.0
C12 C 0.31764 0.60919 0.14838 0.0
O13 O 0.21888 0.57117 0.0907 0.0
O14 O 0.30055 0.785 0.18746 0.0
O15 O 0.24615 0.79053 0.14247 0.0
O16 O 0.21653 0.66981 0.09421 0.0
C17 C 0.22938 0.62507 0.07567 0.0
O18 O 1.06776 0.55636 0.13337 0.0
O19 O 1.11616 0.66947 0.15453 0.0
O20 O 0.18535 0.6591 0.21125 0.0
O21 O 1.10605 0.44149 0.099 0.0
O22 O 1.09624 0.42684 0.15636 0.0
O23 O 0.16387 0.54859 0.20268 0.0
C24 C 0.35632 0.88382 0.1561 0.0
C25 C 0.36645 0.90135 0.11991 0.0
C26 C 0.45666 0.99052 0.17579 0.0
C27 C 0.42069 0.96431 0.112 0.0
C28 C 0.40318 0.92781 0.18359 0.0
C29 C 0.46415 1.01039 0.14036 0.0
C30 C 0.29422 0.82455 0.16698 0.0
C31 C 1.06187 0.61153 0.14244 0.0
H32 H 0.97262 0.30869 0.16484 0.0
H33 H 0.90168 0.43694 0.09574 0.0
H34 H 0.86989 0.31149 0.18197 0.0
H35 H 1.0017 0.43184 0.07736 0.0
H36 H 0.33085 0.86819 0.09817 0.0
H37 H 0.48979 1.02562 0.19805 0.0
H38 H 0.4262 0.97874 0.08446 0.0
H39 H 0.39633 0.91541 0.21163 0.0
Eu40 Eu 0.63941 1.06369 0.47536 0.0
Eu41 Eu 0.56166 0.14644 0.4972 0.0
C42 C 0.61488 1.09892 0.56133 0.0
C43 C 0.74085 0.97222 0.47476 0.0
C44 C 0.78593 1.01939 0.50233 0.0
C45 C 0.78424 0.89616 0.4805 0.0
C46 C 0.82981 1.00479 0.51902 0.0
C47 C 0.7406 0.91091 0.46372 0.0
C48 C 0.82858 0.94273 0.50845 0.0
C49 C 0.69023 0.98356 0.45941 0.0
O50 O 0.67382 0.23164 0.48822 0.0
O51 O 0.73124 0.17282 0.48229 0.0
C52 C 0.73168 0.23158 0.48379 0.0
O53 O 0.64284 0.11223 0.4245 0.0
O54 O 0.5461 0.21648 0.53669 0.0
O55 O 0.49453 0.18341 0.48426 0.0
O56 O 0.55081 0.12342 0.43597 0.0
C57 C 0.59921 0.1281 0.41424 0.0
O58 O 0.52603 0.98313 0.46358 0.0
O59 O 0.47227 1.03505 0.49444 0.0
O60 O 0.56915 0.11174 0.55088 0.0
O61 O 0.63725 0.96786 0.47939 0.0
O62 O 0.71177 1.04117 0.44568 0.0
O63 O 0.65324 1.08716 0.53744 0.0
C64 C 0.53781 0.29993 0.50856 0.0
C65 C 0.53348 0.31948 0.47426 0.0
C66 C 0.61255 0.41946 0.53043 0.0
C67 C 0.57203 0.38817 0.46745 0.0
C68 C 0.57477 0.35118 0.53711 0.0
C69 C 0.61383 0.4379 0.49521 0.0
C70 C 0.51187 0.22721 0.51369 0.0
C71 C 0.46965 0.97931 0.47681 0.0
H72 H 0.78611 1.06663 0.51142 0.0
H73 H 0.78258 0.84794 0.47223 0.0
H74 H 0.86368 1.04104 0.54069 0.0
H75 H 0.70557 0.87376 0.44272 0.0
H76 H 0.5038 0.28131 0.45201 0.0
H77 H 0.64415 0.45753 0.55227 0.0
H78 H 0.57216 0.4018 0.44018 0.0
H79 H 0.57791 0.3381 0.56407 0.0
Eu80 Eu 0.53604 0.53175 0.81888 0.0
Eu81 Eu 0.69222 0.61827 0.83803 0.0
C82 C 0.58998 0.57086 0.9005 0.0
C83 C 0.36519 0.48422 0.78368 0.0
C84 C 0.36725 0.47893 0.74509 0.0
C85 C 0.31238 0.55289 0.78295 0.0
C86 C 0.3466 0.51492 0.72592 0.0
C87 C 0.33197 0.51628 0.802 0.0
C88 C 0.32532 0.55763 0.74524 0.0
C89 C 0.40691 0.46787 0.80511 0.0
O90 O 0.67381 0.50692 0.82571 0.0
O91 O 0.56031 0.44466 0.81475 0.0
C92 C 0.61843 0.44675 0.81743 0.0
O93 O 0.58337 0.55519 0.76311 0.0
O94 O 0.76129 0.63427 0.88125 0.0
O95 O 0.79761 0.69587 0.83539 0.0
O96 O 0.69611 0.60488 0.77729 0.0
C97 C 0.64682 0.58259 0.75357 0.0
O98 O 0.5617 0.64644 0.82053 0.0
O99 O 0.6768 0.70609 0.82619 0.0
O100 O 0.63406 0.62632 0.8869 0.0
O101 O 0.44853 0.45308 0.78655 0.0
O102 O 0.43514 0.50925 0.83495 0.0
O103 O 0.54969 0.51828 0.87771 0.0
C104 C 0.86814 0.66439 0.8604 0.0
C105 C 0.87145 0.62355 0.82938 0.0
C106 C 0.96792 0.67513 0.88569 0.0
C107 C 0.92423 0.60999 0.82617 0.0
C108 C 0.91574 0.68917 0.88873 0.0
C109 C 0.97281 0.63645 0.85424 0.0
C110 C 0.81347 0.67871 0.86445 0.0
C111 C 0.62005 0.70558 0.82136 0.0
H112 H 0.39014 0.45212 0.72996 0.0
H113 H 0.29487 0.58422 0.79868 0.0
H114 H 0.35343 0.51447 0.69657 0.0
H115 H 0.32767 0.51933 0.83159 0.0
H116 H 0.83386 0.60309 0.80762 0.0
H117 H 1.00574 0.69612 0.90737 0.0
H118 H 0.9282 0.58061 0.80167 0.0
H119 H 0.91283 0.71978 0.91299 0.0
H120 H 0.63278 0.34058 0.19477 0.0
H121 H 0.6839 0.36405 0.30869 0.0
H122 H 0.58474 0.16382 0.24706 0.0
H123 H 0.72279 0.52155 0.22476 0.0
C124 C 0.71957 0.47229 0.22471 0.0
C125 C 0.63639 0.31934 0.21873 0.0
C126 C 0.61017 0.24887 0.21682 0.0
C127 C 0.6633 0.36126 0.25177 0.0
C128 C 0.66334 0.33159 0.28312 0.0
C129 C 0.63443 0.2599 0.28186 0.0
C130 C 0.60795 0.21908 0.24843 0.0
N131 N 0.68682 0.43263 0.25416 0.0
H132 H 0.89435 0.74805 0.53626 0.0
H133 H 0.87144 0.74202 0.65307 0.0
H134 H 0.71016 0.595 0.58034 0.0
H135 H 1.04502 0.89393 0.58339 0.0
C136 C 0.9905 0.86382 0.58267 0.0
C137 C 0.8642 0.72521 0.55956 0.0
C138 C 0.79931 0.66801 0.55393 0.0
C139 C 0.89084 0.75116 0.59546 0.0
C140 C 0.85123 0.72159 0.62546 0.0
C141 C 0.78534 0.66662 0.61993 0.0
C142 C 0.76046 0.63909 0.58433 0.0
N143 N 0.95827 0.80505 0.60204 0.0
H144 H 0.26458 0.68107 0.82573 0.0
H145 H 0.40435 0.71946 0.91159 0.0
H146 H 0.19221 0.63404 0.93269 0.0
H147 H 0.36659 0.81014 0.82044 0.0
C148 C 0.38713 0.77679 0.81267 0.0
C149 C 0.27563 0.67962 0.85348 0.0
C150 C 0.2228 0.6563 0.87774 0.0
C151 C 0.34188 0.70722 0.86551 0.0
C152 C 0.35359 0.70063 0.90195 0.0
C153 C 0.29863 0.67187 0.9262 0.0
C154 C 0.23397 0.65195 0.91387 0.0
N155 N 0.39547 0.74389 0.84137 0.0
H156 H 1.15828 0.669 0.49113 0.0
H157 H 1.06681 0.53758 0.39027 0.0
H158 H 0.25143 0.72777 0.38656 0.0
H159 H 0.96972 0.49606 0.42003 0.0
C160 C 0.98047 0.492 0.44775 0.0
C161 C 1.1583 0.65849 0.46161 0.0
C162 C 0.21354 0.70788 0.44117 0.0
C163 C 1.10259 0.59591 0.44362 0.0
C164 C 1.10555 0.58422 0.40506 0.0
C165 C 1.15871 0.63139 0.3847 0.0
C166 C 0.21137 0.69204 0.4028 0.0
N167 N 1.04622 0.54473 0.46379 0.0
H168 H 0.62446 0.13974 0.82786 0.0
H169 H 0.63573 1.02689 0.72625 0.0
H170 H 0.63175 0.21193 0.72308 0.0
H171 H 0.60257 0.93943 0.75642 0.0
C172 C 0.61853 0.95542 0.78491 0.0
C173 C 0.62754 0.13403 0.79827 0.0
C174 C 0.62804 0.1852 0.77791 0.0
C175 C 0.62989 1.07478 0.78021 0.0
C176 C 0.63275 1.069 0.7414 0.0
C177 C 0.63241 0.11763 0.72106 0.0
C178 C 0.63152 0.17509 0.73939 0.0
N179 N 0.63044 1.02308 0.80069 0.0
H180 H 0.63781 0.61928 0.16487 0.0
H181 H 0.71523 0.58678 0.05897 0.0
H182 H 0.52562 0.57975 0.06508 0.0
H183 H 0.76244 0.53892 0.09289 0.0
C184 C 0.78681 0.57976 0.11509 0.0
C185 C 0.63213 0.60729 0.13539 0.0
C186 C 0.57301 0.59974 0.11762 0.0
C187 C 0.6842 0.59978 0.11455 0.0
C188 C 0.67611 0.58823 0.07591 0.0
C189 C 0.61958 0.58194 0.05844 0.0
C190 C 0.56855 0.58514 0.07937 0.0
N191 N 0.74572 0.60882 0.1314 0.0
C192 C 0.44142 0.6591 0.12449 0.0
C193 C 0.38732 0.61163 0.14535 0.0
C194 C 0.46017 0.56018 0.15373 0.0
C195 C 0.51538 0.61084 0.13508 0.0
N196 N 0.56147 0.71978 0.11189 0.0
N197 N 0.35589 0.52674 0.1873 0.0
C198 C 0.50668 0.664 0.12385 0.0
C199 C 0.40003 0.56506 0.16211 0.0
N200 N 0.4295 0.69596 0.1023 0.0
N201 N 0.46383 0.50551 0.16248 0.0
H202 H 0.3138 0.53058 0.19535 0.0
H203 H 0.36487 0.49689 0.20304 0.0
H204 H 0.50697 0.50168 0.15807 0.0
H205 H 0.42297 0.46247 0.17191 0.0
H206 H 0.46445 0.72623 0.0838 0.0
H207 H 0.38191 0.68908 0.0987 0.0
H208 H 0.56069 0.76328 0.10637 0.0
H209 H 0.60932 0.72527 0.11151 0.0
C210 C 0.83867 0.30121 0.44557 0.0
C211 C 0.79907 0.29882 0.47727 0.0
C212 C 0.88445 0.42399 0.49373 0.0
C213 C 0.9252 0.42471 0.46295 0.0
N214 N 0.9462 0.3572 0.41458 0.0
N215 N 0.79256 0.35843 0.53465 0.0
C216 C 0.90351 0.36107 0.44062 0.0
C217 C 0.82453 0.36061 0.50215 0.0
N218 N 0.81257 0.24767 0.41841 0.0
N219 N 0.90158 0.48463 0.51438 0.0
H220 H 0.74998 0.31409 0.54171 0.0
H221 H 0.81104 0.39849 0.55576 0.0
H222 H 0.9454 0.53009 0.50984 0.0
H223 H 0.87086 0.49078 0.53434 0.0
H224 H 0.83428 0.24924 0.39276 0.0
H225 H 0.76552 0.20422 0.41984 0.0
H226 H 0.93793 0.31135 0.4 0.0
H227 H 0.99361 0.39887 0.41037 0.0
C228 C 0.665 0.81415 0.7872 0.0
C229 C 0.62365 0.77431 0.81531 0.0
C230 C 0.59074 0.86476 0.83084 0.0
C231 C 0.63093 0.90312 0.80211 0.0
N232 N 0.71912 0.92177 0.75958 0.0
N233 N 0.55647 0.77019 0.86819 0.0
C234 C 0.67178 0.87968 0.7825 0.0
C235 C 0.5893 0.80237 0.83836 0.0
N236 N 0.6957 0.78784 0.76332 0.0
N237 N 0.55116 0.88626 0.84983 0.0
H238 H 0.55442 0.7256 0.87435 0.0
H239 H 0.53527 0.78963 0.88823 0.0
H240 H 0.55262 0.93148 0.84548 0.0
H241 H 0.51545 0.85885 0.86874 0.0
H242 H 0.71882 0.80873 0.73939 0.0
H243 H 0.6934 0.7415 0.76547 0.0
H244 H 0.7561 0.91301 0.74723 0.0
H245 H 0.72593 0.9697 0.75598 0.0
C246 C 0.96172 0.58875 0.10072 0.0
C247 C 0.99312 0.60889 0.13625 0.0
C248 C 0.89097 0.61582 0.15968 0.0
C249 C 0.86118 0.59838 0.12378 0.0
N250 N 0.88202 0.58803 0.05906 0.0
N251 N 0.99061 0.65611 0.19829 0.0
C252 C 0.90062 0.59014 0.09422 0.0
C253 C 0.95856 0.62697 0.1652 0.0
N254 N 0.9907 0.5688 0.0723 0.0
N255 N 0.85396 0.61924 0.18908 0.0
H256 H 1.03872 0.66543 0.20341 0.0
H257 H 0.97244 0.67693 0.21945 0.0
H258 H 0.80615 0.61253 0.18634 0.0
H259 H 0.86813 0.62312 0.21615 0.0
H260 H 0.96601 0.54356 0.04737 0.0
H261 H 1.03793 0.57355 0.0742 0.0
H262 H 0.91139 0.58963 0.03635 0.0
H263 H 0.8413 0.5933 0.05275 0.0
C264 C 0.39392 0.84751 0.48125 0.0
C265 C 0.40131 0.90992 0.47109 0.0
C266 C 0.27961 0.84101 0.45115 0.0
C267 C 0.27472 0.77766 0.45724 0.0
N268 N 0.33272 0.72214 0.47476 0.0
N269 N 0.35002 0.96137 0.44112 0.0
C270 C 0.3335 0.78172 0.47156 0.0
C271 C 0.3434 0.90522 0.455 0.0
N272 N 0.44387 0.85109 0.50169 0.0
N273 N 0.22233 0.83997 0.44188 0.0
H274 H 0.39506 1.00799 0.44234 0.0
H275 H 0.31296 0.96017 0.42536 0.0
H276 H 0.17578 0.79483 0.43883 0.0
H277 H 0.21952 0.88401 0.44072 0.0
H278 H 0.43947 0.8096 0.51344 0.0
H279 H 0.48733 0.8972 0.50997 0.0
H280 H 0.37553 0.72006 0.48038 0.0
H281 H 0.28968 0.67413 0.46941 0.0
C282 C 0.57697 0.32506 0.78259 0.0
C283 C 0.6208 0.3787 0.80959 0.0
C284 C 0.67052 0.30446 0.81792 0.0
C285 C 0.62143 0.24847 0.79394 0.0
N286 N 0.51528 0.20288 0.76259 0.0
N287 N 0.69981 0.40831 0.85909 0.0
C288 C 0.57071 0.25821 0.77944 0.0
C289 C 0.66491 0.36512 0.82897 0.0
N290 N 0.54436 0.33855 0.7576 0.0
N291 N 0.72445 0.30149 0.82927 0.0
H292 H 0.69515 0.45044 0.86933 0.0
H293 H 0.7275 0.39793 0.87627 0.0
H294 H 0.73028 0.25901 0.82212 0.0
H295 H 0.76577 0.34326 0.84316 0.0
H296 H 0.51673 0.30322 0.73548 0.0
H297 H 0.55236 0.38743 0.75573 0.0
H298 H 0.47388 0.20533 0.75437 0.0
H299 H 0.5076 0.15328 0.76078 0.0
C300 C 0.85562 0.90617 0.56384 0.0
C301 C 0.87179 0.92504 0.52776 0.0
C302 C 0.9652 0.90238 0.52721 0.0
C303 C 0.9519 0.88846 0.56426 0.0
N304 N 0.89686 0.8963 0.62074 0.0
N305 N 0.94863 0.95338 0.47726 0.0
C306 C 0.90064 0.89587 0.58348 0.0
C307 C 0.92867 0.92685 0.51005 0.0
N308 N 0.79631 0.89599 0.57899 0.0
N309 N 1.01059 0.88944 0.50794 0.0
H310 H 0.92286 0.97153 0.46385 0.0
H311 H 0.99372 0.96276 0.46491 0.0
H312 H 1.03857 0.87171 0.51954 0.0
H313 H 1.01673 0.89108 0.47974 0.0
H314 H 0.77874 0.87469 0.60356 0.0
H315 H 0.76168 0.90285 0.56546 0.0
H316 H 0.86419 0.90772 0.63645 0.0
H317 H 0.93136 0.89275 0.6364 0.0
C318 C 1.03574 0.57518 0.86037 0.0
C319 C 1.03408 0.63208 0.84973 0.0
C320 C 1.15507 0.70319 0.85616 0.0
C321 C 1.1578 0.64621 0.86622 0.0
N322 N 1.10405 0.52431 0.86906 0.0
N323 N 1.09121 0.74092 0.82546 0.0
C324 C 1.09906 0.5807 0.8654 0.0
C325 C 1.09376 0.69268 0.84312 0.0
N326 N 0.97719 0.51747 0.86717 0.0
N327 N 0.20931 0.7681 0.86172 0.0
H328 H 1.04612 0.73425 0.81578 0.0
H329 H 1.13405 0.78358 0.81711 0.0
H330 H 0.25439 0.77961 0.87384 0.0
H331 H 0.20717 0.81169 0.858 0.0
H332 H 0.97548 0.47733 0.8791 0.0
H333 H 0.93002 0.51135 0.86241 0.0
H334 H 1.06338 0.47446 0.86554 0.0
H335 H 1.15009 0.52698 0.87251 0.0
C336 C 0.48411 0.12707 0.14355 0.0
C337 C 0.51105 1.08329 0.1362 0.0
C338 C 0.61748 0.17248 0.16465 0.0
C339 C 0.58271 0.20457 0.18198 0.0
N340 N 0.48477 0.21788 0.18558 0.0
N341 N 0.60672 1.06815 0.13134 0.0
C342 C 0.51723 0.18506 0.16985 0.0
C343 C 0.57996 1.10862 0.14293 0.0
N344 N 0.42504 1.11038 0.12713 0.0
N345 N 0.68518 0.20207 0.17025 0.0
H346 H 0.57878 1.02172 0.11487 0.0
H347 H 0.65479 1.07949 0.13847 0.0
H348 H 0.7129 0.24916 0.18616 0.0
H349 H 0.71435 0.18321 0.15692 0.0
H350 H 0.40464 0.14243 0.1296 0.0
H351 H 0.40048 1.0675 0.10788 0.0
H352 H 0.43412 0.20049 0.18083 0.0
H353 H 0.5075 0.26076 0.20496 0.0
C354 C 0.73314 0.52128 0.48447 0.0
C355 C 0.66604 0.50777 0.48774 0.0
C356 C 0.70652 0.6277 0.50964 0.0
C357 C 0.76937 0.63441 0.51703 0.0
N358 N 0.8517 0.60233 0.49814 0.0
N359 N 0.58825 0.54911 0.49401 0.0
C360 C 0.78609 0.58638 0.49921 0.0
C361 C 0.65277 0.56217 0.49611 0.0
N362 N 0.74455 0.46971 0.47025 0.0
N363 N 0.69821 0.68294 0.51869 0.0
H364 H 0.54917 0.50112 0.48352 0.0
H365 H 0.57346 0.58488 0.50243 0.0
H366 H 0.7383 0.73026 0.52929 0.0
H367 H 0.6543 0.68332 0.51371 0.0
H368 H 0.79144 0.47336 0.4692 0.0
H369 H 0.70573 0.42236 0.45886 0.0
H370 H 0.86846 0.57112 0.48438 0.0
H371 H 0.89048 0.65005 0.50889 0.0
C372 C 0.28732 0.63987 0.7391 0.0
C373 C 0.3365 0.62076 0.73076 0.0
C374 C 0.42417 0.73301 0.75594 0.0
C375 C 0.37381 0.74201 0.77442 0.0
N376 N 0.26418 0.72855 0.76714 0.0
N377 N 0.44948 0.66415 0.70923 0.0
C378 C 0.30742 0.70434 0.75982 0.0
C379 C 0.40459 0.6733 0.7311 0.0
N380 N 0.22155 0.59252 0.73159 0.0
N381 N 0.48957 0.78176 0.76234 0.0
H382 H 0.43388 0.62144 0.68983 0.0
H383 H 0.50004 0.70114 0.7078 0.0
H384 H 0.50129 0.82846 0.7772 0.0
H385 H 0.5301 0.77676 0.75236 0.0
H386 H 0.18169 0.59968 0.74046 0.0
H387 H 0.20812 0.54494 0.71698 0.0
H388 H 0.21565 0.70418 0.75611 0.0
H389 H 0.27948 0.77605 0.78224 0.0
C390 C 0.86591 0.44618 0.19527 0.0
C391 C 0.84054 0.40534 0.16109 0.0
C392 C 0.74768 0.429 0.16425 0.0
C393 C 0.766 0.4577 0.20115 0.0
N394 N 0.84209 0.49388 0.25264 0.0
N395 N 0.75415 0.35307 0.11397 0.0
C396 C 0.82497 0.46621 0.21696 0.0
C397 C 0.78082 0.39597 0.14555 0.0
N398 N 0.93052 0.46898 0.20612 0.0
N399 N 0.69799 0.43244 0.14743 0.0
H400 H 0.77655 0.32704 0.10003 0.0
H401 H 0.7071 0.33876 0.10338 0.0
H402 H 0.67272 0.456 0.16078 0.0
H403 H 0.68608 0.41745 0.1196 0.0
H404 H 0.95263 0.50202 0.22977 0.0
H405 H 0.96463 0.46086 0.18977 0.0
H406 H 0.87906 0.49261 0.26724 0.0
H407 H 0.81697 0.51526 0.26835 0.0
C408 C 0.30739 0.70474 0.03014 0.0
C409 C 0.25831 0.63722 0.03798 0.0
C410 C 0.26808 0.59454 0.97464 0.0
C411 C 0.30408 0.66242 0.96515 0.0
N412 N 0.35532 0.78355 0.9839 0.0
N413 N 0.18343 0.51889 0.01412 0.0
C414 C 0.32393 0.71804 -0.007 0.0
C415 C 0.23717 0.58197 0.00946 0.0
N416 N 0.33967 0.75605 0.05793 0.0
N417 N 0.26068 0.54188 0.94942 0.0
H418 H 1.15412 0.50862 0.03751 0.0
H419 H 0.16261 0.47896 -0.00706 0.0
H420 H 0.28248 0.55039 0.92358 0.0
H421 H 0.23933 0.49155 0.95556 0.0
H422 H 0.38042 0.80382 0.05359 0.0
H423 H 0.33116 0.7491 0.08558 0.0
H424 H 0.36294 0.82542 0.00241 0.0
H425 H 0.37021 0.79547 0.95727 0.0
C426 C 0.60167 0.21942 0.38067 0.0
C427 C 0.61001 0.16149 0.38002 0.0
C428 C 0.64912 0.17808 0.31678 0.0
C429 C 0.62764 0.2267 0.31579 0.0
N430 N 0.56417 0.27697 0.34562 0.0
N431 N 0.63144 1.07841 0.34386 0.0
C432 C 0.5981 0.24243 0.34733 0.0
C433 C 0.63098 0.13861 0.34703 0.0
N434 N 0.60186 0.25614 0.4129 0.0
N435 N 0.68879 0.17126 0.28975 0.0
H436 H 0.61528 1.0463 0.36462 0.0
H437 H 0.6409 1.05701 0.31921 0.0
H438 H 0.7063 0.2019 0.2683 0.0
H439 H 0.71027 0.14066 0.29098 0.0
H440 H 0.60417 0.30323 0.41344 0.0
H441 H 0.60958 0.24533 0.43836 0.0
H442 H 0.53821 0.28488 0.36797 0.0
H443 H 0.55513 0.2902 0.32116 0.0
C444 C 0.70669 0.56197 0.70017 0.0
C445 C 0.66594 0.58929 0.7146 0.0
C446 C 0.69232 0.65568 0.66218 0.0
C447 C 0.74159 0.63712 0.65142 0.0
N448 N 0.79522 0.57137 0.65853 0.0
N449 N 0.61435 0.65752 0.70859 0.0
C450 C 0.74817 0.58929 0.66974 0.0
C451 C 0.65584 0.63363 0.69494 0.0
N452 N 0.70425 0.50877 0.7154 0.0
N453 N 0.68104 0.69489 0.64119 0.0
H454 H 0.5851 0.64104 0.7317 0.0
H455 H 0.61078 0.6962 0.69824 0.0
H456 H 0.70958 0.71555 0.61836 0.0
H457 H 0.64115 0.70412 0.64489 0.0
H458 H 0.72811 0.48213 0.70461 0.0
H459 H 0.67268 0.48683 0.73714 0.0
H460 H 0.80818 0.54314 0.67319 0.0
H461 H 0.82423 0.58777 0.63525 0.0
C462 C 0.68305 0.14841 0.62087 0.0
C463 C 0.62281 1.09839 0.60164 0.0
C464 C 0.56923 1.05983 0.66058 0.0
C465 C 0.63038 1.10762 0.67969 0.0
N466 N 0.74903 0.18811 0.67753 0.0
N467 N 0.51369 0.99703 0.60252 0.0
C468 C 0.68841 0.14898 0.6596 0.0
C469 C 0.56745 1.05128 0.62137 0.0
N470 N 0.73394 0.1978 0.60253 0.0
N471 N 0.51191 1.02459 0.67988 0.0
H472 H 0.51107 0.98871 0.57393 0.0
H473 H 0.47483 0.95686 0.61503 0.0
H474 H 0.511 1.02886 0.70846 0.0
H475 H 0.46429 0.99521 0.66772 0.0
H476 H 0.77571 0.24034 0.61557 0.0
H477 H 0.73216 0.19937 0.57438 0.0
H478 H 0.79451 0.21393 0.66414 0.0
H479 H 0.75459 0.18994 0.70574 0.0
C480 C 0.59464 0.62373 0.96506 0.0
C481 C 0.59124 0.56834 0.94098 0.0
C482 C 0.60346 0.51876 -0.00571 0.0
C483 C 0.61483 0.57833 0.01752 0.0
N484 N 0.63635 0.6945 0.02299 0.0
N485 N 0.60597 0.46943 0.9324 0.0
C486 C 0.61485 0.63288 0.00225 0.0
C487 C 0.59903 0.51725 0.95548 0.0
N488 N 0.57639 0.66657 0.95269 0.0
N489 N 0.59507 0.46284 0.00924 0.0
H490 H 0.60455 0.46691 0.90395 0.0
H491 H 0.61932 0.43609 0.94147 0.0
H492 H 0.59841 0.46215 0.03739 0.0
H493 H 0.57933 0.41547 -0.006 0.0
H494 H 0.57172 0.70385 0.9699 0.0
H495 H 0.55864 0.65982 0.92603 0.0
H496 H 0.6434 0.73802 0.0123 0.0
H497 H 0.65414 0.70415 0.04989 0.0
C498 C 0.20882 0.59392 0.28687 0.0
C499 C 0.16335 0.60085 0.26528 0.0
C500 C 1.11562 0.6286 0.32191 0.0
C501 C 1.15856 0.61818 0.3435 0.0
N502 N 0.23749 0.57883 0.34664 0.0
N503 N 1.06435 0.61032 0.26236 0.0
C504 C 0.20252 0.59705 0.32594 0.0
C505 C 1.11409 0.61396 0.28295 0.0
N506 N 0.26031 0.58801 0.27027 0.0
N507 N 1.07796 0.65497 0.33853 0.0
H508 H 1.06085 0.59742 0.23403 0.0
H509 H 1.02305 0.61279 0.27343 0.0
H510 H 1.07722 0.66591 0.3669 0.0
H511 H 1.05164 0.67122 0.32419 0.0
H512 H 0.29966 0.59071 0.28462 0.0
H513 H 0.26667 0.58569 0.24195 0.0
H514 H 0.26488 0.55615 0.33547 0.0
H515 H 0.23457 0.58111 0.37516 0.0
loop_
_geom_bond_atom_site_label_1
_geom_bond_atom_site_label_2
_geom_bond_distance
_geom_bond_site_symmetry_2
_ccdc_geom_bond_type
Eu0 C9 2.828 . S
Eu0 O11 2.392 1_655 S
Eu0 O13 2.418 . S
Eu0 O18 2.373 . S
Eu0 O21 2.488 . S
Eu0 O22 2.471 . S
Eu0 O23 2.349 1_655 S
Eu1 O10 2.373 . S
Eu1 O14 2.488 . S
Eu1 O15 2.471 . S
Eu1 O16 2.349 . S
Eu1 O19 2.392 1_455 S
Eu1 O20 2.418 . S
Eu1 C30 2.828 . S
C2 O20 1.244 . S
C2 O23 1.265 . S
C3 C4 1.379 . S
C3 C7 1.373 . S
C3 C9 1.505 . S
C4 C3 1.379 . S
C4 C6 1.369 . S
C4 H32 0.930 . S
C5 C7 1.383 . S
C5 C8 1.382 . S
C5 H33 0.930 . S
C6 C4 1.369 . S
C6 C8 1.392 . S
C6 H34 0.930 . S
C7 C3 1.373 . S
C7 C5 1.383 . S
C7 H35 0.931 . S
C8 C5 1.382 . S
C8 C6 1.392 . S
C9 Eu0 2.828 . S
C9 C3 1.505 . S
C9 O21 1.249 . S
C9 O22 1.244 . S
O10 Eu1 2.373 . S
O10 C12 1.258 . S
O11 Eu0 2.392 1_455 S
O11 C12 1.242 . S
C12 O10 1.258 . S
C12 O11 1.242 . S
O13 Eu0 2.418 . S
O13 C17 1.244 1_655 S
O14 Eu1 2.488 . S
O14 C30 1.249 . S
O15 Eu1 2.471 . S
O15 C30 1.244 . S
O16 Eu1 2.349 . S
O16 C17 1.265 . S
C17 O13 1.244 1_455 S
C17 O16 1.265 . S
O18 Eu0 2.373 . S
O18 C31 1.258 . S
O19 Eu1 2.392 1_655 S
O19 C31 1.242 . S
O20 Eu1 2.418 . S
O20 C2 1.244 . S
O21 Eu0 2.488 . S
O21 C9 1.249 . S
O22 Eu0 2.471 . S
O22 C9 1.244 . S
O23 Eu0 2.349 1_455 S
O23 C2 1.265 . S
C24 C25 1.379 . S
C24 C28 1.373 . S
C24 C30 1.505 . S
C25 C24 1.379 . S
C25 C27 1.369 . S
C25 H36 0.930 . S
C26 C28 1.383 . S
C26 C29 1.382 . S
C26 H37 0.930 . S
C27 C25 1.369 . S
C27 C29 1.392 . S
C27 H38 0.930 . S
C28 C24 1.373 . S
C28 C26 1.383 . S
C28 H39 0.931 . S
C29 C26 1.382 . S
C29 C27 1.392 . S
C30 Eu1 2.828 . S
C30 O14 1.249 . S
C30 O15 1.244 . S
C30 C24 1.505 . S
C31 O18 1.258 . S
C31 O19 1.242 . S
H32 C4 0.930 . S
H33 C5 0.930 . S
H34 C6 0.930 . S
H35 C7 0.931 . S
H36 C25 0.930 . S
H37 C26 0.930 . S
H38 C27 0.930 . S
H39 C28 0.931 . S
Eu40 C49 2.828 . S
Eu40 O51 2.392 1_565 S
Eu40 O53 2.418 . S
Eu40 O58 2.373 . S
Eu40 O61 2.488 . S
Eu40 O62 2.471 . S
Eu40 O63 2.349 1_565 S
Eu41 O50 2.373 . S
Eu41 O54 2.488 . S
Eu41 O55 2.471 . S
Eu41 O56 2.349 . S
Eu41 O59 2.392 1_545 S
Eu41 O60 2.418 . S
Eu41 C70 2.828 . S
C42 O60 1.244 . S
C42 O63 1.265 . S
C43 C44 1.379 . S
C43 C47 1.373 . S
C43 C49 1.505 . S
C44 C43 1.379 . S
C44 C46 1.369 . S
C44 H72 0.930 . S
C45 C47 1.383 . S
C45 C48 1.382 . S
C45 H73 0.930 . S
C46 C44 1.369 . S
C46 C48 1.392 . S
C46 H74 0.930 . S
C47 C43 1.373 . S
C47 C45 1.383 . S
C47 H75 0.931 . S
C48 C45 1.382 . S
C48 C46 1.392 . S
C49 Eu40 2.828 . S
C49 C43 1.505 . S
C49 O61 1.249 . S
C49 O62 1.244 . S
O50 Eu41 2.373 . S
O50 C52 1.258 . S
O51 Eu40 2.392 1_545 S
O51 C52 1.242 . S
C52 O50 1.258 . S
C52 O51 1.242 . S
O53 Eu40 2.418 . S
O53 C57 1.244 1_565 S
O54 Eu41 2.488 . S
O54 C70 1.249 . S
O55 Eu41 2.471 . S
O55 C70 1.244 . S
O56 Eu41 2.349 . S
O56 C57 1.265 . S
C57 O53 1.244 1_545 S
C57 O56 1.265 . S
O58 Eu40 2.373 . S
O58 C71 1.258 . S
O59 Eu41 2.392 1_565 S
O59 C71 1.242 . S
O60 Eu41 2.418 . S
O60 C42 1.244 . S
O61 Eu40 2.488 . S
O61 C49 1.249 . S
O62 Eu40 2.471 . S
O62 C49 1.244 . S
O63 Eu40 2.349 1_545 S
O63 C42 1.265 . S
C64 C65 1.379 . S
C64 C68 1.373 . S
C64 C70 1.505 . S
C65 C64 1.379 . S
C65 C67 1.369 . S
C65 H76 0.930 . S
C66 C68 1.383 . S
C66 C69 1.382 . S
C66 H77 0.930 . S
C67 C65 1.369 . S
C67 C69 1.392 . S
C67 H78 0.930 . S
C68 C64 1.373 . S
C68 C66 1.383 . S
C68 H79 0.931 . S
C69 C66 1.382 . S
C69 C67 1.392 . S
C70 Eu41 2.828 . S
C70 O54 1.249 . S
C70 O55 1.244 . S
C70 C64 1.505 . S
C71 O58 1.258 . S
C71 O59 1.242 . S
H72 C44 0.930 . S
H73 C45 0.930 . S
H74 C46 0.930 . S
H75 C47 0.931 . S
H76 C65 0.930 . S
H77 C66 0.930 . S
H78 C67 0.930 . S
H79 C68 0.931 . S
Eu80 C89 2.828 . S
Eu80 O91 2.392 . S
Eu80 O93 2.418 . S
Eu80 O98 2.373 . S
Eu80 O101 2.488 . S
Eu80 O102 2.471 . S
Eu80 O103 2.349 . S
Eu81 O90 2.373 . S
Eu81 O94 2.488 . S
Eu81 O95 2.471 . S
Eu81 O96 2.349 . S
Eu81 O99 2.392 . S
Eu81 O100 2.418 . S
Eu81 C110 2.828 . S
C82 O100 1.244 . S
C82 O103 1.265 . S
C83 C84 1.379 . S
C83 C87 1.373 . S
C83 C89 1.505 . S
C84 C83 1.379 . S
C84 C86 1.369 . S
C84 H112 0.930 . S
C85 C87 1.383 . S
C85 C88 1.382 . S
C85 H113 0.930 . S
C86 C84 1.369 . S
C86 C88 1.392 . S
C86 H114 0.930 . S
C87 C83 1.373 . S
C87 C85 1.383 . S
C87 H115 0.931 . S
C88 C85 1.382 . S
C88 C86 1.392 . S
C89 Eu80 2.828 . S
C89 C83 1.505 . S
C89 O101 1.249 . S
C89 O102 1.244 . S
O90 Eu81 2.373 . S
O90 C92 1.258 . S
O91 Eu80 2.392 . S
O91 C92 1.242 . S
C92 O90 1.258 . S
C92 O91 1.242 . S
O93 Eu80 2.418 . S
O93 C97 1.244 . S
O94 Eu81 2.488 . S
O94 C110 1.249 . S
O95 Eu81 2.471 . S
O95 C110 1.244 . S
O96 Eu81 2.349 . S
O96 C97 1.265 . S
C97 O93 1.244 . S
C97 O96 1.265 . S
O98 Eu80 2.373 . S
O98 C111 1.258 . S
O99 Eu81 2.392 . S
O99 C111 1.242 . S
O100 Eu81 2.418 . S
O100 C82 1.244 . S
O101 Eu80 2.488 . S
O101 C89 1.249 . S
O102 Eu80 2.471 . S
O102 C89 1.244 . S
O103 Eu80 2.349 . S
O103 C82 1.265 . S
C104 C105 1.379 . S
C104 C108 1.373 . S
C104 C110 1.505 . S
C105 C104 1.379 . S
C105 C107 1.369 . S
C105 H116 0.930 . S
C106 C108 1.383 . S
C106 C109 1.382 . S
C106 H117 0.930 . S
C107 C105 1.369 . S
C107 C109 1.392 . S
C107 H118 0.930 . S
C108 C104 1.373 . S
C108 C106 1.383 . S
C108 H119 0.931 . S
C109 C106 1.382 . S
C109 C107 1.392 . S
C110 Eu81 2.828 . S
C110 O94 1.249 . S
C110 O95 1.244 . S
C110 C104 1.505 . S
C111 O98 1.258 . S
C111 O99 1.242 . S
H112 C84 0.930 . S
H113 C85 0.930 . S
H114 C86 0.930 . S
H115 C87 0.931 . S
H116 C105 0.930 . S
H117 C106 0.930 . S
H118 C107 0.930 . S
H119 C108 0.931 . S
H120 C125 0.930 . S
H121 C128 0.930 . S
H122 C130 0.930 . S
H123 C124 1.016 . S
C124 H123 1.016 . S
C124 N131 1.286 . S
C125 H120 0.930 . S
C125 C126 1.397 1_545 S
C125 C127 1.361 . S
C126 C125 1.397 1_565 S
C126 C130 1.390 . S
C127 C125 1.361 . S
C127 C128 1.393 . S
C127 N131 1.413 . S
C128 H121 0.930 . S
C128 C127 1.393 . S
C128 C129 1.399 . S
C129 C128 1.399 . S
C129 C130 1.381 1_545 S
C130 H122 0.930 . S
C130 C126 1.390 . S
C130 C129 1.381 1_565 S
N131 C124 1.286 . S
N131 C127 1.413 . S
H132 C137 0.930 . S
H133 C140 0.930 . S
H134 C142 0.930 . S
H135 C136 1.016 . S
C136 H135 1.016 . S
C136 N143 1.286 . S
C137 H132 0.930 . S
C137 C138 1.397 . S
C137 C139 1.361 . S
C138 C137 1.397 . S
C138 C142 1.390 . S
C139 C137 1.361 . S
C139 C140 1.393 . S
C139 N143 1.413 . S
C140 H133 0.930 . S
C140 C139 1.393 . S
C140 C141 1.399 . S
C141 C140 1.399 . S
C141 C142 1.381 . S
C142 H134 0.930 . S
C142 C138 1.390 . S
C142 C141 1.381 . S
N143 C136 1.286 . S
N143 C139 1.413 . S
H144 C149 0.929 1_655 S
H145 C152 0.930 . S
H146 C154 0.930 . S
H147 C148 1.016 . S
C148 H147 1.016 . S
C148 N155 1.286 . S
C149 H144 0.929 1_455 S
C149 C150 1.397 1_455 S
C149 C151 1.361 . S
C150 C149 1.397 1_655 S
C150 C154 1.390 . S
C151 C149 1.361 . S
C151 C152 1.393 . S
C151 N155 1.413 . S
C152 H145 0.930 . S
C152 C151 1.393 . S
C152 C153 1.399 . S
C153 C152 1.399 . S
C153 C154 1.381 1_455 S
C154 H146 0.930 . S
C154 C150 1.390 . S
C154 C153 1.381 1_655 S
N155 C148 1.286 . S
N155 C151 1.413 . S
H156 C161 0.930 . S
H157 C164 0.930 . S
H158 C166 0.930 . S
H159 C160 1.016 . S
C160 H159 1.016 . S
C160 N167 1.286 . S
C161 H156 0.930 . S
C161 C162 1.397 . S
C161 C163 1.361 1_455 S
C162 C161 1.397 . S
C162 C166 1.390 . S
C163 C161 1.361 1_655 S
C163 C164 1.393 . S
C163 N167 1.413 . S
C164 H157 0.930 . S
C164 C163 1.393 . S
C164 C165 1.399 1_655 S
C165 C164 1.399 1_455 S
C165 C166 1.381 . S
C166 H158 0.930 . S
C166 C162 1.390 . S
C166 C165 1.381 . S
N167 C160 1.286 . S
N167 C163 1.413 . S
H168 C173 0.930 . S
H169 C176 0.930 . S
H170 C178 0.930 . S
H171 C172 1.016 . S
C172 H171 1.016 . S
C172 N179 1.286 . S
C173 H168 0.930 . S
C173 C174 1.397 . S
C173 C175 1.361 . S
C174 C173 1.397 . S
C174 C178 1.390 . S
C175 C173 1.361 . S
C175 C176 1.393 1_545 S
C175 N179 1.413 1_545 S
C176 H169 0.930 . S
C176 C175 1.393 1_565 S
C176 C177 1.399 1_565 S
C177 C176 1.399 1_545 S
C177 C178 1.381 . S
C178 H170 0.930 . S
C178 C174 1.390 . S
C178 C177 1.381 . S
N179 C172 1.286 . S
N179 C175 1.413 1_565 S
H180 C185 0.930 . S
H181 C188 0.930 . S
H182 C190 0.930 . S
H183 C184 1.016 . S
C184 H183 1.016 . S
C184 N191 1.286 . S
C185 H180 0.930 . S
C185 C186 1.397 . S
C185 C187 1.361 . S
C186 C185 1.397 . S
C186 C190 1.390 . S
C187 C185 1.361 . S
C187 C188 1.393 . S
C187 N191 1.413 . S
C188 H181 0.930 . S
C188 C187 1.393 . S
C188 C189 1.399 . S
C189 C188 1.399 . S
C189 C190 1.381 . S
C190 H182 0.930 . S
C190 C186 1.390 . S
C190 C189 1.381 . S
N191 C184 1.286 . S
N191 C187 1.413 . S
C192 C193 1.363 . S
C192 C198 1.379 . S
C192 N200 1.356 . S
C193 C192 1.363 . S
C193 C199 1.363 . S
C194 C195 1.363 . S
C194 C199 1.379 . S
C194 N201 1.356 . S
C195 C194 1.363 . S
C195 C198 1.363 . S
N196 C198 1.356 . S
N196 H208 0.984 . S
N196 H209 0.985 . S
N197 C199 1.356 . S
N197 H202 0.984 . S
N197 H203 0.985 . S
C198 C192 1.379 . S
C198 C195 1.363 . S
C198 N196 1.356 . S
C199 C193 1.363 . S
C199 C194 1.379 . S
C199 N197 1.356 . S
N200 C192 1.356 . S
N200 H206 0.984 . S
N200 H207 0.984 . S
N201 C194 1.356 . S
N201 H204 0.984 . S
N201 H205 0.985 . S
H202 N197 0.984 . S
H203 N197 0.985 . S
H204 N201 0.984 . S
H205 N201 0.985 . S
H206 N200 0.984 . S
H207 N200 0.984 . S
H208 N196 0.984 . S
H209 N196 0.985 . S
C210 C211 1.363 . S
C210 C216 1.379 . S
C210 N218 1.356 . S
C211 C210 1.363 . S
C211 C217 1.363 . S
C212 C213 1.363 . S
C212 C217 1.379 . S
C212 N219 1.356 . S
C213 C212 1.363 . S
C213 C216 1.363 . S
N214 C216 1.356 . S
N214 H226 0.984 . S
N214 H227 0.985 . S
N215 C217 1.356 . S
N215 H220 0.984 . S
N215 H221 0.985 . S
C216 C210 1.379 . S
C216 C213 1.363 . S
C216 N214 1.356 . S
C217 C211 1.363 . S
C217 C212 1.379 . S
C217 N215 1.356 . S
N218 C210 1.356 . S
N218 H224 0.984 . S
N218 H225 0.984 . S
N219 C212 1.356 . S
N219 H222 0.984 . S
N219 H223 0.985 . S
H220 N215 0.984 . S
H221 N215 0.985 . S
H222 N219 0.984 . S
H223 N219 0.985 . S
H224 N218 0.984 . S
H225 N218 0.984 . S
H226 N214 0.984 . S
H227 N214 0.985 . S
C228 C229 1.363 . S
C228 C234 1.379 . S
C228 N236 1.356 . S
C229 C228 1.363 . S
C229 C235 1.363 . S
C230 C231 1.363 . S
C230 C235 1.379 . S
C230 N237 1.356 . S
C231 C230 1.363 . S
C231 C234 1.363 . S
N232 C234 1.356 . S
N232 H244 0.984 . S
N232 H245 0.985 . S
N233 C235 1.356 . S
N233 H238 0.984 . S
N233 H239 0.985 . S
C234 C228 1.379 . S
C234 C231 1.363 . S
C234 N232 1.356 . S
C235 C229 1.363 . S
C235 C230 1.379 . S
C235 N233 1.356 . S
N236 C228 1.356 . S
N236 H242 0.984 . S
N236 H243 0.984 . S
N237 C230 1.356 . S
N237 H240 0.984 . S
N237 H241 0.985 . S
H238 N233 0.984 . S
H239 N233 0.985 . S
H240 N237 0.984 . S
H241 N237 0.985 . S
H242 N236 0.984 . S
H243 N236 0.984 . S
H244 N232 0.984 . S
H245 N232 0.985 . S
C246 C247 1.363 . S
C246 C252 1.379 . S
C246 N254 1.356 . S
C247 C246 1.363 . S
C247 C253 1.363 . S
C248 C249 1.363 . S
C248 C253 1.379 . S
C248 N255 1.356 . S
C249 C248 1.363 . S
C249 C252 1.363 . S
N250 C252 1.356 . S
N250 H262 0.984 . S
N250 H263 0.985 . S
N251 C253 1.356 . S
N251 H256 0.984 . S
N251 H257 0.985 . S
C252 C246 1.379 . S
C252 C249 1.363 . S
C252 N250 1.356 . S
C253 C247 1.363 . S
C253 C248 1.379 . S
C253 N251 1.356 . S
N254 C246 1.356 . S
N254 H260 0.984 . S
N254 H261 0.984 . S
N255 C248 1.356 . S
N255 H258 0.984 . S
N255 H259 0.985 . S
H256 N251 0.984 . S
H257 N251 0.985 . S
H258 N255 0.984 . S
H259 N255 0.985 . S
H260 N254 0.984 . S
H261 N254 0.984 . S
H262 N250 0.984 . S
H263 N250 0.985 . S
C264 C265 1.363 . S
C264 C270 1.379 . S
C264 N272 1.356 . S
C265 C264 1.363 . S
C265 C271 1.363 . S
C266 C267 1.363 . S
C266 C271 1.379 . S
C266 N273 1.356 . S
C267 C266 1.363 . S
C267 C270 1.363 . S
N268 C270 1.356 . S
N268 H280 0.984 . S
N268 H281 0.985 . S
N269 C271 1.356 . S
N269 H274 0.984 . S
N269 H275 0.985 . S
C270 C264 1.379 . S
C270 C267 1.363 . S
C270 N268 1.356 . S
C271 C265 1.363 . S
C271 C266 1.379 . S
C271 N269 1.356 . S
N272 C264 1.356 . S
N272 H278 0.984 . S
N272 H279 0.984 . S
N273 C266 1.356 . S
N273 H276 0.984 . S
N273 H277 0.985 . S
H274 N269 0.984 . S
H275 N269 0.985 . S
H276 N273 0.984 . S
H277 N273 0.985 . S
H278 N272 0.984 . S
H279 N272 0.984 . S
H280 N268 0.984 . S
H281 N268 0.985 . S
C282 C283 1.363 . S
C282 C288 1.379 . S
C282 N290 1.356 . S
C283 C282 1.363 . S
C283 C289 1.363 . S
C284 C285 1.363 . S
C284 C289 1.379 . S
C284 N291 1.356 . S
C285 C284 1.363 . S
C285 C288 1.363 . S
N286 C288 1.356 . S
N286 H298 0.984 . S
N286 H299 0.985 . S
N287 C289 1.356 . S
N287 H292 0.984 . S
N287 H293 0.985 . S
C288 C282 1.379 . S
C288 C285 1.363 . S
C288 N286 1.356 . S
C289 C283 1.363 . S
C289 C284 1.379 . S
C289 N287 1.356 . S
N290 C282 1.356 . S
N290 H296 0.984 . S
N290 H297 0.984 . S
N291 C284 1.356 . S
N291 H294 0.984 . S
N291 H295 0.985 . S
H292 N287 0.984 . S
H293 N287 0.985 . S
H294 N291 0.984 . S
H295 N291 0.985 . S
H296 N290 0.984 . S
H297 N290 0.984 . S
H298 N286 0.984 . S
H299 N286 0.985 . S
C300 C301 1.363 . S
C300 C306 1.379 . S
C300 N308 1.356 . S
C301 C300 1.363 . S
C301 C307 1.363 . S
C302 C303 1.363 . S
C302 C307 1.379 . S
C302 N309 1.356 . S
C303 C302 1.363 . S
C303 C306 1.363 . S
N304 C306 1.356 . S
N304 H316 0.984 . S
N304 H317 0.985 . S
N305 C307 1.356 . S
N305 H310 0.984 . S
N305 H311 0.985 . S
C306 C300 1.379 . S
C306 C303 1.363 . S
C306 N304 1.356 . S
C307 C301 1.363 . S
C307 C302 1.379 . S
C307 N305 1.356 . S
N308 C300 1.356 . S
N308 H314 0.984 . S
N308 H315 0.984 . S
N309 C302 1.356 . S
N309 H312 0.984 . S
N309 H313 0.985 . S
H310 N305 0.984 . S
H311 N305 0.985 . S
H312 N309 0.984 . S
H313 N309 0.985 . S
H314 N308 0.984 . S
H315 N308 0.984 . S
H316 N304 0.984 . S
H317 N304 0.985 . S
C318 C319 1.363 . S
C318 C324 1.379 . S
C318 N326 1.356 . S
C319 C318 1.363 . S
C319 C325 1.363 . S
C320 C321 1.363 . S
C320 C325 1.379 . S
C320 N327 1.356 1_655 S
C321 C320 1.363 . S
C321 C324 1.363 . S
N322 C324 1.356 . S
N322 H334 0.984 . S
N322 H335 0.985 . S
N323 C325 1.356 . S
N323 H328 0.984 . S
N323 H329 0.985 . S
C324 C318 1.379 . S
C324 C321 1.363 . S
C324 N322 1.356 . S
C325 C319 1.363 . S
C325 C320 1.379 . S
C325 N323 1.356 . S
N326 C318 1.356 . S
N326 H332 0.984 . S
N326 H333 0.984 . S
N327 C320 1.356 1_455 S
N327 H330 0.984 . S
N327 H331 0.985 . S
H328 N323 0.984 . S
H329 N323 0.985 . S
H330 N327 0.984 . S
H331 N327 0.985 . S
H332 N326 0.984 . S
H333 N326 0.984 . S
H334 N322 0.984 . S
H335 N322 0.985 . S
C336 C337 1.363 . S
C336 C342 1.379 . S
C336 N344 1.356 . S
C337 C336 1.363 . S
C337 C343 1.363 . S
C338 C339 1.363 . S
C338 C343 1.379 . S
C338 N345 1.356 . S
C339 C338 1.363 . S
C339 C342 1.363 . S
N340 C342 1.356 1_545 S
N340 H352 0.984 . S
N340 H353 0.985 . S
N341 C343 1.356 . S
N341 H346 0.984 . S
N341 H347 0.985 . S
C342 C336 1.379 . S
C342 C339 1.363 . S
C342 N340 1.356 1_565 S
C343 C337 1.363 . S
C343 C338 1.379 . S
C343 N341 1.356 . S
N344 C336 1.356 . S
N344 H350 0.984 . S
N344 H351 0.984 . S
N345 C338 1.356 . S
N345 H348 0.984 . S
N345 H349 0.985 . S
H346 N341 0.984 . S
H347 N341 0.985 . S
H348 N345 0.984 . S
H349 N345 0.985 . S
H350 N344 0.984 . S
H351 N344 0.984 . S
H352 N340 0.984 . S
H353 N340 0.985 . S
C354 C355 1.363 . S
C354 C360 1.379 . S
C354 N362 1.356 . S
C355 C354 1.363 . S
C355 C361 1.363 . S
C356 C357 1.363 . S
C356 C361 1.379 . S
C356 N363 1.356 . S
C357 C356 1.363 . S
C357 C360 1.363 . S
N358 C360 1.356 . S
N358 H370 0.984 . S
N358 H371 0.985 . S
N359 C361 1.356 . S
N359 H364 0.984 . S
N359 H365 0.985 . S
C360 C354 1.379 . S
C360 C357 1.363 . S
C360 N358 1.356 . S
C361 C355 1.363 . S
C361 C356 1.379 . S
C361 N359 1.356 . S
N362 C354 1.356 . S
N362 H368 0.984 . S
N362 H369 0.984 . S
N363 C356 1.356 . S
N363 H366 0.984 . S
N363 H367 0.985 . S
H364 N359 0.984 . S
H365 N359 0.985 . S
H366 N363 0.984 . S
H367 N363 0.985 . S
H368 N362 0.984 . S
H369 N362 0.984 . S
H370 N358 0.984 . S
H371 N358 0.985 . S
C372 C373 1.363 . S
C372 C378 1.379 . S
C372 N380 1.356 . S
C373 C372 1.363 . S
C373 C379 1.363 . S
C374 C375 1.363 . S
C374 C379 1.379 . S
C374 N381 1.356 . S
C375 C374 1.363 . S
C375 C378 1.363 . S
N376 C378 1.356 . S
N376 H388 0.984 . S
N376 H389 0.985 . S
N377 C379 1.356 . S
N377 H382 0.984 . S
N377 H383 0.985 . S
C378 C372 1.379 . S
C378 C375 1.363 . S
C378 N376 1.356 . S
C379 C373 1.363 . S
C379 C374 1.379 . S
C379 N377 1.356 . S
N380 C372 1.356 . S
N380 H386 0.984 . S
N380 H387 0.984 . S
N381 C374 1.356 . S
N381 H384 0.984 . S
N381 H385 0.985 . S
H382 N377 0.984 . S
H383 N377 0.985 . S
H384 N381 0.984 . S
H385 N381 0.985 . S
H386 N380 0.984 . S
H387 N380 0.984 . S
H388 N376 0.984 . S
H389 N376 0.985 . S
C390 C391 1.363 . S
C390 C396 1.379 . S
C390 N398 1.356 . S
C391 C390 1.363 . S
C391 C397 1.363 . S
C392 C393 1.363 . S
C392 C397 1.379 . S
C392 N399 1.356 . S
C393 C392 1.363 . S
C393 C396 1.363 . S
N394 C396 1.356 . S
N394 H406 0.984 . S
N394 H407 0.985 . S
N395 C397 1.356 . S
N395 H400 0.984 . S
N395 H401 0.985 . S
C396 C390 1.379 . S
C396 C393 1.363 . S
C396 N394 1.356 . S
C397 C391 1.363 . S
C397 C392 1.379 . S
C397 N395 1.356 . S
N398 C390 1.356 . S
N398 H404 0.984 . S
N398 H405 0.984 . S
N399 C392 1.356 . S
N399 H402 0.984 . S
N399 H403 0.985 . S
H400 N395 0.984 . S
H401 N395 0.985 . S
H402 N399 0.984 . S
H403 N399 0.985 . S
H404 N398 0.984 . S
H405 N398 0.984 . S
H406 N394 0.984 . S
H407 N394 0.985 . S
C408 C409 1.363 . S
C408 C414 1.386 . S
C408 N416 1.356 . S
C409 C408 1.363 . S
C409 C415 1.363 1_455 S
C410 C411 1.353 1_654 S
C410 C415 1.399 . S
C410 N417 1.341 1_554 S
C411 C410 1.353 1_456 S
C411 C414 1.359 1_556 S
N412 C414 1.351 1_556 S
N412 H424 0.984 . S
N412 H425 0.985 . S
N413 C415 1.356 . S
N413 H418 0.984 . S
N413 H419 0.985 . S
C414 C408 1.386 . S
C414 C411 1.359 1_554 S
C414 N412 1.351 1_554 S
C415 C409 1.363 1_655 S
C415 C410 1.399 . S
C415 N413 1.356 . S
N416 C408 1.356 . S
N416 H422 0.984 . S
N416 H423 0.984 . S
N417 C410 1.341 1_556 S
N417 H420 0.984 . S
N417 H421 0.985 . S
H418 N413 0.984 . S
H419 N413 0.985 . S
H420 N417 0.984 . S
H421 N417 0.985 . S
H422 N416 0.984 . S
H423 N416 0.984 . S
H424 N412 0.984 . S
H425 N412 0.985 . S
C426 C427 1.363 . S
C426 C432 1.379 . S
C426 N434 1.356 . S
C427 C426 1.363 . S
C427 C433 1.363 1_545 S
C428 C429 1.363 1_565 S
C428 C433 1.379 . S
C428 N435 1.356 . S
C429 C428 1.363 1_545 S
C429 C432 1.363 . S
N430 C432 1.356 . S
N430 H442 0.984 . S
N430 H443 0.985 . S
N431 C433 1.356 . S
N431 H436 0.984 . S
N431 H437 0.985 . S
C432 C426 1.379 . S
C432 C429 1.363 . S
C432 N430 1.356 . S
C433 C427 1.363 1_565 S
C433 C428 1.379 . S
C433 N431 1.356 . S
N434 C426 1.356 . S
N434 H440 0.984 . S
N434 H441 0.984 . S
N435 C428 1.356 . S
N435 H438 0.984 . S
N435 H439 0.985 . S
H436 N431 0.984 . S
H437 N431 0.985 . S
H438 N435 0.984 . S
H439 N435 0.985 . S
H440 N434 0.984 . S
H441 N434 0.984 . S
H442 N430 0.984 . S
H443 N430 0.985 . S
C444 C445 1.363 . S
C444 C450 1.379 . S
C444 N452 1.356 . S
C445 C444 1.363 . S
C445 C451 1.363 . S
C446 C447 1.363 . S
C446 C451 1.379 . S
C446 N453 1.356 . S
C447 C446 1.363 . S
C447 C450 1.363 . S
N448 C450 1.356 . S
N448 H460 0.984 . S
N448 H461 0.985 . S
N449 C451 1.356 . S
N449 H454 0.984 . S
N449 H455 0.985 . S
C450 C444 1.379 . S
C450 C447 1.363 . S
C450 N448 1.356 . S
C451 C445 1.363 . S
C451 C446 1.379 . S
C451 N449 1.356 . S
N452 C444 1.356 . S
N452 H458 0.984 . S
N452 H459 0.984 . S
N453 C446 1.356 . S
N453 H456 0.984 . S
N453 H457 0.985 . S
H454 N449 0.984 . S
H455 N449 0.985 . S
H456 N453 0.984 . S
H457 N453 0.985 . S
H458 N452 0.984 . S
H459 N452 0.984 . S
H460 N448 0.984 . S
H461 N448 0.985 . S
C462 C463 1.363 . S
C462 C468 1.379 . S
C462 N470 1.356 . S
C463 C462 1.363 . S
C463 C469 1.363 1_545 S
C464 C465 1.363 1_565 S
C464 C469 1.379 . S
C464 N471 1.356 . S
C465 C464 1.363 1_545 S
C465 C468 1.363 . S
N466 C468 1.356 . S
N466 H478 0.984 . S
N466 H479 0.985 . S
N467 C469 1.356 . S
N467 H472 0.984 . S
N467 H473 0.985 . S
C468 C462 1.379 . S
C468 C465 1.363 . S
C468 N466 1.356 . S
C469 C463 1.363 1_565 S
C469 C464 1.379 . S
C469 N467 1.356 . S
N470 C462 1.356 . S
N470 H476 0.984 . S
N470 H477 0.984 . S
N471 C464 1.356 . S
N471 H474 0.984 . S
N471 H475 0.985 . S
H472 N467 0.984 . S
H473 N467 0.985 . S
H474 N471 0.984 . S
H475 N471 0.985 . S
H476 N470 0.984 . S
H477 N470 0.984 . S
H478 N466 0.984 . S
H479 N466 0.985 . S
C480 C481 1.363 . S
C480 C486 1.359 1_556 S
C480 N488 1.356 . S
C481 C480 1.363 . S
C481 C487 1.363 . S
C482 C483 1.363 1_556 S
C482 C487 1.379 . S
C482 N489 1.356 1_556 S
C483 C482 1.363 1_554 S
C483 C486 1.373 . S
N484 C486 1.371 . S
N484 H496 0.984 . S
N484 H497 0.985 . S
N485 C487 1.356 . S
N485 H490 0.984 . S
N485 H491 0.985 . S
C486 C480 1.359 1_554 S
C486 C483 1.373 . S
C486 N484 1.371 . S
C487 C481 1.363 . S
C487 C482 1.379 . S
C487 N485 1.356 . S
N488 C480 1.356 . S
N488 H494 0.984 . S
N488 H495 0.984 . S
N489 C482 1.356 1_554 S
N489 H492 0.984 . S
N489 H493 0.985 . S
H490 N485 0.984 . S
H491 N485 0.985 . S
H492 N489 0.984 . S
H493 N489 0.985 . S
H494 N488 0.984 . S
H495 N488 0.984 . S
H496 N484 0.984 . S
H497 N484 0.985 . S
C498 C499 1.363 . S
C498 C504 1.379 . S
C498 N506 1.356 . S
C499 C498 1.363 . S
C499 C505 1.363 1_455 S
C500 C501 1.363 1_655 S
C500 C505 1.379 . S
C500 N507 1.356 . S
C501 C500 1.363 1_455 S
C501 C504 1.363 . S
N502 C504 1.356 . S
N502 H514 0.984 . S
N502 H515 0.985 . S
N503 C505 1.356 . S
N503 H508 0.984 . S
N503 H509 0.985 . S
C504 C498 1.379 . S
C504 C501 1.363 . S
C504 N502 1.356 . S
C505 C499 1.363 1_655 S
C505 C500 1.379 . S
C505 N503 1.356 . S
N506 C498 1.356 . S
N506 H512 0.984 . S
N506 H513 0.984 . S
N507 C500 1.356 . S
N507 H510 0.984 . S
N507 H511 0.985 . S
H508 N503 0.984 . S
H509 N503 0.985 . S
H510 N507 0.984 . S
H511 N507 0.985 . S
H512 N506 0.984 . S
H513 N506 0.984 . S
H514 N502 0.984 . S
H515 N502 0.985 . S
C193 C12 3.226 . S
C195 C186 3.214 . S
C211 C52 3.075 . S
C213 C160 2.996 . S
C229 C111 3.095 . S
C231 C172 3.002 . S
C247 C31 2.974 . S
C249 C184 2.825 . S
C267 C162 3.010 . S
C265 C71 3.069 . S
C285 C174 2.982 . S
C283 C92 3.034 . S
C301 C48 0.875 . S
C303 C136 0.928 . S
C319 C109 0.917 . S
C321 C150 1.021 . S
C337 C29 0.658 . S
C339 C126 0.551 . S
C357 C138 0.700 . S
C355 C69 0.719 . S
C375 C148 0.434 . S
C373 C88 0.517 . S
C391 C8 0.653 . S
C393 C124 0.597 . S
C411 C153 1.106 . S
C409 C17 1.096 . S
C427 C57 1.083 . S
C429 C129 1.106 . S
C445 C97 1.169 . S
C447 C141 1.161 . S
C465 C177 1.764 . S
C463 C42 1.731 . S
C483 C189 1.844 . S
C481 C82 1.804 . S
C499 C2 1.750 . S
C501 C165 1.778 . S
