# Generated by pormake.
# Topology ant, (3,6)-cn, num edge types: 1
# Building blocks:
#     Node 0, Type 0, BuildingBlock: VETTIZ_charged_linker_0, # of connection points: 3
#     Node 1, Type 0, BuildingBlock: VETTIZ_charged_linker_0, # of connection points: 3
#     Node 2, Type 0, BuildingBlock: VETTIZ_charged_linker_0, # of connection points: 3
#     Node 3, Type 0, BuildingBlock: VETTIZ_charged_linker_0, # of connection points: 3
#     Node 4, Type 0, BuildingBlock: VETTIZ_charged_linker_0, # of connection points: 3
#     Node 5, Type 0, BuildingBlock: VETTIZ_charged_linker_0, # of connection points: 3
#     Node 6, Type 0, BuildingBlock: VETTIZ_charged_linker_0, # of connection points: 3
#     Node 7, Type 0, BuildingBlock: VETTIZ_charged_linker_0, # of connection points: 3
#     Node 8, Type 1, BuildingBlock: MIDCAF_clean_sbu_0, # of connection points: 6
#     Node 9, Type 1, BuildingBlock: MIDCAF_clean_sbu_0, # of connection points: 6
#     Node 10, Type 1, BuildingBlock: MIDCAF_clean_sbu_0, # of connection points: 6
#     Node 11, Type 1, BuildingBlock: MIDCAF_clean_sbu_0, # of connection points: 6
#     Edge 12, Type (0, 1), BuildingBlock: CIFDUS_clean_linker_0, # of connection points: 2
#     Edge 13, Type (0, 1), BuildingBlock: CIFDUS_clean_linker_0, # of connection points: 2
#     Edge 14, Type (0, 1), BuildingBlock: CIFDUS_clean_linker_0, # of connection points: 2
#     Edge 15, Type (0, 1), BuildingBlock: CIFDUS_clean_linker_0, # of connection points: 2
#     Edge 16, Type (0, 1), BuildingBlock: CIFDUS_clean_linker_0, # of connection points: 2
#     Edge 17, Type (0, 1), BuildingBlock: CIFDUS_clean_linker_0, # of connection points: 2
#     Edge 18, Type (0, 1), BuildingBlock: CIFDUS_clean_linker_0, # of connection points: 2
#     Edge 19, Type (0, 1), BuildingBlock: CIFDUS_clean_linker_0, # of connection points: 2
#     Edge 20, Type (0, 1), BuildingBlock: CIFDUS_clean_linker_0, # of connection points: 2
#     Edge 21, Type (0, 1), BuildingBlock: CIFDUS_clean_linker_0, # of connection points: 2
#     Edge 22, Type (0, 1), BuildingBlock: CIFDUS_clean_linker_0, # of connection points: 2
#     Edge 23, Type (0, 1), BuildingBlock: CIFDUS_clean_linker_0, # of connection points: 2
#     Edge 24, Type (0, 1), BuildingBlock: CIFDUS_clean_linker_0, # of connection points: 2
#     Edge 25, Type (0, 1), BuildingBlock: CIFDUS_clean_linker_0, # of connection points: 2
#     Edge 26, Type (0, 1), BuildingBlock: CIFDUS_clean_linker_0, # of connection points: 2
#     Edge 27, Type (0, 1), BuildingBlock: CIFDUS_clean_linker_0, # of connection points: 2
#     Edge 28, Type (0, 1), BuildingBlock: CIFDUS_clean_linker_0, # of connection points: 2
#     Edge 29, Type (0, 1), BuildingBlock: CIFDUS_clean_linker_0, # of connection points: 2
#     Edge 30, Type (0, 1), BuildingBlock: CIFDUS_clean_linker_0, # of connection points: 2
#     Edge 31, Type (0, 1), BuildingBlock: CIFDUS_clean_linker_0, # of connection points: 2
#     Edge 32, Type (0, 1), BuildingBlock: CIFDUS_clean_linker_0, # of connection points: 2
#     Edge 33, Type (0, 1), BuildingBlock: CIFDUS_clean_linker_0, # of connection points: 2
#     Edge 34, Type (0, 1), BuildingBlock: CIFDUS_clean_linker_0, # of connection points: 2
#     Edge 35, Type (0, 1), BuildingBlock: CIFDUS_clean_linker_0, # of connection points: 2
# Relax obj value: 0.106
# Max RMSD: 0.161
# Mean RMSD: 0.107
data_MOF--net-ant--node1-MIDCAF_clean_sbu_0--node2-VETTIZ_charged_linker_0--edge1-CIFDUS_clean_linker_0
_symmetry_space_group_name_H-M    P1
_symmetry_Int_Tables_number       1
_symmetry_cell_setting            triclinic
loop_
_symmetry_equiv_pos_as_xyz
'x, y, z'
_cell_length_a     30.413475
_cell_length_b     30.042528
_cell_length_c     84.142795
_cell_angle_alpha  90.268634
_cell_angle_beta   93.703038
_cell_angle_gamma 90.032128
loop_
_atom_site_label
_atom_site_type_symbol
_atom_site_fract_x
_atom_site_fract_y
_atom_site_fract_z
_atom_type_partial_charge
C0 C 0.28207 0.10836 0.09301 0.0
C1 C 0.28961 0.06564 0.08666 0.0
C2 C 0.28913 0.06037 0.06999 0.0
C3 C 0.26721 0.13708 0.06628 0.0
C4 C 0.27157 0.1438 0.08255 0.0
C5 C 0.26244 0.19165 0.08689 0.0
H6 H 0.20505 0.40015 0.06158 0.0
C7 C 0.25063 0.17845 0.05873 0.0
C8 C 0.24865 0.21117 0.07063 0.0
H9 H 0.24798 0.35878 0.10927 0.0
H10 H 0.25178 0.28256 0.10041 0.0
H11 H 0.2695 0.33879 0.04211 0.0
H12 H 0.13723 0.32051 0.056 0.0
H13 H 0.14028 0.2903 0.03821 0.0
H14 H 0.14826 0.34991 0.03821 0.0
H15 H 0.22296 0.37108 0.03466 0.0
H16 H 0.23638 0.31905 0.02555 0.0
C17 C 0.30592 0.21236 0.09413 0.0
C18 C 0.22425 0.19261 0.09817 0.0
C19 C 0.19418 0.17376 0.00066 0.0
C20 C 0.17234 0.20507 0.99067 0.0
C21 C 0.16505 0.24829 -0.00343 0.0
C22 C 0.17922 0.2601 0.0122 0.0
C23 C 0.20073 0.22831 0.0221 0.0
C24 C 0.20767 0.18595 0.0163 0.0
C25 C 0.22961 0.15606 0.02866 0.0
C26 C 0.23416 0.18735 0.04292 0.0
C27 C 0.21756 0.22968 0.03896 0.0
C28 C 0.27509 0.1418 0.02295 0.0
C29 C 0.19769 0.11695 0.03133 0.0
C30 C 0.21489 0.37475 0.07017 0.0
C31 C 0.22732 0.38608 0.08608 0.0
C32 C 0.23963 0.3515 0.09682 0.0
C33 C 0.24182 0.30711 0.09169 0.0
C34 C 0.23133 0.29675 0.07562 0.0
C35 C 0.21708 0.33013 0.06525 0.0
C36 C 0.20564 0.31259 0.04872 0.0
C37 C 0.21822 0.2639 0.05067 0.0
C38 C 0.23324 0.25466 0.06646 0.0
C39 C 0.23486 0.33664 0.03703 0.0
C40 C 0.15539 0.31876 0.04495 0.0
H41 H 0.2768 0.08898 0.0473 0.0
H42 H 0.2829 0.11361 0.10577 0.0
H43 H 0.19761 0.16929 0.09385 0.0
H44 H 0.20853 0.22561 0.0988 0.0
H45 H 0.23582 0.1824 0.1104 0.0
H46 H 0.33492 0.19797 0.08853 0.0
H47 H 0.31023 0.20602 0.10713 0.0
H48 H 0.30815 0.24849 0.09199 0.0
H49 H 0.20008 0.14028 0.99646 0.0
H50 H 0.14895 0.27325 0.98899 0.0
H51 H 0.17304 0.29357 0.01594 0.0
H52 H 0.28725 0.16547 0.01409 0.0
H53 H 0.27339 0.10836 0.01726 0.0
H54 H 0.30116 0.14175 0.03278 0.0
H55 H 0.16346 0.12941 0.03216 0.0
H56 H 0.20545 0.09872 0.04248 0.0
H57 H 0.1974 0.0928 0.02128 0.0
H58 H 0.29446 0.028 0.06473 0.0
C59 C 0.2781 0.09576 0.05983 0.0
C60 C 0.19339 0.83298 0.34183 0.0
C61 C 0.23504 0.83529 0.3355 0.0
C62 C 0.23746 0.84122 0.31898 0.0
C63 C 0.15823 0.83456 0.31514 0.0
C64 C 0.15547 0.83296 0.33144 0.0
C65 C 0.10863 0.82821 0.33598 0.0
H66 H 0.89321 0.7963 0.31323 0.0
C67 C 0.11365 0.82763 0.30756 0.0
C68 C 0.08421 0.82495 0.31967 0.0
H69 H 0.95285 0.81613 0.36084 0.0
H70 H 0.02419 0.8234 0.35038 0.0
H71 H 0.94882 0.86995 0.29566 0.0
H72 H 0.96859 0.72935 0.30271 0.0
H73 H 0.98408 0.74132 0.2835 0.0
H74 H 0.9279 0.75064 0.28834 0.0
H75 H 0.91439 0.82848 0.28572 0.0
H76 H 0.96475 0.8469 0.27763 0.0
C77 C 0.09618 0.87088 0.3451 0.0
C78 C 0.10501 0.78458 0.34557 0.0
C79 C 0.09678 0.78787 0.24899 0.0
C80 C 0.06074 0.77384 0.23901 0.0
C81 C 0.01809 0.77549 0.24448 0.0
C82 C 0.01177 0.78897 0.26017 0.0
C83 C 0.04859 0.80054 0.27038 0.0
C84 C 0.09005 0.80106 0.26457 0.0
C85 C 0.12548 0.81381 0.27702 0.0
C86 C 0.0987 0.81925 0.2915 0.0
C87 C 0.0538 0.8111 0.28758 0.0
C88 C 0.14635 0.85839 0.27209 0.0
C89 C 0.15842 0.7745 0.27884 0.0
C90 C 0.92167 0.8018 0.32141 0.0
C91 C 0.91717 0.80614 0.33787 0.0
C92 C 0.95517 0.81358 0.34808 0.0
C93 C 0.99669 0.81765 0.342 0.0
C94 C 1.00058 0.81378 0.32553 0.0
C95 C 0.96354 0.80573 0.31553 0.0
C96 C 0.97431 0.8016 0.2984 0.0
C97 C 0.02361 0.8102 0.29974 0.0
C98 C 0.0388 0.81701 0.31568 0.0
C99 C 0.94915 0.83836 0.28871 0.0
C100 C 0.96299 0.75346 0.29278 0.0
H101 H 0.20334 0.84388 0.29627 0.0
H102 H 0.19053 0.82912 0.35452 0.0
H103 H 0.12443 0.75754 0.34027 0.0
H104 H 0.07107 0.77159 0.34551 0.0
H105 H 0.11793 0.78924 0.35812 0.0
H106 H 0.11479 0.90031 0.34116 0.0
H107 H 0.10363 0.86723 0.35812 0.0
H108 H 0.06115 0.8801 0.34282 0.0
H109 H 0.12981 0.78704 0.24487 0.0
H110 H 0.99002 0.76484 0.23681 0.0
H111 H 0.97867 0.78868 0.26388 0.0
H112 H 0.12349 0.87773 0.26389 0.0
H113 H 0.17701 0.85267 0.26589 0.0
H114 H 0.15365 0.88088 0.2824 0.0
H115 H 0.14045 0.7423 0.27927 0.0
H116 H 0.17988 0.77588 0.28988 0.0
H117 H 0.17976 0.77303 0.26863 0.0
H118 H 0.26908 0.84293 0.31378 0.0
C119 C 0.19926 0.84109 0.30878 0.0
C120 C 0.78479 0.61538 0.599 0.0
C121 C 0.79278 0.57277 0.59255 0.0
C122 C 0.78748 0.56684 0.57591 0.0
C123 C 0.76232 0.64268 0.57255 0.0
C124 C 0.77012 0.65006 0.5887 0.0
C125 C 0.76013 0.6978 0.59309 0.0
H126 H 0.67807 0.90047 0.56935 0.0
C127 C 0.74312 0.68335 0.56524 0.0
C128 C 0.74225 0.71638 0.57708 0.0
H129 H 0.73751 0.86488 0.61561 0.0
H130 H 0.7492 0.7898 0.60641 0.0
H131 H 0.74918 0.84722 0.54832 0.0
H132 H 0.6219 0.81402 0.56451 0.0
H133 H 0.62484 0.78835 0.54584 0.0
H134 H 0.62755 0.84831 0.54737 0.0
H135 H 0.69896 0.87426 0.54136 0.0
H136 H 0.71689 0.82362 0.53229 0.0
C137 C 0.80389 0.72044 0.59905 0.0
C138 C 0.72469 0.6977 0.60545 0.0
C139 C 0.68317 0.67657 0.50758 0.0
C140 C 0.65993 0.70701 0.49763 0.0
C141 C 0.64977 0.74934 0.50372 0.0
C142 C 0.66322 0.76138 0.51942 0.0
C143 C 0.6869 0.7307 0.52919 0.0
C144 C 0.69596 0.68897 0.52326 0.0
C145 C 0.71994 0.66004 0.53544 0.0
C146 C 0.72415 0.69139 0.54967 0.0
C147 C 0.7051 0.73282 0.54593 0.0
C148 C 0.76553 0.64794 0.52931 0.0
C149 C 0.68985 0.61958 0.53839 0.0
C150 C 0.69423 0.87677 0.57744 0.0
C151 C 0.70685 0.88894 0.59323 0.0
C152 C 0.72699 0.85648 0.60342 0.0
C153 C 0.7341 0.81289 0.59804 0.0
C154 C 0.72112 0.80126 0.58225 0.0
C155 C 0.70156 0.83305 0.57225 0.0
C156 C 0.6892 0.81466 0.55593 0.0
C157 C 0.70591 0.76718 0.5576 0.0
C158 C 0.72443 0.75919 0.57309 0.0
C159 C 0.71453 0.84131 0.54372 0.0
C160 C 0.63832 0.81657 0.5531 0.0
H161 H 0.76821 0.59388 0.5535 0.0
H162 H 0.78907 0.62126 0.61171 0.0
H163 H 0.69768 0.67414 0.60174 0.0
H164 H 0.70892 0.73045 0.60674 0.0
H165 H 0.73899 0.68714 0.61732 0.0
H166 H 0.83197 0.70725 0.59261 0.0
H167 H 0.81131 0.71444 0.61196 0.0
H168 H 0.80398 0.75661 0.5968 0.0
H169 H 0.69116 0.64371 0.50327 0.0
H170 H 0.63236 0.77359 0.4962 0.0
H171 H 0.65498 0.79424 0.52328 0.0
H172 H 0.77687 0.67353 0.52097 0.0
H173 H 0.76433 0.61556 0.52287 0.0
H174 H 0.79192 0.64683 0.539 0.0
H175 H 0.65475 0.63003 0.53843 0.0
H176 H 0.69697 0.60375 0.55006 0.0
H177 H 0.69219 0.59401 0.52891 0.0
H178 H 0.79263 0.53458 0.57054 0.0
C179 C 0.77253 0.60135 0.56595 0.0
C180 C 0.71215 0.33006 0.83505 0.0
C181 C 0.75079 0.34155 0.82757 0.0
C182 C 0.74663 0.3616 0.81242 0.0
C183 C 0.66794 0.34965 0.811 0.0
C184 C 0.67095 0.33482 0.82656 0.0
C185 C 0.62602 0.32409 0.83226 0.0
H186 H 0.40616 0.29776 0.81414 0.0
C187 C 0.62191 0.34481 0.80459 0.0
C188 C 0.59674 0.33074 0.81704 0.0
H189 H 0.47464 0.29692 0.86078 0.0
H190 H 0.54418 0.30849 0.84889 0.0
H191 H 0.45718 0.38101 0.80027 0.0
H192 H 0.47687 0.23963 0.7971 0.0
H193 H 0.49471 0.26171 0.77935 0.0
H194 H 0.43774 0.26785 0.78387 0.0
H195 H 0.41938 0.34335 0.78985 0.0
H196 H 0.46517 0.36671 0.78028 0.0
C197 C 0.61564 0.35816 0.8454 0.0
C198 C 0.62575 0.27513 0.83782 0.0
C199 C 0.58918 0.35133 0.74475 0.0
C200 C 0.55271 0.33787 0.73481 0.0
C201 C 0.51344 0.32575 0.74167 0.0
C202 C 0.51092 0.32619 0.75828 0.0
C203 C 0.54842 0.33781 0.76812 0.0
C204 C 0.58664 0.35025 0.76128 0.0
C205 C 0.62452 0.35713 0.77343 0.0
C206 C 0.60278 0.34681 0.78875 0.0
C207 C 0.55818 0.33595 0.78558 0.0
C208 C 0.63952 0.4064 0.77276 0.0
C209 C 0.66072 0.32276 0.76989 0.0
C210 C 0.43618 0.29946 0.82179 0.0
C211 C 0.43485 0.29658 0.83842 0.0
C212 C 0.47471 0.29954 0.84795 0.0
C213 C 0.51499 0.30641 0.84105 0.0
C214 C 0.5155 0.31069 0.82445 0.0
C215 C 0.47654 0.30688 0.81511 0.0
C216 C 0.48318 0.31318 0.79771 0.0
C217 C 0.53199 0.32404 0.79826 0.0
C218 C 0.55102 0.32176 0.81392 0.0
C219 C 0.45465 0.35298 0.79157 0.0
C220 C 0.47238 0.26856 0.78894 0.0
H221 H 0.70491 0.37971 0.79244 0.0
H222 H 0.71406 0.31569 0.84685 0.0
H223 H 0.63966 0.25303 0.82877 0.0
H224 H 0.59227 0.26264 0.83953 0.0
H225 H 0.64594 0.27105 0.8492 0.0
H226 H 0.63479 0.38948 0.84438 0.0
H227 H 0.62378 0.34453 0.85748 0.0
H228 H 0.58076 0.36886 0.84448 0.0
H229 H 0.62012 0.35957 0.73976 0.0
H230 H 0.48513 0.31487 0.73417 0.0
H231 H 0.48029 0.31623 0.76283 0.0
H232 H 0.61231 0.42838 0.76805 0.0
H233 H 0.66731 0.4104 0.76494 0.0
H234 H 0.6492 0.42015 0.78471 0.0
H235 H 0.64581 0.28955 0.76713 0.0
H236 H 0.68492 0.31711 0.77996 0.0
H237 H 0.67883 0.3331 0.75947 0.0
H238 H 0.77556 0.37253 0.80665 0.0
C239 C 0.70557 0.36569 0.80414 0.0
C240 C 0.05655 0.85061 0.90289 0.0
C241 C 0.0731 0.88786 0.91162 0.0
C242 C 0.0847 0.88277 0.92801 0.0
C243 C 0.06541 0.80423 0.92642 0.0
C244 C 0.0532 0.8094 0.91044 0.0
C245 C 0.03824 0.76628 0.90262 0.0
H246 H 0.01012 0.5432 0.9083 0.0
C247 C 0.05906 0.75679 0.93047 0.0
C248 C 0.04285 0.73443 0.91658 0.0
H249 H 0.99345 0.62423 0.86605 0.0
H250 H 0.00811 0.69068 0.88192 0.0
H251 H 0.0952 0.58985 0.92207 0.0
H252 H 0.95952 0.60995 0.93175 0.0
H253 H 0.9902 0.61709 0.94997 0.0
H254 H 0.9909 0.56391 0.93986 0.0
H255 H 0.06415 0.55048 0.93279 0.0
H256 H 0.09321 0.59587 0.94278 0.0
C257 C 0.07032 0.75472 0.88962 0.0
C258 C 0.98961 0.77159 0.89629 0.0
C259 C 0.09932 0.70252 0.98673 0.0
C260 C 0.0951 0.66108 0.9942 0.0
C261 C 0.07755 0.62479 0.98524 0.0
C262 C 0.06464 0.62961 0.96904 0.0
C263 C 0.06898 0.67127 0.96172 0.0
C264 C 0.08573 0.70695 0.97059 0.0
C265 C 0.08582 0.74921 0.96104 0.0
C266 C 0.06689 0.73286 0.94491 0.0
C267 C 0.05754 0.68712 0.94536 0.0
C268 C 0.13418 0.76493 0.96042 0.0
C269 C 0.05504 0.78327 0.96862 0.0
C270 C 0.00832 0.57532 0.9025 0.0
C271 C 1.00037 0.57841 0.8859 0.0
C272 C 0.99959 0.62092 0.87881 0.0
C273 C 0.00839 0.65942 0.88804 0.0
C274 C 0.01868 0.65542 0.90452 0.0
C275 C 0.01772 0.61389 0.91149 0.0
C276 C 0.03114 0.61541 0.92899 0.0
C277 C 0.04116 0.66454 0.93135 0.0
C278 C 0.03376 0.68798 0.91702 0.0
C279 C 0.07292 0.58625 0.93197 0.0
C280 C 0.99119 0.60057 0.93823 0.0
H281 H 0.09084 0.8395 0.94789 0.0
H282 H 0.04664 0.85328 0.89033 0.0
H283 H 0.97069 0.79068 0.90492 0.0
H284 H 0.97222 0.73947 0.8947 0.0
H285 H 0.98722 0.78983 0.88482 0.0
H286 H 0.10447 0.76556 0.89331 0.0
H287 H 0.06045 0.77154 0.87822 0.0
H288 H 0.07304 0.7186 0.88745 0.0
H289 H 0.11167 0.73128 0.99343 0.0
H290 H 0.07382 0.59267 0.9908 0.0
H291 H 0.05163 0.60069 0.96286 0.0
H292 H 0.15643 0.73608 0.95885 0.0
H293 H 0.14558 0.78228 0.97163 0.0
H294 H 0.13933 0.787 0.95027 0.0
H295 H 0.02705 0.7662 0.97394 0.0
H296 H 0.03931 0.80645 0.95983 0.0
H297 H 0.07304 0.80271 0.97824 0.0
H298 H 0.09786 0.91061 0.93503 0.0
C299 C 0.08091 0.84127 0.93544 0.0
C300 C 0.79948 0.79949 0.15482 0.0
C301 C 0.84122 0.79247 0.16265 0.0
C302 C 0.84454 0.78905 0.17939 0.0
C303 C 0.76589 0.80147 0.1802 0.0
C304 C 0.76251 0.80402 0.16379 0.0
C305 C 0.71593 0.81231 0.15732 0.0
H306 H 0.50024 0.83475 0.17117 0.0
C307 C 0.72161 0.80925 0.18595 0.0
C308 C 0.6922 0.816 0.17261 0.0
H309 H 0.55867 0.82514 0.12582 0.0
H310 H 0.63145 0.82576 0.13913 0.0
H311 H 0.5614 0.76287 0.18888 0.0
H312 H 0.57071 0.90568 0.18725 0.0
H313 H 0.59216 0.88994 0.20628 0.0
H314 H 0.53511 0.87831 0.20031 0.0
H315 H 0.5227 0.79986 0.19734 0.0
H316 H 0.5723 0.78322 0.20841 0.0
C317 C 0.70053 0.77121 0.14722 0.0
C318 C 0.71483 0.85675 0.14805 0.0
C319 C 0.6987 0.80099 0.24519 0.0
C320 C 0.6619 0.80895 0.25402 0.0
C321 C 0.62237 0.82388 0.24621 0.0
C322 C 0.61893 0.82926 0.22965 0.0
C323 C 0.65548 0.81968 0.22083 0.0
C324 C 0.69493 0.80722 0.22865 0.0
C325 C 0.73101 0.80159 0.2174 0.0
C326 C 0.70622 0.81098 0.20151 0.0
C327 C 0.66181 0.82075 0.20357 0.0
C328 C 0.74742 0.75284 0.21849 0.0
C329 C 0.76706 0.837 0.22165 0.0
C330 C 0.52876 0.83397 0.1641 0.0
C331 C 0.52371 0.82969 0.14743 0.0
C332 C 0.56171 0.82804 0.13868 0.0
C333 C 0.60392 0.82812 0.14645 0.0
C334 C 0.60835 0.82944 0.16318 0.0
C335 C 0.57118 0.83341 0.17171 0.0
C336 C 0.58213 0.83313 0.18942 0.0
C337 C 0.63179 0.82678 0.19009 0.0
C338 C 0.64696 0.82462 0.17469 0.0
C339 C 0.55836 0.7929 0.19652 0.0
C340 C 0.56919 0.8789 0.1963 0.0
H341 H 0.81197 0.79102 0.20089 0.0
H342 H 0.79563 0.80161 0.14196 0.0
H343 H 0.7369 0.88178 0.15424 0.0
H344 H 0.68192 0.87236 0.1472 0.0
H345 H 0.72606 0.85199 0.13585 0.0
H346 H 0.71579 0.74012 0.15214 0.0
H347 H 0.70986 0.77437 0.13473 0.0
H348 H 0.66472 0.76523 0.14724 0.0
H349 H 0.72954 0.78992 0.25103 0.0
H350 H 0.59371 0.83007 0.2529 0.0
H351 H 0.58773 0.83985 0.22432 0.0
H352 H 0.71916 0.7295 0.21907 0.0
H353 H 0.7696 0.74778 0.22935 0.0
H354 H 0.76476 0.74217 0.208 0.0
H355 H 0.75294 0.86713 0.22713 0.0
H356 H 0.78267 0.84965 0.21105 0.0
H357 H 0.79295 0.82372 0.23026 0.0
H358 H 0.87628 0.7841 0.18573 0.0
C359 C 0.80718 0.79354 0.18819 0.0
C360 C 0.53693 0.35428 0.40922 0.0
C361 C 0.54879 0.39347 0.41783 0.0
C362 C 0.56461 0.38938 0.4339 0.0
C363 C 0.55487 0.30915 0.4326 0.0
C364 C 0.53971 0.3128 0.41684 0.0
C365 C 0.52611 0.2683 0.40966 0.0
H366 H 0.49437 0.04671 0.42109 0.0
C367 C 0.55201 0.26179 0.43719 0.0
C368 C 0.53454 0.23762 0.42386 0.0
H369 H 0.47588 0.11763 0.37666 0.0
H370 H 0.4976 0.18682 0.39017 0.0
H371 H 0.58291 0.08676 0.42995 0.0
H372 H 0.4546 0.12195 0.44434 0.0
H373 H 0.49062 0.12478 0.4615 0.0
H374 H 0.48338 0.0726 0.45095 0.0
H375 H 0.55692 0.05664 0.44512 0.0
H376 H 0.59142 0.10448 0.44976 0.0
C377 C 0.55664 0.25746 0.39616 0.0
C378 C 0.47668 0.27049 0.40414 0.0
C379 C 0.60398 0.2137 0.49323 0.0
C380 C 0.60349 0.17249 0.50113 0.0
C381 C 0.58568 0.13502 0.49295 0.0
C382 C 0.56891 0.13838 0.4771 0.0
C383 C 0.56973 0.17974 0.46934 0.0
C384 C 0.58686 0.21658 0.47742 0.0
C385 C 0.58346 0.25806 0.46742 0.0
C386 C 0.56274 0.23966 0.45182 0.0
C387 C 0.55483 0.19389 0.45308 0.0
C388 C 0.63064 0.27577 0.46555 0.0
C389 C 0.55262 0.29141 0.47538 0.0
C390 C 0.49354 0.07731 0.4143 0.0
C391 C 0.48223 0.07691 0.39788 0.0
C392 C 0.48385 0.11724 0.38939 0.0
C393 C 0.49668 0.15723 0.39724 0.0
C394 C 0.50876 0.15667 0.4137 0.0
C395 C 0.50713 0.11689 0.42184 0.0
C396 C 0.52458 0.12077 0.43884 0.0
C397 C 0.53636 0.16965 0.4398 0.0
C398 C 0.52667 0.19102 0.42515 0.0
C399 C 0.5659 0.09051 0.4412 0.0
C400 C 0.48666 0.10919 0.44958 0.0
H401 H 0.57979 0.34698 0.45354 0.0
H402 H 0.52538 0.3557 0.39679 0.0
H403 H 0.45768 0.28724 0.41332 0.0
H404 H 0.46153 0.23737 0.40232 0.0
H405 H 0.47163 0.28963 0.39291 0.0
H406 H 0.59096 0.26856 0.39943 0.0
H407 H 0.54532 0.27456 0.38495 0.0
H408 H 0.55917 0.22141 0.39381 0.0
H409 H 0.61651 0.24335 0.49935 0.0
H410 H 0.58494 0.103 0.4988 0.0
H411 H 0.55586 0.10858 0.47155 0.0
H412 H 0.65337 0.24789 0.46313 0.0
H413 H 0.64373 0.2929 0.47659 0.0
H414 H 0.63265 0.29877 0.45544 0.0
H415 H 0.52856 0.2739 0.48257 0.0
H416 H 0.53197 0.31075 0.46659 0.0
H417 H 0.57166 0.31474 0.48347 0.0
H418 H 0.57339 0.41862 0.44098 0.0
C419 C 0.56785 0.34762 0.44127 0.0
C420 C 0.31701 0.28565 0.65578 0.0
C421 C 0.35846 0.27992 0.66419 0.0
C422 C 0.3615 0.28551 0.68084 0.0
C423 C 0.28363 0.30174 0.68065 0.0
C424 C 0.27985 0.29637 0.66431 0.0
C425 C 0.2325 0.30248 0.6578 0.0
H426 H 0.0206 0.35617 0.674 0.0
C427 C 0.24013 0.31376 0.68613 0.0
C428 C 0.20962 0.31506 0.67284 0.0
H429 H 0.06429 0.30918 0.62914 0.0
H430 H 0.14021 0.30753 0.64039 0.0
H431 H 0.07053 0.28596 0.69323 0.0
H432 H 0.10421 0.42204 0.68426 0.0
H433 H 0.1196 0.41187 0.70441 0.0
H434 H 0.06248 0.40658 0.69733 0.0
H435 H 0.0458 0.33163 0.70315 0.0
H436 H 0.0961 0.30609 0.71104 0.0
C437 C 0.21579 0.25743 0.65081 0.0
C438 C 0.23075 0.34059 0.64555 0.0
C439 C 0.22255 0.32771 0.7454 0.0
C440 C 0.18637 0.33808 0.75424 0.0
C441 C 0.14756 0.35459 0.74634 0.0
C442 C 0.14371 0.35748 0.7297 0.0
C443 C 0.17904 0.34363 0.72089 0.0
C444 C 0.21824 0.33103 0.72879 0.0
C445 C 0.25278 0.31918 0.71755 0.0
C446 C 0.22685 0.3237 0.70159 0.0
C447 C 0.18363 0.33743 0.70362 0.0
C448 C 0.26722 0.27037 0.72085 0.0
C449 C 0.29042 0.35412 0.71974 0.0
C450 C 0.04661 0.34664 0.66645 0.0
C451 C 0.03657 0.33358 0.65062 0.0
C452 C 0.07129 0.31968 0.64138 0.0
C453 C 0.1152 0.3184 0.64796 0.0
C454 C 0.12435 0.32996 0.66408 0.0
C455 C 0.09004 0.34384 0.67296 0.0
C456 C 0.10402 0.35056 0.6902 0.0
C457 C 0.15245 0.33891 0.69034 0.0
C458 C 0.16487 0.3273 0.675 0.0
C459 C 0.07778 0.31725 0.70004 0.0
C460 C 0.09704 0.40021 0.69442 0.0
H461 H 0.32967 0.29988 0.70168 0.0
H462 H 0.3136 0.2814 0.64297 0.0
H463 H 0.24895 0.37017 0.65053 0.0
H464 H 0.19682 0.35175 0.64233 0.0
H465 H 0.24612 0.33024 0.6345 0.0
H466 H 0.2282 0.22938 0.65844 0.0
H467 H 0.22733 0.25202 0.63869 0.0
H468 H 0.17959 0.25448 0.6503 0.0
H469 H 0.25287 0.31537 0.75126 0.0
H470 H 0.11922 0.36261 0.75298 0.0
H471 H 0.11271 0.36853 0.72431 0.0
H472 H 0.23835 0.24935 0.72336 0.0
H473 H 0.29125 0.26842 0.73134 0.0
H474 H 0.28167 0.25414 0.71062 0.0
H475 H 0.27903 0.3856 0.72515 0.0
H476 H 0.3029 0.36453 0.70824 0.0
H477 H 0.3183 0.34141 0.7276 0.0
H478 H 0.39289 0.28218 0.68759 0.0
C479 C 0.32462 0.29636 0.68904 0.0
Zn480 Zn 0.22142 0.69521 0.13953 0.0
Zn481 Zn 0.12587 0.78924 0.10083 0.0
Zn482 Zn 0.17501 0.74214 0.11897 0.0
C483 C 0.15792 0.72145 0.08229 0.0
C484 C 0.1913 0.84549 0.11313 0.0
O485 O 0.13867 0.73802 0.14068 0.0
O486 O 0.18558 0.70543 0.15812 0.0
C487 C 0.20207 0.63892 0.11372 0.0
O488 O 0.169 0.70552 0.09614 0.0
O489 O 0.14213 0.76017 0.08088 0.0
O490 O 0.15222 0.84731 0.10719 0.0
O491 O 0.20888 0.80749 0.11671 0.0
O492 O 0.21681 0.63809 0.12808 0.0
O493 O 0.18659 0.67554 0.10763 0.0
O494 O 0.23834 0.77832 0.12424 0.0
O495 O 0.27746 0.72816 0.13816 0.0
C496 C 0.27504 0.76528 0.13122 0.0
O497 O 0.10816 0.75011 0.12854 0.0
O498 O 0.06701 0.77728 0.1083 0.0
C499 C 0.14931 0.72492 0.15498 0.0
C500 C 0.07005 0.7617 0.12221 0.0
Zn501 Zn 0.52988 0.68537 0.35275 0.0
Zn502 Zn 0.61824 0.79191 0.38794 0.0
Zn503 Zn 0.57579 0.74062 0.37124 0.0
C504 C 0.55601 0.84492 0.37413 0.0
C505 C 0.67784 0.76382 0.36828 0.0
O506 O 0.56847 0.67597 0.38449 0.0
O507 O 0.53621 0.632 0.36608 0.0
C508 C 0.47546 0.75769 0.35888 0.0
O509 O 0.53929 0.80571 0.37196 0.0
O510 O 0.59528 0.84903 0.37963 0.0
O511 O 0.67834 0.77808 0.3824 0.0
O512 O 0.64109 0.75112 0.36117 0.0
O513 O 0.47336 0.71866 0.35325 0.0
O514 O 0.51207 0.7731 0.36519 0.0
O515 O 0.61178 0.73265 0.34956 0.0
O516 O 0.56661 0.69107 0.33405 0.0
C517 C 0.60161 0.71363 0.33607 0.0
O518 O 0.58354 0.70964 0.39507 0.0
O519 O 0.59944 0.7713 0.40864 0.0
C520 C 0.55336 0.63733 0.38002 0.0
C521 C 0.58917 0.73065 0.40842 0.0
Zn522 Zn 0.65542 0.30241 0.60572 0.0
Zn523 Zn 0.71698 0.19937 0.64514 0.0
Zn524 Zn 0.68802 0.25068 0.62376 0.0
C525 C 0.78833 0.25277 0.63698 0.0
C526 C 0.69356 0.14459 0.61937 0.0
O527 O 0.61912 0.26827 0.63024 0.0
O528 O 0.59133 0.2936 0.60721 0.0
C529 C 0.71761 0.35108 0.6222 0.0
O530 O 0.75644 0.27528 0.6301 0.0
O531 O 0.78014 0.2167 0.64387 0.0
O532 O 0.69899 0.14307 0.63436 0.0
O533 O 0.69237 0.1828 0.61238 0.0
O534 O 0.67933 0.35715 0.61597 0.0
O535 O 0.73214 0.31099 0.62415 0.0
O536 O 0.68254 0.21619 0.60061 0.0
O537 O 0.68372 0.27834 0.58685 0.0
C538 C 0.68649 0.23646 0.58735 0.0
O539 O 0.64354 0.25371 0.64358 0.0
O540 O 0.68193 0.21901 0.66301 0.0
C541 C 0.58552 0.2812 0.62122 0.0
C542 C 0.64866 0.2415 0.65825 0.0
Zn543 Zn 0.05814 0.17589 0.84501 0.0
Zn544 Zn 0.12169 0.29289 0.88167 0.0
Zn545 Zn 0.08574 0.23571 0.86552 0.0
C546 C 0.09305 0.22962 0.90228 0.0
C547 C 0.053 0.33597 0.86717 0.0
O548 O 0.12761 0.23498 0.84498 0.0
O549 O 0.09867 0.18512 0.82788 0.0
C550 C 0.07539 0.13088 0.87363 0.0
O551 O 0.09226 0.20651 0.88937 0.0
O552 O 0.09934 0.2711 0.90189 0.0
O553 O 0.09235 0.34509 0.87161 0.0
O554 O 0.04085 0.29489 0.8658 0.0
O555 O 0.06691 0.12374 0.85896 0.0
O556 O 0.08107 0.17116 0.87879 0.0
O557 O 0.02003 0.25982 0.85662 0.0
O558 O 0.99852 0.20276 0.84134 0.0
C559 C 0.99071 0.24044 0.84728 0.0
O560 O 0.15416 0.25046 0.85797 0.0
O561 O 0.18522 0.28588 0.87873 0.0
C562 C 0.12654 0.21533 0.83128 0.0
C563 C 0.18889 0.26703 0.86547 0.0
H564 H 0.1717 0.45577 0.07727 0.0
H565 H 0.28948 0.42414 0.10655 0.0
H566 H 0.29317 0.50003 0.11654 0.0
H567 H 0.26179 0.57401 0.11813 0.0
H568 H 0.14528 0.60881 0.08899 0.0
H569 H 0.14329 0.53357 0.07727 0.0
C570 C 0.19845 0.46557 0.08569 0.0
C571 C 0.22968 0.4336 0.0914 0.0
C572 C 0.20088 0.50995 0.0913 0.0
C573 C 0.2641 0.44726 0.10232 0.0
C574 C 0.26659 0.49092 0.10793 0.0
C575 C 0.23607 0.56534 0.10911 0.0
C576 C 0.20352 0.59679 0.10452 0.0
C577 C 0.23488 0.52224 0.1027 0.0
C578 C 0.17087 0.58527 0.09264 0.0
C579 C 0.16953 0.54211 0.08608 0.0
H580 H 0.8484 0.75002 0.32934 0.0
H581 H 0.88667 0.85872 0.3611 0.0
H582 H 0.81615 0.85464 0.37304 0.0
H583 H 0.74466 0.82018 0.37485 0.0
H584 H 0.70355 0.71262 0.34319 0.0
H585 H 0.77381 0.71713 0.33043 0.0
C586 C 0.84108 0.7731 0.33875 0.0
C587 C 0.87313 0.80421 0.34448 0.0
C588 C 0.8 0.77096 0.3455 0.0
C589 C 0.86316 0.83373 0.35674 0.0
C590 C 0.82268 0.83168 0.3635 0.0
C591 C 0.75102 0.79752 0.36519 0.0
C592 C 0.71907 0.76602 0.35997 0.0
C593 C 0.79116 0.80024 0.35808 0.0
C594 C 0.72749 0.73746 0.34728 0.0
C595 C 0.76775 0.73986 0.34009 0.0
H596 H 0.75226 0.54988 0.61927 0.0
H597 H 0.85083 0.50444 0.58838 0.0
H598 H 0.84397 0.42873 0.59833 0.0
H599 H 0.79598 0.37358 0.61052 0.0
H600 H 0.69637 0.41974 0.64074 0.0
H601 H 0.71876 0.49668 0.63693 0.0
C602 C 0.77365 0.52389 0.61521 0.0
C603 C 0.80085 0.53258 0.60269 0.0
C604 C 0.76892 0.48013 0.62077 0.0
C605 C 0.82855 0.49838 0.59767 0.0
C606 C 0.8246 0.45495 0.60333 0.0
C607 C 0.78088 0.40039 0.61691 0.0
C608 C 0.74439 0.39123 0.62578 0.0
C609 C 0.79279 0.44493 0.61411 0.0
C610 C 0.7246 0.42619 0.63386 0.0
C611 C 0.73699 0.47028 0.6315 0.0
H612 H 0.81544 0.30462 0.81166 0.0
H613 H 0.786 0.34765 0.85874 0.0
H614 H 0.8596 0.32354 0.86915 0.0
H615 H 0.93192 0.28702 0.86469 0.0
H616 H 0.95694 0.24319 0.81721 0.0
H617 H 0.88603 0.27206 0.80705 0.0
C618 C 0.82524 0.30964 0.82417 0.0
C619 C 0.7954 0.32847 0.83435 0.0
C620 C 0.86704 0.29561 0.82998 0.0
C621 C 0.80832 0.3332 0.85063 0.0
C622 C 0.85045 0.31957 0.85656 0.0
C623 C 0.92188 0.28455 0.85212 0.0
C624 C 0.9495 0.26298 0.84169 0.0
C625 C 0.88011 0.30039 0.84634 0.0
C626 C 0.93608 0.25939 0.82545 0.0
C627 C 0.89552 0.27582 0.81963 0.0
H628 H 0.95629 0.50043 0.89051 0.0
H629 H 0.04474 0.56333 0.85937 0.0
H630 H 0.06046 0.49155 0.84747 0.0
H631 H 0.0621 0.41045 0.85032 0.0
H632 H 0.97685 0.34635 0.88211 0.0
H633 H 0.94582 0.41867 0.88902 0.0
C634 C 0.97813 0.49845 0.88084 0.0
C635 C 0.99991 0.53712 0.87605 0.0
C636 C 0.98781 0.45672 0.87424 0.0
C637 C 0.02751 0.53423 0.86331 0.0
C638 C 0.03684 0.49305 0.85657 0.0
C639 C 0.03527 0.41227 0.85821 0.0
C640 C 0.02187 0.37346 0.8658 0.0
C641 C 0.01899 0.45397 0.86253 0.0
C642 C 0.98731 0.37585 0.87603 0.0
C643 C 0.97018 0.41731 0.88018 0.0
H644 H 0.91181 0.73609 0.16664 0.0
H645 H 0.86093 0.84585 0.13806 0.0
H646 H 0.92662 0.84498 0.12299 0.0
H647 H 0.99891 0.8146 0.11823 0.0
H648 H 0.05072 0.70436 0.14617 0.0
H649 H 0.98475 0.7045 0.16147 0.0
C650 C 0.91525 0.75994 0.15716 0.0
C651 C 0.88131 0.79086 0.15345 0.0
C652 C 0.9534 0.75944 0.14854 0.0
C653 C 0.8861 0.82121 0.14101 0.0
C654 C 0.92382 0.82097 0.13244 0.0
C655 C 0.99571 0.79037 0.12761 0.0
C656 C 0.02998 0.76002 0.13127 0.0
C657 C 0.95763 0.79034 0.13612 0.0
C658 C 0.02526 0.72879 0.14341 0.0
C659 C 0.9874 0.72867 0.15206 0.0
H660 H 0.60002 0.46897 0.4227 0.0
H661 H 0.48307 0.42004 0.39627 0.0
H662 H 0.47348 0.49154 0.3832 0.0
H663 H 0.49892 0.56678 0.37845 0.0
H664 H 0.61383 0.61859 0.405 0.0
H665 H 0.62239 0.54775 0.41938 0.0
C666 C 0.57208 0.474 0.41425 0.0
C667 C 0.54284 0.43835 0.41032 0.0
C668 C 0.56605 0.51592 0.40692 0.0
C669 C 0.50702 0.44593 0.39923 0.0
C670 C 0.50112 0.48714 0.39185 0.0
C671 C 0.52573 0.56281 0.38748 0.0
C672 C 0.55587 0.59785 0.39059 0.0
C673 C 0.53062 0.52211 0.39547 0.0
C674 C 0.59 0.5923 0.40247 0.0
C675 C 0.59511 0.55161 0.41056 0.0
H676 H 0.99507 0.26107 0.63771 0.0
H677 H 0.97196 0.39697 0.6513 0.0
H678 H 0.89225 0.38616 0.64647 0.0
H679 H 0.82839 0.33487 0.64134 0.0
H680 H 0.85357 0.19749 0.63002 0.0
H681 H 0.93246 0.21195 0.63083 0.0
C682 C 0.97263 0.28862 0.6392 0.0
C683 C 0.98941 0.32978 0.64476 0.0
C684 C 0.92686 0.28162 0.63702 0.0
C685 C 0.95981 0.36495 0.64698 0.0
C686 C 0.9142 0.35869 0.64431 0.0
C687 C 0.85123 0.30848 0.63879 0.0
C688 C 0.8352 0.26512 0.63572 0.0
C689 C 0.89716 0.31673 0.63978 0.0
C690 C 0.86516 0.23105 0.63258 0.0
C691 C 0.91034 0.23926 0.63302 0.0
H692 H 0.38918 0.31967 0.638 0.0
H693 H 0.42075 0.21775 0.67278 0.0
H694 H 0.49395 0.20919 0.66284 0.0
H695 H 0.55053 0.23293 0.64493 0.0
H696 H 0.51866 0.33473 0.61012 0.0
H697 H 0.44439 0.34055 0.6192 0.0
C698 C 0.41173 0.29493 0.64315 0.0
C699 C 0.39951 0.2696 0.65615 0.0
C700 C 0.45411 0.29042 0.63747 0.0
C701 C 0.42944 0.23799 0.66283 0.0
C702 C 0.47141 0.23311 0.65719 0.0
C703 C 0.5275 0.2567 0.63948 0.0
C704 C 0.54051 0.2838 0.62705 0.0
C705 C 0.48448 0.25977 0.64471 0.0
C706 C 0.50967 0.31349 0.61976 0.0
C707 C 0.46707 0.31689 0.62493 0.0
H708 H 0.44555 0.8727 0.15148 0.0
H709 H 0.50262 0.76442 0.12595 0.0
H710 H 0.42953 0.73908 0.11648 0.0
H711 H 0.3498 0.74074 0.11881 0.0
H712 H 0.29094 0.84797 0.14403 0.0
H713 H 0.36405 0.88126 0.15008 0.0
C714 C 0.44186 0.84406 0.14361 0.0
C715 C 0.47951 0.82027 0.13954 0.0
C716 C 0.39944 0.82937 0.13825 0.0
C717 C 0.47433 0.78351 0.12919 0.0
C718 C 0.43247 0.76875 0.12385 0.0
C719 C 0.35302 0.77214 0.12522 0.0
C720 C 0.31553 0.79196 0.13105 0.0
C721 C 0.3949 0.79047 0.12876 0.0
C722 C 0.31961 0.83245 0.13937 0.0
C723 C 0.36138 0.85113 0.14295 0.0
H724 H 0.36448 0.24317 0.8296 0.0
H725 H 0.40834 0.34415 0.86368 0.0
H726 H 0.33645 0.34357 0.87496 0.0
H727 H 0.26062 0.31651 0.87462 0.0
H728 H 0.21716 0.21255 0.84178 0.0
H729 H 0.28884 0.21308 0.83022 0.0
C730 C 0.35823 0.26501 0.8395 0.0
C731 C 0.3918 0.29364 0.84579 0.0
C732 C 0.31667 0.26455 0.84596 0.0
C733 C 0.38335 0.32138 0.85874 0.0
C734 C 0.34212 0.32134 0.86513 0.0
C735 C 0.26672 0.29385 0.86496 0.0
C736 C 0.2328 0.26565 0.85869 0.0
C737 C 0.30848 0.29332 0.85876 0.0
C738 C 0.24177 0.23613 0.84632 0.0
C739 C 0.28309 0.23589 0.83987 0.0
H740 H 0.31519 0.87684 0.33645 0.0
H741 H 0.24584 0.76699 0.3563 0.0
H742 H 0.31516 0.73618 0.36735 0.0
H743 H 0.39561 0.73364 0.36736 0.0
H744 H 0.46618 0.8423 0.34757 0.0
H745 H 0.39645 0.88076 0.34061 0.0
C746 C 0.31532 0.84672 0.34351 0.0
C747 C 0.27553 0.82394 0.34539 0.0
C748 C 0.35551 0.82869 0.34962 0.0
C749 C 0.27595 0.78529 0.35474 0.0
C750 C 0.31564 0.76734 0.36092 0.0
C751 C 0.39559 0.76622 0.36184 0.0
C752 C 0.43547 0.78511 0.35778 0.0
C753 C 0.35561 0.78771 0.35783 0.0
C754 C 0.4356 0.82741 0.35081 0.0
C755 C 0.39579 0.84913 0.34673 0.0
H756 H 0.71675 0.96961 0.57834 0.0
H757 H 0.67588 0.91122 0.62182 0.0
H758 H 0.66461 0.98501 0.63287 0.0
H759 H 0.67012 0.06543 0.63101 0.0
H760 H 0.71224 0.12623 0.58823 0.0
H761 H 0.71771 0.05232 0.57586 0.0
C762 C 0.70492 0.97307 0.59016 0.0
C763 C 0.69792 0.93466 0.59933 0.0
C764 C 0.69844 0.01602 0.59653 0.0
C765 C 0.68263 0.93995 0.61464 0.0
C766 C 0.67582 0.98221 0.62094 0.0
C767 C 0.68021 0.06274 0.6189 0.0
C768 C 0.69092 0.10146 0.61058 0.0
C769 C 0.68429 0.02036 0.61211 0.0
C770 C 0.70337 0.09715 0.59486 0.0
C771 C 0.70696 0.05478 0.58786 0.0
H772 H 0.23481 0.04553 0.10958 0.0
H773 H 0.34505 0.99371 0.08565 0.0
H774 H 0.32933 0.91871 0.09498 0.0
H775 H 0.27389 0.86651 0.10463 0.0
H776 H 0.16099 0.91954 0.12667 0.0
H777 H 0.18853 0.9951 0.12383 0.0
C778 C 0.25653 0.0182 0.10696 0.0
C779 C 0.29047 0.02501 0.09669 0.0
C780 C 0.2462 0.975 0.11182 0.0
C781 C 0.3182 0.98911 0.09334 0.0
C782 C 0.30905 0.94616 0.09859 0.0
C783 C 0.25634 0.89462 0.10931 0.0
C784 C 0.21529 0.8878 0.11564 0.0
C785 C 0.27153 0.93832 0.10702 0.0
C786 C 0.19251 0.92429 0.1216 0.0
C787 C 0.20812 0.96749 0.11991 0.0
H788 H 0.52078 0.04598 0.37185 0.0
H789 H 0.42879 1.00901 0.40635 0.0
H790 H 0.4358 0.93066 0.39899 0.0
H791 H 0.48142 0.87243 0.38729 0.0
H792 H 0.5772 0.91033 0.35435 0.0
H793 H 0.55453 0.98804 0.35606 0.0
C794 C 0.50089 0.02098 0.37728 0.0
C795 C 0.47496 0.03314 0.38981 0.0
C796 C 0.5063 0.97583 0.37337 0.0
C797 C 0.44953 1.0003 0.39681 0.0
C798 C 0.4537 0.95545 0.39267 0.0
C799 C 0.49579 0.89755 0.37999 0.0
C800 C 0.53092 0.88603 0.37077 0.0
C801 C 0.48397 0.94261 0.38163 0.0
C802 C 0.54998 0.91872 0.36151 0.0
C803 C 0.53734 0.9632 0.36261 0.0
H804 H 0.05858 0.97308 0.92248 0.0
H805 H 0.10409 0.90005 0.88234 0.0
H806 H 0.11125 0.96902 0.86778 0.0
H807 H 0.10118 0.04897 0.86568 0.0
H808 H 0.05688 0.1244 0.9053 0.0
H809 H 0.05415 0.05581 0.92105 0.0
C810 C 0.07057 0.97232 0.91063 0.0
C811 C 0.07983 0.93106 0.90342 0.0
C812 C 0.07509 0.01253 0.90226 0.0
C813 C 0.09538 0.93093 0.88804 0.0
C814 C 0.0999 0.97047 0.87973 0.0
C815 C 0.09116 0.05057 0.87782 0.0
C816 C 0.07891 0.09167 0.88428 0.0
C817 C 0.08917 0.01124 0.8866 0.0
C818 C 0.06673 0.09324 0.90009 0.0
C819 C 0.0648 0.05394 0.90902 0.0
H820 H 0.09328 0.22156 0.97516 0.0
H821 H 0.22019 0.16252 0.96884 0.0
H822 H 0.20137 0.15409 0.94029 0.0
H823 H 0.15433 0.17657 0.91672 0.0
H824 H 0.03052 0.24145 0.92311 0.0
H825 H 0.04167 0.23335 0.95198 0.0
C826 C 0.11653 0.20634 0.96753 0.0
C827 C 0.15833 0.19354 0.97398 0.0
C828 C 0.10583 0.20247 0.95113 0.0
C829 C 0.18786 0.17287 0.9641 0.0
C830 C 0.17718 0.16818 0.94777 0.0
C831 C 0.12906 0.18701 0.92447 0.0
C832 C 0.09158 0.2092 0.91798 0.0
C833 C 0.13696 0.18448 0.94107 0.0
C834 C 0.05933 0.22375 0.92799 0.0
C835 C 0.06603 0.21972 0.94447 0.0
H836 H 0.04581 0.81047 0.20978 0.0
H837 H 0.09637 0.6936 0.2341 0.0
H838 H 0.12404 0.66508 0.20938 0.0
H839 H 0.14167 0.67792 0.18185 0.0
H840 H 0.0954 0.79684 0.15767 0.0
H841 H 0.0574 0.81976 0.18111 0.0
C842 C 0.06192 0.77831 0.20945 0.0
C843 C 0.06917 0.7539 0.22354 0.0
C844 C 0.07876 0.76278 0.19528 0.0
C845 C 0.0905 0.71257 0.22325 0.0
C846 C 0.10646 0.69647 0.20918 0.0
C847 C 0.12275 0.70855 0.18167 0.0
C848 C 0.12124 0.73562 0.16811 0.0
C849 C 0.10205 0.72197 0.19528 0.0
C850 C 0.09661 0.7752 0.16795 0.0
C851 C 0.07516 0.78849 0.18138 0.0
H852 H 0.5813 0.71874 0.48095 0.0
H853 H 0.71332 0.67023 0.47638 0.0
H854 H 0.69864 0.66229 0.44762 0.0
H855 H 0.65285 0.68236 0.42354 0.0
H856 H 0.5227 0.73507 0.42802 0.0
H857 H 0.53126 0.72699 0.45698 0.0
C858 C 0.60656 0.70585 0.47364 0.0
C859 C 0.64852 0.69584 0.48069 0.0
C860 C 0.59806 0.70192 0.4571 0.0
C861 C 0.68079 0.6783 0.4712 0.0
C862 C 0.67247 0.67389 0.45475 0.0
C863 C 0.6257 0.68992 0.43087 0.0
C864 C 0.58702 0.70861 0.42381 0.0
C865 C 0.63179 0.68718 0.44752 0.0
C866 C 0.55238 0.71975 0.4333 0.0
C867 C 0.5576 0.71585 0.44985 0.0
H868 H 0.54192 0.26068 0.7187 0.0
H869 H 0.57916 0.39776 0.7131 0.0
H870 H 0.60513 0.38092 0.68676 0.0
H871 H 0.6283 0.32467 0.66751 0.0
H872 H 0.59978 0.18633 0.6752 0.0
H873 H 0.55842 0.20583 0.69825 0.0
C874 C 0.55443 0.28703 0.71145 0.0
C875 C 0.55855 0.33036 0.7177 0.0
C876 C 0.5713 0.27658 0.69676 0.0
C877 C 0.57566 0.3642 0.70843 0.0
C878 C 0.59071 0.3545 0.69344 0.0
C879 C 0.61195 0.29913 0.67405 0.0
C880 C 0.61678 0.25426 0.66982 0.0
C881 C 0.59036 0.31047 0.68778 0.0
C882 C 0.5963 0.22108 0.67839 0.0
C883 C 0.57288 0.23222 0.69156 0.0
H884 H 0.17082 0.6864 0.01057 0.0
H885 H 0.04416 0.62653 0.01655 0.0
H886 H 0.05714 0.63094 0.0455 0.0
H887 H 0.09895 0.66399 0.06873 0.0
H888 H 0.22411 0.72635 0.06262 0.0
H889 H 0.21813 0.70788 0.0342 0.0
C890 C 0.14648 0.67366 0.01826 0.0
C891 C 0.10635 0.65684 0.01151 0.0
C892 C 0.15404 0.67668 0.03487 0.0
C893 C 0.07526 0.63973 0.02152 0.0
C894 C 0.08259 0.64241 0.03806 0.0
C895 C 0.12571 0.67158 0.06125 0.0
C896 C 0.16218 0.69581 0.06763 0.0
C897 C 0.12114 0.66231 0.04484 0.0
C898 C 0.19622 0.70685 0.05789 0.0
C899 C 0.19244 0.69691 0.04163 0.0
H900 H 0.66541 0.72772 0.26722 0.0
H901 H 0.65872 0.8672 0.27875 0.0
H902 H 0.64822 0.8492 0.30667 0.0
H903 H 0.6302 0.79361 0.32667 0.0
H904 H 0.6267 0.65455 0.31392 0.0
H905 H 0.653 0.67199 0.28777 0.0
C906 C 0.66269 0.75399 0.27599 0.0
C907 C 0.663 0.79859 0.27114 0.0
C908 C 0.65465 0.74329 0.29176 0.0
C909 C 0.65869 0.83265 0.28239 0.0
C910 C 0.65257 0.82233 0.29828 0.0
C911 C 0.63648 0.76716 0.31829 0.0
C912 C 0.62684 0.72291 0.32212 0.0
C913 C 0.64903 0.77776 0.30298 0.0
C914 C 0.63412 0.68882 0.31115 0.0
C915 C 0.64884 0.69882 0.29619 0.0
H916 H 0.67986 0.2055 0.51471 0.0
H917 H 0.56364 0.13216 0.52544 0.0
H918 H 0.58531 0.1365 0.55391 0.0
H919 H 0.63063 0.17255 0.57573 0.0
H920 H 0.7434 0.2506 0.56466 0.0
H921 H 0.73072 0.2321 0.53644 0.0
C922 C 0.6596 0.19006 0.5233 0.0
C923 C 0.61988 0.1693 0.51805 0.0
C924 C 0.67182 0.19343 0.53961 0.0
C925 C 0.59433 0.1485 0.52922 0.0
C926 C 0.60662 0.15111 0.5455 0.0
C927 C 0.65332 0.18388 0.56716 0.0
C928 C 0.6879 0.2127 0.57212 0.0
C929 C 0.64445 0.17492 0.55086 0.0
C930 C 0.71675 0.22809 0.561 0.0
C931 C 0.70918 0.21798 0.54487 0.0
H932 H 0.20363 0.25694 0.76621 0.0
H933 H 0.16677 0.38963 0.7797 0.0
H934 H 0.15364 0.36367 0.80658 0.0
H935 H 0.14172 0.30114 0.82458 0.0
H936 H 0.16838 0.16721 0.80938 0.0
H937 H 0.19774 0.19554 0.78497 0.0
C938 C 0.19391 0.28032 0.7752 0.0
C939 C 0.18625 0.32505 0.77113 0.0
C940 C 0.18441 0.26471 0.79026 0.0
C941 C 0.1728 0.35503 0.78268 0.0
C942 C 0.16521 0.34016 0.79798 0.0
C943 C 0.15515 0.2784 0.81609 0.0
C944 C 0.15305 0.2323 0.81863 0.0
C945 C 0.16935 0.29478 0.8017 0.0
C946 C 0.16973 0.20286 0.80754 0.0
C947 C 0.18625 0.21902 0.79359 0.0
loop_
_geom_bond_atom_site_label_1
_geom_bond_atom_site_label_2
_geom_bond_distance
_geom_bond_site_symmetry_2
_ccdc_geom_bond_type
C0 C1 1.391 . S
C0 C4 1.391 . S
C0 H42 0.948 . S
C1 C0 1.391 . S
C1 C2 1.391 . S
C2 C1 1.391 . S
C2 H58 0.947 . S
C2 C59 1.392 . S
C3 C4 1.391 . S
C3 C7 1.397 . S
C3 C59 1.419 . S
C4 C0 1.391 . S
C4 C3 1.391 . S
C4 C5 1.399 . S
C5 C4 1.399 . S
C5 C8 1.396 . S
C5 C17 1.453 . S
C5 C18 1.684 . S
H6 C30 0.948 . S
C7 C3 1.397 . S
C7 C8 1.394 . S
C7 C26 1.723 . S
C8 C5 1.396 . S
C8 C7 1.394 . S
C8 C38 1.723 . S
H9 C32 0.947 . S
H10 C33 0.948 . S
H11 C39 0.982 . S
H12 C40 0.979 . S
H13 C40 0.980 . S
H14 C40 0.983 . S
H15 C39 0.979 . S
H16 C39 0.977 . S
C17 C5 1.453 . S
C17 H46 0.982 . S
C17 H47 0.979 . S
C17 H48 0.977 . S
C18 C5 1.684 . S
C18 H43 0.979 . S
C18 H44 0.980 . S
C18 H45 0.983 . S
C19 C20 1.422 . S
C19 C24 1.391 . S
C19 H49 0.948 . S
C20 C19 1.422 . S
C20 C21 1.414 . S
C21 C20 1.414 . S
C21 C22 1.392 . S
C21 H50 0.947 . S
C22 C21 1.392 . S
C22 C23 1.419 . S
C22 H51 0.948 . S
C23 C22 1.419 . S
C23 C24 1.391 . S
C23 C27 1.397 . S
C24 C19 1.391 . S
C24 C23 1.391 . S
C24 C25 1.399 . S
C25 C24 1.399 . S
C25 C26 1.396 . S
C25 C28 1.453 . S
C25 C29 1.684 . S
C26 C7 1.723 . S
C26 C25 1.396 . S
C26 C27 1.394 . S
C27 C23 1.397 . S
C27 C26 1.394 . S
C27 C37 1.723 . S
C28 C25 1.453 . S
C28 H52 0.982 . S
C28 H53 0.979 . S
C28 H54 0.977 . S
C29 C25 1.684 . S
C29 H55 0.979 . S
C29 H56 0.980 . S
C29 H57 0.983 . S
C30 H6 0.948 . S
C30 C31 1.391 . S
C30 C35 1.391 . S
C31 C30 1.391 . S
C31 C32 1.391 . S
C32 H9 0.947 . S
C32 C31 1.391 . S
C32 C33 1.392 . S
C33 H10 0.948 . S
C33 C32 1.392 . S
C33 C34 1.419 . S
C34 C33 1.419 . S
C34 C35 1.391 . S
C34 C38 1.397 . S
C35 C30 1.391 . S
C35 C34 1.391 . S
C35 C36 1.399 . S
C36 C35 1.399 . S
C36 C37 1.396 . S
C36 C39 1.453 . S
C36 C40 1.684 . S
C37 C27 1.723 . S
C37 C36 1.396 . S
C37 C38 1.394 . S
C38 C8 1.723 . S
C38 C34 1.397 . S
C38 C37 1.394 . S
C39 H11 0.982 . S
C39 H15 0.979 . S
C39 H16 0.977 . S
C39 C36 1.453 . S
C40 H12 0.979 . S
C40 H13 0.980 . S
C40 H14 0.983 . S
C40 C36 1.684 . S
H41 C59 0.948 . S
H42 C0 0.948 . S
H43 C18 0.979 . S
H44 C18 0.980 . S
H45 C18 0.983 . S
H46 C17 0.982 . S
H47 C17 0.979 . S
H48 C17 0.977 . S
H49 C19 0.948 . S
H50 C21 0.947 . S
H51 C22 0.948 . S
H52 C28 0.982 . S
H53 C28 0.979 . S
H54 C28 0.977 . S
H55 C29 0.979 . S
H56 C29 0.980 . S
H57 C29 0.983 . S
H58 C2 0.947 . S
C59 C2 1.392 . S
C59 C3 1.419 . S
C59 H41 0.948 . S
C60 C61 1.391 . S
C60 C64 1.391 . S
C60 H102 0.948 . S
C61 C60 1.391 . S
C61 C62 1.391 . S
C62 C61 1.391 . S
C62 H118 0.947 . S
C62 C119 1.392 . S
C63 C64 1.391 . S
C63 C67 1.397 . S
C63 C119 1.419 . S
C64 C60 1.391 . S
C64 C63 1.391 . S
C64 C65 1.399 . S
C65 C64 1.399 . S
C65 C68 1.396 . S
C65 C77 1.453 . S
C65 C78 1.684 . S
H66 C90 0.948 . S
C67 C63 1.397 . S
C67 C68 1.394 . S
C67 C86 1.723 . S
C68 C65 1.396 . S
C68 C67 1.394 . S
C68 C98 1.723 . S
H69 C92 0.947 . S
H70 C93 0.948 . S
H71 C99 0.982 . S
H72 C100 0.979 . S
H73 C100 0.971 1_455 S
H74 C100 0.983 . S
H75 C99 0.979 1_655 S
H76 C99 0.977 . S
C77 C65 1.453 . S
C77 H106 0.982 . S
C77 H107 0.979 . S
C77 H108 0.977 . S
C78 C65 1.684 . S
C78 H103 0.979 . S
C78 H104 0.980 . S
C78 H105 0.983 . S
C79 C80 1.391 . S
C79 C84 1.391 . S
C79 H109 0.948 . S
C80 C79 1.391 . S
C80 C81 1.391 . S
C81 C80 1.391 . S
C81 C82 1.392 . S
C81 H110 0.947 . S
C82 C81 1.392 . S
C82 C83 1.419 . S
C82 H111 0.948 . S
C83 C82 1.419 . S
C83 C84 1.391 . S
C83 C87 1.397 . S
C84 C79 1.391 . S
C84 C83 1.391 . S
C84 C85 1.399 . S
C85 C84 1.399 . S
C85 C86 1.396 . S
C85 C88 1.453 . S
C85 C89 1.684 . S
C86 C67 1.723 . S
C86 C85 1.396 . S
C86 C87 1.394 . S
C87 C83 1.397 . S
C87 C86 1.394 . S
C87 C97 1.723 . S
C88 C85 1.453 . S
C88 H112 0.982 . S
C88 H113 0.979 . S
C88 H114 0.977 . S
C89 C85 1.684 . S
C89 H115 0.979 . S
C89 H116 0.980 . S
C89 H117 0.983 . S
C90 H66 0.948 . S
C90 C91 1.391 . S
C90 C95 1.391 1_655 S
C91 C90 1.391 . S
C91 C92 1.391 1_655 S
C92 H69 0.947 . S
C92 C91 1.391 1_455 S
C92 C93 1.392 . S
C93 H70 0.948 . S
C93 C92 1.392 . S
C93 C94 1.419 . S
C94 C93 1.419 . S
C94 C95 1.391 . S
C94 C98 1.397 . S
C95 C90 1.391 1_455 S
C95 C94 1.391 . S
C95 C96 1.399 . S
C96 C95 1.399 . S
C96 C97 1.396 . S
C96 C99 1.453 . S
C96 C100 1.684 1_455 S
C97 C87 1.723 . S
C97 C96 1.396 . S
C97 C98 1.394 . S
C98 C68 1.723 . S
C98 C94 1.397 . S
C98 C97 1.394 . S
C99 H71 0.982 . S
C99 H75 0.979 1_455 S
C99 H76 0.977 . S
C99 C96 1.453 . S
C100 H72 0.979 . S
C100 H73 0.971 1_655 S
C100 H74 0.983 . S
C100 C96 1.684 1_655 S
H101 C119 0.948 . S
H102 C60 0.948 . S
H103 C78 0.979 . S
H104 C78 0.980 . S
H105 C78 0.983 . S
H106 C77 0.982 . S
H107 C77 0.979 . S
H108 C77 0.977 . S
H109 C79 0.948 . S
H110 C81 0.947 . S
H111 C82 0.948 . S
H112 C88 0.982 . S
H113 C88 0.979 . S
H114 C88 0.977 . S
H115 C89 0.979 . S
H116 C89 0.980 . S
H117 C89 0.983 . S
H118 C62 0.947 . S
C119 C62 1.392 . S
C119 C63 1.419 . S
C119 H101 0.948 . S
C120 C121 1.391 . S
C120 C124 1.391 . S
C120 H162 0.948 . S
C121 C120 1.391 . S
C121 C122 1.391 . S
C122 C121 1.391 . S
C122 H178 0.947 . S
C122 C179 1.392 . S
C123 C124 1.391 . S
C123 C127 1.397 . S
C123 C179 1.419 . S
C124 C120 1.391 . S
C124 C123 1.391 . S
C124 C125 1.399 . S
C125 C124 1.399 . S
C125 C128 1.396 . S
C125 C137 1.453 . S
C125 C138 1.684 . S
H126 C150 0.948 . S
C127 C123 1.397 . S
C127 C128 1.394 . S
C127 C146 1.723 . S
C128 C125 1.396 . S
C128 C127 1.394 . S
C128 C158 1.723 . S
H129 C152 0.947 . S
H130 C153 0.948 . S
H131 C159 0.982 . S
H132 C160 0.979 . S
H133 C160 0.980 . S
H134 C160 0.983 . S
H135 C159 0.979 . S
H136 C159 0.977 . S
C137 C125 1.453 . S
C137 H166 0.982 . S
C137 H167 0.979 . S
C137 H168 0.977 . S
C138 C125 1.684 . S
C138 H163 0.979 . S
C138 H164 0.980 . S
C138 H165 0.983 . S
C139 C140 1.391 . S
C139 C144 1.391 . S
C139 H169 0.948 . S
C140 C139 1.391 . S
C140 C141 1.391 . S
C141 C140 1.391 . S
C141 C142 1.392 . S
C141 H170 0.947 . S
C142 C141 1.392 . S
C142 C143 1.419 . S
C142 H171 0.948 . S
C143 C142 1.419 . S
C143 C144 1.391 . S
C143 C147 1.397 . S
C144 C139 1.391 . S
C144 C143 1.391 . S
C144 C145 1.399 . S
C145 C144 1.399 . S
C145 C146 1.396 . S
C145 C148 1.453 . S
C145 C149 1.684 . S
C146 C127 1.723 . S
C146 C145 1.396 . S
C146 C147 1.394 . S
C147 C143 1.397 . S
C147 C146 1.394 . S
C147 C157 1.723 . S
C148 C145 1.453 . S
C148 H172 0.982 . S
C148 H173 0.979 . S
C148 H174 0.977 . S
C149 C145 1.684 . S
C149 H175 0.979 . S
C149 H176 0.980 . S
C149 H177 0.983 . S
C150 H126 0.948 . S
C150 C151 1.391 . S
C150 C155 1.391 . S
C151 C150 1.391 . S
C151 C152 1.391 . S
C152 H129 0.947 . S
C152 C151 1.391 . S
C152 C153 1.392 . S
C153 H130 0.948 . S
C153 C152 1.392 . S
C153 C154 1.419 . S
C154 C153 1.419 . S
C154 C155 1.391 . S
C154 C158 1.397 . S
C155 C150 1.391 . S
C155 C154 1.391 . S
C155 C156 1.399 . S
C156 C155 1.399 . S
C156 C157 1.396 . S
C156 C159 1.453 . S
C156 C160 1.684 . S
C157 C147 1.723 . S
C157 C156 1.396 . S
C157 C158 1.394 . S
C158 C128 1.723 . S
C158 C154 1.397 . S
C158 C157 1.394 . S
C159 H131 0.982 . S
C159 H135 0.979 . S
C159 H136 0.977 . S
C159 C156 1.453 . S
C160 H132 0.979 . S
C160 H133 0.980 . S
C160 H134 0.983 . S
C160 C156 1.684 . S
H161 C179 0.948 . S
H162 C120 0.948 . S
H163 C138 0.979 . S
H164 C138 0.980 . S
H165 C138 0.983 . S
H166 C137 0.982 . S
H167 C137 0.979 . S
H168 C137 0.977 . S
H169 C139 0.948 . S
H170 C141 0.947 . S
H171 C142 0.948 . S
H172 C148 0.982 . S
H173 C148 0.979 . S
H174 C148 0.977 . S
H175 C149 0.979 . S
H176 C149 0.980 . S
H177 C149 0.983 . S
H178 C122 0.947 . S
C179 C122 1.392 . S
C179 C123 1.419 . S
C179 H161 0.948 . S
C180 C181 1.391 . S
C180 C184 1.391 . S
C180 H222 0.948 . S
C181 C180 1.391 . S
C181 C182 1.391 . S
C182 C181 1.391 . S
C182 H238 0.947 . S
C182 C239 1.392 . S
C183 C184 1.391 . S
C183 C187 1.397 . S
C183 C239 1.419 . S
C184 C180 1.391 . S
C184 C183 1.391 . S
C184 C185 1.399 . S
C185 C184 1.399 . S
C185 C188 1.396 . S
C185 C197 1.453 . S
C185 C198 1.684 . S
H186 C210 0.948 . S
C187 C183 1.397 . S
C187 C188 1.394 . S
C187 C206 1.723 . S
C188 C185 1.396 . S
C188 C187 1.394 . S
C188 C218 1.723 . S
H189 C212 0.947 . S
H190 C213 0.948 . S
H191 C219 0.982 . S
H192 C220 0.979 . S
H193 C220 0.980 . S
H194 C220 0.983 . S
H195 C219 0.979 . S
H196 C219 0.977 . S
C197 C185 1.453 . S
C197 H226 0.982 . S
C197 H227 0.979 . S
C197 H228 0.977 . S
C198 C185 1.684 . S
C198 H223 0.979 . S
C198 H224 0.980 . S
C198 H225 0.983 . S
C199 C200 1.391 . S
C199 C204 1.391 . S
C199 H229 0.948 . S
C200 C199 1.391 . S
C200 C201 1.391 . S
C201 C200 1.391 . S
C201 C202 1.392 . S
C201 H230 0.947 . S
C202 C201 1.392 . S
C202 C203 1.419 . S
C202 H231 0.948 . S
C203 C202 1.419 . S
C203 C204 1.391 . S
C203 C207 1.397 . S
C204 C199 1.391 . S
C204 C203 1.391 . S
C204 C205 1.399 . S
C205 C204 1.399 . S
C205 C206 1.396 . S
C205 C208 1.453 . S
C205 C209 1.684 . S
C206 C187 1.723 . S
C206 C205 1.396 . S
C206 C207 1.394 . S
C207 C203 1.397 . S
C207 C206 1.394 . S
C207 C217 1.723 . S
C208 C205 1.453 . S
C208 H232 0.982 . S
C208 H233 0.979 . S
C208 H234 0.977 . S
C209 C205 1.684 . S
C209 H235 0.979 . S
C209 H236 0.980 . S
C209 H237 0.983 . S
C210 H186 0.948 . S
C210 C211 1.391 . S
C210 C215 1.391 . S
C211 C210 1.391 . S
C211 C212 1.391 . S
C212 H189 0.947 . S
C212 C211 1.391 . S
C212 C213 1.392 . S
C213 H190 0.948 . S
C213 C212 1.392 . S
C213 C214 1.419 . S
C214 C213 1.419 . S
C214 C215 1.391 . S
C214 C218 1.397 . S
C215 C210 1.391 . S
C215 C214 1.391 . S
C215 C216 1.399 . S
C216 C215 1.399 . S
C216 C217 1.396 . S
C216 C219 1.453 . S
C216 C220 1.684 . S
C217 C207 1.723 . S
C217 C216 1.396 . S
C217 C218 1.394 . S
C218 C188 1.723 . S
C218 C214 1.397 . S
C218 C217 1.394 . S
C219 H191 0.982 . S
C219 H195 0.979 . S
C219 H196 0.977 . S
C219 C216 1.453 . S
C220 H192 0.979 . S
C220 H193 0.980 . S
C220 H194 0.983 . S
C220 C216 1.684 . S
H221 C239 0.948 . S
H222 C180 0.948 . S
H223 C198 0.979 . S
H224 C198 0.980 . S
H225 C198 0.983 . S
H226 C197 0.982 . S
H227 C197 0.979 . S
H228 C197 0.977 . S
H229 C199 0.948 . S
H230 C201 0.947 . S
H231 C202 0.948 . S
H232 C208 0.982 . S
H233 C208 0.979 . S
H234 C208 0.977 . S
H235 C209 0.979 . S
H236 C209 0.980 . S
H237 C209 0.983 . S
H238 C182 0.947 . S
C239 C182 1.392 . S
C239 C183 1.419 . S
C239 H221 0.948 . S
C240 C241 1.391 . S
C240 C244 1.391 . S
C240 H282 0.948 . S
C241 C240 1.391 . S
C241 C242 1.391 . S
C242 C241 1.391 . S
C242 H298 0.947 . S
C242 C299 1.392 . S
C243 C244 1.391 . S
C243 C247 1.397 . S
C243 C299 1.419 . S
C244 C240 1.391 . S
C244 C243 1.391 . S
C244 C245 1.399 . S
C245 C244 1.399 . S
C245 C248 1.396 . S
C245 C257 1.453 . S
C245 C258 1.684 . S
H246 C270 0.948 . S
C247 C243 1.397 . S
C247 C248 1.394 . S
C247 C266 1.723 . S
C248 C245 1.396 . S
C248 C247 1.394 . S
C248 C278 1.723 . S
H249 C272 0.947 . S
H250 C273 0.948 . S
H251 C279 0.982 . S
H252 C280 0.979 1_655 S
H253 C280 0.980 . S
H254 C280 0.983 . S
H255 C279 0.979 . S
H256 C279 0.977 . S
C257 C245 1.453 . S
C257 H286 0.982 . S
C257 H287 0.979 . S
C257 H288 0.977 . S
C258 C245 1.684 . S
C258 H283 0.979 1_455 S
C258 H284 0.980 . S
C258 H285 0.983 . S
C259 C260 1.391 . S
C259 C264 1.391 . S
C259 H289 0.948 . S
C260 C259 1.391 . S
C260 C261 1.391 . S
C261 C260 1.391 . S
C261 C262 1.392 . S
C261 H290 0.947 . S
C262 C261 1.392 . S
C262 C263 1.419 . S
C262 H291 0.948 . S
C263 C262 1.419 . S
C263 C264 1.391 . S
C263 C267 1.397 . S
C264 C259 1.391 . S
C264 C263 1.391 . S
C264 C265 1.399 . S
C265 C264 1.399 . S
C265 C266 1.396 . S
C265 C268 1.453 . S
C265 C269 1.684 . S
C266 C247 1.723 . S
C266 C265 1.396 . S
C266 C267 1.394 . S
C267 C263 1.397 . S
C267 C266 1.394 . S
C267 C277 1.723 . S
C268 C265 1.453 . S
C268 H292 0.982 . S
C268 H293 0.979 . S
C268 H294 0.977 . S
C269 C265 1.684 . S
C269 H295 0.979 1_455 S
C269 H296 0.980 . S
C269 H297 0.983 . S
C270 H246 0.948 . S
C270 C271 1.391 . S
C270 C275 1.391 . S
C271 C270 1.391 . S
C271 C272 1.391 . S
C272 H249 0.947 . S
C272 C271 1.391 . S
C272 C273 1.392 . S
C273 H250 0.948 . S
C273 C272 1.392 . S
C273 C274 1.419 . S
C274 C273 1.419 . S
C274 C275 1.391 . S
C274 C278 1.397 . S
C275 C270 1.391 . S
C275 C274 1.391 . S
C275 C276 1.399 . S
C276 C275 1.399 . S
C276 C277 1.396 . S
C276 C279 1.453 . S
C276 C280 1.684 . S
C277 C267 1.723 . S
C277 C276 1.396 . S
C277 C278 1.394 . S
C278 C248 1.723 . S
C278 C274 1.397 . S
C278 C277 1.394 . S
C279 H251 0.982 . S
C279 H255 0.979 . S
C279 H256 0.977 . S
C279 C276 1.453 . S
C280 H252 0.979 1_455 S
C280 H253 0.980 . S
C280 H254 0.983 . S
C280 C276 1.684 . S
H281 C299 0.948 . S
H282 C240 0.948 . S
H283 C258 0.979 1_655 S
H284 C258 0.980 . S
H285 C258 0.983 . S
H286 C257 0.982 . S
H287 C257 0.979 . S
H288 C257 0.977 . S
H289 C259 0.948 . S
H290 C261 0.947 . S
H291 C262 0.948 . S
H292 C268 0.982 . S
H293 C268 0.979 . S
H294 C268 0.977 . S
H295 C269 0.979 1_655 S
H296 C269 0.980 . S
H297 C269 0.983 . S
H298 C242 0.947 . S
C299 C242 1.392 . S
C299 C243 1.419 . S
C299 H281 0.948 . S
C300 C301 1.391 . S
C300 C304 1.391 . S
C300 H342 0.948 . S
C301 C300 1.391 . S
C301 C302 1.391 . S
C302 C301 1.391 . S
C302 H358 0.947 . S
C302 C359 1.392 . S
C303 C304 1.391 . S
C303 C307 1.397 . S
C303 C359 1.419 . S
C304 C300 1.391 . S
C304 C303 1.391 . S
C304 C305 1.399 . S
C305 C304 1.399 . S
C305 C308 1.396 . S
C305 C317 1.453 . S
C305 C318 1.684 . S
H306 C330 0.948 . S
C307 C303 1.397 . S
C307 C308 1.394 . S
C307 C326 1.723 . S
C308 C305 1.396 . S
C308 C307 1.394 . S
C308 C338 1.723 . S
H309 C332 0.947 . S
H310 C333 0.948 . S
H311 C339 0.982 . S
H312 C340 0.979 . S
H313 C340 0.980 . S
H314 C340 0.983 . S
H315 C339 0.979 . S
H316 C339 0.977 . S
C317 C305 1.453 . S
C317 H346 0.982 . S
C317 H347 0.979 . S
C317 H348 0.977 . S
C318 C305 1.684 . S
C318 H343 0.979 . S
C318 H344 0.980 . S
C318 H345 0.983 . S
C319 C320 1.391 . S
C319 C324 1.391 . S
C319 H349 0.948 . S
C320 C319 1.391 . S
C320 C321 1.391 . S
C321 C320 1.391 . S
C321 C322 1.392 . S
C321 H350 0.947 . S
C322 C321 1.392 . S
C322 C323 1.419 . S
C322 H351 0.948 . S
C323 C322 1.419 . S
C323 C324 1.391 . S
C323 C327 1.397 . S
C324 C319 1.391 . S
C324 C323 1.391 . S
C324 C325 1.399 . S
C325 C324 1.399 . S
C325 C326 1.396 . S
C325 C328 1.453 . S
C325 C329 1.684 . S
C326 C307 1.723 . S
C326 C325 1.396 . S
C326 C327 1.394 . S
C327 C323 1.397 . S
C327 C326 1.394 . S
C327 C337 1.723 . S
C328 C325 1.453 . S
C328 H352 0.982 . S
C328 H353 0.979 . S
C328 H354 0.977 . S
C329 C325 1.684 . S
C329 H355 0.979 . S
C329 H356 0.980 . S
C329 H357 0.983 . S
C330 H306 0.948 . S
C330 C331 1.391 . S
C330 C335 1.391 . S
C331 C330 1.391 . S
C331 C332 1.391 . S
C332 H309 0.947 . S
C332 C331 1.391 . S
C332 C333 1.392 . S
C333 H310 0.948 . S
C333 C332 1.392 . S
C333 C334 1.419 . S
C334 C333 1.419 . S
C334 C335 1.391 . S
C334 C338 1.397 . S
C335 C330 1.391 . S
C335 C334 1.391 . S
C335 C336 1.399 . S
C336 C335 1.399 . S
C336 C337 1.396 . S
C336 C339 1.453 . S
C336 C340 1.684 . S
C337 C327 1.723 . S
C337 C336 1.396 . S
C337 C338 1.394 . S
C338 C308 1.723 . S
C338 C334 1.397 . S
C338 C337 1.394 . S
C339 H311 0.982 . S
C339 H315 0.979 . S
C339 H316 0.977 . S
C339 C336 1.453 . S
C340 H312 0.979 . S
C340 H313 0.980 . S
C340 H314 0.983 . S
C340 C336 1.684 . S
H341 C359 0.948 . S
H342 C300 0.948 . S
H343 C318 0.979 . S
H344 C318 0.980 . S
H345 C318 0.983 . S
H346 C317 0.982 . S
H347 C317 0.979 . S
H348 C317 0.977 . S
H349 C319 0.948 . S
H350 C321 0.947 . S
H351 C322 0.948 . S
H352 C328 0.982 . S
H353 C328 0.979 . S
H354 C328 0.977 . S
H355 C329 0.979 . S
H356 C329 0.980 . S
H357 C329 0.983 . S
H358 C302 0.947 . S
C359 C302 1.392 . S
C359 C303 1.419 . S
C359 H341 0.948 . S
C360 C361 1.391 . S
C360 C364 1.391 . S
C360 H402 0.948 . S
C361 C360 1.391 . S
C361 C362 1.391 . S
C362 C361 1.391 . S
C362 H418 0.947 . S
C362 C419 1.392 . S
C363 C364 1.391 . S
C363 C367 1.397 . S
C363 C419 1.419 . S
C364 C360 1.391 . S
C364 C363 1.391 . S
C364 C365 1.399 . S
C365 C364 1.399 . S
C365 C368 1.396 . S
C365 C377 1.453 . S
C365 C378 1.684 . S
H366 C390 0.948 . S
C367 C363 1.397 . S
C367 C368 1.394 . S
C367 C386 1.723 . S
C368 C365 1.396 . S
C368 C367 1.394 . S
C368 C398 1.723 . S
H369 C392 0.947 . S
H370 C393 0.948 . S
H371 C399 0.982 . S
H372 C400 0.979 . S
H373 C400 0.980 . S
H374 C400 0.983 . S
H375 C399 0.979 . S
H376 C399 0.977 . S
C377 C365 1.453 . S
C377 H406 0.982 . S
C377 H407 0.979 . S
C377 H408 0.977 . S
C378 C365 1.684 . S
C378 H403 0.979 . S
C378 H404 0.980 . S
C378 H405 0.983 . S
C379 C380 1.391 . S
C379 C384 1.391 . S
C379 H409 0.948 . S
C380 C379 1.391 . S
C380 C381 1.391 . S
C381 C380 1.391 . S
C381 C382 1.392 . S
C381 H410 0.947 . S
C382 C381 1.392 . S
C382 C383 1.419 . S
C382 H411 0.948 . S
C383 C382 1.419 . S
C383 C384 1.391 . S
C383 C387 1.397 . S
C384 C379 1.391 . S
C384 C383 1.391 . S
C384 C385 1.399 . S
C385 C384 1.399 . S
C385 C386 1.396 . S
C385 C388 1.453 . S
C385 C389 1.684 . S
C386 C367 1.723 . S
C386 C385 1.396 . S
C386 C387 1.394 . S
C387 C383 1.397 . S
C387 C386 1.394 . S
C387 C397 1.723 . S
C388 C385 1.453 . S
C388 H412 0.982 . S
C388 H413 0.979 . S
C388 H414 0.977 . S
C389 C385 1.684 . S
C389 H415 0.979 . S
C389 H416 0.980 . S
C389 H417 0.983 . S
C390 H366 0.948 . S
C390 C391 1.391 . S
C390 C395 1.391 . S
C391 C390 1.391 . S
C391 C392 1.391 . S
C392 H369 0.947 . S
C392 C391 1.391 . S
C392 C393 1.392 . S
C393 H370 0.948 . S
C393 C392 1.392 . S
C393 C394 1.419 . S
C394 C393 1.419 . S
C394 C395 1.391 . S
C394 C398 1.397 . S
C395 C390 1.391 . S
C395 C394 1.391 . S
C395 C396 1.399 . S
C396 C395 1.399 . S
C396 C397 1.396 . S
C396 C399 1.453 . S
C396 C400 1.684 . S
C397 C387 1.723 . S
C397 C396 1.396 . S
C397 C398 1.394 . S
C398 C368 1.723 . S
C398 C394 1.397 . S
C398 C397 1.394 . S
C399 H371 0.982 . S
C399 H375 0.979 . S
C399 H376 0.977 . S
C399 C396 1.453 . S
C400 H372 0.979 . S
C400 H373 0.980 . S
C400 H374 0.983 . S
C400 C396 1.684 . S
H401 C419 0.948 . S
H402 C360 0.948 . S
H403 C378 0.979 . S
H404 C378 0.980 . S
H405 C378 0.983 . S
H406 C377 0.982 . S
H407 C377 0.979 . S
H408 C377 0.977 . S
H409 C379 0.948 . S
H410 C381 0.947 . S
H411 C382 0.948 . S
H412 C388 0.982 . S
H413 C388 0.979 . S
H414 C388 0.977 . S
H415 C389 0.979 . S
H416 C389 0.980 . S
H417 C389 0.983 . S
H418 C362 0.947 . S
C419 C362 1.392 . S
C419 C363 1.419 . S
C419 H401 0.948 . S
C420 C421 1.391 . S
C420 C424 1.391 . S
C420 H462 0.948 . S
C421 C420 1.391 . S
C421 C422 1.391 . S
C422 C421 1.391 . S
C422 H478 0.947 . S
C422 C479 1.392 . S
C423 C424 1.391 . S
C423 C427 1.397 . S
C423 C479 1.419 . S
C424 C420 1.391 . S
C424 C423 1.391 . S
C424 C425 1.399 . S
C425 C424 1.399 . S
C425 C428 1.396 . S
C425 C437 1.453 . S
C425 C438 1.684 . S
H426 C450 0.948 . S
C427 C423 1.397 . S
C427 C428 1.394 . S
C427 C446 1.723 . S
C428 C425 1.396 . S
C428 C427 1.394 . S
C428 C458 1.723 . S
H429 C452 0.947 . S
H430 C453 0.948 . S
H431 C459 0.982 . S
H432 C460 0.979 . S
H433 C460 0.980 . S
H434 C460 0.983 1_655 S
H435 C459 0.979 1_655 S
H436 C459 0.977 . S
C437 C425 1.453 . S
C437 H466 0.982 . S
C437 H467 0.979 . S
C437 H468 0.977 . S
C438 C425 1.684 . S
C438 H463 0.979 . S
C438 H464 0.980 . S
C438 H465 0.983 . S
C439 C440 1.391 . S
C439 C444 1.391 . S
C439 H469 0.948 . S
C440 C439 1.391 . S
C440 C441 1.391 . S
C441 C440 1.391 . S
C441 C442 1.392 . S
C441 H470 0.947 . S
C442 C441 1.392 . S
C442 C443 1.419 . S
C442 H471 0.948 . S
C443 C442 1.419 . S
C443 C444 1.391 . S
C443 C447 1.397 . S
C444 C439 1.391 . S
C444 C443 1.391 . S
C444 C445 1.399 . S
C445 C444 1.399 . S
C445 C446 1.396 . S
C445 C448 1.453 . S
C445 C449 1.684 . S
C446 C427 1.723 . S
C446 C445 1.396 . S
C446 C447 1.394 . S
C447 C443 1.397 . S
C447 C446 1.394 . S
C447 C457 1.723 . S
C448 C445 1.453 . S
C448 H472 0.982 . S
C448 H473 0.979 . S
C448 H474 0.977 . S
C449 C445 1.684 . S
C449 H475 0.979 . S
C449 H476 0.980 . S
C449 H477 0.983 . S
C450 H426 0.948 . S
C450 C451 1.391 . S
C450 C455 1.391 1_655 S
C451 C450 1.391 . S
C451 C452 1.391 1_655 S
C452 H429 0.947 . S
C452 C451 1.391 1_455 S
C452 C453 1.392 . S
C453 H430 0.948 . S
C453 C452 1.392 . S
C453 C454 1.419 . S
C454 C453 1.419 . S
C454 C455 1.391 . S
C454 C458 1.397 . S
C455 C450 1.391 1_455 S
C455 C454 1.391 . S
C455 C456 1.399 . S
C456 C455 1.399 . S
C456 C457 1.396 . S
C456 C459 1.453 . S
C456 C460 1.684 . S
C457 C447 1.723 . S
C457 C456 1.396 . S
C457 C458 1.394 . S
C458 C428 1.723 . S
C458 C454 1.397 . S
C458 C457 1.394 . S
C459 H431 0.982 . S
C459 H435 0.979 1_455 S
C459 H436 0.977 . S
C459 C456 1.453 . S
C460 H432 0.979 . S
C460 H433 0.980 . S
C460 H434 0.983 1_455 S
C460 C456 1.684 . S
H461 C479 0.948 . S
H462 C420 0.948 . S
H463 C438 0.979 . S
H464 C438 0.980 . S
H465 C438 0.983 . S
H466 C437 0.982 . S
H467 C437 0.979 . S
H468 C437 0.977 . S
H469 C439 0.948 . S
H470 C441 0.947 . S
H471 C442 0.948 . S
H472 C448 0.982 . S
H473 C448 0.979 . S
H474 C448 0.977 . S
H475 C449 0.979 . S
H476 C449 0.980 . S
H477 C449 0.983 . S
H478 C422 0.947 . S
C479 C422 1.392 . S
C479 C423 1.419 . S
C479 H461 0.948 . S
Zn480 O486 1.920 . S
Zn480 O492 1.898 . S
Zn480 O495 1.905 . S
Zn481 O489 1.905 . S
Zn481 O490 1.898 . S
Zn481 O498 1.920 . S
Zn482 O485 2.080 . S
Zn482 O488 2.114 . S
Zn482 O491 2.120 . S
Zn482 O493 2.120 . S
Zn482 O494 2.114 . S
Zn482 O497 2.080 . S
C483 O488 1.166 . S
C483 O489 1.182 . S
C484 O490 1.167 . S
C484 O491 1.299 . S
O485 Zn482 2.080 . S
O485 C499 1.305 . S
O486 Zn480 1.920 . S
O486 C499 1.234 . S
C487 O492 1.167 . S
C487 O493 1.299 . S
O488 Zn482 2.114 . S
O488 C483 1.166 . S
O489 Zn481 1.905 . S
O489 C483 1.182 . S
O490 Zn481 1.898 . S
O490 C484 1.167 . S
O491 Zn482 2.120 . S
O491 C484 1.299 . S
O492 Zn480 1.898 . S
O492 C487 1.167 . S
O493 Zn482 2.120 . S
O493 C487 1.299 . S
O494 Zn482 2.114 . S
O494 C496 1.166 . S
O495 Zn480 1.905 . S
O495 C496 1.182 . S
C496 O494 1.166 . S
C496 O495 1.182 . S
O497 Zn482 2.080 . S
O497 C500 1.305 . S
O498 Zn481 1.920 . S
O498 C500 1.234 . S
C499 O485 1.305 . S
C499 O486 1.234 . S
C500 O497 1.305 . S
C500 O498 1.234 . S
Zn501 O507 1.920 . S
Zn501 O513 1.898 . S
Zn501 O516 1.905 . S
Zn502 O510 1.905 . S
Zn502 O511 1.898 . S
Zn502 O519 1.920 . S
Zn503 O506 2.080 . S
Zn503 O509 2.114 . S
Zn503 O512 2.120 . S
Zn503 O514 2.120 . S
Zn503 O515 2.114 . S
Zn503 O518 2.080 . S
C504 O509 1.166 . S
C504 O510 1.182 . S
C505 O511 1.167 . S
C505 O512 1.299 . S
O506 Zn503 2.080 . S
O506 C520 1.305 . S
O507 Zn501 1.920 . S
O507 C520 1.234 . S
C508 O513 1.167 . S
C508 O514 1.299 . S
O509 Zn503 2.114 . S
O509 C504 1.166 . S
O510 Zn502 1.905 . S
O510 C504 1.182 . S
O511 Zn502 1.898 . S
O511 C505 1.167 . S
O512 Zn503 2.120 . S
O512 C505 1.299 . S
O513 Zn501 1.898 . S
O513 C508 1.167 . S
O514 Zn503 2.120 . S
O514 C508 1.299 . S
O515 Zn503 2.114 . S
O515 C517 1.166 . S
O516 Zn501 1.905 . S
O516 C517 1.182 . S
C517 O515 1.166 . S
C517 O516 1.182 . S
O518 Zn503 2.080 . S
O518 C521 1.305 . S
O519 Zn502 1.920 . S
O519 C521 1.234 . S
C520 O506 1.305 . S
C520 O507 1.234 . S
C521 O518 1.305 . S
C521 O519 1.234 . S
Zn522 O528 1.920 . S
Zn522 O534 1.898 . S
Zn522 O537 1.905 . S
Zn523 O531 1.905 . S
Zn523 O532 1.898 . S
Zn523 O540 1.920 . S
Zn524 O527 2.080 . S
Zn524 O530 2.114 . S
Zn524 O533 2.120 . S
Zn524 O535 2.120 . S
Zn524 O536 2.114 . S
Zn524 O539 2.080 . S
C525 O530 1.166 . S
C525 O531 1.182 . S
C526 O532 1.167 . S
C526 O533 1.299 . S
O527 Zn524 2.080 . S
O527 C541 1.305 . S
O528 Zn522 1.920 . S
O528 C541 1.234 . S
C529 O534 1.167 . S
C529 O535 1.299 . S
O530 Zn524 2.114 . S
O530 C525 1.166 . S
O531 Zn523 1.905 . S
O531 C525 1.182 . S
O532 Zn523 1.898 . S
O532 C526 1.167 . S
O533 Zn524 2.120 . S
O533 C526 1.299 . S
O534 Zn522 1.898 . S
O534 C529 1.167 . S
O535 Zn524 2.120 . S
O535 C529 1.299 . S
O536 Zn524 2.114 . S
O536 C538 1.166 . S
O537 Zn522 1.905 . S
O537 C538 1.182 . S
C538 O536 1.166 . S
C538 O537 1.182 . S
O539 Zn524 2.080 . S
O539 C542 1.305 . S
O540 Zn523 1.920 . S
O540 C542 1.234 . S
C541 O527 1.305 . S
C541 O528 1.234 . S
C542 O539 1.305 . S
C542 O540 1.234 . S
Zn543 O549 1.920 . S
Zn543 O555 1.898 . S
Zn543 O558 1.905 . S
Zn544 O552 1.905 . S
Zn544 O553 1.898 . S
Zn544 O561 1.920 . S
Zn545 O548 2.080 . S
Zn545 O551 2.114 . S
Zn545 O554 2.120 . S
Zn545 O556 2.120 . S
Zn545 O557 2.114 . S
Zn545 O560 2.080 . S
C546 O551 1.166 . S
C546 O552 1.182 . S
C547 O553 1.167 . S
C547 O554 1.299 . S
O548 Zn545 2.080 . S
O548 C562 1.305 . S
O549 Zn543 1.920 . S
O549 C562 1.234 . S
C550 O555 1.167 . S
C550 O556 1.299 . S
O551 Zn545 2.114 . S
O551 C546 1.166 . S
O552 Zn544 1.905 . S
O552 C546 1.182 . S
O553 Zn544 1.898 . S
O553 C547 1.167 . S
O554 Zn545 2.120 . S
O554 C547 1.299 . S
O555 Zn543 1.898 . S
O555 C550 1.167 . S
O556 Zn545 2.120 . S
O556 C550 1.299 . S
O557 Zn545 2.114 . S
O557 C559 1.166 . S
O558 Zn543 1.905 . S
O558 C559 1.182 . S
C559 O557 1.166 . S
C559 O558 1.182 . S
O560 Zn545 2.080 . S
O560 C563 1.305 . S
O561 Zn544 1.920 . S
O561 C563 1.234 . S
C562 O548 1.305 . S
C562 O549 1.234 . S
C563 O560 1.305 . S
C563 O561 1.234 . S
H564 C570 0.930 . S
H565 C573 0.930 . S
H566 C574 0.930 . S
H567 C575 0.930 . S
H568 C578 0.930 . S
H569 C579 0.930 . S
C570 H564 0.930 . S
C570 C571 1.355 . S
C570 C572 1.415 . S
C571 C570 1.355 . S
C571 C573 1.419 . S
C572 C570 1.415 . S
C572 C577 1.425 . S
C572 C579 1.409 . S
C573 H565 0.930 . S
C573 C571 1.419 . S
C573 C574 1.362 . S
C574 H566 0.930 . S
C574 C573 1.362 . S
C574 C577 1.409 . S
C575 H567 0.930 . S
C575 C576 1.355 . S
C575 C577 1.415 . S
C576 C575 1.355 . S
C576 C578 1.419 . S
C577 C572 1.425 . S
C577 C574 1.409 . S
C577 C575 1.415 . S
C578 H568 0.930 . S
C578 C576 1.419 . S
C578 C579 1.362 . S
C579 H569 0.930 . S
C579 C572 1.409 . S
C579 C578 1.362 . S
H580 C586 0.930 . S
H581 C589 0.930 . S
H582 C590 0.930 . S
H583 C591 0.930 . S
H584 C594 0.930 . S
H585 C595 0.930 . S
C586 H580 0.930 . S
C586 C587 1.355 . S
C586 C588 1.415 . S
C587 C586 1.355 . S
C587 C589 1.419 . S
C588 C586 1.415 . S
C588 C593 1.425 . S
C588 C595 1.409 . S
C589 H581 0.930 . S
C589 C587 1.419 . S
C589 C590 1.362 . S
C590 H582 0.930 . S
C590 C589 1.362 . S
C590 C593 1.409 . S
C591 H583 0.930 . S
C591 C592 1.355 . S
C591 C593 1.415 . S
C592 C591 1.355 . S
C592 C594 1.419 . S
C593 C588 1.425 . S
C593 C590 1.409 . S
C593 C591 1.415 . S
C594 H584 0.930 . S
C594 C592 1.419 . S
C594 C595 1.362 . S
C595 H585 0.930 . S
C595 C588 1.409 . S
C595 C594 1.362 . S
H596 C602 0.930 . S
H597 C605 0.930 . S
H598 C606 0.930 . S
H599 C607 0.930 . S
H600 C610 0.930 . S
H601 C611 0.930 . S
C602 H596 0.930 . S
C602 C603 1.355 . S
C602 C604 1.415 . S
C603 C602 1.355 . S
C603 C605 1.419 . S
C604 C602 1.415 . S
C604 C609 1.425 . S
C604 C611 1.409 . S
C605 H597 0.930 . S
C605 C603 1.419 . S
C605 C606 1.362 . S
C606 H598 0.930 . S
C606 C605 1.362 . S
C606 C609 1.409 . S
C607 H599 0.930 . S
C607 C608 1.355 . S
C607 C609 1.415 . S
C608 C607 1.355 . S
C608 C610 1.419 . S
C609 C604 1.425 . S
C609 C606 1.409 . S
C609 C607 1.415 . S
C610 H600 0.930 . S
C610 C608 1.419 . S
C610 C611 1.362 . S
C611 H601 0.930 . S
C611 C604 1.409 . S
C611 C610 1.362 . S
H612 C618 0.930 . S
H613 C621 0.930 . S
H614 C622 0.930 . S
H615 C623 0.930 . S
H616 C626 0.930 . S
H617 C627 0.930 . S
C618 H612 0.930 . S
C618 C619 1.355 . S
C618 C620 1.415 . S
C619 C618 1.355 . S
C619 C621 1.419 . S
C620 C618 1.415 . S
C620 C625 1.425 . S
C620 C627 1.409 . S
C621 H613 0.930 . S
C621 C619 1.419 . S
C621 C622 1.362 . S
C622 H614 0.930 . S
C622 C621 1.362 . S
C622 C625 1.409 . S
C623 H615 0.930 . S
C623 C624 1.355 . S
C623 C625 1.415 . S
C624 C623 1.355 . S
C624 C626 1.419 . S
C625 C620 1.425 . S
C625 C622 1.409 . S
C625 C623 1.415 . S
C626 H616 0.930 . S
C626 C624 1.419 . S
C626 C627 1.362 . S
C627 H617 0.930 . S
C627 C620 1.409 . S
C627 C626 1.362 . S
H628 C634 0.930 . S
H629 C637 0.930 . S
H630 C638 0.930 . S
H631 C639 0.930 . S
H632 C642 0.930 . S
H633 C643 0.930 . S
C634 H628 0.930 . S
C634 C635 1.355 . S
C634 C636 1.415 . S
C635 C634 1.355 . S
C635 C637 1.419 . S
C636 C634 1.415 . S
C636 C641 1.425 . S
C636 C643 1.409 . S
C637 H629 0.930 . S
C637 C635 1.419 . S
C637 C638 1.362 . S
C638 H630 0.930 . S
C638 C637 1.362 . S
C638 C641 1.409 . S
C639 H631 0.930 . S
C639 C640 1.355 . S
C639 C641 1.415 . S
C640 C639 1.355 . S
C640 C642 1.419 . S
C641 C636 1.425 . S
C641 C638 1.409 . S
C641 C639 1.415 . S
C642 H632 0.930 . S
C642 C640 1.419 . S
C642 C643 1.362 . S
C643 H633 0.930 . S
C643 C636 1.409 . S
C643 C642 1.362 . S
H644 C650 0.930 . S
H645 C653 0.930 . S
H646 C654 0.930 . S
H647 C655 0.930 . S
H648 C658 0.930 . S
H649 C659 0.930 . S
C650 H644 0.930 . S
C650 C651 1.355 . S
C650 C652 1.415 . S
C651 C650 1.355 . S
C651 C653 1.419 . S
C652 C650 1.415 . S
C652 C657 1.425 . S
C652 C659 1.409 . S
C653 H645 0.930 . S
C653 C651 1.419 . S
C653 C654 1.362 . S
C654 H646 0.930 . S
C654 C653 1.362 . S
C654 C657 1.409 . S
C655 H647 0.930 . S
C655 C656 1.355 . S
C655 C657 1.415 . S
C656 C655 1.355 . S
C656 C658 1.419 . S
C657 C652 1.425 . S
C657 C654 1.409 . S
C657 C655 1.415 . S
C658 H648 0.930 . S
C658 C656 1.419 . S
C658 C659 1.362 . S
C659 H649 0.930 . S
C659 C652 1.409 . S
C659 C658 1.362 . S
H660 C666 0.930 . S
H661 C669 0.930 . S
H662 C670 0.930 . S
H663 C671 0.930 . S
H664 C674 0.930 . S
H665 C675 0.930 . S
C666 H660 0.930 . S
C666 C667 1.355 . S
C666 C668 1.415 . S
C667 C666 1.355 . S
C667 C669 1.419 . S
C668 C666 1.415 . S
C668 C673 1.425 . S
C668 C675 1.409 . S
C669 H661 0.930 . S
C669 C667 1.419 . S
C669 C670 1.362 . S
C670 H662 0.930 . S
C670 C669 1.362 . S
C670 C673 1.409 . S
C671 H663 0.930 . S
C671 C672 1.355 . S
C671 C673 1.415 . S
C672 C671 1.355 . S
C672 C674 1.419 . S
C673 C668 1.425 . S
C673 C670 1.409 . S
C673 C671 1.415 . S
C674 H664 0.930 . S
C674 C672 1.419 . S
C674 C675 1.362 . S
C675 H665 0.930 . S
C675 C668 1.409 . S
C675 C674 1.362 . S
H676 C682 0.930 . S
H677 C685 0.930 . S
H678 C686 0.930 . S
H679 C687 0.930 . S
H680 C690 0.930 . S
H681 C691 0.930 . S
C682 H676 0.930 . S
C682 C683 1.355 . S
C682 C684 1.415 . S
C683 C682 1.355 . S
C683 C685 1.419 . S
C684 C682 1.415 . S
C684 C689 1.425 . S
C684 C691 1.409 . S
C685 H677 0.930 . S
C685 C683 1.419 . S
C685 C686 1.362 . S
C686 H678 0.930 . S
C686 C685 1.362 . S
C686 C689 1.409 . S
C687 H679 0.930 . S
C687 C688 1.355 . S
C687 C689 1.415 . S
C688 C687 1.355 . S
C688 C690 1.419 . S
C689 C684 1.425 . S
C689 C686 1.409 . S
C689 C687 1.415 . S
C690 H680 0.930 . S
C690 C688 1.419 . S
C690 C691 1.362 . S
C691 H681 0.930 . S
C691 C684 1.409 . S
C691 C690 1.362 . S
H692 C698 0.930 . S
H693 C701 0.930 . S
H694 C702 0.930 . S
H695 C703 0.930 . S
H696 C706 0.930 . S
H697 C707 0.930 . S
C698 H692 0.930 . S
C698 C699 1.355 . S
C698 C700 1.415 . S
C699 C698 1.355 . S
C699 C701 1.419 . S
C700 C698 1.415 . S
C700 C705 1.425 . S
C700 C707 1.409 . S
C701 H693 0.930 . S
C701 C699 1.419 . S
C701 C702 1.362 . S
C702 H694 0.930 . S
C702 C701 1.362 . S
C702 C705 1.409 . S
C703 H695 0.930 . S
C703 C704 1.355 . S
C703 C705 1.415 . S
C704 C703 1.355 . S
C704 C706 1.419 . S
C705 C700 1.425 . S
C705 C702 1.409 . S
C705 C703 1.415 . S
C706 H696 0.930 . S
C706 C704 1.419 . S
C706 C707 1.362 . S
C707 H697 0.930 . S
C707 C700 1.409 . S
C707 C706 1.362 . S
H708 C714 0.930 . S
H709 C717 0.930 . S
H710 C718 0.930 . S
H711 C719 0.930 . S
H712 C722 0.930 . S
H713 C723 0.930 . S
C714 H708 0.930 . S
C714 C715 1.355 . S
C714 C716 1.415 . S
C715 C714 1.355 . S
C715 C717 1.419 . S
C716 C714 1.415 . S
C716 C721 1.425 . S
C716 C723 1.409 . S
C717 H709 0.930 . S
C717 C715 1.419 . S
C717 C718 1.362 . S
C718 H710 0.930 . S
C718 C717 1.362 . S
C718 C721 1.409 . S
C719 H711 0.930 . S
C719 C720 1.355 . S
C719 C721 1.415 . S
C720 C719 1.355 . S
C720 C722 1.419 . S
C721 C716 1.425 . S
C721 C718 1.409 . S
C721 C719 1.415 . S
C722 H712 0.930 . S
C722 C720 1.419 . S
C722 C723 1.362 . S
C723 H713 0.930 . S
C723 C716 1.409 . S
C723 C722 1.362 . S
H724 C730 0.930 . S
H725 C733 0.930 . S
H726 C734 0.930 . S
H727 C735 0.930 . S
H728 C738 0.930 . S
H729 C739 0.930 . S
C730 H724 0.930 . S
C730 C731 1.355 . S
C730 C732 1.415 . S
C731 C730 1.355 . S
C731 C733 1.419 . S
C732 C730 1.415 . S
C732 C737 1.425 . S
C732 C739 1.409 . S
C733 H725 0.930 . S
C733 C731 1.419 . S
C733 C734 1.362 . S
C734 H726 0.930 . S
C734 C733 1.362 . S
C734 C737 1.409 . S
C735 H727 0.930 . S
C735 C736 1.355 . S
C735 C737 1.415 . S
C736 C735 1.355 . S
C736 C738 1.419 . S
C737 C732 1.425 . S
C737 C734 1.409 . S
C737 C735 1.415 . S
C738 H728 0.930 . S
C738 C736 1.419 . S
C738 C739 1.362 . S
C739 H729 0.930 . S
C739 C732 1.409 . S
C739 C738 1.362 . S
H740 C746 0.930 . S
H741 C749 0.930 . S
H742 C750 0.930 . S
H743 C751 0.930 . S
H744 C754 0.930 . S
H745 C755 0.930 . S
C746 H740 0.930 . S
C746 C747 1.355 . S
C746 C748 1.415 . S
C747 C746 1.355 . S
C747 C749 1.419 . S
C748 C746 1.415 . S
C748 C753 1.425 . S
C748 C755 1.409 . S
C749 H741 0.930 . S
C749 C747 1.419 . S
C749 C750 1.362 . S
C750 H742 0.930 . S
C750 C749 1.362 . S
C750 C753 1.409 . S
C751 H743 0.930 . S
C751 C752 1.355 . S
C751 C753 1.415 . S
C752 C751 1.355 . S
C752 C754 1.419 . S
C753 C748 1.425 . S
C753 C750 1.409 . S
C753 C751 1.415 . S
C754 H744 0.930 . S
C754 C752 1.419 . S
C754 C755 1.362 . S
C755 H745 0.930 . S
C755 C748 1.409 . S
C755 C754 1.362 . S
H756 C762 0.930 . S
H757 C765 0.930 . S
H758 C766 0.930 . S
H759 C767 0.930 . S
H760 C770 0.930 . S
H761 C771 0.930 . S
C762 H756 0.930 . S
C762 C763 1.355 . S
C762 C764 1.415 1_565 S
C763 C762 1.355 . S
C763 C765 1.419 . S
C764 C762 1.415 1_545 S
C764 C769 1.425 . S
C764 C771 1.409 . S
C765 H757 0.930 . S
C765 C763 1.419 . S
C765 C766 1.362 . S
C766 H758 0.930 . S
C766 C765 1.362 . S
C766 C769 1.409 1_565 S
C767 H759 0.930 . S
C767 C768 1.355 . S
C767 C769 1.415 . S
C768 C767 1.355 . S
C768 C770 1.419 . S
C769 C764 1.425 . S
C769 C766 1.409 1_545 S
C769 C767 1.415 . S
C770 H760 0.930 . S
C770 C768 1.419 . S
C770 C771 1.362 . S
C771 H761 0.930 . S
C771 C764 1.409 . S
C771 C770 1.362 . S
H772 C778 0.930 . S
H773 C781 0.930 . S
H774 C782 0.930 . S
H775 C783 0.930 . S
H776 C786 0.930 . S
H777 C787 0.930 . S
C778 H772 0.930 . S
C778 C779 1.355 . S
C778 C780 1.415 1_545 S
C779 C778 1.355 . S
C779 C781 1.419 . S
C780 C778 1.415 1_565 S
C780 C785 1.425 . S
C780 C787 1.409 . S
C781 H773 0.930 . S
C781 C779 1.419 . S
C781 C782 1.362 1_545 S
C782 H774 0.930 . S
C782 C781 1.362 1_565 S
C782 C785 1.409 . S
C783 H775 0.930 . S
C783 C784 1.355 . S
C783 C785 1.415 . S
C784 C783 1.355 . S
C784 C786 1.419 . S
C785 C780 1.425 . S
C785 C782 1.409 . S
C785 C783 1.415 . S
C786 H776 0.930 . S
C786 C784 1.419 . S
C786 C787 1.362 . S
C787 H777 0.930 . S
C787 C780 1.409 . S
C787 C786 1.362 . S
H788 C794 0.930 . S
H789 C797 0.930 . S
H790 C798 0.930 . S
H791 C799 0.930 . S
H792 C802 0.930 . S
H793 C803 0.930 . S
C794 H788 0.930 . S
C794 C795 1.355 . S
C794 C796 1.415 1_545 S
C795 C794 1.355 . S
C795 C797 1.419 . S
C796 C794 1.415 1_565 S
C796 C801 1.425 . S
C796 C803 1.409 . S
C797 H789 0.930 . S
C797 C795 1.419 . S
C797 C798 1.362 1_545 S
C798 H790 0.930 . S
C798 C797 1.362 1_565 S
C798 C801 1.409 . S
C799 H791 0.930 . S
C799 C800 1.355 . S
C799 C801 1.415 . S
C800 C799 1.355 . S
C800 C802 1.419 . S
C801 C796 1.425 . S
C801 C798 1.409 . S
C801 C799 1.415 . S
C802 H792 0.930 . S
C802 C800 1.419 . S
C802 C803 1.362 . S
C803 H793 0.930 . S
C803 C796 1.409 . S
C803 C802 1.362 . S
H804 C810 0.930 . S
H805 C813 0.930 . S
H806 C814 0.930 . S
H807 C815 0.930 . S
H808 C818 0.930 . S
H809 C819 0.930 . S
C810 H804 0.930 . S
C810 C811 1.355 . S
C810 C812 1.415 1_565 S
C811 C810 1.355 . S
C811 C813 1.419 . S
C812 C810 1.415 1_545 S
C812 C817 1.425 . S
C812 C819 1.409 . S
C813 H805 0.930 . S
C813 C811 1.419 . S
C813 C814 1.362 . S
C814 H806 0.930 . S
C814 C813 1.362 . S
C814 C817 1.409 1_565 S
C815 H807 0.930 . S
C815 C816 1.355 . S
C815 C817 1.415 . S
C816 C815 1.355 . S
C816 C818 1.419 . S
C817 C812 1.425 . S
C817 C814 1.409 1_545 S
C817 C815 1.415 . S
C818 H808 0.930 . S
C818 C816 1.419 . S
C818 C819 1.362 . S
C819 H809 0.930 . S
C819 C812 1.409 . S
C819 C818 1.362 . S
H820 C826 0.930 . S
H821 C829 0.930 . S
H822 C830 0.930 . S
H823 C831 0.930 . S
H824 C834 0.930 . S
H825 C835 0.930 . S
C826 H820 0.930 . S
C826 C827 1.355 . S
C826 C828 1.415 . S
C827 C826 1.355 . S
C827 C829 1.419 . S
C828 C826 1.415 . S
C828 C833 1.425 . S
C828 C835 1.409 . S
C829 H821 0.930 . S
C829 C827 1.419 . S
C829 C830 1.362 . S
C830 H822 0.930 . S
C830 C829 1.362 . S
C830 C833 1.409 . S
C831 H823 0.930 . S
C831 C832 1.355 . S
C831 C833 1.415 . S
C832 C831 1.355 . S
C832 C834 1.419 . S
C833 C828 1.425 . S
C833 C830 1.409 . S
C833 C831 1.415 . S
C834 H824 0.930 . S
C834 C832 1.419 . S
C834 C835 1.362 . S
C835 H825 0.930 . S
C835 C828 1.409 . S
C835 C834 1.362 . S
H836 C842 0.930 . S
H837 C845 0.930 . S
H838 C846 0.930 . S
H839 C847 0.930 . S
H840 C850 0.930 . S
H841 C851 0.930 . S
C842 H836 0.930 . S
C842 C843 1.355 . S
C842 C844 1.415 . S
C843 C842 1.355 . S
C843 C845 1.419 . S
C844 C842 1.415 . S
C844 C849 1.425 . S
C844 C851 1.409 . S
C845 H837 0.930 . S
C845 C843 1.419 . S
C845 C846 1.362 . S
C846 H838 0.930 . S
C846 C845 1.362 . S
C846 C849 1.409 . S
C847 H839 0.930 . S
C847 C848 1.355 . S
C847 C849 1.415 . S
C848 C847 1.355 . S
C848 C850 1.419 . S
C849 C844 1.425 . S
C849 C846 1.409 . S
C849 C847 1.415 . S
C850 H840 0.930 . S
C850 C848 1.419 . S
C850 C851 1.362 . S
C851 H841 0.930 . S
C851 C844 1.409 . S
C851 C850 1.362 . S
H852 C858 0.930 . S
H853 C861 0.930 . S
H854 C862 0.930 . S
H855 C863 0.930 . S
H856 C866 0.930 . S
H857 C867 0.930 . S
C858 H852 0.930 . S
C858 C859 1.355 . S
C858 C860 1.415 . S
C859 C858 1.355 . S
C859 C861 1.419 . S
C860 C858 1.415 . S
C860 C865 1.425 . S
C860 C867 1.409 . S
C861 H853 0.930 . S
C861 C859 1.419 . S
C861 C862 1.362 . S
C862 H854 0.930 . S
C862 C861 1.362 . S
C862 C865 1.409 . S
C863 H855 0.930 . S
C863 C864 1.355 . S
C863 C865 1.415 . S
C864 C863 1.355 . S
C864 C866 1.419 . S
C865 C860 1.425 . S
C865 C862 1.409 . S
C865 C863 1.415 . S
C866 H856 0.930 . S
C866 C864 1.419 . S
C866 C867 1.362 . S
C867 H857 0.930 . S
C867 C860 1.409 . S
C867 C866 1.362 . S
H868 C874 0.930 . S
H869 C877 0.930 . S
H870 C878 0.930 . S
H871 C879 0.930 . S
H872 C882 0.930 . S
H873 C883 0.930 . S
C874 H868 0.930 . S
C874 C875 1.355 . S
C874 C876 1.415 . S
C875 C874 1.355 . S
C875 C877 1.419 . S
C876 C874 1.415 . S
C876 C881 1.425 . S
C876 C883 1.409 . S
C877 H869 0.930 . S
C877 C875 1.419 . S
C877 C878 1.362 . S
C878 H870 0.930 . S
C878 C877 1.362 . S
C878 C881 1.409 . S
C879 H871 0.930 . S
C879 C880 1.355 . S
C879 C881 1.415 . S
C880 C879 1.355 . S
C880 C882 1.419 . S
C881 C876 1.425 . S
C881 C878 1.409 . S
C881 C879 1.415 . S
C882 H872 0.930 . S
C882 C880 1.419 . S
C882 C883 1.362 . S
C883 H873 0.930 . S
C883 C876 1.409 . S
C883 C882 1.362 . S
H884 C890 0.930 . S
H885 C893 0.930 . S
H886 C894 0.930 . S
H887 C895 0.930 . S
H888 C898 0.930 . S
H889 C899 0.930 . S
C890 H884 0.930 . S
C890 C891 1.355 . S
C890 C892 1.415 . S
C891 C890 1.355 . S
C891 C893 1.419 . S
C892 C890 1.415 . S
C892 C897 1.425 . S
C892 C899 1.409 . S
C893 H885 0.930 . S
C893 C891 1.419 . S
C893 C894 1.362 . S
C894 H886 0.930 . S
C894 C893 1.362 . S
C894 C897 1.409 . S
C895 H887 0.930 . S
C895 C896 1.355 . S
C895 C897 1.415 . S
C896 C895 1.355 . S
C896 C898 1.419 . S
C897 C892 1.425 . S
C897 C894 1.409 . S
C897 C895 1.415 . S
C898 H888 0.930 . S
C898 C896 1.419 . S
C898 C899 1.362 . S
C899 H889 0.930 . S
C899 C892 1.409 . S
C899 C898 1.362 . S
H900 C906 0.930 . S
H901 C909 0.930 . S
H902 C910 0.930 . S
H903 C911 0.930 . S
H904 C914 0.930 . S
H905 C915 0.930 . S
C906 H900 0.930 . S
C906 C907 1.355 . S
C906 C908 1.415 . S
C907 C906 1.355 . S
C907 C909 1.419 . S
C908 C906 1.415 . S
C908 C913 1.425 . S
C908 C915 1.409 . S
C909 H901 0.930 . S
C909 C907 1.419 . S
C909 C910 1.362 . S
C910 H902 0.930 . S
C910 C909 1.362 . S
C910 C913 1.409 . S
C911 H903 0.930 . S
C911 C912 1.355 . S
C911 C913 1.415 . S
C912 C911 1.355 . S
C912 C914 1.419 . S
C913 C908 1.425 . S
C913 C910 1.409 . S
C913 C911 1.415 . S
C914 H904 0.930 . S
C914 C912 1.419 . S
C914 C915 1.362 . S
C915 H905 0.930 . S
C915 C908 1.409 . S
C915 C914 1.362 . S
H916 C922 0.930 . S
H917 C925 0.930 . S
H918 C926 0.930 . S
H919 C927 0.930 . S
H920 C930 0.930 . S
H921 C931 0.930 . S
C922 H916 0.930 . S
C922 C923 1.355 . S
C922 C924 1.415 . S
C923 C922 1.355 . S
C923 C925 1.419 . S
C924 C922 1.415 . S
C924 C929 1.425 . S
C924 C931 1.409 . S
C925 H917 0.930 . S
C925 C923 1.419 . S
C925 C926 1.362 . S
C926 H918 0.930 . S
C926 C925 1.362 . S
C926 C929 1.409 . S
C927 H919 0.930 . S
C927 C928 1.355 . S
C927 C929 1.415 . S
C928 C927 1.355 . S
C928 C930 1.419 . S
C929 C924 1.425 . S
C929 C926 1.409 . S
C929 C927 1.415 . S
C930 H920 0.930 . S
C930 C928 1.419 . S
C930 C931 1.362 . S
C931 H921 0.930 . S
C931 C924 1.409 . S
C931 C930 1.362 . S
H932 C938 0.930 . S
H933 C941 0.930 . S
H934 C942 0.930 . S
H935 C943 0.930 . S
H936 C946 0.930 . S
H937 C947 0.930 . S
C938 H932 0.930 . S
C938 C939 1.355 . S
C938 C940 1.415 . S
C939 C938 1.355 . S
C939 C941 1.419 . S
C940 C938 1.415 . S
C940 C945 1.425 . S
C940 C947 1.409 . S
C941 H933 0.930 . S
C941 C939 1.419 . S
C941 C942 1.362 . S
C942 H934 0.930 . S
C942 C941 1.362 . S
C942 C945 1.409 . S
C943 H935 0.930 . S
C943 C944 1.355 . S
C943 C945 1.415 . S
C944 C943 1.355 . S
C944 C946 1.419 . S
C945 C940 1.425 . S
C945 C942 1.409 . S
C945 C943 1.415 . S
C946 H936 0.930 . S
C946 C944 1.419 . S
C946 C947 1.362 . S
C947 H937 0.930 . S
C947 C940 1.409 . S
C947 C946 1.362 . S
C576 C487 1.485 . S
C571 C31 1.660 . S
C592 C505 1.263 . S
C587 C91 1.418 . S
C603 C121 1.346 . S
C608 C529 1.343 . S
C624 C559 1.331 1_655 S
C619 C181 1.446 . S
C640 C547 1.339 . S
C635 C271 1.473 . S
C651 C301 1.324 . S
C656 C500 1.300 1_655 S
C667 C361 1.554 . S
C672 C520 1.467 . S
C683 C451 1.489 . S
C688 C525 1.341 . S
C699 C421 1.332 . S
C704 C541 1.273 . S
C715 C331 1.512 . S
C720 C496 1.362 . S
C736 C563 1.380 . S
C731 C211 1.437 . S
C752 C508 1.375 . S
C747 C61 1.407 . S
C763 C151 1.617 . S
C768 C526 1.460 . S
C779 C1 1.408 . S
C784 C484 1.323 . S
C800 C504 1.324 . S
C795 C391 1.467 . S
C816 C550 1.458 . S
C811 C241 1.598 . S
C832 C546 1.350 . S
C827 C20 1.452 1_556 S
C848 C499 1.350 . S
C843 C80 1.397 . S
C859 C140 1.477 . S
C864 C521 1.358 . S
C875 C200 1.477 . S
C880 C542 1.392 . S
C896 C483 1.288 . S
C891 C260 1.482 1_554 S
C907 C320 1.482 . S
C912 C517 1.385 . S
C928 C538 1.355 . S
C923 C380 1.511 . S
C944 C562 1.434 . S
C939 C440 1.433 . S
