# Generated by pormake.
# Topology zzz, (3,6)-cn, num edge types: 1
# Building blocks:
#     Node 0, Type 0, BuildingBlock: BETDIP_clean_linker_0, # of connection points: 3
#     Node 1, Type 0, BuildingBlock: BETDIP_clean_linker_0, # of connection points: 3
#     Node 2, Type 0, BuildingBlock: BETDIP_clean_linker_0, # of connection points: 3
#     Node 3, Type 0, BuildingBlock: BETDIP_clean_linker_0, # of connection points: 3
#     Node 4, Type 0, BuildingBlock: BETDIP_clean_linker_0, # of connection points: 3
#     Node 5, Type 0, BuildingBlock: BETDIP_clean_linker_0, # of connection points: 3
#     Node 6, Type 0, BuildingBlock: BETDIP_clean_linker_0, # of connection points: 3
#     Node 7, Type 0, BuildingBlock: BETDIP_clean_linker_0, # of connection points: 3
#     Node 8, Type 1, BuildingBlock: BETDEL_clean_sbu_0, # of connection points: 6
#     Node 9, Type 1, BuildingBlock: BETDEL_clean_sbu_0, # of connection points: 6
#     Node 10, Type 1, BuildingBlock: BETDEL_clean_sbu_0, # of connection points: 6
#     Node 11, Type 1, BuildingBlock: BETDEL_clean_sbu_0, # of connection points: 6
#     Edge 12, Type (0, 1), BuildingBlock: XUDNAN_clean_linker_2, # of connection points: 2
#     Edge 13, Type (0, 1), BuildingBlock: XUDNAN_clean_linker_2, # of connection points: 2
#     Edge 14, Type (0, 1), BuildingBlock: XUDNAN_clean_linker_2, # of connection points: 2
#     Edge 15, Type (0, 1), BuildingBlock: XUDNAN_clean_linker_2, # of connection points: 2
#     Edge 16, Type (0, 1), BuildingBlock: XUDNAN_clean_linker_2, # of connection points: 2
#     Edge 17, Type (0, 1), BuildingBlock: XUDNAN_clean_linker_2, # of connection points: 2
#     Edge 18, Type (0, 1), BuildingBlock: XUDNAN_clean_linker_2, # of connection points: 2
#     Edge 19, Type (0, 1), BuildingBlock: XUDNAN_clean_linker_2, # of connection points: 2
#     Edge 20, Type (0, 1), BuildingBlock: XUDNAN_clean_linker_2, # of connection points: 2
#     Edge 21, Type (0, 1), BuildingBlock: XUDNAN_clean_linker_2, # of connection points: 2
#     Edge 22, Type (0, 1), BuildingBlock: XUDNAN_clean_linker_2, # of connection points: 2
#     Edge 23, Type (0, 1), BuildingBlock: XUDNAN_clean_linker_2, # of connection points: 2
#     Edge 24, Type (0, 1), BuildingBlock: XUDNAN_clean_linker_2, # of connection points: 2
#     Edge 25, Type (0, 1), BuildingBlock: XUDNAN_clean_linker_2, # of connection points: 2
#     Edge 26, Type (0, 1), BuildingBlock: XUDNAN_clean_linker_2, # of connection points: 2
#     Edge 27, Type (0, 1), BuildingBlock: XUDNAN_clean_linker_2, # of connection points: 2
#     Edge 28, Type (0, 1), BuildingBlock: XUDNAN_clean_linker_2, # of connection points: 2
#     Edge 29, Type (0, 1), BuildingBlock: XUDNAN_clean_linker_2, # of connection points: 2
#     Edge 30, Type (0, 1), BuildingBlock: XUDNAN_clean_linker_2, # of connection points: 2
#     Edge 31, Type (0, 1), BuildingBlock: XUDNAN_clean_linker_2, # of connection points: 2
#     Edge 32, Type (0, 1), BuildingBlock: XUDNAN_clean_linker_2, # of connection points: 2
#     Edge 33, Type (0, 1), BuildingBlock: XUDNAN_clean_linker_2, # of connection points: 2
#     Edge 34, Type (0, 1), BuildingBlock: XUDNAN_clean_linker_2, # of connection points: 2
#     Edge 35, Type (0, 1), BuildingBlock: XUDNAN_clean_linker_2, # of connection points: 2
# Relax obj value: 0.157
# Max RMSD: 0.178
# Mean RMSD: 0.115
data_MOF--net-zzz--node1-BETDEL_clean_sbu_0--node2-BETDIP_clean_linker_0--edge1-XUDNAN_clean_linker_2
_symmetry_space_group_name_H-M    P1
_symmetry_Int_Tables_number       1
_symmetry_cell_setting            triclinic
loop_
_symmetry_equiv_pos_as_xyz
'x, y, z'
_cell_length_a     49.671167
_cell_length_b     50.62673
_cell_length_c     14.777358
_cell_angle_alpha  91.520558
_cell_angle_beta   88.068895
_cell_angle_gamma 94.978064
loop_
_atom_site_label
_atom_site_type_symbol
_atom_site_fract_x
_atom_site_fract_y
_atom_site_fract_z
_atom_type_partial_charge
H0 H 0.75842 0.53058 0.22921 0.0
H1 H 0.75371 0.4837 0.98078 0.0
H2 H 0.81902 0.47741 0.15805 0.0
H3 H 0.73707 0.52658 0.94662 0.0
C4 C 0.72067 0.52364 -0.00303 0.0
C5 C 0.76583 0.51517 0.18522 0.0
C6 C 0.79073 0.50511 0.20192 0.0
C7 C 0.7517 0.50678 0.10657 0.0
C8 C 0.76306 0.48875 0.04483 0.0
C9 C 0.78723 0.47804 0.06396 0.0
C10 C 0.79972 0.48498 0.14525 0.0
N11 N 0.72707 0.51767 0.08705 0.0
H12 H 0.98715 0.75726 0.2174 0.0
H13 H 0.026 0.76373 0.95237 0.0
H14 H 0.02751 0.83152 0.13267 0.0
H15 H 0.9726 0.73724 0.95765 0.0
C16 C 0.98354 0.72226 0.98835 0.0
C17 C 0.99973 0.76866 0.16855 0.0
C18 C 1.00712 0.7958 0.18589 0.0
C19 C 1.00735 0.75672 0.08514 0.0
C20 C 0.0216 0.7723 0.01865 0.0
C21 C 0.02923 0.79913 0.03686 0.0
C22 C 0.02276 0.81036 0.12115 0.0
N23 N 0.9991 0.72961 0.0655 0.0
H24 H 0.75558 0.99347 0.26215 0.0
H25 H 0.76466 0.98892 0.97089 0.0
H26 H 0.68577 0.97771 0.09783 0.0
H27 H 0.8024 0.95472 0.10576 0.0
C28 C 0.80954 0.97536 0.09528 0.0
C29 C 0.74675 0.98984 0.19649 0.0
C30 C 0.71843 0.98436 0.19002 0.0
C31 C 0.76362 0.99031 0.11715 0.0
C32 C 0.75197 0.98708 0.03191 0.0
C33 C 0.72395 0.98253 0.02554 0.0
C34 C 0.70756 0.98046 0.10413 0.0
N35 N 0.79217 0.99536 0.12136 0.0
H36 H 0.52454 0.75965 0.24707 0.0
H37 H 0.52091 0.76875 0.95805 0.0
H38 H 0.52407 0.69159 0.06601 0.0
H39 H 0.56166 0.80836 0.04131 0.0
C40 C 0.54125 0.81322 0.05929 0.0
C41 C 0.52437 0.75099 0.17925 0.0
C42 C 0.5238 0.72317 0.16627 0.0
C43 C 0.52452 0.76765 0.1036 0.0
C44 C 0.52269 0.75632 0.01577 0.0
C45 C 0.52226 0.72889 0.003 0.0
C46 C 0.5239 0.71282 0.07759 0.0
N47 N 0.52466 0.79562 0.11557 0.0
H48 H 0.26382 0.49538 0.92929 0.0
H49 H 0.2723 0.54362 0.17367 0.0
H50 H 0.20146 0.54495 0.0175 0.0
H51 H 0.32043 0.5483 0.09359 0.0
C52 C 0.31991 0.52689 0.09929 0.0
C53 C 0.25641 0.51026 0.97553 0.0
C54 C 0.23054 0.519 0.96485 0.0
C55 C 0.27237 0.52031 0.04827 0.0
C56 C 0.26155 0.53792 0.11265 0.0
C57 C 0.23597 0.54669 0.10105 0.0
C58 C 0.22147 0.5383 0.02492 0.0
N59 N 0.29802 0.51067 0.06147 0.0
H60 H 0.02993 0.26369 0.96357 0.0
H61 H 0.9706 0.25786 0.18488 0.0
H62 H 0.99071 0.1881 0.03727 0.0
H63 H 0.96524 0.29953 0.14873 0.0
C64 C 0.98589 0.30795 0.1373 0.0
C65 C 0.01542 0.25197 0.00568 0.0
C66 C 0.01211 0.22419 0.99295 0.0
C67 C 1.00019 0.26457 0.0741 0.0
C68 C 0.98162 0.2489 0.12949 0.0
C69 C 0.97772 0.22133 0.11537 0.0
C70 C 0.99307 0.20945 0.04719 0.0
N71 N 1.00475 0.29261 0.08925 0.0
H72 H 0.26052 0.03735 0.91168 0.0
H73 H 0.24954 0.98514 0.13905 0.0
H74 H 0.32812 1.00155 0.01331 0.0
H75 H 0.20595 0.97884 0.07757 0.0
C76 C 0.20311 0.99986 0.07586 0.0
C77 C 0.26864 0.02424 0.95859 0.0
C78 C 0.29641 0.02029 0.95386 0.0
C79 C 0.25145 0.01152 0.02551 0.0
C80 C 0.26236 0.99457 0.08649 0.0
C81 C 0.29002 0.99052 0.08203 0.0
C82 C 0.30659 1.00367 0.01588 0.0
N83 N 0.22384 0.0174 0.03504 0.0
H84 H 0.49079 0.25963 0.94995 0.0
H85 H 0.55424 0.26953 0.1435 0.0
H86 H 0.5429 0.33171 0.96193 0.0
H87 H 0.55286 0.22549 0.13511 0.0
C88 C 0.53155 0.2191 0.12884 0.0
C89 C 0.50841 0.27092 0.97668 0.0
C90 C 0.51602 0.29662 0.94544 0.0
C91 C 0.52324 0.26008 0.04444 0.0
C92 C 0.54445 0.27615 0.08495 0.0
C93 C 0.55177 0.30191 0.05476 0.0
C94 C 0.53828 0.31133 0.98234 0.0
N95 N 0.51502 0.2341 0.0762 0.0
Dy96 Dy 0.02373 1.00272 0.63808 0.0
C97 C 0.97015 0.05883 0.37352 0.0
C98 C 0.04196 0.96892 0.75818 0.0
Dy99 Dy 0.98643 0.02565 0.49986 0.0
O100 O 0.05607 0.97904 0.6901 0.0
O101 O 0.01857 0.97856 0.76319 0.0
O102 O 0.05949 0.02393 0.56889 0.0
O103 O 0.02629 0.00947 0.4913 0.0
C104 C 0.04921 0.02272 0.4889 0.0
C105 C 0.9585 0.01692 0.65847 0.0
O106 O 0.98233 0.98366 0.447 0.0
O107 O 1.00607 0.96635 0.56242 0.0
O108 O 0.95519 0.03905 0.40833 0.0
O109 O 0.99446 0.05876 0.40328 0.0
O110 O 0.9482 0.02631 0.58798 0.0
O111 O 0.98272 0.01312 0.63837 0.0
O112 O 0.02408 0.04405 0.69687 0.0
O113 O 1.00843 0.06124 0.56623 0.0
C114 C 0.99133 0.96339 0.48885 0.0
C115 C 0.0193 0.06447 0.64688 0.0
Dy116 Dy 0.48653 0.99324 0.5119 0.0
C117 C 0.57235 0.03543 0.73936 0.0
C118 C 0.43973 0.97216 0.43783 0.0
Dy119 Dy 0.5259 0.02526 0.64481 0.0
O120 O 0.46092 0.98169 0.39093 0.0
O121 O 0.44445 0.97398 0.52341 0.0
O122 O 0.52166 0.97127 0.45269 0.0
O123 O 0.52827 0.00945 0.50779 0.0
C124 C 0.53995 0.99005 0.47617 0.0
C125 C 0.47375 0.03179 0.67743 0.0
O126 O 0.52264 0.05626 0.54122 0.0
O127 O 0.4846 0.03572 0.47036 0.0
O128 O 0.54887 0.02662 0.77296 0.0
O129 O 0.56937 0.04115 0.65547 0.0
O130 O 0.49306 0.04882 0.70609 0.0
O131 O 0.48364 0.01094 0.64743 0.0
O132 O 0.4889 0.96274 0.61617 0.0
O133 O 0.52711 0.98242 0.6847 0.0
C134 C 0.50262 0.05647 0.48353 0.0
C135 C 0.50852 0.96224 0.674 0.0
Dy136 Dy 0.49531 0.52053 0.64813 0.0
C137 C 0.54362 0.46132 0.37751 0.0
C138 C 0.48066 0.55844 0.77034 0.0
Dy139 Dy 0.52573 0.49635 0.50438 0.0
O140 O 0.4665 0.54933 0.70255 0.0
O141 O 0.50155 0.5449 0.77553 0.0
O142 O 0.45698 0.49947 0.59886 0.0
O143 O 0.48693 0.51349 0.50339 0.0
C144 C 0.46399 0.50083 0.51355 0.0
C145 C 0.55731 0.51493 0.64048 0.0
O146 O 0.52226 0.53554 0.43969 0.0
O147 O 0.5183 0.55514 0.5801 0.0
O148 O 0.55661 0.48379 0.39953 0.0
O149 O 0.52054 0.4588 0.42122 0.0
O150 O 0.56465 0.5157 0.55561 0.0
O151 O 0.53401 0.50298 0.64897 0.0
O152 O 0.49092 0.481 0.71143 0.0
O153 O 0.5073 0.46073 0.58146 0.0
C154 C 0.5231 0.55712 0.49227 0.0
C155 C 0.4959 0.45936 0.66393 0.0
Dy156 Dy 0.99845 0.50293 0.66889 0.0
C157 C 0.06052 0.54668 0.36138 0.0
C158 C 0.96442 0.49588 0.81552 0.0
Dy159 Dy 0.0242 0.53124 0.49622 0.0
O160 O 0.98208 0.47951 0.78889 0.0
O161 O 0.96726 0.51689 0.76635 0.0
O162 O 0.99244 0.4611 0.61048 0.0
O163 O 1.0093 0.49173 0.53167 0.0
C164 C 1.00229 0.46726 0.53063 0.0
C165 C 1.00669 0.56295 0.62878 0.0
O166 O 0.98168 0.52379 0.44897 0.0
O167 O 0.96363 0.51654 0.59456 0.0
O168 O 0.04966 0.56252 0.41959 0.0
O169 O 0.0501 0.52253 0.37347 0.0
O170 O 1.00549 0.56786 0.54323 0.0
O171 O 0.01853 0.54215 0.6401 0.0
O172 O 0.0416 0.50411 0.70885 0.0
O173 O 0.05989 0.51867 0.56949 0.0
C174 C 0.96072 0.52102 0.50751 0.0
C175 C 0.06254 0.50958 0.65198 0.0
H176 H 0.16099 0.96952 0.15233 0.0
H177 H 0.18967 0.05142 0.1041 0.0
H178 H 0.14998 0.06619 0.19124 0.0
H179 H 0.08789 0.97786 0.1409 0.0
H180 H 0.07909 0.95473 0.23001 0.0
H181 H 0.10833 0.95072 0.15698 0.0
H182 H 0.13839 0.95128 0.29711 0.0
H183 H 0.10925 0.95519 0.37024 0.0
H184 H 0.13845 0.97884 0.37697 0.0
H185 H 0.10986 0.07192 0.29921 0.0
H186 H 0.0726 0.068 0.41542 0.0
H187 H 0.06874 0.98247 0.38729 0.0
C188 C 0.15862 0.99057 0.15871 0.0
C189 C 0.17834 0.00932 0.12098 0.0
C190 C 0.17476 0.03668 0.13179 0.0
C191 C 0.15224 0.04524 0.18118 0.0
C192 C 0.13331 0.0262 0.21857 0.0
C193 C 0.13619 0.99939 0.20721 0.0
C194 C 0.1139 0.98295 0.25823 0.0
C195 C 0.09625 0.96554 0.19259 0.0
C196 C 0.12571 0.96608 0.32988 0.0
C197 C 0.09832 1.00465 0.30198 0.0
C198 C 0.10977 0.02949 0.27805 0.0
C199 C 0.10036 0.05259 0.31652 0.0
C200 C 0.07914 0.05022 0.38211 0.0
C201 C 0.06729 0.02501 0.40758 0.0
C202 C 0.07675 1.00199 0.366 0.0
H203 H 0.55819 0.19149 0.24662 0.0
H204 H 0.48106 0.19154 0.11782 0.0
H205 H 0.46472 0.15039 0.19732 0.0
H206 H 0.56276 0.12145 0.23814 0.0
H207 H 0.57783 0.12062 0.34718 0.0
H208 H 0.58304 0.15005 0.28084 0.0
H209 H 0.56438 0.17784 0.41489 0.0
H210 H 0.55908 0.14847 0.48162 0.0
H211 H 0.53134 0.16826 0.46377 0.0
H212 H 0.45765 0.10806 0.28831 0.0
H213 H 0.45992 0.06916 0.38451 0.0
H214 H 0.54142 0.09796 0.45688 0.0
C215 C 0.53783 0.18284 0.23526 0.0
C216 C 0.5209 0.19463 0.17593 0.0
C217 C 0.49437 0.18284 0.16297 0.0
C218 C 0.48494 0.15947 0.20788 0.0
C219 C 0.50223 0.14832 0.26597 0.0
C220 C 0.52808 0.15974 0.28002 0.0
C221 C 0.54272 0.14398 0.34575 0.0
C222 C 0.56808 0.1334 0.30023 0.0
C223 C 0.54979 0.16063 0.43159 0.0
C224 C 0.5212 0.12168 0.36605 0.0
C225 C 0.49799 0.12447 0.31935 0.0
C226 C 0.47568 0.10582 0.32552 0.0
C227 C 0.47719 0.08374 0.38032 0.0
C228 C 0.50079 0.08048 0.42884 0.0
C229 C 0.52295 0.09993 0.42169 0.0
H230 H 0.36804 0.55216 0.14791 0.0
H231 H 0.31974 0.47688 0.16834 0.0
H232 H 0.35364 0.46059 0.26731 0.0
H233 H 0.43492 0.52442 0.14621 0.0
H234 H 0.44995 0.55203 0.21198 0.0
H235 H 0.42298 0.55684 0.13717 0.0
H236 H 0.39579 0.57653 0.27128 0.0
H237 H 0.42243 0.57145 0.3468 0.0
H238 H 0.38851 0.55733 0.37158 0.0
H239 H 0.38962 0.45492 0.38025 0.0
H240 H 0.42702 0.45888 0.48801 0.0
H241 H 0.45415 0.53623 0.38435 0.0
C242 C 0.36492 0.53206 0.17186 0.0
C243 C 0.34135 0.51572 0.15026 0.0
C244 C 0.33776 0.48964 0.18337 0.0
C245 C 0.3569 0.48025 0.23977 0.0
C246 C 0.37974 0.49702 0.261 0.0
C247 C 0.38407 0.52224 0.22681 0.0
C248 C 0.40983 0.53662 0.2623 0.0
C249 C 0.43065 0.54283 0.18478 0.0
C250 C 0.40376 0.56197 0.31618 0.0
C251 C 0.41897 0.51582 0.32368 0.0
C252 C 0.40126 0.49316 0.32232 0.0
C253 C 0.40399 0.47226 0.38007 0.0
C254 C 0.42522 0.47465 0.44102 0.0
C255 C 0.44371 0.49751 0.44254 0.0
C256 C 0.44075 0.51817 0.38225 0.0
H257 H 0.95892 0.3314 0.27397 0.0
H258 H 0.03025 0.34362 0.09831 0.0
H259 H 0.04129 0.3877 0.17289 0.0
H260 H 0.94081 0.3988 0.28765 0.0
H261 H 0.93057 0.39694 0.40564 0.0
H262 H 0.92783 0.3675 0.33422 0.0
H263 H 0.95701 0.34385 0.44395 0.0
H264 H 0.95967 0.37313 0.51593 0.0
H265 H 0.98984 0.35912 0.47289 0.0
H266 H 0.04349 0.43166 0.26947 0.0
H267 H 0.03949 0.46739 0.38702 0.0
H268 H 0.96856 0.42338 0.50299 0.0
C269 C 0.97679 0.34344 0.25074 0.0
C270 C 0.99361 0.33428 0.18002 0.0
C271 C 0.01706 0.35034 0.15238 0.0
C272 C 0.02338 0.37543 0.19413 0.0
C273 C 1.00623 0.38391 0.26403 0.0
C274 C 0.9836 0.36809 0.29264 0.0
C275 C 0.96921 0.3806 0.37246 0.0
C276 C 0.9404 0.3863 0.34851 0.0
C277 C 0.96894 0.36314 0.45624 0.0
C278 C 0.98718 0.406 0.38495 0.0
C279 C 1.00822 0.40797 0.32113 0.0
C280 C 0.02711 0.43015 0.31974 0.0
C281 C 0.02464 0.45044 0.38622 0.0
C282 C 1.00376 0.44805 0.45381 0.0
C283 C 0.9848 0.42565 0.45222 0.0
H284 H 0.82713 0.01686 0.98398 0.0
H285 H 0.85242 0.94604 0.10244 0.0
H286 H 0.8961 0.95191 0.01672 0.0
H287 H 0.85235 1.00299 0.76644 0.0
H288 H 0.86276 0.03687 0.7385 0.0
H289 H 0.83557 0.02975 0.82005 0.0
H290 H 0.86089 0.06032 0.93868 0.0
H291 H 0.88819 0.06758 0.85724 0.0
H292 H 0.89499 0.05461 0.96578 0.0
H293 H 0.93589 0.9636 0.90873 0.0
H294 H 0.96632 0.97817 0.77976 0.0
H295 H 0.91402 0.03957 0.72464 0.0
C296 C 0.84225 1.00312 0.99393 0.0
C297 C 0.83672 0.98133 0.05154 0.0
C298 C 0.8565 0.9631 0.05979 0.0
C299 C 0.88137 0.9663 0.01144 0.0
C300 C 0.88612 0.9877 0.95385 0.0
C301 C 0.86703 1.00574 0.94449 0.0
C302 C 0.87588 0.02525 0.8708 0.0
C303 C 0.85543 0.0236 0.79445 0.0
C304 C 0.88025 0.05362 0.91052 0.0
C305 C 0.90252 0.01499 0.83885 0.0
C306 C 0.90841 0.9937 0.88891 0.0
C307 C 0.9316 0.98047 0.86984 0.0
C308 C 0.94893 0.98897 0.79689 0.0
C309 C 0.94275 0.01018 0.74308 0.0
C310 C 0.91938 0.02343 0.76524 0.0
H311 H 0.57038 0.85447 0.97711 0.0
H312 H 0.4881 0.82216 0.03564 0.0
H313 H 0.471 0.85706 0.94443 0.0
H314 H 0.5554 0.92461 0.98707 0.0
H315 H 0.57952 0.93385 0.89715 0.0
H316 H 0.58522 0.90696 0.96971 0.0
H317 H 0.58929 0.87575 0.82912 0.0
H318 H 0.58348 0.9025 0.75628 0.0
H319 H 0.56213 0.87186 0.75061 0.0
H320 H 0.46318 0.89299 0.8358 0.0
H321 H 0.46463 0.9305 0.73191 0.0
H322 H 0.55188 0.94131 0.7501 0.0
C323 C 0.54874 0.85504 0.9717 0.0
C324 C 0.53053 0.83569 0.0136 0.0
C325 C 0.50239 0.83692 0.00488 0.0
C326 C 0.49252 0.85659 0.9528 0.0
C327 C 0.51104 0.87513 0.9111 0.0
C328 C 0.53855 0.87485 0.92135 0.0
C329 C 0.55412 0.89713 0.86966 0.0
C330 C 0.56947 0.9168 0.93479 0.0
C331 C 0.57339 0.88614 0.79711 0.0
C332 C 0.5311 0.90962 0.82697 0.0
C333 C 0.50644 0.89651 0.85137 0.0
C334 C 0.48234 0.9036 0.81725 0.0
C335 C 0.4834 0.92483 0.75769 0.0
C336 C 0.50835 0.93902 0.73339 0.0
C337 C 0.53248 0.9312 0.76862 0.0
H338 H 0.70555 0.53594 0.83056 0.0
H339 H 0.67245 0.51204 0.09385 0.0
H340 H 0.62612 0.51011 0.03465 0.0
H341 H 0.65147 0.57684 0.77269 0.0
H342 H 0.65296 0.56671 0.65491 0.0
H343 H 0.68294 0.56806 0.72081 0.0
H344 H 0.6888 0.51888 0.67761 0.0
H345 H 0.65887 0.51736 0.61183 0.0
H346 H 0.66136 0.49402 0.70052 0.0
H347 H 0.58325 0.50786 0.94056 0.0
H348 H 0.54872 0.50559 0.82235 0.0
H349 H 0.61081 0.53158 0.6232 0.0
C350 C 0.68851 0.5307 0.87618 0.0
C351 C 0.69254 0.52429 0.9668 0.0
C352 C 0.66981 0.51722 0.02429 0.0
C353 C 0.64343 0.51607 0.99116 0.0
C354 C 0.6402 0.52222 0.90071 0.0
C355 C 0.66222 0.52956 0.84437 0.0
C356 C 0.65371 0.53411 0.74904 0.0
C357 C 0.66068 0.56316 0.72286 0.0
C358 C 0.66644 0.51495 0.68077 0.0
C359 C 0.62348 0.52771 0.75958 0.0
C360 C 0.61591 0.52104 0.84752 0.0
C361 C 0.58901 0.5133 0.87181 0.0
C362 C 0.56952 0.51207 0.80433 0.0
C363 C 0.57708 0.51845 0.71372 0.0
C364 C 0.60436 0.52673 0.69195 0.0
H365 H 0.01962 0.68332 0.98515 0.0
H366 H 0.94006 0.69997 0.90251 0.0
H367 H 0.93472 0.65656 0.82239 0.0
H368 H 0.03922 0.65611 0.77827 0.0
H369 H 0.05838 0.63092 0.82222 0.0
H370 H 0.05416 0.66081 0.88769 0.0
H371 H 0.03401 0.63293 0.02207 0.0
H372 H 0.03816 0.60288 0.95671 0.0
H373 H 1.0054 0.60911 0.00467 0.0
H374 H 0.94004 0.61522 0.73446 0.0
H375 H 0.95655 0.57905 0.63832 0.0
H376 H 0.03296 0.58768 0.77338 0.0
C377 C 1.00075 0.6773 0.9528 0.0
C378 C 0.97994 0.69469 0.95147 0.0
C379 C 0.95602 0.68674 0.90526 0.0
C380 C 0.95278 0.66208 0.85985 0.0
C381 C 0.97378 0.64555 0.8605 0.0
C382 C 0.99737 0.65275 0.90555 0.0
C383 C 0.01802 0.63265 0.88579 0.0
C384 C 0.04396 0.64592 0.8408 0.0
C385 C 0.02426 0.61855 0.97249 0.0
C386 C 1.00269 0.61366 0.82025 0.0
C387 C 0.97701 0.62133 0.80815 0.0
C388 C 0.95983 0.60865 0.74484 0.0
C389 C 0.96934 0.58812 0.69059 0.0
C390 C 0.99568 0.58025 0.70021 0.0
C391 C 0.01236 0.59273 0.76732 0.0
H392 H 0.94563 0.17669 0.06937 0.0
H393 H 0.97257 0.22517 0.30055 0.0
H394 H 0.95915 0.18809 0.40065 0.0
H395 H 0.89411 0.12631 0.19575 0.0
H396 H 0.90615 0.09973 0.12617 0.0
H397 H 0.90473 0.13214 0.0796 0.0
H398 H 0.95542 0.13263 0.03244 0.0
H399 H 0.95724 0.10075 0.08042 0.0
H400 H 0.97975 0.12846 0.11775 0.0
H401 H 0.95794 0.14459 0.46652 0.0
H402 H 0.96843 0.09891 0.49356 0.0
H403 H 0.94864 0.07593 0.21788 0.0
C404 C 0.94758 0.17979 0.14171 0.0
C405 C 0.96045 0.20373 0.17697 0.0
C406 C 0.96251 0.20722 0.27176 0.0
C407 C 0.95502 0.18607 0.32926 0.0
C408 C 0.94561 0.16163 0.29087 0.0
C409 C 0.94153 0.15842 0.19898 0.0
C410 C 0.93804 0.12925 0.17094 0.0
C411 C 0.90902 0.1214 0.14141 0.0
C412 C 0.95886 0.12239 0.09605 0.0
C413 C 0.94341 0.11661 0.25949 0.0
C414 C 0.94642 0.13563 0.32858 0.0
C415 C 0.95483 0.12949 0.41379 0.0
C416 C 0.961 0.10359 0.42824 0.0
C417 C 0.95919 0.0842 0.3576 0.0
C418 C 0.94956 0.09046 0.27303 0.0
H419 H 0.33313 0.96042 0.05609 0.0
H420 H 0.27735 0.98696 0.26484 0.0
H421 H 0.30703 0.97324 0.38147 0.0
H422 H 0.36729 0.90956 0.18686 0.0
H423 H 0.39982 0.92162 0.13947 0.0
H424 H 0.36993 0.92233 0.07389 0.0
H425 H 0.38129 0.97264 0.05082 0.0
H426 H 0.4108 0.97231 0.1173 0.0
H427 H 0.38541 0.99455 0.14846 0.0
H428 H 0.34643 0.96656 0.47405 0.0
H429 H 0.39233 0.97098 0.53369 0.0
H430 H 0.42616 0.9583 0.26337 0.0
C431 C 0.32673 0.9628 0.12636 0.0
C432 C 0.30294 0.97513 0.15082 0.0
C433 C 0.29517 0.97726 0.24363 0.0
C434 C 0.31207 0.96961 0.31067 0.0
C435 C 0.33678 0.96019 0.28388 0.0
C436 C 0.34413 0.95685 0.19358 0.0
C437 C 0.37396 0.9529 0.18122 0.0
C438 C 0.37798 0.92493 0.14313 0.0
C439 C 0.38871 0.97438 0.121 0.0
C440 C 0.3826 0.956 0.2783 0.0
C441 C 0.36062 0.95893 0.33677 0.0
C442 C 0.36368 0.96384 0.42912 0.0
C443 C 0.38985 0.96642 0.46226 0.0
C444 C 0.41265 0.96503 0.40274 0.0
C445 C 0.40897 0.95923 0.31004 0.0
H446 H 0.54358 0.31242 0.2325 0.0
H447 H 0.59333 0.3377 -0.00047 0.0
H448 H 0.60439 0.38121 0.07472 0.0
H449 H 0.51138 0.36302 0.25633 0.0
H450 H 0.50903 0.36699 0.37778 0.0
H451 H 0.5136 0.33502 0.32792 0.0
H452 H 0.55618 0.3315 0.41818 0.0
H453 H 0.55336 0.36377 0.47067 0.0
H454 H 0.584 0.35676 0.41016 0.0
H455 H 0.59951 0.42499 0.1548 0.0
H456 H 0.58164 0.46345 0.23764 0.0
H457 H 0.53265 0.40954 0.41132 0.0
C458 C 0.55837 0.32642 0.20029 0.0
C459 C 0.56782 0.32171 0.11089 0.0
C460 C 0.58621 0.3409 0.06873 0.0
C461 C 0.5925 0.36571 0.11089 0.0
C462 C 0.58058 0.37077 0.19565 0.0
C463 C 0.56447 0.35133 0.24113 0.0
C464 C 0.55019 0.3628 0.32323 0.0
C465 C 0.51925 0.35659 0.32102 0.0
C466 C 0.56159 0.35311 0.41072 0.0
C467 C 0.5583 0.39194 0.31096 0.0
C468 C 0.57676 0.39621 0.23969 0.0
C469 C 0.58553 0.42182 0.21203 0.0
C470 C 0.57514 0.4435 0.25856 0.0
C471 C 0.55554 0.43922 0.32931 0.0
C472 C 0.54741 0.41321 0.35642 0.0
H473 H 0.21115 0.51952 0.2351 0.0
H474 H 0.22175 0.5975 0.12065 0.0
H475 H 0.17776 0.60803 0.18948 0.0
H476 H 0.15018 0.50701 0.16607 0.0
H477 H 0.13519 0.48794 0.25889 0.0
H478 H 0.17099 0.48908 0.23588 0.0
H479 H 0.18197 0.50715 0.39707 0.0
H480 H 0.14619 0.50374 0.42349 0.0
H481 H 0.16545 0.53515 0.44266 0.0
H482 H 0.12884 0.60646 0.24491 0.0
H483 H 0.081 0.59404 0.29156 0.0
H484 H 0.1011 0.51449 0.34546 0.0
C485 C 0.20512 0.53951 0.231 0.0
C486 C 0.22009 0.55807 0.1757 0.0
C487 C 0.21095 0.5835 0.16593 0.0
C488 C 0.18577 0.58941 0.20357 0.0
C489 C 0.17008 0.56954 0.24969 0.0
C490 C 0.17964 0.54518 0.26469 0.0
C491 C 0.15738 0.52547 0.30007 0.0
C492 C 0.1532 0.50095 0.23641 0.0
C493 C 0.16309 0.51743 0.3966 0.0
C494 C 0.13363 0.54212 0.29939 0.0
C495 C 0.14136 0.56768 0.27246 0.0
C496 C 0.12264 0.58654 0.26659 0.0
C497 C 0.09553 0.57928 0.29189 0.0
C498 C 0.08742 0.55319 0.31951 0.0
C499 C 0.10666 0.53437 0.322 0.0
H500 H 0.99727 0.82624 0.94021 0.0
H501 H 0.08123 0.81608 0.98538 0.0
H502 H 0.09481 0.85822 0.90722 0.0
H503 H 1.00613 0.86349 0.72158 0.0
H504 H 0.98016 0.88454 0.75774 0.0
H505 H 0.97826 0.85065 0.79346 0.0
H506 H 0.97481 0.86727 0.96055 0.0
H507 H 0.97773 0.90121 0.92621 0.0
H508 H 1.00125 0.89024 0.00449 0.0
H509 H 0.09813 0.90459 0.83999 0.0
H510 H 0.09087 0.94982 0.78919 0.0
H511 H 1.00422 0.93052 0.81085 0.0
C512 C 0.01857 0.83217 0.92853 0.0
C513 C 0.03835 0.81764 0.96499 0.0
C514 C 0.06599 0.82659 0.95431 0.0
C515 C 0.07377 0.85059 0.91099 0.0
C516 C 0.05355 0.86537 0.88047 0.0
C517 C 0.02648 0.8563 0.88825 0.0
C518 C 1.00835 0.87726 0.86335 0.0
C519 C 0.99228 0.86847 0.779 0.0
C520 C 0.98944 0.8844 0.94343 0.0
C521 C 0.0293 0.89985 0.8428 0.0
C522 C 0.05529 0.89259 0.85073 0.0
C523 C 0.07785 0.91042 0.83364 0.0
C524 C 0.07359 0.93607 0.80584 0.0
C525 C 0.04704 0.94369 0.79854 0.0
C526 C 0.02475 0.92541 0.81827 0.0
H527 H 0.71756 0.0263 0.93168 0.0
H528 H 0.69687 0.94161 0.93694 0.0
H529 H 0.65855 0.94627 0.83867 0.0
H530 H 0.65781 0.04433 0.96755 0.0
H531 H 0.65799 0.07221 0.89407 0.0
H532 H 0.68927 0.06257 0.93457 0.0
H533 H 0.70854 0.05704 0.77106 0.0
H534 H 0.67774 0.0679 0.72922 0.0
H535 H 0.68937 0.03675 0.6897 0.0
H536 H 0.61654 0.96075 0.78656 0.0
H537 H 0.57632 0.98362 0.75535 0.0
H538 H 0.62294 0.05974 0.77731 0.0
C539 C 0.70611 1.00866 0.90605 0.0
C540 C 0.71036 0.98352 0.93919 0.0
C541 C 0.69424 0.96082 0.90953 0.0
C542 C 0.67235 0.96338 0.85437 0.0
C543 C 0.66717 0.98874 0.82902 0.0
C544 C 0.68406 0.011 0.85113 0.0
C545 C 0.67158 0.03623 0.82763 0.0
C546 C 0.66902 0.0549 0.91095 0.0
C547 C 0.68777 0.05031 0.74975 0.0
C548 C 0.64412 0.02476 0.79702 0.0
C549 C 0.6423 0.99731 0.79707 0.0
C550 C 0.61803 0.98216 0.7831 0.0
C551 C 0.5952 0.99532 0.76698 0.0
C552 C 0.59667 0.0233 0.76464 0.0
C553 C 0.62148 0.03829 0.77851 0.0
H554 H 0.5536 0.69662 0.90855 0.0
H555 H 0.47543 0.72801 0.91371 0.0
H556 H 0.45607 0.68751 0.83528 0.0
H557 H 0.54431 0.64971 0.69526 0.0
H558 H 0.56171 0.62537 0.75165 0.0
H559 H 0.57138 0.66022 0.76986 0.0
H560 H 0.56464 0.65327 0.9424 0.0
H561 H 0.55314 0.61898 0.92571 0.0
H562 H 0.53191 0.64083 0.98728 0.0
H563 H 0.44287 0.63948 0.79611 0.0
H564 H 0.43881 0.59042 0.77727 0.0
H565 H 0.52462 0.58975 0.82091 0.0
C566 C 0.53299 0.69572 0.88617 0.0
C567 C 0.516 0.71527 0.91605 0.0
C568 C 0.48881 0.71337 0.88957 0.0
C569 C 0.47757 0.69019 0.84631 0.0
C570 C 0.494 0.66949 0.82954 0.0
C571 C 0.52141 0.67235 0.84635 0.0
C572 C 0.53358 0.64597 0.83996 0.0
C573 C 0.55394 0.64528 0.75937 0.0
C574 C 0.54655 0.63941 0.92913 0.0
C575 C 0.50856 0.62771 0.82297 0.0
C576 C 0.48604 0.64154 0.81452 0.0
C577 C 0.46049 0.62851 0.80124 0.0
C578 C 0.45824 0.6007 0.79234 0.0
C579 C 0.48127 0.5864 0.79972 0.0
C580 C 0.50653 0.60013 0.817 0.0
H581 H 0.8095 0.50551 0.92591 0.0
H582 H 0.80757 0.42945 0.05313 0.0
H583 H 0.85398 0.42413 0.994 0.0
H584 H 0.8594 0.49287 0.72792 0.0
H585 H 0.87451 0.52632 0.74271 0.0
H586 H 0.83884 0.51892 0.76578 0.0
H587 H 0.84565 0.54047 0.92552 0.0
H588 H 0.88153 0.54606 0.9054 0.0
H589 H 0.86846 0.52698 0.00083 0.0
H590 H 0.90379 0.43203 0.95036 0.0
H591 H 0.95034 0.44942 0.90427 0.0
H592 H 0.91969 0.52279 0.82512 0.0
C593 C 0.81806 0.48682 0.93494 0.0
C594 C 0.8049 0.46762 0.9921 0.0
C595 C 0.81716 0.44396 0.00709 0.0
C596 C 0.84371 0.44107 0.9752 0.0
C597 C 0.85743 0.46199 0.92842 0.0
C598 C 0.84476 0.48416 0.90641 0.0
C599 C 0.86477 0.50576 0.86962 0.0
C600 C 0.85904 0.51127 0.77061 0.0
C601 C 0.8651 0.53129 0.92892 0.0
C602 C 0.89072 0.49266 0.87682 0.0
C603 C 0.8862 0.46732 0.90964 0.0
C604 C 0.90748 0.45173 0.92344 0.0
C605 C 0.93386 0.46189 0.89854 0.0
C606 C 0.93858 0.4875 0.8621 0.0
C607 C 0.91677 0.50324 0.85379 0.0
H608 H 0.03874 0.18027 0.01579 0.0
H609 H 0.01581 0.23271 0.81045 0.0
H610 H 0.02399 0.19845 0.69266 0.0
H611 H 0.08731 0.14047 0.86977 0.0
H612 H 0.07449 0.11039 0.92488 0.0
H613 H 0.07621 0.14159 0.98712 0.0
H614 H 0.02526 0.13342 0.0294 0.0
H615 H 0.02308 0.10265 0.96581 0.0
H616 H 1.00127 0.12794 0.94043 0.0
H617 H 0.02386 0.15579 0.60443 0.0
H618 H 0.01729 0.10953 0.55058 0.0
H619 H 0.03617 0.08282 0.81618 0.0
C620 C 0.0369 0.18503 0.94535 0.0
C621 C 0.02689 0.20924 0.92196 0.0
C622 C 0.02401 0.21459 0.82962 0.0
C623 C 0.02838 0.19508 0.76244 0.0
C624 C 0.03574 0.17043 0.78891 0.0
C625 C 0.04039 0.16549 0.87827 0.0
C626 C 0.04328 0.13622 0.89187 0.0
C627 C 0.07204 0.13192 0.92005 0.0
C628 C 0.02195 0.12438 0.96093 0.0
C629 C 0.03806 0.12516 0.79727 0.0
C630 C 0.03447 0.14533 0.73853 0.0
C631 C 0.02718 0.13995 0.64946 0.0
C632 C 0.02325 0.11343 0.6198 0.0
C633 C 0.02612 0.0923 0.67919 0.0
C634 C 0.03412 0.0984 0.76877 0.0
H635 H 0.34305 0.05046 0.98636 0.0
H636 H 0.29558 0.014 0.76912 0.0
H637 H 0.33585 0.01894 0.66529 0.0
H638 H 0.39268 0.09522 0.84565 0.0
H639 H 0.41996 0.08837 0.9165 0.0
H640 H 0.38613 0.08898 0.96425 0.0
H641 H 0.38888 0.04163 0.02379 0.0
H642 H 0.42232 0.04052 0.9745 0.0
H643 H 0.39611 0.0152 0.94498 0.0
H644 H 0.38336 0.02016 0.59427 0.0
H645 H 0.43253 0.01937 0.5616 0.0
H646 H 0.4492 0.05142 0.83003 0.0
C647 C 0.34081 0.04493 0.91551 0.0
C648 C 0.31607 0.03233 0.88518 0.0
C649 C 0.31409 0.02436 0.79303 0.0
C650 C 0.337 0.02684 0.73397 0.0
C651 C 0.36167 0.03743 0.76818 0.0
C652 C 0.36356 0.04673 0.85675 0.0
C653 C 0.39279 0.05348 0.88161 0.0
C654 C 0.39821 0.08329 0.90325 0.0
C655 C 0.40045 0.03671 0.96085 0.0
C656 C 0.40724 0.04578 0.79428 0.0
C657 C 0.38898 0.0369 0.72913 0.0
C658 C 0.39771 0.02715 0.64491 0.0
C659 C 0.42563 0.02621 0.62747 0.0
C660 C 0.44451 0.03448 0.69419 0.0
C661 C 0.43516 0.04499 0.77773 0.0
H662 H 0.5273 0.31363 0.77398 0.0
H663 H 0.46875 0.31605 -0.00341 0.0
H664 H 0.45217 0.35634 0.93538 0.0
H665 H 0.54794 0.37625 0.76893 0.0
H666 H 0.55086 0.381 0.64837 0.0
H667 H 0.55306 0.34862 0.69258 0.0
H668 H 0.51466 0.32985 0.59167 0.0
H669 H 0.5105 0.36208 0.54738 0.0
H670 H 0.48219 0.34328 0.6003 0.0
H671 H 0.45121 0.40219 0.87515 0.0
H672 H 0.4602 0.44599 0.80464 0.0
H673 H 0.51759 0.41295 0.61511 0.0
C674 C 0.50971 0.32162 0.80586 0.0
C675 C 0.49878 0.31139 0.88856 0.0
C676 C 0.47671 0.32306 0.93156 0.0
C677 C 0.46742 0.34619 0.89777 0.0
C678 C 0.47996 0.35697 0.81958 0.0
C679 C 0.49994 0.34448 0.77202 0.0
C680 C 0.5119 0.36143 0.69496 0.0
C681 C 0.54275 0.36716 0.70175 0.0
C682 C 0.50439 0.34835 0.60315 0.0
C683 C 0.49741 0.3863 0.71185 0.0
C684 C 0.47874 0.38324 0.78308 0.0
C685 C 0.46511 0.40451 0.81736 0.0
C686 C 0.47053 0.4294 0.77746 0.0
C687 C 0.48939 0.43286 0.70382 0.0
C688 C 0.50265 0.41084 0.67014 0.0
H689 H 0.17937 0.49806 -4e-05 0.0
H690 H 0.23695 0.51646 0.77924 0.0
H691 H 0.19978 0.51003 0.67057 0.0
H692 H 0.13018 0.45072 0.87543 0.0
H693 H 0.1018 0.46421 0.93374 0.0
H694 H 0.13345 0.46374 0.98967 0.0
H695 H 0.13413 0.5145 0.02014 0.0
H696 H 0.10274 0.51511 0.96381 0.0
H697 H 0.13193 0.53615 0.9265 0.0
H698 H 0.15567 0.51003 0.59221 0.0
H699 H 0.10899 0.5138 0.54621 0.0
H700 H 0.0797 0.49751 0.82106 0.0
C701 C 0.1843 0.49958 0.92818 0.0
C702 C 0.21105 0.50744 0.89751 0.0
C703 C 0.21673 0.50991 0.80368 0.0
C704 C 0.19567 0.50651 0.74182 0.0
C705 C 0.1692 0.50057 0.77525 0.0
C706 C 0.16353 0.4968 0.86634 0.0
C707 C 0.1333 0.49414 0.88715 0.0
C708 C 0.12414 0.46655 0.92363 0.0
C709 C 0.12506 0.51628 0.95327 0.0
C710 C 0.12267 0.49762 0.79384 0.0
C711 C 0.14368 0.50106 0.73019 0.0
C712 C 0.13904 0.50681 0.64086 0.0
C713 C 0.11237 0.50909 0.61575 0.0
C714 C 0.09045 0.50583 0.67993 0.0
C715 C 0.09583 0.49975 0.76999 0.0
H716 H 0.03302 0.82179 0.32597 0.0
H717 H 0.95521 0.80802 0.20239 0.0
H718 H 0.94031 0.84841 0.27954 0.0
H719 H 1.00675 0.85344 0.54794 0.0
H720 H 0.03661 0.87631 0.55235 0.0
H721 H 0.03874 0.84337 0.50465 0.0
H722 H 0.05997 0.86354 0.35699 0.0
H723 H 0.05741 0.89653 0.4023 0.0
H724 H 0.04195 0.88663 0.29672 0.0
H725 H 0.93855 0.89576 0.33801 0.0
H726 H 0.94675 0.94185 0.39863 0.0
H727 H 0.02464 0.92348 0.49188 0.0
C728 C 0.01225 0.82635 0.32035 0.0
C729 C 0.99497 0.81142 0.26039 0.0
C730 C 0.96837 0.81868 0.25052 0.0
C731 C 0.9599 0.84184 0.29311 0.0
C732 C 0.9781 0.85719 0.34694 0.0
C733 C 1.00342 0.84922 0.36341 0.0
C734 C 0.02004 0.87033 0.41712 0.0
C735 C 0.02588 0.86027 0.51111 0.0
C736 C 0.04638 0.8798 0.36514 0.0
C737 C 1.00073 0.8919 0.42426 0.0
C738 C 0.97663 0.88405 0.38334 0.0
C739 C 0.95698 0.9018 0.37282 0.0
C740 C 0.96189 0.92799 0.40654 0.0
C741 C 0.98612 0.93608 0.45104 0.0
C742 C 1.00563 0.91767 0.46009 0.0
H743 H 0.67723 0.94731 0.2377 0.0
H744 H 0.71363 0.02541 0.31158 0.0
H745 H 0.67292 0.03349 0.40592 0.0
H746 H 0.61415 0.96473 0.20588 0.0
H747 H 0.59544 0.93581 0.25217 0.0
H748 H 0.62918 0.93357 0.20625 0.0
H749 H 0.64416 0.9159 0.35774 0.0
H750 H 0.61024 0.91743 0.40382 0.0
H751 H 0.63837 0.93434 0.46161 0.0
H752 H 0.625 0.03697 0.45979 0.0
H753 H 0.57604 0.03314 0.49264 0.0
H754 H 0.57041 0.95126 0.3976 0.0
C755 C 0.67711 0.9656 0.27737 0.0
C756 C 0.69882 0.98562 0.26844 0.0
C757 C 0.69762 0.0096 0.31909 0.0
C758 C 0.6744 0.01443 0.37205 0.0
C759 C 0.65271 0.99489 0.37494 0.0
C760 C 0.65414 0.97062 0.33103 0.0
C761 C 0.62725 0.95383 0.33921 0.0
C762 C 0.61585 0.94657 0.2453 0.0
C763 C 0.63018 0.9289 0.39387 0.0
C764 C 0.61006 0.97287 0.39117 0.0
C765 C 0.62524 0.99643 0.41097 0.0
C766 C 0.61329 0.0182 0.44869 0.0
C767 C 0.58539 0.01572 0.46831 0.0
C768 C 0.56951 0.99147 0.45314 0.0
C769 C 0.5821 0.96978 0.41321 0.0
H770 H 0.49376 0.67529 0.17571 0.0
H771 H 0.55223 0.72643 0.325 0.0
H772 H 0.55728 0.68968 0.42946 0.0
H773 H 0.46421 0.63448 0.36111 0.0
H774 H 0.46247 0.60481 0.29058 0.0
H775 H 0.45978 0.63655 0.24099 0.0
H776 H 0.49939 0.62751 0.12932 0.0
H777 H 0.50273 0.59612 0.18026 0.0
H778 H 0.5314 0.62047 0.17295 0.0
H779 H 0.55757 0.64569 0.51177 0.0
H780 H 0.55374 0.59928 0.56283 0.0
H781 H 0.50063 0.57601 0.3426 0.0
C782 C 0.50749 0.67902 0.23089 0.0
C783 C 0.52282 0.70384 0.24147 0.0
C784 C 0.54008 0.7078 0.31581 0.0
C785 C 0.54324 0.68691 0.37488 0.0
C786 C 0.52918 0.66218 0.3581 0.0
C787 C 0.5116 0.65826 0.28775 0.0
C788 C 0.50085 0.62939 0.2776 0.0
C789 C 0.47 0.62613 0.29358 0.0
C790 C 0.5091 0.6177 0.18453 0.0
C791 C 0.51526 0.61743 0.35308 0.0
C792 C 0.5311 0.63671 0.39996 0.0
C793 C 0.54545 0.6305 0.47486 0.0
C794 C 0.54328 0.60408 0.50303 0.0
C795 C 0.52749 0.58403 0.45505 0.0
C796 C 0.51351 0.59081 0.37869 0.0
H797 H 0.84156 0.52545 0.16134 0.0
H798 H 0.78533 0.50995 0.38792 0.0
H799 H 0.82322 0.51803 0.49342 0.0
H800 H 0.88931 0.48817 0.23814 0.0
H801 H 0.91838 0.50848 0.19583 0.0
H802 H 0.88665 0.50839 0.14087 0.0
H803 H 0.8876 0.5594 0.16267 0.0
H804 H 0.91964 0.55975 0.21666 0.0
H805 H 0.89168 0.57417 0.2743 0.0
H806 H 0.86781 0.52045 0.56979 0.0
H807 H 0.91467 0.51837 0.61471 0.0
H808 H 0.94262 0.52878 0.335 0.0
C809 C 0.83708 0.52489 0.23358 0.0
C810 C 0.8105 0.51745 0.267 0.0
C811 C 0.8054 0.51618 0.3614 0.0
C812 C 0.82688 0.52052 0.42142 0.0
C813 C 0.85316 0.52602 0.38549 0.0
C814 C 0.85827 0.52842 0.29358 0.0
C815 C 0.88839 0.53068 0.27049 0.0
C816 C 0.89611 0.50757 0.20766 0.0
C817 C 0.89735 0.55761 0.22858 0.0
C818 C 0.89964 0.52868 0.36379 0.0
C819 C 0.87897 0.52634 0.42911 0.0
C820 C 0.88413 0.52267 0.51953 0.0
C821 C 0.91098 0.52137 0.54406 0.0
C822 C 0.93261 0.52344 0.47838 0.0
C823 C 0.92671 0.52734 0.38701 0.0
loop_
_geom_bond_atom_site_label_1
_geom_bond_atom_site_label_2
_geom_bond_distance
_geom_bond_site_symmetry_2
_ccdc_geom_bond_type
H0 C5 0.930 . S
H1 C8 0.930 1_556 S
H2 C10 0.930 . S
H3 C4 1.016 1_556 S
C4 H3 1.016 1_554 S
C4 N11 1.286 . S
C5 H0 0.930 . S
C5 C6 1.397 . S
C5 C7 1.361 . S
C6 C5 1.397 . S
C6 C10 1.390 . S
C7 C5 1.361 . S
C7 C8 1.393 . S
C7 N11 1.413 . S
C8 H1 0.930 1_554 S
C8 C7 1.393 . S
C8 C9 1.399 . S
C9 C8 1.399 . S
C9 C10 1.381 . S
C10 H2 0.930 . S
C10 C6 1.390 . S
C10 C9 1.381 . S
N11 C4 1.286 . S
N11 C7 1.413 . S
H12 C17 0.930 . S
H13 C20 0.930 . S
H14 C22 0.930 . S
H15 C16 1.032 . S
C16 H15 1.032 . S
C16 N23 1.269 1_656 S
C17 H12 0.930 . S
C17 C18 1.397 . S
C17 C19 1.361 . S
C18 C17 1.397 . S
C18 C22 1.390 1_455 S
C19 C17 1.361 . S
C19 C20 1.393 1_554 S
C19 N23 1.413 . S
C20 H13 0.930 . S
C20 C19 1.393 1_556 S
C20 C21 1.404 . S
C21 C20 1.404 . S
C21 C22 1.379 1_456 S
C22 H14 0.930 . S
C22 C18 1.390 1_655 S
C22 C21 1.379 1_654 S
N23 C16 1.269 1_454 S
N23 C19 1.413 . S
H24 C29 0.930 . S
H25 C32 0.930 . S
H26 C34 0.930 . S
H27 C28 1.016 . S
C28 H27 1.016 . S
C28 N35 1.286 1_556 S
C29 H24 0.930 . S
C29 C30 1.397 . S
C29 C31 1.361 . S
C30 C29 1.397 . S
C30 C34 1.390 . S
C31 C29 1.361 . S
C31 C32 1.393 1_554 S
C31 N35 1.413 . S
C32 H25 0.930 . S
C32 C31 1.393 1_556 S
C32 C33 1.399 . S
C33 C32 1.399 . S
C33 C34 1.381 1_556 S
C34 H26 0.930 . S
C34 C30 1.390 . S
C34 C33 1.381 1_554 S
N35 C28 1.286 1_554 S
N35 C31 1.413 . S
H36 C41 0.930 . S
H37 C44 0.930 1_556 S
H38 C46 0.930 . S
H39 C40 1.016 1_556 S
C40 H39 1.016 1_554 S
C40 N47 1.286 . S
C41 H36 0.930 . S
C41 C42 1.397 . S
C41 C43 1.361 . S
C42 C41 1.397 . S
C42 C46 1.390 . S
C43 C41 1.361 . S
C43 C44 1.393 . S
C43 N47 1.413 . S
C44 H37 0.930 1_554 S
C44 C43 1.393 . S
C44 C45 1.399 . S
C45 C44 1.399 . S
C45 C46 1.381 . S
C46 H38 0.930 . S
C46 C42 1.390 . S
C46 C45 1.381 . S
N47 C40 1.286 . S
N47 C43 1.413 . S
H48 C53 0.930 . S
H49 C56 0.930 . S
H50 C58 0.930 . S
H51 C52 1.016 . S
C52 H51 1.016 . S
C52 N59 1.286 . S
C53 H48 0.930 . S
C53 C54 1.397 . S
C53 C55 1.361 1_556 S
C54 C53 1.397 . S
C54 C58 1.390 1_556 S
C55 C53 1.361 1_554 S
C55 C56 1.393 . S
C55 N59 1.413 . S
C56 H49 0.930 . S
C56 C55 1.393 . S
C56 C57 1.399 . S
C57 C56 1.399 . S
C57 C58 1.381 . S
C58 H50 0.930 . S
C58 C54 1.390 1_554 S
C58 C57 1.381 . S
N59 C52 1.286 . S
N59 C55 1.413 . S
H60 C65 0.930 1_556 S
H61 C68 0.930 . S
H62 C70 0.930 . S
H63 C64 1.024 . S
C64 H63 1.024 . S
C64 N71 1.272 1_655 S
C65 H60 0.930 1_554 S
C65 C66 1.397 1_554 S
C65 C67 1.361 . S
C66 C65 1.397 1_556 S
C66 C70 1.390 1_456 S
C67 C65 1.361 . S
C67 C68 1.393 . S
C67 N71 1.413 . S
C68 H61 0.930 . S
C68 C67 1.393 . S
C68 C69 1.401 . S
C69 C68 1.401 . S
C69 C70 1.378 1_455 S
C70 H62 0.930 . S
C70 C66 1.390 1_654 S
C70 C69 1.378 1_655 S
N71 C64 1.272 1_455 S
N71 C67 1.413 . S
H72 C77 0.930 1_556 S
H73 C80 0.930 . S
H74 C82 0.930 . S
H75 C76 1.016 . S
C76 H75 1.016 . S
C76 N83 1.286 . S
C77 H72 0.930 1_554 S
C77 C78 1.397 . S
C77 C79 1.361 . S
C78 C77 1.397 . S
C78 C82 1.390 . S
C79 C77 1.361 . S
C79 C80 1.393 . S
C79 N83 1.413 . S
C80 H73 0.930 . S
C80 C79 1.393 . S
C80 C81 1.399 . S
C81 C80 1.399 . S
C81 C82 1.381 . S
C82 H74 0.930 . S
C82 C78 1.390 . S
C82 C81 1.381 . S
N83 C76 1.286 . S
N83 C79 1.413 . S
H84 C89 0.930 . S
H85 C92 0.930 . S
H86 C94 0.930 1_556 S
H87 C88 1.016 . S
C88 H87 1.016 . S
C88 N95 1.286 . S
C89 H84 0.930 . S
C89 C90 1.397 . S
C89 C91 1.361 1_556 S
C90 C89 1.397 . S
C90 C94 1.390 1_556 S
C91 C89 1.361 1_554 S
C91 C92 1.393 . S
C91 N95 1.413 . S
C92 H85 0.930 . S
C92 C91 1.393 . S
C92 C93 1.399 . S
C93 C92 1.399 . S
C93 C94 1.381 . S
C94 H86 0.930 1_554 S
C94 C90 1.390 1_554 S
C94 C93 1.381 . S
N95 C88 1.286 . S
N95 C91 1.413 . S
Dy96 O100 2.398 . S
Dy96 O101 2.491 1_455 S
Dy96 O102 2.403 . S
Dy96 O103 2.664 1_565 S
Dy96 O107 2.326 . S
Dy96 O111 2.310 1_455 S
Dy96 O112 2.351 1_565 S
C97 O108 1.185 . S
C97 O109 1.355 1_655 S
C98 O100 1.185 . S
C98 O101 1.355 1_455 S
Dy99 O103 2.310 1_655 S
Dy99 O106 2.351 1_545 S
Dy99 O108 2.398 . S
Dy99 O109 2.491 1_655 S
Dy99 O110 2.403 . S
Dy99 O111 2.664 1_545 S
Dy99 O113 2.326 . S
O100 Dy96 2.398 . S
O100 C98 1.185 . S
O101 Dy96 2.491 1_655 S
O101 C98 1.355 1_655 S
O102 Dy96 2.403 . S
O102 C104 1.254 1_565 S
O103 Dy96 2.664 1_545 S
O103 Dy99 2.310 1_455 S
O103 C104 1.268 . S
C104 O102 1.254 1_545 S
C104 O103 1.268 . S
C105 O110 1.254 1_565 S
C105 O111 1.268 . S
O106 Dy99 2.351 1_565 S
O106 C114 1.249 . S
O107 Dy96 2.326 . S
O107 C114 1.267 1_455 S
O108 C97 1.185 . S
O108 Dy99 2.398 . S
O109 C97 1.355 1_455 S
O109 Dy99 2.491 1_455 S
O110 Dy99 2.403 . S
O110 C105 1.254 1_545 S
O111 Dy96 2.310 1_655 S
O111 Dy99 2.664 1_565 S
O111 C105 1.268 . S
O112 Dy96 2.351 1_545 S
O112 C115 1.249 . S
O113 Dy99 2.326 . S
O113 C115 1.267 1_655 S
C114 O106 1.249 . S
C114 O107 1.267 1_655 S
C115 O112 1.249 . S
C115 O113 1.267 1_455 S
Dy116 O120 2.398 . S
Dy116 O121 2.491 1_565 S
Dy116 O122 2.403 . S
Dy116 O123 2.664 . S
Dy116 O127 2.326 1_565 S
Dy116 O131 2.310 1_565 S
Dy116 O132 2.351 . S
C117 O128 1.209 . S
C117 O129 1.347 1_545 S
C118 O120 1.185 1_545 S
C118 O121 1.355 . S
Dy119 O123 2.310 1_545 S
Dy119 O126 2.351 . S
Dy119 O128 2.398 . S
Dy119 O129 2.491 1_545 S
Dy119 O130 2.403 . S
Dy119 O131 2.664 . S
Dy119 O133 2.326 1_545 S
O120 Dy116 2.398 . S
O120 C118 1.185 1_565 S
O121 Dy116 2.491 1_545 S
O121 C118 1.355 . S
O122 Dy116 2.403 . S
O122 C124 1.254 . S
O123 Dy116 2.664 . S
O123 Dy119 2.310 1_565 S
O123 C124 1.268 . S
C124 O122 1.254 . S
C124 O123 1.268 . S
C125 O130 1.254 . S
C125 O131 1.268 . S
O126 Dy119 2.351 . S
O126 C134 1.249 . S
O127 Dy116 2.326 1_545 S
O127 C134 1.267 . S
O128 C117 1.209 . S
O128 Dy119 2.398 . S
O129 C117 1.347 1_565 S
O129 Dy119 2.491 1_565 S
O130 Dy119 2.403 . S
O130 C125 1.254 . S
O131 Dy116 2.310 1_545 S
O131 Dy119 2.664 . S
O131 C125 1.268 . S
O132 Dy116 2.351 . S
O132 C135 1.249 . S
O133 Dy119 2.326 1_565 S
O133 C135 1.267 . S
C134 O126 1.249 . S
C134 O127 1.267 . S
C135 O132 1.249 . S
C135 O133 1.267 . S
Dy136 O140 2.398 . S
Dy136 O141 2.491 . S
Dy136 O142 2.403 . S
Dy136 O143 2.664 . S
Dy136 O147 2.326 . S
Dy136 O151 2.310 . S
Dy136 O152 2.351 . S
C137 O148 1.185 . S
C137 O149 1.355 . S
C138 O140 1.185 . S
C138 O141 1.355 . S
Dy139 O143 2.310 . S
Dy139 O146 2.351 . S
Dy139 O148 2.398 . S
Dy139 O149 2.491 . S
Dy139 O150 2.403 . S
Dy139 O151 2.664 . S
Dy139 O153 2.326 . S
O140 Dy136 2.398 . S
O140 C138 1.185 . S
O141 Dy136 2.491 . S
O141 C138 1.355 . S
O142 Dy136 2.403 . S
O142 C144 1.254 . S
O143 Dy136 2.664 . S
O143 Dy139 2.310 . S
O143 C144 1.268 . S
C144 O142 1.254 . S
C144 O143 1.268 . S
C145 O150 1.254 . S
C145 O151 1.268 . S
O146 Dy139 2.351 . S
O146 C154 1.249 . S
O147 Dy136 2.326 . S
O147 C154 1.267 . S
O148 C137 1.185 . S
O148 Dy139 2.398 . S
O149 C137 1.355 . S
O149 Dy139 2.491 . S
O150 Dy139 2.403 . S
O150 C145 1.254 . S
O151 Dy136 2.310 . S
O151 Dy139 2.664 . S
O151 C145 1.268 . S
O152 Dy136 2.351 . S
O152 C155 1.249 . S
O153 Dy139 2.326 . S
O153 C155 1.267 . S
C154 O146 1.249 . S
C154 O147 1.267 . S
C155 O152 1.249 . S
C155 O153 1.267 . S
Dy156 O160 2.398 . S
Dy156 O161 2.491 . S
Dy156 O162 2.403 . S
Dy156 O163 2.664 1_655 S
Dy156 O167 2.326 . S
Dy156 O171 2.310 . S
Dy156 O172 2.351 1_655 S
C157 O168 1.185 . S
C157 O169 1.355 . S
C158 O160 1.185 . S
C158 O161 1.355 . S
Dy159 O163 2.310 . S
Dy159 O166 2.351 1_455 S
Dy159 O168 2.398 . S
Dy159 O169 2.491 . S
Dy159 O170 2.403 . S
Dy159 O171 2.664 1_455 S
Dy159 O173 2.326 . S
O160 Dy156 2.398 . S
O160 C158 1.185 . S
O161 Dy156 2.491 . S
O161 C158 1.355 . S
O162 Dy156 2.403 . S
O162 C164 1.254 . S
O163 Dy156 2.664 1_455 S
O163 Dy159 2.310 . S
O163 C164 1.268 1_455 S
C164 O162 1.254 . S
C164 O163 1.268 1_655 S
C165 O170 1.254 . S
C165 O171 1.268 1_455 S
O166 Dy159 2.351 1_655 S
O166 C174 1.249 . S
O167 Dy156 2.326 . S
O167 C174 1.267 . S
O168 C157 1.185 . S
O168 Dy159 2.398 . S
O169 C157 1.355 . S
O169 Dy159 2.491 . S
O170 Dy159 2.403 . S
O170 C165 1.254 . S
O171 Dy156 2.310 . S
O171 Dy159 2.664 1_655 S
O171 C165 1.268 1_655 S
O172 Dy156 2.351 1_455 S
O172 C175 1.249 . S
O173 Dy159 2.326 . S
O173 C175 1.267 . S
C174 O166 1.249 . S
C174 O167 1.267 . S
C175 O172 1.249 . S
C175 O173 1.267 . S
H176 C188 0.930 . S
H177 C190 0.930 . S
H178 C191 0.930 . S
H179 C195 0.959 . S
H180 C195 0.959 . S
H181 C195 0.961 . S
H182 C196 0.960 . S
H183 C196 0.961 . S
H184 C196 0.959 . S
H185 C199 0.929 . S
H186 C200 0.931 . S
H187 C202 0.930 1_565 S
C188 H176 0.930 . S
C188 C189 1.399 . S
C188 C193 1.399 . S
C189 C188 1.399 . S
C189 C190 1.376 . S
C190 H177 0.930 . S
C190 C189 1.376 . S
C190 C191 1.388 . S
C191 H178 0.930 . S
C191 C190 1.388 . S
C191 C192 1.390 . S
C192 C191 1.390 . S
C192 C193 1.394 . S
C192 C198 1.465 . S
C193 C188 1.399 . S
C193 C192 1.394 . S
C193 C194 1.516 1_545 S
C194 C193 1.516 1_565 S
C194 C195 1.502 . S
C194 C196 1.561 . S
C194 C197 1.526 1_565 S
C195 H179 0.959 . S
C195 H180 0.959 . S
C195 H181 0.961 . S
C195 C194 1.502 . S
C196 H182 0.960 . S
C196 H183 0.961 . S
C196 H184 0.959 . S
C196 C194 1.561 . S
C197 C194 1.526 1_545 S
C197 C198 1.396 . S
C197 C202 1.390 . S
C198 C192 1.465 . S
C198 C197 1.396 . S
C198 C199 1.399 . S
C199 H185 0.929 . S
C199 C198 1.399 . S
C199 C200 1.385 . S
C200 H186 0.931 . S
C200 C199 1.385 . S
C200 C201 1.389 . S
C201 C200 1.389 . S
C201 C202 1.387 . S
C202 H187 0.930 1_545 S
C202 C197 1.390 . S
C202 C201 1.387 . S
H203 C215 0.930 . S
H204 C217 0.930 . S
H205 C218 0.930 . S
H206 C222 0.959 . S
H207 C222 0.959 . S
H208 C222 0.961 . S
H209 C223 0.960 . S
H210 C223 0.961 . S
H211 C223 0.959 . S
H212 C226 0.929 . S
H213 C227 0.931 . S
H214 C229 0.930 . S
C215 H203 0.930 . S
C215 C216 1.399 . S
C215 C220 1.399 . S
C216 C215 1.399 . S
C216 C217 1.376 . S
C217 H204 0.930 . S
C217 C216 1.376 . S
C217 C218 1.388 . S
C218 H205 0.930 . S
C218 C217 1.388 . S
C218 C219 1.390 . S
C219 C218 1.390 . S
C219 C220 1.394 . S
C219 C225 1.465 . S
C220 C215 1.399 . S
C220 C219 1.394 . S
C220 C221 1.516 . S
C221 C220 1.516 . S
C221 C222 1.502 . S
C221 C223 1.561 . S
C221 C224 1.526 . S
C222 H206 0.959 . S
C222 H207 0.959 . S
C222 H208 0.961 . S
C222 C221 1.502 . S
C223 H209 0.960 . S
C223 H210 0.961 . S
C223 H211 0.959 . S
C223 C221 1.561 . S
C224 C221 1.526 . S
C224 C225 1.396 . S
C224 C229 1.390 . S
C225 C219 1.465 . S
C225 C224 1.396 . S
C225 C226 1.399 . S
C226 H212 0.929 . S
C226 C225 1.399 . S
C226 C227 1.385 . S
C227 H213 0.931 . S
C227 C226 1.385 . S
C227 C228 1.389 . S
C228 C227 1.389 . S
C228 C229 1.387 . S
C229 H214 0.930 . S
C229 C224 1.390 . S
C229 C228 1.387 . S
H230 C242 0.930 . S
H231 C244 0.930 . S
H232 C245 0.930 . S
H233 C249 0.959 . S
H234 C249 0.959 . S
H235 C249 0.961 . S
H236 C250 0.960 . S
H237 C250 0.961 . S
H238 C250 0.959 . S
H239 C253 0.929 . S
H240 C254 0.931 . S
H241 C256 0.930 . S
C242 H230 0.930 . S
C242 C243 1.399 . S
C242 C247 1.399 . S
C243 C242 1.399 . S
C243 C244 1.376 . S
C244 H231 0.930 . S
C244 C243 1.376 . S
C244 C245 1.388 . S
C245 H232 0.930 . S
C245 C244 1.388 . S
C245 C246 1.390 . S
C246 C245 1.390 . S
C246 C247 1.394 . S
C246 C252 1.465 . S
C247 C242 1.399 . S
C247 C246 1.394 . S
C247 C248 1.516 . S
C248 C247 1.516 . S
C248 C249 1.502 . S
C248 C250 1.561 . S
C248 C251 1.526 . S
C249 H233 0.959 . S
C249 H234 0.959 . S
C249 H235 0.961 . S
C249 C248 1.502 . S
C250 H236 0.960 . S
C250 H237 0.961 . S
C250 H238 0.959 . S
C250 C248 1.561 . S
C251 C248 1.526 . S
C251 C252 1.396 . S
C251 C256 1.390 . S
C252 C246 1.465 . S
C252 C251 1.396 . S
C252 C253 1.399 . S
C253 H239 0.929 . S
C253 C252 1.399 . S
C253 C254 1.385 . S
C254 H240 0.931 . S
C254 C253 1.385 . S
C254 C255 1.389 . S
C255 C254 1.389 . S
C255 C256 1.387 . S
C256 H241 0.930 . S
C256 C251 1.390 . S
C256 C255 1.387 . S
H257 C269 0.930 . S
H258 C271 0.930 . S
H259 C272 0.930 . S
H260 C276 0.959 . S
H261 C276 0.959 . S
H262 C276 0.961 . S
H263 C277 0.960 . S
H264 C277 0.961 . S
H265 C277 0.959 1_455 S
H266 C280 0.929 . S
H267 C281 0.931 . S
H268 C283 0.930 . S
C269 H257 0.930 . S
C269 C270 1.399 1_655 S
C269 C274 1.399 . S
C270 C269 1.399 1_455 S
C270 C271 1.376 . S
C271 H258 0.930 . S
C271 C270 1.376 . S
C271 C272 1.388 . S
C272 H259 0.930 . S
C272 C271 1.388 . S
C272 C273 1.390 . S
C273 C272 1.390 . S
C273 C274 1.394 1_455 S
C273 C279 1.465 . S
C274 C269 1.399 . S
C274 C273 1.394 1_655 S
C274 C275 1.516 . S
C275 C274 1.516 . S
C275 C276 1.502 . S
C275 C277 1.561 . S
C275 C278 1.526 . S
C276 H260 0.959 . S
C276 H261 0.959 . S
C276 H262 0.961 . S
C276 C275 1.502 . S
C277 H263 0.960 . S
C277 H264 0.961 . S
C277 H265 0.959 1_655 S
C277 C275 1.561 . S
C278 C275 1.526 . S
C278 C279 1.396 1_655 S
C278 C283 1.390 . S
C279 C273 1.465 . S
C279 C278 1.396 1_455 S
C279 C280 1.399 . S
C280 H266 0.929 . S
C280 C279 1.399 . S
C280 C281 1.385 . S
C281 H267 0.931 . S
C281 C280 1.385 . S
C281 C282 1.389 . S
C282 C281 1.389 . S
C282 C283 1.387 1_455 S
C283 H268 0.930 . S
C283 C278 1.390 . S
C283 C282 1.387 1_655 S
H284 C296 0.930 . S
H285 C298 0.930 . S
H286 C299 0.930 . S
H287 C303 0.985 . S
H288 C303 0.959 . S
H289 C303 0.961 . S
H290 C304 0.960 . S
H291 C304 0.961 . S
H292 C304 0.959 . S
H293 C307 0.929 . S
H294 C308 0.931 . S
H295 C310 0.942 . S
C296 H284 0.930 . S
C296 C297 1.399 . S
C296 C301 1.399 . S
C297 C296 1.399 . S
C297 C298 1.376 . S
C298 H285 0.930 . S
C298 C297 1.376 . S
C298 C299 1.388 . S
C299 H286 0.930 . S
C299 C298 1.388 . S
C299 C300 1.390 . S
C300 C299 1.390 . S
C300 C301 1.394 . S
C300 C306 1.465 . S
C301 C296 1.399 . S
C301 C300 1.394 . S
C301 C302 1.516 1_565 S
C302 C301 1.516 1_545 S
C302 C303 1.502 . S
C302 C304 1.561 . S
C302 C305 1.526 1_545 S
C303 H287 0.985 . S
C303 H288 0.959 . S
C303 H289 0.961 . S
C303 C302 1.502 . S
C304 H290 0.960 . S
C304 H291 0.961 . S
C304 H292 0.959 . S
C304 C302 1.561 . S
C305 C302 1.526 1_565 S
C305 C306 1.396 . S
C305 C310 1.386 1_565 S
C306 C300 1.465 . S
C306 C305 1.396 . S
C306 C307 1.399 . S
C307 H293 0.929 . S
C307 C306 1.399 . S
C307 C308 1.385 . S
C308 H294 0.931 . S
C308 C307 1.385 . S
C308 C309 1.389 . S
C309 C308 1.389 . S
C309 C310 1.379 1_565 S
C310 H295 0.942 . S
C310 C305 1.386 1_545 S
C310 C309 1.379 1_545 S
H311 C323 0.930 . S
H312 C325 0.930 . S
H313 C326 0.930 . S
H314 C330 0.959 . S
H315 C330 0.959 . S
H316 C330 0.961 1_554 S
H317 C331 0.952 1_554 S
H318 C331 0.961 . S
H319 C331 0.963 . S
H320 C334 0.929 . S
H321 C335 0.931 . S
H322 C337 0.930 . S
C323 H311 0.930 . S
C323 C324 1.399 . S
C323 C328 1.399 1_554 S
C324 C323 1.399 . S
C324 C325 1.376 1_554 S
C325 H312 0.930 . S
C325 C324 1.376 1_556 S
C325 C326 1.388 . S
C326 H313 0.930 . S
C326 C325 1.388 . S
C326 C327 1.390 . S
C327 C326 1.390 . S
C327 C328 1.394 . S
C327 C333 1.465 . S
C328 C323 1.399 1_556 S
C328 C327 1.394 . S
C328 C329 1.516 . S
C329 C328 1.516 . S
C329 C330 1.502 . S
C329 C331 1.565 . S
C329 C332 1.526 . S
C330 H314 0.959 . S
C330 H315 0.959 . S
C330 H316 0.961 1_556 S
C330 C329 1.502 . S
C331 H317 0.952 1_556 S
C331 H318 0.961 . S
C331 H319 0.963 . S
C331 C329 1.565 . S
C332 C329 1.526 . S
C332 C333 1.396 . S
C332 C337 1.390 . S
C333 C327 1.465 . S
C333 C332 1.396 . S
C333 C334 1.399 . S
C334 H320 0.929 . S
C334 C333 1.399 . S
C334 C335 1.385 . S
C335 H321 0.931 . S
C335 C334 1.385 . S
C335 C336 1.389 . S
C336 C335 1.389 . S
C336 C337 1.387 . S
C337 H322 0.930 . S
C337 C332 1.390 . S
C337 C336 1.387 . S
H338 C350 0.930 . S
H339 C352 0.930 . S
H340 C353 0.930 1_554 S
H341 C357 0.959 . S
H342 C357 0.959 . S
H343 C357 0.961 . S
H344 C358 0.960 . S
H345 C358 0.961 . S
H346 C358 0.959 . S
H347 C361 0.929 . S
H348 C362 0.931 . S
H349 C364 0.930 . S
C350 H338 0.930 . S
C350 C351 1.399 . S
C350 C355 1.399 . S
C351 C350 1.399 . S
C351 C352 1.376 1_556 S
C352 H339 0.930 . S
C352 C351 1.376 1_554 S
C352 C353 1.388 1_554 S
C353 H340 0.930 1_556 S
C353 C352 1.388 1_556 S
C353 C354 1.390 . S
C354 C353 1.390 . S
C354 C355 1.394 . S
C354 C360 1.465 . S
C355 C350 1.399 . S
C355 C354 1.394 . S
C355 C356 1.516 . S
C356 C355 1.516 . S
C356 C357 1.502 . S
C356 C358 1.561 . S
C356 C359 1.526 . S
C357 H341 0.959 . S
C357 H342 0.959 . S
C357 H343 0.961 . S
C357 C356 1.502 . S
C358 H344 0.960 . S
C358 H345 0.961 . S
C358 H346 0.959 . S
C358 C356 1.561 . S
C359 C356 1.526 . S
C359 C360 1.396 . S
C359 C364 1.390 . S
C360 C354 1.465 . S
C360 C359 1.396 . S
C360 C361 1.399 . S
C361 H347 0.929 . S
C361 C360 1.399 . S
C361 C362 1.385 . S
C362 H348 0.931 . S
C362 C361 1.385 . S
C362 C363 1.389 . S
C363 C362 1.389 . S
C363 C364 1.387 . S
C364 H349 0.930 . S
C364 C359 1.390 . S
C364 C363 1.387 . S
H365 C377 0.930 1_554 S
H366 C379 0.930 . S
H367 C380 0.930 . S
H368 C384 0.959 . S
H369 C384 0.959 . S
H370 C384 0.961 1_554 S
H371 C385 0.960 1_554 S
H372 C385 0.961 . S
H373 C385 0.959 . S
H374 C388 0.929 . S
H375 C389 0.931 . S
H376 C391 0.930 . S
C377 H365 0.930 1_556 S
C377 C378 1.399 1_455 S
C377 C382 1.399 1_455 S
C378 C377 1.399 1_655 S
C378 C379 1.376 . S
C379 H366 0.930 . S
C379 C378 1.376 . S
C379 C380 1.388 . S
C380 H367 0.930 . S
C380 C379 1.388 . S
C380 C381 1.390 . S
C381 C380 1.390 . S
C381 C382 1.393 . S
C381 C387 1.465 . S
C382 C377 1.399 1_655 S
C382 C381 1.393 . S
C382 C383 1.517 1_655 S
C383 C382 1.517 1_455 S
C383 C384 1.502 . S
C383 C385 1.561 1_455 S
C383 C386 1.527 . S
C384 H368 0.959 . S
C384 H369 0.959 . S
C384 H370 0.961 1_556 S
C384 C383 1.502 . S
C385 H371 0.960 1_556 S
C385 H372 0.961 . S
C385 H373 0.959 . S
C385 C383 1.561 1_655 S
C386 C383 1.527 . S
C386 C387 1.393 1_455 S
C386 C391 1.391 . S
C387 C381 1.465 . S
C387 C386 1.393 1_655 S
C387 C388 1.399 . S
C388 H374 0.929 . S
C388 C387 1.399 . S
C388 C389 1.385 . S
C389 H375 0.931 . S
C389 C388 1.385 . S
C389 C390 1.387 1_655 S
C390 C389 1.387 1_455 S
C390 C391 1.388 . S
C391 H376 0.930 . S
C391 C386 1.391 . S
C391 C390 1.388 . S
H392 C404 0.930 . S
H393 C406 0.930 . S
H394 C407 0.930 . S
H395 C411 0.959 . S
H396 C411 0.959 . S
H397 C411 0.961 . S
H398 C412 0.960 . S
H399 C412 0.961 . S
H400 C412 0.959 . S
H401 C415 0.929 . S
H402 C416 0.924 1_455 S
H403 C418 0.930 . S
C404 H392 0.930 . S
C404 C405 1.399 1_655 S
C404 C409 1.399 . S
C405 C404 1.399 1_455 S
C405 C406 1.376 . S
C406 H393 0.930 . S
C406 C405 1.376 . S
C406 C407 1.388 . S
C407 H394 0.930 . S
C407 C406 1.388 . S
C407 C408 1.390 . S
C408 C407 1.390 . S
C408 C409 1.394 1_455 S
C408 C414 1.465 1_455 S
C409 C404 1.399 . S
C409 C408 1.394 1_655 S
C409 C410 1.516 . S
C410 C409 1.516 . S
C410 C411 1.502 . S
C410 C412 1.561 1_655 S
C410 C413 1.526 . S
C411 H395 0.959 . S
C411 H396 0.959 . S
C411 H397 0.961 . S
C411 C410 1.502 . S
C412 H398 0.960 . S
C412 H399 0.961 . S
C412 H400 0.959 . S
C412 C410 1.561 1_455 S
C413 C410 1.526 . S
C413 C414 1.396 . S
C413 C418 1.390 . S
C414 C408 1.465 1_655 S
C414 C413 1.396 . S
C414 C415 1.399 1_655 S
C415 H401 0.929 . S
C415 C414 1.399 1_455 S
C415 C416 1.385 1_455 S
C416 H402 0.924 1_655 S
C416 C415 1.385 1_655 S
C416 C417 1.389 . S
C417 C416 1.389 . S
C417 C418 1.387 . S
C418 H403 0.930 . S
C418 C413 1.390 . S
C418 C417 1.387 . S
H419 C431 0.930 . S
H420 C433 0.930 . S
H421 C434 0.930 . S
H422 C438 0.959 . S
H423 C438 0.959 . S
H424 C438 0.961 . S
H425 C439 0.960 . S
H426 C439 0.961 . S
H427 C439 0.959 . S
H428 C442 0.929 . S
H429 C443 0.931 . S
H430 C445 0.929 . S
C431 H419 0.930 . S
C431 C432 1.399 . S
C431 C436 1.399 . S
C432 C431 1.399 . S
C432 C433 1.376 . S
C433 H420 0.930 . S
C433 C432 1.376 . S
C433 C434 1.388 . S
C434 H421 0.930 . S
C434 C433 1.388 . S
C434 C435 1.390 . S
C435 C434 1.390 . S
C435 C436 1.394 . S
C435 C441 1.465 . S
C436 C431 1.399 . S
C436 C435 1.394 . S
C436 C437 1.516 . S
C437 C436 1.516 . S
C437 C438 1.502 1_545 S
C437 C439 1.561 . S
C437 C440 1.526 . S
C438 H422 0.959 . S
C438 H423 0.959 . S
C438 H424 0.961 . S
C438 C437 1.502 1_565 S
C439 H425 0.960 . S
C439 H426 0.961 . S
C439 H427 0.959 . S
C439 C437 1.561 . S
C440 C437 1.526 . S
C440 C441 1.396 . S
C440 C445 1.390 1_545 S
C441 C435 1.465 . S
C441 C440 1.396 . S
C441 C442 1.399 . S
C442 H428 0.929 . S
C442 C441 1.399 . S
C442 C443 1.385 . S
C443 H429 0.931 . S
C443 C442 1.385 . S
C443 C444 1.389 . S
C444 C443 1.389 . S
C444 C445 1.387 1_545 S
C445 H430 0.929 . S
C445 C440 1.390 1_565 S
C445 C444 1.387 1_565 S
H446 C458 0.930 . S
H447 C460 0.930 . S
H448 C461 0.930 . S
H449 C465 0.959 . S
H450 C465 0.959 . S
H451 C465 0.961 . S
H452 C466 0.960 . S
H453 C466 0.961 . S
H454 C466 0.959 . S
H455 C469 0.929 . S
H456 C470 0.931 . S
H457 C472 0.930 . S
C458 H446 0.930 . S
C458 C459 1.399 . S
C458 C463 1.399 . S
C459 C458 1.399 . S
C459 C460 1.376 . S
C460 H447 0.930 . S
C460 C459 1.376 . S
C460 C461 1.388 . S
C461 H448 0.930 . S
C461 C460 1.388 . S
C461 C462 1.390 . S
C462 C461 1.390 . S
C462 C463 1.394 . S
C462 C468 1.465 . S
C463 C458 1.399 . S
C463 C462 1.394 . S
C463 C464 1.516 . S
C464 C463 1.516 . S
C464 C465 1.502 . S
C464 C466 1.561 . S
C464 C467 1.526 . S
C465 H449 0.959 . S
C465 H450 0.959 . S
C465 H451 0.961 . S
C465 C464 1.502 . S
C466 H452 0.960 . S
C466 H453 0.961 . S
C466 H454 0.959 . S
C466 C464 1.561 . S
C467 C464 1.526 . S
C467 C468 1.396 . S
C467 C472 1.390 . S
C468 C462 1.465 . S
C468 C467 1.396 . S
C468 C469 1.399 . S
C469 H455 0.929 . S
C469 C468 1.399 . S
C469 C470 1.385 . S
C470 H456 0.931 . S
C470 C469 1.385 . S
C470 C471 1.389 . S
C471 C470 1.389 . S
C471 C472 1.387 . S
C472 H457 0.930 . S
C472 C467 1.390 . S
C472 C471 1.387 . S
H473 C485 0.930 . S
H474 C487 0.930 . S
H475 C488 0.930 . S
H476 C492 0.959 . S
H477 C492 0.959 . S
H478 C492 0.961 . S
H479 C493 0.960 . S
H480 C493 0.961 . S
H481 C493 0.959 . S
H482 C496 0.929 . S
H483 C497 0.931 . S
H484 C499 0.930 . S
C485 H473 0.930 . S
C485 C486 1.399 . S
C485 C490 1.399 . S
C486 C485 1.399 . S
C486 C487 1.376 . S
C487 H474 0.930 . S
C487 C486 1.376 . S
C487 C488 1.388 . S
C488 H475 0.930 . S
C488 C487 1.388 . S
C488 C489 1.390 . S
C489 C488 1.390 . S
C489 C490 1.394 . S
C489 C495 1.465 . S
C490 C485 1.399 . S
C490 C489 1.394 . S
C490 C491 1.516 . S
C491 C490 1.516 . S
C491 C492 1.502 . S
C491 C493 1.561 . S
C491 C494 1.526 . S
C492 H476 0.959 . S
C492 H477 0.959 . S
C492 H478 0.961 . S
C492 C491 1.502 . S
C493 H479 0.960 . S
C493 H480 0.961 . S
C493 H481 0.959 . S
C493 C491 1.561 . S
C494 C491 1.526 . S
C494 C495 1.396 . S
C494 C499 1.390 . S
C495 C489 1.465 . S
C495 C494 1.396 . S
C495 C496 1.399 . S
C496 H482 0.929 . S
C496 C495 1.399 . S
C496 C497 1.385 . S
C497 H483 0.931 . S
C497 C496 1.385 . S
C497 C498 1.389 . S
C498 C497 1.389 . S
C498 C499 1.387 . S
C499 H484 0.930 . S
C499 C494 1.390 . S
C499 C498 1.387 . S
H500 C512 0.930 . S
H501 C514 0.930 . S
H502 C515 0.930 . S
H503 C519 0.959 . S
H504 C519 0.959 . S
H505 C519 0.961 . S
H506 C520 0.960 1_554 S
H507 C520 0.961 . S
H508 C520 0.943 1_454 S
H509 C523 0.929 . S
H510 C524 0.931 . S
H511 C526 0.930 . S
C512 H500 0.930 . S
C512 C513 1.399 1_655 S
C512 C517 1.399 . S
C513 C512 1.399 1_455 S
C513 C514 1.376 . S
C514 H501 0.930 . S
C514 C513 1.376 . S
C514 C515 1.388 . S
C515 H502 0.930 . S
C515 C514 1.388 . S
C515 C516 1.390 . S
C516 C515 1.390 . S
C516 C517 1.394 1_455 S
C516 C522 1.465 . S
C517 C512 1.399 . S
C517 C516 1.394 1_655 S
C517 C518 1.516 . S
C518 C517 1.516 . S
C518 C519 1.502 . S
C518 C520 1.561 . S
C518 C521 1.545 . S
C519 H503 0.959 . S
C519 H504 0.959 . S
C519 H505 0.961 . S
C519 C518 1.502 . S
C520 H506 0.960 1_556 S
C520 H507 0.961 . S
C520 H508 0.943 1_656 S
C520 C518 1.561 . S
C521 C518 1.545 . S
C521 C522 1.367 1_655 S
C521 C526 1.397 . S
C522 C516 1.465 . S
C522 C521 1.367 1_455 S
C522 C523 1.399 . S
C523 H509 0.929 . S
C523 C522 1.399 . S
C523 C524 1.385 . S
C524 H510 0.931 . S
C524 C523 1.385 . S
C524 C525 1.389 . S
C525 C524 1.389 . S
C525 C526 1.387 1_455 S
C526 H511 0.930 . S
C526 C521 1.397 . S
C526 C525 1.387 1_655 S
H527 C539 0.930 . S
H528 C541 0.931 1_554 S
H529 C542 0.930 . S
H530 C546 0.959 . S
H531 C546 0.959 . S
H532 C546 0.961 . S
H533 C547 0.960 . S
H534 C547 0.961 1_545 S
H535 C547 0.959 . S
H536 C550 0.929 . S
H537 C551 0.931 . S
H538 C553 0.930 . S
C539 H527 0.930 . S
C539 C540 1.399 . S
C539 C544 1.399 . S
C540 C539 1.399 . S
C540 C541 1.376 . S
C541 H528 0.931 1_556 S
C541 C540 1.376 . S
C541 C542 1.388 . S
C542 H529 0.930 . S
C542 C541 1.388 . S
C542 C543 1.390 . S
C543 C542 1.390 . S
C543 C544 1.394 . S
C543 C549 1.465 . S
C544 C539 1.399 . S
C544 C543 1.394 . S
C544 C545 1.516 . S
C545 C544 1.516 . S
C545 C546 1.502 1_565 S
C545 C547 1.561 . S
C545 C548 1.526 . S
C546 H530 0.959 . S
C546 H531 0.959 . S
C546 H532 0.961 . S
C546 C545 1.502 1_545 S
C547 H533 0.960 . S
C547 H534 0.961 1_565 S
C547 H535 0.959 . S
C547 C545 1.561 . S
C548 C545 1.526 . S
C548 C549 1.396 . S
C548 C553 1.390 1_565 S
C549 C543 1.465 . S
C549 C548 1.396 . S
C549 C550 1.399 . S
C550 H536 0.929 . S
C550 C549 1.399 . S
C550 C551 1.385 . S
C551 H537 0.931 . S
C551 C550 1.385 . S
C551 C552 1.389 . S
C552 C551 1.389 . S
C552 C553 1.387 1_565 S
C553 H538 0.930 . S
C553 C548 1.390 1_545 S
C553 C552 1.387 1_545 S
H554 C566 0.930 . S
H555 C568 0.930 . S
H556 C569 0.930 . S
H557 C573 0.959 . S
H558 C573 0.959 . S
H559 C573 0.961 1_554 S
H560 C574 0.960 . S
H561 C574 0.961 . S
H562 C574 0.959 . S
H563 C577 0.929 . S
H564 C578 0.931 . S
H565 C580 0.930 . S
C566 H554 0.930 . S
C566 C567 1.399 . S
C566 C571 1.399 1_554 S
C567 C566 1.399 . S
C567 C568 1.376 1_554 S
C568 H555 0.930 . S
C568 C567 1.376 1_556 S
C568 C569 1.388 . S
C569 H556 0.930 . S
C569 C568 1.388 . S
C569 C570 1.390 . S
C570 C569 1.390 . S
C570 C571 1.394 . S
C570 C576 1.465 . S
C571 C566 1.399 1_556 S
C571 C570 1.394 . S
C571 C572 1.516 . S
C572 C571 1.516 . S
C572 C573 1.502 . S
C572 C574 1.561 1_556 S
C572 C575 1.526 . S
C573 H557 0.959 . S
C573 H558 0.959 . S
C573 H559 0.961 1_556 S
C573 C572 1.502 . S
C574 H560 0.960 . S
C574 H561 0.961 . S
C574 H562 0.959 . S
C574 C572 1.561 1_554 S
C575 C572 1.526 . S
C575 C576 1.396 . S
C575 C580 1.390 . S
C576 C570 1.465 . S
C576 C575 1.396 . S
C576 C577 1.399 . S
C577 H563 0.929 . S
C577 C576 1.399 . S
C577 C578 1.385 . S
C578 H564 0.931 . S
C578 C577 1.385 . S
C578 C579 1.389 . S
C579 C578 1.389 . S
C579 C580 1.387 . S
C580 H565 0.930 . S
C580 C575 1.390 . S
C580 C579 1.387 . S
H581 C593 0.930 . S
H582 C595 0.930 . S
H583 C596 0.930 . S
H584 C600 0.959 . S
H585 C600 0.959 . S
H586 C600 0.961 . S
H587 C601 0.960 . S
H588 C601 0.961 . S
H589 C601 0.959 . S
H590 C604 0.929 . S
H591 C605 0.931 . S
H592 C607 0.930 . S
C593 H581 0.930 . S
C593 C594 1.399 . S
C593 C598 1.399 . S
C594 C593 1.399 . S
C594 C595 1.376 . S
C595 H582 0.930 . S
C595 C594 1.376 . S
C595 C596 1.388 . S
C596 H583 0.930 . S
C596 C595 1.388 . S
C596 C597 1.390 . S
C597 C596 1.390 . S
C597 C598 1.394 . S
C597 C603 1.465 . S
C598 C593 1.399 . S
C598 C597 1.394 . S
C598 C599 1.516 . S
C599 C598 1.516 . S
C599 C600 1.502 . S
C599 C601 1.561 . S
C599 C602 1.526 . S
C600 H584 0.959 . S
C600 H585 0.959 . S
C600 H586 0.961 . S
C600 C599 1.502 . S
C601 H587 0.960 . S
C601 H588 0.961 . S
C601 H589 0.959 . S
C601 C599 1.561 . S
C602 C599 1.526 . S
C602 C603 1.396 . S
C602 C607 1.390 . S
C603 C597 1.465 . S
C603 C602 1.396 . S
C603 C604 1.399 . S
C604 H590 0.929 . S
C604 C603 1.399 . S
C604 C605 1.385 . S
C605 H591 0.931 . S
C605 C604 1.385 . S
C605 C606 1.389 . S
C606 C605 1.389 . S
C606 C607 1.387 . S
C607 H592 0.930 . S
C607 C602 1.390 . S
C607 C606 1.387 . S
H608 C620 0.930 1_554 S
H609 C622 0.930 . S
H610 C623 0.930 . S
H611 C627 0.959 . S
H612 C627 0.959 . S
H613 C627 0.961 1_554 S
H614 C628 0.960 1_554 S
H615 C628 0.961 . S
H616 C628 0.959 . S
H617 C631 0.921 1_655 S
H618 C632 0.931 . S
H619 C634 0.930 . S
C620 H608 0.930 1_556 S
C620 C621 1.396 1_455 S
C620 C625 1.399 . S
C621 C620 1.396 1_655 S
C621 C622 1.379 . S
C622 H609 0.930 . S
C622 C621 1.379 . S
C622 C623 1.388 . S
C623 H610 0.930 . S
C623 C622 1.388 . S
C623 C624 1.393 . S
C624 C623 1.393 . S
C624 C625 1.392 1_655 S
C624 C630 1.463 1_655 S
C625 C620 1.399 . S
C625 C624 1.392 1_455 S
C625 C626 1.516 . S
C626 C625 1.516 . S
C626 C627 1.502 . S
C626 C628 1.561 1_455 S
C626 C629 1.526 . S
C627 H611 0.959 . S
C627 H612 0.959 . S
C627 H613 0.961 1_556 S
C627 C626 1.502 . S
C628 H614 0.960 1_556 S
C628 H615 0.961 . S
C628 H616 0.959 . S
C628 C626 1.561 1_655 S
C629 C626 1.526 . S
C629 C630 1.396 . S
C629 C634 1.390 . S
C630 C624 1.463 1_455 S
C630 C629 1.396 . S
C630 C631 1.401 . S
C631 H617 0.921 1_455 S
C631 C630 1.401 . S
C631 C632 1.395 . S
C632 H618 0.931 . S
C632 C631 1.395 . S
C632 C633 1.389 . S
C633 C632 1.389 . S
C633 C634 1.387 . S
C634 H619 0.930 . S
C634 C629 1.390 . S
C634 C633 1.387 . S
H635 C647 0.930 . S
H636 C649 0.930 1_554 S
H637 C650 0.930 1_565 S
H638 C654 0.959 . S
H639 C654 0.959 . S
H640 C654 0.961 . S
H641 C655 0.960 . S
H642 C655 0.961 . S
H643 C655 0.959 . S
H644 C658 0.929 . S
H645 C659 0.931 . S
H646 C661 0.930 . S
C647 H635 0.930 . S
C647 C648 1.399 . S
C647 C652 1.399 . S
C648 C647 1.399 . S
C648 C649 1.376 . S
C649 H636 0.930 1_556 S
C649 C648 1.376 . S
C649 C650 1.388 . S
C650 H637 0.930 1_545 S
C650 C649 1.388 . S
C650 C651 1.390 . S
C651 C650 1.390 . S
C651 C652 1.394 . S
C651 C657 1.465 . S
C652 C647 1.399 . S
C652 C651 1.394 . S
C652 C653 1.516 . S
C653 C652 1.516 . S
C653 C654 1.502 . S
C653 C655 1.561 . S
C653 C656 1.526 . S
C654 H638 0.959 . S
C654 H639 0.959 . S
C654 H640 0.961 . S
C654 C653 1.502 . S
C655 H641 0.960 . S
C655 H642 0.961 . S
C655 H643 0.959 . S
C655 C653 1.561 . S
C656 C653 1.526 . S
C656 C657 1.396 . S
C656 C661 1.390 . S
C657 C651 1.465 . S
C657 C656 1.396 . S
C657 C658 1.399 1_545 S
C658 H644 0.929 . S
C658 C657 1.399 1_565 S
C658 C659 1.385 . S
C659 H645 0.931 . S
C659 C658 1.385 . S
C659 C660 1.389 1_565 S
C660 C659 1.389 1_545 S
C660 C661 1.387 . S
C661 H646 0.930 . S
C661 C656 1.390 . S
C661 C660 1.387 . S
H662 C674 0.930 . S
H663 C676 0.930 . S
H664 C677 0.930 . S
H665 C681 0.959 . S
H666 C681 0.959 . S
H667 C681 0.961 . S
H668 C682 0.960 . S
H669 C682 0.961 . S
H670 C682 0.959 . S
H671 C685 0.929 . S
H672 C686 0.931 . S
H673 C688 0.930 . S
C674 H662 0.930 . S
C674 C675 1.399 . S
C674 C679 1.399 . S
C675 C674 1.399 . S
C675 C676 1.376 . S
C676 H663 0.930 . S
C676 C675 1.376 . S
C676 C677 1.388 . S
C677 H664 0.930 . S
C677 C676 1.388 . S
C677 C678 1.390 . S
C678 C677 1.390 . S
C678 C679 1.394 . S
C678 C684 1.465 . S
C679 C674 1.399 . S
C679 C678 1.394 . S
C679 C680 1.516 . S
C680 C679 1.516 . S
C680 C681 1.502 . S
C680 C682 1.561 . S
C680 C683 1.526 . S
C681 H665 0.959 . S
C681 H666 0.959 . S
C681 H667 0.961 . S
C681 C680 1.502 . S
C682 H668 0.960 . S
C682 H669 0.961 . S
C682 H670 0.959 . S
C682 C680 1.561 . S
C683 C680 1.526 . S
C683 C684 1.396 . S
C683 C688 1.390 . S
C684 C678 1.465 . S
C684 C683 1.396 . S
C684 C685 1.399 . S
C685 H671 0.929 . S
C685 C684 1.399 . S
C685 C686 1.385 . S
C686 H672 0.931 . S
C686 C685 1.385 . S
C686 C687 1.389 . S
C687 C686 1.389 . S
C687 C688 1.387 . S
C688 H673 0.930 . S
C688 C683 1.390 . S
C688 C687 1.387 . S
H689 C701 0.930 . S
H690 C703 0.930 . S
H691 C704 0.930 . S
H692 C708 0.959 . S
H693 C708 0.959 . S
H694 C708 0.961 . S
H695 C709 0.960 . S
H696 C709 0.961 . S
H697 C709 0.959 . S
H698 C712 0.929 . S
H699 C713 0.931 . S
H700 C715 0.930 . S
C701 H689 0.930 . S
C701 C702 1.399 . S
C701 C706 1.399 . S
C702 C701 1.399 . S
C702 C703 1.376 . S
C703 H690 0.930 . S
C703 C702 1.376 . S
C703 C704 1.388 . S
C704 H691 0.930 . S
C704 C703 1.388 . S
C704 C705 1.390 . S
C705 C704 1.390 . S
C705 C706 1.394 . S
C705 C711 1.465 . S
C706 C701 1.399 . S
C706 C705 1.394 . S
C706 C707 1.516 . S
C707 C706 1.516 . S
C707 C708 1.502 . S
C707 C709 1.561 . S
C707 C710 1.526 . S
C708 H692 0.959 . S
C708 H693 0.959 . S
C708 H694 0.961 . S
C708 C707 1.502 . S
C709 H695 0.960 . S
C709 H696 0.961 . S
C709 H697 0.959 . S
C709 C707 1.561 . S
C710 C707 1.526 . S
C710 C711 1.396 . S
C710 C715 1.390 . S
C711 C705 1.465 . S
C711 C710 1.396 . S
C711 C712 1.399 . S
C712 H698 0.929 . S
C712 C711 1.399 . S
C712 C713 1.385 . S
C713 H699 0.931 . S
C713 C712 1.385 . S
C713 C714 1.389 . S
C714 C713 1.389 . S
C714 C715 1.387 . S
C715 H700 0.930 . S
C715 C710 1.390 . S
C715 C714 1.387 . S
H716 C728 0.930 . S
H717 C730 0.930 . S
H718 C731 0.930 . S
H719 C735 0.959 . S
H720 C735 0.959 . S
H721 C735 0.961 . S
H722 C736 0.960 . S
H723 C736 0.961 . S
H724 C736 0.959 . S
H725 C739 0.929 . S
H726 C740 0.931 . S
H727 C742 0.930 . S
C728 H716 0.930 . S
C728 C729 1.399 . S
C728 C733 1.399 . S
C729 C728 1.399 . S
C729 C730 1.376 . S
C730 H717 0.930 . S
C730 C729 1.376 . S
C730 C731 1.388 . S
C731 H718 0.930 . S
C731 C730 1.388 . S
C731 C732 1.390 . S
C732 C731 1.390 . S
C732 C733 1.394 . S
C732 C738 1.465 . S
C733 C728 1.399 . S
C733 C732 1.394 . S
C733 C734 1.516 . S
C734 C733 1.516 . S
C734 C735 1.502 1_655 S
C734 C736 1.561 . S
C734 C737 1.526 . S
C735 H719 0.959 . S
C735 H720 0.959 . S
C735 H721 0.961 . S
C735 C734 1.502 1_455 S
C736 H722 0.960 . S
C736 H723 0.961 . S
C736 H724 0.959 . S
C736 C734 1.561 . S
C737 C734 1.526 . S
C737 C738 1.396 . S
C737 C742 1.390 . S
C738 C732 1.465 . S
C738 C737 1.396 . S
C738 C739 1.399 . S
C739 H725 0.929 . S
C739 C738 1.399 . S
C739 C740 1.385 . S
C740 H726 0.931 . S
C740 C739 1.385 . S
C740 C741 1.389 . S
C741 C740 1.389 . S
C741 C742 1.387 . S
C742 H727 0.930 . S
C742 C737 1.390 . S
C742 C741 1.387 . S
H743 C755 0.930 . S
H744 C757 0.930 . S
H745 C758 0.930 1_545 S
H746 C762 0.959 . S
H747 C762 0.959 . S
H748 C762 0.961 . S
H749 C763 0.960 . S
H750 C763 0.961 . S
H751 C763 0.959 . S
H752 C766 0.929 . S
H753 C767 0.931 . S
H754 C769 0.930 . S
C755 H743 0.930 . S
C755 C756 1.399 . S
C755 C760 1.399 . S
C756 C755 1.399 . S
C756 C757 1.376 . S
C757 H744 0.930 . S
C757 C756 1.376 . S
C757 C758 1.388 . S
C758 H745 0.930 1_565 S
C758 C757 1.388 . S
C758 C759 1.390 . S
C759 C758 1.390 . S
C759 C760 1.394 . S
C759 C765 1.465 . S
C760 C755 1.399 . S
C760 C759 1.394 . S
C760 C761 1.516 . S
C761 C760 1.516 . S
C761 C762 1.502 . S
C761 C763 1.561 . S
C761 C764 1.526 . S
C762 H746 0.959 . S
C762 H747 0.959 . S
C762 H748 0.961 . S
C762 C761 1.502 . S
C763 H749 0.960 . S
C763 H750 0.961 . S
C763 H751 0.959 . S
C763 C761 1.561 . S
C764 C761 1.526 . S
C764 C765 1.396 . S
C764 C769 1.390 . S
C765 C759 1.465 . S
C765 C764 1.396 . S
C765 C766 1.399 1_565 S
C766 H752 0.929 . S
C766 C765 1.399 1_545 S
C766 C767 1.385 . S
C767 H753 0.931 . S
C767 C766 1.385 . S
C767 C768 1.389 1_545 S
C768 C767 1.389 1_565 S
C768 C769 1.387 . S
C769 H754 0.930 . S
C769 C764 1.390 . S
C769 C768 1.387 . S
H770 C782 0.930 . S
H771 C784 0.930 . S
H772 C785 0.930 . S
H773 C789 0.959 . S
H774 C789 0.959 . S
H775 C789 0.961 . S
H776 C790 0.960 . S
H777 C790 0.961 . S
H778 C790 0.959 . S
H779 C793 0.929 . S
H780 C794 0.931 . S
H781 C796 0.930 . S
C782 H770 0.930 . S
C782 C783 1.399 . S
C782 C787 1.399 . S
C783 C782 1.399 . S
C783 C784 1.376 . S
C784 H771 0.930 . S
C784 C783 1.376 . S
C784 C785 1.388 . S
C785 H772 0.930 . S
C785 C784 1.388 . S
C785 C786 1.390 . S
C786 C785 1.390 . S
C786 C787 1.394 . S
C786 C792 1.465 . S
C787 C782 1.399 . S
C787 C786 1.394 . S
C787 C788 1.516 . S
C788 C787 1.516 . S
C788 C789 1.502 . S
C788 C790 1.561 . S
C788 C791 1.526 . S
C789 H773 0.959 . S
C789 H774 0.959 . S
C789 H775 0.961 . S
C789 C788 1.502 . S
C790 H776 0.960 . S
C790 H777 0.961 . S
C790 H778 0.959 . S
C790 C788 1.561 . S
C791 C788 1.526 . S
C791 C792 1.396 . S
C791 C796 1.390 . S
C792 C786 1.465 . S
C792 C791 1.396 . S
C792 C793 1.399 . S
C793 H779 0.929 . S
C793 C792 1.399 . S
C793 C794 1.385 . S
C794 H780 0.931 . S
C794 C793 1.385 . S
C794 C795 1.389 . S
C795 C794 1.389 . S
C795 C796 1.387 . S
C796 H781 0.930 . S
C796 C791 1.390 . S
C796 C795 1.387 . S
H797 C809 0.930 . S
H798 C811 0.930 . S
H799 C812 0.930 . S
H800 C816 0.959 . S
H801 C816 0.959 . S
H802 C816 0.961 . S
H803 C817 0.960 . S
H804 C817 0.961 . S
H805 C817 0.959 . S
H806 C820 0.929 . S
H807 C821 0.931 . S
H808 C823 0.930 . S
C809 H797 0.930 . S
C809 C810 1.399 . S
C809 C814 1.399 . S
C810 C809 1.399 . S
C810 C811 1.376 . S
C811 H798 0.930 . S
C811 C810 1.376 . S
C811 C812 1.388 . S
C812 H799 0.930 . S
C812 C811 1.388 . S
C812 C813 1.390 . S
C813 C812 1.390 . S
C813 C814 1.394 . S
C813 C819 1.465 . S
C814 C809 1.399 . S
C814 C813 1.394 . S
C814 C815 1.516 . S
C815 C814 1.516 . S
C815 C816 1.502 . S
C815 C817 1.561 . S
C815 C818 1.526 . S
C816 H800 0.959 . S
C816 H801 0.959 . S
C816 H802 0.961 . S
C816 C815 1.502 . S
C817 H803 0.960 . S
C817 H804 0.961 . S
C817 H805 0.959 . S
C817 C815 1.561 . S
C818 C815 1.526 . S
C818 C819 1.396 . S
C818 C823 1.390 . S
C819 C813 1.465 . S
C819 C818 1.396 . S
C819 C820 1.399 . S
C820 H806 0.929 . S
C820 C819 1.399 . S
C820 C821 1.385 . S
C821 H807 0.931 . S
C821 C820 1.385 . S
C821 C822 1.389 . S
C822 C821 1.389 . S
C822 C823 1.387 . S
C823 H808 0.930 . S
C823 C818 1.390 . S
C823 C822 1.387 . S
C189 C76 1.632 . S
C201 C104 1.705 . S
C228 C134 1.823 . S
C216 C88 1.692 . S
C255 C144 1.540 . S
C243 C52 1.423 . S
C282 C164 1.415 1_455 S
C270 C64 1.362 1_455 S
C309 C105 1.717 . S
C297 C28 1.684 . S
C324 C40 1.712 . S
C336 C135 1.823 . S
C351 C4 1.502 1_556 S
C363 C145 1.539 . S
C378 C16 1.301 . S
C390 C165 1.396 . S
C417 C97 0.872 . S
C405 C69 0.890 . S
C444 C118 0.542 . S
C432 C81 0.679 . S
C471 C137 0.983 . S
C459 C93 0.947 . S
C486 C57 0.775 . S
C498 C157 0.769 . S
C513 C21 0.831 . S
C525 C98 0.866 . S
C552 C117 0.592 1_565 S
C540 C33 0.650 . S
C579 C138 1.034 . S
C567 C45 0.983 . S
C594 C9 0.696 1_556 S
C606 C158 0.760 . S
C621 C66 1.556 1_655 S
C633 C115 1.590 . S
C648 C78 1.350 1_556 S
C660 C125 1.499 . S
C687 C155 1.809 . S
C675 C90 1.668 . S
C714 C175 1.768 . S
C702 C54 1.663 . S
C729 C18 1.559 1_655 S
C741 C114 1.598 . S
C768 C124 1.504 . S
C756 C30 1.381 . S
C795 C154 1.811 . S
C783 C42 1.708 . S
C810 C6 1.714 . S
C822 C174 1.773 . S
