# Generated by pormake.
# Topology ptr, (4,4)-cn, num edge types: 1
# Building blocks:
#     Node 0, Type 0, BuildingBlock: CEKHIL_clean_sbu_0, # of connection points: 4
#     Node 1, Type 0, BuildingBlock: CEKHIL_clean_sbu_0, # of connection points: 4
#     Node 2, Type 0, BuildingBlock: CEKHIL_clean_sbu_0, # of connection points: 4
#     Node 3, Type 0, BuildingBlock: CEKHIL_clean_sbu_0, # of connection points: 4
#     Node 4, Type 0, BuildingBlock: CEKHIL_clean_sbu_0, # of connection points: 4
#     Node 5, Type 0, BuildingBlock: CEKHIL_clean_sbu_0, # of connection points: 4
#     Node 6, Type 0, BuildingBlock: CEKHIL_clean_sbu_0, # of connection points: 4
#     Node 7, Type 0, BuildingBlock: CEKHIL_clean_sbu_0, # of connection points: 4
#     Node 8, Type 0, BuildingBlock: CEKHIL_clean_sbu_0, # of connection points: 4
#     Node 9, Type 0, BuildingBlock: CEKHIL_clean_sbu_0, # of connection points: 4
#     Node 10, Type 0, BuildingBlock: CEKHIL_clean_sbu_0, # of connection points: 4
#     Node 11, Type 0, BuildingBlock: CEKHIL_clean_sbu_0, # of connection points: 4
#     Node 12, Type 0, BuildingBlock: CEKHIL_clean_sbu_0, # of connection points: 4
#     Node 13, Type 0, BuildingBlock: CEKHIL_clean_sbu_0, # of connection points: 4
#     Node 14, Type 0, BuildingBlock: CEKHIL_clean_sbu_0, # of connection points: 4
#     Node 15, Type 0, BuildingBlock: CEKHIL_clean_sbu_0, # of connection points: 4
#     Node 16, Type 0, BuildingBlock: CEKHIL_clean_sbu_0, # of connection points: 4
#     Node 17, Type 0, BuildingBlock: CEKHIL_clean_sbu_0, # of connection points: 4
#     Node 18, Type 1, BuildingBlock: KUFVIS_clean_linker_0, # of connection points: 4
#     Node 19, Type 1, BuildingBlock: KUFVIS_clean_linker_0, # of connection points: 4
#     Node 20, Type 1, BuildingBlock: KUFVIS_clean_linker_0, # of connection points: 4
#     Node 21, Type 1, BuildingBlock: KUFVIS_clean_linker_0, # of connection points: 4
#     Node 22, Type 1, BuildingBlock: KUFVIS_clean_linker_0, # of connection points: 4
#     Node 23, Type 1, BuildingBlock: KUFVIS_clean_linker_0, # of connection points: 4
#     Node 24, Type 1, BuildingBlock: KUFVIS_clean_linker_0, # of connection points: 4
#     Node 25, Type 1, BuildingBlock: KUFVIS_clean_linker_0, # of connection points: 4
#     Node 26, Type 1, BuildingBlock: KUFVIS_clean_linker_0, # of connection points: 4
#     Node 27, Type 1, BuildingBlock: KUFVIS_clean_linker_0, # of connection points: 4
#     Node 28, Type 1, BuildingBlock: KUFVIS_clean_linker_0, # of connection points: 4
#     Node 29, Type 1, BuildingBlock: KUFVIS_clean_linker_0, # of connection points: 4
#     Node 30, Type 1, BuildingBlock: KUFVIS_clean_linker_0, # of connection points: 4
#     Node 31, Type 1, BuildingBlock: KUFVIS_clean_linker_0, # of connection points: 4
#     Node 32, Type 1, BuildingBlock: KUFVIS_clean_linker_0, # of connection points: 4
#     Node 33, Type 1, BuildingBlock: KUFVIS_clean_linker_0, # of connection points: 4
#     Node 34, Type 1, BuildingBlock: KUFVIS_clean_linker_0, # of connection points: 4
#     Node 35, Type 1, BuildingBlock: KUFVIS_clean_linker_0, # of connection points: 4
#     Edge 36, Type (0, 1), BuildingBlock: XUDNAN_clean_linker_2, # of connection points: 2
#     Edge 37, Type (0, 1), BuildingBlock: XUDNAN_clean_linker_2, # of connection points: 2
#     Edge 38, Type (0, 1), BuildingBlock: XUDNAN_clean_linker_2, # of connection points: 2
#     Edge 39, Type (0, 1), BuildingBlock: XUDNAN_clean_linker_2, # of connection points: 2
#     Edge 40, Type (0, 1), BuildingBlock: XUDNAN_clean_linker_2, # of connection points: 2
#     Edge 41, Type (0, 1), BuildingBlock: XUDNAN_clean_linker_2, # of connection points: 2
#     Edge 42, Type (0, 1), BuildingBlock: XUDNAN_clean_linker_2, # of connection points: 2
#     Edge 43, Type (0, 1), BuildingBlock: XUDNAN_clean_linker_2, # of connection points: 2
#     Edge 44, Type (0, 1), BuildingBlock: XUDNAN_clean_linker_2, # of connection points: 2
#     Edge 45, Type (0, 1), BuildingBlock: XUDNAN_clean_linker_2, # of connection points: 2
#     Edge 46, Type (0, 1), BuildingBlock: XUDNAN_clean_linker_2, # of connection points: 2
#     Edge 47, Type (0, 1), BuildingBlock: XUDNAN_clean_linker_2, # of connection points: 2
#     Edge 48, Type (0, 1), BuildingBlock: XUDNAN_clean_linker_2, # of connection points: 2
#     Edge 49, Type (0, 1), BuildingBlock: XUDNAN_clean_linker_2, # of connection points: 2
#     Edge 50, Type (0, 1), BuildingBlock: XUDNAN_clean_linker_2, # of connection points: 2
#     Edge 51, Type (0, 1), BuildingBlock: XUDNAN_clean_linker_2, # of connection points: 2
#     Edge 52, Type (0, 1), BuildingBlock: XUDNAN_clean_linker_2, # of connection points: 2
#     Edge 53, Type (0, 1), BuildingBlock: XUDNAN_clean_linker_2, # of connection points: 2
#     Edge 54, Type (0, 1), BuildingBlock: XUDNAN_clean_linker_2, # of connection points: 2
#     Edge 55, Type (0, 1), BuildingBlock: XUDNAN_clean_linker_2, # of connection points: 2
#     Edge 56, Type (0, 1), BuildingBlock: XUDNAN_clean_linker_2, # of connection points: 2
#     Edge 57, Type (0, 1), BuildingBlock: XUDNAN_clean_linker_2, # of connection points: 2
#     Edge 58, Type (0, 1), BuildingBlock: XUDNAN_clean_linker_2, # of connection points: 2
#     Edge 59, Type (0, 1), BuildingBlock: XUDNAN_clean_linker_2, # of connection points: 2
#     Edge 60, Type (0, 1), BuildingBlock: XUDNAN_clean_linker_2, # of connection points: 2
#     Edge 61, Type (0, 1), BuildingBlock: XUDNAN_clean_linker_2, # of connection points: 2
#     Edge 62, Type (0, 1), BuildingBlock: XUDNAN_clean_linker_2, # of connection points: 2
#     Edge 63, Type (0, 1), BuildingBlock: XUDNAN_clean_linker_2, # of connection points: 2
#     Edge 64, Type (0, 1), BuildingBlock: XUDNAN_clean_linker_2, # of connection points: 2
#     Edge 65, Type (0, 1), BuildingBlock: XUDNAN_clean_linker_2, # of connection points: 2
#     Edge 66, Type (0, 1), BuildingBlock: XUDNAN_clean_linker_2, # of connection points: 2
#     Edge 67, Type (0, 1), BuildingBlock: XUDNAN_clean_linker_2, # of connection points: 2
#     Edge 68, Type (0, 1), BuildingBlock: XUDNAN_clean_linker_2, # of connection points: 2
#     Edge 69, Type (0, 1), BuildingBlock: XUDNAN_clean_linker_2, # of connection points: 2
#     Edge 70, Type (0, 1), BuildingBlock: XUDNAN_clean_linker_2, # of connection points: 2
#     Edge 71, Type (0, 1), BuildingBlock: XUDNAN_clean_linker_2, # of connection points: 2
#     Edge 72, Type (0, 1), BuildingBlock: XUDNAN_clean_linker_2, # of connection points: 2
#     Edge 73, Type (0, 1), BuildingBlock: XUDNAN_clean_linker_2, # of connection points: 2
#     Edge 74, Type (0, 1), BuildingBlock: XUDNAN_clean_linker_2, # of connection points: 2
#     Edge 75, Type (0, 1), BuildingBlock: XUDNAN_clean_linker_2, # of connection points: 2
#     Edge 76, Type (0, 1), BuildingBlock: XUDNAN_clean_linker_2, # of connection points: 2
#     Edge 77, Type (0, 1), BuildingBlock: XUDNAN_clean_linker_2, # of connection points: 2
#     Edge 78, Type (0, 1), BuildingBlock: XUDNAN_clean_linker_2, # of connection points: 2
#     Edge 79, Type (0, 1), BuildingBlock: XUDNAN_clean_linker_2, # of connection points: 2
#     Edge 80, Type (0, 1), BuildingBlock: XUDNAN_clean_linker_2, # of connection points: 2
#     Edge 81, Type (0, 1), BuildingBlock: XUDNAN_clean_linker_2, # of connection points: 2
#     Edge 82, Type (0, 1), BuildingBlock: XUDNAN_clean_linker_2, # of connection points: 2
#     Edge 83, Type (0, 1), BuildingBlock: XUDNAN_clean_linker_2, # of connection points: 2
#     Edge 84, Type (0, 1), BuildingBlock: XUDNAN_clean_linker_2, # of connection points: 2
#     Edge 85, Type (0, 1), BuildingBlock: XUDNAN_clean_linker_2, # of connection points: 2
#     Edge 86, Type (0, 1), BuildingBlock: XUDNAN_clean_linker_2, # of connection points: 2
#     Edge 87, Type (0, 1), BuildingBlock: XUDNAN_clean_linker_2, # of connection points: 2
#     Edge 88, Type (0, 1), BuildingBlock: XUDNAN_clean_linker_2, # of connection points: 2
#     Edge 89, Type (0, 1), BuildingBlock: XUDNAN_clean_linker_2, # of connection points: 2
#     Edge 90, Type (0, 1), BuildingBlock: XUDNAN_clean_linker_2, # of connection points: 2
#     Edge 91, Type (0, 1), BuildingBlock: XUDNAN_clean_linker_2, # of connection points: 2
#     Edge 92, Type (0, 1), BuildingBlock: XUDNAN_clean_linker_2, # of connection points: 2
#     Edge 93, Type (0, 1), BuildingBlock: XUDNAN_clean_linker_2, # of connection points: 2
#     Edge 94, Type (0, 1), BuildingBlock: XUDNAN_clean_linker_2, # of connection points: 2
#     Edge 95, Type (0, 1), BuildingBlock: XUDNAN_clean_linker_2, # of connection points: 2
#     Edge 96, Type (0, 1), BuildingBlock: XUDNAN_clean_linker_2, # of connection points: 2
#     Edge 97, Type (0, 1), BuildingBlock: XUDNAN_clean_linker_2, # of connection points: 2
#     Edge 98, Type (0, 1), BuildingBlock: XUDNAN_clean_linker_2, # of connection points: 2
#     Edge 99, Type (0, 1), BuildingBlock: XUDNAN_clean_linker_2, # of connection points: 2
#     Edge 100, Type (0, 1), BuildingBlock: XUDNAN_clean_linker_2, # of connection points: 2
#     Edge 101, Type (0, 1), BuildingBlock: XUDNAN_clean_linker_2, # of connection points: 2
#     Edge 102, Type (0, 1), BuildingBlock: XUDNAN_clean_linker_2, # of connection points: 2
#     Edge 103, Type (0, 1), BuildingBlock: XUDNAN_clean_linker_2, # of connection points: 2
#     Edge 104, Type (0, 1), BuildingBlock: XUDNAN_clean_linker_2, # of connection points: 2
#     Edge 105, Type (0, 1), BuildingBlock: XUDNAN_clean_linker_2, # of connection points: 2
#     Edge 106, Type (0, 1), BuildingBlock: XUDNAN_clean_linker_2, # of connection points: 2
#     Edge 107, Type (0, 1), BuildingBlock: XUDNAN_clean_linker_2, # of connection points: 2
# Relax obj value: 0.047
# Max RMSD: 0.105
# Mean RMSD: 0.081
data_MOF--net-ptr--node1-CEKHIL_clean_sbu_0--node2-KUFVIS_clean_linker_0--edge1-XUDNAN_clean_linker_2
_symmetry_space_group_name_H-M    P1
_symmetry_Int_Tables_number       1
_symmetry_cell_setting            triclinic
loop_
_symmetry_equiv_pos_as_xyz
'x, y, z'
_cell_length_a     78.559452
_cell_length_b     77.826043
_cell_length_c     49.490111
_cell_angle_alpha  90.695463
_cell_angle_beta   89.71088
_cell_angle_gamma 120.85205
loop_
_atom_site_label
_atom_site_type_symbol
_atom_site_fract_x
_atom_site_fract_y
_atom_site_fract_z
_atom_type_partial_charge
Co0 Co 0.01469 0.35629 0.0143 0.0
O1 O 0.02618 0.34536 0.03856 0.0
O2 O 0.04335 0.37097 0.01162 0.0
C3 C 0.99043 0.32569 0.99856 0.0
O4 O 1.00959 0.37204 0.98578 0.0
Co5 Co 0.97099 0.34645 0.01438 0.0
O6 O 0.97766 0.36301 0.98159 0.0
C7 C 0.99972 0.37356 0.0564 0.0
C8 C 0.0434 0.3587 0.0291 0.0
C9 C 0.99573 0.37368 0.97453 0.0
O10 O 0.0148 0.37478 0.04388 0.0
O11 O 0.98175 0.36174 0.04894 0.0
O12 O 1.00818 0.33415 0.98829 0.0
O13 O 0.98815 0.33566 0.01763 0.0
Co14 Co 0.66576 0.66051 0.00783 0.0
O15 O 0.6862 0.67282 0.98073 0.0
O16 O 0.68286 0.64921 0.00843 0.0
C17 C 0.67008 0.69031 0.02267 0.0
O18 O 0.64722 0.64455 0.03895 0.0
Co19 Co 0.62894 0.66568 0.01007 0.0
O20 O 0.62341 0.65205 0.04531 0.0
C21 C 0.62895 0.6343 0.97458 0.0
C22 C 0.69299 0.66184 0.98949 0.0
C23 C 0.63205 0.64263 0.05189 0.0
O24 O 0.64663 0.63902 0.98175 0.0
O25 O 0.62044 0.64378 0.98248 0.0
O26 O 0.68141 0.68398 0.03157 0.0
O27 O 0.65714 0.67893 0.00495 0.0
Co28 Co 0.36214 1.00489 0.00945 0.0
O29 O 0.35161 0.01878 0.98983 0.0
O30 O 0.37537 0.03315 0.02039 0.0
C31 C 0.33213 0.9777 0.01948 0.0
O32 O 0.37627 0.99492 0.03432 0.0
Co33 Co 0.35359 0.96323 0.98824 0.0
O34 O 0.36603 0.96297 0.02282 0.0
C35 C 0.38716 1.00039 0.96571 0.0
C36 C 0.36382 0.03482 0.00317 0.0
C37 C 0.37613 0.97839 0.0378 0.0
O38 O 0.38318 0.01142 0.98095 0.0
O39 O 0.37672 0.98126 0.96491 0.0
O40 O 0.33944 0.99381 0.03436 0.0
O41 O 0.34212 0.97909 0.99808 0.0
Co42 Co 1.00573 0.658 0.00867 0.0
O43 O 0.99454 0.66941 0.98503 0.0
O44 O 0.97744 0.64608 0.01513 0.0
C45 C 0.03309 0.68773 0.02062 0.0
O46 O 1.01162 0.64265 0.03694 0.0
Co47 Co 0.04707 0.66267 0.99886 0.0
O48 O 0.04348 0.65069 0.03513 0.0
C49 C 1.01209 0.63283 0.96693 0.0
C50 C 0.97753 0.65766 0.99633 0.0
C51 C 0.02637 0.64146 0.04595 0.0
O52 O 1.0004 0.63648 0.98096 0.0
O53 O 0.03099 0.64272 0.96976 0.0
O54 O 0.01625 0.68166 0.03276 0.0
O55 O 0.0325 0.67644 0.00096 0.0
Co56 Co 0.36215 0.3551 0.00891 0.0
O57 O 0.33838 0.34559 0.0302 0.0
O58 O 0.34821 0.36891 -0.00084 0.0
C59 C 0.35748 0.32432 -0.00092 0.0
O60 O 0.38566 0.36834 0.9825 0.0
Co61 Co 0.39505 0.34654 0.02746 0.0
O62 O 0.40708 0.35814 0.9921 0.0
C63 C 0.3913 0.37864 0.05425 0.0
C64 C 0.33516 0.35807 0.01736 0.0
C65 C 0.40162 0.3679 0.9776 0.0
O66 O 0.37815 0.37652 0.03694 0.0
O67 O 0.39831 0.36698 0.05513 0.0
O68 O 0.3485 0.33137 0.98504 0.0
O69 O 0.36734 0.33518 0.01954 0.0
Co70 Co 0.66417 1.00566 0.00918 0.0
O71 O 0.67505 0.99389 0.03295 0.0
O72 O 0.65059 0.97683 0.00407 0.0
C73 C 0.69382 0.03153 0.99463 0.0
O74 O 0.64891 0.01144 0.9809 0.0
Co75 Co 0.67113 0.04833 0.01724 0.0
O76 O 0.65613 0.04331 0.98301 0.0
C77 C 0.64169 0.01543 0.05136 0.0
C78 C 0.66234 0.97664 0.02228 0.0
C79 C 0.64687 0.02587 0.97238 0.0
O80 O 0.64405 1.00265 0.03748 0.0
O81 O 0.65234 0.03437 0.04797 0.0
O82 O 0.68641 0.01374 0.98408 0.0
O83 O 0.68411 0.03288 0.01484 0.0
Co84 Co 0.68076 0.6922 0.34569 0.0
O85 O 0.69428 0.68185 0.36618 0.0
O86 O 0.70907 0.70637 0.33696 0.0
C87 C 0.65489 0.66185 0.33364 0.0
O88 O 0.67112 0.70633 0.32044 0.0
Co89 Co 0.6386 0.68212 0.36423 0.0
O90 O 0.63912 0.69541 0.33008 0.0
C91 C 0.67406 0.71372 0.39271 0.0
C92 C 0.71053 0.69467 0.35422 0.0
C93 C 0.65469 0.70592 0.31604 0.0
O94 O 0.68555 0.71239 0.37522 0.0
O95 O 0.65525 0.70174 0.39317 0.0
O96 O 0.67123 0.66978 0.31979 0.0
O97 O 0.65527 0.67151 0.35509 0.0
Co98 Co 0.33006 0.99853 0.33395 0.0
O99 O 0.35178 0.01199 0.30862 0.0
O100 O 0.34592 0.98582 0.33266 0.0
C101 C 0.3352 0.02775 0.35272 0.0
O102 O 0.31025 0.98096 0.36312 0.0
Co103 Co 0.2944 1.00545 0.33824 0.0
O104 O 0.28685 0.9888 0.37099 0.0
C105 C 0.29651 0.98055 0.29354 0.0
C106 C 0.35734 0.9996 0.31567 0.0
C107 C 0.29497 0.97865 0.37621 0.0
O108 O 0.31129 0.98023 0.30444 0.0
O109 O 0.28961 0.99122 0.30273 0.0
O110 O 0.34564 0.0201 0.36074 0.0
O111 O 0.32263 0.01786 0.33392 0.0
Co112 Co 0.03428 0.34828 0.34721 0.0
O113 O 0.02426 0.36096 0.32382 0.0
O114 O 0.04806 0.377 0.35397 0.0
C115 C 1.00384 0.3221 0.35894 0.0
O116 O 0.04854 0.34104 0.37538 0.0
Co117 Co 0.02651 0.30537 0.33724 0.0
O118 O 0.03903 0.30847 0.37313 0.0
C119 C 0.05723 0.33929 0.30525 0.0
C120 C 0.03692 0.37785 0.33533 0.0
C121 C 0.04899 0.32573 0.38412 0.0
O122 O 0.05491 0.35194 0.31949 0.0
O123 O 0.04628 0.32028 0.30787 0.0
O124 O 1.0112 0.33932 0.37128 0.0
O125 O 0.01445 0.32163 0.33931 0.0
Co126 Co 0.67658 0.99375 0.34672 0.0
O127 O 0.663 1.00351 0.32484 0.0
O128 O 0.64827 0.98021 0.35561 0.0
C129 C 0.70327 0.02455 0.35668 0.0
O130 O 0.68617 0.98019 0.37345 0.0
Co131 Co 0.71861 1.00259 0.32845 0.0
O132 O 0.71795 0.99024 0.36345 0.0
C133 C 0.68265 0.97115 0.3008 0.0
C134 C 0.64672 0.99114 0.33716 0.0
C135 C 0.70251 0.98039 0.378 0.0
O136 O 0.67134 0.97243 0.31868 0.0
O137 O 0.7014 0.9833 0.29972 0.0
O138 O 0.687 0.01768 0.3706 0.0
O139 O 0.70213 0.01353 0.33645 0.0
Co140 Co 0.02399 0.68994 0.34309 0.0
O141 O 1.00234 0.68051 0.36876 0.0
O142 O 1.01026 0.70448 0.33914 0.0
C143 C 0.01737 0.65918 0.32923 0.0
O144 O 0.04433 0.70386 0.31317 0.0
Co145 Co 0.05827 0.68092 0.34625 0.0
O146 O 0.06665 0.69405 0.31064 0.0
C147 C 0.06044 0.71487 0.37793 0.0
C148 C 0.99854 0.69344 0.35831 0.0
C149 C 0.05946 0.70438 0.30212 0.0
O150 O 0.04328 0.71085 0.36949 0.0
O151 O 0.0683 0.70444 0.37172 0.0
O152 O 1.00743 0.66685 0.3195 0.0
O153 O 0.0299 0.66949 0.34806 0.0
Co154 Co 0.33136 0.3418 0.35 0.0
O155 O 0.34285 0.33252 0.37658 0.0
O156 O 0.31656 0.31267 0.35174 0.0
C157 C 0.36114 0.36418 0.33101 0.0
O158 O 0.31543 0.34491 0.31963 0.0
Co159 Co 0.34184 0.38598 0.34523 0.0
O160 O 0.32657 0.37724 0.31105 0.0
C161 C 0.31215 0.3592 0.38597 0.0
C162 C 0.32948 0.31441 0.36951 0.0
C163 C 0.31509 0.3587 0.30583 0.0
O164 O 0.31335 0.34398 0.37787 0.0
O165 O 0.32321 0.37687 0.37672 0.0
O166 O 0.35215 0.34532 0.32437 0.0
O167 O 0.35252 0.36875 0.34954 0.0
Co168 Co 0.35055 0.02283 0.67377 0.0
O169 O 0.36397 0.01191 0.69343 0.0
O170 O 0.37906 0.03817 0.66679 0.0
C171 C 0.32549 0.99288 0.65854 0.0
O172 O 0.3412 0.03787 0.64967 0.0
Co173 Co 0.30765 0.0111 0.69109 0.0
O174 O 0.30897 0.0263 0.65861 0.0
C175 C 0.34199 0.04233 0.72186 0.0
C176 C 0.38034 0.02573 0.68283 0.0
C177 C 0.32482 0.03761 0.64552 0.0
O178 O 0.35403 0.04141 0.70493 0.0
O179 O 0.32319 0.03041 0.72098 0.0
O180 O 0.34243 1.0017 0.64611 0.0
O181 O 0.32486 1.00135 0.68072 0.0
Co182 Co 0.99923 0.32436 0.67939 0.0
O183 O 0.02302 0.33415 0.65804 0.0
O184 O 0.01386 0.31141 0.68979 0.0
C185 C 1.00283 0.35477 0.68873 0.0
O186 O 0.97574 0.31092 0.70577 0.0
Co187 Co 0.96563 0.33152 0.65939 0.0
O188 O 0.95358 0.31987 0.69473 0.0
C189 C 0.96898 0.29819 0.63631 0.0
C190 C 0.02672 0.32216 0.67134 0.0
C191 C 0.95932 0.31064 0.70983 0.0
O192 O 0.98348 0.30217 0.65222 0.0
O193 O 0.96073 0.30869 0.63502 0.0
O194 O 1.01235 0.34834 0.70278 0.0
O195 O 0.99331 0.34372 0.66818 0.0
Co196 Co 0.69035 0.67764 0.67803 0.0
O197 O 0.67937 0.6912 0.6585 0.0
O198 O 0.70505 0.70648 0.68596 0.0
C199 C 0.66058 0.65173 0.69232 0.0
O200 O 0.7054 0.66828 0.70213 0.0
Co201 Co 0.6794 0.63477 0.65908 0.0
O202 O 0.69472 0.63607 0.69145 0.0
C203 C 0.71094 0.66993 0.6305 0.0
C204 C 0.69275 0.70776 0.66975 0.0
C205 C 0.70562 0.6519 0.70534 0.0
O206 O 0.70934 0.68178 0.64739 0.0
O207 O 0.69926 0.65091 0.63047 0.0
O208 O 0.66909 0.66878 0.70517 0.0
O209 O 0.66916 0.65152 0.67017 0.0
Co210 Co 0.34052 0.32226 0.68944 0.0
O211 O 0.32641 0.33011 0.66528 0.0
O212 O 0.31199 0.30385 0.69196 0.0
C213 C 0.36097 0.35377 0.70633 0.0
O214 O 0.34977 0.3092 0.71723 0.0
Co215 Co 0.38649 0.34076 0.68426 0.0
O216 O 0.38297 0.3233 0.71507 0.0
C217 C 0.35868 0.30666 0.64884 0.0
C218 C 0.31014 0.31501 0.67428 0.0
C219 C 0.36611 0.31035 0.72454 0.0
O220 O 0.34322 0.30533 0.66019 0.0
O221 O 0.37648 0.32048 0.6543 0.0
O222 O 0.3432 0.34268 0.71595 0.0
O223 O 0.36525 0.34609 0.6862 0.0
Co224 Co 0.69505 0.02633 0.6738 0.0
O225 O 0.67426 0.01756 0.70078 0.0
O226 O 0.68439 0.04379 0.67446 0.0
C227 C 0.68408 0.99527 0.65609 0.0
O228 O 0.7147 0.04044 0.64334 0.0
Co229 Co 0.72541 0.01232 0.66761 0.0
O230 O 0.73487 0.02868 0.63447 0.0
C231 C 0.73219 0.04395 0.70816 0.0
C232 C 0.6722 0.03229 0.69289 0.0
C233 C 0.72879 0.04068 0.62971 0.0
O234 O 0.71639 0.04387 0.7009 0.0
O235 O 0.73717 0.0318 0.69852 0.0
O236 O 0.676 1.00552 0.64898 0.0
O237 O 0.69785 1.00361 0.67409 0.0
Co238 Co 0.99943 0.67214 0.67245 0.0
O239 O 1.01266 0.66339 0.6967 0.0
O240 O 0.98654 0.643 0.67191 0.0
C241 C 0.02799 0.69682 0.6535 0.0
O242 O 0.98207 0.67534 0.64447 0.0
Co243 Co 1.00631 0.71503 0.67599 0.0
O244 O 0.98985 0.70742 0.64285 0.0
C245 C 0.97805 0.68416 0.71356 0.0
C246 C 1.00011 0.64521 0.68892 0.0
C247 C 0.9798 0.68932 0.63459 0.0
O248 O 0.98078 0.67088 0.70182 0.0
O249 O 0.98796 0.70278 0.70766 0.0
O250 O 0.02003 0.67834 0.6454 0.0
O251 O 0.01935 0.69969 0.67387 0.0
H252 H 0.24878 0.35477 0.14051 0.0
H253 H 0.20518 0.36045 0.09622 0.0
H254 H 0.19821 0.34765 0.18232 0.0
H255 H 0.18059 0.36107 0.18377 0.0
H256 H 0.12976 0.35484 0.14455 0.0
H257 H 0.17366 0.35157 0.09661 0.0
C258 C 0.2349 0.35465 0.14005 0.0
C259 C 0.22452 0.35176 0.16402 0.0
C260 C 0.22761 0.35687 0.11545 0.0
C261 C 0.21006 0.35776 0.11524 0.0
C262 C 0.199 0.35492 0.13946 0.0
C263 C 0.20633 0.3511 0.16356 0.0
C264 C 0.17996 0.35569 0.14007 0.0
C265 C 0.17249 0.35831 0.16511 0.0
C266 C 0.15412 0.35716 0.16664 0.0
C267 C 0.14358 0.35489 0.1431 0.0
C268 C 0.15059 0.35321 0.11782 0.0
C269 C 0.16876 0.3535 0.11625 0.0
H270 H 0.66453 0.89236 0.14251 0.0
H271 H 0.66648 0.84562 0.09869 0.0
H272 H 0.67072 0.84936 0.18653 0.0
H273 H 0.65985 0.81822 0.1861 0.0
H274 H 0.67409 0.77764 0.14899 0.0
H275 H 0.67809 0.82548 0.10201 0.0
C276 C 0.66585 0.87913 0.14241 0.0
C277 C 0.66711 0.87131 0.1669 0.0
C278 C 0.66644 0.87052 0.11782 0.0
C279 C 0.66687 0.85255 0.1179 0.0
C280 C 0.66806 0.84402 0.14279 0.0
C281 C 0.66856 0.85414 0.16712 0.0
C282 C 0.66938 0.82519 0.144 0.0
C283 C 0.66526 0.81424 0.16845 0.0
C284 C 0.66794 0.79777 0.17062 0.0
C285 C 0.67347 0.79121 0.14773 0.0
C286 C 0.67665 0.80079 0.12288 0.0
C287 C 0.67494 0.81795 0.12117 0.0
H288 H 0.24265 0.89591 0.14024 0.0
H289 H 0.20251 0.84134 0.09761 0.0
H290 H 0.18876 0.85366 0.17808 0.0
H291 H 0.17487 0.82092 0.18239 0.0
H292 H 0.1242 0.77321 0.14326 0.0
H293 H 0.16778 0.82199 0.09558 0.0
C294 C 0.2292 0.88129 0.13955 0.0
C295 C 0.21671 0.87542 0.16179 0.0
C296 C 0.22432 0.86935 0.1162 0.0
C297 C 0.20618 0.85077 0.11546 0.0
C298 C 0.19318 0.84433 0.13813 0.0
C299 C 0.19861 0.85731 0.16096 0.0
C300 C 0.17418 0.82422 0.13872 0.0
C301 C 0.16674 0.81453 0.1638 0.0
C302 C 0.14872 0.79634 0.16531 0.0
C303 C 0.13812 0.78734 0.14178 0.0
C304 C 0.14464 0.79647 0.11663 0.0
C305 C 0.16289 0.81483 0.115 0.0
H306 H 0.367 0.12156 0.88466 0.0
H307 H 0.35998 0.16522 0.92876 0.0
H308 H 0.35904 0.16314 0.84061 0.0
H309 H 0.35914 0.1895 0.83938 0.0
H310 H 0.35163 0.23337 0.88003 0.0
H311 H 0.35425 0.18917 0.92713 0.0
C312 C 0.36529 0.13455 0.88495 0.0
C313 C 0.36365 0.14219 0.86057 0.0
C314 C 0.36397 0.14274 0.90956 0.0
C315 C 0.36099 0.15927 0.90942 0.0
C316 C 0.3596 0.1678 0.88457 0.0
C317 C 0.36076 0.15848 0.86027 0.0
C318 C 0.35685 0.18596 0.88351 0.0
C319 C 0.35694 0.19493 0.85836 0.0
C320 C 0.35442 0.21157 0.85696 0.0
C321 C 0.35219 0.21975 0.88088 0.0
C322 C 0.35198 0.21168 0.90603 0.0
C323 C 0.35438 0.19492 0.90737 0.0
H324 H 0.7838 0.1177 0.87625 0.0
H325 H 0.82939 0.16644 0.92281 0.0
H326 H 0.83606 0.16199 0.83647 0.0
H327 H 0.85191 0.19444 0.83761 0.0
H328 H 0.90653 0.23656 0.87486 0.0
H329 H 0.8632 0.18654 0.92094 0.0
C330 C 0.79783 0.13178 0.87711 0.0
C331 C 0.80884 0.13932 0.85349 0.0
C332 C 0.80523 0.14114 0.90216 0.0
C333 C 0.82394 0.15914 0.90341 0.0
C334 C 0.83519 0.16761 0.87945 0.0
C335 C 0.8275 0.1569 0.85488 0.0
C336 C 0.85492 0.18723 0.87918 0.0
C337 C 0.86144 0.1987 0.85515 0.0
C338 C 0.88039 0.21586 0.85325 0.0
C339 C 0.89251 0.22253 0.87602 0.0
C340 C 0.88643 0.21238 0.90058 0.0
C341 C 0.86763 0.19459 0.90211 0.0
H342 H 0.7779 0.66269 0.869 0.0
H343 H 0.82798 0.66994 0.91261 0.0
H344 H 0.82238 0.65768 0.82606 0.0
H345 H 0.85313 0.66871 0.82549 0.0
H346 H 0.89953 0.66748 0.8674 0.0
H347 H 0.85015 0.66123 0.91283 0.0
C348 C 0.79193 0.66313 0.86893 0.0
C349 C 0.79964 0.66091 0.8446 0.0
C350 C 0.80183 0.6658 0.89333 0.0
C351 C 0.82027 0.66681 0.89354 0.0
C352 C 0.82845 0.66394 0.86935 0.0
C353 C 0.81741 0.66054 0.84501 0.0
C354 C 0.84837 0.66486 0.86925 0.0
C355 C 0.85874 0.66718 0.84461 0.0
C356 C 0.877 0.66801 0.84414 0.0
C357 C 0.88558 0.66722 0.86822 0.0
C358 C 0.87629 0.66526 0.89308 0.0
C359 C 0.85744 0.66354 0.89353 0.0
H360 H 0.90873 0.68645 0.48251 0.0
H361 H 0.86826 0.69493 0.43519 0.0
H362 H 0.85819 0.68188 0.52119 0.0
H363 H 0.83903 0.69339 0.52054 0.0
H364 H 0.79207 0.69107 0.47517 0.0
H365 H 0.83815 0.68834 0.43265 0.0
C366 C 0.89519 0.68693 0.48105 0.0
C367 C 0.88429 0.68446 0.50435 0.0
C368 C 0.88906 0.68987 0.45601 0.0
C369 C 0.87209 0.69169 0.45461 0.0
C370 C 0.86033 0.68908 0.47802 0.0
C371 C 0.86666 0.68489 0.50282 0.0
C372 C 0.84159 0.69039 0.47678 0.0
C373 C 0.83249 0.69199 0.50092 0.0
C374 C 0.81437 0.6915 0.50025 0.0
C375 C 0.80575 0.69079 0.47548 0.0
C376 C 0.81441 0.69004 0.45117 0.0
C377 C 0.83222 0.68968 0.45175 0.0
H378 H 0.33183 0.22798 0.48645 0.0
H379 H 0.33082 0.1808 0.43934 0.0
H380 H 0.34305 0.1862 0.52532 0.0
H381 H 0.32927 0.15417 0.52472 0.0
H382 H 0.3426 0.11392 0.48443 0.0
H383 H 0.34525 0.16224 0.43985 0.0
C384 C 0.33244 0.21437 0.48542 0.0
C385 C 0.33676 0.20748 0.50876 0.0
C386 C 0.33072 0.20518 0.46031 0.0
C387 C 0.33246 0.18793 0.45881 0.0
C388 C 0.33612 0.18007 0.48253 0.0
C389 C 0.33886 0.19067 0.50712 0.0
C390 C 0.33764 0.16137 0.48239 0.0
C391 C 0.33422 0.15026 0.50651 0.0
C392 C 0.33701 0.13381 0.50758 0.0
C393 C 0.34198 0.12751 0.48395 0.0
C394 C 0.34461 0.13735 0.45941 0.0
C395 C 0.34268 0.15444 0.45874 0.0
H396 H 0.91496 0.23221 0.47623 0.0
H397 H 0.86384 0.19236 0.429 0.0
H398 H 0.87159 0.17618 0.50943 0.0
H399 H 0.84003 0.16389 0.51379 0.0
H400 H 0.79164 0.11489 0.47333 0.0
H401 H 0.83987 0.15945 0.42609 0.0
C402 C 0.90116 0.21808 0.47431 0.0
C403 C 0.89411 0.20505 0.49619 0.0
C404 C 0.89084 0.21336 0.44976 0.0
C405 C 0.87216 0.19547 0.44759 0.0
C406 C 0.86422 0.1822 0.46979 0.0
C407 C 0.87619 0.18678 0.49316 0.0
C408 C 0.84347 0.16396 0.46982 0.0
C409 C 0.83363 0.15626 0.49485 0.0
C410 C 0.81537 0.13834 0.49594 0.0
C411 C 0.80585 0.12876 0.47211 0.0
C412 C 0.81397 0.13676 0.44689 0.0
C413 C 0.83318 0.15399 0.44566 0.0
H414 H 0.02846 0.45768 0.21161 0.0
H415 H 0.03695 0.50956 0.25503 0.0
H416 H 0.0174 0.49891 0.17122 0.0
H417 H 0.03186 0.53107 0.16809 0.0
H418 H 0.02802 0.57748 0.20905 0.0
H419 H 0.02396 0.5293 0.25523 0.0
C420 C 0.02859 0.47171 0.21205 0.0
C421 C 0.02341 0.47776 0.18878 0.0
C422 C 0.03247 0.48244 0.2363 0.0
C423 C 0.03312 0.50097 0.2364 0.0
C424 C 0.02837 0.50788 0.21259 0.0
C425 C 0.02283 0.49544 0.18913 0.0
C426 C 0.02855 0.52749 0.21197 0.0
C427 C 0.03023 0.53716 0.187 0.0
C428 C 0.02982 0.55499 0.18596 0.0
C429 C 0.02871 0.56391 0.20993 0.0
C430 C 0.02674 0.55481 0.23481 0.0
C431 C 0.02636 0.5365 0.23588 0.0
H432 H 0.44553 0.45533 0.21649 0.0
H433 H 0.49877 0.49692 0.25867 0.0
H434 H 0.49076 0.50548 0.17402 0.0
H435 H 0.52298 0.52061 0.17247 0.0
H436 H 0.56933 0.57253 0.2115 0.0
H437 H 0.51897 0.53092 0.25821 0.0
C438 C 0.45979 0.46922 0.21674 0.0
C439 C 0.46731 0.47959 0.19275 0.0
C440 C 0.47084 0.47544 0.24053 0.0
C441 C 0.48994 0.4928 0.24042 0.0
C442 C 0.4976 0.5043 0.21648 0.0
C443 C 0.48571 0.49745 0.1928 0.0
C444 C 0.51797 0.52298 0.21559 0.0
C445 C 0.52864 0.52941 0.19082 0.0
C446 C 0.54675 0.5476 0.18938 0.0
C447 C 0.55495 0.55887 0.21279 0.0
C448 C 0.54517 0.55301 0.23762 0.0
C449 C 0.52668 0.53503 0.23906 0.0
H450 H 0.44352 0.99144 0.20764 0.0
H451 H 0.49325 1.00013 0.25411 0.0
H452 H 0.48743 0.98306 0.16911 0.0
H453 H 0.51885 0.99726 0.16893 0.0
H454 H 0.56484 0.99578 0.21165 0.0
H455 H 0.51496 0.9896 0.25617 0.0
C456 C 0.45737 0.99153 0.20871 0.0
C457 C 0.465 0.98784 0.18537 0.0
C458 C 0.46711 0.99536 0.2335 0.0
C459 C 0.48545 0.99609 0.23501 0.0
C460 C 0.49358 0.99187 0.21178 0.0
C461 C 0.48253 0.98714 0.18721 0.0
C462 C 0.51358 0.99298 0.2125 0.0
C463 C 0.52424 0.99549 0.18809 0.0
C464 C 0.54252 0.99633 0.18788 0.0
C465 C 0.55085 0.99544 0.21216 0.0
C466 C 0.54138 0.99349 0.23692 0.0
C467 C 0.52247 0.99177 0.23704 0.0
H468 H 0.58135 0.02576 0.81288 0.0
H469 H 0.54256 0.03737 0.76611 0.0
H470 H 0.53117 0.02223 0.85129 0.0
H471 H 0.51734 0.0398 0.85085 0.0
H472 H 0.46699 0.03392 0.80944 0.0
H473 H 0.51088 0.029 0.76443 0.0
C474 C 0.56815 0.02686 0.81146 0.0
C475 C 0.55712 0.02427 0.83464 0.0
C476 C 0.56257 0.03076 0.78658 0.0
C477 C 0.54608 0.0334 0.78526 0.0
C478 C 0.53435 0.03075 0.80862 0.0
C479 C 0.53995 0.02549 0.83313 0.0
C480 C 0.51639 0.03326 0.80792 0.0
C481 C 0.50909 0.03681 0.83229 0.0
C482 C 0.49093 0.03629 0.83341 0.0
C483 C 0.48119 0.03479 0.80913 0.0
C484 C 0.48883 0.03324 0.78418 0.0
C485 C 0.50596 0.03162 0.78366 0.0
H486 H 0.98742 0.55309 0.80624 0.0
H487 H 1.00322 0.51438 0.76539 0.0
H488 H 0.98761 0.50675 0.85069 0.0
H489 H 1.00448 0.49243 0.85343 0.0
H490 H 1.00574 0.44377 0.81573 0.0
H491 H 0.99577 0.48281 0.76656 0.0
C492 C 0.98903 0.54003 0.80639 0.0
C493 C 0.98737 0.53062 0.83077 0.0
C494 C 0.99432 0.53403 0.78269 0.0
C495 C 0.99805 0.51808 0.78359 0.0
C496 C 0.99548 0.50746 0.80804 0.0
C497 C 0.98981 0.51402 0.83148 0.0
C498 C 0.99915 0.49011 0.80969 0.0
C499 C 1.00296 0.48418 0.83501 0.0
C500 C 1.00496 0.46733 0.837 0.0
C501 C 1.00437 0.45688 0.81374 0.0
C502 C 1.0019 0.46281 0.7882 0.0
C503 C 0.99866 0.47903 0.78627 0.0
H504 H 0.57485 0.56121 0.80964 0.0
H505 H 0.52784 0.51403 0.76323 0.0
H506 H 0.5265 0.5126 0.85066 0.0
H507 H 0.50901 0.48079 0.84625 0.0
H508 H 0.45147 0.44343 0.81254 0.0
H509 H 0.49439 0.49418 0.76764 0.0
C510 C 0.56124 0.54676 0.80906 0.0
C511 C 0.55202 0.53742 0.83318 0.0
C512 C 0.5527 0.5385 0.78393 0.0
C513 C 0.53426 0.52027 0.78279 0.0
C514 C 0.52451 0.51021 0.80696 0.0
C515 C 0.53371 0.51933 0.83187 0.0
C516 C 0.50459 0.49076 0.80711 0.0
C517 C 0.49877 0.47797 0.82996 0.0
C518 C 0.4794 0.46152 0.8325 0.0
C519 C 0.46621 0.4566 0.81112 0.0
C520 C 0.4717 0.46787 0.78758 0.0
C521 C 0.49074 0.48514 0.78556 0.0
H522 H 0.69777 0.79525 0.55224 0.0
H523 H 0.69344 0.84132 0.59464 0.0
H524 H 0.68911 0.83628 0.50702 0.0
H525 H 0.70047 0.86815 0.50741 0.0
H526 H 0.67893 0.90415 0.54111 0.0
H527 H 0.67794 0.85849 0.58966 0.0
C528 C 0.69634 0.8084 0.55201 0.0
C529 C 0.69411 0.81536 0.5273 0.0
C530 C 0.69595 0.81743 0.57637 0.0
C531 C 0.69357 0.83433 0.57569 0.0
C532 C 0.6917 0.84212 0.55053 0.0
C533 C 0.69174 0.83198 0.52653 0.0
C534 C 0.68902 0.86012 0.54862 0.0
C535 C 0.69358 0.87126 0.52421 0.0
C536 C 0.68925 0.88662 0.52103 0.0
C537 C 0.68147 0.89175 0.54291 0.0
C538 C 0.67793 0.88208 0.56764 0.0
C539 C 0.68145 0.86615 0.57055 0.0
H540 H 0.11324 0.78949 0.53664 0.0
H541 H 0.16435 0.82991 0.58295 0.0
H542 H 0.15858 0.84289 0.49961 0.0
H543 H 0.19021 0.858 0.49791 0.0
H544 H 0.23797 0.90615 0.54097 0.0
H545 H 0.18781 0.86205 0.58547 0.0
C546 C 0.12706 0.80372 0.53799 0.0
C547 C 0.13516 0.81529 0.51489 0.0
C548 C 0.13715 0.80931 0.56264 0.0
C549 C 0.15624 0.82662 0.56416 0.0
C550 C 0.16472 0.83912 0.54127 0.0
C551 C 0.15334 0.83345 0.51717 0.0
C552 C 0.18542 0.85755 0.54166 0.0
C553 C 0.19602 0.86547 0.51711 0.0
C554 C 0.21463 0.88317 0.51691 0.0
C555 C 0.22336 0.89271 0.54119 0.0
C556 C 0.21397 0.88488 0.56581 0.0
C557 C 0.19497 0.86748 0.56616 0.0
H558 H 0.11074 0.31975 0.54824 0.0
H559 H 0.15731 0.32033 0.59407 0.0
H560 H 0.15736 0.31841 0.50617 0.0
H561 H 0.18867 0.33237 0.5097 0.0
H562 H 0.23039 0.32088 0.54705 0.0
H563 H 0.17819 0.30883 0.59106 0.0
C564 C 0.1244 0.31946 0.54894 0.0
C565 C 0.13355 0.31957 0.52477 0.0
C566 C 0.13281 0.31976 0.57393 0.0
C567 C 0.15075 0.31959 0.57462 0.0
C568 C 0.1604 0.31936 0.55024 0.0
C569 C 0.15119 0.31913 0.5254 0.0
C570 C 0.18009 0.31991 0.55016 0.0
C571 C 0.19243 0.32656 0.5269 0.0
C572 C 0.21003 0.32604 0.52536 0.0
C573 C 0.21615 0.31999 0.54782 0.0
C574 C 0.20506 0.31409 0.57172 0.0
C575 C 0.18691 0.31391 0.57278 0.0
H576 H 0.03138 0.41179 0.0695 0.0
H577 H 0.97301 0.36525 0.09609 0.0
H578 H 0.97202 0.38848 0.12887 0.0
H579 H 0.04845 0.43319 0.13841 0.0
H580 H 0.06265 0.45854 0.12647 0.0
H581 H 0.05911 0.43809 0.10502 0.0
H582 H 0.0447 0.45028 0.06794 0.0
H583 H 0.04765 0.4704 0.08963 0.0
H584 H 0.02365 0.45284 0.07563 0.0
H585 H 0.97517 0.41659 0.15549 0.0
H586 H 0.9863 0.44669 0.18406 0.0
H587 H 0.04368 0.47523 0.14476 0.0
C588 C 0.01865 0.40641 0.08269 0.0
C589 C 1.00213 0.38674 0.07979 0.0
C590 C 0.98572 0.38031 0.09749 0.0
C591 C 0.98492 0.39342 0.11615 0.0
C592 C 1.00081 0.41294 0.11745 0.0
C593 C 0.0177 0.41935 0.10203 0.0
C594 C 0.03293 0.44105 0.10882 0.0
C595 C 0.05191 0.44282 0.12038 0.0
C596 C 0.0375 0.45443 0.08402 0.0
C597 C 0.0218 0.44564 0.13024 0.0
C598 C 1.00311 0.42925 0.13427 0.0
C599 C 0.9898 0.42955 0.15269 0.0
C600 C 0.99612 0.44676 0.16853 0.0
C601 C 0.0156 0.46329 0.1661 0.0
C602 C 0.02852 0.46293 0.14636 0.0
H603 H 0.60511 0.63884 0.09039 0.0
H604 H 0.63628 0.61007 0.05961 0.0
H605 H 0.616 0.58106 0.08902 0.0
H606 H 0.60084 0.62166 0.15977 0.0
H607 H 0.57679 0.6189 0.16424 0.0
H608 H 0.59439 0.63739 0.14141 0.0
H609 H 0.56826 0.62186 0.10298 0.0
H610 H 0.55078 0.603 0.12553 0.0
H611 H 0.55748 0.59573 0.09438 0.0
H612 H 0.59082 0.55421 0.12104 0.0
H613 H 0.56648 0.53457 0.15697 0.0
H614 H 0.55232 0.58125 0.16595 0.0
C615 C 0.6079 0.62658 0.09005 0.0
C616 C 0.62234 0.6268 0.07264 0.0
C617 C 0.62546 0.6104 0.07293 0.0
C618 C 0.61386 0.59373 0.08938 0.0
C619 C 0.5993 0.59374 0.10563 0.0
C620 C 0.5966 0.60995 0.10644 0.0
C621 C 0.5803 0.60656 0.12596 0.0
C622 C 0.58858 0.62204 0.14922 0.0
C623 C 0.5632 0.6068 0.11133 0.0
C624 C 0.57402 0.5858 0.13578 0.0
C625 C 0.58503 0.57852 0.12379 0.0
C626 C 0.58209 0.55977 0.13044 0.0
C627 C 0.56809 0.54859 0.15057 0.0
C628 C 0.55731 0.55626 0.1637 0.0
C629 C 0.56007 0.57487 0.15571 0.0
H630 H 0.39722 1.00457 0.08047 0.0
H631 H 0.38556 0.9493 0.04119 0.0
H632 H 0.40842 0.94703 0.0724 0.0
H633 H 0.44933 0.02419 0.09443 0.0
H634 H 0.4488 0.03418 0.12726 0.0
H635 H 0.43181 0.03211 0.10131 0.0
H636 H 0.40211 0.01104 0.13312 0.0
H637 H 0.41902 0.01321 0.15921 0.0
H638 H 0.39947 0.98883 0.14824 0.0
H639 H 0.43281 0.95042 0.1076 0.0
H640 H 0.45454 0.95792 0.14748 0.0
H641 H 0.45029 0.01035 0.16499 0.0
C642 C 0.39947 0.992 0.07846 0.0
C643 C 0.38945 0.97716 0.05817 0.0
C644 C 0.39284 0.96089 0.05648 0.0
C645 C 0.40596 0.95947 0.07408 0.0
C646 C 0.41566 0.97433 0.09362 0.0
C647 C 0.41244 0.99017 0.09619 0.0
C648 C 0.42426 1.00363 0.1198 0.0
C649 C 0.43945 0.02478 0.11011 0.0
C650 C 0.41039 1.0042 0.14137 0.0
C651 C 0.43447 0.9928 0.12997 0.0
C652 C 0.42947 0.97605 0.11438 0.0
C653 C 0.43686 0.96353 0.11998 0.0
C654 C 0.44933 0.96796 0.14254 0.0
C655 C 0.45412 0.98467 0.15938 0.0
C656 C 0.44682 0.99739 0.15258 0.0
H657 H 0.40213 0.02693 0.92304 0.0
H658 H 0.41567 0.99299 0.97869 0.0
H659 H 0.44696 1.00336 0.95467 0.0
H660 H 0.41761 0.01353 0.86556 0.0
H661 H 0.42842 0.03726 0.84872 0.0
H662 H 0.40889 0.03046 0.87292 0.0
H663 H 0.4313 0.06298 0.90029 0.0
H664 H 0.45091 0.06994 0.87602 0.0
H665 H 0.45542 0.06844 0.91135 0.0
H666 H 0.47319 0.01213 0.92124 0.0
H667 H 0.49321 0.01904 0.88036 0.0
H668 H 0.46505 0.04968 0.84646 0.0
C669 C 0.41208 0.02232 0.93054 0.0
C670 C 0.40674 0.00937 0.95278 0.0
C671 C 0.4197 1.00304 0.96172 0.0
C672 C 0.43752 0.00891 0.94831 0.0
C673 C 0.44223 0.0212 0.92596 0.0
C674 C 0.43005 0.02802 0.91716 0.0
C675 C 0.43777 0.03936 0.8909 0.0
C676 C 0.42225 0.02956 0.8682 0.0
C677 C 0.44424 0.0615 0.89489 0.0
C678 C 0.45553 0.03693 0.8858 0.0
C679 C 0.45794 0.02667 0.90652 0.0
C680 C 0.47188 0.02071 0.9052 0.0
C681 C 0.48337 0.0249 0.88179 0.0
C682 C 0.48103 0.03511 0.85987 0.0
C683 C 0.46728 0.04174 0.86253 0.0
H684 H 0.97077 0.38112 0.94442 0.0
H685 H 0.03311 0.40347 0.95982 0.0
H686 H 0.04214 0.43213 0.93005 0.0
H687 H 0.97627 0.3941 0.87431 0.0
H688 H 0.9574 0.40073 0.87506 0.0
H689 H 0.95612 0.38239 0.8981 0.0
H690 H 0.95466 0.4033 0.93828 0.0
H691 H 0.95638 0.42192 0.91532 0.0
H692 H 0.97411 0.42908 0.94238 0.0
H693 H 0.04442 0.45835 0.89788 0.0
H694 H 0.03966 0.4776 0.86219 0.0
H695 H 0.97609 0.43824 0.86785 0.0
C696 C 0.98634 0.39197 0.94152 0.0
C697 C 1.0012 0.38994 0.95461 0.0
C698 C 0.0214 0.40455 0.95004 0.0
C699 C 0.02669 0.42101 0.9333 0.0
C700 C 1.01166 0.42274 0.92117 0.0
C701 C 0.9919 0.40846 0.92481 0.0
C702 C 0.97861 0.41334 0.90859 0.0
C703 C 0.96639 0.39665 0.88778 0.0
C704 C 0.96515 0.41713 0.92727 0.0
C705 C 0.99397 0.43246 0.89498 0.0
C706 C 0.01296 0.4378 0.90277 0.0
C707 C 0.02962 0.45444 0.89192 0.0
C708 C 0.0268 0.46543 0.87192 0.0
C709 C 1.00752 0.45976 0.86304 0.0
C710 C 0.99093 0.44329 0.87509 0.0
H711 H 0.63783 0.61929 0.92876 0.0
H712 H 0.59104 0.60752 0.98582 0.0
H713 H 0.56716 0.57873 0.9584 0.0
H714 H 0.60969 0.60981 0.87103 0.0
H715 H 0.61996 0.59746 0.85178 0.0
H716 H 0.63453 0.61529 0.87779 0.0
H717 H 0.63966 0.58871 0.90122 0.0
H718 H 0.62523 0.5708 0.87508 0.0
H719 H 0.61839 0.56491 0.91003 0.0
H720 H 0.54734 0.55559 0.92218 0.0
H721 H 0.53274 0.53738 0.8799 0.0
H722 H 0.5919 0.56106 0.84648 0.0
C723 C 0.6227 0.61022 0.93576 0.0
C724 C 0.61622 0.61561 0.95931 0.0
C725 C 0.59623 0.6037 0.96768 0.0
C726 C 0.58256 0.58724 0.95235 0.0
C727 C 0.58909 0.5827 0.92871 0.0
C728 C 0.60869 0.59358 0.9205 0.0
C729 C 0.61115 0.58627 0.89298 0.0
C730 C 0.61931 0.60322 0.87218 0.0
C731 C 0.6244 0.57713 0.89496 0.0
C732 C 0.5898 0.57033 0.88675 0.0
C733 C 0.57741 0.56847 0.90778 0.0
C734 C 0.5569 0.55635 0.90584 0.0
C735 C 0.54872 0.54588 0.88165 0.0
C736 C 0.56103 0.54734 0.85965 0.0
C737 C 0.58192 0.55952 0.86267 0.0
H738 H 0.03214 0.62372 0.92975 0.0
H739 H 0.97294 0.60269 0.9608 0.0
H740 H 0.95993 0.57257 0.93131 0.0
H741 H 0.01768 0.60708 0.86127 0.0
H742 H 0.03651 0.60062 0.85677 0.0
H743 H 0.04055 0.62031 0.88006 0.0
H744 H 0.04735 0.60205 0.91826 0.0
H745 H 0.04295 0.58211 0.89519 0.0
H746 H 0.02889 0.57656 0.92605 0.0
H747 H 0.95368 0.5444 0.89763 0.0
H748 H 0.95476 0.52264 0.86117 0.0
H749 H 0.0182 0.56247 0.85444 0.0
C750 C 0.0164 0.61288 0.9304 0.0
C751 C 1.00359 0.61561 0.9477 0.0
C752 C 0.98307 0.60101 0.94765 0.0
C753 C 0.97556 0.58378 0.9311 0.0
C754 C 0.98877 0.58141 0.91475 0.0
C755 C 1.00873 0.59573 0.91418 0.0
C756 C 0.01994 0.59005 0.89469 0.0
C757 C 0.02921 0.60542 0.87184 0.0
C758 C 0.03571 0.58754 0.90944 0.0
C759 C 1.00323 0.57022 0.88435 0.0
C760 C 0.9853 0.56536 0.89607 0.0
C761 C 0.96768 0.548 0.88857 0.0
C762 C 0.9684 0.53565 0.8681 0.0
C763 C 0.98663 0.54076 0.8557 0.0
C764 C 1.0042 0.55805 0.86424 0.0
H765 H 0.39848 0.39402 0.94296 0.0
H766 H 0.43654 0.37061 0.96292 0.0
H767 H 0.46125 0.39331 0.93025 0.0
H768 H 0.40959 0.39928 0.87122 0.0
H769 H 0.40903 0.42205 0.8685 0.0
H770 H 0.3942 0.40392 0.89368 0.0
H771 H 0.4107 0.43132 0.9309 0.0
H772 H 0.42577 0.44947 0.90585 0.0
H773 H 0.43733 0.44514 0.93422 0.0
H774 H 0.48262 0.41924 0.89608 0.0
H775 H 0.49707 0.44396 0.85919 0.0
H776 H 0.44532 0.45025 0.86078 0.0
C777 C 0.41192 0.39353 0.94033 0.0
C778 C 0.41544 0.38046 0.95576 0.0
C779 C 0.43334 0.38042 0.95154 0.0
C780 C 0.44761 0.39336 0.93304 0.0
C781 C 0.44387 0.4063 0.91863 0.0
C782 C 0.42637 0.40633 0.92174 0.0
C783 C 0.42593 0.42146 0.90319 0.0
C784 C 0.40866 0.41105 0.88294 0.0
C785 C 0.42487 0.43782 0.91953 0.0
C786 C 0.44583 0.4298 0.88919 0.0
C787 C 0.45606 0.42102 0.89858 0.0
C788 C 0.47474 0.42623 0.88853 0.0
C789 C 0.48292 0.44039 0.86776 0.0
C790 C 0.47234 0.449 0.85716 0.0
C791 C 0.45373 0.44385 0.86847 0.0
H792 H 0.64131 0.05276 0.9437 0.0
H793 H 0.61724 0.98908 0.95427 0.0
H794 H 0.58956 0.98177 0.92362 0.0
H795 H 0.59503 0.05137 0.94112 0.0
H796 H 0.6029 0.07006 0.91527 0.0
H797 H 0.62084 0.07044 0.93821 0.0
H798 H 0.64136 0.06913 0.89788 0.0
H799 H 0.62374 0.06922 0.87487 0.0
H800 H 0.62938 0.04953 0.87278 0.0
H801 H 0.56412 0.98139 0.89182 0.0
H802 H 0.5457 0.98815 0.85706 0.0
H803 H 0.58651 0.05179 0.86698 0.0
C804 C 0.6303 0.03726 0.93949 0.0
C805 C 0.63152 0.02151 0.95153 0.0
C806 C 0.61678 1.00144 0.94526 0.0
C807 C 0.60086 0.99712 0.92804 0.0
C808 C 0.59988 0.013 0.91705 0.0
C809 C 0.6144 0.03267 0.92219 0.0
C810 C 0.61036 0.047 0.90697 0.0
C811 C 0.60709 0.06051 0.92657 0.0
C812 C 0.6272 0.05945 0.88693 0.0
C813 C 0.59133 0.03235 0.8924 0.0
C814 C 0.58536 0.0128 0.89873 0.0
C815 C 0.56856 0.99665 0.88694 0.0
C816 C 0.55804 1.00058 0.86749 0.0
C817 C 0.56438 0.02046 0.86008 0.0
C818 C 0.58101 0.0365 0.87305 0.0
H819 H 0.63874 0.03471 0.09628 0.0
H820 H 0.60606 0.98005 0.04884 0.0
H821 H 0.57621 0.97023 0.07665 0.0
H822 H 0.61636 0.01219 0.16079 0.0
H823 H 0.61657 0.03424 0.17288 0.0
H824 H 0.63511 0.03658 0.14921 0.0
H825 H 0.62522 0.05604 0.11697 0.0
H826 H 0.60636 0.05338 0.14029 0.0
H827 H 0.59984 0.0447 0.10586 0.0
H828 H 0.54922 0.96748 0.10841 0.0
H829 H 0.52917 0.96933 0.14602 0.0
H830 H 0.58013 0.02493 0.17363 0.0
C831 C 0.62537 0.02056 0.09191 0.0
C832 C 0.62473 0.00815 0.07034 0.0
C833 C 0.60696 0.98972 0.06539 0.0
C834 C 0.58987 0.98412 0.08092 0.0
C835 C 0.59087 0.99698 0.10157 0.0
C836 C 0.60832 0.0146 0.10746 0.0
C837 C 0.60576 0.02546 0.13132 0.0
C838 C 0.61924 0.02721 0.15495 0.0
C839 C 0.60952 0.04612 0.1231 0.0
C840 C 0.58411 0.0113 0.13784 0.0
C841 C 0.57565 0.99509 0.12024 0.0
C842 C 0.55573 0.98008 0.12234 0.0
C843 C 0.54439 0.98134 0.14353 0.0
C844 C 0.55309 0.99734 0.16246 0.0
C845 C 0.57309 0.01265 0.15922 0.0
H846 H 0.0523 0.64342 0.08479 0.0
H847 H 0.99265 0.60537 0.05378 0.0
H848 H 0.98827 0.57811 0.08356 0.0
H849 H 0.06525 0.60615 0.09206 0.0
H850 H 0.0783 0.6158 0.1236 0.0
H851 H 0.07695 0.63249 0.09995 0.0
H852 H 0.06161 0.64446 0.1367 0.0
H853 H 0.06336 0.62818 0.16061 0.0
H854 H 0.03982 0.62624 0.15459 0.0
H855 H 0.9913 0.55412 0.11447 0.0
H856 H 0.99887 0.53752 0.15096 0.0
H857 H 0.05539 0.59187 0.16456 0.0
C858 C 0.03823 0.62943 0.08455 0.0
C859 C 0.0228 0.62651 0.06695 0.0
C860 C 1.00459 0.60802 0.06729 0.0
C861 C 1.00205 0.59236 0.08391 0.0
C862 C 0.01773 0.59553 0.10048 0.0
C863 C 0.03526 0.61379 0.10152 0.0
C864 C 0.0494 0.61362 0.12215 0.0
C865 C 0.06861 0.61723 0.10862 0.0
C866 C 0.0538 0.62903 0.14486 0.0
C867 C 0.03717 0.59237 0.13237 0.0
C868 C 0.0191 0.58205 0.11921 0.0
C869 C 1.00536 0.56209 0.12498 0.0
C870 C 1.00987 0.5527 0.14547 0.0
C871 C 0.0278 0.56333 0.1602 0.0
C872 C 0.04173 0.58333 0.15324 0.0
H873 H 0.41508 0.3847 0.09751 0.0
H874 H 0.38774 0.41222 0.0534 0.0
H875 H 0.40556 0.44251 0.08259 0.0
H876 H 0.41359 0.40402 0.16309 0.0
H877 H 0.43704 0.40708 0.17301 0.0
H878 H 0.42157 0.38783 0.149 0.0
H879 H 0.45081 0.40224 0.11496 0.0
H880 H 0.46625 0.42176 0.13869 0.0
H881 H 0.46242 0.42811 0.10527 0.0
H882 H 0.42763 0.47041 0.1172 0.0
H883 H 0.44918 0.49123 0.15545 0.0
H884 H 0.46171 0.44461 0.17418 0.0
C885 C 0.41266 0.39699 0.09393 0.0
C886 C 0.40002 0.39606 0.07308 0.0
C887 C 0.39728 0.41253 0.06935 0.0
C888 C 0.40745 0.42984 0.0857 0.0
C889 C 0.42023 0.43038 0.10564 0.0
C890 C 0.42263 0.41422 0.10986 0.0
C891 C 0.437 0.41816 0.1325 0.0
C892 C 0.42668 0.4034 0.15577 0.0
C893 C 0.45519 0.41753 0.12222 0.0
C894 C 0.44242 0.43911 0.14049 0.0
C895 C 0.43274 0.4461 0.12489 0.0
C896 C 0.4353 0.46506 0.12944 0.0
C897 C 0.44763 0.47684 0.15096 0.0
C898 C 0.45706 0.46944 0.16743 0.0
C899 C 0.45471 0.45059 0.16167 0.0
H900 H 0.65816 0.71645 0.4405 0.0
H901 H 0.70805 0.7504 0.38688 0.0
H902 H 0.71823 0.7809 0.41454 0.0
H903 H 0.6457 0.75325 0.45092 0.0
H904 H 0.63934 0.74768 0.48606 0.0
H905 H 0.63675 0.72832 0.46317 0.0
H906 H 0.65949 0.7216 0.49354 0.0
H907 H 0.66175 0.7406 0.51687 0.0
H908 H 0.68368 0.74209 0.50287 0.0
H909 H 0.72123 0.80836 0.44667 0.0
H910 H 0.71942 0.829 0.48405 0.0
H911 H 0.6678 0.77641 0.51593 0.0
C912 C 0.67142 0.73021 0.43477 0.0
C913 C 0.6823 0.73106 0.41153 0.0
C914 C 0.69959 0.74937 0.40477 0.0
C915 C 0.70537 0.7668 0.4202 0.0
C916 C 0.69382 0.76557 0.44244 0.0
C917 C 0.67744 0.74761 0.44998 0.0
C918 C 0.66745 0.75009 0.47464 0.0
C919 C 0.64605 0.74451 0.4683 0.0
C920 C 0.66815 0.73788 0.49838 0.0
C921 C 0.68061 0.7723 0.47972 0.0
C922 C 0.69568 0.78109 0.46088 0.0
C923 C 0.70955 0.80159 0.46159 0.0
C924 C 0.70832 0.81323 0.48263 0.0
C925 C 0.69343 0.80421 0.50259 0.0
C926 C 0.67926 0.7836 0.50076 0.0
H927 H 0.26294 0.96973 0.40857 0.0
H928 H 0.30482 0.95059 0.3899 0.0
H929 H 0.28712 0.9223 0.42128 0.0
H930 H 0.25806 0.95818 0.47914 0.0
H931 H 0.23204 0.94996 0.48006 0.0
H932 H 0.24801 0.96841 0.45594 0.0
H933 H 0.22495 0.94601 0.41714 0.0
H934 H 0.20909 0.92733 0.44114 0.0
H935 H 0.21963 0.92064 0.41344 0.0
H936 H 0.26467 0.89598 0.45529 0.0
H937 H 0.24114 0.87582 0.49157 0.0
H938 H 0.21415 0.9122 0.48752 0.0
C939 C 0.26851 0.95968 0.41107 0.0
C940 C 0.28535 0.96248 0.39663 0.0
C941 C 0.29204 0.94888 0.4007 0.0
C942 C 0.28199 0.93267 0.41839 0.0
C943 C 0.26525 0.93019 0.4319 0.0
C944 C 0.25869 0.94346 0.42861 0.0
C945 C 0.24065 0.93783 0.44595 0.0
C946 C 0.24495 0.95459 0.46649 0.0
C947 C 0.22251 0.93265 0.42836 0.0
C948 C 0.23814 0.91942 0.45976 0.0
C949 C 0.25236 0.9151 0.45122 0.0
C950 C 0.25338 0.89913 0.46189 0.0
C951 C 0.23989 0.88765 0.48226 0.0
C952 C 0.22559 0.89219 0.49166 0.0
C953 C 0.22459 0.90811 0.48003 0.0
H954 H 0.0466 0.29894 0.4221 0.0
H955 H 0.08512 0.35923 0.39287 0.0
H956 H 0.11181 0.36306 0.42312 0.0
H957 H 0.06325 0.31097 0.49228 0.0
H958 H 0.06101 0.28706 0.49793 0.0
H959 H 0.04516 0.28914 0.47369 0.0
H960 H 0.057 0.27361 0.43694 0.0
H961 H 0.0732 0.27187 0.46095 0.0
H962 H 0.08312 0.28517 0.42983 0.0
H963 H 0.13511 0.35954 0.45452 0.0
H964 H 0.15116 0.35136 0.49107 0.0
H965 H 0.09686 0.29453 0.50254 0.0
C966 C 0.06059 0.31302 0.4223 0.0
C967 C 0.06378 0.32879 0.4051 0.0
C968 C 0.08226 0.34701 0.40604 0.0
C969 C 0.09759 0.34926 0.42295 0.0
C970 C 0.09414 0.33327 0.4392 0.0
C971 C 0.07592 0.3157 0.43956 0.0
C972 C 0.07576 0.30123 0.45999 0.0
C973 C 0.06039 0.29685 0.48229 0.0
C974 C 0.07205 0.28182 0.44609 0.0
C975 C 0.09677 0.31332 0.47086 0.0
C976 C 0.10724 0.33162 0.45822 0.0
C977 C 0.12702 0.3453 0.46464 0.0
C978 C 0.13609 0.34045 0.48517 0.0
C979 C 0.12531 0.32225 0.49931 0.0
C980 C 0.10549 0.30843 0.49175 0.0
H981 H 0.06133 0.31874 0.26308 0.0
H982 H 0.09157 0.3763 0.3045 0.0
H983 H 0.12112 0.38669 0.27569 0.0
H984 H 0.10264 0.31229 0.25576 0.0
H985 H 0.09564 0.30108 0.22254 0.0
H986 H 0.07687 0.29843 0.24602 0.0
H987 H 0.06376 0.31362 0.21128 0.0
H988 H 0.08221 0.31591 0.18751 0.0
H989 H 0.08073 0.33758 0.19667 0.0
H990 H 0.14798 0.39015 0.24232 0.0
H991 H 0.16752 0.38766 0.20436 0.0
H992 H 0.11905 0.32786 0.18597 0.0
C993 C 0.0741 0.3336 0.26607 0.0
C994 C 0.07413 0.34668 0.28615 0.0
C995 C 0.09113 0.36605 0.28915 0.0
C996 C 0.10805 0.37201 0.27303 0.0
C997 C 0.10766 0.35848 0.2539 0.0
C998 C 0.09095 0.33979 0.25013 0.0
C999 C 0.0939 0.32812 0.22785 0.0
C1000 C 0.09216 0.30884 0.23871 0.0
C1001 C 0.07929 0.32355 0.20445 0.0
C1002 C 0.11495 0.34305 0.21968 0.0
C1003 C 0.1228 0.36047 0.23495 0.0
C1004 C 0.14196 0.37654 0.23034 0.0
C1005 C 0.15305 0.37496 0.20899 0.0
C1006 C 0.14482 0.3575 0.1926 0.0
C1007 C 0.12575 0.34127 0.19851 0.0
H1008 H 0.68244 0.7291 0.27676 0.0
H1009 H 0.62464 0.71334 0.3088 0.0
H1010 H 0.62294 0.73655 0.27746 0.0
H1011 H 0.70024 0.78151 0.2658 0.0
H1012 H 0.71244 0.78267 0.23435 0.0
H1013 H 0.70967 0.76501 0.25974 0.0
H1014 H 0.69194 0.7359 0.22506 0.0
H1015 H 0.69483 0.75349 0.19952 0.0
H1016 H 0.67054 0.73265 0.20715 0.0
H1017 H 0.62718 0.76171 0.24309 0.0
H1018 H 0.63596 0.78466 0.20452 0.0
H1019 H 0.69054 0.78413 0.19372 0.0
C1020 C 0.66942 0.7305 0.27715 0.0
C1021 C 0.65373 0.71929 0.29548 0.0
C1022 C 0.63691 0.7216 0.29507 0.0
C1023 C 0.63579 0.73488 0.27739 0.0
C1024 C 0.65152 0.74582 0.25988 0.0
C1025 C 0.66792 0.74364 0.2593 0.0
C1026 C 0.68238 0.75674 0.23763 0.0
C1027 C 0.70237 0.77241 0.25014 0.0
C1028 C 0.68508 0.74393 0.21607 0.0
C1029 C 0.67148 0.76651 0.22625 0.0
C1030 C 0.6538 0.76015 0.23958 0.0
C1031 C 0.64102 0.76685 0.23249 0.0
C1032 C 0.6462 0.78003 0.21071 0.0
C1033 C 0.66393 0.78625 0.19611 0.0
C1034 C 0.67685 0.77961 0.20444 0.0
H1035 H 0.29176 0.9437 0.27819 0.0
H1036 H 0.2755 0.98738 0.25659 0.0
H1037 H 0.25092 0.96348 0.22443 0.0
H1038 H 0.28665 0.92355 0.20851 0.0
H1039 H 0.27712 0.8983 0.21983 0.0
H1040 H 0.29395 0.91913 0.24096 0.0
H1041 H 0.26819 0.90489 0.27973 0.0
H1042 H 0.25105 0.88437 0.25838 0.0
H1043 H 0.2436 0.90048 0.27417 0.0
H1044 H 0.22636 0.93471 0.1974 0.0
H1045 H 0.20814 0.90456 0.16841 0.0
H1046 H 0.24079 0.87951 0.20413 0.0
C1047 C 0.28337 0.94835 0.2662 0.0
C1048 C 0.28542 0.96737 0.27028 0.0
C1049 C 0.27405 0.97283 0.25421 0.0
C1050 C 0.25992 0.95932 0.23593 0.0
C1051 C 0.25744 0.94039 0.23346 0.0
C1052 C 0.2692 0.93502 0.24738 0.0
C1053 C 0.26375 0.91381 0.23979 0.0
C1054 C 0.28142 0.9137 0.22647 0.0
C1055 C 0.2562 0.90008 0.2645 0.0
C1056 C 0.24711 0.90827 0.21964 0.0
C1057 C 0.24351 0.92375 0.21681 0.0
C1058 C 0.22901 0.92244 0.19936 0.0
C1059 C 0.21853 0.9052 0.18329 0.0
C1060 C 0.22275 0.88964 0.18467 0.0
C1061 C 0.23691 0.89099 0.20344 0.0
H1062 H 0.6977 0.96931 0.25214 0.0
H1063 H 0.64992 0.9336 0.30793 0.0
H1064 H 0.64102 0.90321 0.28056 0.0
H1065 H 0.67233 0.94167 0.19053 0.0
H1066 H 0.69492 0.94486 0.1763 0.0
H1067 H 0.69583 0.96351 0.19912 0.0
H1068 H 0.72056 0.95971 0.22939 0.0
H1069 H 0.71928 0.94065 0.20709 0.0
H1070 H 0.71358 0.93543 0.24244 0.0
H1071 H 0.63938 0.87626 0.24823 0.0
H1072 H 0.64241 0.85636 0.21082 0.0
H1073 H 0.69195 0.91052 0.17838 0.0
C1074 C 0.6851 0.95517 0.25838 0.0
C1075 C 0.67449 0.95378 0.28213 0.0
C1076 C 0.65811 0.93501 0.2896 0.0
C1077 C 0.65309 0.91767 0.27434 0.0
C1078 C 0.66453 0.91948 0.25168 0.0
C1079 C 0.67995 0.93788 0.2435 0.0
C1080 C 0.69031 0.93604 0.21884 0.0
C1081 C 0.68821 0.94717 0.19478 0.0
C1082 C 0.71222 0.94339 0.22482 0.0
C1083 C 0.67851 0.91369 0.21449 0.0
C1084 C 0.66371 0.90426 0.23356 0.0
C1085 C 0.65089 0.88353 0.23317 0.0
C1086 C 0.65283 0.87232 0.21213 0.0
C1087 C 0.66743 0.88199 0.19194 0.0
C1088 C 0.68069 0.90281 0.19366 0.0
H1089 H 0.08345 0.70415 0.26151 0.0
H1090 H 0.06243 0.74068 0.29862 0.0
H1091 H 0.08578 0.76929 0.27076 0.0
H1092 H 0.13443 0.74205 0.25522 0.0
H1093 H 0.13767 0.73388 0.22236 0.0
H1094 H 0.11947 0.71608 0.24534 0.0
H1095 H 0.09184 0.70556 0.20941 0.0
H1096 H 0.11006 0.72294 0.18613 0.0
H1097 H 0.08845 0.72447 0.194 0.0
H1098 H 0.11265 0.79452 0.2407 0.0
H1099 H 0.13627 0.81259 0.20367 0.0
H1100 H 0.13832 0.75929 0.18394 0.0
C1101 C 0.08362 0.71811 0.2635 0.0
C1102 C 0.07111 0.72018 0.2822 0.0
C1103 C 0.0717 0.73866 0.2842 0.0
C1104 C 0.0851 0.75509 0.26871 0.0
C1105 C 0.0976 0.75273 0.25101 0.0
C1106 C 0.09661 0.73457 0.24775 0.0
C1107 C 0.11089 0.73575 0.22613 0.0
C1108 C 0.12654 0.7317 0.23798 0.0
C1109 C 0.09964 0.72133 0.20252 0.0
C1110 C 0.1201 0.75741 0.21785 0.0
C1111 C 0.11253 0.76706 0.23286 0.0
C1112 C 0.11867 0.78713 0.22879 0.0
C1113 C 0.13225 0.79734 0.20798 0.0
C1114 C 0.13925 0.78737 0.19136 0.0
C1115 C 0.13342 0.7673 0.19677 0.0
H1116 H 0.31318 0.38269 0.26717 0.0
H1117 H 0.28112 0.32206 0.29771 0.0
H1118 H 0.25333 0.31403 0.26667 0.0
H1119 H 0.27169 0.38904 0.2599 0.0
H1120 H 0.28045 0.40306 0.22908 0.0
H1121 H 0.29793 0.40394 0.2533 0.0
H1122 H 0.31351 0.39224 0.21652 0.0
H1123 H 0.29634 0.3917 0.19209 0.0
H1124 H 0.29782 0.36964 0.19746 0.0
H1125 H 0.22817 0.31321 0.23299 0.0
H1126 H 0.21017 0.31863 0.19603 0.0
H1127 H 0.25929 0.37938 0.18746 0.0
C1128 C 0.30041 0.36765 0.26724 0.0
C1129 C 0.2994 0.35303 0.28499 0.0
C1130 C 0.28237 0.33352 0.28424 0.0
C1131 C 0.26642 0.32885 0.26681 0.0
C1132 C 0.26773 0.3438 0.25008 0.0
C1133 C 0.28447 0.36271 0.24989 0.0
C1134 C 0.28249 0.37604 0.22967 0.0
C1135 C 0.28318 0.39408 0.24385 0.0
C1136 C 0.29849 0.38279 0.20763 0.0
C1137 C 0.26204 0.36171 0.21843 0.0
C1138 C 0.25359 0.34323 0.23062 0.0
C1139 C 0.23469 0.32763 0.22334 0.0
C1140 C 0.22448 0.33086 0.20256 0.0
C1141 C 0.23329 0.34946 0.18922 0.0
C1142 C 0.25216 0.36509 0.1976 0.0
H1143 H 0.2887 0.32718 0.42009 0.0
H1144 H 0.2996 0.38543 0.39551 0.0
H1145 H 0.27337 0.38202 0.4258 0.0
H1146 H 0.23505 0.3035 0.42722 0.0
H1147 H 0.23377 0.28974 0.45696 0.0
H1148 H 0.25303 0.29602 0.43236 0.0
H1149 H 0.27973 0.31358 0.46964 0.0
H1150 H 0.26056 0.30726 0.49436 0.0
H1151 H 0.27991 0.33299 0.49015 0.0
H1152 H 0.24631 0.37308 0.45885 0.0
H1153 H 0.22177 0.35989 0.49584 0.0
H1154 H 0.22802 0.30773 0.50032 0.0
C1155 C 0.28553 0.33916 0.42106 0.0
C1156 C 0.29639 0.35658 0.4053 0.0
C1157 C 0.29174 0.37196 0.40737 0.0
C1158 C 0.2767 0.37016 0.42445 0.0
C1159 C 0.26631 0.35291 0.43962 0.0
C1160 C 0.27056 0.33773 0.43837 0.0
C1161 C 0.25755 0.3212 0.45792 0.0
C1162 C 0.24405 0.30144 0.4427 0.0
C1163 C 0.27019 0.31861 0.47928 0.0
C1164 C 0.24561 0.32966 0.47038 0.0
C1165 C 0.25074 0.34785 0.45923 0.0
C1166 C 0.24206 0.35878 0.4677 0.0
C1167 C 0.22802 0.35111 0.48858 0.0
C1168 C 0.22292 0.33278 0.50093 0.0
C1169 C 0.23166 0.32182 0.49131 0.0
H1170 H 0.6731 0.95354 0.4134 0.0
H1171 H 0.73478 0.97766 0.39093 0.0
H1172 H 0.73704 0.95471 0.42202 0.0
H1173 H 0.68036 0.94773 0.48467 0.0
H1174 H 0.65683 0.92482 0.48809 0.0
H1175 H 0.65973 0.94304 0.46355 0.0
H1176 H 0.64779 0.91586 0.42592 0.0
H1177 H 0.64512 0.89763 0.45032 0.0
H1178 H 0.66048 0.90225 0.42094 0.0
H1179 H 0.73298 0.92863 0.45474 0.0
H1180 H 0.72365 0.90409 0.49149 0.0
H1181 H 0.66516 0.89694 0.49432 0.0
C1182 C 0.68711 0.95411 0.41517 0.0
C1183 C 0.70368 0.96751 0.39933 0.0
C1184 C 0.72174 0.96763 0.40251 0.0
C1185 C 0.72323 0.95452 0.42013 0.0
C1186 C 0.70662 0.94129 0.4349 0.0
C1187 C 0.68898 0.94115 0.43303 0.0
C1188 C 0.67365 0.92578 0.45212 0.0
C1189 C 0.66727 0.93595 0.47337 0.0
C1190 C 0.6557 0.90941 0.43638 0.0
C1191 C 0.68551 0.91747 0.46488 0.0
C1192 C 0.70442 0.92646 0.45439 0.0
C1193 C 0.71819 0.92145 0.46315 0.0
C1194 C 0.71272 0.90734 0.48385 0.0
C1195 C 0.6937 0.89853 0.49577 0.0
C1196 C 0.67983 0.90342 0.48562 0.0
H1197 H 0.0511 0.7306 0.42216 0.0
H1198 H 0.09862 0.74148 0.36705 0.0
H1199 H 0.12155 0.77227 0.39222 0.0
H1200 H 0.06757 0.78454 0.43652 0.0
H1201 H 0.06111 0.77991 0.47177 0.0
H1202 H 0.04729 0.76056 0.4469 0.0
H1203 H 0.05464 0.73635 0.47287 0.0
H1204 H 0.06836 0.75556 0.49778 0.0
H1205 H 0.07999 0.74383 0.48025 0.0
H1206 H 0.14028 0.79896 0.42563 0.0
H1207 H 0.15439 0.81855 0.46724 0.0
H1208 H 0.09527 0.79168 0.50171 0.0
C1209 C 0.06621 0.7398 0.41515 0.0
C1210 C 0.07314 0.73381 0.39267 0.0
C1211 C 0.0931 0.74585 0.38432 0.0
C1212 C 0.10618 0.76345 0.39832 0.0
C1213 C 0.09912 0.76883 0.42074 0.0
C1214 C 0.07965 0.75738 0.42927 0.0
C1215 C 0.07667 0.76533 0.45592 0.0
C1216 C 0.06231 0.77305 0.45257 0.0
C1217 C 0.0695 0.74932 0.478 0.0
C1218 C 0.09764 0.78245 0.46143 0.0
C1219 C 0.11021 0.78443 0.44054 0.0
C1220 C 0.13055 0.7979 0.44191 0.0
C1221 C 0.13843 0.80914 0.46568 0.0
C1222 C 0.12603 0.80684 0.48794 0.0
C1223 C 0.10524 0.79382 0.4852 0.0
H1224 H 0.32155 0.04833 0.76217 0.0
H1225 H 0.38014 0.07464 0.72629 0.0
H1226 H 0.39178 0.10429 0.75623 0.0
H1227 H 0.32034 0.09317 0.76834 0.0
H1228 H 0.30745 0.0866 0.80023 0.0
H1229 H 0.30388 0.06724 0.7766 0.0
H1230 H 0.31438 0.05081 0.81308 0.0
H1231 H 0.3176 0.06989 0.83696 0.0
H1232 H 0.33777 0.06569 0.83028 0.0
H1233 H 0.39668 0.13164 0.78976 0.0
H1234 H 0.39496 0.15253 0.82684 0.0
H1235 H 0.33323 0.10795 0.83972 0.0
C1236 C 0.33687 0.06018 0.76067 0.0
C1237 C 0.34988 0.05909 0.74178 0.0
C1238 C 0.36986 0.07504 0.74066 0.0
C1239 C 0.37661 0.09203 0.75744 0.0
C1240 C 0.36319 0.09279 0.77527 0.0
C1241 C 0.34382 0.07715 0.77717 0.0
C1242 C 0.33232 0.08143 0.79806 0.0
C1243 C 0.31498 0.08215 0.78502 0.0
C1244 C 0.3251 0.06604 0.82095 0.0
C1245 C 0.34825 0.10192 0.80777 0.0
C1246 C 0.36595 0.10837 0.79428 0.0
C1247 C 0.38287 0.12677 0.80032 0.0
C1248 C 0.38175 0.1386 0.82115 0.0
C1249 C 0.36387 0.13189 0.83551 0.0
C1250 C 0.34691 0.11349 0.82851 0.0
H1251 H 0.96403 0.28741 0.74805 0.0
H1252 H 0.92204 0.30375 0.71938 0.0
H1253 H 0.89692 0.27985 0.75055 0.0
H1254 H 0.92913 0.23509 0.75691 0.0
H1255 H 0.94013 0.23308 0.7877 0.0
H1256 H 0.95528 0.25157 0.76306 0.0
H1257 H 0.96681 0.27963 0.7994 0.0
H1258 H 0.95191 0.26119 0.82422 0.0
H1259 H 0.94853 0.28207 0.81848 0.0
H1260 H 0.87561 0.25343 0.78386 0.0
H1261 H 0.86121 0.22922 0.82127 0.0
H1262 H 0.91667 0.23023 0.82927 0.0
C1263 C 0.94962 0.28609 0.74847 0.0
C1264 C 0.94516 0.29755 0.73101 0.0
C1265 C 0.92603 0.29527 0.73239 0.0
C1266 C 0.9115 0.2816 0.74999 0.0
C1267 C 0.91622 0.27029 0.76644 0.0
C1268 C 0.93489 0.27258 0.76622 0.0
C1269 C 0.93615 0.25892 0.7867 0.0
C1270 C 0.94043 0.24377 0.77275 0.0
C1271 C 0.95178 0.27119 0.80849 0.0
C1272 C 0.91532 0.24866 0.79827 0.0
C1273 C 0.90399 0.25528 0.78611 0.0
C1274 C 0.88432 0.24811 0.79358 0.0
C1275 C 0.87619 0.23423 0.81466 0.0
C1276 C 0.88777 0.22782 0.82812 0.0
C1277 C 0.90746 0.23488 0.81935 0.0
H1278 H 0.72715 0.67742 0.74849 0.0
H1279 H 0.71775 0.62487 0.70367 0.0
H1280 H 0.74232 0.62317 0.73193 0.0
H1281 H 0.78026 0.69933 0.75972 0.0
H1282 H 0.77974 0.70763 0.79372 0.0
H1283 H 0.76191 0.70563 0.76919 0.0
H1284 H 0.73319 0.68217 0.801 0.0
H1285 H 0.75094 0.68424 0.82567 0.0
H1286 H 0.73202 0.65993 0.81349 0.0
H1287 H 0.76774 0.62649 0.76501 0.0
H1288 H 0.7901 0.63315 0.80384 0.0
H1289 H 0.78316 0.68294 0.82837 0.0
C1290 C 0.73031 0.66561 0.74461 0.0
C1291 C 0.72033 0.65129 0.72373 0.0
C1292 C 0.72492 0.63599 0.71956 0.0
C1293 C 0.73904 0.63493 0.73542 0.0
C1294 C 0.74858 0.64918 0.75571 0.0
C1295 C 0.74432 0.66413 0.76062 0.0
C1296 C 0.75614 0.67689 0.78473 0.0
C1297 C 0.77036 0.69866 0.77633 0.0
C1298 C 0.74224 0.67573 0.80757 0.0
C1299 C 0.76746 0.66664 0.79254 0.0
C1300 C 0.76306 0.65084 0.77529 0.0
C1301 C 0.77138 0.63888 0.77864 0.0
C1302 C 0.7842 0.64285 0.80063 0.0
C1303 C 0.78842 0.65853 0.81917 0.0
C1304 C 0.78017 0.67077 0.81462 0.0
H1305 H 0.716 0.65154 0.58622 0.0
H1306 H 0.74569 0.70648 0.63373 0.0
H1307 H 0.77639 0.71748 0.60739 0.0
H1308 H 0.75626 0.64361 0.58129 0.0
H1309 H 0.75103 0.6343 0.54698 0.0
H1310 H 0.73118 0.63119 0.56866 0.0
H1311 H 0.72122 0.64922 0.53399 0.0
H1312 H 0.74074 0.65197 0.51194 0.0
H1313 H 0.73966 0.67368 0.52225 0.0
H1314 H 0.80472 0.72151 0.57664 0.0
H1315 H 0.82616 0.71994 0.54071 0.0
H1316 H 0.77736 0.66243 0.51425 0.0
C1317 C 0.72885 0.66602 0.59093 0.0
C1318 C 0.72836 0.67812 0.61212 0.0
C1319 C 0.74558 0.69698 0.61748 0.0
C1320 C 0.76317 0.70328 0.60277 0.0
C1321 C 0.76328 0.69063 0.58263 0.0
C1322 C 0.74641 0.67255 0.57643 0.0
C1323 C 0.75016 0.6617 0.55376 0.0
C1324 C 0.74697 0.64151 0.56326 0.0
C1325 C 0.73718 0.659 0.52902 0.0
C1326 C 0.77182 0.6764 0.5482 0.0
C1327 C 0.77927 0.69297 0.56512 0.0
C1328 C 0.79899 0.70859 0.56332 0.0
C1329 C 0.81113 0.70751 0.5431 0.0
C1330 C 0.80341 0.691 0.52501 0.0
C1331 C 0.78366 0.67513 0.52807 0.0
H1332 H 0.35226 0.0617 0.60635 0.0
H1333 H 0.29573 0.04674 0.64227 0.0
H1334 H 0.29421 0.07134 0.61365 0.0
H1335 H 0.37127 0.11494 0.59864 0.0
H1336 H 0.38249 0.11648 0.56622 0.0
H1337 H 0.37989 0.09807 0.59025 0.0
H1338 H 0.36072 0.06986 0.55476 0.0
H1339 H 0.36342 0.08821 0.53059 0.0
H1340 H 0.3391 0.0676 0.53868 0.0
H1341 H 0.29816 0.09736 0.5812 0.0
H1342 H 0.3062 0.12089 0.54356 0.0
H1343 H 0.35979 0.11934 0.52772 0.0
C1344 C 0.33959 0.06361 0.60819 0.0
C1345 C 0.32416 0.05213 0.62673 0.0
C1346 C 0.30777 0.05512 0.62826 0.0
C1347 C 0.30677 0.06923 0.61216 0.0
C1348 C 0.32218 0.08033 0.59431 0.0
C1349 C 0.33819 0.07759 0.59192 0.0
C1350 C 0.35224 0.09098 0.57008 0.0
C1351 C 0.37269 0.10601 0.58202 0.0
C1352 C 0.35396 0.07841 0.54717 0.0
C1353 C 0.34151 0.10146 0.56065 0.0
C1354 C 0.32431 0.09525 0.57513 0.0
C1355 C 0.31166 0.10243 0.56974 0.0
C1356 C 0.31642 0.11594 0.54847 0.0
C1357 C 0.33362 0.12203 0.53269 0.0
C1358 C 0.34649 0.11494 0.53936 0.0
H1359 H 0.97847 0.28768 0.58785 0.0
H1360 H 0.93557 0.26584 0.65283 0.0
H1361 H 0.91385 0.23515 0.62643 0.0
H1362 H 0.9458 0.27405 0.53671 0.0
H1363 H 0.95794 0.26627 0.51273 0.0
H1364 H 0.9722 0.28424 0.53868 0.0
H1365 H 0.98541 0.2617 0.555 0.0
H1366 H 0.97126 0.24366 0.52884 0.0
H1367 H 0.96813 0.23603 0.56363 0.0
H1368 H 0.89394 0.21158 0.59011 0.0
H1369 H 0.87776 0.19587 0.54715 0.0
H1370 H 0.93444 0.22993 0.50604 0.0
C1371 C 0.96491 0.27595 0.59681 0.0
C1372 C 0.9587 0.27873 0.6224 0.0
C1373 C 0.94058 0.26363 0.63335 0.0
C1374 C 0.9282 0.24617 0.61855 0.0
C1375 C 0.93431 0.24401 0.59293 0.0
C1376 C 0.95239 0.25829 0.58225 0.0
C1377 C 0.95426 0.25336 0.55306 0.0
C1378 C 0.95774 0.27049 0.53421 0.0
C1379 C 0.97074 0.24839 0.54996 0.0
C1380 C 0.93397 0.23491 0.54859 0.0
C1381 C 0.9228 0.22963 0.57193 0.0
C1382 C 0.90272 0.21505 0.57188 0.0
C1383 C 0.89364 0.20606 0.54722 0.0
C1384 C 0.90466 0.21152 0.52281 0.0
C1385 C 0.92534 0.22547 0.52402 0.0
H1386 H 0.32883 0.28305 0.61201 0.0
H1387 H 0.38412 0.29321 0.64618 0.0
H1388 H 0.3825 0.26666 0.61716 0.0
H1389 H 0.30534 0.22832 0.60266 0.0
H1390 H 0.2943 0.22804 0.5707 0.0
H1391 H 0.29849 0.24671 0.59595 0.0
H1392 H 0.31885 0.27476 0.56151 0.0
H1393 H 0.31467 0.25621 0.53617 0.0
H1394 H 0.33962 0.27553 0.54462 0.0
H1395 H 0.37657 0.24088 0.58336 0.0
H1396 H 0.36733 0.21818 0.54399 0.0
H1397 H 0.31593 0.22399 0.53047 0.0
C1398 C 0.34041 0.27946 0.6135 0.0
C1399 C 0.35663 0.29026 0.63123 0.0
C1400 C 0.37166 0.28532 0.63249 0.0
C1401 C 0.37082 0.27013 0.61626 0.0
C1402 C 0.35487 0.25995 0.59875 0.0
C1403 C 0.33996 0.26438 0.59703 0.0
C1404 C 0.32531 0.25195 0.57493 0.0
C1405 C 0.30463 0.23792 0.58678 0.0
C1406 C 0.32458 0.26542 0.55301 0.0
C1407 C 0.33464 0.24027 0.56432 0.0
C1408 C 0.3515 0.24494 0.57869 0.0
C1409 C 0.36323 0.23684 0.5721 0.0
C1410 C 0.35779 0.22384 0.54981 0.0
C1411 C 0.34083 0.21915 0.5343 0.0
C1412 C 0.32896 0.22726 0.542 0.0
H1413 H 0.75636 0.04473 0.59156 0.0
H1414 H 0.7272 0.07483 0.62516 0.0
H1415 H 0.74866 0.10449 0.59783 0.0
H1416 H 0.80543 0.08764 0.58822 0.0
H1417 H 0.81136 0.08061 0.55627 0.0
H1418 H 0.79388 0.06159 0.57869 0.0
H1419 H 0.76725 0.04735 0.54084 0.0
H1420 H 0.7848 0.06603 0.51818 0.0
H1421 H 0.7611 0.06385 0.52392 0.0
H1422 H 0.7739 0.13141 0.56753 0.0
H1423 H 0.79751 0.15134 0.53123 0.0
H1424 H 0.80942 0.10354 0.51649 0.0
C1425 C 0.75438 0.05749 0.59304 0.0
C1426 C 0.74007 0.05737 0.61061 0.0
C1427 C 0.73794 0.07441 0.61179 0.0
C1428 C 0.75021 0.09146 0.59652 0.0
C1429 C 0.76447 0.09126 0.57994 0.0
C1430 C 0.76635 0.07458 0.57769 0.0
C1431 C 0.78223 0.07792 0.55738 0.0
C1432 C 0.79923 0.07688 0.57096 0.0
C1433 C 0.7733 0.0629 0.53368 0.0
C1434 C 0.78892 0.09903 0.54856 0.0
C1435 C 0.77873 0.10661 0.56211 0.0
C1436 C 0.78205 0.12568 0.55687 0.0
C1437 C 0.7956 0.13698 0.5365 0.0
C1438 C 0.80545 0.12906 0.52162 0.0
C1439 C 0.80235 0.11004 0.52811 0.0
H1440 H 0.97386 0.71496 0.60391 0.0
H1441 H 0.9481 0.65194 0.62182 0.0
H1442 H 0.91878 0.64404 0.59406 0.0
H1443 H 0.92903 0.71611 0.60595 0.0
H1444 H 0.93579 0.73321 0.57821 0.0
H1445 H 0.95478 0.73392 0.59929 0.0
H1446 H 0.97167 0.72883 0.5573 0.0
H1447 H 0.95305 0.72865 0.53609 0.0
H1448 H 0.95723 0.70795 0.53474 0.0
H1449 H 0.89184 0.64326 0.56418 0.0
H1450 H 0.87223 0.64933 0.5305 0.0
H1451 H 0.91581 0.71267 0.53287 0.0
C1452 C 0.96215 0.69944 0.60191 0.0
C1453 C 0.96337 0.68408 0.61515 0.0
C1454 C 0.94766 0.66399 0.61177 0.0
C1455 C 0.93083 0.65937 0.59625 0.0
C1456 C 0.92991 0.67498 0.58412 0.0
C1457 C 0.94534 0.69458 0.58647 0.0
C1458 C 0.94116 0.7086 0.57077 0.0
C1459 C 0.94013 0.72386 0.58969 0.0
C1460 C 0.9567 0.71912 0.5484 0.0
C1461 C 0.92097 0.69388 0.55909 0.0
C1462 C 0.91457 0.67456 0.56721 0.0
C1463 C 0.89665 0.65836 0.55796 0.0
C1464 C 0.88545 0.66194 0.53914 0.0
C1465 C 0.89224 0.68152 0.52983 0.0
C1466 C 0.90998 0.69767 0.54044 0.0
H1467 H 0.97344 0.70608 0.75382 0.0
H1468 H 0.94393 0.64747 0.71513 0.0
H1469 H 0.91359 0.6381 0.74142 0.0
H1470 H 0.95156 0.68837 0.82017 0.0
H1471 H 0.95004 0.71029 0.82737 0.0
H1472 H 0.96919 0.71204 0.80542 0.0
H1473 H 0.95753 0.7269 0.7682 0.0
H1474 H 0.938 0.72469 0.78983 0.0
H1475 H 0.93213 0.71302 0.75681 0.0
H1476 H 0.88577 0.63579 0.77048 0.0
H1477 H 0.86486 0.63854 0.80598 0.0
H1478 H 0.91305 0.69794 0.82692 0.0
C1479 C 0.96067 0.69118 0.75109 0.0
C1480 C 0.96108 0.67751 0.73237 0.0
C1481 C 0.94406 0.65814 0.72951 0.0
C1482 C 0.92667 0.65276 0.74414 0.0
C1483 C 0.9266 0.66682 0.76181 0.0
C1484 C 0.94332 0.68545 0.76583 0.0
C1485 C 0.93967 0.6975 0.78688 0.0
C1486 C 0.95342 0.70232 0.81141 0.0
C1487 C 0.94197 0.71666 0.77469 0.0
C1488 C 0.91826 0.68278 0.79402 0.0
C1489 C 0.91085 0.66528 0.77902 0.0
C1490 C 0.89142 0.64942 0.78231 0.0
C1491 C 0.87957 0.65119 0.80224 0.0
C1492 C 0.88728 0.66857 0.81871 0.0
C1493 C 0.90671 0.68468 0.81413 0.0
H1494 H 0.33983 0.28756 0.7657 0.0
H1495 H 0.39118 0.29633 0.72053 0.0
H1496 H 0.39109 0.26935 0.74576 0.0
H1497 H 0.35619 0.2792 0.82916 0.0
H1498 H 0.3318 0.26056 0.84048 0.0
H1499 H 0.3347 0.27957 0.81738 0.0
H1500 H 0.31052 0.25204 0.78392 0.0
H1501 H 0.30772 0.23295 0.80687 0.0
H1502 H 0.31558 0.233 0.77257 0.0
H1503 H 0.38681 0.2425 0.77675 0.0
H1504 H 0.38048 0.21993 0.81497 0.0
H1505 H 0.33197 0.22776 0.84089 0.0
C1506 C 0.35095 0.28369 0.76109 0.0
C1507 C 0.36557 0.29424 0.74117 0.0
C1508 C 0.37997 0.28876 0.73591 0.0
C1509 C 0.37995 0.27326 0.74995 0.0
C1510 C 0.36552 0.26325 0.7695 0.0
C1511 C 0.35139 0.26833 0.77539 0.0
C1512 C 0.33852 0.25603 0.79886 0.0
C1513 C 0.34042 0.26965 0.82289 0.0
C1514 C 0.31679 0.24271 0.79002 0.0
C1515 C 0.34783 0.24354 0.80527 0.0
C1516 C 0.36319 0.24777 0.78781 0.0
C1517 C 0.37468 0.2389 0.79045 0.0
C1518 C 0.37086 0.22591 0.81212 0.0
C1519 C 0.35574 0.22195 0.83104 0.0
C1520 C 0.34371 0.23047 0.82688 0.0
H1521 H 0.72538 0.06493 0.74843 0.0
H1522 H 0.77173 0.0586 0.70994 0.0
H1523 H 0.79644 0.08412 0.74056 0.0
H1524 H 0.75569 0.11908 0.76194 0.0
H1525 H 0.74467 0.1175 0.79454 0.0
H1526 H 0.73042 0.09966 0.76825 0.0
H1527 H 0.72339 0.07053 0.80003 0.0
H1528 H 0.73757 0.08826 0.82639 0.0
H1529 H 0.74388 0.07004 0.81546 0.0
H1530 H 0.81611 0.10895 0.77597 0.0
H1531 H 0.82934 0.13066 0.81639 0.0
H1532 H 0.77091 0.12143 0.83301 0.0
C1533 C 0.74076 0.0691 0.74634 0.0
C1534 C 0.74657 0.05969 0.72682 0.0
C1535 C 0.76683 0.0654 0.72489 0.0
C1536 C 0.78107 0.08002 0.74207 0.0
C1537 C 0.7749 0.08885 0.76123 0.0
C1538 C 0.75527 0.08361 0.76367 0.0
C1539 C 0.75265 0.09471 0.78722 0.0
C1540 C 0.74543 0.10856 0.77739 0.0
C1541 C 0.73854 0.08 0.80853 0.0
C1542 C 0.7738 0.10667 0.79772 0.0
C1543 C 0.78639 0.10322 0.78216 0.0
C1544 C 0.80647 0.11197 0.78822 0.0
C1545 C 0.81389 0.1244 0.81111 0.0
C1546 C 0.80122 0.12787 0.82776 0.0
C1547 C 0.78096 0.11905 0.82067 0.0
H1548 H 0.0481 0.33367 0.06339 0.0
H1549 H 0.08114 0.38519 0.01189 0.0
H1550 H 0.11217 0.38616 0.02355 0.0
H1551 H 0.08381 0.35015 0.11577 0.0
H1552 H 0.0794 0.32556 0.12299 0.0
H1553 H 0.05988 0.32832 0.10894 0.0
H1554 H 0.05624 0.30443 0.06946 0.0
H1555 H 0.07607 0.30194 0.08321 0.0
H1556 H 0.07752 0.3102 0.04895 0.0
H1557 H 0.14027 0.38309 0.04387 0.0
H1558 H 0.16239 0.37785 0.07381 0.0
H1559 H 0.11101 0.32744 0.10998 0.0
C1560 C 0.06183 0.34509 0.05442 0.0
C1561 C 0.0621 0.35935 0.03668 0.0
C1562 C 0.08047 0.37408 0.02553 0.0
C1563 C 0.09821 0.37469 0.03191 0.0
C1564 C 0.09744 0.36035 0.04934 0.0
C1565 C 0.07969 0.34586 0.0605 0.0
C1566 C 0.08299 0.33289 0.07987 0.0
C1567 C 0.07612 0.33433 0.10858 0.0
C1568 C 0.07258 0.31107 0.06976 0.0
C1569 C 0.10537 0.34264 0.07841 0.0
C1570 C 0.11348 0.35833 0.06049 0.0
C1571 C 0.13404 0.37061 0.05761 0.0
C1572 C 0.14656 0.36739 0.07444 0.0
C1573 C 0.13848 0.35208 0.09396 0.0
C1574 C 0.11763 0.33901 0.09487 0.0
H1575 H 0.69356 0.71659 0.06309 0.0
H1576 H 0.64993 0.70701 0.00213 0.0
H1577 H 0.65162 0.73827 0.01624 0.0
H1578 H 0.6747 0.73401 0.11364 0.0
H1579 H 0.69846 0.75236 0.12748 0.0
H1580 H 0.69562 0.73054 0.11033 0.0
H1581 H 0.72432 0.75337 0.07798 0.0
H1582 H 0.72701 0.77529 0.09487 0.0
H1583 H 0.72286 0.77217 0.0589 0.0
H1584 H 0.65517 0.76847 0.03976 0.0
H1585 H 0.65814 0.79334 0.07379 0.0
H1586 H 0.70051 0.7847 0.1184 0.0
C1587 C 0.68461 0.72125 0.05249 0.0
C1588 C 0.67167 0.70936 0.03145 0.0
C1589 C 0.65997 0.71584 0.01831 0.0
C1590 C 0.66094 0.7337 0.02601 0.0
C1591 C 0.67377 0.74507 0.04684 0.0
C1592 C 0.68536 0.7391 0.05999 0.0
C1593 C 0.69653 0.75316 0.08333 0.0
C1594 C 0.69099 0.74184 0.11028 0.0
C1595 C 0.71902 0.76415 0.07847 0.0
C1596 C 0.68879 0.76743 0.08184 0.0
C1597 C 0.67596 0.76274 0.06034 0.0
C1598 C 0.66549 0.77256 0.05639 0.0
C1599 C 0.66741 0.78684 0.07569 0.0
C1600 C 0.67958 0.79101 0.09872 0.0
C1601 C 0.69116 0.7819 0.10092 0.0
H1602 H 0.32641 0.95673 0.06576 0.0
H1603 H 0.29822 0.95571 0.99036 0.0
H1604 H 0.268 0.92405 0.0037 0.0
H1605 H 0.30545 0.90192 0.0678 0.0
H1606 H 0.30312 0.90127 0.10408 0.0
H1607 H 0.32258 0.92331 0.08792 0.0
H1608 H 0.31045 0.94504 0.11157 0.0
H1609 H 0.29122 0.92314 0.12802 0.0
H1610 H 0.2849 0.93824 0.10791 0.0
H1611 H 0.23922 0.89492 0.02893 0.0
H1612 H 0.21567 0.87134 0.06275 0.0
H1613 H 0.26466 0.88823 0.11775 0.0
C1614 C 0.31387 0.94972 0.05208 0.0
C1615 C 0.31439 0.95865 0.02726 0.0
C1616 C 0.29793 0.94903 0.00956 0.0
C1617 C 0.28078 0.93104 0.01693 0.0
C1618 C 0.28064 0.92253 0.04166 0.0
C1619 C 0.29694 0.93143 0.05872 0.0
C1620 C 0.29305 0.91948 0.08425 0.0
C1621 C 0.30687 0.91099 0.08611 0.0
C1622 C 0.29501 0.93223 0.10941 0.0
C1623 C 0.27176 0.90297 0.07952 0.0
C1624 C 0.26474 0.90491 0.0549 0.0
C1625 C 0.2447 0.89292 0.04793 0.0
C1626 C 0.23141 0.87937 0.06714 0.0
C1627 C 0.23827 0.87786 0.09289 0.0
C1628 C 0.25892 0.88895 0.0982 0.0
H1629 H 0.3915 0.0688 0.97707 0.0
H1630 H 0.3348 0.04216 0.01766 0.0
H1631 H 0.3314 0.07091 0.00472 0.0
H1632 H 0.40771 0.12275 0.99018 0.0
H1633 H 0.41828 0.13002 0.9569 0.0
H1634 H 0.41792 0.10933 0.97346 0.0
H1635 H 0.39945 0.08628 0.93242 0.0
H1636 H 0.39987 0.10689 0.91576 0.0
H1637 H 0.3766 0.08401 0.92107 0.0
H1638 H 0.33224 0.10059 0.98227 0.0
H1639 H 0.33613 0.12643 0.9499 0.0
H1640 H 0.3921 0.13377 0.9236 0.0
C1641 C 0.37878 0.0695 0.98409 0.0
C1642 C 0.36369 0.05362 -0.00087 0.0
C1643 C 0.34674 0.05445 0.00676 0.0
C1644 C 0.3447 0.07074 -0.00052 0.0
C1645 C 0.35969 0.08609 0.98428 0.0
C1646 C 0.37641 0.08557 0.97664 0.0
C1647 C 0.38915 0.10258 0.95758 0.0
C1648 C 0.40947 0.11702 0.9703 0.0
C1649 C 0.39139 0.09445 0.93009 0.0
C1650 C 0.37679 0.11242 0.95513 0.0
C1651 C 0.35999 0.10293 0.97101 0.0
C1652 C 0.34555 0.10836 0.97019 0.0
C1653 C 0.34795 0.12324 0.95193 0.0
C1654 C 0.36456 0.1324 0.93453 0.0
C1655 C 0.37946 0.12737 0.93707 0.0
H1656 H 0.98809 0.30043 0.9564 0.0
H1657 H 0.9538 0.30642 0.02099 0.0
H1658 H 0.92468 0.2744 0.00758 0.0
H1659 H 0.94988 0.28082 0.908 0.0
H1660 H 0.95615 0.26363 0.89281 0.0
H1661 H 0.97503 0.28603 0.90932 0.0
H1662 H 0.98339 0.26454 0.93995 0.0
H1663 H 0.96426 0.24203 0.92372 0.0
H1664 H 0.96409 0.24494 0.95989 0.0
H1665 H 0.89806 0.24374 0.98457 0.0
H1666 H 0.87581 0.21837 0.95111 0.0
H1667 H 0.92693 0.23013 0.90307 0.0
C1668 C 0.97453 0.29484 0.96789 0.0
C1669 C 0.97335 0.30603 0.98979 0.0
C1670 C 0.95521 0.29824 0.00412 0.0
C1671 C 0.93852 0.27991 0.99681 0.0
C1672 C 0.94007 0.26926 0.97518 0.0
C1673 C 0.95758 0.27639 0.96085 0.0
C1674 C 0.95467 0.26264 0.9371 0.0
C1675 C 0.95919 0.27395 0.91023 0.0
C1676 C 0.96736 0.25296 0.94037 0.0
C1677 C 0.93272 0.24721 0.93982 0.0
C1678 C 0.92463 0.25113 0.96216 0.0
C1679 C 0.90426 0.24023 0.96728 0.0
C1680 C 0.8917 0.22565 0.94831 0.0
C1681 C 0.89955 0.22219 0.92448 0.0
C1682 C 0.92045 0.23236 0.92116 0.0
H1683 H 0.70358 0.63437 0.97405 0.0
H1684 H 0.72639 0.6979 0.98412 0.0
H1685 H 0.75938 0.70527 0.96858 0.0
H1686 H 0.74969 0.63442 0.99085 0.0
H1687 H 0.74583 0.61659 0.96448 0.0
H1688 H 0.72486 0.61592 0.98057 0.0
H1689 H 0.71175 0.61898 0.93396 0.0
H1690 H 0.73246 0.61929 0.91784 0.0
H1691 H 0.72785 0.63939 0.91218 0.0
H1692 H 0.78915 0.70607 0.94883 0.0
H1693 H 0.81156 0.70052 0.91951 0.0
H1694 H 0.76927 0.63682 0.9192 0.0
C1695 C 0.71569 0.64976 0.97346 0.0
C1696 C 0.7126 0.66559 0.9806 0.0
C1697 C 0.72854 0.68559 0.97881 0.0
C1698 C 0.74736 0.68991 0.97026 0.0
C1699 C 0.75001 0.67404 0.96317 0.0
C1700 C 0.73452 0.65437 0.96421 0.0
C1701 C 0.74061 0.64036 0.95192 0.0
C1702 C 0.74022 0.62597 0.97323 0.0
C1703 C 0.72739 0.62884 0.92753 0.0
C1704 C 0.76171 0.65525 0.94328 0.0
C1705 C 0.76703 0.67455 0.95067 0.0
C1706 C 0.78529 0.691 0.94333 0.0
C1707 C 0.79805 0.68773 0.92695 0.0
C1708 C 0.79237 0.66823 0.91786 0.0
C1709 C 0.77424 0.65177 0.9268 0.0
H1710 H 0.97458 0.68358 0.96229 0.0
H1711 H 0.93889 0.63071 0.01038 0.0
H1712 H 0.90841 0.62915 0.9938 0.0
H1713 H 0.94299 0.7055 0.97131 0.0
H1714 H 0.94721 0.71475 0.93724 0.0
H1715 H 0.96607 0.71248 0.95461 0.0
H1716 H 0.96655 0.69023 0.91554 0.0
H1717 H 0.94788 0.6926 0.89802 0.0
H1718 H 0.94373 0.66812 0.90541 0.0
H1719 H 0.88145 0.63163 0.96762 0.0
H1720 H 0.86159 0.63758 0.93422 0.0
H1721 H 0.91521 0.69003 0.90621 0.0
C1722 C 0.96038 0.6718 0.96963 0.0
C1723 C 0.95918 0.65727 0.98768 0.0
C1724 C 0.94024 0.64207 0.99665 0.0
C1725 C 0.92282 0.64109 0.98737 0.0
C1726 C 0.92453 0.6556 0.96938 0.0
C1727 C 0.94291 0.67075 0.96081 0.0
C1728 C 0.94087 0.68399 0.9405 0.0
C1729 C 0.94981 0.70545 0.95159 0.0
C1730 C 0.95031 0.6837 0.91326 0.0
C1731 C 0.9185 0.67363 0.93832 0.0
C1732 C 0.90922 0.65734 0.95519 0.0
C1733 C 0.8886 0.64458 0.95472 0.0
C1734 C 0.87736 0.64816 0.93585 0.0
C1735 C 0.88677 0.66433 0.91768 0.0
C1736 C 0.90751 0.67761 0.91994 0.0
H1737 H 0.333 0.29478 0.96302 0.0
H1738 H 0.38173 0.3118 0.01866 0.0
H1739 H 0.38237 0.28138 0.006 0.0
H1740 H 0.30823 0.24034 0.97499 0.0
H1741 H 0.30089 0.23409 0.94012 0.0
H1742 H 0.30335 0.25654 0.95494 0.0
H1743 H 0.3281 0.27783 0.91727 0.0
H1744 H 0.32544 0.25545 0.9022 0.0
H1745 H 0.3497 0.27586 0.91134 0.0
H1746 H 0.38027 0.25104 0.98307 0.0
H1747 H 0.37594 0.22435 0.95106 0.0
H1748 H 0.32637 0.22504 0.91425 0.0
C1749 C 0.34367 0.29199 0.97271 0.0
C1750 C 0.35735 0.30572 0.99175 0.0
C1751 C 0.37109 0.30152 0.004 0.0
C1752 C 0.37151 0.2842 0.99704 0.0
C1753 C 0.35783 0.27095 0.97819 0.0
C1754 C 0.34406 0.27457 0.96635 0.0
C1755 C 0.33157 0.25845 0.94577 0.0
C1756 C 0.30971 0.24666 0.95449 0.0
C1757 C 0.33385 0.26743 0.91749 0.0
C1758 C 0.34091 0.24561 0.94719 0.0
C1759 C 0.35598 0.25294 0.96608 0.0
C1760 C 0.36819 0.24485 0.96866 0.0
C1761 C 0.36551 0.22953 0.9506 0.0
C1762 C 0.35074 0.22251 0.9303 0.0
C1763 C 0.33766 0.22996 0.92976 0.0
H1764 H 0.70099 0.06457 0.96591 0.0
H1765 H 0.7302 0.03677 0.00401 0.0
H1766 H 0.76294 0.0654 0.99073 0.0
H1767 H 0.73258 0.08153 0.9085 0.0
H1768 H 0.73218 0.10436 0.90521 0.0
H1769 H 0.71154 0.08283 0.92043 0.0
H1770 H 0.71533 0.10421 0.96307 0.0
H1771 H 0.73628 0.12571 0.94809 0.0
H1772 H 0.73876 0.11707 0.98064 0.0
H1773 H 0.79255 0.09654 0.97137 0.0
H1774 H 0.81572 0.12428 0.94177 0.0
H1775 H 0.7673 0.13113 0.91448 0.0
C1776 C 0.71435 0.06471 0.97165 0.0
C1777 C 0.7132 0.04863 0.98617 0.0
C1778 C 0.73087 0.04903 0.99295 0.0
C1779 C 0.7495 0.06529 0.98566 0.0
C1780 C 0.75023 0.08102 0.97138 0.0
C1781 C 0.73308 0.0807 0.96407 0.0
C1782 C 0.73783 0.09844 0.94643 0.0
C1783 C 0.72796 0.09136 0.91849 0.0
C1784 C 0.73168 0.11217 0.9604 0.0
C1785 C 0.76026 0.10859 0.94452 0.0
C1786 C 0.76719 0.0986 0.95958 0.0
C1787 C 0.78729 0.10461 0.95978 0.0
C1788 C 0.80044 0.12058 0.94319 0.0
C1789 C 0.79343 0.13019 0.92633 0.0
C1790 C 0.77318 0.12447 0.92779 0.0
H1791 H 0.68754 0.9721 0.05602 0.0
H1792 H 0.63483 0.9382 0.00672 0.0
H1793 H 0.63271 0.90672 0.02054 0.0
H1794 H 0.70842 0.93997 0.04334 0.0
H1795 H 0.71757 0.94277 0.07741 0.0
H1796 H 0.71564 0.96264 0.06224 0.0
H1797 H 0.69369 0.96196 0.10205 0.0
H1798 H 0.69588 0.94238 0.11746 0.0
H1799 H 0.6717 0.93867 0.11066 0.0
H1800 H 0.63461 0.87841 0.0438 0.0
H1801 H 0.63978 0.85694 0.07545 0.0
H1802 H 0.69243 0.90942 0.10648 0.0
C1803 C 0.67565 0.95808 0.04791 0.0
C1804 C 0.66135 0.9577 0.03024 0.0
C1805 C 0.646 0.93895 0.02023 0.0
C1806 C 0.64471 0.92095 0.0279 0.0
C1807 C 0.65904 0.92184 0.04537 0.0
C1808 C 0.67426 0.93999 0.05516 0.0
C1809 C 0.68725 0.93693 0.07468 0.0
C1810 C 0.70848 0.94612 0.06376 0.0
C1811 C 0.6871 0.94548 0.10287 0.0
C1812 C 0.67674 0.91426 0.07488 0.0
C1813 C 0.66053 0.90572 0.05779 0.0
C1814 C 0.64752 0.88496 0.05681 0.0
C1815 C 0.65066 0.87279 0.0746 0.0
C1816 C 0.6667 0.88143 0.09306 0.0
C1817 C 0.68032 0.90233 0.09212 0.0
H1818 H 0.03937 0.71528 0.06092 0.0
H1819 H 0.06975 0.70129 0.99888 0.0
H1820 H 0.10152 0.73098 0.01235 0.0
H1821 H 0.06995 0.77025 0.05507 0.0
H1822 H 0.06971 0.7743 0.09098 0.0
H1823 H 0.04901 0.75283 0.07507 0.0
H1824 H 0.05278 0.72928 0.10793 0.0
H1825 H 0.07324 0.75068 0.1241 0.0
H1826 H 0.07644 0.73088 0.11068 0.0
H1827 H 0.13072 0.76058 0.03552 0.0
H1828 H 0.15436 0.78601 0.06816 0.0
H1829 H 0.10497 0.78201 0.11302 0.0
C1830 C 0.05267 0.71859 0.05 0.0
C1831 C 0.05201 0.70592 0.02882 0.0
C1832 C 0.06982 0.71074 0.01516 0.0
C1833 C 0.08798 0.72767 0.02257 0.0
C1834 C 0.08817 0.73987 0.04353 0.0
C1835 C 0.07096 0.73555 0.05703 0.0
C1836 C 0.07538 0.75038 0.0799 0.0
C1837 C 0.06542 0.76267 0.07494 0.0
C1838 C 0.0691 0.73966 0.10726 0.0
C1839 C 0.09776 0.76331 0.07763 0.0
C1840 C 0.10491 0.75717 0.05638 0.0
C1841 C 0.12527 0.76576 0.05193 0.0
C1842 C 0.13864 0.78034 0.07038 0.0
C1843 C 0.13153 0.78608 0.09298 0.0
C1844 C 0.11085 0.77806 0.09575 0.0
H1845 H 0.30256 0.33205 0.04636 0.0
H1846 H 0.32834 0.38844 0.00419 0.0
H1847 H 0.30034 0.3924 0.01934 0.0
H1848 H 0.25011 0.31574 0.03311 0.0
H1849 H 0.24245 0.3046 0.06597 0.0
H1850 H 0.26339 0.30551 0.04942 0.0
H1851 H 0.28547 0.32386 0.09111 0.0
H1852 H 0.2646 0.32282 0.10779 0.0
H1853 H 0.28712 0.34658 0.10338 0.0
H1854 H 0.27109 0.3918 0.0447 0.0
H1855 H 0.24475 0.38674 0.07732 0.0
H1856 H 0.23764 0.32983 0.09971 0.0
C1857 C 0.3022 0.3451 0.03989 0.0
C1858 C 0.31767 0.35994 0.02406 0.0
C1859 C 0.3166 0.37681 0.01617 0.0
C1860 C 0.30072 0.37916 0.02468 0.0
C1861 C 0.28582 0.36432 0.04066 0.0
C1862 C 0.28641 0.34752 0.04789 0.0
C1863 C 0.2694 0.33422 0.0664 0.0
C1864 C 0.25552 0.31381 0.05291 0.0
C1865 C 0.27711 0.33174 0.09378 0.0
C1866 C 0.25942 0.34639 0.06929 0.0
C1867 C 0.26891 0.36367 0.05423 0.0
C1868 C 0.26331 0.37808 0.05606 0.0
C1869 C 0.24821 0.37504 0.07444 0.0
C1870 C 0.23895 0.35777 0.09072 0.0
C1871 C 0.24419 0.343 0.08713 0.0
H1872 H 0.71526 0.66847 0.38468 0.0
H1873 H 0.74877 0.72309 0.33906 0.0
H1874 H 0.78006 0.7251 0.35315 0.0
H1875 H 0.74662 0.68335 0.44028 0.0
H1876 H 0.74324 0.65897 0.44612 0.0
H1877 H 0.72403 0.6611 0.42983 0.0
H1878 H 0.72487 0.64014 0.38922 0.0
H1879 H 0.74433 0.6382 0.40535 0.0
H1880 H 0.74791 0.64819 0.37176 0.0
H1881 H 0.80794 0.72285 0.37738 0.0
H1882 H 0.82855 0.71742 0.4101 0.0
H1883 H 0.77625 0.6635 0.43741 0.0
C1884 C 0.72913 0.68074 0.37723 0.0
C1885 C 0.72952 0.69563 0.36069 0.0
C1886 C 0.74806 0.71145 0.35162 0.0
C1887 C 0.76591 0.71266 0.35949 0.0
C1888 C 0.76496 0.69778 0.37611 0.0
C1889 C 0.74694 0.68206 0.3847 0.0
C1890 C 0.74967 0.66868 0.40393 0.0
C1891 C 0.74035 0.668 0.43167 0.0
C1892 C 0.74119 0.64755 0.39183 0.0
C1893 C 0.77206 0.67957 0.40559 0.0
C1894 C 0.78076 0.69623 0.38926 0.0
C1895 C 0.80126 0.7096 0.38974 0.0
C1896 C 0.81294 0.70631 0.40817 0.0
C1897 C 0.80406 0.68984 0.4259 0.0
C1898 C 0.78351 0.67592 0.42359 0.0
H1899 H 0.35907 0.05265 0.3945 0.0
H1900 H 0.31575 0.04571 0.33452 0.0
H1901 H 0.31814 0.07682 0.35053 0.0
H1902 H 0.34101 0.06994 0.44689 0.0
H1903 H 0.36498 0.08765 0.4608 0.0
H1904 H 0.36153 0.06592 0.4427 0.0
H1905 H 0.39032 0.08886 0.41055 0.0
H1906 H 0.39361 0.1107 0.42839 0.0
H1907 H 0.3893 0.10828 0.39244 0.0
H1908 H 0.32226 0.10657 0.37552 0.0
H1909 H 0.32589 0.13105 0.4106 0.0
H1910 H 0.36797 0.12072 0.45308 0.0
C1911 C 0.3503 0.05784 0.38458 0.0
C1912 C 0.33727 0.04669 0.3632 0.0
C1913 C 0.32587 0.0539 0.35094 0.0
C1914 C 0.32721 0.07171 0.35973 0.0
C1915 C 0.34013 0.08237 0.38078 0.0
C1916 C 0.35146 0.07573 0.39316 0.0
C1917 C 0.36293 0.08929 0.4168 0.0
C1918 C 0.35726 0.0775 0.44336 0.0
C1919 C 0.38537 0.09991 0.41173 0.0
C1920 C 0.35567 0.10401 0.41628 0.0
C1921 C 0.34277 0.09994 0.39506 0.0
C1922 C 0.33264 0.1102 0.39196 0.0
C1923 C 0.33494 0.12426 0.41186 0.0
C1924 C 0.34719 0.12785 0.43461 0.0
C1925 C 0.35849 0.11834 0.43589 0.0
H1926 H 0.97826 0.31762 0.40063 0.0
H1927 H 0.98594 0.2855 0.33397 0.0
H1928 H 0.95436 0.25515 0.34564 0.0
H1929 H 0.95914 0.27774 0.44671 0.0
H1930 H 0.94182 0.28349 0.46224 0.0
H1931 H 0.96409 0.30307 0.44697 0.0
H1932 H 0.94286 0.31203 0.41687 0.0
H1933 H 0.92049 0.29218 0.43181 0.0
H1934 H 0.92373 0.29296 0.39567 0.0
H1935 H 0.92334 0.22719 0.36707 0.0
H1936 H 0.89749 0.20392 0.39879 0.0
H1937 H 0.90871 0.25424 0.44999 0.0
C1938 C 0.97318 0.30427 0.38832 0.0
C1939 C 0.98462 0.30403 0.36631 0.0
C1940 C 0.97749 0.28614 0.35091 0.0
C1941 C 0.95946 0.2688 0.35727 0.0
C1942 C 0.94851 0.26949 0.37904 0.0
C1943 C 0.95513 0.28676 0.39439 0.0
C1944 C 0.94125 0.28311 0.4179 0.0
C1945 C 0.95223 0.28708 0.44505 0.0
C1946 C 0.93151 0.29583 0.4154 0.0
C1947 C 0.92616 0.26102 0.41379 0.0
C1948 C 0.93044 0.25345 0.39109 0.0
C1949 C 0.91963 0.23302 0.38465 0.0
C1950 C 0.90478 0.21988 0.40261 0.0
C1951 C 0.90095 0.22721 0.42677 0.0
C1952 C 0.91114 0.24819 0.43152 0.0
H1953 H 1.01031 0.38303 0.30626 0.0
H1954 H 0.06757 0.41617 0.3458 0.0
H1955 H 0.07115 0.44796 0.32996 0.0
H1956 H 0.02253 0.41211 0.24821 0.0
H1957 H 0.99886 0.41043 0.24536 0.0
H1958 H 1.00053 0.39084 0.26167 0.0
H1959 H 0.98408 0.39547 0.30451 0.0
H1960 H 0.98259 0.41529 0.28834 0.0
H1961 H 0.99495 0.4198 0.32049 0.0
H1962 H 0.06988 0.47611 0.30456 0.0
H1963 H 0.06368 0.49672 0.27255 0.0
H1964 H 1.00619 0.44517 0.25365 0.0
C1965 C 0.02351 0.39698 0.31188 0.0
C1966 C 0.03868 0.39708 0.32724 0.0
C1967 C 0.05571 0.4157 0.33413 0.0
C1968 C 0.05786 0.43385 0.32525 0.0
C1969 C 0.04266 0.43322 0.30993 0.0
C1970 C 0.02572 0.4152 0.3036 0.0
C1971 C 1.01184 0.41833 0.28603 0.0
C1972 C 1.00824 0.40728 0.25871 0.0
C1973 C 0.9922 0.41184 0.30073 0.0
C1974 C 0.02383 0.44083 0.28266 0.0
C1975 C 0.04156 0.4493 0.29661 0.0
C1976 C 0.05583 0.46966 0.29407 0.0
C1977 C 0.05215 0.48136 0.27606 0.0
C1978 C 0.03437 0.47264 0.26091 0.0
C1979 C 0.01979 0.45234 0.26533 0.0
H1980 H 0.63077 0.65669 0.29121 0.0
H1981 H 0.63822 0.62576 0.35804 0.0
H1982 H 0.60735 0.59448 0.3447 0.0
H1983 H 0.57636 0.63122 0.29624 0.0
H1984 H 0.57314 0.63072 0.26014 0.0
H1985 H 0.59532 0.65067 0.27572 0.0
H1986 H 0.61698 0.64252 0.24456 0.0
H1987 H 0.59491 0.62285 0.22866 0.0
H1988 H 0.61249 0.61736 0.24343 0.0
H1989 H 0.57758 0.56576 0.32049 0.0
H1990 H 0.55234 0.54262 0.28741 0.0
H1991 H 0.56215 0.59345 0.24023 0.0
C1992 C 0.6258 0.64328 0.30296 0.0
C1993 C 0.63681 0.64333 0.32533 0.0
C1994 C 0.6299 0.62576 0.34065 0.0
C1995 C 0.61238 0.60804 0.33332 0.0
C1996 C 0.60171 0.60838 0.31109 0.0
C1997 C 0.6081 0.62564 0.29632 0.0
C1998 C 0.59427 0.62203 0.27299 0.0
C1999 C 0.58417 0.6344 0.2765 0.0
C2000 C 0.60532 0.62644 0.24581 0.0
C2001 C 0.57955 0.5999 0.27624 0.0
C2002 C 0.58396 0.59222 0.29837 0.0
C2003 C 0.57369 0.57167 0.30347 0.0
C2004 C 0.55923 0.55862 0.28475 0.0
C2005 C 0.55524 0.56624 0.26136 0.0
C2006 C 0.5648 0.5872 0.25806 0.0
H2007 H 0.3676 0.97099 0.3057 0.0
H2008 H 0.39109 0.03499 0.30601 0.0
H2009 H 0.42407 0.04083 0.29313 0.0
H2010 H 0.41244 0.97176 0.32893 0.0
H2011 H 0.40903 0.95206 0.306 0.0
H2012 H 0.38781 0.95278 0.31852 0.0
H2013 H 0.37629 0.95267 0.26947 0.0
H2014 H 0.39719 0.95147 0.25696 0.0
H2015 H 0.39331 0.97125 0.24617 0.0
H2016 H 0.45424 0.03983 0.27813 0.0
H2017 H 0.47713 0.03183 0.25428 0.0
H2018 H 0.43399 0.96863 0.26087 0.0
C2019 C 0.37978 0.98621 0.30335 0.0
C2020 C 0.37683 1.00256 0.30709 0.0
C2021 C 0.393 0.02225 0.30322 0.0
C2022 C 0.41185 0.02573 0.29618 0.0
C2023 C 0.41435 0.00935 0.29269 0.0
C2024 C 0.39865 0.98994 0.2956 0.0
C2025 C 0.40475 0.97497 0.28752 0.0
C2026 C 0.40343 0.96213 0.31169 0.0
C2027 C 0.39214 0.96182 0.26361 0.0
C2028 C 0.42619 0.98895 0.27926 0.0
C2029 C 0.43159 0.00873 0.28308 0.0
C2030 C 0.45026 0.02439 0.27542 0.0
C2031 C 0.46334 0.01974 0.26223 0.0
C2032 C 0.45762 0.99964 0.25655 0.0
C2033 C 0.43905 0.98409 0.266 0.0
H2034 H 0.64143 0.01648 0.30521 0.0
H2035 H 0.60851 0.96204 0.35131 0.0
H2036 H 0.57696 0.95863 0.33546 0.0
H2037 H 0.60732 0.03509 0.31619 0.0
H2038 H 0.61106 0.04502 0.28255 0.0
H2039 H 0.63069 0.04376 0.29932 0.0
H2040 H 0.63269 0.02319 0.2591 0.0
H2041 H 0.61323 0.02456 0.24217 0.0
H2042 H 0.6106 1.00054 0.24836 0.0
H2043 H 0.54864 0.95972 0.30972 0.0
H2044 H 0.52779 0.96496 0.27708 0.0
H2045 H 0.57973 0.01974 0.25092 0.0
C2046 C 0.62761 1.00395 0.31233 0.0
C2047 C 0.62753 0.98953 0.32959 0.0
C2048 C 0.60903 0.97335 0.33824 0.0
C2049 C 0.59101 0.97131 0.32932 0.0
C2050 C 0.59166 0.98574 0.31203 0.0
C2051 C 0.60959 1.00184 0.30388 0.0
C2052 C 0.60657 0.01488 0.28433 0.0
C2053 C 0.61437 0.03593 0.29632 0.0
C2054 C 0.61634 0.01584 0.25688 0.0
C2055 C 0.58416 1.00343 0.28211 0.0
C2056 C 0.57567 0.98668 0.29824 0.0
C2057 C 0.55519 0.97302 0.29745 0.0
C2058 C 0.54336 0.97619 0.27904 0.0
C2059 C 0.55202 0.99288 0.26164 0.0
C2060 C 0.57257 0.00698 0.26421 0.0
H2061 H 0.04665 0.6525 0.31235 0.0
H2062 H 0.98303 0.6234 0.32244 0.0
H2063 H 0.97931 0.59127 0.30656 0.0
H2064 H 0.0435 0.62796 0.24989 0.0
H2065 H 0.06555 0.62687 0.25574 0.0
H2066 H 0.06303 0.6465 0.27114 0.0
H2067 H 0.06906 0.6362 0.31815 0.0
H2068 H 0.07114 0.61622 0.30285 0.0
H2069 H 0.0533 0.61082 0.32933 0.0
H2070 H 0.98261 0.56259 0.28808 0.0
H2071 H 0.99165 0.54163 0.2606 0.0
H2072 H 0.05274 0.59019 0.2593 0.0
C2073 C 0.03198 0.63928 0.31151 0.0
C2074 C 0.01512 0.64024 0.31892 0.0
C2075 C 0.9961 0.62284 0.31689 0.0
C2076 C 0.9939 0.60454 0.30815 0.0
C2077 C 1.01086 0.60402 0.30107 0.0
C2078 C 0.02949 0.62107 0.30204 0.0
C2079 C 0.04502 0.61718 0.29008 0.0
C2080 C 0.05484 0.6304 0.26524 0.0
C2081 C 0.06054 0.62029 0.31138 0.0
C2082 C 0.03225 0.59529 0.28215 0.0
C2083 C 1.01265 0.58781 0.28924 0.0
C2084 C 0.99794 0.56822 0.28271 0.0
C2085 C 1.00322 0.55631 0.26742 0.0
C2086 C 0.02295 0.56414 0.25854 0.0
C2087 C 0.0377 0.58366 0.26669 0.0
H2088 H 0.37498 0.40405 0.32344 0.0
H2089 H 0.39089 0.35873 0.31224 0.0
H2090 H 0.42394 0.38458 0.29541 0.0
H2091 H 0.39729 0.42943 0.26222 0.0
H2092 H 0.40474 0.45388 0.27587 0.0
H2093 H 0.38347 0.43208 0.28949 0.0
H2094 H 0.39932 0.44229 0.33721 0.0
H2095 H 0.42091 0.46385 0.32347 0.0
H2096 H 0.42361 0.44588 0.34274 0.0
H2097 H 0.45505 0.41542 0.27858 0.0
H2098 H 0.47852 0.4466 0.25488 0.0
H2099 H 0.44161 0.47135 0.27444 0.0
C2100 C 0.3855 0.39962 0.31765 0.0
C2101 C 0.38047 0.37942 0.31939 0.0
C2102 C 0.39445 0.37411 0.31105 0.0
C2103 C 0.41333 0.38874 0.30175 0.0
C2104 C 0.41794 0.4086 0.30057 0.0
C2105 C 0.40423 0.41395 0.30773 0.0
C2106 C 0.41198 0.43582 0.30175 0.0
C2107 C 0.39859 0.43792 0.2811 0.0
C2108 C 0.41408 0.44766 0.32785 0.0
C2109 C 0.43214 0.44195 0.28985 0.0
C2110 C 0.43551 0.42617 0.28998 0.0
C2111 C 0.45266 0.42793 0.2787 0.0
C2112 C 0.46611 0.44582 0.26565 0.0
C2113 C 0.46224 0.46164 0.26366 0.0
C2114 C 0.44536 0.45985 0.27672 0.0
H2115 H 0.30277 0.281 0.39837 0.0
H2116 H 0.36017 0.30895 0.35931 0.0
H2117 H 0.3638 0.28027 0.37167 0.0
H2118 H 0.31788 0.26429 0.45499 0.0
H2119 H 0.29439 0.24142 0.45899 0.0
H2120 H 0.29532 0.26282 0.44398 0.0
H2121 H 0.27691 0.24118 0.40184 0.0
H2122 H 0.27632 0.21982 0.41662 0.0
H2123 H 0.28714 0.22832 0.3837 0.0
H2124 H 0.36196 0.24923 0.39002 0.0
H2125 H 0.35759 0.22179 0.41953 0.0
H2126 H 0.30246 0.21476 0.44922 0.0
C2127 C 0.31594 0.28086 0.39217 0.0
C2128 C 0.33112 0.29703 0.37761 0.0
C2129 C 0.34837 0.29664 0.37039 0.0
C2130 C 0.35048 0.28034 0.37712 0.0
C2131 C 0.33529 0.26456 0.39147 0.0
C2132 C 0.31851 0.26486 0.39938 0.0
C2133 C 0.30553 0.24717 0.41737 0.0
C2134 C 0.30315 0.25436 0.44549 0.0
C2135 C 0.28527 0.2333 0.40408 0.0
C2136 C 0.31775 0.2371 0.41867 0.0
C2137 C 0.33462 0.24707 0.40302 0.0
C2138 C 0.34869 0.24118 0.40212 0.0
C2139 C 0.34598 0.22538 0.41868 0.0
C2140 C 0.32951 0.21585 0.43624 0.0
C2141 C 0.3149 0.22139 0.43542 0.0
H2142 H 0.70959 0.05471 0.39262 0.0
H2143 H 0.73997 0.0363 0.33645 0.0
H2144 H 0.77184 0.06638 0.3482 0.0
H2145 H 0.74103 0.109 0.37939 0.0
H2146 H 0.74047 0.11577 0.41421 0.0
H2147 H 0.71973 0.09339 0.40007 0.0
H2148 H 0.72257 0.07219 0.4379 0.0
H2149 H 0.74304 0.09453 0.4523 0.0
H2150 H 0.74597 0.07368 0.44336 0.0
H2151 H 0.80111 0.09645 0.37035 0.0
H2152 H 0.8245 0.12318 0.40179 0.0
H2153 H 0.77513 0.12432 0.43929 0.0
C2154 C 0.72293 0.05711 0.38264 0.0
C2155 C 0.72223 0.04303 0.36375 0.0
C2156 C 0.74005 0.04678 0.35108 0.0
C2157 C 0.75828 0.06393 0.35749 0.0
C2158 C 0.75852 0.07753 0.37621 0.0
C2159 C 0.74127 0.07441 0.38844 0.0
C2160 C 0.74569 0.0909 0.40872 0.0
C2161 C 0.73616 0.10298 0.40007 0.0
C2162 C 0.73893 0.08231 0.43725 0.0
C2163 C 0.76811 0.10331 0.4067 0.0
C2164 C 0.7753 0.09547 0.38777 0.0
C2165 C 0.79566 0.10305 0.38479 0.0
C2166 C 0.80891 0.11839 0.40251 0.0
C2167 C 0.80167 0.12592 0.42282 0.0
C2168 C 0.78111 0.11899 0.42373 0.0
H2169 H 0.96742 0.66774 0.39042 0.0
H2170 H 0.99099 0.72325 0.34649 0.0
H2171 H 0.96271 0.72647 0.36185 0.0
H2172 H 0.91493 0.64968 0.37715 0.0
H2173 H 0.90728 0.6389 0.41021 0.0
H2174 H 0.92875 0.64046 0.39443 0.0
H2175 H 0.95025 0.65997 0.43605 0.0
H2176 H 0.92881 0.65819 0.45203 0.0
H2177 H 0.95082 0.68235 0.44744 0.0
H2178 H 0.93305 0.72501 0.38595 0.0
H2179 H 0.90596 0.71934 0.41744 0.0
H2180 H 0.90079 0.66366 0.44226 0.0
C2181 C 0.96658 0.68051 0.38388 0.0
C2182 C 0.98146 0.69527 0.36731 0.0
C2183 C 0.97976 0.71173 0.35917 0.0
C2184 C 0.9637 0.71365 0.36771 0.0
C2185 C 0.94924 0.69881 0.38405 0.0
C2186 C 0.95053 0.6825 0.3919 0.0
C2187 C 0.93356 0.669 0.41035 0.0
C2188 C 0.92035 0.64828 0.39724 0.0
C2189 C 0.94133 0.66729 0.4381 0.0
C2190 C 0.92284 0.68052 0.41233 0.0
C2191 C 0.93195 0.69763 0.39694 0.0
C2192 C 0.92558 0.71145 0.39768 0.0
C2193 C 0.91006 0.70805 0.4154 0.0
C2194 C 0.90118 0.69101 0.4321 0.0
C2195 C 0.90716 0.67673 0.4295 0.0
H2196 H 0.41251 0.0548 0.71081 0.0
H2197 H 0.38959 0.99751 0.67033 0.0
H2198 H 0.41862 0.99585 0.68587 0.0
H2199 H 0.46675 0.07361 0.70223 0.0
H2200 H 0.47249 0.08439 0.73578 0.0
H2201 H 0.45202 0.08288 0.71731 0.0
H2202 H 0.42833 0.06357 0.75686 0.0
H2203 H 0.44869 0.06508 0.77539 0.0
H2204 H 0.42686 0.04104 0.76878 0.0
H2205 H 0.44824 0.99858 0.71035 0.0
H2206 H 0.47381 1.00422 0.74425 0.0
H2207 H 0.4769 0.05915 0.76991 0.0
C2208 C 0.41409 0.04233 0.70441 0.0
C2209 C 0.39921 0.02657 0.68869 0.0
C2210 C 0.40113 0.00994 0.68183 0.0
C2211 C 0.41758 0.00889 0.69056 0.0
C2212 C 0.43191 0.0245 0.70648 0.0
C2213 C 0.43027 0.04089 0.71343 0.0
C2214 C 0.44622 0.05433 0.73358 0.0
C2215 C 0.4602 0.07503 0.72149 0.0
C2216 C 0.43697 0.0561 0.76022 0.0
C2217 C 0.45676 0.04275 0.73735 0.0
C2218 C 0.44856 0.02576 0.7212 0.0
C2219 C 0.45498 0.01202 0.72275 0.0
C2220 C 0.46963 0.01539 0.74191 0.0
C2221 C 0.47751 0.03222 0.75948 0.0
C2222 C 0.47136 0.04631 0.75644 0.0
H2223 H 0.02621 0.38428 0.72526 0.0
H2224 H 0.97654 0.36529 0.67068 0.0
H2225 H 0.97321 0.39377 0.68597 0.0
H2226 H 1.00765 0.39904 0.77924 0.0
H2227 H 0.03117 0.42046 0.7888 0.0
H2228 H 0.03037 0.39947 0.77194 0.0
H2229 H 0.05381 0.42307 0.73476 0.0
H2230 H 0.05453 0.44414 0.75148 0.0
H2231 H 0.04705 0.43863 0.71656 0.0
H2232 H 0.97299 0.42236 0.71149 0.0
H2233 H 0.9762 0.44803 0.74466 0.0
H2234 H 0.02796 0.45014 0.77883 0.0
C2235 C 0.01478 0.38625 0.7163 0.0
C2236 C 1.00158 0.3725 0.69687 0.0
C2237 C 0.98683 0.37562 0.68561 0.0
C2238 C 0.98486 0.39181 0.69411 0.0
C2239 C 0.99802 0.40504 0.71348 0.0
C2240 C 0.01285 0.40253 0.72419 0.0
C2241 C 0.02463 0.41836 0.74543 0.0
C2242 C 0.02336 0.40876 0.77297 0.0
C2243 C 0.04629 0.43185 0.73652 0.0
C2244 C 0.01369 0.42969 0.74575 0.0
C2245 C 0.99843 0.42192 0.72714 0.0
C2246 C 0.98516 0.42884 0.72576 0.0
C2247 C 0.98716 0.44354 0.74453 0.0
C2248 C 1.0023 0.45111 0.76436 0.0
C2249 C 0.01619 0.44464 0.76396 0.0
H2250 H 0.65393 0.61694 0.71541 0.0
H2251 H 0.62425 0.64776 0.689 0.0
H2252 H 0.59188 0.61883 0.70289 0.0
H2253 H 0.61459 0.56563 0.69782 0.0
H2254 H 0.61837 0.55506 0.72778 0.0
H2255 H 0.63884 0.57713 0.71308 0.0
H2256 H 0.64529 0.59625 0.7587 0.0
H2257 H 0.62514 0.57413 0.77356 0.0
H2258 H 0.62525 0.59734 0.77492 0.0
H2259 H 0.56286 0.58706 0.72199 0.0
H2260 H 0.5408 0.55797 0.75046 0.0
H2261 H 0.58946 0.54839 0.76603 0.0
C2262 C 0.64054 0.61741 0.7123 0.0
C2263 C 0.64143 0.63441 0.70092 0.0
C2264 C 0.62376 0.63477 0.6976 0.0
C2265 C 0.60533 0.61836 0.70526 0.0
C2266 C 0.60484 0.60171 0.7164 0.0
C2267 C 0.62204 0.60126 0.72028 0.0
C2268 C 0.61773 0.5825 0.73513 0.0
C2269 C 0.62268 0.5693 0.71738 0.0
C2270 C 0.62901 0.58788 0.76218 0.0
C2271 C 0.59552 0.57264 0.73943 0.0
C2272 C 0.58825 0.58371 0.72797 0.0
C2273 C 0.56835 0.57814 0.73072 0.0
C2274 C 0.55582 0.56143 0.74662 0.0
C2275 C 0.56327 0.55061 0.75983 0.0
C2276 C 0.58322 0.55598 0.7554 0.0
H2277 H 0.72122 0.74183 0.6441 0.0
H2278 H 0.66373 0.71546 0.6825 0.0
H2279 H 0.66123 0.74476 0.66978 0.0
H2280 H 0.73809 0.79573 0.65801 0.0
H2281 H 0.74924 0.80336 0.62509 0.0
H2282 H 0.74817 0.78219 0.64127 0.0
H2283 H 0.73004 0.75988 0.59952 0.0
H2284 H 0.73128 0.781 0.58322 0.0
H2285 H 0.70765 0.75835 0.58759 0.0
H2286 H 0.66327 0.77526 0.6484 0.0
H2287 H 0.66806 0.80169 0.61652 0.0
H2288 H 0.72379 0.8081 0.59096 0.0
C2289 C 0.70847 0.74264 0.65062 0.0
C2290 C 0.69291 0.72667 0.665 0.0
C2291 C 0.67599 0.72775 0.67202 0.0
C2292 C 0.67447 0.74438 0.6649 0.0
C2293 C 0.68992 0.75983 0.65041 0.0
C2294 C 0.70657 0.75903 0.64319 0.0
C2295 C 0.71985 0.77626 0.62469 0.0
C2296 C 0.74004 0.79021 0.63807 0.0
C2297 C 0.72234 0.7684 0.59713 0.0
C2298 C 0.7079 0.78655 0.62212 0.0
C2299 C 0.69086 0.7771 0.63752 0.0
C2300 C 0.67675 0.78298 0.63665 0.0
C2301 C 0.67968 0.79822 0.6187 0.0
C2302 C 0.69647 0.80729 0.6016 0.0
C2303 C 0.71107 0.80183 0.60428 0.0
H2304 H 0.28986 0.98556 0.63908 0.0
H2305 H 0.32335 0.95701 0.65729 0.0
H2306 H 0.29471 0.92415 0.64335 0.0
H2307 H 0.24019 0.94405 0.65763 0.0
H2308 H 0.22827 0.94814 0.62948 0.0
H2309 H 0.25024 0.96888 0.64433 0.0
H2310 H 0.2677 0.9774 0.59765 0.0
H2311 H 0.24564 0.95703 0.58269 0.0
H2312 H 0.26902 0.95816 0.57875 0.0
H2313 H 0.26317 0.89484 0.62522 0.0
H2314 H 0.23414 0.87275 0.59657 0.0
H2315 H 0.22194 0.92062 0.58731 0.0
C2316 C 0.29097 0.97229 0.64039 0.0
C2317 C 0.3086 0.97359 0.64943 0.0
C2318 C 0.30986 0.95614 0.65041 0.0
C2319 C 0.29362 0.93745 0.64282 0.0
C2320 C 0.27632 0.93655 0.63404 0.0
C2321 C 0.27504 0.95358 0.63228 0.0
C2322 C 0.25577 0.94897 0.61902 0.0
C2323 C 0.24286 0.95273 0.6388 0.0
C2324 C 0.25978 0.9611 0.59299 0.0
C2325 C 0.24661 0.92679 0.61298 0.0
C2326 C 0.25843 0.91979 0.62257 0.0
C2327 C 0.25366 0.90008 0.61798 0.0
C2328 C 0.23701 0.88753 0.60199 0.0
C2329 C 0.22554 0.89484 0.59049 0.0
C2330 C 0.23005 0.91449 0.5968 0.0
H2331 H 0.0575 0.34634 0.63814 0.0
H2332 H 0.03585 0.29431 0.68909 0.0
H2333 H 0.06418 0.29067 0.6748 0.0
H2334 H 0.07169 0.32788 0.58382 0.0
H2335 H 0.09329 0.35155 0.57548 0.0
H2336 H 0.07265 0.35098 0.59219 0.0
H2337 H 0.09607 0.37366 0.63055 0.0
H2338 H 0.11678 0.37411 0.614 0.0
H2339 H 0.11095 0.366 0.64852 0.0
H2340 H 0.09324 0.29071 0.65005 0.0
H2341 H 0.11863 0.29395 0.617 0.0
H2342 H 0.12169 0.34689 0.58469 0.0
C2343 C 0.05885 0.33435 0.6467 0.0
C2344 C 0.04443 0.32063 0.66481 0.0
C2345 C 0.04675 0.30509 0.67532 0.0
C2346 C 0.06284 0.30294 0.66733 0.0
C2347 C 0.07667 0.31663 0.64911 0.0
C2348 C 0.07483 0.33212 0.63913 0.0
C2349 C 0.09076 0.34413 0.61852 0.0
C2350 C 0.08154 0.34359 0.59088 0.0
C2351 C 0.10445 0.36576 0.62851 0.0
C2352 C 0.10156 0.33267 0.61772 0.0
C2353 C 0.09343 0.31693 0.63562 0.0
C2354 C 0.09995 0.30324 0.6364 0.0
C2355 C 0.11452 0.30527 0.61774 0.0
C2356 C 0.12232 0.32081 0.59854 0.0
C2357 C 0.11625 0.33506 0.59946 0.0
H2358 H 0.28743 0.29523 0.62987 0.0
H2359 H 0.28979 0.32952 0.70072 0.0
H2360 H 0.25936 0.32875 0.68555 0.0
H2361 H 0.27311 0.31891 0.58421 0.0
H2362 H 0.25675 0.29686 0.56462 0.0
H2363 H 0.27708 0.29806 0.58284 0.0
H2364 H 0.25262 0.26531 0.60759 0.0
H2365 H 0.23216 0.26408 0.58947 0.0
H2366 H 0.23198 0.26376 0.62589 0.0
H2367 H 0.23111 0.32792 0.6593 0.0
H2368 H 0.20857 0.32767 0.62424 0.0
H2369 H 0.22307 0.29183 0.57213 0.0
C2370 C 0.28115 0.30205 0.64249 0.0
C2371 C 0.29065 0.31213 0.66668 0.0
C2372 C 0.28244 0.32142 0.68236 0.0
C2373 C 0.26518 0.32105 0.67389 0.0
C2374 C 0.25615 0.31111 0.64977 0.0
C2375 C 0.26378 0.30161 0.63442 0.0
C2376 C 0.25211 0.29318 0.60843 0.0
C2377 C 0.26556 0.3023 0.58358 0.0
C2378 C 0.24159 0.27022 0.60782 0.0
C2379 C 0.23728 0.3001 0.61101 0.0
C2380 C 0.23966 0.31025 0.63508 0.0
C2381 C 0.22884 0.31962 0.64064 0.0
C2382 C 0.21589 0.31926 0.6207 0.0
C2383 C 0.21391 0.30967 0.59544 0.0
C2384 C 0.22414 0.29922 0.59127 0.0
H2385 H 0.70596 0.97707 0.65454 0.0
H2386 H 0.64875 0.9683 0.63201 0.0
H2387 H 0.63849 0.93426 0.6149 0.0
H2388 H 0.7116 0.95443 0.59591 0.0
H2389 H 0.72438 0.94393 0.61289 0.0
H2390 H 0.72583 0.96627 0.62605 0.0
H2391 H 0.7129 0.94881 0.67221 0.0
H2392 H 0.71093 0.92621 0.65881 0.0
H2393 H 0.68958 0.92547 0.67371 0.0
H2394 H 0.63536 0.90213 0.59771 0.0
H2395 H 0.64161 0.87753 0.57471 0.0
H2396 H 0.70114 0.90763 0.60723 0.0
C2397 C 0.69118 0.9679 0.6463 0.0
C2398 C 0.67805 0.97523 0.6448 0.0
C2399 C 0.65901 0.96295 0.63334 0.0
C2400 C 0.65301 0.94353 0.62387 0.0
C2401 C 0.66627 0.93668 0.62587 0.0
C2402 C 0.68509 0.94866 0.63639 0.0
C2403 C 0.69735 0.93877 0.63342 0.0
C2404 C 0.71587 0.95161 0.61603 0.0
C2405 C 0.70302 0.93457 0.6612 0.0
C2406 C 0.68266 0.91949 0.61904 0.0
C2407 C 0.66463 0.91833 0.61549 0.0
C2408 C 0.64927 0.90271 0.60081 0.0
C2409 C 0.65282 0.88861 0.58813 0.0
C2410 C 0.67162 0.89033 0.58999 0.0
C2411 C 0.68639 0.90546 0.60656 0.0
H2412 H 0.04002 0.73627 0.6441 0.0
H2413 H 0.05946 0.69333 0.63883 0.0
H2414 H 0.09223 0.71982 0.62235 0.0
H2415 H 0.06242 0.7599 0.5821 0.0
H2416 H 0.06861 0.78456 0.59332 0.0
H2417 H 0.0478 0.76284 0.6079 0.0
H2418 H 0.06297 0.77558 0.65556 0.0
H2419 H 0.08406 0.79715 0.64093 0.0
H2420 H 0.0877 0.7808 0.6625 0.0
H2421 H 0.12254 0.75064 0.6048 0.0
H2422 H 0.14545 0.7814 0.5798 0.0
H2423 H 0.10575 0.80379 0.59306 0.0
C2424 C 0.05131 0.73258 0.63978 0.0
C2425 C 0.04734 0.71283 0.64301 0.0
C2426 C 0.06224 0.70839 0.63651 0.0
C2427 C 0.08096 0.72338 0.62739 0.0
C2428 C 0.0845 0.74275 0.62445 0.0
C2429 C 0.06995 0.74729 0.6299 0.0
C2430 C 0.07675 0.76864 0.62191 0.0
C2431 C 0.06309 0.769 0.6 0.0
C2432 C 0.07794 0.78129 0.64671 0.0
C2433 C 0.09727 0.7753 0.61084 0.0
C2434 C 0.10167 0.76031 0.61317 0.0
C2435 C 0.11935 0.76257 0.60317 0.0
C2436 C 0.13244 0.78019 0.58931 0.0
C2437 C 0.12766 0.79519 0.58528 0.0
C2438 C 0.1101 0.79288 0.59681 0.0
H2439 H 0.97096 0.60693 0.70304 0.0
H2440 H 0.03458 0.64563 0.69513 0.0
H2441 H 0.03938 0.6183 0.7105 0.0
H2442 H 0.97366 0.58626 0.76473 0.0
H2443 H 0.95264 0.56167 0.75803 0.0
H2444 H 0.95416 0.58316 0.74245 0.0
H2445 H 0.95034 0.56658 0.69535 0.0
H2446 H 0.94917 0.54516 0.7109 0.0
H2447 H 0.96745 0.55876 0.68525 0.0
H2448 H 0.03756 0.58755 0.72967 0.0
H2449 H 0.02964 0.55828 0.75782 0.0
H2450 H 0.96754 0.54009 0.75611 0.0
C2451 C 0.98584 0.60944 0.70404 0.0
C2452 C 1.0024 0.62829 0.69752 0.0
C2453 C 0.02169 0.63126 0.6999 0.0
C2454 C 0.02455 0.61577 0.7084 0.0
C2455 C 1.00798 0.59736 0.71486 0.0
C2456 C 0.989 0.59423 0.71322 0.0
C2457 C 0.97397 0.57398 0.72469 0.0
C2458 C 0.96297 0.57642 0.74891 0.0
C2459 C 0.95937 0.56032 0.70273 0.0
C2460 C 0.98747 0.56643 0.73347 0.0
C2461 C 1.00698 0.5799 0.72697 0.0
C2462 C 0.02229 0.57676 0.73452 0.0
C2463 C 0.01766 0.55995 0.75023 0.0
C2464 C 0.99795 0.54667 0.75856 0.0
C2465 C 0.98264 0.54966 0.74926 0.0
H2466 H 0.40136 0.37298 0.70336 0.0
H2467 H 0.35341 0.38011 0.73351 0.0
H2468 H 0.37791 0.41451 0.74916 0.0
H2469 H 0.43279 0.39653 0.75919 0.0
H2470 H 0.45526 0.40739 0.73954 0.0
H2471 H 0.43368 0.38469 0.72811 0.0
H2472 H 0.43562 0.40172 0.68251 0.0
H2473 H 0.4569 0.4247 0.69429 0.0
H2474 H 0.43524 0.42468 0.6824 0.0
H2475 H 0.40782 0.44735 0.7638 0.0
H2476 H 0.43986 0.47246 0.78419 0.0
H2477 H 0.46821 0.44337 0.74597 0.0
C2478 C 0.39598 0.38186 0.71297 0.0
C2479 C 0.37547 0.37397 0.71699 0.0
C2480 C 0.36906 0.38588 0.73023 0.0
C2481 C 0.38287 0.40551 0.73887 0.0
C2482 C 0.40302 0.41293 0.7343 0.0
C2483 C 0.40955 0.40128 0.72212 0.0
C2484 C 0.43198 0.41171 0.72254 0.0
C2485 C 0.43882 0.39935 0.73829 0.0
C2486 C 0.44043 0.41595 0.69371 0.0
C2487 C 0.43715 0.43094 0.73737 0.0
C2488 C 0.42026 0.43161 0.74333 0.0
C2489 C 0.42114 0.44714 0.75884 0.0
C2490 C 0.43947 0.46156 0.76998 0.0
C2491 C 0.45661 0.46022 0.76589 0.0
C2492 C 0.45555 0.44527 0.74834 0.0
H2493 H 0.6393 1.00613 0.72208 0.0
H2494 H 0.66822 0.06486 0.68561 0.0
H2495 H 0.64052 0.06923 0.70023 0.0
H2496 H 0.5887 0.99235 0.70467 0.0
H2497 H 0.57855 0.97946 0.73599 0.0
H2498 H 0.60028 0.98064 0.72175 0.0
H2499 H 0.61968 0.99636 0.76628 0.0
H2500 H 0.5979 0.99481 0.78073 0.0
H2501 H 0.62086 0.01853 0.77996 0.0
H2502 H 0.61052 0.06811 0.72208 0.0
H2503 H 0.58234 0.06214 0.75151 0.0
H2504 H 0.5721 1.00339 0.77039 0.0
C2505 C 0.63982 0.01992 0.71718 0.0
C2506 C 0.65597 0.03518 0.7028 0.0
C2507 C 0.656 0.05295 0.69665 0.0
C2508 C 0.64027 0.05553 0.70472 0.0
C2509 C 0.62443 0.04009 0.71861 0.0
C2510 C 0.62412 0.02263 0.72477 0.0
C2511 C 0.60577 0.00861 0.74073 0.0
C2512 C 0.59255 0.98911 0.72483 0.0
C2513 C 0.6114 1.00434 0.76857 0.0
C2514 C 0.59608 0.02109 0.74323 0.0
C2515 C 0.60692 0.03917 0.73021 0.0
C2516 C 0.6017 0.05384 0.73194 0.0
C2517 C 0.58556 0.05029 0.74843 0.0
C2518 C 0.57493 0.03224 0.7629 0.0
C2519 C 0.57978 0.01719 0.75914 0.0
loop_
_geom_bond_atom_site_label_1
_geom_bond_atom_site_label_2
_geom_bond_distance
_geom_bond_site_symmetry_2
_ccdc_geom_bond_type
Co0 O1 2.216 . S
Co0 O2 2.091 . S
Co0 O4 2.004 1_554 S
Co0 O10 2.021 . S
Co0 O12 2.137 1_454 S
Co0 O13 2.244 1_455 S
O1 Co0 2.216 . S
O1 C8 1.247 . S
O2 Co0 2.091 . S
O2 C8 1.261 . S
C3 O12 1.247 . S
C3 O13 1.272 1_556 S
O4 Co0 2.004 1_556 S
O4 C9 1.259 1_455 S
Co5 O6 2.061 1_554 S
Co5 O11 2.052 . S
Co5 O13 2.135 . S
O6 Co5 2.061 1_556 S
O6 C9 1.235 . S
C7 O10 1.238 1_655 S
C7 O11 1.241 . S
C8 O1 1.247 . S
C8 O2 1.261 . S
C9 O4 1.259 1_655 S
C9 O6 1.235 . S
O10 Co0 2.021 . S
O10 C7 1.238 1_455 S
O11 Co5 2.052 . S
O11 C7 1.241 . S
O12 Co0 2.137 1_656 S
O12 C3 1.247 . S
O13 Co0 2.244 1_655 S
O13 C3 1.272 1_554 S
O13 Co5 2.135 . S
Co14 O15 2.216 1_554 S
Co14 O16 2.091 . S
Co14 O18 2.004 . S
Co14 O24 2.021 1_554 S
Co14 O26 2.137 . S
Co14 O27 2.244 . S
O15 Co14 2.216 1_556 S
O15 C22 1.247 . S
O16 Co14 2.091 . S
O16 C22 1.261 1_554 S
C17 O26 1.247 . S
C17 O27 1.272 . S
O18 Co14 2.004 . S
O18 C23 1.259 . S
Co19 O20 2.061 . S
Co19 O25 2.052 1_554 S
Co19 O27 2.135 . S
O20 Co19 2.061 . S
O20 C23 1.235 . S
C21 O24 1.238 . S
C21 O25 1.241 . S
C22 O15 1.247 . S
C22 O16 1.261 1_556 S
C23 O18 1.259 . S
C23 O20 1.235 . S
O24 Co14 2.021 1_556 S
O24 C21 1.238 . S
O25 Co19 2.052 1_556 S
O25 C21 1.241 . S
O26 Co14 2.137 . S
O26 C17 1.247 . S
O27 Co14 2.244 . S
O27 C17 1.272 . S
O27 Co19 2.135 . S
Co28 O29 2.216 1_554 S
Co28 O30 2.091 . S
Co28 O32 2.004 . S
Co28 O38 2.021 1_554 S
Co28 O40 2.137 1_545 S
Co28 O41 2.244 1_545 S
O29 Co28 2.216 1_556 S
O29 C36 1.247 . S
O30 Co28 2.091 . S
O30 C36 1.261 1_554 S
C31 O40 1.247 . S
C31 O41 1.272 . S
O32 Co28 2.004 . S
O32 C37 1.259 . S
Co33 O34 2.061 . S
Co33 O39 2.052 1_554 S
Co33 O41 2.135 . S
O34 Co33 2.061 . S
O34 C37 1.235 1_565 S
C35 O38 1.238 1_565 S
C35 O39 1.241 . S
C36 O29 1.247 . S
C36 O30 1.261 1_556 S
C37 O32 1.259 . S
C37 O34 1.235 1_545 S
O38 Co28 2.021 1_556 S
O38 C35 1.238 1_545 S
O39 Co33 2.052 1_556 S
O39 C35 1.241 . S
O40 Co28 2.137 1_565 S
O40 C31 1.247 . S
O41 Co28 2.244 1_565 S
O41 C31 1.272 . S
O41 Co33 2.135 . S
Co42 O43 2.216 1_554 S
Co42 O44 2.091 . S
Co42 O46 2.004 . S
Co42 O52 2.021 1_554 S
Co42 O54 2.137 1_655 S
Co42 O55 2.244 1_655 S
O43 Co42 2.216 1_556 S
O43 C50 1.247 . S
O44 Co42 2.091 . S
O44 C50 1.261 1_554 S
C45 O54 1.247 . S
C45 O55 1.272 . S
O46 Co42 2.004 . S
O46 C51 1.259 1_655 S
Co47 O48 2.061 . S
Co47 O53 2.052 1_554 S
Co47 O55 2.135 . S
O48 Co47 2.061 . S
O48 C51 1.235 . S
C49 O52 1.238 1_455 S
C49 O53 1.241 . S
C50 O43 1.247 . S
C50 O44 1.261 1_556 S
C51 O46 1.259 1_455 S
C51 O48 1.235 . S
O52 Co42 2.021 1_556 S
O52 C49 1.238 1_655 S
O53 Co47 2.052 1_556 S
O53 C49 1.241 . S
O54 Co42 2.137 1_455 S
O54 C45 1.247 . S
O55 Co42 2.244 1_455 S
O55 C45 1.272 . S
O55 Co47 2.135 . S
Co56 O57 2.216 . S
Co56 O58 2.091 . S
Co56 O60 2.004 1_554 S
Co56 O66 2.021 . S
Co56 O68 2.137 1_554 S
Co56 O69 2.244 . S
O57 Co56 2.216 . S
O57 C64 1.247 . S
O58 Co56 2.091 . S
O58 C64 1.261 . S
C59 O68 1.247 . S
C59 O69 1.272 1_556 S
O60 Co56 2.004 1_556 S
O60 C65 1.259 . S
Co61 O62 2.061 1_554 S
Co61 O67 2.052 . S
Co61 O69 2.135 . S
O62 Co61 2.061 1_556 S
O62 C65 1.235 . S
C63 O66 1.238 . S
C63 O67 1.241 . S
C64 O57 1.247 . S
C64 O58 1.261 . S
C65 O60 1.259 . S
C65 O62 1.235 . S
O66 Co56 2.021 . S
O66 C63 1.238 . S
O67 Co61 2.052 . S
O67 C63 1.241 . S
O68 Co56 2.137 1_556 S
O68 C59 1.247 . S
O69 Co56 2.244 . S
O69 C59 1.272 1_554 S
O69 Co61 2.135 . S
Co70 O71 2.216 . S
Co70 O72 2.091 . S
Co70 O74 2.004 1_554 S
Co70 O80 2.021 . S
Co70 O82 2.137 1_564 S
Co70 O83 2.244 1_565 S
O71 Co70 2.216 . S
O71 C78 1.247 . S
O72 Co70 2.091 . S
O72 C78 1.261 . S
C73 O82 1.247 . S
C73 O83 1.272 1_556 S
O74 Co70 2.004 1_556 S
O74 C79 1.259 1_565 S
Co75 O76 2.061 1_554 S
Co75 O81 2.052 . S
Co75 O83 2.135 . S
O76 Co75 2.061 1_556 S
O76 C79 1.235 . S
C77 O80 1.238 1_545 S
C77 O81 1.241 . S
C78 O71 1.247 . S
C78 O72 1.261 . S
C79 O74 1.259 1_545 S
C79 O76 1.235 . S
O80 Co70 2.021 . S
O80 C77 1.238 1_565 S
O81 Co75 2.052 . S
O81 C77 1.241 . S
O82 Co70 2.137 1_546 S
O82 C73 1.247 . S
O83 Co70 2.244 1_545 S
O83 C73 1.272 1_554 S
O83 Co75 2.135 . S
Co84 O85 2.216 . S
Co84 O86 2.091 . S
Co84 O88 2.004 . S
Co84 O94 2.021 . S
Co84 O96 2.137 . S
Co84 O97 2.244 . S
O85 Co84 2.216 . S
O85 C92 1.247 . S
O86 Co84 2.091 . S
O86 C92 1.261 . S
C87 O96 1.247 . S
C87 O97 1.272 . S
O88 Co84 2.004 . S
O88 C93 1.259 . S
Co89 O90 2.061 . S
Co89 O95 2.052 . S
Co89 O97 2.135 . S
O90 Co89 2.061 . S
O90 C93 1.235 . S
C91 O94 1.238 . S
C91 O95 1.241 . S
C92 O85 1.247 . S
C92 O86 1.261 . S
C93 O88 1.259 . S
C93 O90 1.235 . S
O94 Co84 2.021 . S
O94 C91 1.238 . S
O95 Co89 2.052 . S
O95 C91 1.241 . S
O96 Co84 2.137 . S
O96 C87 1.247 . S
O97 Co84 2.244 . S
O97 C87 1.272 . S
O97 Co89 2.135 . S
Co98 O99 2.217 1_565 S
Co98 O100 2.091 . S
Co98 O102 2.004 . S
Co98 O108 2.021 . S
Co98 O110 2.137 1_565 S
Co98 O111 2.244 1_565 S
O99 Co98 2.217 1_545 S
O99 C106 1.252 1_545 S
O100 Co98 2.091 . S
O100 C106 1.261 . S
C101 O110 1.247 . S
C101 O111 1.272 . S
O102 Co98 2.004 . S
O102 C107 1.259 . S
Co103 O104 2.061 . S
Co103 O109 2.052 . S
Co103 O111 2.135 1_565 S
O104 Co103 2.061 . S
O104 C107 1.235 . S
C105 O108 1.238 . S
C105 O109 1.241 . S
C106 O99 1.252 1_565 S
C106 O100 1.261 . S
C107 O102 1.259 . S
C107 O104 1.235 . S
O108 Co98 2.021 . S
O108 C105 1.238 . S
O109 Co103 2.052 . S
O109 C105 1.241 . S
O110 Co98 2.137 1_545 S
O110 C101 1.247 . S
O111 Co98 2.244 1_545 S
O111 C101 1.272 . S
O111 Co103 2.135 1_545 S
Co112 O113 2.216 . S
Co112 O114 2.091 . S
Co112 O116 2.004 . S
Co112 O122 2.021 . S
Co112 O124 2.137 1_455 S
Co112 O125 2.239 1_455 S
O113 Co112 2.216 . S
O113 C120 1.247 . S
O114 Co112 2.091 . S
O114 C120 1.261 . S
C115 O124 1.247 . S
C115 O125 1.309 . S
O116 Co112 2.004 . S
O116 C121 1.259 . S
Co117 O118 2.061 . S
Co117 O123 2.052 . S
Co117 O125 2.092 1_455 S
O118 Co117 2.061 . S
O118 C121 1.235 . S
C119 O122 1.238 . S
C119 O123 1.241 . S
C120 O113 1.247 . S
C120 O114 1.261 . S
C121 O116 1.259 . S
C121 O118 1.235 . S
O122 Co112 2.021 . S
O122 C119 1.238 . S
O123 Co117 2.052 . S
O123 C119 1.241 . S
O124 Co112 2.137 1_655 S
O124 C115 1.247 . S
O125 Co112 2.239 1_655 S
O125 C115 1.309 . S
O125 Co117 2.092 1_655 S
Co126 O127 2.219 1_565 S
Co126 O128 2.091 . S
Co126 O130 2.004 . S
Co126 O136 2.021 . S
Co126 O138 2.137 1_565 S
Co126 O139 2.244 1_565 S
O127 Co126 2.219 1_545 S
O127 C134 1.247 1_545 S
O128 Co126 2.091 . S
O128 C134 1.261 . S
C129 O138 1.247 . S
C129 O139 1.272 . S
O130 Co126 2.004 . S
O130 C135 1.259 . S
Co131 O132 2.061 . S
Co131 O137 2.052 . S
Co131 O139 2.135 1_565 S
O132 Co131 2.061 . S
O132 C135 1.235 . S
C133 O136 1.238 . S
C133 O137 1.241 . S
C134 O127 1.247 1_565 S
C134 O128 1.261 . S
C135 O130 1.259 . S
C135 O132 1.235 . S
O136 Co126 2.021 . S
O136 C133 1.238 . S
O137 Co131 2.052 . S
O137 C133 1.241 . S
O138 Co126 2.137 1_545 S
O138 C129 1.247 . S
O139 Co126 2.244 1_545 S
O139 C129 1.272 . S
O139 Co131 2.135 1_545 S
Co140 O141 2.216 1_455 S
Co140 O142 2.091 1_455 S
Co140 O144 2.004 . S
Co140 O150 2.021 . S
Co140 O152 2.137 1_455 S
Co140 O153 2.244 . S
O141 Co140 2.216 1_655 S
O141 C148 1.247 . S
O142 Co140 2.091 1_655 S
O142 C148 1.261 . S
C143 O152 1.247 1_455 S
C143 O153 1.272 . S
O144 Co140 2.004 . S
O144 C149 1.259 . S
Co145 O146 2.061 . S
Co145 O151 2.052 . S
Co145 O153 2.135 . S
O146 Co145 2.061 . S
O146 C149 1.235 . S
C147 O150 1.238 . S
C147 O151 1.241 . S
C148 O141 1.247 . S
C148 O142 1.261 . S
C149 O144 1.259 . S
C149 O146 1.235 . S
O150 Co140 2.021 . S
O150 C147 1.238 . S
O151 Co145 2.052 . S
O151 C147 1.241 . S
O152 Co140 2.137 1_655 S
O152 C143 1.247 1_655 S
O153 Co140 2.244 . S
O153 C143 1.272 . S
O153 Co145 2.135 . S
Co154 O155 2.216 . S
Co154 O156 2.091 . S
Co154 O158 2.004 . S
Co154 O164 2.021 . S
Co154 O166 2.137 . S
Co154 O167 2.244 . S
O155 Co154 2.216 . S
O155 C162 1.247 . S
O156 Co154 2.091 . S
O156 C162 1.261 . S
C157 O166 1.247 . S
C157 O167 1.272 . S
O158 Co154 2.004 . S
O158 C163 1.259 . S
Co159 O160 2.061 . S
Co159 O165 2.052 . S
Co159 O167 2.135 . S
O160 Co159 2.061 . S
O160 C163 1.235 . S
C161 O164 1.238 . S
C161 O165 1.241 . S
C162 O155 1.247 . S
C162 O156 1.261 . S
C163 O158 1.259 . S
C163 O160 1.235 . S
O164 Co154 2.021 . S
O164 C161 1.238 . S
O165 Co159 2.052 . S
O165 C161 1.241 . S
O166 Co154 2.137 . S
O166 C157 1.247 . S
O167 Co154 2.244 . S
O167 C157 1.272 . S
O167 Co159 2.135 . S
Co168 O169 2.216 . S
Co168 O170 2.091 . S
Co168 O172 2.004 . S
Co168 O178 2.021 . S
Co168 O180 2.137 1_545 S
Co168 O181 2.244 1_545 S
O169 Co168 2.216 . S
O169 C176 1.247 . S
O170 Co168 2.091 . S
O170 C176 1.261 . S
C171 O180 1.247 . S
C171 O181 1.272 . S
O172 Co168 2.004 . S
O172 C177 1.259 . S
Co173 O174 2.061 . S
Co173 O179 2.052 . S
Co173 O181 2.135 1_545 S
O174 Co173 2.061 . S
O174 C177 1.235 . S
C175 O178 1.238 . S
C175 O179 1.241 . S
C176 O169 1.247 . S
C176 O170 1.261 . S
C177 O172 1.259 . S
C177 O174 1.235 . S
O178 Co168 2.021 . S
O178 C175 1.238 . S
O179 Co173 2.052 . S
O179 C175 1.241 . S
O180 Co168 2.137 1_565 S
O180 C171 1.247 . S
O181 Co168 2.244 1_565 S
O181 C171 1.272 . S
O181 Co173 2.135 1_565 S
Co182 O183 2.216 1_655 S
Co182 O184 2.091 1_655 S
Co182 O186 2.004 . S
Co182 O192 2.021 . S
Co182 O194 2.137 1_655 S
Co182 O195 2.244 . S
O183 Co182 2.216 1_455 S
O183 C190 1.247 . S
O184 Co182 2.091 1_455 S
O184 C190 1.261 . S
C185 O194 1.247 1_655 S
C185 O195 1.272 . S
O186 Co182 2.004 . S
O186 C191 1.259 . S
Co187 O188 2.061 . S
Co187 O193 2.052 . S
Co187 O195 2.135 . S
O188 Co187 2.061 . S
O188 C191 1.235 . S
C189 O192 1.238 . S
C189 O193 1.241 . S
C190 O183 1.247 . S
C190 O184 1.261 . S
C191 O186 1.259 . S
C191 O188 1.235 . S
O192 Co182 2.021 . S
O192 C189 1.238 . S
O193 Co187 2.052 . S
O193 C189 1.241 . S
O194 Co182 2.137 1_455 S
O194 C185 1.247 1_455 S
O195 Co182 2.244 . S
O195 C185 1.272 . S
O195 Co187 2.135 . S
Co196 O197 2.216 . S
Co196 O198 2.091 . S
Co196 O200 2.004 . S
Co196 O206 2.021 . S
Co196 O208 2.137 . S
Co196 O209 2.244 . S
O197 Co196 2.216 . S
O197 C204 1.247 . S
O198 Co196 2.091 . S
O198 C204 1.261 . S
C199 O208 1.247 . S
C199 O209 1.272 . S
O200 Co196 2.004 . S
O200 C205 1.259 . S
Co201 O202 2.061 . S
Co201 O207 2.052 . S
Co201 O209 2.135 . S
O202 Co201 2.061 . S
O202 C205 1.235 . S
C203 O206 1.238 . S
C203 O207 1.241 . S
C204 O197 1.247 . S
C204 O198 1.261 . S
C205 O200 1.259 . S
C205 O202 1.235 . S
O206 Co196 2.021 . S
O206 C203 1.238 . S
O207 Co201 2.052 . S
O207 C203 1.241 . S
O208 Co196 2.137 . S
O208 C199 1.247 . S
O209 Co196 2.244 . S
O209 C199 1.272 . S
O209 Co201 2.135 . S
Co210 O211 2.216 . S
Co210 O212 2.091 . S
Co210 O214 2.004 . S
Co210 O220 2.021 . S
Co210 O222 2.137 . S
Co210 O223 2.244 . S
O211 Co210 2.216 . S
O211 C218 1.247 . S
O212 Co210 2.091 . S
O212 C218 1.261 . S
C213 O222 1.247 . S
C213 O223 1.272 . S
O214 Co210 2.004 . S
O214 C219 1.259 . S
Co215 O216 2.061 . S
Co215 O221 2.052 . S
Co215 O223 2.135 . S
O216 Co215 2.061 . S
O216 C219 1.235 . S
C217 O220 1.238 . S
C217 O221 1.241 . S
C218 O211 1.247 . S
C218 O212 1.261 . S
C219 O214 1.259 . S
C219 O216 1.235 . S
O220 Co210 2.021 . S
O220 C217 1.238 . S
O221 Co215 2.052 . S
O221 C217 1.241 . S
O222 Co210 2.137 . S
O222 C213 1.247 . S
O223 Co210 2.244 . S
O223 C213 1.272 . S
O223 Co215 2.135 . S
Co224 O225 2.216 . S
Co224 O226 2.091 . S
Co224 O228 2.004 . S
Co224 O234 2.021 . S
Co224 O236 2.137 1_545 S
Co224 O237 2.244 1_545 S
O225 Co224 2.216 . S
O225 C232 1.247 . S
O226 Co224 2.091 . S
O226 C232 1.261 . S
C227 O236 1.247 . S
C227 O237 1.272 . S
O228 Co224 2.004 . S
O228 C233 1.259 . S
Co229 O230 2.061 . S
Co229 O235 2.052 . S
Co229 O237 2.135 1_545 S
O230 Co229 2.061 . S
O230 C233 1.235 . S
C231 O234 1.238 . S
C231 O235 1.241 . S
C232 O225 1.247 . S
C232 O226 1.261 . S
C233 O228 1.259 . S
C233 O230 1.235 . S
O234 Co224 2.021 . S
O234 C231 1.238 . S
O235 Co229 2.052 . S
O235 C231 1.241 . S
O236 Co224 2.137 1_565 S
O236 C227 1.247 . S
O237 Co224 2.244 1_565 S
O237 C227 1.272 . S
O237 Co229 2.135 1_565 S
Co238 O239 2.216 . S
Co238 O240 2.091 . S
Co238 O242 2.004 . S
Co238 O248 2.021 . S
Co238 O250 2.137 1_655 S
Co238 O251 2.241 1_655 S
O239 Co238 2.216 . S
O239 C246 1.247 . S
O240 Co238 2.091 . S
O240 C246 1.261 . S
C241 O250 1.247 . S
C241 O251 1.296 . S
O242 Co238 2.004 . S
O242 C247 1.259 . S
Co243 O244 2.061 . S
Co243 O249 2.052 . S
Co243 O251 2.107 1_655 S
O244 Co243 2.061 . S
O244 C247 1.235 . S
C245 O248 1.238 . S
C245 O249 1.241 . S
C246 O239 1.247 . S
C246 O240 1.261 . S
C247 O242 1.259 . S
C247 O244 1.235 . S
O248 Co238 2.021 . S
O248 C245 1.238 . S
O249 Co243 2.052 . S
O249 C245 1.241 . S
O250 Co238 2.137 1_455 S
O250 C241 1.247 . S
O251 Co238 2.241 1_455 S
O251 C241 1.296 . S
O251 Co243 2.107 1_455 S
H252 C258 0.930 . S
H253 C261 0.931 . S
H254 C263 0.931 . S
H255 C265 0.930 . S
H256 C267 0.930 . S
H257 C269 0.931 . S
C258 H252 0.930 . S
C258 C259 1.380 . S
C258 C260 1.394 . S
C259 C258 1.380 . S
C259 C263 1.382 . S
C260 C258 1.394 . S
C260 C261 1.400 . S
C261 H253 0.931 . S
C261 C260 1.400 . S
C261 C262 1.375 . S
C262 C261 1.375 . S
C262 C263 1.415 . S
C262 C264 1.501 . S
C263 H254 0.931 . S
C263 C259 1.382 . S
C263 C262 1.415 . S
C264 C262 1.501 . S
C264 C265 1.384 . S
C264 C269 1.408 . S
C265 H255 0.930 . S
C265 C264 1.384 . S
C265 C266 1.389 . S
C266 C265 1.389 . S
C266 C267 1.405 . S
C267 H256 0.930 . S
C267 C266 1.405 . S
C267 C268 1.364 . S
C268 C267 1.364 . S
C268 C269 1.400 . S
C269 H257 0.931 . S
C269 C264 1.408 . S
C269 C268 1.400 . S
H270 C276 0.930 . S
H271 C279 0.931 . S
H272 C281 0.931 . S
H273 C283 0.930 . S
H274 C285 0.930 . S
H275 C287 0.931 . S
C276 H270 0.930 . S
C276 C277 1.380 . S
C276 C278 1.394 . S
C277 C276 1.380 . S
C277 C281 1.382 . S
C278 C276 1.394 . S
C278 C279 1.400 . S
C279 H271 0.931 . S
C279 C278 1.400 . S
C279 C280 1.375 . S
C280 C279 1.375 . S
C280 C281 1.415 . S
C280 C282 1.501 . S
C281 H272 0.931 . S
C281 C277 1.382 . S
C281 C280 1.415 . S
C282 C280 1.501 . S
C282 C283 1.384 . S
C282 C287 1.408 . S
C283 H273 0.930 . S
C283 C282 1.384 . S
C283 C284 1.389 . S
C284 C283 1.389 . S
C284 C285 1.405 . S
C285 H274 0.930 . S
C285 C284 1.405 . S
C285 C286 1.364 . S
C286 C285 1.364 . S
C286 C287 1.400 . S
C287 H275 0.931 . S
C287 C282 1.408 . S
C287 C286 1.400 . S
H288 C294 0.930 . S
H289 C297 0.931 . S
H290 C299 0.931 . S
H291 C301 0.930 . S
H292 C303 0.930 . S
H293 C305 0.931 . S
C294 H288 0.930 . S
C294 C295 1.380 . S
C294 C296 1.394 . S
C295 C294 1.380 . S
C295 C299 1.382 . S
C296 C294 1.394 . S
C296 C297 1.400 . S
C297 H289 0.931 . S
C297 C296 1.400 . S
C297 C298 1.375 . S
C298 C297 1.375 . S
C298 C299 1.415 . S
C298 C300 1.501 . S
C299 H290 0.931 . S
C299 C295 1.382 . S
C299 C298 1.415 . S
C300 C298 1.501 . S
C300 C301 1.384 . S
C300 C305 1.408 . S
C301 H291 0.930 . S
C301 C300 1.384 . S
C301 C302 1.389 . S
C302 C301 1.389 . S
C302 C303 1.405 . S
C303 H292 0.930 . S
C303 C302 1.405 . S
C303 C304 1.364 . S
C304 C303 1.364 . S
C304 C305 1.400 . S
C305 H293 0.931 . S
C305 C300 1.408 . S
C305 C304 1.400 . S
H306 C312 0.930 . S
H307 C315 0.931 . S
H308 C317 0.931 . S
H309 C319 0.930 . S
H310 C321 0.930 . S
H311 C323 0.931 . S
C312 H306 0.930 . S
C312 C313 1.380 . S
C312 C314 1.394 . S
C313 C312 1.380 . S
C313 C317 1.382 . S
C314 C312 1.394 . S
C314 C315 1.400 . S
C315 H307 0.931 . S
C315 C314 1.400 . S
C315 C316 1.375 . S
C316 C315 1.375 . S
C316 C317 1.415 . S
C316 C318 1.501 . S
C317 H308 0.931 . S
C317 C313 1.382 . S
C317 C316 1.415 . S
C318 C316 1.501 . S
C318 C319 1.384 . S
C318 C323 1.408 . S
C319 H309 0.930 . S
C319 C318 1.384 . S
C319 C320 1.389 . S
C320 C319 1.389 . S
C320 C321 1.405 . S
C321 H310 0.930 . S
C321 C320 1.405 . S
C321 C322 1.364 . S
C322 C321 1.364 . S
C322 C323 1.400 . S
C323 H311 0.931 . S
C323 C318 1.408 . S
C323 C322 1.400 . S
H324 C330 0.930 . S
H325 C333 0.931 . S
H326 C335 0.931 . S
H327 C337 0.930 . S
H328 C339 0.930 . S
H329 C341 0.931 . S
C330 H324 0.930 . S
C330 C331 1.380 . S
C330 C332 1.394 . S
C331 C330 1.380 . S
C331 C335 1.382 . S
C332 C330 1.394 . S
C332 C333 1.400 . S
C333 H325 0.931 . S
C333 C332 1.400 . S
C333 C334 1.375 . S
C334 C333 1.375 . S
C334 C335 1.415 . S
C334 C336 1.501 . S
C335 H326 0.931 . S
C335 C331 1.382 . S
C335 C334 1.415 . S
C336 C334 1.501 . S
C336 C337 1.384 . S
C336 C341 1.408 . S
C337 H327 0.930 . S
C337 C336 1.384 . S
C337 C338 1.389 . S
C338 C337 1.389 . S
C338 C339 1.405 . S
C339 H328 0.930 . S
C339 C338 1.405 . S
C339 C340 1.364 . S
C340 C339 1.364 . S
C340 C341 1.400 . S
C341 H329 0.931 . S
C341 C336 1.408 . S
C341 C340 1.400 . S
H342 C348 0.930 . S
H343 C351 0.931 . S
H344 C353 0.931 . S
H345 C355 0.930 . S
H346 C357 0.930 . S
H347 C359 0.931 . S
C348 H342 0.930 . S
C348 C349 1.380 . S
C348 C350 1.394 . S
C349 C348 1.380 . S
C349 C353 1.382 . S
C350 C348 1.394 . S
C350 C351 1.400 . S
C351 H343 0.931 . S
C351 C350 1.400 . S
C351 C352 1.375 . S
C352 C351 1.375 . S
C352 C353 1.415 . S
C352 C354 1.501 . S
C353 H344 0.931 . S
C353 C349 1.382 . S
C353 C352 1.415 . S
C354 C352 1.501 . S
C354 C355 1.384 . S
C354 C359 1.408 . S
C355 H345 0.930 . S
C355 C354 1.384 . S
C355 C356 1.389 . S
C356 C355 1.389 . S
C356 C357 1.405 . S
C357 H346 0.930 . S
C357 C356 1.405 . S
C357 C358 1.364 . S
C358 C357 1.364 . S
C358 C359 1.400 . S
C359 H347 0.931 . S
C359 C354 1.408 . S
C359 C358 1.400 . S
H360 C366 0.930 . S
H361 C369 0.931 . S
H362 C371 0.931 . S
H363 C373 0.930 . S
H364 C375 0.930 . S
H365 C377 0.931 . S
C366 H360 0.930 . S
C366 C367 1.380 . S
C366 C368 1.394 . S
C367 C366 1.380 . S
C367 C371 1.382 . S
C368 C366 1.394 . S
C368 C369 1.400 . S
C369 H361 0.931 . S
C369 C368 1.400 . S
C369 C370 1.375 . S
C370 C369 1.375 . S
C370 C371 1.415 . S
C370 C372 1.501 . S
C371 H362 0.931 . S
C371 C367 1.382 . S
C371 C370 1.415 . S
C372 C370 1.501 . S
C372 C373 1.384 . S
C372 C377 1.408 . S
C373 H363 0.930 . S
C373 C372 1.384 . S
C373 C374 1.389 . S
C374 C373 1.389 . S
C374 C375 1.405 . S
C375 H364 0.930 . S
C375 C374 1.405 . S
C375 C376 1.364 . S
C376 C375 1.364 . S
C376 C377 1.400 . S
C377 H365 0.931 . S
C377 C372 1.408 . S
C377 C376 1.400 . S
H378 C384 0.930 . S
H379 C387 0.931 . S
H380 C389 0.931 . S
H381 C391 0.930 . S
H382 C393 0.930 . S
H383 C395 0.931 . S
C384 H378 0.930 . S
C384 C385 1.380 . S
C384 C386 1.394 . S
C385 C384 1.380 . S
C385 C389 1.382 . S
C386 C384 1.394 . S
C386 C387 1.400 . S
C387 H379 0.931 . S
C387 C386 1.400 . S
C387 C388 1.375 . S
C388 C387 1.375 . S
C388 C389 1.415 . S
C388 C390 1.501 . S
C389 H380 0.931 . S
C389 C385 1.382 . S
C389 C388 1.415 . S
C390 C388 1.501 . S
C390 C391 1.384 . S
C390 C395 1.408 . S
C391 H381 0.930 . S
C391 C390 1.384 . S
C391 C392 1.389 . S
C392 C391 1.389 . S
C392 C393 1.405 . S
C393 H382 0.930 . S
C393 C392 1.405 . S
C393 C394 1.364 . S
C394 C393 1.364 . S
C394 C395 1.400 . S
C395 H383 0.931 . S
C395 C390 1.408 . S
C395 C394 1.400 . S
H396 C402 0.930 . S
H397 C405 0.931 . S
H398 C407 0.931 . S
H399 C409 0.930 . S
H400 C411 0.930 . S
H401 C413 0.931 . S
C402 H396 0.930 . S
C402 C403 1.380 . S
C402 C404 1.394 . S
C403 C402 1.380 . S
C403 C407 1.382 . S
C404 C402 1.394 . S
C404 C405 1.400 . S
C405 H397 0.931 . S
C405 C404 1.400 . S
C405 C406 1.375 . S
C406 C405 1.375 . S
C406 C407 1.415 . S
C406 C408 1.501 . S
C407 H398 0.931 . S
C407 C403 1.382 . S
C407 C406 1.415 . S
C408 C406 1.501 . S
C408 C409 1.384 . S
C408 C413 1.408 . S
C409 H399 0.930 . S
C409 C408 1.384 . S
C409 C410 1.389 . S
C410 C409 1.389 . S
C410 C411 1.405 . S
C411 H400 0.930 . S
C411 C410 1.405 . S
C411 C412 1.364 . S
C412 C411 1.364 . S
C412 C413 1.400 . S
C413 H401 0.931 . S
C413 C408 1.408 . S
C413 C412 1.400 . S
H414 C420 0.930 . S
H415 C423 0.931 . S
H416 C425 0.931 . S
H417 C427 0.930 . S
H418 C429 0.930 . S
H419 C431 0.940 1_655 S
C420 H414 0.930 . S
C420 C421 1.380 . S
C420 C422 1.394 1_655 S
C421 C420 1.380 . S
C421 C425 1.382 . S
C422 C420 1.394 1_455 S
C422 C423 1.400 . S
C423 H415 0.931 . S
C423 C422 1.400 . S
C423 C424 1.375 . S
C424 C423 1.375 . S
C424 C425 1.415 1_455 S
C424 C426 1.501 . S
C425 H416 0.931 . S
C425 C421 1.382 . S
C425 C424 1.415 1_655 S
C426 C424 1.501 . S
C426 C427 1.384 . S
C426 C431 1.416 . S
C427 H417 0.930 . S
C427 C426 1.384 . S
C427 C428 1.389 . S
C428 C427 1.389 . S
C428 C429 1.405 . S
C429 H418 0.930 . S
C429 C428 1.405 . S
C429 C430 1.364 . S
C430 C429 1.364 . S
C430 C431 1.389 . S
C431 H419 0.940 1_455 S
C431 C426 1.416 . S
C431 C430 1.389 . S
H432 C438 0.930 . S
H433 C441 0.931 . S
H434 C443 0.931 . S
H435 C445 0.930 . S
H436 C447 0.930 . S
H437 C449 0.931 . S
C438 H432 0.930 . S
C438 C439 1.380 . S
C438 C440 1.394 . S
C439 C438 1.380 . S
C439 C443 1.382 . S
C440 C438 1.394 . S
C440 C441 1.400 . S
C441 H433 0.931 . S
C441 C440 1.400 . S
C441 C442 1.375 . S
C442 C441 1.375 . S
C442 C443 1.415 . S
C442 C444 1.501 . S
C443 H434 0.931 . S
C443 C439 1.382 . S
C443 C442 1.415 . S
C444 C442 1.501 . S
C444 C445 1.384 . S
C444 C449 1.408 . S
C445 H435 0.930 . S
C445 C444 1.384 . S
C445 C446 1.389 . S
C446 C445 1.389 . S
C446 C447 1.405 . S
C447 H436 0.930 . S
C447 C446 1.405 . S
C447 C448 1.364 . S
C448 C447 1.364 . S
C448 C449 1.400 . S
C449 H437 0.931 . S
C449 C444 1.408 . S
C449 C448 1.400 . S
H450 C456 0.956 . S
H451 C459 0.931 . S
H452 C461 0.931 . S
H453 C463 0.930 . S
H454 C465 0.930 . S
H455 C467 0.920 1_545 S
C456 H450 0.956 . S
C456 C457 1.375 . S
C456 C458 1.375 1_545 S
C457 C456 1.375 . S
C457 C461 1.382 . S
C458 C456 1.375 1_565 S
C458 C459 1.400 . S
C459 H451 0.931 . S
C459 C458 1.400 . S
C459 C460 1.375 . S
C460 C459 1.375 . S
C460 C461 1.415 1_565 S
C460 C462 1.501 . S
C461 H452 0.931 . S
C461 C457 1.382 . S
C461 C460 1.415 1_545 S
C462 C460 1.501 . S
C462 C463 1.384 . S
C462 C467 1.397 . S
C463 H453 0.930 . S
C463 C462 1.384 . S
C463 C464 1.389 . S
C464 C463 1.389 . S
C464 C465 1.405 . S
C465 H454 0.930 . S
C465 C464 1.405 . S
C465 C466 1.378 . S
C466 C465 1.378 . S
C466 C467 1.403 . S
C467 H455 0.920 1_565 S
C467 C462 1.397 . S
C467 C466 1.403 . S
H468 C474 0.920 . S
H469 C477 0.931 . S
H470 C479 0.926 1_545 S
H471 C481 0.930 . S
H472 C483 0.902 . S
H473 C485 0.931 . S
C474 H468 0.920 . S
C474 C475 1.381 . S
C474 C476 1.399 1_545 S
C475 C474 1.381 . S
C475 C479 1.399 1_545 S
C476 C474 1.399 1_565 S
C476 C477 1.400 . S
C477 H469 0.931 . S
C477 C476 1.400 . S
C477 C478 1.375 . S
C478 C477 1.375 . S
C478 C479 1.412 . S
C478 C480 1.501 . S
C479 H470 0.926 1_565 S
C479 C475 1.399 1_565 S
C479 C478 1.412 . S
C480 C478 1.501 . S
C480 C481 1.384 . S
C480 C485 1.408 1_565 S
C481 H471 0.930 . S
C481 C480 1.384 . S
C481 C482 1.389 . S
C482 C481 1.389 . S
C482 C483 1.430 . S
C483 H472 0.902 . S
C483 C482 1.430 . S
C483 C484 1.371 1_565 S
C484 C483 1.371 1_545 S
C484 C485 1.400 . S
C485 H473 0.931 . S
C485 C480 1.408 1_545 S
C485 C484 1.400 . S
H486 C492 0.970 . S
H487 C495 0.931 . S
H488 C497 0.933 1_655 S
H489 C499 0.930 . S
H490 C501 0.930 . S
H491 C503 0.931 . S
C492 H486 0.970 . S
C492 C493 1.376 . S
C492 C494 1.366 1_655 S
C493 C492 1.376 . S
C493 C497 1.355 1_655 S
C494 C492 1.366 1_455 S
C494 C495 1.421 . S
C495 H487 0.931 . S
C495 C494 1.421 . S
C495 C496 1.375 . S
C496 C495 1.375 . S
C496 C497 1.415 . S
C496 C498 1.501 . S
C497 H488 0.933 1_455 S
C497 C493 1.355 1_455 S
C497 C496 1.415 . S
C498 C496 1.501 . S
C498 C499 1.384 . S
C498 C503 1.408 1_455 S
C499 H489 0.930 . S
C499 C498 1.384 . S
C499 C500 1.389 . S
C500 C499 1.389 . S
C500 C501 1.405 . S
C501 H490 0.930 . S
C501 C500 1.405 . S
C501 C502 1.364 1_455 S
C502 C501 1.364 1_655 S
C502 C503 1.400 . S
C503 H491 0.931 . S
C503 C498 1.408 1_655 S
C503 C502 1.400 . S
H504 C510 0.930 . S
H505 C513 0.931 . S
H506 C515 0.931 . S
H507 C517 0.930 . S
H508 C519 0.930 . S
H509 C521 0.931 . S
C510 H504 0.930 . S
C510 C511 1.380 . S
C510 C512 1.394 . S
C511 C510 1.380 . S
C511 C515 1.382 . S
C512 C510 1.394 . S
C512 C513 1.400 . S
C513 H505 0.931 . S
C513 C512 1.400 . S
C513 C514 1.375 . S
C514 C513 1.375 . S
C514 C515 1.415 . S
C514 C516 1.501 . S
C515 H506 0.931 . S
C515 C511 1.382 . S
C515 C514 1.415 . S
C516 C514 1.501 . S
C516 C517 1.384 . S
C516 C521 1.408 . S
C517 H507 0.930 . S
C517 C516 1.384 . S
C517 C518 1.389 . S
C518 C517 1.389 . S
C518 C519 1.405 . S
C519 H508 0.930 . S
C519 C518 1.405 . S
C519 C520 1.364 . S
C520 C519 1.364 . S
C520 C521 1.400 . S
C521 H509 0.931 . S
C521 C516 1.408 . S
C521 C520 1.400 . S
H522 C528 0.930 . S
H523 C531 0.931 . S
H524 C533 0.931 . S
H525 C535 0.930 . S
H526 C537 0.930 . S
H527 C539 0.931 . S
C528 H522 0.930 . S
C528 C529 1.380 . S
C528 C530 1.394 . S
C529 C528 1.380 . S
C529 C533 1.382 . S
C530 C528 1.394 . S
C530 C531 1.400 . S
C531 H523 0.931 . S
C531 C530 1.400 . S
C531 C532 1.375 . S
C532 C531 1.375 . S
C532 C533 1.415 . S
C532 C534 1.501 . S
C533 H524 0.931 . S
C533 C529 1.382 . S
C533 C532 1.415 . S
C534 C532 1.501 . S
C534 C535 1.384 . S
C534 C539 1.408 . S
C535 H525 0.930 . S
C535 C534 1.384 . S
C535 C536 1.389 . S
C536 C535 1.389 . S
C536 C537 1.405 . S
C537 H526 0.930 . S
C537 C536 1.405 . S
C537 C538 1.364 . S
C538 C537 1.364 . S
C538 C539 1.400 . S
C539 H527 0.931 . S
C539 C534 1.408 . S
C539 C538 1.400 . S
H540 C546 0.930 . S
H541 C549 0.931 . S
H542 C551 0.931 . S
H543 C553 0.930 . S
H544 C555 0.930 . S
H545 C557 0.931 . S
C546 H540 0.930 . S
C546 C547 1.380 . S
C546 C548 1.394 . S
C547 C546 1.380 . S
C547 C551 1.382 . S
C548 C546 1.394 . S
C548 C549 1.400 . S
C549 H541 0.931 . S
C549 C548 1.400 . S
C549 C550 1.375 . S
C550 C549 1.375 . S
C550 C551 1.415 . S
C550 C552 1.501 . S
C551 H542 0.931 . S
C551 C547 1.382 . S
C551 C550 1.415 . S
C552 C550 1.501 . S
C552 C553 1.384 . S
C552 C557 1.408 . S
C553 H543 0.930 . S
C553 C552 1.384 . S
C553 C554 1.389 . S
C554 C553 1.389 . S
C554 C555 1.405 . S
C555 H544 0.930 . S
C555 C554 1.405 . S
C555 C556 1.364 . S
C556 C555 1.364 . S
C556 C557 1.400 . S
C557 H545 0.931 . S
C557 C552 1.408 . S
C557 C556 1.400 . S
H558 C564 0.930 . S
H559 C567 0.931 . S
H560 C569 0.931 . S
H561 C571 0.930 . S
H562 C573 0.930 . S
H563 C575 0.931 . S
C564 H558 0.930 . S
C564 C565 1.380 . S
C564 C566 1.394 . S
C565 C564 1.380 . S
C565 C569 1.382 . S
C566 C564 1.394 . S
C566 C567 1.400 . S
C567 H559 0.931 . S
C567 C566 1.400 . S
C567 C568 1.375 . S
C568 C567 1.375 . S
C568 C569 1.415 . S
C568 C570 1.501 . S
C569 H560 0.931 . S
C569 C565 1.382 . S
C569 C568 1.415 . S
C570 C568 1.501 . S
C570 C571 1.384 . S
C570 C575 1.408 . S
C571 H561 0.930 . S
C571 C570 1.384 . S
C571 C572 1.389 . S
C572 C571 1.389 . S
C572 C573 1.405 . S
C573 H562 0.930 . S
C573 C572 1.405 . S
C573 C574 1.364 . S
C574 C573 1.364 . S
C574 C575 1.400 . S
C575 H563 0.931 . S
C575 C570 1.408 . S
C575 C574 1.400 . S
H576 C588 0.930 . S
H577 C590 0.930 . S
H578 C591 0.930 . S
H579 C595 0.959 . S
H580 C595 0.959 . S
H581 C595 0.961 . S
H582 C596 0.960 . S
H583 C596 0.961 . S
H584 C596 0.959 . S
H585 C599 0.929 . S
H586 C600 0.931 . S
H587 C602 0.930 1_455 S
C588 H576 0.930 . S
C588 C589 1.400 1_455 S
C588 C593 1.398 1_455 S
C589 C588 1.400 1_655 S
C589 C590 1.376 . S
C590 H577 0.930 . S
C590 C589 1.376 . S
C590 C591 1.388 . S
C591 H578 0.930 . S
C591 C590 1.388 . S
C591 C592 1.390 . S
C592 C591 1.390 . S
C592 C593 1.394 . S
C592 C598 1.465 . S
C593 C588 1.398 1_655 S
C593 C592 1.394 . S
C593 C594 1.519 . S
C594 C593 1.519 . S
C594 C595 1.506 1_655 S
C594 C596 1.555 . S
C594 C597 1.524 . S
C595 H579 0.959 . S
C595 H580 0.959 . S
C595 H581 0.961 . S
C595 C594 1.506 1_455 S
C596 H582 0.960 . S
C596 H583 0.961 . S
C596 H584 0.959 . S
C596 C594 1.555 . S
C597 C594 1.524 . S
C597 C598 1.396 . S
C597 C602 1.390 . S
C598 C592 1.465 . S
C598 C597 1.396 . S
C598 C599 1.399 . S
C599 H585 0.929 . S
C599 C598 1.399 . S
C599 C600 1.385 . S
C600 H586 0.931 . S
C600 C599 1.385 . S
C600 C601 1.389 . S
C601 C600 1.389 . S
C601 C602 1.387 . S
C602 H587 0.930 1_655 S
C602 C597 1.390 . S
C602 C601 1.387 . S
H603 C615 0.930 . S
H604 C617 0.930 . S
H605 C618 0.930 . S
H606 C622 0.959 . S
H607 C622 0.959 . S
H608 C622 0.961 . S
H609 C623 0.960 . S
H610 C623 0.961 . S
H611 C623 0.959 . S
H612 C626 0.929 . S
H613 C627 0.931 . S
H614 C629 0.930 . S
C615 H603 0.930 . S
C615 C616 1.399 . S
C615 C620 1.399 . S
C616 C615 1.399 . S
C616 C617 1.376 . S
C617 H604 0.930 . S
C617 C616 1.376 . S
C617 C618 1.388 . S
C618 H605 0.930 . S
C618 C617 1.388 . S
C618 C619 1.390 . S
C619 C618 1.390 . S
C619 C620 1.394 . S
C619 C625 1.465 . S
C620 C615 1.399 . S
C620 C619 1.394 . S
C620 C621 1.516 . S
C621 C620 1.516 . S
C621 C622 1.502 . S
C621 C623 1.561 . S
C621 C624 1.526 . S
C622 H606 0.959 . S
C622 H607 0.959 . S
C622 H608 0.961 . S
C622 C621 1.502 . S
C623 H609 0.960 . S
C623 H610 0.961 . S
C623 H611 0.959 . S
C623 C621 1.561 . S
C624 C621 1.526 . S
C624 C625 1.396 . S
C624 C629 1.390 . S
C625 C619 1.465 . S
C625 C624 1.396 . S
C625 C626 1.399 . S
C626 H612 0.929 . S
C626 C625 1.399 . S
C626 C627 1.385 . S
C627 H613 0.931 . S
C627 C626 1.385 . S
C627 C628 1.389 . S
C628 C627 1.389 . S
C628 C629 1.387 . S
C629 H614 0.930 . S
C629 C624 1.390 . S
C629 C628 1.387 . S
H630 C642 0.930 . S
H631 C644 0.930 . S
H632 C645 0.930 . S
H633 C649 0.959 . S
H634 C649 0.959 . S
H635 C649 0.961 . S
H636 C650 0.960 . S
H637 C650 0.961 . S
H638 C650 0.959 . S
H639 C653 0.929 . S
H640 C654 0.931 . S
H641 C656 0.930 . S
C642 H630 0.930 . S
C642 C643 1.399 . S
C642 C647 1.399 . S
C643 C642 1.399 . S
C643 C644 1.376 1_545 S
C644 H631 0.930 . S
C644 C643 1.376 1_565 S
C644 C645 1.388 . S
C645 H632 0.930 . S
C645 C644 1.388 . S
C645 C646 1.390 . S
C646 C645 1.390 . S
C646 C647 1.394 1_565 S
C646 C652 1.465 . S
C647 C642 1.399 . S
C647 C646 1.394 1_545 S
C647 C648 1.516 . S
C648 C647 1.516 . S
C648 C649 1.502 . S
C648 C650 1.561 . S
C648 C651 1.526 . S
C649 H633 0.959 . S
C649 H634 0.959 . S
C649 H635 0.961 . S
C649 C648 1.502 . S
C650 H636 0.960 . S
C650 H637 0.961 . S
C650 H638 0.959 . S
C650 C648 1.561 . S
C651 C648 1.526 . S
C651 C652 1.396 1_545 S
C651 C656 1.390 . S
C652 C646 1.465 . S
C652 C651 1.396 1_565 S
C652 C653 1.399 . S
C653 H639 0.929 . S
C653 C652 1.399 . S
C653 C654 1.385 . S
C654 H640 0.931 . S
C654 C653 1.385 . S
C654 C655 1.389 1_565 S
C655 C654 1.389 1_545 S
C655 C656 1.387 . S
C656 H641 0.930 . S
C656 C651 1.390 . S
C656 C655 1.387 . S
H657 C669 0.930 . S
H658 C671 0.930 . S
H659 C672 0.930 . S
H660 C676 0.959 . S
H661 C676 0.959 . S
H662 C676 0.961 . S
H663 C677 0.960 . S
H664 C677 0.961 . S
H665 C677 0.959 . S
H666 C680 0.929 . S
H667 C681 0.931 . S
H668 C683 0.930 . S
C669 H657 0.930 . S
C669 C670 1.399 1_545 S
C669 C674 1.399 . S
C670 C669 1.399 1_565 S
C670 C671 1.376 . S
C671 H658 0.930 . S
C671 C670 1.376 . S
C671 C672 1.388 . S
C672 H659 0.930 . S
C672 C671 1.388 . S
C672 C673 1.390 . S
C673 C672 1.390 . S
C673 C674 1.394 1_565 S
C673 C679 1.465 . S
C674 C669 1.399 . S
C674 C673 1.394 1_545 S
C674 C675 1.516 . S
C675 C674 1.516 . S
C675 C676 1.502 . S
C675 C677 1.561 . S
C675 C678 1.526 . S
C676 H660 0.959 . S
C676 H661 0.959 . S
C676 H662 0.961 . S
C676 C675 1.502 . S
C677 H663 0.960 . S
C677 H664 0.961 . S
C677 H665 0.959 . S
C677 C675 1.561 . S
C678 C675 1.526 . S
C678 C679 1.396 1_545 S
C678 C683 1.390 . S
C679 C673 1.465 . S
C679 C678 1.396 1_565 S
C679 C680 1.399 . S
C680 H666 0.929 . S
C680 C679 1.399 . S
C680 C681 1.385 . S
C681 H667 0.931 . S
C681 C680 1.385 . S
C681 C682 1.389 . S
C682 C681 1.389 . S
C682 C683 1.387 1_565 S
C683 H668 0.930 . S
C683 C678 1.390 . S
C683 C682 1.387 1_545 S
H684 C696 0.908 1_655 S
H685 C698 0.930 . S
H686 C699 0.930 . S
H687 C703 0.959 . S
H688 C703 0.959 . S
H689 C703 0.961 . S
H690 C704 0.960 . S
H691 C704 0.961 . S
H692 C704 0.959 . S
H693 C707 0.929 . S
H694 C708 0.931 . S
H695 C710 0.939 . S
C696 H684 0.908 1_455 S
C696 C697 1.438 . S
C696 C701 1.386 . S
C697 C696 1.438 . S
C697 C698 1.376 . S
C698 H685 0.930 . S
C698 C697 1.376 . S
C698 C699 1.388 . S
C699 H686 0.930 . S
C699 C698 1.388 . S
C699 C700 1.390 . S
C700 C699 1.390 . S
C700 C701 1.394 . S
C700 C706 1.465 . S
C701 C696 1.386 . S
C701 C700 1.394 . S
C701 C702 1.516 . S
C702 C701 1.516 . S
C702 C703 1.502 1_455 S
C702 C704 1.561 . S
C702 C705 1.526 . S
C703 H687 0.959 . S
C703 H688 0.959 . S
C703 H689 0.961 . S
C703 C702 1.502 1_655 S
C704 H690 0.960 . S
C704 H691 0.961 . S
C704 H692 0.959 . S
C704 C702 1.561 . S
C705 C702 1.526 . S
C705 C706 1.396 . S
C705 C710 1.390 . S
C706 C700 1.465 . S
C706 C705 1.396 . S
C706 C707 1.399 . S
C707 H693 0.929 . S
C707 C706 1.399 . S
C707 C708 1.385 . S
C708 H694 0.931 . S
C708 C707 1.385 . S
C708 C709 1.389 . S
C709 C708 1.389 . S
C709 C710 1.387 . S
C710 H695 0.939 . S
C710 C705 1.390 . S
C710 C709 1.387 . S
H711 C723 0.930 . S
H712 C725 0.930 . S
H713 C726 0.930 . S
H714 C730 0.959 . S
H715 C730 0.959 . S
H716 C730 0.961 . S
H717 C731 0.960 . S
H718 C731 0.961 . S
H719 C731 0.959 . S
H720 C734 0.929 . S
H721 C735 0.931 . S
H722 C737 0.930 . S
C723 H711 0.930 . S
C723 C724 1.399 . S
C723 C728 1.399 . S
C724 C723 1.399 . S
C724 C725 1.376 . S
C725 H712 0.930 . S
C725 C724 1.376 . S
C725 C726 1.388 . S
C726 H713 0.930 . S
C726 C725 1.388 . S
C726 C727 1.390 . S
C727 C726 1.390 . S
C727 C728 1.394 . S
C727 C733 1.465 . S
C728 C723 1.399 . S
C728 C727 1.394 . S
C728 C729 1.516 . S
C729 C728 1.516 . S
C729 C730 1.502 . S
C729 C731 1.561 . S
C729 C732 1.526 . S
C730 H714 0.959 . S
C730 H715 0.959 . S
C730 H716 0.961 . S
C730 C729 1.502 . S
C731 H717 0.960 . S
C731 H718 0.961 . S
C731 H719 0.959 . S
C731 C729 1.561 . S
C732 C729 1.526 . S
C732 C733 1.396 . S
C732 C737 1.390 . S
C733 C727 1.465 . S
C733 C732 1.396 . S
C733 C734 1.399 . S
C734 H720 0.929 . S
C734 C733 1.399 . S
C734 C735 1.385 . S
C735 H721 0.931 . S
C735 C734 1.385 . S
C735 C736 1.389 . S
C736 C735 1.389 . S
C736 C737 1.387 . S
C737 H722 0.930 . S
C737 C732 1.390 . S
C737 C736 1.387 . S
H738 C750 0.930 . S
H739 C752 0.930 . S
H740 C753 0.930 . S
H741 C757 0.959 1_655 S
H742 C757 0.959 . S
H743 C757 0.961 . S
H744 C758 0.960 . S
H745 C758 0.961 . S
H746 C758 0.959 . S
H747 C761 0.929 . S
H748 C762 0.931 . S
H749 C764 0.930 . S
C750 H738 0.930 . S
C750 C751 1.399 . S
C750 C755 1.399 . S
C751 C750 1.399 . S
C751 C752 1.376 1_455 S
C752 H739 0.930 . S
C752 C751 1.376 1_655 S
C752 C753 1.388 . S
C753 H740 0.930 . S
C753 C752 1.388 . S
C753 C754 1.390 . S
C754 C753 1.390 . S
C754 C755 1.394 1_655 S
C754 C760 1.465 . S
C755 C750 1.399 . S
C755 C754 1.394 1_455 S
C755 C756 1.516 . S
C756 C755 1.516 . S
C756 C757 1.502 . S
C756 C758 1.561 . S
C756 C759 1.526 . S
C757 H741 0.959 1_455 S
C757 H742 0.959 . S
C757 H743 0.961 . S
C757 C756 1.502 . S
C758 H744 0.960 . S
C758 H745 0.961 . S
C758 H746 0.959 . S
C758 C756 1.561 . S
C759 C756 1.526 . S
C759 C760 1.396 1_455 S
C759 C764 1.390 . S
C760 C754 1.465 . S
C760 C759 1.396 1_655 S
C760 C761 1.399 . S
C761 H747 0.929 . S
C761 C760 1.399 . S
C761 C762 1.385 . S
C762 H748 0.931 . S
C762 C761 1.385 . S
C762 C763 1.389 . S
C763 C762 1.389 . S
C763 C764 1.387 1_655 S
C764 H749 0.930 . S
C764 C759 1.390 . S
C764 C763 1.387 1_455 S
H765 C777 0.930 . S
H766 C779 0.930 . S
H767 C780 0.930 . S
H768 C784 0.959 . S
H769 C784 0.959 . S
H770 C784 0.961 . S
H771 C785 0.960 . S
H772 C785 0.961 . S
H773 C785 0.959 . S
H774 C788 0.929 . S
H775 C789 0.931 . S
H776 C791 0.930 . S
C777 H765 0.930 . S
C777 C778 1.399 . S
C777 C782 1.399 . S
C778 C777 1.399 . S
C778 C779 1.376 . S
C779 H766 0.930 . S
C779 C778 1.376 . S
C779 C780 1.388 . S
C780 H767 0.930 . S
C780 C779 1.388 . S
C780 C781 1.390 . S
C781 C780 1.390 . S
C781 C782 1.394 . S
C781 C787 1.465 . S
C782 C777 1.399 . S
C782 C781 1.394 . S
C782 C783 1.516 . S
C783 C782 1.516 . S
C783 C784 1.502 . S
C783 C785 1.561 . S
C783 C786 1.526 . S
C784 H768 0.959 . S
C784 H769 0.959 . S
C784 H770 0.961 . S
C784 C783 1.502 . S
C785 H771 0.960 . S
C785 H772 0.961 . S
C785 H773 0.959 . S
C785 C783 1.561 . S
C786 C783 1.526 . S
C786 C787 1.396 . S
C786 C791 1.390 . S
C787 C781 1.465 . S
C787 C786 1.396 . S
C787 C788 1.399 . S
C788 H774 0.929 . S
C788 C787 1.399 . S
C788 C789 1.385 . S
C789 H775 0.931 . S
C789 C788 1.385 . S
C789 C790 1.389 . S
C790 C789 1.389 . S
C790 C791 1.387 . S
C791 H776 0.930 . S
C791 C786 1.390 . S
C791 C790 1.387 . S
H792 C804 0.930 . S
H793 C806 0.930 . S
H794 C807 0.930 . S
H795 C811 0.959 . S
H796 C811 0.959 . S
H797 C811 0.961 . S
H798 C812 0.960 . S
H799 C812 0.961 . S
H800 C812 0.959 . S
H801 C815 0.929 . S
H802 C816 0.931 . S
H803 C818 0.930 . S
C804 H792 0.930 . S
C804 C805 1.399 1_545 S
C804 C809 1.399 . S
C805 C804 1.399 1_565 S
C805 C806 1.376 . S
C806 H793 0.930 . S
C806 C805 1.376 . S
C806 C807 1.388 . S
C807 H794 0.930 . S
C807 C806 1.388 . S
C807 C808 1.390 . S
C808 C807 1.390 . S
C808 C809 1.394 1_565 S
C808 C814 1.465 . S
C809 C804 1.399 . S
C809 C808 1.394 1_545 S
C809 C810 1.516 . S
C810 C809 1.516 . S
C810 C811 1.502 . S
C810 C812 1.561 . S
C810 C813 1.526 . S
C811 H795 0.959 . S
C811 H796 0.959 . S
C811 H797 0.961 . S
C811 C810 1.502 . S
C812 H798 0.960 . S
C812 H799 0.961 . S
C812 H800 0.959 . S
C812 C810 1.561 . S
C813 C810 1.526 . S
C813 C814 1.396 1_545 S
C813 C818 1.390 . S
C814 C808 1.465 . S
C814 C813 1.396 1_565 S
C814 C815 1.399 . S
C815 H801 0.929 . S
C815 C814 1.399 . S
C815 C816 1.385 . S
C816 H802 0.931 . S
C816 C815 1.385 . S
C816 C817 1.389 . S
C817 C816 1.389 . S
C817 C818 1.387 1_565 S
C818 H803 0.930 . S
C818 C813 1.390 . S
C818 C817 1.387 1_545 S
H819 C831 0.930 . S
H820 C833 0.930 . S
H821 C834 0.930 . S
H822 C838 0.959 . S
H823 C838 0.959 . S
H824 C838 0.961 . S
H825 C839 0.960 . S
H826 C839 0.961 . S
H827 C839 0.959 . S
H828 C842 0.929 . S
H829 C843 0.931 . S
H830 C845 0.930 . S
C831 H819 0.930 . S
C831 C832 1.399 . S
C831 C836 1.399 . S
C832 C831 1.399 . S
C832 C833 1.376 1_545 S
C833 H820 0.930 . S
C833 C832 1.376 1_565 S
C833 C834 1.388 . S
C834 H821 0.930 . S
C834 C833 1.388 . S
C834 C835 1.390 . S
C835 C834 1.390 . S
C835 C836 1.394 1_565 S
C835 C841 1.465 . S
C836 C831 1.399 . S
C836 C835 1.394 1_545 S
C836 C837 1.516 . S
C837 C836 1.516 . S
C837 C838 1.502 . S
C837 C839 1.561 . S
C837 C840 1.526 . S
C838 H822 0.959 . S
C838 H823 0.959 . S
C838 H824 0.961 . S
C838 C837 1.502 . S
C839 H825 0.960 . S
C839 H826 0.961 . S
C839 H827 0.959 . S
C839 C837 1.561 . S
C840 C837 1.526 . S
C840 C841 1.396 1_545 S
C840 C845 1.390 . S
C841 C835 1.465 . S
C841 C840 1.396 1_565 S
C841 C842 1.399 . S
C842 H828 0.929 . S
C842 C841 1.399 . S
C842 C843 1.385 . S
C843 H829 0.931 . S
C843 C842 1.385 . S
C843 C844 1.389 . S
C844 C843 1.389 . S
C844 C845 1.387 1_565 S
C845 H830 0.930 . S
C845 C840 1.390 . S
C845 C844 1.387 1_545 S
H846 C858 0.930 . S
H847 C860 0.930 . S
H848 C861 0.930 . S
H849 C865 0.959 . S
H850 C865 0.959 . S
H851 C865 0.961 . S
H852 C866 0.960 . S
H853 C866 0.961 . S
H854 C866 0.959 . S
H855 C869 0.929 . S
H856 C870 0.931 . S
H857 C872 0.930 . S
C858 H846 0.930 . S
C858 C859 1.399 1_455 S
C858 C863 1.399 . S
C859 C858 1.399 1_655 S
C859 C860 1.376 . S
C860 H847 0.930 . S
C860 C859 1.376 . S
C860 C861 1.388 . S
C861 H848 0.930 . S
C861 C860 1.388 . S
C861 C862 1.390 . S
C862 C861 1.390 . S
C862 C863 1.394 1_655 S
C862 C868 1.465 . S
C863 C858 1.399 . S
C863 C862 1.394 1_455 S
C863 C864 1.516 . S
C864 C863 1.516 . S
C864 C865 1.502 . S
C864 C866 1.561 . S
C864 C867 1.526 . S
C865 H849 0.959 . S
C865 H850 0.959 . S
C865 H851 0.961 . S
C865 C864 1.502 . S
C866 H852 0.960 . S
C866 H853 0.961 . S
C866 H854 0.959 . S
C866 C864 1.561 . S
C867 C864 1.526 . S
C867 C868 1.396 1_455 S
C867 C872 1.390 . S
C868 C862 1.465 . S
C868 C867 1.396 1_655 S
C868 C869 1.399 . S
C869 H855 0.929 . S
C869 C868 1.399 . S
C869 C870 1.385 . S
C870 H856 0.931 . S
C870 C869 1.385 . S
C870 C871 1.389 . S
C871 C870 1.389 . S
C871 C872 1.387 1_655 S
C872 H857 0.930 . S
C872 C867 1.390 . S
C872 C871 1.387 1_455 S
H873 C885 0.930 . S
H874 C887 0.930 . S
H875 C888 0.930 . S
H876 C892 0.959 . S
H877 C892 0.959 . S
H878 C892 0.961 . S
H879 C893 0.960 . S
H880 C893 0.961 . S
H881 C893 0.959 . S
H882 C896 0.929 . S
H883 C897 0.931 . S
H884 C899 0.930 . S
C885 H873 0.930 . S
C885 C886 1.399 . S
C885 C890 1.399 . S
C886 C885 1.399 . S
C886 C887 1.376 . S
C887 H874 0.930 . S
C887 C886 1.376 . S
C887 C888 1.388 . S
C888 H875 0.930 . S
C888 C887 1.388 . S
C888 C889 1.390 . S
C889 C888 1.390 . S
C889 C890 1.394 . S
C889 C895 1.465 . S
C890 C885 1.399 . S
C890 C889 1.394 . S
C890 C891 1.516 . S
C891 C890 1.516 . S
C891 C892 1.502 . S
C891 C893 1.561 . S
C891 C894 1.526 . S
C892 H876 0.959 . S
C892 H877 0.959 . S
C892 H878 0.961 . S
C892 C891 1.502 . S
C893 H879 0.960 . S
C893 H880 0.961 . S
C893 H881 0.959 . S
C893 C891 1.561 . S
C894 C891 1.526 . S
C894 C895 1.396 . S
C894 C899 1.390 . S
C895 C889 1.465 . S
C895 C894 1.396 . S
C895 C896 1.399 . S
C896 H882 0.929 . S
C896 C895 1.399 . S
C896 C897 1.385 . S
C897 H883 0.931 . S
C897 C896 1.385 . S
C897 C898 1.389 . S
C898 C897 1.389 . S
C898 C899 1.387 . S
C899 H884 0.930 . S
C899 C894 1.390 . S
C899 C898 1.387 . S
H900 C912 0.930 . S
H901 C914 0.930 . S
H902 C915 0.930 . S
H903 C919 0.959 . S
H904 C919 0.959 . S
H905 C919 0.961 . S
H906 C920 0.960 . S
H907 C920 0.961 . S
H908 C920 0.959 . S
H909 C923 0.929 . S
H910 C924 0.931 . S
H911 C926 0.930 . S
C912 H900 0.930 . S
C912 C913 1.399 . S
C912 C917 1.399 . S
C913 C912 1.399 . S
C913 C914 1.376 . S
C914 H901 0.930 . S
C914 C913 1.376 . S
C914 C915 1.388 . S
C915 H902 0.930 . S
C915 C914 1.388 . S
C915 C916 1.390 . S
C916 C915 1.390 . S
C916 C917 1.394 . S
C916 C922 1.465 . S
C917 C912 1.399 . S
C917 C916 1.394 . S
C917 C918 1.516 . S
C918 C917 1.516 . S
C918 C919 1.502 . S
C918 C920 1.561 . S
C918 C921 1.526 . S
C919 H903 0.959 . S
C919 H904 0.959 . S
C919 H905 0.961 . S
C919 C918 1.502 . S
C920 H906 0.960 . S
C920 H907 0.961 . S
C920 H908 0.959 . S
C920 C918 1.561 . S
C921 C918 1.526 . S
C921 C922 1.396 . S
C921 C926 1.390 . S
C922 C916 1.465 . S
C922 C921 1.396 . S
C922 C923 1.399 . S
C923 H909 0.929 . S
C923 C922 1.399 . S
C923 C924 1.385 . S
C924 H910 0.931 . S
C924 C923 1.385 . S
C924 C925 1.389 . S
C925 C924 1.389 . S
C925 C926 1.387 . S
C926 H911 0.930 . S
C926 C921 1.390 . S
C926 C925 1.387 . S
H927 C939 0.930 . S
H928 C941 0.930 . S
H929 C942 0.930 . S
H930 C946 0.959 . S
H931 C946 0.959 . S
H932 C946 0.961 . S
H933 C947 0.960 . S
H934 C947 0.961 . S
H935 C947 0.959 . S
H936 C950 0.929 . S
H937 C951 0.931 . S
H938 C953 0.930 . S
C939 H927 0.930 . S
C939 C940 1.399 . S
C939 C944 1.399 . S
C940 C939 1.399 . S
C940 C941 1.376 . S
C941 H928 0.930 . S
C941 C940 1.376 . S
C941 C942 1.388 . S
C942 H929 0.930 . S
C942 C941 1.388 . S
C942 C943 1.390 . S
C943 C942 1.390 . S
C943 C944 1.394 . S
C943 C949 1.465 . S
C944 C939 1.399 . S
C944 C943 1.394 . S
C944 C945 1.516 . S
C945 C944 1.516 . S
C945 C946 1.502 . S
C945 C947 1.561 . S
C945 C948 1.526 . S
C946 H930 0.959 . S
C946 H931 0.959 . S
C946 H932 0.961 . S
C946 C945 1.502 . S
C947 H933 0.960 . S
C947 H934 0.961 . S
C947 H935 0.959 . S
C947 C945 1.561 . S
C948 C945 1.526 . S
C948 C949 1.396 . S
C948 C953 1.390 . S
C949 C943 1.465 . S
C949 C948 1.396 . S
C949 C950 1.399 . S
C950 H936 0.929 . S
C950 C949 1.399 . S
C950 C951 1.385 . S
C951 H937 0.931 . S
C951 C950 1.385 . S
C951 C952 1.389 . S
C952 C951 1.389 . S
C952 C953 1.387 . S
C953 H938 0.930 . S
C953 C948 1.390 . S
C953 C952 1.387 . S
H954 C966 0.930 . S
H955 C968 0.930 . S
H956 C969 0.930 . S
H957 C973 0.959 . S
H958 C973 0.959 . S
H959 C973 0.961 . S
H960 C974 0.960 . S
H961 C974 0.961 . S
H962 C974 0.959 . S
H963 C977 0.929 . S
H964 C978 0.931 . S
H965 C980 0.930 . S
C966 H954 0.930 . S
C966 C967 1.399 . S
C966 C971 1.399 . S
C967 C966 1.399 . S
C967 C968 1.376 . S
C968 H955 0.930 . S
C968 C967 1.376 . S
C968 C969 1.388 . S
C969 H956 0.930 . S
C969 C968 1.388 . S
C969 C970 1.390 . S
C970 C969 1.390 . S
C970 C971 1.394 . S
C970 C976 1.465 . S
C971 C966 1.399 . S
C971 C970 1.394 . S
C971 C972 1.516 . S
C972 C971 1.516 . S
C972 C973 1.502 . S
C972 C974 1.561 . S
C972 C975 1.526 . S
C973 H957 0.959 . S
C973 H958 0.959 . S
C973 H959 0.961 . S
C973 C972 1.502 . S
C974 H960 0.960 . S
C974 H961 0.961 . S
C974 H962 0.959 . S
C974 C972 1.561 . S
C975 C972 1.526 . S
C975 C976 1.396 . S
C975 C980 1.390 . S
C976 C970 1.465 . S
C976 C975 1.396 . S
C976 C977 1.399 . S
C977 H963 0.929 . S
C977 C976 1.399 . S
C977 C978 1.385 . S
C978 H964 0.931 . S
C978 C977 1.385 . S
C978 C979 1.389 . S
C979 C978 1.389 . S
C979 C980 1.387 . S
C980 H965 0.930 . S
C980 C975 1.390 . S
C980 C979 1.387 . S
H981 C993 0.930 . S
H982 C995 0.930 . S
H983 C996 0.930 . S
H984 C1000 0.959 . S
H985 C1000 0.959 . S
H986 C1000 0.961 . S
H987 C1001 0.960 . S
H988 C1001 0.961 . S
H989 C1001 0.959 . S
H990 C1004 0.929 . S
H991 C1005 0.931 . S
H992 C1007 0.930 . S
C993 H981 0.930 . S
C993 C994 1.399 . S
C993 C998 1.399 . S
C994 C993 1.399 . S
C994 C995 1.376 . S
C995 H982 0.930 . S
C995 C994 1.376 . S
C995 C996 1.388 . S
C996 H983 0.930 . S
C996 C995 1.388 . S
C996 C997 1.390 . S
C997 C996 1.390 . S
C997 C998 1.394 . S
C997 C1003 1.465 . S
C998 C993 1.399 . S
C998 C997 1.394 . S
C998 C999 1.516 . S
C999 C998 1.516 . S
C999 C1000 1.502 . S
C999 C1001 1.561 . S
C999 C1002 1.526 . S
C1000 H984 0.959 . S
C1000 H985 0.959 . S
C1000 H986 0.961 . S
C1000 C999 1.502 . S
C1001 H987 0.960 . S
C1001 H988 0.961 . S
C1001 H989 0.959 . S
C1001 C999 1.561 . S
C1002 C999 1.526 . S
C1002 C1003 1.396 . S
C1002 C1007 1.390 . S
C1003 C997 1.465 . S
C1003 C1002 1.396 . S
C1003 C1004 1.399 . S
C1004 H990 0.929 . S
C1004 C1003 1.399 . S
C1004 C1005 1.385 . S
C1005 H991 0.931 . S
C1005 C1004 1.385 . S
C1005 C1006 1.389 . S
C1006 C1005 1.389 . S
C1006 C1007 1.387 . S
C1007 H992 0.930 . S
C1007 C1002 1.390 . S
C1007 C1006 1.387 . S
H1008 C1020 0.930 . S
H1009 C1022 0.930 . S
H1010 C1023 0.930 . S
H1011 C1027 0.959 . S
H1012 C1027 0.959 . S
H1013 C1027 0.961 . S
H1014 C1028 0.960 . S
H1015 C1028 0.961 . S
H1016 C1028 0.959 . S
H1017 C1031 0.929 . S
H1018 C1032 0.931 . S
H1019 C1034 0.930 . S
C1020 H1008 0.930 . S
C1020 C1021 1.399 . S
C1020 C1025 1.399 . S
C1021 C1020 1.399 . S
C1021 C1022 1.376 . S
C1022 H1009 0.930 . S
C1022 C1021 1.376 . S
C1022 C1023 1.388 . S
C1023 H1010 0.930 . S
C1023 C1022 1.388 . S
C1023 C1024 1.390 . S
C1024 C1023 1.390 . S
C1024 C1025 1.394 . S
C1024 C1030 1.465 . S
C1025 C1020 1.399 . S
C1025 C1024 1.394 . S
C1025 C1026 1.516 . S
C1026 C1025 1.516 . S
C1026 C1027 1.502 . S
C1026 C1028 1.561 . S
C1026 C1029 1.526 . S
C1027 H1011 0.959 . S
C1027 H1012 0.959 . S
C1027 H1013 0.961 . S
C1027 C1026 1.502 . S
C1028 H1014 0.960 . S
C1028 H1015 0.961 . S
C1028 H1016 0.959 . S
C1028 C1026 1.561 . S
C1029 C1026 1.526 . S
C1029 C1030 1.396 . S
C1029 C1034 1.390 . S
C1030 C1024 1.465 . S
C1030 C1029 1.396 . S
C1030 C1031 1.399 . S
C1031 H1017 0.929 . S
C1031 C1030 1.399 . S
C1031 C1032 1.385 . S
C1032 H1018 0.931 . S
C1032 C1031 1.385 . S
C1032 C1033 1.389 . S
C1033 C1032 1.389 . S
C1033 C1034 1.387 . S
C1034 H1019 0.930 . S
C1034 C1029 1.390 . S
C1034 C1033 1.387 . S
H1035 C1047 0.930 . S
H1036 C1049 0.930 . S
H1037 C1050 0.930 . S
H1038 C1054 0.959 . S
H1039 C1054 0.959 . S
H1040 C1054 0.961 . S
H1041 C1055 0.960 . S
H1042 C1055 0.961 . S
H1043 C1055 0.959 . S
H1044 C1058 0.929 . S
H1045 C1059 0.931 . S
H1046 C1061 0.930 . S
C1047 H1035 0.930 . S
C1047 C1048 1.399 . S
C1047 C1052 1.399 . S
C1048 C1047 1.399 . S
C1048 C1049 1.376 . S
C1049 H1036 0.930 . S
C1049 C1048 1.376 . S
C1049 C1050 1.388 . S
C1050 H1037 0.930 . S
C1050 C1049 1.388 . S
C1050 C1051 1.390 . S
C1051 C1050 1.390 . S
C1051 C1052 1.394 . S
C1051 C1057 1.465 . S
C1052 C1047 1.399 . S
C1052 C1051 1.394 . S
C1052 C1053 1.516 . S
C1053 C1052 1.516 . S
C1053 C1054 1.502 . S
C1053 C1055 1.561 . S
C1053 C1056 1.526 . S
C1054 H1038 0.959 . S
C1054 H1039 0.959 . S
C1054 H1040 0.961 . S
C1054 C1053 1.502 . S
C1055 H1041 0.960 . S
C1055 H1042 0.961 . S
C1055 H1043 0.959 . S
C1055 C1053 1.561 . S
C1056 C1053 1.526 . S
C1056 C1057 1.396 . S
C1056 C1061 1.390 . S
C1057 C1051 1.465 . S
C1057 C1056 1.396 . S
C1057 C1058 1.399 . S
C1058 H1044 0.929 . S
C1058 C1057 1.399 . S
C1058 C1059 1.385 . S
C1059 H1045 0.931 . S
C1059 C1058 1.385 . S
C1059 C1060 1.389 . S
C1060 C1059 1.389 . S
C1060 C1061 1.387 . S
C1061 H1046 0.930 . S
C1061 C1056 1.390 . S
C1061 C1060 1.387 . S
H1062 C1074 0.930 . S
H1063 C1076 0.930 . S
H1064 C1077 0.930 . S
H1065 C1081 0.959 . S
H1066 C1081 0.959 . S
H1067 C1081 0.961 . S
H1068 C1082 0.960 . S
H1069 C1082 0.961 . S
H1070 C1082 0.959 . S
H1071 C1085 0.929 . S
H1072 C1086 0.931 . S
H1073 C1088 0.930 . S
C1074 H1062 0.930 . S
C1074 C1075 1.399 . S
C1074 C1079 1.399 . S
C1075 C1074 1.399 . S
C1075 C1076 1.376 . S
C1076 H1063 0.930 . S
C1076 C1075 1.376 . S
C1076 C1077 1.388 . S
C1077 H1064 0.930 . S
C1077 C1076 1.388 . S
C1077 C1078 1.390 . S
C1078 C1077 1.390 . S
C1078 C1079 1.394 . S
C1078 C1084 1.465 . S
C1079 C1074 1.399 . S
C1079 C1078 1.394 . S
C1079 C1080 1.516 . S
C1080 C1079 1.516 . S
C1080 C1081 1.502 . S
C1080 C1082 1.561 . S
C1080 C1083 1.526 . S
C1081 H1065 0.959 . S
C1081 H1066 0.959 . S
C1081 H1067 0.961 . S
C1081 C1080 1.502 . S
C1082 H1068 0.960 . S
C1082 H1069 0.961 . S
C1082 H1070 0.959 . S
C1082 C1080 1.561 . S
C1083 C1080 1.526 . S
C1083 C1084 1.396 . S
C1083 C1088 1.390 . S
C1084 C1078 1.465 . S
C1084 C1083 1.396 . S
C1084 C1085 1.399 . S
C1085 H1071 0.929 . S
C1085 C1084 1.399 . S
C1085 C1086 1.385 . S
C1086 H1072 0.931 . S
C1086 C1085 1.385 . S
C1086 C1087 1.389 . S
C1087 C1086 1.389 . S
C1087 C1088 1.387 . S
C1088 H1073 0.930 . S
C1088 C1083 1.390 . S
C1088 C1087 1.387 . S
H1089 C1101 0.930 . S
H1090 C1103 0.930 . S
H1091 C1104 0.930 . S
H1092 C1108 0.959 . S
H1093 C1108 0.959 . S
H1094 C1108 0.961 . S
H1095 C1109 0.960 . S
H1096 C1109 0.961 . S
H1097 C1109 0.959 . S
H1098 C1112 0.929 . S
H1099 C1113 0.931 . S
H1100 C1115 0.930 . S
C1101 H1089 0.930 . S
C1101 C1102 1.399 . S
C1101 C1106 1.399 . S
C1102 C1101 1.399 . S
C1102 C1103 1.376 . S
C1103 H1090 0.930 . S
C1103 C1102 1.376 . S
C1103 C1104 1.388 . S
C1104 H1091 0.930 . S
C1104 C1103 1.388 . S
C1104 C1105 1.390 . S
C1105 C1104 1.390 . S
C1105 C1106 1.394 . S
C1105 C1111 1.465 . S
C1106 C1101 1.399 . S
C1106 C1105 1.394 . S
C1106 C1107 1.516 . S
C1107 C1106 1.516 . S
C1107 C1108 1.502 . S
C1107 C1109 1.561 . S
C1107 C1110 1.526 . S
C1108 H1092 0.959 . S
C1108 H1093 0.959 . S
C1108 H1094 0.961 . S
C1108 C1107 1.502 . S
C1109 H1095 0.960 . S
C1109 H1096 0.961 . S
C1109 H1097 0.959 . S
C1109 C1107 1.561 . S
C1110 C1107 1.526 . S
C1110 C1111 1.396 . S
C1110 C1115 1.390 . S
C1111 C1105 1.465 . S
C1111 C1110 1.396 . S
C1111 C1112 1.399 . S
C1112 H1098 0.929 . S
C1112 C1111 1.399 . S
C1112 C1113 1.385 . S
C1113 H1099 0.931 . S
C1113 C1112 1.385 . S
C1113 C1114 1.389 . S
C1114 C1113 1.389 . S
C1114 C1115 1.387 . S
C1115 H1100 0.930 . S
C1115 C1110 1.390 . S
C1115 C1114 1.387 . S
H1116 C1128 0.930 . S
H1117 C1130 0.930 . S
H1118 C1131 0.930 . S
H1119 C1135 0.959 . S
H1120 C1135 0.959 . S
H1121 C1135 0.961 . S
H1122 C1136 0.960 . S
H1123 C1136 0.961 . S
H1124 C1136 0.959 . S
H1125 C1139 0.929 . S
H1126 C1140 0.931 . S
H1127 C1142 0.930 . S
C1128 H1116 0.930 . S
C1128 C1129 1.399 . S
C1128 C1133 1.399 . S
C1129 C1128 1.399 . S
C1129 C1130 1.376 . S
C1130 H1117 0.930 . S
C1130 C1129 1.376 . S
C1130 C1131 1.388 . S
C1131 H1118 0.930 . S
C1131 C1130 1.388 . S
C1131 C1132 1.390 . S
C1132 C1131 1.390 . S
C1132 C1133 1.394 . S
C1132 C1138 1.465 . S
C1133 C1128 1.399 . S
C1133 C1132 1.394 . S
C1133 C1134 1.516 . S
C1134 C1133 1.516 . S
C1134 C1135 1.502 . S
C1134 C1136 1.561 . S
C1134 C1137 1.526 . S
C1135 H1119 0.959 . S
C1135 H1120 0.959 . S
C1135 H1121 0.961 . S
C1135 C1134 1.502 . S
C1136 H1122 0.960 . S
C1136 H1123 0.961 . S
C1136 H1124 0.959 . S
C1136 C1134 1.561 . S
C1137 C1134 1.526 . S
C1137 C1138 1.396 . S
C1137 C1142 1.390 . S
C1138 C1132 1.465 . S
C1138 C1137 1.396 . S
C1138 C1139 1.399 . S
C1139 H1125 0.929 . S
C1139 C1138 1.399 . S
C1139 C1140 1.385 . S
C1140 H1126 0.931 . S
C1140 C1139 1.385 . S
C1140 C1141 1.389 . S
C1141 C1140 1.389 . S
C1141 C1142 1.387 . S
C1142 H1127 0.930 . S
C1142 C1137 1.390 . S
C1142 C1141 1.387 . S
H1143 C1155 0.930 . S
H1144 C1157 0.930 . S
H1145 C1158 0.930 . S
H1146 C1162 0.959 . S
H1147 C1162 0.959 . S
H1148 C1162 0.961 . S
H1149 C1163 0.960 . S
H1150 C1163 0.961 . S
H1151 C1163 0.959 . S
H1152 C1166 0.929 . S
H1153 C1167 0.931 . S
H1154 C1169 0.930 . S
C1155 H1143 0.930 . S
C1155 C1156 1.399 . S
C1155 C1160 1.399 . S
C1156 C1155 1.399 . S
C1156 C1157 1.376 . S
C1157 H1144 0.930 . S
C1157 C1156 1.376 . S
C1157 C1158 1.388 . S
C1158 H1145 0.930 . S
C1158 C1157 1.388 . S
C1158 C1159 1.390 . S
C1159 C1158 1.390 . S
C1159 C1160 1.394 . S
C1159 C1165 1.465 . S
C1160 C1155 1.399 . S
C1160 C1159 1.394 . S
C1160 C1161 1.516 . S
C1161 C1160 1.516 . S
C1161 C1162 1.502 . S
C1161 C1163 1.561 . S
C1161 C1164 1.526 . S
C1162 H1146 0.959 . S
C1162 H1147 0.959 . S
C1162 H1148 0.961 . S
C1162 C1161 1.502 . S
C1163 H1149 0.960 . S
C1163 H1150 0.961 . S
C1163 H1151 0.959 . S
C1163 C1161 1.561 . S
C1164 C1161 1.526 . S
C1164 C1165 1.396 . S
C1164 C1169 1.390 . S
C1165 C1159 1.465 . S
C1165 C1164 1.396 . S
C1165 C1166 1.399 . S
C1166 H1152 0.929 . S
C1166 C1165 1.399 . S
C1166 C1167 1.385 . S
C1167 H1153 0.931 . S
C1167 C1166 1.385 . S
C1167 C1168 1.389 . S
C1168 C1167 1.389 . S
C1168 C1169 1.387 . S
C1169 H1154 0.930 . S
C1169 C1164 1.390 . S
C1169 C1168 1.387 . S
H1170 C1182 0.930 . S
H1171 C1184 0.930 . S
H1172 C1185 0.930 . S
H1173 C1189 0.959 . S
H1174 C1189 0.959 . S
H1175 C1189 0.961 . S
H1176 C1190 0.960 . S
H1177 C1190 0.961 . S
H1178 C1190 0.959 . S
H1179 C1193 0.929 . S
H1180 C1194 0.931 . S
H1181 C1196 0.930 . S
C1182 H1170 0.930 . S
C1182 C1183 1.399 . S
C1182 C1187 1.399 . S
C1183 C1182 1.399 . S
C1183 C1184 1.376 . S
C1184 H1171 0.930 . S
C1184 C1183 1.376 . S
C1184 C1185 1.388 . S
C1185 H1172 0.930 . S
C1185 C1184 1.388 . S
C1185 C1186 1.390 . S
C1186 C1185 1.390 . S
C1186 C1187 1.394 . S
C1186 C1192 1.465 . S
C1187 C1182 1.399 . S
C1187 C1186 1.394 . S
C1187 C1188 1.516 . S
C1188 C1187 1.516 . S
C1188 C1189 1.502 . S
C1188 C1190 1.561 . S
C1188 C1191 1.526 . S
C1189 H1173 0.959 . S
C1189 H1174 0.959 . S
C1189 H1175 0.961 . S
C1189 C1188 1.502 . S
C1190 H1176 0.960 . S
C1190 H1177 0.961 . S
C1190 H1178 0.959 . S
C1190 C1188 1.561 . S
C1191 C1188 1.526 . S
C1191 C1192 1.396 . S
C1191 C1196 1.390 . S
C1192 C1186 1.465 . S
C1192 C1191 1.396 . S
C1192 C1193 1.399 . S
C1193 H1179 0.929 . S
C1193 C1192 1.399 . S
C1193 C1194 1.385 . S
C1194 H1180 0.931 . S
C1194 C1193 1.385 . S
C1194 C1195 1.389 . S
C1195 C1194 1.389 . S
C1195 C1196 1.387 . S
C1196 H1181 0.930 . S
C1196 C1191 1.390 . S
C1196 C1195 1.387 . S
H1197 C1209 0.930 . S
H1198 C1211 0.930 . S
H1199 C1212 0.930 . S
H1200 C1216 0.959 . S
H1201 C1216 0.959 . S
H1202 C1216 0.961 . S
H1203 C1217 0.960 . S
H1204 C1217 0.961 . S
H1205 C1217 0.959 . S
H1206 C1220 0.929 . S
H1207 C1221 0.931 . S
H1208 C1223 0.930 . S
C1209 H1197 0.930 . S
C1209 C1210 1.399 . S
C1209 C1214 1.399 . S
C1210 C1209 1.399 . S
C1210 C1211 1.376 . S
C1211 H1198 0.930 . S
C1211 C1210 1.376 . S
C1211 C1212 1.388 . S
C1212 H1199 0.930 . S
C1212 C1211 1.388 . S
C1212 C1213 1.390 . S
C1213 C1212 1.390 . S
C1213 C1214 1.394 . S
C1213 C1219 1.465 . S
C1214 C1209 1.399 . S
C1214 C1213 1.394 . S
C1214 C1215 1.516 . S
C1215 C1214 1.516 . S
C1215 C1216 1.502 . S
C1215 C1217 1.561 . S
C1215 C1218 1.526 . S
C1216 H1200 0.959 . S
C1216 H1201 0.959 . S
C1216 H1202 0.961 . S
C1216 C1215 1.502 . S
C1217 H1203 0.960 . S
C1217 H1204 0.961 . S
C1217 H1205 0.959 . S
C1217 C1215 1.561 . S
C1218 C1215 1.526 . S
C1218 C1219 1.396 . S
C1218 C1223 1.390 . S
C1219 C1213 1.465 . S
C1219 C1218 1.396 . S
C1219 C1220 1.399 . S
C1220 H1206 0.929 . S
C1220 C1219 1.399 . S
C1220 C1221 1.385 . S
C1221 H1207 0.931 . S
C1221 C1220 1.385 . S
C1221 C1222 1.389 . S
C1222 C1221 1.389 . S
C1222 C1223 1.387 . S
C1223 H1208 0.930 . S
C1223 C1218 1.390 . S
C1223 C1222 1.387 . S
H1224 C1236 0.930 . S
H1225 C1238 0.930 . S
H1226 C1239 0.930 . S
H1227 C1243 0.959 . S
H1228 C1243 0.959 . S
H1229 C1243 0.961 . S
H1230 C1244 0.960 . S
H1231 C1244 0.961 . S
H1232 C1244 0.959 . S
H1233 C1247 0.929 . S
H1234 C1248 0.931 . S
H1235 C1250 0.930 . S
C1236 H1224 0.930 . S
C1236 C1237 1.399 . S
C1236 C1241 1.399 . S
C1237 C1236 1.399 . S
C1237 C1238 1.376 . S
C1238 H1225 0.930 . S
C1238 C1237 1.376 . S
C1238 C1239 1.388 . S
C1239 H1226 0.930 . S
C1239 C1238 1.388 . S
C1239 C1240 1.390 . S
C1240 C1239 1.390 . S
C1240 C1241 1.394 . S
C1240 C1246 1.465 . S
C1241 C1236 1.399 . S
C1241 C1240 1.394 . S
C1241 C1242 1.516 . S
C1242 C1241 1.516 . S
C1242 C1243 1.502 . S
C1242 C1244 1.561 . S
C1242 C1245 1.526 . S
C1243 H1227 0.959 . S
C1243 H1228 0.959 . S
C1243 H1229 0.961 . S
C1243 C1242 1.502 . S
C1244 H1230 0.960 . S
C1244 H1231 0.961 . S
C1244 H1232 0.959 . S
C1244 C1242 1.561 . S
C1245 C1242 1.526 . S
C1245 C1246 1.396 . S
C1245 C1250 1.390 . S
C1246 C1240 1.465 . S
C1246 C1245 1.396 . S
C1246 C1247 1.399 . S
C1247 H1233 0.929 . S
C1247 C1246 1.399 . S
C1247 C1248 1.385 . S
C1248 H1234 0.931 . S
C1248 C1247 1.385 . S
C1248 C1249 1.389 . S
C1249 C1248 1.389 . S
C1249 C1250 1.387 . S
C1250 H1235 0.930 . S
C1250 C1245 1.390 . S
C1250 C1249 1.387 . S
H1251 C1263 0.930 . S
H1252 C1265 0.930 . S
H1253 C1266 0.930 . S
H1254 C1270 0.959 . S
H1255 C1270 0.959 . S
H1256 C1270 0.961 . S
H1257 C1271 0.960 . S
H1258 C1271 0.961 . S
H1259 C1271 0.959 . S
H1260 C1274 0.929 . S
H1261 C1275 0.931 . S
H1262 C1277 0.930 . S
C1263 H1251 0.930 . S
C1263 C1264 1.399 . S
C1263 C1268 1.399 . S
C1264 C1263 1.399 . S
C1264 C1265 1.376 . S
C1265 H1252 0.930 . S
C1265 C1264 1.376 . S
C1265 C1266 1.388 . S
C1266 H1253 0.930 . S
C1266 C1265 1.388 . S
C1266 C1267 1.390 . S
C1267 C1266 1.390 . S
C1267 C1268 1.394 . S
C1267 C1273 1.465 . S
C1268 C1263 1.399 . S
C1268 C1267 1.394 . S
C1268 C1269 1.516 . S
C1269 C1268 1.516 . S
C1269 C1270 1.502 . S
C1269 C1271 1.561 . S
C1269 C1272 1.526 . S
C1270 H1254 0.959 . S
C1270 H1255 0.959 . S
C1270 H1256 0.961 . S
C1270 C1269 1.502 . S
C1271 H1257 0.960 . S
C1271 H1258 0.961 . S
C1271 H1259 0.959 . S
C1271 C1269 1.561 . S
C1272 C1269 1.526 . S
C1272 C1273 1.396 . S
C1272 C1277 1.390 . S
C1273 C1267 1.465 . S
C1273 C1272 1.396 . S
C1273 C1274 1.399 . S
C1274 H1260 0.929 . S
C1274 C1273 1.399 . S
C1274 C1275 1.385 . S
C1275 H1261 0.931 . S
C1275 C1274 1.385 . S
C1275 C1276 1.389 . S
C1276 C1275 1.389 . S
C1276 C1277 1.387 . S
C1277 H1262 0.930 . S
C1277 C1272 1.390 . S
C1277 C1276 1.387 . S
H1278 C1290 0.930 . S
H1279 C1292 0.930 . S
H1280 C1293 0.930 . S
H1281 C1297 0.959 . S
H1282 C1297 0.959 . S
H1283 C1297 0.961 . S
H1284 C1298 0.960 . S
H1285 C1298 0.961 . S
H1286 C1298 0.959 . S
H1287 C1301 0.929 . S
H1288 C1302 0.931 . S
H1289 C1304 0.930 . S
C1290 H1278 0.930 . S
C1290 C1291 1.399 . S
C1290 C1295 1.399 . S
C1291 C1290 1.399 . S
C1291 C1292 1.376 . S
C1292 H1279 0.930 . S
C1292 C1291 1.376 . S
C1292 C1293 1.388 . S
C1293 H1280 0.930 . S
C1293 C1292 1.388 . S
C1293 C1294 1.390 . S
C1294 C1293 1.390 . S
C1294 C1295 1.394 . S
C1294 C1300 1.465 . S
C1295 C1290 1.399 . S
C1295 C1294 1.394 . S
C1295 C1296 1.516 . S
C1296 C1295 1.516 . S
C1296 C1297 1.502 . S
C1296 C1298 1.561 . S
C1296 C1299 1.526 . S
C1297 H1281 0.959 . S
C1297 H1282 0.959 . S
C1297 H1283 0.961 . S
C1297 C1296 1.502 . S
C1298 H1284 0.960 . S
C1298 H1285 0.961 . S
C1298 H1286 0.959 . S
C1298 C1296 1.561 . S
C1299 C1296 1.526 . S
C1299 C1300 1.396 . S
C1299 C1304 1.390 . S
C1300 C1294 1.465 . S
C1300 C1299 1.396 . S
C1300 C1301 1.399 . S
C1301 H1287 0.929 . S
C1301 C1300 1.399 . S
C1301 C1302 1.385 . S
C1302 H1288 0.931 . S
C1302 C1301 1.385 . S
C1302 C1303 1.389 . S
C1303 C1302 1.389 . S
C1303 C1304 1.387 . S
C1304 H1289 0.930 . S
C1304 C1299 1.390 . S
C1304 C1303 1.387 . S
H1305 C1317 0.930 . S
H1306 C1319 0.930 . S
H1307 C1320 0.930 . S
H1308 C1324 0.959 . S
H1309 C1324 0.959 . S
H1310 C1324 0.961 . S
H1311 C1325 0.960 . S
H1312 C1325 0.961 . S
H1313 C1325 0.959 . S
H1314 C1328 0.929 . S
H1315 C1329 0.931 . S
H1316 C1331 0.930 . S
C1317 H1305 0.930 . S
C1317 C1318 1.399 . S
C1317 C1322 1.399 . S
C1318 C1317 1.399 . S
C1318 C1319 1.376 . S
C1319 H1306 0.930 . S
C1319 C1318 1.376 . S
C1319 C1320 1.388 . S
C1320 H1307 0.930 . S
C1320 C1319 1.388 . S
C1320 C1321 1.390 . S
C1321 C1320 1.390 . S
C1321 C1322 1.394 . S
C1321 C1327 1.465 . S
C1322 C1317 1.399 . S
C1322 C1321 1.394 . S
C1322 C1323 1.516 . S
C1323 C1322 1.516 . S
C1323 C1324 1.502 . S
C1323 C1325 1.561 . S
C1323 C1326 1.526 . S
C1324 H1308 0.959 . S
C1324 H1309 0.959 . S
C1324 H1310 0.961 . S
C1324 C1323 1.502 . S
C1325 H1311 0.960 . S
C1325 H1312 0.961 . S
C1325 H1313 0.959 . S
C1325 C1323 1.561 . S
C1326 C1323 1.526 . S
C1326 C1327 1.396 . S
C1326 C1331 1.390 . S
C1327 C1321 1.465 . S
C1327 C1326 1.396 . S
C1327 C1328 1.399 . S
C1328 H1314 0.929 . S
C1328 C1327 1.399 . S
C1328 C1329 1.385 . S
C1329 H1315 0.931 . S
C1329 C1328 1.385 . S
C1329 C1330 1.389 . S
C1330 C1329 1.389 . S
C1330 C1331 1.387 . S
C1331 H1316 0.930 . S
C1331 C1326 1.390 . S
C1331 C1330 1.387 . S
H1332 C1344 0.930 . S
H1333 C1346 0.930 . S
H1334 C1347 0.930 . S
H1335 C1351 0.959 . S
H1336 C1351 0.959 . S
H1337 C1351 0.961 . S
H1338 C1352 0.960 . S
H1339 C1352 0.961 . S
H1340 C1352 0.959 . S
H1341 C1355 0.929 . S
H1342 C1356 0.931 . S
H1343 C1358 0.930 . S
C1344 H1332 0.930 . S
C1344 C1345 1.399 . S
C1344 C1349 1.399 . S
C1345 C1344 1.399 . S
C1345 C1346 1.376 . S
C1346 H1333 0.930 . S
C1346 C1345 1.376 . S
C1346 C1347 1.388 . S
C1347 H1334 0.930 . S
C1347 C1346 1.388 . S
C1347 C1348 1.390 . S
C1348 C1347 1.390 . S
C1348 C1349 1.394 . S
C1348 C1354 1.465 . S
C1349 C1344 1.399 . S
C1349 C1348 1.394 . S
C1349 C1350 1.516 . S
C1350 C1349 1.516 . S
C1350 C1351 1.502 . S
C1350 C1352 1.561 . S
C1350 C1353 1.526 . S
C1351 H1335 0.959 . S
C1351 H1336 0.959 . S
C1351 H1337 0.961 . S
C1351 C1350 1.502 . S
C1352 H1338 0.960 . S
C1352 H1339 0.961 . S
C1352 H1340 0.959 . S
C1352 C1350 1.561 . S
C1353 C1350 1.526 . S
C1353 C1354 1.396 . S
C1353 C1358 1.390 . S
C1354 C1348 1.465 . S
C1354 C1353 1.396 . S
C1354 C1355 1.399 . S
C1355 H1341 0.929 . S
C1355 C1354 1.399 . S
C1355 C1356 1.385 . S
C1356 H1342 0.931 . S
C1356 C1355 1.385 . S
C1356 C1357 1.389 . S
C1357 C1356 1.389 . S
C1357 C1358 1.387 . S
C1358 H1343 0.930 . S
C1358 C1353 1.390 . S
C1358 C1357 1.387 . S
H1359 C1371 0.930 . S
H1360 C1373 0.930 . S
H1361 C1374 0.930 . S
H1362 C1378 0.959 . S
H1363 C1378 0.959 . S
H1364 C1378 0.961 . S
H1365 C1379 0.960 . S
H1366 C1379 0.961 . S
H1367 C1379 0.959 . S
H1368 C1382 0.929 . S
H1369 C1383 0.931 . S
H1370 C1385 0.930 . S
C1371 H1359 0.930 . S
C1371 C1372 1.399 . S
C1371 C1376 1.399 . S
C1372 C1371 1.399 . S
C1372 C1373 1.376 . S
C1373 H1360 0.930 . S
C1373 C1372 1.376 . S
C1373 C1374 1.388 . S
C1374 H1361 0.930 . S
C1374 C1373 1.388 . S
C1374 C1375 1.390 . S
C1375 C1374 1.390 . S
C1375 C1376 1.394 . S
C1375 C1381 1.465 . S
C1376 C1371 1.399 . S
C1376 C1375 1.394 . S
C1376 C1377 1.516 . S
C1377 C1376 1.516 . S
C1377 C1378 1.502 . S
C1377 C1379 1.561 . S
C1377 C1380 1.526 . S
C1378 H1362 0.959 . S
C1378 H1363 0.959 . S
C1378 H1364 0.961 . S
C1378 C1377 1.502 . S
C1379 H1365 0.960 . S
C1379 H1366 0.961 . S
C1379 H1367 0.959 . S
C1379 C1377 1.561 . S
C1380 C1377 1.526 . S
C1380 C1381 1.396 . S
C1380 C1385 1.390 . S
C1381 C1375 1.465 . S
C1381 C1380 1.396 . S
C1381 C1382 1.399 . S
C1382 H1368 0.929 . S
C1382 C1381 1.399 . S
C1382 C1383 1.385 . S
C1383 H1369 0.931 . S
C1383 C1382 1.385 . S
C1383 C1384 1.389 . S
C1384 C1383 1.389 . S
C1384 C1385 1.387 . S
C1385 H1370 0.930 . S
C1385 C1380 1.390 . S
C1385 C1384 1.387 . S
H1386 C1398 0.930 . S
H1387 C1400 0.930 . S
H1388 C1401 0.930 . S
H1389 C1405 0.959 . S
H1390 C1405 0.959 . S
H1391 C1405 0.961 . S
H1392 C1406 0.960 . S
H1393 C1406 0.961 . S
H1394 C1406 0.959 . S
H1395 C1409 0.929 . S
H1396 C1410 0.931 . S
H1397 C1412 0.930 . S
C1398 H1386 0.930 . S
C1398 C1399 1.399 . S
C1398 C1403 1.399 . S
C1399 C1398 1.399 . S
C1399 C1400 1.376 . S
C1400 H1387 0.930 . S
C1400 C1399 1.376 . S
C1400 C1401 1.388 . S
C1401 H1388 0.930 . S
C1401 C1400 1.388 . S
C1401 C1402 1.390 . S
C1402 C1401 1.390 . S
C1402 C1403 1.394 . S
C1402 C1408 1.465 . S
C1403 C1398 1.399 . S
C1403 C1402 1.394 . S
C1403 C1404 1.516 . S
C1404 C1403 1.516 . S
C1404 C1405 1.502 . S
C1404 C1406 1.561 . S
C1404 C1407 1.526 . S
C1405 H1389 0.959 . S
C1405 H1390 0.959 . S
C1405 H1391 0.961 . S
C1405 C1404 1.502 . S
C1406 H1392 0.960 . S
C1406 H1393 0.961 . S
C1406 H1394 0.959 . S
C1406 C1404 1.561 . S
C1407 C1404 1.526 . S
C1407 C1408 1.396 . S
C1407 C1412 1.390 . S
C1408 C1402 1.465 . S
C1408 C1407 1.396 . S
C1408 C1409 1.399 . S
C1409 H1395 0.929 . S
C1409 C1408 1.399 . S
C1409 C1410 1.385 . S
C1410 H1396 0.931 . S
C1410 C1409 1.385 . S
C1410 C1411 1.389 . S
C1411 C1410 1.389 . S
C1411 C1412 1.387 . S
C1412 H1397 0.930 . S
C1412 C1407 1.390 . S
C1412 C1411 1.387 . S
H1413 C1425 0.930 . S
H1414 C1427 0.930 . S
H1415 C1428 0.930 . S
H1416 C1432 0.959 . S
H1417 C1432 0.959 . S
H1418 C1432 0.961 . S
H1419 C1433 0.960 . S
H1420 C1433 0.961 . S
H1421 C1433 0.959 . S
H1422 C1436 0.929 . S
H1423 C1437 0.931 . S
H1424 C1439 0.930 . S
C1425 H1413 0.930 . S
C1425 C1426 1.399 . S
C1425 C1430 1.399 . S
C1426 C1425 1.399 . S
C1426 C1427 1.376 . S
C1427 H1414 0.930 . S
C1427 C1426 1.376 . S
C1427 C1428 1.388 . S
C1428 H1415 0.930 . S
C1428 C1427 1.388 . S
C1428 C1429 1.390 . S
C1429 C1428 1.390 . S
C1429 C1430 1.394 . S
C1429 C1435 1.465 . S
C1430 C1425 1.399 . S
C1430 C1429 1.394 . S
C1430 C1431 1.516 . S
C1431 C1430 1.516 . S
C1431 C1432 1.502 . S
C1431 C1433 1.561 . S
C1431 C1434 1.526 . S
C1432 H1416 0.959 . S
C1432 H1417 0.959 . S
C1432 H1418 0.961 . S
C1432 C1431 1.502 . S
C1433 H1419 0.960 . S
C1433 H1420 0.961 . S
C1433 H1421 0.959 . S
C1433 C1431 1.561 . S
C1434 C1431 1.526 . S
C1434 C1435 1.396 . S
C1434 C1439 1.390 . S
C1435 C1429 1.465 . S
C1435 C1434 1.396 . S
C1435 C1436 1.399 . S
C1436 H1422 0.929 . S
C1436 C1435 1.399 . S
C1436 C1437 1.385 . S
C1437 H1423 0.931 . S
C1437 C1436 1.385 . S
C1437 C1438 1.389 . S
C1438 C1437 1.389 . S
C1438 C1439 1.387 . S
C1439 H1424 0.930 . S
C1439 C1434 1.390 . S
C1439 C1438 1.387 . S
H1440 C1452 0.930 . S
H1441 C1454 0.930 . S
H1442 C1455 0.930 . S
H1443 C1459 0.959 . S
H1444 C1459 0.959 . S
H1445 C1459 0.961 . S
H1446 C1460 0.960 . S
H1447 C1460 0.961 . S
H1448 C1460 0.959 . S
H1449 C1463 0.929 . S
H1450 C1464 0.931 . S
H1451 C1466 0.930 . S
C1452 H1440 0.930 . S
C1452 C1453 1.399 . S
C1452 C1457 1.399 . S
C1453 C1452 1.399 . S
C1453 C1454 1.376 . S
C1454 H1441 0.930 . S
C1454 C1453 1.376 . S
C1454 C1455 1.388 . S
C1455 H1442 0.930 . S
C1455 C1454 1.388 . S
C1455 C1456 1.390 . S
C1456 C1455 1.390 . S
C1456 C1457 1.394 . S
C1456 C1462 1.465 . S
C1457 C1452 1.399 . S
C1457 C1456 1.394 . S
C1457 C1458 1.516 . S
C1458 C1457 1.516 . S
C1458 C1459 1.502 . S
C1458 C1460 1.561 . S
C1458 C1461 1.526 . S
C1459 H1443 0.959 . S
C1459 H1444 0.959 . S
C1459 H1445 0.961 . S
C1459 C1458 1.502 . S
C1460 H1446 0.960 . S
C1460 H1447 0.961 . S
C1460 H1448 0.959 . S
C1460 C1458 1.561 . S
C1461 C1458 1.526 . S
C1461 C1462 1.396 . S
C1461 C1466 1.390 . S
C1462 C1456 1.465 . S
C1462 C1461 1.396 . S
C1462 C1463 1.399 . S
C1463 H1449 0.929 . S
C1463 C1462 1.399 . S
C1463 C1464 1.385 . S
C1464 H1450 0.931 . S
C1464 C1463 1.385 . S
C1464 C1465 1.389 . S
C1465 C1464 1.389 . S
C1465 C1466 1.387 . S
C1466 H1451 0.930 . S
C1466 C1461 1.390 . S
C1466 C1465 1.387 . S
H1467 C1479 0.930 . S
H1468 C1481 0.930 . S
H1469 C1482 0.930 . S
H1470 C1486 0.959 . S
H1471 C1486 0.959 . S
H1472 C1486 0.961 . S
H1473 C1487 0.960 . S
H1474 C1487 0.961 . S
H1475 C1487 0.959 . S
H1476 C1490 0.929 . S
H1477 C1491 0.931 . S
H1478 C1493 0.930 . S
C1479 H1467 0.930 . S
C1479 C1480 1.399 . S
C1479 C1484 1.399 . S
C1480 C1479 1.399 . S
C1480 C1481 1.376 . S
C1481 H1468 0.930 . S
C1481 C1480 1.376 . S
C1481 C1482 1.388 . S
C1482 H1469 0.930 . S
C1482 C1481 1.388 . S
C1482 C1483 1.390 . S
C1483 C1482 1.390 . S
C1483 C1484 1.394 . S
C1483 C1489 1.465 . S
C1484 C1479 1.399 . S
C1484 C1483 1.394 . S
C1484 C1485 1.516 . S
C1485 C1484 1.516 . S
C1485 C1486 1.502 . S
C1485 C1487 1.561 . S
C1485 C1488 1.526 . S
C1486 H1470 0.959 . S
C1486 H1471 0.959 . S
C1486 H1472 0.961 . S
C1486 C1485 1.502 . S
C1487 H1473 0.960 . S
C1487 H1474 0.961 . S
C1487 H1475 0.959 . S
C1487 C1485 1.561 . S
C1488 C1485 1.526 . S
C1488 C1489 1.396 . S
C1488 C1493 1.390 . S
C1489 C1483 1.465 . S
C1489 C1488 1.396 . S
C1489 C1490 1.399 . S
C1490 H1476 0.929 . S
C1490 C1489 1.399 . S
C1490 C1491 1.385 . S
C1491 H1477 0.931 . S
C1491 C1490 1.385 . S
C1491 C1492 1.389 . S
C1492 C1491 1.389 . S
C1492 C1493 1.387 . S
C1493 H1478 0.930 . S
C1493 C1488 1.390 . S
C1493 C1492 1.387 . S
H1494 C1506 0.930 . S
H1495 C1508 0.930 . S
H1496 C1509 0.930 . S
H1497 C1513 0.959 . S
H1498 C1513 0.959 . S
H1499 C1513 0.961 . S
H1500 C1514 0.960 . S
H1501 C1514 0.961 . S
H1502 C1514 0.959 . S
H1503 C1517 0.929 . S
H1504 C1518 0.931 . S
H1505 C1520 0.930 . S
C1506 H1494 0.930 . S
C1506 C1507 1.399 . S
C1506 C1511 1.399 . S
C1507 C1506 1.399 . S
C1507 C1508 1.376 . S
C1508 H1495 0.930 . S
C1508 C1507 1.376 . S
C1508 C1509 1.388 . S
C1509 H1496 0.930 . S
C1509 C1508 1.388 . S
C1509 C1510 1.390 . S
C1510 C1509 1.390 . S
C1510 C1511 1.394 . S
C1510 C1516 1.465 . S
C1511 C1506 1.399 . S
C1511 C1510 1.394 . S
C1511 C1512 1.516 . S
C1512 C1511 1.516 . S
C1512 C1513 1.502 . S
C1512 C1514 1.561 . S
C1512 C1515 1.526 . S
C1513 H1497 0.959 . S
C1513 H1498 0.959 . S
C1513 H1499 0.961 . S
C1513 C1512 1.502 . S
C1514 H1500 0.960 . S
C1514 H1501 0.961 . S
C1514 H1502 0.959 . S
C1514 C1512 1.561 . S
C1515 C1512 1.526 . S
C1515 C1516 1.396 . S
C1515 C1520 1.390 . S
C1516 C1510 1.465 . S
C1516 C1515 1.396 . S
C1516 C1517 1.399 . S
C1517 H1503 0.929 . S
C1517 C1516 1.399 . S
C1517 C1518 1.385 . S
C1518 H1504 0.931 . S
C1518 C1517 1.385 . S
C1518 C1519 1.389 . S
C1519 C1518 1.389 . S
C1519 C1520 1.387 . S
C1520 H1505 0.930 . S
C1520 C1515 1.390 . S
C1520 C1519 1.387 . S
H1521 C1533 0.930 . S
H1522 C1535 0.930 . S
H1523 C1536 0.930 . S
H1524 C1540 0.959 . S
H1525 C1540 0.959 . S
H1526 C1540 0.961 . S
H1527 C1541 0.960 . S
H1528 C1541 0.961 . S
H1529 C1541 0.959 . S
H1530 C1544 0.929 . S
H1531 C1545 0.931 . S
H1532 C1547 0.930 . S
C1533 H1521 0.930 . S
C1533 C1534 1.399 . S
C1533 C1538 1.399 . S
C1534 C1533 1.399 . S
C1534 C1535 1.376 . S
C1535 H1522 0.930 . S
C1535 C1534 1.376 . S
C1535 C1536 1.388 . S
C1536 H1523 0.930 . S
C1536 C1535 1.388 . S
C1536 C1537 1.390 . S
C1537 C1536 1.390 . S
C1537 C1538 1.394 . S
C1537 C1543 1.465 . S
C1538 C1533 1.399 . S
C1538 C1537 1.394 . S
C1538 C1539 1.516 . S
C1539 C1538 1.516 . S
C1539 C1540 1.502 . S
C1539 C1541 1.561 . S
C1539 C1542 1.526 . S
C1540 H1524 0.959 . S
C1540 H1525 0.959 . S
C1540 H1526 0.961 . S
C1540 C1539 1.502 . S
C1541 H1527 0.960 . S
C1541 H1528 0.961 . S
C1541 H1529 0.959 . S
C1541 C1539 1.561 . S
C1542 C1539 1.526 . S
C1542 C1543 1.396 . S
C1542 C1547 1.390 . S
C1543 C1537 1.465 . S
C1543 C1542 1.396 . S
C1543 C1544 1.399 . S
C1544 H1530 0.929 . S
C1544 C1543 1.399 . S
C1544 C1545 1.385 . S
C1545 H1531 0.931 . S
C1545 C1544 1.385 . S
C1545 C1546 1.389 . S
C1546 C1545 1.389 . S
C1546 C1547 1.387 . S
C1547 H1532 0.930 . S
C1547 C1542 1.390 . S
C1547 C1546 1.387 . S
H1548 C1560 0.930 . S
H1549 C1562 0.930 . S
H1550 C1563 0.930 . S
H1551 C1567 0.959 . S
H1552 C1567 0.959 . S
H1553 C1567 0.961 . S
H1554 C1568 0.960 . S
H1555 C1568 0.961 . S
H1556 C1568 0.959 . S
H1557 C1571 0.929 . S
H1558 C1572 0.931 . S
H1559 C1574 0.930 . S
C1560 H1548 0.930 . S
C1560 C1561 1.399 . S
C1560 C1565 1.399 . S
C1561 C1560 1.399 . S
C1561 C1562 1.376 . S
C1562 H1549 0.930 . S
C1562 C1561 1.376 . S
C1562 C1563 1.388 . S
C1563 H1550 0.930 . S
C1563 C1562 1.388 . S
C1563 C1564 1.390 . S
C1564 C1563 1.390 . S
C1564 C1565 1.394 . S
C1564 C1570 1.465 . S
C1565 C1560 1.399 . S
C1565 C1564 1.394 . S
C1565 C1566 1.516 . S
C1566 C1565 1.516 . S
C1566 C1567 1.502 . S
C1566 C1568 1.561 . S
C1566 C1569 1.526 . S
C1567 H1551 0.959 . S
C1567 H1552 0.959 . S
C1567 H1553 0.961 . S
C1567 C1566 1.502 . S
C1568 H1554 0.960 . S
C1568 H1555 0.961 . S
C1568 H1556 0.959 . S
C1568 C1566 1.561 . S
C1569 C1566 1.526 . S
C1569 C1570 1.396 . S
C1569 C1574 1.390 . S
C1570 C1564 1.465 . S
C1570 C1569 1.396 . S
C1570 C1571 1.399 . S
C1571 H1557 0.929 . S
C1571 C1570 1.399 . S
C1571 C1572 1.385 . S
C1572 H1558 0.931 . S
C1572 C1571 1.385 . S
C1572 C1573 1.389 . S
C1573 C1572 1.389 . S
C1573 C1574 1.387 . S
C1574 H1559 0.930 . S
C1574 C1569 1.390 . S
C1574 C1573 1.387 . S
H1575 C1587 0.930 . S
H1576 C1589 0.930 . S
H1577 C1590 0.930 . S
H1578 C1594 0.959 . S
H1579 C1594 0.959 . S
H1580 C1594 0.961 . S
H1581 C1595 0.960 . S
H1582 C1595 0.961 . S
H1583 C1595 0.959 . S
H1584 C1598 0.929 . S
H1585 C1599 0.931 . S
H1586 C1601 0.930 . S
C1587 H1575 0.930 . S
C1587 C1588 1.399 . S
C1587 C1592 1.399 . S
C1588 C1587 1.399 . S
C1588 C1589 1.376 . S
C1589 H1576 0.930 . S
C1589 C1588 1.376 . S
C1589 C1590 1.388 . S
C1590 H1577 0.930 . S
C1590 C1589 1.388 . S
C1590 C1591 1.390 . S
C1591 C1590 1.390 . S
C1591 C1592 1.394 . S
C1591 C1597 1.465 . S
C1592 C1587 1.399 . S
C1592 C1591 1.394 . S
C1592 C1593 1.516 . S
C1593 C1592 1.516 . S
C1593 C1594 1.502 . S
C1593 C1595 1.561 . S
C1593 C1596 1.526 . S
C1594 H1578 0.959 . S
C1594 H1579 0.959 . S
C1594 H1580 0.961 . S
C1594 C1593 1.502 . S
C1595 H1581 0.960 . S
C1595 H1582 0.961 . S
C1595 H1583 0.959 . S
C1595 C1593 1.561 . S
C1596 C1593 1.526 . S
C1596 C1597 1.396 . S
C1596 C1601 1.390 . S
C1597 C1591 1.465 . S
C1597 C1596 1.396 . S
C1597 C1598 1.399 . S
C1598 H1584 0.929 . S
C1598 C1597 1.399 . S
C1598 C1599 1.385 . S
C1599 H1585 0.931 . S
C1599 C1598 1.385 . S
C1599 C1600 1.389 . S
C1600 C1599 1.389 . S
C1600 C1601 1.387 . S
C1601 H1586 0.930 . S
C1601 C1596 1.390 . S
C1601 C1600 1.387 . S
H1602 C1614 0.930 . S
H1603 C1616 0.930 . S
H1604 C1617 0.930 . S
H1605 C1621 0.959 . S
H1606 C1621 0.959 . S
H1607 C1621 0.961 . S
H1608 C1622 0.960 . S
H1609 C1622 0.961 . S
H1610 C1622 0.959 . S
H1611 C1625 0.929 . S
H1612 C1626 0.931 . S
H1613 C1628 0.930 . S
C1614 H1602 0.930 . S
C1614 C1615 1.399 . S
C1614 C1619 1.399 . S
C1615 C1614 1.399 . S
C1615 C1616 1.376 . S
C1616 H1603 0.930 . S
C1616 C1615 1.376 . S
C1616 C1617 1.388 . S
C1617 H1604 0.930 . S
C1617 C1616 1.388 . S
C1617 C1618 1.390 . S
C1618 C1617 1.390 . S
C1618 C1619 1.394 . S
C1618 C1624 1.465 . S
C1619 C1614 1.399 . S
C1619 C1618 1.394 . S
C1619 C1620 1.516 . S
C1620 C1619 1.516 . S
C1620 C1621 1.502 . S
C1620 C1622 1.561 . S
C1620 C1623 1.526 . S
C1621 H1605 0.959 . S
C1621 H1606 0.959 . S
C1621 H1607 0.961 . S
C1621 C1620 1.502 . S
C1622 H1608 0.960 . S
C1622 H1609 0.961 . S
C1622 H1610 0.959 . S
C1622 C1620 1.561 . S
C1623 C1620 1.526 . S
C1623 C1624 1.396 . S
C1623 C1628 1.390 . S
C1624 C1618 1.465 . S
C1624 C1623 1.396 . S
C1624 C1625 1.399 . S
C1625 H1611 0.929 . S
C1625 C1624 1.399 . S
C1625 C1626 1.385 . S
C1626 H1612 0.931 . S
C1626 C1625 1.385 . S
C1626 C1627 1.389 . S
C1627 C1626 1.389 . S
C1627 C1628 1.387 . S
C1628 H1613 0.930 . S
C1628 C1623 1.390 . S
C1628 C1627 1.387 . S
H1629 C1641 0.930 . S
H1630 C1643 0.930 . S
H1631 C1644 0.930 1_554 S
H1632 C1648 0.959 . S
H1633 C1648 0.959 . S
H1634 C1648 0.961 . S
H1635 C1649 0.960 . S
H1636 C1649 0.961 . S
H1637 C1649 0.959 . S
H1638 C1652 0.929 . S
H1639 C1653 0.931 . S
H1640 C1655 0.930 . S
C1641 H1629 0.930 . S
C1641 C1642 1.399 . S
C1641 C1646 1.399 . S
C1642 C1641 1.399 . S
C1642 C1643 1.376 1_556 S
C1643 H1630 0.930 . S
C1643 C1642 1.376 1_554 S
C1643 C1644 1.388 1_554 S
C1644 H1631 0.930 1_556 S
C1644 C1643 1.388 1_556 S
C1644 C1645 1.390 . S
C1645 C1644 1.390 . S
C1645 C1646 1.394 . S
C1645 C1651 1.465 . S
C1646 C1641 1.399 . S
C1646 C1645 1.394 . S
C1646 C1647 1.516 . S
C1647 C1646 1.516 . S
C1647 C1648 1.502 . S
C1647 C1649 1.561 . S
C1647 C1650 1.526 . S
C1648 H1632 0.959 . S
C1648 H1633 0.959 . S
C1648 H1634 0.961 . S
C1648 C1647 1.502 . S
C1649 H1635 0.960 . S
C1649 H1636 0.961 . S
C1649 H1637 0.959 . S
C1649 C1647 1.561 . S
C1650 C1647 1.526 . S
C1650 C1651 1.396 . S
C1650 C1655 1.390 . S
C1651 C1645 1.465 . S
C1651 C1650 1.396 . S
C1651 C1652 1.399 . S
C1652 H1638 0.929 . S
C1652 C1651 1.399 . S
C1652 C1653 1.385 . S
C1653 H1639 0.931 . S
C1653 C1652 1.385 . S
C1653 C1654 1.389 . S
C1654 C1653 1.389 . S
C1654 C1655 1.387 . S
C1655 H1640 0.930 . S
C1655 C1650 1.390 . S
C1655 C1654 1.387 . S
H1656 C1668 0.930 1_554 S
H1657 C1670 0.930 . S
H1658 C1671 0.930 . S
H1659 C1675 0.959 . S
H1660 C1675 0.959 . S
H1661 C1675 0.961 . S
H1662 C1676 0.960 . S
H1663 C1676 0.961 . S
H1664 C1676 0.959 . S
H1665 C1679 0.929 . S
H1666 C1680 0.931 . S
H1667 C1682 0.930 . S
C1668 H1656 0.930 1_556 S
C1668 C1669 1.399 . S
C1668 C1673 1.399 . S
C1669 C1668 1.399 . S
C1669 C1670 1.376 . S
C1670 H1657 0.930 . S
C1670 C1669 1.376 . S
C1670 C1671 1.388 . S
C1671 H1658 0.930 . S
C1671 C1670 1.388 . S
C1671 C1672 1.390 . S
C1672 C1671 1.390 . S
C1672 C1673 1.394 . S
C1672 C1678 1.465 . S
C1673 C1668 1.399 . S
C1673 C1672 1.394 . S
C1673 C1674 1.516 . S
C1674 C1673 1.516 . S
C1674 C1675 1.502 . S
C1674 C1676 1.561 1_556 S
C1674 C1677 1.526 . S
C1675 H1659 0.959 . S
C1675 H1660 0.959 . S
C1675 H1661 0.961 . S
C1675 C1674 1.502 . S
C1676 H1662 0.960 . S
C1676 H1663 0.961 . S
C1676 H1664 0.959 . S
C1676 C1674 1.561 1_554 S
C1677 C1674 1.526 . S
C1677 C1678 1.396 . S
C1677 C1682 1.390 . S
C1678 C1672 1.465 . S
C1678 C1677 1.396 . S
C1678 C1679 1.399 . S
C1679 H1665 0.929 . S
C1679 C1678 1.399 . S
C1679 C1680 1.385 . S
C1680 H1666 0.931 . S
C1680 C1679 1.385 . S
C1680 C1681 1.389 . S
C1681 C1680 1.389 . S
C1681 C1682 1.387 . S
C1682 H1667 0.930 . S
C1682 C1677 1.390 . S
C1682 C1681 1.387 . S
H1683 C1695 0.930 . S
H1684 C1697 0.930 . S
H1685 C1698 0.930 . S
H1686 C1702 0.956 1_554 S
H1687 C1702 0.959 . S
H1688 C1702 0.961 1_554 S
H1689 C1703 0.960 . S
H1690 C1703 0.961 . S
H1691 C1703 0.959 . S
H1692 C1706 0.929 . S
H1693 C1707 0.931 . S
H1694 C1709 0.930 . S
C1695 H1683 0.930 . S
C1695 C1696 1.399 . S
C1695 C1700 1.399 . S
C1696 C1695 1.399 . S
C1696 C1697 1.376 . S
C1697 H1684 0.930 . S
C1697 C1696 1.376 . S
C1697 C1698 1.388 . S
C1698 H1685 0.930 . S
C1698 C1697 1.388 . S
C1698 C1699 1.390 . S
C1699 C1698 1.390 . S
C1699 C1700 1.394 . S
C1699 C1705 1.465 . S
C1700 C1695 1.399 . S
C1700 C1699 1.394 . S
C1700 C1701 1.516 . S
C1701 C1700 1.516 . S
C1701 C1702 1.502 . S
C1701 C1703 1.561 . S
C1701 C1704 1.526 . S
C1702 H1686 0.956 1_556 S
C1702 H1687 0.959 . S
C1702 H1688 0.961 1_556 S
C1702 C1701 1.502 . S
C1703 H1689 0.960 . S
C1703 H1690 0.961 . S
C1703 H1691 0.959 . S
C1703 C1701 1.561 . S
C1704 C1701 1.526 . S
C1704 C1705 1.396 . S
C1704 C1709 1.390 . S
C1705 C1699 1.465 . S
C1705 C1704 1.396 . S
C1705 C1706 1.399 . S
C1706 H1692 0.929 . S
C1706 C1705 1.399 . S
C1706 C1707 1.385 . S
C1707 H1693 0.931 . S
C1707 C1706 1.385 . S
C1707 C1708 1.389 . S
C1708 C1707 1.389 . S
C1708 C1709 1.387 . S
C1709 H1694 0.930 . S
C1709 C1704 1.390 . S
C1709 C1708 1.387 . S
H1710 C1722 0.902 1_554 S
H1711 C1724 0.930 . S
H1712 C1725 0.930 . S
H1713 C1729 0.959 1_554 S
H1714 C1729 0.959 1_554 S
H1715 C1729 0.961 1_554 S
H1716 C1730 0.960 . S
H1717 C1730 0.961 . S
H1718 C1730 0.959 . S
H1719 C1733 0.929 . S
H1720 C1734 0.931 . S
H1721 C1736 0.930 . S
C1722 H1710 0.902 1_556 S
C1722 C1723 1.399 . S
C1722 C1727 1.399 . S
C1723 C1722 1.399 . S
C1723 C1724 1.376 . S
C1724 H1711 0.930 . S
C1724 C1723 1.376 . S
C1724 C1725 1.388 . S
C1725 H1712 0.930 . S
C1725 C1724 1.388 . S
C1725 C1726 1.390 . S
C1726 C1725 1.390 . S
C1726 C1727 1.394 . S
C1726 C1732 1.465 . S
C1727 C1722 1.399 . S
C1727 C1726 1.394 . S
C1727 C1728 1.516 . S
C1728 C1727 1.516 . S
C1728 C1729 1.502 . S
C1728 C1730 1.561 . S
C1728 C1731 1.526 . S
C1729 H1713 0.959 1_556 S
C1729 H1714 0.959 1_556 S
C1729 H1715 0.961 1_556 S
C1729 C1728 1.502 . S
C1730 H1716 0.960 . S
C1730 H1717 0.961 . S
C1730 H1718 0.959 . S
C1730 C1728 1.561 . S
C1731 C1728 1.526 . S
C1731 C1732 1.396 . S
C1731 C1736 1.390 . S
C1732 C1726 1.465 . S
C1732 C1731 1.396 . S
C1732 C1733 1.399 . S
C1733 H1719 0.929 . S
C1733 C1732 1.399 . S
C1733 C1734 1.385 . S
C1734 H1720 0.931 . S
C1734 C1733 1.385 . S
C1734 C1735 1.389 . S
C1735 C1734 1.389 . S
C1735 C1736 1.387 . S
C1736 H1721 0.930 . S
C1736 C1731 1.390 . S
C1736 C1735 1.387 . S
H1737 C1749 0.930 1_554 S
H1738 C1751 0.930 . S
H1739 C1752 0.930 . S
H1740 C1756 0.969 . S
H1741 C1756 0.953 1_554 S
H1742 C1756 0.944 1_554 S
H1743 C1757 0.960 1_554 S
H1744 C1757 0.961 . S
H1745 C1757 0.959 . S
H1746 C1760 0.929 . S
H1747 C1761 0.931 . S
H1748 C1763 0.930 . S
C1749 H1737 0.930 1_556 S
C1749 C1750 1.399 . S
C1749 C1754 1.399 . S
C1750 C1749 1.399 . S
C1750 C1751 1.376 . S
C1751 H1738 0.930 . S
C1751 C1750 1.376 . S
C1751 C1752 1.388 . S
C1752 H1739 0.930 . S
C1752 C1751 1.388 . S
C1752 C1753 1.390 . S
C1753 C1752 1.390 . S
C1753 C1754 1.394 . S
C1753 C1759 1.465 . S
C1754 C1749 1.399 . S
C1754 C1753 1.394 . S
C1754 C1755 1.516 . S
C1755 C1754 1.516 . S
C1755 C1756 1.516 . S
C1755 C1757 1.561 . S
C1755 C1758 1.526 . S
C1756 H1740 0.969 . S
C1756 H1741 0.953 1_556 S
C1756 H1742 0.944 1_556 S
C1756 C1755 1.516 . S
C1757 H1743 0.960 1_556 S
C1757 H1744 0.961 . S
C1757 H1745 0.959 . S
C1757 C1755 1.561 . S
C1758 C1755 1.526 . S
C1758 C1759 1.396 . S
C1758 C1763 1.390 . S
C1759 C1753 1.465 . S
C1759 C1758 1.396 . S
C1759 C1760 1.399 . S
C1760 H1746 0.929 . S
C1760 C1759 1.399 . S
C1760 C1761 1.385 . S
C1761 H1747 0.931 . S
C1761 C1760 1.385 . S
C1761 C1762 1.389 . S
C1762 C1761 1.389 . S
C1762 C1763 1.387 . S
C1763 H1748 0.930 . S
C1763 C1758 1.390 . S
C1763 C1762 1.387 . S
H1764 C1776 0.930 1_554 S
H1765 C1778 0.930 . S
H1766 C1779 0.930 . S
H1767 C1783 0.959 . S
H1768 C1783 0.959 . S
H1769 C1783 0.961 1_554 S
H1770 C1784 0.960 . S
H1771 C1784 0.961 . S
H1772 C1784 0.959 1_556 S
H1773 C1787 0.929 . S
H1774 C1788 0.931 . S
H1775 C1790 0.930 . S
C1776 H1764 0.930 1_556 S
C1776 C1777 1.399 . S
C1776 C1781 1.399 . S
C1777 C1776 1.399 . S
C1777 C1778 1.376 . S
C1778 H1765 0.930 . S
C1778 C1777 1.376 . S
C1778 C1779 1.388 . S
C1779 H1766 0.930 . S
C1779 C1778 1.388 . S
C1779 C1780 1.390 . S
C1780 C1779 1.390 . S
C1780 C1781 1.394 . S
C1780 C1786 1.465 . S
C1781 C1776 1.399 . S
C1781 C1780 1.394 . S
C1781 C1782 1.516 . S
C1782 C1781 1.516 . S
C1782 C1783 1.502 . S
C1782 C1784 1.561 1_556 S
C1782 C1785 1.526 . S
C1783 H1767 0.959 . S
C1783 H1768 0.959 . S
C1783 H1769 0.961 1_556 S
C1783 C1782 1.502 . S
C1784 H1770 0.960 . S
C1784 H1771 0.961 . S
C1784 H1772 0.959 1_554 S
C1784 C1782 1.561 1_554 S
C1785 C1782 1.526 . S
C1785 C1786 1.396 . S
C1785 C1790 1.390 . S
C1786 C1780 1.465 . S
C1786 C1785 1.396 . S
C1786 C1787 1.399 . S
C1787 H1773 0.929 . S
C1787 C1786 1.399 . S
C1787 C1788 1.385 . S
C1788 H1774 0.931 . S
C1788 C1787 1.385 . S
C1788 C1789 1.389 . S
C1789 C1788 1.389 . S
C1789 C1790 1.387 . S
C1790 H1775 0.930 . S
C1790 C1785 1.390 . S
C1790 C1789 1.387 . S
H1791 C1803 0.930 . S
H1792 C1805 0.930 . S
H1793 C1806 0.930 . S
H1794 C1810 0.959 . S
H1795 C1810 0.959 . S
H1796 C1810 0.961 . S
H1797 C1811 0.960 . S
H1798 C1811 0.961 . S
H1799 C1811 0.959 . S
H1800 C1814 0.929 . S
H1801 C1815 0.931 . S
H1802 C1817 0.930 . S
C1803 H1791 0.930 . S
C1803 C1804 1.399 . S
C1803 C1808 1.399 . S
C1804 C1803 1.399 . S
C1804 C1805 1.376 . S
C1805 H1792 0.930 . S
C1805 C1804 1.376 . S
C1805 C1806 1.388 . S
C1806 H1793 0.930 . S
C1806 C1805 1.388 . S
C1806 C1807 1.390 . S
C1807 C1806 1.390 . S
C1807 C1808 1.394 . S
C1807 C1813 1.465 . S
C1808 C1803 1.399 . S
C1808 C1807 1.394 . S
C1808 C1809 1.516 . S
C1809 C1808 1.516 . S
C1809 C1810 1.502 . S
C1809 C1811 1.561 . S
C1809 C1812 1.526 . S
C1810 H1794 0.959 . S
C1810 H1795 0.959 . S
C1810 H1796 0.961 . S
C1810 C1809 1.502 . S
C1811 H1797 0.960 . S
C1811 H1798 0.961 . S
C1811 H1799 0.959 . S
C1811 C1809 1.561 . S
C1812 C1809 1.526 . S
C1812 C1813 1.396 . S
C1812 C1817 1.390 . S
C1813 C1807 1.465 . S
C1813 C1812 1.396 . S
C1813 C1814 1.399 . S
C1814 H1800 0.929 . S
C1814 C1813 1.399 . S
C1814 C1815 1.385 . S
C1815 H1801 0.931 . S
C1815 C1814 1.385 . S
C1815 C1816 1.389 . S
C1816 C1815 1.389 . S
C1816 C1817 1.387 . S
C1817 H1802 0.930 . S
C1817 C1812 1.390 . S
C1817 C1816 1.387 . S
H1818 C1830 0.930 . S
H1819 C1832 0.930 . S
H1820 C1833 0.930 . S
H1821 C1837 0.959 . S
H1822 C1837 0.959 . S
H1823 C1837 0.961 . S
H1824 C1838 0.960 . S
H1825 C1838 0.961 . S
H1826 C1838 0.959 . S
H1827 C1841 0.929 . S
H1828 C1842 0.931 . S
H1829 C1844 0.930 . S
C1830 H1818 0.930 . S
C1830 C1831 1.399 . S
C1830 C1835 1.399 . S
C1831 C1830 1.399 . S
C1831 C1832 1.376 . S
C1832 H1819 0.930 . S
C1832 C1831 1.376 . S
C1832 C1833 1.388 . S
C1833 H1820 0.930 . S
C1833 C1832 1.388 . S
C1833 C1834 1.390 . S
C1834 C1833 1.390 . S
C1834 C1835 1.394 . S
C1834 C1840 1.465 . S
C1835 C1830 1.399 . S
C1835 C1834 1.394 . S
C1835 C1836 1.516 . S
C1836 C1835 1.516 . S
C1836 C1837 1.502 . S
C1836 C1838 1.561 . S
C1836 C1839 1.526 . S
C1837 H1821 0.959 . S
C1837 H1822 0.959 . S
C1837 H1823 0.961 . S
C1837 C1836 1.502 . S
C1838 H1824 0.960 . S
C1838 H1825 0.961 . S
C1838 H1826 0.959 . S
C1838 C1836 1.561 . S
C1839 C1836 1.526 . S
C1839 C1840 1.396 . S
C1839 C1844 1.390 . S
C1840 C1834 1.465 . S
C1840 C1839 1.396 . S
C1840 C1841 1.399 . S
C1841 H1827 0.929 . S
C1841 C1840 1.399 . S
C1841 C1842 1.385 . S
C1842 H1828 0.931 . S
C1842 C1841 1.385 . S
C1842 C1843 1.389 . S
C1843 C1842 1.389 . S
C1843 C1844 1.387 . S
C1844 H1829 0.930 . S
C1844 C1839 1.390 . S
C1844 C1843 1.387 . S
H1845 C1857 0.930 . S
H1846 C1859 0.930 . S
H1847 C1860 0.930 . S
H1848 C1864 0.959 . S
H1849 C1864 0.959 . S
H1850 C1864 0.961 . S
H1851 C1865 0.960 . S
H1852 C1865 0.961 . S
H1853 C1865 0.959 . S
H1854 C1868 0.929 . S
H1855 C1869 0.931 . S
H1856 C1871 0.930 . S
C1857 H1845 0.930 . S
C1857 C1858 1.399 . S
C1857 C1862 1.399 . S
C1858 C1857 1.399 . S
C1858 C1859 1.376 . S
C1859 H1846 0.930 . S
C1859 C1858 1.376 . S
C1859 C1860 1.388 . S
C1860 H1847 0.930 . S
C1860 C1859 1.388 . S
C1860 C1861 1.390 . S
C1861 C1860 1.390 . S
C1861 C1862 1.394 . S
C1861 C1867 1.465 . S
C1862 C1857 1.399 . S
C1862 C1861 1.394 . S
C1862 C1863 1.516 . S
C1863 C1862 1.516 . S
C1863 C1864 1.502 . S
C1863 C1865 1.561 . S
C1863 C1866 1.526 . S
C1864 H1848 0.959 . S
C1864 H1849 0.959 . S
C1864 H1850 0.961 . S
C1864 C1863 1.502 . S
C1865 H1851 0.960 . S
C1865 H1852 0.961 . S
C1865 H1853 0.959 . S
C1865 C1863 1.561 . S
C1866 C1863 1.526 . S
C1866 C1867 1.396 . S
C1866 C1871 1.390 . S
C1867 C1861 1.465 . S
C1867 C1866 1.396 . S
C1867 C1868 1.399 . S
C1868 H1854 0.929 . S
C1868 C1867 1.399 . S
C1868 C1869 1.385 . S
C1869 H1855 0.931 . S
C1869 C1868 1.385 . S
C1869 C1870 1.389 . S
C1870 C1869 1.389 . S
C1870 C1871 1.387 . S
C1871 H1856 0.930 . S
C1871 C1866 1.390 . S
C1871 C1870 1.387 . S
H1872 C1884 0.930 . S
H1873 C1886 0.930 . S
H1874 C1887 0.930 . S
H1875 C1891 0.959 . S
H1876 C1891 0.959 . S
H1877 C1891 0.961 . S
H1878 C1892 0.960 . S
H1879 C1892 0.961 . S
H1880 C1892 0.959 . S
H1881 C1895 0.929 . S
H1882 C1896 0.931 . S
H1883 C1898 0.930 . S
C1884 H1872 0.930 . S
C1884 C1885 1.399 . S
C1884 C1889 1.399 . S
C1885 C1884 1.399 . S
C1885 C1886 1.376 . S
C1886 H1873 0.930 . S
C1886 C1885 1.376 . S
C1886 C1887 1.388 . S
C1887 H1874 0.930 . S
C1887 C1886 1.388 . S
C1887 C1888 1.390 . S
C1888 C1887 1.390 . S
C1888 C1889 1.394 . S
C1888 C1894 1.465 . S
C1889 C1884 1.399 . S
C1889 C1888 1.394 . S
C1889 C1890 1.516 . S
C1890 C1889 1.516 . S
C1890 C1891 1.502 . S
C1890 C1892 1.561 . S
C1890 C1893 1.526 . S
C1891 H1875 0.959 . S
C1891 H1876 0.959 . S
C1891 H1877 0.961 . S
C1891 C1890 1.502 . S
C1892 H1878 0.960 . S
C1892 H1879 0.961 . S
C1892 H1880 0.959 . S
C1892 C1890 1.561 . S
C1893 C1890 1.526 . S
C1893 C1894 1.396 . S
C1893 C1898 1.390 . S
C1894 C1888 1.465 . S
C1894 C1893 1.396 . S
C1894 C1895 1.399 . S
C1895 H1881 0.929 . S
C1895 C1894 1.399 . S
C1895 C1896 1.385 . S
C1896 H1882 0.931 . S
C1896 C1895 1.385 . S
C1896 C1897 1.389 . S
C1897 C1896 1.389 . S
C1897 C1898 1.387 . S
C1898 H1883 0.930 . S
C1898 C1893 1.390 . S
C1898 C1897 1.387 . S
H1899 C1911 0.930 . S
H1900 C1913 0.930 . S
H1901 C1914 0.930 . S
H1902 C1918 0.959 . S
H1903 C1918 0.959 . S
H1904 C1918 0.961 . S
H1905 C1919 0.960 . S
H1906 C1919 0.961 . S
H1907 C1919 0.959 . S
H1908 C1922 0.929 . S
H1909 C1923 0.931 . S
H1910 C1925 0.930 . S
C1911 H1899 0.930 . S
C1911 C1912 1.399 . S
C1911 C1916 1.399 . S
C1912 C1911 1.399 . S
C1912 C1913 1.376 . S
C1913 H1900 0.930 . S
C1913 C1912 1.376 . S
C1913 C1914 1.388 . S
C1914 H1901 0.930 . S
C1914 C1913 1.388 . S
C1914 C1915 1.390 . S
C1915 C1914 1.390 . S
C1915 C1916 1.394 . S
C1915 C1921 1.465 . S
C1916 C1911 1.399 . S
C1916 C1915 1.394 . S
C1916 C1917 1.516 . S
C1917 C1916 1.516 . S
C1917 C1918 1.502 . S
C1917 C1919 1.561 . S
C1917 C1920 1.526 . S
C1918 H1902 0.959 . S
C1918 H1903 0.959 . S
C1918 H1904 0.961 . S
C1918 C1917 1.502 . S
C1919 H1905 0.960 . S
C1919 H1906 0.961 . S
C1919 H1907 0.959 . S
C1919 C1917 1.561 . S
C1920 C1917 1.526 . S
C1920 C1921 1.396 . S
C1920 C1925 1.390 . S
C1921 C1915 1.465 . S
C1921 C1920 1.396 . S
C1921 C1922 1.399 . S
C1922 H1908 0.929 . S
C1922 C1921 1.399 . S
C1922 C1923 1.385 . S
C1923 H1909 0.931 . S
C1923 C1922 1.385 . S
C1923 C1924 1.389 . S
C1924 C1923 1.389 . S
C1924 C1925 1.387 . S
C1925 H1910 0.930 . S
C1925 C1920 1.390 . S
C1925 C1924 1.387 . S
H1926 C1938 0.930 . S
H1927 C1940 0.930 . S
H1928 C1941 0.930 . S
H1929 C1945 0.959 . S
H1930 C1945 0.959 . S
H1931 C1945 0.961 . S
H1932 C1946 0.960 . S
H1933 C1946 0.961 . S
H1934 C1946 0.959 . S
H1935 C1949 0.929 . S
H1936 C1950 0.931 . S
H1937 C1952 0.930 . S
C1938 H1926 0.930 . S
C1938 C1939 1.399 . S
C1938 C1943 1.399 . S
C1939 C1938 1.399 . S
C1939 C1940 1.376 . S
C1940 H1927 0.930 . S
C1940 C1939 1.376 . S
C1940 C1941 1.388 . S
C1941 H1928 0.930 . S
C1941 C1940 1.388 . S
C1941 C1942 1.390 . S
C1942 C1941 1.390 . S
C1942 C1943 1.394 . S
C1942 C1948 1.465 . S
C1943 C1938 1.399 . S
C1943 C1942 1.394 . S
C1943 C1944 1.516 . S
C1944 C1943 1.516 . S
C1944 C1945 1.502 . S
C1944 C1946 1.561 . S
C1944 C1947 1.526 . S
C1945 H1929 0.959 . S
C1945 H1930 0.959 . S
C1945 H1931 0.961 . S
C1945 C1944 1.502 . S
C1946 H1932 0.960 . S
C1946 H1933 0.961 . S
C1946 H1934 0.959 . S
C1946 C1944 1.561 . S
C1947 C1944 1.526 . S
C1947 C1948 1.396 . S
C1947 C1952 1.390 . S
C1948 C1942 1.465 . S
C1948 C1947 1.396 . S
C1948 C1949 1.399 . S
C1949 H1935 0.929 . S
C1949 C1948 1.399 . S
C1949 C1950 1.385 . S
C1950 H1936 0.931 . S
C1950 C1949 1.385 . S
C1950 C1951 1.389 . S
C1951 C1950 1.389 . S
C1951 C1952 1.387 . S
C1952 H1937 0.930 . S
C1952 C1947 1.390 . S
C1952 C1951 1.387 . S
H1953 C1965 0.930 . S
H1954 C1967 0.930 . S
H1955 C1968 0.930 . S
H1956 C1972 0.959 . S
H1957 C1972 0.959 . S
H1958 C1972 0.961 . S
H1959 C1973 0.960 . S
H1960 C1973 0.961 . S
H1961 C1973 0.959 1_455 S
H1962 C1976 0.929 . S
H1963 C1977 0.931 . S
H1964 C1979 0.930 . S
C1965 H1953 0.930 . S
C1965 C1966 1.399 1_655 S
C1965 C1970 1.399 1_655 S
C1966 C1965 1.399 1_455 S
C1966 C1967 1.376 . S
C1967 H1954 0.930 . S
C1967 C1966 1.376 . S
C1967 C1968 1.388 . S
C1968 H1955 0.930 . S
C1968 C1967 1.388 . S
C1968 C1969 1.390 . S
C1969 C1968 1.390 . S
C1969 C1970 1.394 . S
C1969 C1975 1.465 . S
C1970 C1965 1.399 1_455 S
C1970 C1969 1.394 . S
C1970 C1971 1.516 1_455 S
C1971 C1970 1.516 1_655 S
C1971 C1972 1.502 . S
C1971 C1973 1.561 . S
C1971 C1974 1.525 . S
C1972 H1956 0.959 . S
C1972 H1957 0.959 . S
C1972 H1958 0.961 . S
C1972 C1971 1.502 . S
C1973 H1959 0.960 . S
C1973 H1960 0.961 . S
C1973 H1961 0.959 1_655 S
C1973 C1971 1.561 . S
C1974 C1971 1.525 . S
C1974 C1975 1.398 1_655 S
C1974 C1979 1.388 . S
C1975 C1969 1.465 . S
C1975 C1974 1.398 1_455 S
C1975 C1976 1.399 . S
C1976 H1962 0.929 . S
C1976 C1975 1.399 . S
C1976 C1977 1.385 . S
C1977 H1963 0.931 . S
C1977 C1976 1.385 . S
C1977 C1978 1.389 . S
C1978 C1977 1.389 . S
C1978 C1979 1.387 1_455 S
C1979 H1964 0.930 . S
C1979 C1974 1.388 . S
C1979 C1978 1.387 1_655 S
H1980 C1992 0.930 . S
H1981 C1994 0.930 . S
H1982 C1995 0.930 . S
H1983 C1999 0.959 . S
H1984 C1999 0.959 . S
H1985 C1999 0.961 . S
H1986 C2000 0.960 . S
H1987 C2000 0.961 . S
H1988 C2000 0.959 . S
H1989 C2003 0.929 . S
H1990 C2004 0.931 . S
H1991 C2006 0.930 . S
C1992 H1980 0.930 . S
C1992 C1993 1.399 . S
C1992 C1997 1.399 . S
C1993 C1992 1.399 . S
C1993 C1994 1.376 . S
C1994 H1981 0.930 . S
C1994 C1993 1.376 . S
C1994 C1995 1.388 . S
C1995 H1982 0.930 . S
C1995 C1994 1.388 . S
C1995 C1996 1.390 . S
C1996 C1995 1.390 . S
C1996 C1997 1.394 . S
C1996 C2002 1.465 . S
C1997 C1992 1.399 . S
C1997 C1996 1.394 . S
C1997 C1998 1.516 . S
C1998 C1997 1.516 . S
C1998 C1999 1.502 . S
C1998 C2000 1.561 . S
C1998 C2001 1.526 . S
C1999 H1983 0.959 . S
C1999 H1984 0.959 . S
C1999 H1985 0.961 . S
C1999 C1998 1.502 . S
C2000 H1986 0.960 . S
C2000 H1987 0.961 . S
C2000 H1988 0.959 . S
C2000 C1998 1.561 . S
C2001 C1998 1.526 . S
C2001 C2002 1.396 . S
C2001 C2006 1.390 . S
C2002 C1996 1.465 . S
C2002 C2001 1.396 . S
C2002 C2003 1.399 . S
C2003 H1989 0.929 . S
C2003 C2002 1.399 . S
C2003 C2004 1.385 . S
C2004 H1990 0.931 . S
C2004 C2003 1.385 . S
C2004 C2005 1.389 . S
C2005 C2004 1.389 . S
C2005 C2006 1.387 . S
C2006 H1991 0.930 . S
C2006 C2001 1.390 . S
C2006 C2005 1.387 . S
H2007 C2019 0.930 . S
H2008 C2021 0.930 . S
H2009 C2022 0.930 . S
H2010 C2026 0.959 . S
H2011 C2026 0.959 . S
H2012 C2026 0.961 . S
H2013 C2027 0.960 . S
H2014 C2027 0.961 . S
H2015 C2027 0.959 . S
H2016 C2030 0.929 . S
H2017 C2031 0.931 . S
H2018 C2033 0.930 . S
C2019 H2007 0.930 . S
C2019 C2020 1.399 . S
C2019 C2024 1.399 . S
C2020 C2019 1.399 . S
C2020 C2021 1.376 1_565 S
C2021 H2008 0.930 . S
C2021 C2020 1.376 1_545 S
C2021 C2022 1.388 . S
C2022 H2009 0.930 . S
C2022 C2021 1.388 . S
C2022 C2023 1.390 . S
C2023 C2022 1.390 . S
C2023 C2024 1.394 1_545 S
C2023 C2029 1.465 . S
C2024 C2019 1.399 . S
C2024 C2023 1.394 1_565 S
C2024 C2025 1.516 . S
C2025 C2024 1.516 . S
C2025 C2026 1.502 . S
C2025 C2027 1.561 . S
C2025 C2028 1.526 . S
C2026 H2010 0.959 . S
C2026 H2011 0.959 . S
C2026 H2012 0.961 . S
C2026 C2025 1.502 . S
C2027 H2013 0.960 . S
C2027 H2014 0.961 . S
C2027 H2015 0.959 . S
C2027 C2025 1.561 . S
C2028 C2025 1.526 . S
C2028 C2029 1.396 1_565 S
C2028 C2033 1.390 . S
C2029 C2023 1.465 . S
C2029 C2028 1.396 1_545 S
C2029 C2030 1.399 . S
C2030 H2016 0.929 . S
C2030 C2029 1.399 . S
C2030 C2031 1.385 . S
C2031 H2017 0.931 . S
C2031 C2030 1.385 . S
C2031 C2032 1.389 1_545 S
C2032 C2031 1.389 1_565 S
C2032 C2033 1.387 . S
C2033 H2018 0.930 . S
C2033 C2028 1.390 . S
C2033 C2032 1.387 . S
H2034 C2046 0.930 . S
H2035 C2048 0.930 . S
H2036 C2049 0.930 . S
H2037 C2053 0.959 . S
H2038 C2053 0.959 . S
H2039 C2053 0.961 . S
H2040 C2054 0.960 . S
H2041 C2054 0.961 . S
H2042 C2054 0.959 . S
H2043 C2057 0.929 . S
H2044 C2058 0.931 . S
H2045 C2060 0.930 . S
C2046 H2034 0.930 . S
C2046 C2047 1.399 1_545 S
C2046 C2051 1.399 . S
C2047 C2046 1.399 1_565 S
C2047 C2048 1.376 . S
C2048 H2035 0.930 . S
C2048 C2047 1.376 . S
C2048 C2049 1.388 . S
C2049 H2036 0.930 . S
C2049 C2048 1.388 . S
C2049 C2050 1.390 . S
C2050 C2049 1.390 . S
C2050 C2051 1.394 1_565 S
C2050 C2056 1.465 . S
C2051 C2046 1.399 . S
C2051 C2050 1.394 1_545 S
C2051 C2052 1.516 . S
C2052 C2051 1.516 . S
C2052 C2053 1.502 . S
C2052 C2054 1.561 . S
C2052 C2055 1.526 . S
C2053 H2037 0.959 . S
C2053 H2038 0.959 . S
C2053 H2039 0.961 . S
C2053 C2052 1.502 . S
C2054 H2040 0.960 . S
C2054 H2041 0.961 . S
C2054 H2042 0.959 . S
C2054 C2052 1.561 . S
C2055 C2052 1.526 . S
C2055 C2056 1.396 1_545 S
C2055 C2060 1.390 . S
C2056 C2050 1.465 . S
C2056 C2055 1.396 1_565 S
C2056 C2057 1.399 . S
C2057 H2043 0.929 . S
C2057 C2056 1.399 . S
C2057 C2058 1.385 . S
C2058 H2044 0.931 . S
C2058 C2057 1.385 . S
C2058 C2059 1.389 . S
C2059 C2058 1.389 . S
C2059 C2060 1.387 1_565 S
C2060 H2045 0.930 . S
C2060 C2055 1.390 . S
C2060 C2059 1.387 1_545 S
H2061 C2073 0.930 . S
H2062 C2075 0.930 . S
H2063 C2076 0.918 . S
H2064 C2080 0.959 . S
H2065 C2080 0.976 . S
H2066 C2080 0.945 . S
H2067 C2081 0.960 . S
H2068 C2081 0.961 . S
H2069 C2081 0.959 . S
H2070 C2084 0.929 . S
H2071 C2085 0.931 . S
H2072 C2087 0.930 . S
C2073 H2061 0.930 . S
C2073 C2074 1.399 . S
C2073 C2078 1.399 . S
C2074 C2073 1.399 . S
C2074 C2075 1.376 . S
C2075 H2062 0.930 . S
C2075 C2074 1.376 . S
C2075 C2076 1.388 . S
C2076 H2063 0.918 . S
C2076 C2075 1.388 . S
C2076 C2077 1.390 . S
C2077 C2076 1.390 . S
C2077 C2078 1.394 . S
C2077 C2083 1.465 . S
C2078 C2073 1.399 . S
C2078 C2077 1.394 . S
C2078 C2079 1.516 . S
C2079 C2078 1.516 . S
C2079 C2080 1.502 1_455 S
C2079 C2081 1.561 . S
C2079 C2082 1.526 . S
C2080 H2064 0.959 . S
C2080 H2065 0.976 . S
C2080 H2066 0.945 . S
C2080 C2079 1.502 1_655 S
C2081 H2067 0.960 . S
C2081 H2068 0.961 . S
C2081 H2069 0.959 . S
C2081 C2079 1.561 . S
C2082 C2079 1.526 . S
C2082 C2083 1.396 . S
C2082 C2087 1.390 . S
C2083 C2077 1.465 . S
C2083 C2082 1.396 . S
C2083 C2084 1.399 1_455 S
C2084 H2070 0.929 . S
C2084 C2083 1.399 1_655 S
C2084 C2085 1.385 . S
C2085 H2071 0.931 . S
C2085 C2084 1.385 . S
C2085 C2086 1.390 . S
C2086 C2085 1.390 . S
C2086 C2087 1.391 1_655 S
C2087 H2072 0.930 . S
C2087 C2082 1.390 . S
C2087 C2086 1.391 1_455 S
H2088 C2100 0.930 . S
H2089 C2102 0.930 . S
H2090 C2103 0.930 . S
H2091 C2107 0.959 . S
H2092 C2107 0.959 . S
H2093 C2107 0.961 . S
H2094 C2108 0.960 . S
H2095 C2108 0.961 . S
H2096 C2108 0.959 . S
H2097 C2111 0.929 . S
H2098 C2112 0.931 . S
H2099 C2114 0.930 . S
C2100 H2088 0.930 . S
C2100 C2101 1.399 . S
C2100 C2105 1.399 . S
C2101 C2100 1.399 . S
C2101 C2102 1.376 . S
C2102 H2089 0.930 . S
C2102 C2101 1.376 . S
C2102 C2103 1.388 . S
C2103 H2090 0.930 . S
C2103 C2102 1.388 . S
C2103 C2104 1.390 . S
C2104 C2103 1.390 . S
C2104 C2105 1.394 . S
C2104 C2110 1.465 . S
C2105 C2100 1.399 . S
C2105 C2104 1.394 . S
C2105 C2106 1.516 . S
C2106 C2105 1.516 . S
C2106 C2107 1.502 . S
C2106 C2108 1.561 . S
C2106 C2109 1.526 . S
C2107 H2091 0.959 . S
C2107 H2092 0.959 . S
C2107 H2093 0.961 . S
C2107 C2106 1.502 . S
C2108 H2094 0.960 . S
C2108 H2095 0.961 . S
C2108 H2096 0.959 . S
C2108 C2106 1.561 . S
C2109 C2106 1.526 . S
C2109 C2110 1.396 . S
C2109 C2114 1.390 . S
C2110 C2104 1.465 . S
C2110 C2109 1.396 . S
C2110 C2111 1.399 . S
C2111 H2097 0.929 . S
C2111 C2110 1.399 . S
C2111 C2112 1.385 . S
C2112 H2098 0.931 . S
C2112 C2111 1.385 . S
C2112 C2113 1.389 . S
C2113 C2112 1.389 . S
C2113 C2114 1.387 . S
C2114 H2099 0.930 . S
C2114 C2109 1.390 . S
C2114 C2113 1.387 . S
H2115 C2127 0.930 . S
H2116 C2129 0.930 . S
H2117 C2130 0.930 . S
H2118 C2134 0.959 . S
H2119 C2134 0.959 . S
H2120 C2134 0.961 . S
H2121 C2135 0.960 . S
H2122 C2135 0.961 . S
H2123 C2135 0.959 . S
H2124 C2138 0.929 . S
H2125 C2139 0.931 . S
H2126 C2141 0.930 . S
C2127 H2115 0.930 . S
C2127 C2128 1.399 . S
C2127 C2132 1.399 . S
C2128 C2127 1.399 . S
C2128 C2129 1.376 . S
C2129 H2116 0.930 . S
C2129 C2128 1.376 . S
C2129 C2130 1.388 . S
C2130 H2117 0.930 . S
C2130 C2129 1.388 . S
C2130 C2131 1.390 . S
C2131 C2130 1.390 . S
C2131 C2132 1.394 . S
C2131 C2137 1.465 . S
C2132 C2127 1.399 . S
C2132 C2131 1.394 . S
C2132 C2133 1.516 . S
C2133 C2132 1.516 . S
C2133 C2134 1.502 . S
C2133 C2135 1.561 . S
C2133 C2136 1.526 . S
C2134 H2118 0.959 . S
C2134 H2119 0.959 . S
C2134 H2120 0.961 . S
C2134 C2133 1.502 . S
C2135 H2121 0.960 . S
C2135 H2122 0.961 . S
C2135 H2123 0.959 . S
C2135 C2133 1.561 . S
C2136 C2133 1.526 . S
C2136 C2137 1.396 . S
C2136 C2141 1.390 . S
C2137 C2131 1.465 . S
C2137 C2136 1.396 . S
C2137 C2138 1.399 . S
C2138 H2124 0.929 . S
C2138 C2137 1.399 . S
C2138 C2139 1.385 . S
C2139 H2125 0.931 . S
C2139 C2138 1.385 . S
C2139 C2140 1.389 . S
C2140 C2139 1.389 . S
C2140 C2141 1.387 . S
C2141 H2126 0.930 . S
C2141 C2136 1.390 . S
C2141 C2140 1.387 . S
H2142 C2154 0.930 . S
H2143 C2156 0.930 . S
H2144 C2157 0.930 . S
H2145 C2161 0.959 . S
H2146 C2161 0.959 . S
H2147 C2161 0.961 . S
H2148 C2162 0.960 . S
H2149 C2162 0.961 . S
H2150 C2162 0.959 . S
H2151 C2165 0.929 . S
H2152 C2166 0.931 . S
H2153 C2168 0.930 . S
C2154 H2142 0.930 . S
C2154 C2155 1.399 . S
C2154 C2159 1.399 . S
C2155 C2154 1.399 . S
C2155 C2156 1.376 . S
C2156 H2143 0.930 . S
C2156 C2155 1.376 . S
C2156 C2157 1.388 . S
C2157 H2144 0.930 . S
C2157 C2156 1.388 . S
C2157 C2158 1.390 . S
C2158 C2157 1.390 . S
C2158 C2159 1.394 . S
C2158 C2164 1.465 . S
C2159 C2154 1.399 . S
C2159 C2158 1.394 . S
C2159 C2160 1.516 . S
C2160 C2159 1.516 . S
C2160 C2161 1.502 . S
C2160 C2162 1.561 . S
C2160 C2163 1.526 . S
C2161 H2145 0.959 . S
C2161 H2146 0.959 . S
C2161 H2147 0.961 . S
C2161 C2160 1.502 . S
C2162 H2148 0.960 . S
C2162 H2149 0.961 . S
C2162 H2150 0.959 . S
C2162 C2160 1.561 . S
C2163 C2160 1.526 . S
C2163 C2164 1.396 . S
C2163 C2168 1.390 . S
C2164 C2158 1.465 . S
C2164 C2163 1.396 . S
C2164 C2165 1.399 . S
C2165 H2151 0.929 . S
C2165 C2164 1.399 . S
C2165 C2166 1.385 . S
C2166 H2152 0.931 . S
C2166 C2165 1.385 . S
C2166 C2167 1.389 . S
C2167 C2166 1.389 . S
C2167 C2168 1.387 . S
C2168 H2153 0.930 . S
C2168 C2163 1.390 . S
C2168 C2167 1.387 . S
H2169 C2181 0.930 . S
H2170 C2183 0.930 . S
H2171 C2184 0.930 . S
H2172 C2188 0.959 . S
H2173 C2188 0.959 . S
H2174 C2188 0.961 . S
H2175 C2189 0.960 . S
H2176 C2189 0.961 . S
H2177 C2189 0.959 . S
H2178 C2192 0.929 . S
H2179 C2193 0.931 . S
H2180 C2195 0.930 . S
C2181 H2169 0.930 . S
C2181 C2182 1.399 . S
C2181 C2186 1.399 . S
C2182 C2181 1.399 . S
C2182 C2183 1.376 . S
C2183 H2170 0.930 . S
C2183 C2182 1.376 . S
C2183 C2184 1.388 . S
C2184 H2171 0.930 . S
C2184 C2183 1.388 . S
C2184 C2185 1.390 . S
C2185 C2184 1.390 . S
C2185 C2186 1.394 . S
C2185 C2191 1.465 . S
C2186 C2181 1.399 . S
C2186 C2185 1.394 . S
C2186 C2187 1.516 . S
C2187 C2186 1.516 . S
C2187 C2188 1.502 . S
C2187 C2189 1.561 . S
C2187 C2190 1.526 . S
C2188 H2172 0.959 . S
C2188 H2173 0.959 . S
C2188 H2174 0.961 . S
C2188 C2187 1.502 . S
C2189 H2175 0.960 . S
C2189 H2176 0.961 . S
C2189 H2177 0.959 . S
C2189 C2187 1.561 . S
C2190 C2187 1.526 . S
C2190 C2191 1.396 . S
C2190 C2195 1.390 . S
C2191 C2185 1.465 . S
C2191 C2190 1.396 . S
C2191 C2192 1.399 . S
C2192 H2178 0.929 . S
C2192 C2191 1.399 . S
C2192 C2193 1.385 . S
C2193 H2179 0.931 . S
C2193 C2192 1.385 . S
C2193 C2194 1.389 . S
C2194 C2193 1.389 . S
C2194 C2195 1.387 . S
C2195 H2180 0.930 . S
C2195 C2190 1.390 . S
C2195 C2194 1.387 . S
H2196 C2208 0.930 . S
H2197 C2210 0.930 . S
H2198 C2211 0.930 . S
H2199 C2215 0.959 . S
H2200 C2215 0.959 . S
H2201 C2215 0.961 . S
H2202 C2216 0.960 . S
H2203 C2216 0.961 . S
H2204 C2216 0.959 . S
H2205 C2219 0.929 . S
H2206 C2220 0.931 . S
H2207 C2222 0.930 . S
C2208 H2196 0.930 . S
C2208 C2209 1.399 . S
C2208 C2213 1.399 . S
C2209 C2208 1.399 . S
C2209 C2210 1.376 1_545 S
C2210 H2197 0.930 . S
C2210 C2209 1.376 1_565 S
C2210 C2211 1.388 . S
C2211 H2198 0.930 . S
C2211 C2210 1.388 . S
C2211 C2212 1.390 . S
C2212 C2211 1.390 . S
C2212 C2213 1.394 1_565 S
C2212 C2218 1.465 . S
C2213 C2208 1.399 . S
C2213 C2212 1.394 1_545 S
C2213 C2214 1.516 . S
C2214 C2213 1.516 . S
C2214 C2215 1.502 . S
C2214 C2216 1.561 . S
C2214 C2217 1.526 . S
C2215 H2199 0.959 . S
C2215 H2200 0.959 . S
C2215 H2201 0.961 . S
C2215 C2214 1.502 . S
C2216 H2202 0.960 . S
C2216 H2203 0.961 . S
C2216 H2204 0.959 . S
C2216 C2214 1.561 . S
C2217 C2214 1.526 . S
C2217 C2218 1.396 1_545 S
C2217 C2222 1.390 . S
C2218 C2212 1.465 . S
C2218 C2217 1.396 1_565 S
C2218 C2219 1.399 . S
C2219 H2205 0.929 . S
C2219 C2218 1.399 . S
C2219 C2220 1.385 . S
C2220 H2206 0.931 . S
C2220 C2219 1.385 . S
C2220 C2221 1.389 1_565 S
C2221 C2220 1.389 1_545 S
C2221 C2222 1.387 . S
C2222 H2207 0.930 . S
C2222 C2217 1.390 . S
C2222 C2221 1.387 . S
H2223 C2235 0.930 . S
H2224 C2237 0.930 . S
H2225 C2238 0.930 . S
H2226 C2242 0.959 . S
H2227 C2242 0.959 . S
H2228 C2242 0.961 . S
H2229 C2243 0.960 . S
H2230 C2243 0.961 . S
H2231 C2243 1.015 . S
H2232 C2246 0.929 . S
H2233 C2247 0.931 . S
H2234 C2249 0.930 . S
C2235 H2223 0.930 . S
C2235 C2236 1.399 1_455 S
C2235 C2240 1.399 . S
C2236 C2235 1.399 1_655 S
C2236 C2237 1.376 . S
C2237 H2224 0.930 . S
C2237 C2236 1.376 . S
C2237 C2238 1.388 . S
C2238 H2225 0.930 . S
C2238 C2237 1.388 . S
C2238 C2239 1.390 . S
C2239 C2238 1.390 . S
C2239 C2240 1.394 1_655 S
C2239 C2245 1.465 . S
C2240 C2235 1.399 . S
C2240 C2239 1.394 1_455 S
C2240 C2241 1.516 . S
C2241 C2240 1.516 . S
C2241 C2242 1.502 . S
C2241 C2243 1.561 . S
C2241 C2244 1.526 . S
C2242 H2226 0.959 . S
C2242 H2227 0.959 . S
C2242 H2228 0.961 . S
C2242 C2241 1.502 . S
C2243 H2229 0.960 . S
C2243 H2230 0.961 . S
C2243 H2231 1.015 . S
C2243 C2241 1.561 . S
C2244 C2241 1.526 . S
C2244 C2245 1.396 1_455 S
C2244 C2249 1.390 . S
C2245 C2239 1.465 . S
C2245 C2244 1.396 1_655 S
C2245 C2246 1.399 . S
C2246 H2232 0.929 . S
C2246 C2245 1.399 . S
C2246 C2247 1.385 . S
C2247 H2233 0.931 . S
C2247 C2246 1.385 . S
C2247 C2248 1.389 . S
C2248 C2247 1.389 . S
C2248 C2249 1.387 1_655 S
C2249 H2234 0.930 . S
C2249 C2244 1.390 . S
C2249 C2248 1.387 1_455 S
H2250 C2262 0.930 . S
H2251 C2264 0.930 . S
H2252 C2265 0.930 . S
H2253 C2269 0.959 . S
H2254 C2269 0.959 . S
H2255 C2269 0.961 . S
H2256 C2270 0.960 . S
H2257 C2270 0.961 . S
H2258 C2270 0.959 . S
H2259 C2273 0.929 . S
H2260 C2274 0.931 . S
H2261 C2276 0.930 . S
C2262 H2250 0.930 . S
C2262 C2263 1.399 . S
C2262 C2267 1.399 . S
C2263 C2262 1.399 . S
C2263 C2264 1.376 . S
C2264 H2251 0.930 . S
C2264 C2263 1.376 . S
C2264 C2265 1.388 . S
C2265 H2252 0.930 . S
C2265 C2264 1.388 . S
C2265 C2266 1.390 . S
C2266 C2265 1.390 . S
C2266 C2267 1.394 . S
C2266 C2272 1.465 . S
C2267 C2262 1.399 . S
C2267 C2266 1.394 . S
C2267 C2268 1.516 . S
C2268 C2267 1.516 . S
C2268 C2269 1.502 . S
C2268 C2270 1.561 . S
C2268 C2271 1.526 . S
C2269 H2253 0.959 . S
C2269 H2254 0.959 . S
C2269 H2255 0.961 . S
C2269 C2268 1.502 . S
C2270 H2256 0.960 . S
C2270 H2257 0.961 . S
C2270 H2258 0.959 . S
C2270 C2268 1.561 . S
C2271 C2268 1.526 . S
C2271 C2272 1.396 . S
C2271 C2276 1.390 . S
C2272 C2266 1.465 . S
C2272 C2271 1.396 . S
C2272 C2273 1.399 . S
C2273 H2259 0.929 . S
C2273 C2272 1.399 . S
C2273 C2274 1.385 . S
C2274 H2260 0.931 . S
C2274 C2273 1.385 . S
C2274 C2275 1.389 . S
C2275 C2274 1.389 . S
C2275 C2276 1.387 . S
C2276 H2261 0.930 . S
C2276 C2271 1.390 . S
C2276 C2275 1.387 . S
H2277 C2289 0.930 . S
H2278 C2291 0.930 . S
H2279 C2292 0.930 . S
H2280 C2296 0.959 . S
H2281 C2296 0.959 . S
H2282 C2296 0.961 . S
H2283 C2297 0.960 . S
H2284 C2297 0.961 . S
H2285 C2297 0.959 . S
H2286 C2300 0.929 . S
H2287 C2301 0.931 . S
H2288 C2303 0.930 . S
C2289 H2277 0.930 . S
C2289 C2290 1.399 . S
C2289 C2294 1.399 . S
C2290 C2289 1.399 . S
C2290 C2291 1.376 . S
C2291 H2278 0.930 . S
C2291 C2290 1.376 . S
C2291 C2292 1.388 . S
C2292 H2279 0.930 . S
C2292 C2291 1.388 . S
C2292 C2293 1.390 . S
C2293 C2292 1.390 . S
C2293 C2294 1.394 . S
C2293 C2299 1.465 . S
C2294 C2289 1.399 . S
C2294 C2293 1.394 . S
C2294 C2295 1.516 . S
C2295 C2294 1.516 . S
C2295 C2296 1.502 . S
C2295 C2297 1.561 . S
C2295 C2298 1.526 . S
C2296 H2280 0.959 . S
C2296 H2281 0.959 . S
C2296 H2282 0.961 . S
C2296 C2295 1.502 . S
C2297 H2283 0.960 . S
C2297 H2284 0.961 . S
C2297 H2285 0.959 . S
C2297 C2295 1.561 . S
C2298 C2295 1.526 . S
C2298 C2299 1.396 . S
C2298 C2303 1.390 . S
C2299 C2293 1.465 . S
C2299 C2298 1.396 . S
C2299 C2300 1.399 . S
C2300 H2286 0.929 . S
C2300 C2299 1.399 . S
C2300 C2301 1.385 . S
C2301 H2287 0.931 . S
C2301 C2300 1.385 . S
C2301 C2302 1.389 . S
C2302 C2301 1.389 . S
C2302 C2303 1.387 . S
C2303 H2288 0.930 . S
C2303 C2298 1.390 . S
C2303 C2302 1.387 . S
H2304 C2316 0.930 . S
H2305 C2318 0.930 . S
H2306 C2319 0.930 . S
H2307 C2323 0.959 . S
H2308 C2323 0.959 . S
H2309 C2323 0.961 . S
H2310 C2324 0.960 . S
H2311 C2324 0.961 . S
H2312 C2324 0.959 . S
H2313 C2327 0.929 . S
H2314 C2328 0.931 . S
H2315 C2330 0.930 . S
C2316 H2304 0.930 . S
C2316 C2317 1.399 . S
C2316 C2321 1.399 . S
C2317 C2316 1.399 . S
C2317 C2318 1.376 . S
C2318 H2305 0.930 . S
C2318 C2317 1.376 . S
C2318 C2319 1.388 . S
C2319 H2306 0.930 . S
C2319 C2318 1.388 . S
C2319 C2320 1.390 . S
C2320 C2319 1.390 . S
C2320 C2321 1.394 . S
C2320 C2326 1.465 . S
C2321 C2316 1.399 . S
C2321 C2320 1.394 . S
C2321 C2322 1.516 . S
C2322 C2321 1.516 . S
C2322 C2323 1.502 . S
C2322 C2324 1.561 . S
C2322 C2325 1.526 . S
C2323 H2307 0.959 . S
C2323 H2308 0.959 . S
C2323 H2309 0.961 . S
C2323 C2322 1.502 . S
C2324 H2310 0.960 . S
C2324 H2311 0.961 . S
C2324 H2312 0.959 . S
C2324 C2322 1.561 . S
C2325 C2322 1.526 . S
C2325 C2326 1.396 . S
C2325 C2330 1.390 . S
C2326 C2320 1.465 . S
C2326 C2325 1.396 . S
C2326 C2327 1.399 . S
C2327 H2313 0.929 . S
C2327 C2326 1.399 . S
C2327 C2328 1.385 . S
C2328 H2314 0.931 . S
C2328 C2327 1.385 . S
C2328 C2329 1.389 . S
C2329 C2328 1.389 . S
C2329 C2330 1.387 . S
C2330 H2315 0.930 . S
C2330 C2325 1.390 . S
C2330 C2329 1.387 . S
H2331 C2343 0.930 . S
H2332 C2345 0.930 . S
H2333 C2346 0.930 . S
H2334 C2350 0.959 . S
H2335 C2350 0.959 . S
H2336 C2350 0.961 . S
H2337 C2351 0.960 . S
H2338 C2351 0.961 . S
H2339 C2351 0.959 . S
H2340 C2354 0.929 . S
H2341 C2355 0.931 . S
H2342 C2357 0.930 . S
C2343 H2331 0.930 . S
C2343 C2344 1.399 . S
C2343 C2348 1.399 . S
C2344 C2343 1.399 . S
C2344 C2345 1.376 . S
C2345 H2332 0.930 . S
C2345 C2344 1.376 . S
C2345 C2346 1.388 . S
C2346 H2333 0.930 . S
C2346 C2345 1.388 . S
C2346 C2347 1.390 . S
C2347 C2346 1.390 . S
C2347 C2348 1.394 . S
C2347 C2353 1.465 . S
C2348 C2343 1.399 . S
C2348 C2347 1.394 . S
C2348 C2349 1.516 . S
C2349 C2348 1.516 . S
C2349 C2350 1.502 . S
C2349 C2351 1.561 . S
C2349 C2352 1.526 . S
C2350 H2334 0.959 . S
C2350 H2335 0.959 . S
C2350 H2336 0.961 . S
C2350 C2349 1.502 . S
C2351 H2337 0.960 . S
C2351 H2338 0.961 . S
C2351 H2339 0.959 . S
C2351 C2349 1.561 . S
C2352 C2349 1.526 . S
C2352 C2353 1.396 . S
C2352 C2357 1.390 . S
C2353 C2347 1.465 . S
C2353 C2352 1.396 . S
C2353 C2354 1.399 . S
C2354 H2340 0.929 . S
C2354 C2353 1.399 . S
C2354 C2355 1.385 . S
C2355 H2341 0.931 . S
C2355 C2354 1.385 . S
C2355 C2356 1.389 . S
C2356 C2355 1.389 . S
C2356 C2357 1.387 . S
C2357 H2342 0.930 . S
C2357 C2352 1.390 . S
C2357 C2356 1.387 . S
H2358 C2370 0.930 . S
H2359 C2372 0.930 . S
H2360 C2373 0.930 . S
H2361 C2377 0.959 . S
H2362 C2377 0.959 . S
H2363 C2377 0.961 . S
H2364 C2378 0.960 . S
H2365 C2378 0.961 . S
H2366 C2378 0.959 . S
H2367 C2381 0.929 . S
H2368 C2382 0.931 . S
H2369 C2384 0.930 . S
C2370 H2358 0.930 . S
C2370 C2371 1.399 . S
C2370 C2375 1.399 . S
C2371 C2370 1.399 . S
C2371 C2372 1.376 . S
C2372 H2359 0.930 . S
C2372 C2371 1.376 . S
C2372 C2373 1.388 . S
C2373 H2360 0.930 . S
C2373 C2372 1.388 . S
C2373 C2374 1.390 . S
C2374 C2373 1.390 . S
C2374 C2375 1.394 . S
C2374 C2380 1.465 . S
C2375 C2370 1.399 . S
C2375 C2374 1.394 . S
C2375 C2376 1.516 . S
C2376 C2375 1.516 . S
C2376 C2377 1.502 . S
C2376 C2378 1.561 . S
C2376 C2379 1.526 . S
C2377 H2361 0.959 . S
C2377 H2362 0.959 . S
C2377 H2363 0.961 . S
C2377 C2376 1.502 . S
C2378 H2364 0.960 . S
C2378 H2365 0.961 . S
C2378 H2366 0.959 . S
C2378 C2376 1.561 . S
C2379 C2376 1.526 . S
C2379 C2380 1.396 . S
C2379 C2384 1.390 . S
C2380 C2374 1.465 . S
C2380 C2379 1.396 . S
C2380 C2381 1.399 . S
C2381 H2367 0.929 . S
C2381 C2380 1.399 . S
C2381 C2382 1.385 . S
C2382 H2368 0.931 . S
C2382 C2381 1.385 . S
C2382 C2383 1.389 . S
C2383 C2382 1.389 . S
C2383 C2384 1.387 . S
C2384 H2369 0.930 . S
C2384 C2379 1.390 . S
C2384 C2383 1.387 . S
H2385 C2397 0.930 . S
H2386 C2399 0.930 . S
H2387 C2400 0.930 . S
H2388 C2404 0.959 . S
H2389 C2404 0.959 . S
H2390 C2404 0.961 . S
H2391 C2405 0.960 . S
H2392 C2405 0.961 . S
H2393 C2405 0.959 . S
H2394 C2408 0.929 . S
H2395 C2409 0.931 . S
H2396 C2411 0.930 . S
C2397 H2385 0.930 . S
C2397 C2398 1.399 . S
C2397 C2402 1.399 . S
C2398 C2397 1.399 . S
C2398 C2399 1.376 . S
C2399 H2386 0.930 . S
C2399 C2398 1.376 . S
C2399 C2400 1.388 . S
C2400 H2387 0.930 . S
C2400 C2399 1.388 . S
C2400 C2401 1.390 . S
C2401 C2400 1.390 . S
C2401 C2402 1.394 . S
C2401 C2407 1.465 . S
C2402 C2397 1.399 . S
C2402 C2401 1.394 . S
C2402 C2403 1.516 . S
C2403 C2402 1.516 . S
C2403 C2404 1.502 . S
C2403 C2405 1.561 . S
C2403 C2406 1.526 . S
C2404 H2388 0.959 . S
C2404 H2389 0.959 . S
C2404 H2390 0.961 . S
C2404 C2403 1.502 . S
C2405 H2391 0.960 . S
C2405 H2392 0.961 . S
C2405 H2393 0.959 . S
C2405 C2403 1.561 . S
C2406 C2403 1.526 . S
C2406 C2407 1.396 . S
C2406 C2411 1.390 . S
C2407 C2401 1.465 . S
C2407 C2406 1.396 . S
C2407 C2408 1.399 . S
C2408 H2394 0.929 . S
C2408 C2407 1.399 . S
C2408 C2409 1.385 . S
C2409 H2395 0.931 . S
C2409 C2408 1.385 . S
C2409 C2410 1.389 . S
C2410 C2409 1.389 . S
C2410 C2411 1.387 . S
C2411 H2396 0.930 . S
C2411 C2406 1.390 . S
C2411 C2410 1.387 . S
H2412 C2424 0.930 . S
H2413 C2426 0.930 . S
H2414 C2427 0.930 . S
H2415 C2431 0.959 . S
H2416 C2431 0.959 . S
H2417 C2431 0.961 . S
H2418 C2432 0.960 . S
H2419 C2432 0.961 . S
H2420 C2432 0.959 . S
H2421 C2435 0.929 . S
H2422 C2436 0.931 . S
H2423 C2438 0.930 . S
C2424 H2412 0.930 . S
C2424 C2425 1.399 . S
C2424 C2429 1.399 . S
C2425 C2424 1.399 . S
C2425 C2426 1.376 . S
C2426 H2413 0.930 . S
C2426 C2425 1.376 . S
C2426 C2427 1.388 . S
C2427 H2414 0.930 . S
C2427 C2426 1.388 . S
C2427 C2428 1.390 . S
C2428 C2427 1.390 . S
C2428 C2429 1.394 . S
C2428 C2434 1.465 . S
C2429 C2424 1.399 . S
C2429 C2428 1.394 . S
C2429 C2430 1.516 . S
C2430 C2429 1.516 . S
C2430 C2431 1.502 . S
C2430 C2432 1.561 . S
C2430 C2433 1.526 . S
C2431 H2415 0.959 . S
C2431 H2416 0.959 . S
C2431 H2417 0.961 . S
C2431 C2430 1.502 . S
C2432 H2418 0.960 . S
C2432 H2419 0.961 . S
C2432 H2420 0.959 . S
C2432 C2430 1.561 . S
C2433 C2430 1.526 . S
C2433 C2434 1.396 . S
C2433 C2438 1.390 . S
C2434 C2428 1.465 . S
C2434 C2433 1.396 . S
C2434 C2435 1.399 . S
C2435 H2421 0.929 . S
C2435 C2434 1.399 . S
C2435 C2436 1.385 . S
C2436 H2422 0.931 . S
C2436 C2435 1.385 . S
C2436 C2437 1.389 . S
C2437 C2436 1.389 . S
C2437 C2438 1.387 . S
C2438 H2423 0.930 . S
C2438 C2433 1.390 . S
C2438 C2437 1.387 . S
H2439 C2451 0.930 . S
H2440 C2453 0.930 . S
H2441 C2454 0.930 . S
H2442 C2458 0.959 . S
H2443 C2458 0.959 . S
H2444 C2458 0.961 . S
H2445 C2459 0.960 . S
H2446 C2459 0.961 . S
H2447 C2459 0.959 . S
H2448 C2462 0.929 . S
H2449 C2463 0.931 . S
H2450 C2465 0.930 . S
C2451 H2439 0.930 . S
C2451 C2452 1.399 . S
C2451 C2456 1.399 . S
C2452 C2451 1.399 . S
C2452 C2453 1.376 . S
C2453 H2440 0.930 . S
C2453 C2452 1.376 . S
C2453 C2454 1.387 1_655 S
C2454 H2441 0.930 . S
C2454 C2453 1.387 1_455 S
C2454 C2455 1.391 1_455 S
C2455 C2454 1.391 1_655 S
C2455 C2456 1.394 . S
C2455 C2461 1.481 . S
C2456 C2451 1.399 . S
C2456 C2455 1.394 . S
C2456 C2457 1.516 . S
C2457 C2456 1.516 . S
C2457 C2458 1.502 . S
C2457 C2459 1.561 1_655 S
C2457 C2460 1.526 . S
C2458 H2442 0.959 . S
C2458 H2443 0.959 . S
C2458 H2444 0.961 . S
C2458 C2457 1.502 . S
C2459 H2445 0.960 . S
C2459 H2446 0.961 . S
C2459 H2447 0.959 . S
C2459 C2457 1.561 1_455 S
C2460 C2457 1.526 . S
C2460 C2461 1.391 . S
C2460 C2465 1.390 . S
C2461 C2455 1.481 . S
C2461 C2460 1.391 . S
C2461 C2462 1.390 1_655 S
C2462 H2448 0.929 . S
C2462 C2461 1.390 1_455 S
C2462 C2463 1.385 . S
C2463 H2449 0.931 . S
C2463 C2462 1.385 . S
C2463 C2464 1.389 1_455 S
C2464 C2463 1.389 1_655 S
C2464 C2465 1.387 . S
C2465 H2450 0.930 . S
C2465 C2460 1.390 . S
C2465 C2464 1.387 . S
H2466 C2478 0.930 . S
H2467 C2480 0.930 . S
H2468 C2481 0.930 . S
H2469 C2485 0.959 . S
H2470 C2485 0.959 . S
H2471 C2485 0.961 . S
H2472 C2486 0.960 . S
H2473 C2486 0.961 . S
H2474 C2486 0.959 . S
H2475 C2489 0.929 . S
H2476 C2490 0.931 . S
H2477 C2492 0.930 . S
C2478 H2466 0.930 . S
C2478 C2479 1.399 . S
C2478 C2483 1.399 . S
C2479 C2478 1.399 . S
C2479 C2480 1.376 . S
C2480 H2467 0.930 . S
C2480 C2479 1.376 . S
C2480 C2481 1.388 . S
C2481 H2468 0.930 . S
C2481 C2480 1.388 . S
C2481 C2482 1.390 . S
C2482 C2481 1.390 . S
C2482 C2483 1.394 . S
C2482 C2488 1.465 . S
C2483 C2478 1.399 . S
C2483 C2482 1.394 . S
C2483 C2484 1.516 . S
C2484 C2483 1.516 . S
C2484 C2485 1.502 . S
C2484 C2486 1.561 . S
C2484 C2487 1.526 . S
C2485 H2469 0.959 . S
C2485 H2470 0.959 . S
C2485 H2471 0.961 . S
C2485 C2484 1.502 . S
C2486 H2472 0.960 . S
C2486 H2473 0.961 . S
C2486 H2474 0.959 . S
C2486 C2484 1.561 . S
C2487 C2484 1.526 . S
C2487 C2488 1.396 . S
C2487 C2492 1.390 . S
C2488 C2482 1.465 . S
C2488 C2487 1.396 . S
C2488 C2489 1.399 . S
C2489 H2475 0.929 . S
C2489 C2488 1.399 . S
C2489 C2490 1.385 . S
C2490 H2476 0.931 . S
C2490 C2489 1.385 . S
C2490 C2491 1.389 . S
C2491 C2490 1.389 . S
C2491 C2492 1.387 . S
C2492 H2477 0.930 . S
C2492 C2487 1.390 . S
C2492 C2491 1.387 . S
H2493 C2505 0.930 . S
H2494 C2507 0.930 . S
H2495 C2508 0.930 . S
H2496 C2512 0.959 . S
H2497 C2512 0.959 . S
H2498 C2512 0.961 . S
H2499 C2513 0.960 . S
H2500 C2513 0.961 . S
H2501 C2513 0.959 . S
H2502 C2516 0.929 . S
H2503 C2517 0.931 . S
H2504 C2519 0.930 . S
C2505 H2493 0.930 . S
C2505 C2506 1.399 1_565 S
C2505 C2510 1.399 . S
C2506 C2505 1.399 1_545 S
C2506 C2507 1.376 . S
C2507 H2494 0.930 . S
C2507 C2506 1.376 . S
C2507 C2508 1.388 . S
C2508 H2495 0.930 . S
C2508 C2507 1.388 . S
C2508 C2509 1.390 . S
C2509 C2508 1.390 . S
C2509 C2510 1.394 1_545 S
C2509 C2515 1.465 . S
C2510 C2505 1.399 . S
C2510 C2509 1.394 1_565 S
C2510 C2511 1.516 . S
C2511 C2510 1.516 . S
C2511 C2512 1.502 . S
C2511 C2513 1.561 . S
C2511 C2514 1.526 . S
C2512 H2496 0.959 . S
C2512 H2497 0.959 . S
C2512 H2498 0.961 . S
C2512 C2511 1.502 . S
C2513 H2499 0.960 . S
C2513 H2500 0.961 . S
C2513 H2501 0.959 . S
C2513 C2511 1.561 . S
C2514 C2511 1.526 . S
C2514 C2515 1.396 1_565 S
C2514 C2519 1.390 . S
C2515 C2509 1.465 . S
C2515 C2514 1.396 1_545 S
C2515 C2516 1.399 . S
C2516 H2502 0.929 . S
C2516 C2515 1.399 . S
C2516 C2517 1.385 . S
C2517 H2503 0.931 . S
C2517 C2516 1.385 . S
C2517 C2518 1.389 . S
C2518 C2517 1.389 . S
C2518 C2519 1.387 1_545 S
C2519 H2504 0.930 . S
C2519 C2514 1.390 . S
C2519 C2518 1.387 1_565 S
C589 C7 1.505 . S
C601 C421 1.490 . S
C616 C23 1.551 . S
C628 C446 1.578 . S
C655 C457 1.514 . S
C643 C37 1.503 . S
C670 C35 1.471 . S
C682 C482 1.536 . S
C697 C9 1.554 1_455 S
C709 C500 1.510 . S
C724 C21 1.527 . S
C736 C511 1.572 . S
C751 C49 1.465 . S
C763 C493 1.543 . S
C790 C518 1.507 . S
C778 C65 1.533 . S
C817 C475 1.503 1_565 S
C805 C79 1.550 1_565 S
C832 C77 1.482 . S
C844 C464 1.510 . S
C871 C428 1.523 1_655 S
C859 C51 1.545 1_655 S
C886 C63 1.480 . S
C898 C439 1.560 . S
C913 C91 1.582 . S
C925 C529 1.598 . S
C940 C107 1.626 . S
C952 C554 1.579 . S
C979 C565 1.615 . S
C967 C121 1.606 . S
C994 C119 1.575 . S
C1006 C266 1.595 . S
C1021 C93 1.625 . S
C1033 C284 1.572 . S
C1048 C105 1.554 . S
C1060 C295 1.573 . S
C1075 C133 1.480 . S
C1087 C277 1.556 . S
C1102 C149 1.581 . S
C1114 C302 1.554 . S
C1141 C259 1.556 . S
C1129 C163 1.597 . S
C1168 C572 1.573 . S
C1156 C161 1.601 . S
C1195 C536 1.541 . S
C1183 C135 1.557 . S
C1222 C547 1.596 . S
C1210 C147 1.520 . S
C1237 C175 1.573 . S
C1249 C313 1.519 . S
C1264 C191 1.571 . S
C1276 C338 1.594 . S
C1291 C205 1.607 . S
C1303 C349 1.557 . S
C1318 C203 1.624 . S
C1330 C374 1.621 . S
C1357 C392 1.582 . S
C1345 C177 1.610 . S
C1384 C403 1.625 . S
C1372 C189 1.544 . S
C1411 C385 1.567 . S
C1399 C217 1.566 . S
C1438 C410 1.546 . S
C1426 C233 1.587 . S
C1453 C247 1.597 . S
C1465 C367 1.564 . S
C1492 C356 1.527 . S
C1480 C245 1.559 . S
C1507 C219 1.563 . S
C1519 C320 1.585 . S
C1546 C331 1.540 . S
C1534 C231 1.564 . S
C1573 C268 1.406 . S
C1561 C8 1.517 . S
C1588 C17 1.466 . S
C1600 C286 1.359 . S
C1627 C296 1.486 . S
C1615 C31 1.516 . S
C1654 C314 1.493 . S
C1642 C36 1.522 . S
C1681 C340 1.401 . S
C1669 C3 1.497 . S
C1708 C350 1.357 . S
C1696 C22 1.472 . S
C1723 C50 1.551 . S
C1735 C358 1.413 . S
C1750 C59 1.486 . S
C1762 C322 1.352 . S
C1777 C73 1.515 . S
C1789 C332 1.419 . S
C1804 C78 1.571 . S
C1816 C278 1.473 . S
C1843 C304 1.467 . S
C1831 C45 1.533 . S
C1858 C64 1.503 . S
C1870 C260 1.417 . S
C1897 C376 1.449 . S
C1885 C92 1.502 . S
C1912 C101 1.548 . S
C1924 C394 1.511 . S
C1939 C115 1.560 . S
C1951 C404 1.444 . S
C1978 C422 1.393 . S
C1966 C120 1.457 . S
C1993 C87 1.503 . S
C2005 C448 1.461 . S
C2020 C106 1.454 . S
C2032 C458 1.356 . S
C2047 C134 1.460 . S
C2059 C466 1.391 . S
C2074 C143 1.467 . S
C2086 C430 1.428 1_655 S
C2113 C440 1.428 . S
C2101 C157 1.535 . S
C2128 C162 1.550 . S
C2140 C386 1.427 . S
C2155 C129 1.585 . S
C2167 C412 1.524 . S
C2194 C368 1.454 . S
C2182 C148 1.570 . S
C2221 C484 1.404 . S
C2209 C176 1.468 . S
C2236 C185 1.453 . S
C2248 C502 1.385 . S
C2263 C199 1.513 . S
C2275 C512 1.462 . S
C2302 C530 1.398 . S
C2290 C204 1.516 . S
C2329 C556 1.431 . S
C2317 C171 1.550 . S
C2344 C190 1.527 . S
C2356 C566 1.479 . S
C2371 C218 1.534 . S
C2383 C574 1.494 . S
C2398 C227 1.564 . S
C2410 C538 1.433 . S
C2437 C548 1.462 . S
C2425 C241 1.573 . S
C2464 C494 1.348 1_655 S
C2452 C246 1.478 . S
C2491 C520 1.401 . S
C2479 C213 1.525 . S
C2506 C232 1.453 . S
C2518 C476 1.357 1_545 S
