# Generated by pormake.
# Topology tsx, (6,3)-cn, num edge types: 1
# Building blocks:
#     Node 0, Type 0, BuildingBlock: MIDCAF_clean_sbu_0, # of connection points: 6
#     Node 1, Type 0, BuildingBlock: MIDCAF_clean_sbu_0, # of connection points: 6
#     Node 2, Type 1, BuildingBlock: BETDAH_clean_linker_0, # of connection points: 3
#     Node 3, Type 1, BuildingBlock: BETDAH_clean_linker_0, # of connection points: 3
#     Node 4, Type 1, BuildingBlock: BETDAH_clean_linker_0, # of connection points: 3
#     Node 5, Type 1, BuildingBlock: BETDAH_clean_linker_0, # of connection points: 3
#     Edge 6, Type (0, 1), BuildingBlock: XUDNAN_clean_linker_2, # of connection points: 2
#     Edge 7, Type (0, 1), BuildingBlock: XUDNAN_clean_linker_2, # of connection points: 2
#     Edge 8, Type (0, 1), BuildingBlock: XUDNAN_clean_linker_2, # of connection points: 2
#     Edge 9, Type (0, 1), BuildingBlock: XUDNAN_clean_linker_2, # of connection points: 2
#     Edge 10, Type (0, 1), BuildingBlock: XUDNAN_clean_linker_2, # of connection points: 2
#     Edge 11, Type (0, 1), BuildingBlock: XUDNAN_clean_linker_2, # of connection points: 2
#     Edge 12, Type (0, 1), BuildingBlock: XUDNAN_clean_linker_2, # of connection points: 2
#     Edge 13, Type (0, 1), BuildingBlock: XUDNAN_clean_linker_2, # of connection points: 2
#     Edge 14, Type (0, 1), BuildingBlock: XUDNAN_clean_linker_2, # of connection points: 2
#     Edge 15, Type (0, 1), BuildingBlock: XUDNAN_clean_linker_2, # of connection points: 2
#     Edge 16, Type (0, 1), BuildingBlock: XUDNAN_clean_linker_2, # of connection points: 2
#     Edge 17, Type (0, 1), BuildingBlock: XUDNAN_clean_linker_2, # of connection points: 2
# Relax obj value: 0.079
# Max RMSD: 0.148
# Mean RMSD: 0.108
data_MOF--net-tsx--node1-MIDCAF_clean_sbu_0--node2-BETDAH_clean_linker_0--edge1-XUDNAN_clean_linker_2
_symmetry_space_group_name_H-M    P1
_symmetry_Int_Tables_number       1
_symmetry_cell_setting            triclinic
loop_
_symmetry_equiv_pos_as_xyz
'x, y, z'
_cell_length_a     20.442887
_cell_length_b     20.807833
_cell_length_c     35.226133
_cell_angle_alpha  90.441119
_cell_angle_beta   102.98596
_cell_angle_gamma 90.21395
loop_
_atom_site_label
_atom_site_type_symbol
_atom_site_fract_x
_atom_site_fract_y
_atom_site_fract_z
_atom_type_partial_charge
Zn0 Zn 0.93381 0.03591 0.95901 0.0
Zn1 Zn 0.14166 -0.00056 0.06557 0.0
Zn2 Zn 0.0404 0.02648 0.01016 0.0
C3 C 0.14014 0.13469 0.04984 0.0
C4 C 0.16322 0.93467 0.00106 0.0
O5 O 0.96153 0.96764 0.0263 0.0
O6 O 0.88967 0.95451 0.96973 0.0
C7 C 0.95695 0.15388 0.9956 0.0
O8 O 0.08174 0.12178 0.02852 0.0
O9 O 0.17651 0.08972 0.06687 0.0
O10 O 0.18203 0.93303 0.0377 0.0
O11 O 0.11376 0.97079 0.9849 0.0
O12 O 0.908 0.11984 0.97811 0.0
O13 O 0.01572 0.12926 0.00672 0.0
O14 O 0.0618 0.99167 0.95453 0.0
O15 O 0.97704 0.03826 0.91427 0.0
C16 C 0.03234 0.00919 0.91993 0.0
O17 O 0.00687 0.98205 0.06032 0.0
O18 O 0.09791 0.97232 0.10756 0.0
C19 C 0.91019 0.93914 0.00493 0.0
C20 C 0.03504 0.96817 0.09588 0.0
Zn21 Zn 0.6757 0.51739 0.55352 0.0
Zn22 Zn 0.46071 0.46938 0.45935 0.0
Zn23 Zn 0.56005 0.50542 0.51235 0.0
C24 C 0.56059 0.45878 0.42258 0.0
C25 C 0.45168 0.60414 0.47613 0.0
O26 O 0.54937 0.46985 0.56878 0.0
O27 O 0.63959 0.52038 0.60197 0.0
C28 C 0.68815 0.41716 0.50732 0.0
O29 O 0.59006 0.47176 0.45828 0.0
O30 O 0.49776 0.45181 0.41323 0.0
O31 O 0.41865 0.55593 0.45991 0.0
O32 O 0.51159 0.59714 0.49658 0.0
O33 O 0.71988 0.43729 0.54023 0.0
O34 O 0.63231 0.44394 0.49094 0.0
O35 O 0.58018 0.60954 0.51775 0.0
O36 O 0.69047 0.60098 0.52898 0.0
C37 C 0.63843 0.63535 0.52056 0.0
O38 O 0.49432 0.44523 0.54043 0.0
O39 O 0.43095 0.39817 0.48847 0.0
C40 C 0.58522 0.49077 0.60128 0.0
C41 C 0.44939 0.40328 0.52507 0.0
H42 H 0.10465 0.91848 0.35427 0.0
H43 H 0.91527 0.98341 0.3739 0.0
H44 H 0.0714 0.92516 0.47042 0.0
C45 C 0.07193 0.9281 0.37392 0.0
C46 C 0.09601 0.91803 0.41397 0.0
C47 C 0.00601 0.94915 0.35875 0.0
C48 C 0.96609 0.96673 0.38486 0.0
C49 C 0.99072 0.95938 0.42528 0.0
C50 C 0.05456 0.93352 0.43944 0.0
N51 N 0.95134 0.97495 0.45235 0.0
C52 C 0.9084 0.02716 0.44778 0.0
H53 H 0.92292 0.95061 0.64801 0.0
H54 H 0.08282 0.08175 0.64106 0.0
H55 H 0.92089 0.04856 0.54093 0.0
C56 C 0.9461 0.98391 0.63137 0.0
C57 C 0.91459 0.99656 0.59258 0.0
C58 C 0.00709 0.01396 0.64888 0.0
C59 C 0.03621 0.05789 0.62736 0.0
C60 C 0.00518 0.07033 0.5882 0.0
C61 C 0.94475 0.03919 0.57104 0.0
N62 N 0.03283 0.11387 0.56517 0.0
C63 C 0.09416 0.14522 0.57732 0.0
H64 H 0.65809 0.45412 0.88039 0.0
H65 H 0.52976 0.61857 0.87467 0.0
H66 H 0.68456 0.586 0.97728 0.0
C67 C 0.64296 0.49674 0.89401 0.0
C68 C 0.67782 0.51509 0.93163 0.0
C69 C 0.5901 0.53408 0.87313 0.0
C70 C 0.57008 0.5892 0.8908 0.0
C71 C 0.60364 0.6072 0.9288 0.0
C72 C 0.65779 0.57066 0.94859 0.0
N73 N 0.58601 0.66288 0.94761 0.0
C74 C 0.5234 0.69173 0.93807 0.0
H75 H 0.44194 0.48165 0.16908 0.0
H76 H 0.58299 0.62283 0.14693 0.0
H77 H 0.40634 0.57648 0.0589 0.0
C78 C 0.45874 0.51497 0.14977 0.0
C79 C 0.41942 0.52189 0.11195 0.0
C80 C 0.51908 0.54937 0.16266 0.0
C81 C 0.53689 0.59556 0.13773 0.0
C82 C 0.49476 0.60676 0.10081 0.0
C83 C 0.43643 0.56977 0.08811 0.0
N84 N 0.51017 0.65402 0.07539 0.0
C85 C 0.57462 0.67675 0.07704 0.0
H86 H 0.2624 0.17246 0.09193 0.0
H87 H 0.08115 0.24723 0.01706 0.0
H88 H 0.13093 0.35656 0.0246 0.0
H89 H 0.2986 0.30492 0.15811 0.0
H90 H 0.38798 0.29923 0.16269 0.0
H91 H 0.33614 0.22835 0.15205 0.0
H92 H 0.38228 0.20694 0.09026 0.0
H93 H 0.43427 0.27772 0.10072 0.0
H94 H 0.37625 0.26891 0.05418 0.0
H95 H 0.20465 0.45926 0.04113 0.0
H96 H 0.29297 0.54186 0.06453 0.0
H97 H 0.42435 0.3935 0.12461 0.0
C98 C 0.23255 0.2116 0.0772 0.0
C99 C 0.16727 0.20116 0.05429 0.0
C100 C 0.13074 0.25403 0.03527 0.0
C101 C 0.15883 0.3163 0.03924 0.0
C102 C 0.22367 0.32455 0.06205 0.0
C103 C 0.25987 0.27325 0.08052 0.0
C104 C 0.32902 0.29323 0.10254 0.0
C105 C 0.33844 0.2807 0.14644 0.0
C106 C 0.38365 0.25972 0.08591 0.0
C107 C 0.32631 0.36409 0.09399 0.0
C108 C 0.26545 0.38187 0.07068 0.0
C109 C 0.25243 0.44565 0.0594 0.0
C110 C 0.30287 0.49216 0.07267 0.0
C111 C 0.36519 0.47434 0.09692 0.0
C112 C 0.37673 0.40923 0.10701 0.0
H113 H 0.22307 0.82016 0.02076 0.0
H114 H 0.19315 0.96543 0.93123 0.0
H115 H 0.27153 0.90801 0.89861 0.0
H116 H 0.39251 0.80971 0.03241 0.0
H117 H 0.39802 0.72454 0.04138 0.0
H118 H 0.32985 0.76944 0.05253 0.0
H119 H 0.24476 0.69239 0.00846 0.0
H120 H 0.31339 0.64731 0.99742 0.0
H121 H 0.24959 0.67963 0.95849 0.0
H122 H 0.3672 0.84419 0.88234 0.0
H123 H 0.4694 0.77929 0.88348 0.0
H124 H 0.43758 0.67816 0.98477 0.0
C125 C 0.23146 0.83875 0.99359 0.0
C126 C 0.20087 0.89626 0.97785 0.0
C127 C 0.21415 0.92013 0.94286 0.0
C128 C 0.25905 0.88805 0.92439 0.0
C129 C 0.28993 0.83222 0.94136 0.0
C130 C 0.27608 0.80751 0.97505 0.0
C131 C 0.32091 0.75127 0.99007 0.0
C132 C 0.3628 0.76463 0.03152 0.0
C133 C 0.27969 0.68896 0.98849 0.0
C134 C 0.36434 0.74975 0.96058 0.0
C135 C 0.34516 0.79604 0.93228 0.0
C136 C 0.38164 0.80692 0.90381 0.0
C137 C 0.43946 0.7701 0.90465 0.0
C138 C 0.45989 0.72362 0.93384 0.0
C139 C 0.42159 0.71269 0.9617 0.0
H140 H 0.84059 0.94406 0.06243 0.0
H141 H 0.90418 0.81594 0.98041 0.0
H142 H 0.83952 0.72708 0.00078 0.0
H143 H 0.82768 0.81889 0.13845 0.0
H144 H 0.75273 0.85496 0.14778 0.0
H145 H 0.81594 0.90446 0.13392 0.0
H146 H 0.72717 0.95 0.07642 0.0
H147 H 0.66347 0.90122 0.08988 0.0
H148 H 0.67769 0.8954 0.04128 0.0
H149 H 0.75815 0.65759 0.02272 0.0
H150 H 0.65537 0.61428 0.03962 0.0
H151 H 0.63737 0.78841 0.10445 0.0
C152 C 0.84246 0.89655 0.04995 0.0
C153 C 0.87778 0.88578 0.02049 0.0
C154 C 0.87767 0.82422 0.00339 0.0
C155 C 0.84163 0.77358 0.01499 0.0
C156 C 0.80568 0.78571 0.04349 0.0
C157 C 0.80545 0.84574 0.06069 0.0
C158 C 0.75448 0.84854 0.08596 0.0
C159 C 0.78982 0.85719 0.12909 0.0
C160 C 0.70264 0.90192 0.07255 0.0
C161 C 0.72315 0.7822 0.07821 0.0
C162 C 0.75533 0.74602 0.05484 0.0
C163 C 0.7329 0.68491 0.04137 0.0
C164 C 0.67475 0.6608 0.05099 0.0
C165 C 0.6397 0.69818 0.07332 0.0
C166 C 0.66461 0.75886 0.08785 0.0
H167 H 0.9457 0.24408 0.94069 0.0
H168 H 0.93302 0.21324 0.06001 0.0
H169 H 0.87612 0.31805 0.06057 0.0
H170 H 0.95881 0.43002 0.94693 0.0
H171 H 0.90785 0.43558 0.89816 0.0
H172 H 0.96453 0.36905 0.91121 0.0
H173 H 0.8653 0.29009 0.88753 0.0
H174 H 0.80806 0.35575 0.87537 0.0
H175 H 0.79272 0.29496 0.90855 0.0
H176 H 0.79686 0.40979 0.04257 0.0
H177 H 0.70885 0.48393 0.00931 0.0
H178 H 0.7757 0.45719 0.90177 0.0
C179 C 0.93438 0.26157 0.96753 0.0
C180 C 0.9449 0.22227 0.00062 0.0
C181 C 0.92688 0.24417 0.03486 0.0
C182 C 0.89441 0.30341 0.0353 0.0
C183 C 0.88123 0.33993 0.00135 0.0
C184 C 0.90216 0.32048 0.96832 0.0
C185 C 0.87352 0.36289 0.93395 0.0
C186 C 0.92952 0.40171 0.92186 0.0
C187 C 0.83247 0.32355 0.89937 0.0
C188 C 0.82903 0.40596 0.95185 0.0
C189 C 0.8352 0.39313 0.99094 0.0
C190 C 0.79318 0.42171 0.01231 0.0
C191 C 0.74321 0.46374 0.99314 0.0
C192 C 0.73524 0.47633 0.95287 0.0
C193 C 0.78015 0.44829 0.93249 0.0
H194 H 0.72597 0.69781 0.48647 0.0
H195 H 0.57802 0.72816 0.55525 0.0
H196 H 0.61957 0.83913 0.56994 0.0
H197 H 0.85328 0.7617 0.54725 0.0
H198 H 0.89449 0.80071 0.51341 0.0
H199 H 0.84062 0.73291 0.49768 0.0
H200 H 0.76868 0.79982 0.44205 0.0
H201 H 0.82327 0.86805 0.45722 0.0
H202 H 0.73415 0.87545 0.45314 0.0
H203 H 0.69675 0.93084 0.59257 0.0
H204 H 0.79628 0.00049 0.61584 0.0
H205 H 0.89316 0.91423 0.53082 0.0
C206 C 0.70008 0.72931 0.50278 0.0
C207 C 0.64778 0.70537 0.51897 0.0
C208 C 0.61627 0.74656 0.54136 0.0
C209 C 0.64011 0.80952 0.55011 0.0
C210 C 0.69462 0.83063 0.53562 0.0
C211 C 0.72309 0.79229 0.51144 0.0
C212 C 0.787 0.82219 0.50436 0.0
C213 C 0.84733 0.77668 0.51644 0.0
C214 C 0.77769 0.8426 0.46165 0.0
C215 C 0.79337 0.88027 0.53105 0.0
C216 C 0.73889 0.88513 0.5482 0.0
C217 C 0.73833 0.92906 0.57825 0.0
C218 C 0.79507 0.96811 0.59146 0.0
C219 C 0.85135 0.96309 0.57453 0.0
C220 C 0.84964 0.92006 0.54326 0.0
H221 H 0.81204 0.3609 0.52824 0.0
H222 H 0.61989 0.34403 0.44573 0.0
H223 H 0.65879 0.2465 0.4179 0.0
H224 H 0.91714 0.29952 0.46435 0.0
H225 H 0.97124 0.25632 0.50321 0.0
H226 H 0.93066 0.32887 0.51381 0.0
H227 H 0.87861 0.26698 0.56367 0.0
H228 H 0.9191 0.19461 0.55305 0.0
H229 H 0.82949 0.19546 0.54811 0.0
H230 H 0.71491 0.1449 0.40279 0.0
H231 H 0.78601 0.04873 0.40116 0.0
H232 H 0.94058 0.1318 0.49314 0.0
C233 C 0.77852 0.3374 0.50386 0.0
C234 C 0.71336 0.36128 0.48862 0.0
C235 C 0.67071 0.32824 0.45717 0.0
C236 C 0.69218 0.27225 0.44133 0.0
C237 C 0.75638 0.24966 0.45734 0.0
C238 C 0.79905 0.28132 0.48782 0.0
C239 C 0.86403 0.24498 0.50132 0.0
C240 C 0.92433 0.28481 0.49529 0.0
C241 C 0.87329 0.22429 0.54406 0.0
C242 C 0.85094 0.18769 0.47392 0.0
C243 C 0.78859 0.19118 0.44872 0.0
C244 C 0.76415 0.14201 0.42204 0.0
C245 C 0.80455 0.08777 0.42129 0.0
C246 C 0.86816 0.08379 0.44696 0.0
C247 C 0.89192 0.13437 0.47321 0.0
H248 H 0.40343 0.28221 0.50832 0.0
H249 H 0.41309 0.43562 0.59318 0.0
H250 H 0.33393 0.37546 0.62387 0.0
H251 H 0.23672 0.26001 0.48998 0.0
H252 H 0.23653 0.17395 0.4837 0.0
H253 H 0.30515 0.22093 0.47464 0.0
H254 H 0.38954 0.15336 0.52435 0.0
H255 H 0.321 0.10537 0.53326 0.0
H256 H 0.37793 0.14467 0.57329 0.0
H257 H 0.23696 0.30845 0.63641 0.0
H258 H 0.13598 0.23919 0.63124 0.0
H259 H 0.19051 0.13101 0.53773 0.0
C260 C 0.39078 0.30197 0.53429 0.0
C261 C 0.41507 0.36288 0.54891 0.0
C262 C 0.39644 0.38812 0.58231 0.0
C263 C 0.35117 0.35441 0.5997 0.0
C264 C 0.32579 0.29543 0.58345 0.0
C265 C 0.34593 0.26904 0.55179 0.0
C266 C 0.30603 0.20917 0.53669 0.0
C267 C 0.26892 0.21653 0.49374 0.0
C268 C 0.35134 0.14962 0.54225 0.0
C269 C 0.25769 0.20762 0.56338 0.0
C270 C 0.27036 0.25702 0.59066 0.0
C271 C 0.22779 0.26868 0.61589 0.0
C272 C 0.17065 0.22939 0.61276 0.0
C273 C 0.15695 0.17969 0.58455 0.0
C274 C 0.20135 0.168 0.56012 0.0
H275 H 0.36108 0.64359 0.41292 0.0
H276 H 0.46414 0.70424 0.52884 0.0
H277 H 0.39217 0.80112 0.52298 0.0
H278 H 0.32618 0.80654 0.36967 0.0
H279 H 0.24506 0.78081 0.34191 0.0
H280 H 0.31333 0.72444 0.35284 0.0
H281 H 0.23991 0.64834 0.38413 0.0
H282 H 0.17189 0.70453 0.3737 0.0
H283 H 0.20376 0.6782 0.423 0.0
H284 H 0.29651 0.88284 0.50704 0.0
H285 H 0.1908 0.94207 0.4823 0.0
H286 H 0.14992 0.82087 0.37873 0.0
C287 C 0.36985 0.67827 0.43665 0.0
C288 C 0.41873 0.66731 0.47111 0.0
C289 C 0.42826 0.71302 0.50179 0.0
C290 C 0.38719 0.76777 0.49876 0.0
C291 C 0.33752 0.77587 0.46474 0.0
C292 C 0.32949 0.73249 0.43407 0.0
C293 C 0.26879 0.7476 0.40227 0.0
C294 C 0.28961 0.76596 0.36444 0.0
C295 C 0.21813 0.69135 0.39542 0.0
C296 C 0.24204 0.80486 0.42032 0.0
C297 C 0.28256 0.8214 0.45603 0.0
C298 C 0.26503 0.87074 0.47885 0.0
C299 C 0.20457 0.90369 0.46474 0.0
C300 C 0.16213 0.88661 0.42835 0.0
C301 C 0.18185 0.83667 0.40607 0.0
H302 H 0.05243 0.87338 0.14945 0.0
H303 H 0.93189 0.04015 0.10915 0.0
H304 H 0.89195 0.04263 0.17045 0.0
H305 H 0.92946 0.80301 0.20876 0.0
H306 H -0.00012 0.77407 0.2449 0.0
H307 H 0.00395 0.77584 0.1943 0.0
H308 H 0.11341 0.84324 0.21304 0.0
H309 H 0.10913 0.84321 0.2633 0.0
H310 H 0.11295 0.91842 0.23882 0.0
H311 H 0.89295 0.04507 0.24232 0.0
H312 H 0.92235 0.03812 0.31424 0.0
H313 H 0.03153 0.86225 0.30543 0.0
C314 C 0.01475 0.90809 0.15281 0.0
C315 C 0.99465 0.9562 0.1248 0.0
C316 C 0.94676 0.00221 0.13017 0.0
C317 C 0.92411 0.0041 0.16498 0.0
C318 C 0.94815 0.95821 0.19333 0.0
C319 C 0.99045 0.90945 0.18689 0.0
C320 C 0.01475 0.87003 0.22317 0.0
C321 C 0.98523 0.80168 0.21744 0.0
C322 C 0.09208 0.86875 0.23527 0.0
C323 C 0.98499 0.90783 0.25195 0.0
C324 C 0.94581 0.95794 0.23429 0.0
C325 C 0.92143 0.00458 0.25625 0.0
C326 C 0.93846 0.00034 0.29716 0.0
C327 C 0.97976 0.94994 0.31567 0.0
C328 C 0.00063 0.90195 0.29239 0.0
H329 H 0.05593 0.09793 0.86979 0.0
H330 H 0.06662 0.89378 0.89237 0.0
H331 H 0.08439 0.8736 0.82593 0.0
H332 H 0.95908 0.09014 0.78146 0.0
H333 H 0.99673 0.15439 0.75957 0.0
H334 H 0.00379 0.15424 0.81124 0.0
H335 H 0.13343 0.15964 0.82325 0.0
H336 H 0.1269 0.16083 0.77134 0.0
H337 H 0.17741 0.10078 0.80075 0.0
H338 H 0.07193 0.87481 0.75351 0.0
H339 H 0.03881 0.89732 0.68293 0.0
H340 H 0.03972 0.10138 0.7079 0.0
C341 C 0.06538 0.04933 0.86123 0.0
C342 C 0.06129 0.99739 0.88601 0.0
C343 C 0.07131 0.9341 0.87387 0.0
C344 C 0.08125 0.92238 0.83622 0.0
C345 C 0.08181 0.97468 0.81159 0.0
C346 C 0.07565 0.03715 0.82399 0.0
C347 C 0.0688 0.08427 0.79081 0.0
C348 C 0.00322 0.12294 0.78547 0.0
C349 C 0.13032 0.12901 0.7969 0.0
C350 C 0.06714 0.03834 0.75716 0.0
C351 C 0.07593 0.9754 0.76975 0.0
C352 C 0.06728 0.92395 0.74346 0.0
C353 C 0.04814 0.93708 0.7035 0.0
C354 C 0.03792 0.0011 0.69025 0.0
C355 C 0.04937 0.05224 0.71739 0.0
H356 H 0.58463 0.58667 0.65267 0.0
H357 H 0.53674 0.38469 0.63243 0.0
H358 H 0.51356 0.3771 0.69858 0.0
H359 H 0.67351 0.57498 0.74593 0.0
H360 H 0.64465 0.64889 0.76345 0.0
H361 H 0.64544 0.64004 0.71282 0.0
H362 H 0.51858 0.66691 0.6938 0.0
H363 H 0.5174 0.67593 0.74459 0.0
H364 H 0.46005 0.6208 0.7141 0.0
H365 H 0.51653 0.38864 0.77076 0.0
H366 H 0.54091 0.41844 0.84077 0.0
H367 H 0.58201 0.61419 0.81196 0.0
C368 C 0.56752 0.54125 0.66189 0.0
C369 C 0.56188 0.4863 0.63773 0.0
C370 C 0.54022 0.42742 0.65055 0.0
C371 C 0.52707 0.42283 0.68799 0.0
C372 C 0.53479 0.4779 0.71163 0.0
C373 C 0.5535 0.53625 0.69871 0.0
C374 C 0.56408 0.5871 0.73043 0.0
C375 C 0.63618 0.61427 0.73863 0.0
C376 C 0.5119 0.64086 0.7201 0.0
C377 C 0.55207 0.54764 0.76405 0.0
C378 C 0.53438 0.48493 0.75265 0.0
C379 C 0.52846 0.43796 0.77974 0.0
C380 C 0.54249 0.45521 0.81939 0.0
C381 C 0.56203 0.51886 0.8315 0.0
C382 C 0.56491 0.5658 0.80332 0.0
H383 H 0.54981 0.38056 0.3592 0.0
H384 H 0.6488 0.55187 0.41487 0.0
H385 H 0.67453 0.58496 0.35274 0.0
H386 H 0.66692 0.36369 0.28393 0.0
H387 H 0.5961 0.3335 0.248 0.0
H388 H 0.60469 0.31413 0.29871 0.0
H389 H 0.48566 0.35894 0.29541 0.0
H390 H 0.47718 0.38001 0.24537 0.0
H391 H 0.4673 0.44084 0.28033 0.0
H392 H 0.65056 0.61688 0.2831 0.0
H393 H 0.59856 0.63488 0.21398 0.0
H394 H 0.53461 0.435 0.20225 0.0
C395 C 0.58061 0.42283 0.35863 0.0
C396 C 0.59767 0.46359 0.39149 0.0
C397 C 0.63643 0.51952 0.39 0.0
C398 C 0.651 0.53882 0.35475 0.0
C399 C 0.62895 0.50009 0.32184 0.0
C400 C 0.59745 0.44152 0.3239 0.0
C401 C 0.57191 0.41252 0.28373 0.0
C402 C 0.61234 0.3524 0.27827 0.0
C403 C 0.49607 0.39729 0.27579 0.0
C404 C 0.58674 0.46714 0.25875 0.0
C405 C 0.6204 0.51697 0.28111 0.0
C406 C 0.62716 0.57711 0.26502 0.0
C407 C 0.59732 0.58696 0.22551 0.0
C408 C 0.56154 0.53668 0.20231 0.0
C409 C 0.56016 0.47516 0.21901 0.0
loop_
_geom_bond_atom_site_label_1
_geom_bond_atom_site_label_2
_geom_bond_distance
_geom_bond_site_symmetry_2
_ccdc_geom_bond_type
Zn0 O6 1.920 1_545 S
Zn0 O12 1.898 . S
Zn0 O15 1.905 1_545 S
Zn1 O9 1.905 . S
Zn1 O10 1.898 1_545 S
Zn1 O18 1.920 1_545 S
Zn2 O5 2.080 1_445 S
Zn2 O8 2.114 . S
Zn2 O11 2.120 1_545 S
Zn2 O13 2.120 1_455 S
Zn2 O14 2.114 1_554 S
Zn2 O17 2.080 . S
C3 O8 1.166 . S
C3 O9 1.182 . S
C4 O10 1.167 . S
C4 O11 1.299 . S
O5 Zn2 2.080 1_665 S
O5 C19 1.305 . S
O6 Zn0 1.920 1_565 S
O6 C19 1.234 1_556 S
C7 O12 1.167 . S
C7 O13 1.299 1_556 S
O8 Zn2 2.114 . S
O8 C3 1.166 . S
O9 Zn1 1.905 . S
O9 C3 1.182 . S
O10 Zn1 1.898 1_565 S
O10 C4 1.167 . S
O11 Zn2 2.120 1_565 S
O11 C4 1.299 . S
O12 Zn0 1.898 . S
O12 C7 1.167 . S
O13 Zn2 2.120 1_655 S
O13 C7 1.299 1_554 S
O14 Zn2 2.114 1_556 S
O14 C16 1.161 1_445 S
O15 Zn0 1.905 1_565 S
O15 C16 1.195 . S
C16 O14 1.161 1_665 S
C16 O15 1.195 . S
O17 Zn2 2.080 . S
O17 C20 1.305 1_545 S
O18 Zn1 1.920 1_565 S
O18 C20 1.234 . S
C19 O5 1.305 . S
C19 O6 1.234 1_554 S
C20 O17 1.305 1_565 S
C20 O18 1.234 . S
Zn21 O27 1.920 . S
Zn21 O33 1.898 . S
Zn21 O36 1.905 . S
Zn22 O30 1.905 . S
Zn22 O31 1.898 . S
Zn22 O39 1.920 . S
Zn23 O26 2.080 . S
Zn23 O29 2.114 . S
Zn23 O32 2.120 . S
Zn23 O34 2.120 . S
Zn23 O35 2.114 . S
Zn23 O38 2.080 . S
C24 O29 1.166 . S
C24 O30 1.182 . S
C25 O31 1.167 . S
C25 O32 1.299 . S
O26 Zn23 2.080 . S
O26 C40 1.305 . S
O27 Zn21 1.920 . S
O27 C40 1.234 . S
C28 O33 1.167 . S
C28 O34 1.299 . S
O29 Zn23 2.114 . S
O29 C24 1.166 . S
O30 Zn22 1.905 . S
O30 C24 1.182 . S
O31 Zn22 1.898 . S
O31 C25 1.167 . S
O32 Zn23 2.120 . S
O32 C25 1.299 . S
O33 Zn21 1.898 . S
O33 C28 1.167 . S
O34 Zn23 2.120 . S
O34 C28 1.299 . S
O35 Zn23 2.114 . S
O35 C37 1.166 . S
O36 Zn21 1.905 . S
O36 C37 1.182 . S
C37 O35 1.166 . S
C37 O36 1.182 . S
O38 Zn23 2.080 . S
O38 C41 1.305 . S
O39 Zn22 1.920 . S
O39 C41 1.234 . S
C40 O26 1.305 . S
C40 O27 1.234 . S
C41 O38 1.305 . S
C41 O39 1.234 . S
H42 C45 0.929 . S
H43 C48 0.929 . S
H44 C50 0.930 1_565 S
C45 H42 0.929 . S
C45 C46 1.398 . S
C45 C47 1.396 1_565 S
C46 C45 1.398 . S
C46 C50 1.407 1_565 S
C47 C45 1.396 1_545 S
C47 C48 1.394 . S
C48 H43 0.929 . S
C48 C47 1.394 . S
C48 C49 1.382 . S
C49 C48 1.382 . S
C49 C50 1.392 . S
C49 N51 1.420 . S
C50 H44 0.930 1_545 S
C50 C46 1.407 1_545 S
C50 C49 1.392 . S
N51 C49 1.420 . S
N51 C52 1.244 . S
C52 N51 1.244 . S
H53 C56 0.929 . S
H54 C59 0.929 . S
H55 C61 0.930 . S
C56 H53 0.929 . S
C56 C57 1.398 . S
C56 C58 1.396 1_565 S
C57 C56 1.398 . S
C57 C61 1.407 . S
C58 C56 1.396 1_545 S
C58 C59 1.394 1_655 S
C59 H54 0.929 . S
C59 C58 1.394 1_455 S
C59 C60 1.382 . S
C60 C59 1.382 . S
C60 C61 1.392 1_445 S
C60 N62 1.420 . S
C61 H55 0.930 . S
C61 C57 1.407 . S
C61 C60 1.392 1_665 S
N62 C60 1.420 . S
N62 C63 1.244 . S
C63 N62 1.244 . S
H64 C67 0.929 . S
H65 C70 0.929 . S
H66 C72 0.930 . S
C67 H64 0.929 . S
C67 C68 1.398 . S
C67 C69 1.396 . S
C68 C67 1.398 . S
C68 C72 1.407 . S
C69 C67 1.396 . S
C69 C70 1.394 . S
C70 H65 0.929 . S
C70 C69 1.394 . S
C70 C71 1.382 . S
C71 C70 1.382 . S
C71 C72 1.392 . S
C71 N73 1.420 . S
C72 H66 0.930 . S
C72 C68 1.407 . S
C72 C71 1.392 . S
N73 C71 1.420 . S
N73 C74 1.244 . S
C74 N73 1.244 . S
H75 C78 0.929 . S
H76 C81 0.929 . S
H77 C83 0.930 . S
C78 H75 0.929 . S
C78 C79 1.398 . S
C78 C80 1.396 . S
C79 C78 1.398 . S
C79 C83 1.407 . S
C80 C78 1.396 . S
C80 C81 1.394 . S
C81 H76 0.929 . S
C81 C80 1.394 . S
C81 C82 1.382 . S
C82 C81 1.382 . S
C82 C83 1.392 . S
C82 N84 1.420 . S
C83 H77 0.930 . S
C83 C79 1.407 . S
C83 C82 1.392 . S
N84 C82 1.420 . S
N84 C85 1.244 . S
C85 N84 1.244 . S
H86 C98 0.930 1_556 S
H87 C100 0.930 . S
H88 C101 0.930 . S
H89 C105 0.959 . S
H90 C105 0.959 . S
H91 C105 0.961 . S
H92 C106 0.960 . S
H93 C106 0.961 . S
H94 C106 0.956 1_554 S
H95 C109 0.929 . S
H96 C110 0.931 . S
H97 C112 0.930 . S
C98 H86 0.930 1_554 S
C98 C99 1.399 . S
C98 C103 1.399 . S
C99 C98 1.399 . S
C99 C100 1.376 . S
C100 H87 0.930 . S
C100 C99 1.376 . S
C100 C101 1.388 . S
C101 H88 0.930 . S
C101 C100 1.388 . S
C101 C102 1.390 . S
C102 C101 1.390 . S
C102 C103 1.394 . S
C102 C108 1.465 . S
C103 C98 1.399 . S
C103 C102 1.394 . S
C103 C104 1.516 . S
C104 C103 1.516 . S
C104 C105 1.502 1_554 S
C104 C106 1.561 1_554 S
C104 C107 1.526 . S
C105 H89 0.959 . S
C105 H90 0.959 . S
C105 H91 0.961 . S
C105 C104 1.502 1_556 S
C106 H92 0.960 . S
C106 H93 0.961 . S
C106 H94 0.956 1_556 S
C106 C104 1.561 1_556 S
C107 C104 1.526 . S
C107 C108 1.396 . S
C107 C112 1.390 . S
C108 C102 1.465 . S
C108 C107 1.396 . S
C108 C109 1.399 . S
C109 H95 0.929 . S
C109 C108 1.399 . S
C109 C110 1.385 . S
C110 H96 0.931 . S
C110 C109 1.385 . S
C110 C111 1.389 . S
C111 C110 1.389 . S
C111 C112 1.387 . S
C112 H97 0.930 . S
C112 C107 1.390 . S
C112 C111 1.387 . S
H113 C125 0.930 . S
H114 C127 0.930 . S
H115 C128 0.930 . S
H116 C132 0.959 . S
H117 C132 0.959 . S
H118 C132 0.961 . S
H119 C133 0.960 . S
H120 C133 0.961 . S
H121 C133 0.959 . S
H122 C136 0.929 . S
H123 C137 0.931 . S
H124 C139 0.930 1_554 S
C125 H113 0.930 . S
C125 C126 1.399 1_554 S
C125 C130 1.399 . S
C126 C125 1.399 1_556 S
C126 C127 1.376 . S
C127 H114 0.930 . S
C127 C126 1.376 . S
C127 C128 1.388 . S
C128 H115 0.930 . S
C128 C127 1.388 . S
C128 C129 1.390 . S
C129 C128 1.390 . S
C129 C130 1.394 1_556 S
C129 C135 1.465 . S
C130 C125 1.399 . S
C130 C129 1.394 1_554 S
C130 C131 1.516 . S
C131 C130 1.516 . S
C131 C132 1.502 . S
C131 C133 1.561 . S
C131 C134 1.526 1_554 S
C132 H116 0.959 . S
C132 H117 0.959 . S
C132 H118 0.961 . S
C132 C131 1.502 . S
C133 H119 0.960 . S
C133 H120 0.961 . S
C133 H121 0.959 . S
C133 C131 1.561 . S
C134 C131 1.526 1_556 S
C134 C135 1.396 . S
C134 C139 1.390 . S
C135 C129 1.465 . S
C135 C134 1.396 . S
C135 C136 1.399 . S
C136 H122 0.929 . S
C136 C135 1.399 . S
C136 C137 1.385 . S
C137 H123 0.931 . S
C137 C136 1.385 . S
C137 C138 1.389 . S
C138 C137 1.389 . S
C138 C139 1.387 . S
C139 H124 0.930 1_556 S
C139 C134 1.390 . S
C139 C138 1.387 . S
H140 C152 0.930 . S
H141 C154 0.930 . S
H142 C155 0.930 . S
H143 C159 0.959 . S
H144 C159 0.959 . S
H145 C159 0.961 . S
H146 C160 0.960 . S
H147 C160 0.961 . S
H148 C160 0.959 . S
H149 C163 0.950 . S
H150 C164 0.931 1_556 S
H151 C166 0.930 . S
C152 H140 0.930 . S
C152 C153 1.399 . S
C152 C157 1.399 . S
C153 C152 1.399 . S
C153 C154 1.376 1_554 S
C154 H141 0.930 . S
C154 C153 1.376 1_556 S
C154 C155 1.388 . S
C155 H142 0.930 . S
C155 C154 1.388 . S
C155 C156 1.390 1_556 S
C156 C155 1.390 1_554 S
C156 C157 1.394 . S
C156 C162 1.465 . S
C157 C152 1.399 . S
C157 C156 1.394 . S
C157 C158 1.516 . S
C158 C157 1.516 . S
C158 C159 1.502 . S
C158 C160 1.561 . S
C158 C161 1.526 . S
C159 H143 0.959 . S
C159 H144 0.959 . S
C159 H145 0.961 . S
C159 C158 1.502 . S
C160 H146 0.960 . S
C160 H147 0.961 . S
C160 H148 0.959 . S
C160 C158 1.561 . S
C161 C158 1.526 . S
C161 C162 1.396 . S
C161 C166 1.390 . S
C162 C156 1.465 . S
C162 C161 1.396 . S
C162 C163 1.389 1_554 S
C163 H149 0.950 . S
C163 C162 1.389 1_556 S
C163 C164 1.375 1_556 S
C164 H150 0.931 1_554 S
C164 C163 1.375 1_554 S
C164 C165 1.389 . S
C165 C164 1.389 . S
C165 C166 1.387 . S
C166 H151 0.930 . S
C166 C161 1.390 . S
C166 C165 1.387 . S
H167 C179 0.930 . S
H168 C181 0.930 . S
H169 C182 0.930 . S
H170 C186 0.959 . S
H171 C186 0.959 . S
H172 C186 0.961 . S
H173 C187 0.960 . S
H174 C187 0.961 . S
H175 C187 0.959 . S
H176 C190 0.929 1_554 S
H177 C191 0.931 . S
H178 C193 0.930 . S
C179 H167 0.930 . S
C179 C180 1.399 . S
C179 C184 1.399 . S
C180 C179 1.399 . S
C180 C181 1.376 1_556 S
C181 H168 0.930 . S
C181 C180 1.376 1_554 S
C181 C182 1.388 . S
C182 H169 0.930 . S
C182 C181 1.388 . S
C182 C183 1.390 1_554 S
C183 C182 1.390 1_556 S
C183 C184 1.394 . S
C183 C189 1.465 . S
C184 C179 1.399 . S
C184 C183 1.394 . S
C184 C185 1.516 . S
C185 C184 1.516 . S
C185 C186 1.502 . S
C185 C187 1.561 . S
C185 C188 1.526 . S
C186 H170 0.959 . S
C186 H171 0.959 . S
C186 H172 0.961 . S
C186 C185 1.502 . S
C187 H173 0.960 . S
C187 H174 0.961 . S
C187 H175 0.959 . S
C187 C185 1.561 . S
C188 C185 1.526 . S
C188 C189 1.396 . S
C188 C193 1.390 . S
C189 C183 1.465 . S
C189 C188 1.396 . S
C189 C190 1.399 . S
C190 H176 0.929 1_556 S
C190 C189 1.399 . S
C190 C191 1.385 . S
C191 H177 0.931 . S
C191 C190 1.385 . S
C191 C192 1.389 . S
C192 C191 1.389 . S
C192 C193 1.387 . S
C193 H178 0.930 . S
C193 C188 1.390 . S
C193 C192 1.387 . S
H194 C206 0.930 . S
H195 C208 0.930 . S
H196 C209 0.930 . S
H197 C213 0.959 . S
H198 C213 0.959 . S
H199 C213 0.961 . S
H200 C214 0.960 . S
H201 C214 0.961 . S
H202 C214 0.959 . S
H203 C217 0.929 . S
H204 C218 0.931 . S
H205 C220 0.930 . S
C206 H194 0.930 . S
C206 C207 1.399 . S
C206 C211 1.399 . S
C207 C206 1.399 . S
C207 C208 1.376 . S
C208 H195 0.930 . S
C208 C207 1.376 . S
C208 C209 1.388 . S
C209 H196 0.930 . S
C209 C208 1.388 . S
C209 C210 1.390 . S
C210 C209 1.390 . S
C210 C211 1.394 . S
C210 C216 1.465 . S
C211 C206 1.399 . S
C211 C210 1.394 . S
C211 C212 1.516 . S
C212 C211 1.516 . S
C212 C213 1.502 . S
C212 C214 1.561 . S
C212 C215 1.526 . S
C213 H197 0.959 . S
C213 H198 0.959 . S
C213 H199 0.961 . S
C213 C212 1.502 . S
C214 H200 0.960 . S
C214 H201 0.961 . S
C214 H202 0.959 . S
C214 C212 1.561 . S
C215 C212 1.526 . S
C215 C216 1.396 . S
C215 C220 1.390 . S
C216 C210 1.465 . S
C216 C215 1.396 . S
C216 C217 1.399 . S
C217 H203 0.929 . S
C217 C216 1.399 . S
C217 C218 1.385 . S
C218 H204 0.931 . S
C218 C217 1.385 . S
C218 C219 1.389 . S
C219 C218 1.389 . S
C219 C220 1.387 . S
C220 H205 0.930 . S
C220 C215 1.390 . S
C220 C219 1.387 . S
H221 C233 0.930 . S
H222 C235 0.930 . S
H223 C236 0.930 . S
H224 C240 0.959 . S
H225 C240 0.959 . S
H226 C240 0.961 . S
H227 C241 0.960 . S
H228 C241 0.961 . S
H229 C241 0.959 . S
H230 C244 0.929 . S
H231 C245 0.931 . S
H232 C247 0.930 . S
C233 H221 0.930 . S
C233 C234 1.399 . S
C233 C238 1.399 . S
C234 C233 1.399 . S
C234 C235 1.376 . S
C235 H222 0.930 . S
C235 C234 1.376 . S
C235 C236 1.388 . S
C236 H223 0.930 . S
C236 C235 1.388 . S
C236 C237 1.390 . S
C237 C236 1.390 . S
C237 C238 1.394 . S
C237 C243 1.465 . S
C238 C233 1.399 . S
C238 C237 1.394 . S
C238 C239 1.516 . S
C239 C238 1.516 . S
C239 C240 1.502 . S
C239 C241 1.561 . S
C239 C242 1.526 . S
C240 H224 0.959 . S
C240 H225 0.959 . S
C240 H226 0.961 . S
C240 C239 1.502 . S
C241 H227 0.960 . S
C241 H228 0.961 . S
C241 H229 0.959 . S
C241 C239 1.561 . S
C242 C239 1.526 . S
C242 C243 1.396 . S
C242 C247 1.390 . S
C243 C237 1.465 . S
C243 C242 1.396 . S
C243 C244 1.399 . S
C244 H230 0.929 . S
C244 C243 1.399 . S
C244 C245 1.385 . S
C245 H231 0.931 . S
C245 C244 1.385 . S
C245 C246 1.389 . S
C246 C245 1.389 . S
C246 C247 1.387 . S
C247 H232 0.930 . S
C247 C242 1.390 . S
C247 C246 1.387 . S
H248 C260 0.930 . S
H249 C262 0.930 . S
H250 C263 0.930 . S
H251 C267 0.959 . S
H252 C267 0.959 . S
H253 C267 0.961 . S
H254 C268 0.960 . S
H255 C268 0.961 . S
H256 C268 0.959 . S
H257 C271 0.929 . S
H258 C272 0.931 . S
H259 C274 0.930 . S
C260 H248 0.930 . S
C260 C261 1.399 . S
C260 C265 1.399 . S
C261 C260 1.399 . S
C261 C262 1.376 . S
C262 H249 0.930 . S
C262 C261 1.376 . S
C262 C263 1.388 . S
C263 H250 0.930 . S
C263 C262 1.388 . S
C263 C264 1.390 . S
C264 C263 1.390 . S
C264 C265 1.394 . S
C264 C270 1.465 . S
C265 C260 1.399 . S
C265 C264 1.394 . S
C265 C266 1.516 . S
C266 C265 1.516 . S
C266 C267 1.502 . S
C266 C268 1.561 . S
C266 C269 1.526 . S
C267 H251 0.959 . S
C267 H252 0.959 . S
C267 H253 0.961 . S
C267 C266 1.502 . S
C268 H254 0.960 . S
C268 H255 0.961 . S
C268 H256 0.959 . S
C268 C266 1.561 . S
C269 C266 1.526 . S
C269 C270 1.396 . S
C269 C274 1.390 . S
C270 C264 1.465 . S
C270 C269 1.396 . S
C270 C271 1.399 . S
C271 H257 0.929 . S
C271 C270 1.399 . S
C271 C272 1.385 . S
C272 H258 0.931 . S
C272 C271 1.385 . S
C272 C273 1.389 . S
C273 C272 1.389 . S
C273 C274 1.387 . S
C274 H259 0.930 . S
C274 C269 1.390 . S
C274 C273 1.387 . S
H275 C287 0.930 . S
H276 C289 0.930 . S
H277 C290 0.930 . S
H278 C294 0.959 . S
H279 C294 0.959 . S
H280 C294 0.961 . S
H281 C295 0.960 . S
H282 C295 0.961 . S
H283 C295 0.959 . S
H284 C298 0.929 . S
H285 C299 0.931 . S
H286 C301 0.930 . S
C287 H275 0.930 . S
C287 C288 1.399 . S
C287 C292 1.399 . S
C288 C287 1.399 . S
C288 C289 1.376 . S
C289 H276 0.930 . S
C289 C288 1.376 . S
C289 C290 1.388 . S
C290 H277 0.930 . S
C290 C289 1.388 . S
C290 C291 1.390 . S
C291 C290 1.390 . S
C291 C292 1.394 . S
C291 C297 1.465 . S
C292 C287 1.399 . S
C292 C291 1.394 . S
C292 C293 1.516 . S
C293 C292 1.516 . S
C293 C294 1.502 . S
C293 C295 1.561 . S
C293 C296 1.526 . S
C294 H278 0.959 . S
C294 H279 0.959 . S
C294 H280 0.961 . S
C294 C293 1.502 . S
C295 H281 0.960 . S
C295 H282 0.961 . S
C295 H283 0.959 . S
C295 C293 1.561 . S
C296 C293 1.526 . S
C296 C297 1.396 . S
C296 C301 1.390 . S
C297 C291 1.465 . S
C297 C296 1.396 . S
C297 C298 1.399 . S
C298 H284 0.929 . S
C298 C297 1.399 . S
C298 C299 1.385 . S
C299 H285 0.931 . S
C299 C298 1.385 . S
C299 C300 1.389 . S
C300 C299 1.389 . S
C300 C301 1.387 . S
C301 H286 0.930 . S
C301 C296 1.390 . S
C301 C300 1.387 . S
H302 C314 0.930 . S
H303 C316 0.930 . S
H304 C317 0.930 . S
H305 C321 0.959 . S
H306 C321 0.959 . S
H307 C321 0.961 . S
H308 C322 0.960 . S
H309 C322 0.961 . S
H310 C322 0.959 . S
H311 C325 0.929 . S
H312 C326 0.931 . S
H313 C328 0.930 . S
C314 H302 0.930 . S
C314 C315 1.399 . S
C314 C319 1.399 . S
C315 C314 1.399 . S
C315 C316 1.376 1_565 S
C316 H303 0.930 . S
C316 C315 1.376 1_545 S
C316 C317 1.388 . S
C317 H304 0.930 . S
C317 C316 1.388 . S
C317 C318 1.390 . S
C318 C317 1.390 . S
C318 C319 1.394 1_545 S
C318 C324 1.465 . S
C319 C314 1.399 . S
C319 C318 1.394 1_565 S
C319 C320 1.516 . S
C320 C319 1.516 . S
C320 C321 1.502 1_455 S
C320 C322 1.561 . S
C320 C323 1.526 . S
C321 H305 0.959 . S
C321 H306 0.959 . S
C321 H307 0.961 . S
C321 C320 1.502 1_655 S
C322 H308 0.960 . S
C322 H309 0.961 . S
C322 H310 0.959 . S
C322 C320 1.561 . S
C323 C320 1.526 . S
C323 C324 1.396 1_565 S
C323 C328 1.390 . S
C324 C318 1.465 . S
C324 C323 1.396 1_545 S
C324 C325 1.399 . S
C325 H311 0.929 . S
C325 C324 1.399 . S
C325 C326 1.385 . S
C326 H312 0.931 . S
C326 C325 1.385 . S
C326 C327 1.389 . S
C327 C326 1.389 . S
C327 C328 1.387 1_545 S
C328 H313 0.930 . S
C328 C323 1.390 . S
C328 C327 1.387 1_565 S
H329 C341 0.930 1_655 S
H330 C343 0.930 . S
H331 C344 0.930 . S
H332 C348 0.959 . S
H333 C348 0.959 . S
H334 C348 0.961 . S
H335 C349 0.960 . S
H336 C349 0.961 . S
H337 C349 0.959 . S
H338 C352 0.929 . S
H339 C353 0.931 . S
H340 C355 0.930 . S
C341 H329 0.930 1_455 S
C341 C342 1.399 1_545 S
C341 C346 1.399 . S
C342 C341 1.399 1_565 S
C342 C343 1.376 . S
C343 H330 0.930 . S
C343 C342 1.376 . S
C343 C344 1.388 . S
C344 H331 0.930 . S
C344 C343 1.388 . S
C344 C345 1.390 . S
C345 C344 1.390 . S
C345 C346 1.394 1_565 S
C345 C351 1.465 . S
C346 C341 1.399 . S
C346 C345 1.394 1_545 S
C346 C347 1.516 1_455 S
C347 C346 1.516 1_655 S
C347 C348 1.502 . S
C347 C349 1.561 1_655 S
C347 C350 1.526 . S
C348 H332 0.959 . S
C348 H333 0.959 . S
C348 H334 0.961 . S
C348 C347 1.502 . S
C349 H335 0.960 . S
C349 H336 0.961 . S
C349 H337 0.959 . S
C349 C347 1.561 1_455 S
C350 C347 1.526 . S
C350 C351 1.396 1_645 S
C350 C355 1.390 . S
C351 C345 1.465 . S
C351 C350 1.396 1_465 S
C351 C352 1.399 . S
C352 H338 0.929 . S
C352 C351 1.399 . S
C352 C353 1.385 . S
C353 H339 0.931 . S
C353 C352 1.385 . S
C353 C354 1.389 1_565 S
C354 C353 1.389 1_545 S
C354 C355 1.387 1_455 S
C355 H340 0.930 . S
C355 C350 1.390 . S
C355 C354 1.387 1_655 S
H356 C368 0.930 . S
H357 C370 0.930 . S
H358 C371 0.930 . S
H359 C375 0.959 . S
H360 C375 0.959 . S
H361 C375 0.961 . S
H362 C376 0.960 . S
H363 C376 0.961 . S
H364 C376 0.959 . S
H365 C379 0.929 . S
H366 C380 0.931 . S
H367 C382 0.930 . S
C368 H356 0.930 . S
C368 C369 1.399 . S
C368 C373 1.399 . S
C369 C368 1.399 . S
C369 C370 1.376 . S
C370 H357 0.930 . S
C370 C369 1.376 . S
C370 C371 1.388 . S
C371 H358 0.930 . S
C371 C370 1.388 . S
C371 C372 1.390 . S
C372 C371 1.390 . S
C372 C373 1.394 . S
C372 C378 1.465 . S
C373 C368 1.399 . S
C373 C372 1.394 . S
C373 C374 1.516 . S
C374 C373 1.516 . S
C374 C375 1.502 . S
C374 C376 1.561 . S
C374 C377 1.526 . S
C375 H359 0.959 . S
C375 H360 0.959 . S
C375 H361 0.961 . S
C375 C374 1.502 . S
C376 H362 0.960 . S
C376 H363 0.961 . S
C376 H364 0.959 . S
C376 C374 1.561 . S
C377 C374 1.526 . S
C377 C378 1.396 . S
C377 C382 1.390 . S
C378 C372 1.465 . S
C378 C377 1.396 . S
C378 C379 1.399 . S
C379 H365 0.929 . S
C379 C378 1.399 . S
C379 C380 1.385 . S
C380 H366 0.931 . S
C380 C379 1.385 . S
C380 C381 1.389 . S
C381 C380 1.389 . S
C381 C382 1.387 . S
C382 H367 0.930 . S
C382 C377 1.390 . S
C382 C381 1.387 . S
H383 C395 0.930 . S
H384 C397 0.930 . S
H385 C398 0.930 . S
H386 C402 0.959 . S
H387 C402 0.959 . S
H388 C402 0.961 . S
H389 C403 0.960 . S
H390 C403 0.961 . S
H391 C403 0.959 . S
H392 C406 0.929 . S
H393 C407 0.931 . S
H394 C409 0.930 . S
C395 H383 0.930 . S
C395 C396 1.399 . S
C395 C400 1.399 . S
C396 C395 1.399 . S
C396 C397 1.376 . S
C397 H384 0.930 . S
C397 C396 1.376 . S
C397 C398 1.388 . S
C398 H385 0.930 . S
C398 C397 1.388 . S
C398 C399 1.390 . S
C399 C398 1.390 . S
C399 C400 1.394 . S
C399 C405 1.465 . S
C400 C395 1.399 . S
C400 C399 1.394 . S
C400 C401 1.516 . S
C401 C400 1.516 . S
C401 C402 1.502 . S
C401 C403 1.561 . S
C401 C404 1.526 . S
C402 H386 0.959 . S
C402 H387 0.959 . S
C402 H388 0.961 . S
C402 C401 1.502 . S
C403 H389 0.960 . S
C403 H390 0.961 . S
C403 H391 0.959 . S
C403 C401 1.561 . S
C404 C401 1.526 . S
C404 C405 1.396 . S
C404 C409 1.390 . S
C405 C399 1.465 . S
C405 C404 1.396 . S
C405 C406 1.399 . S
C406 H392 0.929 . S
C406 C405 1.399 . S
C406 C407 1.385 . S
C407 H393 0.931 . S
C407 C406 1.385 . S
C407 C408 1.389 . S
C408 C407 1.389 . S
C408 C409 1.387 . S
C409 H394 0.930 . S
C409 C404 1.390 . S
C409 C408 1.387 . S
C111 C79 1.300 . S
C99 C3 1.208 . S
C126 C4 1.483 1_556 S
C138 C74 1.492 . S
C153 C19 1.407 . S
C165 C85 1.561 . S
C180 C7 1.176 . S
C192 C68 1.340 . S
C207 C37 1.226 . S
C219 C57 1.304 . S
C234 C28 1.483 . S
C246 C52 1.498 1_655 S
C273 C63 1.511 . S
C261 C41 1.496 . S
C300 C46 1.349 . S
C288 C25 1.207 . S
C315 C20 1.289 . S
C327 C47 1.500 . S
C342 C16 1.447 1_455 S
C354 C58 1.509 1_455 S
C381 C69 1.462 . S
C369 C40 1.408 . S
C396 C24 1.335 . S
C408 C80 1.539 . S
