# Generated by pormake.
# Topology pyr, (3,6)-cn, num edge types: 1
# Building blocks:
#     Node 0, Type 0, BuildingBlock: QEWDON_clean_linker_0, # of connection points: 3
#     Node 1, Type 0, BuildingBlock: QEWDON_clean_linker_0, # of connection points: 3
#     Node 2, Type 0, BuildingBlock: QEWDON_clean_linker_0, # of connection points: 3
#     Node 3, Type 0, BuildingBlock: QEWDON_clean_linker_0, # of connection points: 3
#     Node 4, Type 0, BuildingBlock: QEWDON_clean_linker_0, # of connection points: 3
#     Node 5, Type 0, BuildingBlock: QEWDON_clean_linker_0, # of connection points: 3
#     Node 6, Type 0, BuildingBlock: QEWDON_clean_linker_0, # of connection points: 3
#     Node 7, Type 0, BuildingBlock: QEWDON_clean_linker_0, # of connection points: 3
#     Node 8, Type 1, BuildingBlock: VOLQOD_clean_sbu_1, # of connection points: 6
#     Node 9, Type 1, BuildingBlock: VOLQOD_clean_sbu_1, # of connection points: 6
#     Node 10, Type 1, BuildingBlock: VOLQOD_clean_sbu_1, # of connection points: 6
#     Node 11, Type 1, BuildingBlock: VOLQOD_clean_sbu_1, # of connection points: 6
#     Edge 12, Type (0, 1), BuildingBlock: TEMPAE_clean_linker_10, # of connection points: 2
#     Edge 13, Type (0, 1), BuildingBlock: TEMPAE_clean_linker_10, # of connection points: 2
#     Edge 14, Type (0, 1), BuildingBlock: TEMPAE_clean_linker_10, # of connection points: 2
#     Edge 15, Type (0, 1), BuildingBlock: TEMPAE_clean_linker_10, # of connection points: 2
#     Edge 16, Type (0, 1), BuildingBlock: TEMPAE_clean_linker_10, # of connection points: 2
#     Edge 17, Type (0, 1), BuildingBlock: TEMPAE_clean_linker_10, # of connection points: 2
#     Edge 18, Type (0, 1), BuildingBlock: TEMPAE_clean_linker_10, # of connection points: 2
#     Edge 19, Type (0, 1), BuildingBlock: TEMPAE_clean_linker_10, # of connection points: 2
#     Edge 20, Type (0, 1), BuildingBlock: TEMPAE_clean_linker_10, # of connection points: 2
#     Edge 21, Type (0, 1), BuildingBlock: TEMPAE_clean_linker_10, # of connection points: 2
#     Edge 22, Type (0, 1), BuildingBlock: TEMPAE_clean_linker_10, # of connection points: 2
#     Edge 23, Type (0, 1), BuildingBlock: TEMPAE_clean_linker_10, # of connection points: 2
#     Edge 24, Type (0, 1), BuildingBlock: TEMPAE_clean_linker_10, # of connection points: 2
#     Edge 25, Type (0, 1), BuildingBlock: TEMPAE_clean_linker_10, # of connection points: 2
#     Edge 26, Type (0, 1), BuildingBlock: TEMPAE_clean_linker_10, # of connection points: 2
#     Edge 27, Type (0, 1), BuildingBlock: TEMPAE_clean_linker_10, # of connection points: 2
#     Edge 28, Type (0, 1), BuildingBlock: TEMPAE_clean_linker_10, # of connection points: 2
#     Edge 29, Type (0, 1), BuildingBlock: TEMPAE_clean_linker_10, # of connection points: 2
#     Edge 30, Type (0, 1), BuildingBlock: TEMPAE_clean_linker_10, # of connection points: 2
#     Edge 31, Type (0, 1), BuildingBlock: TEMPAE_clean_linker_10, # of connection points: 2
#     Edge 32, Type (0, 1), BuildingBlock: TEMPAE_clean_linker_10, # of connection points: 2
#     Edge 33, Type (0, 1), BuildingBlock: TEMPAE_clean_linker_10, # of connection points: 2
#     Edge 34, Type (0, 1), BuildingBlock: TEMPAE_clean_linker_10, # of connection points: 2
#     Edge 35, Type (0, 1), BuildingBlock: TEMPAE_clean_linker_10, # of connection points: 2
# Relax obj value: 0.168
# Max RMSD: 0.274
# Mean RMSD: 0.204
data_MOF--net-pry--node1-VOLQOD_clean_sbu_1--node2-QEWDON_clean_linker_0--edge1-TEMPAE_clean_linker_10
_symmetry_space_group_name_H-M    P1
_symmetry_Int_Tables_number       1
_symmetry_cell_setting            triclinic
loop_
_symmetry_equiv_pos_as_xyz
'x, y, z'
_cell_length_a     37.271233
_cell_length_b     37.645487
_cell_length_c     40.332973
_cell_angle_alpha  90.041451
_cell_angle_beta   90.72451
_cell_angle_gamma 100.07799
loop_
_atom_site_label
_atom_site_type_symbol
_atom_site_fract_x
_atom_site_fract_y
_atom_site_fract_z
_atom_type_partial_charge
H0 H 0.22754 0.2362 0.1495 0.0
C1 C 0.20965 0.22108 0.16751 0.0
C2 C 0.21173 0.18479 0.17365 0.0
C3 C 0.18587 0.23864 0.18547 0.0
H4 H 0.19039 0.13784 0.20213 0.0
C5 C 0.18875 0.16583 0.19746 0.0
C6 C 0.16569 0.18323 0.2168 0.0
C7 C 0.16406 0.21973 0.2101 0.0
C8 C 0.18897 0.27821 0.18241 0.0
H9 H 0.14785 0.23432 0.22542 0.0
C10 C 0.16082 0.2942 0.16838 0.0
C11 C 0.16543 0.3321 0.1648 0.0
C12 C 0.22142 0.30016 0.19308 0.0
H13 H 0.24334 0.28831 0.20388 0.0
C14 C 0.22598 0.33748 0.18988 0.0
H15 H 0.13578 0.27725 0.16007 0.0
C16 C 0.19839 0.35335 0.17575 0.0
H17 H 0.20327 0.38238 0.17274 0.0
H18 H 0.2512 0.35417 0.19803 0.0
H19 H 0.35126 0.92615 0.7847 0.0
C20 C 0.36787 0.91074 0.77063 0.0
C21 C 0.40191 0.90565 0.78329 0.0
C22 C 0.35423 0.89497 0.7405 0.0
H23 H 0.44803 0.87907 0.77512 0.0
C24 C 0.42239 0.88443 0.76511 0.0
C25 C 0.40907 0.86866 0.7347 0.0
C26 C 0.37518 0.87454 0.7223 0.0
C27 C 0.31552 0.8941 0.73173 0.0
H28 H 0.36391 0.861 0.69977 0.0
C29 C 0.30466 0.915 0.70571 0.0
C30 C 0.26726 0.91466 0.69938 0.0
C31 C 0.28903 0.87235 0.75071 0.0
H32 H 0.29699 0.85611 0.77077 0.0
C33 C 0.25214 0.87129 0.74399 0.0
H34 H 0.32508 0.93211 0.69126 0.0
C35 C 0.24127 0.89227 0.71861 0.0
H36 H 0.21238 0.89085 0.71387 0.0
H37 H 0.23188 0.85425 0.75862 0.0
H38 H 0.62381 0.50782 0.97163 0.0
C39 C 0.61727 0.48018 0.9802 0.0
C40 C 0.6453 0.46043 0.9863 0.0
C41 C 0.58066 0.46381 0.98383 0.0
H42 H 0.65792 0.40884 1.0008 0.0
C43 C 0.63638 0.42421 0.99594 0.0
C44 C 0.59996 0.40757 0.99939 0.0
C45 C 0.57218 0.42771 0.99393 0.0
C46 C 0.55109 0.48226 0.97228 0.0
H47 H 0.5439 0.41467 0.99542 0.0
C48 C 0.54929 0.49128 0.93871 0.0
C49 C 0.51872 0.50381 0.92556 0.0
C50 C 0.52277 0.48725 0.99337 0.0
H51 H 0.52353 0.47996 0.01932 0.0
C52 C 0.49304 0.50132 0.98087 0.0
H53 H 0.57126 0.48717 0.92257 0.0
C54 C 0.49079 0.50931 0.94712 0.0
H55 H 0.46675 0.51871 0.9378 0.0
H56 H 0.47121 0.50514 0.99721 0.0
H57 H 0.85531 0.70677 0.36419 0.0
C58 C 0.84306 0.69266 0.38577 0.0
C59 C 0.84928 0.70899 0.41709 0.0
C60 C 0.81898 0.65964 0.38198 0.0
H61 H 0.83552 0.70507 0.46886 0.0
C62 C 0.83167 0.69193 0.44482 0.0
C63 C 0.80721 0.65941 0.44144 0.0
C64 C 0.80182 0.64289 0.41015 0.0
C65 C 0.80932 0.64419 0.34844 0.0
H66 H 0.78324 0.61742 0.40769 0.0
C67 C 0.83579 0.64625 0.32361 0.0
C68 C 0.82632 0.63268 0.29158 0.0
C69 C 0.77311 0.62824 0.34076 0.0
H70 H 0.75181 0.62702 0.35894 0.0
C71 C 0.76371 0.61428 0.30921 0.0
H72 H 0.86371 0.65863 0.32911 0.0
C73 C 0.79006 0.61639 0.28476 0.0
H74 H 0.78207 0.60501 0.26055 0.0
H75 H 0.73582 0.60193 0.30364 0.0
H76 H 0.86358 0.89222 0.90955 0.0
C77 C 0.87654 0.90255 0.88678 0.0
C78 C 0.91007 0.89319 0.87747 0.0
C79 C 0.85825 0.92324 0.86575 0.0
H80 H 0.95085 0.89874 0.83905 0.0
C81 C 0.92585 0.90668 0.84729 0.0
C82 C 0.90795 0.92807 0.82631 0.0
C83 C 0.87434 0.93632 0.83599 0.0
C84 C 0.81978 0.92608 0.87154 0.0
H85 H 0.85987 0.95212 0.81976 0.0
C86 C 0.80919 0.94511 0.89879 0.0
C87 C 0.77233 0.94859 0.90234 0.0
C88 C 0.79332 0.9098 0.84855 0.0
H89 H 0.80097 0.89491 0.82754 0.0
C90 C 0.75684 0.91235 0.85249 0.0
H91 H 0.8296 0.95803 0.91638 0.0
C92 C 0.74636 0.93158 0.8791 0.0
H93 H 0.71773 0.93293 0.88163 0.0
H94 H 0.73661 0.89947 0.83478 0.0
H95 H 0.68664 0.17622 0.49246 0.0
C96 C 0.67761 0.1744 0.46675 0.0
C97 C 0.69961 0.16233 0.44272 0.0
C98 C 0.64379 0.1837 0.45798 0.0
H99 H 0.70395 0.14907 0.39124 0.0
C100 C 0.68729 0.15913 0.40969 0.0
C101 C 0.65295 0.16693 0.40054 0.0
C102 C 0.63168 0.1802 0.42476 0.0
C103 C 0.61956 0.19251 0.48453 0.0
H104 H 0.60482 0.18555 0.41828 0.0
C105 C 0.60851 0.22647 0.48644 0.0
C106 C 0.58821 0.23489 0.51381 0.0
C107 C 0.60894 0.16684 0.50938 0.0
H108 H 0.61703 0.14058 0.50832 0.0
C109 C 0.58803 0.17479 0.53588 0.0
H110 H 0.61701 0.24665 0.46765 0.0
C111 C 0.57797 0.20864 0.53827 0.0
H112 H 0.56221 0.21444 0.55938 0.0
H113 H 0.58001 0.1548 0.55489 0.0
H114 H 0.43795 0.68667 0.20666 0.0
C115 C 0.41197 0.68099 0.19361 0.0
C116 C 0.39878 0.70881 0.17684 0.0
C117 C 0.39246 0.64545 0.19225 0.0
H118 H 0.35416 0.72276 0.14823 0.0
C119 C 0.36527 0.70103 0.15989 0.0
C120 C 0.34595 0.66574 0.15754 0.0
C121 C 0.3596 0.63795 0.17394 0.0
C122 C 0.40675 0.61598 0.20937 0.0
H123 H 0.34479 0.61052 0.17236 0.0
C124 C 0.41786 0.61976 0.24281 0.0
C125 C 0.43048 0.59145 0.25951 0.0
C126 C 0.40879 0.58374 0.19253 0.0
H127 H 0.40062 0.58032 0.16669 0.0
C128 C 0.42182 0.55579 0.20881 0.0
H129 H 0.41547 0.64427 0.25608 0.0
C130 C 0.43255 0.55951 0.24209 0.0
H131 H 0.44264 0.53745 0.25416 0.0
H132 H 0.42354 0.53111 0.19561 0.0
H133 H 0.11708 0.4671 0.65174 0.0
C134 C 0.11056 0.44885 0.63092 0.0
C135 C 0.13566 0.44998 0.60495 0.0
C136 C 0.07866 0.42241 0.63123 0.0
H137 H 0.14935 0.42227 0.56117 0.0
C138 C 0.12874 0.42408 0.57954 0.0
C139 C 0.09741 0.39763 0.57973 0.0
C140 C 0.07141 0.39849 0.60425 0.0
C141 C 0.05623 0.41559 0.66171 0.0
H142 H 0.04724 0.37779 0.60411 0.0
C143 C 0.05163 0.4439 0.68321 0.0
C144 C 0.03368 0.4366 0.71363 0.0
C145 C 0.0416 0.37984 0.67088 0.0
H146 H 0.04572 0.35701 0.656 0.0
C147 C 0.02266 0.37266 0.70029 0.0
H148 H 0.06235 0.47155 0.67656 0.0
C149 C 0.01895 0.40069 0.72168 0.0
H150 H 0.00573 0.39397 0.74517 0.0
H151 H 0.01187 0.34507 0.70707 0.0
O152 O 0.02675 0.11988 0.54922 0.0
Zn153 Zn 0.9977 0.07003 0.54324 0.0
O154 O 0.02253 0.04245 0.51238 0.0
Zn155 Zn 0.99476 0.03455 0.47059 0.0
Zn156 Zn 0.0718 0.06812 0.50335 0.0
Zn157 Zn 0.02647 0.99667 0.53281 0.0
O158 O 0.9813 0.98142 0.46086 0.0
O159 O 0.00335 0.95542 0.50417 0.0
O160 O 0.94943 0.07789 0.52385 0.0
O161 O 0.94799 0.0552 0.47288 0.0
O162 O 0.02457 0.05743 0.43195 0.0
O163 O 0.07969 0.07503 0.45429 0.0
O164 O 0.11149 0.04423 0.52485 0.0
O165 O 0.98882 0.0452 0.58797 0.0
O166 O 0.07855 0.9924 0.54093 0.0
O167 O 0.00369 0.99172 0.57796 0.0
C168 C 0.05693 0.13545 0.53735 0.0
C169 C 0.98662 0.95328 0.47633 0.0
C170 C 0.05811 0.07145 0.42929 0.0
C171 C 0.93369 0.07136 0.49572 0.0
C172 C 0.1092 0.0131 0.53799 0.0
C173 C 0.9915 0.0134 0.59736 0.0
O174 O 0.07656 0.11861 0.51978 0.0
O175 O 0.51599 0.12411 0.04578 0.0
Zn176 Zn 0.49015 0.07438 0.05747 0.0
O177 O 0.51957 0.05258 0.08964 0.0
Zn178 Zn 0.52699 0.0066 0.07193 0.0
Zn179 Zn 0.56753 0.08316 0.0972 0.0
Zn180 Zn 0.49357 0.04501 0.13163 0.0
O181 O 0.51295 0.9672 0.1048 0.0
O182 O 0.48483 0.99234 0.14451 0.0
O183 O 0.47953 0.04429 0.0155 0.0
O184 O 0.49967 0.99402 0.02872 0.0
O185 O 0.57911 0.00785 0.06126 0.0
O186 O 0.60914 0.06123 0.07743 0.0
O187 O 0.57685 0.09397 0.14631 0.0
O188 O 0.44214 0.08112 0.07722 0.0
O189 O 0.5235 0.07187 0.16873 0.0
O190 O 0.44528 0.06247 0.12919 0.0
C191 C 0.54593 0.1433 0.05537 0.0
C192 C 0.49585 0.96514 0.13202 0.0
C193 C 0.60865 0.0304 0.06407 0.0
C194 C 0.48383 0.01229 0.0084 0.0
C195 C 0.55607 0.08901 0.17141 0.0
C196 C 0.4284 0.07588 0.10596 0.0
O197 O 0.56762 0.13097 0.07518 0.0
O198 O 0.52947 0.5739 0.66802 0.0
Zn199 Zn 0.53404 0.59879 0.6239 0.0
O200 O 0.50264 0.56845 0.59133 0.0
Zn201 Zn 0.53194 0.55636 0.55512 0.0
Zn202 Zn 0.47824 0.5226 0.6107 0.0
Zn203 Zn 0.46676 0.59621 0.57431 0.0
O204 O 0.51626 0.57503 0.51172 0.0
O205 O 0.47045 0.60282 0.5246 0.0
O206 O 0.58727 0.6074 0.61087 0.0
O207 O 0.58396 0.5763 0.56368 0.0
O208 O 0.53051 0.5033 0.55023 0.0
O209 O 0.49416 0.47805 0.58986 0.0
O210 O 0.42351 0.51799 0.60615 0.0
O211 O 0.51821 0.64723 0.63116 0.0
O212 O 0.41651 0.57051 0.58407 0.0
O213 O 0.47069 0.64448 0.597 0.0
C214 C 0.51043 0.5449 0.67884 0.0
C215 C 0.49149 0.5927 0.5032 0.0
C216 C 0.51526 0.47539 0.56563 0.0
C217 C 0.60233 0.59534 0.58611 0.0
C218 C 0.40324 0.53991 0.59616 0.0
C219 C 0.49206 0.66104 0.61904 0.0
O220 O 0.48953 0.52321 0.65978 0.0
O221 O 0.97259 0.57674 0.08222 0.0
Zn222 Zn 0.98143 0.55406 0.03923 0.0
O223 O 0.01132 0.58996 0.01164 0.0
Zn224 Zn 0.98371 0.59961 0.97245 0.0
Zn225 Zn 0.02649 0.63568 0.036 0.0
Zn226 Zn 0.05328 0.56939 0.9982 0.0
O227 O 0.00494 0.58263 0.93133 0.0
O228 O 0.05423 0.56206 0.94883 0.0
O229 O 0.93171 0.53868 0.01882 0.0
O230 O 0.93148 0.57465 0.97523 0.0
O231 O 0.98442 0.65244 0.96648 0.0
O232 O 0.01439 0.67915 0.01022 0.0
O233 O 0.08082 0.64261 0.04541 0.0
O234 O 0.00469 0.51037 0.04996 0.0
O235 O 0.09896 0.60047 0.01426 0.0
O236 O 0.05486 0.52168 0.02024 0.0
C237 C 0.98084 0.60793 0.09525 0.0
C238 C 0.03294 0.56867 0.92557 0.0
C239 C 0.99735 0.68085 0.98276 0.0
C240 C 0.91515 0.5504 0.99444 0.0
C241 C 0.10598 0.62699 0.03429 0.0
C242 C 0.03447 0.50174 0.0404 0.0
O243 O 1.00084 0.63374 0.08021 0.0
C244 C 0.16292 0.13968 0.26453 0.0
C245 C 0.14658 0.16444 0.24608 0.0
C246 C 0.14638 0.12279 0.29281 0.0
C247 C 0.1133 0.13179 0.30399 0.0
C248 C 0.09648 0.15661 0.28567 0.0
C249 C 0.11301 0.17221 0.25671 0.0
C250 C 0.16494 0.09595 0.31123 0.0
C251 C 0.06161 0.16757 0.29724 0.0
C252 C 0.05847 0.0701 0.36713 0.0
C253 C 0.07182 0.08652 0.39708 0.0
C254 C 0.0716 0.08453 0.33654 0.0
C255 C 0.09772 0.11679 0.33596 0.0
C256 C 0.11043 0.13398 0.36619 0.0
C257 C 0.09778 0.11831 0.39635 0.0
C258 C 0.05825 0.06482 0.30492 0.0
C259 C 0.13746 0.16892 0.36671 0.0
H260 H 0.18931 0.13404 0.25756 0.0
H261 H 0.09974 0.19082 0.24262 0.0
H262 H 0.17502 0.10726 0.3357 0.0
H263 H 0.14527 0.07077 0.31589 0.0
H264 H 0.18838 0.08902 0.29741 0.0
H265 H 0.05148 0.18651 0.2798 0.0
H266 H 0.04011 0.14343 0.30014 0.0
H267 H 0.0662 0.18074 0.32192 0.0
H268 H 0.03839 0.04551 0.36768 0.0
H269 H 0.10769 0.13139 0.41948 0.0
H270 H 0.08156 0.05658 0.29192 0.0
H271 H 0.04627 0.0829 0.28798 0.0
H272 H 0.03751 0.04038 0.30957 0.0
H273 H 0.16383 0.16445 0.35654 0.0
H274 H 0.14242 0.18024 0.39214 0.0
H275 H 0.12747 0.18922 0.35075 0.0
C276 C 0.45083 0.93786 0.82163 0.0
C277 C 0.41467 0.92062 0.81646 0.0
C278 C 0.46267 0.95293 0.85267 0.0
C279 C 0.43783 0.95049 0.87925 0.0
C280 C 0.40144 0.9327 0.87426 0.0
C281 C 0.39034 0.91801 0.84301 0.0
C282 C 0.50168 0.97176 0.85696 0.0
C283 C 0.37416 0.92919 0.90195 0.0
C284 C 0.4748 0.96069 0.96785 0.0
C285 C 0.4714 0.99636 0.97552 0.0
C286 C 0.46414 0.94552 0.93664 0.0
C287 C 0.4498 0.96647 0.91232 0.0
C288 C 0.44625 0.00244 0.91985 0.0
C289 C 0.457 0.01691 0.95133 0.0
C290 C 0.46818 0.907 0.92969 0.0
C291 C 0.4311 0.02568 0.89461 0.0
H292 H 0.4697 0.94017 0.8012 0.0
H293 H 0.36253 0.90413 0.83942 0.0
H294 H 0.50239 0.0003 0.86425 0.0
H295 H 0.51517 0.95883 0.87718 0.0
H296 H 0.51765 0.97115 0.83395 0.0
H297 H 0.34693 0.91443 0.89407 0.0
H298 H 0.38408 0.91474 0.92321 0.0
H299 H 0.3711 0.95634 0.91095 0.0
H300 H 0.48587 0.94449 0.98626 0.0
H301 H 0.45433 0.0445 0.95687 0.0
H302 H 0.48599 0.906 0.90801 0.0
H303 H 0.44121 0.89065 0.92334 0.0
H304 H 0.47994 0.89435 0.95118 0.0
H305 H 0.44778 0.0279 0.87187 0.0
H306 H 0.43054 0.05327 0.90415 0.0
H307 H 0.40297 0.01298 0.88732 0.0
C308 C 0.50102 0.53841 0.87647 0.0
C309 C 0.51548 0.50917 0.88921 0.0
C310 C 0.49875 0.54386 0.84212 0.0
C311 C 0.51171 0.51978 0.82011 0.0
C312 C 0.52592 0.49003 0.83278 0.0
C313 C 0.52723 0.48486 0.86711 0.0
C314 C 0.48292 0.5756 0.82939 0.0
C315 C 0.54028 0.46394 0.8101 0.0
C316 C 0.48185 0.51507 0.7297 0.0
C317 C 0.51129 0.53736 0.71475 0.0
C318 C 0.48135 0.50952 0.76409 0.0
C319 C 0.51132 0.5261 0.78381 0.0
C320 C 0.54137 0.54814 0.76879 0.0
C321 C 0.54085 0.55377 0.73446 0.0
C322 C 0.4486 0.48628 0.77936 0.0
C323 C 0.57416 0.56563 0.78897 0.0
H324 H 0.49207 0.55741 0.89333 0.0
H325 H 0.53749 0.46161 0.87664 0.0
H326 H 0.50411 0.59443 0.81606 0.0
H327 H 0.46049 0.56627 0.81138 0.0
H328 H 0.47223 0.59064 0.84966 0.0
H329 H 0.55056 0.44221 0.82398 0.0
H330 H 0.51851 0.45133 0.79264 0.0
H331 H 0.56279 0.47863 0.79501 0.0
H332 H 0.45877 0.50263 0.71461 0.0
H333 H 0.56373 0.57091 0.72299 0.0
H334 H 0.43663 0.50201 0.79826 0.0
H335 H 0.45698 0.46296 0.79223 0.0
H336 H 0.4272 0.47594 0.76063 0.0
H337 H 0.56577 0.58368 0.80804 0.0
H338 H 0.59547 0.58166 0.77341 0.0
H339 H 0.58626 0.54466 0.80222 0.0
C340 C 0.88896 0.62771 0.27212 0.0
C341 C 0.85406 0.63524 0.26522 0.0
C342 C 0.91424 0.62716 0.24671 0.0
C343 C 0.90414 0.63386 0.21367 0.0
C344 C 0.86962 0.64317 0.20682 0.0
C345 C 0.8451 0.64394 0.23271 0.0
C346 C 0.95097 0.61755 0.25498 0.0
C347 C 0.85778 0.6504 0.17188 0.0
C348 C 0.97086 0.64856 0.14251 0.0
C349 C 0.96465 0.6143 0.1276 0.0
C350 C 0.95262 0.65511 0.17158 0.0
C351 C 0.92746 0.62682 0.18573 0.0
C352 C 0.92226 0.5919 0.17156 0.0
C353 C 0.94102 0.58605 0.14283 0.0
C354 C 0.95923 0.69254 0.18642 0.0
C355 C 0.89557 0.56099 0.18585 0.0
H356 H 0.89605 0.62083 0.29716 0.0
H357 H 0.81851 0.65066 0.22737 0.0
H358 H 0.95187 0.58989 0.24593 0.0
H359 H 0.97298 0.63617 0.24241 0.0
H360 H 0.95667 0.61847 0.2821 0.0
H361 H 0.83129 0.66009 0.17111 0.0
H362 H 0.87863 0.67081 0.15986 0.0
H363 H 0.85504 0.62525 0.15697 0.0
H364 H 0.98926 0.67049 0.13107 0.0
H365 H 0.93618 0.55938 0.13173 0.0
H366 H 0.96441 0.6913 0.21351 0.0
H367 H 0.93458 0.70496 0.18288 0.0
H368 H 0.98268 0.71033 0.17489 0.0
H369 H 0.90165 0.55754 0.21252 0.0
H370 H 0.89613 0.53507 0.17284 0.0
H371 H 0.86752 0.56704 0.18394 0.0
C372 C 0.2768 0.18726 0.15762 0.0
C373 C 0.24101 0.16799 0.15852 0.0
C374 C 0.30567 0.17091 0.14684 0.0
C375 C 0.2987 0.1343 0.13671 0.0
C376 C 0.26249 0.11497 0.13655 0.0
C377 C 0.23408 0.13203 0.14752 0.0
C378 C 0.34387 0.19249 0.14749 0.0
C379 C 0.25393 0.076 0.12569 0.0
C380 C 0.3743 0.10304 0.08804 0.0
C381 C 0.39321 0.08769 0.11306 0.0
C382 C 0.34271 0.11713 0.09509 0.0
C383 C 0.32971 0.116 0.12797 0.0
C384 C 0.3479 0.09945 0.15309 0.0
C385 C 0.37933 0.08545 0.14533 0.0
C386 C 0.32396 0.13435 0.06758 0.0
C387 C 0.33493 0.09768 0.18847 0.0
H388 H 0.28256 0.21483 0.16663 0.0
H389 H 0.20646 0.11706 0.14791 0.0
H390 H 0.3609 0.18047 0.16561 0.0
H391 H 0.35655 0.19158 0.12284 0.0
H392 H 0.34445 0.22116 0.1544 0.0
H393 H 0.22415 0.06551 0.12486 0.0
H394 H 0.26527 0.07283 0.10078 0.0
H395 H 0.26697 0.05915 0.1431 0.0
H396 H 0.38461 0.10479 0.06297 0.0
H397 H 0.39357 0.07359 0.16487 0.0
H398 H 0.32669 0.16374 0.07231 0.0
H399 H 0.2944 0.12303 0.06688 0.0
H400 H 0.33558 0.13038 0.0429 0.0
H401 H 0.33747 0.12539 0.19871 0.0
H402 H 0.35074 0.08202 0.20467 0.0
H403 H 0.30571 0.08517 0.18941 0.0
C404 C 0.22603 0.95619 0.68007 0.0
C405 C 0.25437 0.93734 0.67314 0.0
C406 C 0.20864 0.97249 0.65477 0.0
C407 C 0.22 0.9702 0.62158 0.0
C408 C 0.25059 0.95382 0.61475 0.0
C409 C 0.26743 0.93745 0.64067 0.0
C410 C 0.1763 0.98982 0.66335 0.0
C411 C 0.26401 0.95144 0.57983 0.0
C412 C 0.13975 0.96522 0.56252 0.0
C413 C 0.14164 0.00147 0.55343 0.0
C414 C 0.16663 0.95431 0.58276 0.0
C415 C 0.19638 0.98023 0.59424 0.0
C416 C 0.20009 0.01633 0.58297 0.0
C417 C 0.1726 0.02658 0.56268 0.0
C418 C 0.16159 0.91546 0.59392 0.0
C419 C 0.23172 0.04465 0.59415 0.0
H420 H 0.21639 0.95686 0.70528 0.0
H421 H 0.28942 0.92304 0.63519 0.0
H422 H 0.17904 0.01703 0.65214 0.0
H423 H 0.15103 0.97329 0.65302 0.0
H424 H 0.17311 0.99237 0.69055 0.0
H425 H 0.29179 0.94453 0.57942 0.0
H426 H 0.24525 0.93023 0.56603 0.0
H427 H 0.26435 0.97729 0.56653 0.0
H428 H 0.11625 0.94546 0.55507 0.0
H429 H 0.17441 0.05463 0.55567 0.0
H430 H 0.15538 0.91392 0.62078 0.0
H431 H 0.187 0.90446 0.59039 0.0
H432 H 0.13905 0.89803 0.58026 0.0
H433 H 0.22733 0.05272 0.62004 0.0
H434 H 0.23465 0.06911 0.57833 0.0
H435 H 0.25757 0.03385 0.5938 0.0
C436 C 0.69825 0.50996 0.99717 0.0
C437 C 0.68402 0.4769 0.98207 0.0
C438 C 0.73578 0.52358 0.99661 0.0
C439 C 0.75938 0.5037 0.98036 0.0
C440 C 0.74483 0.47125 0.9636 0.0
C441 C 0.7073 0.4582 0.96473 0.0
C442 C 0.75037 0.55827 0.01479 0.0
C443 C 0.76906 0.44949 0.94573 0.0
C444 C 0.85646 0.54939 0.96304 0.0
C445 C 0.87559 0.53714 0.98968 0.0
C446 C 0.81859 0.53861 0.95951 0.0
C447 C 0.79947 0.51517 0.98324 0.0
C448 C 0.81864 0.50237 0.00992 0.0
C449 C 0.85645 0.51342 0.01277 0.0
C450 C 0.799 0.55255 0.93062 0.0
C451 C 0.79915 0.47729 0.03573 0.0
H452 H 0.68025 0.52434 0.01067 0.0
H453 H 0.69617 0.43289 0.95258 0.0
H454 H 0.76701 0.55247 0.03648 0.0
H455 H 0.76842 0.57703 0.99848 0.0
H456 H 0.72822 0.572 0.02371 0.0
H457 H 0.75315 0.42667 0.93144 0.0
H458 H 0.78725 0.46692 0.92849 0.0
H459 H 0.7867 0.43844 0.96398 0.0
H460 H 0.87098 0.5677 0.94505 0.0
H461 H 0.8709 0.50385 0.03348 0.0
H462 H 0.7786 0.56824 0.93986 0.0
H463 H 0.78396 0.52962 0.91594 0.0
H464 H 0.81796 0.57004 0.91395 0.0
H465 H 0.77838 0.49029 0.04814 0.0
H466 H 0.81808 0.46979 0.05495 0.0
H467 H 0.78462 0.45225 0.02372 0.0
C468 C 0.74558 0.6373 0.46361 0.0
C469 C 0.78321 0.64597 0.46934 0.0
C470 C 0.72148 0.62885 0.48981 0.0
C471 C 0.73535 0.62888 0.52269 0.0
C472 C 0.77341 0.6365 0.52867 0.0
C473 C 0.79698 0.64527 0.50184 0.0
C474 C 0.68101 0.62076 0.48225 0.0
C475 C 0.78915 0.63637 0.56331 0.0
C476 C 0.65882 0.64025 0.57899 0.0
C477 C 0.6418 0.60423 0.58158 0.0
C478 C 0.69253 0.64903 0.56315 0.0
C479 C 0.70918 0.62097 0.55018 0.0
C480 C 0.69442 0.58461 0.55722 0.0
C481 C 0.66049 0.57663 0.57249 0.0
C482 C 0.70767 0.68816 0.55644 0.0
C483 C 0.71188 0.55395 0.54477 0.0
H484 H 0.73477 0.63857 0.43864 0.0
H485 H 0.82613 0.65199 0.50629 0.0
H486 H 0.66922 0.59342 0.49125 0.0
H487 H 0.66708 0.64035 0.49532 0.0
H488 H 0.67484 0.62206 0.4553 0.0
H489 H 0.819 0.63658 0.56317 0.0
H490 H 0.78419 0.66066 0.57687 0.0
H491 H 0.77574 0.61241 0.57728 0.0
H492 H 0.64417 0.66149 0.58608 0.0
H493 H 0.64723 0.54872 0.5749 0.0
H494 H 0.70088 0.69468 0.53053 0.0
H495 H 0.73777 0.69357 0.55919 0.0
H496 H 0.69603 0.7064 0.57332 0.0
H497 H 0.70502 0.54926 0.51808 0.0
H498 H 0.70198 0.52853 0.55836 0.0
H499 H 0.74199 0.56052 0.54722 0.0
C500 C 0.13068 0.38329 0.16067 0.0
C501 C 0.13726 0.35012 0.14846 0.0
C502 C 0.10947 0.4041 0.14269 0.0
C503 C 0.09371 0.39122 0.11188 0.0
C504 C 0.09784 0.3565 0.10061 0.0
C505 C 0.11974 0.33642 0.11894 0.0
C506 C 0.1059 0.44093 0.15572 0.0
C507 C 0.08086 0.34143 0.06827 0.0
C508 C 0.02551 0.44617 0.07637 0.0
C509 C 0.04769 0.47017 0.05538 0.0
C510 C 0.03947 0.41888 0.09356 0.0
C511 C 0.07662 0.41591 0.09014 0.0
C512 C 0.09867 0.4391 0.06797 0.0
C513 C 0.08391 0.46566 0.05073 0.0
C514 C 0.01484 0.3942 0.11638 0.0
C515 C 0.13851 0.43719 0.06375 0.0
H516 H 0.14335 0.39371 0.18387 0.0
H517 H 0.12463 0.31087 0.10923 0.0
H518 H 0.1203 0.46203 0.13904 0.0
H519 H 0.07686 0.44402 0.15606 0.0
H520 H 0.11754 0.4459 0.18114 0.0
H521 H 0.08156 0.31218 0.06563 0.0
H522 H 0.05216 0.34556 0.06623 0.0
H523 H 0.09589 0.35589 0.04732 0.0
H524 H 0.99744 0.4492 0.08 0.0
H525 H 0.10138 0.48395 0.03462 0.0
H526 H 0.02269 0.40109 0.14253 0.0
H527 H 0.01787 0.36572 0.11233 0.0
H528 H 0.98574 0.39649 0.11275 0.0
H529 H 0.15341 0.44437 0.08749 0.0
H530 H 0.15142 0.45576 0.0442 0.0
H531 H 0.14181 0.40932 0.05728 0.0
C532 C 0.56603 0.35553 0.03112 0.0
C533 C 0.59109 0.36854 0.00652 0.0
C534 C 0.55814 0.31858 0.03837 0.0
C535 C 0.57549 0.29424 0.02031 0.0
C536 C 0.60027 0.30721 0.99501 0.0
C537 C 0.60787 0.34427 0.98849 0.0
C538 C 0.53175 0.30564 0.0657 0.0
C539 C 0.61896 0.282 0.975 0.0
C540 C 0.58373 0.20487 0.06002 0.0
C541 C 0.55464 0.18147 0.04495 0.0
C542 C 0.59081 0.24164 0.05217 0.0
C543 C 0.56848 0.25528 0.02846 0.0
C544 C 0.53956 0.23177 0.01263 0.0
C545 C 0.53289 0.19512 0.02115 0.0
C546 C 0.62185 0.26602 0.06962 0.0
C547 C 0.51547 0.2454 0.98695 0.0
H548 H 0.55318 0.37437 0.0451 0.0
H549 H 0.62681 0.35431 0.96907 0.0
H550 H 0.50909 0.28507 0.05591 0.0
H551 H 0.54577 0.29255 0.08545 0.0
H552 H 0.52008 0.32798 0.07694 0.0
H553 H 0.63665 0.29635 0.9555 0.0
H554 H 0.63593 0.26803 0.99159 0.0
H555 H 0.59835 0.26092 0.96299 0.0
H556 H 0.6006 0.19462 0.07853 0.0
H557 H 0.51042 0.17723 0.00932 0.0
H558 H 0.61127 0.28748 0.08335 0.0
H559 H 0.64147 0.27955 0.05119 0.0
H560 H 0.63672 0.25111 0.08737 0.0
H561 H 0.50128 0.26592 0.99818 0.0
H562 H 0.49468 0.22342 0.97636 0.0
H563 H 0.53227 0.25874 0.96646 0.0
C564 C 0.85784 0.77161 0.43924 0.0
C565 C 0.87136 0.74547 0.4207 0.0
C566 C 0.87884 0.80567 0.44482 0.0
C567 C 0.91414 0.8139 0.43128 0.0
C568 C 0.92748 0.78814 0.41146 0.0
C569 C 0.90584 0.75407 0.40638 0.0
C570 C 0.86357 0.83248 0.46601 0.0
C571 C 0.96494 0.7962 0.39651 0.0
C572 C 0.95223 0.91382 0.43233 0.0
C573 C 0.97176 0.91725 0.46248 0.0
C574 C 0.93508 0.8799 0.42067 0.0
C575 C 0.93745 0.84884 0.43972 0.0
C576 C 0.95872 0.8519 0.46921 0.0
C577 C 0.97567 0.88607 0.48021 0.0
C578 C 0.91284 0.87754 0.38895 0.0
C579 C 0.96182 0.81933 0.49021 0.0
H580 H 0.8308 0.76528 0.44964 0.0
H581 H 0.91623 0.73383 0.39198 0.0
H582 H 0.88071 0.83879 0.48867 0.0
H583 H 0.86412 0.85811 0.45232 0.0
H584 H 0.83511 0.82222 0.47366 0.0
H585 H 0.96997 0.77451 0.37941 0.0
H586 H 0.96848 0.82206 0.38274 0.0
H587 H 0.98593 0.79929 0.41655 0.0
H588 H 0.94938 0.93772 0.41827 0.0
H589 H 0.991 0.88838 0.50336 0.0
H590 H 0.88343 0.87095 0.39484 0.0
H591 H 0.9192 0.85562 0.37284 0.0
H592 H 0.91772 0.90325 0.37487 0.0
H593 H 0.93501 0.8087 0.50133 0.0
H594 H 0.9823 0.82579 0.51056 0.0
H595 H 0.96943 0.79752 0.47473 0.0
C596 C 0.43806 0.84697 0.68456 0.0
C597 C 0.42798 0.84232 0.71784 0.0
C598 C 0.45254 0.82021 0.66748 0.0
C599 C 0.45583 0.78757 0.68379 0.0
C600 C 0.44637 0.78317 0.71766 0.0
C601 C 0.43298 0.8108 0.73436 0.0
C602 C 0.46325 0.82641 0.63171 0.0
C603 C 0.44854 0.74852 0.7358 0.0
C604 C 0.44812 0.70198 0.63215 0.0
C605 C 0.48397 0.6952 0.6331 0.0
C606 C 0.43879 0.73213 0.64818 0.0
C607 C 0.46613 0.75681 0.66489 0.0
C608 C 0.50268 0.75098 0.66478 0.0
C609 C 0.51108 0.71993 0.64932 0.0
C610 C 0.39934 0.73677 0.64831 0.0
C611 C 0.53278 0.77719 0.68146 0.0
H612 H 0.43417 0.87139 0.67182 0.0
H613 H 0.42474 0.80705 0.75999 0.0
H614 H 0.49078 0.81988 0.62768 0.0
H615 H 0.4439 0.80827 0.61548 0.0
H616 H 0.46326 0.85471 0.62391 0.0
H617 H 0.44167 0.74999 0.76244 0.0
H618 H 0.42937 0.72597 0.72412 0.0
H619 H 0.4763 0.74195 0.73395 0.0
H620 H 0.42692 0.68284 0.61997 0.0
H621 H 0.53886 0.71496 0.65003 0.0
H622 H 0.39654 0.76333 0.63769 0.0
H623 H 0.38952 0.73627 0.6742 0.0
H624 H 0.38143 0.71532 0.63395 0.0
H625 H 0.53218 0.80505 0.67276 0.0
H626 H 0.56014 0.7706 0.67656 0.0
H627 H 0.52861 0.77689 0.70864 0.0
C628 C 0.89889 0.93553 0.76527 0.0
C629 C 0.9224 0.93955 0.79301 0.0
C630 C 0.91115 0.9477 0.73385 0.0
C631 C 0.94794 0.96431 0.72987 0.0
C632 C 0.97206 0.9679 0.75763 0.0
C633 C 0.95903 0.95535 0.78888 0.0
C634 C 0.88459 0.94295 0.70492 0.0
C635 C 0.01149 0.98542 0.75437 0.0
C636 C 0.98423 0.9664 0.64204 0.0
C637 C 0.98098 0.00131 0.63158 0.0
C638 C 0.97438 0.95433 0.67416 0.0
C639 C 0.96093 0.97767 0.69653 0.0
C640 C 0.95802 0.0131 0.68637 0.0
C641 C 0.96805 0.02448 0.65405 0.0
C642 C 0.97781 0.91634 0.68394 0.0
C643 C 0.94377 0.0388 0.7095 0.0
H644 H 0.87071 0.92269 0.76814 0.0
H645 H 0.97726 0.95863 0.81024 0.0
H646 H 0.88245 0.96964 0.69417 0.0
H647 H 0.89459 0.92683 0.68512 0.0
H648 H 0.85693 0.9293 0.71214 0.0
H649 H 0.02685 0.98568 0.77818 0.0
H650 H 0.02491 0.97093 0.73552 0.0
H651 H 0.0132 0.01362 0.74568 0.0
H652 H 0.99431 0.94824 0.62504 0.0
H653 H 0.96556 0.05153 0.64636 0.0
H654 H 0.95049 0.90065 0.68949 0.0
H655 H 0.99469 0.91674 0.70683 0.0
H656 H 0.99022 0.90208 0.66416 0.0
H657 H 0.91515 0.02778 0.71598 0.0
H658 H 0.94474 0.06595 0.6984 0.0
H659 H 0.95993 0.04171 0.73294 0.0
C660 C 0.62037 0.18149 0.3484 0.0
C661 C 0.6383 0.15781 0.36645 0.0
C662 C 0.60679 0.17266 0.31612 0.0
C663 C 0.611 0.13928 0.30173 0.0
C664 C 0.62887 0.11526 0.31997 0.0
C665 C 0.64221 0.12478 0.35201 0.0
C666 C 0.58796 0.19901 0.29742 0.0
C667 C 0.63364 0.07925 0.30577 0.0
C668 C 0.54767 0.0965 0.23251 0.0
C669 C 0.56982 0.1033 0.20449 0.0
C670 C 0.56037 0.10894 0.2641 0.0
C671 C 0.59611 0.1288 0.26792 0.0
C672 C 0.61836 0.13648 0.2397 0.0
C673 C 0.605 0.1236 0.20836 0.0
C674 C 0.5358 0.10001 0.29354 0.0
C675 C 0.65661 0.15763 0.24272 0.0
H676 H 0.61738 0.20708 0.35936 0.0
H677 H 0.65533 0.10597 0.36604 0.0
H678 H 0.60207 0.20643 0.2737 0.0
H679 H 0.55956 0.18625 0.29114 0.0
H680 H 0.58733 0.22403 0.31186 0.0
H681 H 0.64863 0.06387 0.32299 0.0
H682 H 0.6066 0.0627 0.30008 0.0
H683 H 0.64873 0.08329 0.28215 0.0
H684 H 0.5204 0.08098 0.22991 0.0
H685 H 0.6223 0.12922 0.18692 0.0
H686 H 0.53328 0.125 0.30724 0.0
H687 H 0.5479 0.08241 0.31092 0.0
H688 H 0.50809 0.08601 0.28618 0.0
H689 H 0.65637 0.18361 0.25566 0.0
H690 H 0.66959 0.16332 0.2182 0.0
H691 H 0.67367 0.14229 0.25789 0.0
C692 C 0.46114 0.6268 0.30797 0.0
C693 C 0.44049 0.59481 0.29528 0.0
C694 C 0.47068 0.63012 0.34178 0.0
C695 C 0.45924 0.60076 0.36331 0.0
C696 C 0.43818 0.56853 0.35067 0.0
C697 C 0.42906 0.56596 0.31683 0.0
C698 C 0.49327 0.66484 0.35438 0.0
C699 C 0.42536 0.53665 0.37287 0.0
C700 C 0.50931 0.58917 0.44384 0.0
C701 C 0.48547 0.59909 0.46744 0.0
C702 C 0.50188 0.59108 0.40979 0.0
C703 C 0.46981 0.60315 0.39901 0.0
C704 C 0.4465 0.6148 0.42258 0.0
C705 C 0.45463 0.61268 0.45653 0.0
C706 C 0.52755 0.57863 0.38541 0.0
C707 C 0.41211 0.62796 0.41199 0.0
H708 H 0.47031 0.64907 0.29136 0.0
H709 H 0.41257 0.54142 0.30727 0.0
H710 H 0.47892 0.67608 0.37476 0.0
H711 H 0.51952 0.65949 0.36474 0.0
H712 H 0.49911 0.68548 0.33459 0.0
H713 H 0.40878 0.51373 0.35921 0.0
H714 H 0.44917 0.52719 0.38441 0.0
H715 H 0.40878 0.54478 0.39326 0.0
H716 H 0.53338 0.57891 0.45196 0.0
H717 H 0.43609 0.62052 0.47453 0.0
H718 H 0.53516 0.59931 0.36597 0.0
H719 H 0.51371 0.55365 0.37281 0.0
H720 H 0.55283 0.57297 0.39761 0.0
H721 H 0.4182 0.64913 0.39276 0.0
H722 H 0.39864 0.63905 0.43309 0.0
H723 H 0.39264 0.60531 0.40082 0.0
C724 C 0.0027 0.46436 0.75903 0.0
C725 C 0.033 0.46553 0.73853 0.0
C726 C 0.00438 0.48646 0.78711 0.0
C727 C 0.03678 0.51114 0.79426 0.0
C728 C 0.06615 0.515 0.77193 0.0
C729 C 0.06412 0.49179 0.74449 0.0
C730 C 0.97247 0.48139 0.81041 0.0
C731 C 0.10063 0.54195 0.77815 0.0
C732 C 0.02626 0.57517 0.86439 0.0
C733 C 0.03897 0.55733 0.89145 0.0
C734 C 0.02777 0.56189 0.83204 0.0
C735 C 0.04117 0.52944 0.82698 0.0
C736 C 0.05549 0.51222 0.85408 0.0
C737 C 0.05467 0.52671 0.88599 0.0
C738 C 0.01355 0.58169 0.80357 0.0
C739 C 0.06951 0.47722 0.84975 0.0
H740 H 0.97819 0.44487 0.75401 0.0
H741 H 0.08774 0.49292 0.72888 0.0
H742 H 0.98062 0.47035 0.83432 0.0
H743 H 0.96416 0.50764 0.8158 0.0
H744 H 0.94851 0.46266 0.80019 0.0
H745 H 0.11764 0.5465 0.75562 0.0
H746 H 0.0942 0.56817 0.78657 0.0
H747 H 0.11694 0.53181 0.79808 0.0
H748 H 0.01451 0.59915 0.86859 0.0
H749 H 0.0644 0.51284 0.90693 0.0
H750 H 0.98675 0.56663 0.79507 0.0
H751 H 0.0323 0.58353 0.78224 0.0
H752 H 0.01005 0.60936 0.81077 0.0
H753 H 0.04689 0.45579 0.84128 0.0
H754 H 0.0812 0.46819 0.8731 0.0
H755 H 0.09074 0.48016 0.83046 0.0
C756 C 0.77046 0.96458 0.96288 0.0
C757 C 0.75994 0.96955 0.92993 0.0
C758 C 0.75321 0.97903 0.9893 0.0
C759 C 0.72459 0.9984 0.98246 0.0
C760 C 0.71626 0.0061 0.94918 0.0
C761 C 0.73424 0.99185 0.9234 0.0
C762 C 0.76372 0.97125 0.02443 0.0
C763 C 0.68604 0.02665 0.94059 0.0
C764 C 0.6402 0.98644 0.03495 0.0
C765 C 0.64176 0.02105 0.04853 0.0
C766 C 0.66816 0.97819 0.0151 0.0
C767 C 0.69901 0.005 0.00896 0.0
C768 C 0.7023 0.03907 0.0248 0.0
C769 C 0.67346 0.04683 0.04425 0.0
C770 C 0.66331 0.94149 0.99871 0.0
C771 C 0.73523 0.068 0.01969 0.0
H772 H 0.79053 0.94762 0.96811 0.0
H773 H 0.72677 0.99663 0.89793 0.0
H774 H 0.76371 0.99511 0.04061 0.0
H775 H 0.74353 0.94875 0.03441 0.0
H776 H 0.79106 0.96334 0.02578 0.0
H777 H 0.68544 0.03344 0.91381 0.0
H778 H 0.65938 0.01008 0.94701 0.0
H779 H 0.68908 0.05199 0.95517 0.0
H780 H 0.61617 0.96604 0.03848 0.0
H781 H 0.67515 0.07354 0.05487 0.0
H782 H 0.68763 0.92884 0.00324 0.0
H783 H 0.66033 0.9445 0.97149 0.0
H784 H 0.63894 0.92293 0.00779 0.0
H785 H 0.76059 0.05633 0.01966 0.0
H786 H 0.73767 0.08921 0.03917 0.0
H787 H 0.73287 0.081 0.99528 0.0
C788 C 0.73469 0.1245 0.47709 0.0
C789 C 0.73427 0.15046 0.45225 0.0
C790 C 0.76669 0.11109 0.4848 0.0
C791 C 0.79923 0.12449 0.46771 0.0
C792 C 0.79908 0.15132 0.44309 0.0
C793 C 0.7665 0.16367 0.4354 0.0
C794 C 0.7655 0.08202 0.51074 0.0
C795 C 0.83332 0.16688 0.42479 0.0
C796 C 0.88945 0.11262 0.50772 0.0
C797 C 0.89876 0.08413 0.48909 0.0
C798 C 0.85729 0.12612 0.50093 0.0
C799 C 0.83337 0.11026 0.47536 0.0
C800 C 0.84226 0.08104 0.45687 0.0
C801 C 0.87503 0.0686 0.4637 0.0
C802 C 0.84921 0.15776 0.52078 0.0
C803 C 0.81714 0.0629 0.42985 0.0
H804 H 0.70965 0.11392 0.48982 0.0
H805 H 0.76619 0.18382 0.41625 0.0
H806 H 0.77337 0.0576 0.49957 0.0
H807 H 0.78543 0.09124 0.53093 0.0
H808 H 0.73803 0.07444 0.52171 0.0
H809 H 0.82897 0.18857 0.40732 0.0
H810 H 0.85523 0.17804 0.44272 0.0
H811 H 0.84312 0.14529 0.41058 0.0
H812 H 0.90778 0.125 0.52719 0.0
H813 H 0.88192 0.04646 0.44931 0.0
H814 H 0.82278 0.15027 0.53353 0.0
H815 H 0.84672 0.18052 0.50394 0.0
H816 H 0.87072 0.16721 0.53967 0.0
H817 H 0.78963 0.05322 0.43998 0.0
H818 H 0.8273 0.03965 0.41863 0.0
H819 H 0.81409 0.08257 0.41 0.0
C820 C 0.28074 0.63615 0.1492 0.0
C821 C 0.3119 0.65859 0.13736 0.0
C822 C 0.24778 0.63159 0.13118 0.0
C823 C 0.24606 0.65011 0.10079 0.0
C824 C 0.27761 0.67219 0.08841 0.0
C825 C 0.31021 0.67591 0.10671 0.0
C826 C 0.21469 0.60742 0.14487 0.0
C827 C 0.27682 0.6923 0.05608 0.0
C828 C 0.16911 0.61413 0.04107 0.0
C829 C 0.1434 0.63616 0.04826 0.0
C830 C 0.2028 0.61868 0.05771 0.0
C831 C 0.21125 0.64624 0.08181 0.0
C832 C 0.18622 0.66964 0.08816 0.0
C833 C 0.15247 0.66423 0.07139 0.0
C834 C 0.22877 0.59312 0.05036 0.0
C835 C 0.19469 0.69973 0.11335 0.0
H836 H 0.28187 0.62291 0.17296 0.0
H837 H 0.33444 0.69273 0.09711 0.0
H838 H 0.19291 0.62339 0.14957 0.0
H839 H 0.20374 0.58623 0.12647 0.0
H840 H 0.22085 0.59416 0.16835 0.0
H841 H 0.3038 0.70847 0.04998 0.0
H842 H 0.2681 0.67301 0.03551 0.0
H843 H 0.25662 0.71068 0.05737 0.0
H844 H 0.16244 0.5923 0.0233 0.0
H845 H 0.13285 0.6814 0.07706 0.0
H846 H 0.23291 0.57741 0.07292 0.0
H847 H 0.25579 0.60847 0.0434 0.0
H848 H 0.21863 0.57393 0.03001 0.0
H849 H 0.19754 0.68822 0.13836 0.0
H850 H 0.17316 0.71671 0.11414 0.0
H851 H 0.22104 0.71721 0.10759 0.0
C852 C 0.1887 0.4878 0.57739 0.0
C853 C 0.17207 0.47348 0.60664 0.0
C854 C 0.22595 0.50226 0.57683 0.0
C855 C 0.24682 0.50339 0.60647 0.0
C856 C 0.22952 0.4922 0.63668 0.0
C857 C 0.19237 0.47697 0.63637 0.0
C858 C 0.24342 0.51369 0.54405 0.0
C859 C 0.25072 0.49401 0.66896 0.0
C860 C 0.34602 0.4943 0.59816 0.0
C861 C 0.36338 0.53038 0.59954 0.0
C862 C 0.30801 0.48519 0.60045 0.0
C863 C 0.28712 0.5128 0.60516 0.0
C864 C 0.30466 0.5492 0.60753 0.0
C865 C 0.34259 0.55761 0.60422 0.0
C866 C 0.29015 0.44609 0.59715 0.0
C867 C 0.28337 0.5792 0.61351 0.0
H868 H 0.17296 0.48575 0.55446 0.0
H869 H 0.17994 0.46577 0.65907 0.0
H870 H 0.26033 0.54095 0.5461 0.0
H871 H 0.26177 0.49475 0.53702 0.0
H872 H 0.22294 0.51396 0.52384 0.0
H873 H 0.23249 0.48986 0.69071 0.0
H874 H 0.26797 0.4728 0.66919 0.0
H875 H 0.26912 0.52045 0.67163 0.0
H876 H 0.36209 0.47327 0.59445 0.0
H877 H 0.35607 0.58553 0.60575 0.0
H878 H 0.27055 0.44284 0.57597 0.0
H879 H 0.27451 0.43729 0.6198 0.0
H880 H 0.31028 0.42799 0.5932 0.0
H881 H 0.2643 0.58082 0.59246 0.0
H882 H 0.30137 0.60586 0.61652 0.0
H883 H 0.26669 0.57347 0.63611 0.0
C884 C 0.90373 0.83659 0.91161 0.0
C885 C 0.92638 0.86623 0.89726 0.0
C886 C 0.91827 0.80944 0.92817 0.0
C887 C 0.95651 0.81137 0.93003 0.0
C888 C 0.97965 0.84157 0.91643 0.0
C889 C 0.96434 0.8687 0.90037 0.0
C890 C 0.89253 0.77783 0.94242 0.0
C891 C 0.02055 0.84454 0.9177 0.0
C892 C 0.99014 0.7457 0.99013 0.0
C893 C 0.99128 0.71607 0.9693 0.0
C894 C 0.98017 0.77759 0.97758 0.0
C895 C 0.97172 0.78001 0.94336 0.0
C896 C 0.97477 0.75084 0.92202 0.0
C897 C 0.98422 0.71924 0.93526 0.0
C898 C 0.97695 0.80795 1.00118 0.0
C899 C 0.96659 0.75237 0.88532 0.0
H900 H 0.87442 0.83372 0.90886 0.0
H901 H 0.98216 0.89162 0.88981 0.0
H902 H 0.8943 0.75307 0.92805 0.0
H903 H 0.90033 0.77301 0.96845 0.0
H904 H 0.86376 0.78206 0.94183 0.0
H905 H 0.03483 0.8711 0.9087 0.0
H906 H 0.02994 0.84044 0.9434 0.0
H907 H 0.02864 0.82304 0.90209 0.0
H908 H 0.99549 0.74343 0.01645 0.0
H909 H 0.98549 0.69665 0.91889 0.0
H910 H 0.94784 0.81037 0.00353 0.0
H911 H 0.99151 0.834 0.99142 0.0
H912 H 0.98802 0.80352 0.02624 0.0
H913 H 0.93719 0.753 0.88136 0.0
H914 H 0.9734 0.72881 0.8717 0.0
H915 H 0.98211 0.77739 0.87444 0.0
C916 C 0.42152 0.76456 0.14507 0.0
C917 C 0.42 0.74593 0.17524 0.0
C918 C 0.43721 0.80096 0.14316 0.0
C919 C 0.45294 0.81906 0.17198 0.0
C920 C 0.45363 0.79995 0.20216 0.0
C921 C 0.43679 0.7635 0.20353 0.0
C922 C 0.43585 0.82027 0.11042 0.0
C923 C 0.47113 0.81819 0.2331 0.0
C924 C 0.51214 0.90567 0.1461 0.0
C925 C 0.48767 0.92986 0.14851 0.0
C926 C 0.50263 0.87008 0.15723 0.0
C927 C 0.4674 0.85826 0.16998 0.0
C928 C 0.4436 0.88332 0.17466 0.0
C929 C 0.45427 0.9191 0.1642 0.0
C930 C 0.52922 0.84448 0.15287 0.0
C931 C 0.4056 0.87163 0.18772 0.0
H932 H 0.40956 0.75077 0.1229 0.0
H933 H 0.43577 0.74915 0.22688 0.0
H934 H 0.42113 0.84326 0.11332 0.0
H935 H 0.46385 0.83144 0.10225 0.0
H936 H 0.42204 0.80226 0.09054 0.0
H937 H 0.47423 0.79847 0.25295 0.0
H938 H 0.49834 0.83411 0.22752 0.0
H939 H 0.4541 0.83724 0.24264 0.0
H940 H 0.53832 0.91427 0.13452 0.0
H941 H 0.43543 0.9379 0.16615 0.0
H942 H 0.52109 0.82712 0.13085 0.0
H943 H 0.52903 0.82655 0.17471 0.0
H944 H 0.55744 0.85915 0.14917 0.0
H945 H 0.38861 0.85506 0.16861 0.0
H946 H 0.3924 0.89501 0.19397 0.0
H947 H 0.40607 0.85464 0.2101 0.0
C948 C 0.06476 0.3469 0.54488 0.0
C949 C 0.09659 0.36368 0.56124 0.0
C950 C 0.06034 0.31044 0.53572 0.0
C951 C 0.08806 0.29047 0.54398 0.0
C952 C 0.12136 0.3081 0.55807 0.0
C953 C 0.12534 0.34465 0.56626 0.0
C954 C 0.02491 0.29268 0.5197 0.0
C955 C 0.15136 0.28766 0.5677 0.0
C956 C 0.05651 0.19292 0.56777 0.0
C957 C 0.06698 0.17486 0.54019 0.0
C958 C 0.06359 0.23067 0.56937 0.0
C959 C 0.08049 0.25061 0.54225 0.0
C960 C 0.09088 0.23247 0.51423 0.0
C961 C 0.08445 0.1947 0.51374 0.0
C962 C 0.05297 0.24919 0.60006 0.0
C963 C 0.10803 0.25293 0.48457 0.0
H964 H 0.04259 0.3617 0.54105 0.0
H965 H 0.14976 0.35745 0.57942 0.0
H966 H 0.02995 0.27436 0.49938 0.0
H967 H 0.00789 0.27615 0.53837 0.0
H968 H 0.00923 0.31285 0.50958 0.0
H969 H 0.17709 0.30603 0.57449 0.0
H970 H 0.14258 0.27021 0.58932 0.0
H971 H 0.15694 0.26984 0.54721 0.0
H972 H 0.0429 0.1775 0.58811 0.0
H973 H 0.0919 0.18068 0.49208 0.0
H974 H 0.03264 0.2664 0.5935 0.0
H975 H 0.07716 0.26708 0.6108 0.0
H976 H 0.04118 0.22967 0.61935 0.0
H977 H 0.08943 0.27037 0.47441 0.0
H978 H 0.11417 0.23467 0.46458 0.0
H979 H 0.13368 0.27091 0.49208 0.0
C980 C 0.58945 0.29052 0.54773 0.0
C981 C 0.5788 0.27131 0.51841 0.0
C982 C 0.5785 0.32364 0.55425 0.0
C983 C 0.5557 0.33769 0.53118 0.0
C984 C 0.54509 0.31851 0.50132 0.0
C985 C 0.55708 0.28566 0.49514 0.0
C986 C 0.59122 0.34351 0.58598 0.0
C987 C 0.52046 0.33232 0.47629 0.0
C988 C 0.50289 0.40727 0.56614 0.0
C989 C 0.5241 0.43978 0.5558 0.0
C990 C 0.51208 0.37377 0.55733 0.0
C991 C 0.54363 0.37275 0.53827 0.0
C992 C 0.56494 0.40548 0.52757 0.0
C993 C 0.55478 0.43845 0.5362 0.0
C994 C 0.48833 0.33946 0.56879 0.0
C995 C 0.59915 0.40578 0.50782 0.0
H996 H 0.60633 0.27944 0.56569 0.0
H997 H 0.54853 0.27059 0.47264 0.0
H998 H 0.60577 0.37108 0.58026 0.0
H999 H 0.56741 0.34644 0.60132 0.0
H1000 H 0.6097 0.32942 0.60088 0.0
H1001 H 0.5146 0.31422 0.45439 0.0
H1002 H 0.4943 0.33497 0.48805 0.0
H1003 H 0.53314 0.35955 0.46768 0.0
H1004 H 0.47906 0.40798 0.5811 0.0
H1005 H 0.57157 0.46335 0.52819 0.0
H1006 H 0.50392 0.32503 0.58627 0.0
H1007 H 0.48008 0.32123 0.54736 0.0
H1008 H 0.46341 0.34468 0.58137 0.0
H1009 H 0.61914 0.39364 0.52269 0.0
H1010 H 0.61211 0.43346 0.50051 0.0
H1011 H 0.59291 0.38917 0.48507 0.0
loop_
_geom_bond_atom_site_label_1
_geom_bond_atom_site_label_2
_geom_bond_distance
_geom_bond_site_symmetry_2
_ccdc_geom_bond_type
H0 C1 0.949 . S
C1 H0 0.949 . S
C1 C2 1.395 . S
C1 C3 1.391 . S
C2 C1 1.395 . S
C2 C5 1.390 . S
C3 C1 1.391 . S
C3 C7 1.387 . S
C3 C8 1.491 . S
H4 C5 0.950 . S
C5 C2 1.390 . S
C5 H4 0.950 . S
C5 C6 1.378 . S
C6 C5 1.378 . S
C6 C7 1.409 . S
C7 C3 1.387 . S
C7 C6 1.409 . S
C7 H9 0.951 . S
C8 C3 1.491 . S
C8 C10 1.382 . S
C8 C12 1.404 . S
H9 C7 0.951 . S
C10 C8 1.382 . S
C10 C11 1.390 . S
C10 H15 0.949 . S
C11 C10 1.390 . S
C11 C16 1.399 . S
C12 C8 1.404 . S
C12 H13 0.950 . S
C12 C14 1.375 . S
H13 C12 0.950 . S
C14 C12 1.375 . S
C14 C16 1.382 . S
C14 H18 0.950 . S
H15 C10 0.949 . S
C16 C11 1.399 . S
C16 C14 1.382 . S
C16 H17 0.952 . S
H17 C16 0.952 . S
H18 C14 0.950 . S
H19 C20 0.949 . S
C20 H19 0.949 . S
C20 C21 1.395 . S
C20 C22 1.391 . S
C21 C20 1.395 . S
C21 C24 1.390 . S
C22 C20 1.391 . S
C22 C26 1.387 . S
C22 C27 1.491 . S
H23 C24 0.950 . S
C24 C21 1.390 . S
C24 H23 0.950 . S
C24 C25 1.378 . S
C25 C24 1.378 . S
C25 C26 1.409 . S
C26 C22 1.387 . S
C26 C25 1.409 . S
C26 H28 0.951 . S
C27 C22 1.491 . S
C27 C29 1.382 . S
C27 C31 1.404 . S
H28 C26 0.951 . S
C29 C27 1.382 . S
C29 C30 1.390 . S
C29 H34 0.949 . S
C30 C29 1.390 . S
C30 C35 1.399 . S
C31 C27 1.404 . S
C31 H32 0.950 . S
C31 C33 1.375 . S
H32 C31 0.950 . S
C33 C31 1.375 . S
C33 C35 1.382 . S
C33 H37 0.950 . S
H34 C29 0.949 . S
C35 C30 1.399 . S
C35 C33 1.382 . S
C35 H36 0.952 . S
H36 C35 0.952 . S
H37 C33 0.950 . S
H38 C39 0.949 . S
C39 H38 0.949 . S
C39 C40 1.395 . S
C39 C41 1.391 . S
C40 C39 1.395 . S
C40 C43 1.390 . S
C41 C39 1.391 . S
C41 C45 1.387 . S
C41 C46 1.491 . S
H42 C43 0.950 . S
C43 C40 1.390 . S
C43 H42 0.950 . S
C43 C44 1.378 . S
C44 C43 1.378 . S
C44 C45 1.409 . S
C45 C41 1.387 . S
C45 C44 1.409 . S
C45 H47 0.951 . S
C46 C41 1.491 . S
C46 C48 1.382 . S
C46 C50 1.404 . S
H47 C45 0.951 . S
C48 C46 1.382 . S
C48 C49 1.390 . S
C48 H53 0.949 . S
C49 C48 1.390 . S
C49 C54 1.399 . S
C50 C46 1.404 . S
C50 H51 0.950 . S
C50 C52 1.375 . S
H51 C50 0.950 . S
C52 C50 1.375 . S
C52 C54 1.382 . S
C52 H56 0.950 . S
H53 C48 0.949 . S
C54 C49 1.399 . S
C54 C52 1.382 . S
C54 H55 0.952 . S
H55 C54 0.952 . S
H56 C52 0.950 . S
H57 C58 0.949 . S
C58 H57 0.949 . S
C58 C59 1.395 . S
C58 C60 1.391 . S
C59 C58 1.395 . S
C59 C62 1.390 . S
C60 C58 1.391 . S
C60 C64 1.387 . S
C60 C65 1.491 . S
H61 C62 0.950 . S
C62 C59 1.390 . S
C62 H61 0.950 . S
C62 C63 1.378 . S
C63 C62 1.378 . S
C63 C64 1.409 . S
C64 C60 1.387 . S
C64 C63 1.409 . S
C64 H66 0.951 . S
C65 C60 1.491 . S
C65 C67 1.382 . S
C65 C69 1.404 . S
H66 C64 0.951 . S
C67 C65 1.382 . S
C67 C68 1.390 . S
C67 H72 0.949 . S
C68 C67 1.390 . S
C68 C73 1.399 . S
C69 C65 1.404 . S
C69 H70 0.950 . S
C69 C71 1.375 . S
H70 C69 0.950 . S
C71 C69 1.375 . S
C71 C73 1.382 . S
C71 H75 0.950 . S
H72 C67 0.949 . S
C73 C68 1.399 . S
C73 C71 1.382 . S
C73 H74 0.952 . S
H74 C73 0.952 . S
H75 C71 0.950 . S
H76 C77 0.949 . S
C77 H76 0.949 . S
C77 C78 1.395 . S
C77 C79 1.391 . S
C78 C77 1.395 . S
C78 C81 1.390 . S
C79 C77 1.391 . S
C79 C83 1.387 1_565 S
C79 C84 1.491 1_565 S
H80 C81 0.950 . S
C81 C78 1.390 . S
C81 H80 0.950 . S
C81 C82 1.378 . S
C82 C81 1.378 . S
C82 C83 1.409 1_565 S
C83 C79 1.387 1_545 S
C83 C82 1.409 1_545 S
C83 H85 0.951 . S
C84 C79 1.491 1_545 S
C84 C86 1.382 . S
C84 C88 1.404 . S
H85 C83 0.951 . S
C86 C84 1.382 . S
C86 C87 1.390 . S
C86 H91 0.949 . S
C87 C86 1.390 . S
C87 C92 1.399 . S
C88 C84 1.404 . S
C88 H89 0.950 . S
C88 C90 1.375 . S
H89 C88 0.950 . S
C90 C88 1.375 . S
C90 C92 1.382 . S
C90 H94 0.950 . S
H91 C86 0.949 . S
C92 C87 1.399 . S
C92 C90 1.382 . S
C92 H93 0.952 . S
H93 C92 0.952 . S
H94 C90 0.950 . S
H95 C96 0.949 . S
C96 H95 0.949 . S
C96 C97 1.395 . S
C96 C98 1.391 . S
C97 C96 1.395 . S
C97 C100 1.390 . S
C98 C96 1.391 . S
C98 C102 1.387 . S
C98 C103 1.491 . S
H99 C100 0.950 . S
C100 C97 1.390 . S
C100 H99 0.950 . S
C100 C101 1.378 . S
C101 C100 1.378 . S
C101 C102 1.409 . S
C102 C98 1.387 . S
C102 C101 1.409 . S
C102 H104 0.951 . S
C103 C98 1.491 . S
C103 C105 1.382 . S
C103 C107 1.404 . S
H104 C102 0.951 . S
C105 C103 1.382 . S
C105 C106 1.390 . S
C105 H110 0.949 . S
C106 C105 1.390 . S
C106 C111 1.399 . S
C107 C103 1.404 . S
C107 H108 0.950 . S
C107 C109 1.375 . S
H108 C107 0.950 . S
C109 C107 1.375 . S
C109 C111 1.382 . S
C109 H113 0.950 . S
H110 C105 0.949 . S
C111 C106 1.399 . S
C111 C109 1.382 . S
C111 H112 0.952 . S
H112 C111 0.952 . S
H113 C109 0.950 . S
H114 C115 0.949 . S
C115 H114 0.949 . S
C115 C116 1.395 . S
C115 C117 1.391 . S
C116 C115 1.395 . S
C116 C119 1.390 . S
C117 C115 1.391 . S
C117 C121 1.387 . S
C117 C122 1.491 . S
H118 C119 0.950 . S
C119 C116 1.390 . S
C119 H118 0.950 . S
C119 C120 1.378 . S
C120 C119 1.378 . S
C120 C121 1.409 . S
C121 C117 1.387 . S
C121 C120 1.409 . S
C121 H123 0.951 . S
C122 C117 1.491 . S
C122 C124 1.382 . S
C122 C126 1.404 . S
H123 C121 0.951 . S
C124 C122 1.382 . S
C124 C125 1.390 . S
C124 H129 0.949 . S
C125 C124 1.390 . S
C125 C130 1.399 . S
C126 C122 1.404 . S
C126 H127 0.950 . S
C126 C128 1.375 . S
H127 C126 0.950 . S
C128 C126 1.375 . S
C128 C130 1.382 . S
C128 H132 0.950 . S
H129 C124 0.949 . S
C130 C125 1.399 . S
C130 C128 1.382 . S
C130 H131 0.952 . S
H131 C130 0.952 . S
H132 C128 0.950 . S
H133 C134 0.949 . S
C134 H133 0.949 . S
C134 C135 1.395 . S
C134 C136 1.391 . S
C135 C134 1.395 . S
C135 C138 1.390 . S
C136 C134 1.391 . S
C136 C140 1.387 . S
C136 C141 1.491 . S
H137 C138 0.950 . S
C138 C135 1.390 . S
C138 H137 0.950 . S
C138 C139 1.378 . S
C139 C138 1.378 . S
C139 C140 1.409 . S
C140 C136 1.387 . S
C140 C139 1.409 . S
C140 H142 0.951 . S
C141 C136 1.491 . S
C141 C143 1.382 . S
C141 C145 1.404 . S
H142 C140 0.951 . S
C143 C141 1.382 . S
C143 C144 1.390 . S
C143 H148 0.949 . S
C144 C143 1.390 . S
C144 C149 1.399 . S
C145 C141 1.404 . S
C145 H146 0.950 . S
C145 C147 1.375 . S
H146 C145 0.950 . S
C147 C145 1.375 . S
C147 C149 1.382 . S
C147 H151 0.950 . S
H148 C143 0.949 . S
C149 C144 1.399 . S
C149 C147 1.382 . S
C149 H150 0.952 . S
H150 C149 0.952 . S
H151 C147 0.950 . S
O152 Zn153 1.953 . S
O152 C168 1.225 1_655 S
Zn153 O152 1.953 . S
Zn153 O154 1.949 1_655 S
Zn153 O160 1.919 . S
Zn153 O165 1.924 . S
O154 Zn153 1.949 1_455 S
O154 Zn155 1.923 1_455 S
O154 Zn156 1.950 . S
O154 Zn157 1.946 . S
Zn155 O154 1.923 1_655 S
Zn155 O158 1.933 1_545 S
Zn155 O161 1.941 . S
Zn155 O162 1.965 1_655 S
Zn156 O154 1.950 . S
Zn156 O163 1.938 . S
Zn156 O164 1.906 . S
Zn156 O174 1.953 . S
Zn157 O154 1.946 . S
Zn157 O159 1.931 1_445 S
Zn157 O166 1.976 1_545 S
Zn157 O167 1.910 1_455 S
O158 Zn155 1.933 1_565 S
O158 C169 1.226 . S
O159 Zn157 1.931 1_665 S
O159 C169 1.307 . S
O160 Zn153 1.919 . S
O160 C171 1.253 . S
O161 Zn155 1.941 . S
O161 C171 1.283 . S
O162 Zn155 1.965 1_455 S
O162 C170 1.303 . S
O163 Zn156 1.938 . S
O163 C170 1.247 . S
O164 Zn156 1.906 . S
O164 C172 1.304 . S
O165 Zn153 1.924 . S
O165 C173 1.311 . S
O166 Zn157 1.976 1_565 S
O166 C172 1.272 1_565 S
O167 Zn157 1.910 1_655 S
O167 C173 1.231 . S
C168 O152 1.225 1_455 S
C168 O174 1.298 . S
C169 O158 1.226 . S
C169 O159 1.307 . S
C170 O162 1.303 . S
C170 O163 1.247 . S
C171 O160 1.253 . S
C171 O161 1.283 . S
C172 O164 1.304 . S
C172 O166 1.272 1_545 S
C173 O165 1.311 . S
C173 O167 1.231 . S
O174 Zn156 1.953 . S
O174 C168 1.298 . S
O175 Zn176 1.953 . S
O175 C191 1.225 . S
Zn176 O175 1.953 . S
Zn176 O177 1.949 . S
Zn176 O183 1.919 . S
Zn176 O188 1.924 . S
O177 Zn176 1.949 . S
O177 Zn178 1.923 1_545 S
O177 Zn179 1.950 . S
O177 Zn180 1.945 . S
Zn178 O177 1.923 1_565 S
Zn178 O181 1.933 . S
Zn178 O184 1.941 . S
Zn178 O185 1.965 1_565 S
Zn179 O177 1.950 . S
Zn179 O186 1.938 . S
Zn179 O187 1.906 . S
Zn179 O197 1.953 . S
Zn180 O177 1.945 . S
Zn180 O182 1.932 1_545 S
Zn180 O189 1.977 . S
Zn180 O190 1.910 . S
O181 Zn178 1.933 . S
O181 C192 1.226 . S
O182 Zn180 1.932 1_565 S
O182 C192 1.307 . S
O183 Zn176 1.919 . S
O183 C194 1.253 1_554 S
O184 Zn178 1.941 . S
O184 C194 1.283 1_564 S
O185 Zn178 1.965 1_545 S
O185 C193 1.303 . S
O186 Zn179 1.938 . S
O186 C193 1.247 . S
O187 Zn179 1.906 . S
O187 C195 1.304 . S
O188 Zn176 1.924 . S
O188 C196 1.311 . S
O189 Zn180 1.977 . S
O189 C195 1.272 . S
O190 Zn180 1.910 . S
O190 C196 1.231 . S
C191 O175 1.225 . S
C191 O197 1.298 . S
C192 O181 1.226 . S
C192 O182 1.307 . S
C193 O185 1.303 . S
C193 O186 1.247 . S
C194 O183 1.253 1_556 S
C194 O184 1.283 1_546 S
C195 O187 1.304 . S
C195 O189 1.272 . S
C196 O188 1.311 . S
C196 O190 1.231 . S
O197 Zn179 1.953 . S
O197 C191 1.298 . S
O198 Zn199 1.953 . S
O198 C214 1.225 . S
Zn199 O198 1.953 . S
Zn199 O200 1.949 . S
Zn199 O206 1.919 . S
Zn199 O211 1.924 . S
O200 Zn199 1.949 . S
O200 Zn201 1.923 . S
O200 Zn202 1.950 . S
O200 Zn203 1.945 . S
Zn201 O200 1.923 . S
Zn201 O204 1.933 . S
Zn201 O207 1.941 . S
Zn201 O208 1.965 . S
Zn202 O200 1.950 . S
Zn202 O209 1.938 . S
Zn202 O210 1.906 . S
Zn202 O220 1.953 . S
Zn203 O200 1.945 . S
Zn203 O205 1.932 . S
Zn203 O212 1.977 . S
Zn203 O213 1.910 . S
O204 Zn201 1.933 . S
O204 C215 1.226 . S
O205 Zn203 1.932 . S
O205 C215 1.307 . S
O206 Zn199 1.919 . S
O206 C217 1.253 . S
O207 Zn201 1.941 . S
O207 C217 1.283 . S
O208 Zn201 1.965 . S
O208 C216 1.303 . S
O209 Zn202 1.938 . S
O209 C216 1.247 . S
O210 Zn202 1.906 . S
O210 C218 1.304 . S
O211 Zn199 1.924 . S
O211 C219 1.311 . S
O212 Zn203 1.977 . S
O212 C218 1.272 . S
O213 Zn203 1.910 . S
O213 C219 1.231 . S
C214 O198 1.225 . S
C214 O220 1.298 . S
C215 O204 1.226 . S
C215 O205 1.307 . S
C216 O208 1.303 . S
C216 O209 1.247 . S
C217 O206 1.253 . S
C217 O207 1.283 . S
C218 O210 1.304 . S
C218 O212 1.272 . S
C219 O211 1.311 . S
C219 O213 1.231 . S
O220 Zn202 1.953 . S
O220 C214 1.298 . S
O221 Zn222 1.953 . S
O221 C237 1.225 . S
Zn222 O221 1.953 . S
Zn222 O223 1.949 1_655 S
Zn222 O229 1.919 . S
Zn222 O234 1.924 . S
O223 Zn222 1.949 1_455 S
O223 Zn224 1.923 1_454 S
O223 Zn225 1.950 . S
O223 Zn226 1.945 . S
Zn224 O223 1.923 1_656 S
Zn224 O227 1.933 1_655 S
Zn224 O230 1.941 . S
Zn224 O231 1.965 . S
Zn225 O223 1.950 . S
Zn225 O232 1.938 . S
Zn225 O233 1.906 . S
Zn225 O243 1.953 . S
Zn226 O223 1.945 . S
Zn226 O228 1.932 1_554 S
Zn226 O235 1.977 . S
Zn226 O236 1.910 . S
O227 Zn224 1.933 1_455 S
O227 C238 1.226 . S
O228 Zn226 1.932 1_556 S
O228 C238 1.307 . S
O229 Zn222 1.919 . S
O229 C240 1.253 1_554 S
O230 Zn224 1.941 . S
O230 C240 1.283 . S
O231 Zn224 1.965 . S
O231 C239 1.303 1_656 S
O232 Zn225 1.938 . S
O232 C239 1.247 . S
O233 Zn225 1.906 . S
O233 C241 1.304 . S
O234 Zn222 1.924 . S
O234 C242 1.311 1_655 S
O235 Zn226 1.977 . S
O235 C241 1.272 . S
O236 Zn226 1.910 . S
O236 C242 1.231 . S
C237 O221 1.225 . S
C237 O243 1.298 1_655 S
C238 O227 1.226 . S
C238 O228 1.307 . S
C239 O231 1.303 1_454 S
C239 O232 1.247 . S
C240 O229 1.253 1_556 S
C240 O230 1.283 . S
C241 O233 1.304 . S
C241 O235 1.272 . S
C242 O234 1.311 1_455 S
C242 O236 1.231 . S
O243 Zn225 1.953 . S
O243 C237 1.298 1_455 S
C244 C245 1.391 . S
C244 C246 1.394 . S
C244 H260 0.931 . S
C245 C244 1.391 . S
C245 C249 1.376 . S
C246 C244 1.394 . S
C246 C247 1.369 . S
C246 C250 1.531 . S
C247 C246 1.369 . S
C247 C248 1.410 . S
C247 C255 1.503 . S
C248 C247 1.410 . S
C248 C249 1.392 . S
C248 C251 1.511 . S
C249 C245 1.376 . S
C249 C248 1.392 . S
C249 H261 0.929 . S
C250 C246 1.531 . S
C250 H262 0.960 . S
C250 H263 0.962 . S
C250 H264 0.960 . S
C251 C248 1.511 . S
C251 H265 0.961 . S
C251 H266 0.961 . S
C251 H267 0.961 . S
C252 C253 1.370 . S
C252 C254 1.363 . S
C252 H268 0.931 . S
C253 C252 1.370 . S
C253 C257 1.408 . S
C254 C252 1.363 . S
C254 C255 1.370 . S
C254 C258 1.524 . S
C255 C247 1.503 . S
C255 C254 1.370 . S
C255 C256 1.403 . S
C256 C255 1.403 . S
C256 C257 1.404 . S
C256 C259 1.539 . S
C257 C253 1.408 . S
C257 C256 1.404 . S
C257 H269 0.930 . S
C258 C254 1.524 . S
C258 H270 0.956 . S
C258 H271 0.961 . S
C258 H272 0.961 . S
C259 C256 1.539 . S
C259 H273 0.958 . S
C259 H274 0.961 . S
C259 H275 0.960 . S
H260 C244 0.931 . S
H261 C249 0.929 . S
H262 C250 0.960 . S
H263 C250 0.962 . S
H264 C250 0.960 . S
H265 C251 0.961 . S
H266 C251 0.961 . S
H267 C251 0.961 . S
H268 C252 0.931 . S
H269 C257 0.930 . S
H270 C258 0.956 . S
H271 C258 0.961 . S
H272 C258 0.961 . S
H273 C259 0.958 . S
H274 C259 0.961 . S
H275 C259 0.960 . S
C276 C277 1.391 . S
C276 C278 1.394 . S
C276 H292 0.931 . S
C277 C276 1.391 . S
C277 C281 1.376 . S
C278 C276 1.394 . S
C278 C279 1.369 . S
C278 C282 1.531 . S
C279 C278 1.369 . S
C279 C280 1.410 . S
C279 C287 1.503 . S
C280 C279 1.410 . S
C280 C281 1.392 . S
C280 C283 1.511 . S
C281 C277 1.376 . S
C281 C280 1.392 . S
C281 H293 0.929 . S
C282 C278 1.531 . S
C282 H294 0.960 . S
C282 H295 0.962 . S
C282 H296 0.960 . S
C283 C280 1.511 . S
C283 H297 0.961 . S
C283 H298 0.961 . S
C283 H299 0.961 . S
C284 C285 1.370 . S
C284 C286 1.363 . S
C284 H300 0.931 . S
C285 C284 1.370 . S
C285 C289 1.408 1_565 S
C286 C284 1.363 . S
C286 C287 1.370 . S
C286 C290 1.524 . S
C287 C279 1.503 . S
C287 C286 1.370 . S
C287 C288 1.403 1_565 S
C288 C287 1.403 1_545 S
C288 C289 1.404 . S
C288 C291 1.539 . S
C289 C285 1.408 1_545 S
C289 C288 1.404 . S
C289 H301 0.930 . S
C290 C286 1.524 . S
C290 H302 0.956 . S
C290 H303 0.961 . S
C290 H304 0.961 . S
C291 C288 1.539 . S
C291 H305 0.958 . S
C291 H306 0.961 . S
C291 H307 0.960 . S
H292 C276 0.931 . S
H293 C281 0.929 . S
H294 C282 0.960 . S
H295 C282 0.962 . S
H296 C282 0.960 . S
H297 C283 0.961 . S
H298 C283 0.961 . S
H299 C283 0.961 . S
H300 C284 0.931 . S
H301 C289 0.930 . S
H302 C290 0.956 . S
H303 C290 0.961 . S
H304 C290 0.961 . S
H305 C291 0.958 . S
H306 C291 0.961 . S
H307 C291 0.960 . S
C308 C309 1.391 . S
C308 C310 1.394 . S
C308 H324 0.931 . S
C309 C308 1.391 . S
C309 C313 1.376 . S
C310 C308 1.394 . S
C310 C311 1.369 . S
C310 C314 1.531 . S
C311 C310 1.369 . S
C311 C312 1.410 . S
C311 C319 1.503 . S
C312 C311 1.410 . S
C312 C313 1.392 . S
C312 C315 1.511 . S
C313 C309 1.376 . S
C313 C312 1.392 . S
C313 H325 0.929 . S
C314 C310 1.531 . S
C314 H326 0.960 . S
C314 H327 0.962 . S
C314 H328 0.960 . S
C315 C312 1.511 . S
C315 H329 0.961 . S
C315 H330 0.961 . S
C315 H331 0.961 . S
C316 C317 1.370 . S
C316 C318 1.363 . S
C316 H332 0.931 . S
C317 C316 1.370 . S
C317 C321 1.408 . S
C318 C316 1.363 . S
C318 C319 1.370 . S
C318 C322 1.524 . S
C319 C311 1.503 . S
C319 C318 1.370 . S
C319 C320 1.403 . S
C320 C319 1.403 . S
C320 C321 1.404 . S
C320 C323 1.539 . S
C321 C317 1.408 . S
C321 C320 1.404 . S
C321 H333 0.930 . S
C322 C318 1.524 . S
C322 H334 0.956 . S
C322 H335 0.961 . S
C322 H336 0.961 . S
C323 C320 1.539 . S
C323 H337 0.958 . S
C323 H338 0.961 . S
C323 H339 0.960 . S
H324 C308 0.931 . S
H325 C313 0.929 . S
H326 C314 0.960 . S
H327 C314 0.962 . S
H328 C314 0.960 . S
H329 C315 0.961 . S
H330 C315 0.961 . S
H331 C315 0.961 . S
H332 C316 0.931 . S
H333 C321 0.930 . S
H334 C322 0.956 . S
H335 C322 0.961 . S
H336 C322 0.961 . S
H337 C323 0.958 . S
H338 C323 0.961 . S
H339 C323 0.960 . S
C340 C341 1.391 . S
C340 C342 1.394 . S
C340 H356 0.931 . S
C341 C340 1.391 . S
C341 C345 1.376 . S
C342 C340 1.394 . S
C342 C343 1.369 . S
C342 C346 1.531 1_655 S
C343 C342 1.369 . S
C343 C344 1.410 . S
C343 C351 1.503 . S
C344 C343 1.410 . S
C344 C345 1.392 . S
C344 C347 1.511 . S
C345 C341 1.376 . S
C345 C344 1.392 . S
C345 H357 0.929 . S
C346 C342 1.531 1_455 S
C346 H358 0.960 . S
C346 H359 0.962 . S
C346 H360 0.960 . S
C347 C344 1.511 . S
C347 H361 0.961 . S
C347 H362 0.961 . S
C347 H363 0.961 . S
C348 C349 1.370 . S
C348 C350 1.363 . S
C348 H364 0.931 . S
C349 C348 1.370 . S
C349 C353 1.408 . S
C350 C348 1.363 . S
C350 C351 1.370 . S
C350 C354 1.524 . S
C351 C343 1.503 . S
C351 C350 1.370 . S
C351 C352 1.403 . S
C352 C351 1.403 . S
C352 C353 1.404 . S
C352 C355 1.539 . S
C353 C349 1.408 . S
C353 C352 1.404 . S
C353 H365 0.930 . S
C354 C350 1.524 . S
C354 H366 0.956 1_655 S
C354 H367 0.961 . S
C354 H368 0.961 . S
C355 C352 1.539 . S
C355 H369 0.958 . S
C355 H370 0.961 . S
C355 H371 0.960 . S
H356 C340 0.931 . S
H357 C345 0.929 . S
H358 C346 0.960 . S
H359 C346 0.962 . S
H360 C346 0.960 . S
H361 C347 0.961 . S
H362 C347 0.961 . S
H363 C347 0.961 . S
H364 C348 0.931 . S
H365 C353 0.930 . S
H366 C354 0.956 1_455 S
H367 C354 0.961 . S
H368 C354 0.961 . S
H369 C355 0.958 . S
H370 C355 0.961 . S
H371 C355 0.960 . S
C372 C373 1.391 . S
C372 C374 1.394 . S
C372 H388 0.931 . S
C373 C372 1.391 . S
C373 C377 1.376 . S
C374 C372 1.394 . S
C374 C375 1.369 . S
C374 C378 1.531 . S
C375 C374 1.369 . S
C375 C376 1.410 . S
C375 C383 1.503 . S
C376 C375 1.410 . S
C376 C377 1.392 . S
C376 C379 1.511 . S
C377 C373 1.376 . S
C377 C376 1.392 . S
C377 H389 0.929 . S
C378 C374 1.531 . S
C378 H390 0.960 . S
C378 H391 0.962 . S
C378 H392 0.960 . S
C379 C376 1.511 . S
C379 H393 0.961 . S
C379 H394 0.961 . S
C379 H395 0.961 . S
C380 C381 1.370 . S
C380 C382 1.363 . S
C380 H396 0.931 . S
C381 C380 1.370 . S
C381 C385 1.408 . S
C382 C380 1.363 . S
C382 C383 1.370 . S
C382 C386 1.524 . S
C383 C375 1.503 . S
C383 C382 1.370 . S
C383 C384 1.403 . S
C384 C383 1.403 . S
C384 C385 1.404 . S
C384 C387 1.539 . S
C385 C381 1.408 . S
C385 C384 1.404 . S
C385 H397 0.930 . S
C386 C382 1.524 . S
C386 H398 0.956 . S
C386 H399 0.961 . S
C386 H400 0.961 . S
C387 C384 1.539 . S
C387 H401 0.958 . S
C387 H402 0.961 . S
C387 H403 0.960 . S
H388 C372 0.931 . S
H389 C377 0.929 . S
H390 C378 0.960 . S
H391 C378 0.962 . S
H392 C378 0.960 . S
H393 C379 0.961 . S
H394 C379 0.961 . S
H395 C379 0.961 . S
H396 C380 0.931 . S
H397 C385 0.930 . S
H398 C386 0.956 . S
H399 C386 0.961 . S
H400 C386 0.961 . S
H401 C387 0.958 . S
H402 C387 0.961 . S
H403 C387 0.960 . S
C404 C405 1.391 . S
C404 C406 1.394 . S
C404 H420 0.931 . S
C405 C404 1.391 . S
C405 C409 1.376 . S
C406 C404 1.394 . S
C406 C407 1.369 . S
C406 C410 1.531 . S
C407 C406 1.369 . S
C407 C408 1.410 . S
C407 C415 1.503 . S
C408 C407 1.410 . S
C408 C409 1.392 . S
C408 C411 1.511 1_565 S
C409 C405 1.376 . S
C409 C408 1.392 . S
C409 H421 0.929 . S
C410 C406 1.531 . S
C410 H422 0.960 . S
C410 H423 0.962 . S
C410 H424 0.960 . S
C411 C408 1.511 1_545 S
C411 H425 0.961 . S
C411 H426 0.961 . S
C411 H427 0.961 . S
C412 C413 1.378 . S
C412 C414 1.363 . S
C412 H428 0.931 . S
C413 C412 1.378 . S
C413 C417 1.403 1_565 S
C414 C412 1.363 . S
C414 C415 1.370 . S
C414 C418 1.524 . S
C415 C407 1.503 . S
C415 C414 1.370 . S
C415 C416 1.403 1_565 S
C416 C415 1.403 1_545 S
C416 C417 1.404 . S
C416 C419 1.539 . S
C417 C413 1.403 1_545 S
C417 C416 1.404 . S
C417 H429 0.930 . S
C418 C414 1.524 . S
C418 H430 0.956 . S
C418 H431 0.961 . S
C418 H432 0.961 . S
C419 C416 1.539 . S
C419 H433 0.958 . S
C419 H434 0.961 . S
C419 H435 0.960 . S
H420 C404 0.931 . S
H421 C409 0.929 . S
H422 C410 0.960 . S
H423 C410 0.962 . S
H424 C410 0.960 . S
H425 C411 0.961 . S
H426 C411 0.961 . S
H427 C411 0.961 . S
H428 C412 0.931 . S
H429 C417 0.930 . S
H430 C418 0.956 . S
H431 C418 0.961 . S
H432 C418 0.961 . S
H433 C419 0.958 . S
H434 C419 0.961 . S
H435 C419 0.960 . S
C436 C437 1.391 . S
C436 C438 1.394 . S
C436 H452 0.921 1_556 S
C437 C436 1.391 . S
C437 C441 1.376 . S
C438 C436 1.394 . S
C438 C439 1.369 . S
C438 C442 1.531 1_556 S
C439 C438 1.369 . S
C439 C440 1.410 . S
C439 C447 1.503 . S
C440 C439 1.410 . S
C440 C441 1.392 . S
C440 C443 1.511 . S
C441 C437 1.376 . S
C441 C440 1.392 . S
C441 H453 0.929 . S
C442 C438 1.531 1_554 S
C442 H454 0.960 . S
C442 H455 0.962 . S
C442 H456 0.960 . S
C443 C440 1.511 . S
C443 H457 0.961 . S
C443 H458 0.961 . S
C443 H459 0.961 . S
C444 C445 1.370 . S
C444 C446 1.363 . S
C444 H460 0.931 . S
C445 C444 1.370 . S
C445 C449 1.408 . S
C446 C444 1.363 . S
C446 C447 1.370 . S
C446 C450 1.532 . S
C447 C439 1.503 . S
C447 C446 1.370 . S
C447 C448 1.403 . S
C448 C447 1.403 . S
C448 C449 1.404 . S
C448 C451 1.539 . S
C449 C445 1.408 . S
C449 C448 1.404 . S
C449 H461 0.930 . S
C450 C446 1.532 . S
C450 H462 0.944 1_556 S
C450 H463 0.972 . S
C450 H464 0.954 1_556 S
C451 C448 1.539 . S
C451 H465 0.958 . S
C451 H466 0.961 . S
C451 H467 0.960 . S
H452 C436 0.921 1_554 S
H453 C441 0.929 . S
H454 C442 0.960 . S
H455 C442 0.962 . S
H456 C442 0.960 . S
H457 C443 0.961 . S
H458 C443 0.961 . S
H459 C443 0.961 . S
H460 C444 0.931 . S
H461 C449 0.930 . S
H462 C450 0.944 1_554 S
H463 C450 0.972 . S
H464 C450 0.954 1_554 S
H465 C451 0.958 . S
H466 C451 0.961 . S
H467 C451 0.960 . S
C468 C469 1.391 . S
C468 C470 1.394 . S
C468 H484 0.931 . S
C469 C468 1.391 . S
C469 C473 1.376 . S
C470 C468 1.394 . S
C470 C471 1.369 . S
C470 C474 1.531 . S
C471 C470 1.369 . S
C471 C472 1.410 . S
C471 C479 1.503 . S
C472 C471 1.410 . S
C472 C473 1.392 . S
C472 C475 1.511 . S
C473 C469 1.376 . S
C473 C472 1.392 . S
C473 H485 0.929 . S
C474 C470 1.531 . S
C474 H486 0.960 . S
C474 H487 0.962 . S
C474 H488 0.960 . S
C475 C472 1.511 . S
C475 H489 0.961 . S
C475 H490 0.961 . S
C475 H491 0.961 . S
C476 C477 1.370 . S
C476 C478 1.363 . S
C476 H492 0.931 . S
C477 C476 1.370 . S
C477 C481 1.408 . S
C478 C476 1.363 . S
C478 C479 1.370 . S
C478 C482 1.524 . S
C479 C471 1.503 . S
C479 C478 1.370 . S
C479 C480 1.403 . S
C480 C479 1.403 . S
C480 C481 1.404 . S
C480 C483 1.539 . S
C481 C477 1.408 . S
C481 C480 1.404 . S
C481 H493 0.930 . S
C482 C478 1.524 . S
C482 H494 0.956 . S
C482 H495 0.961 . S
C482 H496 0.961 . S
C483 C480 1.539 . S
C483 H497 0.958 . S
C483 H498 0.961 . S
C483 H499 0.960 . S
H484 C468 0.931 . S
H485 C473 0.929 . S
H486 C474 0.960 . S
H487 C474 0.962 . S
H488 C474 0.960 . S
H489 C475 0.961 . S
H490 C475 0.961 . S
H491 C475 0.961 . S
H492 C476 0.931 . S
H493 C481 0.930 . S
H494 C482 0.956 . S
H495 C482 0.961 . S
H496 C482 0.961 . S
H497 C483 0.958 . S
H498 C483 0.961 . S
H499 C483 0.960 . S
C500 C501 1.391 . S
C500 C502 1.394 . S
C500 H516 0.931 . S
C501 C500 1.391 . S
C501 C505 1.376 . S
C502 C500 1.394 . S
C502 C503 1.369 . S
C502 C506 1.531 . S
C503 C502 1.369 . S
C503 C504 1.410 . S
C503 C511 1.503 . S
C504 C503 1.410 . S
C504 C505 1.392 . S
C504 C507 1.511 . S
C505 C501 1.376 . S
C505 C504 1.392 . S
C505 H517 0.929 . S
C506 C502 1.531 . S
C506 H518 0.960 . S
C506 H519 0.962 . S
C506 H520 0.960 . S
C507 C504 1.511 . S
C507 H521 0.961 . S
C507 H522 0.961 . S
C507 H523 0.961 . S
C508 C509 1.370 . S
C508 C510 1.363 . S
C508 H524 0.931 1_455 S
C509 C508 1.370 . S
C509 C513 1.408 . S
C510 C508 1.363 . S
C510 C511 1.370 . S
C510 C514 1.524 . S
C511 C503 1.503 . S
C511 C510 1.370 . S
C511 C512 1.403 . S
C512 C511 1.403 . S
C512 C513 1.404 . S
C512 C515 1.539 . S
C513 C509 1.408 . S
C513 C512 1.404 . S
C513 H525 0.930 . S
C514 C510 1.524 . S
C514 H526 0.956 1_455 S
C514 H527 0.961 . S
C514 H528 0.961 1_455 S
C515 C512 1.539 . S
C515 H529 0.958 . S
C515 H530 0.961 . S
C515 H531 0.960 . S
H516 C500 0.931 . S
H517 C505 0.929 . S
H518 C506 0.960 . S
H519 C506 0.962 . S
H520 C506 0.960 . S
H521 C507 0.961 . S
H522 C507 0.961 . S
H523 C507 0.961 . S
H524 C508 0.931 1_655 S
H525 C513 0.930 . S
H526 C514 0.956 1_655 S
H527 C514 0.961 . S
H528 C514 0.961 1_655 S
H529 C515 0.958 . S
H530 C515 0.961 . S
H531 C515 0.960 . S
C532 C533 1.391 1_554 S
C532 C534 1.394 . S
C532 H548 0.931 . S
C533 C532 1.391 1_556 S
C533 C537 1.376 . S
C534 C532 1.394 . S
C534 C535 1.369 . S
C534 C538 1.531 . S
C535 C534 1.369 . S
C535 C536 1.410 1_554 S
C535 C543 1.503 . S
C536 C535 1.410 1_556 S
C536 C537 1.392 . S
C536 C539 1.511 . S
C537 C533 1.376 . S
C537 C536 1.392 . S
C537 H549 0.929 . S
C538 C534 1.531 . S
C538 H550 0.960 . S
C538 H551 0.962 . S
C538 H552 0.960 . S
C539 C536 1.511 . S
C539 H553 0.961 . S
C539 H554 0.961 . S
C539 H555 0.961 . S
C540 C541 1.370 . S
C540 C542 1.363 . S
C540 H556 0.931 . S
C541 C540 1.370 . S
C541 C545 1.408 . S
C542 C540 1.363 . S
C542 C543 1.370 . S
C542 C546 1.524 1_554 S
C543 C535 1.503 . S
C543 C542 1.370 . S
C543 C544 1.403 . S
C544 C543 1.403 . S
C544 C545 1.404 . S
C544 C547 1.539 . S
C545 C541 1.408 . S
C545 C544 1.404 . S
C545 H557 0.930 . S
C546 C542 1.524 1_556 S
C546 H558 0.956 . S
C546 H559 0.961 . S
C546 H560 0.961 . S
C547 C544 1.539 . S
C547 H561 0.958 . S
C547 H562 0.961 . S
C547 H563 0.960 . S
H548 C532 0.931 . S
H549 C537 0.929 . S
H550 C538 0.960 . S
H551 C538 0.962 . S
H552 C538 0.960 . S
H553 C539 0.961 . S
H554 C539 0.961 . S
H555 C539 0.961 . S
H556 C540 0.931 . S
H557 C545 0.930 . S
H558 C546 0.956 . S
H559 C546 0.961 . S
H560 C546 0.961 . S
H561 C547 0.958 . S
H562 C547 0.961 . S
H563 C547 0.960 . S
C564 C565 1.391 . S
C564 C566 1.394 . S
C564 H580 0.931 . S
C565 C564 1.391 . S
C565 C569 1.376 . S
C566 C564 1.394 . S
C566 C567 1.369 . S
C566 C570 1.531 . S
C567 C566 1.369 . S
C567 C568 1.410 . S
C567 C575 1.503 . S
C568 C567 1.410 . S
C568 C569 1.392 . S
C568 C571 1.511 . S
C569 C565 1.376 . S
C569 C568 1.392 . S
C569 H581 0.929 . S
C570 C566 1.531 . S
C570 H582 0.960 . S
C570 H583 0.962 . S
C570 H584 0.960 . S
C571 C568 1.511 . S
C571 H585 0.961 1_655 S
C571 H586 0.961 . S
C571 H587 0.961 . S
C572 C573 1.370 . S
C572 C574 1.363 . S
C572 H588 0.931 . S
C573 C572 1.370 . S
C573 C577 1.408 . S
C574 C572 1.363 . S
C574 C575 1.370 . S
C574 C578 1.524 . S
C575 C567 1.503 . S
C575 C574 1.370 . S
C575 C576 1.403 . S
C576 C575 1.403 . S
C576 C577 1.404 . S
C576 C579 1.539 . S
C577 C573 1.408 . S
C577 C576 1.404 . S
C577 H589 0.930 . S
C578 C574 1.524 . S
C578 H590 0.956 . S
C578 H591 0.961 . S
C578 H592 0.961 . S
C579 C576 1.539 . S
C579 H593 0.958 . S
C579 H594 0.961 . S
C579 H595 0.960 . S
H580 C564 0.931 . S
H581 C569 0.929 . S
H582 C570 0.960 . S
H583 C570 0.962 . S
H584 C570 0.960 . S
H585 C571 0.961 1_455 S
H586 C571 0.961 . S
H587 C571 0.961 . S
H588 C572 0.931 . S
H589 C577 0.930 . S
H590 C578 0.956 . S
H591 C578 0.961 . S
H592 C578 0.961 . S
H593 C579 0.958 . S
H594 C579 0.961 . S
H595 C579 0.960 . S
C596 C597 1.391 . S
C596 C598 1.394 . S
C596 H612 0.931 . S
C597 C596 1.391 . S
C597 C601 1.376 . S
C598 C596 1.394 . S
C598 C599 1.369 . S
C598 C602 1.531 . S
C599 C598 1.369 . S
C599 C600 1.410 . S
C599 C607 1.503 . S
C600 C599 1.410 . S
C600 C601 1.392 . S
C600 C603 1.511 . S
C601 C597 1.376 . S
C601 C600 1.392 . S
C601 H613 0.929 . S
C602 C598 1.531 . S
C602 H614 0.960 . S
C602 H615 0.962 . S
C602 H616 0.960 . S
C603 C600 1.511 . S
C603 H617 0.961 . S
C603 H618 0.961 . S
C603 H619 0.961 . S
C604 C605 1.370 . S
C604 C606 1.363 . S
C604 H620 0.931 . S
C605 C604 1.370 . S
C605 C609 1.408 . S
C606 C604 1.363 . S
C606 C607 1.370 . S
C606 C610 1.524 . S
C607 C599 1.503 . S
C607 C606 1.370 . S
C607 C608 1.403 . S
C608 C607 1.403 . S
C608 C609 1.404 . S
C608 C611 1.539 . S
C609 C605 1.408 . S
C609 C608 1.404 . S
C609 H621 0.930 . S
C610 C606 1.524 . S
C610 H622 0.956 . S
C610 H623 0.961 . S
C610 H624 0.961 . S
C611 C608 1.539 . S
C611 H625 0.958 . S
C611 H626 0.961 . S
C611 H627 0.960 . S
H612 C596 0.931 . S
H613 C601 0.929 . S
H614 C602 0.960 . S
H615 C602 0.962 . S
H616 C602 0.960 . S
H617 C603 0.961 . S
H618 C603 0.961 . S
H619 C603 0.961 . S
H620 C604 0.931 . S
H621 C609 0.930 . S
H622 C610 0.956 . S
H623 C610 0.961 . S
H624 C610 0.961 . S
H625 C611 0.958 . S
H626 C611 0.961 . S
H627 C611 0.960 . S
C628 C629 1.391 1_565 S
C628 C630 1.394 . S
C628 H644 0.931 . S
C629 C628 1.391 1_545 S
C629 C633 1.376 . S
C630 C628 1.394 . S
C630 C631 1.369 1_565 S
C630 C634 1.531 . S
C631 C630 1.369 1_545 S
C631 C632 1.410 . S
C631 C639 1.503 . S
C632 C631 1.410 . S
C632 C633 1.392 . S
C632 C635 1.511 . S
C633 C629 1.376 . S
C633 C632 1.392 . S
C633 H645 0.929 . S
C634 C630 1.531 . S
C634 H646 0.960 . S
C634 H647 0.962 1_655 S
C634 H648 0.960 . S
C635 C632 1.511 . S
C635 H649 0.961 . S
C635 H650 0.961 . S
C635 H651 0.961 . S
C636 C637 1.370 . S
C636 C638 1.363 . S
C636 H652 0.931 1_655 S
C637 C636 1.370 . S
C637 C641 1.408 . S
C638 C636 1.363 . S
C638 C639 1.370 . S
C638 C642 1.524 1_655 S
C639 C631 1.503 . S
C639 C638 1.370 . S
C639 C640 1.403 1_545 S
C640 C639 1.403 1_565 S
C640 C641 1.404 1_565 S
C640 C643 1.539 . S
C641 C637 1.408 . S
C641 C640 1.404 1_545 S
C641 H653 0.930 1_545 S
C642 C638 1.524 1_455 S
C642 H654 0.956 . S
C642 H655 0.961 . S
C642 H656 0.961 . S
C643 C640 1.539 . S
C643 H657 0.958 . S
C643 H658 0.961 . S
C643 H659 0.960 . S
H644 C628 0.931 . S
H645 C633 0.929 . S
H646 C634 0.960 . S
H647 C634 0.962 1_455 S
H648 C634 0.960 . S
H649 C635 0.961 . S
H650 C635 0.961 . S
H651 C635 0.961 . S
H652 C636 0.931 1_455 S
H653 C641 0.930 1_565 S
H654 C642 0.956 . S
H655 C642 0.961 . S
H656 C642 0.961 . S
H657 C643 0.958 . S
H658 C643 0.961 . S
H659 C643 0.960 . S
C660 C661 1.391 . S
C660 C662 1.394 . S
C660 H676 0.931 . S
C661 C660 1.391 . S
C661 C665 1.376 . S
C662 C660 1.394 . S
C662 C663 1.369 . S
C662 C666 1.531 . S
C663 C662 1.369 . S
C663 C664 1.410 . S
C663 C671 1.503 . S
C664 C663 1.410 . S
C664 C665 1.392 . S
C664 C667 1.510 . S
C665 C661 1.376 . S
C665 C664 1.392 . S
C665 H677 0.929 . S
C666 C662 1.531 . S
C666 H678 0.960 . S
C666 H679 0.962 . S
C666 H680 0.960 . S
C667 C664 1.510 . S
C667 H681 0.961 1_545 S
C667 H682 0.961 . S
C667 H683 0.961 1_545 S
C668 C669 1.370 . S
C668 C670 1.363 . S
C668 H684 0.931 . S
C669 C668 1.370 . S
C669 C673 1.408 . S
C670 C668 1.363 . S
C670 C671 1.370 . S
C670 C674 1.524 . S
C671 C663 1.503 . S
C671 C670 1.370 . S
C671 C672 1.403 . S
C672 C671 1.403 . S
C672 C673 1.404 . S
C672 C675 1.539 . S
C673 C669 1.408 . S
C673 C672 1.404 . S
C673 H685 0.930 . S
C674 C670 1.524 . S
C674 H686 0.956 . S
C674 H687 0.961 . S
C674 H688 0.961 . S
C675 C672 1.539 . S
C675 H689 0.958 . S
C675 H690 0.961 . S
C675 H691 0.960 . S
H676 C660 0.931 . S
H677 C665 0.929 . S
H678 C666 0.960 . S
H679 C666 0.962 . S
H680 C666 0.960 . S
H681 C667 0.961 1_565 S
H682 C667 0.961 . S
H683 C667 0.961 1_565 S
H684 C668 0.931 . S
H685 C673 0.930 . S
H686 C674 0.956 . S
H687 C674 0.961 . S
H688 C674 0.961 . S
H689 C675 0.958 . S
H690 C675 0.961 . S
H691 C675 0.960 . S
C692 C693 1.391 . S
C692 C694 1.394 . S
C692 H708 0.931 . S
C693 C692 1.391 . S
C693 C697 1.376 . S
C694 C692 1.394 . S
C694 C695 1.369 . S
C694 C698 1.531 . S
C695 C694 1.369 . S
C695 C696 1.410 . S
C695 C703 1.503 . S
C696 C695 1.410 . S
C696 C697 1.392 . S
C696 C699 1.511 . S
C697 C693 1.376 . S
C697 C696 1.392 . S
C697 H709 0.929 . S
C698 C694 1.531 . S
C698 H710 0.960 . S
C698 H711 0.962 . S
C698 H712 0.960 . S
C699 C696 1.511 . S
C699 H713 0.961 . S
C699 H714 0.961 . S
C699 H715 0.961 . S
C700 C701 1.370 . S
C700 C702 1.363 . S
C700 H716 0.931 . S
C701 C700 1.370 . S
C701 C705 1.408 . S
C702 C700 1.363 . S
C702 C703 1.370 . S
C702 C706 1.524 . S
C703 C695 1.503 . S
C703 C702 1.370 . S
C703 C704 1.403 . S
C704 C703 1.403 . S
C704 C705 1.404 . S
C704 C707 1.539 . S
C705 C701 1.408 . S
C705 C704 1.404 . S
C705 H717 0.930 . S
C706 C702 1.524 . S
C706 H718 0.956 . S
C706 H719 0.961 . S
C706 H720 0.961 . S
C707 C704 1.539 . S
C707 H721 0.958 . S
C707 H722 0.961 . S
C707 H723 0.960 . S
H708 C692 0.931 . S
H709 C697 0.929 . S
H710 C698 0.960 . S
H711 C698 0.962 . S
H712 C698 0.960 . S
H713 C699 0.961 . S
H714 C699 0.961 . S
H715 C699 0.961 . S
H716 C700 0.931 . S
H717 C705 0.930 . S
H718 C706 0.956 . S
H719 C706 0.961 . S
H720 C706 0.961 . S
H721 C707 0.958 . S
H722 C707 0.961 . S
H723 C707 0.960 . S
C724 C725 1.391 . S
C724 C726 1.394 . S
C724 H740 0.931 . S
C725 C724 1.391 . S
C725 C729 1.376 . S
C726 C724 1.394 . S
C726 C727 1.369 . S
C726 C730 1.531 . S
C727 C726 1.369 . S
C727 C728 1.410 . S
C727 C735 1.503 . S
C728 C727 1.410 . S
C728 C729 1.392 . S
C728 C731 1.511 . S
C729 C725 1.376 . S
C729 C728 1.392 . S
C729 H741 0.929 . S
C730 C726 1.531 . S
C730 H742 0.960 . S
C730 H743 0.962 . S
C730 H744 0.960 . S
C731 C728 1.511 . S
C731 H745 0.961 . S
C731 H746 0.961 . S
C731 H747 0.961 . S
C732 C733 1.370 . S
C732 C734 1.363 . S
C732 H748 0.931 . S
C733 C732 1.370 . S
C733 C737 1.408 . S
C734 C732 1.363 . S
C734 C735 1.370 . S
C734 C738 1.524 . S
C735 C727 1.503 . S
C735 C734 1.370 . S
C735 C736 1.403 . S
C736 C735 1.403 . S
C736 C737 1.404 . S
C736 C739 1.539 . S
C737 C733 1.408 . S
C737 C736 1.404 . S
C737 H749 0.930 . S
C738 C734 1.524 . S
C738 H750 0.956 1_455 S
C738 H751 0.961 . S
C738 H752 0.961 1_455 S
C739 C736 1.539 . S
C739 H753 0.958 . S
C739 H754 0.961 . S
C739 H755 0.960 . S
H740 C724 0.931 . S
H741 C729 0.929 . S
H742 C730 0.960 . S
H743 C730 0.962 . S
H744 C730 0.960 . S
H745 C731 0.961 . S
H746 C731 0.961 . S
H747 C731 0.961 . S
H748 C732 0.931 . S
H749 C737 0.930 . S
H750 C738 0.956 1_655 S
H751 C738 0.961 . S
H752 C738 0.961 1_655 S
H753 C739 0.958 . S
H754 C739 0.961 . S
H755 C739 0.960 . S
C756 C757 1.391 . S
C756 C758 1.394 . S
C756 H772 0.931 1_545 S
C757 C756 1.391 . S
C757 C761 1.376 1_554 S
C758 C756 1.394 . S
C758 C759 1.369 . S
C758 C762 1.531 1_545 S
C759 C758 1.369 . S
C759 C760 1.410 . S
C759 C767 1.503 . S
C760 C759 1.410 . S
C760 C761 1.392 1_554 S
C760 C763 1.511 1_554 S
C761 C757 1.376 1_556 S
C761 C760 1.392 1_556 S
C761 H773 0.929 . S
C762 C758 1.531 1_565 S
C762 H774 0.960 . S
C762 H775 0.962 . S
C762 H776 0.960 . S
C763 C760 1.511 1_556 S
C763 H777 0.961 . S
C763 H778 0.961 . S
C763 H779 0.961 1_556 S
C764 C765 1.370 . S
C764 C766 1.363 . S
C764 H780 0.931 . S
C765 C764 1.370 . S
C765 C769 1.408 . S
C766 C764 1.363 . S
C766 C767 1.370 . S
C766 C770 1.524 1_554 S
C767 C759 1.503 . S
C767 C766 1.370 . S
C767 C768 1.403 . S
C768 C767 1.403 . S
C768 C769 1.404 . S
C768 C771 1.539 . S
C769 C765 1.408 . S
C769 C768 1.404 . S
C769 H781 0.930 . S
C770 C766 1.524 1_556 S
C770 H782 0.956 1_545 S
C770 H783 0.961 . S
C770 H784 0.961 1_545 S
C771 C768 1.539 . S
C771 H785 0.958 . S
C771 H786 0.961 . S
C771 H787 0.960 . S
H772 C756 0.931 1_565 S
H773 C761 0.929 . S
H774 C762 0.960 . S
H775 C762 0.962 . S
H776 C762 0.960 . S
H777 C763 0.961 . S
H778 C763 0.961 . S
H779 C763 0.961 1_554 S
H780 C764 0.931 . S
H781 C769 0.930 . S
H782 C770 0.956 1_565 S
H783 C770 0.961 . S
H784 C770 0.961 1_565 S
H785 C771 0.958 . S
H786 C771 0.961 . S
H787 C771 0.960 . S
C788 C789 1.391 . S
C788 C790 1.394 . S
C788 H804 0.931 . S
C789 C788 1.391 . S
C789 C793 1.376 . S
C790 C788 1.394 . S
C790 C791 1.369 . S
C790 C794 1.531 . S
C791 C790 1.369 . S
C791 C792 1.410 . S
C791 C799 1.503 . S
C792 C791 1.410 . S
C792 C793 1.392 . S
C792 C795 1.511 . S
C793 C789 1.376 . S
C793 C792 1.392 . S
C793 H805 0.929 . S
C794 C790 1.531 . S
C794 H806 0.960 . S
C794 H807 0.962 . S
C794 H808 0.960 . S
C795 C792 1.511 . S
C795 H809 0.961 . S
C795 H810 0.961 . S
C795 H811 0.961 . S
C796 C797 1.370 . S
C796 C798 1.363 . S
C796 H812 0.931 . S
C797 C796 1.370 . S
C797 C801 1.408 . S
C798 C796 1.363 . S
C798 C799 1.370 . S
C798 C802 1.524 . S
C799 C791 1.503 . S
C799 C798 1.370 . S
C799 C800 1.403 . S
C800 C799 1.403 . S
C800 C801 1.404 . S
C800 C803 1.539 1_545 S
C801 C797 1.408 . S
C801 C800 1.404 . S
C801 H813 0.925 1_545 S
C802 C798 1.524 . S
C802 H814 0.956 . S
C802 H815 0.961 . S
C802 H816 0.961 . S
C803 C800 1.539 1_565 S
C803 H817 0.958 . S
C803 H818 0.961 . S
C803 H819 0.965 . S
H804 C788 0.931 . S
H805 C793 0.929 . S
H806 C794 0.960 . S
H807 C794 0.962 . S
H808 C794 0.960 . S
H809 C795 0.961 . S
H810 C795 0.961 . S
H811 C795 0.961 . S
H812 C796 0.931 . S
H813 C801 0.925 1_565 S
H814 C802 0.956 . S
H815 C802 0.961 . S
H816 C802 0.961 . S
H817 C803 0.958 . S
H818 C803 0.961 . S
H819 C803 0.965 . S
C820 C821 1.391 . S
C820 C822 1.394 . S
C820 H836 0.931 . S
C821 C820 1.391 . S
C821 C825 1.376 . S
C822 C820 1.394 . S
C822 C823 1.369 . S
C822 C826 1.531 . S
C823 C822 1.369 . S
C823 C824 1.410 . S
C823 C831 1.503 . S
C824 C823 1.410 . S
C824 C825 1.392 . S
C824 C827 1.511 . S
C825 C821 1.376 . S
C825 C824 1.392 . S
C825 H837 0.929 . S
C826 C822 1.531 . S
C826 H838 0.960 . S
C826 H839 0.962 . S
C826 H840 0.960 . S
C827 C824 1.511 . S
C827 H841 0.961 . S
C827 H842 0.961 . S
C827 H843 0.961 . S
C828 C829 1.370 . S
C828 C830 1.363 . S
C828 H844 0.931 . S
C829 C828 1.370 . S
C829 C833 1.408 . S
C830 C828 1.363 . S
C830 C831 1.370 . S
C830 C834 1.524 . S
C831 C823 1.503 . S
C831 C830 1.370 . S
C831 C832 1.403 . S
C832 C831 1.403 . S
C832 C833 1.404 . S
C832 C835 1.539 . S
C833 C829 1.408 . S
C833 C832 1.404 . S
C833 H845 0.930 . S
C834 C830 1.524 . S
C834 H846 0.956 . S
C834 H847 0.961 . S
C834 H848 0.961 . S
C835 C832 1.539 . S
C835 H849 0.958 . S
C835 H850 0.938 1_554 S
C835 H851 0.960 . S
H836 C820 0.931 . S
H837 C825 0.929 . S
H838 C826 0.960 . S
H839 C826 0.962 . S
H840 C826 0.960 . S
H841 C827 0.961 . S
H842 C827 0.961 . S
H843 C827 0.961 . S
H844 C828 0.931 . S
H845 C833 0.930 . S
H846 C834 0.956 . S
H847 C834 0.961 . S
H848 C834 0.961 . S
H849 C835 0.958 . S
H850 C835 0.938 1_556 S
H851 C835 0.960 . S
C852 C853 1.391 . S
C852 C854 1.394 . S
C852 H868 0.931 . S
C853 C852 1.391 . S
C853 C857 1.376 . S
C854 C852 1.394 . S
C854 C855 1.369 . S
C854 C858 1.531 . S
C855 C854 1.369 . S
C855 C856 1.410 . S
C855 C863 1.503 . S
C856 C855 1.410 . S
C856 C857 1.392 . S
C856 C859 1.511 . S
C857 C853 1.376 . S
C857 C856 1.392 . S
C857 H869 0.929 . S
C858 C854 1.531 . S
C858 H870 0.960 . S
C858 H871 0.962 . S
C858 H872 0.960 . S
C859 C856 1.511 . S
C859 H873 0.961 . S
C859 H874 0.961 . S
C859 H875 0.961 . S
C860 C861 1.370 . S
C860 C862 1.363 . S
C860 H876 0.931 . S
C861 C860 1.370 . S
C861 C865 1.408 . S
C862 C860 1.363 . S
C862 C863 1.370 . S
C862 C866 1.524 . S
C863 C855 1.503 . S
C863 C862 1.370 . S
C863 C864 1.403 . S
C864 C863 1.403 . S
C864 C865 1.404 . S
C864 C867 1.539 . S
C865 C861 1.408 . S
C865 C864 1.404 . S
C865 H877 0.930 . S
C866 C862 1.524 . S
C866 H878 0.956 . S
C866 H879 0.961 . S
C866 H880 0.961 . S
C867 C864 1.539 . S
C867 H881 0.958 . S
C867 H882 0.961 . S
C867 H883 0.960 . S
H868 C852 0.931 . S
H869 C857 0.929 . S
H870 C858 0.960 . S
H871 C858 0.962 . S
H872 C858 0.960 . S
H873 C859 0.961 . S
H874 C859 0.961 . S
H875 C859 0.961 . S
H876 C860 0.931 . S
H877 C865 0.930 . S
H878 C866 0.956 . S
H879 C866 0.961 . S
H880 C866 0.961 . S
H881 C867 0.958 . S
H882 C867 0.961 . S
H883 C867 0.960 . S
C884 C885 1.391 . S
C884 C886 1.394 . S
C884 H900 0.931 . S
C885 C884 1.391 . S
C885 C889 1.376 . S
C886 C884 1.394 . S
C886 C887 1.369 . S
C886 C890 1.531 . S
C887 C886 1.369 . S
C887 C888 1.410 . S
C887 C895 1.503 . S
C888 C887 1.410 . S
C888 C889 1.392 . S
C888 C891 1.511 1_655 S
C889 C885 1.376 . S
C889 C888 1.392 . S
C889 H901 0.929 1_655 S
C890 C886 1.531 . S
C890 H902 0.960 . S
C890 H903 0.962 . S
C890 H904 0.960 . S
C891 C888 1.511 1_455 S
C891 H905 0.961 . S
C891 H906 0.961 . S
C891 H907 0.961 . S
C892 C893 1.370 1_554 S
C892 C894 1.363 . S
C892 H908 0.931 . S
C893 C892 1.370 1_556 S
C893 C897 1.408 . S
C894 C892 1.363 . S
C894 C895 1.370 1_554 S
C894 C898 1.524 . S
C895 C887 1.503 . S
C895 C894 1.370 1_556 S
C895 C896 1.403 . S
C896 C895 1.403 . S
C896 C897 1.404 . S
C896 C899 1.539 . S
C897 C893 1.408 . S
C897 C896 1.404 . S
C897 H909 0.930 . S
C898 C894 1.524 . S
C898 H910 0.956 . S
C898 H911 0.961 . S
C898 H912 0.961 . S
C899 C896 1.539 . S
C899 H913 0.958 . S
C899 H914 0.961 1_655 S
C899 H915 0.960 . S
H900 C884 0.931 . S
H901 C889 0.929 1_455 S
H902 C890 0.960 . S
H903 C890 0.962 . S
H904 C890 0.960 . S
H905 C891 0.961 . S
H906 C891 0.961 . S
H907 C891 0.961 . S
H908 C892 0.931 . S
H909 C897 0.930 . S
H910 C898 0.956 . S
H911 C898 0.961 . S
H912 C898 0.961 . S
H913 C899 0.958 . S
H914 C899 0.961 1_455 S
H915 C899 0.960 . S
C916 C917 1.391 . S
C916 C918 1.394 . S
C916 H932 0.931 . S
C917 C916 1.391 . S
C917 C921 1.376 . S
C918 C916 1.394 . S
C918 C919 1.369 . S
C918 C922 1.531 . S
C919 C918 1.369 . S
C919 C920 1.410 . S
C919 C927 1.503 . S
C920 C919 1.410 . S
C920 C921 1.392 . S
C920 C923 1.511 . S
C921 C917 1.376 . S
C921 C920 1.392 . S
C921 H933 0.929 . S
C922 C918 1.531 . S
C922 H934 0.960 . S
C922 H935 0.962 . S
C922 H936 0.960 . S
C923 C920 1.511 . S
C923 H937 0.961 . S
C923 H938 0.961 . S
C923 H939 0.961 . S
C924 C925 1.370 . S
C924 C926 1.363 . S
C924 H940 0.931 . S
C925 C924 1.370 . S
C925 C929 1.408 . S
C926 C924 1.363 . S
C926 C927 1.370 . S
C926 C930 1.524 . S
C927 C919 1.503 . S
C927 C926 1.370 . S
C927 C928 1.403 . S
C928 C927 1.403 . S
C928 C929 1.404 . S
C928 C931 1.539 . S
C929 C925 1.408 . S
C929 C928 1.404 . S
C929 H941 0.930 . S
C930 C926 1.524 . S
C930 H942 0.956 . S
C930 H943 0.961 . S
C930 H944 0.961 . S
C931 C928 1.539 . S
C931 H945 0.958 . S
C931 H946 0.961 . S
C931 H947 0.960 . S
H932 C916 0.931 . S
H933 C921 0.929 . S
H934 C922 0.960 . S
H935 C922 0.962 . S
H936 C922 0.960 . S
H937 C923 0.961 . S
H938 C923 0.961 . S
H939 C923 0.961 . S
H940 C924 0.931 . S
H941 C929 0.930 . S
H942 C930 0.956 . S
H943 C930 0.961 . S
H944 C930 0.961 . S
H945 C931 0.958 . S
H946 C931 0.961 . S
H947 C931 0.960 . S
C948 C949 1.391 . S
C948 C950 1.394 . S
C948 H964 0.931 . S
C949 C948 1.391 . S
C949 C953 1.376 . S
C950 C948 1.394 . S
C950 C951 1.369 . S
C950 C954 1.531 . S
C951 C950 1.369 . S
C951 C952 1.410 . S
C951 C959 1.503 . S
C952 C951 1.410 . S
C952 C953 1.392 . S
C952 C955 1.511 . S
C953 C949 1.376 . S
C953 C952 1.392 . S
C953 H965 0.929 . S
C954 C950 1.531 . S
C954 H966 0.960 . S
C954 H967 0.962 1_455 S
C954 H968 0.960 1_455 S
C955 C952 1.511 . S
C955 H969 0.961 . S
C955 H970 0.961 . S
C955 H971 0.961 . S
C956 C957 1.370 . S
C956 C958 1.363 . S
C956 H972 0.931 . S
C957 C956 1.370 . S
C957 C961 1.408 . S
C958 C956 1.363 . S
C958 C959 1.370 . S
C958 C962 1.524 . S
C959 C951 1.503 . S
C959 C958 1.370 . S
C959 C960 1.403 . S
C960 C959 1.403 . S
C960 C961 1.404 . S
C960 C963 1.539 . S
C961 C957 1.408 . S
C961 C960 1.404 . S
C961 H973 0.930 . S
C962 C958 1.524 . S
C962 H974 0.956 . S
C962 H975 0.961 . S
C962 H976 0.961 . S
C963 C960 1.539 . S
C963 H977 0.958 . S
C963 H978 0.961 . S
C963 H979 0.960 . S
H964 C948 0.931 . S
H965 C953 0.929 . S
H966 C954 0.960 . S
H967 C954 0.962 1_655 S
H968 C954 0.960 1_655 S
H969 C955 0.961 . S
H970 C955 0.961 . S
H971 C955 0.961 . S
H972 C956 0.931 . S
H973 C961 0.930 . S
H974 C962 0.956 . S
H975 C962 0.961 . S
H976 C962 0.961 . S
H977 C963 0.958 . S
H978 C963 0.961 . S
H979 C963 0.960 . S
C980 C981 1.391 . S
C980 C982 1.394 . S
C980 H996 0.931 . S
C981 C980 1.391 . S
C981 C985 1.376 . S
C982 C980 1.394 . S
C982 C983 1.369 . S
C982 C986 1.531 . S
C983 C982 1.369 . S
C983 C984 1.410 . S
C983 C991 1.503 . S
C984 C983 1.410 . S
C984 C985 1.392 . S
C984 C987 1.511 . S
C985 C981 1.376 . S
C985 C984 1.392 . S
C985 H997 0.929 . S
C986 C982 1.531 . S
C986 H998 0.960 . S
C986 H999 0.962 . S
C986 H1000 0.960 . S
C987 C984 1.511 . S
C987 H1001 0.961 . S
C987 H1002 0.961 . S
C987 H1003 0.961 . S
C988 C989 1.370 . S
C988 C990 1.363 . S
C988 H1004 0.931 . S
C989 C988 1.370 . S
C989 C993 1.408 . S
C990 C988 1.363 . S
C990 C991 1.370 . S
C990 C994 1.524 . S
C991 C983 1.503 . S
C991 C990 1.370 . S
C991 C992 1.403 . S
C992 C991 1.403 . S
C992 C993 1.404 . S
C992 C995 1.539 . S
C993 C989 1.408 . S
C993 C992 1.404 . S
C993 H1005 0.930 . S
C994 C990 1.524 . S
C994 H1006 0.956 . S
C994 H1007 0.961 . S
C994 H1008 0.961 . S
C995 C992 1.539 . S
C995 H1009 0.958 . S
C995 H1010 0.961 . S
C995 H1011 0.960 . S
H996 C980 0.931 . S
H997 C985 0.929 . S
H998 C986 0.960 . S
H999 C986 0.962 . S
H1000 C986 0.960 . S
H1001 C987 0.961 . S
H1002 C987 0.961 . S
H1003 C987 0.961 . S
H1004 C988 0.931 . S
H1005 C993 0.930 . S
H1006 C994 0.956 . S
H1007 C994 0.961 . S
H1008 C994 0.961 . S
H1009 C995 0.958 . S
H1010 C995 0.961 . S
H1011 C995 0.960 . S
C245 C6 1.843 . S
C253 C170 1.834 . S
C277 C21 2.170 . S
C285 C194 2.093 1_565 S
C317 C214 0.856 . S
C309 C49 0.892 . S
C341 C68 1.121 . S
C349 C237 1.269 . S
C381 C196 2.369 . S
C373 C2 2.362 . S
C413 C172 1.371 1_565 S
C405 C30 1.334 . S
C445 C240 1.443 . S
C437 C40 1.465 . S
C477 C217 1.335 . S
C469 C63 1.377 . S
C501 C11 1.300 . S
C509 C242 1.467 . S
C541 C191 1.777 . S
C533 C44 1.767 . S
C565 C59 1.246 . S
C573 C169 1.271 . S
C597 C25 1.717 . S
C605 C219 1.691 . S
C637 C173 2.098 . S
C629 C82 2.048 1_545 S
C661 C101 1.842 . S
C669 C195 1.863 . S
C693 C125 1.515 . S
C701 C215 1.565 . S
C725 C144 1.094 . S
C733 C238 1.293 . S
C757 C87 1.237 1_554 S
C765 C193 1.340 . S
C797 C171 2.169 . S
C789 C97 2.166 . S
C829 C241 1.317 . S
C821 C120 1.359 . S
C861 C218 1.325 . S
C853 C135 1.331 . S
C885 C78 2.118 . S
C893 C239 2.123 1_656 S
C925 C192 1.178 . S
C917 C116 1.114 . S
C957 C168 1.686 . S
C949 C139 1.673 . S
C981 C106 1.704 . S
C989 C216 1.750 . S
