# Generated by pormake.
# Topology pth, (4,4)-cn, num edge types: 1
# Building blocks:
#     Node 0, Type 0, BuildingBlock: TATPOV_clean_sbu_0, # of connection points: 4
#     Node 1, Type 0, BuildingBlock: TATPOV_clean_sbu_0, # of connection points: 4
#     Node 2, Type 0, BuildingBlock: TATPOV_clean_sbu_0, # of connection points: 4
#     Node 3, Type 1, BuildingBlock: MIFKUJ_clean_linker_1, # of connection points: 4
#     Node 4, Type 1, BuildingBlock: MIFKUJ_clean_linker_1, # of connection points: 4
#     Node 5, Type 1, BuildingBlock: MIFKUJ_clean_linker_1, # of connection points: 4
#     Edge 6, Type (0, 1), BuildingBlock: CIFDUS_clean_linker_0, # of connection points: 2
#     Edge 7, Type (0, 1), BuildingBlock: CIFDUS_clean_linker_0, # of connection points: 2
#     Edge 8, Type (0, 1), BuildingBlock: CIFDUS_clean_linker_0, # of connection points: 2
#     Edge 9, Type (0, 1), BuildingBlock: CIFDUS_clean_linker_0, # of connection points: 2
#     Edge 10, Type (0, 1), BuildingBlock: CIFDUS_clean_linker_0, # of connection points: 2
#     Edge 11, Type (0, 1), BuildingBlock: CIFDUS_clean_linker_0, # of connection points: 2
#     Edge 12, Type (0, 1), BuildingBlock: CIFDUS_clean_linker_0, # of connection points: 2
#     Edge 13, Type (0, 1), BuildingBlock: CIFDUS_clean_linker_0, # of connection points: 2
#     Edge 14, Type (0, 1), BuildingBlock: CIFDUS_clean_linker_0, # of connection points: 2
#     Edge 15, Type (0, 1), BuildingBlock: CIFDUS_clean_linker_0, # of connection points: 2
#     Edge 16, Type (0, 1), BuildingBlock: CIFDUS_clean_linker_0, # of connection points: 2
#     Edge 17, Type (0, 1), BuildingBlock: CIFDUS_clean_linker_0, # of connection points: 2
# Relax obj value: 0.039
# Max RMSD: 0.161
# Mean RMSD: 0.089
data_MOF--net-pth--node1-TATPOV_clean_sbu_0--node2-MIFKUJ_clean_linker_1--edge1-CIFDUS_clean_linker_0
_symmetry_space_group_name_H-M    P1
_symmetry_Int_Tables_number       1
_symmetry_cell_setting            triclinic
loop_
_symmetry_equiv_pos_as_xyz
'x, y, z'
_cell_length_a     26.638598
_cell_length_b     26.452725
_cell_length_c     55.783599
_cell_angle_alpha  92.44152
_cell_angle_beta   92.198394
_cell_angle_gamma 120.83827
loop_
_atom_site_label
_atom_site_type_symbol
_atom_site_fract_x
_atom_site_fract_y
_atom_site_fract_z
_atom_type_partial_charge
Zn0 Zn 0.11163 -0.00146 0.01425 0.0
Zn1 Zn 0.06562 0.0588 0.0349 0.0
O2 O 0.07161 0.01034 0.06168 0.0
O3 O 0.11467 0.96569 0.04603 0.0
O4 O 0.04057 0.11126 0.05125 0.0
O5 O 0.18087 0.07301 0.00418 0.0
O6 O 0.13989 0.12018 0.01927 0.0
C7 C 0.09193 0.97624 0.06362 0.0
C8 C 0.99477 0.96725 0.99417 0.0
O9 O 0.99902 0.00547 0.01009 0.0
O10 O 0.03624 0.95717 0.99228 0.0
C11 C 0.02017 0.10449 0.07188 0.0
O12 O 0.01182 0.05905 0.08358 0.0
C13 C 0.18077 0.12044 0.00802 0.0
Zn14 Zn 0.19887 0.1587 0.3564 0.0
Zn15 Zn 0.09736 0.09978 0.37719 0.0
O16 O 0.16157 0.11595 0.40349 0.0
O17 O 0.24558 0.17403 0.38802 0.0
O18 O 0.02308 0.06657 0.39482 0.0
O19 O 0.17957 0.21675 0.34381 0.0
O20 O 0.09669 0.169 0.36139 0.0
C21 C 0.21738 0.14649 0.40549 0.0
C22 C 0.12074 0.03664 0.33681 0.0
O23 O 0.08574 0.035 0.35215 0.0
O24 O 0.17043 0.08296 0.33563 0.0
C25 C 0.01437 0.04032 0.41416 0.0
O26 O 0.05422 0.02981 0.42309 0.0
C27 C 0.1306 0.21016 0.34852 0.0
Zn28 Zn 0.09314 0.90616 0.7342 0.0
Zn29 Zn 0.05509 0.95936 0.70482 0.0
O30 O 0.11026 0.94685 0.68329 0.0
O31 O 0.14035 0.90252 0.70748 0.0
O32 O 0.01421 0.99091 0.68448 0.0
O33 O 0.01182 0.83928 0.73878 0.0
O34 O 0.9824 0.88713 0.71662 0.0
C35 C 0.14142 0.92379 0.68745 0.0
C36 C 0.12568 0.0245 0.75179 0.0
O37 O 0.10064 0.0243 0.73182 0.0
O38 O 0.12741 0.97932 0.75717 0.0
C39 C 0.00238 0.9815 0.66185 0.0
O40 O 0.02256 0.95345 0.64926 0.0
C41 C 0.97063 0.84423 0.72949 0.0
H42 H 0.06089 0.48782 0.15897 0.0
H43 H 0.05985 0.40487 0.13747 0.0
H44 H 0.91 0.28314 0.17484 0.0
H45 H 0.91156 0.36639 0.19642 0.0
H46 H 0.99191 0.52862 0.16154 0.0
H47 H 0.09225 0.48804 0.21842 0.0
H48 H 0.12271 0.432 0.24192 0.0
H49 H 0.95491 0.34608 0.2733 0.0
H50 H 0.92602 0.4055 0.25035 0.0
H51 H 0.91435 0.58988 0.24353 0.0
H52 H 0.92762 0.67442 0.26876 0.0
H53 H 0.11058 0.77224 0.25367 0.0
H54 H 0.09594 0.68843 0.22769 0.0
H55 H 0.99345 0.53713 0.25057 0.0
H56 H 0.95418 0.6558 0.19502 0.0
H57 H 0.98847 0.74632 0.17466 0.0
H58 H 0.10996 0.71229 0.13823 0.0
H59 H 0.08095 0.62692 0.16084 0.0
C60 C 0.98644 0.4334 0.17938 0.0
C61 C 0.02741 0.44328 0.16234 0.0
C62 C 0.02669 0.39576 0.15004 0.0
C63 C 0.98484 0.33732 0.15445 0.0
C64 C 0.94332 0.32757 0.17127 0.0
C65 C 0.94408 0.37512 0.18358 0.0
C66 C 0.98888 0.48391 0.19325 0.0
C67 C 0.99218 0.53067 0.18101 0.0
C68 C 0.99124 0.48739 0.21863 0.0
C69 C 0.00666 0.4502 0.23243 0.0
C70 C 0.06189 0.45684 0.23026 0.0
C71 C 0.07906 0.42439 0.24366 0.0
C72 C 0.04102 0.38369 0.25934 0.0
C73 C 0.98554 0.3773 0.26157 0.0
C74 C 0.9687 0.41077 0.24836 0.0
C75 C 0.00401 0.63349 0.23359 0.0
C76 C 0.95711 0.62988 0.24558 0.0
C77 C 0.96493 0.67805 0.26012 0.0
C78 C 0.02014 0.73034 0.26323 0.0
C79 C 0.06715 0.73329 0.2513 0.0
C80 C 0.05907 0.68536 0.23655 0.0
C81 C 0.99596 0.58189 0.21887 0.0
C82 C 0.99133 0.53453 0.23105 0.0
C83 C 0.99904 0.5814 0.19354 0.0
C84 C 0.01559 0.63461 0.17997 0.0
C85 C 0.98935 0.66873 0.18316 0.0
C86 C 0.00842 0.72025 0.17106 0.0
C87 C 0.05278 0.73779 0.1548 0.0
C88 C 0.0773 0.70215 0.15111 0.0
C89 C 0.05964 0.65203 0.16374 0.0
H90 H 0.68473 0.10973 0.4936 0.0
H91 H 0.75711 0.11091 0.46768 0.0
H92 H 0.71768 0.9412 0.4908 0.0
H93 H 0.64556 0.94057 0.51686 0.0
H94 H 0.57036 0.03866 0.49445 0.0
H95 H 0.73725 0.0959 0.54569 0.0
H96 H 0.81937 0.09079 0.56399 0.0
H97 H 0.69829 0.93585 0.59886 0.0
H98 H 0.61568 0.93854 0.57937 0.0
H99 H 0.45107 0.92009 0.57281 0.0
H100 H 0.36834 0.90445 0.5954 0.0
H101 H 0.41835 0.08657 0.58889 0.0
H102 H 0.49969 0.10081 0.56527 0.0
H103 H 0.5756 0.00651 0.58122 0.0
H104 H 0.40759 0.9585 0.52687 0.0
H105 H 0.33399 0.97583 0.5086 0.0
H106 H 0.4713 0.13323 0.47958 0.0
H107 H 0.54446 0.11919 0.50034 0.0
C108 C 0.66004 0.02533 0.50733 0.0
C109 C 0.6914 0.0726 0.49297 0.0
C110 C 0.73267 0.0731 0.4781 0.0
C111 C 0.74325 0.02613 0.47715 0.0
C112 C 0.71124 0.97845 0.49135 0.0
C113 C 0.66989 0.97797 0.50621 0.0
C114 C 0.61716 0.02572 0.52352 0.0
C115 C 0.57197 0.03249 0.51351 0.0
C116 C 0.61967 0.01794 0.54844 0.0
C117 C 0.66988 0.01674 0.56061 0.0
C118 C 0.72805 0.06006 0.55688 0.0
C119 C 0.77504 0.05747 0.56745 0.0
C120 C 0.76489 0.01279 0.58267 0.0
C121 C 0.70704 0.97073 0.58717 0.0
C122 C 0.65993 0.97241 0.5761 0.0
C123 C 0.48144 0.01154 0.56739 0.0
C124 C 0.44441 0.95673 0.57644 0.0
C125 C 0.39712 0.94797 0.58942 0.0
C126 C 0.38639 0.99425 0.59409 0.0
C127 C 0.42445 0.04958 0.58534 0.0
C128 C 0.47141 0.05807 0.57205 0.0
C129 C 0.52844 0.01846 0.552 0.0
C130 C 0.5744 0.01306 0.5622 0.0
C131 C 0.52779 0.02956 0.5274 0.0
C132 C 0.48193 0.03832 0.5156 0.0
C133 C 0.42195 -0.00222 0.51723 0.0
C134 C 0.37963 0.00723 0.50628 0.0
C135 C 0.3961 0.05622 0.49253 0.0
C136 C 0.45633 0.09594 0.49051 0.0
C137 C 0.49855 0.08741 0.50209 0.0
H138 H 0.43156 0.394 0.86122 0.0
H139 H 0.35551 0.30221 0.83992 0.0
H140 H 0.27578 0.39478 0.8098 0.0
H141 H 0.35427 0.48708 0.83032 0.0
H142 H 0.48172 0.51996 0.82103 0.0
H143 H 0.50038 0.48467 0.91891 0.0
H144 H 0.44197 0.41732 0.9485 0.0
H145 H 0.28573 0.40268 0.91486 0.0
H146 H 0.34511 0.47272 0.88588 0.0
H147 H 0.58708 0.71491 0.88933 0.0
H148 H 0.68244 0.79354 0.90729 0.0
H149 H 0.75318 0.68013 0.89514 0.0
H150 H 0.65853 0.60322 0.87632 0.0
H151 H 0.52695 0.58831 0.90754 0.0
H152 H 0.60993 0.69869 0.83427 0.0
H153 H 0.69219 0.73862 0.80827 0.0
H154 H 0.66691 0.56454 0.79568 0.0
H155 H 0.58567 0.52518 0.82187 0.0
C156 C 0.39814 0.44693 0.84735 0.0
C157 C 0.39692 0.39407 0.85041 0.0
C158 C 0.35314 0.34157 0.83826 0.0
C159 C 0.30945 0.34095 0.82296 0.0
C160 C 0.30927 0.39375 0.82102 0.0
C161 C 0.35365 0.44642 0.83291 0.0
C162 C 0.45009 0.50348 0.85648 0.0
C163 C 0.49101 0.53575 0.83988 0.0
C164 C 0.46347 0.5216 0.88127 0.0
C165 C 0.42716 0.48346 0.89998 0.0
C166 C 0.45367 0.46781 0.9181 0.0
C167 C 0.4201 0.42873 0.93489 0.0
C168 C 0.35906 0.40401 0.9339 0.0
C169 C 0.3327 0.42116 0.91622 0.0
C170 C 0.36649 0.46068 0.89945 0.0
C171 C 0.61619 0.65369 0.88148 0.0
C172 C 0.62354 0.70758 0.89033 0.0
C173 C 0.67793 0.75221 0.90071 0.0
C174 C 0.72559 0.74319 0.9028 0.0
C175 C 0.71795 0.68917 0.89349 0.0
C176 C 0.66378 0.64493 0.88287 0.0
C177 C 0.55792 0.60506 0.87203 0.0
C178 C 0.5163 0.57392 0.88857 0.0
C179 C 0.54584 0.58485 0.84747 0.0
C180 C 0.59195 0.60907 0.8301 0.0
C181 C 0.6219 0.66917 0.82575 0.0
C182 C 0.66853 0.69178 0.81077 0.0
C183 C 0.686 0.65464 0.80004 0.0
C184 C 0.65473 0.59424 0.80388 0.0
C185 C 0.60808 0.57168 0.8187 0.0
H186 H 0.99098 0.11137 0.11765 0.0
H187 H 0.02788 0.20048 0.05182 0.0
H188 H 0.01815 0.27907 0.0713 0.0
H189 H 0.00238 0.32427 0.10735 0.0
H190 H 0.9688 0.23693 0.17352 0.0
H191 H 0.97316 0.15557 0.15347 0.0
C192 C 0.99649 0.14774 0.10749 0.0
C193 C 0.01035 0.15002 0.08332 0.0
C194 C 0.99145 0.1932 0.11887 0.0
C195 C 0.01739 0.1976 0.07047 0.0
C196 C 0.0119 0.24267 0.0816 0.0
C197 C 0.99633 0.28759 0.11742 0.0
C198 C 0.98543 0.28687 0.14193 0.0
C199 C 0.99964 0.24128 0.10586 0.0
C200 C 0.9766 0.23839 0.15458 0.0
C201 C 0.97946 0.19198 0.14317 0.0
H202 H 0.9269 0.06067 0.40149 0.0
H203 H 0.98625 0.9921 0.45763 0.0
H204 H 0.90638 0.97955 0.48165 0.0
H205 H 0.82317 0.99354 0.48775 0.0
H206 H 0.7639 0.0617 0.43143 0.0
H207 H 0.84069 0.06948 0.40662 0.0
C208 C 0.92219 0.04251 0.41889 0.0
C209 C 0.96283 0.02766 0.42775 0.0
C210 C 0.87648 0.03589 0.43272 0.0
C211 C 0.95577 0.00404 0.45034 0.0
C212 C 0.91015 0.99698 0.46415 0.0
C213 C 0.82647 0.00927 0.46991 0.0
C214 C 0.788 0.02743 0.46158 0.0
C215 C 0.87073 0.01352 0.45566 0.0
C216 C 0.7935 0.0484 0.4385 0.0
C217 C 0.83722 0.05256 0.42422 0.0
H218 H 0.93127 0.75059 0.75703 0.0
H219 H 0.8739 0.8519 0.71822 0.0
H220 H 0.77918 0.79992 0.73575 0.0
H221 H 0.71596 0.73198 0.765 0.0
H222 H 0.77485 0.63251 0.80415 0.0
H223 H 0.86547 0.67735 0.78354 0.0
C224 C 0.89781 0.76077 0.75209 0.0
C225 C 0.91004 0.80556 0.73652 0.0
C226 C 0.84383 0.73145 0.76252 0.0
C227 C 0.86586 0.81776 0.73021 0.0
C228 C 0.81174 0.78832 0.74036 0.0
C229 C 0.74864 0.72008 0.76891 0.0
C230 C 0.73891 0.67928 0.78614 0.0
C231 C 0.80086 0.74626 0.75705 0.0
C232 C 0.78115 0.66352 0.79083 0.0
C233 C 0.83309 0.68932 0.77913 0.0
H234 H 0.16381 0.94472 0.08512 0.0
H235 H 0.99535 0.92936 0.08929 0.0
H236 H 0.96868 0.85575 0.11898 0.0
H237 H 0.98915 0.78771 0.13979 0.0
H238 H 0.16235 0.81158 0.13916 0.0
H239 H 0.19067 0.88921 0.11177 0.0
C240 C 0.12176 0.92604 0.09293 0.0
C241 C 0.08138 0.94184 0.08493 0.0
C242 C 0.10702 0.88436 0.11019 0.0
C243 C 0.02723 0.91794 0.09528 0.0
C244 C 0.01178 0.8755 0.11209 0.0
C245 C 0.03364 0.8106 0.1343 0.0
C246 C 0.07256 0.79159 0.14107 0.0
C247 C 0.05075 0.85715 0.11917 0.0
C248 C 0.13008 0.82268 0.13349 0.0
C249 C 0.14681 0.86787 0.11798 0.0
H250 H 0.19283 0.04762 0.42665 0.0
H251 H 0.31644 0.23483 0.42994 0.0
H252 H 0.37951 0.22405 0.45987 0.0
H253 H 0.40334 0.16019 0.482 0.0
H254 H 0.2865 0.97085 0.47306 0.0
H255 H 0.21635 0.98383 0.44918 0.0
C256 C 0.23293 0.08615 0.43441 0.0
C257 C 0.24986 0.14201 0.42644 0.0
C258 C 0.27039 0.07908 0.45048 0.0
C259 C 0.30254 0.19151 0.43604 0.0
C260 C 0.33864 0.18525 0.453 0.0
C261 C 0.36292 0.12151 0.4747 0.0
C262 C 0.35106 0.06454 0.47941 0.0
C263 C 0.32384 0.12898 0.45978 0.0
C264 C 0.29713 0.0154 0.47026 0.0
C265 C 0.25692 0.02266 0.4563 0.0
H266 H 0.1586 0.13696 0.74221 0.0
H267 H 0.15606 0.03113 0.79948 0.0
H268 H 0.20753 0.11916 0.82718 0.0
H269 H 0.25765 0.22643 0.83463 0.0
H270 H 0.26777 0.33318 0.77641 0.0
H271 H 0.20731 0.24452 0.74994 0.0
C272 C 0.16887 0.13314 0.7608 0.0
C273 C 0.15384 0.07766 0.76872 0.0
C274 C 0.19958 0.1841 0.77655 0.0
C275 C 0.16764 0.07342 0.79286 0.0
C276 C 0.19696 0.12371 0.80874 0.0
C277 C 0.24692 0.23047 0.81613 0.0
C278 C 0.26763 0.28667 0.80763 0.0
C279 C 0.214 0.17937 0.80068 0.0
C280 C 0.25189 0.29069 0.7837 0.0
C281 C 0.21778 0.23993 0.76839 0.0
H282 H 0.97968 0.98541 0.61402 0.0
H283 H 0.9275 0.00601 0.68437 0.0
H284 H 0.84968 0.01751 0.66612 0.0
H285 H 0.7932 0.01736 0.63012 0.0
H286 H 0.84769 0.00207 0.55983 0.0
H287 H 0.92766 0.99282 0.578 0.0
C288 C 0.95156 0.99288 0.62534 0.0
C289 C 0.9593 0.99447 0.65052 0.0
C290 C 0.90699 0.0 0.61472 0.0
C291 C 0.92274 0.0047 0.66494 0.0
C292 C 0.87793 0.011 0.65453 0.0
C293 C 0.8228 0.01212 0.61888 0.0
C294 C 0.81457 0.00981 0.59376 0.0
C295 C 0.86914 0.00795 0.62946 0.0
C296 C 0.85342 0.00386 0.57925 0.0
C297 C 0.89897 -0.0015 0.58962 0.0
H298 H 0.98116 0.90689 0.95152 0.0
H299 H 0.88649 0.95004 0.00142 0.0
H300 H 0.79515 0.88644 0.97694 0.0
H301 H 0.74157 0.81368 0.94296 0.0
H302 H 0.83695 0.77427 0.89194 0.0
H303 H 0.92865 0.84092 0.91552 0.0
C304 C 0.94057 0.90259 0.95698 0.0
C305 C 0.94048 0.93264 0.97837 0.0
C306 C 0.88834 0.8663 0.94276 0.0
C307 C 0.88772 0.92732 0.98504 0.0
C308 C 0.83545 0.89082 0.97109 0.0
C309 C 0.78244 0.8205 0.93664 0.0
C310 C 0.78204 0.78834 0.91578 0.0
C311 C 0.83516 0.85951 0.9501 0.0
C312 C 0.83562 0.79734 0.90818 0.0
C313 C 0.8882 0.83574 0.92158 0.0
H314 H 0.04183 0.92068 0.34243 0.0
H315 H 0.16302 0.03733 0.29332 0.0
H316 H 0.14007 0.95323 0.26574 0.0
H317 H 0.08793 0.84695 0.25596 0.0
H318 H 0.97231 0.72878 0.30617 0.0
H319 H 0.98965 0.813 0.33257 0.0
C320 C 0.06282 0.92756 0.32561 0.0
C321 C 0.10413 0.98507 0.31996 0.0
C322 C 0.05036 0.87879 0.30998 0.0
C323 C 0.13138 0.99343 0.29818 0.0
C324 C 0.11823 0.94539 0.28236 0.0
C325 C 0.06694 0.83942 0.27279 0.0
C326 C 0.02908 0.78146 0.27903 0.0
C327 C 0.07835 0.8879 0.2882 0.0
C328 C 0.00115 0.77283 0.30068 0.0
C329 C 0.01138 0.82101 0.31592 0.0
H330 H 0.17425 0.98411 0.64655 0.0
H331 H 0.20352 0.86836 0.68954 0.0
H332 H 0.28084 0.87976 0.66453 0.0
H333 H 0.34451 0.92702 0.63232 0.0
H334 H 0.31477 0.04014 0.58788 0.0
H335 H 0.2345 0.02637 0.61195 0.0
C336 C 0.19701 0.96077 0.65023 0.0
C337 C 0.1831 0.92572 0.67005 0.0
C338 C 0.24218 0.9678 0.63579 0.0
C339 C 0.2133 0.89593 0.67455 0.0
C340 C 0.2578 0.90251 0.66028 0.0
C341 C 0.31995 0.94791 0.6275 0.0
C342 C 0.33618 0.98477 0.60827 0.0
C343 C 0.27324 0.93904 0.64112 0.0
C344 C 0.30425 0.01237 0.60283 0.0
C345 C 0.25787 0.00411 0.61647 0.0
H346 H 0.17628 0.21933 0.00069 0.0
H347 H 0.28321 0.14198 0.99017 0.0
H348 H 0.34901 0.22434 0.96727 0.0
H349 H 0.37177 0.31372 0.94757 0.0
H350 H 0.26484 0.39121 0.9573 0.0
H351 H 0.20288 0.31279 0.98287 0.0
C352 C 0.21451 0.22097 0.99373 0.0
C353 C 0.22465 0.1744 0.9971 0.0
C354 C 0.25161 0.26794 0.9801 0.0
C355 C 0.27418 0.17706 0.98777 0.0
C356 C 0.31177 0.22406 0.9746 0.0
C357 C 0.33558 0.31419 0.95562 0.0
C358 C 0.32299 0.35833 0.95048 0.0
C359 C 0.30023 0.26906 0.97025 0.0
C360 C 0.27509 0.35738 0.9607 0.0
C361 C 0.23985 0.31274 0.97544 0.0
H362 H 0.15394 0.24692 0.30414 0.0
H363 H 0.05829 0.24806 0.36454 0.0
H364 H 0.02159 0.30219 0.34227 0.0
H365 H 0.018 0.34975 0.30549 0.0
H366 H 0.10611 0.33729 0.24402 0.0
H367 H 0.14475 0.28728 0.26697 0.0
C368 C 0.12554 0.25958 0.31255 0.0
C369 C 0.10969 0.24472 0.33606 0.0
C370 C 0.1032 0.2885 0.29941 0.0
C371 C 0.07149 0.2597 0.3465 0.0
C372 C 0.05045 0.29042 0.33375 0.0
C373 C 0.04494 0.3354 0.29698 0.0
C374 C 0.05999 0.34861 0.27313 0.0
C375 C 0.06593 0.30492 0.31012 0.0
C376 C 0.0952 0.32962 0.26253 0.0
C377 C 0.11707 0.30054 0.27559 0.0
loop_
_geom_bond_atom_site_label_1
_geom_bond_atom_site_label_2
_geom_bond_distance
_geom_bond_site_symmetry_2
_ccdc_geom_bond_type
Zn0 O3 2.031 . S
Zn0 O5 2.049 1_564 S
Zn0 O10 2.067 1_554 S
Zn1 O2 1.962 . S
Zn1 O4 1.986 . S
Zn1 O6 1.996 . S
Zn1 O9 1.943 . S
O2 Zn1 1.962 . S
O2 C7 1.254 1_545 S
O3 Zn0 2.031 . S
O3 C7 1.269 . S
O4 Zn1 1.986 . S
O4 C11 1.262 . S
O5 Zn0 2.049 1_546 S
O5 C13 1.260 1_556 S
O6 Zn1 1.996 . S
O6 C13 1.257 . S
C7 O2 1.254 1_565 S
C7 O3 1.269 . S
C8 O9 1.249 1_565 S
C8 O10 1.270 1_554 S
O9 Zn1 1.943 . S
O9 C8 1.249 1_545 S
O10 Zn0 2.067 1_556 S
O10 C8 1.270 1_556 S
C11 O4 1.262 . S
C11 O12 1.232 . S
O12 C11 1.232 . S
C13 O5 1.260 1_554 S
C13 O6 1.257 . S
Zn14 O17 2.031 . S
Zn14 O19 2.049 . S
Zn14 O24 2.067 . S
Zn15 O16 1.962 . S
Zn15 O18 1.986 1_455 S
Zn15 O20 1.996 . S
Zn15 O23 1.943 1_445 S
O16 Zn15 1.962 . S
O16 C21 1.254 . S
O17 Zn14 2.031 . S
O17 C21 1.269 . S
O18 Zn15 1.986 1_655 S
O18 C25 1.262 . S
O19 Zn14 2.049 . S
O19 C27 1.260 . S
O20 Zn15 1.996 . S
O20 C27 1.257 . S
C21 O16 1.254 . S
C21 O17 1.269 . S
C22 O23 1.249 1_455 S
C22 O24 1.270 1_565 S
O23 Zn15 1.943 1_665 S
O23 C22 1.249 1_655 S
O24 Zn14 2.067 . S
O24 C22 1.270 1_545 S
C25 O18 1.262 . S
C25 O26 1.232 . S
O26 C25 1.232 . S
C27 O19 1.260 . S
C27 O20 1.257 . S
Zn28 O31 2.031 1_565 S
Zn28 O33 2.049 . S
Zn28 O38 2.067 1_565 S
Zn29 O30 1.962 1_545 S
Zn29 O32 1.986 1_445 S
Zn29 O34 1.996 1_445 S
Zn29 O37 1.943 . S
O30 Zn29 1.962 1_565 S
O30 C35 1.254 . S
O31 Zn28 2.031 1_545 S
O31 C35 1.269 1_545 S
O32 Zn29 1.986 1_665 S
O32 C39 1.262 1_565 S
O33 Zn28 2.049 . S
O33 C41 1.260 1_455 S
O34 Zn29 1.996 1_665 S
O34 C41 1.257 . S
C35 O30 1.254 . S
C35 O31 1.269 1_565 S
C36 O37 1.249 . S
C36 O38 1.270 . S
O37 Zn29 1.943 . S
O37 C36 1.249 . S
O38 Zn28 2.067 1_545 S
O38 C36 1.270 . S
C39 O32 1.262 1_545 S
C39 O40 1.232 1_655 S
O40 C39 1.232 1_455 S
C41 O33 1.260 1_655 S
C41 O34 1.257 . S
H42 C61 0.949 . S
H43 C62 0.950 . S
H44 C64 0.950 1_655 S
H45 C65 0.950 1_655 S
H46 C67 0.950 . S
H47 C70 0.950 . S
H48 C71 0.950 . S
H49 C73 0.951 . S
H50 C74 0.949 . S
H51 C76 0.949 . S
H52 C77 0.950 . S
H53 C79 0.950 . S
H54 C80 0.950 . S
H55 C82 0.950 . S
H56 C85 0.950 1_655 S
H57 C86 0.950 1_655 S
H58 C88 0.951 . S
H59 C89 0.949 . S
C60 C61 1.376 . S
C60 C65 1.386 . S
C60 C66 1.483 . S
C61 H42 0.949 . S
C61 C60 1.376 . S
C61 C62 1.397 . S
C62 H43 0.950 . S
C62 C61 1.397 . S
C62 C63 1.391 . S
C63 C62 1.391 . S
C63 C64 1.405 . S
C64 H44 0.950 1_455 S
C64 C63 1.405 . S
C64 C65 1.367 . S
C65 H45 0.950 1_455 S
C65 C60 1.386 . S
C65 C64 1.367 . S
C66 C60 1.483 . S
C66 C67 1.382 . S
C66 C68 1.403 . S
C67 H46 0.950 . S
C67 C66 1.382 . S
C67 C83 1.411 . S
C68 C66 1.403 . S
C68 C69 1.489 . S
C68 C82 1.411 . S
C69 C68 1.489 . S
C69 C70 1.383 . S
C69 C74 1.382 1_455 S
C70 H47 0.950 . S
C70 C69 1.383 . S
C70 C71 1.395 . S
C71 H48 0.950 . S
C71 C70 1.395 . S
C71 C72 1.288 . S
C72 C71 1.288 . S
C72 C73 1.392 1_455 S
C73 H49 0.951 . S
C73 C72 1.392 1_655 S
C73 C74 1.392 . S
C74 H50 0.949 . S
C74 C69 1.382 1_655 S
C74 C73 1.392 . S
C75 C76 1.376 1_455 S
C75 C80 1.386 . S
C75 C81 1.483 . S
C76 H51 0.949 . S
C76 C75 1.376 1_655 S
C76 C77 1.397 . S
C77 H52 0.950 . S
C77 C76 1.397 . S
C77 C78 1.391 1_655 S
C78 C77 1.391 1_455 S
C78 C79 1.405 . S
C79 H53 0.950 . S
C79 C78 1.405 . S
C79 C80 1.367 . S
C80 H54 0.950 . S
C80 C75 1.386 . S
C80 C79 1.367 . S
C81 C75 1.483 . S
C81 C82 1.382 . S
C81 C83 1.403 . S
C82 H55 0.950 . S
C82 C68 1.411 . S
C82 C81 1.382 . S
C83 C67 1.411 . S
C83 C81 1.403 . S
C83 C84 1.489 . S
C84 C83 1.489 . S
C84 C85 1.383 . S
C84 C89 1.382 . S
C85 H56 0.950 1_455 S
C85 C84 1.383 . S
C85 C86 1.395 . S
C86 H57 0.950 1_455 S
C86 C85 1.395 . S
C86 C87 1.288 . S
C87 C86 1.288 . S
C87 C88 1.392 . S
C88 H58 0.951 . S
C88 C87 1.392 . S
C88 C89 1.392 . S
C89 H59 0.949 . S
C89 C84 1.382 . S
C89 C88 1.392 . S
H90 C109 0.949 . S
H91 C110 0.950 . S
H92 C112 0.950 . S
H93 C113 0.950 . S
H94 C115 0.950 . S
H95 C118 0.950 . S
H96 C119 0.950 . S
H97 C121 0.951 . S
H98 C122 0.949 . S
H99 C124 0.949 . S
H100 C125 0.950 . S
H101 C127 0.950 . S
H102 C128 0.950 . S
H103 C130 0.950 . S
H104 C133 0.950 1_565 S
H105 C134 0.950 1_565 S
H106 C136 0.951 . S
H107 C137 0.949 . S
C108 C109 1.376 . S
C108 C113 1.386 1_545 S
C108 C114 1.483 . S
C109 H90 0.949 . S
C109 C108 1.376 . S
C109 C110 1.397 . S
C110 H91 0.950 . S
C110 C109 1.397 . S
C110 C111 1.391 . S
C111 C110 1.391 . S
C111 C112 1.405 1_545 S
C112 H92 0.950 . S
C112 C111 1.405 1_565 S
C112 C113 1.367 . S
C113 H93 0.950 . S
C113 C108 1.386 1_565 S
C113 C112 1.367 . S
C114 C108 1.483 . S
C114 C115 1.382 . S
C114 C116 1.403 . S
C115 H94 0.950 . S
C115 C114 1.382 . S
C115 C131 1.411 . S
C116 C114 1.403 . S
C116 C117 1.489 . S
C116 C130 1.411 . S
C117 C116 1.489 . S
C117 C118 1.383 . S
C117 C122 1.382 1_545 S
C118 H95 0.950 . S
C118 C117 1.383 . S
C118 C119 1.395 . S
C119 H96 0.950 . S
C119 C118 1.395 . S
C119 C120 1.288 . S
C120 C119 1.288 . S
C120 C121 1.392 1_545 S
C121 H97 0.951 . S
C121 C120 1.392 1_565 S
C121 C122 1.392 . S
C122 H98 0.949 . S
C122 C117 1.382 1_565 S
C122 C121 1.392 . S
C123 C124 1.376 1_545 S
C123 C128 1.386 . S
C123 C129 1.483 . S
C124 H99 0.949 . S
C124 C123 1.376 1_565 S
C124 C125 1.397 . S
C125 H100 0.950 . S
C125 C124 1.397 . S
C125 C126 1.391 1_565 S
C126 C125 1.391 1_545 S
C126 C127 1.405 . S
C127 H101 0.950 . S
C127 C126 1.405 . S
C127 C128 1.367 . S
C128 H102 0.950 . S
C128 C123 1.386 . S
C128 C127 1.367 . S
C129 C123 1.483 . S
C129 C130 1.382 . S
C129 C131 1.403 . S
C130 H103 0.950 . S
C130 C116 1.411 . S
C130 C129 1.382 . S
C131 C115 1.411 . S
C131 C129 1.403 . S
C131 C132 1.489 . S
C132 C131 1.489 . S
C132 C133 1.383 . S
C132 C137 1.382 . S
C133 H104 0.950 1_545 S
C133 C132 1.383 . S
C133 C134 1.395 . S
C134 H105 0.950 1_545 S
C134 C133 1.395 . S
C134 C135 1.288 . S
C135 C134 1.288 . S
C135 C136 1.392 . S
C136 H106 0.951 . S
C136 C135 1.392 . S
C136 C137 1.392 . S
C137 H107 0.949 . S
C137 C132 1.382 . S
C137 C136 1.392 . S
H138 C157 0.949 . S
H139 C158 0.950 . S
H140 C160 0.950 . S
H141 C161 0.950 . S
H142 C163 0.950 . S
H143 C166 0.950 . S
H144 C167 0.950 . S
H145 C169 0.951 . S
H146 C170 0.949 . S
H147 C172 0.949 . S
H148 C173 0.950 . S
H149 C175 0.950 . S
H150 C176 0.950 . S
H151 C178 0.950 . S
H152 C181 0.950 . S
H153 C182 0.950 . S
H154 C184 0.951 . S
H155 C185 0.949 . S
C156 C157 1.376 . S
C156 C161 1.386 . S
C156 C162 1.483 . S
C157 H138 0.949 . S
C157 C156 1.376 . S
C157 C158 1.397 . S
C158 H139 0.950 . S
C158 C157 1.397 . S
C158 C159 1.391 . S
C159 C158 1.391 . S
C159 C160 1.405 . S
C160 H140 0.950 . S
C160 C159 1.405 . S
C160 C161 1.367 . S
C161 H141 0.950 . S
C161 C156 1.386 . S
C161 C160 1.367 . S
C162 C156 1.483 . S
C162 C163 1.382 . S
C162 C164 1.403 . S
C163 H142 0.950 . S
C163 C162 1.382 . S
C163 C179 1.411 . S
C164 C162 1.403 . S
C164 C165 1.489 . S
C164 C178 1.411 . S
C165 C164 1.489 . S
C165 C166 1.383 . S
C165 C170 1.382 . S
C166 H143 0.950 . S
C166 C165 1.383 . S
C166 C167 1.395 . S
C167 H144 0.950 . S
C167 C166 1.395 . S
C167 C168 1.288 . S
C168 C167 1.288 . S
C168 C169 1.392 . S
C169 H145 0.951 . S
C169 C168 1.392 . S
C169 C170 1.392 . S
C170 H146 0.949 . S
C170 C165 1.382 . S
C170 C169 1.392 . S
C171 C172 1.376 . S
C171 C176 1.386 . S
C171 C177 1.483 . S
C172 H147 0.949 . S
C172 C171 1.376 . S
C172 C173 1.397 . S
C173 H148 0.950 . S
C173 C172 1.397 . S
C173 C174 1.391 . S
C174 C173 1.391 . S
C174 C175 1.405 . S
C175 H149 0.950 . S
C175 C174 1.405 . S
C175 C176 1.367 . S
C176 H150 0.950 . S
C176 C171 1.386 . S
C176 C175 1.367 . S
C177 C171 1.483 . S
C177 C178 1.382 . S
C177 C179 1.403 . S
C178 H151 0.950 . S
C178 C164 1.411 . S
C178 C177 1.382 . S
C179 C163 1.411 . S
C179 C177 1.403 . S
C179 C180 1.489 . S
C180 C179 1.489 . S
C180 C181 1.383 . S
C180 C185 1.382 . S
C181 H152 0.950 . S
C181 C180 1.383 . S
C181 C182 1.395 . S
C182 H153 0.950 . S
C182 C181 1.395 . S
C182 C183 1.288 . S
C183 C182 1.288 . S
C183 C184 1.392 . S
C184 H154 0.951 . S
C184 C183 1.392 . S
C184 C185 1.392 . S
C185 H155 0.949 . S
C185 C180 1.382 . S
C185 C184 1.392 . S
H186 C192 0.930 1_655 S
H187 C195 0.930 . S
H188 C196 0.930 . S
H189 C197 0.930 . S
H190 C200 0.930 1_655 S
H191 C201 0.930 . S
C192 H186 0.930 1_455 S
C192 C193 1.355 . S
C192 C194 1.415 . S
C193 C192 1.355 . S
C193 C195 1.419 . S
C194 C192 1.415 . S
C194 C199 1.425 . S
C194 C201 1.409 1_455 S
C195 H187 0.930 . S
C195 C193 1.419 . S
C195 C196 1.362 . S
C196 H188 0.930 . S
C196 C195 1.362 . S
C196 C199 1.409 . S
C197 H189 0.930 . S
C197 C198 1.355 . S
C197 C199 1.415 . S
C198 C197 1.355 . S
C198 C200 1.419 . S
C199 C194 1.425 . S
C199 C196 1.409 . S
C199 C197 1.415 . S
C200 H190 0.930 1_455 S
C200 C198 1.419 . S
C200 C201 1.362 1_455 S
C201 H191 0.930 . S
C201 C194 1.409 1_655 S
C201 C200 1.362 1_655 S
H202 C208 0.930 . S
H203 C211 0.930 1_565 S
H204 C212 0.930 1_565 S
H205 C213 0.930 . S
H206 C216 0.930 . S
H207 C217 0.930 . S
C208 H202 0.930 . S
C208 C209 1.355 . S
C208 C210 1.415 . S
C209 C208 1.355 . S
C209 C211 1.419 . S
C210 C208 1.415 . S
C210 C215 1.425 . S
C210 C217 1.409 . S
C211 H203 0.930 1_545 S
C211 C209 1.419 . S
C211 C212 1.362 . S
C212 H204 0.930 1_545 S
C212 C211 1.362 . S
C212 C215 1.409 . S
C213 H205 0.930 . S
C213 C214 1.355 . S
C213 C215 1.415 . S
C214 C213 1.355 . S
C214 C216 1.419 . S
C215 C210 1.425 . S
C215 C212 1.409 . S
C215 C213 1.415 . S
C216 H206 0.930 . S
C216 C214 1.419 . S
C216 C217 1.362 . S
C217 H207 0.930 . S
C217 C210 1.409 . S
C217 C216 1.362 . S
H218 C224 0.930 . S
H219 C227 0.930 . S
H220 C228 0.930 . S
H221 C229 0.930 . S
H222 C232 0.930 . S
H223 C233 0.930 . S
C224 H218 0.930 . S
C224 C225 1.355 . S
C224 C226 1.415 . S
C225 C224 1.355 . S
C225 C227 1.419 . S
C226 C224 1.415 . S
C226 C231 1.425 . S
C226 C233 1.409 . S
C227 H219 0.930 . S
C227 C225 1.419 . S
C227 C228 1.362 . S
C228 H220 0.930 . S
C228 C227 1.362 . S
C228 C231 1.409 . S
C229 H221 0.930 . S
C229 C230 1.355 . S
C229 C231 1.415 . S
C230 C229 1.355 . S
C230 C232 1.419 . S
C231 C226 1.425 . S
C231 C228 1.409 . S
C231 C229 1.415 . S
C232 H222 0.930 . S
C232 C230 1.419 . S
C232 C233 1.362 . S
C233 H223 0.930 . S
C233 C226 1.409 . S
C233 C232 1.362 . S
H234 C240 0.930 . S
H235 C243 0.931 1_655 S
H236 C244 0.930 1_655 S
H237 C245 0.930 1_655 S
H238 C248 0.930 . S
H239 C249 0.930 . S
C240 H234 0.930 . S
C240 C241 1.355 . S
C240 C242 1.415 . S
C241 C240 1.355 . S
C241 C243 1.419 . S
C242 C240 1.415 . S
C242 C247 1.425 . S
C242 C249 1.409 . S
C243 H235 0.931 1_455 S
C243 C241 1.419 . S
C243 C244 1.362 . S
C244 H236 0.930 1_455 S
C244 C243 1.362 . S
C244 C247 1.409 . S
C245 H237 0.930 1_455 S
C245 C246 1.355 . S
C245 C247 1.415 . S
C246 C245 1.355 . S
C246 C248 1.419 . S
C247 C242 1.425 . S
C247 C244 1.409 . S
C247 C245 1.415 . S
C248 H238 0.930 . S
C248 C246 1.419 . S
C248 C249 1.362 . S
C249 H239 0.930 . S
C249 C242 1.409 . S
C249 C248 1.362 . S
H250 C256 0.930 1_565 S
H251 C259 0.930 . S
H252 C260 0.930 . S
H253 C261 0.930 . S
H254 C264 0.930 . S
H255 C265 0.930 . S
C256 H250 0.930 1_545 S
C256 C257 1.355 . S
C256 C258 1.415 . S
C257 C256 1.355 . S
C257 C259 1.419 . S
C258 C256 1.415 . S
C258 C263 1.425 . S
C258 C265 1.409 1_545 S
C259 H251 0.930 . S
C259 C257 1.419 . S
C259 C260 1.362 . S
C260 H252 0.930 . S
C260 C259 1.362 . S
C260 C263 1.409 . S
C261 H253 0.930 . S
C261 C262 1.355 . S
C261 C263 1.415 . S
C262 C261 1.355 . S
C262 C264 1.419 1_545 S
C263 C258 1.425 . S
C263 C260 1.409 . S
C263 C261 1.415 . S
C264 H254 0.930 . S
C264 C262 1.419 1_565 S
C264 C265 1.362 . S
C265 H255 0.930 . S
C265 C258 1.409 1_565 S
C265 C264 1.362 . S
H266 C272 0.930 . S
H267 C275 0.930 . S
H268 C276 0.930 . S
H269 C277 0.930 . S
H270 C280 0.930 . S
H271 C281 0.930 . S
C272 H266 0.930 . S
C272 C273 1.355 . S
C272 C274 1.415 . S
C273 C272 1.355 . S
C273 C275 1.419 . S
C274 C272 1.415 . S
C274 C279 1.425 . S
C274 C281 1.409 . S
C275 H267 0.930 . S
C275 C273 1.419 . S
C275 C276 1.362 . S
C276 H268 0.930 . S
C276 C275 1.362 . S
C276 C279 1.409 . S
C277 H269 0.930 . S
C277 C278 1.355 . S
C277 C279 1.415 . S
C278 C277 1.355 . S
C278 C280 1.419 . S
C279 C274 1.425 . S
C279 C276 1.409 . S
C279 C277 1.415 . S
C280 H270 0.930 . S
C280 C278 1.419 . S
C280 C281 1.362 . S
C281 H271 0.930 . S
C281 C274 1.409 . S
C281 C280 1.362 . S
H282 C288 0.930 . S
H283 C291 0.930 . S
H284 C292 0.930 . S
H285 C293 0.930 . S
H286 C296 0.930 . S
H287 C297 0.930 . S
C288 H282 0.930 . S
C288 C289 1.355 . S
C288 C290 1.415 . S
C289 C288 1.355 . S
C289 C291 1.419 . S
C290 C288 1.415 . S
C290 C295 1.425 . S
C290 C297 1.409 . S
C291 H283 0.930 . S
C291 C289 1.419 . S
C291 C292 1.362 . S
C292 H284 0.930 . S
C292 C291 1.362 . S
C292 C295 1.409 . S
C293 H285 0.930 . S
C293 C294 1.355 . S
C293 C295 1.415 . S
C294 C293 1.355 . S
C294 C296 1.419 . S
C295 C290 1.425 . S
C295 C292 1.409 . S
C295 C293 1.415 . S
C296 H286 0.930 . S
C296 C294 1.419 . S
C296 C297 1.362 . S
C297 H287 0.930 . S
C297 C290 1.409 . S
C297 C296 1.362 . S
H298 C304 0.930 . S
H299 C307 0.930 . S
H300 C308 0.930 1_554 S
H301 C309 0.930 . S
H302 C312 0.930 . S
H303 C313 0.930 . S
C304 H298 0.930 . S
C304 C305 1.355 . S
C304 C306 1.415 . S
C305 C304 1.355 . S
C305 C307 1.419 1_556 S
C306 C304 1.415 . S
C306 C311 1.425 . S
C306 C313 1.409 . S
C307 H299 0.930 . S
C307 C305 1.419 1_554 S
C307 C308 1.362 1_554 S
C308 H300 0.930 1_556 S
C308 C307 1.362 1_556 S
C308 C311 1.409 . S
C309 H301 0.930 . S
C309 C310 1.355 . S
C309 C311 1.415 . S
C310 C309 1.355 . S
C310 C312 1.419 . S
C311 C306 1.425 . S
C311 C308 1.409 . S
C311 C309 1.415 . S
C312 H302 0.930 . S
C312 C310 1.419 . S
C312 C313 1.362 . S
C313 H303 0.930 . S
C313 C306 1.409 . S
C313 C312 1.362 . S
H314 C320 0.930 . S
H315 C323 0.930 1_545 S
H316 C324 0.930 . S
H317 C325 0.930 . S
H318 C328 0.930 . S
H319 C329 0.930 . S
C320 H314 0.930 . S
C320 C321 1.355 1_655 S
C320 C322 1.415 1_655 S
C321 C320 1.355 1_455 S
C321 C323 1.419 . S
C322 C320 1.415 1_455 S
C322 C327 1.425 . S
C322 C329 1.409 1_455 S
C323 H315 0.930 1_565 S
C323 C321 1.419 . S
C323 C324 1.362 . S
C324 H316 0.930 . S
C324 C323 1.362 . S
C324 C327 1.409 . S
C325 H317 0.930 . S
C325 C326 1.355 . S
C325 C327 1.415 . S
C326 C325 1.355 . S
C326 C328 1.419 1_455 S
C327 C322 1.425 . S
C327 C324 1.409 . S
C327 C325 1.415 . S
C328 H318 0.930 . S
C328 C326 1.419 1_655 S
C328 C329 1.362 . S
C329 H319 0.930 . S
C329 C322 1.409 1_655 S
C329 C328 1.362 . S
H330 C336 0.930 . S
H331 C339 0.930 . S
H332 C340 0.930 . S
H333 C341 0.930 1_565 S
H334 C344 0.930 . S
H335 C345 0.930 . S
C336 H330 0.930 . S
C336 C337 1.355 1_545 S
C336 C338 1.415 . S
C337 C336 1.355 1_565 S
C337 C339 1.419 . S
C338 C336 1.415 . S
C338 C343 1.425 . S
C338 C345 1.409 . S
C339 H331 0.930 . S
C339 C337 1.419 . S
C339 C340 1.362 . S
C340 H332 0.930 . S
C340 C339 1.362 . S
C340 C343 1.409 1_565 S
C341 H333 0.930 1_545 S
C341 C342 1.355 . S
C341 C343 1.415 . S
C342 C341 1.355 . S
C342 C344 1.419 . S
C343 C338 1.425 . S
C343 C340 1.409 1_545 S
C343 C341 1.415 . S
C344 H334 0.930 . S
C344 C342 1.419 . S
C344 C345 1.362 . S
C345 H335 0.930 . S
C345 C338 1.409 . S
C345 C344 1.362 . S
H346 C352 0.930 1_554 S
H347 C355 0.930 . S
H348 C356 0.930 . S
H349 C357 0.930 . S
H350 C360 0.930 . S
H351 C361 0.930 . S
C352 H346 0.930 1_556 S
C352 C353 1.355 . S
C352 C354 1.415 . S
C353 C352 1.355 . S
C353 C355 1.419 . S
C354 C352 1.415 . S
C354 C359 1.425 . S
C354 C361 1.409 . S
C355 H347 0.930 . S
C355 C353 1.419 . S
C355 C356 1.362 . S
C356 H348 0.930 . S
C356 C355 1.362 . S
C356 C359 1.409 . S
C357 H349 0.930 . S
C357 C358 1.355 . S
C357 C359 1.415 . S
C358 C357 1.355 . S
C358 C360 1.419 . S
C359 C354 1.425 . S
C359 C356 1.409 . S
C359 C357 1.415 . S
C360 H350 0.930 . S
C360 C358 1.419 . S
C360 C361 1.362 . S
C361 H351 0.930 . S
C361 C354 1.409 . S
C361 C360 1.362 . S
H362 C368 0.930 . S
H363 C371 0.930 1_655 S
H364 C372 0.930 . S
H365 C373 0.930 1_655 S
H366 C376 0.930 . S
H367 C377 0.930 . S
C368 H362 0.930 . S
C368 C369 1.355 . S
C368 C370 1.415 . S
C369 C368 1.355 . S
C369 C371 1.419 . S
C370 C368 1.415 . S
C370 C375 1.425 . S
C370 C377 1.409 . S
C371 H363 0.930 1_455 S
C371 C369 1.419 . S
C371 C372 1.362 1_455 S
C372 H364 0.930 . S
C372 C371 1.362 1_655 S
C372 C375 1.409 1_655 S
C373 H365 0.930 1_455 S
C373 C374 1.355 . S
C373 C375 1.415 . S
C374 C373 1.355 . S
C374 C376 1.419 . S
C375 C370 1.425 . S
C375 C372 1.409 1_455 S
C375 C373 1.415 . S
C376 H366 0.930 . S
C376 C374 1.419 . S
C376 C377 1.362 . S
C377 H367 0.930 . S
C377 C370 1.409 . S
C377 C376 1.362 . S
C198 C63 1.359 . S
C193 C11 1.350 . S
C209 C25 1.395 . S
C214 C111 1.428 . S
C225 C41 1.439 . S
C230 C183 1.457 . S
C241 C7 1.369 . S
C246 C87 1.350 . S
C262 C135 1.445 . S
C257 C21 1.446 . S
C273 C36 1.416 . S
C278 C159 1.497 . S
C294 C120 1.418 . S
C289 C39 1.424 . S
C305 C8 1.425 1_656 S
C310 C174 1.465 . S
C326 C78 1.508 . S
C321 C22 1.423 . S
C342 C126 1.436 . S
C337 C35 1.425 . S
C358 C168 1.441 . S
C353 C13 1.369 1_556 S
C369 C27 1.485 . S
C374 C72 1.504 . S
