# Generated by pormake.
# Topology ctn, (3,4)-cn, num edge types: 1
# Building blocks:
#     Node 0, Type 0, BuildingBlock: KAKCAD_clean_linker_0, # of connection points: 3
#     Node 1, Type 0, BuildingBlock: KAKCAD_clean_linker_0, # of connection points: 3
#     Node 2, Type 0, BuildingBlock: KAKCAD_clean_linker_0, # of connection points: 3
#     Node 3, Type 0, BuildingBlock: KAKCAD_clean_linker_0, # of connection points: 3
#     Node 4, Type 0, BuildingBlock: KAKCAD_clean_linker_0, # of connection points: 3
#     Node 5, Type 0, BuildingBlock: KAKCAD_clean_linker_0, # of connection points: 3
#     Node 6, Type 0, BuildingBlock: KAKCAD_clean_linker_0, # of connection points: 3
#     Node 7, Type 0, BuildingBlock: KAKCAD_clean_linker_0, # of connection points: 3
#     Node 8, Type 0, BuildingBlock: KAKCAD_clean_linker_0, # of connection points: 3
#     Node 9, Type 0, BuildingBlock: KAKCAD_clean_linker_0, # of connection points: 3
#     Node 10, Type 0, BuildingBlock: KAKCAD_clean_linker_0, # of connection points: 3
#     Node 11, Type 0, BuildingBlock: KAKCAD_clean_linker_0, # of connection points: 3
#     Node 12, Type 0, BuildingBlock: KAKCAD_clean_linker_0, # of connection points: 3
#     Node 13, Type 0, BuildingBlock: KAKCAD_clean_linker_0, # of connection points: 3
#     Node 14, Type 0, BuildingBlock: KAKCAD_clean_linker_0, # of connection points: 3
#     Node 15, Type 0, BuildingBlock: KAKCAD_clean_linker_0, # of connection points: 3
#     Node 16, Type 1, BuildingBlock: AZAVOO_clean_sbu_0, # of connection points: 4
#     Node 17, Type 1, BuildingBlock: AZAVOO_clean_sbu_0, # of connection points: 4
#     Node 18, Type 1, BuildingBlock: AZAVOO_clean_sbu_0, # of connection points: 4
#     Node 19, Type 1, BuildingBlock: AZAVOO_clean_sbu_0, # of connection points: 4
#     Node 20, Type 1, BuildingBlock: AZAVOO_clean_sbu_0, # of connection points: 4
#     Node 21, Type 1, BuildingBlock: AZAVOO_clean_sbu_0, # of connection points: 4
#     Node 22, Type 1, BuildingBlock: AZAVOO_clean_sbu_0, # of connection points: 4
#     Node 23, Type 1, BuildingBlock: AZAVOO_clean_sbu_0, # of connection points: 4
#     Node 24, Type 1, BuildingBlock: AZAVOO_clean_sbu_0, # of connection points: 4
#     Node 25, Type 1, BuildingBlock: AZAVOO_clean_sbu_0, # of connection points: 4
#     Node 26, Type 1, BuildingBlock: AZAVOO_clean_sbu_0, # of connection points: 4
#     Node 27, Type 1, BuildingBlock: AZAVOO_clean_sbu_0, # of connection points: 4
#     Edge 28, Type (0, 1), BuildingBlock: CIFDUS_clean_linker_0, # of connection points: 2
#     Edge 29, Type (0, 1), BuildingBlock: CIFDUS_clean_linker_0, # of connection points: 2
#     Edge 30, Type (0, 1), BuildingBlock: CIFDUS_clean_linker_0, # of connection points: 2
#     Edge 31, Type (0, 1), BuildingBlock: CIFDUS_clean_linker_0, # of connection points: 2
#     Edge 32, Type (0, 1), BuildingBlock: CIFDUS_clean_linker_0, # of connection points: 2
#     Edge 33, Type (0, 1), BuildingBlock: CIFDUS_clean_linker_0, # of connection points: 2
#     Edge 34, Type (0, 1), BuildingBlock: CIFDUS_clean_linker_0, # of connection points: 2
#     Edge 35, Type (0, 1), BuildingBlock: CIFDUS_clean_linker_0, # of connection points: 2
#     Edge 36, Type (0, 1), BuildingBlock: CIFDUS_clean_linker_0, # of connection points: 2
#     Edge 37, Type (0, 1), BuildingBlock: CIFDUS_clean_linker_0, # of connection points: 2
#     Edge 38, Type (0, 1), BuildingBlock: CIFDUS_clean_linker_0, # of connection points: 2
#     Edge 39, Type (0, 1), BuildingBlock: CIFDUS_clean_linker_0, # of connection points: 2
#     Edge 40, Type (0, 1), BuildingBlock: CIFDUS_clean_linker_0, # of connection points: 2
#     Edge 41, Type (0, 1), BuildingBlock: CIFDUS_clean_linker_0, # of connection points: 2
#     Edge 42, Type (0, 1), BuildingBlock: CIFDUS_clean_linker_0, # of connection points: 2
#     Edge 43, Type (0, 1), BuildingBlock: CIFDUS_clean_linker_0, # of connection points: 2
#     Edge 44, Type (0, 1), BuildingBlock: CIFDUS_clean_linker_0, # of connection points: 2
#     Edge 45, Type (0, 1), BuildingBlock: CIFDUS_clean_linker_0, # of connection points: 2
#     Edge 46, Type (0, 1), BuildingBlock: CIFDUS_clean_linker_0, # of connection points: 2
#     Edge 47, Type (0, 1), BuildingBlock: CIFDUS_clean_linker_0, # of connection points: 2
#     Edge 48, Type (0, 1), BuildingBlock: CIFDUS_clean_linker_0, # of connection points: 2
#     Edge 49, Type (0, 1), BuildingBlock: CIFDUS_clean_linker_0, # of connection points: 2
#     Edge 50, Type (0, 1), BuildingBlock: CIFDUS_clean_linker_0, # of connection points: 2
#     Edge 51, Type (0, 1), BuildingBlock: CIFDUS_clean_linker_0, # of connection points: 2
#     Edge 52, Type (0, 1), BuildingBlock: CIFDUS_clean_linker_0, # of connection points: 2
#     Edge 53, Type (0, 1), BuildingBlock: CIFDUS_clean_linker_0, # of connection points: 2
#     Edge 54, Type (0, 1), BuildingBlock: CIFDUS_clean_linker_0, # of connection points: 2
#     Edge 55, Type (0, 1), BuildingBlock: CIFDUS_clean_linker_0, # of connection points: 2
#     Edge 56, Type (0, 1), BuildingBlock: CIFDUS_clean_linker_0, # of connection points: 2
#     Edge 57, Type (0, 1), BuildingBlock: CIFDUS_clean_linker_0, # of connection points: 2
#     Edge 58, Type (0, 1), BuildingBlock: CIFDUS_clean_linker_0, # of connection points: 2
#     Edge 59, Type (0, 1), BuildingBlock: CIFDUS_clean_linker_0, # of connection points: 2
#     Edge 60, Type (0, 1), BuildingBlock: CIFDUS_clean_linker_0, # of connection points: 2
#     Edge 61, Type (0, 1), BuildingBlock: CIFDUS_clean_linker_0, # of connection points: 2
#     Edge 62, Type (0, 1), BuildingBlock: CIFDUS_clean_linker_0, # of connection points: 2
#     Edge 63, Type (0, 1), BuildingBlock: CIFDUS_clean_linker_0, # of connection points: 2
#     Edge 64, Type (0, 1), BuildingBlock: CIFDUS_clean_linker_0, # of connection points: 2
#     Edge 65, Type (0, 1), BuildingBlock: CIFDUS_clean_linker_0, # of connection points: 2
#     Edge 66, Type (0, 1), BuildingBlock: CIFDUS_clean_linker_0, # of connection points: 2
#     Edge 67, Type (0, 1), BuildingBlock: CIFDUS_clean_linker_0, # of connection points: 2
#     Edge 68, Type (0, 1), BuildingBlock: CIFDUS_clean_linker_0, # of connection points: 2
#     Edge 69, Type (0, 1), BuildingBlock: CIFDUS_clean_linker_0, # of connection points: 2
#     Edge 70, Type (0, 1), BuildingBlock: CIFDUS_clean_linker_0, # of connection points: 2
#     Edge 71, Type (0, 1), BuildingBlock: CIFDUS_clean_linker_0, # of connection points: 2
#     Edge 72, Type (0, 1), BuildingBlock: CIFDUS_clean_linker_0, # of connection points: 2
#     Edge 73, Type (0, 1), BuildingBlock: CIFDUS_clean_linker_0, # of connection points: 2
#     Edge 74, Type (0, 1), BuildingBlock: CIFDUS_clean_linker_0, # of connection points: 2
#     Edge 75, Type (0, 1), BuildingBlock: CIFDUS_clean_linker_0, # of connection points: 2
# Relax obj value: 0.001
# Max RMSD: 0.042
# Mean RMSD: 0.022
data_MOF--net-ctn--node1-AZAVOO_clean_sbu_0--node2-KAKCAD_clean_linker_0--edge1-CIFDUS_clean_linker_0
_symmetry_space_group_name_H-M    P1
_symmetry_Int_Tables_number       1
_symmetry_cell_setting            triclinic
loop_
_symmetry_equiv_pos_as_xyz
'x, y, z'
_cell_length_a     59.930555
_cell_length_b     61.065969
_cell_length_c     60.970613
_cell_angle_alpha  90.235543
_cell_angle_beta   93.097178
_cell_angle_gamma 93.231857
loop_
_atom_site_label
_atom_site_type_symbol
_atom_site_fract_x
_atom_site_fract_y
_atom_site_fract_z
_atom_type_partial_charge
C0 C 0.02998 0.08869 0.95863 0.0
C1 C 0.02387 0.10847 0.96791 0.0
C2 C 0.03288 0.07022 0.97183 0.0
C3 C 0.02972 0.07127 0.99449 0.0
C4 C 0.02419 0.09122 0.00375 0.0
C5 C 0.02131 0.10955 0.99064 0.0
C6 C 0.03196 0.05181 0.00876 0.0
C7 C 0.05028 0.03863 0.00761 0.0
C8 C 0.05342 0.02142 0.02259 0.0
C9 C 0.03788 0.0177 0.03896 0.0
C10 C 0.0195 0.03093 0.04039 0.0
C11 C 0.01643 0.04743 0.02477 0.0
C12 C 0.00417 0.02874 0.05883 0.0
C13 C 0.99721 0.00811 0.06704 0.0
C14 C 0.99634 0.04768 0.0684 0.0
C15 C 0.98162 0.04608 0.08532 0.0
C16 C 0.97455 0.02553 0.09343 0.0
C17 C 0.07368 0.00834 0.0218 0.0
C18 C 0.08227 0.00292 0.00156 0.0
C19 C 0.08513 0.00193 0.04126 0.0
C20 C 0.10472 0.99063 0.04051 0.0
C21 C 0.1136 0.98564 0.02029 0.0
C22 C 0.10201 0.99184 0.00082 0.0
C23 C 0.98261 0.00653 0.08426 0.0
H24 H 0.03207 0.08739 0.94115 0.0
H25 H 0.03714 0.05503 0.96428 0.0
H26 H 0.02223 0.09273 0.02124 0.0
H27 H 0.01724 0.1247 0.9984 0.0
H28 H 0.06266 0.04251 0.9957 0.0
H29 H 0.00196 0.05727 0.02524 0.0
H30 H 0.04033 0.00484 0.05088 0.0
H31 H 0.00278 0.9932 0.06 0.0
H32 H 0.00182 0.06389 0.06302 0.0
H33 H 0.97613 0.06102 0.09242 0.0
H34 H 0.07378 0.00731 0.98621 0.0
H35 H 0.07926 0.00603 0.05717 0.0
H36 H 0.97742 0.99046 0.09024 0.0
H37 H 0.10838 0.98849 0.98493 0.0
H38 H 0.11289 0.98578 0.05586 0.0
C39 C 0.37316 0.75015 0.26647 0.0
C40 C 0.38588 0.73225 0.2724 0.0
C41 C 0.35377 0.74711 0.25274 0.0
C42 C 0.34655 0.72606 0.245 0.0
C43 C 0.35944 0.70821 0.25067 0.0
C44 C 0.37903 0.7113 0.26411 0.0
C45 C 0.32535 0.72268 0.23143 0.0
C46 C 0.32105 0.73596 0.21311 0.0
C47 C 0.30107 0.7327 0.20006 0.0
C48 C 0.28512 0.71628 0.2059 0.0
C49 C 0.28912 0.70288 0.22419 0.0
C50 C 0.30937 0.70612 0.23681 0.0
C51 C 0.27235 0.68515 0.2297 0.0
C52 C 0.24934 0.68878 0.22851 0.0
C53 C 0.27922 0.66427 0.23562 0.0
C54 C 0.26346 0.64733 0.23994 0.0
C55 C 0.24044 0.65084 0.23844 0.0
C56 C 0.29713 0.74582 0.17988 0.0
C57 C 0.30288 0.76847 0.17962 0.0
C58 C 0.28764 0.73563 0.1606 0.0
C59 C 0.28382 0.74776 0.14158 0.0
C60 C 0.28955 0.7704 0.14125 0.0
C61 C 0.29911 0.78064 0.1605 0.0
C62 C 0.23355 0.67182 0.23288 0.0
H63 H 0.37813 0.76647 0.27261 0.0
H64 H 0.34409 0.76113 0.24866 0.0
H65 H 0.35432 0.69184 0.24476 0.0
H66 H 0.38845 0.69721 0.26859 0.0
H67 H 0.33364 0.74832 0.20861 0.0
H68 H 0.31252 0.69608 0.25114 0.0
H69 H 0.26963 0.71372 0.19598 0.0
H70 H 0.24351 0.70476 0.22422 0.0
H71 H 0.29679 0.66087 0.23651 0.0
H72 H 0.26934 0.63144 0.24451 0.0
H73 H 0.31008 0.77684 0.19425 0.0
H74 H 0.28331 0.71817 0.16012 0.0
H75 H 0.21595 0.67503 0.23149 0.0
H76 H 0.30386 0.79802 0.16075 0.0
H77 H 0.27612 0.73939 0.12717 0.0
C78 C 0.02289 0.49212 0.11991 0.0
C79 C 0.04562 0.48919 0.11672 0.0
C80 C 0.00666 0.4884 0.10264 0.0
C81 C 0.01279 0.48168 0.08178 0.0
C82 C 0.03551 0.4787 0.07872 0.0
C83 C 0.05162 0.48222 0.09594 0.0
C84 C 0.99583 0.47785 0.0631 0.0
C85 C 0.97795 0.49168 0.05971 0.0
C86 C 0.96284 0.48877 0.04129 0.0
C87 C 0.96581 0.47186 0.0262 0.0
C88 C 0.98338 0.45774 0.02936 0.0
C89 C 0.99807 0.46071 0.04802 0.0
C90 C 0.9865 0.44001 0.01311 0.0
C91 C 0.96793 0.42818 0.00291 0.0
C92 C 0.00809 0.43478 0.00765 0.0
C93 C 0.01105 0.41786 0.99275 0.0
C94 C 0.99249 0.40584 0.98276 0.0
C95 C 0.94403 0.50346 0.03748 0.0
C96 C 0.93091 0.50924 0.05479 0.0
C97 C 0.93864 0.51124 0.01628 0.0
C98 C 0.92041 0.52425 0.01241 0.0
C99 C 0.9071 0.52985 0.02965 0.0
C100 C 0.91262 0.52225 0.05091 0.0
C101 C 0.97089 0.41142 0.98784 0.0
H102 H 0.01766 0.49761 0.13564 0.0
H103 H 0.9893 0.49067 0.10567 0.0
H104 H 0.04101 0.47388 0.06286 0.0
H105 H 0.06886 0.4794 0.09289 0.0
H106 H 0.97622 0.5052 0.07093 0.0
H107 H 0.01121 0.44942 0.05094 0.0
H108 H 0.95438 0.46974 0.01188 0.0
H109 H 0.95105 0.43157 0.00682 0.0
H110 H 0.02278 0.44377 0.01487 0.0
H111 H 0.02794 0.41389 0.98946 0.0
H112 H 0.93453 0.50338 0.07127 0.0
H113 H 0.94856 0.50731 0.00261 0.0
H114 H 0.95617 0.40277 0.98024 0.0
H115 H 0.9029 0.52651 0.06462 0.0
H116 H 0.91656 0.52969 0.99582 0.0
C117 C 0.70603 0.75342 0.14878 0.0
C118 C 0.72669 0.74397 0.14676 0.0
C119 C 0.70325 0.7684 0.1657 0.0
C120 C 0.72116 0.77443 0.18072 0.0
C121 C 0.74161 0.76451 0.17906 0.0
C122 C 0.74431 0.74935 0.16233 0.0
C123 C 0.719 0.79195 0.19726 0.0
C124 C 0.70051 0.79174 0.21047 0.0
C125 C 0.69847 0.80846 0.22612 0.0
C126 C 0.71505 0.82579 0.22796 0.0
C127 C 0.73373 0.82604 0.215 0.0
C128 C 0.73557 0.80906 0.19976 0.0
C129 C 0.75174 0.84368 0.21752 0.0
C130 C 0.74681 0.8659 0.21686 0.0
C131 C 0.77418 0.83825 0.2198 0.0
C132 C 0.7914 0.85463 0.22087 0.0
C133 C 0.78665 0.8769 0.21938 0.0
C134 C 0.67977 0.80712 0.24131 0.0
C135 C 0.65816 0.79909 0.23399 0.0
C136 C 0.68369 0.81291 0.26359 0.0
C137 C 0.66664 0.81025 0.27825 0.0
C138 C 0.64524 0.80153 0.27111 0.0
C139 C 0.64111 0.79629 0.24872 0.0
C140 C 0.7641 0.88236 0.21767 0.0
H141 H 0.69214 0.74945 0.13707 0.0
H142 H 0.68734 0.77587 0.16655 0.0
H143 H 0.75563 0.76874 0.19055 0.0
H144 H 0.76046 0.74246 0.16109 0.0
H145 H 0.68815 0.77808 0.20906 0.0
H146 H 0.74977 0.80943 0.18944 0.0
H147 H 0.71368 0.83892 0.23974 0.0
H148 H 0.72962 0.8705 0.215 0.0
H149 H 0.77842 0.82125 0.22071 0.0
H150 H 0.80849 0.84978 0.22282 0.0
H151 H 0.65444 0.79474 0.2169 0.0
H152 H 0.70014 0.81891 0.26992 0.0
H153 H 0.7598 0.89931 0.21632 0.0
H154 H 0.62489 0.78941 0.24265 0.0
H155 H 0.67034 0.81481 0.2953 0.0
C156 C 0.97308 -0.00037 0.42752 0.0
C157 C 0.98207 -0.00042 0.40673 0.0
C158 C 0.98695 0.9972 0.44649 0.0
C159 C 0.01007 0.99521 0.44496 0.0
C160 C 0.01908 0.99557 0.42418 0.0
C161 C 0.00516 0.9975 0.40523 0.0
C162 C 0.02482 0.99272 0.46499 0.0
C163 C 0.02022 0.97576 0.47985 0.0
C164 C 0.03426 0.97305 0.49883 0.0
C165 C 0.05265 0.98818 0.50302 0.0
C166 C 0.05767 0.00496 0.48808 0.0
C167 C 0.04379 0.007 0.46899 0.0
C168 C 0.07741 0.02043 0.49245 0.0
C169 C 0.08069 0.03137 0.51278 0.0
C170 C 0.09292 0.02457 0.47627 0.0
C171 C 0.11129 0.03951 0.4803 0.0
C172 C 0.11423 0.05086 0.50042 0.0
C173 C 0.0305 0.95378 0.5135 0.0
C174 C 0.00877 0.94494 0.51694 0.0
C175 C 0.0488 0.94337 0.52339 0.0
C176 C 0.04552 0.92442 0.53583 0.0
C177 C 0.02386 0.91498 0.53839 0.0
C178 C 0.0055 0.92573 0.5291 0.0
C179 C 0.09881 0.04658 0.51665 0.0
H180 H 0.9553 0.00114 0.42903 0.0
H181 H 0.97967 0.99706 0.46237 0.0
H182 H 0.03683 0.99398 0.42259 0.0
H183 H 0.01246 0.9975 0.38935 0.0
H184 H 0.00616 0.96418 0.47604 0.0
H185 H 0.04743 0.02007 0.45751 0.0
H186 H 0.06338 0.98676 0.51776 0.0
H187 H 0.06893 0.02853 0.52549 0.0
H188 H 0.09084 0.01622 0.46052 0.0
H189 H 0.12286 0.04264 0.46747 0.0
H190 H 0.9942 0.95267 0.50999 0.0
H191 H 0.06583 0.94939 0.521 0.0
H192 H 0.10075 0.05509 0.53233 0.0
H193 H 0.98857 0.91894 0.53056 0.0
H194 H 0.06009 0.91696 0.54311 0.0
C195 C 0.13923 0.70323 0.71902 0.0
C196 C 0.13907 0.72418 0.70961 0.0
C197 C 0.15549 0.69856 0.73545 0.0
C198 C 0.1715 0.71492 0.74306 0.0
C199 C 0.17104 0.73598 0.73393 0.0
C200 C 0.15512 0.74051 0.7172 0.0
C201 C 0.18869 0.71016 0.76051 0.0
C202 C 0.20277 0.69271 0.75808 0.0
C203 C 0.21977 0.68878 0.77421 0.0
C204 C 0.22182 0.70206 0.79318 0.0
C205 C 0.2079 0.71951 0.7959 0.0
C206 C 0.1915 0.72359 0.77935 0.0
C207 C 0.21115 0.73362 0.81588 0.0
C208 C 0.21565 0.7241 0.83647 0.0
C209 C 0.21123 0.75664 0.81444 0.0
C210 C 0.21677 0.76981 0.83305 0.0
C211 C 0.22243 0.76017 0.85333 0.0
C212 C 0.23613 0.67162 0.77109 0.0
C213 C 0.22947 0.6511 0.76154 0.0
C214 C 0.25877 0.67572 0.77796 0.0
C215 C 0.27424 0.65976 0.77569 0.0
C216 C 0.26771 0.63926 0.76607 0.0
C217 C 0.24509 0.6351 0.75905 0.0
C218 C 0.22129 0.7372 0.85493 0.0
H219 H 0.12712 0.69035 0.7133 0.0
H220 H 0.15547 0.68224 0.74234 0.0
H221 H 0.18326 0.74884 0.73947 0.0
H222 H 0.15531 0.75678 0.71017 0.0
H223 H 0.20107 0.68286 0.7432 0.0
H224 H 0.18061 0.73697 0.78128 0.0
H225 H 0.23465 0.69903 0.80583 0.0
H226 H 0.21519 0.70644 0.83826 0.0
H227 H 0.20795 0.76447 0.79879 0.0
H228 H 0.21754 0.78749 0.83139 0.0
H229 H 0.21216 0.6473 0.75619 0.0
H230 H 0.2647 0.69143 0.78501 0.0
H231 H 0.22511 0.72934 0.87048 0.0
H232 H 0.23947 0.6196 0.75137 0.0
H233 H 0.29138 0.66352 0.78165 0.0
C234 C 0.99564 0.59389 0.50361 0.0
C235 C 0.98594 0.59445 0.52414 0.0
C236 C 0.99159 0.57584 0.48948 0.0
C237 C 0.97839 0.55734 0.49571 0.0
C238 C 0.96966 0.55744 0.51671 0.0
C239 C 0.97302 0.5758 0.5305 0.0
C240 C 0.9733 0.53829 0.48029 0.0
C241 C 0.98833 0.53288 0.46443 0.0
C242 C 0.9832 0.51552 0.4494 0.0
C243 C 0.96333 0.50242 0.45138 0.0
C244 C 0.94823 0.50714 0.46744 0.0
C245 C 0.95307 0.52555 0.48117 0.0
C246 C 0.92752 0.49287 0.47029 0.0
C247 C 0.91548 0.48268 0.45218 0.0
C248 C 0.91967 0.48921 0.49142 0.0
C249 C 0.90032 0.47597 0.49435 0.0
C250 C 0.88854 0.46566 0.47631 0.0
C251 C 0.99846 0.51157 0.4314 0.0
C252 C 0.00875 0.52945 0.4206 0.0
C253 C 0.00284 0.49019 0.42474 0.0
C254 C 0.01743 0.48684 0.40797 0.0
C255 C 0.02807 0.50479 0.3976 0.0
C256 C 0.02339 0.52611 0.40401 0.0
C257 C 0.89631 0.46906 0.4552 0.0
H258 H 0.00628 0.60747 0.49817 0.0
H259 H 0.99852 0.57675 0.47347 0.0
H260 H 0.96 0.54338 0.52261 0.0
H261 H 0.96495 0.5754 0.54594 0.0
H262 H 0.00428 0.54204 0.46381 0.0
H263 H 0.94072 0.53015 0.49238 0.0
H264 H 0.9596 0.48863 0.44033 0.0
H265 H 0.92071 0.48533 0.43564 0.0
H266 H 0.9287 0.49626 0.50586 0.0
H267 H 0.89489 0.47329 0.51084 0.0
H268 H 0.00537 0.54614 0.42484 0.0
H269 H 0.99538 0.47603 0.43279 0.0
H270 H 0.88744 0.46132 0.44101 0.0
H271 H 0.03098 0.54028 0.39606 0.0
H272 H 0.02083 0.47022 0.40349 0.0
C273 C 0.80032 0.73106 0.8542 0.0
C274 C 0.77808 0.72345 0.85712 0.0
C275 C 0.80559 0.74388 0.836 0.0
C276 C 0.7887 0.7494 0.82044 0.0
C277 C 0.76674 0.7407 0.82268 0.0
C278 C 0.76151 0.72783 0.84077 0.0
C279 C 0.79344 0.76572 0.80306 0.0
C280 C 0.81216 0.76445 0.79033 0.0
C281 C 0.81708 0.78052 0.77447 0.0
C282 C 0.80258 0.79784 0.77146 0.0
C283 C 0.78356 0.79921 0.78391 0.0
C284 C 0.77937 0.78313 0.79978 0.0
C285 C 0.76816 0.81751 0.78075 0.0
C286 C 0.77648 0.83886 0.77594 0.0
C287 C 0.74495 0.81384 0.78303 0.0
C288 C 0.73059 0.83109 0.78102 0.0
C289 C 0.73899 0.85233 0.77622 0.0
C290 C 0.83727 0.77919 0.76112 0.0
C291 C 0.85689 0.77013 0.76994 0.0
C292 C 0.83717 0.78693 0.73939 0.0
C293 C 0.85604 0.78578 0.72699 0.0
C294 C 0.87548 0.77627 0.73563 0.0
C295 C 0.87556 0.76844 0.75733 0.0
C296 C 0.76204 0.85602 0.77354 0.0
H297 H 0.81346 0.72814 0.86657 0.0
H298 H 0.82264 0.75045 0.83473 0.0
H299 H 0.75347 0.74437 0.81073 0.0
H300 H 0.74431 0.72182 0.84227 0.0
H301 H 0.82259 0.75063 0.7926 0.0
H302 H 0.76542 0.78448 0.81021 0.0
H303 H 0.8061 0.81037 0.75945 0.0
H304 H 0.79422 0.84251 0.77447 0.0
H305 H 0.73777 0.79758 0.78625 0.0
H306 H 0.71285 0.82777 0.78292 0.0
H307 H 0.85799 0.76436 0.7867 0.0
H308 H 0.82241 0.7937 0.73171 0.0
H309 H 0.76896 0.87232 0.77003 0.0
H310 H 0.88994 0.7607 0.76463 0.0
H311 H 0.85527 0.79248 0.71058 0.0
C312 C 0.29854 0.21748 0.34196 0.0
C313 C 0.27711 0.21615 0.35045 0.0
C314 C 0.3036 0.23203 0.32503 0.0
C315 C 0.28719 0.24521 0.31551 0.0
C316 C 0.26548 0.24307 0.32326 0.0
C317 C 0.26064 0.22911 0.34067 0.0
C318 C 0.29275 0.26157 0.29811 0.0
C319 C 0.30955 0.25797 0.28348 0.0
C320 C 0.31571 0.2738 0.26788 0.0
C321 C 0.30374 0.29296 0.26603 0.0
C322 C 0.28646 0.29674 0.28011 0.0
C323 C 0.28161 0.28122 0.29641 0.0
C324 C 0.27371 0.31704 0.27839 0.0
C325 C 0.28446 0.33736 0.27356 0.0
C326 C 0.25069 0.31634 0.28216 0.0
C327 C 0.23892 0.33549 0.28176 0.0
C328 C 0.24978 0.35587 0.27734 0.0
C329 C 0.335 0.27035 0.254 0.0
C330 C 0.35417 0.26071 0.26306 0.0
C331 C 0.33451 0.27644 0.23174 0.0
C332 C 0.35253 0.27252 0.2188 0.0
C333 C 0.37135 0.26229 0.22779 0.0
C334 C 0.37203 0.25664 0.25011 0.0
C335 C 0.27264 0.35647 0.27291 0.0
H336 H 0.31166 0.20749 0.34849 0.0
H337 H 0.32061 0.23321 0.31986 0.0
H338 H 0.2521 0.25235 0.3161 0.0
H339 H 0.24401 0.22908 0.34673 0.0
H340 H 0.31784 0.24267 0.28403 0.0
H341 H 0.26946 0.28485 0.30821 0.0
H342 H 0.30805 0.30503 0.25378 0.0
H343 H 0.30217 0.33866 0.27074 0.0
H344 H 0.24171 0.30094 0.28554 0.0
H345 H 0.22141 0.33433 0.28539 0.0
H346 H 0.35545 0.25633 0.28026 0.0
H347 H 0.31998 0.28372 0.22414 0.0
H348 H 0.28152 0.37176 0.26898 0.0
H349 H 0.38646 0.24907 0.2576 0.0
H350 H 0.35145 0.27688 0.20159 0.0
C351 C 0.52462 0.99466 0.61736 0.0
C352 C 0.54709 0.99011 0.61482 0.0
C353 C 0.50855 0.99101 0.59996 0.0
C354 C 0.51459 0.98264 0.57971 0.0
C355 C 0.537 0.97779 0.57737 0.0
C356 C 0.55298 0.9814 0.59469 0.0
C357 C 0.49787 0.97927 0.56083 0.0
C358 C 0.48188 0.99481 0.55595 0.0
C359 C 0.46714 0.99235 0.53723 0.0
C360 C 0.46853 0.97415 0.52329 0.0
C361 C 0.48397 0.95823 0.52824 0.0
C362 C 0.49845 0.96082 0.54704 0.0
C363 C 0.48455 0.93848 0.51416 0.0
C364 C 0.48279 0.91756 0.52354 0.0
C365 C 0.48665 0.94035 0.49137 0.0
C366 C 0.48698 0.92153 0.4782 0.0
C367 C 0.48473 0.90061 0.48758 0.0
C368 C 0.45024 0.00874 0.53218 0.0
C369 C 0.43686 0.01608 0.54865 0.0
C370 C 0.44715 0.01691 0.51078 0.0
C371 C 0.43114 0.03223 0.50598 0.0
C372 C 0.41769 0.03951 0.52241 0.0
C373 C 0.42065 0.03121 0.54378 0.0
C374 C 0.48271 0.89882 0.51037 0.0
H375 H 0.51955 0.00149 0.63261 0.0
H376 H 0.49139 0.99471 0.60239 0.0
H377 H 0.54235 0.97158 0.56197 0.0
H378 H 0.57005 0.97739 0.59226 0.0
H379 H 0.48137 0.00924 0.56629 0.0
H380 H 0.51031 0.94843 0.55082 0.0
H381 H 0.45707 0.97195 0.50898 0.0
H382 H 0.48106 0.91571 0.54104 0.0
H383 H 0.48815 0.95635 0.48382 0.0
H384 H 0.48849 0.9233 0.46066 0.0
H385 H 0.43875 0.00991 0.56524 0.0
H386 H 0.45731 0.01163 0.49779 0.0
H387 H 0.48111 0.88286 0.51801 0.0
H388 H 0.41065 0.03667 0.55682 0.0
H389 H 0.42915 0.03826 0.48935 0.0
C390 C 0.21669 0.25417 0.65258 0.0
C391 C 0.23822 0.24621 0.65232 0.0
C392 C 0.21217 0.27077 0.66726 0.0
C393 C 0.2291 0.27987 0.68198 0.0
C394 C 0.25063 0.27186 0.68177 0.0
C395 C 0.25512 0.25516 0.66715 0.0
C396 C 0.22422 0.29757 0.69753 0.0
C397 C 0.2044 0.2962 0.70883 0.0
C398 C 0.19949 0.31279 0.72355 0.0
C399 C 0.21466 0.33106 0.72686 0.0
C400 C 0.23462 0.33273 0.7157 0.0
C401 C 0.23928 0.31587 0.70113 0.0
C402 C 0.25064 0.35206 0.71915 0.0
C403 C 0.24311 0.37346 0.71898 0.0
C404 C 0.27368 0.34922 0.72219 0.0
C405 C 0.28891 0.36735 0.72469 0.0
C406 C 0.2815 0.38882 0.72399 0.0
C407 C 0.1788 0.31046 0.73591 0.0
C408 C 0.15843 0.30289 0.72524 0.0
C409 C 0.17953 0.31451 0.75865 0.0
C410 C 0.16052 0.31019 0.77061 0.0
C411 C 0.14036 0.3018 0.76007 0.0
C412 C 0.13943 0.29865 0.73717 0.0
C413 C 0.25837 0.39164 0.72131 0.0
H414 H 0.20327 0.24749 0.64147 0.0
H415 H 0.19546 0.2767 0.66689 0.0
H416 H 0.26397 0.27838 0.69305 0.0
H417 H 0.27194 0.24953 0.6672 0.0
H418 H 0.19305 0.2818 0.70664 0.0
H419 H 0.25441 0.31727 0.69214 0.0
H420 H 0.21101 0.34391 0.73821 0.0
H421 H 0.22544 0.37615 0.71647 0.0
H422 H 0.27996 0.33293 0.72277 0.0
H423 H 0.30653 0.3645 0.72725 0.0
H424 H 0.15726 0.29996 0.70767 0.0
H425 H 0.19504 0.32014 0.76735 0.0
H426 H 0.25207 0.40791 0.72045 0.0
H427 H 0.12406 0.29259 0.72848 0.0
H428 H 0.16191 0.31256 0.78825 0.0
C429 C 0.86752 0.2456 0.7777 0.0
C430 C 0.87661 0.22619 0.78545 0.0
C431 C 0.84912 0.24472 0.76251 0.0
C432 C 0.83957 0.22441 0.75464 0.0
C433 C 0.84933 0.20508 0.7618 0.0
C434 C 0.86753 0.20596 0.77711 0.0
C435 C 0.81922 0.22319 0.73946 0.0
C436 C 0.81665 0.23832 0.72229 0.0
C437 C 0.79783 0.23656 0.70745 0.0
C438 C 0.78146 0.21947 0.70996 0.0
C439 C 0.78369 0.2043 0.72703 0.0
C440 C 0.80245 0.20643 0.74183 0.0
C441 C 0.76709 0.18551 0.72878 0.0
C442 C 0.75893 0.17948 0.7492 0.0
C443 C 0.76028 0.17272 0.71014 0.0
C444 C 0.7463 0.1538 0.71203 0.0
C445 C 0.73865 0.14742 0.73256 0.0
C446 C 0.79546 0.25211 0.68889 0.0
C447 C 0.80036 0.27474 0.69199 0.0
C448 C 0.78798 0.24433 0.6679 0.0
C449 C 0.78519 0.25882 0.65048 0.0
C450 C 0.78991 0.28148 0.65354 0.0
C451 C 0.79754 0.2893 0.6745 0.0
C452 C 0.74474 0.16068 0.75106 0.0
H453 H 0.87413 0.26141 0.784 0.0
H454 H 0.84195 0.25991 0.75746 0.0
H455 H 0.84285 0.18918 0.75565 0.0
H456 H 0.87444 0.19077 0.78256 0.0
H457 H 0.8297 0.25099 0.71996 0.0
H458 H 0.80415 0.19471 0.75503 0.0
H459 H 0.76679 0.21805 0.69873 0.0
H460 H 0.76379 0.18914 0.7638 0.0
H461 H 0.76644 0.17688 0.69421 0.0
H462 H 0.74175 0.14395 0.69749 0.0
H463 H 0.80602 0.28124 0.70802 0.0
H464 H 0.78432 0.22697 0.66488 0.0
H465 H 0.73922 0.15605 0.76711 0.0
H466 H 0.80144 0.30664 0.67736 0.0
H467 H 0.77897 0.25227 0.63464 0.0
C468 C 0.52755 0.57504 0.44989 0.0
C469 C 0.52612 0.59616 0.45884 0.0
C470 C 0.53003 0.55692 0.46362 0.0
C471 C 0.53106 0.55954 0.48658 0.0
C472 C 0.52942 0.58061 0.49549 0.0
C473 C 0.52704 0.59867 0.48181 0.0
C474 C 0.53445 0.5406 0.50137 0.0
C475 C 0.55042 0.52542 0.49705 0.0
C476 C 0.55487 0.50845 0.51187 0.0
C477 C 0.54309 0.50672 0.53118 0.0
C478 C 0.52665 0.52149 0.53559 0.0
C479 C 0.5224 0.53826 0.52043 0.0
C480 C 0.51401 0.51965 0.556 0.0
C481 C 0.50777 0.49901 0.5647 0.0
C482 C 0.50791 0.53861 0.56691 0.0
C483 C 0.49565 0.53699 0.58573 0.0
C484 C 0.48951 0.51639 0.59437 0.0
C485 C 0.572 0.49268 0.5072 0.0
C486 C 0.57204 0.48266 0.48641 0.0
C487 C 0.58839 0.48754 0.52342 0.0
C488 C 0.60448 0.47264 0.51895 0.0
C489 C 0.6043 0.46236 0.49827 0.0
C490 C 0.58793 0.46754 0.48204 0.0
C491 C 0.4958 0.49741 0.58377 0.0
H492 H 0.52667 0.5725 0.43227 0.0
H493 H 0.53103 0.54085 0.45628 0.0
H494 H 0.53058 0.58324 0.51311 0.0
H495 H 0.52652 0.61473 0.48931 0.0
H496 H 0.56002 0.52726 0.48254 0.0
H497 H 0.50947 0.54949 0.52329 0.0
H498 H 0.5468 0.49385 0.54276 0.0
H499 H 0.51181 0.48403 0.55662 0.0
H500 H 0.51283 0.55481 0.56109 0.0
H501 H 0.49132 0.55188 0.59381 0.0
H502 H 0.55953 0.48625 0.47363 0.0
H503 H 0.58887 0.49517 0.53952 0.0
H504 H 0.49115 0.48132 0.59006 0.0
H505 H 0.58747 0.45994 0.46592 0.0
H506 H 0.6168 0.46881 0.53182 0.0
C507 C 0.48966 0.48607 0.90688 0.0
C508 C 0.50049 0.48961 0.88723 0.0
C509 C 0.50216 0.48474 0.92689 0.0
C510 C 0.52568 0.48722 0.92763 0.0
C511 C 0.53639 0.49152 0.90804 0.0
C512 C 0.52395 0.49264 0.88809 0.0
C513 C 0.53921 0.48419 0.94846 0.0
C514 C 0.53437 0.46612 0.96194 0.0
C515 C 0.54819 0.46195 0.98066 0.0
C516 C 0.56665 0.4765 0.98624 0.0
C517 C 0.57184 0.49457 0.97288 0.0
C518 C 0.55802 0.49832 0.95406 0.0
C519 C 0.59241 0.50882 0.97792 0.0
C520 C 0.5976 0.51683 -0.00066 0.0
C521 C 0.60716 0.51423 0.96136 0.0
C522 C 0.62668 0.52743 0.9661 0.0
C523 C 0.63171 0.5357 0.98743 0.0
C524 C 0.5448 0.4412 0.99298 0.0
C525 C 0.54637 0.44093 0.01609 0.0
C526 C 0.54129 0.42123 0.98146 0.0
C527 C 0.54002 0.4014 0.99272 0.0
C528 C 0.54208 0.40105 0.01577 0.0
C529 C 0.54482 0.421 0.02741 0.0
C530 C 0.61698 0.53027 0.00401 0.0
H531 H 0.47161 0.48362 0.90667 0.0
H532 H 0.49344 0.48155 0.94175 0.0
H533 H 0.55447 0.49331 0.90801 0.0
H534 H 0.53274 0.4956 0.87322 0.0
H535 H 0.5203 0.45478 0.95739 0.0
H536 H 0.56192 0.51228 0.94374 0.0
H537 H 0.57776 0.47304 0.00027 0.0
H538 H 0.58652 0.51294 0.0124 0.0
H539 H 0.60371 0.50808 0.94476 0.0
H540 H 0.63762 0.5315 0.95297 0.0
H541 H 0.549 0.4561 0.02538 0.0
H542 H 0.54029 0.42085 0.96367 0.0
H543 H 0.62051 0.53633 0.02063 0.0
H544 H 0.54649 0.42115 0.04519 0.0
H545 H 0.53768 0.38625 0.98335 0.0
C546 C 0.63588 0.19925 0.21735 0.0
C547 C 0.62927 0.22068 0.21352 0.0
C548 C 0.65423 0.19547 0.23171 0.0
C549 C 0.66659 0.21305 0.24243 0.0
C550 C 0.65985 0.2345 0.23862 0.0
C551 C 0.64133 0.23825 0.22444 0.0
C552 C 0.68639 0.20904 0.25752 0.0
C553 C 0.70095 0.19249 0.25283 0.0
C554 C 0.71955 0.18854 0.26707 0.0
C555 C 0.7236 0.20159 0.28605 0.0
C556 C 0.70936 0.21824 0.29104 0.0
C557 C 0.69077 0.22176 0.27673 0.0
C558 C 0.71403 0.23185 0.31125 0.0
C559 C 0.72165 0.22214 0.33091 0.0
C560 C 0.71168 0.25468 0.31092 0.0
C561 C 0.71763 0.26755 0.32963 0.0
C562 C 0.72617 0.25785 0.34892 0.0
C563 C 0.73469 0.17069 0.26236 0.0
C564 C 0.72596 0.15028 0.254 0.0
C565 C 0.75798 0.1737 0.26675 0.0
C566 C 0.77209 0.15671 0.26313 0.0
C567 C 0.76333 0.13629 0.25488 0.0
C568 C 0.7401 0.13332 0.25026 0.0
C569 C 0.72772 0.23499 0.34947 0.0
H570 H 0.62673 0.18537 0.20933 0.0
H571 H 0.65858 0.1787 0.23454 0.0
H572 H 0.66914 0.2485 0.24626 0.0
H573 H 0.63681 0.25497 0.22157 0.0
H574 H 0.69813 0.18298 0.2378 0.0
H575 H 0.67936 0.23408 0.28091 0.0
H576 H 0.7379 0.19873 0.29709 0.0
H577 H 0.72311 0.20458 0.33194 0.0
H578 H 0.70598 0.26269 0.296 0.0
H579 H 0.71635 0.28516 0.32876 0.0
H580 H 0.70811 0.14722 0.25074 0.0
H581 H 0.76538 0.1893 0.27281 0.0
H582 H 0.73385 0.22703 0.36427 0.0
H583 H 0.73278 0.11772 0.2441 0.0
H584 H 0.78994 0.15968 0.26648 0.0
C585 C 0.47522 0.09666 0.99246 0.0
C586 C 0.47491 0.09377 0.01535 0.0
C587 C 0.47248 0.07865 0.97815 0.0
C588 C 0.46912 0.05734 0.98634 0.0
C589 C 0.46917 0.05434 0.00919 0.0
C590 C 0.47213 0.07233 0.02353 0.0
C591 C 0.46433 0.03846 0.97105 0.0
C592 C 0.47715 0.03581 0.95269 0.0
C593 C 0.47199 0.01845 0.93766 0.0
C594 C 0.45361 0.00372 0.94121 0.0
C595 C 0.44066 0.00614 0.95955 0.0
C596 C 0.44625 0.02347 0.9744 0.0
C597 C 0.42093 0.991 0.96316 0.0
C598 C 0.40509 0.98547 0.94589 0.0
C599 C 0.41736 0.98268 0.98421 0.0
C600 C 0.39835 0.96921 0.98797 0.0
C601 C 0.38238 0.96383 0.97078 0.0
C602 C 0.48562 0.01596 0.91814 0.0
C603 C 0.49292 0.03449 0.90632 0.0
C604 C 0.49154 0.99515 0.91119 0.0
C605 C 0.50448 0.99298 0.89291 0.0
C606 C 0.51172 0.01154 0.88109 0.0
C607 C 0.50581 0.03232 0.88809 0.0
C608 C 0.38594 0.97211 0.94969 0.0
H609 H 0.47689 0.11291 0.98549 0.0
H610 H 0.47221 0.08149 0.96061 0.0
H611 H 0.46685 0.03805 0.01597 0.0
H612 H 0.47221 0.06941 0.04104 0.0
H613 H 0.49137 0.04715 0.95032 0.0
H614 H 0.43595 0.02581 0.9882 0.0
H615 H 0.44926 0.99045 0.92964 0.0
H616 H 0.40729 0.99183 0.92954 0.0
H617 H 0.42933 0.98656 0.99782 0.0
H618 H 0.39601 0.96323 0.00443 0.0
H619 H 0.4885 0.05074 0.91103 0.0
H620 H 0.48639 0.98055 0.92004 0.0
H621 H 0.37403 0.96808 0.93608 0.0
H622 H 0.51134 0.04702 0.8796 0.0
H623 H 0.5086 0.97672 0.88791 0.0
Mg624 Mg 0.23413 0.86065 0.00561 0.0
O625 O 0.26895 0.87831 0.00115 0.0
O626 O 0.29339 0.85191 0.00428 0.0
Mg627 Mg 0.27553 0.81862 0.00936 0.0
C628 C 0.28898 0.87196 0.00148 0.0
C629 C 0.2138 0.90636 0.00799 0.0
O630 O 0.22633 0.90675 0.02636 0.0
O631 O 0.23357 0.84688 0.97055 0.0
O632 O 0.25796 0.82071 0.97512 0.0
O633 O 0.23839 0.86418 0.04233 0.0
O634 O 0.24894 0.83593 0.02374 0.0
C635 C 0.24398 0.831 0.96306 0.0
C636 C 0.24792 0.8457 0.04235 0.0
O637 O 0.21494 0.8904 0.9947 0.0
Mg638 Mg 0.15187 0.50338 0.2738 0.0
O639 O 0.12867 0.49926 0.2422 0.0
O640 O 0.15176 0.49854 0.2146 0.0
Mg641 Mg 0.18832 0.50235 0.22731 0.0
C642 C 0.13207 0.49789 0.2217 0.0
C643 C 0.12699 0.50775 0.31415 0.0
O644 O 0.14592 0.51972 0.31628 0.0
O645 O 0.16097 0.46727 0.27203 0.0
O646 O 0.18564 0.46972 0.24565 0.0
O647 O 0.15364 0.54025 0.27092 0.0
O648 O 0.1772 0.51889 0.25623 0.0
C649 C 0.17547 0.45891 0.26035 0.0
C650 C 0.17086 0.53836 0.2593 0.0
O651 O 0.12302 0.49654 0.29658 0.0
Mg652 Mg 0.77976 0.64512 0.02134 0.0
O653 O 0.74503 0.62634 0.01672 0.0
O654 O 0.71992 0.65219 0.01605 0.0
Mg655 Mg 0.73748 0.68622 0.01866 0.0
C656 C 0.72478 0.63211 0.01545 0.0
C657 C 0.7971 0.59804 0.02687 0.0
O658 O 0.78222 0.59758 0.04194 0.0
O659 O 0.77803 0.65504 0.98517 0.0
O660 O 0.7531 0.68089 0.98551 0.0
O661 O 0.77772 0.64509 0.05789 0.0
O662 O 0.76535 0.67123 0.03643 0.0
C663 C 0.76678 0.66966 0.97542 0.0
C664 C 0.76765 0.66322 0.05587 0.0
O665 O 0.79875 0.61465 0.01443 0.0
Mg666 Mg 0.90252 0.02593 0.24649 0.0
O667 O 0.87819 0.99559 0.24016 0.0
O668 O 0.89887 0.96768 0.23181 0.0
Mg669 Mg 0.93576 0.97918 0.23354 0.0
C670 C 0.87996 0.97552 0.23478 0.0
C671 C 0.85757 0.04911 0.2464 0.0
O672 O 0.85645 0.04014 0.22671 0.0
O673 O 0.91328 0.01273 0.28067 0.0
O674 O 0.93421 0.98569 0.27039 0.0
O675 O 0.90207 0.03373 0.21033 0.0
O676 O 0.92616 0.01262 0.22696 0.0
C677 C 0.92616 0.99716 0.28533 0.0
C678 C 0.91868 0.02122 0.20904 0.0
O679 O 0.87426 0.04552 0.25945 0.0
Mg680 Mg 0.27763 0.14895 0.51931 0.0
O681 O 0.24408 0.12823 0.51451 0.0
O682 O 0.21729 0.15189 0.50851 0.0
Mg683 Mg 0.23299 0.18671 0.50823 0.0
C684 C 0.22351 0.13236 0.51086 0.0
C685 C 0.31758 0.12058 0.51102 0.0
O686 O 0.325 0.13995 0.50436 0.0
O687 O 0.27833 0.15495 0.48239 0.0
O688 O 0.25129 0.17857 0.47724 0.0
O689 O 0.27297 0.15344 0.55522 0.0
O690 O 0.26096 0.17597 0.52958 0.0
C691 C 0.26668 0.16729 0.47001 0.0
C692 C 0.2625 0.17082 0.55004 0.0
O693 O 0.29774 0.11834 0.51744 0.0
Mg694 Mg 0.40016 0.53058 0.73619 0.0
O695 O 0.37975 0.49752 0.73022 0.0
O696 O 0.4048 0.4734 0.72185 0.0
Mg697 Mg 0.43998 0.48974 0.72278 0.0
C698 C 0.38471 0.47815 0.72489 0.0
C699 C 0.37348 0.56799 0.74689 0.0
O700 O 0.39248 0.57537 0.7391 0.0
O701 O 0.41325 0.51904 0.77015 0.0
O702 O 0.43856 0.49611 0.7598 0.0
O703 O 0.3973 0.53866 0.70036 0.0
O704 O 0.42488 0.52083 0.71577 0.0
C705 C 0.42886 0.50607 0.77477 0.0
C706 C 0.41547 0.52858 0.69823 0.0
O707 O 0.37034 0.54739 0.74943 0.0
Mg708 Mg 0.74463 0.35474 0.50432 0.0
O709 O 0.77825 0.3731 0.49695 0.0
O710 O 0.80309 0.34725 0.49462 0.0
Mg711 Mg 0.78695 0.31374 0.50245 0.0
C712 C 0.79792 0.36723 0.49343 0.0
C713 C 0.70411 0.38175 0.49148 0.0
O714 O 0.69577 0.36149 0.48885 0.0
O715 O 0.74069 0.34178 0.46868 0.0
O716 O 0.76566 0.3159 0.47044 0.0
O717 O 0.75235 0.35728 0.54076 0.0
O718 O 0.7616 0.32991 0.52011 0.0
C719 C 0.75049 0.32611 0.45992 0.0
C720 C 0.762 0.33895 0.53923 0.0
O721 O 0.72489 0.38496 0.4966 0.0
Mg722 Mg 0.65039 0.00193 0.77362 0.0
O723 O 0.62847 0.00033 0.74109 0.0
O724 O 0.65153 0.00754 0.71411 0.0
Mg725 Mg 0.68731 0.01333 0.72834 0.0
C726 C 0.63198 0.00296 0.72073 0.0
C727 C 0.60363 -0.00096 0.79243 0.0
O728 O 0.60245 0.01547 0.77865 0.0
O729 O 0.6638 0.96806 0.76627 0.0
O730 O 0.68691 0.97773 0.73992 0.0
O731 O 0.64749 0.03837 0.77642 0.0
O732 O 0.67419 0.02309 0.75946 0.0
C733 C 0.67842 0.96335 0.75267 0.0
C734 C 0.66505 0.04067 0.76505 0.0
O735 O 0.62116 0.98816 0.79324 0.0
Mg736 Mg 0.03141 0.26109 0.89313 0.0
O737 O 0.99953 0.25385 0.87073 0.0
O738 O 0.9739 0.23774 0.89163 0.0
Mg739 Mg 0.98856 0.23508 0.92672 0.0
C740 C 0.97996 0.24504 0.87315 0.0
C741 C 0.05004 0.27288 0.84842 0.0
O742 O 0.04155 0.25275 0.84512 0.0
O743 O 0.01531 0.29022 0.90859 0.0
O744 O 0.99087 0.27255 0.92965 0.0
O745 O 0.04352 0.22765 0.88684 0.0
O746 O 0.02197 0.23533 0.91369 0.0
C747 C 1.00028 0.29029 0.9227 0.0
C748 C 0.03212 0.22089 0.90316 0.0
O749 O 0.04746 0.28216 0.86675 0.0
Mg750 Mg 0.52676 0.75385 0.39312 0.0
O751 O 0.49389 0.75076 0.37131 0.0
O752 O 0.46665 0.74397 0.39456 0.0
Mg753 Mg 0.48135 0.74004 0.42945 0.0
C754 C 0.47321 0.74756 0.37525 0.0
C755 C 0.56757 0.76651 0.36943 0.0
O756 O 0.57389 0.75689 0.3878 0.0
O757 O 0.51743 0.78736 0.40611 0.0
O758 O 0.49145 0.77673 0.42942 0.0
O759 O 0.53171 0.71793 0.38975 0.0
O760 O 0.51306 0.73235 0.41587 0.0
C761 C 0.50364 0.79172 0.4206 0.0
C762 C 0.51995 0.71509 0.4068 0.0
O763 O 0.5468 0.76905 0.3656 0.0
Mg764 Mg 0.98828 0.75047 0.5986 0.0
O765 O 0.01868 0.74431 0.62244 0.0
O766 O 0.04686 0.73812 0.60098 0.0
Mg767 Mg 0.03497 0.73875 0.56477 0.0
C768 C 0.03912 0.74022 0.61994 0.0
C769 C 0.96758 0.76038 0.64699 0.0
O770 O 0.96632 0.76449 0.62597 0.0
O771 O 0.00334 0.78478 0.59013 0.0
O772 O 0.03006 0.77551 0.56819 0.0
O773 O 0.97853 0.71429 0.59712 0.0
O774 O 1.00082 0.7314 0.57435 0.0
C775 C 0.01908 0.79 0.57742 0.0
C776 C 0.99103 0.7134 0.58051 0.0
O777 O 0.96667 0.76416 0.62636 0.0
Mg778 Mg 0.48893 0.24681 0.09678 0.0
O779 O 0.52148 0.23895 0.11698 0.0
O780 O 0.54617 0.23174 0.09201 0.0
Mg781 Mg 0.53107 0.23566 0.0573 0.0
C782 C 0.54087 0.23345 0.11192 0.0
C783 C 0.46477 0.24647 0.14107 0.0
O784 O 0.46851 0.22557 0.13922 0.0
O785 O 0.50387 0.28104 0.08852 0.0
O786 O 0.52767 0.2724 0.06332 0.0
O787 O 0.47782 0.21097 0.0946 0.0
O788 O 0.49828 0.22802 0.07034 0.0
C789 C 0.51817 0.28663 0.07446 0.0
C790 C 0.48882 0.21001 0.07697 0.0
O791 O 0.47246 0.25979 0.12698 0.0
H792 H 0.20401 0.79609 0.87045 0.0
H793 H 0.25963 0.75453 0.87937 0.0
H794 H 0.27226 0.77422 0.91301 0.0
H795 H 0.26612 0.80114 0.94113 0.0
H796 H 0.2101 0.84245 0.9337 0.0
H797 H 0.19928 0.82528 0.89803 0.0
C798 C 0.21902 0.79159 0.87967 0.0
C799 C 0.2307 0.77369 0.87265 0.0
C800 C 0.22609 0.80287 0.89925 0.0
C801 C 0.25014 0.76798 0.8847 0.0
C802 C 0.25742 0.77927 0.90388 0.0
C803 C 0.2516 0.80658 0.93171 0.0
C804 C 0.23881 0.8229 0.94026 0.0
C805 C 0.24527 0.7964 0.91153 0.0
C806 C 0.22024 0.82987 0.92758 0.0
C807 C 0.21398 0.81998 0.90722 0.0
H808 H 0.0687 0.52585 0.39468 0.0
H809 H 0.02432 0.47633 0.36239 0.0
H810 H 0.051 0.47238 0.33369 0.0
H811 H 0.08679 0.484 0.31721 0.0
H812 H 0.13065 0.5335 0.35061 0.0
H813 H 0.1043 0.53653 0.37917 0.0
C814 C 0.06479 0.51426 0.38129 0.0
C815 C 0.04447 0.50156 0.38056 0.0
C816 C 0.08014 0.51211 0.36495 0.0
C817 C 0.03989 0.48627 0.36337 0.0
C818 C 0.0551 0.48409 0.3469 0.0
C819 C 0.09057 0.49539 0.33077 0.0
C820 C 0.1107 0.50854 0.33162 0.0
C821 C 0.07526 0.49705 0.34743 0.0
C822 C 0.11534 0.52315 0.34941 0.0
C823 C 0.10026 0.52495 0.36583 0.0
H824 H 0.80007 0.69248 0.88103 0.0
H825 H 0.74198 0.73127 0.88056 0.0
H826 H 0.73249 0.7166 0.9161 0.0
H827 H 0.74184 0.6949 0.94837 0.0
H828 H 0.80022 0.65652 0.95002 0.0
H829 H 0.80834 0.66883 0.91299 0.0
C830 C 0.78531 0.69766 0.8887 0.0
C831 C 0.77176 0.71294 0.87805 0.0
C832 C 0.78002 0.68932 0.9094 0.0
C833 C 0.75255 0.71929 0.88814 0.0
C834 C 0.74717 0.71104 0.90859 0.0
C835 C 0.75629 0.68907 0.94064 0.0
C836 C 0.77051 0.67497 0.95212 0.0
C837 C 0.76095 0.69633 0.9195 0.0
C838 C 0.78898 0.66741 0.94163 0.0
C839 C 0.7937 0.67452 0.92047 0.0
H840 H 0.97749 0.97076 0.37306 0.0
H841 H 0.95408 0.03199 0.39526 0.0
H842 H 0.93272 0.03604 0.36012 0.0
H843 H 0.92333 0.02334 0.32184 0.0
H844 H 0.94668 0.96138 0.30078 0.0
H845 H 0.96507 0.95634 0.3367 0.0
C846 C 0.96756 0.9849 0.3702 0.0
C847 C 0.9675 0.00118 0.38647 0.0
C848 C 0.95531 0.987 0.35013 0.0
C849 C 0.95435 0.01928 0.38284 0.0
C850 C 0.94222 0.02161 0.36276 0.0
C851 C 0.9321 0.00857 0.32524 0.0
C852 C 0.93386 0.99296 0.30842 0.0
C853 C 0.94289 0.00573 0.34609 0.0
C854 C 0.94527 0.97387 0.31322 0.0
C855 C 0.95588 0.97093 0.3338 0.0
H856 H 0.22531 0.24402 0.60897 0.0
H857 H 0.26247 0.20998 0.6595 0.0
H858 H 0.27191 0.18264 0.63258 0.0
H859 H 0.27091 0.16937 0.59431 0.0
H860 H 0.23475 0.20452 0.54385 0.0
H861 H 0.22319 0.23008 0.57116 0.0
C862 C 0.23521 0.23044 0.61416 0.0
C863 C 0.24319 0.22906 0.6362 0.0
C864 C 0.24069 0.21491 0.59859 0.0
C865 C 0.25632 0.21156 0.64258 0.0
C866 C 0.26163 0.19587 0.62721 0.0
C867 C 0.26025 0.18244 0.58933 0.0
C868 C 0.25365 0.18491 0.56701 0.0
C869 C 0.25409 0.1975 0.60512 0.0
C870 C 0.24004 0.2021 0.56084 0.0
C871 C 0.23348 0.21684 0.57648 0.0
H872 H 0.45156 0.53635 0.60298 0.0
H873 H 0.49949 0.49295 0.63114 0.0
H874 H 0.48027 0.49211 0.66556 0.0
H875 H 0.45109 0.50529 0.68812 0.0
H876 H 0.40234 0.54781 0.65969 0.0
H877 H 0.42064 0.54743 0.62487 0.0
C878 C 0.45771 0.52668 0.61667 0.0
C879 C 0.47697 0.51485 0.61465 0.0
C880 C 0.44648 0.52616 0.63632 0.0
C881 C 0.48464 0.50212 0.63234 0.0
C882 C 0.47372 0.50172 0.65202 0.0
C883 C 0.44425 0.51425 0.67428 0.0
C884 C 0.42537 0.52659 0.6766 0.0
C885 C 0.45477 0.51386 0.65427 0.0
C886 C 0.41683 0.53815 0.6584 0.0
C887 C 0.42733 0.538 0.63848 0.0
H888 H 0.80068 0.27589 0.61132 0.0
H889 H 0.77102 0.32135 0.65392 0.0
H890 H 0.76186 0.34455 0.62246 0.0
H891 H 0.75925 0.35007 0.58234 0.0
H892 H 0.78698 0.30291 0.54007 0.0
H893 H 0.79984 0.28233 0.57181 0.0
C894 C 0.79219 0.29087 0.61374 0.0
C895 C 0.78632 0.29673 0.6349 0.0
C896 C 0.78654 0.30383 0.59557 0.0
C897 C 0.77583 0.31649 0.63782 0.0
C898 C 0.77044 0.32969 0.61981 0.0
C899 C 0.76839 0.33547 0.58009 0.0
C900 C 0.77211 0.32812 0.55875 0.0
C901 C 0.7753 0.32328 0.59853 0.0
C902 C 0.78389 0.30908 0.55618 0.0
C903 C 0.7912 0.29717 0.57439 0.0
H904 H 0.54458 0.98278 0.65903 0.0
H905 H 0.58907 0.00858 0.6108 0.0
H906 H 0.61882 0.01496 0.63925 0.0
H907 H 0.63261 0.01256 0.67738 0.0
H908 H 0.58862 0.9875 0.72635 0.0
H909 H 0.5582 0.98185 0.69809 0.0
C910 C 0.56071 0.99002 0.6548 0.0
C911 C 0.56462 0.99492 0.63271 0.0
C912 C 0.57785 0.99379 0.67135 0.0
C913 C 0.58569 0.00419 0.62755 0.0
C914 C 0.60271 0.00798 0.64383 0.0
C915 C 0.61639 0.00587 0.68199 0.0
C916 C 0.61302 0.00033 0.704 0.0
C917 C 0.59905 0.00266 0.66572 0.0
C918 C 0.59175 0.99189 0.70955 0.0
C919 C 0.57434 0.98861 0.69338 0.0
H920 H 0.91577 0.25142 0.78771 0.0
H921 H 0.8776 0.20238 0.82288 0.0
H922 H 0.90641 0.20356 0.85276 0.0
H923 H 0.94185 0.21899 0.86928 0.0
H924 H 0.98098 0.26743 0.83423 0.0
H925 H 0.95247 0.26595 0.80387 0.0
C926 C 0.91383 0.24105 0.80196 0.0
C927 C 0.89461 0.22685 0.80313 0.0
C928 C 0.93059 0.24169 0.81906 0.0
C929 C 0.89234 0.2133 0.82154 0.0
C930 C 0.90876 0.21403 0.83866 0.0
C931 C 0.9442 0.22925 0.85502 0.0
C932 C 0.96344 0.24344 0.85414 0.0
C933 C 0.92787 0.22822 0.83764 0.0
C934 C 0.96632 0.25636 0.83535 0.0
C935 C 0.94999 0.25558 0.81801 0.0
H936 H 0.51423 0.88899 0.45754 0.0
H937 H 0.45305 0.86724 0.48695 0.0
H938 H 0.4526 0.8324 0.46716 0.0
H939 H 0.47082 0.80725 0.44392 0.0
H940 H 0.53276 0.8276 0.41505 0.0
H941 H 0.53155 0.86399 0.43194 0.0
C942 C 0.5007 0.87667 0.45933 0.0
C943 C 0.4838 0.88051 0.47382 0.0
C944 C 0.50075 0.85646 0.44813 0.0
C945 C 0.46637 0.86447 0.47611 0.0
C946 C 0.46609 0.8446 0.46479 0.0
C947 C 0.48405 0.81963 0.44117 0.0
C948 C 0.502 0.81458 0.42844 0.0
C949 C 0.48342 0.84025 0.45115 0.0
C950 C 0.51877 0.83101 0.42481 0.0
C951 C 0.51813 0.85179 0.43455 0.0
H952 H 0.12426 0.32298 0.79502 0.0
H953 H 0.11281 0.26488 0.75446 0.0
H954 H 0.08247 0.25198 0.77699 0.0
H955 H 0.06103 0.25574 0.80961 0.0
H956 H 0.07313 0.31295 0.8513 0.0
H957 H 0.10131 0.32762 0.82691 0.0
C958 C 0.11512 0.3075 0.79112 0.0
C959 C 0.12087 0.29494 0.77306 0.0
C960 C 0.09784 0.29996 0.80438 0.0
C961 C 0.1086 0.27507 0.76805 0.0
C962 C 0.09132 0.26756 0.78103 0.0
C963 C 0.06963 0.27154 0.81329 0.0
C964 C 0.06506 0.28313 0.83237 0.0
C965 C 0.08603 0.2797 0.79941 0.0
C966 C 0.07634 0.30363 0.83677 0.0
C967 C 0.09253 0.312 0.82286 0.0
H968 H 0.50079 0.63125 0.46402 0.0
H969 H 0.54811 0.60512 0.42135 0.0
H970 H 0.54838 0.63881 0.39991 0.0
H971 H 0.53793 0.67699 0.39544 0.0
H972 H 0.49263 0.7037 0.43989 0.0
H973 H 0.48892 0.6686 0.45844 0.0
C974 C 0.5112 0.63291 0.45005 0.0
C975 C 0.52457 0.61573 0.44448 0.0
C976 C 0.51173 0.65253 0.43814 0.0
C977 C 0.53752 0.61799 0.42597 0.0
C978 C 0.53783 0.63734 0.41378 0.0
C979 C 0.52699 0.67505 0.40898 0.0
C980 C 0.51561 0.69304 0.41624 0.0
C981 C 0.52537 0.6549 0.42 0.0
C982 C 0.50159 0.69022 0.43389 0.0
C983 C 0.49951 0.67012 0.44461 0.0
H984 H 0.87593 0.77033 0.69105 0.0
H985 H 0.9203 0.77757 0.74923 0.0
H986 H 0.95234 0.77268 0.72714 0.0
H987 H 0.96805 0.76625 0.69102 0.0
H988 H 0.92354 0.76284 0.63292 0.0
H989 H 0.89154 0.76704 0.6552 0.0
C990 C 0.89256 0.77136 0.69902 0.0
C991 C 0.89537 0.77421 0.72198 0.0
C992 C 0.91108 0.76933 0.68613 0.0
C993 C 0.91728 0.77488 0.73174 0.0
C994 C 0.93577 0.7723 0.71906 0.0
C995 C 0.95133 0.76661 0.6833 0.0
C996 C 0.94826 0.76434 0.66038 0.0
C997 C 0.93288 0.76943 0.69623 0.0
C998 C 0.92649 0.7648 0.65052 0.0
C999 C 0.90811 0.76709 0.66327 0.0
H1000 H 0.05014 0.88021 0.53663 0.0
H1001 H 0.9901 0.90071 0.56486 0.0
H1002 H 0.98379 0.86424 0.58055 0.0
H1003 H 0.99454 0.82581 0.58477 0.0
H1004 H 0.05544 0.80666 0.55704 0.0
H1005 H 0.06245 0.84353 0.54337 0.0
C1006 C 0.03592 0.87701 0.54664 0.0
C1007 C 0.02064 0.89334 0.54945 0.0
C1008 C 0.03252 0.85615 0.5558 0.0
C1009 C 0.00201 0.88844 0.56206 0.0
C1010 C 0.99844 0.86759 0.57119 0.0
C1011 C 0.00949 0.82979 0.57601 0.0
C1012 C 0.02427 0.81331 0.57179 0.0
C1013 C 0.01346 0.85119 0.56794 0.0
C1014 C 0.04358 0.81885 0.56037 0.0
C1015 C 0.04765 0.83998 0.55249 0.0
H1016 H 0.09353 0.71942 0.70873 0.0
H1017 H 0.14862 0.73941 0.66935 0.0
H1018 H 0.12253 0.74642 0.63828 0.0
H1019 H 0.08427 0.74618 0.62211 0.0
H1020 H 0.02864 0.7281 0.66161 0.0
H1021 H 0.05465 0.72123 0.69292 0.0
C1022 C 0.09971 0.72531 0.6933 0.0
C1023 C 0.1229 0.7288 0.6912 0.0
C1024 C 0.08455 0.72969 0.67562 0.0
C1025 C 0.13081 0.73668 0.67129 0.0
C1026 C 0.11592 0.74064 0.65355 0.0
C1027 C 0.0778 0.74076 0.63758 0.0
C1028 C 0.05455 0.73746 0.63946 0.0
C1029 C 0.09279 0.73711 0.65549 0.0
C1030 C 0.04646 0.73078 0.65973 0.0
C1031 C 0.06133 0.72676 0.6776 0.0
H1032 H 0.99179 0.6373 0.5113 0.0
H1033 H 0.98585 0.59758 0.5695 0.0
H1034 H 0.98639 0.63061 0.592 0.0
H1035 H 0.98756 0.67114 0.59517 0.0
H1036 H 0.99843 0.71 0.53738 0.0
H1037 H 0.99785 0.67684 0.51494 0.0
C1038 C 0.99124 0.63557 0.52893 0.0
C1039 C 0.98844 0.61463 0.53838 0.0
C1040 C 0.99253 0.65461 0.542 0.0
C1041 C 0.98726 0.61328 0.56139 0.0
C1042 C 0.98782 0.63224 0.57443 0.0
C1043 C 0.98999 0.67225 0.5777 0.0
C1044 C 0.99285 0.69295 0.5679 0.0
C1045 C 0.99018 0.65302 0.56489 0.0
C1046 C 0.99624 0.69424 0.54531 0.0
C1047 C 0.99581 0.67529 0.53244 0.0
H1048 H 0.78925 0.91782 0.23855 0.0
H1049 H 0.826 0.87494 0.19909 0.0
H1050 H 0.85765 0.90171 0.20016 0.0
H1051 H 0.87548 0.93663 0.21308 0.0
H1052 H 0.83875 0.98068 0.25109 0.0
H1053 H 0.80633 0.95433 0.2493 0.0
C1054 C 0.80405 0.91443 0.22993 0.0
C1055 C 0.80528 0.89413 0.2191 0.0
C1056 C 0.82221 0.93012 0.2303 0.0
C1057 C 0.82472 0.89009 0.20811 0.0
C1058 C 0.84282 0.90548 0.20854 0.0
C1059 C 0.86037 0.94054 0.22096 0.0
C1060 C 0.85964 0.9605 0.2324 0.0
C1061 C 0.84185 0.92541 0.2198 0.0
C1062 C 0.83979 0.96541 0.24219 0.0
C1063 C 0.82127 0.95031 0.24124 0.0
H1064 H 0.79833 0.12312 0.28124 0.0
H1065 H 0.76223 0.10904 0.21917 0.0
H1066 H 0.7874 0.08016 0.21169 0.0
H1067 H 0.82045 0.05984 0.22204 0.0
H1068 H 0.85694 0.07393 0.28393 0.0
H1069 H 0.83084 0.10182 0.29218 0.0
C1070 C 0.79603 0.11378 0.26604 0.0
C1071 C 0.77842 0.11831 0.25076 0.0
C1072 C 0.81064 0.09719 0.2618 0.0
C1073 C 0.77548 0.10579 0.23131 0.0
C1074 C 0.78995 0.08933 0.22696 0.0
C1075 C 0.82266 0.06889 0.23742 0.0
C1076 C 0.84074 0.0648 0.25229 0.0
C1077 C 0.80767 0.08499 0.24201 0.0
C1078 C 0.84322 0.0767 0.27216 0.0
C1079 C 0.82832 0.09272 0.27687 0.0
H1080 H 0.38088 0.92608 0.99392 0.0
H1081 H 0.33877 0.9691 0.95675 0.0
H1082 H 0.30578 0.94512 0.96375 0.0
H1083 H 0.28901 0.91139 0.98012 0.0
H1084 H 0.33203 0.86831 0.01633 0.0
H1085 H 0.36439 0.893 0.01035 0.0
C1086 C 0.36446 0.93032 0.98752 0.0
C1087 C 0.36228 0.94935 0.9749 0.0
C1088 C 0.34567 0.91646 0.99151 0.0
C1089 C 0.34092 0.95442 0.96637 0.0
C1090 C 0.32204 0.94078 0.97047 0.0
C1091 C 0.30544 0.90755 0.98684 0.0
C1092 C 0.30806 0.88801 -0.00137 0.0
C1093 C 0.32421 0.9217 0.98299 0.0
C1094 C 0.32953 0.88315 0.00706 0.0
C1095 C 0.34808 0.89727 0.00367 0.0
H1096 H 0.2062 0.36221 0.26335 0.0
H1097 H 0.26573 0.39615 0.29277 0.0
H1098 H 0.24716 0.43054 0.29149 0.0
H1099 H 0.21498 0.45153 0.28004 0.0
H1100 H 0.15491 0.41834 0.25177 0.0
H1101 H 0.17243 0.38292 0.25519 0.0
C1102 C 0.21503 0.37703 0.26982 0.0
C1103 C 0.23758 0.37652 0.27774 0.0
C1104 C 0.20408 0.39686 0.26938 0.0
C1105 C 0.24866 0.39604 0.28593 0.0
C1106 C 0.23798 0.41574 0.28543 0.0
C1107 C 0.20562 0.43642 0.27507 0.0
C1108 C 0.18374 0.4373 0.26586 0.0
C1109 C 0.21587 0.41639 0.2769 0.0
C1110 C 0.1717 0.41784 0.2592 0.0
C1111 C 0.18181 0.3977 0.26098 0.0
H1112 H 0.15883 0.04739 0.49512 0.0
H1113 H 0.11056 0.09278 0.51389 0.0
H1114 H 0.14015 0.12181 0.51904 0.0
H1115 H 0.17942 0.13452 0.5175 0.0
H1116 H 0.22845 0.08922 0.5003 0.0
H1117 H 0.19895 0.05987 0.49539 0.0
C1118 C 0.15489 0.06366 0.50034 0.0
C1119 C 0.13258 0.06801 0.50408 0.0
C1120 C 0.17208 0.08023 0.50357 0.0
C1121 C 0.12764 0.08905 0.51106 0.0
C1122 C 0.14452 0.10566 0.51393 0.0
C1123 C 0.1837 0.11822 0.51268 0.0
C1124 C 0.20608 0.11412 0.50909 0.0
C1125 C 0.16676 0.10146 0.51014 0.0
C1126 C 0.21135 0.09281 0.50319 0.0
C1127 C 0.19448 0.07605 0.5003 0.0
H1128 H 0.70053 0.13935 0.75443 0.0
H1129 H 0.74825 0.10782 0.71624 0.0
H1130 H 0.72903 0.07219 0.72203 0.0
H1131 H 0.70025 0.04988 0.73969 0.0
H1132 H 0.65171 0.08086 0.77733 0.0
H1133 H 0.66975 0.11686 0.77011 0.0
C1134 C 0.70661 0.12465 0.74734 0.0
C1135 C 0.72579 0.12618 0.73497 0.0
C1136 C 0.69543 0.10417 0.7507 0.0
C1137 C 0.7334 0.10708 0.72565 0.0
C1138 C 0.7225 0.08669 0.72906 0.0
C1139 C 0.69331 0.06445 0.74605 0.0
C1140 C 0.67461 0.0626 0.75902 0.0
C1141 C 0.70368 0.08502 0.74176 0.0
C1142 C 0.66607 0.08178 0.76726 0.0
C1143 C 0.67642 0.10238 0.76319 0.0
H1144 H 0.37428 0.0386 0.5337 0.0
H1145 H 0.42365 0.07757 0.49977 0.0
H1146 H 0.39671 0.10555 0.49232 0.0
H1147 H 0.35966 0.1196 0.49665 0.0
H1148 H 0.31002 0.08062 0.53032 0.0
H1149 H 0.33647 0.05198 0.53656 0.0
C1150 C 0.37911 0.05326 0.52472 0.0
C1151 C 0.40095 0.05607 0.51739 0.0
C1152 C 0.36349 0.06925 0.52042 0.0
C1153 C 0.4069 0.07496 0.50547 0.0
C1154 C 0.39153 0.091 0.50127 0.0
C1155 C 0.35454 0.10479 0.50524 0.0
C1156 C 0.3329 0.10236 0.51311 0.0
C1157 C 0.36984 0.0884 0.50881 0.0
C1158 C 0.32656 0.08296 0.52408 0.0
C1159 C 0.34171 0.06659 0.52773 0.0
H1160 H 0.64946 0.46549 0.50682 0.0
H1161 H 0.5957 0.42188 0.47984 0.0
H1162 H 0.62208 0.3936 0.47404 0.0
H1163 H 0.66002 0.3806 0.47834 0.0
H1164 H 0.71405 0.42419 0.50499 0.0
H1165 H 0.68803 0.45317 0.50901 0.0
C1166 C 0.64358 0.44978 0.49966 0.0
C1167 C 0.62067 0.44572 0.49387 0.0
C1168 C 0.65887 0.43361 0.49628 0.0
C1169 C 0.61328 0.42544 0.48431 0.0
C1170 C 0.62834 0.40924 0.48107 0.0
C1171 C 0.66618 0.3965 0.48485 0.0
C1172 C 0.68894 0.40013 0.49149 0.0
C1173 C 0.65112 0.41306 0.4872 0.0
C1174 C 0.69662 0.42091 0.49974 0.0
C1175 C 0.68173 0.43748 0.50215 0.0
H1176 H 0.70551 0.29059 0.3694 0.0
H1177 H 0.76604 0.25541 0.37145 0.0
H1178 H 0.77958 0.27501 0.40485 0.0
H1179 H 0.77332 0.29994 0.4346 0.0
H1180 H 0.71267 0.33485 0.4343 0.0
H1181 H 0.70027 0.31793 0.39881 0.0
C1182 C 0.72175 0.28747 0.37708 0.0
C1183 C 0.73463 0.27135 0.36819 0.0
C1184 C 0.72938 0.29869 0.39655 0.0
C1185 C 0.75566 0.26742 0.37824 0.0
C1186 C 0.76345 0.27868 0.39728 0.0
C1187 C 0.7574 0.30401 0.4268 0.0
C1188 C 0.74382 0.31844 0.43727 0.0
C1189 C 0.75027 0.29398 0.40678 0.0
C1190 C 0.72344 0.32376 0.42665 0.0
C1191 C 0.7163 0.31399 0.40641 0.0
H1192 H 0.54634 0.98487 0.87575 0.0
H1193 H 0.50784 0.03356 0.84231 0.0
H1194 H 0.53186 0.0327 0.81136 0.0
H1195 H 0.56501 0.01989 0.7947 0.0
H1196 H 0.60385 0.97125 0.82776 0.0
H1197 H 0.57812 0.9699 0.8576 0.0
C1198 C 0.54298 0.99504 0.86155 0.0
C1199 C 0.52543 0.00948 0.86156 0.0
C1200 C 0.5569 0.99446 0.84369 0.0
C1201 C 0.52149 0.02265 0.84302 0.0
C1202 C 0.53514 0.02207 0.82522 0.0
C1203 C 0.56776 0.00879 0.80829 0.0
C1204 C 0.58647 0.99582 0.80901 0.0
C1205 C 0.55311 0.00833 0.82553 0.0
C1206 C 0.58962 0.98145 0.82674 0.0
C1207 C 0.57496 0.98075 0.8439 0.0
H1208 H 0.30623 0.20461 0.38441 0.0
H1209 H 0.23678 0.19589 0.36113 0.0
H1210 H 0.22761 0.17889 0.39567 0.0
H1211 H 0.23866 0.1696 0.43389 0.0
H1212 H 0.30844 0.17432 0.45545 0.0
H1213 H 0.31823 0.18887 0.41965 0.0
C1214 C 0.28916 0.19848 0.38638 0.0
C1215 C 0.27219 0.20239 0.37012 0.0
C1216 C 0.28402 0.18785 0.40603 0.0
C1217 C 0.25018 0.19421 0.37352 0.0
C1218 C 0.24487 0.18416 0.39325 0.0
C1219 C 0.25604 0.17336 0.4305 0.0
C1220 C 0.27281 0.17112 0.44721 0.0
C1221 C 0.26155 0.18147 0.40985 0.0
C1222 C 0.29529 0.17584 0.44273 0.0
C1223 C 0.30086 0.18434 0.42235 0.0
H1224 H 0.46276 0.51096 0.87514 0.0
H1225 H 0.50958 0.46669 0.85097 0.0
H1226 H 0.49044 0.46669 0.81468 0.0
H1227 H 0.46197 0.48053 0.78943 0.0
H1228 H 0.41544 0.52588 0.81227 0.0
H1229 H 0.43266 0.52388 0.84954 0.0
C1230 C 0.46858 0.50118 0.86194 0.0
C1231 C 0.48771 0.48903 0.86566 0.0
C1232 C 0.45759 0.50144 0.84091 0.0
C1233 C 0.49514 0.47647 0.84841 0.0
C1234 C 0.48415 0.47638 0.82769 0.0
C1235 C 0.45538 0.48992 0.80251 0.0
C1236 C 0.43746 0.50345 0.79791 0.0
C1237 C 0.46559 0.48904 0.82368 0.0
C1238 C 0.42921 0.51535 0.81525 0.0
C1239 C 0.43912 0.51427 0.83657 0.0
H1240 H 0.74645 0.70485 0.14693 0.0
H1241 H 0.71559 0.75149 0.10371 0.0
H1242 H 0.72458 0.73007 0.07179 0.0
H1243 H 0.74332 0.69955 0.05618 0.0
H1244 H 0.77371 0.65233 0.09911 0.0
H1245 H 0.76291 0.67259 0.13113 0.0
C1246 C 0.74162 0.71022 0.13051 0.0
C1247 C 0.73044 0.72975 0.12767 0.0
C1248 C 0.74687 0.69782 0.1122 0.0
C1249 C 0.72403 0.73642 0.10633 0.0
C1250 C 0.7293 0.72426 0.08806 0.0
C1251 C 0.74734 0.69346 0.07248 0.0
C1252 C 0.75936 0.67444 0.07517 0.0
C1253 C 0.74099 0.70512 0.0908 0.0
C1254 C 0.76447 0.66692 0.09652 0.0
C1255 C 0.75834 0.67853 0.11487 0.0
H1256 H 0.97952 0.00188 0.13077 0.0
H1257 H 0.93622 0.04686 0.0979 0.0
H1258 H 0.91387 0.04823 0.13024 0.0
H1259 H 0.90838 0.03872 0.16888 0.0
H1260 H 0.95324 0.99521 0.20204 0.0
H1261 H 0.97285 0.99091 0.1686 0.0
C1262 C 0.96494 0.01165 0.13057 0.0
C1263 C 0.95956 0.02429 0.11204 0.0
C1264 C 0.95245 0.01269 0.14935 0.0
C1265 C 0.9408 0.03713 0.11209 0.0
C1266 C 0.92802 0.03791 0.13056 0.0
C1267 C 0.92226 0.02809 0.16872 0.0
C1268 C 0.92915 0.01722 0.18801 0.0
C1269 C 0.93396 0.0261 0.14946 0.0
C1270 C 0.94731 0.00362 0.18748 0.0
C1271 C 0.95871 0.00123 0.16834 0.0
H1272 H 0.27343 0.81128 0.13742 0.0
H1273 H 0.29616 0.75805 0.09914 0.0
H1274 H 0.28605 0.77708 0.06532 0.0
H1275 H 0.26882 0.80756 0.04668 0.0
H1276 H 0.24696 0.86157 0.08434 0.0
H1277 H 0.25895 0.84357 0.11841 0.0
C1278 C 0.27653 0.80402 0.12169 0.0
C1279 C 0.28526 0.78311 0.12086 0.0
C1280 C 0.27078 0.81512 0.10222 0.0
C1281 C 0.289 0.77388 0.10029 0.0
C1282 C 0.28334 0.7848 0.08092 0.0
C1283 C 0.26699 0.81565 0.06226 0.0
C1284 C 0.25701 0.83591 0.06289 0.0
C1285 C 0.27389 0.80524 0.0817 0.0
C1286 C 0.2546 0.84596 0.08335 0.0
C1287 C 0.26141 0.83566 0.10285 0.0
H1288 H 0.04374 0.48017 0.1608 0.0
H1289 H 0.08732 0.5087 0.11309 0.0
H1290 H 0.1175 0.51368 0.14123 0.0
H1291 H 0.13206 0.50916 0.17891 0.0
H1292 H 0.08877 0.48254 0.22766 0.0
H1293 H 0.05785 0.47799 0.19967 0.0
C1294 C 0.05973 0.48774 0.15661 0.0
C1295 C 0.06327 0.49365 0.13466 0.0
C1296 C 0.07711 0.4909 0.17304 0.0
C1297 C 0.08421 0.5034 0.12963 0.0
C1298 C 0.10149 0.50642 0.14576 0.0
C1299 C 0.11587 0.50233 0.18347 0.0
C1300 C 0.11282 0.49596 0.2053 0.0
C1301 C 0.09823 0.49998 0.16742 0.0
C1302 C 0.0916 0.48753 0.21096 0.0
C1303 C 0.07393 0.48489 0.19494 0.0
H1304 H 0.38719 0.75233 0.31195 0.0
H1305 H 0.42805 0.71815 0.26861 0.0
H1306 H 0.4596 0.72137 0.296 0.0
H1307 H 0.4749 0.73249 0.3332 0.0
H1308 H 0.43251 0.76416 0.3771 0.0
H1309 H 0.40235 0.76363 0.34856 0.0
C1310 C 0.40311 0.74586 0.30842 0.0
C1311 C 0.4054 0.73515 0.28832 0.0
C1312 C 0.42088 0.7473 0.32439 0.0
C1313 C 0.42595 0.72643 0.28405 0.0
C1314 C 0.44396 0.7283 0.29967 0.0
C1315 C 0.45913 0.73946 0.33634 0.0
C1316 C 0.45589 0.74835 0.35717 0.0
C1317 C 0.44155 0.73849 0.32002 0.0
C1318 C 0.43531 0.75711 0.36121 0.0
C1319 C 0.41807 0.75683 0.34491 0.0
H1320 H 0.9682 0.36687 0.98026 0.0
H1321 H 0.02407 0.40205 0.95203 0.0
H1322 H 0.03074 0.36986 0.92988 0.0
H1323 H 0.02178 0.33097 0.91996 0.0
H1324 H 0.96523 0.29668 0.9481 0.0
H1325 H 0.95744 0.32952 0.96826 0.0
C1326 C 0.98156 0.36776 0.96894 0.0
C1327 C 0.99564 0.38691 0.96796 0.0
C1328 C 0.9852 0.3493 0.95615 0.0
C1329 C 0.01317 0.38743 0.95346 0.0
C1330 C 0.01692 0.36906 0.94066 0.0
C1331 C 0.00758 0.33077 0.93027 0.0
C1332 C 0.99429 0.31124 0.93262 0.0
C1333 C 0.00322 0.34977 0.94209 0.0
C1334 C 0.97593 0.31134 0.94609 0.0
C1335 C 0.97143 0.33014 0.95769 0.0
H1336 H 0.6509 0.78499 0.31216 0.0
H1337 H 0.60007 0.80745 0.26613 0.0
H1338 H 0.57144 0.79886 0.29241 0.0
H1339 H 0.56085 0.78462 0.32861 0.0
H1340 H 0.61251 0.76302 0.37436 0.0
H1341 H 0.64074 0.77208 0.34822 0.0
C1342 C 0.63363 0.78838 0.30795 0.0
C1343 C 0.62773 0.79696 0.2872 0.0
C1344 C 0.61733 0.78358 0.32315 0.0
C1345 C 0.60511 0.80067 0.2819 0.0
C1346 C 0.58872 0.79587 0.29697 0.0
C1347 C 0.57829 0.78201 0.33287 0.0
C1348 C 0.58446 0.7731 0.35345 0.0
C1349 C 0.59463 0.78724 0.31766 0.0
C1350 C 0.60718 0.76981 0.35867 0.0
C1351 C 0.62341 0.77497 0.34371 0.0
H1352 H 0.04931 0.12501 0.93525 0.0
H1353 H 0.99007 0.13613 0.97003 0.0
H1354 H 0.9865 0.17124 0.95175 0.0
H1355 H 0.00196 0.19998 0.92862 0.0
H1356 H 0.06078 0.1895 0.89314 0.0
H1357 H 0.06249 0.15265 0.9086 0.0
C1358 C 0.03539 0.13494 0.93848 0.0
C1359 C 0.02024 0.12817 0.9543 0.0
C1360 C 0.03343 0.15522 0.9279 0.0
C1361 C 0.00228 0.14122 0.95832 0.0
C1362 C 1.00016 0.16126 0.94783 0.0
C1363 C 0.01506 0.18968 0.92407 0.0
C1364 C 0.03139 0.19766 0.91002 0.0
C1365 C 0.01597 0.16867 0.93306 0.0
C1366 C 0.04802 0.18379 0.90402 0.0
C1367 C 0.04907 0.16275 0.91292 0.0
H1368 H 0.39273 0.28827 0.19815 0.0
H1369 H 0.39141 0.22349 0.22618 0.0
H1370 H 0.42111 0.21337 0.20289 0.0
H1371 H 0.44636 0.22231 0.17354 0.0
H1372 H 0.44805 0.28706 0.14534 0.0
H1373 H 0.41952 0.29782 0.1698 0.0
C1374 C 0.39895 0.27194 0.1991 0.0
C1375 C 0.38983 0.25664 0.21384 0.0
C1376 C 0.41614 0.26623 0.18567 0.0
C1377 C 0.39826 0.23563 0.21511 0.0
C1378 C 0.41519 0.2298 0.20174 0.0
C1379 C 0.44065 0.23885 0.17283 0.0
C1380 C 0.44929 0.25379 0.1575 0.0
C1381 C 0.42415 0.2449 0.18685 0.0
C1382 C 0.44173 0.27519 0.15696 0.0
C1383 C 0.42531 0.28134 0.17088 0.0
H1384 H 0.51753 0.38725 0.0502 0.0
H1385 H 0.56734 0.36705 0.007 0.0
H1386 H 0.56592 0.33055 0.02308 0.0
H1387 H 0.54862 0.3037 0.04707 0.0
H1388 H 0.49753 0.32255 0.08954 0.0
H1389 H 0.50168 0.36034 0.07643 0.0
C1390 C 0.52824 0.37489 0.04457 0.0
C1391 C 0.54233 0.37971 0.02727 0.0
C1392 C 0.52708 0.35372 0.0537 0.0
C1393 C 0.55611 0.36359 0.02005 0.0
C1394 C 0.55536 0.34275 0.02928 0.0
C1395 C 0.53848 0.31604 0.05369 0.0
C1396 C 0.5226 0.31015 0.06912 0.0
C1397 C 0.54058 0.33751 0.04574 0.0
C1398 C 0.50984 0.32654 0.0776 0.0
C1399 C 0.51213 0.34816 0.07002 0.0
H1400 H 0.6222 0.20385 0.17249 0.0
H1401 H 0.59424 0.24692 0.21859 0.0
H1402 H 0.56366 0.25406 0.19169 0.0
H1403 H 0.54529 0.24853 0.15449 0.0
H1404 H 0.57492 0.20653 0.10835 0.0
H1405 H 0.60416 0.19835 0.13583 0.0
C1406 C 0.60928 0.21462 0.17672 0.0
C1407 C 0.6104 0.22474 0.19751 0.0
C1408 C 0.59201 0.21886 0.16112 0.0
C1409 C 0.59378 0.239 0.20263 0.0
C1410 C 0.57626 0.24303 0.18728 0.0
C1411 C 0.55807 0.23749 0.15056 0.0
C1412 C 0.5579 0.2282 0.12937 0.0
C1413 C 0.57525 0.23313 0.1664 0.0
C1414 C 0.57471 0.21406 0.12445 0.0
C1415 C 0.59146 0.20931 0.14018 0.0
H1416 H 0.50109 0.1315 0.01196 0.0
H1417 H 0.45257 0.09971 0.0529 0.0
H1418 H 0.454 0.1321 0.07658 0.0
H1419 H 0.46725 0.17042 0.0844 0.0
H1420 H 0.51347 0.20278 0.04148 0.0
H1421 H 0.5145 0.16939 0.01988 0.0
C1422 C 0.49069 0.13165 0.02596 0.0
C1423 C 0.47669 0.11312 0.03049 0.0
C1424 C 0.49112 0.15054 0.03921 0.0
C1425 C 0.46374 0.11355 0.04907 0.0
C1426 C 0.46439 0.13218 0.06257 0.0
C1427 C 0.47771 0.17011 0.07045 0.0
C1428 C 0.4904 0.18914 0.06476 0.0
C1429 C 0.4778 0.15089 0.05764 0.0
C1430 C 0.5037 0.18844 0.04648 0.0
C1431 C 0.50423 0.16931 0.03398 0.0
H1432 H 0.32189 0.39319 0.70576 0.0
H1433 H 0.27808 0.42799 0.74571 0.0
H1434 H 0.30547 0.45924 0.74857 0.0
H1435 H 0.34268 0.4762 0.74077 0.0
H1436 H 0.38672 0.43997 0.70227 0.0
H1437 H 0.35858 0.40975 0.69813 0.0
C1438 C 0.31838 0.40747 0.71533 0.0
C1439 C 0.29796 0.40809 0.7256 0.0
C1440 C 0.33433 0.42519 0.71724 0.0
C1441 C 0.29355 0.42706 0.73744 0.0
C1442 C 0.30928 0.44492 0.73921 0.0
C1443 C 0.34604 0.46174 0.73138 0.0
C1444 C 0.36686 0.46039 0.72193 0.0
C1445 C 0.32981 0.44413 0.72927 0.0
C1446 C 0.37096 0.44145 0.70989 0.0
C1447 C 0.35485 0.42412 0.70746 0.0
H1448 H 0.31071 0.64662 0.7547 0.0
H1449 H 0.26299 0.59436 0.77078 0.0
H1450 H 0.29136 0.56755 0.76661 0.0
H1451 H 0.33014 0.55902 0.75857 0.0
H1452 H 0.37745 0.61229 0.74398 0.0
H1453 H 0.349 0.63852 0.74806 0.0
C1454 C 0.30649 0.62942 0.75765 0.0
C1455 C 0.28469 0.62264 0.76318 0.0
C1456 C 0.32293 0.61418 0.75564 0.0
C1457 C 0.27953 0.60012 0.76627 0.0
C1458 C 0.29582 0.58476 0.76407 0.0
C1459 C 0.33423 0.57637 0.75644 0.0
C1460 C 0.35597 0.58357 0.75093 0.0
C1461 C 0.31764 0.59161 0.7588 0.0
C1462 C 0.36092 0.60616 0.74817 0.0
C1463 C 0.34462 0.62127 0.75046 0.0
H1464 H 0.88145 0.42378 0.46202 0.0
H1465 H 0.85175 0.47385 0.49888 0.0
H1466 H 0.82019 0.44822 0.50652 0.0
H1467 H 0.80187 0.41092 0.5039 0.0
H1468 H 0.83336 0.36051 0.46891 0.0
H1469 H 0.86324 0.38684 0.45927 0.0
C1470 C 0.8679 0.42911 0.47148 0.0
C1471 C 0.86878 0.45063 0.47978 0.0
C1472 C 0.85019 0.41416 0.47625 0.0
C1473 C 0.85137 0.45729 0.49237 0.0
C1474 C 0.83336 0.44266 0.49672 0.0
C1475 C 0.8152 0.40579 0.49405 0.0
C1476 C 0.8154 0.38378 0.48719 0.0
C1477 C 0.8327 0.42096 0.48894 0.0
C1478 C 0.8329 0.37731 0.47457 0.0
C1479 C 0.84999 0.39237 0.46898 0.0
H1480 H 0.73551 0.88088 0.74263 0.0
H1481 H 0.70849 0.86471 0.80496 0.0
H1482 H 0.68549 0.89667 0.8025 0.0
H1483 H 0.67531 0.93091 0.7837 0.0
H1484 H 0.7025 0.94611 0.721 0.0
H1485 H 0.72286 0.91283 0.72244 0.0
C1486 C 0.72451 0.88435 0.75562 0.0
C1487 C 0.72386 0.87069 0.77405 0.0
C1488 C 0.71133 0.90262 0.75404 0.0
C1489 C 0.70926 0.87507 0.79061 0.0
C1490 C 0.69617 0.89336 0.78923 0.0
C1491 C 0.68538 0.92674 0.7702 0.0
C1492 C 0.68755 0.94123 0.75243 0.0
C1493 C 0.69732 0.90748 0.77115 0.0
C1494 C 0.70069 0.93549 0.73505 0.0
C1495 C 0.71242 0.91643 0.73584 0.0
H1496 H 0.63397 0.57449 0.00931 0.0
H1497 H 0.67459 0.53035 0.97589 0.0
H1498 H 0.7075 0.55562 0.98268 0.0
H1499 H 0.72443 0.59105 0.99717 0.0
H1500 H 0.68275 0.63559 0.02891 0.0
H1501 H 0.65073 0.60933 0.02399 0.0
C1502 C 0.65009 0.57029 0.00375 0.0
C1503 C 0.65188 0.55058 0.9922 0.0
C1504 C 0.66878 0.58502 0.00739 0.0
C1505 C 0.67279 0.54552 0.98472 0.0
C1506 C 0.69161 0.55992 0.98865 0.0
C1507 C 0.70838 0.59487 0.00316 0.0
C1508 C 0.706 0.61526 0.01336 0.0
C1509 C 0.68978 0.57983 -0.00016 0.0
C1510 C 0.68502 0.62009 0.02086 0.0
C1511 C 0.66667 0.60507 0.01808 0.0
H1512 H 0.24068 0.60877 0.22408 0.0
H1513 H 0.20261 0.65189 0.26175 0.0
H1514 H 0.17634 0.62123 0.26983 0.0
H1515 H 0.16574 0.58156 0.26825 0.0
H1516 H 0.20539 0.53869 0.23189 0.0
H1517 H 0.22933 0.56979 0.22125 0.0
C1518 C 0.22669 0.61146 0.23415 0.0
C1519 C 0.22377 0.63254 0.24248 0.0
C1520 C 0.21187 0.59376 0.23895 0.0
C1521 C 0.20522 0.63584 0.25505 0.0
C1522 C 0.19025 0.61829 0.25977 0.0
C1523 C 0.17943 0.57907 0.25775 0.0
C1524 C 0.18364 0.55773 0.25086 0.0
C1525 C 0.19359 0.59709 0.25205 0.0
C1526 C 0.20157 0.55483 0.23738 0.0
C1527 C 0.21543 0.57265 0.23135 0.0
H1528 H 0.86566 0.52484 0.04607 0.0
H1529 H 0.90497 0.56616 0.00371 0.0
H1530 H 0.87363 0.58956 0.99734 0.0
H1531 H 0.83589 0.59961 0.00549 0.0
H1532 H 0.79701 0.55925 0.04904 0.0
H1533 H 0.82728 0.53418 0.05316 0.0
C1534 C 0.86741 0.53903 0.03553 0.0
C1535 C 0.88771 0.54375 0.02547 0.0
C1536 C 0.84936 0.5526 0.03211 0.0
C1537 C 0.88951 0.56199 0.01152 0.0
C1538 C 0.87161 0.57546 0.00794 0.0
C1539 C 0.83388 0.58518 0.01565 0.0
C1540 C 0.8142 0.58139 0.02699 0.0
C1541 C 0.85154 0.57106 0.01831 0.0
C1542 C 0.81198 0.56262 0.04017 0.0
C1543 C 0.82933 0.5483 0.0426 0.0
H1544 H 0.12447 0.95466 0.99066 0.0
H1545 H 0.15093 0.9908 0.04826 0.0
H1546 H 0.18481 0.97054 0.04862 0.0
H1547 H 0.20618 0.94133 0.03375 0.0
H1548 H 0.18029 0.90587 0.97558 0.0
H1549 H 0.14737 0.92772 0.97386 0.0
C1550 C 0.13777 0.95843 0.00309 0.0
C1551 C 0.13486 0.97409 0.01959 0.0
C1552 C 0.15744 0.94692 0.00304 0.0
C1553 C 0.15232 0.97847 0.03567 0.0
C1554 C 0.17185 0.96702 0.03579 0.0
C1555 C 0.19349 0.93854 0.02052 0.0
C1556 C 0.19567 0.92183 0.00494 0.0
C1557 C 0.17446 0.951 0.01974 0.0
C1558 C 0.17909 0.91858 0.98784 0.0
C1559 C 0.16015 0.93099 0.9869 0.0
loop_
_geom_bond_atom_site_label_1
_geom_bond_atom_site_label_2
_geom_bond_distance
_geom_bond_site_symmetry_2
_ccdc_geom_bond_type
C0 C1 1.386 . S
C0 C2 1.397 . S
C0 H24 0.931 . S
C1 C0 1.386 . S
C1 C5 1.397 . S
C2 C0 1.397 . S
C2 C3 1.384 . S
C2 H25 0.930 . S
C3 C2 1.384 . S
C3 C4 1.377 1_556 S
C3 C6 1.481 1_556 S
C4 C3 1.377 1_554 S
C4 C5 1.389 1_554 S
C4 H26 0.929 . S
C5 C1 1.397 . S
C5 C4 1.389 1_556 S
C5 H27 0.929 . S
C6 C3 1.481 1_554 S
C6 C7 1.387 . S
C6 C11 1.390 . S
C7 C6 1.387 . S
C7 C8 1.401 . S
C7 H28 0.930 1_554 S
C8 C7 1.401 . S
C8 C9 1.376 . S
C8 C17 1.511 . S
C9 C8 1.376 . S
C9 C10 1.392 . S
C9 H30 0.931 . S
C10 C9 1.392 . S
C10 C11 1.361 . S
C10 C12 1.500 . S
C11 C6 1.390 . S
C11 C10 1.361 . S
C11 H29 0.931 . S
C12 C10 1.500 . S
C12 C13 1.370 1_455 S
C12 C14 1.365 1_455 S
C13 C12 1.370 1_655 S
C13 C23 1.391 . S
C13 H31 0.899 1_645 S
C14 C12 1.365 1_655 S
C14 C15 1.409 . S
C14 H32 0.929 1_655 S
C15 C14 1.409 . S
C15 C16 1.380 . S
C15 H33 0.930 . S
C16 C15 1.380 . S
C16 C23 1.357 . S
C17 C8 1.511 . S
C17 C18 1.341 . S
C17 C19 1.371 1_545 S
C18 C17 1.341 . S
C18 C22 1.394 1_544 S
C18 H34 0.930 1_554 S
C19 C17 1.371 1_565 S
C19 C20 1.392 . S
C19 H35 0.931 . S
C20 C19 1.392 . S
C20 C21 1.331 . S
C20 H38 0.932 . S
C21 C20 1.331 . S
C21 C22 1.336 1_554 S
C22 C18 1.394 1_566 S
C22 C21 1.336 1_556 S
C22 H37 0.929 . S
C23 C13 1.391 . S
C23 C16 1.357 . S
C23 H36 0.928 1_545 S
H24 C0 0.931 . S
H25 C2 0.930 . S
H26 C4 0.929 . S
H27 C5 0.929 . S
H28 C7 0.930 1_556 S
H29 C11 0.931 . S
H30 C9 0.931 . S
H31 C13 0.899 1_465 S
H32 C14 0.929 1_455 S
H33 C15 0.930 . S
H34 C18 0.930 1_556 S
H35 C19 0.931 . S
H36 C23 0.928 1_565 S
H37 C22 0.929 . S
H38 C20 0.932 . S
C39 C40 1.386 . S
C39 C41 1.397 . S
C39 H63 0.931 . S
C40 C39 1.386 . S
C40 C44 1.397 . S
C41 C39 1.397 . S
C41 C42 1.384 . S
C41 H64 0.930 . S
C42 C41 1.384 . S
C42 C43 1.377 . S
C42 C45 1.481 . S
C43 C42 1.377 . S
C43 C44 1.389 . S
C43 H65 0.929 . S
C44 C40 1.397 . S
C44 C43 1.389 . S
C44 H66 0.931 . S
C45 C42 1.481 . S
C45 C46 1.387 . S
C45 C50 1.390 . S
C46 C45 1.387 . S
C46 C47 1.401 . S
C46 H67 0.930 . S
C47 C46 1.401 . S
C47 C48 1.376 . S
C47 C56 1.511 . S
C48 C47 1.376 . S
C48 C49 1.392 . S
C48 H69 0.931 . S
C49 C48 1.392 . S
C49 C50 1.361 . S
C49 C51 1.500 . S
C50 C45 1.390 . S
C50 C49 1.361 . S
C50 H68 0.931 . S
C51 C49 1.500 . S
C51 C52 1.371 . S
C51 C53 1.365 . S
C52 C51 1.371 . S
C52 C62 1.386 . S
C52 H70 0.931 . S
C53 C51 1.365 . S
C53 C54 1.409 . S
C53 H71 0.929 . S
C54 C53 1.409 . S
C54 C55 1.380 . S
C54 H72 0.930 . S
C55 C54 1.380 . S
C55 C62 1.357 . S
C56 C47 1.511 . S
C56 C57 1.341 . S
C56 C58 1.371 . S
C57 C56 1.341 . S
C57 C61 1.394 . S
C57 H73 0.930 . S
C58 C56 1.371 . S
C58 C59 1.392 . S
C58 H74 0.931 . S
C59 C58 1.392 . S
C59 C60 1.331 . S
C59 H77 0.932 . S
C60 C59 1.331 . S
C60 C61 1.336 . S
C61 C57 1.394 . S
C61 C60 1.336 . S
C61 H76 0.929 . S
C62 C52 1.386 . S
C62 C55 1.357 . S
C62 H75 0.928 . S
H63 C39 0.931 . S
H64 C41 0.930 . S
H65 C43 0.929 . S
H66 C44 0.931 . S
H67 C46 0.930 . S
H68 C50 0.931 . S
H69 C48 0.931 . S
H70 C52 0.931 . S
H71 C53 0.929 . S
H72 C54 0.930 . S
H73 C57 0.930 . S
H74 C58 0.931 . S
H75 C62 0.928 . S
H76 C61 0.929 . S
H77 C59 0.932 . S
C78 C79 1.386 . S
C78 C80 1.369 1_455 S
C78 H102 0.931 . S
C79 C78 1.386 . S
C79 C83 1.397 . S
C80 C78 1.369 1_655 S
C80 C81 1.364 1_655 S
C80 H103 0.979 . S
C81 C80 1.364 1_455 S
C81 C82 1.377 . S
C81 C84 1.481 1_455 S
C82 C81 1.377 . S
C82 C83 1.389 . S
C82 H104 0.929 . S
C83 C79 1.397 . S
C83 C82 1.389 . S
C83 H105 0.931 . S
C84 C81 1.481 1_655 S
C84 C85 1.387 . S
C84 C89 1.390 . S
C85 C84 1.387 . S
C85 C86 1.401 . S
C85 H106 0.930 . S
C86 C85 1.401 . S
C86 C87 1.376 . S
C86 C95 1.511 . S
C87 C86 1.376 . S
C87 C88 1.392 . S
C87 H108 0.931 . S
C88 C87 1.392 . S
C88 C89 1.361 . S
C88 C90 1.500 . S
C89 C84 1.390 . S
C89 C88 1.361 . S
C89 H107 0.931 1_655 S
C90 C88 1.500 . S
C90 C91 1.371 . S
C90 C92 1.365 1_655 S
C91 C90 1.371 . S
C91 C101 1.386 1_554 S
C91 H109 0.931 . S
C92 C90 1.365 1_455 S
C92 C93 1.409 1_554 S
C92 H110 0.929 . S
C93 C92 1.409 1_556 S
C93 C94 1.380 1_455 S
C93 H111 0.930 . S
C94 C93 1.380 1_655 S
C94 C101 1.357 . S
C95 C86 1.511 . S
C95 C96 1.341 . S
C95 C97 1.371 . S
C96 C95 1.341 . S
C96 C100 1.394 . S
C96 H112 0.930 . S
C97 C95 1.371 . S
C97 C98 1.392 . S
C97 H113 0.931 . S
C98 C97 1.392 . S
C98 C99 1.331 . S
C98 H116 0.933 . S
C99 C98 1.331 . S
C99 C100 1.336 . S
C100 C96 1.394 . S
C100 C99 1.336 . S
C100 H115 0.929 . S
C101 C91 1.386 1_556 S
C101 C94 1.357 . S
C101 H114 0.928 . S
H102 C78 0.931 . S
H103 C80 0.979 . S
H104 C82 0.929 . S
H105 C83 0.931 . S
H106 C85 0.930 . S
H107 C89 0.931 1_455 S
H108 C87 0.931 . S
H109 C91 0.931 . S
H110 C92 0.929 . S
H111 C93 0.930 . S
H112 C96 0.930 . S
H113 C97 0.931 . S
H114 C101 0.928 . S
H115 C100 0.929 . S
H116 C98 0.933 . S
C117 C118 1.386 . S
C117 C119 1.397 . S
C117 H141 0.931 . S
C118 C117 1.386 . S
C118 C122 1.397 . S
C119 C117 1.397 . S
C119 C120 1.384 . S
C119 H142 0.930 . S
C120 C119 1.384 . S
C120 C121 1.377 . S
C120 C123 1.481 . S
C121 C120 1.377 . S
C121 C122 1.389 . S
C121 H143 0.929 . S
C122 C118 1.397 . S
C122 C121 1.389 . S
C122 H144 0.931 . S
C123 C120 1.481 . S
C123 C124 1.387 . S
C123 C128 1.390 . S
C124 C123 1.387 . S
C124 C125 1.401 . S
C124 H145 0.930 . S
C125 C124 1.401 . S
C125 C126 1.376 . S
C125 C134 1.511 . S
C126 C125 1.376 . S
C126 C127 1.392 . S
C126 H147 0.931 . S
C127 C126 1.392 . S
C127 C128 1.361 . S
C127 C129 1.500 . S
C128 C123 1.390 . S
C128 C127 1.361 . S
C128 H146 0.931 . S
C129 C127 1.500 . S
C129 C130 1.371 . S
C129 C131 1.365 . S
C130 C129 1.371 . S
C130 C140 1.386 . S
C130 H148 0.931 . S
C131 C129 1.365 . S
C131 C132 1.409 . S
C131 H149 0.929 . S
C132 C131 1.409 . S
C132 C133 1.380 . S
C132 H150 0.930 . S
C133 C132 1.380 . S
C133 C140 1.357 . S
C134 C125 1.511 . S
C134 C135 1.341 . S
C134 C136 1.371 . S
C135 C134 1.341 . S
C135 C139 1.394 . S
C135 H151 0.930 . S
C136 C134 1.371 . S
C136 C137 1.392 . S
C136 H152 0.931 . S
C137 C136 1.392 . S
C137 C138 1.331 . S
C137 H155 0.932 . S
C138 C137 1.331 . S
C138 C139 1.336 . S
C139 C135 1.394 . S
C139 C138 1.336 . S
C139 H154 0.929 . S
C140 C130 1.386 . S
C140 C133 1.357 . S
C140 H153 0.928 . S
H141 C117 0.931 . S
H142 C119 0.930 . S
H143 C121 0.929 . S
H144 C122 0.931 . S
H145 C124 0.930 . S
H146 C128 0.931 . S
H147 C126 0.931 . S
H148 C130 0.931 . S
H149 C131 0.929 . S
H150 C132 0.930 . S
H151 C135 0.930 . S
H152 C136 0.931 . S
H153 C140 0.928 . S
H154 C139 0.929 . S
H155 C137 0.932 . S
C156 C157 1.386 . S
C156 C158 1.408 . S
C156 H180 0.931 . S
C157 C156 1.386 . S
C157 C161 1.397 1_655 S
C158 C156 1.408 . S
C158 C159 1.365 1_655 S
C158 H181 0.938 . S
C159 C158 1.365 1_455 S
C159 C160 1.377 . S
C159 C162 1.481 . S
C160 C159 1.377 . S
C160 C161 1.389 . S
C160 H182 0.929 . S
C161 C157 1.397 1_455 S
C161 C160 1.389 . S
C161 H183 0.931 . S
C162 C159 1.481 . S
C162 C163 1.387 . S
C162 C167 1.390 . S
C163 C162 1.387 . S
C163 C164 1.401 . S
C163 H184 0.930 . S
C164 C163 1.401 . S
C164 C165 1.376 . S
C164 C173 1.511 . S
C165 C164 1.376 . S
C165 C166 1.392 . S
C165 H186 0.931 . S
C166 C165 1.392 . S
C166 C167 1.361 . S
C166 C168 1.500 1_565 S
C167 C162 1.390 . S
C167 C166 1.361 . S
C167 H185 0.931 1_565 S
C168 C166 1.500 1_545 S
C168 C169 1.371 . S
C168 C170 1.365 . S
C169 C168 1.371 . S
C169 C179 1.386 . S
C169 H187 0.921 1_545 S
C170 C168 1.365 . S
C170 C171 1.409 . S
C170 H188 0.929 . S
C171 C170 1.409 . S
C171 C172 1.380 . S
C171 H189 0.930 . S
C172 C171 1.380 . S
C172 C179 1.357 . S
C173 C164 1.511 . S
C173 C174 1.341 . S
C173 C175 1.371 . S
C174 C173 1.341 . S
C174 C178 1.394 . S
C174 H190 0.930 . S
C175 C173 1.371 . S
C175 C176 1.392 . S
C175 H191 0.931 . S
C176 C175 1.392 . S
C176 C177 1.331 . S
C176 H194 0.932 . S
C177 C176 1.331 . S
C177 C178 1.336 . S
C178 C174 1.394 . S
C178 C177 1.336 . S
C178 H193 0.929 . S
C179 C169 1.386 . S
C179 C172 1.357 . S
C179 H192 0.928 . S
H180 C156 0.931 . S
H181 C158 0.938 . S
H182 C160 0.929 . S
H183 C161 0.931 . S
H184 C163 0.930 . S
H185 C167 0.931 1_545 S
H186 C165 0.931 . S
H187 C169 0.921 1_565 S
H188 C170 0.929 . S
H189 C171 0.930 . S
H190 C174 0.930 . S
H191 C175 0.931 . S
H192 C179 0.928 . S
H193 C178 0.929 . S
H194 C176 0.932 . S
C195 C196 1.386 . S
C195 C197 1.397 . S
C195 H219 0.931 . S
C196 C195 1.386 . S
C196 C200 1.397 . S
C197 C195 1.397 . S
C197 C198 1.384 . S
C197 H220 0.930 . S
C198 C197 1.384 . S
C198 C199 1.377 . S
C198 C201 1.481 . S
C199 C198 1.377 . S
C199 C200 1.389 . S
C199 H221 0.929 . S
C200 C196 1.397 . S
C200 C199 1.389 . S
C200 H222 0.931 . S
C201 C198 1.481 . S
C201 C202 1.387 . S
C201 C206 1.390 . S
C202 C201 1.387 . S
C202 C203 1.401 . S
C202 H223 0.930 . S
C203 C202 1.401 . S
C203 C204 1.376 . S
C203 C212 1.511 . S
C204 C203 1.376 . S
C204 C205 1.392 . S
C204 H225 0.931 . S
C205 C204 1.392 . S
C205 C206 1.361 . S
C205 C207 1.500 . S
C206 C201 1.390 . S
C206 C205 1.361 . S
C206 H224 0.931 . S
C207 C205 1.500 . S
C207 C208 1.371 . S
C207 C209 1.365 . S
C208 C207 1.371 . S
C208 C218 1.386 . S
C208 H226 0.931 . S
C209 C207 1.365 . S
C209 C210 1.409 . S
C209 H227 0.929 . S
C210 C209 1.409 . S
C210 C211 1.380 . S
C210 H228 0.930 . S
C211 C210 1.380 . S
C211 C218 1.357 . S
C212 C203 1.511 . S
C212 C213 1.341 . S
C212 C214 1.371 . S
C213 C212 1.341 . S
C213 C217 1.394 . S
C213 H229 0.930 . S
C214 C212 1.371 . S
C214 C215 1.392 . S
C214 H230 0.931 . S
C215 C214 1.392 . S
C215 C216 1.331 . S
C215 H233 0.932 . S
C216 C215 1.331 . S
C216 C217 1.336 . S
C217 C213 1.394 . S
C217 C216 1.336 . S
C217 H232 0.929 . S
C218 C208 1.386 . S
C218 C211 1.357 . S
C218 H231 0.928 . S
H219 C195 0.931 . S
H220 C197 0.930 . S
H221 C199 0.929 . S
H222 C200 0.931 . S
H223 C202 0.930 . S
H224 C206 0.931 . S
H225 C204 0.931 . S
H226 C208 0.931 . S
H227 C209 0.929 . S
H228 C210 0.930 . S
H229 C213 0.930 . S
H230 C214 0.931 . S
H231 C218 0.928 . S
H232 C217 0.929 . S
H233 C215 0.932 . S
C234 C235 1.386 . S
C234 C236 1.397 . S
C234 H258 0.931 . S
C235 C234 1.386 . S
C235 C239 1.397 . S
C236 C234 1.397 . S
C236 C237 1.384 . S
C236 H259 0.930 . S
C237 C236 1.384 . S
C237 C238 1.377 . S
C237 C240 1.481 . S
C238 C237 1.377 . S
C238 C239 1.389 . S
C238 H260 0.929 . S
C239 C235 1.397 . S
C239 C238 1.389 . S
C239 H261 0.931 . S
C240 C237 1.481 . S
C240 C241 1.387 . S
C240 C245 1.390 . S
C241 C240 1.387 . S
C241 C242 1.401 . S
C241 H262 0.930 . S
C242 C241 1.401 . S
C242 C243 1.376 . S
C242 C251 1.511 . S
C243 C242 1.376 . S
C243 C244 1.392 . S
C243 H264 0.931 . S
C244 C243 1.392 . S
C244 C245 1.361 . S
C244 C246 1.500 . S
C245 C240 1.390 . S
C245 C244 1.361 . S
C245 H263 0.931 . S
C246 C244 1.500 . S
C246 C247 1.371 . S
C246 C248 1.365 . S
C247 C246 1.371 . S
C247 C257 1.386 . S
C247 H265 0.931 . S
C248 C246 1.365 . S
C248 C249 1.409 . S
C248 H266 0.929 . S
C249 C248 1.409 . S
C249 C250 1.380 . S
C249 H267 0.930 . S
C250 C249 1.380 . S
C250 C257 1.357 . S
C251 C242 1.511 . S
C251 C252 1.341 1_655 S
C251 C253 1.371 . S
C252 C251 1.341 1_455 S
C252 C256 1.394 . S
C252 H268 0.930 . S
C253 C251 1.371 . S
C253 C254 1.392 1_655 S
C253 H269 0.931 . S
C254 C253 1.392 1_455 S
C254 C255 1.331 . S
C254 H272 0.932 . S
C255 C254 1.331 . S
C255 C256 1.336 . S
C256 C252 1.394 . S
C256 C255 1.336 . S
C256 H271 0.929 . S
C257 C247 1.386 . S
C257 C250 1.357 . S
C257 H270 0.928 . S
H258 C234 0.931 . S
H259 C236 0.930 . S
H260 C238 0.929 . S
H261 C239 0.931 . S
H262 C241 0.930 . S
H263 C245 0.931 . S
H264 C243 0.931 . S
H265 C247 0.931 . S
H266 C248 0.929 . S
H267 C249 0.930 . S
H268 C252 0.930 . S
H269 C253 0.931 . S
H270 C257 0.928 . S
H271 C256 0.929 . S
H272 C254 0.932 . S
C273 C274 1.386 . S
C273 C275 1.397 . S
C273 H297 0.931 . S
C274 C273 1.386 . S
C274 C278 1.397 . S
C275 C273 1.397 . S
C275 C276 1.384 . S
C275 H298 0.930 . S
C276 C275 1.384 . S
C276 C277 1.377 . S
C276 C279 1.481 . S
C277 C276 1.377 . S
C277 C278 1.389 . S
C277 H299 0.929 . S
C278 C274 1.397 . S
C278 C277 1.389 . S
C278 H300 0.931 . S
C279 C276 1.481 . S
C279 C280 1.387 . S
C279 C284 1.390 . S
C280 C279 1.387 . S
C280 C281 1.401 . S
C280 H301 0.930 . S
C281 C280 1.401 . S
C281 C282 1.376 . S
C281 C290 1.511 . S
C282 C281 1.376 . S
C282 C283 1.392 . S
C282 H303 0.931 . S
C283 C282 1.392 . S
C283 C284 1.361 . S
C283 C285 1.500 . S
C284 C279 1.390 . S
C284 C283 1.361 . S
C284 H302 0.931 . S
C285 C283 1.500 . S
C285 C286 1.371 . S
C285 C287 1.365 . S
C286 C285 1.371 . S
C286 C296 1.386 . S
C286 H304 0.931 . S
C287 C285 1.365 . S
C287 C288 1.409 . S
C287 H305 0.929 . S
C288 C287 1.409 . S
C288 C289 1.380 . S
C288 H306 0.930 . S
C289 C288 1.380 . S
C289 C296 1.357 . S
C290 C281 1.511 . S
C290 C291 1.341 . S
C290 C292 1.371 . S
C291 C290 1.341 . S
C291 C295 1.394 . S
C291 H307 0.930 . S
C292 C290 1.371 . S
C292 C293 1.392 . S
C292 H308 0.931 . S
C293 C292 1.392 . S
C293 C294 1.331 . S
C293 H311 0.932 . S
C294 C293 1.331 . S
C294 C295 1.336 . S
C295 C291 1.394 . S
C295 C294 1.336 . S
C295 H310 0.929 . S
C296 C286 1.386 . S
C296 C289 1.357 . S
C296 H309 0.928 . S
H297 C273 0.931 . S
H298 C275 0.930 . S
H299 C277 0.929 . S
H300 C278 0.931 . S
H301 C280 0.930 . S
H302 C284 0.931 . S
H303 C282 0.931 . S
H304 C286 0.931 . S
H305 C287 0.929 . S
H306 C288 0.930 . S
H307 C291 0.930 . S
H308 C292 0.931 . S
H309 C296 0.928 . S
H310 C295 0.929 . S
H311 C293 0.932 . S
C312 C313 1.386 . S
C312 C314 1.397 . S
C312 H336 0.931 . S
C313 C312 1.386 . S
C313 C317 1.397 . S
C314 C312 1.397 . S
C314 C315 1.384 . S
C314 H337 0.930 . S
C315 C314 1.384 . S
C315 C316 1.377 . S
C315 C318 1.481 . S
C316 C315 1.377 . S
C316 C317 1.389 . S
C316 H338 0.929 . S
C317 C313 1.397 . S
C317 C316 1.389 . S
C317 H339 0.931 . S
C318 C315 1.481 . S
C318 C319 1.387 . S
C318 C323 1.390 . S
C319 C318 1.387 . S
C319 C320 1.401 . S
C319 H340 0.930 . S
C320 C319 1.401 . S
C320 C321 1.376 . S
C320 C329 1.511 . S
C321 C320 1.376 . S
C321 C322 1.392 . S
C321 H342 0.931 . S
C322 C321 1.392 . S
C322 C323 1.361 . S
C322 C324 1.500 . S
C323 C318 1.390 . S
C323 C322 1.361 . S
C323 H341 0.931 . S
C324 C322 1.500 . S
C324 C325 1.371 . S
C324 C326 1.365 . S
C325 C324 1.371 . S
C325 C335 1.386 . S
C325 H343 0.931 . S
C326 C324 1.365 . S
C326 C327 1.409 . S
C326 H344 0.929 . S
C327 C326 1.409 . S
C327 C328 1.380 . S
C327 H345 0.930 . S
C328 C327 1.380 . S
C328 C335 1.357 . S
C329 C320 1.511 . S
C329 C330 1.341 . S
C329 C331 1.371 . S
C330 C329 1.341 . S
C330 C334 1.394 . S
C330 H346 0.930 . S
C331 C329 1.371 . S
C331 C332 1.392 . S
C331 H347 0.931 . S
C332 C331 1.392 . S
C332 C333 1.331 . S
C332 H350 0.932 . S
C333 C332 1.331 . S
C333 C334 1.336 . S
C334 C330 1.394 . S
C334 C333 1.336 . S
C334 H349 0.929 . S
C335 C325 1.386 . S
C335 C328 1.357 . S
C335 H348 0.928 . S
H336 C312 0.931 . S
H337 C314 0.930 . S
H338 C316 0.929 . S
H339 C317 0.931 . S
H340 C319 0.930 . S
H341 C323 0.931 . S
H342 C321 0.931 . S
H343 C325 0.931 . S
H344 C326 0.929 . S
H345 C327 0.930 . S
H346 C330 0.930 . S
H347 C331 0.931 . S
H348 C335 0.928 . S
H349 C334 0.929 . S
H350 C332 0.932 . S
C351 C352 1.386 . S
C351 C353 1.397 . S
C351 H375 0.931 . S
C352 C351 1.386 . S
C352 C356 1.397 . S
C353 C351 1.397 . S
C353 C354 1.384 . S
C353 H376 0.930 . S
C354 C353 1.384 . S
C354 C355 1.377 . S
C354 C357 1.481 . S
C355 C354 1.377 . S
C355 C356 1.389 . S
C355 H377 0.929 . S
C356 C352 1.397 . S
C356 C355 1.389 . S
C356 H378 0.931 . S
C357 C354 1.481 . S
C357 C358 1.387 . S
C357 C362 1.390 . S
C358 C357 1.387 . S
C358 C359 1.401 . S
C358 H379 0.930 . S
C359 C358 1.401 . S
C359 C360 1.376 . S
C359 C368 1.511 . S
C360 C359 1.376 . S
C360 C361 1.392 . S
C360 H381 0.931 . S
C361 C360 1.392 . S
C361 C362 1.361 . S
C361 C363 1.500 . S
C362 C357 1.390 . S
C362 C361 1.361 . S
C362 H380 0.931 . S
C363 C361 1.500 . S
C363 C364 1.371 . S
C363 C365 1.365 . S
C364 C363 1.371 . S
C364 C374 1.386 . S
C364 H382 0.931 . S
C365 C363 1.365 . S
C365 C366 1.409 . S
C365 H383 0.929 . S
C366 C365 1.409 . S
C366 C367 1.380 . S
C366 H384 0.930 . S
C367 C366 1.380 . S
C367 C374 1.357 . S
C368 C359 1.511 . S
C368 C369 1.341 1_565 S
C368 C370 1.371 . S
C369 C368 1.341 1_545 S
C369 C373 1.394 . S
C369 H385 0.930 . S
C370 C368 1.371 . S
C370 C371 1.392 1_565 S
C370 H386 0.931 . S
C371 C370 1.392 1_545 S
C371 C372 1.331 . S
C371 H389 0.932 . S
C372 C371 1.331 . S
C372 C373 1.336 . S
C373 C369 1.394 . S
C373 C372 1.336 . S
C373 H388 0.929 . S
C374 C364 1.386 . S
C374 C367 1.357 . S
C374 H387 0.928 . S
H375 C351 0.931 . S
H376 C353 0.930 . S
H377 C355 0.929 . S
H378 C356 0.931 . S
H379 C358 0.930 . S
H380 C362 0.931 . S
H381 C360 0.931 . S
H382 C364 0.931 . S
H383 C365 0.929 . S
H384 C366 0.930 . S
H385 C369 0.930 . S
H386 C370 0.931 . S
H387 C374 0.928 . S
H388 C373 0.929 . S
H389 C371 0.932 . S
C390 C391 1.386 . S
C390 C392 1.397 . S
C390 H414 0.931 . S
C391 C390 1.386 . S
C391 C395 1.397 . S
C392 C390 1.397 . S
C392 C393 1.384 . S
C392 H415 0.930 . S
C393 C392 1.384 . S
C393 C394 1.377 . S
C393 C396 1.481 . S
C394 C393 1.377 . S
C394 C395 1.389 . S
C394 H416 0.929 . S
C395 C391 1.397 . S
C395 C394 1.389 . S
C395 H417 0.931 . S
C396 C393 1.481 . S
C396 C397 1.387 . S
C396 C401 1.390 . S
C397 C396 1.387 . S
C397 C398 1.401 . S
C397 H418 0.930 . S
C398 C397 1.401 . S
C398 C399 1.376 . S
C398 C407 1.511 . S
C399 C398 1.376 . S
C399 C400 1.392 . S
C399 H420 0.931 . S
C400 C399 1.392 . S
C400 C401 1.361 . S
C400 C402 1.500 . S
C401 C396 1.390 . S
C401 C400 1.361 . S
C401 H419 0.931 . S
C402 C400 1.500 . S
C402 C403 1.371 . S
C402 C404 1.365 . S
C403 C402 1.371 . S
C403 C413 1.386 . S
C403 H421 0.931 . S
C404 C402 1.365 . S
C404 C405 1.409 . S
C404 H422 0.929 . S
C405 C404 1.409 . S
C405 C406 1.380 . S
C405 H423 0.930 . S
C406 C405 1.380 . S
C406 C413 1.357 . S
C407 C398 1.511 . S
C407 C408 1.341 . S
C407 C409 1.371 . S
C408 C407 1.341 . S
C408 C412 1.394 . S
C408 H424 0.930 . S
C409 C407 1.371 . S
C409 C410 1.392 . S
C409 H425 0.931 . S
C410 C409 1.392 . S
C410 C411 1.331 . S
C410 H428 0.932 . S
C411 C410 1.331 . S
C411 C412 1.336 . S
C412 C408 1.394 . S
C412 C411 1.336 . S
C412 H427 0.929 . S
C413 C403 1.386 . S
C413 C406 1.357 . S
C413 H426 0.928 . S
H414 C390 0.931 . S
H415 C392 0.930 . S
H416 C394 0.929 . S
H417 C395 0.931 . S
H418 C397 0.930 . S
H419 C401 0.931 . S
H420 C399 0.931 . S
H421 C403 0.931 . S
H422 C404 0.929 . S
H423 C405 0.930 . S
H424 C408 0.930 . S
H425 C409 0.931 . S
H426 C413 0.928 . S
H427 C412 0.929 . S
H428 C410 0.932 . S
C429 C430 1.386 . S
C429 C431 1.397 . S
C429 H453 0.931 . S
C430 C429 1.386 . S
C430 C434 1.397 . S
C431 C429 1.397 . S
C431 C432 1.384 . S
C431 H454 0.930 . S
C432 C431 1.384 . S
C432 C433 1.377 . S
C432 C435 1.481 . S
C433 C432 1.377 . S
C433 C434 1.389 . S
C433 H455 0.929 . S
C434 C430 1.397 . S
C434 C433 1.389 . S
C434 H456 0.931 . S
C435 C432 1.481 . S
C435 C436 1.387 . S
C435 C440 1.390 . S
C436 C435 1.387 . S
C436 C437 1.401 . S
C436 H457 0.930 . S
C437 C436 1.401 . S
C437 C438 1.376 . S
C437 C446 1.511 . S
C438 C437 1.376 . S
C438 C439 1.392 . S
C438 H459 0.931 . S
C439 C438 1.392 . S
C439 C440 1.361 . S
C439 C441 1.500 . S
C440 C435 1.390 . S
C440 C439 1.361 . S
C440 H458 0.931 . S
C441 C439 1.500 . S
C441 C442 1.371 . S
C441 C443 1.365 . S
C442 C441 1.371 . S
C442 C452 1.386 . S
C442 H460 0.931 . S
C443 C441 1.365 . S
C443 C444 1.409 . S
C443 H461 0.929 . S
C444 C443 1.409 . S
C444 C445 1.380 . S
C444 H462 0.930 . S
C445 C444 1.380 . S
C445 C452 1.357 . S
C446 C437 1.511 . S
C446 C447 1.341 . S
C446 C448 1.371 . S
C447 C446 1.341 . S
C447 C451 1.394 . S
C447 H463 0.930 . S
C448 C446 1.371 . S
C448 C449 1.392 . S
C448 H464 0.931 . S
C449 C448 1.392 . S
C449 C450 1.331 . S
C449 H467 0.932 . S
C450 C449 1.331 . S
C450 C451 1.336 . S
C451 C447 1.394 . S
C451 C450 1.336 . S
C451 H466 0.929 . S
C452 C442 1.386 . S
C452 C445 1.357 . S
C452 H465 0.928 . S
H453 C429 0.931 . S
H454 C431 0.930 . S
H455 C433 0.929 . S
H456 C434 0.931 . S
H457 C436 0.930 . S
H458 C440 0.931 . S
H459 C438 0.931 . S
H460 C442 0.931 . S
H461 C443 0.929 . S
H462 C444 0.930 . S
H463 C447 0.930 . S
H464 C448 0.931 . S
H465 C452 0.928 . S
H466 C451 0.929 . S
H467 C449 0.932 . S
C468 C469 1.386 . S
C468 C470 1.397 . S
C468 H492 0.931 . S
C469 C468 1.386 . S
C469 C473 1.397 . S
C470 C468 1.397 . S
C470 C471 1.384 . S
C470 H493 0.930 . S
C471 C470 1.384 . S
C471 C472 1.377 . S
C471 C474 1.481 . S
C472 C471 1.377 . S
C472 C473 1.389 . S
C472 H494 0.929 . S
C473 C469 1.397 . S
C473 C472 1.389 . S
C473 H495 0.931 . S
C474 C471 1.481 . S
C474 C475 1.387 . S
C474 C479 1.390 . S
C475 C474 1.387 . S
C475 C476 1.401 . S
C475 H496 0.930 . S
C476 C475 1.401 . S
C476 C477 1.376 . S
C476 C485 1.511 . S
C477 C476 1.376 . S
C477 C478 1.392 . S
C477 H498 0.931 . S
C478 C477 1.392 . S
C478 C479 1.361 . S
C478 C480 1.500 . S
C479 C474 1.390 . S
C479 C478 1.361 . S
C479 H497 0.931 . S
C480 C478 1.500 . S
C480 C481 1.371 . S
C480 C482 1.365 . S
C481 C480 1.371 . S
C481 C491 1.386 . S
C481 H499 0.931 . S
C482 C480 1.365 . S
C482 C483 1.409 . S
C482 H500 0.929 . S
C483 C482 1.409 . S
C483 C484 1.380 . S
C483 H501 0.930 . S
C484 C483 1.380 . S
C484 C491 1.357 . S
C485 C476 1.511 . S
C485 C486 1.341 . S
C485 C487 1.371 . S
C486 C485 1.341 . S
C486 C490 1.394 . S
C486 H502 0.930 . S
C487 C485 1.371 . S
C487 C488 1.392 . S
C487 H503 0.931 . S
C488 C487 1.392 . S
C488 C489 1.331 . S
C488 H506 0.932 . S
C489 C488 1.331 . S
C489 C490 1.336 . S
C490 C486 1.394 . S
C490 C489 1.336 . S
C490 H505 0.929 . S
C491 C481 1.386 . S
C491 C484 1.357 . S
C491 H504 0.928 . S
H492 C468 0.931 . S
H493 C470 0.930 . S
H494 C472 0.929 . S
H495 C473 0.931 . S
H496 C475 0.930 . S
H497 C479 0.931 . S
H498 C477 0.931 . S
H499 C481 0.931 . S
H500 C482 0.929 . S
H501 C483 0.930 . S
H502 C486 0.930 . S
H503 C487 0.931 . S
H504 C491 0.928 . S
H505 C490 0.929 . S
H506 C488 0.932 . S
C507 C508 1.386 . S
C507 C509 1.397 . S
C507 H531 0.931 . S
C508 C507 1.386 . S
C508 C512 1.397 . S
C509 C507 1.397 . S
C509 C510 1.384 . S
C509 H532 0.930 . S
C510 C509 1.384 . S
C510 C511 1.377 . S
C510 C513 1.481 . S
C511 C510 1.377 . S
C511 C512 1.389 . S
C511 H533 0.929 . S
C512 C508 1.397 . S
C512 C511 1.389 . S
C512 H534 0.931 . S
C513 C510 1.481 . S
C513 C514 1.387 . S
C513 C518 1.390 . S
C514 C513 1.387 . S
C514 C515 1.401 . S
C514 H535 0.930 . S
C515 C514 1.401 . S
C515 C516 1.376 . S
C515 C524 1.511 . S
C516 C515 1.376 . S
C516 C517 1.392 . S
C516 H537 0.931 . S
C517 C516 1.392 . S
C517 C518 1.361 . S
C517 C519 1.500 . S
C518 C513 1.390 . S
C518 C517 1.361 . S
C518 H536 0.931 . S
C519 C517 1.500 . S
C519 C520 1.371 . S
C519 C521 1.365 . S
C520 C519 1.371 . S
C520 C530 1.386 . S
C520 H538 0.931 1_556 S
C521 C519 1.365 . S
C521 C522 1.409 . S
C521 H539 0.929 . S
C522 C521 1.409 . S
C522 C523 1.380 . S
C522 H540 0.930 . S
C523 C522 1.380 . S
C523 C530 1.357 . S
C524 C515 1.511 . S
C524 C525 1.341 . S
C524 C526 1.371 1_556 S
C525 C524 1.341 . S
C525 C529 1.394 1_556 S
C525 H541 0.930 . S
C526 C524 1.371 1_554 S
C526 C527 1.392 . S
C526 H542 0.931 . S
C527 C526 1.392 . S
C527 C528 1.331 . S
C527 H545 0.932 . S
C528 C527 1.331 . S
C528 C529 1.336 . S
C529 C525 1.394 1_554 S
C529 C528 1.336 . S
C529 H544 0.929 . S
C530 C520 1.386 . S
C530 C523 1.357 . S
C530 H543 0.928 1_556 S
H531 C507 0.931 . S
H532 C509 0.930 . S
H533 C511 0.929 . S
H534 C512 0.931 . S
H535 C514 0.930 . S
H536 C518 0.931 . S
H537 C516 0.931 . S
H538 C520 0.931 1_554 S
H539 C521 0.929 . S
H540 C522 0.930 . S
H541 C525 0.930 . S
H542 C526 0.931 . S
H543 C530 0.928 1_554 S
H544 C529 0.929 . S
H545 C527 0.932 . S
C546 C547 1.386 . S
C546 C548 1.397 . S
C546 H570 0.931 . S
C547 C546 1.386 . S
C547 C551 1.397 . S
C548 C546 1.397 . S
C548 C549 1.384 . S
C548 H571 0.930 . S
C549 C548 1.384 . S
C549 C550 1.377 . S
C549 C552 1.481 . S
C550 C549 1.377 . S
C550 C551 1.389 . S
C550 H572 0.929 . S
C551 C547 1.397 . S
C551 C550 1.389 . S
C551 H573 0.931 . S
C552 C549 1.481 . S
C552 C553 1.387 . S
C552 C557 1.390 . S
C553 C552 1.387 . S
C553 C554 1.401 . S
C553 H574 0.930 . S
C554 C553 1.401 . S
C554 C555 1.376 . S
C554 C563 1.511 . S
C555 C554 1.376 . S
C555 C556 1.392 . S
C555 H576 0.931 . S
C556 C555 1.392 . S
C556 C557 1.361 . S
C556 C558 1.500 . S
C557 C552 1.390 . S
C557 C556 1.361 . S
C557 H575 0.931 . S
C558 C556 1.500 . S
C558 C559 1.371 . S
C558 C560 1.365 . S
C559 C558 1.371 . S
C559 C569 1.386 . S
C559 H577 0.931 . S
C560 C558 1.365 . S
C560 C561 1.409 . S
C560 H578 0.929 . S
C561 C560 1.409 . S
C561 C562 1.380 . S
C561 H579 0.930 . S
C562 C561 1.380 . S
C562 C569 1.357 . S
C563 C554 1.511 . S
C563 C564 1.341 . S
C563 C565 1.371 . S
C564 C563 1.341 . S
C564 C568 1.394 . S
C564 H580 0.930 . S
C565 C563 1.371 . S
C565 C566 1.392 . S
C565 H581 0.931 . S
C566 C565 1.392 . S
C566 C567 1.331 . S
C566 H584 0.932 . S
C567 C566 1.331 . S
C567 C568 1.336 . S
C568 C564 1.394 . S
C568 C567 1.336 . S
C568 H583 0.929 . S
C569 C559 1.386 . S
C569 C562 1.357 . S
C569 H582 0.928 . S
H570 C546 0.931 . S
H571 C548 0.930 . S
H572 C550 0.929 . S
H573 C551 0.931 . S
H574 C553 0.930 . S
H575 C557 0.931 . S
H576 C555 0.931 . S
H577 C559 0.931 . S
H578 C560 0.929 . S
H579 C561 0.930 . S
H580 C564 0.930 . S
H581 C565 0.931 . S
H582 C569 0.928 . S
H583 C568 0.929 . S
H584 C566 0.932 . S
C585 C586 1.386 . S
C585 C587 1.397 1_554 S
C585 H609 0.931 1_554 S
C586 C585 1.386 . S
C586 C590 1.397 . S
C587 C585 1.397 1_556 S
C587 C588 1.399 . S
C587 H610 0.930 . S
C588 C587 1.399 . S
C588 C589 1.342 1_556 S
C588 C591 1.502 . S
C589 C588 1.342 1_554 S
C589 C590 1.389 . S
C589 H611 0.929 . S
C590 C586 1.397 . S
C590 C589 1.389 . S
C590 H612 0.931 . S
C591 C588 1.502 . S
C591 C592 1.387 . S
C591 C596 1.390 . S
C592 C591 1.387 . S
C592 C593 1.401 . S
C592 H613 0.930 . S
C593 C592 1.401 . S
C593 C594 1.376 . S
C593 C602 1.511 . S
C594 C593 1.376 . S
C594 C595 1.392 . S
C594 H615 0.931 . S
C595 C594 1.392 . S
C595 C596 1.361 . S
C595 C597 1.500 . S
C596 C591 1.390 . S
C596 C595 1.361 . S
C596 H614 0.931 . S
C597 C595 1.500 . S
C597 C598 1.371 1_545 S
C597 C599 1.412 1_545 S
C598 C597 1.371 1_565 S
C598 C608 1.386 . S
C598 H616 0.931 . S
C599 C597 1.412 1_565 S
C599 C600 1.400 1_556 S
C599 H617 0.892 1_566 S
C600 C599 1.400 1_554 S
C600 C601 1.380 1_554 S
C600 H618 0.930 . S
C601 C600 1.380 1_556 S
C601 C608 1.357 . S
C602 C593 1.511 . S
C602 C603 1.341 . S
C602 C604 1.371 . S
C603 C602 1.341 . S
C603 C607 1.394 . S
C603 H619 0.930 . S
C604 C602 1.371 . S
C604 C605 1.400 . S
C604 H620 0.931 1_545 S
C605 C604 1.400 . S
C605 C606 1.358 . S
C605 H623 0.897 1_545 S
C606 C605 1.358 . S
C606 C607 1.336 . S
C607 C603 1.394 . S
C607 C606 1.336 . S
C607 H622 0.929 . S
C608 C598 1.386 . S
C608 C601 1.357 . S
C608 H621 0.928 . S
H609 C585 0.931 1_556 S
H610 C587 0.930 . S
H611 C589 0.929 . S
H612 C590 0.931 . S
H613 C592 0.930 . S
H614 C596 0.931 . S
H615 C594 0.931 . S
H616 C598 0.931 . S
H617 C599 0.892 1_544 S
H618 C600 0.930 . S
H619 C603 0.930 . S
H620 C604 0.931 1_565 S
H621 C608 0.928 . S
H622 C607 0.929 . S
H623 C605 0.897 1_565 S
Mg624 O625 2.032 . S
Mg624 O631 1.986 1_554 S
Mg624 O633 2.114 . S
Mg624 O634 2.251 . S
Mg624 O637 2.010 . S
O625 Mg624 2.032 . S
O625 C628 1.247 1_554 S
O626 Mg627 2.028 . S
O626 C628 1.248 . S
Mg627 O626 2.028 . S
Mg627 O632 2.032 . S
Mg627 O634 2.079 1_556 S
C628 O625 1.247 1_556 S
C628 O626 1.248 . S
C629 O630 1.264 . S
C629 O637 1.249 . S
O630 C629 1.264 . S
O631 Mg624 1.986 1_556 S
O631 C635 1.246 . S
O632 Mg627 2.032 . S
O632 C635 1.259 . S
O633 Mg624 2.114 . S
O633 C636 1.252 . S
O634 Mg624 2.251 . S
O634 Mg627 2.079 1_554 S
O634 C636 1.273 . S
C635 O631 1.246 . S
C635 O632 1.259 . S
C636 O633 1.252 . S
C636 O634 1.273 . S
O637 Mg624 2.010 . S
O637 C629 1.249 . S
Mg638 O639 2.028 . S
Mg638 O645 1.986 . S
Mg638 O647 2.114 . S
Mg638 O648 2.251 . S
Mg638 O651 2.010 . S
O639 Mg638 2.028 . S
O639 C642 1.250 . S
O640 Mg641 2.028 . S
O640 C642 1.248 . S
Mg641 O640 2.028 . S
Mg641 O646 2.032 . S
Mg641 O648 2.079 . S
C642 O639 1.250 . S
C642 O640 1.248 . S
C643 O644 1.264 . S
C643 O651 1.249 . S
O644 C643 1.264 . S
O645 Mg638 1.986 . S
O645 C649 1.246 . S
O646 Mg641 2.032 . S
O646 C649 1.259 . S
O647 Mg638 2.114 . S
O647 C650 1.252 . S
O648 Mg638 2.251 . S
O648 Mg641 2.079 . S
O648 C650 1.273 . S
C649 O645 1.246 . S
C649 O646 1.259 . S
C650 O647 1.252 . S
C650 O648 1.273 . S
O651 Mg638 2.010 . S
O651 C643 1.249 . S
Mg652 O653 2.028 . S
Mg652 O659 1.986 1_554 S
Mg652 O661 2.114 . S
Mg652 O662 2.251 . S
Mg652 O665 2.010 . S
O653 Mg652 2.028 . S
O653 C656 1.251 . S
O654 Mg655 2.028 . S
O654 C656 1.247 1_556 S
Mg655 O654 2.028 . S
Mg655 O660 2.032 . S
Mg655 O662 2.079 1_556 S
C656 O653 1.251 . S
C656 O654 1.247 1_554 S
C657 O658 1.264 . S
C657 O665 1.249 . S
O658 C657 1.264 . S
O659 Mg652 1.986 1_556 S
O659 C663 1.246 . S
O660 Mg655 2.032 . S
O660 C663 1.259 . S
O661 Mg652 2.114 . S
O661 C664 1.252 . S
O662 Mg652 2.251 . S
O662 Mg655 2.079 1_554 S
O662 C664 1.273 . S
C663 O659 1.246 . S
C663 O660 1.259 . S
C664 O661 1.252 . S
C664 O662 1.273 . S
O665 Mg652 2.010 . S
O665 C657 1.249 . S
Mg666 O667 2.028 . S
Mg666 O673 1.986 . S
Mg666 O675 2.114 . S
Mg666 O676 2.251 . S
Mg666 O679 2.010 . S
O667 Mg666 2.028 . S
O667 C670 1.250 1_545 S
O668 Mg669 2.028 . S
O668 C670 1.248 . S
Mg669 O668 2.028 . S
Mg669 O674 2.032 . S
Mg669 O676 2.079 1_565 S
C670 O667 1.250 1_565 S
C670 O668 1.248 . S
C671 O672 1.264 . S
C671 O679 1.249 . S
O672 C671 1.264 . S
O673 Mg666 1.986 . S
O673 C677 1.246 . S
O674 Mg669 2.032 . S
O674 C677 1.259 1_565 S
O675 Mg666 2.114 . S
O675 C678 1.252 . S
O676 Mg666 2.251 . S
O676 Mg669 2.079 1_545 S
O676 C678 1.273 . S
C677 O673 1.246 . S
C677 O674 1.259 1_545 S
C678 O675 1.252 . S
C678 O676 1.273 . S
O679 Mg666 2.010 . S
O679 C671 1.249 . S
Mg680 O681 2.028 . S
Mg680 O687 1.986 . S
Mg680 O689 2.114 . S
Mg680 O690 2.251 . S
Mg680 O693 2.010 . S
O681 Mg680 2.028 . S
O681 C684 1.250 . S
O682 Mg683 2.028 . S
O682 C684 1.248 . S
Mg683 O682 2.028 . S
Mg683 O688 2.032 . S
Mg683 O690 2.079 . S
C684 O681 1.250 . S
C684 O682 1.248 . S
C685 O686 1.264 . S
C685 O693 1.249 . S
O686 C685 1.264 . S
O687 Mg680 1.986 . S
O687 C691 1.246 . S
O688 Mg683 2.032 . S
O688 C691 1.259 . S
O689 Mg680 2.114 . S
O689 C692 1.252 . S
O690 Mg680 2.251 . S
O690 Mg683 2.079 . S
O690 C692 1.273 . S
C691 O687 1.246 . S
C691 O688 1.259 . S
C692 O689 1.252 . S
C692 O690 1.273 . S
O693 Mg680 2.010 . S
O693 C685 1.249 . S
Mg694 O695 2.028 . S
Mg694 O701 1.986 . S
Mg694 O703 2.114 . S
Mg694 O704 2.251 . S
Mg694 O707 2.010 . S
O695 Mg694 2.028 . S
O695 C698 1.250 . S
O696 Mg697 2.028 . S
O696 C698 1.248 . S
Mg697 O696 2.028 . S
Mg697 O702 2.032 . S
Mg697 O704 2.079 . S
C698 O695 1.250 . S
C698 O696 1.248 . S
C699 O700 1.264 . S
C699 O707 1.249 . S
O700 C699 1.264 . S
O701 Mg694 1.986 . S
O701 C705 1.246 . S
O702 Mg697 2.032 . S
O702 C705 1.259 . S
O703 Mg694 2.114 . S
O703 C706 1.252 . S
O704 Mg694 2.251 . S
O704 Mg697 2.079 . S
O704 C706 1.273 . S
C705 O701 1.246 . S
C705 O702 1.259 . S
C706 O703 1.252 . S
C706 O704 1.273 . S
O707 Mg694 2.010 . S
O707 C699 1.249 . S
Mg708 O709 2.028 . S
Mg708 O715 1.986 . S
Mg708 O717 2.114 . S
Mg708 O718 2.251 . S
Mg708 O721 2.010 . S
O709 Mg708 2.028 . S
O709 C712 1.250 . S
O710 Mg711 2.028 . S
O710 C712 1.248 . S
Mg711 O710 2.028 . S
Mg711 O716 2.032 . S
Mg711 O718 2.079 . S
C712 O709 1.250 . S
C712 O710 1.248 . S
C713 O714 1.264 . S
C713 O721 1.249 . S
O714 C713 1.264 . S
O715 Mg708 1.986 . S
O715 C719 1.246 . S
O716 Mg711 2.032 . S
O716 C719 1.259 . S
O717 Mg708 2.114 . S
O717 C720 1.252 . S
O718 Mg708 2.251 . S
O718 Mg711 2.079 . S
O718 C720 1.273 . S
C719 O715 1.246 . S
C719 O716 1.259 . S
C720 O717 1.252 . S
C720 O718 1.273 . S
O721 Mg708 2.010 . S
O721 C713 1.249 . S
Mg722 O723 2.028 1_545 S
Mg722 O729 1.986 1_545 S
Mg722 O731 2.114 . S
Mg722 O732 2.251 . S
Mg722 O735 2.010 . S
O723 Mg722 2.028 1_565 S
O723 C726 1.250 . S
O724 Mg725 2.028 . S
O724 C726 1.248 . S
Mg725 O724 2.028 . S
Mg725 O730 2.032 . S
Mg725 O732 2.079 1_565 S
C726 O723 1.250 . S
C726 O724 1.248 . S
C727 O728 1.264 . S
C727 O735 1.249 . S
O728 C727 1.264 . S
O729 Mg722 1.986 1_565 S
O729 C733 1.246 . S
O730 Mg725 2.032 . S
O730 C733 1.259 . S
O731 Mg722 2.114 . S
O731 C734 1.252 . S
O732 Mg722 2.251 . S
O732 Mg725 2.079 1_545 S
O732 C734 1.273 . S
C733 O729 1.246 . S
C733 O730 1.259 . S
C734 O731 1.252 . S
C734 O732 1.273 . S
O735 Mg722 2.010 . S
O735 C727 1.249 . S
Mg736 O737 2.028 . S
Mg736 O743 1.986 . S
Mg736 O745 2.114 . S
Mg736 O746 2.251 . S
Mg736 O749 2.010 . S
O737 Mg736 2.028 . S
O737 C740 1.250 1_455 S
O738 Mg739 2.028 . S
O738 C740 1.248 . S
Mg739 O738 2.028 . S
Mg739 O744 2.032 . S
Mg739 O746 2.079 1_655 S
C740 O737 1.250 1_655 S
C740 O738 1.248 . S
C741 O742 1.264 . S
C741 O749 1.249 . S
O742 C741 1.264 . S
O743 Mg736 1.986 . S
O743 C747 1.246 . S
O744 Mg739 2.032 . S
O744 C747 1.259 1_655 S
O745 Mg736 2.114 . S
O745 C748 1.252 . S
O746 Mg736 2.251 . S
O746 Mg739 2.079 1_455 S
O746 C748 1.273 . S
C747 O743 1.246 . S
C747 O744 1.259 1_455 S
C748 O745 1.252 . S
C748 O746 1.273 . S
O749 Mg736 2.010 . S
O749 C741 1.249 . S
Mg750 O751 2.028 . S
Mg750 O757 1.986 . S
Mg750 O759 2.114 . S
Mg750 O760 2.251 . S
Mg750 O763 2.010 . S
O751 Mg750 2.028 . S
O751 C754 1.250 . S
O752 Mg753 2.028 . S
O752 C754 1.248 . S
Mg753 O752 2.028 . S
Mg753 O758 2.032 . S
Mg753 O760 2.079 . S
C754 O751 1.250 . S
C754 O752 1.248 . S
C755 O756 1.264 . S
C755 O763 1.249 . S
O756 C755 1.264 . S
O757 Mg750 1.986 . S
O757 C761 1.246 . S
O758 Mg753 2.032 . S
O758 C761 1.259 . S
O759 Mg750 2.114 . S
O759 C762 1.252 . S
O760 Mg750 2.251 . S
O760 Mg753 2.079 . S
O760 C762 1.273 . S
C761 O757 1.246 . S
C761 O758 1.259 . S
C762 O759 1.252 . S
C762 O760 1.273 . S
O763 Mg750 2.010 . S
O763 C755 1.249 . S
Mg764 O765 2.028 1_655 S
Mg764 O771 1.986 . S
Mg764 O773 2.114 . S
Mg764 O774 2.251 1_655 S
Mg764 O777 2.010 . S
O765 Mg764 2.028 1_455 S
O765 C768 1.250 . S
O766 Mg767 2.028 . S
O766 C768 1.248 . S
Mg767 O766 2.028 . S
Mg767 O772 2.032 . S
Mg767 O774 2.079 . S
C768 O765 1.250 . S
C768 O766 1.248 . S
C769 O770 1.264 . S
C769 O777 1.249 . S
O770 C769 1.264 . S
O771 Mg764 1.986 . S
O771 C775 1.246 1_655 S
O772 Mg767 2.032 . S
O772 C775 1.259 . S
O773 Mg764 2.114 . S
O773 C776 1.252 . S
O774 Mg764 2.251 1_455 S
O774 Mg767 2.079 . S
O774 C776 1.273 1_455 S
C775 O771 1.246 1_455 S
C775 O772 1.259 . S
C776 O773 1.252 . S
C776 O774 1.273 1_655 S
O777 Mg764 2.010 . S
O777 C769 1.249 . S
Mg778 O779 2.028 . S
Mg778 O785 1.986 . S
Mg778 O787 2.114 . S
Mg778 O788 2.251 . S
Mg778 O791 2.010 . S
O779 Mg778 2.028 . S
O779 C782 1.250 . S
O780 Mg781 2.028 . S
O780 C782 1.248 . S
Mg781 O780 2.028 . S
Mg781 O786 2.032 . S
Mg781 O788 2.079 . S
C782 O779 1.250 . S
C782 O780 1.248 . S
C783 O784 1.264 . S
C783 O791 1.249 . S
O784 C783 1.264 . S
O785 Mg778 1.986 . S
O785 C789 1.246 . S
O786 Mg781 2.032 . S
O786 C789 1.259 . S
O787 Mg778 2.114 . S
O787 C790 1.252 . S
O788 Mg778 2.251 . S
O788 Mg781 2.079 . S
O788 C790 1.273 . S
C789 O785 1.246 . S
C789 O786 1.259 . S
C790 O787 1.252 . S
C790 O788 1.273 . S
O791 Mg778 2.010 . S
O791 C783 1.249 . S
H792 C798 0.930 . S
H793 C801 0.930 . S
H794 C802 0.930 . S
H795 C803 0.930 . S
H796 C806 0.930 . S
H797 C807 0.930 . S
C798 H792 0.930 . S
C798 C799 1.355 . S
C798 C800 1.415 . S
C799 C798 1.355 . S
C799 C801 1.419 . S
C800 C798 1.415 . S
C800 C805 1.425 . S
C800 C807 1.409 . S
C801 H793 0.930 . S
C801 C799 1.419 . S
C801 C802 1.362 . S
C802 H794 0.930 . S
C802 C801 1.362 . S
C802 C805 1.409 . S
C803 H795 0.930 . S
C803 C804 1.355 . S
C803 C805 1.415 . S
C804 C803 1.355 . S
C804 C806 1.419 . S
C805 C800 1.425 . S
C805 C802 1.409 . S
C805 C803 1.415 . S
C806 H796 0.930 . S
C806 C804 1.419 . S
C806 C807 1.362 . S
C807 H797 0.930 . S
C807 C800 1.409 . S
C807 C806 1.362 . S
H808 C814 0.930 . S
H809 C817 0.930 . S
H810 C818 0.930 . S
H811 C819 0.930 . S
H812 C822 0.930 . S
H813 C823 0.930 . S
C814 H808 0.930 . S
C814 C815 1.355 . S
C814 C816 1.415 . S
C815 C814 1.355 . S
C815 C817 1.419 . S
C816 C814 1.415 . S
C816 C821 1.425 . S
C816 C823 1.409 . S
C817 H809 0.930 . S
C817 C815 1.419 . S
C817 C818 1.362 . S
C818 H810 0.930 . S
C818 C817 1.362 . S
C818 C821 1.409 . S
C819 H811 0.930 . S
C819 C820 1.355 . S
C819 C821 1.415 . S
C820 C819 1.355 . S
C820 C822 1.419 . S
C821 C816 1.425 . S
C821 C818 1.409 . S
C821 C819 1.415 . S
C822 H812 0.930 . S
C822 C820 1.419 . S
C822 C823 1.362 . S
C823 H813 0.930 . S
C823 C816 1.409 . S
C823 C822 1.362 . S
H824 C830 0.930 . S
H825 C833 0.930 . S
H826 C834 0.930 . S
H827 C835 0.930 . S
H828 C838 0.930 . S
H829 C839 0.930 . S
C830 H824 0.930 . S
C830 C831 1.355 . S
C830 C832 1.415 . S
C831 C830 1.355 . S
C831 C833 1.419 . S
C832 C830 1.415 . S
C832 C837 1.425 . S
C832 C839 1.409 . S
C833 H825 0.930 . S
C833 C831 1.419 . S
C833 C834 1.362 . S
C834 H826 0.930 . S
C834 C833 1.362 . S
C834 C837 1.409 . S
C835 H827 0.930 . S
C835 C836 1.355 . S
C835 C837 1.415 . S
C836 C835 1.355 . S
C836 C838 1.419 . S
C837 C832 1.425 . S
C837 C834 1.409 . S
C837 C835 1.415 . S
C838 H828 0.930 . S
C838 C836 1.419 . S
C838 C839 1.362 . S
C839 H829 0.930 . S
C839 C832 1.409 . S
C839 C838 1.362 . S
H840 C846 0.930 . S
H841 C849 0.930 . S
H842 C850 0.930 . S
H843 C851 0.930 . S
H844 C854 0.930 . S
H845 C855 0.930 . S
C846 H840 0.930 . S
C846 C847 1.355 . S
C846 C848 1.415 . S
C847 C846 1.355 . S
C847 C849 1.419 1_565 S
C848 C846 1.415 . S
C848 C853 1.425 1_565 S
C848 C855 1.409 . S
C849 H841 0.930 . S
C849 C847 1.419 1_545 S
C849 C850 1.362 . S
C850 H842 0.930 . S
C850 C849 1.362 . S
C850 C853 1.409 . S
C851 H843 0.930 . S
C851 C852 1.355 . S
C851 C853 1.415 . S
C852 C851 1.355 . S
C852 C854 1.419 1_545 S
C853 C848 1.425 1_545 S
C853 C850 1.409 . S
C853 C851 1.415 . S
C854 H844 0.930 . S
C854 C852 1.419 1_565 S
C854 C855 1.362 . S
C855 H845 0.930 . S
C855 C848 1.409 . S
C855 C854 1.362 . S
H856 C862 0.930 . S
H857 C865 0.930 . S
H858 C866 0.930 . S
H859 C867 0.930 . S
H860 C870 0.930 . S
H861 C871 0.930 . S
C862 H856 0.930 . S
C862 C863 1.355 . S
C862 C864 1.415 . S
C863 C862 1.355 . S
C863 C865 1.419 . S
C864 C862 1.415 . S
C864 C869 1.425 . S
C864 C871 1.409 . S
C865 H857 0.930 . S
C865 C863 1.419 . S
C865 C866 1.362 . S
C866 H858 0.930 . S
C866 C865 1.362 . S
C866 C869 1.409 . S
C867 H859 0.930 . S
C867 C868 1.355 . S
C867 C869 1.415 . S
C868 C867 1.355 . S
C868 C870 1.419 . S
C869 C864 1.425 . S
C869 C866 1.409 . S
C869 C867 1.415 . S
C870 H860 0.930 . S
C870 C868 1.419 . S
C870 C871 1.362 . S
C871 H861 0.930 . S
C871 C864 1.409 . S
C871 C870 1.362 . S
H872 C878 0.930 . S
H873 C881 0.930 . S
H874 C882 0.930 . S
H875 C883 0.930 . S
H876 C886 0.930 . S
H877 C887 0.930 . S
C878 H872 0.930 . S
C878 C879 1.355 . S
C878 C880 1.415 . S
C879 C878 1.355 . S
C879 C881 1.419 . S
C880 C878 1.415 . S
C880 C885 1.425 . S
C880 C887 1.409 . S
C881 H873 0.930 . S
C881 C879 1.419 . S
C881 C882 1.362 . S
C882 H874 0.930 . S
C882 C881 1.362 . S
C882 C885 1.409 . S
C883 H875 0.930 . S
C883 C884 1.355 . S
C883 C885 1.415 . S
C884 C883 1.355 . S
C884 C886 1.419 . S
C885 C880 1.425 . S
C885 C882 1.409 . S
C885 C883 1.415 . S
C886 H876 0.930 . S
C886 C884 1.419 . S
C886 C887 1.362 . S
C887 H877 0.930 . S
C887 C880 1.409 . S
C887 C886 1.362 . S
H888 C894 0.930 . S
H889 C897 0.930 . S
H890 C898 0.930 . S
H891 C899 0.930 . S
H892 C902 0.930 . S
H893 C903 0.930 . S
C894 H888 0.930 . S
C894 C895 1.355 . S
C894 C896 1.415 . S
C895 C894 1.355 . S
C895 C897 1.419 . S
C896 C894 1.415 . S
C896 C901 1.425 . S
C896 C903 1.409 . S
C897 H889 0.930 . S
C897 C895 1.419 . S
C897 C898 1.362 . S
C898 H890 0.930 . S
C898 C897 1.362 . S
C898 C901 1.409 . S
C899 H891 0.930 . S
C899 C900 1.355 . S
C899 C901 1.415 . S
C900 C899 1.355 . S
C900 C902 1.419 . S
C901 C896 1.425 . S
C901 C898 1.409 . S
C901 C899 1.415 . S
C902 H892 0.930 . S
C902 C900 1.419 . S
C902 C903 1.362 . S
C903 H893 0.930 . S
C903 C896 1.409 . S
C903 C902 1.362 . S
H904 C910 0.930 . S
H905 C913 0.930 1_545 S
H906 C914 0.930 . S
H907 C915 0.930 1_545 S
H908 C918 0.930 . S
H909 C919 0.930 . S
C910 H904 0.930 . S
C910 C911 1.355 . S
C910 C912 1.415 . S
C911 C910 1.355 . S
C911 C913 1.419 . S
C912 C910 1.415 . S
C912 C917 1.425 . S
C912 C919 1.409 . S
C913 H905 0.930 1_565 S
C913 C911 1.419 . S
C913 C914 1.362 1_565 S
C914 H906 0.930 . S
C914 C913 1.362 1_545 S
C914 C917 1.409 1_545 S
C915 H907 0.930 1_565 S
C915 C916 1.355 . S
C915 C917 1.415 . S
C916 C915 1.355 . S
C916 C918 1.419 . S
C917 C912 1.425 . S
C917 C914 1.409 1_565 S
C917 C915 1.415 . S
C918 H908 0.930 . S
C918 C916 1.419 . S
C918 C919 1.362 . S
C919 H909 0.930 . S
C919 C912 1.409 . S
C919 C918 1.362 . S
H920 C926 0.930 . S
H921 C929 0.930 . S
H922 C930 0.930 . S
H923 C931 0.930 . S
H924 C934 0.930 . S
H925 C935 0.930 . S
C926 H920 0.930 . S
C926 C927 1.355 . S
C926 C928 1.415 . S
C927 C926 1.355 . S
C927 C929 1.419 . S
C928 C926 1.415 . S
C928 C933 1.425 . S
C928 C935 1.409 . S
C929 H921 0.930 . S
C929 C927 1.419 . S
C929 C930 1.362 . S
C930 H922 0.930 . S
C930 C929 1.362 . S
C930 C933 1.409 . S
C931 H923 0.930 . S
C931 C932 1.355 . S
C931 C933 1.415 . S
C932 C931 1.355 . S
C932 C934 1.419 . S
C933 C928 1.425 . S
C933 C930 1.409 . S
C933 C931 1.415 . S
C934 H924 0.930 . S
C934 C932 1.419 . S
C934 C935 1.362 . S
C935 H925 0.930 . S
C935 C928 1.409 . S
C935 C934 1.362 . S
H936 C942 0.930 . S
H937 C945 0.930 . S
H938 C946 0.930 . S
H939 C947 0.930 . S
H940 C950 0.930 . S
H941 C951 0.930 . S
C942 H936 0.930 . S
C942 C943 1.355 . S
C942 C944 1.415 . S
C943 C942 1.355 . S
C943 C945 1.419 . S
C944 C942 1.415 . S
C944 C949 1.425 . S
C944 C951 1.409 . S
C945 H937 0.930 . S
C945 C943 1.419 . S
C945 C946 1.362 . S
C946 H938 0.930 . S
C946 C945 1.362 . S
C946 C949 1.409 . S
C947 H939 0.930 . S
C947 C948 1.355 . S
C947 C949 1.415 . S
C948 C947 1.355 . S
C948 C950 1.419 . S
C949 C944 1.425 . S
C949 C946 1.409 . S
C949 C947 1.415 . S
C950 H940 0.930 . S
C950 C948 1.419 . S
C950 C951 1.362 . S
C951 H941 0.930 . S
C951 C944 1.409 . S
C951 C950 1.362 . S
H952 C958 0.930 . S
H953 C961 0.930 . S
H954 C962 0.930 . S
H955 C963 0.930 . S
H956 C966 0.930 . S
H957 C967 0.930 . S
C958 H952 0.930 . S
C958 C959 1.355 . S
C958 C960 1.415 . S
C959 C958 1.355 . S
C959 C961 1.419 . S
C960 C958 1.415 . S
C960 C965 1.425 . S
C960 C967 1.409 . S
C961 H953 0.930 . S
C961 C959 1.419 . S
C961 C962 1.362 . S
C962 H954 0.930 . S
C962 C961 1.362 . S
C962 C965 1.409 . S
C963 H955 0.930 . S
C963 C964 1.355 . S
C963 C965 1.415 . S
C964 C963 1.355 . S
C964 C966 1.419 . S
C965 C960 1.425 . S
C965 C962 1.409 . S
C965 C963 1.415 . S
C966 H956 0.930 . S
C966 C964 1.419 . S
C966 C967 1.362 . S
C967 H957 0.930 . S
C967 C960 1.409 . S
C967 C966 1.362 . S
H968 C974 0.930 . S
H969 C977 0.930 . S
H970 C978 0.930 . S
H971 C979 0.930 . S
H972 C982 0.930 . S
H973 C983 0.930 . S
C974 H968 0.930 . S
C974 C975 1.355 . S
C974 C976 1.415 . S
C975 C974 1.355 . S
C975 C977 1.419 . S
C976 C974 1.415 . S
C976 C981 1.425 . S
C976 C983 1.409 . S
C977 H969 0.930 . S
C977 C975 1.419 . S
C977 C978 1.362 . S
C978 H970 0.930 . S
C978 C977 1.362 . S
C978 C981 1.409 . S
C979 H971 0.930 . S
C979 C980 1.355 . S
C979 C981 1.415 . S
C980 C979 1.355 . S
C980 C982 1.419 . S
C981 C976 1.425 . S
C981 C978 1.409 . S
C981 C979 1.415 . S
C982 H972 0.930 . S
C982 C980 1.419 . S
C982 C983 1.362 . S
C983 H973 0.930 . S
C983 C976 1.409 . S
C983 C982 1.362 . S
H984 C990 0.930 . S
H985 C993 0.930 . S
H986 C994 0.930 . S
H987 C995 0.930 . S
H988 C998 0.930 . S
H989 C999 0.930 . S
C990 H984 0.930 . S
C990 C991 1.355 . S
C990 C992 1.415 . S
C991 C990 1.355 . S
C991 C993 1.419 . S
C992 C990 1.415 . S
C992 C997 1.425 . S
C992 C999 1.409 . S
C993 H985 0.930 . S
C993 C991 1.419 . S
C993 C994 1.362 . S
C994 H986 0.930 . S
C994 C993 1.362 . S
C994 C997 1.409 . S
C995 H987 0.930 . S
C995 C996 1.355 . S
C995 C997 1.415 . S
C996 C995 1.355 . S
C996 C998 1.419 . S
C997 C992 1.425 . S
C997 C994 1.409 . S
C997 C995 1.415 . S
C998 H988 0.930 . S
C998 C996 1.419 . S
C998 C999 1.362 . S
C999 H989 0.930 . S
C999 C992 1.409 . S
C999 C998 1.362 . S
H1000 C1006 0.930 . S
H1001 C1009 0.930 1_655 S
H1002 C1010 0.930 . S
H1003 C1011 0.930 1_655 S
H1004 C1014 0.930 . S
H1005 C1015 0.930 . S
C1006 H1000 0.930 . S
C1006 C1007 1.355 . S
C1006 C1008 1.415 . S
C1007 C1006 1.355 . S
C1007 C1009 1.419 . S
C1008 C1006 1.415 . S
C1008 C1013 1.425 . S
C1008 C1015 1.409 . S
C1009 H1001 0.930 1_455 S
C1009 C1007 1.419 . S
C1009 C1010 1.362 1_455 S
C1010 H1002 0.930 . S
C1010 C1009 1.362 1_655 S
C1010 C1013 1.409 1_655 S
C1011 H1003 0.930 1_455 S
C1011 C1012 1.355 . S
C1011 C1013 1.415 . S
C1012 C1011 1.355 . S
C1012 C1014 1.419 . S
C1013 C1008 1.425 . S
C1013 C1010 1.409 1_455 S
C1013 C1011 1.415 . S
C1014 H1004 0.930 . S
C1014 C1012 1.419 . S
C1014 C1015 1.362 . S
C1015 H1005 0.930 . S
C1015 C1008 1.409 . S
C1015 C1014 1.362 . S
H1016 C1022 0.930 . S
H1017 C1025 0.930 . S
H1018 C1026 0.930 . S
H1019 C1027 0.930 . S
H1020 C1030 0.930 . S
H1021 C1031 0.930 . S
C1022 H1016 0.930 . S
C1022 C1023 1.355 . S
C1022 C1024 1.415 . S
C1023 C1022 1.355 . S
C1023 C1025 1.419 . S
C1024 C1022 1.415 . S
C1024 C1029 1.425 . S
C1024 C1031 1.409 . S
C1025 H1017 0.930 . S
C1025 C1023 1.419 . S
C1025 C1026 1.362 . S
C1026 H1018 0.930 . S
C1026 C1025 1.362 . S
C1026 C1029 1.409 . S
C1027 H1019 0.930 . S
C1027 C1028 1.355 . S
C1027 C1029 1.415 . S
C1028 C1027 1.355 . S
C1028 C1030 1.419 . S
C1029 C1024 1.425 . S
C1029 C1026 1.409 . S
C1029 C1027 1.415 . S
C1030 H1020 0.930 . S
C1030 C1028 1.419 . S
C1030 C1031 1.362 . S
C1031 H1021 0.930 . S
C1031 C1024 1.409 . S
C1031 C1030 1.362 . S
H1032 C1038 0.930 . S
H1033 C1041 0.930 . S
H1034 C1042 0.930 . S
H1035 C1043 0.930 . S
H1036 C1046 0.930 . S
H1037 C1047 0.930 . S
C1038 H1032 0.930 . S
C1038 C1039 1.355 . S
C1038 C1040 1.415 . S
C1039 C1038 1.355 . S
C1039 C1041 1.419 . S
C1040 C1038 1.415 . S
C1040 C1045 1.425 . S
C1040 C1047 1.409 . S
C1041 H1033 0.930 . S
C1041 C1039 1.419 . S
C1041 C1042 1.362 . S
C1042 H1034 0.930 . S
C1042 C1041 1.362 . S
C1042 C1045 1.409 . S
C1043 H1035 0.930 . S
C1043 C1044 1.355 . S
C1043 C1045 1.415 . S
C1044 C1043 1.355 . S
C1044 C1046 1.419 . S
C1045 C1040 1.425 . S
C1045 C1042 1.409 . S
C1045 C1043 1.415 . S
C1046 H1036 0.930 . S
C1046 C1044 1.419 . S
C1046 C1047 1.362 . S
C1047 H1037 0.930 . S
C1047 C1040 1.409 . S
C1047 C1046 1.362 . S
H1048 C1054 0.930 . S
H1049 C1057 0.930 . S
H1050 C1058 0.930 . S
H1051 C1059 0.930 . S
H1052 C1062 0.930 . S
H1053 C1063 0.930 . S
C1054 H1048 0.930 . S
C1054 C1055 1.355 . S
C1054 C1056 1.415 . S
C1055 C1054 1.355 . S
C1055 C1057 1.419 . S
C1056 C1054 1.415 . S
C1056 C1061 1.425 . S
C1056 C1063 1.409 . S
C1057 H1049 0.930 . S
C1057 C1055 1.419 . S
C1057 C1058 1.362 . S
C1058 H1050 0.930 . S
C1058 C1057 1.362 . S
C1058 C1061 1.409 . S
C1059 H1051 0.930 . S
C1059 C1060 1.355 . S
C1059 C1061 1.415 . S
C1060 C1059 1.355 . S
C1060 C1062 1.419 . S
C1061 C1056 1.425 . S
C1061 C1058 1.409 . S
C1061 C1059 1.415 . S
C1062 H1052 0.930 . S
C1062 C1060 1.419 . S
C1062 C1063 1.362 . S
C1063 H1053 0.930 . S
C1063 C1056 1.409 . S
C1063 C1062 1.362 . S
H1064 C1070 0.930 . S
H1065 C1073 0.930 . S
H1066 C1074 0.930 . S
H1067 C1075 0.930 . S
H1068 C1078 0.930 . S
H1069 C1079 0.930 . S
C1070 H1064 0.930 . S
C1070 C1071 1.355 . S
C1070 C1072 1.415 . S
C1071 C1070 1.355 . S
C1071 C1073 1.419 . S
C1072 C1070 1.415 . S
C1072 C1077 1.425 . S
C1072 C1079 1.409 . S
C1073 H1065 0.930 . S
C1073 C1071 1.419 . S
C1073 C1074 1.362 . S
C1074 H1066 0.930 . S
C1074 C1073 1.362 . S
C1074 C1077 1.409 . S
C1075 H1067 0.930 . S
C1075 C1076 1.355 . S
C1075 C1077 1.415 . S
C1076 C1075 1.355 . S
C1076 C1078 1.419 . S
C1077 C1072 1.425 . S
C1077 C1074 1.409 . S
C1077 C1075 1.415 . S
C1078 H1068 0.930 . S
C1078 C1076 1.419 . S
C1078 C1079 1.362 . S
C1079 H1069 0.930 . S
C1079 C1072 1.409 . S
C1079 C1078 1.362 . S
H1080 C1086 0.907 1_554 S
H1081 C1089 0.930 . S
H1082 C1090 0.930 . S
H1083 C1091 0.930 . S
H1084 C1094 0.930 . S
H1085 C1095 0.930 . S
C1086 H1080 0.907 1_556 S
C1086 C1087 1.380 . S
C1086 C1088 1.414 . S
C1087 C1086 1.380 . S
C1087 C1089 1.419 . S
C1088 C1086 1.414 . S
C1088 C1093 1.446 . S
C1088 C1095 1.388 1_556 S
C1089 H1081 0.930 . S
C1089 C1087 1.419 . S
C1089 C1090 1.362 . S
C1090 H1082 0.930 . S
C1090 C1089 1.362 . S
C1090 C1093 1.409 . S
C1091 H1083 0.930 . S
C1091 C1092 1.355 . S
C1091 C1093 1.415 . S
C1092 C1091 1.355 . S
C1092 C1094 1.419 1_556 S
C1093 C1088 1.446 . S
C1093 C1090 1.409 . S
C1093 C1091 1.415 . S
C1094 H1084 0.930 . S
C1094 C1092 1.419 1_554 S
C1094 C1095 1.362 . S
C1095 H1085 0.930 . S
C1095 C1088 1.388 1_554 S
C1095 C1094 1.362 . S
H1096 C1102 0.930 . S
H1097 C1105 0.930 . S
H1098 C1106 0.930 . S
H1099 C1107 0.930 . S
H1100 C1110 0.930 . S
H1101 C1111 0.930 . S
C1102 H1096 0.930 . S
C1102 C1103 1.355 . S
C1102 C1104 1.415 . S
C1103 C1102 1.355 . S
C1103 C1105 1.419 . S
C1104 C1102 1.415 . S
C1104 C1109 1.425 . S
C1104 C1111 1.409 . S
C1105 H1097 0.930 . S
C1105 C1103 1.419 . S
C1105 C1106 1.362 . S
C1106 H1098 0.930 . S
C1106 C1105 1.362 . S
C1106 C1109 1.409 . S
C1107 H1099 0.930 . S
C1107 C1108 1.355 . S
C1107 C1109 1.415 . S
C1108 C1107 1.355 . S
C1108 C1110 1.419 . S
C1109 C1104 1.425 . S
C1109 C1106 1.409 . S
C1109 C1107 1.415 . S
C1110 H1100 0.930 . S
C1110 C1108 1.419 . S
C1110 C1111 1.362 . S
C1111 H1101 0.930 . S
C1111 C1104 1.409 . S
C1111 C1110 1.362 . S
H1112 C1118 0.930 . S
H1113 C1121 0.930 . S
H1114 C1122 0.930 . S
H1115 C1123 0.930 . S
H1116 C1126 0.930 . S
H1117 C1127 0.930 . S
C1118 H1112 0.930 . S
C1118 C1119 1.355 . S
C1118 C1120 1.415 . S
C1119 C1118 1.355 . S
C1119 C1121 1.419 . S
C1120 C1118 1.415 . S
C1120 C1125 1.425 . S
C1120 C1127 1.409 . S
C1121 H1113 0.930 . S
C1121 C1119 1.419 . S
C1121 C1122 1.362 . S
C1122 H1114 0.930 . S
C1122 C1121 1.362 . S
C1122 C1125 1.409 . S
C1123 H1115 0.930 . S
C1123 C1124 1.355 . S
C1123 C1125 1.415 . S
C1124 C1123 1.355 . S
C1124 C1126 1.419 . S
C1125 C1120 1.425 . S
C1125 C1122 1.409 . S
C1125 C1123 1.415 . S
C1126 H1116 0.930 . S
C1126 C1124 1.419 . S
C1126 C1127 1.362 . S
C1127 H1117 0.930 . S
C1127 C1120 1.409 . S
C1127 C1126 1.362 . S
H1128 C1134 0.930 . S
H1129 C1137 0.930 . S
H1130 C1138 0.930 . S
H1131 C1139 0.930 . S
H1132 C1142 0.930 . S
H1133 C1143 0.930 . S
C1134 H1128 0.930 . S
C1134 C1135 1.355 . S
C1134 C1136 1.415 . S
C1135 C1134 1.355 . S
C1135 C1137 1.419 . S
C1136 C1134 1.415 . S
C1136 C1141 1.425 . S
C1136 C1143 1.409 . S
C1137 H1129 0.930 . S
C1137 C1135 1.419 . S
C1137 C1138 1.362 . S
C1138 H1130 0.930 . S
C1138 C1137 1.362 . S
C1138 C1141 1.409 . S
C1139 H1131 0.930 . S
C1139 C1140 1.355 . S
C1139 C1141 1.415 . S
C1140 C1139 1.355 . S
C1140 C1142 1.419 . S
C1141 C1136 1.425 . S
C1141 C1138 1.409 . S
C1141 C1139 1.415 . S
C1142 H1132 0.930 . S
C1142 C1140 1.419 . S
C1142 C1143 1.362 . S
C1143 H1133 0.930 . S
C1143 C1136 1.409 . S
C1143 C1142 1.362 . S
H1144 C1150 0.930 . S
H1145 C1153 0.930 . S
H1146 C1154 0.930 . S
H1147 C1155 0.930 . S
H1148 C1158 0.930 . S
H1149 C1159 0.930 . S
C1150 H1144 0.930 . S
C1150 C1151 1.355 . S
C1150 C1152 1.415 . S
C1151 C1150 1.355 . S
C1151 C1153 1.419 . S
C1152 C1150 1.415 . S
C1152 C1157 1.425 . S
C1152 C1159 1.409 . S
C1153 H1145 0.930 . S
C1153 C1151 1.419 . S
C1153 C1154 1.362 . S
C1154 H1146 0.930 . S
C1154 C1153 1.362 . S
C1154 C1157 1.409 . S
C1155 H1147 0.930 . S
C1155 C1156 1.355 . S
C1155 C1157 1.415 . S
C1156 C1155 1.355 . S
C1156 C1158 1.419 . S
C1157 C1152 1.425 . S
C1157 C1154 1.409 . S
C1157 C1155 1.415 . S
C1158 H1148 0.930 . S
C1158 C1156 1.419 . S
C1158 C1159 1.362 . S
C1159 H1149 0.930 . S
C1159 C1152 1.409 . S
C1159 C1158 1.362 . S
H1160 C1166 0.930 . S
H1161 C1169 0.930 . S
H1162 C1170 0.930 . S
H1163 C1171 0.930 . S
H1164 C1174 0.930 . S
H1165 C1175 0.930 . S
C1166 H1160 0.930 . S
C1166 C1167 1.355 . S
C1166 C1168 1.415 . S
C1167 C1166 1.355 . S
C1167 C1169 1.419 . S
C1168 C1166 1.415 . S
C1168 C1173 1.425 . S
C1168 C1175 1.409 . S
C1169 H1161 0.930 . S
C1169 C1167 1.419 . S
C1169 C1170 1.362 . S
C1170 H1162 0.930 . S
C1170 C1169 1.362 . S
C1170 C1173 1.409 . S
C1171 H1163 0.930 . S
C1171 C1172 1.355 . S
C1171 C1173 1.415 . S
C1172 C1171 1.355 . S
C1172 C1174 1.419 . S
C1173 C1168 1.425 . S
C1173 C1170 1.409 . S
C1173 C1171 1.415 . S
C1174 H1164 0.930 . S
C1174 C1172 1.419 . S
C1174 C1175 1.362 . S
C1175 H1165 0.930 . S
C1175 C1168 1.409 . S
C1175 C1174 1.362 . S
H1176 C1182 0.930 . S
H1177 C1185 0.930 . S
H1178 C1186 0.930 . S
H1179 C1187 0.930 . S
H1180 C1190 0.930 . S
H1181 C1191 0.930 . S
C1182 H1176 0.930 . S
C1182 C1183 1.355 . S
C1182 C1184 1.415 . S
C1183 C1182 1.355 . S
C1183 C1185 1.419 . S
C1184 C1182 1.415 . S
C1184 C1189 1.425 . S
C1184 C1191 1.409 . S
C1185 H1177 0.930 . S
C1185 C1183 1.419 . S
C1185 C1186 1.362 . S
C1186 H1178 0.930 . S
C1186 C1185 1.362 . S
C1186 C1189 1.409 . S
C1187 H1179 0.930 . S
C1187 C1188 1.355 . S
C1187 C1189 1.415 . S
C1188 C1187 1.355 . S
C1188 C1190 1.419 . S
C1189 C1184 1.425 . S
C1189 C1186 1.409 . S
C1189 C1187 1.415 . S
C1190 H1180 0.930 . S
C1190 C1188 1.419 . S
C1190 C1191 1.362 . S
C1191 H1181 0.930 . S
C1191 C1184 1.409 . S
C1191 C1190 1.362 . S
H1192 C1198 0.970 . S
H1193 C1201 0.930 . S
H1194 C1202 0.930 . S
H1195 C1203 0.930 . S
H1196 C1206 0.930 . S
H1197 C1207 0.930 . S
C1198 H1192 0.970 . S
C1198 C1199 1.318 1_565 S
C1198 C1200 1.413 1_565 S
C1199 C1198 1.318 1_545 S
C1199 C1201 1.419 . S
C1200 C1198 1.413 1_545 S
C1200 C1205 1.465 . S
C1200 C1207 1.373 1_545 S
C1201 H1193 0.930 . S
C1201 C1199 1.419 . S
C1201 C1202 1.362 . S
C1202 H1194 0.930 . S
C1202 C1201 1.362 . S
C1202 C1205 1.409 . S
C1203 H1195 0.930 . S
C1203 C1204 1.355 . S
C1203 C1205 1.415 . S
C1204 C1203 1.355 . S
C1204 C1206 1.419 1_545 S
C1205 C1200 1.465 . S
C1205 C1202 1.409 . S
C1205 C1203 1.415 . S
C1206 H1196 0.930 . S
C1206 C1204 1.419 1_565 S
C1206 C1207 1.362 . S
C1207 H1197 0.930 . S
C1207 C1200 1.373 1_565 S
C1207 C1206 1.362 . S
H1208 C1214 0.930 . S
H1209 C1217 0.930 . S
H1210 C1218 0.930 . S
H1211 C1219 0.930 . S
H1212 C1222 0.930 . S
H1213 C1223 0.930 . S
C1214 H1208 0.930 . S
C1214 C1215 1.355 . S
C1214 C1216 1.415 . S
C1215 C1214 1.355 . S
C1215 C1217 1.419 . S
C1216 C1214 1.415 . S
C1216 C1221 1.425 . S
C1216 C1223 1.409 . S
C1217 H1209 0.930 . S
C1217 C1215 1.419 . S
C1217 C1218 1.362 . S
C1218 H1210 0.930 . S
C1218 C1217 1.362 . S
C1218 C1221 1.409 . S
C1219 H1211 0.930 . S
C1219 C1220 1.355 . S
C1219 C1221 1.415 . S
C1220 C1219 1.355 . S
C1220 C1222 1.419 . S
C1221 C1216 1.425 . S
C1221 C1218 1.409 . S
C1221 C1219 1.415 . S
C1222 H1212 0.930 . S
C1222 C1220 1.419 . S
C1222 C1223 1.362 . S
C1223 H1213 0.930 . S
C1223 C1216 1.409 . S
C1223 C1222 1.362 . S
H1224 C1230 0.930 . S
H1225 C1233 0.930 . S
H1226 C1234 0.930 . S
H1227 C1235 0.930 . S
H1228 C1238 0.930 . S
H1229 C1239 0.930 . S
C1230 H1224 0.930 . S
C1230 C1231 1.355 . S
C1230 C1232 1.415 . S
C1231 C1230 1.355 . S
C1231 C1233 1.419 . S
C1232 C1230 1.415 . S
C1232 C1237 1.425 . S
C1232 C1239 1.409 . S
C1233 H1225 0.930 . S
C1233 C1231 1.419 . S
C1233 C1234 1.362 . S
C1234 H1226 0.930 . S
C1234 C1233 1.362 . S
C1234 C1237 1.409 . S
C1235 H1227 0.930 . S
C1235 C1236 1.355 . S
C1235 C1237 1.415 . S
C1236 C1235 1.355 . S
C1236 C1238 1.419 . S
C1237 C1232 1.425 . S
C1237 C1234 1.409 . S
C1237 C1235 1.415 . S
C1238 H1228 0.930 . S
C1238 C1236 1.419 . S
C1238 C1239 1.362 . S
C1239 H1229 0.930 . S
C1239 C1232 1.409 . S
C1239 C1238 1.362 . S
H1240 C1246 0.930 . S
H1241 C1249 0.930 . S
H1242 C1250 0.930 . S
H1243 C1251 0.930 . S
H1244 C1254 0.930 . S
H1245 C1255 0.930 . S
C1246 H1240 0.930 . S
C1246 C1247 1.355 . S
C1246 C1248 1.415 . S
C1247 C1246 1.355 . S
C1247 C1249 1.419 . S
C1248 C1246 1.415 . S
C1248 C1253 1.425 . S
C1248 C1255 1.409 . S
C1249 H1241 0.930 . S
C1249 C1247 1.419 . S
C1249 C1250 1.362 . S
C1250 H1242 0.930 . S
C1250 C1249 1.362 . S
C1250 C1253 1.409 . S
C1251 H1243 0.930 . S
C1251 C1252 1.355 . S
C1251 C1253 1.415 . S
C1252 C1251 1.355 . S
C1252 C1254 1.419 . S
C1253 C1248 1.425 . S
C1253 C1250 1.409 . S
C1253 C1251 1.415 . S
C1254 H1244 0.930 . S
C1254 C1252 1.419 . S
C1254 C1255 1.362 . S
C1255 H1245 0.930 . S
C1255 C1248 1.409 . S
C1255 C1254 1.362 . S
H1256 C1262 0.930 . S
H1257 C1265 0.930 . S
H1258 C1266 0.930 . S
H1259 C1267 0.930 . S
H1260 C1270 0.930 . S
H1261 C1271 0.930 . S
C1262 H1256 0.930 . S
C1262 C1263 1.355 . S
C1262 C1264 1.415 . S
C1263 C1262 1.355 . S
C1263 C1265 1.419 . S
C1264 C1262 1.415 . S
C1264 C1269 1.425 . S
C1264 C1271 1.409 . S
C1265 H1257 0.930 . S
C1265 C1263 1.419 . S
C1265 C1266 1.362 . S
C1266 H1258 0.930 . S
C1266 C1265 1.362 . S
C1266 C1269 1.409 . S
C1267 H1259 0.930 . S
C1267 C1268 1.355 . S
C1267 C1269 1.415 . S
C1268 C1267 1.355 . S
C1268 C1270 1.419 . S
C1269 C1264 1.425 . S
C1269 C1266 1.409 . S
C1269 C1267 1.415 . S
C1270 H1260 0.930 . S
C1270 C1268 1.419 . S
C1270 C1271 1.362 . S
C1271 H1261 0.930 . S
C1271 C1264 1.409 . S
C1271 C1270 1.362 . S
H1272 C1278 0.930 . S
H1273 C1281 0.930 . S
H1274 C1282 0.930 . S
H1275 C1283 0.930 . S
H1276 C1286 0.930 . S
H1277 C1287 0.930 . S
C1278 H1272 0.930 . S
C1278 C1279 1.355 . S
C1278 C1280 1.415 . S
C1279 C1278 1.355 . S
C1279 C1281 1.419 . S
C1280 C1278 1.415 . S
C1280 C1285 1.425 . S
C1280 C1287 1.409 . S
C1281 H1273 0.930 . S
C1281 C1279 1.419 . S
C1281 C1282 1.362 . S
C1282 H1274 0.930 . S
C1282 C1281 1.362 . S
C1282 C1285 1.409 . S
C1283 H1275 0.930 . S
C1283 C1284 1.355 . S
C1283 C1285 1.415 . S
C1284 C1283 1.355 . S
C1284 C1286 1.419 . S
C1285 C1280 1.425 . S
C1285 C1282 1.409 . S
C1285 C1283 1.415 . S
C1286 H1276 0.930 . S
C1286 C1284 1.419 . S
C1286 C1287 1.362 . S
C1287 H1277 0.930 . S
C1287 C1280 1.409 . S
C1287 C1286 1.362 . S
H1288 C1294 0.930 . S
H1289 C1297 0.930 . S
H1290 C1298 0.930 . S
H1291 C1299 0.930 . S
H1292 C1302 0.930 . S
H1293 C1303 0.930 . S
C1294 H1288 0.930 . S
C1294 C1295 1.355 . S
C1294 C1296 1.415 . S
C1295 C1294 1.355 . S
C1295 C1297 1.419 . S
C1296 C1294 1.415 . S
C1296 C1301 1.425 . S
C1296 C1303 1.409 . S
C1297 H1289 0.930 . S
C1297 C1295 1.419 . S
C1297 C1298 1.362 . S
C1298 H1290 0.930 . S
C1298 C1297 1.362 . S
C1298 C1301 1.409 . S
C1299 H1291 0.930 . S
C1299 C1300 1.355 . S
C1299 C1301 1.415 . S
C1300 C1299 1.355 . S
C1300 C1302 1.419 . S
C1301 C1296 1.425 . S
C1301 C1298 1.409 . S
C1301 C1299 1.415 . S
C1302 H1292 0.930 . S
C1302 C1300 1.419 . S
C1302 C1303 1.362 . S
C1303 H1293 0.930 . S
C1303 C1296 1.409 . S
C1303 C1302 1.362 . S
H1304 C1310 0.930 . S
H1305 C1313 0.930 . S
H1306 C1314 0.930 . S
H1307 C1315 0.930 . S
H1308 C1318 0.930 . S
H1309 C1319 0.930 . S
C1310 H1304 0.930 . S
C1310 C1311 1.355 . S
C1310 C1312 1.415 . S
C1311 C1310 1.355 . S
C1311 C1313 1.419 . S
C1312 C1310 1.415 . S
C1312 C1317 1.425 . S
C1312 C1319 1.409 . S
C1313 H1305 0.930 . S
C1313 C1311 1.419 . S
C1313 C1314 1.362 . S
C1314 H1306 0.930 . S
C1314 C1313 1.362 . S
C1314 C1317 1.409 . S
C1315 H1307 0.930 . S
C1315 C1316 1.355 . S
C1315 C1317 1.415 . S
C1316 C1315 1.355 . S
C1316 C1318 1.419 . S
C1317 C1312 1.425 . S
C1317 C1314 1.409 . S
C1317 C1315 1.415 . S
C1318 H1308 0.930 . S
C1318 C1316 1.419 . S
C1318 C1319 1.362 . S
C1319 H1309 0.930 . S
C1319 C1312 1.409 . S
C1319 C1318 1.362 . S
H1320 C1326 0.930 . S
H1321 C1329 0.930 . S
H1322 C1330 0.930 . S
H1323 C1331 0.930 . S
H1324 C1334 0.930 . S
H1325 C1335 0.930 . S
C1326 H1320 0.930 . S
C1326 C1327 1.355 . S
C1326 C1328 1.415 . S
C1327 C1326 1.355 . S
C1327 C1329 1.419 1_655 S
C1328 C1326 1.415 . S
C1328 C1333 1.425 1_655 S
C1328 C1335 1.409 . S
C1329 H1321 0.930 . S
C1329 C1327 1.419 1_455 S
C1329 C1330 1.362 . S
C1330 H1322 0.930 . S
C1330 C1329 1.362 . S
C1330 C1333 1.409 . S
C1331 H1323 0.930 . S
C1331 C1332 1.355 . S
C1331 C1333 1.415 . S
C1332 C1331 1.355 . S
C1332 C1334 1.419 1_455 S
C1333 C1328 1.425 1_455 S
C1333 C1330 1.409 . S
C1333 C1331 1.415 . S
C1334 H1324 0.930 . S
C1334 C1332 1.419 1_655 S
C1334 C1335 1.362 . S
C1335 H1325 0.930 . S
C1335 C1328 1.409 . S
C1335 C1334 1.362 . S
H1336 C1342 0.930 . S
H1337 C1345 0.930 . S
H1338 C1346 0.930 . S
H1339 C1347 0.930 . S
H1340 C1350 0.930 . S
H1341 C1351 0.930 . S
C1342 H1336 0.930 . S
C1342 C1343 1.355 . S
C1342 C1344 1.415 . S
C1343 C1342 1.355 . S
C1343 C1345 1.419 . S
C1344 C1342 1.415 . S
C1344 C1349 1.425 . S
C1344 C1351 1.409 . S
C1345 H1337 0.930 . S
C1345 C1343 1.419 . S
C1345 C1346 1.362 . S
C1346 H1338 0.930 . S
C1346 C1345 1.362 . S
C1346 C1349 1.409 . S
C1347 H1339 0.930 . S
C1347 C1348 1.355 . S
C1347 C1349 1.415 . S
C1348 C1347 1.355 . S
C1348 C1350 1.419 . S
C1349 C1344 1.425 . S
C1349 C1346 1.409 . S
C1349 C1347 1.415 . S
C1350 H1340 0.930 . S
C1350 C1348 1.419 . S
C1350 C1351 1.362 . S
C1351 H1341 0.930 . S
C1351 C1344 1.409 . S
C1351 C1350 1.362 . S
H1352 C1358 0.930 . S
H1353 C1361 0.930 . S
H1354 C1362 0.930 . S
H1355 C1363 0.930 1_655 S
H1356 C1366 0.930 . S
H1357 C1367 0.930 . S
C1358 H1352 0.930 . S
C1358 C1359 1.355 . S
C1358 C1360 1.415 . S
C1359 C1358 1.355 . S
C1359 C1361 1.419 1_455 S
C1360 C1358 1.415 . S
C1360 C1365 1.425 . S
C1360 C1367 1.409 . S
C1361 H1353 0.930 . S
C1361 C1359 1.419 1_655 S
C1361 C1362 1.362 . S
C1362 H1354 0.930 . S
C1362 C1361 1.362 . S
C1362 C1365 1.409 1_655 S
C1363 H1355 0.930 1_455 S
C1363 C1364 1.355 . S
C1363 C1365 1.415 . S
C1364 C1363 1.355 . S
C1364 C1366 1.419 . S
C1365 C1360 1.425 . S
C1365 C1362 1.409 1_455 S
C1365 C1363 1.415 . S
C1366 H1356 0.930 . S
C1366 C1364 1.419 . S
C1366 C1367 1.362 . S
C1367 H1357 0.930 . S
C1367 C1360 1.409 . S
C1367 C1366 1.362 . S
H1368 C1374 0.930 . S
H1369 C1377 0.930 . S
H1370 C1378 0.930 . S
H1371 C1379 0.930 . S
H1372 C1382 0.930 . S
H1373 C1383 0.930 . S
C1374 H1368 0.930 . S
C1374 C1375 1.355 . S
C1374 C1376 1.415 . S
C1375 C1374 1.355 . S
C1375 C1377 1.419 . S
C1376 C1374 1.415 . S
C1376 C1381 1.425 . S
C1376 C1383 1.409 . S
C1377 H1369 0.930 . S
C1377 C1375 1.419 . S
C1377 C1378 1.362 . S
C1378 H1370 0.930 . S
C1378 C1377 1.362 . S
C1378 C1381 1.409 . S
C1379 H1371 0.930 . S
C1379 C1380 1.355 . S
C1379 C1381 1.415 . S
C1380 C1379 1.355 . S
C1380 C1382 1.419 . S
C1381 C1376 1.425 . S
C1381 C1378 1.409 . S
C1381 C1379 1.415 . S
C1382 H1372 0.930 . S
C1382 C1380 1.419 . S
C1382 C1383 1.362 . S
C1383 H1373 0.930 . S
C1383 C1376 1.409 . S
C1383 C1382 1.362 . S
H1384 C1390 0.930 . S
H1385 C1393 0.930 . S
H1386 C1394 0.930 . S
H1387 C1395 0.930 . S
H1388 C1398 0.930 . S
H1389 C1399 0.930 . S
C1390 H1384 0.930 . S
C1390 C1391 1.355 . S
C1390 C1392 1.415 . S
C1391 C1390 1.355 . S
C1391 C1393 1.419 . S
C1392 C1390 1.415 . S
C1392 C1397 1.425 . S
C1392 C1399 1.409 . S
C1393 H1385 0.930 . S
C1393 C1391 1.419 . S
C1393 C1394 1.362 . S
C1394 H1386 0.930 . S
C1394 C1393 1.362 . S
C1394 C1397 1.409 . S
C1395 H1387 0.930 . S
C1395 C1396 1.355 . S
C1395 C1397 1.415 . S
C1396 C1395 1.355 . S
C1396 C1398 1.419 . S
C1397 C1392 1.425 . S
C1397 C1394 1.409 . S
C1397 C1395 1.415 . S
C1398 H1388 0.930 . S
C1398 C1396 1.419 . S
C1398 C1399 1.362 . S
C1399 H1389 0.930 . S
C1399 C1392 1.409 . S
C1399 C1398 1.362 . S
H1400 C1406 0.930 . S
H1401 C1409 0.930 . S
H1402 C1410 0.930 . S
H1403 C1411 0.930 . S
H1404 C1414 0.930 . S
H1405 C1415 0.930 . S
C1406 H1400 0.930 . S
C1406 C1407 1.355 . S
C1406 C1408 1.415 . S
C1407 C1406 1.355 . S
C1407 C1409 1.419 . S
C1408 C1406 1.415 . S
C1408 C1413 1.425 . S
C1408 C1415 1.409 . S
C1409 H1401 0.930 . S
C1409 C1407 1.419 . S
C1409 C1410 1.362 . S
C1410 H1402 0.930 . S
C1410 C1409 1.362 . S
C1410 C1413 1.409 . S
C1411 H1403 0.930 . S
C1411 C1412 1.355 . S
C1411 C1413 1.415 . S
C1412 C1411 1.355 . S
C1412 C1414 1.419 . S
C1413 C1408 1.425 . S
C1413 C1410 1.409 . S
C1413 C1411 1.415 . S
C1414 H1404 0.930 . S
C1414 C1412 1.419 . S
C1414 C1415 1.362 . S
C1415 H1405 0.930 . S
C1415 C1408 1.409 . S
C1415 C1414 1.362 . S
H1416 C1422 0.930 . S
H1417 C1425 0.930 . S
H1418 C1426 0.930 . S
H1419 C1427 0.930 . S
H1420 C1430 0.930 . S
H1421 C1431 0.930 . S
C1422 H1416 0.930 . S
C1422 C1423 1.355 . S
C1422 C1424 1.415 . S
C1423 C1422 1.355 . S
C1423 C1425 1.419 . S
C1424 C1422 1.415 . S
C1424 C1429 1.425 . S
C1424 C1431 1.409 . S
C1425 H1417 0.930 . S
C1425 C1423 1.419 . S
C1425 C1426 1.362 . S
C1426 H1418 0.930 . S
C1426 C1425 1.362 . S
C1426 C1429 1.409 . S
C1427 H1419 0.930 . S
C1427 C1428 1.355 . S
C1427 C1429 1.415 . S
C1428 C1427 1.355 . S
C1428 C1430 1.419 . S
C1429 C1424 1.425 . S
C1429 C1426 1.409 . S
C1429 C1427 1.415 . S
C1430 H1420 0.930 . S
C1430 C1428 1.419 . S
C1430 C1431 1.362 . S
C1431 H1421 0.930 . S
C1431 C1424 1.409 . S
C1431 C1430 1.362 . S
H1432 C1438 0.930 . S
H1433 C1441 0.930 . S
H1434 C1442 0.930 . S
H1435 C1443 0.930 . S
H1436 C1446 0.930 . S
H1437 C1447 0.930 . S
C1438 H1432 0.930 . S
C1438 C1439 1.355 . S
C1438 C1440 1.415 . S
C1439 C1438 1.355 . S
C1439 C1441 1.419 . S
C1440 C1438 1.415 . S
C1440 C1445 1.425 . S
C1440 C1447 1.409 . S
C1441 H1433 0.930 . S
C1441 C1439 1.419 . S
C1441 C1442 1.362 . S
C1442 H1434 0.930 . S
C1442 C1441 1.362 . S
C1442 C1445 1.409 . S
C1443 H1435 0.930 . S
C1443 C1444 1.355 . S
C1443 C1445 1.415 . S
C1444 C1443 1.355 . S
C1444 C1446 1.419 . S
C1445 C1440 1.425 . S
C1445 C1442 1.409 . S
C1445 C1443 1.415 . S
C1446 H1436 0.930 . S
C1446 C1444 1.419 . S
C1446 C1447 1.362 . S
C1447 H1437 0.930 . S
C1447 C1440 1.409 . S
C1447 C1446 1.362 . S
H1448 C1454 0.930 . S
H1449 C1457 0.930 . S
H1450 C1458 0.930 . S
H1451 C1459 0.930 . S
H1452 C1462 0.930 . S
H1453 C1463 0.930 . S
C1454 H1448 0.930 . S
C1454 C1455 1.355 . S
C1454 C1456 1.415 . S
C1455 C1454 1.355 . S
C1455 C1457 1.419 . S
C1456 C1454 1.415 . S
C1456 C1461 1.425 . S
C1456 C1463 1.409 . S
C1457 H1449 0.930 . S
C1457 C1455 1.419 . S
C1457 C1458 1.362 . S
C1458 H1450 0.930 . S
C1458 C1457 1.362 . S
C1458 C1461 1.409 . S
C1459 H1451 0.930 . S
C1459 C1460 1.355 . S
C1459 C1461 1.415 . S
C1460 C1459 1.355 . S
C1460 C1462 1.419 . S
C1461 C1456 1.425 . S
C1461 C1458 1.409 . S
C1461 C1459 1.415 . S
C1462 H1452 0.930 . S
C1462 C1460 1.419 . S
C1462 C1463 1.362 . S
C1463 H1453 0.930 . S
C1463 C1456 1.409 . S
C1463 C1462 1.362 . S
H1464 C1470 0.930 . S
H1465 C1473 0.930 . S
H1466 C1474 0.930 . S
H1467 C1475 0.930 . S
H1468 C1478 0.930 . S
H1469 C1479 0.930 . S
C1470 H1464 0.930 . S
C1470 C1471 1.355 . S
C1470 C1472 1.415 . S
C1471 C1470 1.355 . S
C1471 C1473 1.419 . S
C1472 C1470 1.415 . S
C1472 C1477 1.425 . S
C1472 C1479 1.409 . S
C1473 H1465 0.930 . S
C1473 C1471 1.419 . S
C1473 C1474 1.362 . S
C1474 H1466 0.930 . S
C1474 C1473 1.362 . S
C1474 C1477 1.409 . S
C1475 H1467 0.930 . S
C1475 C1476 1.355 . S
C1475 C1477 1.415 . S
C1476 C1475 1.355 . S
C1476 C1478 1.419 . S
C1477 C1472 1.425 . S
C1477 C1474 1.409 . S
C1477 C1475 1.415 . S
C1478 H1468 0.930 . S
C1478 C1476 1.419 . S
C1478 C1479 1.362 . S
C1479 H1469 0.930 . S
C1479 C1472 1.409 . S
C1479 C1478 1.362 . S
H1480 C1486 0.930 . S
H1481 C1489 0.930 . S
H1482 C1490 0.930 . S
H1483 C1491 0.930 . S
H1484 C1494 0.930 . S
H1485 C1495 0.930 . S
C1486 H1480 0.930 . S
C1486 C1487 1.355 . S
C1486 C1488 1.415 . S
C1487 C1486 1.355 . S
C1487 C1489 1.419 . S
C1488 C1486 1.415 . S
C1488 C1493 1.425 . S
C1488 C1495 1.409 . S
C1489 H1481 0.930 . S
C1489 C1487 1.419 . S
C1489 C1490 1.362 . S
C1490 H1482 0.930 . S
C1490 C1489 1.362 . S
C1490 C1493 1.409 . S
C1491 H1483 0.930 . S
C1491 C1492 1.355 . S
C1491 C1493 1.415 . S
C1492 C1491 1.355 . S
C1492 C1494 1.419 . S
C1493 C1488 1.425 . S
C1493 C1490 1.409 . S
C1493 C1491 1.415 . S
C1494 H1484 0.930 . S
C1494 C1492 1.419 . S
C1494 C1495 1.362 . S
C1495 H1485 0.930 . S
C1495 C1488 1.409 . S
C1495 C1494 1.362 . S
H1496 C1502 0.930 . S
H1497 C1505 0.930 . S
H1498 C1506 0.930 . S
H1499 C1507 0.930 . S
H1500 C1510 0.930 . S
H1501 C1511 0.926 1_554 S
C1502 H1496 0.930 . S
C1502 C1503 1.355 . S
C1502 C1504 1.415 . S
C1503 C1502 1.355 . S
C1503 C1505 1.419 . S
C1504 C1502 1.415 . S
C1504 C1509 1.425 . S
C1504 C1511 1.409 . S
C1505 H1497 0.930 . S
C1505 C1503 1.419 . S
C1505 C1506 1.362 . S
C1506 H1498 0.930 . S
C1506 C1505 1.362 . S
C1506 C1509 1.409 . S
C1507 H1499 0.930 . S
C1507 C1508 1.355 . S
C1507 C1509 1.415 . S
C1508 C1507 1.355 . S
C1508 C1510 1.419 1_556 S
C1509 C1504 1.425 . S
C1509 C1506 1.409 . S
C1509 C1507 1.415 . S
C1510 H1500 0.930 . S
C1510 C1508 1.419 1_554 S
C1510 C1511 1.362 1_554 S
C1511 H1501 0.926 1_556 S
C1511 C1504 1.409 . S
C1511 C1510 1.362 1_556 S
H1512 C1518 0.930 . S
H1513 C1521 0.930 . S
H1514 C1522 0.930 . S
H1515 C1523 0.930 . S
H1516 C1526 0.930 . S
H1517 C1527 0.930 . S
C1518 H1512 0.930 . S
C1518 C1519 1.355 . S
C1518 C1520 1.415 . S
C1519 C1518 1.355 . S
C1519 C1521 1.419 . S
C1520 C1518 1.415 . S
C1520 C1525 1.425 . S
C1520 C1527 1.409 . S
C1521 H1513 0.930 . S
C1521 C1519 1.419 . S
C1521 C1522 1.362 . S
C1522 H1514 0.930 . S
C1522 C1521 1.362 . S
C1522 C1525 1.409 . S
C1523 H1515 0.930 . S
C1523 C1524 1.355 . S
C1523 C1525 1.415 . S
C1524 C1523 1.355 . S
C1524 C1526 1.419 . S
C1525 C1520 1.425 . S
C1525 C1522 1.409 . S
C1525 C1523 1.415 . S
C1526 H1516 0.930 . S
C1526 C1524 1.419 . S
C1526 C1527 1.362 . S
C1527 H1517 0.930 . S
C1527 C1520 1.409 . S
C1527 C1526 1.362 . S
H1528 C1534 0.930 . S
H1529 C1537 0.930 1_556 S
H1530 C1538 0.930 . S
H1531 C1539 0.930 1_556 S
H1532 C1542 0.930 . S
H1533 C1543 0.930 . S
C1534 H1528 0.930 . S
C1534 C1535 1.355 . S
C1534 C1536 1.415 . S
C1535 C1534 1.355 . S
C1535 C1537 1.419 . S
C1536 C1534 1.415 . S
C1536 C1541 1.425 . S
C1536 C1543 1.409 . S
C1537 H1529 0.930 1_554 S
C1537 C1535 1.419 . S
C1537 C1538 1.362 1_554 S
C1538 H1530 0.930 . S
C1538 C1537 1.362 1_556 S
C1538 C1541 1.409 1_556 S
C1539 H1531 0.930 1_554 S
C1539 C1540 1.355 . S
C1539 C1541 1.415 . S
C1540 C1539 1.355 . S
C1540 C1542 1.419 . S
C1541 C1536 1.425 . S
C1541 C1538 1.409 1_554 S
C1541 C1539 1.415 . S
C1542 H1532 0.930 . S
C1542 C1540 1.419 . S
C1542 C1543 1.362 . S
C1543 H1533 0.930 . S
C1543 C1536 1.409 . S
C1543 C1542 1.362 . S
H1544 C1550 0.930 . S
H1545 C1553 0.930 . S
H1546 C1554 0.930 . S
H1547 C1555 0.930 . S
H1548 C1558 0.935 . S
H1549 C1559 0.949 . S
C1550 H1544 0.930 . S
C1550 C1551 1.355 . S
C1550 C1552 1.415 . S
C1551 C1550 1.355 . S
C1551 C1553 1.419 . S
C1552 C1550 1.415 . S
C1552 C1557 1.425 . S
C1552 C1559 1.392 1_554 S
C1553 H1545 0.930 . S
C1553 C1551 1.419 . S
C1553 C1554 1.362 . S
C1554 H1546 0.930 . S
C1554 C1553 1.362 . S
C1554 C1557 1.409 . S
C1555 H1547 0.930 . S
C1555 C1556 1.355 . S
C1555 C1557 1.415 . S
C1556 C1555 1.355 . S
C1556 C1558 1.415 1_554 S
C1557 C1552 1.425 . S
C1557 C1554 1.409 . S
C1557 C1555 1.415 . S
C1558 H1548 0.935 . S
C1558 C1556 1.415 1_556 S
C1558 C1559 1.364 . S
C1559 H1549 0.949 . S
C1559 C1552 1.392 1_556 S
C1559 C1558 1.364 . S
C804 C635 1.426 . S
C799 C211 1.462 . S
C820 C643 1.201 . S
C815 C255 1.521 . S
C831 C274 1.438 . S
C836 C663 1.440 . S
C852 C677 1.475 . S
C847 C157 1.520 . S
C868 C692 1.524 . S
C863 C391 1.528 . S
C884 C706 1.509 . S
C879 C484 1.496 . S
C895 C450 1.553 . S
C900 C720 1.555 . S
C916 C726 1.457 . S
C911 C352 1.484 . S
C927 C430 1.513 . S
C932 C740 1.500 . S
C948 C761 1.523 . S
C943 C367 1.552 . S
C959 C411 1.487 . S
C964 C741 1.261 . S
C980 C762 1.532 . S
C975 C469 1.525 . S
C991 C294 1.467 . S
C996 C769 1.136 . S
C1007 C177 1.508 . S
C1012 C775 1.470 . S
C1023 C196 1.509 . S
C1028 C768 1.490 . S
C1039 C235 1.483 . S
C1044 C776 1.480 . S
C1055 C133 1.499 . S
C1060 C670 1.474 . S
C1071 C567 1.494 . S
C1076 C671 1.277 . S
C1092 C628 1.487 . S
C1087 C601 1.543 . S
C1108 C649 1.457 . S
C1103 C328 1.460 . S
C1119 C172 1.486 . S
C1124 C684 1.471 . S
C1140 C734 1.524 . S
C1135 C445 1.523 . S
C1156 C685 1.276 . S
C1151 C372 1.470 . S
C1172 C713 1.301 . S
C1167 C489 1.551 . S
C1188 C719 1.461 . S
C1183 C562 1.459 . S
C1199 C606 1.526 . S
C1204 C727 1.289 . S
C1215 C313 1.446 . S
C1220 C691 1.411 . S
C1236 C705 1.518 . S
C1231 C508 1.516 . S
C1247 C118 1.529 . S
C1252 C664 1.529 . S
C1268 C678 1.516 . S
C1263 C16 1.517 . S
C1284 C636 1.554 . S
C1279 C60 1.550 . S
C1300 C642 1.439 . S
C1295 C79 1.481 . S
C1311 C40 1.514 . S
C1316 C754 1.449 . S
C1327 C94 1.554 . S
C1332 C747 1.512 . S
C1343 C138 1.479 . S
C1348 C755 1.174 . S
C1359 C1 1.531 . S
C1364 C748 1.530 . S
C1380 C783 1.192 . S
C1375 C333 1.479 . S
C1396 C789 1.494 . S
C1391 C528 1.507 . S
C1412 C782 1.428 . S
C1407 C547 1.498 . S
C1423 C586 1.482 . S
C1428 C790 1.481 . S
C1439 C406 1.494 . S
C1444 C698 1.437 . S
C1460 C699 1.179 . S
C1455 C216 1.486 . S
C1476 C712 1.466 . S
C1471 C250 1.543 . S
C1492 C733 1.412 . S
C1487 C289 1.460 . S
C1503 C523 1.481 . S
C1508 C656 1.422 1_556 S
C1524 C650 1.523 . S
C1519 C55 1.525 . S
C1535 C99 1.466 . S
C1540 C657 1.206 . S
C1556 C629 1.205 . S
C1551 C21 1.532 . S
