# Generated by pormake.
# Topology pyr, (3,6)-cn, num edge types: 1
# Building blocks:
#     Node 0, Type 0, BuildingBlock: BETDAH_clean_linker_0, # of connection points: 3
#     Node 1, Type 0, BuildingBlock: BETDAH_clean_linker_0, # of connection points: 3
#     Node 2, Type 0, BuildingBlock: BETDAH_clean_linker_0, # of connection points: 3
#     Node 3, Type 0, BuildingBlock: BETDAH_clean_linker_0, # of connection points: 3
#     Node 4, Type 0, BuildingBlock: BETDAH_clean_linker_0, # of connection points: 3
#     Node 5, Type 0, BuildingBlock: BETDAH_clean_linker_0, # of connection points: 3
#     Node 6, Type 0, BuildingBlock: BETDAH_clean_linker_0, # of connection points: 3
#     Node 7, Type 0, BuildingBlock: BETDAH_clean_linker_0, # of connection points: 3
#     Node 8, Type 1, BuildingBlock: BETDIP_clean_sbu_0, # of connection points: 6
#     Node 9, Type 1, BuildingBlock: BETDIP_clean_sbu_0, # of connection points: 6
#     Node 10, Type 1, BuildingBlock: BETDIP_clean_sbu_0, # of connection points: 6
#     Node 11, Type 1, BuildingBlock: BETDIP_clean_sbu_0, # of connection points: 6
#     Edge 12, Type (0, 1), BuildingBlock: XIVTED_clean_linker_0, # of connection points: 2
#     Edge 13, Type (0, 1), BuildingBlock: XIVTED_clean_linker_0, # of connection points: 2
#     Edge 14, Type (0, 1), BuildingBlock: XIVTED_clean_linker_0, # of connection points: 2
#     Edge 15, Type (0, 1), BuildingBlock: XIVTED_clean_linker_0, # of connection points: 2
#     Edge 16, Type (0, 1), BuildingBlock: XIVTED_clean_linker_0, # of connection points: 2
#     Edge 17, Type (0, 1), BuildingBlock: XIVTED_clean_linker_0, # of connection points: 2
#     Edge 18, Type (0, 1), BuildingBlock: XIVTED_clean_linker_0, # of connection points: 2
#     Edge 19, Type (0, 1), BuildingBlock: XIVTED_clean_linker_0, # of connection points: 2
#     Edge 20, Type (0, 1), BuildingBlock: XIVTED_clean_linker_0, # of connection points: 2
#     Edge 21, Type (0, 1), BuildingBlock: XIVTED_clean_linker_0, # of connection points: 2
#     Edge 22, Type (0, 1), BuildingBlock: XIVTED_clean_linker_0, # of connection points: 2
#     Edge 23, Type (0, 1), BuildingBlock: XIVTED_clean_linker_0, # of connection points: 2
#     Edge 24, Type (0, 1), BuildingBlock: XIVTED_clean_linker_0, # of connection points: 2
#     Edge 25, Type (0, 1), BuildingBlock: XIVTED_clean_linker_0, # of connection points: 2
#     Edge 26, Type (0, 1), BuildingBlock: XIVTED_clean_linker_0, # of connection points: 2
#     Edge 27, Type (0, 1), BuildingBlock: XIVTED_clean_linker_0, # of connection points: 2
#     Edge 28, Type (0, 1), BuildingBlock: XIVTED_clean_linker_0, # of connection points: 2
#     Edge 29, Type (0, 1), BuildingBlock: XIVTED_clean_linker_0, # of connection points: 2
#     Edge 30, Type (0, 1), BuildingBlock: XIVTED_clean_linker_0, # of connection points: 2
#     Edge 31, Type (0, 1), BuildingBlock: XIVTED_clean_linker_0, # of connection points: 2
#     Edge 32, Type (0, 1), BuildingBlock: XIVTED_clean_linker_0, # of connection points: 2
#     Edge 33, Type (0, 1), BuildingBlock: XIVTED_clean_linker_0, # of connection points: 2
#     Edge 34, Type (0, 1), BuildingBlock: XIVTED_clean_linker_0, # of connection points: 2
#     Edge 35, Type (0, 1), BuildingBlock: XIVTED_clean_linker_0, # of connection points: 2
# Relax obj value: 0.149
# Max RMSD: 0.220
# Mean RMSD: 0.134
data_MOF--net-pyr--node1-BETDIP_clean_sbu_0--node2-BETDAH_clean_linker_0--edge1-XIVTED_clean_linker_0
_symmetry_space_group_name_H-M    P1
_symmetry_Int_Tables_number       1
_symmetry_cell_setting            triclinic
loop_
_symmetry_equiv_pos_as_xyz
'x, y, z'
_cell_length_a     35.061315
_cell_length_b     40.079748
_cell_length_c     39.432436
_cell_angle_alpha  89.025598
_cell_angle_beta   93.514624
_cell_angle_gamma 111.49378
loop_
_atom_site_label
_atom_site_type_symbol
_atom_site_fract_x
_atom_site_fract_y
_atom_site_fract_z
_atom_type_partial_charge
H0 H 0.39478 0.24362 0.29288 0.0
H1 H 0.43948 0.31073 0.20658 0.0
H2 H 0.36163 0.33577 0.27375 0.0
C3 C 0.39693 0.26703 0.27776 0.0
C4 C 0.37619 0.2892 0.28714 0.0
C5 C 0.41955 0.2743 0.24858 0.0
C6 C 0.42251 0.30488 0.2294 0.0
C7 C 0.40125 0.32674 0.23793 0.0
C8 C 0.3778 0.31871 0.26676 0.0
N9 N 0.4034 0.35615 0.21662 0.0
C10 C 0.37184 0.36924 0.21271 0.0
H11 H 0.24246 0.78539 0.76841 0.0
H12 H 0.14195 0.82199 0.75379 0.0
H13 H 0.15563 0.74788 0.68245 0.0
C14 C 0.21459 0.78435 0.7542 0.0
C15 C 0.20173 0.76374 0.72422 0.0
C16 C 0.19314 0.80532 0.76504 0.0
C17 C 0.15859 0.80584 0.74548 0.0
C18 C 0.14505 0.78509 0.71565 0.0
C19 C 0.16629 0.76376 0.70549 0.0
N20 N 0.11074 0.78584 0.69505 0.0
C21 C 0.0977 0.81464 0.69528 0.0
H22 H 0.69533 0.36967 0.95562 0.0
H23 H 0.70656 0.44182 0.87128 0.0
H24 H 0.61736 0.33433 0.86472 0.0
C25 C 0.68451 0.37528 0.93065 0.0
C26 C 0.65301 0.34784 0.91263 0.0
C27 C 0.70395 0.40933 0.9163 0.0
C28 C 0.6914 0.41604 0.88295 0.0
C29 C 0.66003 0.38873 0.86439 0.0
C30 C 0.6414 0.35498 0.87933 0.0
N31 N 0.64862 0.39257 0.82968 0.0
C32 C 0.6474 0.42345 0.81349 0.0
H33 H 0.84282 0.77174 0.44368 0.0
H34 H 0.94647 0.79267 0.38301 0.0
H35 H 0.84598 0.69089 0.37404 0.0
C36 C 0.85788 0.7634 0.4241 0.0
C37 C 0.83914 0.72876 0.40976 0.0
C38 C 0.89656 0.78678 0.41487 0.0
C39 C 0.9166 0.775 0.39056 0.0
C40 C 0.89866 0.74088 0.37527 0.0
C41 C 0.8598 0.71747 0.38513 0.0
N42 N 0.92237 0.7315 0.35155 0.0
C43 C 0.91026 0.70385 0.32738 0.0
H44 H 0.76816 0.82505 0.89522 0.0
H45 H 0.66723 0.77033 0.95714 0.0
H46 H 0.65412 0.84187 0.87875 0.0
C47 C 0.73705 0.82 0.90204 0.0
C48 C 0.71312 0.83623 0.8835 0.0
C49 C 0.72095 0.79642 0.92874 0.0
C50 C 0.67999 0.7883 0.93642 0.0
C51 C 0.65612 0.80512 0.91888 0.0
C52 C 0.67269 0.82897 0.89237 0.0
N53 N 0.61607 0.79885 0.92914 0.0
C54 C 0.60136 0.82657 0.93011 0.0
H55 H 0.89321 0.2684 0.3572 0.0
H56 H 0.92103 0.31782 0.45625 0.0
H57 H 0.84777 0.35077 0.38149 0.0
C58 C 0.89138 0.28807 0.37493 0.0
C59 C 0.86917 0.30989 0.36512 0.0
C60 C 0.90984 0.29033 0.40782 0.0
C61 C 0.9074 0.31594 0.43059 0.0
C62 C 0.88458 0.33731 0.42145 0.0
C63 C 0.86528 0.33413 0.38871 0.0
N64 N 0.88046 0.36096 0.44604 0.0
C65 C 0.84478 0.36812 0.44791 0.0
H66 H 0.35361 0.76982 0.20437 0.0
H67 H 0.35703 0.69589 0.2843 0.0
H68 H 0.45693 0.79733 0.27666 0.0
C69 C 0.36907 0.76308 0.22654 0.0
C70 C 0.40732 0.78782 0.23844 0.0
C71 C 0.35019 0.72998 0.24283 0.0
C72 C 0.37097 0.72122 0.27152 0.0
C73 C 0.40959 0.74585 0.28383 0.0
C74 C 0.42716 0.7788 0.26718 0.0
N75 N 0.43241 0.73938 0.31272 0.0
C76 C 0.42189 0.70975 0.33424 0.0
H77 H 0.2026 0.36323 0.71416 0.0
H78 H 0.20046 0.44347 0.78494 0.0
H79 H 0.10035 0.34129 0.7766 0.0
C80 C 0.1879 0.37134 0.73417 0.0
C81 C 0.14964 0.34771 0.74391 0.0
C82 C 0.20668 0.40592 0.74854 0.0
C83 C 0.18658 0.4169 0.77384 0.0
C84 C 0.1481 0.3932 0.78422 0.0
C85 C 0.12999 0.35916 0.76876 0.0
N86 N 0.12478 0.40232 0.80848 0.0
C87 C 0.13761 0.42886 0.83377 0.0
Tb88 Tb 0.97689 0.05412 0.57955 0.0
Tb89 Tb 0.06596 0.08548 0.57209 0.0
C90 C 0.90383 1.01348 0.58714 0.0
C91 C 0.88188 0.99803 0.61754 0.0
C92 C 0.8462 0.96717 0.61493 0.0
C93 C 0.82592 0.95196 0.64408 0.0
C94 C 0.84104 0.96747 0.6763 0.0
C95 C 0.87672 0.99866 0.6786 0.0
C96 C 0.89708 1.01364 0.64954 0.0
C97 C 0.0148 0.11414 0.61486 0.0
C98 C 0.0372 0.02736 0.62661 0.0
C99 C 0.13948 0.12646 0.56644 0.0
C100 C 0.16405 0.14946 0.5401 0.0
C101 C 0.14919 0.1714 0.51936 0.0
C102 C 0.17279 0.19192 0.49373 0.0
C103 C 0.21158 0.19072 0.48829 0.0
C104 C 0.22628 0.16878 0.50931 0.0
C105 C 0.2028 0.14848 0.53497 0.0
C106 C 0.02787 0.02468 0.53788 0.0
C107 C 0.00553 0.11041 0.5237 0.0
O108 O 0.9327 1.00183 0.57996 0.0
O109 O 0.9157 0.04831 0.58463 0.0
O110 O 0.02818 0.08931 0.61098 0.0
O111 O 0.97792 0.10425 0.60129 0.0
O112 O 0.99988 0.02013 0.61244 0.0
O113 O 0.06794 0.05676 0.61884 0.0
O114 O 0.11191 0.13646 0.57948 0.0
O115 O 0.12575 0.09208 0.56014 0.0
O116 O 0.0147 0.04976 0.54102 0.0
O117 O 0.0647 0.03462 0.5517 0.0
O118 O 0.04255 0.11916 0.53895 0.0
O119 O 0.97566 0.08028 0.53118 0.0
H120 H 0.83428 0.95466 0.59042 0.0
H121 H 0.79892 0.92763 0.64142 0.0
H122 H 0.88892 1.01164 0.70286 0.0
H123 H 0.92478 0.03743 0.65204 0.0
H124 H 0.11931 0.17254 0.5228 0.0
H125 H 0.16068 0.20877 0.47827 0.0
H126 H 0.25558 0.16657 0.50548 0.0
H127 H 0.21468 0.13152 0.55056 0.0
Tb128 Tb 0.56645 0.0811 0.08267 0.0
Tb129 Tb 0.4781 0.05137 0.05973 0.0
C130 C 0.64268 0.11477 0.08791 0.0
C131 C 0.66892 0.14663 0.10735 0.0
C132 C 0.65308 0.1719 0.11814 0.0
C133 C 0.67672 0.19969 0.14019 0.0
C134 C 0.71651 0.20254 0.15191 0.0
C135 C 0.73273 0.17792 0.13989 0.0
C136 C 0.70908 0.15019 0.11782 0.0
C137 C 0.52202 0.02483 0.11741 0.0
C138 C 0.50809 0.105 0.1226 0.0
C139 C 0.40152 0.02119 0.05131 0.0
C140 C 0.37467 1.00057 1.0229 0.0
C141 C 0.33755 0.97283 1.02928 0.0
C142 C 0.31302 0.9517 1.0025 0.0
C143 C 0.32523 0.95822 0.96895 0.0
C144 C 0.36227 0.98633 0.96267 0.0
C145 C 0.38691 1.00717 0.98943 0.0
C146 C 0.5239 0.10802 1.0259 0.0
C147 C 0.53557 0.02434 1.02103 0.0
O148 O 0.61861 0.12 0.06337 0.0
O149 O 0.62369 0.08681 0.1063 0.0
O150 O 0.51854 0.0294 0.0858 0.0
O151 O 0.55288 0.05156 0.13037 0.0
O152 O 0.54583 0.11532 0.1125 0.0
O153 O 0.4782 0.07698 0.10858 0.0
O154 O 0.42506 1.00604 0.0667 0.0
O155 O 0.42132 0.0553 0.04569 0.0
O156 O 0.52589 0.10293 0.05739 0.0
O157 O 0.49387 0.08126 1.01205 0.0
O158 O 0.49709 0.01827 1.02727 0.0
O159 O 0.56669 0.04915 1.03788 0.0
H160 H 0.62204 0.16955 0.11034 0.0
H161 H 0.66351 0.21843 0.14866 0.0
H162 H 0.76298 0.17896 0.14881 0.0
H163 H 0.72162 0.13073 0.10993 0.0
H164 H 0.32782 0.96721 0.055 0.0
H165 H 0.28455 0.93028 1.00802 0.0
H166 H 0.37278 0.99158 0.93716 0.0
H167 H 0.41581 0.0281 0.98402 0.0
Tb168 Tb 0.52875 0.60145 0.59379 0.0
Tb169 Tb 0.5182 0.52623 0.56474 0.0
C170 C 0.51889 0.6571 0.61252 0.0
C171 C 0.4832 0.6654 0.62137 0.0
C172 C 0.4441 0.64751 0.60551 0.0
C173 C 0.4102 0.65457 0.61551 0.0
C174 C 0.41481 0.67926 0.64179 0.0
C175 C 0.45404 0.6971 0.65752 0.0
C176 C 0.48793 0.69026 0.64733 0.0
C177 C 0.56734 0.56453 0.6282 0.0
C178 C 0.44915 0.53242 0.60953 0.0
C179 C 0.52986 0.46853 0.55965 0.0
C180 C 0.55167 0.45374 0.53714 0.0
C181 C 0.58247 0.47649 0.51729 0.0
C182 C 0.60819 0.46321 0.50084 0.0
C183 C 0.60334 0.42684 0.50376 0.0
C184 C 0.5705 0.40372 0.52178 0.0
C185 C 0.54507 0.41714 0.53849 0.0
C186 C 0.48726 0.56195 0.52013 0.0
C187 C 0.59239 0.59688 0.54285 0.0
O188 O 0.52036 0.64925 0.58062 0.0
O189 O 0.52887 0.63558 0.6335 0.0
O190 O 0.53246 0.55266 0.61285 0.0
O191 O 0.58184 0.59923 0.62551 0.0
O192 O 0.46612 0.56794 0.60733 0.0
O193 O 0.46586 0.5109 0.5967 0.0
O194 O 0.5537 0.49581 0.5784 0.0
O195 O 0.49672 0.47309 0.54664 0.0
O196 O 0.50361 0.57101 0.54952 0.0
O197 O 0.48766 0.53018 0.5148 0.0
O198 O 0.57779 0.56142 0.54648 0.0
O199 O 0.57574 0.6178 0.55682 0.0
H200 H 0.43968 0.62782 0.5857 0.0
H201 H 0.38027 0.64021 0.60318 0.0
H202 H 0.45857 0.71655 0.67758 0.0
H203 H 0.51782 0.70414 0.65996 0.0
H204 H 0.58794 0.50485 0.51588 0.0
H205 H 0.63325 0.48192 0.48748 0.0
H206 H 0.56527 0.37543 0.52393 0.0
H207 H 0.52131 0.39917 0.55361 0.0
Tb208 Tb 0.02782 0.59562 0.06239 0.0
Tb209 Tb 0.02262 0.53211 0.10361 0.0
C210 C 0.01322 0.64367 1.0284 0.0
C211 C 0.98237 0.66039 1.02759 0.0
C212 C 0.94477 0.64372 0.04258 0.0
C213 C 0.91456 0.65882 0.03935 0.0
C214 C 0.92161 0.69083 1.02117 0.0
C215 C 0.95982 0.70779 1.00699 0.0
C216 C 0.9899 0.69266 1.01019 0.0
C217 C 0.0975 0.60163 0.09673 0.0
C218 C 0.98865 0.5858 0.1349 0.0
C219 C 0.03614 0.48354 0.13777 0.0
C220 C 0.06912 0.46927 0.1415 0.0
C221 C 0.10662 0.48668 0.12664 0.0
C222 C 0.13902 0.47455 0.13282 0.0
C223 C 0.13443 0.44489 0.15404 0.0
C224 C 0.09639 0.42713 0.16822 0.0
C225 C 0.06404 0.43927 0.16199 0.0
C226 C 0.95354 0.52685 0.06872 0.0
C227 C 0.06233 0.54253 1.03114 0.0
O228 O 0.99954 0.60989 1.01935 0.0
O229 O 0.03867 0.65033 0.05528 0.0
O230 O 0.06176 0.58719 0.10694 0.0
O231 O 0.09479 0.6152 0.06703 0.0
O232 O 0.99019 0.59974 0.10402 0.0
O233 O 1.00357 0.56043 0.1418 0.0
O234 O 0.0461 0.51647 0.14849 0.0
O235 O 0.01484 0.47773 0.10861 0.0
O236 O 0.98944 0.54061 0.05904 0.0
O237 O 0.95525 0.51303 0.09842 0.0
O238 O 0.0612 0.52878 0.06214 0.0
O239 O 0.04686 0.56752 1.0242 0.0
H240 H 0.9385 0.61872 0.05617 0.0
H241 H 0.88561 0.64531 0.05082 0.0
H242 H 0.96601 0.73215 0.99238 0.0
H243 H 0.01873 0.70575 0.99839 0.0
H244 H 0.11108 0.51003 0.11084 0.0
H245 H 0.16772 0.48852 0.12115 0.0
H246 H 0.09199 0.40452 0.18501 0.0
H247 H 0.03534 0.42574 0.17385 0.0
H248 H 0.29683 0.28407 0.29348 0.0
H249 H 0.29513 0.2257 0.48866 0.0
H250 H 0.40136 0.27479 0.35057 0.0
H251 H 0.18454 0.20272 0.42389 0.0
H252 H 0.33565 0.2543 0.44084 0.0
H253 H 0.25649 0.26495 0.34388 0.0
C254 C 0.31136 0.27843 0.31676 0.0
C255 C 0.35231 0.28072 0.31792 0.0
C256 C 0.30249 0.24316 0.43716 0.0
C257 C 0.30665 0.25899 0.37536 0.0
C258 C 0.2793 0.22665 0.46441 0.0
C259 C 0.23629 0.21126 0.46026 0.0
C260 C 0.28265 0.24459 0.40547 0.0
C261 C 0.21755 0.21432 0.4284 0.0
C262 C 0.28834 0.26735 0.34538 0.0
C263 C 0.36971 0.27293 0.34857 0.0
N264 N 0.24086 0.23046 0.40217 0.0
N265 N 0.34678 0.26236 0.37606 0.0
H266 H 0.20271 0.87561 0.77381 0.0
H267 H 0.29034 0.885 0.96718 0.0
H268 H 0.21718 0.78563 0.82701 0.0
H269 H 0.30416 0.97868 0.90619 0.0
H270 H 0.25373 0.84703 0.91867 0.0
H271 H 0.23039 0.91262 0.82483 0.0
C272 C 0.21135 0.86358 0.79636 0.0
C273 C 0.20786 0.82758 0.79621 0.0
C274 C 0.2646 0.8759 0.91596 0.0
C275 C 0.2396 0.86969 0.85448 0.0
C276 C 0.28521 0.89756 0.94369 0.0
C277 C 0.30043 0.93501 0.9406 0.0
C278 C 0.2589 0.89182 0.88503 0.0
C279 C 0.29334 0.94989 0.90948 0.0
C280 C 0.22734 0.88474 0.82536 0.0
C281 C 0.21985 0.8134 0.82597 0.0
N282 N 0.27313 0.92825 0.88287 0.0
N283 N 0.23521 0.8345 0.85392 0.0
H284 H 0.69743 0.48967 0.79162 0.0
H285 H 0.52793 0.49523 0.6472 0.0
H286 H 0.57495 0.41058 0.77972 0.0
H287 H 0.63847 0.58701 0.66982 0.0
H288 H 0.54813 0.46261 0.69326 0.0
H289 H 0.67951 0.52526 0.74588 0.0
C290 C 0.66666 0.48013 0.77969 0.0
C291 C 0.63739 0.44745 0.78956 0.0
C292 C 0.56815 0.48985 0.68822 0.0
C293 C 0.61701 0.48723 0.73694 0.0
C294 C 0.55671 0.50846 0.6617 0.0
C295 C 0.58155 0.54395 0.65455 0.0
C296 C 0.60493 0.50661 0.70793 0.0
C297 C 0.61841 0.55968 0.67443 0.0
C298 C 0.65649 0.50028 0.75352 0.0
C299 C 0.59822 0.43586 0.77302 0.0
N300 N 0.62902 0.54094 0.70021 0.0
N301 N 0.58925 0.45556 0.74751 0.0
H302 H 0.8973 0.71491 0.26033 0.0
H303 H 0.98171 0.56464 0.20173 0.0
H304 H 0.92822 0.64331 0.3296 0.0
H305 H 0.95573 0.63897 0.13225 0.0
H306 H 0.95667 0.58964 0.24779 0.0
H307 H 0.91197 0.68382 0.21247 0.0
C308 C 0.90616 0.69201 0.26537 0.0
C309 C 0.91083 0.68123 0.29891 0.0
C310 C 0.95621 0.60042 0.22247 0.0
C311 C 0.92895 0.64606 0.24429 0.0
C312 C 0.97054 0.58609 0.196 0.0
C313 C 0.97111 0.59968 0.1628 0.0
C314 C 0.94219 0.62874 0.21605 0.0
C315 C 0.95608 0.62757 0.1573 0.0
C316 C 0.91494 0.67446 0.23806 0.0
C317 C 0.92352 0.65206 0.30408 0.0
N318 N 0.94246 0.64119 0.18356 0.0
N319 N 0.93229 0.63564 0.27717 0.0
H320 H 0.49531 0.28845 0.22369 0.0
H321 H 0.43649 0.0893 0.15455 0.0
H322 H 0.38319 0.20134 0.2453 0.0
H323 H 0.55688 0.17132 0.1474 0.0
H324 H 0.41799 0.12913 0.19073 0.0
H325 H 0.52011 0.24547 0.19822 0.0
C326 C 0.47609 0.26024 0.22331 0.0
C327 C 0.43709 0.24846 0.23648 0.0
C328 C 0.44861 0.1383 0.18155 0.0
C329 C 0.46509 0.1992 0.20733 0.0
C330 C 0.45917 0.11556 0.16084 0.0
C331 C 0.49814 0.12712 0.14764 0.0
C332 C 0.47704 0.17301 0.18882 0.0
C333 C 0.5264 0.16134 0.15687 0.0
C334 C 0.49029 0.23571 0.20892 0.0
C335 C 0.41359 0.21157 0.23569 0.0
N336 N 0.51512 0.18325 0.17657 0.0
N337 N 0.42778 0.18833 0.22103 0.0
H338 H 0.0218 0.81739 0.68739 0.0
H339 H 0.11117 0.02823 0.65469 0.0
H340 H 0.15027 0.88309 0.69983 0.0
H341 H 0.98192 0.96293 0.64645 0.0
H342 H 0.12524 0.97732 0.67937 0.0
H343 H 0.00561 0.87175 0.67962 0.0
C344 C 0.04646 0.84342 0.68885 0.0
C345 C 0.08729 0.84619 0.69397 0.0
C346 C 0.09373 0.97429 0.67263 0.0
C347 C 0.06944 0.90817 0.68491 0.0
C348 C 0.08564 1.00344 0.65867 0.0
C349 C 0.04536 0.99973 0.64798 0.0
C350 C 0.06134 0.94114 0.67573 0.0
C351 C 0.01353 0.96694 0.6539 0.0
C352 C 0.03733 0.8744 0.68445 0.0
C353 C 0.11837 0.88019 0.69572 0.0
N354 N 0.02227 0.93879 0.66691 0.0
N355 N 0.10886 0.90995 0.69087 0.0
H356 H 0.78034 0.45127 0.89531 0.0
H357 H 0.87422 0.4965 0.08625 0.0
H358 H 0.70767 0.42798 0.98316 0.0
H359 H 0.94692 0.53448 0.99944 0.0
H360 H 0.81231 0.475 0.04823 0.0
H361 H 0.8408 0.48627 0.93173 0.0
C362 C 0.77689 0.45416 0.92209 0.0
C363 C 0.73894 0.43629 0.93624 0.0
C364 C 0.8417 0.48831 1.03739 0.0
C365 C 0.80812 0.4757 0.9782 0.0
C366 C 0.87707 0.50055 0.05915 0.0
C367 C 0.91576 0.51701 0.04598 0.0
C368 C 0.84492 0.49212 1.00202 0.0
C369 C 0.91766 0.52179 1.01064 0.0
C370 C 0.81149 0.47392 0.94294 0.0
C371 C 0.73643 0.44077 0.97121 0.0
N372 N 0.88281 0.50903 0.98985 0.0
N373 N 0.7705 0.45958 0.99095 0.0
H374 H 0.77147 0.74567 0.41711 0.0
H375 H 0.64482 0.56715 0.51752 0.0
H376 H 0.81487 0.65852 0.43207 0.0
H377 H 0.6212 0.66549 0.51829 0.0
H378 H 0.70223 0.59609 0.48112 0.0
H379 H 0.7106 0.71204 0.44739 0.0
C380 C 0.76792 0.71917 0.42643 0.0
C381 C 0.79864 0.7051 0.42225 0.0
C382 C 0.68442 0.61126 0.48928 0.0
C383 C 0.72862 0.66623 0.45752 0.0
C384 C 0.65157 0.59475 0.51008 0.0
C385 C 0.62801 0.61386 0.52126 0.0
C386 C 0.69358 0.64704 0.47918 0.0
C387 C 0.63845 0.64962 0.51068 0.0
C388 C 0.73316 0.7 0.44391 0.0
C389 C 0.79197 0.67039 0.43458 0.0
N390 N 0.6702 0.66488 0.4903 0.0
N391 N 0.75789 0.65227 0.45193 0.0
H392 H 0.37529 0.43742 0.20595 0.0
H393 H 0.13348 0.37623 0.15952 0.0
H394 H 0.29201 0.32731 0.2044 0.0
H395 H 0.21533 0.48695 0.16783 0.0
H396 H 0.19123 0.35778 0.17534 0.0
H397 H 0.31711 0.45635 0.19171 0.0
C398 C 0.34457 0.41735 0.20279 0.0
C399 C 0.33793 0.38093 0.20632 0.0
C400 C 0.19658 0.38612 0.17369 0.0
C401 C 0.27167 0.40198 0.18983 0.0
C402 C 0.16357 0.39668 0.16476 0.0
C403 C 0.16951 0.43321 0.16234 0.0
C404 C 0.23591 0.41226 0.18025 0.0
C405 C 0.20937 0.45849 0.16891 0.0
C406 C 0.31146 0.42805 0.19461 0.0
C407 C 0.29797 0.35571 0.20189 0.0
N408 N 0.24101 0.44754 0.17759 0.0
N409 N 0.26623 0.3667 0.19376 0.0
H410 H 0.62466 0.28076 0.88203 0.0
H411 H 0.57196 0.17185 0.05582 0.0
H412 H 0.63613 0.3318 0.97973 0.0
H413 H 0.52327 0.12348 0.95794 0.0
H414 H 0.60338 0.22987 1.02808 0.0
H415 H 0.59381 0.22234 0.90899 0.0
C416 C 0.6205 0.2799 0.90904 0.0
C417 C 0.63328 0.31168 0.92847 0.0
C418 C 0.58587 0.20658 1.01263 0.0
C419 C 0.59874 0.24436 0.95969 0.0
C420 C 0.56808 0.17341 1.02844 0.0
C421 C 0.54485 0.14283 1.00914 0.0
C422 C 0.58084 0.20921 0.97716 0.0
C423 C 0.54083 0.14644 0.97376 0.0
C424 C 0.60309 0.24638 0.92446 0.0
C425 C 0.62766 0.30831 0.96361 0.0
N426 N 0.55869 0.17899 0.95888 0.0
N427 N 0.61107 0.27541 0.97801 0.0
H428 H 0.97733 0.8209 0.43741 0.0
H429 H 0.94957 0.9978 0.50698 0.0
H430 H 0.86105 0.83529 0.43063 0.0
H431 H 0.05918 0.97367 0.52519 0.0
H432 H 0.91716 0.94046 0.47603 0.0
H433 H 0.00866 0.87902 0.46606 0.0
C434 C 0.95839 0.83637 0.44165 0.0
C435 C 0.91637 0.82295 0.43148 0.0
C436 C 0.94832 0.94778 0.48678 0.0
C437 C 0.95221 0.88988 0.46482 0.0
C438 C 0.96681 0.98051 0.5044 0.0
C439 C 0.00715 0.99057 0.51865 0.0
C440 C 0.97047 0.92507 0.48321 0.0
C441 C 0.02805 0.96708 0.5146 0.0
C442 C 0.97628 0.86955 0.45829 0.0
C443 C 0.89342 0.84424 0.43829 0.0
N444 N 0.00958 0.93563 0.49728 0.0
N445 N 0.91158 0.87655 0.45444 0.0
H446 H 0.24136 0.72595 0.76097 0.0
H447 H 0.35413 0.69125 0.6022 0.0
H448 H 0.22053 0.75795 0.65853 0.0
H449 H 0.39395 0.68364 0.70678 0.0
H450 H 0.29727 0.70637 0.62149 0.0
H451 H 0.28966 0.70094 0.74045 0.0
C452 C 0.24677 0.72758 0.73414 0.0
C453 C 0.22713 0.74447 0.71153 0.0
C454 C 0.31835 0.70121 0.64019 0.0
C455 C 0.28218 0.71557 0.68783 0.0
C456 C 0.35065 0.69243 0.62921 0.0
C457 C 0.37895 0.6865 0.65295 0.0
C458 C 0.31416 0.70376 0.67516 0.0
C459 C 0.37318 0.68858 0.68764 0.0
C460 C 0.27427 0.71321 0.72244 0.0
C461 C 0.23468 0.74501 0.67689 0.0
N462 N 0.3415 0.6971 0.6977 0.0
N463 N 0.26182 0.73102 0.66614 0.0
H464 H 0.79037 0.88714 0.87994 0.0
H465 H 0.75822 0.93529 0.68516 0.0
H466 H 0.67539 0.83963 0.82112 0.0
H467 H 0.87682 0.96136 0.73872 0.0
H468 H 0.72554 0.9064 0.73651 0.0
H469 H 0.8205 0.92164 0.8303 0.0
C470 C 0.77142 0.88399 0.85658 0.0
C471 C 0.73042 0.86006 0.85457 0.0
C472 C 0.7587 0.9186 0.73698 0.0
C473 C 0.76469 0.89979 0.79767 0.0
C474 C 0.77742 0.93491 0.70763 0.0
C475 C 0.82041 0.95075 0.70749 0.0
C476 C 0.78311 0.91825 0.76647 0.0
C477 C 0.84361 0.95 0.73764 0.0
C478 C 0.78863 0.90378 0.82827 0.0
C479 C 0.70706 0.85782 0.82386 0.0
N480 N 0.82467 0.934 0.76583 0.0
N481 N 0.72461 0.87725 0.79653 0.0
H482 H 0.78969 0.30292 0.34827 0.0
H483 H 0.79919 0.24247 0.15792 0.0
H484 H 0.90049 0.30576 0.30428 0.0
H485 H 0.68663 0.22206 0.20779 0.0
H486 H 0.83763 0.27791 0.20716 0.0
H487 H 0.75275 0.28599 0.29271 0.0
C488 C 0.80639 0.30068 0.32674 0.0
C489 C 0.84803 0.30525 0.33088 0.0
C490 C 0.80446 0.26606 0.20711 0.0
C491 C 0.80603 0.28557 0.26751 0.0
C492 C 0.78252 0.24572 0.17907 0.0
C493 C 0.73966 0.22879 0.1789 0.0
C494 C 0.78343 0.26944 0.23525 0.0
C495 C 0.7196 0.23465 0.20669 0.0
C496 C 0.78528 0.2908 0.29512 0.0
C497 C 0.86819 0.30183 0.30223 0.0
N498 N 0.7417 0.25412 0.2339 0.0
N499 N 0.84691 0.29185 0.27183 0.0
H500 H 0.42034 0.6417 0.32817 0.0
H501 H 0.47662 0.62662 0.52748 0.0
H502 H 0.42736 0.7222 0.40172 0.0
H503 H 0.46577 0.5454 0.45348 0.0
H504 H 0.45583 0.66104 0.48276 0.0
H505 H 0.43283 0.60437 0.37442 0.0
C506 C 0.42364 0.6511 0.35418 0.0
C507 C 0.42225 0.68472 0.36131 0.0
C508 C 0.45798 0.63566 0.4763 0.0
C509 C 0.43775 0.6428 0.41435 0.0
C510 C 0.47018 0.61616 0.50187 0.0
C511 C 0.47362 0.58337 0.49423 0.0
C512 C 0.4491 0.62223 0.44276 0.0
C513 C 0.46379 0.57066 0.46058 0.0
C514 C 0.43112 0.62998 0.38059 0.0
C515 C 0.42766 0.69613 0.39531 0.0
N516 N 0.45222 0.59009 0.43619 0.0
N517 N 0.4354 0.67536 0.42053 0.0
H518 H 0.14825 0.4137 0.90018 0.0
H519 H 0.07143 0.56622 0.96529 0.0
H520 H 0.12347 0.49116 0.83454 0.0
H521 H 0.09308 0.48778 1.03207 0.0
H522 H 0.09586 0.54206 0.91841 0.0
H523 H 0.1346 0.44349 0.94954 0.0
C524 C 0.14097 0.43758 0.89629 0.0
C525 C 0.13771 0.4504 0.86331 0.0
C526 C 0.09553 0.53017 0.9433 0.0
C527 C 0.12078 0.48412 0.91961 0.0
C528 C 0.08153 0.54401 0.97028 0.0
C529 C 0.0799 0.52905 1.00297 0.0
C530 C 0.10812 0.50089 0.94863 0.0
C531 C 0.09363 0.50027 1.00745 0.0
C532 C 0.13278 0.45439 0.92444 0.0
C533 C 0.12704 0.4808 0.85959 0.0
N534 N 0.1069 0.48707 0.98066 0.0
N535 N 0.11879 0.49647 0.88729 0.0
H536 H 0.65369 0.89489 0.93393 0.0
H537 H 0.48022 0.96564 0.98742 0.0
H538 H 0.52566 0.82828 0.93636 0.0
H539 H 0.6104 0.02595 1.00252 0.0
H540 H 0.49529 0.91957 0.95745 0.0
H541 H 0.63715 0.94721 0.94811 0.0
C542 C 0.62199 0.89156 0.93699 0.0
C543 C 0.59087 0.85766 0.9342 0.0
C544 C 0.52053 0.94308 0.96699 0.0
C545 C 0.57173 0.91677 0.9506 0.0
C546 C 0.51199 0.96951 0.98403 0.0
C547 C 0.54414 0.9995 0.99803 0.0
C548 C 0.5615 0.94665 0.96385 0.0
C549 C 0.58463 1.00311 0.99254 0.0
C550 C 0.61256 0.92128 0.94514 0.0
C551 C 0.55034 0.85425 0.9384 0.0
N552 N 0.59216 0.97679 0.97618 0.0
N553 N 0.54188 0.88351 0.94667 0.0
H554 H 0.87893 0.21808 0.39617 0.0
H555 H 0.05311 0.18065 0.51321 0.0
H556 H 0.98178 0.30176 0.44614 0.0
H557 H 0.93717 0.09875 0.48107 0.0
H558 H 0.03367 0.22462 0.48014 0.0
H559 H 0.9062 0.17373 0.41865 0.0
C560 C 0.90763 0.2272 0.41145 0.0
C561 C 0.92812 0.26372 0.41932 0.0
C562 C 0.0127 0.19695 0.48004 0.0
C563 C 0.9592 0.21291 0.44556 0.0
C564 C 0.02388 0.17173 0.49871 0.0
C565 C 0.99663 0.13596 0.50005 0.0
C566 C 0.97405 0.18629 0.46247 0.0
C567 C 0.95901 0.12608 0.48097 0.0
C568 C 0.923 0.20181 0.42449 0.0
C569 C 0.9648 0.27386 0.43976 0.0
N570 N 0.94873 0.15116 0.46313 0.0
N571 N 0.97912 0.24856 0.45228 0.0
H572 H 0.3209 0.65615 0.23309 0.0
H573 H 0.16729 0.65874 0.08612 0.0
H574 H 0.28513 0.74801 0.21995 0.0
H575 H 0.11352 0.57645 0.15959 0.0
H576 H 0.22657 0.68578 0.12609 0.0
H577 H 0.25757 0.61982 0.19972 0.0
C578 C 0.29956 0.66854 0.22382 0.0
C579 C 0.30898 0.70548 0.22872 0.0
C580 C 0.20195 0.66153 0.13321 0.0
C581 C 0.23767 0.66447 0.19012 0.0
C582 C 0.16817 0.646 0.11045 0.0
C583 C 0.1352 0.61542 0.11964 0.0
C584 C 0.20345 0.64597 0.1651 0.0
C585 C 0.13819 0.60015 0.15163 0.0
C586 C 0.26366 0.64785 0.2047 0.0
C587 C 0.28005 0.72001 0.21596 0.0
N588 N 0.17186 0.61556 0.17334 0.0
N589 N 0.24636 0.69976 0.19666 0.0
H590 H 0.27486 0.38993 0.74172 0.0
H591 H 0.39919 0.56447 0.63558 0.0
H592 H 0.22893 0.47514 0.72372 0.0
H593 H 0.41617 0.46325 0.63188 0.0
H594 H 0.34242 0.53715 0.67317 0.0
H595 H 0.33399 0.42237 0.70903 0.0
C596 C 0.27761 0.41585 0.73132 0.0
C597 C 0.24665 0.42966 0.73532 0.0
C598 C 0.35857 0.521 0.66398 0.0
C599 C 0.31451 0.46706 0.69715 0.0
C600 C 0.39094 0.53652 0.64243 0.0
C601 C 0.41258 0.51616 0.63025 0.0
C602 C 0.34819 0.48503 0.67391 0.0
C603 C 0.40045 0.4801 0.64026 0.0
C604 C 0.31127 0.43428 0.71239 0.0
C605 C 0.25212 0.46356 0.72142 0.0
N606 N 0.36944 0.4659 0.66151 0.0
N607 N 0.28519 0.48099 0.70267 0.0
H608 H 0.79837 0.83204 0.95582 0.0
H609 H 0.83965 0.65418 1.00526 0.0
H610 H 0.70429 0.72639 0.94734 0.0
H611 H 0.92862 0.76115 1.02294 0.0
H612 H 0.78774 0.67969 0.9888 0.0
H613 H 0.84476 0.80641 0.98458 0.0
C614 C 0.7875 0.80338 0.96016 0.0
C615 C 0.74769 0.78119 0.94883 0.0
C616 C 0.8185 0.69755 0.99664 0.0
C617 C 0.80059 0.75156 0.98175 0.0
C618 C 0.84812 0.68301 1.00624 0.0
C619 C 0.88869 0.7056 1.01513 0.0
C620 C 0.8296 0.73495 0.99577 0.0
C621 C 0.89796 0.74275 1.01558 0.0
C622 C 0.8139 0.78876 0.97672 0.0
C623 C 0.73481 0.74437 0.95565 0.0
N624 N 0.86876 0.75625 1.00572 0.0
N625 N 0.7614 0.7306 0.97134 0.0
H626 H 0.44997 0.85451 0.26701 0.0
H627 H 0.4712 0.96019 0.08996 0.0
H628 H 0.40687 0.80212 0.16976 0.0
H629 H 0.53013 1.01046 0.18485 0.0
H630 H 0.44367 0.90257 0.11932 0.0
H631 H 0.47717 0.91212 0.23791 0.0
C632 C 0.44647 0.85496 0.23955 0.0
C633 C 0.42583 0.82315 0.22096 0.0
C634 C 0.46255 0.9262 0.13377 0.0
C635 C 0.4564 0.88947 0.18738 0.0
C636 C 0.4781 0.95913 0.11702 0.0
C637 C 0.50302 0.99015 0.135 0.0
C638 C 0.4718 0.92424 0.16881 0.0
C639 C 0.51112 0.98718 0.17001 0.0
C640 C 0.46178 0.888 0.22294 0.0
C641 C 0.4218 0.82582 0.18536 0.0
N642 N 0.4956 0.95488 0.18575 0.0
N643 N 0.43678 0.85827 0.16984 0.0
H644 H 0.18553 0.29975 0.72771 0.0
H645 H 0.98309 0.16461 0.62826 0.0
H646 H 0.06883 0.31336 0.72148 0.0
H647 H 0.09216 0.13992 0.6478 0.0
H648 H 0.0153 0.22001 0.66096 0.0
H649 H 0.15341 0.24237 0.69745 0.0
C650 C 0.15314 0.29071 0.72001 0.0
C651 C 0.12994 0.31165 0.72718 0.0
C652 C 0.0323 0.20255 0.65825 0.0
C653 C 0.09288 0.2457 0.6924 0.0
C654 C 0.0139 0.17084 0.6395 0.0
C655 C 0.03495 0.14754 0.63523 0.0
C656 C 0.07238 0.21147 0.67283 0.0
C657 C 0.07486 0.15714 0.65038 0.0
C658 C 0.13479 0.25782 0.70285 0.0
C659 C 0.08795 0.29815 0.71689 0.0
N660 N 0.09235 0.18843 0.66839 0.0
N661 N 0.07094 0.26629 0.69991 0.0
H662 H 0.79007 0.335 0.49367 0.0
H663 H 0.64529 0.4459 0.44512 0.0
H664 H 0.81429 0.4129 0.41336 0.0
H665 H 0.63384 0.37897 0.53384 0.0
H666 H 0.7021 0.42913 0.42867 0.0
H667 H 0.7273 0.34555 0.50422 0.0
C668 C 0.78186 0.35425 0.4782 0.0
C669 C 0.80702 0.37333 0.45285 0.0
C670 C 0.68685 0.41792 0.45157 0.0
C671 C 0.73572 0.3857 0.46461 0.0
C672 C 0.65448 0.42755 0.46105 0.0
C673 C 0.63469 0.41398 0.49103 0.0
C674 C 0.69951 0.3945 0.47216 0.0
C675 C 0.64759 0.3898 0.51029 0.0
C676 C 0.74616 0.3603 0.48418 0.0
C677 C 0.79542 0.39787 0.43328 0.0
N678 N 0.67924 0.38104 0.50062 0.0
N679 N 0.76054 0.40352 0.43966 0.0
loop_
_geom_bond_atom_site_label_1
_geom_bond_atom_site_label_2
_geom_bond_distance
_geom_bond_site_symmetry_2
_ccdc_geom_bond_type
H0 C3 0.929 . S
H1 C6 0.929 . S
H2 C8 0.930 . S
C3 H0 0.929 . S
C3 C4 1.398 . S
C3 C5 1.396 . S
C4 C3 1.398 . S
C4 C8 1.407 . S
C5 C3 1.396 . S
C5 C6 1.394 . S
C6 H1 0.929 . S
C6 C5 1.394 . S
C6 C7 1.382 . S
C7 C6 1.382 . S
C7 C8 1.392 . S
C7 N9 1.420 . S
C8 H2 0.930 . S
C8 C4 1.407 . S
C8 C7 1.392 . S
N9 C7 1.420 . S
N9 C10 1.244 . S
C10 N9 1.244 . S
H11 C14 0.929 . S
H12 C17 0.929 . S
H13 C19 0.930 . S
C14 H11 0.929 . S
C14 C15 1.398 . S
C14 C16 1.396 . S
C15 C14 1.398 . S
C15 C19 1.407 . S
C16 C14 1.396 . S
C16 C17 1.394 . S
C17 H12 0.929 . S
C17 C16 1.394 . S
C17 C18 1.382 . S
C18 C17 1.382 . S
C18 C19 1.392 . S
C18 N20 1.420 . S
C19 H13 0.930 . S
C19 C15 1.407 . S
C19 C18 1.392 . S
N20 C18 1.420 . S
N20 C21 1.244 . S
C21 N20 1.244 . S
H22 C25 0.929 . S
H23 C28 0.929 . S
H24 C30 0.930 . S
C25 H22 0.929 . S
C25 C26 1.398 . S
C25 C27 1.396 . S
C26 C25 1.398 . S
C26 C30 1.407 . S
C27 C25 1.396 . S
C27 C28 1.394 . S
C28 H23 0.929 . S
C28 C27 1.394 . S
C28 C29 1.382 . S
C29 C28 1.382 . S
C29 C30 1.392 . S
C29 N31 1.420 . S
C30 H24 0.930 . S
C30 C26 1.407 . S
C30 C29 1.392 . S
N31 C29 1.420 . S
N31 C32 1.244 . S
C32 N31 1.244 . S
H33 C36 0.929 . S
H34 C39 0.929 . S
H35 C41 0.930 . S
C36 H33 0.929 . S
C36 C37 1.398 . S
C36 C38 1.396 . S
C37 C36 1.398 . S
C37 C41 1.407 . S
C38 C36 1.396 . S
C38 C39 1.394 . S
C39 H34 0.929 . S
C39 C38 1.394 . S
C39 C40 1.382 . S
C40 C39 1.382 . S
C40 C41 1.392 . S
C40 N42 1.420 . S
C41 H35 0.930 . S
C41 C37 1.407 . S
C41 C40 1.392 . S
N42 C40 1.420 . S
N42 C43 1.244 . S
C43 N42 1.244 . S
H44 C47 0.929 . S
H45 C50 0.929 . S
H46 C52 0.930 . S
C47 H44 0.929 . S
C47 C48 1.398 . S
C47 C49 1.396 . S
C48 C47 1.398 . S
C48 C52 1.407 . S
C49 C47 1.396 . S
C49 C50 1.394 . S
C50 H45 0.929 . S
C50 C49 1.394 . S
C50 C51 1.382 . S
C51 C50 1.382 . S
C51 C52 1.392 . S
C51 N53 1.420 . S
C52 H46 0.930 . S
C52 C48 1.407 . S
C52 C51 1.392 . S
N53 C51 1.420 . S
N53 C54 1.244 . S
C54 N53 1.244 . S
H55 C58 0.929 . S
H56 C61 0.929 . S
H57 C63 0.930 . S
C58 H55 0.929 . S
C58 C59 1.398 . S
C58 C60 1.396 . S
C59 C58 1.398 . S
C59 C63 1.407 . S
C60 C58 1.396 . S
C60 C61 1.394 . S
C61 H56 0.929 . S
C61 C60 1.394 . S
C61 C62 1.382 . S
C62 C61 1.382 . S
C62 C63 1.392 . S
C62 N64 1.420 . S
C63 H57 0.930 . S
C63 C59 1.407 . S
C63 C62 1.392 . S
N64 C62 1.420 . S
N64 C65 1.244 . S
C65 N64 1.244 . S
H66 C69 0.929 . S
H67 C72 0.929 . S
H68 C74 0.930 . S
C69 H66 0.929 . S
C69 C70 1.398 . S
C69 C71 1.396 . S
C70 C69 1.398 . S
C70 C74 1.407 . S
C71 C69 1.396 . S
C71 C72 1.394 . S
C72 H67 0.929 . S
C72 C71 1.394 . S
C72 C73 1.382 . S
C73 C72 1.382 . S
C73 C74 1.392 . S
C73 N75 1.420 . S
C74 H68 0.930 . S
C74 C70 1.407 . S
C74 C73 1.392 . S
N75 C73 1.420 . S
N75 C76 1.244 . S
C76 N75 1.244 . S
H77 C80 0.929 . S
H78 C83 0.929 . S
H79 C85 0.930 . S
C80 H77 0.929 . S
C80 C81 1.398 . S
C80 C82 1.396 . S
C81 C80 1.398 . S
C81 C85 1.407 . S
C82 C80 1.396 . S
C82 C83 1.394 . S
C83 H78 0.929 . S
C83 C82 1.394 . S
C83 C84 1.382 . S
C84 C83 1.382 . S
C84 C85 1.392 . S
C84 N86 1.420 . S
C85 H79 0.930 . S
C85 C81 1.407 . S
C85 C84 1.392 . S
N86 C84 1.420 . S
N86 C87 1.244 . S
C87 N86 1.244 . S
Tb88 C90 2.809 1_545 S
Tb88 O108 2.484 1_545 S
Tb88 O109 2.440 . S
Tb88 O110 2.658 1_655 S
Tb88 O111 2.409 1_655 S
Tb88 O112 2.378 1_655 S
Tb88 O116 2.325 1_545 S
Tb88 O119 2.341 . S
Tb89 C99 2.809 . S
Tb89 O110 2.325 . S
Tb89 O113 2.343 1_545 S
Tb89 O114 2.484 . S
Tb89 O115 2.440 . S
Tb89 O116 2.658 1_445 S
Tb89 O117 2.409 1_545 S
Tb89 O118 2.378 . S
C90 Tb88 2.809 1_565 S
C90 C91 1.514 . S
C90 O108 1.248 . S
C90 O109 1.266 1_565 S
C91 C90 1.514 . S
C91 C92 1.359 . S
C91 C96 1.348 . S
C92 C91 1.359 . S
C92 C93 1.380 . S
C92 H120 0.929 . S
C93 C92 1.380 . S
C93 C94 1.347 . S
C93 H121 0.931 . S
C94 C93 1.347 . S
C94 C95 1.369 . S
C95 C94 1.369 . S
C95 C96 1.408 . S
C95 H122 0.930 . S
C96 C91 1.348 . S
C96 C95 1.408 . S
C96 H123 0.930 . S
C97 O110 1.281 . S
C97 O111 1.254 . S
C98 O112 1.236 1_565 S
C98 O113 1.266 . S
C99 Tb89 2.809 . S
C99 C100 1.514 . S
C99 O114 1.248 . S
C99 O115 1.266 . S
C100 C99 1.514 . S
C100 C101 1.359 . S
C100 C105 1.348 . S
C101 C100 1.359 . S
C101 C102 1.380 . S
C101 H124 0.929 . S
C102 C101 1.380 . S
C102 C103 1.347 . S
C102 H125 0.931 . S
C103 C102 1.347 . S
C103 C104 1.369 . S
C104 C103 1.369 . S
C104 C105 1.408 . S
C104 H126 0.930 . S
C105 C100 1.348 . S
C105 C104 1.408 . S
C105 H127 0.930 . S
C106 O116 1.281 . S
C106 O117 1.254 1_655 S
C107 O118 1.236 1_655 S
C107 O119 1.266 . S
O108 Tb88 2.484 1_565 S
O108 C90 1.248 . S
O109 Tb88 2.440 . S
O109 C90 1.266 1_545 S
O110 Tb88 2.658 1_455 S
O110 Tb89 2.325 . S
O110 C97 1.281 . S
O111 Tb88 2.409 1_455 S
O111 C97 1.254 . S
O112 Tb88 2.378 1_455 S
O112 C98 1.236 1_545 S
O113 Tb89 2.343 1_565 S
O113 C98 1.266 . S
O114 Tb89 2.484 . S
O114 C99 1.248 . S
O115 Tb89 2.440 . S
O115 C99 1.266 . S
O116 Tb88 2.325 1_565 S
O116 Tb89 2.658 1_665 S
O116 C106 1.281 . S
O117 Tb89 2.409 1_565 S
O117 C106 1.254 1_455 S
O118 Tb89 2.378 . S
O118 C107 1.236 1_455 S
O119 Tb88 2.341 . S
O119 C107 1.266 . S
H120 C92 0.929 . S
H121 C93 0.931 . S
H122 C95 0.930 . S
H123 C96 0.930 . S
H124 C101 0.929 . S
H125 C102 0.931 . S
H126 C104 0.930 . S
H127 C105 0.930 . S
Tb128 C130 2.809 . S
Tb128 O148 2.484 . S
Tb128 O149 2.440 . S
Tb128 O150 2.658 1_545 S
Tb128 O151 2.409 1_545 S
Tb128 O152 2.378 . S
Tb128 O156 2.325 . S
Tb128 O159 2.341 . S
Tb129 C139 2.809 1_544 S
Tb129 O150 2.325 1_545 S
Tb129 O153 2.341 . S
Tb129 O154 2.484 1_545 S
Tb129 O155 2.441 1_554 S
Tb129 O156 2.658 . S
Tb129 O157 2.409 1_554 S
Tb129 O158 2.398 . S
C130 Tb128 2.809 . S
C130 C131 1.514 . S
C130 O148 1.248 . S
C130 O149 1.266 . S
C131 C130 1.514 . S
C131 C132 1.359 . S
C131 C136 1.348 . S
C132 C131 1.359 . S
C132 C133 1.380 . S
C132 H160 0.929 . S
C133 C132 1.380 . S
C133 C134 1.347 . S
C133 H161 0.931 . S
C134 C133 1.347 . S
C134 C135 1.369 . S
C135 C134 1.369 . S
C135 C136 1.408 . S
C135 H162 0.930 . S
C136 C131 1.348 . S
C136 C135 1.408 . S
C136 H163 0.930 . S
C137 O150 1.281 . S
C137 O151 1.254 . S
C138 O152 1.236 . S
C138 O153 1.266 . S
C139 Tb129 2.809 1_566 S
C139 C140 1.514 . S
C139 O154 1.248 1_556 S
C139 O155 1.266 1_565 S
C140 C139 1.514 . S
C140 C141 1.359 . S
C140 C145 1.348 . S
C141 C140 1.359 . S
C141 C142 1.380 . S
C141 H164 0.929 . S
C142 C141 1.380 . S
C142 C143 1.347 . S
C142 H165 0.931 . S
C143 C142 1.347 . S
C143 C144 1.369 . S
C144 C143 1.369 . S
C144 C145 1.408 . S
C144 H166 0.930 . S
C145 C140 1.348 . S
C145 C144 1.408 . S
C145 H167 0.930 . S
C146 O156 1.281 . S
C146 O157 1.254 1_554 S
C147 O158 1.216 1_565 S
C147 O159 1.266 1_565 S
O148 Tb128 2.484 . S
O148 C130 1.248 . S
O149 Tb128 2.440 . S
O149 C130 1.266 . S
O150 Tb128 2.658 1_565 S
O150 Tb129 2.325 1_565 S
O150 C137 1.281 . S
O151 Tb128 2.409 1_565 S
O151 C137 1.254 . S
O152 Tb128 2.378 . S
O152 C138 1.236 . S
O153 Tb129 2.341 . S
O153 C138 1.266 . S
O154 Tb129 2.484 1_565 S
O154 C139 1.248 1_554 S
O155 Tb129 2.441 1_556 S
O155 C139 1.266 1_545 S
O156 Tb128 2.325 . S
O156 Tb129 2.658 . S
O156 C146 1.281 . S
O157 Tb129 2.409 1_556 S
O157 C146 1.254 1_556 S
O158 Tb129 2.398 . S
O158 C147 1.216 1_545 S
O159 Tb128 2.341 . S
O159 C147 1.266 1_545 S
H160 C132 0.929 . S
H161 C133 0.931 . S
H162 C135 0.930 . S
H163 C136 0.930 . S
H164 C141 0.929 . S
H165 C142 0.931 . S
H166 C144 0.930 . S
H167 C145 0.930 . S
Tb168 C170 2.809 . S
Tb168 O188 2.484 . S
Tb168 O189 2.440 . S
Tb168 O190 2.658 . S
Tb168 O191 2.409 . S
Tb168 O192 2.378 . S
Tb168 O196 2.325 . S
Tb168 O199 2.341 . S
Tb169 C179 2.809 . S
Tb169 O190 2.325 . S
Tb169 O193 2.341 . S
Tb169 O194 2.484 . S
Tb169 O195 2.440 . S
Tb169 O196 2.658 . S
Tb169 O197 2.409 . S
Tb169 O198 2.378 . S
C170 Tb168 2.809 . S
C170 C171 1.514 . S
C170 O188 1.248 . S
C170 O189 1.266 . S
C171 C170 1.514 . S
C171 C172 1.359 . S
C171 C176 1.348 . S
C172 C171 1.359 . S
C172 C173 1.380 . S
C172 H200 0.929 . S
C173 C172 1.380 . S
C173 C174 1.347 . S
C173 H201 0.931 . S
C174 C173 1.347 . S
C174 C175 1.369 . S
C175 C174 1.369 . S
C175 C176 1.408 . S
C175 H202 0.930 . S
C176 C171 1.348 . S
C176 C175 1.408 . S
C176 H203 0.930 . S
C177 O190 1.281 . S
C177 O191 1.254 . S
C178 O192 1.236 . S
C178 O193 1.266 . S
C179 Tb169 2.809 . S
C179 C180 1.514 . S
C179 O194 1.248 . S
C179 O195 1.266 . S
C180 C179 1.514 . S
C180 C181 1.359 . S
C180 C185 1.348 . S
C181 C180 1.359 . S
C181 C182 1.380 . S
C181 H204 0.929 . S
C182 C181 1.380 . S
C182 C183 1.347 . S
C182 H205 0.931 . S
C183 C182 1.347 . S
C183 C184 1.369 . S
C184 C183 1.369 . S
C184 C185 1.408 . S
C184 H206 0.930 . S
C185 C180 1.348 . S
C185 C184 1.408 . S
C185 H207 0.930 . S
C186 O196 1.281 . S
C186 O197 1.254 . S
C187 O198 1.236 . S
C187 O199 1.266 . S
O188 Tb168 2.484 . S
O188 C170 1.248 . S
O189 Tb168 2.440 . S
O189 C170 1.266 . S
O190 Tb168 2.658 . S
O190 Tb169 2.325 . S
O190 C177 1.281 . S
O191 Tb168 2.409 . S
O191 C177 1.254 . S
O192 Tb168 2.378 . S
O192 C178 1.236 . S
O193 Tb169 2.341 . S
O193 C178 1.266 . S
O194 Tb169 2.484 . S
O194 C179 1.248 . S
O195 Tb169 2.440 . S
O195 C179 1.266 . S
O196 Tb168 2.325 . S
O196 Tb169 2.658 . S
O196 C186 1.281 . S
O197 Tb169 2.409 . S
O197 C186 1.254 . S
O198 Tb169 2.378 . S
O198 C187 1.236 . S
O199 Tb168 2.341 . S
O199 C187 1.266 . S
H200 C172 0.929 . S
H201 C173 0.931 . S
H202 C175 0.930 . S
H203 C176 0.930 . S
H204 C181 0.929 . S
H205 C182 0.931 . S
H206 C184 0.930 . S
H207 C185 0.930 . S
Tb208 C210 2.809 1_455 S
Tb208 O228 2.484 1_455 S
Tb208 O229 2.440 . S
Tb208 O230 2.658 1_556 S
Tb208 O231 2.409 1_556 S
Tb208 O232 2.378 1_556 S
Tb208 O236 2.325 1_455 S
Tb208 O239 2.341 . S
Tb209 C219 2.809 . S
Tb209 O230 2.325 . S
Tb209 O233 2.341 . S
Tb209 O234 2.484 . S
Tb209 O235 2.440 . S
Tb209 O236 2.658 1_454 S
Tb209 O237 2.409 1_455 S
Tb209 O238 2.378 1_554 S
C210 Tb208 2.809 1_655 S
C210 C211 1.514 . S
C210 O228 1.248 . S
C210 O229 1.266 1_655 S
C211 C210 1.514 . S
C211 C212 1.359 . S
C211 C216 1.348 . S
C212 C211 1.359 . S
C212 C213 1.380 . S
C212 H240 0.929 . S
C213 C212 1.380 . S
C213 C214 1.347 . S
C213 H241 0.931 . S
C214 C213 1.347 . S
C214 C215 1.369 . S
C215 C214 1.369 . S
C215 C216 1.408 . S
C215 H242 0.930 . S
C216 C211 1.348 . S
C216 C215 1.408 . S
C216 H243 0.930 1_655 S
C217 O230 1.281 . S
C217 O231 1.254 . S
C218 O232 1.236 1_655 S
C218 O233 1.266 1_655 S
C219 Tb209 2.809 . S
C219 C220 1.514 . S
C219 O234 1.248 . S
C219 O235 1.266 . S
C220 C219 1.514 . S
C220 C221 1.359 . S
C220 C225 1.348 . S
C221 C220 1.359 . S
C221 C222 1.380 . S
C221 H244 0.929 . S
C222 C221 1.380 . S
C222 C223 1.347 . S
C222 H245 0.931 . S
C223 C222 1.347 . S
C223 C224 1.369 . S
C224 C223 1.369 . S
C224 C225 1.408 . S
C224 H246 0.930 . S
C225 C220 1.348 . S
C225 C224 1.408 . S
C225 H247 0.930 . S
C226 O236 1.281 . S
C226 O237 1.254 1_556 S
C227 O238 1.236 . S
C227 O239 1.266 . S
O228 Tb208 2.484 1_655 S
O228 C210 1.248 . S
O229 Tb208 2.440 . S
O229 C210 1.266 1_455 S
O230 Tb208 2.658 1_554 S
O230 Tb209 2.325 . S
O230 C217 1.281 . S
O231 Tb208 2.409 1_554 S
O231 C217 1.254 . S
O232 Tb208 2.378 1_554 S
O232 C218 1.236 1_455 S
O233 Tb209 2.341 . S
O233 C218 1.266 1_455 S
O234 Tb209 2.484 . S
O234 C219 1.248 . S
O235 Tb209 2.440 . S
O235 C219 1.266 . S
O236 Tb208 2.325 1_655 S
O236 Tb209 2.658 1_656 S
O236 C226 1.281 . S
O237 Tb209 2.409 1_655 S
O237 C226 1.254 1_554 S
O238 Tb209 2.378 1_556 S
O238 C227 1.236 . S
O239 Tb208 2.341 . S
O239 C227 1.266 . S
H240 C212 0.929 . S
H241 C213 0.931 . S
H242 C215 0.930 . S
H243 C216 0.930 1_455 S
H244 C221 0.929 . S
H245 C222 0.931 . S
H246 C224 0.930 . S
H247 C225 0.930 . S
H248 C254 0.930 . S
H249 C258 0.930 . S
H250 C263 0.929 . S
H251 C261 0.929 . S
H252 C256 0.929 . S
H253 C262 0.929 . S
C254 H248 0.930 . S
C254 C255 1.367 . S
C254 C262 1.378 . S
C255 C254 1.367 . S
C255 C263 1.433 . S
C256 H252 0.929 . S
C256 C258 1.378 . S
C256 C260 1.350 . S
C257 C260 1.463 . S
C257 C262 1.350 . S
C257 N265 1.427 . S
C258 H249 0.930 . S
C258 C256 1.378 . S
C258 C259 1.367 . S
C259 C258 1.367 . S
C259 C261 1.433 . S
C260 C256 1.350 . S
C260 C257 1.463 . S
C260 N264 1.427 . S
C261 H251 0.929 . S
C261 C259 1.433 . S
C261 N264 1.384 . S
C262 H253 0.929 . S
C262 C254 1.378 . S
C262 C257 1.350 . S
C263 H250 0.929 . S
C263 C255 1.433 . S
C263 N265 1.384 . S
N264 C260 1.427 . S
N264 C261 1.384 . S
N265 C257 1.427 . S
N265 C263 1.384 . S
H266 C272 0.930 . S
H267 C276 0.930 . S
H268 C281 0.929 . S
H269 C279 0.929 . S
H270 C274 0.929 . S
H271 C280 0.929 . S
C272 H266 0.930 . S
C272 C273 1.367 . S
C272 C280 1.378 . S
C273 C272 1.367 . S
C273 C281 1.433 . S
C274 H270 0.929 . S
C274 C276 1.378 . S
C274 C278 1.350 . S
C275 C278 1.463 . S
C275 C280 1.350 . S
C275 N283 1.427 . S
C276 H267 0.930 . S
C276 C274 1.378 . S
C276 C277 1.367 . S
C277 C276 1.367 . S
C277 C279 1.433 . S
C278 C274 1.350 . S
C278 C275 1.463 . S
C278 N282 1.427 . S
C279 H269 0.929 . S
C279 C277 1.433 . S
C279 N282 1.384 . S
C280 H271 0.929 . S
C280 C272 1.378 . S
C280 C275 1.350 . S
C281 H268 0.929 . S
C281 C273 1.433 . S
C281 N283 1.384 . S
N282 C278 1.427 . S
N282 C279 1.384 . S
N283 C275 1.427 . S
N283 C281 1.384 . S
H284 C290 0.930 . S
H285 C294 0.930 . S
H286 C299 0.929 . S
H287 C297 0.929 . S
H288 C292 0.929 . S
H289 C298 0.929 . S
C290 H284 0.930 . S
C290 C291 1.367 . S
C290 C298 1.378 . S
C291 C290 1.367 . S
C291 C299 1.433 . S
C292 H288 0.929 . S
C292 C294 1.378 . S
C292 C296 1.350 . S
C293 C296 1.463 . S
C293 C298 1.350 . S
C293 N301 1.427 . S
C294 H285 0.930 . S
C294 C292 1.378 . S
C294 C295 1.367 . S
C295 C294 1.367 . S
C295 C297 1.433 . S
C296 C292 1.350 . S
C296 C293 1.463 . S
C296 N300 1.427 . S
C297 H287 0.929 . S
C297 C295 1.433 . S
C297 N300 1.384 . S
C298 H289 0.929 . S
C298 C290 1.378 . S
C298 C293 1.350 . S
C299 H286 0.929 . S
C299 C291 1.433 . S
C299 N301 1.384 . S
N300 C296 1.427 . S
N300 C297 1.384 . S
N301 C293 1.427 . S
N301 C299 1.384 . S
H302 C308 0.930 . S
H303 C312 0.930 . S
H304 C317 0.929 . S
H305 C315 0.929 . S
H306 C310 0.929 . S
H307 C316 0.929 . S
C308 H302 0.930 . S
C308 C309 1.367 . S
C308 C316 1.378 . S
C309 C308 1.367 . S
C309 C317 1.433 . S
C310 H306 0.929 . S
C310 C312 1.378 . S
C310 C314 1.350 . S
C311 C314 1.463 . S
C311 C316 1.350 . S
C311 N319 1.427 . S
C312 H303 0.930 . S
C312 C310 1.378 . S
C312 C313 1.367 . S
C313 C312 1.367 . S
C313 C315 1.433 . S
C314 C310 1.350 . S
C314 C311 1.463 . S
C314 N318 1.427 . S
C315 H305 0.929 . S
C315 C313 1.433 . S
C315 N318 1.384 . S
C316 H307 0.929 . S
C316 C308 1.378 . S
C316 C311 1.350 . S
C317 H304 0.929 . S
C317 C309 1.433 . S
C317 N319 1.384 . S
N318 C314 1.427 . S
N318 C315 1.384 . S
N319 C311 1.427 . S
N319 C317 1.384 . S
H320 C326 0.930 . S
H321 C330 0.930 . S
H322 C335 0.929 . S
H323 C333 0.929 . S
H324 C328 0.929 . S
H325 C334 0.929 . S
C326 H320 0.930 . S
C326 C327 1.367 . S
C326 C334 1.378 . S
C327 C326 1.367 . S
C327 C335 1.433 . S
C328 H324 0.929 . S
C328 C330 1.378 . S
C328 C332 1.350 . S
C329 C332 1.463 . S
C329 C334 1.350 . S
C329 N337 1.427 . S
C330 H321 0.930 . S
C330 C328 1.378 . S
C330 C331 1.367 . S
C331 C330 1.367 . S
C331 C333 1.433 . S
C332 C328 1.350 . S
C332 C329 1.463 . S
C332 N336 1.427 . S
C333 H323 0.929 . S
C333 C331 1.433 . S
C333 N336 1.384 . S
C334 H325 0.929 . S
C334 C326 1.378 . S
C334 C329 1.350 . S
C335 H322 0.929 . S
C335 C327 1.433 . S
C335 N337 1.384 . S
N336 C332 1.427 . S
N336 C333 1.384 . S
N337 C329 1.427 . S
N337 C335 1.384 . S
H338 C344 0.930 1_655 S
H339 C348 0.930 . S
H340 C353 0.929 . S
H341 C351 0.929 1_655 S
H342 C346 0.929 . S
H343 C352 0.929 1_655 S
C344 H338 0.930 1_455 S
C344 C345 1.367 . S
C344 C352 1.378 . S
C345 C344 1.367 . S
C345 C353 1.433 . S
C346 H342 0.929 . S
C346 C348 1.378 . S
C346 C350 1.350 . S
C347 C350 1.463 . S
C347 C352 1.350 . S
C347 N355 1.427 . S
C348 H339 0.930 . S
C348 C346 1.378 . S
C348 C349 1.367 . S
C349 C348 1.367 . S
C349 C351 1.433 . S
C350 C346 1.350 . S
C350 C347 1.463 . S
C350 N354 1.427 . S
C351 H341 0.929 1_455 S
C351 C349 1.433 . S
C351 N354 1.384 . S
C352 H343 0.929 1_455 S
C352 C344 1.378 . S
C352 C347 1.350 . S
C353 H340 0.929 . S
C353 C345 1.433 . S
C353 N355 1.384 . S
N354 C350 1.427 . S
N354 C351 1.384 . S
N355 C347 1.427 . S
N355 C353 1.384 . S
H356 C362 0.930 . S
H357 C366 0.930 . S
H358 C371 0.929 . S
H359 C369 0.929 . S
H360 C364 0.929 . S
H361 C370 0.929 . S
C362 H356 0.930 . S
C362 C363 1.367 . S
C362 C370 1.378 . S
C363 C362 1.367 . S
C363 C371 1.433 . S
C364 H360 0.929 . S
C364 C366 1.378 . S
C364 C368 1.350 . S
C365 C368 1.463 . S
C365 C370 1.350 . S
C365 N373 1.427 . S
C366 H357 0.930 . S
C366 C364 1.378 . S
C366 C367 1.367 . S
C367 C366 1.367 . S
C367 C369 1.433 . S
C368 C364 1.350 . S
C368 C365 1.463 . S
C368 N372 1.427 . S
C369 H359 0.929 . S
C369 C367 1.433 . S
C369 N372 1.384 . S
C370 H361 0.929 . S
C370 C362 1.378 . S
C370 C365 1.350 . S
C371 H358 0.929 . S
C371 C363 1.433 . S
C371 N373 1.384 . S
N372 C368 1.427 . S
N372 C369 1.384 . S
N373 C365 1.427 . S
N373 C371 1.384 . S
H374 C380 0.930 . S
H375 C384 0.930 . S
H376 C389 0.929 . S
H377 C387 0.929 . S
H378 C382 0.929 . S
H379 C388 0.929 . S
C380 H374 0.930 . S
C380 C381 1.367 . S
C380 C388 1.378 . S
C381 C380 1.367 . S
C381 C389 1.433 . S
C382 H378 0.929 . S
C382 C384 1.378 . S
C382 C386 1.350 . S
C383 C386 1.463 . S
C383 C388 1.350 . S
C383 N391 1.427 . S
C384 H375 0.930 . S
C384 C382 1.378 . S
C384 C385 1.367 . S
C385 C384 1.367 . S
C385 C387 1.433 . S
C386 C382 1.350 . S
C386 C383 1.463 . S
C386 N390 1.427 . S
C387 H377 0.929 . S
C387 C385 1.433 . S
C387 N390 1.384 . S
C388 H379 0.929 . S
C388 C380 1.378 . S
C388 C383 1.350 . S
C389 H376 0.929 . S
C389 C381 1.433 . S
C389 N391 1.384 . S
N390 C386 1.427 . S
N390 C387 1.384 . S
N391 C383 1.427 . S
N391 C389 1.384 . S
H392 C398 0.930 . S
H393 C402 0.930 . S
H394 C407 0.929 . S
H395 C405 0.929 . S
H396 C400 0.929 . S
H397 C406 0.929 . S
C398 H392 0.930 . S
C398 C399 1.367 . S
C398 C406 1.378 . S
C399 C398 1.367 . S
C399 C407 1.433 . S
C400 H396 0.929 . S
C400 C402 1.378 . S
C400 C404 1.350 . S
C401 C404 1.463 . S
C401 C406 1.350 . S
C401 N409 1.427 . S
C402 H393 0.930 . S
C402 C400 1.378 . S
C402 C403 1.367 . S
C403 C402 1.367 . S
C403 C405 1.433 . S
C404 C400 1.350 . S
C404 C401 1.463 . S
C404 N408 1.427 . S
C405 H395 0.929 . S
C405 C403 1.433 . S
C405 N408 1.384 . S
C406 H397 0.929 . S
C406 C398 1.378 . S
C406 C401 1.350 . S
C407 H394 0.929 . S
C407 C399 1.433 . S
C407 N409 1.384 . S
N408 C404 1.427 . S
N408 C405 1.384 . S
N409 C401 1.427 . S
N409 C407 1.384 . S
H410 C416 0.930 . S
H411 C420 0.930 1_554 S
H412 C425 0.929 . S
H413 C423 0.929 . S
H414 C418 0.929 . S
H415 C424 0.929 . S
C416 H410 0.930 . S
C416 C417 1.367 . S
C416 C424 1.378 . S
C417 C416 1.367 . S
C417 C425 1.433 . S
C418 H414 0.929 . S
C418 C420 1.378 . S
C418 C422 1.350 . S
C419 C422 1.463 . S
C419 C424 1.350 . S
C419 N427 1.427 . S
C420 H411 0.930 1_556 S
C420 C418 1.378 . S
C420 C421 1.367 . S
C421 C420 1.367 . S
C421 C423 1.433 . S
C422 C418 1.350 . S
C422 C419 1.463 . S
C422 N426 1.427 . S
C423 H413 0.929 . S
C423 C421 1.433 . S
C423 N426 1.384 . S
C424 H415 0.929 . S
C424 C416 1.378 . S
C424 C419 1.350 . S
C425 H412 0.929 . S
C425 C417 1.433 . S
C425 N427 1.384 . S
N426 C422 1.427 . S
N426 C423 1.384 . S
N427 C419 1.427 . S
N427 C425 1.384 . S
H428 C434 0.930 . S
H429 C438 0.930 . S
H430 C443 0.929 . S
H431 C441 0.929 . S
H432 C436 0.929 . S
H433 C442 0.929 . S
C434 H428 0.930 . S
C434 C435 1.367 . S
C434 C442 1.378 . S
C435 C434 1.367 . S
C435 C443 1.433 . S
C436 H432 0.929 . S
C436 C438 1.378 . S
C436 C440 1.350 . S
C437 C440 1.463 . S
C437 C442 1.350 . S
C437 N445 1.427 . S
C438 H429 0.930 . S
C438 C436 1.378 . S
C438 C439 1.367 . S
C439 C438 1.367 . S
C439 C441 1.433 . S
C440 C436 1.350 . S
C440 C437 1.463 . S
C440 N444 1.427 . S
C441 H431 0.929 . S
C441 C439 1.433 . S
C441 N444 1.384 . S
C442 H433 0.929 . S
C442 C434 1.378 . S
C442 C437 1.350 . S
C443 H430 0.929 . S
C443 C435 1.433 . S
C443 N445 1.384 . S
N444 C440 1.427 . S
N444 C441 1.384 . S
N445 C437 1.427 . S
N445 C443 1.384 . S
H446 C452 0.930 . S
H447 C456 0.930 . S
H448 C461 0.929 . S
H449 C459 0.929 . S
H450 C454 0.929 . S
H451 C460 0.929 . S
C452 H446 0.930 . S
C452 C453 1.367 . S
C452 C460 1.378 . S
C453 C452 1.367 . S
C453 C461 1.433 . S
C454 H450 0.929 . S
C454 C456 1.378 . S
C454 C458 1.350 . S
C455 C458 1.463 . S
C455 C460 1.350 . S
C455 N463 1.427 . S
C456 H447 0.930 . S
C456 C454 1.378 . S
C456 C457 1.367 . S
C457 C456 1.367 . S
C457 C459 1.433 . S
C458 C454 1.350 . S
C458 C455 1.463 . S
C458 N462 1.427 . S
C459 H449 0.929 . S
C459 C457 1.433 . S
C459 N462 1.384 . S
C460 H451 0.929 . S
C460 C452 1.378 . S
C460 C455 1.350 . S
C461 H448 0.929 . S
C461 C453 1.433 . S
C461 N463 1.384 . S
N462 C458 1.427 . S
N462 C459 1.384 . S
N463 C455 1.427 . S
N463 C461 1.384 . S
H464 C470 0.930 . S
H465 C474 0.930 . S
H466 C479 0.929 . S
H467 C477 0.929 . S
H468 C472 0.929 . S
H469 C478 0.929 . S
C470 H464 0.930 . S
C470 C471 1.367 . S
C470 C478 1.378 . S
C471 C470 1.367 . S
C471 C479 1.433 . S
C472 H468 0.929 . S
C472 C474 1.378 . S
C472 C476 1.350 . S
C473 C476 1.463 . S
C473 C478 1.350 . S
C473 N481 1.427 . S
C474 H465 0.930 . S
C474 C472 1.378 . S
C474 C475 1.367 . S
C475 C474 1.367 . S
C475 C477 1.433 . S
C476 C472 1.350 . S
C476 C473 1.463 . S
C476 N480 1.427 . S
C477 H467 0.929 . S
C477 C475 1.433 . S
C477 N480 1.384 . S
C478 H469 0.929 . S
C478 C470 1.378 . S
C478 C473 1.350 . S
C479 H466 0.929 . S
C479 C471 1.433 . S
C479 N481 1.384 . S
N480 C476 1.427 . S
N480 C477 1.384 . S
N481 C473 1.427 . S
N481 C479 1.384 . S
H482 C488 0.930 . S
H483 C492 0.930 . S
H484 C497 0.929 . S
H485 C495 0.929 . S
H486 C490 0.929 . S
H487 C496 0.929 . S
C488 H482 0.930 . S
C488 C489 1.367 . S
C488 C496 1.378 . S
C489 C488 1.367 . S
C489 C497 1.433 . S
C490 H486 0.929 . S
C490 C492 1.378 . S
C490 C494 1.350 . S
C491 C494 1.463 . S
C491 C496 1.350 . S
C491 N499 1.427 . S
C492 H483 0.930 . S
C492 C490 1.378 . S
C492 C493 1.367 . S
C493 C492 1.367 . S
C493 C495 1.433 . S
C494 C490 1.350 . S
C494 C491 1.463 . S
C494 N498 1.427 . S
C495 H485 0.929 . S
C495 C493 1.433 . S
C495 N498 1.384 . S
C496 H487 0.929 . S
C496 C488 1.378 . S
C496 C491 1.350 . S
C497 H484 0.929 . S
C497 C489 1.433 . S
C497 N499 1.384 . S
N498 C494 1.427 . S
N498 C495 1.384 . S
N499 C491 1.427 . S
N499 C497 1.384 . S
H500 C506 0.930 . S
H501 C510 0.930 . S
H502 C515 0.929 . S
H503 C513 0.929 . S
H504 C508 0.929 . S
H505 C514 0.929 . S
C506 H500 0.930 . S
C506 C507 1.367 . S
C506 C514 1.378 . S
C507 C506 1.367 . S
C507 C515 1.433 . S
C508 H504 0.929 . S
C508 C510 1.378 . S
C508 C512 1.350 . S
C509 C512 1.463 . S
C509 C514 1.350 . S
C509 N517 1.427 . S
C510 H501 0.930 . S
C510 C508 1.378 . S
C510 C511 1.367 . S
C511 C510 1.367 . S
C511 C513 1.433 . S
C512 C508 1.350 . S
C512 C509 1.463 . S
C512 N516 1.427 . S
C513 H503 0.929 . S
C513 C511 1.433 . S
C513 N516 1.384 . S
C514 H505 0.929 . S
C514 C506 1.378 . S
C514 C509 1.350 . S
C515 H502 0.929 . S
C515 C507 1.433 . S
C515 N517 1.384 . S
N516 C512 1.427 . S
N516 C513 1.384 . S
N517 C509 1.427 . S
N517 C515 1.384 . S
H518 C524 0.930 . S
H519 C528 0.930 . S
H520 C533 0.929 . S
H521 C531 0.929 . S
H522 C526 0.929 . S
H523 C532 0.929 . S
C524 H518 0.930 . S
C524 C525 1.367 . S
C524 C532 1.378 . S
C525 C524 1.367 . S
C525 C533 1.433 . S
C526 H522 0.929 . S
C526 C528 1.378 . S
C526 C530 1.350 . S
C527 C530 1.463 . S
C527 C532 1.350 . S
C527 N535 1.427 . S
C528 H519 0.930 . S
C528 C526 1.378 . S
C528 C529 1.367 . S
C529 C528 1.367 . S
C529 C531 1.433 . S
C530 C526 1.350 . S
C530 C527 1.463 . S
C530 N534 1.427 . S
C531 H521 0.929 . S
C531 C529 1.433 . S
C531 N534 1.384 . S
C532 H523 0.929 . S
C532 C524 1.378 . S
C532 C527 1.350 . S
C533 H520 0.929 . S
C533 C525 1.433 . S
C533 N535 1.384 . S
N534 C530 1.427 . S
N534 C531 1.384 . S
N535 C527 1.427 . S
N535 C533 1.384 . S
H536 C542 0.930 . S
H537 C546 0.930 . S
H538 C551 0.929 . S
H539 C549 0.929 . S
H540 C544 0.929 . S
H541 C550 0.929 . S
C542 H536 0.930 . S
C542 C543 1.367 . S
C542 C550 1.378 . S
C543 C542 1.367 . S
C543 C551 1.433 . S
C544 H540 0.929 . S
C544 C546 1.378 . S
C544 C548 1.350 . S
C545 C548 1.463 . S
C545 C550 1.350 . S
C545 N553 1.427 . S
C546 H537 0.930 . S
C546 C544 1.378 . S
C546 C547 1.367 . S
C547 C546 1.367 . S
C547 C549 1.433 1_556 S
C548 C544 1.350 . S
C548 C545 1.463 . S
C548 N552 1.427 . S
C549 H539 0.929 . S
C549 C547 1.433 1_554 S
C549 N552 1.384 1_554 S
C550 H541 0.929 . S
C550 C542 1.378 . S
C550 C545 1.350 . S
C551 H538 0.929 . S
C551 C543 1.433 . S
C551 N553 1.384 . S
N552 C548 1.427 . S
N552 C549 1.384 1_556 S
N553 C545 1.427 . S
N553 C551 1.384 . S
H554 C560 0.930 . S
H555 C564 0.930 . S
H556 C569 0.929 . S
H557 C567 0.929 . S
H558 C562 0.929 1_455 S
H559 C568 0.929 . S
C560 H554 0.930 . S
C560 C561 1.367 . S
C560 C568 1.378 . S
C561 C560 1.367 . S
C561 C569 1.433 . S
C562 H558 0.929 1_655 S
C562 C564 1.378 1_655 S
C562 C566 1.350 . S
C563 C566 1.463 . S
C563 C568 1.350 . S
C563 N571 1.427 . S
C564 H555 0.930 . S
C564 C562 1.378 1_455 S
C564 C565 1.367 1_455 S
C565 C564 1.367 1_655 S
C565 C567 1.433 . S
C566 C562 1.350 . S
C566 C563 1.463 . S
C566 N570 1.427 . S
C567 H557 0.929 . S
C567 C565 1.433 . S
C567 N570 1.384 . S
C568 H559 0.929 . S
C568 C560 1.378 . S
C568 C563 1.350 . S
C569 H556 0.929 . S
C569 C561 1.433 . S
C569 N571 1.384 . S
N570 C566 1.427 . S
N570 C567 1.384 . S
N571 C563 1.427 . S
N571 C569 1.384 . S
H572 C578 0.930 . S
H573 C582 0.930 . S
H574 C587 0.929 . S
H575 C585 0.929 . S
H576 C580 0.929 . S
H577 C586 0.929 . S
C578 H572 0.930 . S
C578 C579 1.367 . S
C578 C586 1.378 . S
C579 C578 1.367 . S
C579 C587 1.433 . S
C580 H576 0.929 . S
C580 C582 1.378 . S
C580 C584 1.350 . S
C581 C584 1.463 . S
C581 C586 1.350 . S
C581 N589 1.427 . S
C582 H573 0.930 . S
C582 C580 1.378 . S
C582 C583 1.367 . S
C583 C582 1.367 . S
C583 C585 1.433 . S
C584 C580 1.350 . S
C584 C581 1.463 . S
C584 N588 1.427 . S
C585 H575 0.929 . S
C585 C583 1.433 . S
C585 N588 1.384 . S
C586 H577 0.929 . S
C586 C578 1.378 . S
C586 C581 1.350 . S
C587 H574 0.929 . S
C587 C579 1.433 . S
C587 N589 1.384 . S
N588 C584 1.427 . S
N588 C585 1.384 . S
N589 C581 1.427 . S
N589 C587 1.384 . S
H590 C596 0.930 . S
H591 C600 0.930 . S
H592 C605 0.929 . S
H593 C603 0.929 . S
H594 C598 0.929 . S
H595 C604 0.929 . S
C596 H590 0.930 . S
C596 C597 1.367 . S
C596 C604 1.378 . S
C597 C596 1.367 . S
C597 C605 1.433 . S
C598 H594 0.929 . S
C598 C600 1.378 . S
C598 C602 1.350 . S
C599 C602 1.463 . S
C599 C604 1.350 . S
C599 N607 1.427 . S
C600 H591 0.930 . S
C600 C598 1.378 . S
C600 C601 1.367 . S
C601 C600 1.367 . S
C601 C603 1.433 . S
C602 C598 1.350 . S
C602 C599 1.463 . S
C602 N606 1.427 . S
C603 H593 0.929 . S
C603 C601 1.433 . S
C603 N606 1.384 . S
C604 H595 0.929 . S
C604 C596 1.378 . S
C604 C599 1.350 . S
C605 H592 0.929 . S
C605 C597 1.433 . S
C605 N607 1.384 . S
N606 C602 1.427 . S
N606 C603 1.384 . S
N607 C599 1.427 . S
N607 C605 1.384 . S
H608 C614 0.930 . S
H609 C618 0.930 . S
H610 C623 0.929 . S
H611 C621 0.929 . S
H612 C616 0.929 . S
H613 C622 0.929 . S
C614 H608 0.930 . S
C614 C615 1.367 . S
C614 C622 1.378 . S
C615 C614 1.367 . S
C615 C623 1.433 . S
C616 H612 0.929 . S
C616 C618 1.378 . S
C616 C620 1.350 . S
C617 C620 1.463 . S
C617 C622 1.350 . S
C617 N625 1.427 . S
C618 H609 0.930 . S
C618 C616 1.378 . S
C618 C619 1.367 . S
C619 C618 1.367 . S
C619 C621 1.433 . S
C620 C616 1.350 . S
C620 C617 1.463 . S
C620 N624 1.427 . S
C621 H611 0.929 . S
C621 C619 1.433 . S
C621 N624 1.384 . S
C622 H613 0.929 . S
C622 C614 1.378 . S
C622 C617 1.350 . S
C623 H610 0.929 . S
C623 C615 1.433 . S
C623 N625 1.384 . S
N624 C620 1.427 . S
N624 C621 1.384 . S
N625 C617 1.427 . S
N625 C623 1.384 . S
H626 C632 0.930 . S
H627 C636 0.930 . S
H628 C641 0.929 . S
H629 C639 0.929 . S
H630 C634 0.929 . S
H631 C640 0.929 . S
C632 H626 0.930 . S
C632 C633 1.367 . S
C632 C640 1.378 . S
C633 C632 1.367 . S
C633 C641 1.433 . S
C634 H630 0.929 . S
C634 C636 1.378 . S
C634 C638 1.350 . S
C635 C638 1.463 . S
C635 C640 1.350 . S
C635 N643 1.427 . S
C636 H627 0.930 . S
C636 C634 1.378 . S
C636 C637 1.367 . S
C637 C636 1.367 . S
C637 C639 1.433 . S
C638 C634 1.350 . S
C638 C635 1.463 . S
C638 N642 1.427 . S
C639 H629 0.929 . S
C639 C637 1.433 . S
C639 N642 1.384 . S
C640 H631 0.929 . S
C640 C632 1.378 . S
C640 C635 1.350 . S
C641 H628 0.929 . S
C641 C633 1.433 . S
C641 N643 1.384 . S
N642 C638 1.427 . S
N642 C639 1.384 . S
N643 C635 1.427 . S
N643 C641 1.384 . S
H644 C650 0.930 . S
H645 C654 0.930 . S
H646 C659 0.929 . S
H647 C657 0.929 . S
H648 C652 0.929 . S
H649 C658 0.929 . S
C650 H644 0.930 . S
C650 C651 1.367 . S
C650 C658 1.378 . S
C651 C650 1.367 . S
C651 C659 1.433 . S
C652 H648 0.929 . S
C652 C654 1.378 . S
C652 C656 1.350 . S
C653 C656 1.463 . S
C653 C658 1.350 . S
C653 N661 1.427 . S
C654 H645 0.930 . S
C654 C652 1.378 . S
C654 C655 1.367 . S
C655 C654 1.367 . S
C655 C657 1.433 . S
C656 C652 1.350 . S
C656 C653 1.463 . S
C656 N660 1.427 . S
C657 H647 0.929 . S
C657 C655 1.433 . S
C657 N660 1.384 . S
C658 H649 0.929 . S
C658 C650 1.378 . S
C658 C653 1.350 . S
C659 H646 0.929 . S
C659 C651 1.433 . S
C659 N661 1.384 . S
N660 C656 1.427 . S
N660 C657 1.384 . S
N661 C653 1.427 . S
N661 C659 1.384 . S
H662 C668 0.930 . S
H663 C672 0.930 . S
H664 C677 0.929 . S
H665 C675 0.929 . S
H666 C670 0.929 . S
H667 C676 0.929 . S
C668 H662 0.930 . S
C668 C669 1.367 . S
C668 C676 1.378 . S
C669 C668 1.367 . S
C669 C677 1.433 . S
C670 H666 0.929 . S
C670 C672 1.378 . S
C670 C674 1.350 . S
C671 C674 1.463 . S
C671 C676 1.350 . S
C671 N679 1.427 . S
C672 H663 0.930 . S
C672 C670 1.378 . S
C672 C673 1.367 . S
C673 C672 1.367 . S
C673 C675 1.433 . S
C674 C670 1.350 . S
C674 C671 1.463 . S
C674 N678 1.427 . S
C675 H665 0.929 . S
C675 C673 1.433 . S
C675 N678 1.384 . S
C676 H667 0.929 . S
C676 C668 1.378 . S
C676 C671 1.350 . S
C677 H664 0.929 . S
C677 C669 1.433 . S
C677 N679 1.384 . S
N678 C674 1.427 . S
N678 C675 1.384 . S
N679 C671 1.427 . S
N679 C677 1.384 . S
C255 C4 1.265 . S
C259 C103 1.280 . S
C273 C16 1.222 . S
C277 C143 1.266 . S
C295 C177 1.938 . S
C291 C32 1.900 . S
C309 C43 2.546 . S
C313 C218 2.501 . S
C331 C138 1.915 . S
C327 C5 1.866 . S
C349 C98 1.732 . S
C345 C21 1.634 . S
C367 C226 1.500 . S
C363 C27 1.540 . S
C385 C187 1.733 . S
C381 C37 1.797 . S
C399 C10 1.233 . S
C403 C223 1.235 . S
C421 C146 2.208 1_556 S
C417 C26 2.271 . S
C435 C38 2.092 . S
C439 C106 2.051 . S
C453 C15 1.715 . S
C457 C174 1.764 . S
C475 C94 1.415 . S
C471 C48 1.401 . S
C489 C59 0.989 . S
C493 C134 1.002 . S
C507 C76 2.178 . S
C511 C186 2.142 . S
C525 C87 2.310 . S
C529 C227 2.252 . S
C543 C54 1.198 . S
C547 C147 1.231 1_556 S
C565 C107 2.393 . S
C561 C60 2.295 . S
C583 C217 1.575 . S
C579 C71 1.522 . S
C601 C178 1.708 . S
C597 C82 1.739 . S
C615 C49 1.644 . S
C619 C214 1.687 . S
C637 C137 1.657 . S
C633 C70 1.699 . S
C655 C97 2.468 . S
C651 C81 2.560 . S
C669 C65 1.401 . S
C673 C183 1.438 . S
