# Generated by pormake.
# Topology tsx, (6,3)-cn, num edge types: 1
# Building blocks:
#     Node 0, Type 0, BuildingBlock: CIFDUS_clean_sbu_1, # of connection points: 6
#     Node 1, Type 0, BuildingBlock: CIFDUS_clean_sbu_1, # of connection points: 6
#     Node 2, Type 1, BuildingBlock: ESEHIV_clean_linker_0, # of connection points: 3
#     Node 3, Type 1, BuildingBlock: ESEHIV_clean_linker_0, # of connection points: 3
#     Node 4, Type 1, BuildingBlock: ESEHIV_clean_linker_0, # of connection points: 3
#     Node 5, Type 1, BuildingBlock: ESEHIV_clean_linker_0, # of connection points: 3
#     Edge 6, Type (0, 1), BuildingBlock: TEMPAE_clean_linker_10, # of connection points: 2
#     Edge 7, Type (0, 1), BuildingBlock: TEMPAE_clean_linker_10, # of connection points: 2
#     Edge 8, Type (0, 1), BuildingBlock: TEMPAE_clean_linker_10, # of connection points: 2
#     Edge 9, Type (0, 1), BuildingBlock: TEMPAE_clean_linker_10, # of connection points: 2
#     Edge 10, Type (0, 1), BuildingBlock: TEMPAE_clean_linker_10, # of connection points: 2
#     Edge 11, Type (0, 1), BuildingBlock: TEMPAE_clean_linker_10, # of connection points: 2
#     Edge 12, Type (0, 1), BuildingBlock: TEMPAE_clean_linker_10, # of connection points: 2
#     Edge 13, Type (0, 1), BuildingBlock: TEMPAE_clean_linker_10, # of connection points: 2
#     Edge 14, Type (0, 1), BuildingBlock: TEMPAE_clean_linker_10, # of connection points: 2
#     Edge 15, Type (0, 1), BuildingBlock: TEMPAE_clean_linker_10, # of connection points: 2
#     Edge 16, Type (0, 1), BuildingBlock: TEMPAE_clean_linker_10, # of connection points: 2
#     Edge 17, Type (0, 1), BuildingBlock: TEMPAE_clean_linker_10, # of connection points: 2
# Relax obj value: 0.128
# Max RMSD: 0.156
# Mean RMSD: 0.118
data_MOF--net-tsx--node1-CIFDUS_clean_sbu_1--node2-ESEHIV_clean_linker_0--edge1-TEMPAE_clean_linker_10
_symmetry_space_group_name_H-M    P1
_symmetry_Int_Tables_number       1
_symmetry_cell_setting            triclinic
loop_
_symmetry_equiv_pos_as_xyz
'x, y, z'
_cell_length_a     16.144687
_cell_length_b     21.399877
_cell_length_c     35.974532
_cell_angle_alpha  97.020675
_cell_angle_beta   95.712958
_cell_angle_gamma 91.997216
loop_
_atom_site_label
_atom_site_type_symbol
_atom_site_fract_x
_atom_site_fract_y
_atom_site_fract_z
_atom_type_partial_charge
O0 O 1.02793 0.10986 -0.00234 0.0
Mn1 Mn 0.07918 0.01991 -0.00858 0.0
O2 O 0.89467 0.09085 -0.00015 0.0
Mn3 Mn 0.90373 0.02318 0.96436 0.0
O4 O 0.13518 0.93239 0.98394 0.0
O5 O 0.19004 0.06866 -0.00179 0.0
Mn6 Mn 0.26276 0.02891 0.02545 0.0
O7 O 0.08422 0.0155 0.04923 0.0
O8 O 0.27324 0.95143 -0.0017 0.0
O9 O 0.07434 0.02429 0.93394 0.0
O10 O 0.93885 0.03793 0.91849 0.0
O11 O 0.31954 0.09953 0.01479 0.0
O12 O 0.22015 0.02662 0.07139 0.0
C13 C 0.89633 0.93335 0.97904 0.0
C14 C 0.95608 0.12967 0.00377 0.0
C15 C 0.2107 0.91479 0.98533 0.0
C16 C 0.24862 0.11127 -0.00242 0.0
C17 C 0.14333 0.01877 0.07628 0.0
C18 C 1.01338 0.03396 0.90994 0.0
O19 O 0.96731 0.96685 0.98386 0.0
O20 O 0.83113 0.95864 0.96426 0.0
O21 O 0.51042 0.60273 0.50284 0.0
Mn22 Mn 0.58144 0.52199 0.49717 0.0
O23 O 0.37781 0.57243 0.48199 0.0
Mn24 Mn 0.40531 0.49731 0.45635 0.0
O25 O 0.65541 0.44228 0.49128 0.0
O26 O 0.68279 0.58 0.50714 0.0
Mn27 Mn 0.75801 0.5527 0.53896 0.0
O28 O 0.58038 0.51501 0.55517 0.0
O29 O 0.78531 0.47609 0.51591 0.0
O30 O 0.58343 0.52942 0.43938 0.0
O31 O 0.45276 0.50471 0.41242 0.0
O32 O 0.80274 0.62718 0.5269 0.0
O33 O 0.70787 0.54945 0.58268 0.0
C34 C 0.4223 0.41854 0.48601 0.0
C35 C 0.43264 0.61403 0.49763 0.0
C36 C 0.73365 0.43311 0.49897 0.0
C37 C 0.73248 0.62801 0.5063 0.0
C38 C 0.63349 0.52887 0.58457 0.0
C39 C 0.52852 0.52153 0.41046 0.0
O40 O 0.47846 0.46356 0.48675 0.0
O41 O 0.35417 0.42344 0.46454 0.0
H42 H 0.96079 0.05207 0.35002 0.0
H43 H 0.1551 0.92107 0.35398 0.0
H44 H 0.075 0.01224 0.45689 0.0
C45 C 1.00704 0.028 0.36614 0.0
C46 C 1.01655 0.04116 0.40553 0.0
C47 C 0.0588 0.98698 0.34708 0.0
C48 C 0.11337 0.95196 0.36827 0.0
C49 C 0.11668 0.958 0.40793 0.0
C50 C 0.06975 0.00443 0.42646 0.0
H51 H 0.96737 0.97334 0.62335 0.0
H52 H 0.15777 0.12145 0.6385 0.0
H53 H 0.0645 0.03625 0.52649 0.0
C54 C 1.00897 0.00447 0.61137 0.0
C55 C 1.00834 0.00077 0.57218 0.0
C56 C 0.06265 0.04792 0.63525 0.0
C57 C 0.1163 0.08789 0.61979 0.0
C58 C 0.1187 0.08354 0.58059 0.0
C59 C 0.06295 0.04063 0.55673 0.0
H60 H 0.44947 0.54493 0.86008 0.0
H61 H 0.6712 0.4387 0.86196 0.0
H62 H 0.5767 0.51061 0.96553 0.0
C63 C 0.50015 0.52397 0.87545 0.0
C64 C 0.50671 0.53217 0.91498 0.0
C65 C 0.55974 0.4914 0.8557 0.0
C66 C 0.62468 0.46427 0.87647 0.0
C67 C 0.63014 0.47001 0.9161 0.0
C68 C 0.57155 0.50475 0.93508 0.0
H69 H 0.47183 0.47993 0.12761 0.0
H70 H 0.67124 0.62141 0.13667 0.0
H71 H 0.55549 0.54139 0.02777 0.0
C72 C 0.5137 0.50917 0.11457 0.0
C73 C 0.50806 0.50426 0.07504 0.0
C74 C 0.57313 0.55041 0.13733 0.0
C75 C 0.62413 0.58983 0.11984 0.0
C76 C 0.61722 0.58731 0.08045 0.0
C77 C 0.55945 0.54426 0.05811 0.0
C78 C 0.30027 0.19302 0.96231 0.0
C79 C 0.2389 0.17293 0.98377 0.0
C80 C 0.32742 0.25673 0.96595 0.0
C81 C 0.29245 0.30068 -0.00815 0.0
C82 C 0.21942 0.28248 0.00744 0.0
C83 C 0.19368 0.21822 0.00354 0.0
C84 C 0.40278 0.2747 0.94723 0.0
C85 C 0.17722 0.32904 0.03332 0.0
C86 C 0.45351 0.3929 0.06319 0.0
C87 C 0.45322 0.45341 0.05221 0.0
C88 C 0.40126 0.3437 0.04373 0.0
C89 C 0.3467 0.35475 0.01202 0.0
C90 C 0.34673 0.4157 0.00024 0.0
C91 C 0.40077 0.4643 0.02032 0.0
C92 C 0.40505 0.27959 0.05735 0.0
C93 C 0.29119 0.43006 0.96639 0.0
H94 H 0.33485 0.15802 0.94669 0.0
H95 H 0.14629 0.20311 0.02027 0.0
H96 H 0.39689 0.32202 0.93789 0.0
H97 H 0.45923 0.27664 0.96776 0.0
H98 H 0.41186 0.23991 0.92258 0.0
H99 H 0.11254 0.31247 0.0361 0.0
H100 H 0.21257 0.33513 0.06172 0.0
H101 H 0.17602 0.37575 0.02287 0.0
H102 H 0.49551 0.3838 0.08718 0.0
H103 H 0.40076 0.51098 0.0115 0.0
H104 H 0.42201 0.24401 0.03462 0.0
H105 H 0.34314 0.26473 0.06502 0.0
H106 H 0.45129 0.27917 0.08234 0.0
H107 H 0.32595 0.42313 0.94121 0.0
H108 H 0.27334 0.47996 0.96993 0.0
H109 H 0.23373 0.39897 0.96097 0.0
C110 C 0.21422 0.80316 -0.00252 0.0
C111 C 0.22839 0.84889 0.97382 0.0
C112 C 0.25085 0.74442 -0.00759 0.0
C113 C 0.30185 0.73152 0.9628 0.0
C114 C 0.3123 0.77665 0.93767 0.0
C115 C 0.27617 0.8351 0.9438 0.0
C116 C 0.23949 0.69814 0.02016 0.0
C117 C 0.36535 0.76458 0.90545 0.0
C118 C 0.48229 0.62369 0.96208 0.0
C119 C 0.44973 0.5744 0.93467 0.0
C120 C 0.43234 0.67292 0.97428 0.0
C121 C 0.34818 0.67261 0.95858 0.0
C122 C 0.31315 0.61964 0.93391 0.0
C123 C 0.36443 0.57107 0.92228 0.0
C124 C 0.47176 0.72784 0.00134 0.0
C125 C 0.22354 0.61687 0.91702 0.0
H126 H 0.17904 0.81484 0.02134 0.0
H127 H 0.28821 0.87123 0.92608 0.0
H128 H 0.2266 0.64961 0.00545 0.0
H129 H 0.29793 0.69782 0.03918 0.0
H130 H 0.18806 0.71063 0.03764 0.0
H131 H 0.36224 0.80263 0.88701 0.0
H132 H 0.43131 0.76097 0.91671 0.0
H133 H 0.3451 0.71917 0.88806 0.0
H134 H 0.54821 0.62633 0.97189 0.0
H135 H 0.33882 0.53211 0.90175 0.0
H136 H 0.43029 0.74212 0.02337 0.0
H137 H 0.48134 0.76883 0.98584 0.0
H138 H 0.53308 0.71661 0.01519 0.0
H139 H 0.18191 0.63223 0.93878 0.0
H140 H 0.20245 0.56868 0.90355 0.0
H141 H 0.21689 0.64951 0.89531 0.0
C142 C 0.81928 0.83048 0.96673 0.0
C143 C 0.88575 0.86772 0.98729 0.0
C144 C 0.78777 0.77636 0.97952 0.0
C145 C 0.82576 0.7574 0.01317 0.0
C146 C 0.89994 0.78995 0.03136 0.0
C147 C 0.92881 0.84565 0.01843 0.0
C148 C 0.70738 0.74484 0.95956 0.0
C149 C 0.94453 0.76918 0.06627 0.0
C150 C 0.67066 0.69491 0.07347 0.0
C151 C 0.67155 0.62984 0.06308 0.0
C152 C 0.72235 0.73661 0.0581 0.0
C153 C 0.77831 0.71247 0.03253 0.0
C154 C 0.78085 0.64641 0.02261 0.0
C155 C 0.72619 0.6058 0.03756 0.0
C156 C 0.71478 0.80667 0.0683 0.0
C157 C 0.84065 0.61875 -0.00392 0.0
H158 H 0.78698 0.84661 0.94202 0.0
H159 H 0.98076 0.87388 0.03418 0.0
H160 H 0.70908 0.69282 0.9571 0.0
H161 H 0.65512 0.75889 0.97614 0.0
H162 H 0.69356 0.75868 0.93089 0.0
H163 H 1.0103 0.78792 0.07106 0.0
H164 H 0.91267 0.78702 0.09111 0.0
H165 H 0.94343 0.71697 0.06428 0.0
H166 H 0.62787 0.7132 0.09308 0.0
H167 H 0.7271 0.55524 0.02985 0.0
H168 H 0.69621 0.82867 0.04253 0.0
H169 H 0.7758 0.82897 0.08091 0.0
H170 H 0.66809 0.8175 0.08857 0.0
H171 H 0.82283 0.63062 0.96731 0.0
H172 H 0.84151 0.5666 -0.00531 0.0
H173 H 0.90462 0.63929 0.00512 0.0
C174 C 0.94867 0.24733 0.02055 0.0
C175 C 0.93511 0.19275 -0.00537 0.0
C176 C 0.91317 0.3041 0.01224 0.0
C177 C 0.8616 0.3048 0.97793 0.0
C178 C 0.85162 0.25015 0.95119 0.0
C179 C 0.88959 0.19541 0.95969 0.0
C180 C 0.92825 0.36257 0.04044 0.0
C181 C 0.79605 0.24778 0.91456 0.0
C182 C 0.67161 0.40005 0.96469 0.0
C183 C 0.69473 0.43731 0.93763 0.0
C184 C 0.72846 0.36087 0.98117 0.0
C185 C 0.81075 0.35951 0.97061 0.0
C186 C 0.83654 0.4017 0.94612 0.0
C187 C 0.77787 0.43967 0.92955 0.0
C188 C 0.69763 0.31632 0.00683 0.0
C189 C 0.92419 0.40308 0.93499 0.0
H190 H 0.98405 0.24508 0.04755 0.0
H191 H 0.8795 0.15301 0.93965 0.0
H192 H 0.95312 0.40188 0.02669 0.0
H193 H 0.86866 0.37739 0.05084 0.0
H194 H 0.97282 0.35517 0.06492 0.0
H195 H 0.79636 0.20163 0.89668 0.0
H196 H 0.73096 0.25634 0.92051 0.0
H197 H 0.8162 0.2852 0.8982 0.0
H198 H 0.60739 0.39826 0.9711 0.0
H199 H 0.79636 0.46969 0.90932 0.0
H200 H 0.74329 0.31514 0.03184 0.0
H201 H 0.69007 0.26789 -0.00854 0.0
H202 H 0.63665 0.3296 0.01654 0.0
H203 H 0.97018 0.39862 0.95946 0.0
H204 H 0.93948 0.44717 0.92318 0.0
H205 H 0.9308 0.36267 0.9132 0.0
C206 C 0.67687 0.73216 0.51206 0.0
C207 C 0.71165 0.6847 0.48912 0.0
C208 C 0.70771 0.79481 0.51462 0.0
C209 C 0.77337 0.80907 0.49324 0.0
C210 C 0.79303 0.76402 0.46368 0.0
C211 C 0.7622 0.70154 0.46214 0.0
C212 C 0.68138 0.84241 0.54512 0.0
C213 C 0.85807 0.77886 0.43834 0.0
C214 C 0.89 0.96797 0.52237 0.0
C215 C 0.95378 0.95186 0.54822 0.0
C216 C 0.83264 0.92191 0.50246 0.0
C217 C 0.8378 0.85866 0.50991 0.0
C218 C 0.90368 0.84217 0.53562 0.0
C219 C 0.96112 0.88894 0.55411 0.0
C220 C 0.7653 0.94209 0.4749 0.0
C221 C 0.91219 0.77546 0.54483 0.0
H222 H 0.6367 0.71911 0.5326 0.0
H223 H 0.7881 0.66476 0.44389 0.0
H224 H 0.72789 0.84551 0.57027 0.0
H225 H 0.67856 0.88979 0.53572 0.0
H226 H 0.61953 0.82878 0.55353 0.0
H227 H 0.85007 0.74663 0.41144 0.0
H228 H 0.8552 0.82836 0.43215 0.0
H229 H 0.92094 0.77283 0.45263 0.0
H230 H 0.88276 0.01681 0.5189 0.0
H231 H 1.01064 0.87669 0.57422 0.0
H232 H 0.71192 0.95792 0.49022 0.0
H233 H 0.74253 0.90319 0.45254 0.0
H234 H 0.78817 0.98256 0.46147 0.0
H235 H 0.85491 0.75914 0.55617 0.0
H236 H 0.96618 0.7712 0.56592 0.0
H237 H 0.92029 0.74332 0.51897 0.0
C238 C 0.85295 0.36242 0.50043 0.0
C239 C 0.76841 0.37056 0.48902 0.0
C240 C 0.89049 0.30582 0.49065 0.0
C241 C 0.84287 0.25556 0.46866 0.0
C242 C 0.75659 0.26168 0.45863 0.0
C243 C 0.72015 0.3194 0.46881 0.0
C244 C 0.98211 0.30068 0.5028 0.0
C245 C 0.70363 0.20765 0.43649 0.0
C246 C 0.96543 0.14997 0.40473 0.0
C247 C 0.97414 0.09622 0.4234 0.0
C248 C 0.92062 0.20076 0.41869 0.0
C249 C 0.88604 0.1995 0.45316 0.0
C250 C 0.89863 0.14734 0.47353 0.0
C251 C 0.94168 0.09587 0.45811 0.0
C252 C 0.91132 0.25631 0.39661 0.0
C253 C 0.86685 0.14495 0.51142 0.0
H254 H 0.89111 0.40084 0.51673 0.0
H255 H 0.65463 0.32465 0.46048 0.0
H256 H 0.99235 0.25715 0.5162 0.0
H257 H 1.01725 0.2976 0.47772 0.0
H258 H 1.00836 0.34176 0.52293 0.0
H259 H 0.63646 0.21786 0.43354 0.0
H260 H 0.72448 0.1975 0.40798 0.0
H261 H 0.71157 0.16449 0.45052 0.0
H262 H 0.99386 0.15259 0.37889 0.0
H263 H 0.94922 0.05524 0.47299 0.0
H264 H 0.94234 0.29918 0.41345 0.0
H265 H 0.84441 0.26566 0.39075 0.0
H266 H 0.93879 0.24856 0.3694 0.0
H267 H 0.8496 0.19142 0.52484 0.0
H268 H 0.91492 0.12644 0.53095 0.0
H269 H 0.81089 0.1123 0.50787 0.0
C270 C 0.44175 0.30755 0.49442 0.0
C271 C 0.42589 0.36845 0.51024 0.0
C272 C 0.40589 0.25449 0.5073 0.0
C273 C 0.35151 0.26324 0.53587 0.0
C274 C 0.34214 0.32459 0.55429 0.0
C275 C 0.38066 0.37648 0.54153 0.0
C276 C 0.41906 0.18978 0.48757 0.0
C277 C 0.28431 0.33603 0.5847 0.0
C278 C 0.15959 0.15509 0.5345 0.0
C279 C 0.18155 0.12298 0.56543 0.0
C280 C 0.21633 0.19845 0.5232 0.0
C281 C 0.29651 0.21011 0.54352 0.0
C282 C 0.32047 0.17504 0.57328 0.0
C283 C 0.26293 0.13158 0.58368 0.0
C284 C 0.18861 0.2344 0.49092 0.0
C285 C 0.40551 0.18539 0.59526 0.0
H286 H 0.47526 0.30152 0.46964 0.0
H287 H 0.36702 0.42379 0.55309 0.0
H288 H 0.42583 0.15487 0.50794 0.0
H289 H 0.36394 0.17418 0.46717 0.0
H290 H 0.47504 0.18969 0.47193 0.0
H291 H 0.28365 0.38664 0.59603 0.0
H292 H 0.21976 0.3196 0.57328 0.0
H293 H 0.30312 0.30874 0.6082 0.0
H294 H 0.09691 0.14855 0.52023 0.0
H295 H 0.28103 0.10538 0.60691 0.0
H296 H 0.23654 0.23398 0.47086 0.0
H297 H 0.18064 0.28433 0.50195 0.0
H298 H 0.12874 0.2145 0.47532 0.0
H299 H 0.45484 0.18371 0.57583 0.0
H300 H 0.41745 0.14979 0.61496 0.0
H301 H 0.41074 0.23286 0.61185 0.0
C302 C 0.44747 0.72621 0.48696 0.0
C303 C 0.40544 0.67936 0.50284 0.0
C304 C 0.40772 0.78112 0.47885 0.0
C305 C 0.32441 0.78922 0.48717 0.0
C306 C 0.28596 0.74562 0.50747 0.0
C307 C 0.32667 0.69082 0.51471 0.0
C308 C 0.45126 0.82612 0.45716 0.0
C309 C 0.19805 0.75295 0.5177 0.0
C310 C 0.21313 0.93694 0.46468 0.0
C311 C 0.16965 0.91565 0.42929 0.0
C312 C 0.2635 0.89653 0.48421 0.0
C313 C 0.27193 0.83384 0.46765 0.0
C314 C 0.22821 0.81222 0.43204 0.0
C315 C 0.1769 0.85289 0.41372 0.0
C316 C 0.30788 0.92095 0.52241 0.0
C317 C 0.2353 0.74578 0.41313 0.0
H318 H 0.50765 0.71697 0.47708 0.0
H319 H 0.29412 0.65455 0.52702 0.0
H320 H 0.42851 0.8155 0.42681 0.0
H321 H 0.43743 0.87563 0.46647 0.0
H322 H 0.5199 0.82158 0.46031 0.0
H323 H 0.18392 0.7233 0.53978 0.0
H324 H 0.18748 0.80283 0.5278 0.0
H325 H 0.15345 0.73837 0.49235 0.0
H326 H 0.20886 0.98537 0.47698 0.0
H327 H 0.14188 0.8351 0.38703 0.0
H328 H 0.37625 0.92118 0.52113 0.0
H329 H 0.29304 0.88937 0.54335 0.0
H330 H 0.29062 0.96947 0.53248 0.0
H331 H 0.30164 0.73613 0.41036 0.0
H332 H 0.20022 0.73735 0.38466 0.0
H333 H 0.21102 0.71143 0.43059 0.0
C334 C 0.18603 0.02147 0.14512 0.0
C335 C 0.12317 0.01083 0.11484 0.0
C336 C 0.17021 0.01218 0.18164 0.0
C337 C 0.08929 -0.008 0.18834 0.0
C338 C 1.02541 0.98066 0.158 0.0
C339 C 0.04307 -0.00974 0.12155 0.0
C340 C 0.24013 0.02487 0.21321 0.0
C341 C 0.93825 0.95947 0.16419 0.0
C342 C 0.07634 0.9304 0.2825 0.0
C343 C 0.05998 0.98555 0.30551 0.0
C344 C 0.08302 0.93093 0.24383 0.0
C345 C 0.07125 -0.01245 0.22768 0.0
C346 C 0.05108 0.04244 0.25033 0.0
C347 C 0.04747 0.04112 0.2889 0.0
C348 C 0.10604 0.8717 0.22061 0.0
C349 C 1.03702 0.10366 0.23422 0.0
H350 H 0.24816 0.03734 0.14039 0.0
H351 H 0.99426 0.98132 0.09832 0.0
H352 H 0.22509 0.06474 0.23378 0.0
H353 H 0.24733 0.98306 0.22848 0.0
H354 H 0.30066 0.03667 0.2029 0.0
H355 H 0.89707 0.9487 0.13735 0.0
H356 H 0.93981 0.91687 0.17894 0.0
H357 H 0.91055 -0.00307 0.18251 0.0
H358 H 0.08504 0.88697 0.29473 0.0
H359 H 1.03733 0.08469 0.30622 0.0
H360 H 0.16913 0.87889 0.21165 0.0
H361 H 0.0621 0.86103 0.19469 0.0
H362 H 0.10608 0.83031 0.23649 0.0
H363 H 0.09691 0.12309 0.22676 0.0
H364 H 1.0114 0.13954 0.25443 0.0
H365 H 0.9934 0.0956 0.20807 0.0
C366 C 0.10782 0.0533 0.86068 0.0
C367 C 1.02801 0.03909 0.87051 0.0
C368 C 0.12063 0.05823 0.82304 0.0
C369 C 0.0522 0.0479 0.79479 0.0
C370 C 0.97171 0.03364 0.80465 0.0
C371 C 0.96059 0.02972 0.84234 0.0
C372 C 0.20713 0.0742 0.81344 0.0
C373 C 0.89724 0.02172 0.7753 0.0
C374 C 0.05449 0.10559 0.69936 0.0
C375 C 0.06534 0.04933 0.67645 0.0
C376 C 0.0531 0.10644 0.73836 0.0
C377 C 0.06409 0.04985 0.75459 0.0
C378 C 0.07836 -0.0065 0.73163 0.0
C379 C 0.07811 -0.00616 0.69273 0.0
C380 C 1.0366 0.1672 0.76192 0.0
C381 C 0.09115 0.93239 0.74797 0.0
H382 H 0.16001 0.06109 0.8824 0.0
H383 H 0.89878 0.01829 0.84964 0.0
H384 H 0.22733 0.03579 0.79321 0.0
H385 H 0.20688 0.11766 0.79949 0.0
H386 H 0.25352 0.08148 0.83872 0.0
H387 H 0.83858 0.01226 0.7878 0.0
H388 H 0.88929 0.06305 0.75965 0.0
H389 H 0.90747 0.98066 0.75454 0.0
H390 H 0.04454 0.14842 0.68658 0.0
H391 H 0.08763 0.95059 0.6749 0.0
H392 H 0.08497 0.1774 0.78628 0.0
H393 H 0.97568 0.16246 0.77339 0.0
H394 H 1.03537 0.2079 0.74547 0.0
H395 H 0.14105 0.93914 0.77183 0.0
H396 H 0.10807 0.89406 0.72674 0.0
H397 H 1.03316 0.91714 0.75916 0.0
C398 C 0.66965 0.53678 0.65415 0.0
C399 C 0.61118 0.51865 0.62268 0.0
C400 C 0.65384 0.52586 0.69039 0.0
C401 C 0.57701 0.49649 0.69588 0.0
C402 C 0.51748 0.47752 0.66443 0.0
C403 C 0.53518 0.48891 0.62812 0.0
C404 C 0.71958 0.54646 0.72297 0.0
C405 C 0.43464 0.44635 0.66917 0.0
C406 C 0.58167 0.43626 0.79125 0.0
C407 C 0.55603 0.48899 0.81377 0.0
C408 C 0.58404 0.43621 0.75221 0.0
C409 C 0.55887 0.48968 0.7351 0.0
C410 C 0.52831 0.54133 0.75722 0.0
C411 C 0.52867 0.54085 0.79618 0.0
C412 C 0.61751 0.38028 0.72965 0.0
C413 C 0.49968 0.59896 0.74014 0.0
H414 H 0.72877 0.55971 0.65063 0.0
H415 H 0.48974 0.47433 0.60409 0.0
H416 H 0.69541 0.58343 0.7429 0.0
H417 H 0.735 0.50614 0.73865 0.0
H418 H 0.77786 0.56556 0.71366 0.0
H419 H 0.4015 0.42527 0.64177 0.0
H420 H 0.44284 0.40898 0.68786 0.0
H421 H 0.39488 0.48191 0.68261 0.0
H422 H 0.60126 0.3953 0.80415 0.0
H423 H 0.51031 0.58258 0.81297 0.0
H424 H 0.67911 0.39388 0.72107 0.0
H425 H 0.57553 0.36519 0.70352 0.0
H426 H 0.62513 0.33959 0.74593 0.0
H427 H 0.55441 0.62569 0.73262 0.0
H428 H 0.4665 0.63079 0.7598 0.0
H429 H 0.45763 0.58504 0.71389 0.0
C430 C 0.63084 0.52884 0.3621 0.0
C431 C 0.55027 0.53513 0.37306 0.0
C432 C 0.64703 0.53641 0.32503 0.0
C433 C 0.58124 0.55093 0.29874 0.0
C434 C 0.50125 0.56086 0.31049 0.0
C435 C 0.4869 0.55284 0.34733 0.0
C436 C 0.73345 0.52651 0.31357 0.0
C437 C 0.42933 0.57698 0.28365 0.0
C438 C 0.60323 0.60629 0.20363 0.0
C439 C 0.58326 0.55035 0.17907 0.0
C440 C 0.60907 0.60655 0.24293 0.0
C441 C 0.59231 0.54992 0.25804 0.0
C442 C 0.57498 0.49306 0.2335 0.0
C443 C 0.57198 0.49383 0.19449 0.0
C444 C 0.62958 0.66794 0.26817 0.0
C445 C 0.55531 0.43174 0.24831 0.0
H446 H 0.68024 0.51577 0.38195 0.0
H447 H 0.42489 0.55944 0.35583 0.0
H448 H 0.73307 0.48217 0.29402 0.0
H449 H 0.75362 0.56548 0.29831 0.0
H450 H 0.77982 0.52347 0.33818 0.0
H451 H 0.37233 0.5868 0.29789 0.0
H452 H 0.44649 0.61889 0.27023 0.0
H453 H 0.41435 0.53719 0.26085 0.0
H454 H 0.61185 0.65038 0.19226 0.0
H455 H 0.55944 0.4499 0.17601 0.0
H456 H 0.67666 0.66128 0.29183 0.0
H457 H 0.57276 0.68452 0.28053 0.0
H458 H 0.65365 0.7053 0.25261 0.0
H459 H 0.60528 0.42229 0.27008 0.0
H460 H 0.54803 0.39103 0.22571 0.0
H461 H 0.49651 0.43518 0.26186 0.0
loop_
_geom_bond_atom_site_label_1
_geom_bond_atom_site_label_2
_geom_bond_distance
_geom_bond_site_symmetry_2
_ccdc_geom_bond_type
O0 Mn1 2.163 1_654 S
O0 C14 1.244 1_554 S
Mn1 O0 2.163 1_456 S
Mn1 O4 2.160 1_545 S
Mn1 O5 2.221 1_556 S
Mn1 O7 2.163 1_556 S
Mn1 O9 2.160 . S
Mn1 O19 2.221 1_445 S
O2 Mn3 2.087 . S
O2 C14 1.256 . S
Mn3 O2 2.087 . S
Mn3 O10 2.089 . S
Mn3 O19 2.290 1_545 S
Mn3 O20 2.251 1_545 S
O4 Mn1 2.160 1_565 S
O4 C15 1.239 1_556 S
O5 Mn1 2.221 1_554 S
O5 Mn6 2.290 . S
O5 C16 1.278 . S
Mn6 O5 2.290 . S
Mn6 O8 2.089 1_545 S
Mn6 O11 2.251 . S
Mn6 O12 2.087 . S
O7 Mn1 2.163 1_554 S
O7 C17 1.244 . S
O8 Mn6 2.089 1_565 S
O8 C15 1.256 . S
O9 Mn1 2.160 . S
O9 C18 1.239 . S
O10 Mn3 2.089 . S
O10 C18 1.256 1_655 S
O11 Mn6 2.251 . S
O11 C16 1.241 . S
O12 Mn6 2.087 . S
O12 C17 1.256 . S
C13 O19 1.267 1_554 S
C13 O20 1.236 1_554 S
C14 O0 1.244 1_556 S
C14 O2 1.256 . S
C15 O4 1.239 1_554 S
C15 O8 1.256 . S
C16 O5 1.278 . S
C16 O11 1.241 . S
C17 O7 1.244 . S
C17 O12 1.256 . S
C18 O9 1.239 . S
C18 O10 1.256 1_455 S
O19 Mn1 2.221 1_665 S
O19 Mn3 2.290 1_565 S
O19 C13 1.267 1_556 S
O20 Mn3 2.251 1_565 S
O20 C13 1.236 1_556 S
O21 Mn22 2.163 . S
O21 C35 1.244 . S
Mn22 O21 2.163 . S
Mn22 O25 2.160 . S
Mn22 O26 2.221 . S
Mn22 O28 2.163 . S
Mn22 O30 2.160 . S
Mn22 O40 2.221 . S
O23 Mn24 2.087 . S
O23 C35 1.256 . S
Mn24 O23 2.087 . S
Mn24 O31 2.089 . S
Mn24 O40 2.290 . S
Mn24 O41 2.251 . S
O25 Mn22 2.160 . S
O25 C36 1.239 . S
O26 Mn22 2.221 . S
O26 Mn27 2.290 . S
O26 C37 1.278 . S
Mn27 O26 2.290 . S
Mn27 O29 2.089 . S
Mn27 O32 2.251 . S
Mn27 O33 2.087 . S
O28 Mn22 2.163 . S
O28 C38 1.244 . S
O29 Mn27 2.089 . S
O29 C36 1.256 . S
O30 Mn22 2.160 . S
O30 C39 1.239 . S
O31 Mn24 2.089 . S
O31 C39 1.256 . S
O32 Mn27 2.251 . S
O32 C37 1.241 . S
O33 Mn27 2.087 . S
O33 C38 1.256 . S
C34 O40 1.278 . S
C34 O41 1.241 . S
C35 O21 1.244 . S
C35 O23 1.256 . S
C36 O25 1.239 . S
C36 O29 1.256 . S
C37 O26 1.278 . S
C37 O32 1.241 . S
C38 O28 1.244 . S
C38 O33 1.256 . S
C39 O30 1.239 . S
C39 O31 1.256 . S
O40 Mn22 2.221 . S
O40 Mn24 2.290 . S
O40 C34 1.278 . S
O41 Mn24 2.251 . S
O41 C34 1.241 . S
H42 C45 0.924 1_655 S
H43 C48 0.928 . S
H44 C50 0.930 . S
C45 H42 0.924 1_455 S
C45 C46 1.413 1_455 S
C45 C47 1.363 1_545 S
C46 C45 1.413 1_655 S
C46 C50 1.429 1_655 S
C47 C45 1.363 1_565 S
C47 C48 1.377 . S
C48 H43 0.928 . S
C48 C47 1.377 . S
C48 C49 1.404 . S
C49 C48 1.404 . S
C49 C50 1.391 1_565 S
C50 H44 0.930 . S
C50 C46 1.429 1_455 S
C50 C49 1.391 1_545 S
H51 C54 0.931 . S
H52 C57 0.928 . S
H53 C59 0.930 . S
C54 H51 0.931 . S
C54 C55 1.413 . S
C54 C56 1.360 1_655 S
C55 C54 1.413 . S
C55 C59 1.429 . S
C56 C54 1.360 1_455 S
C56 C57 1.372 . S
C57 H52 0.928 . S
C57 C56 1.372 . S
C57 C58 1.404 . S
C58 C57 1.404 . S
C58 C59 1.391 1_455 S
C59 H53 0.930 . S
C59 C55 1.429 . S
C59 C58 1.391 1_655 S
H60 C63 0.931 . S
H61 C66 0.928 . S
H62 C68 0.930 . S
C63 H60 0.931 . S
C63 C64 1.413 . S
C63 C65 1.360 . S
C64 C63 1.413 . S
C64 C68 1.429 . S
C65 C63 1.360 . S
C65 C66 1.372 . S
C66 H61 0.928 . S
C66 C65 1.372 . S
C66 C67 1.404 . S
C67 C66 1.404 . S
C67 C68 1.391 . S
C68 H62 0.930 . S
C68 C64 1.429 . S
C68 C67 1.391 . S
H69 C72 0.931 . S
H70 C75 0.928 . S
H71 C77 0.930 . S
C72 H69 0.931 . S
C72 C73 1.413 . S
C72 C74 1.360 . S
C73 C72 1.413 . S
C73 C77 1.429 . S
C74 C72 1.360 . S
C74 C75 1.372 . S
C75 H70 0.928 . S
C75 C74 1.372 . S
C75 C76 1.404 . S
C76 C75 1.404 . S
C76 C77 1.391 . S
C77 H71 0.930 . S
C77 C73 1.429 . S
C77 C76 1.391 . S
C78 C79 1.385 1_556 S
C78 C80 1.392 1_556 S
C78 H94 0.939 . S
C79 C78 1.385 1_554 S
C79 C83 1.376 . S
C80 C78 1.392 1_554 S
C80 C81 1.369 . S
C80 C84 1.531 1_554 S
C81 C80 1.369 . S
C81 C82 1.410 . S
C81 C89 1.503 . S
C82 C81 1.410 . S
C82 C83 1.392 . S
C82 C85 1.511 . S
C83 C79 1.376 . S
C83 C82 1.392 . S
C83 H95 0.929 . S
C84 C80 1.531 1_556 S
C84 H96 0.960 . S
C84 H97 0.962 1_556 S
C84 H98 0.960 . S
C85 C82 1.511 . S
C85 H99 0.961 . S
C85 H100 0.961 . S
C85 H101 0.961 . S
C86 C87 1.370 . S
C86 C88 1.363 . S
C86 H102 0.931 . S
C87 C86 1.370 . S
C87 C91 1.408 . S
C88 C86 1.363 . S
C88 C89 1.370 . S
C88 C92 1.524 . S
C89 C81 1.503 . S
C89 C88 1.370 . S
C89 C90 1.403 . S
C90 C89 1.403 . S
C90 C91 1.404 . S
C90 C93 1.539 1_554 S
C91 C87 1.408 . S
C91 C90 1.404 . S
C91 H103 0.930 . S
C92 C88 1.524 . S
C92 H104 0.956 . S
C92 H105 0.961 . S
C92 H106 0.961 . S
C93 C90 1.539 1_556 S
C93 H107 0.958 . S
C93 H108 0.961 . S
C93 H109 0.960 . S
H94 C78 0.939 . S
H95 C83 0.929 . S
H96 C84 0.960 . S
H97 C84 0.962 1_554 S
H98 C84 0.960 . S
H99 C85 0.961 . S
H100 C85 0.961 . S
H101 C85 0.961 . S
H102 C86 0.931 . S
H103 C91 0.930 . S
H104 C92 0.956 . S
H105 C92 0.961 . S
H106 C92 0.961 . S
H107 C93 0.958 . S
H108 C93 0.961 . S
H109 C93 0.960 . S
C110 C111 1.391 1_554 S
C110 C112 1.394 . S
C110 H126 0.931 . S
C111 C110 1.391 1_556 S
C111 C115 1.376 . S
C112 C110 1.394 . S
C112 C113 1.369 1_554 S
C112 C116 1.531 . S
C113 C112 1.369 1_556 S
C113 C114 1.410 . S
C113 C121 1.503 . S
C114 C113 1.410 . S
C114 C115 1.392 . S
C114 C117 1.511 . S
C115 C111 1.376 . S
C115 C114 1.392 . S
C115 H127 0.929 . S
C116 C112 1.531 . S
C116 H128 0.960 . S
C116 H129 0.962 . S
C116 H130 0.960 . S
C117 C114 1.511 . S
C117 H131 0.961 . S
C117 H132 0.961 . S
C117 H133 0.961 . S
C118 C119 1.370 . S
C118 C120 1.363 . S
C118 H134 0.931 . S
C119 C118 1.370 . S
C119 C123 1.408 . S
C120 C118 1.363 . S
C120 C121 1.370 . S
C120 C124 1.524 1_556 S
C121 C113 1.503 . S
C121 C120 1.370 . S
C121 C122 1.403 . S
C122 C121 1.403 . S
C122 C123 1.404 . S
C122 C125 1.539 . S
C123 C119 1.408 . S
C123 C122 1.404 . S
C123 H135 0.930 . S
C124 C120 1.524 1_554 S
C124 H136 0.956 . S
C124 H137 0.961 . S
C124 H138 0.961 . S
C125 C122 1.539 . S
C125 H139 0.958 . S
C125 H140 0.961 . S
C125 H141 0.960 . S
H126 C110 0.931 . S
H127 C115 0.929 . S
H128 C116 0.960 . S
H129 C116 0.962 . S
H130 C116 0.960 . S
H131 C117 0.961 . S
H132 C117 0.961 . S
H133 C117 0.961 . S
H134 C118 0.931 . S
H135 C123 0.930 . S
H136 C124 0.956 . S
H137 C124 0.961 . S
H138 C124 0.961 . S
H139 C125 0.958 . S
H140 C125 0.961 . S
H141 C125 0.960 . S
C142 C143 1.391 1_556 S
C142 C144 1.394 1_556 S
C142 H158 0.931 . S
C143 C142 1.391 1_554 S
C143 C147 1.376 . S
C144 C142 1.394 1_554 S
C144 C145 1.369 . S
C144 C148 1.531 1_554 S
C145 C144 1.369 . S
C145 C146 1.410 . S
C145 C153 1.503 . S
C146 C145 1.410 . S
C146 C147 1.392 . S
C146 C149 1.511 . S
C147 C143 1.376 . S
C147 C146 1.392 . S
C147 H159 0.929 . S
C148 C144 1.531 1_556 S
C148 H160 0.960 . S
C148 H161 0.962 . S
C148 H162 0.960 . S
C149 C146 1.511 . S
C149 H163 0.961 . S
C149 H164 0.961 . S
C149 H165 0.961 . S
C150 C151 1.370 . S
C150 C152 1.363 . S
C150 H166 0.931 . S
C151 C150 1.370 . S
C151 C155 1.408 . S
C152 C150 1.363 . S
C152 C153 1.370 . S
C152 C156 1.524 . S
C153 C145 1.503 . S
C153 C152 1.370 . S
C153 C154 1.403 . S
C154 C153 1.403 . S
C154 C155 1.404 . S
C154 C157 1.539 1_554 S
C155 C151 1.408 . S
C155 C154 1.404 . S
C155 H167 0.930 . S
C156 C152 1.524 . S
C156 H168 0.956 . S
C156 H169 0.961 . S
C156 H170 0.961 . S
C157 C154 1.539 1_556 S
C157 H171 0.958 . S
C157 H172 0.961 . S
C157 H173 0.960 . S
H158 C142 0.931 . S
H159 C147 0.929 . S
H160 C148 0.960 . S
H161 C148 0.962 . S
H162 C148 0.960 . S
H163 C149 0.961 . S
H164 C149 0.961 . S
H165 C149 0.961 . S
H166 C150 0.931 . S
H167 C155 0.930 . S
H168 C156 0.956 . S
H169 C156 0.961 . S
H170 C156 0.961 . S
H171 C157 0.958 . S
H172 C157 0.961 . S
H173 C157 0.960 . S
C174 C175 1.391 1_554 S
C174 C176 1.394 1_554 S
C174 H190 0.931 . S
C175 C174 1.391 1_556 S
C175 C179 1.376 . S
C176 C174 1.394 1_556 S
C176 C177 1.369 . S
C176 C180 1.531 1_556 S
C177 C176 1.369 . S
C177 C178 1.410 . S
C177 C185 1.503 . S
C178 C177 1.410 . S
C178 C179 1.392 . S
C178 C181 1.511 . S
C179 C175 1.376 . S
C179 C178 1.392 . S
C179 H191 0.929 . S
C180 C176 1.531 1_554 S
C180 H192 0.970 . S
C180 H193 0.962 . S
C180 H194 0.960 . S
C181 C178 1.511 . S
C181 H195 0.961 . S
C181 H196 0.961 . S
C181 H197 0.961 . S
C182 C183 1.370 . S
C182 C184 1.363 . S
C182 H198 0.931 . S
C183 C182 1.370 . S
C183 C187 1.408 . S
C184 C182 1.363 . S
C184 C185 1.370 . S
C184 C188 1.524 1_556 S
C185 C177 1.503 . S
C185 C184 1.370 . S
C185 C186 1.403 . S
C186 C185 1.403 . S
C186 C187 1.404 . S
C186 C189 1.539 . S
C187 C183 1.408 . S
C187 C186 1.404 . S
C187 H199 0.930 . S
C188 C184 1.524 1_554 S
C188 H200 0.956 . S
C188 H201 0.958 1_554 S
C188 H202 0.961 . S
C189 C186 1.539 . S
C189 H203 0.958 . S
C189 H204 0.961 . S
C189 H205 0.960 . S
H190 C174 0.931 . S
H191 C179 0.929 . S
H192 C180 0.970 . S
H193 C180 0.962 . S
H194 C180 0.960 . S
H195 C181 0.961 . S
H196 C181 0.961 . S
H197 C181 0.961 . S
H198 C182 0.931 . S
H199 C187 0.930 . S
H200 C188 0.956 . S
H201 C188 0.958 1_556 S
H202 C188 0.961 . S
H203 C189 0.958 . S
H204 C189 0.961 . S
H205 C189 0.960 . S
C206 C207 1.391 . S
C206 C208 1.394 . S
C206 H222 0.931 . S
C207 C206 1.391 . S
C207 C211 1.376 . S
C208 C206 1.394 . S
C208 C209 1.369 . S
C208 C212 1.531 . S
C209 C208 1.369 . S
C209 C210 1.410 . S
C209 C217 1.503 . S
C210 C209 1.410 . S
C210 C211 1.392 . S
C210 C213 1.511 . S
C211 C207 1.376 . S
C211 C210 1.392 . S
C211 H223 0.929 . S
C212 C208 1.531 . S
C212 H224 0.960 . S
C212 H225 0.962 . S
C212 H226 0.960 . S
C213 C210 1.511 . S
C213 H227 0.961 . S
C213 H228 0.961 . S
C213 H229 0.961 . S
C214 C215 1.370 . S
C214 C216 1.363 . S
C214 H230 0.931 1_565 S
C215 C214 1.370 . S
C215 C219 1.408 . S
C216 C214 1.363 . S
C216 C217 1.370 . S
C216 C220 1.524 . S
C217 C209 1.503 . S
C217 C216 1.370 . S
C217 C218 1.403 . S
C218 C217 1.403 . S
C218 C219 1.404 . S
C218 C221 1.539 . S
C219 C215 1.408 . S
C219 C218 1.404 . S
C219 H231 0.930 . S
C220 C216 1.524 . S
C220 H232 0.956 . S
C220 H233 0.961 . S
C220 H234 0.961 . S
C221 C218 1.539 . S
C221 H235 0.958 . S
C221 H236 0.961 . S
C221 H237 0.960 . S
H222 C206 0.931 . S
H223 C211 0.929 . S
H224 C212 0.960 . S
H225 C212 0.962 . S
H226 C212 0.960 . S
H227 C213 0.961 . S
H228 C213 0.961 . S
H229 C213 0.961 . S
H230 C214 0.931 1_545 S
H231 C219 0.930 . S
H232 C220 0.956 . S
H233 C220 0.961 . S
H234 C220 0.961 . S
H235 C221 0.958 . S
H236 C221 0.961 . S
H237 C221 0.960 . S
C238 C239 1.391 . S
C238 C240 1.394 . S
C238 H254 0.931 . S
C239 C238 1.391 . S
C239 C243 1.376 . S
C240 C238 1.394 . S
C240 C241 1.369 . S
C240 C244 1.531 . S
C241 C240 1.369 . S
C241 C242 1.410 . S
C241 C249 1.503 . S
C242 C241 1.410 . S
C242 C243 1.392 . S
C242 C245 1.511 . S
C243 C239 1.376 . S
C243 C242 1.392 . S
C243 H255 0.929 . S
C244 C240 1.531 . S
C244 H256 0.960 . S
C244 H257 0.962 . S
C244 H258 0.960 . S
C245 C242 1.511 . S
C245 H259 0.961 . S
C245 H260 0.961 . S
C245 H261 0.961 . S
C246 C247 1.370 . S
C246 C248 1.363 . S
C246 H262 0.931 . S
C247 C246 1.370 . S
C247 C251 1.408 . S
C248 C246 1.363 . S
C248 C249 1.370 . S
C248 C252 1.524 . S
C249 C241 1.503 . S
C249 C248 1.370 . S
C249 C250 1.403 . S
C250 C249 1.403 . S
C250 C251 1.404 . S
C250 C253 1.539 . S
C251 C247 1.408 . S
C251 C250 1.404 . S
C251 H263 0.930 . S
C252 C248 1.524 . S
C252 H264 0.956 . S
C252 H265 0.961 . S
C252 H266 0.961 . S
C253 C250 1.539 . S
C253 H267 0.958 . S
C253 H268 0.961 . S
C253 H269 0.960 . S
H254 C238 0.931 . S
H255 C243 0.929 . S
H256 C244 0.960 . S
H257 C244 0.962 . S
H258 C244 0.960 . S
H259 C245 0.961 . S
H260 C245 0.961 . S
H261 C245 0.961 . S
H262 C246 0.931 . S
H263 C251 0.930 . S
H264 C252 0.956 . S
H265 C252 0.961 . S
H266 C252 0.961 . S
H267 C253 0.958 . S
H268 C253 0.961 . S
H269 C253 0.960 . S
C270 C271 1.391 . S
C270 C272 1.394 . S
C270 H286 0.931 . S
C271 C270 1.391 . S
C271 C275 1.376 . S
C272 C270 1.394 . S
C272 C273 1.369 . S
C272 C276 1.531 . S
C273 C272 1.369 . S
C273 C274 1.410 . S
C273 C281 1.503 . S
C274 C273 1.410 . S
C274 C275 1.392 . S
C274 C277 1.511 . S
C275 C271 1.376 . S
C275 C274 1.392 . S
C275 H287 0.929 . S
C276 C272 1.531 . S
C276 H288 0.960 . S
C276 H289 0.962 . S
C276 H290 0.960 . S
C277 C274 1.511 . S
C277 H291 0.961 . S
C277 H292 0.961 . S
C277 H293 0.961 . S
C278 C279 1.370 . S
C278 C280 1.363 . S
C278 H294 0.931 . S
C279 C278 1.370 . S
C279 C283 1.408 . S
C280 C278 1.363 . S
C280 C281 1.370 . S
C280 C284 1.524 . S
C281 C273 1.503 . S
C281 C280 1.370 . S
C281 C282 1.403 . S
C282 C281 1.403 . S
C282 C283 1.404 . S
C282 C285 1.539 . S
C283 C279 1.408 . S
C283 C282 1.404 . S
C283 H295 0.930 . S
C284 C280 1.524 . S
C284 H296 0.956 . S
C284 H297 0.961 . S
C284 H298 0.961 . S
C285 C282 1.539 . S
C285 H299 0.958 . S
C285 H300 0.961 . S
C285 H301 0.960 . S
H286 C270 0.931 . S
H287 C275 0.929 . S
H288 C276 0.960 . S
H289 C276 0.962 . S
H290 C276 0.960 . S
H291 C277 0.961 . S
H292 C277 0.961 . S
H293 C277 0.961 . S
H294 C278 0.931 . S
H295 C283 0.930 . S
H296 C284 0.956 . S
H297 C284 0.961 . S
H298 C284 0.961 . S
H299 C285 0.958 . S
H300 C285 0.961 . S
H301 C285 0.960 . S
C302 C303 1.391 . S
C302 C304 1.394 . S
C302 H318 0.931 . S
C303 C302 1.391 . S
C303 C307 1.376 . S
C304 C302 1.394 . S
C304 C305 1.369 . S
C304 C308 1.531 . S
C305 C304 1.369 . S
C305 C306 1.410 . S
C305 C313 1.503 . S
C306 C305 1.410 . S
C306 C307 1.392 . S
C306 C309 1.511 . S
C307 C303 1.376 . S
C307 C306 1.392 . S
C307 H319 0.929 . S
C308 C304 1.531 . S
C308 H320 0.960 . S
C308 H321 0.962 . S
C308 H322 0.960 . S
C309 C306 1.511 . S
C309 H323 0.961 . S
C309 H324 0.961 . S
C309 H325 0.961 . S
C310 C311 1.370 . S
C310 C312 1.363 . S
C310 H326 0.931 . S
C311 C310 1.370 . S
C311 C315 1.408 . S
C312 C310 1.363 . S
C312 C313 1.370 . S
C312 C316 1.524 . S
C313 C305 1.503 . S
C313 C312 1.370 . S
C313 C314 1.403 . S
C314 C313 1.403 . S
C314 C315 1.404 . S
C314 C317 1.539 . S
C315 C311 1.408 . S
C315 C314 1.404 . S
C315 H327 0.930 . S
C316 C312 1.524 . S
C316 H328 0.956 . S
C316 H329 0.961 . S
C316 H330 0.961 . S
C317 C314 1.539 . S
C317 H331 0.958 . S
C317 H332 0.961 . S
C317 H333 0.960 . S
H318 C302 0.931 . S
H319 C307 0.929 . S
H320 C308 0.960 . S
H321 C308 0.962 . S
H322 C308 0.960 . S
H323 C309 0.961 . S
H324 C309 0.961 . S
H325 C309 0.961 . S
H326 C310 0.931 . S
H327 C315 0.930 . S
H328 C316 0.956 . S
H329 C316 0.961 . S
H330 C316 0.961 . S
H331 C317 0.958 . S
H332 C317 0.961 . S
H333 C317 0.960 . S
C334 C335 1.391 . S
C334 C336 1.394 . S
C334 H350 0.931 . S
C335 C334 1.391 . S
C335 C339 1.376 1_445 S
C336 C334 1.394 . S
C336 C337 1.369 . S
C336 C340 1.531 . S
C337 C336 1.369 . S
C337 C338 1.410 1_445 S
C337 C345 1.503 . S
C338 C337 1.410 1_665 S
C338 C339 1.392 . S
C338 C341 1.511 . S
C339 C335 1.376 1_665 S
C339 C338 1.392 . S
C339 H351 0.929 . S
C340 C336 1.531 . S
C340 H352 0.960 . S
C340 H353 0.962 . S
C340 H354 0.960 . S
C341 C338 1.511 . S
C341 H355 0.961 . S
C341 H356 0.961 . S
C341 H357 0.961 1_565 S
C342 C343 1.370 1_565 S
C342 C344 1.363 . S
C342 H358 0.931 . S
C343 C342 1.370 1_545 S
C343 C347 1.408 . S
C344 C342 1.363 . S
C344 C345 1.370 1_565 S
C344 C348 1.524 . S
C345 C337 1.503 . S
C345 C344 1.370 1_545 S
C345 C346 1.403 . S
C346 C345 1.403 . S
C346 C347 1.404 . S
C346 C349 1.539 1_455 S
C347 C343 1.408 . S
C347 C346 1.404 . S
C347 H359 0.930 1_455 S
C348 C344 1.524 . S
C348 H360 0.956 . S
C348 H361 0.961 . S
C348 H362 0.961 . S
C349 C346 1.539 1_655 S
C349 H363 0.958 1_655 S
C349 H364 0.961 . S
C349 H365 0.960 . S
H350 C334 0.931 . S
H351 C339 0.929 . S
H352 C340 0.960 . S
H353 C340 0.962 . S
H354 C340 0.960 . S
H355 C341 0.961 . S
H356 C341 0.961 . S
H357 C341 0.961 1_545 S
H358 C342 0.931 . S
H359 C347 0.930 1_655 S
H360 C348 0.956 . S
H361 C348 0.961 . S
H362 C348 0.961 . S
H363 C349 0.958 1_455 S
H364 C349 0.961 . S
H365 C349 0.960 . S
C366 C367 1.391 . S
C366 C368 1.394 . S
C366 H382 0.931 . S
C367 C366 1.391 . S
C367 C371 1.376 1_455 S
C368 C366 1.394 . S
C368 C369 1.369 . S
C368 C372 1.531 . S
C369 C368 1.369 . S
C369 C370 1.410 1_455 S
C369 C377 1.503 . S
C370 C369 1.410 1_655 S
C370 C371 1.392 . S
C370 C373 1.513 . S
C371 C367 1.376 1_655 S
C371 C370 1.392 . S
C371 H383 0.929 . S
C372 C368 1.531 . S
C372 H384 0.960 . S
C372 H385 0.962 . S
C372 H386 0.960 . S
C373 C370 1.513 . S
C373 H387 0.961 . S
C373 H388 0.966 . S
C373 H389 0.953 1_545 S
C374 C375 1.370 1_655 S
C374 C376 1.363 . S
C374 H390 0.931 . S
C375 C374 1.370 1_455 S
C375 C379 1.408 . S
C376 C374 1.363 . S
C376 C377 1.370 1_655 S
C376 C380 1.524 . S
C377 C369 1.503 . S
C377 C376 1.370 1_455 S
C377 C378 1.403 . S
C378 C377 1.403 . S
C378 C379 1.404 . S
C378 C381 1.539 1_545 S
C379 C375 1.408 . S
C379 C378 1.404 . S
C379 H391 0.930 1_545 S
C380 C376 1.524 . S
C380 H392 0.956 1_655 S
C380 H393 0.961 . S
C380 H394 0.961 . S
C381 C378 1.539 1_565 S
C381 H395 0.958 . S
C381 H396 0.961 . S
C381 H397 0.960 . S
H382 C366 0.931 . S
H383 C371 0.929 . S
H384 C372 0.960 . S
H385 C372 0.962 . S
H386 C372 0.960 . S
H387 C373 0.961 . S
H388 C373 0.966 . S
H389 C373 0.953 1_565 S
H390 C374 0.931 . S
H391 C379 0.930 1_565 S
H392 C380 0.956 1_455 S
H393 C380 0.961 . S
H394 C380 0.961 . S
H395 C381 0.958 . S
H396 C381 0.961 . S
H397 C381 0.960 . S
C398 C399 1.391 . S
C398 C400 1.394 . S
C398 H414 0.931 . S
C399 C398 1.391 . S
C399 C403 1.376 . S
C400 C398 1.394 . S
C400 C401 1.369 . S
C400 C404 1.531 . S
C401 C400 1.369 . S
C401 C402 1.410 . S
C401 C409 1.503 . S
C402 C401 1.410 . S
C402 C403 1.392 . S
C402 C405 1.511 . S
C403 C399 1.376 . S
C403 C402 1.392 . S
C403 H415 0.929 . S
C404 C400 1.531 . S
C404 H416 0.960 . S
C404 H417 0.962 . S
C404 H418 0.960 . S
C405 C402 1.511 . S
C405 H419 0.961 . S
C405 H420 0.961 . S
C405 H421 0.961 . S
C406 C407 1.370 . S
C406 C408 1.363 . S
C406 H422 0.931 . S
C407 C406 1.370 . S
C407 C411 1.408 . S
C408 C406 1.363 . S
C408 C409 1.370 . S
C408 C412 1.524 . S
C409 C401 1.503 . S
C409 C408 1.370 . S
C409 C410 1.403 . S
C410 C409 1.403 . S
C410 C411 1.404 . S
C410 C413 1.539 . S
C411 C407 1.408 . S
C411 C410 1.404 . S
C411 H423 0.930 . S
C412 C408 1.524 . S
C412 H424 0.956 . S
C412 H425 0.961 . S
C412 H426 0.961 . S
C413 C410 1.539 . S
C413 H427 0.958 . S
C413 H428 0.961 . S
C413 H429 0.960 . S
H414 C398 0.931 . S
H415 C403 0.929 . S
H416 C404 0.960 . S
H417 C404 0.962 . S
H418 C404 0.960 . S
H419 C405 0.961 . S
H420 C405 0.961 . S
H421 C405 0.961 . S
H422 C406 0.931 . S
H423 C411 0.930 . S
H424 C412 0.956 . S
H425 C412 0.961 . S
H426 C412 0.961 . S
H427 C413 0.958 . S
H428 C413 0.961 . S
H429 C413 0.960 . S
C430 C431 1.391 . S
C430 C432 1.394 . S
C430 H446 0.931 . S
C431 C430 1.391 . S
C431 C435 1.376 . S
C432 C430 1.394 . S
C432 C433 1.369 . S
C432 C436 1.531 . S
C433 C432 1.369 . S
C433 C434 1.410 . S
C433 C441 1.503 . S
C434 C433 1.410 . S
C434 C435 1.392 . S
C434 C437 1.511 . S
C435 C431 1.376 . S
C435 C434 1.392 . S
C435 H447 0.929 . S
C436 C432 1.531 . S
C436 H448 0.960 . S
C436 H449 0.962 . S
C436 H450 0.960 . S
C437 C434 1.511 . S
C437 H451 0.961 . S
C437 H452 0.961 . S
C437 H453 0.961 . S
C438 C439 1.370 . S
C438 C440 1.363 . S
C438 H454 0.931 . S
C439 C438 1.370 . S
C439 C443 1.408 . S
C440 C438 1.363 . S
C440 C441 1.370 . S
C440 C444 1.524 . S
C441 C433 1.503 . S
C441 C440 1.370 . S
C441 C442 1.403 . S
C442 C441 1.403 . S
C442 C443 1.404 . S
C442 C445 1.539 . S
C443 C439 1.408 . S
C443 C442 1.404 . S
C443 H455 0.930 . S
C444 C440 1.524 . S
C444 H456 0.956 . S
C444 H457 0.961 . S
C444 H458 0.961 . S
C445 C442 1.539 . S
C445 H459 0.958 . S
C445 H460 0.961 . S
C445 H461 0.960 . S
H446 C430 0.931 . S
H447 C435 0.929 . S
H448 C436 0.960 . S
H449 C436 0.962 . S
H450 C436 0.960 . S
H451 C437 0.961 . S
H452 C437 0.961 . S
H453 C437 0.961 . S
H454 C438 0.931 . S
H455 C443 0.930 . S
H456 C444 0.956 . S
H457 C444 0.961 . S
H458 C444 0.961 . S
H459 C445 0.958 . S
H460 C445 0.961 . S
H461 C445 0.960 . S
C87 C73 1.379 . S
C79 C16 1.241 . S
C111 C15 1.442 1_556 S
C119 C64 1.427 . S
C143 C13 1.281 . S
C151 C76 1.416 . S
C175 C14 1.301 . S
C183 C67 1.347 . S
C207 C37 1.108 . S
C215 C55 1.363 1_565 S
C239 C36 1.431 . S
C247 C46 1.440 . S
C279 C58 1.406 . S
C271 C34 1.315 . S
C311 C49 1.349 . S
C303 C35 1.257 . S
C335 C17 1.495 . S
C343 C47 1.548 1_545 S
C367 C18 1.379 . S
C375 C56 1.422 . S
C407 C65 1.549 . S
C399 C38 1.499 . S
C431 C39 1.357 . S
C439 C74 1.423 . S
