# Generated by pormake.
# Topology eea, (3,6)-cn, num edge types: 1
# Building blocks:
#     Node 0, Type 0, BuildingBlock: MIDCAF_clean_linker_0, # of connection points: 3
#     Node 1, Type 0, BuildingBlock: MIDCAF_clean_linker_0, # of connection points: 3
#     Node 2, Type 0, BuildingBlock: MIDCAF_clean_linker_0, # of connection points: 3
#     Node 3, Type 0, BuildingBlock: MIDCAF_clean_linker_0, # of connection points: 3
#     Node 4, Type 0, BuildingBlock: MIDCAF_clean_linker_0, # of connection points: 3
#     Node 5, Type 0, BuildingBlock: MIDCAF_clean_linker_0, # of connection points: 3
#     Node 6, Type 0, BuildingBlock: MIDCAF_clean_linker_0, # of connection points: 3
#     Node 7, Type 0, BuildingBlock: MIDCAF_clean_linker_0, # of connection points: 3
#     Node 8, Type 0, BuildingBlock: MIDCAF_clean_linker_0, # of connection points: 3
#     Node 9, Type 0, BuildingBlock: MIDCAF_clean_linker_0, # of connection points: 3
#     Node 10, Type 0, BuildingBlock: MIDCAF_clean_linker_0, # of connection points: 3
#     Node 11, Type 0, BuildingBlock: MIDCAF_clean_linker_0, # of connection points: 3
#     Node 12, Type 0, BuildingBlock: MIDCAF_clean_linker_0, # of connection points: 3
#     Node 13, Type 0, BuildingBlock: MIDCAF_clean_linker_0, # of connection points: 3
#     Node 14, Type 0, BuildingBlock: MIDCAF_clean_linker_0, # of connection points: 3
#     Node 15, Type 0, BuildingBlock: MIDCAF_clean_linker_0, # of connection points: 3
#     Node 16, Type 0, BuildingBlock: MIDCAF_clean_linker_0, # of connection points: 3
#     Node 17, Type 0, BuildingBlock: MIDCAF_clean_linker_0, # of connection points: 3
#     Node 18, Type 1, BuildingBlock: HISSIN_clean_sbu_0, # of connection points: 6
#     Node 19, Type 1, BuildingBlock: HISSIN_clean_sbu_0, # of connection points: 6
#     Node 20, Type 1, BuildingBlock: HISSIN_clean_sbu_0, # of connection points: 6
#     Node 21, Type 1, BuildingBlock: HISSIN_clean_sbu_0, # of connection points: 6
#     Node 22, Type 1, BuildingBlock: HISSIN_clean_sbu_0, # of connection points: 6
#     Node 23, Type 1, BuildingBlock: HISSIN_clean_sbu_0, # of connection points: 6
#     Node 24, Type 1, BuildingBlock: HISSIN_clean_sbu_0, # of connection points: 6
#     Node 25, Type 1, BuildingBlock: HISSIN_clean_sbu_0, # of connection points: 6
#     Node 26, Type 1, BuildingBlock: HISSIN_clean_sbu_0, # of connection points: 6
#     Edge 27, Type (0, 1), BuildingBlock: AJUNOK_clean_linker_0, # of connection points: 2
#     Edge 28, Type (0, 1), BuildingBlock: AJUNOK_clean_linker_0, # of connection points: 2
#     Edge 29, Type (0, 1), BuildingBlock: AJUNOK_clean_linker_0, # of connection points: 2
#     Edge 30, Type (0, 1), BuildingBlock: AJUNOK_clean_linker_0, # of connection points: 2
#     Edge 31, Type (0, 1), BuildingBlock: AJUNOK_clean_linker_0, # of connection points: 2
#     Edge 32, Type (0, 1), BuildingBlock: AJUNOK_clean_linker_0, # of connection points: 2
#     Edge 33, Type (0, 1), BuildingBlock: AJUNOK_clean_linker_0, # of connection points: 2
#     Edge 34, Type (0, 1), BuildingBlock: AJUNOK_clean_linker_0, # of connection points: 2
#     Edge 35, Type (0, 1), BuildingBlock: AJUNOK_clean_linker_0, # of connection points: 2
#     Edge 36, Type (0, 1), BuildingBlock: AJUNOK_clean_linker_0, # of connection points: 2
#     Edge 37, Type (0, 1), BuildingBlock: AJUNOK_clean_linker_0, # of connection points: 2
#     Edge 38, Type (0, 1), BuildingBlock: AJUNOK_clean_linker_0, # of connection points: 2
#     Edge 39, Type (0, 1), BuildingBlock: AJUNOK_clean_linker_0, # of connection points: 2
#     Edge 40, Type (0, 1), BuildingBlock: AJUNOK_clean_linker_0, # of connection points: 2
#     Edge 41, Type (0, 1), BuildingBlock: AJUNOK_clean_linker_0, # of connection points: 2
#     Edge 42, Type (0, 1), BuildingBlock: AJUNOK_clean_linker_0, # of connection points: 2
#     Edge 43, Type (0, 1), BuildingBlock: AJUNOK_clean_linker_0, # of connection points: 2
#     Edge 44, Type (0, 1), BuildingBlock: AJUNOK_clean_linker_0, # of connection points: 2
#     Edge 45, Type (0, 1), BuildingBlock: AJUNOK_clean_linker_0, # of connection points: 2
#     Edge 46, Type (0, 1), BuildingBlock: AJUNOK_clean_linker_0, # of connection points: 2
#     Edge 47, Type (0, 1), BuildingBlock: AJUNOK_clean_linker_0, # of connection points: 2
#     Edge 48, Type (0, 1), BuildingBlock: AJUNOK_clean_linker_0, # of connection points: 2
#     Edge 49, Type (0, 1), BuildingBlock: AJUNOK_clean_linker_0, # of connection points: 2
#     Edge 50, Type (0, 1), BuildingBlock: AJUNOK_clean_linker_0, # of connection points: 2
#     Edge 51, Type (0, 1), BuildingBlock: AJUNOK_clean_linker_0, # of connection points: 2
#     Edge 52, Type (0, 1), BuildingBlock: AJUNOK_clean_linker_0, # of connection points: 2
#     Edge 53, Type (0, 1), BuildingBlock: AJUNOK_clean_linker_0, # of connection points: 2
#     Edge 54, Type (0, 1), BuildingBlock: AJUNOK_clean_linker_0, # of connection points: 2
#     Edge 55, Type (0, 1), BuildingBlock: AJUNOK_clean_linker_0, # of connection points: 2
#     Edge 56, Type (0, 1), BuildingBlock: AJUNOK_clean_linker_0, # of connection points: 2
#     Edge 57, Type (0, 1), BuildingBlock: AJUNOK_clean_linker_0, # of connection points: 2
#     Edge 58, Type (0, 1), BuildingBlock: AJUNOK_clean_linker_0, # of connection points: 2
#     Edge 59, Type (0, 1), BuildingBlock: AJUNOK_clean_linker_0, # of connection points: 2
#     Edge 60, Type (0, 1), BuildingBlock: AJUNOK_clean_linker_0, # of connection points: 2
#     Edge 61, Type (0, 1), BuildingBlock: AJUNOK_clean_linker_0, # of connection points: 2
#     Edge 62, Type (0, 1), BuildingBlock: AJUNOK_clean_linker_0, # of connection points: 2
#     Edge 63, Type (0, 1), BuildingBlock: AJUNOK_clean_linker_0, # of connection points: 2
#     Edge 64, Type (0, 1), BuildingBlock: AJUNOK_clean_linker_0, # of connection points: 2
#     Edge 65, Type (0, 1), BuildingBlock: AJUNOK_clean_linker_0, # of connection points: 2
#     Edge 66, Type (0, 1), BuildingBlock: AJUNOK_clean_linker_0, # of connection points: 2
#     Edge 67, Type (0, 1), BuildingBlock: AJUNOK_clean_linker_0, # of connection points: 2
#     Edge 68, Type (0, 1), BuildingBlock: AJUNOK_clean_linker_0, # of connection points: 2
#     Edge 69, Type (0, 1), BuildingBlock: AJUNOK_clean_linker_0, # of connection points: 2
#     Edge 70, Type (0, 1), BuildingBlock: AJUNOK_clean_linker_0, # of connection points: 2
#     Edge 71, Type (0, 1), BuildingBlock: AJUNOK_clean_linker_0, # of connection points: 2
#     Edge 72, Type (0, 1), BuildingBlock: AJUNOK_clean_linker_0, # of connection points: 2
#     Edge 73, Type (0, 1), BuildingBlock: AJUNOK_clean_linker_0, # of connection points: 2
#     Edge 74, Type (0, 1), BuildingBlock: AJUNOK_clean_linker_0, # of connection points: 2
#     Edge 75, Type (0, 1), BuildingBlock: AJUNOK_clean_linker_0, # of connection points: 2
#     Edge 76, Type (0, 1), BuildingBlock: AJUNOK_clean_linker_0, # of connection points: 2
#     Edge 77, Type (0, 1), BuildingBlock: AJUNOK_clean_linker_0, # of connection points: 2
#     Edge 78, Type (0, 1), BuildingBlock: AJUNOK_clean_linker_0, # of connection points: 2
#     Edge 79, Type (0, 1), BuildingBlock: AJUNOK_clean_linker_0, # of connection points: 2
#     Edge 80, Type (0, 1), BuildingBlock: AJUNOK_clean_linker_0, # of connection points: 2
# Relax obj value: 0.035
# Max RMSD: 0.131
# Mean RMSD: 0.087
data_MOF--net-eea--node1-HISSIN_clean_sbu_0--node2-MIDCAF_clean_linker_0--edge1-AJUNOK_clean_linker_0
_symmetry_space_group_name_H-M    P1
_symmetry_Int_Tables_number       1
_symmetry_cell_setting            triclinic
loop_
_symmetry_equiv_pos_as_xyz
'x, y, z'
_cell_length_a     48.40595
_cell_length_b     48.74921
_cell_length_c     73.899345
_cell_angle_alpha  93.124838
_cell_angle_beta   93.012361
_cell_angle_gamma 119.92608
loop_
_atom_site_label
_atom_site_type_symbol
_atom_site_fract_x
_atom_site_fract_y
_atom_site_fract_z
_atom_type_partial_charge
C0 C 0.27095 0.03603 0.401 0.0
C1 C 0.2531 0.0256 0.38395 0.0
C2 C 0.24616 0.04639 0.37497 0.0
C3 C 0.2565 0.07693 0.383 0.0
H4 H 0.24937 0.15471 0.37573 0.0
H5 H 0.22804 0.18546 0.36206 0.0
H6 H 0.26894 0.25503 0.40873 0.0
H7 H 0.28983 0.22413 0.42271 0.0
H8 H 0.31722 0.2083 0.4581 0.0
H9 H 0.33581 0.21935 0.49044 0.0
H10 H 0.33589 0.13078 0.48947 0.0
H11 H 0.31805 0.11988 0.45719 0.0
H12 H 0.29463 0.07367 0.42233 0.0
H13 H 0.27671 0.02045 0.40815 0.0
H14 H 0.2319 0.03873 0.36196 0.0
H15 H 0.2502 0.09211 0.37582 0.0
N16 N 0.27508 0.1384 0.4009 0.0
N17 N 0.29505 0.17465 0.42696 0.0
N18 N 0.29635 0.12721 0.42676 0.0
C19 C 0.28131 0.16647 0.40954 0.0
C20 C 0.30274 0.15516 0.43565 0.0
C21 C 0.28261 0.11868 0.40938 0.0
C22 C 0.27099 0.18668 0.40047 0.0
C23 C 0.25403 0.17664 0.38309 0.0
C24 C 0.24186 0.19427 0.37519 0.0
C25 C 0.24636 0.22226 0.38449 0.0
C26 C 0.26448 0.23308 0.40147 0.0
C27 C 0.27659 0.21545 0.40942 0.0
C28 C 0.31589 0.16308 0.45501 0.0
C29 C 0.32136 0.19124 0.46473 0.0
C30 C 0.33178 0.19749 0.48328 0.0
C31 C 0.33683 0.17569 0.49249 0.0
C32 C 0.33224 0.14803 0.4827 0.0
C33 C 0.32189 0.14177 0.46418 0.0
C34 C 0.27382 0.08724 0.40025 0.0
C35 C 0.28127 0.06655 0.40906 0.0
C36 C 0.99077 0.22158 0.40403 0.0
C37 C 0.99999 0.20709 0.39049 0.0
C38 C 0.98221 0.1739 0.38681 0.0
C39 C 0.95531 0.15573 0.39601 0.0
H40 H 0.87561 0.06579 0.39314 0.0
H41 H 0.8362 0.01275 0.37943 0.0
H42 H 0.76315 0.01693 0.40861 0.0
H43 H 0.80281 0.06937 0.42295 0.0
H44 H 0.82626 0.11853 0.4571 0.0
H45 H 0.81663 0.12926 0.48787 0.0
H46 H 0.91588 0.20188 0.49915 0.0
H47 H 0.92597 0.19122 0.468 0.0
H48 H 0.95731 0.21526 0.42356 0.0
H49 H 0.00396 0.24714 0.40718 0.0
H50 H 0.98923 0.16186 0.37692 0.0
H51 H 0.94205 0.13021 0.39269 0.0
N52 N 0.89402 0.1216 0.41031 0.0
N53 N 0.86116 0.11467 0.43373 0.0
N54 N 0.91081 0.16167 0.4344 0.0
C55 C 0.86638 0.10351 0.41788 0.0
C56 C 0.88316 0.14354 0.44217 0.0
C57 C 0.91626 0.15076 0.41835 0.0
C58 C 0.84236 0.07171 0.40918 0.0
C59 C 0.85116 0.05537 0.39666 0.0
C60 C 0.82858 0.02501 0.3888 0.0
C61 C 0.79664 0.01049 0.39311 0.0
C62 C 0.78774 0.02706 0.40541 0.0
C63 C 0.81043 0.05723 0.4135 0.0
C64 C 0.87708 0.15364 0.46012 0.0
C65 C 0.84616 0.13698 0.46599 0.0
C66 C 0.84055 0.14304 0.48365 0.0
C67 C 0.86565 0.16587 0.49593 0.0
C68 C 0.8962 0.18398 0.48989 0.0
C69 C 0.90192 0.17789 0.4721 0.0
C70 C 0.94578 0.17022 0.40936 0.0
C71 C 0.96405 0.20333 0.41343 0.0
C72 C 0.80512 0.79157 0.41489 0.0
C73 C 0.79829 0.78542 0.39586 0.0
C74 C 0.81547 0.77439 0.38597 0.0
C75 C 0.83889 0.7698 0.39483 0.0
H76 H 0.92738 0.77849 0.38695 0.0
H77 H 0.97456 0.79031 0.37131 0.0
H78 H 0.02532 0.79532 0.42234 0.0
H79 H 0.97762 0.7822 0.43796 0.0
H80 H 0.92747 0.74011 0.46956 0.0
H81 H 0.91791 0.71862 0.49925 0.0
H82 H 0.83096 0.72282 0.49903 0.0
H83 H 0.8405 0.74464 0.46973 0.0
H84 H 0.83267 0.79113 0.43845 0.0
H85 H 0.79333 0.8012 0.42293 0.0
H86 H 0.81072 0.76914 0.37133 0.0
H87 H 0.85174 0.76138 0.38681 0.0
N88 N 0.89632 0.776 0.41472 0.0
N89 N 0.91614 0.76227 0.44026 0.0
N90 N 0.86699 0.76103 0.44019 0.0
C91 C 0.91962 0.77218 0.42319 0.0
C92 C 0.88968 0.75643 0.44882 0.0
C93 C 0.87009 0.77069 0.42316 0.0
C94 C 0.94853 0.77911 0.41375 0.0
C95 C 0.94852 0.78195 0.39488 0.0
C96 C 0.97566 0.78891 0.38588 0.0
C97 C 0.00366 0.79343 0.39549 0.0
C98 C 0.00389 0.79112 0.41441 0.0
C99 C 0.97657 0.78375 0.4234 0.0
C100 C 0.88487 0.74431 0.46717 0.0
C101 C 0.90644 0.73672 0.47589 0.0
C102 C 0.90093 0.72428 0.49287 0.0
C103 C 0.87389 0.71938 0.50159 0.0
C104 C 0.85239 0.72697 0.49289 0.0
C105 C 0.85782 0.73931 0.47596 0.0
C106 C 0.84521 0.77544 0.41384 0.0
C107 C 0.82794 0.78613 0.4238 0.0
C108 C 0.0095 0.22121 0.6035 0.0
C109 C 0.00558 0.20783 0.62025 0.0
C110 C 0.0289 0.20124 0.6273 0.0
C111 C 0.05572 0.20822 0.61802 0.0
H112 H 0.12739 0.18633 0.61614 0.0
H113 H 0.16612 0.1747 0.63083 0.0
H114 H 0.24035 0.24495 0.60156 0.0
H115 H 0.2012 0.25544 0.58614 0.0
H116 H 0.16477 0.25307 0.54402 0.0
H117 H 0.17493 0.27581 0.51493 0.0
H118 H 0.09966 0.29797 0.51997 0.0
H119 H 0.08925 0.27513 0.54932 0.0
H120 H 0.03884 0.2387 0.58136 0.0
H121 H 0.99183 0.22648 0.59771 0.0
H122 H 0.0262 0.19021 0.63992 0.0
H123 H 0.07305 0.20268 0.62401 0.0
N124 N 0.11078 0.22251 0.59932 0.0
N125 N 0.14229 0.24199 0.57506 0.0
N126 N 0.09386 0.24224 0.57551 0.0
C127 C 0.13753 0.22892 0.59117 0.0
C128 C 0.12058 0.24861 0.56705 0.0
C129 C 0.08885 0.22912 0.59173 0.0
C130 C 0.16117 0.22172 0.5999 0.0
C131 C 0.15194 0.19917 0.61273 0.0
C132 C 0.17418 0.19257 0.62122 0.0
C133 C 0.20632 0.20864 0.61727 0.0
C134 C 0.21563 0.23144 0.60454 0.0
C135 C 0.19323 0.23764 0.5958 0.0
C136 C 0.12622 0.26232 0.54915 0.0
C137 C 0.1503 0.26279 0.53904 0.0
C138 C 0.15609 0.27569 0.52229 0.0
C139 C 0.13823 0.28881 0.51522 0.0
C140 C 0.11406 0.28834 0.5252 0.0
C141 C 0.108 0.2751 0.54196 0.0
C142 C 0.05997 0.22187 0.60133 0.0
C143 C 0.03646 0.22826 0.59416 0.0
C144 C 0.75201 0.76469 0.60874 0.0
C145 C 0.76605 0.77339 0.62678 0.0
C146 C 0.76648 0.79894 0.63673 0.0
C147 C 0.75416 0.81624 0.62861 0.0
H148 H 0.75015 0.89692 0.6379 0.0
H149 H 0.76888 0.94993 0.65263 0.0
H150 H 0.74463 0.97799 0.60257 0.0
H151 H 0.72516 0.92484 0.58783 0.0
H152 H 0.68368 0.8702 0.55634 0.0
H153 H 0.66445 0.86006 0.52426 0.0
H154 H 0.68397 0.7829 0.51875 0.0
H155 H 0.70275 0.79249 0.55104 0.0
H156 H 0.7295 0.77501 0.58656 0.0
H157 H 0.75081 0.74463 0.6009 0.0
H158 H 0.77714 0.80607 0.65067 0.0
H159 H 0.7555 0.83622 0.63662 0.0
N160 N 0.73579 0.85586 0.61038 0.0
N161 N 0.71426 0.86736 0.58479 0.0
N162 N 0.71671 0.82045 0.58396 0.0
C163 C 0.72787 0.87552 0.60218 0.0
C164 C 0.70843 0.83983 0.57559 0.0
C165 C 0.73027 0.82828 0.60143 0.0
C166 C 0.73645 0.90668 0.61161 0.0
C167 C 0.74857 0.91427 0.63003 0.0
C168 C 0.75951 0.94467 0.63845 0.0
C169 C 0.75878 0.96817 0.62861 0.0
C170 C 0.7455 0.96029 0.61044 0.0
C171 C 0.7344 0.92984 0.60202 0.0
C172 C 0.69489 0.83222 0.55631 0.0
C173 C 0.68371 0.85088 0.54839 0.0
C174 C 0.67273 0.84516 0.52999 0.0
C175 C 0.67264 0.82067 0.51904 0.0
C176 C 0.68326 0.8016 0.52695 0.0
C177 C 0.69417 0.80723 0.54543 0.0
C178 C 0.741 0.80827 0.61036 0.0
C179 C 0.73961 0.78196 0.60059 0.0
C180 C 0.21192 0.97407 0.60187 0.0
C181 C 0.20749 0.98439 0.61901 0.0
C182 C 0.17915 0.96521 0.62699 0.0
C183 C 0.15587 0.93601 0.61816 0.0
H184 H 0.07489 0.85913 0.62632 0.0
H185 H 0.02958 0.82652 0.64297 0.0
H186 H 0.98776 0.75562 0.59695 0.0
H187 H 0.03374 0.78811 0.58011 0.0
H188 H 0.07692 0.80052 0.54435 0.0
H189 H 0.08625 0.78528 0.5141 0.0
H190 H 0.17546 0.87419 0.51652 0.0
H191 H 0.16675 0.88925 0.5465 0.0
H192 H 0.19284 0.93746 0.57982 0.0
H193 H 0.23359 0.98849 0.59544 0.0
H194 H 0.17482 0.97297 0.64002 0.0
H195 H 0.13433 0.92186 0.62475 0.0
N196 N 0.10925 0.87517 0.60012 0.0
N197 N 0.08991 0.83689 0.57497 0.0
N198 N 0.1389 0.8845 0.57496 0.0
C199 C 0.08631 0.8465 0.59193 0.0
C200 C 0.1163 0.85592 0.5664 0.0
C201 C 0.13556 0.8943 0.59179 0.0
C202 C 0.05806 0.82634 0.60177 0.0
C203 C 0.05609 0.83669 0.61958 0.0
C204 C 0.02994 0.81812 0.62916 0.0
C205 C 0.00495 0.78879 0.62118 0.0
C206 C 0.00677 0.77823 0.60341 0.0
C207 C 0.03305 0.79685 0.59377 0.0
C208 C 0.12104 0.84612 0.54796 0.0
C209 C 0.0985 0.81681 0.53842 0.0
C210 C 0.10373 0.80813 0.52106 0.0
C211 C 0.13157 0.8286 0.51296 0.0
C212 C 0.15394 0.8578 0.52248 0.0
C213 C 0.14878 0.86645 0.53971 0.0
C214 C 0.16032 0.92541 0.60105 0.0
C215 C 0.18859 0.94483 0.59298 0.0
C216 C 0.92969 0.36122 0.73513 0.0
C217 C 0.91237 0.35107 0.71793 0.0
C218 C 0.90529 0.37182 0.70902 0.0
C219 C 0.91486 0.40202 0.71731 0.0
H220 H 0.91395 0.48371 0.70932 0.0
H221 H 0.89747 0.5174 0.69453 0.0
H222 H 0.92245 0.57737 0.74481 0.0
H223 H 0.9396 0.54423 0.75963 0.0
H224 H 0.96893 0.52895 0.79444 0.0
H225 H 0.98715 0.53873 0.82686 0.0
H226 H 0.99605 0.45488 0.82342 0.0
H227 H 0.97762 0.44468 0.79123 0.0
H228 H 0.95217 0.39823 0.75683 0.0
H229 H 0.93557 0.34566 0.74222 0.0
H230 H 0.89148 0.36435 0.69587 0.0
H231 H 0.90844 0.41719 0.71021 0.0
N232 N 0.93195 0.46277 0.73586 0.0
N233 N 0.95072 0.49803 0.76236 0.0
N234 N 0.95265 0.45091 0.76167 0.0
C235 C 0.93757 0.49041 0.74481 0.0
C236 C 0.95844 0.4784 0.77086 0.0
C237 C 0.93946 0.44292 0.74419 0.0
C238 C 0.92825 0.51129 0.73569 0.0
C239 C 0.91614 0.50416 0.71725 0.0
C240 C 0.90658 0.52336 0.70876 0.0
C241 C 0.90898 0.5501 0.71848 0.0
C242 C 0.92098 0.55724 0.73689 0.0
C243 C 0.93064 0.53813 0.74539 0.0
C244 C 0.97145 0.48583 0.79022 0.0
C245 C 0.97487 0.51263 0.80055 0.0
C246 C 0.98534 0.51831 0.81909 0.0
C247 C 0.99243 0.49724 0.82763 0.0
C248 C 0.99 0.47106 0.81723 0.0
C249 C 0.97959 0.46538 0.79874 0.0
C250 C 0.93154 0.41197 0.73474 0.0
C251 C 0.93924 0.39137 0.74344 0.0
C252 C 0.67243 0.54864 0.74171 0.0
C253 C 0.66902 0.54951 0.72272 0.0
C254 C 0.6381 0.53316 0.71359 0.0
C255 C 0.61148 0.51519 0.72304 0.0
H256 H 0.54591 0.41106 0.72298 0.0
H257 H 0.50658 0.35909 0.70813 0.0
H258 H 0.43552 0.35686 0.74202 0.0
H259 H 0.47556 0.40827 0.75764 0.0
H260 H 0.52632 0.43721 0.80181 0.0
H261 H 0.51799 0.44807 0.83299 0.0
H262 H 0.57539 0.54884 0.82864 0.0
H263 H 0.5843 0.53808 0.79722 0.0
H264 H 0.6491 0.53048 0.76576 0.0
H265 H 0.69589 0.56087 0.74919 0.0
H266 H 0.63437 0.53427 0.69914 0.0
H267 H 0.58803 0.50232 0.71555 0.0
N268 N 0.56377 0.46498 0.74253 0.0
N269 N 0.53599 0.45201 0.76858 0.0
N270 N 0.58471 0.50009 0.76916 0.0
C271 C 0.53822 0.44451 0.751 0.0
C272 C 0.55904 0.47969 0.77776 0.0
C273 C 0.58703 0.49278 0.75145 0.0
C274 C 0.51376 0.41376 0.74141 0.0
C275 C 0.52183 0.39961 0.72716 0.0
C276 C 0.49919 0.36992 0.71855 0.0
C277 C 0.46772 0.35411 0.72365 0.0
C278 C 0.45959 0.36841 0.73783 0.0
C279 C 0.48246 0.39786 0.74671 0.0
C280 C 0.55593 0.48682 0.79703 0.0
C281 C 0.53741 0.46173 0.80748 0.0
C282 C 0.53278 0.46788 0.82536 0.0
C283 C 0.54621 0.49924 0.83316 0.0
C284 C 0.5649 0.52445 0.82286 0.0
C285 C 0.57006 0.51828 0.80497 0.0
C286 C 0.61502 0.51391 0.74192 0.0
C287 C 0.64567 0.53127 0.75124 0.0
C288 C 0.46286 0.10775 0.74575 0.0
C289 C 0.46907 0.12153 0.72914 0.0
C290 C 0.49816 0.12962 0.72194 0.0
C291 C 0.52026 0.12337 0.73087 0.0
H292 H 0.59464 0.11205 0.72067 0.0
H293 H 0.64111 0.12353 0.70461 0.0
H294 H 0.68897 0.11679 0.75369 0.0
H295 H 0.64171 0.10428 0.76987 0.0
H296 H 0.59205 0.06732 0.80233 0.0
H297 H 0.58154 0.04489 0.83169 0.0
H298 H 0.4928 0.04586 0.83004 0.0
H299 H 0.50331 0.06868 0.80102 0.0
H300 H 0.4794 0.09055 0.76743 0.0
H301 H 0.44063 0.10136 0.75162 0.0
H302 H 0.50396 0.14101 0.7094 0.0
H303 H 0.54234 0.12985 0.72479 0.0
N304 N 0.56396 0.10741 0.74836 0.0
N305 N 0.5811 0.0892 0.77284 0.0
N306 N 0.53286 0.08991 0.77293 0.0
C307 C 0.58588 0.10116 0.75631 0.0
C308 C 0.55448 0.08342 0.78123 0.0
C309 C 0.53748 0.10199 0.75651 0.0
C310 C 0.61442 0.10744 0.74668 0.0
C311 C 0.61502 0.11309 0.72817 0.0
C312 C 0.64184 0.11996 0.71893 0.0
C313 C 0.66904 0.12181 0.72795 0.0
C314 C 0.66838 0.11564 0.74637 0.0
C315 C 0.64133 0.10849 0.75564 0.0
C316 C 0.54855 0.06984 0.79917 0.0
C317 C 0.57027 0.06275 0.80819 0.0
C318 C 0.56416 0.04967 0.82498 0.0
C319 C 0.53617 0.0433 0.83311 0.0
C320 C 0.51463 0.0506 0.82418 0.0
C321 C 0.52069 0.06362 0.80745 0.0
C322 C 0.51396 0.10905 0.74735 0.0
C323 C 0.48506 0.10151 0.75476 0.0
C324 C 0.68315 0.56161 0.93857 0.0
C325 C 0.67336 0.53932 0.95164 0.0
C326 C 0.69058 0.52355 0.95467 0.0
C327 C 0.71762 0.53081 0.94551 0.0
H328 H 0.80683 0.54324 0.95815 0.0
H329 H 0.84548 0.53212 0.97331 0.0
H330 H 0.90076 0.55771 0.92683 0.0
H331 H 0.86236 0.56964 0.91162 0.0
H332 H 0.84273 0.59969 0.88055 0.0
H333 H 0.85291 0.62212 0.8514 0.0
H334 H 0.76326 0.62131 0.84939 0.0
H335 H 0.75255 0.59824 0.87856 0.0
H336 H 0.71725 0.5862 0.91944 0.0
H337 H 0.67041 0.57417 0.93587 0.0
H338 H 0.6831 0.50539 0.96408 0.0
H339 H 0.73043 0.51837 0.94841 0.0
N340 N 0.77977 0.55619 0.93193 0.0
N341 N 0.81239 0.57674 0.90821 0.0
N342 N 0.76316 0.5755 0.90776 0.0
C343 C 0.80726 0.56356 0.92431 0.0
C344 C 0.79054 0.58281 0.8998 0.0
C345 C 0.7576 0.56201 0.92384 0.0
C346 C 0.83123 0.55713 0.93355 0.0
C347 C 0.82712 0.54649 0.95106 0.0
C348 C 0.84921 0.53991 0.95975 0.0
C349 C 0.87585 0.54349 0.95113 0.0
C350 C 0.88041 0.55469 0.93379 0.0
C351 C 0.85833 0.56141 0.92507 0.0
C352 C 0.7967 0.59697 0.88202 0.0
C353 C 0.82502 0.60417 0.87397 0.0
C354 C 0.83099 0.61717 0.85723 0.0
C355 C 0.80882 0.62329 0.84799 0.0
C356 C 0.78056 0.61633 0.856 0.0
C357 C 0.77455 0.60329 0.87281 0.0
C358 C 0.72787 0.55357 0.93275 0.0
C359 C 0.71001 0.56854 0.92916 0.0
C360 C 0.40892 0.09786 0.9451 0.0
C361 C 0.4241 0.10673 0.96289 0.0
C362 C 0.42795 0.13426 0.97243 0.0
C363 C 0.41705 0.15271 0.96434 0.0
H364 H 0.42411 0.23797 0.97236 0.0
H365 H 0.44314 0.29106 0.98695 0.0
H366 H 0.39624 0.31069 0.94241 0.0
H367 H 0.37764 0.25783 0.92749 0.0
H368 H 0.35359 0.21291 0.89192 0.0
H369 H 0.33561 0.20398 0.85972 0.0
H370 H 0.34244 0.11897 0.85533 0.0
H371 H 0.36111 0.12803 0.88765 0.0
H372 H 0.38672 0.10906 0.92315 0.0
H373 H 0.40562 0.07667 0.93746 0.0
H374 H 0.44017 0.14203 0.98602 0.0
H375 H 0.42086 0.17401 0.97208 0.0
N376 N 0.3983 0.19252 0.94681 0.0
N377 N 0.37776 0.20531 0.92136 0.0
N378 N 0.37935 0.15794 0.92005 0.0
C379 C 0.39096 0.21274 0.93884 0.0
C380 C 0.37179 0.17797 0.91185 0.0
C381 C 0.39251 0.16505 0.9376 0.0
C382 C 0.39953 0.24365 0.94865 0.0
C383 C 0.41744 0.25337 0.96574 0.0
C384 C 0.42819 0.28374 0.9742 0.0
C385 C 0.42105 0.3049 0.96583 0.0
C386 C 0.40222 0.29485 0.94908 0.0
C387 C 0.39155 0.26454 0.94058 0.0
C388 C 0.35887 0.1712 0.89246 0.0
C389 C 0.35109 0.19213 0.88422 0.0
C390 C 0.34052 0.18692 0.86576 0.0
C391 C 0.33728 0.16059 0.85509 0.0
C392 C 0.34473 0.13946 0.86328 0.0
C393 C 0.35531 0.14463 0.8818 0.0
C394 C 0.40224 0.1442 0.94642 0.0
C395 C 0.39803 0.11637 0.93695 0.0
C396 C 0.88185 0.30561 0.93708 0.0
C397 C 0.87665 0.31841 0.95315 0.0
C398 C 0.84799 0.3005 0.96116 0.0
C399 C 0.82468 0.27057 0.95308 0.0
H400 H 0.74494 0.18957 0.96323 0.0
H401 H 0.69838 0.15783 0.97932 0.0
H402 H 0.65164 0.09373 0.93076 0.0
H403 H 0.69878 0.12513 0.91458 0.0
H404 H 0.74282 0.13553 0.87906 0.0
H405 H 0.75107 0.12196 0.84809 0.0
H406 H 0.84561 0.20487 0.85355 0.0
H407 H 0.83767 0.21864 0.88402 0.0
H408 H 0.86327 0.26669 0.91651 0.0
H409 H 0.90405 0.31861 0.93085 0.0
H410 H 0.84339 0.30987 0.97355 0.0
H411 H 0.8027 0.25755 0.95952 0.0
N412 N 0.77784 0.20811 0.93616 0.0
N413 N 0.758 0.16969 0.91099 0.0
N414 N 0.80775 0.2164 0.91116 0.0
C415 C 0.75449 0.17962 0.92791 0.0
C416 C 0.7848 0.18809 0.90257 0.0
C417 C 0.80451 0.22663 0.92789 0.0
C418 C 0.7257 0.16001 0.93752 0.0
C419 C 0.72476 0.16882 0.95585 0.0
C420 C 0.69791 0.15077 0.96511 0.0
C421 C 0.67113 0.12358 0.95625 0.0
C422 C 0.67198 0.11461 0.93795 0.0
C423 C 0.69897 0.13261 0.92867 0.0
C424 C 0.78945 0.17829 0.88409 0.0
C425 C 0.76541 0.15074 0.87368 0.0
C426 C 0.77016 0.14288 0.85599 0.0
C427 C 0.79897 0.16244 0.84844 0.0
C428 C 0.82304 0.18956 0.85895 0.0
C429 C 0.8184 0.19736 0.87649 0.0
C430 C 0.82957 0.25793 0.9368 0.0
C431 C 0.85852 0.27575 0.92895 0.0
C432 C 0.5974 0.69996 0.06547 0.0
C433 C 0.58383 0.69203 0.04737 0.0
C434 C 0.58189 0.71515 0.03776 0.0
C435 C 0.59177 0.74519 0.0464 0.0
H436 H 0.58302 0.8227 0.04056 0.0
H437 H 0.56512 0.85558 0.02612 0.0
H438 H 0.59037 0.91546 0.07645 0.0
H439 H 0.60883 0.88303 0.09097 0.0
H440 H 0.63052 0.8621 0.12705 0.0
H441 H 0.64609 0.86896 0.15975 0.0
H442 H 0.66803 0.79355 0.15334 0.0
H443 H 0.65221 0.78623 0.12091 0.0
H444 H 0.61683 0.73495 0.08826 0.0
H445 H 0.59915 0.68251 0.07317 0.0
H446 H 0.57219 0.7098 0.02364 0.0
H447 H 0.58916 0.76221 0.03875 0.0
N448 N 0.60325 0.8029 0.0665 0.0
N449 N 0.61975 0.83658 0.09358 0.0
N450 N 0.62339 0.79037 0.09224 0.0
C451 C 0.60754 0.8297 0.07585 0.0
C452 C 0.6279 0.81704 0.10183 0.0
C453 C 0.61115 0.78313 0.0746 0.0
C454 C 0.59751 0.85025 0.06695 0.0
C455 C 0.58498 0.84296 0.04858 0.0
C456 C 0.57459 0.86167 0.04029 0.0
C457 C 0.57663 0.88813 0.05013 0.0
C458 C 0.58911 0.89549 0.06846 0.0
C459 C 0.59954 0.87681 0.07678 0.0
C460 C 0.63972 0.82335 0.12135 0.0
C461 C 0.63883 0.84709 0.13258 0.0
C462 C 0.64773 0.85106 0.15129 0.0
C463 C 0.65758 0.83132 0.15905 0.0
C464 C 0.65967 0.80849 0.14775 0.0
C465 C 0.65076 0.80447 0.12913 0.0
C466 C 0.60398 0.7527 0.06481 0.0
C467 C 0.60741 0.72999 0.07411 0.0
C468 C 0.33201 0.89436 0.07604 0.0
C469 C 0.33294 0.88568 0.05769 0.0
C470 C 0.30552 0.85982 0.04837 0.0
C471 C 0.2781 0.84234 0.0573 0.0
H472 H 0.1988 0.75633 0.05114 0.0
H473 H 0.1616 0.70298 0.03705 0.0
H474 H 0.11085 0.68043 0.08532 0.0
H475 H 0.14769 0.73406 0.09947 0.0
H476 H 0.16718 0.78584 0.13009 0.0
H477 H 0.15726 0.80006 0.15992 0.0
H478 H 0.24603 0.88951 0.16345 0.0
H479 H 0.2566 0.87516 0.13325 0.0
H480 H 0.30463 0.88386 0.0992 0.0
H481 H 0.35267 0.91458 0.08348 0.0
H482 H 0.30555 0.85259 0.03425 0.0
H483 H 0.25764 0.82224 0.04966 0.0
N484 N 0.22622 0.80114 0.07711 0.0
N485 N 0.19624 0.7911 0.10217 0.0
N486 N 0.2445 0.83947 0.10223 0.0
C487 C 0.20005 0.78149 0.08541 0.0
C488 C 0.21814 0.81998 0.1107 0.0
C489 C 0.24857 0.8301 0.08531 0.0
C490 C 0.17649 0.7495 0.07653 0.0
C491 C 0.17973 0.74013 0.0588 0.0
C492 C 0.15853 0.7095 0.05074 0.0
C493 C 0.13374 0.68747 0.06024 0.0
C494 C 0.12983 0.69699 0.07773 0.0
C495 C 0.15101 0.72769 0.08582 0.0
C496 C 0.21269 0.82943 0.12908 0.0
C497 C 0.18473 0.80867 0.13704 0.0
C498 C 0.17881 0.81689 0.15415 0.0
C499 C 0.20051 0.84616 0.16384 0.0
C500 C 0.22877 0.86687 0.15617 0.0
C501 C 0.23476 0.85865 0.13889 0.0
C502 C 0.27728 0.85037 0.0758 0.0
C503 C 0.30442 0.87692 0.085 0.0
C504 C 0.12936 0.4355 0.07711 0.0
C505 C 0.1369 0.452 0.06142 0.0
C506 C 0.16605 0.46007 0.05426 0.0
C507 C 0.18746 0.45238 0.06277 0.0
H508 H 0.25631 0.42161 0.05249 0.0
H509 H 0.30351 0.43406 0.03676 0.0
H510 H 0.36138 0.46513 0.08832 0.0
H511 H 0.31337 0.45057 0.10417 0.0
H512 H 0.26061 0.40309 0.13723 0.0
H513 H 0.24944 0.38144 0.16677 0.0
H514 H 0.15451 0.3687 0.15993 0.0
H515 H 0.16575 0.391 0.13079 0.0
H516 H 0.14432 0.41542 0.09783 0.0
H517 H 0.10673 0.42824 0.0827 0.0
H518 H 0.17257 0.47285 0.04222 0.0
H519 H 0.20985 0.45936 0.05695 0.0
N520 N 0.23033 0.43464 0.08017 0.0
N521 N 0.24752 0.41804 0.10549 0.0
N522 N 0.19878 0.41779 0.10462 0.0
C523 C 0.25238 0.42915 0.08873 0.0
C524 C 0.22049 0.41203 0.11347 0.0
C525 C 0.20358 0.42926 0.08803 0.0
C526 C 0.28118 0.43534 0.07956 0.0
C527 C 0.27911 0.43102 0.06048 0.0
C528 C 0.3063 0.43856 0.05144 0.0
C529 C 0.33655 0.4516 0.06118 0.0
C530 C 0.33851 0.45522 0.08035 0.0
C531 C 0.31105 0.44691 0.08945 0.0
C532 C 0.21413 0.39884 0.13151 0.0
C533 C 0.23733 0.39564 0.14199 0.0
C534 C 0.23085 0.38299 0.15889 0.0
C535 C 0.20091 0.37296 0.16564 0.0
C536 C 0.17785 0.37632 0.1552 0.0
C537 C 0.18435 0.38908 0.13841 0.0
C538 C 0.18027 0.43645 0.0787 0.0
C539 C 0.15085 0.42796 0.0857 0.0
C540 C 0.3356 0.87312 0.26539 0.0
C541 C 0.3374 0.87635 0.28455 0.0
C542 C 0.36747 0.88855 0.29438 0.0
C543 C 0.39463 0.89573 0.28539 0.0
H544 H 0.45896 0.85552 0.2828 0.0
H545 H 0.49665 0.84259 0.29759 0.0
H546 H 0.57253 0.91299 0.26925 0.0
H547 H 0.53437 0.92464 0.25367 0.0
H548 H 0.50709 0.93461 0.21421 0.0
H549 H 0.51781 0.9569 0.18501 0.0
H550 H 0.42593 0.95145 0.18088 0.0
H551 H 0.41475 0.92863 0.21011 0.0
H552 H 0.36086 0.87783 0.24162 0.0
H553 H 0.31287 0.86384 0.25736 0.0
H554 H 0.37016 0.89272 0.30907 0.0
H555 H 0.41729 0.90457 0.29343 0.0
N556 N 0.44345 0.89233 0.26555 0.0
N557 N 0.47546 0.91037 0.24133 0.0
N558 N 0.42658 0.90983 0.24055 0.0
C559 C 0.47037 0.89822 0.25774 0.0
C560 C 0.45371 0.91621 0.23258 0.0
C561 C 0.42151 0.89812 0.25713 0.0
C562 C 0.49363 0.89098 0.26696 0.0
C563 C 0.48367 0.86817 0.27966 0.0
C564 C 0.50532 0.86083 0.2882 0.0
C565 C 0.53759 0.87642 0.28447 0.0
C566 C 0.54768 0.89975 0.27203 0.0
C567 C 0.52586 0.90665 0.26321 0.0
C568 C 0.45995 0.92967 0.21462 0.0
C569 C 0.48899 0.93797 0.20713 0.0
C570 C 0.49527 0.9509 0.19038 0.0
C571 C 0.47267 0.95576 0.18058 0.0
C572 C 0.44361 0.9475 0.18798 0.0
C573 C 0.43732 0.93461 0.2048 0.0
C574 C 0.39271 0.89188 0.2663 0.0
C575 C 0.36304 0.88108 0.25635 0.0
C576 C 0.08499 0.43527 0.27807 0.0
C577 C 0.09747 0.44312 0.2964 0.0
C578 C 0.10047 0.47042 0.30577 0.0
C579 C 0.09112 0.48951 0.29698 0.0
H580 H 0.09407 0.5743 0.3045 0.0
H581 H 0.10983 0.62687 0.31894 0.0
H582 H 0.07698 0.6495 0.26957 0.0
H583 H 0.06058 0.59698 0.25518 0.0
H584 H 0.0319 0.54915 0.22226 0.0
H585 H 0.01183 0.53806 0.19039 0.0
H586 H 0.01532 0.45119 0.18768 0.0
H587 H 0.03615 0.46242 0.21976 0.0
H588 H 0.06629 0.4477 0.25509 0.0
H589 H 0.08304 0.41467 0.27043 0.0
H590 H 0.10995 0.47692 0.31992 0.0
H591 H 0.09383 0.51042 0.30464 0.0
N592 N 0.07552 0.5305 0.27795 0.0
N593 N 0.05519 0.54213 0.25192 0.0
N594 N 0.05657 0.49476 0.25162 0.0
C595 C 0.06831 0.55035 0.2694 0.0
C596 C 0.04916 0.51443 0.24292 0.0
C597 C 0.0697 0.50264 0.26919 0.0
C598 C 0.0761 0.58138 0.27865 0.0
C599 C 0.08987 0.59031 0.29676 0.0
C600 C 0.09896 0.62041 0.30504 0.0
C601 C 0.09439 0.64206 0.29539 0.0
C602 C 0.08017 0.63301 0.27743 0.0
C603 C 0.07101 0.60295 0.26916 0.0
C604 C 0.03564 0.50664 0.22366 0.0
C605 C 0.02827 0.52752 0.21501 0.0
C606 C 0.0165 0.52109 0.19675 0.0
C607 C 0.01157 0.49354 0.18669 0.0
C608 C 0.01884 0.47256 0.19522 0.0
C609 C 0.03067 0.47898 0.21357 0.0
C610 C 0.07865 0.48175 0.2786 0.0
C611 C 0.07557 0.45432 0.26927 0.0
C612 C 0.54302 0.63108 0.26797 0.0
C613 C 0.53709 0.64299 0.28414 0.0
C614 C 0.50886 0.62373 0.29221 0.0
C615 C 0.48684 0.59329 0.28422 0.0
H616 H 0.41349 0.50875 0.29616 0.0
H617 H 0.36661 0.47838 0.31245 0.0
H618 H 0.3166 0.41681 0.26347 0.0
H619 H 0.36359 0.44738 0.24691 0.0
H620 H 0.40567 0.46217 0.2093 0.0
H621 H 0.41458 0.44757 0.1787 0.0
H622 H 0.51447 0.51936 0.18818 0.0
H623 H 0.50589 0.53397 0.21843 0.0
H624 H 0.52619 0.5922 0.24743 0.0
H625 H 0.56492 0.64517 0.26167 0.0
H626 H 0.50363 0.63236 0.30464 0.0
H627 H 0.46524 0.57925 0.29078 0.0
N628 N 0.44278 0.53002 0.26793 0.0
N629 N 0.42394 0.49076 0.24329 0.0
N630 N 0.4723 0.53887 0.24271 0.0
C631 C 0.42033 0.5008 0.26014 0.0
C632 C 0.45013 0.50974 0.23456 0.0
C633 C 0.46874 0.54925 0.25934 0.0
C634 C 0.39225 0.48073 0.27012 0.0
C635 C 0.39259 0.48873 0.28878 0.0
C636 C 0.36581 0.47125 0.2982 0.0
C637 C 0.33793 0.44553 0.28919 0.0
C638 C 0.33771 0.4369 0.27067 0.0
C639 C 0.36466 0.45427 0.26123 0.0
C640 C 0.45501 0.49935 0.21632 0.0
C641 C 0.42954 0.47467 0.20487 0.0
C642 C 0.43456 0.46643 0.18735 0.0
C643 C 0.4652 0.48241 0.1811 0.0
C644 C 0.49065 0.50653 0.19268 0.0
C645 C 0.48562 0.515 0.21 0.0
C646 C 0.49252 0.58139 0.26792 0.0
C647 C 0.5209 0.60064 0.2599 0.0
Eu648 Eu 0.49081 0.97824 0.98706 0.0
Eu649 Eu 0.51513 0.02174 0.02672 0.0
C650 C 0.47986 0.03641 0.99423 0.0
C651 C 0.48515 0.96305 0.93637 0.0
C652 C 0.50705 0.99557 0.93583 0.0
C653 C 0.48195 0.95594 0.90335 0.0
C654 C 0.51628 0.00819 0.91918 0.0
C655 C 0.47269 0.94331 0.92004 0.0
C656 C 0.5039 0.98854 0.90274 0.0
C657 C 0.47528 0.95009 0.95399 0.0
O658 O 0.47538 0.97336 0.03146 0.0
O659 O 0.44753 0.95931 1.00338 0.0
C660 C 0.44857 0.95676 0.02101 0.0
O661 O 0.50321 0.95045 0.00595 0.0
O662 O 0.50379 0.0439 0.04938 0.0
O663 O 0.54936 0.04569 0.05071 0.0
O664 O 0.54008 0.99335 0.02512 0.0
C665 C 0.52777 0.9637 0.01837 0.0
O666 O 0.5436 0.01283 0.98739 0.0
O667 O 0.54946 0.05343 0.00741 0.0
O668 O 0.48061 0.03277 0.01166 0.0
O669 O 0.49788 0.95129 0.96502 0.0
O670 O 0.45777 0.95922 0.96238 0.0
O671 O 0.4914 0.02375 0.98306 0.0
C672 C 0.52288 0.0371 0.0776 0.0
C673 C 0.51194 0.00471 0.07897 0.0
C674 C 0.51735 0.04346 0.10985 0.0
C675 C 0.50356 0.99175 0.09561 0.0
C676 C 0.52569 0.05642 0.09317 0.0
C677 C 0.50576 0.01088 0.11119 0.0
C678 C 0.5292 0.05005 0.05974 0.0
C679 C 0.55941 0.04283 0.99393 0.0
H680 H 0.51695 0.01123 0.94831 0.0
H681 H 0.47147 0.94031 0.8909 0.0
H682 H 0.53325 0.03335 0.91917 0.0
H683 H 0.45565 0.91821 0.92019 0.0
H684 H 0.50957 0.98937 0.06711 0.0
H685 H 0.51934 0.05875 0.12165 0.0
H686 H 0.49546 0.96677 0.09633 0.0
H687 H 0.53387 0.08141 0.09235 0.0
Eu688 Eu 0.03081 0.51194 0.98983 0.0
Eu689 Eu 0.98645 0.49092 0.02414 0.0
C690 C 0.96987 0.44313 0.98863 0.0
C691 C 0.05336 0.52521 0.9421 0.0
C692 C 0.02106 0.51394 0.93651 0.0
C693 C 0.06551 0.52958 0.91063 0.0
C694 C 0.01098 0.51025 0.91806 0.0
C695 C 0.0756 0.53327 0.92913 0.0
C696 C 0.03303 0.51759 0.90494 0.0
C697 C 0.06338 0.52747 0.96142 0.0
O698 O 0.03274 0.49464 0.03441 0.0
O699 O 0.04758 0.48497 0.007 0.0
C700 C 0.04982 0.4862 0.02489 0.0
O701 O 0.05998 0.54871 0.01294 0.0
O702 O 0.96092 0.45534 0.04278 0.0
O703 O 0.95933 0.49902 0.04434 0.0
O704 O 0.0187 0.54429 0.02869 0.0
C705 C 0.04879 0.56018 0.02513 0.0
O706 O 0.9964 0.53037 0.98598 0.0
O707 O 0.95598 0.49474 1.00157 0.0
O708 O 0.97366 0.44632 0.00646 0.0
O709 O 0.05984 0.54766 0.97197 0.0
O710 O 0.05322 0.50027 0.96824 0.0
O711 O 0.9852 0.46765 0.97932 0.0
C712 C 0.95975 0.47641 0.07164 0.0
C713 C 0.99126 0.49627 0.07941 0.0
C714 C 0.94298 0.45981 0.10139 0.0
C715 C 0.99857 0.49798 0.09811 0.0
C716 C 0.93568 0.45818 0.08268 0.0
C717 C 0.97447 0.47982 0.10928 0.0
C718 C 0.95231 0.47301 0.05192 0.0
C719 C 0.96621 0.51554 0.98945 0.0
H720 H 0.00361 0.5077 0.94641 0.0
H721 H 0.08292 0.53537 0.90074 0.0
H722 H 0.98593 0.50154 0.91405 0.0
H723 H 0.10061 0.54197 0.93328 0.0
H724 H 0.0102 0.51021 0.07098 0.0
H725 H 0.92411 0.44505 0.10963 0.0
H726 H 0.02302 0.5136 0.10386 0.0
H727 H 0.91135 0.44236 0.0768 0.0
Eu728 Eu 0.52167 0.49359 0.02589 0.0
Eu729 Eu 0.49083 0.50471 0.98783 0.0
C730 C 0.53023 0.56063 0.01829 0.0
C731 C 0.52963 0.47886 0.07516 0.0
C732 C 0.54965 0.49421 0.09118 0.0
C733 C 0.48377 0.45524 0.09307 0.0
C734 C 0.53686 0.49059 0.10799 0.0
C735 C 0.4966 0.45905 0.07621 0.0
C736 C 0.5037 0.47151 0.10912 0.0
C737 C 0.54311 0.48653 0.05748 0.0
O738 O 0.54261 0.52149 0.98389 0.0
O739 O 0.55519 0.49568 1.00516 0.0
C740 C 0.56132 0.51141 0.99057 0.0
O741 O 0.48393 0.44552 0.01265 0.0
O742 O 0.49381 0.5371 0.9678 0.0
O743 O 0.45597 0.4877 0.96403 0.0
O744 O 0.48983 0.4584 0.98339 0.0
C745 C 0.48026 0.43704 0.99515 0.0
O746 O 0.47736 0.49366 0.03358 0.0
O747 O 0.44951 0.48404 1.00546 0.0
O748 O 0.5029 0.54554 0.00825 0.0
O749 O 0.53029 0.46412 0.04405 0.0
O750 O 0.54846 0.51382 0.05243 0.0
O751 O 0.54588 0.54598 0.02246 0.0
C752 C 0.48062 0.51237 0.93786 0.0
C753 C 0.4763 0.48369 0.92955 0.0
C754 C 0.50792 0.53929 0.912 0.0
C755 C 0.48792 0.48291 0.91274 0.0
C756 C 0.49608 0.54004 0.92877 0.0
C757 C 0.50448 0.51083 0.90397 0.0
C758 C 0.47152 0.51434 0.95649 0.0
C759 C 0.45088 0.4855 0.02337 0.0
H760 H 0.57513 0.50988 0.09064 0.0
H761 H 0.45823 0.43988 0.0935 0.0
H762 H 0.55285 0.50367 0.12005 0.0
H763 H 0.48064 0.44713 0.06398 0.0
H764 H 0.46447 0.46189 0.93615 0.0
H765 H 0.52046 0.56114 0.90552 0.0
H766 H 0.48403 0.46042 0.90663 0.0
H767 H 0.49974 0.56245 0.93489 0.0
Eu768 Eu 0.15718 0.30909 0.32068 0.0
Eu769 Eu 0.18185 0.35268 0.36063 0.0
C770 C 0.14421 0.36681 0.32937 0.0
C771 C 0.15074 0.29418 0.26957 0.0
C772 C 0.16613 0.32711 0.26833 0.0
C773 C 0.1514 0.28611 0.23685 0.0
C774 C 0.1744 0.33948 0.25152 0.0
C775 C 0.14327 0.27376 0.25371 0.0
C776 C 0.16748 0.31918 0.23558 0.0
C777 C 0.14399 0.28141 0.28748 0.0
O778 O 0.12959 0.317 0.36128 0.0
O779 O 0.12117 0.2775 0.33927 0.0
C780 C 0.11268 0.28765 0.35367 0.0
O781 O 0.18952 0.29571 0.33632 0.0
O782 O 0.17495 0.37936 0.38296 0.0
O783 O 0.21615 0.37295 0.38474 0.0
O784 O 0.17982 0.30674 0.36486 0.0
C785 C 0.18983 0.2924 0.35383 0.0
O786 O 0.19692 0.35773 0.3164 0.0
O787 O 0.22501 0.37055 0.34429 0.0
O788 O 0.16869 0.38004 0.34184 0.0
O789 O 0.16911 0.2874 0.29808 0.0
O790 O 0.12373 0.28597 0.29628 0.0
O791 O 0.13202 0.33726 0.32247 0.0
C792 C 0.19014 0.36912 0.41183 0.0
C793 C 0.20336 0.3521 0.41973 0.0
C794 C 0.15892 0.36113 0.43794 0.0
C795 C 0.19444 0.33974 0.43649 0.0
C796 C 0.16799 0.37367 0.42122 0.0
C797 C 0.17209 0.34406 0.44582 0.0
C798 C 0.19825 0.38102 0.39362 0.0
C799 C 0.22384 0.37383 0.32677 0.0
H800 H 0.17208 0.34329 0.28041 0.0
H801 H 0.14492 0.26975 0.22479 0.0
H802 H 0.18666 0.365 0.25103 0.0
H803 H 0.13133 0.24827 0.25438 0.0
H804 H 0.22045 0.34803 0.41293 0.0
H805 H 0.14111 0.3643 0.44452 0.0
H806 H 0.20517 0.32686 0.44219 0.0
H807 H 0.15726 0.38653 0.41549 0.0
Eu808 Eu 0.68808 0.83657 0.3217 0.0
Eu809 Eu 0.64292 0.81602 0.35639 0.0
C810 C 0.62584 0.76854 0.32054 0.0
C811 C 0.71128 0.84811 0.27389 0.0
C812 C 0.67873 0.83249 0.2676 0.0
C813 C 0.72525 0.85925 0.24306 0.0
C814 C 0.66945 0.83015 0.24914 0.0
C815 C 0.73451 0.86165 0.26159 0.0
C816 C 0.69262 0.84322 0.23666 0.0
C817 C 0.72074 0.85044 0.2933 0.0
O818 O 0.6888 0.81898 0.36675 0.0
O819 O 0.70565 0.81111 0.33951 0.0
C820 C 0.70664 0.81145 0.35733 0.0
O821 O 0.71677 0.87546 0.34389 0.0
O822 O 0.61694 0.78025 0.37487 0.0
O823 O 0.61635 0.8244 0.37686 0.0
O824 O 0.67717 0.86863 0.36223 0.0
C825 C 0.70619 0.88556 0.35717 0.0
O826 O 0.65439 0.85536 0.31711 0.0
O827 O 0.61416 0.82434 0.33468 0.0
O828 O 0.62926 0.77149 0.33838 0.0
O829 O 0.71771 0.87129 0.30352 0.0
O830 O 0.70979 0.82335 0.30038 0.0
O831 O 0.6416 0.79311 0.31135 0.0
C832 C 0.61808 0.80209 0.40402 0.0
C833 C 0.65044 0.8182 0.4108 0.0
C834 C 0.60275 0.79092 0.43465 0.0
C835 C 0.65891 0.82053 0.4294 0.0
C836 C 0.59429 0.78856 0.41601 0.0
C837 C 0.63516 0.8067 0.44149 0.0
C838 C 0.60929 0.79836 0.38439 0.0
C839 C 0.62507 0.84375 0.32183 0.0
H840 H 0.66051 0.82209 0.277 0.0
H841 H 0.74354 0.86947 0.2337 0.0
H842 H 0.64416 0.81823 0.24464 0.0
H843 H 0.75974 0.87389 0.26629 0.0
H844 H 0.66911 0.8287 0.40167 0.0
H845 H 0.58397 0.78064 0.44372 0.0
H846 H 0.68405 0.83279 0.43432 0.0
H847 H 0.56921 0.77606 0.41095 0.0
Eu848 Eu 0.1839 0.82513 0.35781 0.0
Eu849 Eu 0.15511 0.84157 0.32118 0.0
C850 C 0.19719 0.89457 0.35333 0.0
C851 C 0.18954 0.81166 0.4067 0.0
C852 C 0.17176 0.82666 0.41012 0.0
C853 C 0.18333 0.79498 0.43729 0.0
C854 C 0.16015 0.82614 0.42708 0.0
C855 C 0.19511 0.79566 0.42032 0.0
C856 C 0.1657 0.8102 0.44085 0.0
C857 C 0.20069 0.81147 0.38861 0.0
O858 O 0.19757 0.8386 0.31256 0.0
O859 O 0.2254 0.84594 0.34039 0.0
C860 C 0.22388 0.84528 0.32251 0.0
O861 O 0.17182 0.78581 0.33622 0.0
O862 O 0.1555 0.87603 0.30324 0.0
O863 O 0.12287 0.82591 0.29629 0.0
O864 O 0.13082 0.78835 0.32135 0.0
C865 C 0.14523 0.77248 0.32546 0.0
O866 O 0.1315 0.80652 0.36001 0.0
O867 O 0.12317 0.83994 0.34299 0.0
O868 O 0.19399 0.88758 0.33572 0.0
O869 O 0.17912 0.79012 0.37642 0.0
O870 O 0.21689 0.83918 0.3823 0.0
O871 O 0.18654 0.87199 0.36433 0.0
C872 C 0.14741 0.85691 0.27234 0.0
C873 C 0.16436 0.84175 0.26716 0.0
C874 C 0.15245 0.8771 0.24261 0.0
C875 C 0.17473 0.84374 0.24973 0.0
C876 C 0.1419 0.87494 0.26005 0.0
C877 C 0.16849 0.86104 0.23715 0.0
C878 C 0.13593 0.85419 0.2906 0.0
C879 C 0.11494 0.82025 0.35582 0.0
H880 H 0.16695 0.83889 0.39968 0.0
H881 H 0.18795 0.7825 0.44764 0.0
H882 H 0.14739 0.83878 0.4295 0.0
H883 H 0.20844 0.78363 0.4178 0.0
H884 H 0.16922 0.82799 0.27651 0.0
H885 H 0.14797 0.89125 0.23339 0.0
H886 H 0.18694 0.83105 0.24594 0.0
H887 H 0.12931 0.8872 0.26391 0.0
Eu888 Eu 0.82954 0.64337 0.65349 0.0
Eu889 Eu 0.8519 0.68704 0.69336 0.0
C890 C 0.82053 0.70334 0.6597 0.0
C891 C 0.82626 0.63142 0.60297 0.0
C892 C 0.84896 0.66393 0.60341 0.0
C893 C 0.82155 0.62816 0.56988 0.0
C894 C 0.85773 0.67849 0.58724 0.0
C895 C 0.81275 0.61358 0.58611 0.0
C896 C 0.84383 0.66088 0.57027 0.0
C897 C 0.81609 0.61675 0.62014 0.0
O898 O 0.81024 0.6397 0.69753 0.0
O899 O 0.78495 0.62412 0.66863 0.0
C900 C 0.78437 0.62306 0.68637 0.0
O901 O 0.83958 0.61477 0.67288 0.0
O902 O 0.84002 0.70939 0.71565 0.0
O903 O 0.88534 0.71067 0.7177 0.0
O904 O 0.87549 0.65721 0.69273 0.0
C905 C 0.86313 0.62756 0.68592 0.0
O906 O 0.88269 0.67731 0.65537 0.0
O907 O 0.88703 0.71835 0.67433 0.0
O908 O 0.81976 0.69986 0.67718 0.0
O909 O 0.83875 0.61834 0.63132 0.0
O910 O 0.79724 0.62405 0.62854 0.0
O911 O 0.83143 0.68932 0.64907 0.0
C912 C 0.85788 0.7024 0.74422 0.0
C913 C 0.84376 0.66953 0.74544 0.0
C914 C 0.85507 0.70987 0.77675 0.0
C915 C 0.83521 0.6569 0.76216 0.0
C916 C 0.86358 0.72249 0.75998 0.0
C917 C 0.84046 0.67688 0.77799 0.0
C918 C 0.86499 0.71531 0.72636 0.0
C919 C 0.89767 0.70756 0.66134 0.0
H920 H 0.85972 0.67815 0.6163 0.0
H921 H 0.8104 0.614 0.55703 0.0
H922 H 0.87545 0.70356 0.58802 0.0
H923 H 0.79514 0.5885 0.58549 0.0
H924 H 0.83915 0.65359 0.73342 0.0
H925 H 0.85944 0.72585 0.78871 0.0
H926 H 0.82469 0.6315 0.76271 0.0
H927 H 0.87427 0.74789 0.7593 0.0
Eu928 Eu 0.36086 0.17592 0.65558 0.0
Eu929 Eu 0.31767 0.15739 0.69108 0.0
C930 C 0.29936 0.10824 0.65576 0.0
C931 C 0.38576 0.18856 0.60767 0.0
C932 C 0.35387 0.17082 0.60011 0.0
C933 C 0.40251 0.2058 0.57799 0.0
C934 C 0.34636 0.17045 0.58157 0.0
C935 C 0.41002 0.20608 0.59655 0.0
C936 C 0.37059 0.18808 0.57034 0.0
C937 C 0.3937 0.18952 0.6272 0.0
O938 O 0.36465 0.16178 0.70075 0.0
O939 O 0.37663 0.14892 0.67319 0.0
C940 C 0.38017 0.15152 0.69106 0.0
O941 O 0.38978 0.21572 0.67732 0.0
O942 O 0.29352 0.12263 0.71042 0.0
O943 O 0.29083 0.16569 0.7114 0.0
O944 O 0.35057 0.21036 0.69557 0.0
C945 C 0.37913 0.22708 0.68992 0.0
O946 O 0.32628 0.19341 0.65055 0.0
O947 O 0.28748 0.16363 0.66922 0.0
O948 O 0.30372 0.11231 0.67358 0.0
O949 O 0.39117 0.21054 0.63754 0.0
O950 O 0.38159 0.16206 0.63394 0.0
O951 O 0.3142 0.13215 0.64595 0.0
C952 C 0.29135 0.144 0.7391 0.0
C953 C 0.32238 0.16498 0.74721 0.0
C954 C 0.27373 0.12773 0.7688 0.0
C955 C 0.32903 0.16736 0.76606 0.0
C956 C 0.26709 0.12542 0.74997 0.0
C957 C 0.30474 0.14879 0.77704 0.0
C958 C 0.28437 0.1401 0.71929 0.0
C959 C 0.29729 0.18184 0.65575 0.0
H960 H 0.33482 0.15719 0.60854 0.0
H961 H 0.42161 0.21959 0.56963 0.0
H962 H 0.32165 0.15601 0.57597 0.0
H963 H 0.43473 0.22004 0.60223 0.0
H964 H 0.34146 0.17928 0.73896 0.0
H965 H 0.25474 0.11262 0.77687 0.0
H966 H 0.35312 0.18379 0.77207 0.0
H967 H 0.24312 0.10881 0.74386 0.0
Eu968 Eu 0.84866 0.15216 0.69221 0.0
Eu969 Eu 0.82171 0.16728 0.65447 0.0
C970 C 0.86026 0.22076 0.68708 0.0
C971 C 0.85355 0.14115 0.74162 0.0
C972 C 0.83162 0.15175 0.74362 0.0
C973 C 0.85266 0.13229 0.77366 0.0
C974 C 0.82047 0.15285 0.76055 0.0
C975 C 0.86387 0.13125 0.75669 0.0
C976 C 0.83091 0.1432 0.77576 0.0
C977 C 0.86499 0.14006 0.72371 0.0
O978 O 0.86397 0.16271 0.64741 0.0
O979 O 0.89143 0.17552 0.67568 0.0
C980 C 0.89072 0.17287 0.65779 0.0
O981 O 0.83801 0.11229 0.67127 0.0
O982 O 0.82589 0.20117 0.63512 0.0
O983 O 0.78872 0.15203 0.62985 0.0
O984 O 0.79787 0.11411 0.65479 0.0
C985 C 0.81239 0.09867 0.65969 0.0
O986 O 0.79598 0.13381 0.69365 0.0
O987 O 0.78892 0.16661 0.67533 0.0
O988 O 0.85851 0.21385 0.66954 0.0
O989 O 0.84369 0.11818 0.71162 0.0
O990 O 0.88114 0.16741 0.71702 0.0
O991 O 0.84947 0.19821 0.69809 0.0
C992 C 0.81461 0.1787 0.60492 0.0
C993 C 0.83473 0.16626 0.60176 0.0
C994 C 0.81538 0.19027 0.57333 0.0
C995 C 0.84495 0.16563 0.58451 0.0
C996 C 0.80522 0.19099 0.59067 0.0
C997 C 0.835 0.17719 0.57004 0.0
C998 C 0.80421 0.17942 0.62319 0.0
C999 C 0.77991 0.14763 0.68849 0.0
H1000 H 0.82322 0.15929 0.73209 0.0
H1001 H 0.86156 0.12528 0.78523 0.0
H1002 H 0.8037 0.16129 0.76176 0.0
H1003 H 0.88073 0.12294 0.75535 0.0
H1004 H 0.8424 0.15688 0.61263 0.0
H1005 H 0.80735 0.1993 0.5624 0.0
H1006 H 0.86055 0.15598 0.58246 0.0
H1007 H 0.7899 0.20091 0.59292 0.0
C1008 C 0.36126 0.91338 0.031 0.0
C1009 C 0.36255 0.90297 0.04828 0.0
C1010 C 0.38899 0.92978 0.02191 0.0
C1011 C 0.41902 0.93638 0.02977 0.0
H1012 H 0.33872 0.90935 0.02461 0.0
H1013 H 0.38699 0.93815 0.0089 0.0
S1014 S 0.43454 0.91062 0.07369 0.0
N1015 N 0.3958 0.89794 0.07212 0.0
N1016 N 0.44786 0.92879 0.05519 0.0
C1017 C 0.4204 0.92511 0.04677 0.0
C1018 C 0.39222 0.90845 0.05599 0.0
C1019 C 0.10717 0.45519 0.03347 0.0
C1020 C 0.11454 0.46086 0.05247 0.0
C1021 C 0.08638 0.46353 0.02469 0.0
C1022 C 0.07205 0.4779 0.03454 0.0
H1023 H 0.11731 0.44387 0.02531 0.0
H1024 H 0.08134 0.45841 0.01006 0.0
S1025 S 0.08509 0.49962 0.08454 0.0
N1026 N 0.10708 0.48307 0.08079 0.0
N1027 N 0.06775 0.49841 0.06445 0.0
C1028 C 0.07948 0.48397 0.05358 0.0
C1029 C 0.10073 0.47552 0.06249 0.0
C1030 C 0.58828 0.64378 0.04013 0.0
C1031 C 0.5703 0.65913 0.03896 0.0
C1032 C 0.57522 0.61203 0.03324 0.0
C1033 C 0.54365 0.59443 0.02495 0.0
H1034 H 0.61262 0.65641 0.04648 0.0
H1035 H 0.59002 0.60123 0.03451 0.0
S1036 S 0.48626 0.62361 0.01916 0.0
N1037 N 0.51918 0.65438 0.02937 0.0
N1038 N 0.49459 0.5948 0.01621 0.0
C1039 C 0.52547 0.60964 0.02361 0.0
C1040 C 0.53881 0.64197 0.03065 0.0
C1041 C 0.91057 0.35464 0.9804 0.0
C1042 C 0.9011 0.35033 0.96167 0.0
C1043 C 0.9331 0.38462 0.9889 0.0
C1044 C 0.94706 0.41153 0.97901 0.0
H1045 H 0.90055 0.33461 0.98855 0.0
H1046 H 0.9395 0.38664 1.00338 0.0
S1047 S 0.92953 0.41295 0.9296 0.0
N1048 N 0.90671 0.37541 0.9335 0.0
N1049 N 0.94935 0.4318 0.94936 0.0
C1050 C 0.93786 0.4075 0.9602 0.0
C1051 C 0.91484 0.3769 0.95156 0.0
C1052 C 0.6169 0.52838 0.95291 0.0
C1053 C 0.64516 0.53235 0.96198 0.0
C1054 C 0.59002 0.5216 0.96228 0.0
C1055 C 0.5901 0.51816 0.98109 0.0
H1056 H 0.61535 0.53016 0.93839 0.0
H1057 H 0.56884 0.51866 0.95464 0.0
S1058 S 0.65866 0.52846 0.01153 0.0
N1059 N 0.67208 0.53423 0.99119 0.0
N1060 N 0.62124 0.52048 0.00859 0.0
C1061 C 0.61815 0.52217 0.99037 0.0
C1062 C 0.64571 0.5295 0.98088 0.0
C1063 C 0.45685 0.08026 0.96133 0.0
C1064 C 0.43736 0.08821 0.97116 0.0
C1065 C 0.47062 0.06375 0.96899 0.0
C1066 C 0.46547 0.05455 0.9868 0.0
H1067 H 0.46192 0.0873 0.94769 0.0
H1068 H 0.48559 0.05836 0.96086 0.0
S1069 S 0.41462 0.06805 0.01782 0.0
N1070 N 0.41236 0.08454 0.99929 0.0
N1071 N 0.43846 0.05371 0.01383 0.0
C1072 C 0.44577 0.06214 0.99674 0.0
C1073 C 0.43167 0.07891 0.98889 0.0
C1074 C 0.62964 0.07076 0.96511 0.0
C1075 C 0.64288 0.1039 0.96628 0.0
C1076 C 0.60316 0.05152 0.97441 0.0
C1077 C 0.58874 0.06454 0.98534 0.0
H1078 H 0.63999 0.05957 0.95703 0.0
H1079 H 0.59393 0.02611 0.97295 0.0
S1080 S 0.61351 0.14997 0.99237 0.0
N1081 N 0.6391 0.14898 0.9788 0.0
N1082 N 0.58945 0.11277 0.99649 0.0
C1083 C 0.60182 0.0977 0.98672 0.0
C1084 C 0.62881 0.11736 0.97715 0.0
C1085 C 0.93189 0.55687 0.96149 0.0
C1086 C 0.89868 0.53544 0.96028 0.0
C1087 C 0.95363 0.55017 0.97077 0.0
C1088 C 0.94297 0.52184 0.97925 0.0
H1089 H 0.9411 0.57928 0.95553 0.0
H1090 H 0.97892 0.56761 0.97157 0.0
S1091 S 0.85866 0.45619 0.97811 0.0
N1092 N 0.85644 0.48356 0.96696 0.0
N1093 N 0.89701 0.47107 0.98452 0.0
C1094 C 0.90986 0.49981 0.97766 0.0
C1095 C 0.88781 0.50658 0.96816 0.0
C1096 C 0.45122 0.3631 0.96276 0.0
C1097 C 0.43523 0.3382 0.97378 0.0
C1098 C 0.46574 0.39485 0.96986 0.0
C1099 C 0.46492 0.40304 0.98831 0.0
H1100 H 0.45296 0.35802 0.94854 0.0
H1101 H 0.47788 0.41308 0.96075 0.0
S1102 S 0.42463 0.34646 0.02273 0.0
N1103 N 0.41833 0.32357 1.00387 0.0
N1104 N 0.44589 0.38339 0.01739 0.0
C1105 C 0.4488 0.37831 0.99951 0.0
C1106 C 0.43393 0.34587 0.99221 0.0
C1107 C 0.07893 0.64063 0.05141 0.0
C1108 C 0.11238 0.65447 0.05199 0.0
C1109 C 0.05844 0.60985 0.04301 0.0
C1110 C 0.07071 0.59188 0.03486 0.0
H1111 H 0.06853 0.65395 0.05715 0.0
H1112 H 0.03284 0.6004 0.04254 0.0
S1113 S 0.15664 0.61602 0.03477 0.0
N1114 N 0.15686 0.64696 0.04519 0.0
N1115 N 0.11858 0.58934 0.0293 0.0
C1116 C 0.10417 0.60513 0.03592 0.0
C1117 C 0.12494 0.63636 0.0445 0.0
C1118 C 0.38929 0.45411 0.05796 0.0
C1119 C 0.36584 0.46107 0.05138 0.0
C1120 C 0.41671 0.46226 0.04884 0.0
C1121 C 0.42164 0.47728 0.03262 0.0
H1122 H 0.38628 0.44183 0.07012 0.0
H1123 H 0.43394 0.45623 0.05441 0.0
S1124 S 0.36943 0.50358 0.01049 0.0
N1125 N 0.351 0.48645 0.02831 0.0
N1126 N 0.40185 0.50042 0.01087 0.0
C1127 C 0.3987 0.48472 0.02596 0.0
C1128 C 0.37102 0.47696 0.0354 0.0
C1129 C 0.53466 0.89321 0.03184 0.0
C1130 C 0.56526 0.90774 0.04135 0.0
C1131 C 0.52294 0.91142 0.02406 0.0
C1132 C 0.54141 0.94481 0.02554 0.0
H1133 H 0.51937 0.8676 0.03077 0.0
H1134 H 0.49894 0.89925 0.01724 0.0
S1135 S 0.62452 0.99402 0.04737 0.0
N1136 N 0.61476 0.95713 0.05059 0.0
N1137 N 0.59284 0.9915 0.03613 0.0
C1138 C 0.57247 0.95954 0.03456 0.0
C1139 C 0.58436 0.94098 0.04243 0.0
C1140 C 0.05681 0.25083 0.39031 0.0
C1141 C 0.02852 0.2266 0.38058 0.0
C1142 C 0.08388 0.27004 0.38143 0.0
C1143 C 0.08395 0.26566 0.36245 0.0
H1144 H 0.05815 0.25494 0.40497 0.0
H1145 H 0.10503 0.28845 0.38956 0.0
S1146 S 0.01584 0.20642 0.33049 0.0
N1147 N 1.00196 0.2 0.35071 0.0
N1148 N 0.05337 0.23568 0.33412 0.0
C1149 C 0.05608 0.24135 0.35251 0.0
C1150 C 0.02825 0.22195 0.36155 0.0
C1151 C 0.7804 0.80535 0.36961 0.0
C1152 C 0.77408 0.79128 0.3862 0.0
C1153 C 0.75826 0.81129 0.36022 0.0
C1154 C 0.72913 0.80394 0.36718 0.0
H1155 H 0.80289 0.81231 0.36391 0.0
H1156 H 0.76437 0.82239 0.3476 0.0
S1157 S 0.69969 0.76495 0.40936 0.0
N1158 N 0.73524 0.76826 0.40851 0.0
N1159 N 0.69441 0.7808 0.39126 0.0
C1160 C 0.72231 0.78975 0.38367 0.0
C1161 C 0.74458 0.78312 0.39308 0.0
C1162 C 0.22367 0.9671 0.38658 0.0
C1163 C 0.24035 0.99253 0.37597 0.0
C1164 C 0.21007 0.93554 0.37917 0.0
C1165 C 0.21258 0.92821 0.36086 0.0
H1166 H 0.22052 0.97161 0.40062 0.0
H1167 H 0.19706 0.91679 0.38784 0.0
S1168 S 0.25622 0.98649 0.32781 0.0
N1169 N 0.26039 0.00855 0.34664 0.0
N1170 N 0.23464 0.94926 0.33257 0.0
C1171 C 0.22981 0.95352 0.35021 0.0
C1172 C 0.24372 0.98566 0.3578 0.0
C1173 C 0.5696 0.67948 0.31163 0.0
C1174 C 0.56037 0.67522 0.29287 0.0
C1175 C 0.59085 0.70967 0.32039 0.0
C1176 C 0.60379 0.73688 0.31073 0.0
H1177 H 0.56042 0.65925 0.31963 0.0
H1178 H 0.59718 0.71159 0.33486 0.0
S1179 S 0.58631 0.7386 0.26135 0.0
N1180 N 0.56504 0.70071 0.26492 0.0
N1181 N 0.60528 0.75752 0.28126 0.0
C1182 C 0.59479 0.73294 0.29189 0.0
C1183 C 0.57305 0.70211 0.28299 0.0
C1184 C 0.28537 0.87533 0.28782 0.0
C1185 C 0.30815 0.86737 0.29428 0.0
C1186 C 0.25809 0.86779 0.29694 0.0
C1187 C 0.25268 0.85244 0.31306 0.0
H1188 H 0.28887 0.88797 0.27577 0.0
H1189 H 0.24139 0.87463 0.2915 0.0
S1190 S 0.30293 0.8235 0.33476 0.0
N1191 N 0.3217 0.84061 0.31703 0.0
N1192 N 0.27119 0.82782 0.33453 0.0
C1193 C 0.27489 0.84393 0.31956 0.0
C1194 C 0.30239 0.85105 0.3101 0.0
C1195 C 0.13867 0.43762 0.31518 0.0
C1196 C 0.10812 0.42333 0.30563 0.0
C1197 C 0.14986 0.41924 0.32327 0.0
C1198 C 0.13092 0.3859 0.32205 0.0
H1199 H 0.15436 0.46316 0.31601 0.0
H1200 H 0.17387 0.43121 0.33007 0.0
S1201 S 0.04773 0.33733 0.30028 0.0
N1202 N 0.05812 0.37424 0.29668 0.0
N1203 N 0.07913 0.33955 0.31171 0.0
C1204 C 0.0999 0.37142 0.31303 0.0
C1205 C 0.08852 0.39016 0.30485 0.0
C1206 C 0.31062 0.41677 0.31583 0.0
C1207 C 0.30889 0.42841 0.29903 0.0
C1208 C 0.28323 0.40014 0.32517 0.0
C1209 C 0.2532 0.39464 0.31802 0.0
H1210 H 0.33318 0.41994 0.3216 0.0
H1211 H 0.28544 0.39068 0.33775 0.0
S1212 S 0.23697 0.42431 0.27583 0.0
N1213 N 0.27546 0.43603 0.27658 0.0
N1214 N 0.22409 0.40496 0.29402 0.0
C1215 C 0.2515 0.40736 0.30161 0.0
C1216 C 0.2793 0.42417 0.29213 0.0
C1217 C 0.55959 0.86381 0.31238 0.0
C1218 C 0.56051 0.86843 0.2937 0.0
C1219 C 0.58043 0.8557 0.32135 0.0
C1220 C 0.6034 0.85242 0.31209 0.0
H1221 H 0.54277 0.8667 0.32021 0.0
H1222 H 0.57882 0.8524 0.33572 0.0
S1223 S 0.61441 0.85961 0.26293 0.0
N1224 N 0.58512 0.86698 0.26605 0.0
N1225 N 0.62508 0.85309 0.2831 0.0
C1226 C 0.60463 0.8569 0.29345 0.0
C1227 C 0.58304 0.8646 0.28422 0.0
C1228 C 0.13766 0.69283 0.31179 0.0
C1229 C 0.1061 0.67471 0.30368 0.0
C1230 C 0.14999 0.72435 0.31887 0.0
C1231 C 0.13122 0.73896 0.31807 0.0
H1232 H 0.15321 0.68279 0.31233 0.0
H1233 H 0.17461 0.73745 0.32477 0.0
S1234 S 0.04611 0.70067 0.29947 0.0
N1235 N 0.05565 0.67277 0.29616 0.0
N1236 N 0.07879 0.7322 0.30932 0.0
C1237 C 0.09935 0.72085 0.31028 0.0
C1238 C 0.0868 0.68869 0.30312 0.0
C1239 C 0.77204 0.97148 0.36555 0.0
C1240 C 0.77267 0.97849 0.38435 0.0
C1241 C 0.75031 0.94138 0.35691 0.0
C1242 C 0.72804 0.91725 0.36666 0.0
H1243 H 0.78841 0.98946 0.35741 0.0
H1244 H 0.75079 0.93706 0.34242 0.0
S1245 S 0.72059 0.9226 0.41622 0.0
N1246 N 0.7499 0.95819 0.4126 0.0
N1247 N 0.70828 0.90181 0.39613 0.0
C1248 C 0.72813 0.92384 0.38541 0.0
C1249 C 0.75062 0.95441 0.3943 0.0
C1250 C 0.04258 0.82236 0.37253 0.0
C1251 C 0.03227 0.80015 0.38565 0.0
C1252 C 0.06911 0.82864 0.36289 0.0
C1253 C 0.08646 0.81293 0.36594 0.0
H1254 H 0.03021 0.83528 0.36979 0.0
H1255 H 0.07612 0.84608 0.35304 0.0
S1256 S 0.0685 0.75164 0.39849 0.0
N1257 N 0.04085 0.76163 0.40073 0.0
N1258 N 0.09082 0.77362 0.38307 0.0
C1259 C 0.07626 0.79053 0.37904 0.0
C1260 C 0.04923 0.78414 0.38877 0.0
C1261 C 0.23467 0.24727 0.35864 0.0
C1262 C 0.23121 0.23951 0.37675 0.0
C1263 C 0.22071 0.26384 0.35118 0.0
C1264 C 0.20273 0.27319 0.36157 0.0
H1265 H 0.24873 0.24095 0.35027 0.0
H1266 H 0.22456 0.26984 0.33729 0.0
S1267 S 0.18414 0.25582 0.40924 0.0
N1268 N 0.20678 0.24038 0.40451 0.0
N1269 N 0.1807 0.27163 0.39069 0.0
C1270 C 0.19845 0.26479 0.3796 0.0
C1271 C 0.21266 0.24796 0.38714 0.0
C1272 C 0.72225 0.5979 0.72029 0.0
C1273 C 0.69767 0.56788 0.71264 0.0
C1274 C 0.74992 0.61544 0.71153 0.0
C1275 C 0.75404 0.60401 0.69458 0.0
H1276 H 0.72012 0.60806 0.73318 0.0
H1277 H 0.76823 0.63834 0.71808 0.0
S1278 S 0.69772 0.52653 0.66886 0.0
N1279 N 0.68 0.52695 0.68729 0.0
N1280 N 0.73167 0.56085 0.67049 0.0
C1281 C 0.72964 0.57435 0.68656 0.0
C1282 C 0.70156 0.55607 0.69567 0.0
C1283 C 0.43227 0.14388 0.72856 0.0
C1284 C 0.44545 0.12776 0.71933 0.0
C1285 C 0.41106 0.15126 0.71934 0.0
C1286 C 0.40218 0.14279 0.70052 0.0
H1287 H 0.43892 0.15144 0.74295 0.0
H1288 H 0.40194 0.1641 0.72703 0.0
S1289 S 0.42783 0.09757 0.67049 0.0
N1290 N 0.4465 0.10161 0.69065 0.0
N1291 N 0.40696 0.11561 0.67324 0.0
C1292 C 0.41466 0.12597 0.69123 0.0
C1293 C 0.4362 0.11843 0.70064 0.0
C1294 C 0.88335 0.29255 0.72018 0.0
C1295 C 0.90022 0.31823 0.70979 0.0
C1296 C 0.87067 0.26117 0.71272 0.0
C1297 C 0.87436 0.25427 0.69457 0.0
H1298 H 0.87943 0.29671 0.73412 0.0
H1299 H 0.85756 0.24221 0.72125 0.0
S1300 S 0.91862 0.31343 0.66206 0.0
N1301 N 0.92143 0.33504 0.6808 0.0
N1302 N 0.89746 0.27603 0.66661 0.0
C1303 C 0.89165 0.27985 0.6841 0.0
C1304 C 0.90458 0.31183 0.69174 0.0
C1305 C 0.24414 0.04299 0.61917 0.0
C1306 C 0.23205 0.01543 0.62843 0.0
C1307 C 0.26622 0.07284 0.62806 0.0
C1308 C 0.27701 0.07621 0.64656 0.0
H1309 H 0.23592 0.04158 0.60504 0.0
H1310 H 0.27439 0.09345 0.62042 0.0
S1311 S 0.25481 0.01067 0.67637 0.0
N1312 N 0.23403 0.99288 0.65666 0.0
N1313 N 0.27532 0.04892 0.6735 0.0
C1314 C 0.26568 0.04862 0.65584 0.0
C1315 C 0.24325 0.01826 0.64675 0.0
C1316 C 0.94607 0.18241 0.62085 0.0
C1317 C 0.97681 0.19981 0.63014 0.0
C1318 C 0.91855 0.17356 0.62997 0.0
C1319 C 0.92054 0.18178 0.6488 0.0
H1320 H 0.9432 0.17512 0.60644 0.0
H1321 H 0.8955 0.15998 0.62213 0.0
S1322 S 0.99571 0.22912 0.67915 0.0
N1323 N 0.00784 0.22624 0.65903 0.0
N1324 N 0.95621 0.2095 0.67623 0.0
C1325 C 0.95124 0.19947 0.65822 0.0
C1326 C 0.97929 0.20851 0.64889 0.0
C1327 C 0.77296 0.74507 0.65236 0.0
C1328 C 0.78082 0.75628 0.63515 0.0
C1329 C 0.78647 0.72858 0.66044 0.0
C1330 C 0.80829 0.72272 0.65157 0.0
H1331 H 0.75581 0.74858 0.65948 0.0
H1332 H 0.77919 0.71976 0.67352 0.0
S1333 S 0.83945 0.75041 0.60724 0.0
N1334 N 0.81365 0.76269 0.61018 0.0
N1335 N 0.83896 0.73161 0.62523 0.0
C1336 C 0.81705 0.73468 0.63459 0.0
C1337 C 0.80331 0.75145 0.6264 0.0
C1338 C 0.96812 0.73665 0.63276 0.0
C1339 C 0.97763 0.76881 0.63167 0.0
C1340 C 0.94281 0.71737 0.64282 0.0
C1341 C 0.92606 0.72947 0.65225 0.0
H1342 H 0.9805 0.72635 0.62589 0.0
H1343 H 0.93629 0.69268 0.64314 0.0
S1344 S 0.94032 0.81169 0.65279 0.0
N1345 N 0.96755 0.81169 0.64023 0.0
N1346 N 0.92007 0.77544 0.65928 0.0
C1347 C 0.9353 0.76162 0.65128 0.0
C1348 C 0.96104 0.78126 0.64095 0.0
C1349 C 0.22974 0.19862 0.64558 0.0
C1350 C 0.23 0.20195 0.62675 0.0
C1351 C 0.25144 0.19196 0.65484 0.0
C1352 C 0.27462 0.18888 0.6457 0.0
H1353 H 0.21277 0.20146 0.6533 0.0
H1354 H 0.25035 0.18967 0.66932 0.0
S1355 S 0.28415 0.19298 0.59626 0.0
N1356 N 0.25426 0.19954 0.59912 0.0
N1357 N 0.29577 0.18821 0.61667 0.0
C1358 C 0.27517 0.19201 0.6269 0.0
C1359 C 0.25273 0.19828 0.61739 0.0
C1360 C 0.75528 0.01704 0.63556 0.0
C1361 C 0.77268 0.00114 0.63704 0.0
C1362 C 0.76832 0.04853 0.64297 0.0
C1363 C 0.79927 0.06531 0.65215 0.0
H1364 H 0.73132 0.005 0.62869 0.0
H1365 H 0.75389 0.05968 0.64153 0.0
S1366 S 0.85531 0.03472 0.65877 0.0
N1367 N 0.82286 0.0047 0.64765 0.0
N1368 N 0.84734 0.06377 0.66179 0.0
C1369 C 0.81698 0.04965 0.65366 0.0
C1370 C 0.80369 0.01759 0.64606 0.0
C1371 C 0.42399 0.29776 0.72511 0.0
C1372 C 0.44379 0.32229 0.71461 0.0
C1373 C 0.40245 0.26708 0.71699 0.0
C1374 C 0.40043 0.25978 0.69816 0.0
H1375 H 0.42567 0.30207 0.73977 0.0
H1376 H 0.38804 0.24873 0.72557 0.0
S1377 S 0.44393 0.31596 0.66432 0.0
N1378 N 0.45738 0.3377 0.6841 0.0
N1379 N 0.41794 0.27967 0.66901 0.0
C1380 C 0.41937 0.28412 0.68744 0.0
C1381 C 0.44081 0.31546 0.69562 0.0
C1382 C 0.71234 0.11086 0.71936 0.0
C1383 C 0.69765 0.1294 0.71798 0.0
C1384 C 0.73863 0.11684 0.70966 0.0
C1385 C 0.75138 0.14158 0.6981 0.0
H1386 H 0.70314 0.09122 0.7278 0.0
H1387 H 0.74889 0.1017 0.71121 0.0
S1388 S 0.72308 0.19862 0.69079 0.0
N1389 N 0.69889 0.17472 0.70496 0.0
N1390 N 0.74796 0.18567 0.68652 0.0
C1391 C 0.73713 0.16057 0.69676 0.0
C1392 C 0.71041 0.15455 0.70672 0.0
C1393 C 0.86822 0.55618 0.69959 0.0
C1394 C 0.89843 0.57021 0.70952 0.0
C1395 C 0.85721 0.57485 0.69165 0.0
C1396 C 0.87599 0.60822 0.69343 0.0
H1397 H 0.85267 0.5306 0.69828 0.0
H1398 H 0.83351 0.56303 0.68447 0.0
S1399 S 0.95836 0.65628 0.71642 0.0
N1400 N 0.94797 0.61918 0.71946 0.0
N1401 N 0.92731 0.65438 0.70477 0.0
C1402 C 0.90666 0.62247 0.70289 0.0
C1403 C 0.91786 0.60345 0.71089 0.0
C1404 C 0.50942 0.99759 0.16135 0.0
C1405 C 0.47992 0.96987 0.16283 0.0
C1406 C 0.51735 0.01096 0.14471 0.0
C1407 C 0.49626 0.99692 0.12882 0.0
H1408 H 0.52654 0.00912 0.17319 0.0
H1409 H 0.54045 0.03213 0.1442 0.0
S1410 S 0.41577 0.92455 0.12535 0.0
N1411 N 0.42939 0.92903 0.14691 0.0
N1412 N 0.44416 0.95431 0.11571 0.0
C1413 C 0.46654 0.9694 0.13012 0.0
C1414 C 0.45838 0.95589 0.14709 0.0
C1415 C 0.01735 0.48171 0.15423 0.0
C1416 C 1.00015 0.48764 0.16712 0.0
C1417 C 0.00869 0.47891 0.13554 0.0
C1418 C 0.98239 0.48169 0.12911 0.0
H1419 H 0.03819 0.48014 0.1586 0.0
H1420 H 0.02277 0.47468 0.12605 0.0
S1421 S 0.92881 0.49586 0.15736 0.0
N1422 N 0.95488 0.49485 0.17224 0.0
N1423 N 0.93895 0.49018 0.1371 0.0
C1424 C 0.96458 0.48691 0.14188 0.0
C1425 C 0.97341 0.48978 0.16088 0.0
C1426 C 0.49655 0.46918 0.16006 0.0
C1427 C 0.47119 0.47494 0.16245 0.0
C1428 C 0.50586 0.4666 0.14271 0.0
C1429 C 0.49036 0.46992 0.12702 0.0
H1430 H 0.50985 0.46747 0.17178 0.0
H1431 H 0.52593 0.46276 0.14161 0.0
S1432 S 0.42201 0.48456 0.12593 0.0
N1433 N 0.43001 0.4829 0.14772 0.0
N1434 N 0.44778 0.4786 0.11506 0.0
C1435 C 0.46415 0.47453 0.12917 0.0
C1436 C 0.45453 0.47693 0.14689 0.0
C1437 C 0.02737 0.53168 0.8552 0.0
C1438 C 1.00198 0.50223 0.84743 0.0
C1439 C 0.03738 0.53649 0.87383 0.0
C1440 C 0.02206 0.51213 0.88532 0.0
H1441 H 0.03988 0.55096 0.84677 0.0
H1442 H 0.0571 0.55948 0.87931 0.0
S1443 S 0.95395 0.43088 0.87167 0.0
N1444 N 0.9613 0.44862 0.85266 0.0
N1445 N 0.98035 0.45753 0.88761 0.0
C1446 C 0.99647 0.48267 0.87772 0.0
C1447 C 0.9864 0.47775 0.85879 0.0
C1448 C 0.52304 0.52208 0.85461 0.0
C1449 C 0.53917 0.50516 0.85175 0.0
C1450 C 0.51252 0.52446 0.87166 0.0
C1451 C 0.51791 0.51011 0.88643 0.0
H1452 H 0.51742 0.53246 0.84342 0.0
H1453 H 0.49914 0.53671 0.87311 0.0
S1454 S 0.56313 0.46706 0.88645 0.0
N1455 N 0.56255 0.47629 0.86532 0.0
N1456 N 0.54355 0.48137 0.89747 0.0
C1457 C 0.53547 0.49451 0.88391 0.0
C1458 C 0.54592 0.4919 0.86654 0.0
C1459 C 0.51965 0.043 0.86479 0.0
C1460 C 0.52924 0.02941 0.85095 0.0
C1461 C 0.51189 0.02985 0.88149 0.0
C1462 C 0.51311 0.00237 0.88502 0.0
H1463 H 0.51816 0.06407 0.8627 0.0
H1464 H 0.50433 0.04102 0.89162 0.0
S1465 S 0.53726 0.95783 0.8535 0.0
N1466 N 0.5397 0.98695 0.84198 0.0
N1467 N 0.52553 0.9625 0.87345 0.0
C1468 C 0.52295 0.98868 0.87138 0.0
C1469 C 0.53099 0.00216 0.85438 0.0
C1470 C 0.14701 0.28556 0.48218 0.0
C1471 C 0.14517 0.30291 0.49746 0.0
C1472 C 0.15528 0.29888 0.46555 0.0
C1473 C 0.16228 0.33022 0.46352 0.0
H1474 H 0.14203 0.26143 0.48309 0.0
H1475 H 0.15616 0.28445 0.45417 0.0
S1476 S 0.16248 0.38625 0.49973 0.0
N1477 N 0.15171 0.35328 0.50967 0.0
N1478 N 0.16774 0.37857 0.47855 0.0
C1479 C 0.16046 0.34782 0.47872 0.0
C1480 C 0.15181 0.33413 0.49563 0.0
C1481 C 0.67555 0.84253 0.48895 0.0
C1482 C 0.66272 0.81615 0.49927 0.0
C1483 C 0.66661 0.83919 0.47029 0.0
C1484 C 0.64434 0.80937 0.46124 0.0
H1485 H 0.69286 0.86595 0.49534 0.0
H1486 H 0.67695 0.86019 0.46291 0.0
S1487 S 0.60397 0.73279 0.48198 0.0
N1488 N 0.6266 0.75923 0.49909 0.0
N1489 N 0.61015 0.75284 0.46387 0.0
C1490 C 0.63141 0.78276 0.47135 0.0
C1491 C 0.64059 0.78615 0.49038 0.0
C1492 C 0.16835 0.82402 0.49209 0.0
C1493 C 0.13803 0.82008 0.49468 0.0
C1494 C 0.17663 0.81966 0.47473 0.0
C1495 C 0.15492 0.81125 0.45922 0.0
H1496 H 0.18615 0.83122 0.50357 0.0
H1497 H 0.20065 0.82408 0.47339 0.0
S1498 S 0.07157 0.79568 0.45871 0.0
N1499 N 0.08565 0.80583 0.48035 0.0
N1500 N 0.10092 0.79688 0.44771 0.0
C1501 C 0.12403 0.80596 0.46168 0.0
C1502 C 0.1156 0.81044 0.4794 0.0
C1503 C 0.68742 0.86377 0.18824 0.0
C1504 C 0.66534 0.83412 0.17895 0.0
C1505 C 0.69613 0.86655 0.20693 0.0
C1506 C 0.68281 0.83984 0.21697 0.0
H1507 H 0.69846 0.88484 0.18095 0.0
H1508 H 0.71332 0.88979 0.2136 0.0
S1509 S 0.62315 0.75706 0.19905 0.0
N1510 N 0.62954 0.77775 0.18122 0.0
N1511 N 0.64634 0.78286 0.21626 0.0
C1512 C 0.66038 0.81014 0.20786 0.0
C1513 C 0.65158 0.80732 0.18887 0.0
C1514 C 0.21597 0.86251 0.1973 0.0
C1515 C 0.19358 0.85415 0.18213 0.0
C1516 C 0.20805 0.86572 0.21501 0.0
C1517 C 0.17756 0.86093 0.21819 0.0
H1518 H 0.23928 0.86528 0.19553 0.0
H1519 H 0.22574 0.87138 0.22633 0.0
S1520 S 0.11129 0.84102 0.18288 0.0
N1521 N 0.14052 0.84334 0.1713 0.0
N1522 N 0.12538 0.84864 0.2045 0.0
C1523 C 0.15547 0.85385 0.20304 0.0
C1524 C 0.16353 0.85061 0.18506 0.0
C1525 C 0.17872 0.36969 0.19596 0.0
C1526 C 0.1935 0.35933 0.18357 0.0
C1527 C 0.17057 0.35671 0.21269 0.0
C1528 C 0.17669 0.33267 0.21774 0.0
H1529 H 0.17347 0.38813 0.19274 0.0
H1530 H 0.15895 0.36532 0.22163 0.0
S1531 S 0.21546 0.29748 0.19037 0.0
N1532 N 0.21391 0.32348 0.17756 0.0
N1533 N 0.19939 0.29971 0.20916 0.0
C1534 C 0.19174 0.32228 0.20556 0.0
C1535 C 0.20003 0.3355 0.1885 0.0
C1536 C 0.84584 0.66364 0.8281 0.0
C1537 C 0.81565 0.63719 0.83013 0.0
C1538 C 0.85343 0.67658 0.81132 0.0
C1539 C 0.83127 0.66342 0.79581 0.0
H1540 H 0.86381 0.67449 0.83961 0.0
H1541 H 0.87711 0.6967 0.81041 0.0
S1542 S 0.74865 0.5945 0.79385 0.0
N1543 N 0.76332 0.59847 0.81514 0.0
N1544 N 0.77743 0.62302 0.7837 0.0
C1545 C 0.80085 0.63721 0.79768 0.0
C1546 C 0.79306 0.6241 0.8148 0.0
C1547 C 0.34614 0.15156 0.82279 0.0
C1548 C 0.32753 0.15609 0.8353 0.0
C1549 C 0.33858 0.14921 0.80398 0.0
C1550 C 0.31199 0.15103 0.79701 0.0
H1551 H 0.36711 0.15052 0.82756 0.0
H1552 H 0.35363 0.14585 0.79483 0.0
S1553 S 0.25513 0.16187 0.82405 0.0
N1554 N 0.28085 0.16136 0.83943 0.0
N1555 N 0.26693 0.15746 0.80409 0.0
C1556 C 0.29294 0.15512 0.80937 0.0
C1557 C 0.30067 0.15758 0.82851 0.0
C1558 C 0.81545 0.18005 0.81774 0.0
C1559 C 0.80427 0.15566 0.82949 0.0
C1560 C 0.82333 0.17551 0.8003 0.0
C1561 C 0.82057 0.14645 0.79394 0.0
H1562 H 0.8185 0.20304 0.82216 0.0
H1563 H 0.83246 0.19522 0.79191 0.0
S1564 S 0.79099 0.07449 0.819 0.0
N1565 N 0.78984 0.10105 0.83334 0.0
N1566 N 0.80444 0.09237 0.80041 0.0
C1567 C 0.80871 0.12158 0.80537 0.0
C1568 C 0.80049 0.12617 0.82314 0.0
C1569 C 0.37175 0.1774 0.51921 0.0
C1570 C 0.3463 0.18116 0.51234 0.0
C1571 C 0.37989 0.1804 0.53797 0.0
C1572 C 0.36274 0.18706 0.55056 0.0
H1573 H 0.38534 0.17184 0.51 0.0
H1574 H 0.39925 0.17668 0.54266 0.0
S1575 S 0.29474 0.20012 0.53961 0.0
N1576 N 0.30428 0.19239 0.51959 0.0
N1577 N 0.32006 0.19871 0.55487 0.0
C1578 C 0.33767 0.19155 0.54388 0.0
C1579 C 0.32938 0.18851 0.52477 0.0
C1580 C 0.86555 0.19846 0.52343 0.0
C1581 C 0.85982 0.16918 0.5152 0.0
C1582 C 0.85756 0.20099 0.54122 0.0
C1583 C 0.84406 0.17444 0.55143 0.0
H1584 H 0.87547 0.21928 0.51591 0.0
H1585 H 0.86196 0.22385 0.54704 0.0
S1586 S 0.82554 0.09278 0.53616 0.0
N1587 N 0.84087 0.11346 0.51871 0.0
N1588 N 0.8257 0.11812 0.55199 0.0
C1589 C 0.83888 0.14524 0.54342 0.0
C1590 C 0.8468 0.14265 0.52535 0.0
C1591 C 0.86826 0.67758 0.52203 0.0
C1592 C 0.86754 0.70565 0.51949 0.0
C1593 C 0.86057 0.66326 0.53844 0.0
C1594 C 0.85223 0.67664 0.55304 0.0
H1595 H 0.87415 0.66622 0.5111 0.0
H1596 H 0.86129 0.64159 0.53974 0.0
S1597 S 0.84753 0.75038 0.5535 0.0
N1598 N 0.85861 0.74673 0.53317 0.0
N1599 N 0.84373 0.71963 0.56381 0.0
C1600 C 0.85181 0.7049 0.55074 0.0
C1601 C 0.85952 0.71941 0.53403 0.0
loop_
_geom_bond_atom_site_label_1
_geom_bond_atom_site_label_2
_geom_bond_distance
_geom_bond_site_symmetry_2
_ccdc_geom_bond_type
C0 C1 1.384 . S
C0 H13 0.947 . S
C0 C35 1.382 . S
C1 C0 1.384 . S
C1 C2 1.378 . S
C2 C1 1.378 . S
C2 C3 1.378 . S
C2 H14 0.952 . S
C3 C2 1.378 . S
C3 H15 0.950 . S
C3 C34 1.383 . S
H4 C23 0.947 . S
H5 C24 0.946 . S
H6 C26 0.953 . S
H7 C27 0.945 . S
H8 C29 0.952 . S
H9 C30 0.949 . S
H10 C32 0.950 . S
H11 C33 0.948 . S
H12 C35 0.951 . S
H13 C0 0.947 . S
H14 C2 0.952 . S
H15 C3 0.950 . S
N16 C19 1.382 . S
N16 C21 1.363 . S
N17 C19 1.371 . S
N17 C20 1.372 . S
N18 C20 1.361 . S
N18 C21 1.377 . S
C19 N16 1.382 . S
C19 N17 1.371 . S
C19 C22 1.480 . S
C20 N17 1.372 . S
C20 N18 1.361 . S
C20 C28 1.457 . S
C21 N16 1.363 . S
C21 N18 1.377 . S
C21 C34 1.479 . S
C22 C19 1.480 . S
C22 C23 1.383 . S
C22 C27 1.385 . S
C23 H4 0.947 . S
C23 C22 1.383 . S
C23 C24 1.388 . S
C24 H5 0.946 . S
C24 C23 1.388 . S
C24 C25 1.384 . S
C25 C24 1.384 . S
C25 C26 1.377 . S
C26 H6 0.953 . S
C26 C25 1.377 . S
C26 C27 1.369 . S
C27 H7 0.945 . S
C27 C22 1.385 . S
C27 C26 1.369 . S
C28 C20 1.457 . S
C28 C29 1.372 . S
C28 C33 1.364 . S
C29 H8 0.952 . S
C29 C28 1.372 . S
C29 C30 1.389 . S
C30 H9 0.949 . S
C30 C29 1.389 . S
C30 C31 1.387 . S
C31 C30 1.387 . S
C31 C32 1.372 . S
C32 H10 0.950 . S
C32 C31 1.372 . S
C32 C33 1.379 . S
C33 H11 0.948 . S
C33 C28 1.364 . S
C33 C32 1.379 . S
C34 C3 1.383 . S
C34 C21 1.479 . S
C34 C35 1.398 . S
C35 C0 1.382 . S
C35 H12 0.951 . S
C35 C34 1.398 . S
C36 C37 1.384 . S
C36 H49 0.947 . S
C36 C71 1.382 . S
C37 C36 1.384 . S
C37 C38 1.378 . S
C38 C37 1.378 . S
C38 C39 1.378 . S
C38 H50 0.952 . S
C39 C38 1.378 . S
C39 H51 0.950 . S
C39 C70 1.383 . S
H40 C59 0.947 . S
H41 C60 0.946 . S
H42 C62 0.953 . S
H43 C63 0.945 . S
H44 C65 0.952 . S
H45 C66 0.949 . S
H46 C68 0.950 . S
H47 C69 0.948 . S
H48 C71 0.951 . S
H49 C36 0.947 . S
H50 C38 0.952 . S
H51 C39 0.950 . S
N52 C55 1.382 . S
N52 C57 1.363 . S
N53 C55 1.371 . S
N53 C56 1.372 . S
N54 C56 1.361 . S
N54 C57 1.377 . S
C55 N52 1.382 . S
C55 N53 1.371 . S
C55 C58 1.480 . S
C56 N53 1.372 . S
C56 N54 1.361 . S
C56 C64 1.457 . S
C57 N52 1.363 . S
C57 N54 1.377 . S
C57 C70 1.479 . S
C58 C55 1.480 . S
C58 C59 1.383 . S
C58 C63 1.385 . S
C59 H40 0.947 . S
C59 C58 1.383 . S
C59 C60 1.388 . S
C60 H41 0.946 . S
C60 C59 1.388 . S
C60 C61 1.384 . S
C61 C60 1.384 . S
C61 C62 1.377 . S
C62 H42 0.953 . S
C62 C61 1.377 . S
C62 C63 1.369 . S
C63 H43 0.945 . S
C63 C58 1.385 . S
C63 C62 1.369 . S
C64 C56 1.457 . S
C64 C65 1.372 . S
C64 C69 1.364 . S
C65 H44 0.952 . S
C65 C64 1.372 . S
C65 C66 1.389 . S
C66 H45 0.949 . S
C66 C65 1.389 . S
C66 C67 1.387 . S
C67 C66 1.387 . S
C67 C68 1.372 . S
C68 H46 0.950 . S
C68 C67 1.372 . S
C68 C69 1.379 . S
C69 H47 0.948 . S
C69 C64 1.364 . S
C69 C68 1.379 . S
C70 C39 1.383 . S
C70 C57 1.479 . S
C70 C71 1.398 . S
C71 C36 1.382 . S
C71 H48 0.951 . S
C71 C70 1.398 . S
C72 C73 1.384 . S
C72 H85 0.947 . S
C72 C107 1.382 . S
C73 C72 1.384 . S
C73 C74 1.378 . S
C74 C73 1.378 . S
C74 C75 1.378 . S
C74 H86 0.952 . S
C75 C74 1.378 . S
C75 H87 0.950 . S
C75 C106 1.383 . S
H76 C95 0.947 . S
H77 C96 0.946 . S
H78 C98 0.971 . S
H79 C99 0.945 . S
H80 C101 0.952 . S
H81 C102 0.949 . S
H82 C104 0.950 . S
H83 C105 0.948 . S
H84 C107 0.951 . S
H85 C72 0.947 . S
H86 C74 0.952 . S
H87 C75 0.950 . S
N88 C91 1.382 . S
N88 C93 1.363 . S
N89 C91 1.371 . S
N89 C92 1.372 . S
N90 C92 1.361 . S
N90 C93 1.377 . S
C91 N88 1.382 . S
C91 N89 1.371 . S
C91 C94 1.480 . S
C92 N89 1.372 . S
C92 N90 1.361 . S
C92 C100 1.457 . S
C93 N88 1.363 . S
C93 N90 1.377 . S
C93 C106 1.479 . S
C94 C91 1.480 . S
C94 C95 1.383 . S
C94 C99 1.385 . S
C95 H76 0.947 . S
C95 C94 1.383 . S
C95 C96 1.388 . S
C96 H77 0.946 . S
C96 C95 1.388 . S
C96 C97 1.384 . S
C97 C96 1.384 . S
C97 C98 1.377 . S
C98 H78 0.971 . S
C98 C97 1.377 . S
C98 C99 1.369 . S
C99 H79 0.945 . S
C99 C94 1.385 . S
C99 C98 1.369 . S
C100 C92 1.457 . S
C100 C101 1.372 . S
C100 C105 1.364 . S
C101 H80 0.952 . S
C101 C100 1.372 . S
C101 C102 1.389 . S
C102 H81 0.949 . S
C102 C101 1.389 . S
C102 C103 1.387 . S
C103 C102 1.387 . S
C103 C104 1.372 . S
C104 H82 0.950 . S
C104 C103 1.372 . S
C104 C105 1.379 . S
C105 H83 0.948 . S
C105 C100 1.364 . S
C105 C104 1.379 . S
C106 C75 1.383 . S
C106 C93 1.479 . S
C106 C107 1.398 . S
C107 C72 1.382 . S
C107 H84 0.951 . S
C107 C106 1.398 . S
C108 C109 1.384 . S
C108 H121 0.947 1_455 S
C108 C143 1.382 . S
C109 C108 1.384 . S
C109 C110 1.378 . S
C110 C109 1.378 . S
C110 C111 1.378 . S
C110 H122 0.952 . S
C111 C110 1.378 . S
C111 H123 0.950 . S
C111 C142 1.383 . S
H112 C131 0.947 . S
H113 C132 0.946 . S
H114 C134 0.953 . S
H115 C135 0.945 . S
H116 C137 0.952 . S
H117 C138 0.949 . S
H118 C140 0.950 . S
H119 C141 0.948 . S
H120 C143 0.951 . S
H121 C108 0.947 1_655 S
H122 C110 0.952 . S
H123 C111 0.950 . S
N124 C127 1.382 . S
N124 C129 1.363 . S
N125 C127 1.371 . S
N125 C128 1.372 . S
N126 C128 1.361 . S
N126 C129 1.377 . S
C127 N124 1.382 . S
C127 N125 1.371 . S
C127 C130 1.480 . S
C128 N125 1.372 . S
C128 N126 1.361 . S
C128 C136 1.457 . S
C129 N124 1.363 . S
C129 N126 1.377 . S
C129 C142 1.479 . S
C130 C127 1.480 . S
C130 C131 1.383 . S
C130 C135 1.385 . S
C131 H112 0.947 . S
C131 C130 1.383 . S
C131 C132 1.388 . S
C132 H113 0.946 . S
C132 C131 1.388 . S
C132 C133 1.384 . S
C133 C132 1.384 . S
C133 C134 1.377 . S
C134 H114 0.953 . S
C134 C133 1.377 . S
C134 C135 1.369 . S
C135 H115 0.945 . S
C135 C130 1.385 . S
C135 C134 1.369 . S
C136 C128 1.457 . S
C136 C137 1.372 . S
C136 C141 1.364 . S
C137 H116 0.952 . S
C137 C136 1.372 . S
C137 C138 1.389 . S
C138 H117 0.949 . S
C138 C137 1.389 . S
C138 C139 1.387 . S
C139 C138 1.387 . S
C139 C140 1.372 . S
C140 H118 0.950 . S
C140 C139 1.372 . S
C140 C141 1.379 . S
C141 H119 0.948 . S
C141 C136 1.364 . S
C141 C140 1.379 . S
C142 C111 1.383 . S
C142 C129 1.479 . S
C142 C143 1.398 . S
C143 C108 1.382 . S
C143 H120 0.951 . S
C143 C142 1.398 . S
C144 C145 1.384 . S
C144 H157 0.947 . S
C144 C179 1.382 . S
C145 C144 1.384 . S
C145 C146 1.378 . S
C146 C145 1.378 . S
C146 C147 1.378 . S
C146 H158 0.952 . S
C147 C146 1.378 . S
C147 H159 0.950 . S
C147 C178 1.383 . S
H148 C167 0.947 . S
H149 C168 0.946 . S
H150 C170 0.953 . S
H151 C171 0.945 . S
H152 C173 0.952 . S
H153 C174 0.949 . S
H154 C176 0.950 . S
H155 C177 0.948 . S
H156 C179 0.951 . S
H157 C144 0.947 . S
H158 C146 0.952 . S
H159 C147 0.950 . S
N160 C163 1.382 . S
N160 C165 1.363 . S
N161 C163 1.371 . S
N161 C164 1.372 . S
N162 C164 1.361 . S
N162 C165 1.377 . S
C163 N160 1.382 . S
C163 N161 1.371 . S
C163 C166 1.480 . S
C164 N161 1.372 . S
C164 N162 1.361 . S
C164 C172 1.457 . S
C165 N160 1.363 . S
C165 N162 1.377 . S
C165 C178 1.479 . S
C166 C163 1.480 . S
C166 C167 1.383 . S
C166 C171 1.385 . S
C167 H148 0.947 . S
C167 C166 1.383 . S
C167 C168 1.388 . S
C168 H149 0.946 . S
C168 C167 1.388 . S
C168 C169 1.384 . S
C169 C168 1.384 . S
C169 C170 1.377 . S
C170 H150 0.953 . S
C170 C169 1.377 . S
C170 C171 1.369 . S
C171 H151 0.945 . S
C171 C166 1.385 . S
C171 C170 1.369 . S
C172 C164 1.457 . S
C172 C173 1.372 . S
C172 C177 1.364 . S
C173 H152 0.952 . S
C173 C172 1.372 . S
C173 C174 1.389 . S
C174 H153 0.949 . S
C174 C173 1.389 . S
C174 C175 1.387 . S
C175 C174 1.387 . S
C175 C176 1.372 . S
C176 H154 0.950 . S
C176 C175 1.372 . S
C176 C177 1.379 . S
C177 H155 0.948 . S
C177 C172 1.364 . S
C177 C176 1.379 . S
C178 C147 1.383 . S
C178 C165 1.479 . S
C178 C179 1.398 . S
C179 C144 1.382 . S
C179 H156 0.951 . S
C179 C178 1.398 . S
C180 C181 1.384 . S
C180 H193 0.947 . S
C180 C215 1.382 . S
C181 C180 1.384 . S
C181 C182 1.378 . S
C182 C181 1.378 . S
C182 C183 1.378 . S
C182 H194 0.952 . S
C183 C182 1.378 . S
C183 H195 0.950 . S
C183 C214 1.383 . S
H184 C203 0.947 . S
H185 C204 0.946 . S
H186 C206 0.953 . S
H187 C207 0.945 . S
H188 C209 0.952 . S
H189 C210 0.949 . S
H190 C212 0.950 . S
H191 C213 0.948 . S
H192 C215 0.951 . S
H193 C180 0.947 . S
H194 C182 0.952 . S
H195 C183 0.950 . S
N196 C199 1.382 . S
N196 C201 1.363 . S
N197 C199 1.371 . S
N197 C200 1.372 . S
N198 C200 1.361 . S
N198 C201 1.377 . S
C199 N196 1.382 . S
C199 N197 1.371 . S
C199 C202 1.480 . S
C200 N197 1.372 . S
C200 N198 1.361 . S
C200 C208 1.457 . S
C201 N196 1.363 . S
C201 N198 1.377 . S
C201 C214 1.479 . S
C202 C199 1.480 . S
C202 C203 1.383 . S
C202 C207 1.385 . S
C203 H184 0.947 . S
C203 C202 1.383 . S
C203 C204 1.388 . S
C204 H185 0.946 . S
C204 C203 1.388 . S
C204 C205 1.384 . S
C205 C204 1.384 . S
C205 C206 1.377 . S
C206 H186 0.953 . S
C206 C205 1.377 . S
C206 C207 1.369 . S
C207 H187 0.945 . S
C207 C202 1.385 . S
C207 C206 1.369 . S
C208 C200 1.457 . S
C208 C209 1.372 . S
C208 C213 1.364 . S
C209 H188 0.952 . S
C209 C208 1.372 . S
C209 C210 1.389 . S
C210 H189 0.949 . S
C210 C209 1.389 . S
C210 C211 1.387 . S
C211 C210 1.387 . S
C211 C212 1.372 . S
C212 H190 0.950 . S
C212 C211 1.372 . S
C212 C213 1.379 . S
C213 H191 0.948 . S
C213 C208 1.364 . S
C213 C212 1.379 . S
C214 C183 1.383 . S
C214 C201 1.479 . S
C214 C215 1.398 . S
C215 C180 1.382 . S
C215 H192 0.951 . S
C215 C214 1.398 . S
C216 C217 1.384 . S
C216 H229 0.947 . S
C216 C251 1.382 . S
C217 C216 1.384 . S
C217 C218 1.378 . S
C218 C217 1.378 . S
C218 C219 1.378 . S
C218 H230 0.952 . S
C219 C218 1.378 . S
C219 H231 0.950 . S
C219 C250 1.383 . S
H220 C239 0.947 . S
H221 C240 0.946 . S
H222 C242 0.953 . S
H223 C243 0.945 . S
H224 C245 0.952 . S
H225 C246 0.949 . S
H226 C248 0.953 1_455 S
H227 C249 0.948 . S
H228 C251 0.951 . S
H229 C216 0.947 . S
H230 C218 0.952 . S
H231 C219 0.950 . S
N232 C235 1.382 . S
N232 C237 1.363 . S
N233 C235 1.371 . S
N233 C236 1.372 . S
N234 C236 1.361 . S
N234 C237 1.377 . S
C235 N232 1.382 . S
C235 N233 1.371 . S
C235 C238 1.480 . S
C236 N233 1.372 . S
C236 N234 1.361 . S
C236 C244 1.457 . S
C237 N232 1.363 . S
C237 N234 1.377 . S
C237 C250 1.479 . S
C238 C235 1.480 . S
C238 C239 1.383 . S
C238 C243 1.385 . S
C239 H220 0.947 . S
C239 C238 1.383 . S
C239 C240 1.388 . S
C240 H221 0.946 . S
C240 C239 1.388 . S
C240 C241 1.384 . S
C241 C240 1.384 . S
C241 C242 1.377 . S
C242 H222 0.953 . S
C242 C241 1.377 . S
C242 C243 1.369 . S
C243 H223 0.945 . S
C243 C238 1.385 . S
C243 C242 1.369 . S
C244 C236 1.457 . S
C244 C245 1.372 . S
C244 C249 1.364 . S
C245 H224 0.952 . S
C245 C244 1.372 . S
C245 C246 1.389 . S
C246 H225 0.949 . S
C246 C245 1.389 . S
C246 C247 1.396 . S
C247 C246 1.396 . S
C247 C248 1.362 . S
C248 H226 0.953 1_655 S
C248 C247 1.362 . S
C248 C249 1.378 . S
C249 H227 0.948 . S
C249 C244 1.364 . S
C249 C248 1.378 . S
C250 C219 1.383 . S
C250 C237 1.479 . S
C250 C251 1.398 . S
C251 C216 1.382 . S
C251 H228 0.951 . S
C251 C250 1.398 . S
C252 C253 1.384 . S
C252 H265 0.947 . S
C252 C287 1.382 . S
C253 C252 1.384 . S
C253 C254 1.378 . S
C254 C253 1.378 . S
C254 C255 1.378 . S
C254 H266 0.952 . S
C255 C254 1.378 . S
C255 H267 0.950 . S
C255 C286 1.383 . S
H256 C275 0.947 . S
H257 C276 0.946 . S
H258 C278 0.953 . S
H259 C279 0.945 . S
H260 C281 0.952 . S
H261 C282 0.949 . S
H262 C284 0.950 . S
H263 C285 0.948 . S
H264 C287 0.951 . S
H265 C252 0.947 . S
H266 C254 0.952 . S
H267 C255 0.950 . S
N268 C271 1.382 . S
N268 C273 1.363 . S
N269 C271 1.371 . S
N269 C272 1.372 . S
N270 C272 1.361 . S
N270 C273 1.377 . S
C271 N268 1.382 . S
C271 N269 1.371 . S
C271 C274 1.480 . S
C272 N269 1.372 . S
C272 N270 1.361 . S
C272 C280 1.457 . S
C273 N268 1.363 . S
C273 N270 1.377 . S
C273 C286 1.479 . S
C274 C271 1.480 . S
C274 C275 1.383 . S
C274 C279 1.385 . S
C275 H256 0.947 . S
C275 C274 1.383 . S
C275 C276 1.388 . S
C276 H257 0.946 . S
C276 C275 1.388 . S
C276 C277 1.384 . S
C277 C276 1.384 . S
C277 C278 1.377 . S
C278 H258 0.953 . S
C278 C277 1.377 . S
C278 C279 1.369 . S
C279 H259 0.945 . S
C279 C274 1.385 . S
C279 C278 1.369 . S
C280 C272 1.457 . S
C280 C281 1.372 . S
C280 C285 1.364 . S
C281 H260 0.952 . S
C281 C280 1.372 . S
C281 C282 1.389 . S
C282 H261 0.949 . S
C282 C281 1.389 . S
C282 C283 1.387 . S
C283 C282 1.387 . S
C283 C284 1.372 . S
C284 H262 0.950 . S
C284 C283 1.372 . S
C284 C285 1.379 . S
C285 H263 0.948 . S
C285 C280 1.364 . S
C285 C284 1.379 . S
C286 C255 1.383 . S
C286 C273 1.479 . S
C286 C287 1.398 . S
C287 C252 1.382 . S
C287 H264 0.951 . S
C287 C286 1.398 . S
C288 C289 1.384 . S
C288 H301 0.947 . S
C288 C323 1.382 . S
C289 C288 1.384 . S
C289 C290 1.378 . S
C290 C289 1.378 . S
C290 C291 1.378 . S
C290 H302 0.952 . S
C291 C290 1.378 . S
C291 H303 0.950 . S
C291 C322 1.383 . S
H292 C311 0.947 . S
H293 C312 0.946 . S
H294 C314 0.953 . S
H295 C315 0.945 . S
H296 C317 0.952 . S
H297 C318 0.949 . S
H298 C320 0.950 . S
H299 C321 0.948 . S
H300 C323 0.951 . S
H301 C288 0.947 . S
H302 C290 0.952 . S
H303 C291 0.950 . S
N304 C307 1.382 . S
N304 C309 1.363 . S
N305 C307 1.371 . S
N305 C308 1.372 . S
N306 C308 1.361 . S
N306 C309 1.377 . S
C307 N304 1.382 . S
C307 N305 1.371 . S
C307 C310 1.480 . S
C308 N305 1.372 . S
C308 N306 1.361 . S
C308 C316 1.457 . S
C309 N304 1.363 . S
C309 N306 1.377 . S
C309 C322 1.479 . S
C310 C307 1.480 . S
C310 C311 1.383 . S
C310 C315 1.385 . S
C311 H292 0.947 . S
C311 C310 1.383 . S
C311 C312 1.388 . S
C312 H293 0.946 . S
C312 C311 1.388 . S
C312 C313 1.384 . S
C313 C312 1.384 . S
C313 C314 1.377 . S
C314 H294 0.953 . S
C314 C313 1.377 . S
C314 C315 1.369 . S
C315 H295 0.945 . S
C315 C310 1.385 . S
C315 C314 1.369 . S
C316 C308 1.457 . S
C316 C317 1.372 . S
C316 C321 1.364 . S
C317 H296 0.952 . S
C317 C316 1.372 . S
C317 C318 1.389 . S
C318 H297 0.949 . S
C318 C317 1.389 . S
C318 C319 1.387 . S
C319 C318 1.387 . S
C319 C320 1.372 . S
C320 H298 0.950 . S
C320 C319 1.372 . S
C320 C321 1.379 . S
C321 H299 0.948 . S
C321 C316 1.364 . S
C321 C320 1.379 . S
C322 C291 1.383 . S
C322 C309 1.479 . S
C322 C323 1.398 . S
C323 C288 1.382 . S
C323 H300 0.951 . S
C323 C322 1.398 . S
C324 C325 1.384 . S
C324 H337 0.947 . S
C324 C359 1.382 . S
C325 C324 1.384 . S
C325 C326 1.378 . S
C326 C325 1.378 . S
C326 C327 1.378 . S
C326 H338 0.952 . S
C327 C326 1.378 . S
C327 H339 0.950 . S
C327 C358 1.383 . S
H328 C347 0.947 . S
H329 C348 0.946 . S
H330 C350 0.953 . S
H331 C351 0.945 . S
H332 C353 0.952 . S
H333 C354 0.949 . S
H334 C356 0.950 . S
H335 C357 0.948 . S
H336 C359 0.951 . S
H337 C324 0.947 . S
H338 C326 0.952 . S
H339 C327 0.950 . S
N340 C343 1.382 . S
N340 C345 1.363 . S
N341 C343 1.371 . S
N341 C344 1.372 . S
N342 C344 1.361 . S
N342 C345 1.377 . S
C343 N340 1.382 . S
C343 N341 1.371 . S
C343 C346 1.480 . S
C344 N341 1.372 . S
C344 N342 1.361 . S
C344 C352 1.457 . S
C345 N340 1.363 . S
C345 N342 1.377 . S
C345 C358 1.479 . S
C346 C343 1.480 . S
C346 C347 1.383 . S
C346 C351 1.385 . S
C347 H328 0.947 . S
C347 C346 1.383 . S
C347 C348 1.388 . S
C348 H329 0.946 . S
C348 C347 1.388 . S
C348 C349 1.384 . S
C349 C348 1.384 . S
C349 C350 1.377 . S
C350 H330 0.953 . S
C350 C349 1.377 . S
C350 C351 1.369 . S
C351 H331 0.945 . S
C351 C346 1.385 . S
C351 C350 1.369 . S
C352 C344 1.457 . S
C352 C353 1.372 . S
C352 C357 1.364 . S
C353 H332 0.952 . S
C353 C352 1.372 . S
C353 C354 1.389 . S
C354 H333 0.949 . S
C354 C353 1.389 . S
C354 C355 1.387 . S
C355 C354 1.387 . S
C355 C356 1.372 . S
C356 H334 0.950 . S
C356 C355 1.372 . S
C356 C357 1.379 . S
C357 H335 0.948 . S
C357 C352 1.364 . S
C357 C356 1.379 . S
C358 C327 1.383 . S
C358 C345 1.479 . S
C358 C359 1.398 . S
C359 C324 1.382 . S
C359 H336 0.951 . S
C359 C358 1.398 . S
C360 C361 1.384 . S
C360 H373 0.947 . S
C360 C395 1.382 . S
C361 C360 1.384 . S
C361 C362 1.378 . S
C362 C361 1.378 . S
C362 C363 1.378 . S
C362 H374 0.952 . S
C363 C362 1.378 . S
C363 H375 0.950 . S
C363 C394 1.383 . S
H364 C383 0.947 . S
H365 C384 0.975 . S
H366 C386 0.953 . S
H367 C387 0.945 . S
H368 C389 0.952 . S
H369 C390 0.949 . S
H370 C392 0.950 . S
H371 C393 0.948 . S
H372 C395 0.951 . S
H373 C360 0.947 . S
H374 C362 0.952 . S
H375 C363 0.950 . S
N376 C379 1.382 . S
N376 C381 1.363 . S
N377 C379 1.371 . S
N377 C380 1.372 . S
N378 C380 1.361 . S
N378 C381 1.377 . S
C379 N376 1.382 . S
C379 N377 1.371 . S
C379 C382 1.480 . S
C380 N377 1.372 . S
C380 N378 1.361 . S
C380 C388 1.457 . S
C381 N376 1.363 . S
C381 N378 1.377 . S
C381 C394 1.479 . S
C382 C379 1.480 . S
C382 C383 1.383 . S
C382 C387 1.385 . S
C383 H364 0.947 . S
C383 C382 1.383 . S
C383 C384 1.388 . S
C384 H365 0.975 . S
C384 C383 1.388 . S
C384 C385 1.384 . S
C385 C384 1.384 . S
C385 C386 1.377 . S
C386 H366 0.953 . S
C386 C385 1.377 . S
C386 C387 1.369 . S
C387 H367 0.945 . S
C387 C382 1.385 . S
C387 C386 1.369 . S
C388 C380 1.457 . S
C388 C389 1.372 . S
C388 C393 1.364 . S
C389 H368 0.952 . S
C389 C388 1.372 . S
C389 C390 1.389 . S
C390 H369 0.949 . S
C390 C389 1.389 . S
C390 C391 1.387 . S
C391 C390 1.387 . S
C391 C392 1.372 . S
C392 H370 0.950 . S
C392 C391 1.372 . S
C392 C393 1.379 . S
C393 H371 0.948 . S
C393 C388 1.364 . S
C393 C392 1.379 . S
C394 C363 1.383 . S
C394 C381 1.479 . S
C394 C395 1.398 . S
C395 C360 1.382 . S
C395 H372 0.951 . S
C395 C394 1.398 . S
C396 C397 1.384 . S
C396 H409 0.947 . S
C396 C431 1.382 . S
C397 C396 1.384 . S
C397 C398 1.378 . S
C398 C397 1.378 . S
C398 C399 1.378 . S
C398 H410 0.952 . S
C399 C398 1.378 . S
C399 H411 0.950 . S
C399 C430 1.383 . S
H400 C419 0.947 . S
H401 C420 0.946 . S
H402 C422 0.953 . S
H403 C423 0.945 . S
H404 C425 0.952 . S
H405 C426 0.949 . S
H406 C428 0.950 . S
H407 C429 0.948 . S
H408 C431 0.951 . S
H409 C396 0.947 . S
H410 C398 0.952 . S
H411 C399 0.950 . S
N412 C415 1.382 . S
N412 C417 1.363 . S
N413 C415 1.371 . S
N413 C416 1.372 . S
N414 C416 1.361 . S
N414 C417 1.377 . S
C415 N412 1.382 . S
C415 N413 1.371 . S
C415 C418 1.480 . S
C416 N413 1.372 . S
C416 N414 1.361 . S
C416 C424 1.457 . S
C417 N412 1.363 . S
C417 N414 1.377 . S
C417 C430 1.479 . S
C418 C415 1.480 . S
C418 C419 1.383 . S
C418 C423 1.385 . S
C419 H400 0.947 . S
C419 C418 1.383 . S
C419 C420 1.388 . S
C420 H401 0.946 . S
C420 C419 1.388 . S
C420 C421 1.384 . S
C421 C420 1.384 . S
C421 C422 1.377 . S
C422 H402 0.953 . S
C422 C421 1.377 . S
C422 C423 1.369 . S
C423 H403 0.945 . S
C423 C418 1.385 . S
C423 C422 1.369 . S
C424 C416 1.457 . S
C424 C425 1.372 . S
C424 C429 1.364 . S
C425 H404 0.952 . S
C425 C424 1.372 . S
C425 C426 1.389 . S
C426 H405 0.949 . S
C426 C425 1.389 . S
C426 C427 1.387 . S
C427 C426 1.387 . S
C427 C428 1.372 . S
C428 H406 0.950 . S
C428 C427 1.372 . S
C428 C429 1.379 . S
C429 H407 0.948 . S
C429 C424 1.364 . S
C429 C428 1.379 . S
C430 C399 1.383 . S
C430 C417 1.479 . S
C430 C431 1.398 . S
C431 C396 1.382 . S
C431 H408 0.951 . S
C431 C430 1.398 . S
C432 C433 1.384 . S
C432 H445 0.947 . S
C432 C467 1.382 . S
C433 C432 1.384 . S
C433 C434 1.378 . S
C434 C433 1.378 . S
C434 C435 1.378 . S
C434 H446 0.954 1_554 S
C435 C434 1.378 . S
C435 H447 0.950 . S
C435 C466 1.383 . S
H436 C455 0.947 . S
H437 C456 0.946 . S
H438 C458 0.953 . S
H439 C459 0.945 . S
H440 C461 0.952 . S
H441 C462 0.949 . S
H442 C464 0.950 . S
H443 C465 0.948 . S
H444 C467 0.951 . S
H445 C432 0.947 . S
H446 C434 0.954 1_556 S
H447 C435 0.950 . S
N448 C451 1.382 . S
N448 C453 1.363 . S
N449 C451 1.371 . S
N449 C452 1.372 . S
N450 C452 1.361 . S
N450 C453 1.377 . S
C451 N448 1.382 . S
C451 N449 1.371 . S
C451 C454 1.480 . S
C452 N449 1.372 . S
C452 N450 1.361 . S
C452 C460 1.457 . S
C453 N448 1.363 . S
C453 N450 1.377 . S
C453 C466 1.479 . S
C454 C451 1.480 . S
C454 C455 1.383 . S
C454 C459 1.385 . S
C455 H436 0.947 . S
C455 C454 1.383 . S
C455 C456 1.388 . S
C456 H437 0.946 . S
C456 C455 1.388 . S
C456 C457 1.384 . S
C457 C456 1.384 . S
C457 C458 1.377 . S
C458 H438 0.953 . S
C458 C457 1.377 . S
C458 C459 1.369 . S
C459 H439 0.945 . S
C459 C454 1.385 . S
C459 C458 1.369 . S
C460 C452 1.457 . S
C460 C461 1.372 . S
C460 C465 1.364 . S
C461 H440 0.952 . S
C461 C460 1.372 . S
C461 C462 1.389 . S
C462 H441 0.949 . S
C462 C461 1.389 . S
C462 C463 1.387 . S
C463 C462 1.387 . S
C463 C464 1.372 . S
C464 H442 0.950 . S
C464 C463 1.372 . S
C464 C465 1.379 . S
C465 H443 0.948 . S
C465 C460 1.364 . S
C465 C464 1.379 . S
C466 C435 1.383 . S
C466 C453 1.479 . S
C466 C467 1.398 . S
C467 C432 1.382 . S
C467 H444 0.951 . S
C467 C466 1.398 . S
C468 C469 1.384 . S
C468 H481 0.947 . S
C468 C503 1.382 . S
C469 C468 1.384 . S
C469 C470 1.378 . S
C470 C469 1.378 . S
C470 C471 1.378 . S
C470 H482 0.952 . S
C471 C470 1.378 . S
C471 H483 0.950 . S
C471 C502 1.383 . S
H472 C491 0.947 . S
H473 C492 0.946 . S
H474 C494 0.953 . S
H475 C495 0.945 . S
H476 C497 0.952 . S
H477 C498 0.949 . S
H478 C500 0.950 . S
H479 C501 0.948 . S
H480 C503 0.951 . S
H481 C468 0.947 . S
H482 C470 0.952 . S
H483 C471 0.950 . S
N484 C487 1.382 . S
N484 C489 1.363 . S
N485 C487 1.371 . S
N485 C488 1.372 . S
N486 C488 1.361 . S
N486 C489 1.377 . S
C487 N484 1.382 . S
C487 N485 1.371 . S
C487 C490 1.480 . S
C488 N485 1.372 . S
C488 N486 1.361 . S
C488 C496 1.457 . S
C489 N484 1.363 . S
C489 N486 1.377 . S
C489 C502 1.479 . S
C490 C487 1.480 . S
C490 C491 1.383 . S
C490 C495 1.385 . S
C491 H472 0.947 . S
C491 C490 1.383 . S
C491 C492 1.388 . S
C492 H473 0.946 . S
C492 C491 1.388 . S
C492 C493 1.384 . S
C493 C492 1.384 . S
C493 C494 1.377 . S
C494 H474 0.953 . S
C494 C493 1.377 . S
C494 C495 1.369 . S
C495 H475 0.945 . S
C495 C490 1.385 . S
C495 C494 1.369 . S
C496 C488 1.457 . S
C496 C497 1.372 . S
C496 C501 1.364 . S
C497 H476 0.952 . S
C497 C496 1.372 . S
C497 C498 1.389 . S
C498 H477 0.949 . S
C498 C497 1.389 . S
C498 C499 1.387 . S
C499 C498 1.387 . S
C499 C500 1.372 . S
C500 H478 0.950 . S
C500 C499 1.372 . S
C500 C501 1.379 . S
C501 H479 0.948 . S
C501 C496 1.364 . S
C501 C500 1.379 . S
C502 C471 1.383 . S
C502 C489 1.479 . S
C502 C503 1.398 . S
C503 C468 1.382 . S
C503 H480 0.951 . S
C503 C502 1.398 . S
C504 C505 1.384 . S
C504 H517 0.947 . S
C504 C539 1.382 . S
C505 C504 1.384 . S
C505 C506 1.378 . S
C506 C505 1.378 . S
C506 C507 1.378 . S
C506 H518 0.952 . S
C507 C506 1.378 . S
C507 H519 0.950 . S
C507 C538 1.383 . S
H508 C527 0.947 . S
H509 C528 0.946 . S
H510 C530 0.953 . S
H511 C531 0.945 . S
H512 C533 0.952 . S
H513 C534 0.949 . S
H514 C536 0.950 . S
H515 C537 0.948 . S
H516 C539 0.951 . S
H517 C504 0.947 . S
H518 C506 0.952 . S
H519 C507 0.950 . S
N520 C523 1.382 . S
N520 C525 1.363 . S
N521 C523 1.371 . S
N521 C524 1.372 . S
N522 C524 1.361 . S
N522 C525 1.377 . S
C523 N520 1.382 . S
C523 N521 1.371 . S
C523 C526 1.480 . S
C524 N521 1.372 . S
C524 N522 1.361 . S
C524 C532 1.457 . S
C525 N520 1.363 . S
C525 N522 1.377 . S
C525 C538 1.479 . S
C526 C523 1.480 . S
C526 C527 1.383 . S
C526 C531 1.385 . S
C527 H508 0.947 . S
C527 C526 1.383 . S
C527 C528 1.388 . S
C528 H509 0.946 . S
C528 C527 1.388 . S
C528 C529 1.384 . S
C529 C528 1.384 . S
C529 C530 1.377 . S
C530 H510 0.953 . S
C530 C529 1.377 . S
C530 C531 1.369 . S
C531 H511 0.945 . S
C531 C526 1.385 . S
C531 C530 1.369 . S
C532 C524 1.457 . S
C532 C533 1.372 . S
C532 C537 1.364 . S
C533 H512 0.952 . S
C533 C532 1.372 . S
C533 C534 1.389 . S
C534 H513 0.949 . S
C534 C533 1.389 . S
C534 C535 1.387 . S
C535 C534 1.387 . S
C535 C536 1.372 . S
C536 H514 0.950 . S
C536 C535 1.372 . S
C536 C537 1.379 . S
C537 H515 0.948 . S
C537 C532 1.364 . S
C537 C536 1.379 . S
C538 C507 1.383 . S
C538 C525 1.479 . S
C538 C539 1.398 . S
C539 C504 1.382 . S
C539 H516 0.951 . S
C539 C538 1.398 . S
C540 C541 1.384 . S
C540 H553 0.947 . S
C540 C575 1.382 . S
C541 C540 1.384 . S
C541 C542 1.378 . S
C542 C541 1.378 . S
C542 C543 1.378 . S
C542 H554 0.952 . S
C543 C542 1.378 . S
C543 H555 0.950 . S
C543 C574 1.383 . S
H544 C563 0.947 . S
H545 C564 0.946 . S
H546 C566 0.953 . S
H547 C567 0.945 . S
H548 C569 0.952 . S
H549 C570 0.949 . S
H550 C572 0.950 . S
H551 C573 0.948 . S
H552 C575 0.951 . S
H553 C540 0.947 . S
H554 C542 0.952 . S
H555 C543 0.950 . S
N556 C559 1.382 . S
N556 C561 1.363 . S
N557 C559 1.371 . S
N557 C560 1.372 . S
N558 C560 1.361 . S
N558 C561 1.377 . S
C559 N556 1.382 . S
C559 N557 1.371 . S
C559 C562 1.480 . S
C560 N557 1.372 . S
C560 N558 1.361 . S
C560 C568 1.457 . S
C561 N556 1.363 . S
C561 N558 1.377 . S
C561 C574 1.479 . S
C562 C559 1.480 . S
C562 C563 1.383 . S
C562 C567 1.385 . S
C563 H544 0.947 . S
C563 C562 1.383 . S
C563 C564 1.388 . S
C564 H545 0.946 . S
C564 C563 1.388 . S
C564 C565 1.384 . S
C565 C564 1.384 . S
C565 C566 1.377 . S
C566 H546 0.953 . S
C566 C565 1.377 . S
C566 C567 1.369 . S
C567 H547 0.945 . S
C567 C562 1.385 . S
C567 C566 1.369 . S
C568 C560 1.457 . S
C568 C569 1.372 . S
C568 C573 1.364 . S
C569 H548 0.952 . S
C569 C568 1.372 . S
C569 C570 1.389 . S
C570 H549 0.949 . S
C570 C569 1.389 . S
C570 C571 1.387 . S
C571 C570 1.387 . S
C571 C572 1.372 . S
C572 H550 0.950 . S
C572 C571 1.372 . S
C572 C573 1.379 . S
C573 H551 0.948 . S
C573 C568 1.364 . S
C573 C572 1.379 . S
C574 C543 1.383 . S
C574 C561 1.479 . S
C574 C575 1.398 . S
C575 C540 1.382 . S
C575 H552 0.951 . S
C575 C574 1.398 . S
C576 C577 1.384 . S
C576 H589 0.947 . S
C576 C611 1.382 . S
C577 C576 1.384 . S
C577 C578 1.378 . S
C578 C577 1.378 . S
C578 C579 1.378 . S
C578 H590 0.952 . S
C579 C578 1.378 . S
C579 H591 0.950 . S
C579 C610 1.383 . S
H580 C599 0.947 . S
H581 C600 0.946 . S
H582 C602 0.953 . S
H583 C603 0.945 . S
H584 C605 0.952 . S
H585 C606 0.949 . S
H586 C608 0.948 . S
H587 C609 0.948 . S
H588 C611 0.951 . S
H589 C576 0.947 . S
H590 C578 0.952 . S
H591 C579 0.950 . S
N592 C595 1.382 . S
N592 C597 1.363 . S
N593 C595 1.371 . S
N593 C596 1.372 . S
N594 C596 1.361 . S
N594 C597 1.377 . S
C595 N592 1.382 . S
C595 N593 1.371 . S
C595 C598 1.480 . S
C596 N593 1.372 . S
C596 N594 1.361 . S
C596 C604 1.457 . S
C597 N592 1.363 . S
C597 N594 1.377 . S
C597 C610 1.479 . S
C598 C595 1.480 . S
C598 C599 1.383 . S
C598 C603 1.385 . S
C599 H580 0.947 . S
C599 C598 1.383 . S
C599 C600 1.388 . S
C600 H581 0.946 . S
C600 C599 1.388 . S
C600 C601 1.384 . S
C601 C600 1.384 . S
C601 C602 1.377 . S
C602 H582 0.953 . S
C602 C601 1.377 . S
C602 C603 1.369 . S
C603 H583 0.945 . S
C603 C598 1.385 . S
C603 C602 1.369 . S
C604 C596 1.457 . S
C604 C605 1.372 . S
C604 C609 1.364 . S
C605 H584 0.952 . S
C605 C604 1.372 . S
C605 C606 1.389 . S
C606 H585 0.949 . S
C606 C605 1.389 . S
C606 C607 1.379 . S
C607 C606 1.379 . S
C607 C608 1.385 1_455 S
C608 H586 0.948 . S
C608 C607 1.385 1_655 S
C608 C609 1.378 1_655 S
C609 H587 0.948 . S
C609 C604 1.364 . S
C609 C608 1.378 1_455 S
C610 C579 1.383 . S
C610 C597 1.479 . S
C610 C611 1.398 . S
C611 C576 1.382 . S
C611 H588 0.951 . S
C611 C610 1.398 . S
C612 C613 1.384 . S
C612 H625 0.947 . S
C612 C647 1.382 . S
C613 C612 1.384 . S
C613 C614 1.378 . S
C614 C613 1.378 . S
C614 C615 1.378 . S
C614 H626 0.952 . S
C615 C614 1.378 . S
C615 H627 0.950 . S
C615 C646 1.383 . S
H616 C635 0.947 . S
H617 C636 0.946 . S
H618 C638 0.953 . S
H619 C639 0.945 . S
H620 C641 0.952 . S
H621 C642 0.949 . S
H622 C644 0.950 . S
H623 C645 0.948 . S
H624 C647 0.951 . S
H625 C612 0.947 . S
H626 C614 0.952 . S
H627 C615 0.950 . S
N628 C631 1.382 . S
N628 C633 1.363 . S
N629 C631 1.371 . S
N629 C632 1.372 . S
N630 C632 1.361 . S
N630 C633 1.377 . S
C631 N628 1.382 . S
C631 N629 1.371 . S
C631 C634 1.480 . S
C632 N629 1.372 . S
C632 N630 1.361 . S
C632 C640 1.457 . S
C633 N628 1.363 . S
C633 N630 1.377 . S
C633 C646 1.479 . S
C634 C631 1.480 . S
C634 C635 1.383 . S
C634 C639 1.385 . S
C635 H616 0.947 . S
C635 C634 1.383 . S
C635 C636 1.388 . S
C636 H617 0.946 . S
C636 C635 1.388 . S
C636 C637 1.384 . S
C637 C636 1.384 . S
C637 C638 1.377 . S
C638 H618 0.953 . S
C638 C637 1.377 . S
C638 C639 1.369 . S
C639 H619 0.945 . S
C639 C634 1.385 . S
C639 C638 1.369 . S
C640 C632 1.457 . S
C640 C641 1.372 . S
C640 C645 1.364 . S
C641 H620 0.952 . S
C641 C640 1.372 . S
C641 C642 1.389 . S
C642 H621 0.949 . S
C642 C641 1.389 . S
C642 C643 1.387 . S
C643 C642 1.387 . S
C643 C644 1.372 . S
C644 H622 0.950 . S
C644 C643 1.372 . S
C644 C645 1.379 . S
C645 H623 0.948 . S
C645 C640 1.364 . S
C645 C644 1.379 . S
C646 C615 1.383 . S
C646 C633 1.479 . S
C646 C647 1.398 . S
C647 C612 1.382 . S
C647 H624 0.951 . S
C647 C646 1.398 . S
Eu648 C657 2.828 . S
Eu648 O659 2.392 . S
Eu648 O661 2.418 . S
Eu648 O666 2.373 1_565 S
Eu648 O669 2.488 . S
Eu648 O670 2.467 1_565 S
Eu648 O671 2.349 1_565 S
Eu649 O658 2.373 1_545 S
Eu649 O662 2.488 . S
Eu649 O663 2.473 1_545 S
Eu649 O664 2.349 1_545 S
Eu649 O667 2.392 . S
Eu649 O668 2.418 . S
Eu649 C678 2.828 . S
C650 O668 1.244 1_556 S
C650 O671 1.265 . S
C651 C652 1.379 1_565 S
C651 C655 1.373 . S
C651 C657 1.505 . S
C652 C651 1.379 1_545 S
C652 C654 1.369 . S
C652 H680 0.930 . S
C653 C655 1.383 . S
C653 C656 1.382 1_565 S
C653 H681 0.930 . S
C654 C652 1.369 . S
C654 C656 1.392 . S
C654 H682 0.930 . S
C655 C651 1.373 . S
C655 C653 1.383 . S
C655 H683 0.931 . S
C656 C653 1.382 1_545 S
C656 C654 1.392 . S
C657 Eu648 2.828 . S
C657 C651 1.505 . S
C657 O669 1.249 . S
C657 O670 1.237 1_565 S
O658 Eu649 2.373 1_565 S
O658 C660 1.258 . S
O659 Eu648 2.392 . S
O659 C660 1.242 1_556 S
C660 O658 1.258 . S
C660 O659 1.242 1_554 S
O661 Eu648 2.418 . S
O661 C665 1.244 1_556 S
O662 Eu649 2.488 . S
O662 C678 1.249 . S
O663 Eu649 2.473 1_565 S
O663 C678 1.247 1_565 S
O664 Eu649 2.349 1_565 S
O664 C665 1.265 . S
C665 O661 1.244 1_554 S
C665 O664 1.265 . S
O666 Eu648 2.373 1_545 S
O666 C679 1.258 . S
O667 Eu649 2.392 . S
O667 C679 1.242 1_554 S
O668 Eu649 2.418 . S
O668 C650 1.244 1_554 S
O669 Eu648 2.488 . S
O669 C657 1.249 . S
O670 Eu648 2.467 1_545 S
O670 C657 1.237 1_545 S
O671 Eu648 2.349 1_545 S
O671 C650 1.265 . S
C672 C673 1.379 1_545 S
C672 C676 1.373 . S
C672 C678 1.505 . S
C673 C672 1.379 1_565 S
C673 C675 1.369 . S
C673 H684 0.930 . S
C674 C676 1.383 . S
C674 C677 1.382 1_545 S
C674 H685 0.930 . S
C675 C673 1.369 . S
C675 C677 1.392 . S
C675 H686 0.930 . S
C676 C672 1.373 . S
C676 C674 1.383 . S
C676 H687 0.931 . S
C677 C674 1.382 1_565 S
C677 C675 1.392 . S
C678 Eu649 2.828 . S
C678 O662 1.249 . S
C678 O663 1.247 1_545 S
C678 C672 1.505 . S
C679 O666 1.258 . S
C679 O667 1.242 1_556 S
H680 C652 0.930 . S
H681 C653 0.930 . S
H682 C654 0.930 . S
H683 C655 0.931 . S
H684 C673 0.930 . S
H685 C674 0.930 . S
H686 C675 0.930 . S
H687 C676 0.931 . S
Eu688 C697 2.828 . S
Eu688 O699 2.392 1_556 S
Eu688 O701 2.418 . S
Eu688 O706 2.373 1_455 S
Eu688 O709 2.488 . S
Eu688 O710 2.471 1_455 S
Eu688 O711 2.349 1_455 S
Eu689 O698 2.373 1_655 S
Eu689 O702 2.488 . S
Eu689 O703 2.471 1_655 S
Eu689 O704 2.349 1_655 S
Eu689 O707 2.392 1_554 S
Eu689 O708 2.418 . S
Eu689 C718 2.828 . S
C690 O708 1.244 1_556 S
C690 O711 1.265 . S
C691 C692 1.379 1_455 S
C691 C695 1.373 . S
C691 C697 1.505 . S
C692 C691 1.379 1_655 S
C692 C694 1.369 . S
C692 H720 0.930 . S
C693 C695 1.383 . S
C693 C696 1.382 1_455 S
C693 H721 0.930 . S
C694 C692 1.369 . S
C694 C696 1.392 . S
C694 H722 0.930 . S
C695 C691 1.373 . S
C695 C693 1.383 . S
C695 H723 0.931 . S
C696 C693 1.382 1_655 S
C696 C694 1.392 . S
C697 Eu688 2.828 . S
C697 C691 1.505 . S
C697 O709 1.249 . S
C697 O710 1.244 1_455 S
O698 Eu689 2.373 1_455 S
O698 C700 1.258 . S
O699 Eu688 2.392 1_554 S
O699 C700 1.242 . S
C700 O698 1.258 . S
C700 O699 1.242 . S
O701 Eu688 2.418 . S
O701 C705 1.244 1_556 S
O702 Eu689 2.488 . S
O702 C718 1.249 . S
O703 Eu689 2.471 1_455 S
O703 C718 1.244 1_455 S
O704 Eu689 2.349 1_455 S
O704 C705 1.265 . S
C705 O701 1.244 1_554 S
C705 O704 1.265 . S
O706 Eu688 2.373 1_655 S
O706 C719 1.258 . S
O707 Eu689 2.392 1_556 S
O707 C719 1.242 . S
O708 Eu689 2.418 . S
O708 C690 1.244 1_554 S
O709 Eu688 2.488 . S
O709 C697 1.249 . S
O710 Eu688 2.471 1_655 S
O710 C697 1.244 1_655 S
O711 Eu688 2.349 1_655 S
O711 C690 1.265 . S
C712 C713 1.379 1_655 S
C712 C716 1.373 . S
C712 C718 1.505 . S
C713 C712 1.379 1_455 S
C713 C715 1.369 . S
C713 H724 0.930 . S
C714 C716 1.383 . S
C714 C717 1.382 1_655 S
C714 H725 0.930 . S
C715 C713 1.369 . S
C715 C717 1.392 . S
C715 H726 0.930 . S
C716 C712 1.373 . S
C716 C714 1.383 . S
C716 H727 0.931 . S
C717 C714 1.382 1_455 S
C717 C715 1.392 . S
C718 Eu689 2.828 . S
C718 O702 1.249 . S
C718 O703 1.244 1_655 S
C718 C712 1.505 . S
C719 O706 1.258 . S
C719 O707 1.242 . S
H720 C692 0.930 . S
H721 C693 0.930 . S
H722 C694 0.930 . S
H723 C695 0.931 . S
H724 C713 0.930 . S
H725 C714 0.930 . S
H726 C715 0.930 . S
H727 C716 0.931 . S
Eu728 C737 2.828 . S
Eu728 O739 2.414 . S
Eu728 O741 2.418 . S
Eu728 O746 2.373 . S
Eu728 O749 2.488 . S
Eu728 O750 2.471 . S
Eu728 O751 2.349 . S
Eu729 O738 2.373 . S
Eu729 O742 2.488 . S
Eu729 O743 2.471 . S
Eu729 O744 2.349 . S
Eu729 O747 2.392 1_556 S
Eu729 O748 2.418 . S
Eu729 C758 2.828 . S
C730 O748 1.244 1_554 S
C730 O751 1.265 . S
C731 C732 1.379 . S
C731 C735 1.373 . S
C731 C737 1.505 . S
C732 C731 1.379 . S
C732 C734 1.369 . S
C732 H760 0.930 . S
C733 C735 1.383 . S
C733 C736 1.382 . S
C733 H761 0.930 . S
C734 C732 1.369 . S
C734 C736 1.392 . S
C734 H762 0.930 . S
C735 C731 1.373 . S
C735 C733 1.383 . S
C735 H763 0.931 . S
C736 C733 1.382 . S
C736 C734 1.392 . S
C737 Eu728 2.828 . S
C737 C731 1.505 . S
C737 O749 1.249 . S
C737 O750 1.244 . S
O738 Eu729 2.373 . S
O738 C740 1.258 . S
O739 Eu728 2.414 . S
O739 C740 1.217 1_554 S
C740 O738 1.258 . S
C740 O739 1.217 1_556 S
O741 Eu728 2.418 . S
O741 C745 1.244 1_554 S
O742 Eu729 2.488 . S
O742 C758 1.249 . S
O743 Eu729 2.471 . S
O743 C758 1.244 . S
O744 Eu729 2.349 . S
O744 C745 1.265 . S
C745 O741 1.244 1_556 S
C745 O744 1.265 . S
O746 Eu728 2.373 . S
O746 C759 1.258 . S
O747 Eu729 2.392 1_554 S
O747 C759 1.242 . S
O748 Eu729 2.418 . S
O748 C730 1.244 1_556 S
O749 Eu728 2.488 . S
O749 C737 1.249 . S
O750 Eu728 2.471 . S
O750 C737 1.244 . S
O751 Eu728 2.349 . S
O751 C730 1.265 . S
C752 C753 1.379 . S
C752 C756 1.373 . S
C752 C758 1.505 . S
C753 C752 1.379 . S
C753 C755 1.369 . S
C753 H764 0.930 . S
C754 C756 1.383 . S
C754 C757 1.382 . S
C754 H765 0.930 . S
C755 C753 1.369 . S
C755 C757 1.392 . S
C755 H766 0.930 . S
C756 C752 1.373 . S
C756 C754 1.383 . S
C756 H767 0.931 . S
C757 C754 1.382 . S
C757 C755 1.392 . S
C758 Eu729 2.828 . S
C758 O742 1.249 . S
C758 O743 1.244 . S
C758 C752 1.505 . S
C759 O746 1.258 . S
C759 O747 1.242 . S
H760 C732 0.930 . S
H761 C733 0.930 . S
H762 C734 0.930 . S
H763 C735 0.931 . S
H764 C753 0.930 . S
H765 C754 0.930 . S
H766 C755 0.930 . S
H767 C756 0.931 . S
Eu768 C777 2.828 . S
Eu768 O779 2.392 . S
Eu768 O781 2.418 . S
Eu768 O786 2.373 . S
Eu768 O789 2.488 . S
Eu768 O790 2.471 . S
Eu768 O791 2.349 . S
Eu769 O778 2.373 . S
Eu769 O782 2.488 . S
Eu769 O783 2.471 . S
Eu769 O784 2.349 . S
Eu769 O787 2.392 . S
Eu769 O788 2.418 . S
Eu769 C798 2.828 . S
C770 O788 1.244 . S
C770 O791 1.265 . S
C771 C772 1.379 . S
C771 C775 1.373 . S
C771 C777 1.505 . S
C772 C771 1.379 . S
C772 C774 1.369 . S
C772 H800 0.930 . S
C773 C775 1.383 . S
C773 C776 1.382 . S
C773 H801 0.930 . S
C774 C772 1.369 . S
C774 C776 1.392 . S
C774 H802 0.930 . S
C775 C771 1.373 . S
C775 C773 1.383 . S
C775 H803 0.931 . S
C776 C773 1.382 . S
C776 C774 1.392 . S
C777 Eu768 2.828 . S
C777 C771 1.505 . S
C777 O789 1.249 . S
C777 O790 1.244 . S
O778 Eu769 2.373 . S
O778 C780 1.258 . S
O779 Eu768 2.392 . S
O779 C780 1.242 . S
C780 O778 1.258 . S
C780 O779 1.242 . S
O781 Eu768 2.418 . S
O781 C785 1.244 . S
O782 Eu769 2.488 . S
O782 C798 1.249 . S
O783 Eu769 2.471 . S
O783 C798 1.244 . S
O784 Eu769 2.349 . S
O784 C785 1.265 . S
C785 O781 1.244 . S
C785 O784 1.265 . S
O786 Eu768 2.373 . S
O786 C799 1.258 . S
O787 Eu769 2.392 . S
O787 C799 1.242 . S
O788 Eu769 2.418 . S
O788 C770 1.244 . S
O789 Eu768 2.488 . S
O789 C777 1.249 . S
O790 Eu768 2.471 . S
O790 C777 1.244 . S
O791 Eu768 2.349 . S
O791 C770 1.265 . S
C792 C793 1.379 . S
C792 C796 1.373 . S
C792 C798 1.505 . S
C793 C792 1.379 . S
C793 C795 1.369 . S
C793 H804 0.930 . S
C794 C796 1.383 . S
C794 C797 1.382 . S
C794 H805 0.930 . S
C795 C793 1.369 . S
C795 C797 1.392 . S
C795 H806 0.930 . S
C796 C792 1.373 . S
C796 C794 1.383 . S
C796 H807 0.931 . S
C797 C794 1.382 . S
C797 C795 1.392 . S
C798 Eu769 2.828 . S
C798 O782 1.249 . S
C798 O783 1.244 . S
C798 C792 1.505 . S
C799 O786 1.258 . S
C799 O787 1.242 . S
H800 C772 0.930 . S
H801 C773 0.930 . S
H802 C774 0.930 . S
H803 C775 0.931 . S
H804 C793 0.930 . S
H805 C794 0.930 . S
H806 C795 0.930 . S
H807 C796 0.931 . S
Eu808 C817 2.828 . S
Eu808 O819 2.392 . S
Eu808 O821 2.418 . S
Eu808 O826 2.373 . S
Eu808 O829 2.488 . S
Eu808 O830 2.471 . S
Eu808 O831 2.349 . S
Eu809 O818 2.373 . S
Eu809 O822 2.488 . S
Eu809 O823 2.471 . S
Eu809 O824 2.349 . S
Eu809 O827 2.392 . S
Eu809 O828 2.418 . S
Eu809 C838 2.828 . S
C810 O828 1.244 . S
C810 O831 1.265 . S
C811 C812 1.379 . S
C811 C815 1.373 . S
C811 C817 1.505 . S
C812 C811 1.379 . S
C812 C814 1.369 . S
C812 H840 0.930 . S
C813 C815 1.383 . S
C813 C816 1.382 . S
C813 H841 0.930 . S
C814 C812 1.369 . S
C814 C816 1.392 . S
C814 H842 0.930 . S
C815 C811 1.373 . S
C815 C813 1.383 . S
C815 H843 0.931 . S
C816 C813 1.382 . S
C816 C814 1.392 . S
C817 Eu808 2.828 . S
C817 C811 1.505 . S
C817 O829 1.249 . S
C817 O830 1.244 . S
O818 Eu809 2.373 . S
O818 C820 1.258 . S
O819 Eu808 2.392 . S
O819 C820 1.242 . S
C820 O818 1.258 . S
C820 O819 1.242 . S
O821 Eu808 2.418 . S
O821 C825 1.244 . S
O822 Eu809 2.488 . S
O822 C838 1.249 . S
O823 Eu809 2.471 . S
O823 C838 1.244 . S
O824 Eu809 2.349 . S
O824 C825 1.265 . S
C825 O821 1.244 . S
C825 O824 1.265 . S
O826 Eu808 2.373 . S
O826 C839 1.258 . S
O827 Eu809 2.392 . S
O827 C839 1.242 . S
O828 Eu809 2.418 . S
O828 C810 1.244 . S
O829 Eu808 2.488 . S
O829 C817 1.249 . S
O830 Eu808 2.471 . S
O830 C817 1.244 . S
O831 Eu808 2.349 . S
O831 C810 1.265 . S
C832 C833 1.379 . S
C832 C836 1.373 . S
C832 C838 1.505 . S
C833 C832 1.379 . S
C833 C835 1.369 . S
C833 H844 0.930 . S
C834 C836 1.383 . S
C834 C837 1.382 . S
C834 H845 0.930 . S
C835 C833 1.369 . S
C835 C837 1.392 . S
C835 H846 0.930 . S
C836 C832 1.373 . S
C836 C834 1.383 . S
C836 H847 0.931 . S
C837 C834 1.382 . S
C837 C835 1.392 . S
C838 Eu809 2.828 . S
C838 O822 1.249 . S
C838 O823 1.244 . S
C838 C832 1.505 . S
C839 O826 1.258 . S
C839 O827 1.242 . S
H840 C812 0.930 . S
H841 C813 0.930 . S
H842 C814 0.930 . S
H843 C815 0.931 . S
H844 C833 0.930 . S
H845 C834 0.930 . S
H846 C835 0.930 . S
H847 C836 0.931 . S
Eu848 C857 2.828 . S
Eu848 O859 2.392 . S
Eu848 O861 2.418 . S
Eu848 O866 2.373 . S
Eu848 O869 2.488 . S
Eu848 O870 2.471 . S
Eu848 O871 2.349 . S
Eu849 O858 2.373 . S
Eu849 O862 2.488 . S
Eu849 O863 2.471 . S
Eu849 O864 2.349 . S
Eu849 O867 2.392 . S
Eu849 O868 2.418 . S
Eu849 C878 2.828 . S
C850 O868 1.244 . S
C850 O871 1.265 . S
C851 C852 1.379 . S
C851 C855 1.373 . S
C851 C857 1.505 . S
C852 C851 1.379 . S
C852 C854 1.369 . S
C852 H880 0.930 . S
C853 C855 1.383 . S
C853 C856 1.382 . S
C853 H881 0.930 . S
C854 C852 1.369 . S
C854 C856 1.392 . S
C854 H882 0.930 . S
C855 C851 1.373 . S
C855 C853 1.383 . S
C855 H883 0.931 . S
C856 C853 1.382 . S
C856 C854 1.392 . S
C857 Eu848 2.828 . S
C857 C851 1.505 . S
C857 O869 1.249 . S
C857 O870 1.244 . S
O858 Eu849 2.373 . S
O858 C860 1.258 . S
O859 Eu848 2.392 . S
O859 C860 1.242 . S
C860 O858 1.258 . S
C860 O859 1.242 . S
O861 Eu848 2.418 . S
O861 C865 1.244 . S
O862 Eu849 2.488 . S
O862 C878 1.249 . S
O863 Eu849 2.471 . S
O863 C878 1.244 . S
O864 Eu849 2.349 . S
O864 C865 1.265 . S
C865 O861 1.244 . S
C865 O864 1.265 . S
O866 Eu848 2.373 . S
O866 C879 1.258 . S
O867 Eu849 2.392 . S
O867 C879 1.242 . S
O868 Eu849 2.418 . S
O868 C850 1.244 . S
O869 Eu848 2.488 . S
O869 C857 1.249 . S
O870 Eu848 2.471 . S
O870 C857 1.244 . S
O871 Eu848 2.349 . S
O871 C850 1.265 . S
C872 C873 1.379 . S
C872 C876 1.373 . S
C872 C878 1.505 . S
C873 C872 1.379 . S
C873 C875 1.369 . S
C873 H884 0.930 . S
C874 C876 1.383 . S
C874 C877 1.382 . S
C874 H885 0.930 . S
C875 C873 1.369 . S
C875 C877 1.392 . S
C875 H886 0.930 . S
C876 C872 1.373 . S
C876 C874 1.383 . S
C876 H887 0.931 . S
C877 C874 1.382 . S
C877 C875 1.392 . S
C878 Eu849 2.828 . S
C878 O862 1.249 . S
C878 O863 1.244 . S
C878 C872 1.505 . S
C879 O866 1.258 . S
C879 O867 1.242 . S
H880 C852 0.930 . S
H881 C853 0.930 . S
H882 C854 0.930 . S
H883 C855 0.931 . S
H884 C873 0.930 . S
H885 C874 0.930 . S
H886 C875 0.930 . S
H887 C876 0.931 . S
Eu888 C897 2.828 . S
Eu888 O899 2.392 . S
Eu888 O901 2.418 . S
Eu888 O906 2.373 . S
Eu888 O909 2.488 . S
Eu888 O910 2.471 . S
Eu888 O911 2.349 . S
Eu889 O898 2.373 . S
Eu889 O902 2.488 . S
Eu889 O903 2.471 . S
Eu889 O904 2.349 . S
Eu889 O907 2.392 . S
Eu889 O908 2.418 . S
Eu889 C918 2.828 . S
C890 O908 1.244 . S
C890 O911 1.265 . S
C891 C892 1.379 . S
C891 C895 1.373 . S
C891 C897 1.505 . S
C892 C891 1.379 . S
C892 C894 1.369 . S
C892 H920 0.930 . S
C893 C895 1.383 . S
C893 C896 1.382 . S
C893 H921 0.930 . S
C894 C892 1.369 . S
C894 C896 1.392 . S
C894 H922 0.930 . S
C895 C891 1.373 . S
C895 C893 1.383 . S
C895 H923 0.931 . S
C896 C893 1.382 . S
C896 C894 1.392 . S
C897 Eu888 2.828 . S
C897 C891 1.505 . S
C897 O909 1.249 . S
C897 O910 1.244 . S
O898 Eu889 2.373 . S
O898 C900 1.258 . S
O899 Eu888 2.392 . S
O899 C900 1.242 . S
C900 O898 1.258 . S
C900 O899 1.242 . S
O901 Eu888 2.418 . S
O901 C905 1.244 . S
O902 Eu889 2.488 . S
O902 C918 1.249 . S
O903 Eu889 2.471 . S
O903 C918 1.244 . S
O904 Eu889 2.349 . S
O904 C905 1.265 . S
C905 O901 1.244 . S
C905 O904 1.265 . S
O906 Eu888 2.373 . S
O906 C919 1.258 . S
O907 Eu889 2.392 . S
O907 C919 1.242 . S
O908 Eu889 2.418 . S
O908 C890 1.244 . S
O909 Eu888 2.488 . S
O909 C897 1.249 . S
O910 Eu888 2.471 . S
O910 C897 1.244 . S
O911 Eu888 2.349 . S
O911 C890 1.265 . S
C912 C913 1.379 . S
C912 C916 1.373 . S
C912 C918 1.505 . S
C913 C912 1.379 . S
C913 C915 1.369 . S
C913 H924 0.930 . S
C914 C916 1.383 . S
C914 C917 1.382 . S
C914 H925 0.930 . S
C915 C913 1.369 . S
C915 C917 1.392 . S
C915 H926 0.930 . S
C916 C912 1.373 . S
C916 C914 1.383 . S
C916 H927 0.931 . S
C917 C914 1.382 . S
C917 C915 1.392 . S
C918 Eu889 2.828 . S
C918 O902 1.249 . S
C918 O903 1.244 . S
C918 C912 1.505 . S
C919 O906 1.258 . S
C919 O907 1.242 . S
H920 C892 0.930 . S
H921 C893 0.930 . S
H922 C894 0.930 . S
H923 C895 0.931 . S
H924 C913 0.930 . S
H925 C914 0.930 . S
H926 C915 0.930 . S
H927 C916 0.931 . S
Eu928 C937 2.828 . S
Eu928 O939 2.392 . S
Eu928 O941 2.418 . S
Eu928 O946 2.373 . S
Eu928 O949 2.488 . S
Eu928 O950 2.471 . S
Eu928 O951 2.349 . S
Eu929 O938 2.373 . S
Eu929 O942 2.488 . S
Eu929 O943 2.471 . S
Eu929 O944 2.349 . S
Eu929 O947 2.392 . S
Eu929 O948 2.418 . S
Eu929 C958 2.828 . S
C930 O948 1.244 . S
C930 O951 1.265 . S
C931 C932 1.379 . S
C931 C935 1.373 . S
C931 C937 1.505 . S
C932 C931 1.379 . S
C932 C934 1.369 . S
C932 H960 0.930 . S
C933 C935 1.383 . S
C933 C936 1.382 . S
C933 H961 0.930 . S
C934 C932 1.369 . S
C934 C936 1.392 . S
C934 H962 0.930 . S
C935 C931 1.373 . S
C935 C933 1.383 . S
C935 H963 0.931 . S
C936 C933 1.382 . S
C936 C934 1.392 . S
C937 Eu928 2.828 . S
C937 C931 1.505 . S
C937 O949 1.249 . S
C937 O950 1.244 . S
O938 Eu929 2.373 . S
O938 C940 1.258 . S
O939 Eu928 2.392 . S
O939 C940 1.242 . S
C940 O938 1.258 . S
C940 O939 1.242 . S
O941 Eu928 2.418 . S
O941 C945 1.244 . S
O942 Eu929 2.488 . S
O942 C958 1.249 . S
O943 Eu929 2.471 . S
O943 C958 1.244 . S
O944 Eu929 2.349 . S
O944 C945 1.265 . S
C945 O941 1.244 . S
C945 O944 1.265 . S
O946 Eu928 2.373 . S
O946 C959 1.258 . S
O947 Eu929 2.392 . S
O947 C959 1.242 . S
O948 Eu929 2.418 . S
O948 C930 1.244 . S
O949 Eu928 2.488 . S
O949 C937 1.249 . S
O950 Eu928 2.471 . S
O950 C937 1.244 . S
O951 Eu928 2.349 . S
O951 C930 1.265 . S
C952 C953 1.379 . S
C952 C956 1.373 . S
C952 C958 1.505 . S
C953 C952 1.379 . S
C953 C955 1.369 . S
C953 H964 0.930 . S
C954 C956 1.383 . S
C954 C957 1.382 . S
C954 H965 0.930 . S
C955 C953 1.369 . S
C955 C957 1.392 . S
C955 H966 0.930 . S
C956 C952 1.373 . S
C956 C954 1.383 . S
C956 H967 0.931 . S
C957 C954 1.382 . S
C957 C955 1.392 . S
C958 Eu929 2.828 . S
C958 O942 1.249 . S
C958 O943 1.244 . S
C958 C952 1.505 . S
C959 O946 1.258 . S
C959 O947 1.242 . S
H960 C932 0.930 . S
H961 C933 0.930 . S
H962 C934 0.930 . S
H963 C935 0.931 . S
H964 C953 0.930 . S
H965 C954 0.930 . S
H966 C955 0.930 . S
H967 C956 0.931 . S
Eu968 C977 2.828 . S
Eu968 O979 2.392 . S
Eu968 O981 2.418 . S
Eu968 O986 2.373 . S
Eu968 O989 2.488 . S
Eu968 O990 2.471 . S
Eu968 O991 2.349 . S
Eu969 O978 2.373 . S
Eu969 O982 2.488 . S
Eu969 O983 2.471 . S
Eu969 O984 2.349 . S
Eu969 O987 2.392 . S
Eu969 O988 2.418 . S
Eu969 C998 2.828 . S
C970 O988 1.244 . S
C970 O991 1.265 . S
C971 C972 1.379 . S
C971 C975 1.373 . S
C971 C977 1.505 . S
C972 C971 1.379 . S
C972 C974 1.369 . S
C972 H1000 0.930 . S
C973 C975 1.383 . S
C973 C976 1.382 . S
C973 H1001 0.930 . S
C974 C972 1.369 . S
C974 C976 1.392 . S
C974 H1002 0.930 . S
C975 C971 1.373 . S
C975 C973 1.383 . S
C975 H1003 0.931 . S
C976 C973 1.382 . S
C976 C974 1.392 . S
C977 Eu968 2.828 . S
C977 C971 1.505 . S
C977 O989 1.249 . S
C977 O990 1.244 . S
O978 Eu969 2.373 . S
O978 C980 1.258 . S
O979 Eu968 2.392 . S
O979 C980 1.242 . S
C980 O978 1.258 . S
C980 O979 1.242 . S
O981 Eu968 2.418 . S
O981 C985 1.244 . S
O982 Eu969 2.488 . S
O982 C998 1.249 . S
O983 Eu969 2.471 . S
O983 C998 1.244 . S
O984 Eu969 2.349 . S
O984 C985 1.265 . S
C985 O981 1.244 . S
C985 O984 1.265 . S
O986 Eu968 2.373 . S
O986 C999 1.258 . S
O987 Eu969 2.392 . S
O987 C999 1.242 . S
O988 Eu969 2.418 . S
O988 C970 1.244 . S
O989 Eu968 2.488 . S
O989 C977 1.249 . S
O990 Eu968 2.471 . S
O990 C977 1.244 . S
O991 Eu968 2.349 . S
O991 C970 1.265 . S
C992 C993 1.379 . S
C992 C996 1.373 . S
C992 C998 1.505 . S
C993 C992 1.379 . S
C993 C995 1.369 . S
C993 H1004 0.930 . S
C994 C996 1.383 . S
C994 C997 1.382 . S
C994 H1005 0.930 . S
C995 C993 1.369 . S
C995 C997 1.392 . S
C995 H1006 0.930 . S
C996 C992 1.373 . S
C996 C994 1.383 . S
C996 H1007 0.931 . S
C997 C994 1.382 . S
C997 C995 1.392 . S
C998 Eu969 2.828 . S
C998 O982 1.249 . S
C998 O983 1.244 . S
C998 C992 1.505 . S
C999 O986 1.258 . S
C999 O987 1.242 . S
H1000 C972 0.930 . S
H1001 C973 0.930 . S
H1002 C974 0.930 . S
H1003 C975 0.931 . S
H1004 C993 0.930 . S
H1005 C994 0.930 . S
H1006 C995 0.930 . S
H1007 C996 0.931 . S
C1008 C1009 1.369 . S
C1008 C1010 1.419 . S
C1008 H1012 0.930 . S
C1009 C1008 1.369 . S
C1009 C1018 1.429 . S
C1010 C1008 1.419 . S
C1010 C1011 1.363 . S
C1010 H1013 0.929 . S
C1011 C1010 1.363 . S
C1011 C1017 1.428 . S
H1012 C1008 0.930 . S
H1013 C1010 0.929 . S
S1014 N1015 1.613 . S
S1014 N1016 1.610 . S
N1015 S1014 1.613 . S
N1015 C1018 1.350 . S
N1016 S1014 1.610 . S
N1016 C1017 1.351 . S
C1017 C1011 1.428 . S
C1017 N1016 1.351 . S
C1017 C1018 1.434 . S
C1018 C1009 1.429 . S
C1018 N1015 1.350 . S
C1018 C1017 1.434 . S
C1019 C1020 1.369 . S
C1019 C1021 1.419 . S
C1019 H1023 0.930 . S
C1020 C1019 1.369 . S
C1020 C1029 1.429 . S
C1021 C1019 1.419 . S
C1021 C1022 1.363 . S
C1021 H1024 0.929 . S
C1022 C1021 1.363 . S
C1022 C1028 1.428 . S
H1023 C1019 0.930 . S
H1024 C1021 0.929 . S
S1025 N1026 1.613 . S
S1025 N1027 1.610 . S
N1026 S1025 1.613 . S
N1026 C1029 1.350 . S
N1027 S1025 1.610 . S
N1027 C1028 1.351 . S
C1028 C1022 1.428 . S
C1028 N1027 1.351 . S
C1028 C1029 1.434 . S
C1029 C1020 1.429 . S
C1029 N1026 1.350 . S
C1029 C1028 1.434 . S
C1030 C1031 1.369 . S
C1030 C1032 1.419 . S
C1030 H1034 0.930 . S
C1031 C1030 1.369 . S
C1031 C1040 1.429 . S
C1032 C1030 1.419 . S
C1032 C1033 1.363 . S
C1032 H1035 0.929 . S
C1033 C1032 1.363 . S
C1033 C1039 1.428 1_554 S
H1034 C1030 0.930 . S
H1035 C1032 0.929 . S
S1036 N1037 1.613 . S
S1036 N1038 1.610 . S
N1037 S1036 1.613 . S
N1037 C1040 1.350 1_556 S
N1038 S1036 1.610 . S
N1038 C1039 1.351 . S
C1039 C1033 1.428 1_556 S
C1039 N1038 1.351 . S
C1039 C1040 1.434 1_556 S
C1040 C1031 1.429 . S
C1040 N1037 1.350 1_554 S
C1040 C1039 1.434 1_554 S
C1041 C1042 1.369 . S
C1041 C1043 1.421 . S
C1041 H1045 0.930 1_556 S
C1042 C1041 1.369 . S
C1042 C1051 1.429 . S
C1043 C1041 1.421 . S
C1043 C1044 1.403 . S
C1043 H1046 0.886 1_556 S
C1044 C1043 1.403 . S
C1044 C1050 1.428 . S
H1045 C1041 0.930 1_554 S
H1046 C1043 0.886 1_554 S
S1047 N1048 1.613 . S
S1047 N1049 1.610 . S
N1048 S1047 1.613 . S
N1048 C1051 1.350 . S
N1049 S1047 1.610 . S
N1049 C1050 1.351 . S
C1050 C1044 1.428 . S
C1050 N1049 1.351 . S
C1050 C1051 1.434 . S
C1051 C1042 1.429 . S
C1051 N1048 1.350 . S
C1051 C1050 1.434 . S
C1052 C1053 1.369 . S
C1052 C1054 1.419 . S
C1052 H1056 0.930 . S
C1053 C1052 1.369 . S
C1053 C1062 1.429 . S
C1054 C1052 1.419 . S
C1054 C1055 1.363 . S
C1054 H1057 0.929 . S
C1055 C1054 1.363 . S
C1055 C1061 1.428 . S
H1056 C1052 0.930 . S
H1057 C1054 0.929 . S
S1058 N1059 1.613 1_554 S
S1058 N1060 1.610 . S
N1059 S1058 1.613 1_556 S
N1059 C1062 1.350 . S
N1060 S1058 1.610 . S
N1060 C1061 1.351 1_554 S
C1061 C1055 1.428 . S
C1061 N1060 1.351 1_556 S
C1061 C1062 1.434 . S
C1062 C1053 1.429 . S
C1062 N1059 1.350 . S
C1062 C1061 1.434 . S
C1063 C1064 1.369 . S
C1063 C1065 1.419 . S
C1063 H1067 0.930 . S
C1064 C1063 1.369 . S
C1064 C1073 1.442 . S
C1065 C1063 1.419 . S
C1065 C1066 1.363 . S
C1065 H1068 0.929 . S
C1066 C1065 1.363 . S
C1066 C1072 1.428 1_556 S
H1067 C1063 0.930 . S
H1068 C1065 0.929 . S
S1069 N1070 1.613 . S
S1069 N1071 1.610 . S
N1070 S1069 1.613 . S
N1070 C1073 1.337 1_554 S
N1071 S1069 1.610 . S
N1071 C1072 1.351 . S
C1072 C1066 1.428 1_554 S
C1072 N1071 1.351 . S
C1072 C1073 1.432 1_554 S
C1073 C1064 1.442 . S
C1073 N1070 1.337 1_556 S
C1073 C1072 1.432 1_556 S
C1074 C1075 1.369 . S
C1074 C1076 1.419 . S
C1074 H1078 0.930 . S
C1075 C1074 1.369 . S
C1075 C1084 1.429 . S
C1076 C1074 1.419 . S
C1076 C1077 1.363 . S
C1076 H1079 0.929 . S
C1077 C1076 1.363 . S
C1077 C1083 1.428 . S
H1078 C1074 0.930 . S
H1079 C1076 0.929 . S
S1080 N1081 1.613 . S
S1080 N1082 1.610 . S
N1081 S1080 1.613 . S
N1081 C1084 1.350 . S
N1082 S1080 1.610 . S
N1082 C1083 1.351 . S
C1083 C1077 1.428 . S
C1083 N1082 1.351 . S
C1083 C1084 1.434 . S
C1084 C1075 1.429 . S
C1084 N1081 1.350 . S
C1084 C1083 1.434 . S
C1085 C1086 1.369 . S
C1085 C1087 1.419 . S
C1085 H1089 0.930 . S
C1086 C1085 1.369 . S
C1086 C1095 1.429 . S
C1087 C1085 1.419 . S
C1087 C1088 1.363 . S
C1087 H1090 0.929 . S
C1088 C1087 1.363 . S
C1088 C1094 1.428 . S
H1089 C1085 0.930 . S
H1090 C1087 0.929 . S
S1091 N1092 1.613 1_554 S
S1091 N1093 1.610 1_554 S
N1092 S1091 1.613 1_556 S
N1092 C1095 1.350 . S
N1093 S1091 1.610 1_556 S
N1093 C1094 1.351 . S
C1094 C1088 1.428 . S
C1094 N1093 1.351 . S
C1094 C1095 1.434 . S
C1095 C1086 1.429 . S
C1095 N1092 1.350 . S
C1095 C1094 1.434 . S
C1096 C1097 1.369 . S
C1096 C1098 1.419 . S
C1096 H1100 0.930 . S
C1097 C1096 1.369 . S
C1097 C1106 1.429 1_556 S
C1098 C1096 1.419 . S
C1098 C1099 1.363 . S
C1098 H1101 0.929 . S
C1099 C1098 1.363 . S
C1099 C1105 1.428 1_556 S
H1100 C1096 0.930 . S
H1101 C1098 0.929 . S
S1102 N1103 1.613 . S
S1102 N1104 1.610 . S
N1103 S1102 1.613 . S
N1103 C1106 1.350 . S
N1104 S1102 1.610 . S
N1104 C1105 1.351 . S
C1105 C1099 1.428 1_554 S
C1105 N1104 1.351 . S
C1105 C1106 1.434 . S
C1106 C1097 1.429 1_554 S
C1106 N1103 1.350 . S
C1106 C1105 1.434 . S
C1107 C1108 1.369 . S
C1107 C1109 1.419 . S
C1107 H1111 0.930 . S
C1108 C1107 1.369 . S
C1108 C1117 1.429 . S
C1109 C1107 1.419 . S
C1109 C1110 1.363 . S
C1109 H1112 0.929 . S
C1110 C1109 1.363 . S
C1110 C1116 1.428 . S
H1111 C1107 0.930 . S
H1112 C1109 0.929 . S
S1113 N1114 1.613 1_556 S
S1113 N1115 1.620 . S
N1114 S1113 1.613 1_554 S
N1114 C1117 1.350 . S
N1115 S1113 1.620 . S
N1115 C1116 1.336 1_556 S
C1116 C1110 1.428 . S
C1116 N1115 1.336 1_554 S
C1116 C1117 1.434 . S
C1117 C1108 1.429 . S
C1117 N1114 1.350 . S
C1117 C1116 1.434 . S
C1118 C1119 1.369 . S
C1118 C1120 1.419 . S
C1118 H1122 0.930 . S
C1119 C1118 1.369 . S
C1119 C1128 1.429 . S
C1120 C1118 1.419 . S
C1120 C1121 1.363 . S
C1120 H1123 0.929 . S
C1121 C1120 1.363 . S
C1121 C1127 1.428 . S
H1122 C1118 0.930 . S
H1123 C1120 0.929 . S
S1124 N1125 1.587 1_556 S
S1124 N1126 1.608 1_556 S
N1125 S1124 1.587 1_554 S
N1125 C1128 1.350 . S
N1126 S1124 1.608 1_554 S
N1126 C1127 1.351 . S
C1127 C1121 1.428 . S
C1127 N1126 1.351 . S
C1127 C1128 1.434 . S
C1128 C1119 1.429 . S
C1128 N1125 1.350 . S
C1128 C1127 1.434 . S
C1129 C1130 1.369 . S
C1129 C1131 1.419 . S
C1129 H1133 0.930 . S
C1130 C1129 1.369 . S
C1130 C1139 1.429 . S
C1131 C1129 1.419 . S
C1131 C1132 1.363 . S
C1131 H1134 0.929 . S
C1132 C1131 1.363 . S
C1132 C1138 1.428 . S
H1133 C1129 0.930 . S
H1134 C1131 0.929 . S
S1135 N1136 1.613 1_545 S
S1135 N1137 1.610 . S
N1136 S1135 1.613 1_565 S
N1136 C1139 1.350 . S
N1137 S1135 1.610 . S
N1137 C1138 1.351 1_545 S
C1138 C1132 1.428 . S
C1138 N1137 1.351 1_565 S
C1138 C1139 1.434 . S
C1139 C1130 1.429 . S
C1139 N1136 1.350 . S
C1139 C1138 1.434 . S
C1140 C1141 1.369 . S
C1140 C1142 1.419 . S
C1140 H1144 0.930 . S
C1141 C1140 1.369 . S
C1141 C1150 1.429 . S
C1142 C1140 1.419 . S
C1142 C1143 1.363 . S
C1142 H1145 0.929 . S
C1143 C1142 1.363 . S
C1143 C1149 1.428 . S
H1144 C1140 0.930 . S
H1145 C1142 0.929 . S
S1146 N1147 1.613 1_455 S
S1146 N1148 1.610 . S
N1147 S1146 1.613 1_655 S
N1147 C1150 1.350 1_655 S
N1148 S1146 1.610 . S
N1148 C1149 1.351 . S
C1149 C1143 1.428 . S
C1149 N1148 1.351 . S
C1149 C1150 1.434 . S
C1150 C1141 1.429 . S
C1150 N1147 1.350 1_455 S
C1150 C1149 1.434 . S
C1151 C1152 1.369 . S
C1151 C1153 1.419 . S
C1151 H1155 0.930 . S
C1152 C1151 1.369 . S
C1152 C1161 1.429 . S
C1153 C1151 1.419 . S
C1153 C1154 1.363 . S
C1153 H1156 0.929 . S
C1154 C1153 1.363 . S
C1154 C1160 1.428 . S
H1155 C1151 0.930 . S
H1156 C1153 0.929 . S
S1157 N1158 1.613 . S
S1157 N1159 1.610 . S
N1158 S1157 1.613 . S
N1158 C1161 1.350 . S
N1159 S1157 1.610 . S
N1159 C1160 1.351 . S
C1160 C1154 1.428 . S
C1160 N1159 1.351 . S
C1160 C1161 1.434 . S
C1161 C1152 1.429 . S
C1161 N1158 1.350 . S
C1161 C1160 1.434 . S
C1162 C1163 1.369 1_565 S
C1162 C1164 1.419 . S
C1162 H1166 0.930 1_565 S
C1163 C1162 1.369 1_545 S
C1163 C1172 1.429 1_545 S
C1164 C1162 1.419 . S
C1164 C1165 1.363 . S
C1164 H1167 0.929 . S
C1165 C1164 1.363 . S
C1165 C1171 1.428 . S
H1166 C1162 0.930 1_545 S
H1167 C1164 0.929 . S
S1168 N1169 1.613 . S
S1168 N1170 1.610 . S
N1169 S1168 1.613 . S
N1169 C1172 1.350 . S
N1170 S1168 1.610 . S
N1170 C1171 1.351 . S
C1171 C1165 1.428 . S
C1171 N1170 1.351 . S
C1171 C1172 1.434 . S
C1172 C1163 1.429 1_565 S
C1172 N1169 1.350 . S
C1172 C1171 1.434 . S
C1173 C1174 1.369 . S
C1173 C1175 1.419 . S
C1173 H1177 0.930 . S
C1174 C1173 1.369 . S
C1174 C1183 1.429 . S
C1175 C1173 1.419 . S
C1175 C1176 1.363 . S
C1175 H1178 0.929 . S
C1176 C1175 1.363 . S
C1176 C1182 1.428 . S
H1177 C1173 0.930 . S
H1178 C1175 0.929 . S
S1179 N1180 1.613 . S
S1179 N1181 1.610 . S
N1180 S1179 1.613 . S
N1180 C1183 1.350 . S
N1181 S1179 1.610 . S
N1181 C1182 1.351 . S
C1182 C1176 1.428 . S
C1182 N1181 1.351 . S
C1182 C1183 1.434 . S
C1183 C1174 1.429 . S
C1183 N1180 1.350 . S
C1183 C1182 1.434 . S
C1184 C1185 1.369 . S
C1184 C1186 1.419 . S
C1184 H1188 0.930 . S
C1185 C1184 1.369 . S
C1185 C1194 1.429 . S
C1186 C1184 1.419 . S
C1186 C1187 1.363 . S
C1186 H1189 0.929 . S
C1187 C1186 1.363 . S
C1187 C1193 1.428 . S
H1188 C1184 0.930 . S
H1189 C1186 0.929 . S
S1190 N1191 1.613 . S
S1190 N1192 1.610 . S
N1191 S1190 1.613 . S
N1191 C1194 1.350 . S
N1192 S1190 1.610 . S
N1192 C1193 1.351 . S
C1193 C1187 1.428 . S
C1193 N1192 1.351 . S
C1193 C1194 1.434 . S
C1194 C1185 1.429 . S
C1194 N1191 1.350 . S
C1194 C1193 1.434 . S
C1195 C1196 1.369 . S
C1195 C1197 1.419 . S
C1195 H1199 0.930 . S
C1196 C1195 1.369 . S
C1196 C1205 1.429 . S
C1197 C1195 1.419 . S
C1197 C1198 1.363 . S
C1197 H1200 0.929 . S
C1198 C1197 1.363 . S
C1198 C1204 1.428 . S
H1199 C1195 0.930 . S
H1200 C1197 0.929 . S
S1201 N1202 1.613 . S
S1201 N1203 1.610 . S
N1202 S1201 1.613 . S
N1202 C1205 1.350 . S
N1203 S1201 1.610 . S
N1203 C1204 1.351 . S
C1204 C1198 1.428 . S
C1204 N1203 1.351 . S
C1204 C1205 1.434 . S
C1205 C1196 1.429 . S
C1205 N1202 1.350 . S
C1205 C1204 1.434 . S
C1206 C1207 1.369 . S
C1206 C1208 1.419 . S
C1206 H1210 0.930 . S
C1207 C1206 1.369 . S
C1207 C1216 1.429 . S
C1208 C1206 1.419 . S
C1208 C1209 1.363 . S
C1208 H1211 0.929 . S
C1209 C1208 1.363 . S
C1209 C1215 1.428 . S
H1210 C1206 0.930 . S
H1211 C1208 0.929 . S
S1212 N1213 1.613 . S
S1212 N1214 1.610 . S
N1213 S1212 1.613 . S
N1213 C1216 1.350 . S
N1214 S1212 1.610 . S
N1214 C1215 1.351 . S
C1215 C1209 1.428 . S
C1215 N1214 1.351 . S
C1215 C1216 1.434 . S
C1216 C1207 1.429 . S
C1216 N1213 1.350 . S
C1216 C1215 1.434 . S
C1217 C1218 1.369 . S
C1217 C1219 1.419 . S
C1217 H1221 0.930 . S
C1218 C1217 1.369 . S
C1218 C1227 1.429 . S
C1219 C1217 1.419 . S
C1219 C1220 1.363 . S
C1219 H1222 0.929 . S
C1220 C1219 1.363 . S
C1220 C1226 1.428 . S
H1221 C1217 0.930 . S
H1222 C1219 0.929 . S
S1223 N1224 1.613 . S
S1223 N1225 1.610 . S
N1224 S1223 1.613 . S
N1224 C1227 1.350 . S
N1225 S1223 1.610 . S
N1225 C1226 1.351 . S
C1226 C1220 1.428 . S
C1226 N1225 1.351 . S
C1226 C1227 1.434 . S
C1227 C1218 1.429 . S
C1227 N1224 1.350 . S
C1227 C1226 1.434 . S
C1228 C1229 1.369 . S
C1228 C1230 1.419 . S
C1228 H1232 0.930 . S
C1229 C1228 1.369 . S
C1229 C1238 1.429 . S
C1230 C1228 1.419 . S
C1230 C1231 1.363 . S
C1230 H1233 0.929 . S
C1231 C1230 1.363 . S
C1231 C1237 1.428 . S
H1232 C1228 0.930 . S
H1233 C1230 0.929 . S
S1234 N1235 1.613 . S
S1234 N1236 1.610 . S
N1235 S1234 1.613 . S
N1235 C1238 1.350 . S
N1236 S1234 1.610 . S
N1236 C1237 1.351 . S
C1237 C1231 1.428 . S
C1237 N1236 1.351 . S
C1237 C1238 1.434 . S
C1238 C1229 1.429 . S
C1238 N1235 1.350 . S
C1238 C1237 1.434 . S
C1239 C1240 1.351 1_565 S
C1239 C1241 1.419 . S
C1239 H1243 0.930 . S
C1240 C1239 1.351 1_545 S
C1240 C1249 1.411 1_545 S
C1241 C1239 1.419 . S
C1241 C1242 1.363 . S
C1241 H1244 0.929 . S
C1242 C1241 1.363 . S
C1242 C1248 1.428 . S
H1243 C1239 0.930 . S
H1244 C1241 0.929 . S
S1245 N1246 1.613 . S
S1245 N1247 1.610 . S
N1246 S1245 1.613 . S
N1246 C1249 1.350 . S
N1247 S1245 1.610 . S
N1247 C1248 1.351 . S
C1248 C1242 1.428 . S
C1248 N1247 1.351 . S
C1248 C1249 1.434 . S
C1249 C1240 1.411 1_565 S
C1249 N1246 1.350 . S
C1249 C1248 1.434 . S
C1250 C1251 1.369 . S
C1250 C1252 1.419 . S
C1250 H1254 0.930 . S
C1251 C1250 1.369 . S
C1251 C1260 1.429 . S
C1252 C1250 1.419 . S
C1252 C1253 1.363 . S
C1252 H1255 0.929 . S
C1253 C1252 1.363 . S
C1253 C1259 1.428 . S
H1254 C1250 0.930 . S
H1255 C1252 0.929 . S
S1256 N1257 1.613 . S
S1256 N1258 1.610 . S
N1257 S1256 1.613 . S
N1257 C1260 1.350 . S
N1258 S1256 1.610 . S
N1258 C1259 1.351 . S
C1259 C1253 1.428 . S
C1259 N1258 1.351 . S
C1259 C1260 1.434 . S
C1260 C1251 1.429 . S
C1260 N1257 1.350 . S
C1260 C1259 1.434 . S
C1261 C1262 1.369 . S
C1261 C1263 1.419 . S
C1261 H1265 0.930 . S
C1262 C1261 1.369 . S
C1262 C1271 1.429 . S
C1263 C1261 1.419 . S
C1263 C1264 1.363 . S
C1263 H1266 0.929 . S
C1264 C1263 1.363 . S
C1264 C1270 1.428 . S
H1265 C1261 0.930 . S
H1266 C1263 0.929 . S
S1267 N1268 1.613 . S
S1267 N1269 1.610 . S
N1268 S1267 1.613 . S
N1268 C1271 1.350 . S
N1269 S1267 1.610 . S
N1269 C1270 1.351 . S
C1270 C1264 1.428 . S
C1270 N1269 1.351 . S
C1270 C1271 1.434 . S
C1271 C1262 1.429 . S
C1271 N1268 1.350 . S
C1271 C1270 1.434 . S
C1272 C1273 1.369 . S
C1272 C1274 1.419 . S
C1272 H1276 0.930 . S
C1273 C1272 1.369 . S
C1273 C1282 1.429 . S
C1274 C1272 1.419 . S
C1274 C1275 1.363 . S
C1274 H1277 0.929 . S
C1275 C1274 1.363 . S
C1275 C1281 1.428 . S
H1276 C1272 0.930 . S
H1277 C1274 0.929 . S
S1278 N1279 1.613 . S
S1278 N1280 1.610 . S
N1279 S1278 1.613 . S
N1279 C1282 1.350 . S
N1280 S1278 1.610 . S
N1280 C1281 1.351 . S
C1281 C1275 1.428 . S
C1281 N1280 1.351 . S
C1281 C1282 1.434 . S
C1282 C1273 1.429 . S
C1282 N1279 1.350 . S
C1282 C1281 1.434 . S
C1283 C1284 1.369 . S
C1283 C1285 1.419 . S
C1283 H1287 0.930 . S
C1284 C1283 1.369 . S
C1284 C1293 1.429 . S
C1285 C1283 1.419 . S
C1285 C1286 1.363 . S
C1285 H1288 0.929 . S
C1286 C1285 1.363 . S
C1286 C1292 1.428 . S
H1287 C1283 0.930 . S
H1288 C1285 0.929 . S
S1289 N1290 1.613 . S
S1289 N1291 1.610 . S
N1290 S1289 1.613 . S
N1290 C1293 1.350 . S
N1291 S1289 1.610 . S
N1291 C1292 1.351 . S
C1292 C1286 1.428 . S
C1292 N1291 1.351 . S
C1292 C1293 1.434 . S
C1293 C1284 1.429 . S
C1293 N1290 1.350 . S
C1293 C1292 1.434 . S
C1294 C1295 1.369 . S
C1294 C1296 1.419 . S
C1294 H1298 0.930 . S
C1295 C1294 1.369 . S
C1295 C1304 1.429 . S
C1296 C1294 1.419 . S
C1296 C1297 1.363 . S
C1296 H1299 0.929 . S
C1297 C1296 1.363 . S
C1297 C1303 1.428 . S
H1298 C1294 0.930 . S
H1299 C1296 0.929 . S
S1300 N1301 1.613 . S
S1300 N1302 1.610 . S
N1301 S1300 1.613 . S
N1301 C1304 1.350 . S
N1302 S1300 1.610 . S
N1302 C1303 1.351 . S
C1303 C1297 1.428 . S
C1303 N1302 1.351 . S
C1303 C1304 1.434 . S
C1304 C1295 1.429 . S
C1304 N1301 1.350 . S
C1304 C1303 1.434 . S
C1305 C1306 1.369 1_545 S
C1305 C1307 1.419 . S
C1305 H1309 0.930 . S
C1306 C1305 1.369 1_565 S
C1306 C1315 1.429 1_565 S
C1307 C1305 1.419 . S
C1307 C1308 1.363 . S
C1307 H1310 0.929 . S
C1308 C1307 1.363 . S
C1308 C1314 1.428 . S
H1309 C1305 0.930 . S
H1310 C1307 0.929 . S
S1311 N1312 1.635 . S
S1311 N1313 1.610 . S
N1312 S1311 1.635 . S
N1312 C1315 1.363 . S
N1313 S1311 1.610 . S
N1313 C1314 1.351 . S
C1314 C1308 1.428 . S
C1314 N1313 1.351 . S
C1314 C1315 1.434 . S
C1315 C1306 1.429 1_545 S
C1315 N1312 1.363 . S
C1315 C1314 1.434 . S
C1316 C1317 1.369 . S
C1316 C1318 1.419 . S
C1316 H1320 0.930 . S
C1317 C1316 1.369 . S
C1317 C1326 1.429 . S
C1318 C1316 1.419 . S
C1318 C1319 1.363 . S
C1318 H1321 0.929 . S
C1319 C1318 1.363 . S
C1319 C1325 1.428 . S
H1320 C1316 0.930 . S
H1321 C1318 0.929 . S
S1322 N1323 1.613 . S
S1322 N1324 1.610 . S
N1323 S1322 1.613 . S
N1323 C1326 1.350 . S
N1324 S1322 1.610 . S
N1324 C1325 1.351 . S
C1325 C1319 1.428 . S
C1325 N1324 1.351 . S
C1325 C1326 1.434 . S
C1326 C1317 1.429 . S
C1326 N1323 1.350 . S
C1326 C1325 1.434 . S
C1327 C1328 1.369 . S
C1327 C1329 1.419 . S
C1327 H1331 0.930 . S
C1328 C1327 1.369 . S
C1328 C1337 1.429 . S
C1329 C1327 1.419 . S
C1329 C1330 1.363 . S
C1329 H1332 0.929 . S
C1330 C1329 1.363 . S
C1330 C1336 1.428 . S
H1331 C1327 0.930 . S
H1332 C1329 0.929 . S
S1333 N1334 1.613 . S
S1333 N1335 1.610 . S
N1334 S1333 1.613 . S
N1334 C1337 1.350 . S
N1335 S1333 1.610 . S
N1335 C1336 1.351 . S
C1336 C1330 1.428 . S
C1336 N1335 1.351 . S
C1336 C1337 1.434 . S
C1337 C1328 1.429 . S
C1337 N1334 1.350 . S
C1337 C1336 1.434 . S
C1338 C1339 1.369 . S
C1338 C1340 1.419 . S
C1338 H1342 0.930 . S
C1339 C1338 1.369 . S
C1339 C1348 1.429 . S
C1340 C1338 1.419 . S
C1340 C1341 1.363 . S
C1340 H1343 0.929 . S
C1341 C1340 1.363 . S
C1341 C1347 1.428 . S
H1342 C1338 0.930 . S
H1343 C1340 0.929 . S
S1344 N1345 1.613 . S
S1344 N1346 1.610 . S
N1345 S1344 1.613 . S
N1345 C1348 1.350 . S
N1346 S1344 1.610 . S
N1346 C1347 1.351 . S
C1347 C1341 1.428 . S
C1347 N1346 1.351 . S
C1347 C1348 1.434 . S
C1348 C1339 1.429 . S
C1348 N1345 1.350 . S
C1348 C1347 1.434 . S
C1349 C1350 1.369 . S
C1349 C1351 1.419 . S
C1349 H1353 0.930 . S
C1350 C1349 1.369 . S
C1350 C1359 1.429 . S
C1351 C1349 1.419 . S
C1351 C1352 1.363 . S
C1351 H1354 0.929 . S
C1352 C1351 1.363 . S
C1352 C1358 1.428 . S
H1353 C1349 0.930 . S
H1354 C1351 0.929 . S
S1355 N1356 1.613 . S
S1355 N1357 1.610 . S
N1356 S1355 1.613 . S
N1356 C1359 1.350 . S
N1357 S1355 1.610 . S
N1357 C1358 1.351 . S
C1358 C1352 1.428 . S
C1358 N1357 1.351 . S
C1358 C1359 1.434 . S
C1359 C1350 1.429 . S
C1359 N1356 1.350 . S
C1359 C1358 1.434 . S
C1360 C1361 1.369 1_545 S
C1360 C1362 1.419 . S
C1360 H1364 0.930 . S
C1361 C1360 1.369 1_565 S
C1361 C1370 1.429 1_565 S
C1362 C1360 1.419 . S
C1362 C1363 1.363 . S
C1362 H1365 0.929 . S
C1363 C1362 1.363 . S
C1363 C1369 1.428 . S
H1364 C1360 0.930 . S
H1365 C1362 0.929 . S
S1366 N1367 1.613 1_545 S
S1366 N1368 1.610 . S
N1367 S1366 1.613 1_565 S
N1367 C1370 1.350 1_565 S
N1368 S1366 1.610 . S
N1368 C1369 1.351 . S
C1369 C1363 1.428 . S
C1369 N1368 1.351 . S
C1369 C1370 1.434 . S
C1370 C1361 1.429 1_545 S
C1370 N1367 1.350 1_545 S
C1370 C1369 1.434 . S
C1371 C1372 1.369 . S
C1371 C1373 1.419 . S
C1371 H1375 0.930 . S
C1372 C1371 1.369 . S
C1372 C1381 1.429 . S
C1373 C1371 1.419 . S
C1373 C1374 1.363 . S
C1373 H1376 0.929 . S
C1374 C1373 1.363 . S
C1374 C1380 1.428 . S
H1375 C1371 0.930 . S
H1376 C1373 0.929 . S
S1377 N1378 1.613 . S
S1377 N1379 1.610 . S
N1378 S1377 1.613 . S
N1378 C1381 1.350 . S
N1379 S1377 1.610 . S
N1379 C1380 1.351 . S
C1380 C1374 1.428 . S
C1380 N1379 1.351 . S
C1380 C1381 1.434 . S
C1381 C1372 1.429 . S
C1381 N1378 1.350 . S
C1381 C1380 1.434 . S
C1382 C1383 1.369 . S
C1382 C1384 1.419 . S
C1382 H1386 0.930 . S
C1383 C1382 1.369 . S
C1383 C1392 1.429 . S
C1384 C1382 1.419 . S
C1384 C1385 1.363 . S
C1384 H1387 0.929 . S
C1385 C1384 1.363 . S
C1385 C1391 1.428 . S
H1386 C1382 0.930 . S
H1387 C1384 0.929 . S
S1388 N1389 1.613 . S
S1388 N1390 1.610 . S
N1389 S1388 1.613 . S
N1389 C1392 1.350 . S
N1390 S1388 1.610 . S
N1390 C1391 1.351 . S
C1391 C1385 1.428 . S
C1391 N1390 1.351 . S
C1391 C1392 1.434 . S
C1392 C1383 1.429 . S
C1392 N1389 1.350 . S
C1392 C1391 1.434 . S
C1393 C1394 1.369 . S
C1393 C1395 1.419 . S
C1393 H1397 0.930 . S
C1394 C1393 1.369 . S
C1394 C1403 1.429 . S
C1395 C1393 1.419 . S
C1395 C1396 1.363 . S
C1395 H1398 0.929 . S
C1396 C1395 1.363 . S
C1396 C1402 1.428 . S
H1397 C1393 0.930 . S
H1398 C1395 0.929 . S
S1399 N1400 1.613 . S
S1399 N1401 1.610 . S
N1400 S1399 1.613 . S
N1400 C1403 1.350 . S
N1401 S1399 1.610 . S
N1401 C1402 1.351 . S
C1402 C1396 1.428 . S
C1402 N1401 1.351 . S
C1402 C1403 1.434 . S
C1403 C1394 1.429 . S
C1403 N1400 1.350 . S
C1403 C1402 1.434 . S
C1404 C1405 1.369 . S
C1404 C1406 1.419 1_565 S
C1404 H1408 0.930 1_565 S
C1405 C1404 1.369 . S
C1405 C1414 1.429 . S
C1406 C1404 1.419 1_545 S
C1406 C1407 1.363 1_545 S
C1406 H1409 0.929 . S
C1407 C1406 1.363 1_565 S
C1407 C1413 1.428 . S
H1408 C1404 0.930 1_545 S
H1409 C1406 0.929 . S
S1410 N1411 1.613 . S
S1410 N1412 1.610 . S
N1411 S1410 1.613 . S
N1411 C1414 1.350 . S
N1412 S1410 1.610 . S
N1412 C1413 1.351 . S
C1413 C1407 1.428 . S
C1413 N1412 1.351 . S
C1413 C1414 1.434 . S
C1414 C1405 1.429 . S
C1414 N1411 1.350 . S
C1414 C1413 1.434 . S
C1415 C1416 1.369 . S
C1415 C1417 1.419 . S
C1415 H1419 0.930 . S
C1416 C1415 1.369 . S
C1416 C1425 1.429 1_455 S
C1417 C1415 1.419 . S
C1417 C1418 1.363 . S
C1417 H1420 0.929 . S
C1418 C1417 1.363 . S
C1418 C1424 1.428 1_455 S
H1419 C1415 0.930 . S
H1420 C1417 0.929 . S
S1421 N1422 1.613 . S
S1421 N1423 1.610 . S
N1422 S1421 1.613 . S
N1422 C1425 1.350 . S
N1423 S1421 1.610 . S
N1423 C1424 1.351 . S
C1424 C1418 1.428 1_655 S
C1424 N1423 1.351 . S
C1424 C1425 1.434 . S
C1425 C1416 1.429 1_655 S
C1425 N1422 1.350 . S
C1425 C1424 1.434 . S
C1426 C1427 1.369 . S
C1426 C1428 1.419 . S
C1426 H1430 0.930 . S
C1427 C1426 1.369 . S
C1427 C1436 1.429 . S
C1428 C1426 1.419 . S
C1428 C1429 1.363 . S
C1428 H1431 0.929 . S
C1429 C1428 1.363 . S
C1429 C1435 1.428 . S
H1430 C1426 0.930 . S
H1431 C1428 0.929 . S
S1432 N1433 1.613 . S
S1432 N1434 1.610 . S
N1433 S1432 1.613 . S
N1433 C1436 1.350 . S
N1434 S1432 1.610 . S
N1434 C1435 1.351 . S
C1435 C1429 1.428 . S
C1435 N1434 1.351 . S
C1435 C1436 1.434 . S
C1436 C1427 1.429 . S
C1436 N1433 1.350 . S
C1436 C1435 1.434 . S
C1437 C1438 1.369 . S
C1437 C1439 1.419 . S
C1437 H1441 0.930 . S
C1438 C1437 1.369 . S
C1438 C1447 1.429 . S
C1439 C1437 1.419 . S
C1439 C1440 1.363 . S
C1439 H1442 0.929 . S
C1440 C1439 1.363 . S
C1440 C1446 1.428 . S
H1441 C1437 0.930 . S
H1442 C1439 0.929 . S
S1443 N1444 1.613 . S
S1443 N1445 1.610 . S
N1444 S1443 1.613 . S
N1444 C1447 1.350 . S
N1445 S1443 1.610 . S
N1445 C1446 1.351 . S
C1446 C1440 1.428 . S
C1446 N1445 1.351 . S
C1446 C1447 1.434 . S
C1447 C1438 1.429 . S
C1447 N1444 1.350 . S
C1447 C1446 1.434 . S
C1448 C1449 1.369 . S
C1448 C1450 1.419 . S
C1448 H1452 0.930 . S
C1449 C1448 1.369 . S
C1449 C1458 1.429 . S
C1450 C1448 1.419 . S
C1450 C1451 1.363 . S
C1450 H1453 0.929 . S
C1451 C1450 1.363 . S
C1451 C1457 1.428 . S
H1452 C1448 0.930 . S
H1453 C1450 0.929 . S
S1454 N1455 1.613 . S
S1454 N1456 1.610 . S
N1455 S1454 1.613 . S
N1455 C1458 1.350 . S
N1456 S1454 1.610 . S
N1456 C1457 1.351 . S
C1457 C1451 1.428 . S
C1457 N1456 1.351 . S
C1457 C1458 1.434 . S
C1458 C1449 1.429 . S
C1458 N1455 1.350 . S
C1458 C1457 1.434 . S
C1459 C1460 1.369 . S
C1459 C1461 1.419 . S
C1459 H1463 0.930 . S
C1460 C1459 1.369 . S
C1460 C1469 1.418 1_545 S
C1461 C1459 1.419 . S
C1461 C1462 1.363 . S
C1461 H1464 0.929 . S
C1462 C1461 1.363 . S
C1462 C1468 1.428 1_545 S
H1463 C1459 0.930 . S
H1464 C1461 0.929 . S
S1465 N1466 1.613 . S
S1465 N1467 1.610 . S
N1466 S1465 1.613 . S
N1466 C1469 1.358 . S
N1467 S1465 1.610 . S
N1467 C1468 1.351 . S
C1468 C1462 1.428 1_565 S
C1468 N1467 1.351 . S
C1468 C1469 1.438 . S
C1469 C1460 1.418 1_565 S
C1469 N1466 1.358 . S
C1469 C1468 1.438 . S
C1470 C1471 1.369 . S
C1470 C1472 1.419 . S
C1470 H1474 0.930 . S
C1471 C1470 1.369 . S
C1471 C1480 1.429 . S
C1472 C1470 1.419 . S
C1472 C1473 1.363 . S
C1472 H1475 0.929 . S
C1473 C1472 1.363 . S
C1473 C1479 1.428 . S
H1474 C1470 0.930 . S
H1475 C1472 0.929 . S
S1476 N1477 1.613 . S
S1476 N1478 1.610 . S
N1477 S1476 1.613 . S
N1477 C1480 1.350 . S
N1478 S1476 1.610 . S
N1478 C1479 1.351 . S
C1479 C1473 1.428 . S
C1479 N1478 1.351 . S
C1479 C1480 1.434 . S
C1480 C1471 1.429 . S
C1480 N1477 1.350 . S
C1480 C1479 1.434 . S
C1481 C1482 1.369 . S
C1481 C1483 1.419 . S
C1481 H1485 0.930 . S
C1482 C1481 1.369 . S
C1482 C1491 1.429 . S
C1483 C1481 1.419 . S
C1483 C1484 1.363 . S
C1483 H1486 0.929 . S
C1484 C1483 1.363 . S
C1484 C1490 1.428 . S
H1485 C1481 0.930 . S
H1486 C1483 0.929 . S
S1487 N1488 1.613 . S
S1487 N1489 1.610 . S
N1488 S1487 1.613 . S
N1488 C1491 1.350 . S
N1489 S1487 1.610 . S
N1489 C1490 1.351 . S
C1490 C1484 1.428 . S
C1490 N1489 1.351 . S
C1490 C1491 1.434 . S
C1491 C1482 1.429 . S
C1491 N1488 1.350 . S
C1491 C1490 1.434 . S
C1492 C1493 1.369 . S
C1492 C1494 1.419 . S
C1492 H1496 0.930 . S
C1493 C1492 1.369 . S
C1493 C1502 1.429 . S
C1494 C1492 1.419 . S
C1494 C1495 1.363 . S
C1494 H1497 0.929 . S
C1495 C1494 1.363 . S
C1495 C1501 1.428 . S
H1496 C1492 0.930 . S
H1497 C1494 0.929 . S
S1498 N1499 1.613 . S
S1498 N1500 1.610 . S
N1499 S1498 1.613 . S
N1499 C1502 1.350 . S
N1500 S1498 1.610 . S
N1500 C1501 1.351 . S
C1501 C1495 1.428 . S
C1501 N1500 1.351 . S
C1501 C1502 1.434 . S
C1502 C1493 1.429 . S
C1502 N1499 1.350 . S
C1502 C1501 1.434 . S
C1503 C1504 1.369 . S
C1503 C1505 1.419 . S
C1503 H1507 0.930 . S
C1504 C1503 1.369 . S
C1504 C1513 1.429 . S
C1505 C1503 1.419 . S
C1505 C1506 1.363 . S
C1505 H1508 0.929 . S
C1506 C1505 1.363 . S
C1506 C1512 1.428 . S
H1507 C1503 0.930 . S
H1508 C1505 0.929 . S
S1509 N1510 1.613 . S
S1509 N1511 1.610 . S
N1510 S1509 1.613 . S
N1510 C1513 1.350 . S
N1511 S1509 1.610 . S
N1511 C1512 1.351 . S
C1512 C1506 1.428 . S
C1512 N1511 1.351 . S
C1512 C1513 1.434 . S
C1513 C1504 1.429 . S
C1513 N1510 1.350 . S
C1513 C1512 1.434 . S
C1514 C1515 1.369 . S
C1514 C1516 1.419 . S
C1514 H1518 0.930 . S
C1515 C1514 1.369 . S
C1515 C1524 1.429 . S
C1516 C1514 1.419 . S
C1516 C1517 1.363 . S
C1516 H1519 0.929 . S
C1517 C1516 1.363 . S
C1517 C1523 1.428 . S
H1518 C1514 0.930 . S
H1519 C1516 0.929 . S
S1520 N1521 1.613 . S
S1520 N1522 1.610 . S
N1521 S1520 1.613 . S
N1521 C1524 1.350 . S
N1522 S1520 1.610 . S
N1522 C1523 1.351 . S
C1523 C1517 1.428 . S
C1523 N1522 1.351 . S
C1523 C1524 1.434 . S
C1524 C1515 1.429 . S
C1524 N1521 1.350 . S
C1524 C1523 1.434 . S
C1525 C1526 1.369 . S
C1525 C1527 1.419 . S
C1525 H1529 0.930 . S
C1526 C1525 1.369 . S
C1526 C1535 1.429 . S
C1527 C1525 1.419 . S
C1527 C1528 1.363 . S
C1527 H1530 0.929 . S
C1528 C1527 1.363 . S
C1528 C1534 1.428 . S
H1529 C1525 0.930 . S
H1530 C1527 0.929 . S
S1531 N1532 1.613 . S
S1531 N1533 1.610 . S
N1532 S1531 1.613 . S
N1532 C1535 1.350 . S
N1533 S1531 1.610 . S
N1533 C1534 1.351 . S
C1534 C1528 1.428 . S
C1534 N1533 1.351 . S
C1534 C1535 1.434 . S
C1535 C1526 1.429 . S
C1535 N1532 1.350 . S
C1535 C1534 1.434 . S
C1536 C1537 1.369 . S
C1536 C1538 1.419 . S
C1536 H1540 0.930 . S
C1537 C1536 1.369 . S
C1537 C1546 1.429 . S
C1538 C1536 1.419 . S
C1538 C1539 1.363 . S
C1538 H1541 0.929 . S
C1539 C1538 1.363 . S
C1539 C1545 1.428 . S
H1540 C1536 0.930 . S
H1541 C1538 0.929 . S
S1542 N1543 1.613 . S
S1542 N1544 1.610 . S
N1543 S1542 1.613 . S
N1543 C1546 1.350 . S
N1544 S1542 1.610 . S
N1544 C1545 1.351 . S
C1545 C1539 1.428 . S
C1545 N1544 1.351 . S
C1545 C1546 1.434 . S
C1546 C1537 1.429 . S
C1546 N1543 1.350 . S
C1546 C1545 1.434 . S
C1547 C1548 1.369 . S
C1547 C1549 1.419 . S
C1547 H1551 0.930 . S
C1548 C1547 1.369 . S
C1548 C1557 1.429 . S
C1549 C1547 1.419 . S
C1549 C1550 1.363 . S
C1549 H1552 0.929 . S
C1550 C1549 1.363 . S
C1550 C1556 1.428 . S
H1551 C1547 0.930 . S
H1552 C1549 0.929 . S
S1553 N1554 1.613 . S
S1553 N1555 1.610 . S
N1554 S1553 1.613 . S
N1554 C1557 1.350 . S
N1555 S1553 1.610 . S
N1555 C1556 1.351 . S
C1556 C1550 1.428 . S
C1556 N1555 1.351 . S
C1556 C1557 1.434 . S
C1557 C1548 1.429 . S
C1557 N1554 1.350 . S
C1557 C1556 1.434 . S
C1558 C1559 1.369 . S
C1558 C1560 1.419 . S
C1558 H1562 0.930 . S
C1559 C1558 1.369 . S
C1559 C1568 1.429 . S
C1560 C1558 1.419 . S
C1560 C1561 1.363 . S
C1560 H1563 0.929 . S
C1561 C1560 1.363 . S
C1561 C1567 1.428 . S
H1562 C1558 0.930 . S
H1563 C1560 0.929 . S
S1564 N1565 1.613 . S
S1564 N1566 1.610 . S
N1565 S1564 1.613 . S
N1565 C1568 1.350 . S
N1566 S1564 1.610 . S
N1566 C1567 1.351 . S
C1567 C1561 1.428 . S
C1567 N1566 1.351 . S
C1567 C1568 1.434 . S
C1568 C1559 1.429 . S
C1568 N1565 1.350 . S
C1568 C1567 1.434 . S
C1569 C1570 1.369 . S
C1569 C1571 1.419 . S
C1569 H1573 0.930 . S
C1570 C1569 1.369 . S
C1570 C1579 1.429 . S
C1571 C1569 1.419 . S
C1571 C1572 1.363 . S
C1571 H1574 0.929 . S
C1572 C1571 1.363 . S
C1572 C1578 1.428 . S
H1573 C1569 0.930 . S
H1574 C1571 0.929 . S
S1575 N1576 1.613 . S
S1575 N1577 1.610 . S
N1576 S1575 1.613 . S
N1576 C1579 1.350 . S
N1577 S1575 1.610 . S
N1577 C1578 1.351 . S
C1578 C1572 1.428 . S
C1578 N1577 1.351 . S
C1578 C1579 1.434 . S
C1579 C1570 1.429 . S
C1579 N1576 1.350 . S
C1579 C1578 1.434 . S
C1580 C1581 1.369 . S
C1580 C1582 1.419 . S
C1580 H1584 0.930 . S
C1581 C1580 1.369 . S
C1581 C1590 1.429 . S
C1582 C1580 1.419 . S
C1582 C1583 1.363 . S
C1582 H1585 0.929 . S
C1583 C1582 1.363 . S
C1583 C1589 1.428 . S
H1584 C1580 0.930 . S
H1585 C1582 0.929 . S
S1586 N1587 1.613 . S
S1586 N1588 1.610 . S
N1587 S1586 1.613 . S
N1587 C1590 1.350 . S
N1588 S1586 1.610 . S
N1588 C1589 1.351 . S
C1589 C1583 1.428 . S
C1589 N1588 1.351 . S
C1589 C1590 1.434 . S
C1590 C1581 1.429 . S
C1590 N1587 1.350 . S
C1590 C1589 1.434 . S
C1591 C1592 1.369 . S
C1591 C1593 1.419 . S
C1591 H1595 0.930 . S
C1592 C1591 1.369 . S
C1592 C1601 1.429 . S
C1593 C1591 1.419 . S
C1593 C1594 1.363 . S
C1593 H1596 0.929 . S
C1594 C1593 1.363 . S
C1594 C1600 1.428 . S
H1595 C1591 0.930 . S
H1596 C1593 0.929 . S
S1597 N1598 1.613 . S
S1597 N1599 1.610 . S
N1598 S1597 1.613 . S
N1598 C1601 1.350 . S
N1599 S1597 1.610 . S
N1599 C1600 1.351 . S
C1600 C1594 1.428 . S
C1600 N1599 1.351 . S
C1600 C1601 1.434 . S
C1601 C1592 1.429 . S
C1601 N1598 1.350 . S
C1601 C1600 1.434 . S
C1009 C469 1.736 . S
C1011 C660 1.753 . S
C1020 C505 1.789 . S
C1022 C700 1.784 . S
C1031 C433 1.817 . S
C1033 C730 1.813 . S
C1042 C397 1.644 . S
C1044 C690 1.635 . S
C1055 C740 1.532 . S
C1053 C325 1.521 . S
C1064 C361 1.555 . S
C1066 C650 1.575 . S
C1077 C679 1.753 . S
C1075 C421 1.748 . S
C1088 C719 1.781 . S
C1086 C349 1.788 . S
C1097 C385 1.814 . S
C1099 C745 1.813 . S
C1108 C493 1.644 . S
C1110 C705 1.631 . S
C1119 C529 1.537 . S
C1121 C759 1.533 . S
C1132 C665 1.579 . S
C1130 C457 1.565 . S
C1143 C780 1.750 . S
C1141 C37 1.740 1_455 S
C1152 C73 1.790 . S
C1154 C820 1.782 . S
C1163 C1 1.821 . S
C1165 C850 1.812 . S
C1174 C613 1.644 . S
C1176 C810 1.636 . S
C1185 C541 1.520 . S
C1187 C860 1.533 . S
C1196 C577 1.559 . S
C1198 C770 1.575 . S
C1207 C637 1.748 . S
C1209 C799 1.754 . S
C1218 C565 1.784 . S
C1220 C839 1.784 . S
C1231 C865 1.819 . S
C1229 C601 1.808 . S
C1240 C61 1.670 . S
C1242 C825 1.636 . S
C1253 C879 1.530 . S
C1251 C97 1.539 1_455 S
C1262 C25 1.559 . S
C1264 C785 1.582 . S
C1275 C900 1.753 . S
C1273 C253 1.736 . S
C1284 C289 1.790 . S
C1286 C940 1.781 . S
C1297 C970 1.812 . S
C1295 C217 1.821 . S
C1308 C930 1.629 . S
C1306 C181 1.647 . S
C1319 C980 1.530 . S
C1317 C109 1.524 1_655 S
C1328 C145 1.551 . S
C1330 C890 1.582 . S
C1339 C205 1.749 1_655 S
C1341 C919 1.754 . S
C1350 C133 1.784 . S
C1352 C959 1.784 . S
C1363 C985 1.815 . S
C1361 C169 1.810 . S
C1372 C277 1.646 . S
C1374 C945 1.630 . S
C1383 C313 1.536 . S
C1385 C999 1.533 . S
C1394 C241 1.565 . S
C1396 C905 1.578 . S
C1405 C571 1.399 . S
C1407 C677 1.386 . S
C1418 C717 1.812 . S
C1416 C607 1.856 . S
C1427 C643 1.582 . S
C1429 C736 1.576 . S
C1438 C247 1.853 . S
C1440 C696 1.813 . S
C1449 C283 1.583 . S
C1451 C757 1.576 . S
C1462 C656 1.384 . S
C1460 C319 1.398 . S
C1471 C139 1.396 . S
C1473 C797 1.385 . S
C1482 C175 1.850 . S
C1484 C837 1.815 . S
C1493 C211 1.580 . S
C1495 C856 1.577 . S
C1504 C463 1.850 . S
C1506 C816 1.814 . S
C1517 C877 1.573 . S
C1515 C499 1.585 . S
C1526 C535 1.398 . S
C1528 C776 1.384 . S
C1537 C355 1.399 . S
C1539 C917 1.383 . S
C1548 C391 1.851 . S
C1550 C957 1.812 . S
C1561 C976 1.574 . S
C1559 C427 1.582 . S
C1570 C31 1.851 . S
C1572 C936 1.816 . S
C1581 C67 1.584 . S
C1583 C997 1.575 . S
C1592 C103 1.401 . S
C1594 C896 1.382 . S
