# Generated by pormake.
# Topology anh, (6,3)-cn, num edge types: 1
# Building blocks:
#     Node 0, Type 0, BuildingBlock: HISSIN_clean_sbu_0, # of connection points: 6
#     Node 1, Type 0, BuildingBlock: HISSIN_clean_sbu_0, # of connection points: 6
#     Node 2, Type 0, BuildingBlock: HISSIN_clean_sbu_0, # of connection points: 6
#     Node 3, Type 1, BuildingBlock: MIDCAF_clean_linker_0, # of connection points: 3
#     Node 4, Type 1, BuildingBlock: MIDCAF_clean_linker_0, # of connection points: 3
#     Node 5, Type 1, BuildingBlock: MIDCAF_clean_linker_0, # of connection points: 3
#     Node 6, Type 1, BuildingBlock: MIDCAF_clean_linker_0, # of connection points: 3
#     Node 7, Type 1, BuildingBlock: MIDCAF_clean_linker_0, # of connection points: 3
#     Node 8, Type 1, BuildingBlock: MIDCAF_clean_linker_0, # of connection points: 3
#     Edge 9, Type (0, 1), BuildingBlock: KIFKEQ_clean_linker_1, # of connection points: 2
#     Edge 10, Type (0, 1), BuildingBlock: KIFKEQ_clean_linker_1, # of connection points: 2
#     Edge 11, Type (0, 1), BuildingBlock: KIFKEQ_clean_linker_1, # of connection points: 2
#     Edge 12, Type (0, 1), BuildingBlock: KIFKEQ_clean_linker_1, # of connection points: 2
#     Edge 13, Type (0, 1), BuildingBlock: KIFKEQ_clean_linker_1, # of connection points: 2
#     Edge 14, Type (0, 1), BuildingBlock: KIFKEQ_clean_linker_1, # of connection points: 2
#     Edge 15, Type (0, 1), BuildingBlock: KIFKEQ_clean_linker_1, # of connection points: 2
#     Edge 16, Type (0, 1), BuildingBlock: KIFKEQ_clean_linker_1, # of connection points: 2
#     Edge 17, Type (0, 1), BuildingBlock: KIFKEQ_clean_linker_1, # of connection points: 2
#     Edge 18, Type (0, 1), BuildingBlock: KIFKEQ_clean_linker_1, # of connection points: 2
#     Edge 19, Type (0, 1), BuildingBlock: KIFKEQ_clean_linker_1, # of connection points: 2
#     Edge 20, Type (0, 1), BuildingBlock: KIFKEQ_clean_linker_1, # of connection points: 2
#     Edge 21, Type (0, 1), BuildingBlock: KIFKEQ_clean_linker_1, # of connection points: 2
#     Edge 22, Type (0, 1), BuildingBlock: KIFKEQ_clean_linker_1, # of connection points: 2
#     Edge 23, Type (0, 1), BuildingBlock: KIFKEQ_clean_linker_1, # of connection points: 2
#     Edge 24, Type (0, 1), BuildingBlock: KIFKEQ_clean_linker_1, # of connection points: 2
#     Edge 25, Type (0, 1), BuildingBlock: KIFKEQ_clean_linker_1, # of connection points: 2
#     Edge 26, Type (0, 1), BuildingBlock: KIFKEQ_clean_linker_1, # of connection points: 2
# Relax obj value: 0.235
# Max RMSD: 0.188
# Mean RMSD: 0.155
data_MOF--net-anh--node1-HISSIN_clean_sbu_0--node2-MIDCAF_clean_linker_0--edge1-KIFKEQ_clean_linker_1
_symmetry_space_group_name_H-M    P1
_symmetry_Int_Tables_number       1
_symmetry_cell_setting            triclinic
loop_
_symmetry_equiv_pos_as_xyz
'x, y, z'
_cell_length_a     36.027973
_cell_length_b     35.965641
_cell_length_c     67.956452
_cell_angle_alpha  92.496923
_cell_angle_beta   90.194919
_cell_angle_gamma 119.87678
loop_
_atom_site_label
_atom_site_type_symbol
_atom_site_fract_x
_atom_site_fract_y
_atom_site_fract_z
_atom_type_partial_charge
Eu0 Eu 1.07729 0.51194 0.16281 0.0
Eu1 Eu 0.12646 0.6156 0.16952 0.0
C2 C 1.08916 0.55704 0.20684 0.0
C3 C 0.97901 0.41183 0.16176 0.0
C4 C 0.96772 0.42178 0.18024 0.0
C5 C 0.90804 0.39167 0.1488 0.0
C6 C 0.92798 0.41873 0.18268 0.0
C7 C 0.9481 0.39496 0.14629 0.0
C8 C 0.89849 0.40539 0.16678 0.0
C9 C 1.02473 0.43068 0.15724 0.0
O10 O 0.17905 0.59893 0.16378 0.0
O11 O 0.14494 0.5271 0.16983 0.0
C12 C 0.18018 0.56348 0.16683 0.0
O13 O 0.11481 0.53726 0.13543 0.0
O14 O 0.17699 0.67657 0.18245 0.0
O15 O 0.13348 0.67603 0.16019 0.0
O16 O 0.11093 0.59838 0.13721 0.0
C17 C 0.11786 0.57075 0.12711 0.0
O18 O 1.02999 0.53396 0.15535 0.0
O19 O 1.05695 0.59554 0.17475 0.0
O20 O 0.11756 0.59445 0.20056 0.0
O21 O 1.03657 0.45694 0.14292 0.0
O22 O 1.05191 0.44646 0.17226 0.0
O23 O 1.06669 0.52344 0.19473 0.0
C24 C 0.20577 0.72845 0.15872 0.0
C25 C 0.23234 0.7146 0.14995 0.0
C26 C 0.25015 0.79893 0.14625 0.0
C27 C 0.26852 0.74322 0.13999 0.0
C28 C 0.21421 0.77038 0.15641 0.0
C29 C 0.27821 0.78589 0.1384 0.0
C30 C 0.16933 0.69909 0.17021 0.0
C31 C 1.02484 0.56386 0.16459 0.0
H32 H 0.99068 0.43509 0.1925 0.0
H33 H 0.8856 0.38086 0.13636 0.0
H34 H 0.92089 0.4283 0.19688 0.0
H35 H 0.95616 0.38765 0.13184 0.0
H36 H 0.22578 0.68198 0.15127 0.0
H37 H 0.25726 0.83186 0.14549 0.0
H38 H 0.28966 0.73245 0.13407 0.0
H39 H 0.19369 0.78135 0.1629 0.0
Eu40 Eu 0.59352 1.01497 0.49795 0.0
Eu41 Eu 0.53949 1.06581 0.50112 0.0
C42 C 0.57087 1.0425 0.53952 0.0
C43 C 0.64395 0.93996 0.49201 0.0
C44 C 0.62522 0.90383 0.50351 0.0
C45 C 0.68542 0.91188 0.47565 0.0
C46 C 0.63792 0.87299 0.50168 0.0
C47 C 0.6728 0.94278 0.47752 0.0
C48 C 0.66965 0.87779 0.48837 0.0
C49 C 0.64024 0.97813 0.49733 0.0
O50 O 0.6092 0.11801 0.50564 0.0
O51 O 0.64088 0.08325 0.49064 0.0
C52 C 0.64261 0.11883 0.49747 0.0
O53 O 0.5637 1.0061 0.46779 0.0
O54 O 0.52519 0.11198 0.51605 0.0
O55 O 0.49413 0.08173 0.48788 0.0
O56 O 0.5621 1.06879 0.47016 0.0
C57 C 0.56082 1.03685 0.45955 0.0
O58 O 0.52505 0.96104 0.501 0.0
O59 O 0.48733 0.99638 0.49609 0.0
O60 O 0.53742 1.04126 0.53117 0.0
O61 O 0.63965 1.00138 0.48326 0.0
O62 O 0.61603 0.97631 0.51193 0.0
O63 O 0.60187 1.04424 0.52882 0.0
C64 C 0.52534 0.15705 0.49231 0.0
C65 C 0.54683 0.1638 0.47441 0.0
C66 C 0.56418 0.23393 0.49988 0.0
C67 C 0.5783 0.20497 0.46983 0.0
C68 C 0.53261 0.19267 0.50446 0.0
C69 C 0.58895 0.2401 0.48306 0.0
C70 C 0.50514 0.11422 0.5005 0.0
C71 C 0.48865 0.96076 0.49813 0.0
H72 H 0.60297 0.90078 0.51485 0.0
H73 H 0.70942 0.91606 0.46505 0.0
H74 H 0.62534 0.84732 0.51181 0.0
H75 H 0.68784 0.97039 0.46851 0.0
H76 H 0.5421 0.137 0.46471 0.0
H77 H 0.57177 0.26031 0.51046 0.0
H78 H 0.59638 0.20885 0.45662 0.0
H79 H 0.5168 0.18824 0.5184 0.0
Eu80 Eu 0.59729 0.57249 0.82536 0.0
Eu81 Eu 0.69874 0.62368 0.83568 0.0
C82 C 0.63176 0.59337 0.87051 0.0
C83 C 0.49693 0.57042 0.81676 0.0
C84 C 0.51451 0.60676 0.82985 0.0
C85 C 0.45316 0.59569 0.80139 0.0
C86 C 0.5022 0.63758 0.82853 0.0
C87 C 0.46581 0.56476 0.80264 0.0
C88 C 0.47211 0.6329 0.81404 0.0
C89 C 0.51759 0.5441 0.81562 0.0
O90 O 0.68212 0.55527 0.82685 0.0
O91 O 0.60996 0.51879 0.83242 0.0
C92 C 0.64627 0.51912 0.82952 0.0
O93 O 0.62986 0.56399 0.79853 0.0
O94 O 0.75408 0.63719 0.8542 0.0
O95 O 0.76351 0.66822 0.82666 0.0
O96 O 0.68851 0.62958 0.80367 0.0
C97 C 0.66437 0.59634 0.79187 0.0
O98 O 0.62196 0.64308 0.82078 0.0
O99 O 0.6799 0.67427 0.84202 0.0
O100 O 0.6682 0.59823 0.86432 0.0
O101 O 0.54779 0.5568 0.80281 0.0
O102 O 0.5295 0.5364 0.83243 0.0
O103 O 0.60254 0.59099 0.85807 0.0
C104 C 0.80826 0.64038 0.83446 0.0
C105 C 0.79786 0.61394 0.81709 0.0
C106 C 0.86259 0.62243 0.84277 0.0
C107 C 0.81972 0.59183 0.81262 0.0
C108 C 0.84107 0.64488 0.84713 0.0
C109 C 0.85164 0.59524 0.82565 0.0
C110 C 0.78113 0.6582 0.8407 0.0
C111 C 0.65078 0.67677 0.83136 0.0
H112 H 0.53927 0.61233 0.8406 0.0
H113 H 0.42978 0.59131 0.79013 0.0
H114 H 0.5167 0.66544 0.83874 0.0
H115 H 0.45265 0.53744 0.79212 0.0
H116 H 0.77194 0.60927 0.80729 0.0
H117 H 0.88762 0.62604 0.85289 0.0
H118 H 0.81075 0.57101 0.79938 0.0
H119 H 0.84909 0.66463 0.86069 0.0
C120 C 0.52208 1.03151 0.19086 0.0
C121 C 0.5143 1.04517 0.17302 0.0
C122 C 0.5213 0.08711 0.17231 0.0
C123 C 0.534 0.11423 0.18931 0.0
H124 H 0.54067 0.23201 0.21662 0.0
H125 H 0.58088 0.30395 0.20448 0.0
H126 H 0.68323 0.33337 0.24678 0.0
H127 H 0.6416 0.26307 0.25959 0.0
H128 H 0.61095 0.1846 0.29313 0.0
H129 H 0.61129 0.15696 0.32531 0.0
H130 H 0.52153 1.02848 0.30273 0.0
H131 H 0.52147 1.05581 0.27043 0.0
H132 H 0.53908 1.04651 0.22149 0.0
H133 H 0.51626 0.99907 0.19192 0.0
H134 H 0.51557 0.09843 0.15875 0.0
H135 H 0.53813 0.14605 0.18831 0.0
N136 N 0.56044 0.16917 0.22459 0.0
N137 N 0.57532 0.18101 0.25863 0.0
N138 N 0.55238 0.11281 0.24342 0.0
C139 C 0.57257 0.19588 0.24096 0.0
C140 C 0.56446 0.13917 0.25999 0.0
C141 C 0.55067 0.12775 0.22563 0.0
C142 C 0.58876 0.24185 0.23862 0.0
C143 C 0.571 0.25479 0.22383 0.0
C144 C 0.59426 0.29592 0.21678 0.0
C145 C 0.63638 0.32405 0.22387 0.0
C146 C 0.65119 0.31293 0.24066 0.0
C147 C 0.62736 0.27224 0.24806 0.0
C148 C 0.56603 0.12242 0.27927 0.0
C149 C 0.59147 0.15043 0.29498 0.0
C150 C 0.59196 0.13462 0.31334 0.0
C151 C 0.56648 0.09064 0.31641 0.0
C152 C 0.54138 1.06254 0.30069 0.0
C153 C 0.54147 0.07822 0.28223 0.0
C154 C 0.53966 0.09983 0.20741 0.0
C155 C 0.53452 1.0585 0.20789 0.0
C156 C 0.83235 0.48735 0.55313 0.0
C157 C 0.84155 0.4953 0.53313 0.0
C158 C 0.8676 0.53779 0.5278 0.0
C159 C 0.8796 0.5718 0.54171 0.0
H160 H 0.86714 0.67451 0.53579 0.0
H161 H 0.8398 0.71291 0.51758 0.0
H162 H 0.81142 0.75795 0.57231 0.0
H163 H 0.83792 0.71888 0.59064 0.0
H164 H 0.86072 0.68347 0.6321 0.0
H165 H 0.83058 0.67211 0.66477 0.0
H166 H 0.77868 0.53543 0.6552 0.0
H167 H 0.80918 0.54676 0.62234 0.0
H168 H 0.83354 0.51417 0.58199 0.0
H169 H 0.81226 0.45494 0.55773 0.0
H170 H 0.87594 0.54484 0.51257 0.0
H171 H 0.89691 0.60428 0.5368 0.0
N172 N 0.86762 0.63253 0.56508 0.0
N173 N 0.85263 0.65659 0.59485 0.0
N174 N 0.85682 0.59343 0.59329 0.0
C175 C 0.86085 0.66159 0.57539 0.0
C176 C 0.85094 0.62291 0.60397 0.0
C177 C 0.86605 0.59861 0.57385 0.0
C178 C 0.85392 0.69279 0.56471 0.0
C179 C 0.85586 0.69323 0.54403 0.0
C180 C 0.84028 0.71537 0.53353 0.0
C181 C 0.82259 0.73763 0.5435 0.0
C182 C 0.82388 0.74011 0.56421 0.0
C183 C 0.83942 0.71798 0.57472 0.0
C184 C 0.8373 0.61603 0.62463 0.0
C185 C 0.8434 0.65102 0.63704 0.0
C186 C 0.82629 0.64454 0.65578 0.0
C187 C 0.8022 0.60288 0.66248 0.0
C188 C 0.79692 0.56786 0.65032 0.0
C189 C 0.81468 0.57441 0.63161 0.0
C190 C 0.86572 0.56391 0.5612 0.0
C191 C 0.84444 0.5214 0.56707 0.0
C192 C 1.07907 0.56292 0.86911 0.0
C193 C 1.08653 0.56916 0.84887 0.0
C194 C 0.12824 0.59769 0.84299 0.0
C195 C 0.16068 0.62232 0.85703 0.0
H196 H 0.25316 0.76594 0.87115 0.0
H197 H 0.31443 0.80469 0.85038 0.0
H198 H 0.39165 0.7779 0.88993 0.0
H199 H 0.33132 0.74195 0.91103 0.0
H200 H 0.27017 0.70772 0.95545 0.0
H201 H 0.26178 0.68968 0.98996 0.0
H202 H 0.13437 0.58403 0.97614 0.0
H203 H 0.14298 0.60115 0.94179 0.0
H204 H 1.10417 0.5831 0.89861 0.0
H205 H 1.04729 0.54167 0.87427 0.0
H206 H 0.13527 0.6027 0.82753 0.0
H207 H 0.19198 0.64541 0.852 0.0
N208 N 0.21843 0.68547 0.88634 0.0
N209 N 0.24582 0.70345 0.91887 0.0
N210 N 0.18139 0.63942 0.9113 0.0
C211 C 0.24881 0.71322 0.89963 0.0
C212 C 0.21165 0.66672 0.92484 0.0
C213 C 0.18481 0.6484 0.892 0.0
C214 C 0.28743 0.74988 0.89226 0.0
C215 C 0.28395 0.77037 0.87581 0.0
C216 C 0.31903 0.79232 0.86387 0.0
C217 C 0.35747 0.79248 0.8678 0.0
C218 C 0.36261 0.77815 0.88609 0.0
C219 C 0.3278 0.75718 0.89829 0.0
C220 C 0.20726 0.65595 0.9458 0.0
C221 C 0.24044 0.68055 0.95977 0.0
C222 C 0.2356 0.67029 0.97956 0.0
C223 C 0.19746 0.63532 0.9858 0.0
C224 C 0.16449 0.61064 0.97179 0.0
C225 C 0.16936 0.62074 0.95206 0.0
C226 C 0.15222 0.61844 0.87725 0.0
C227 C 0.11163 0.58716 0.88314 0.0
C228 C 0.21113 0.65267 0.45641 0.0
C229 C 0.21143 0.67518 0.47391 0.0
C230 C 0.17271 0.6595 0.4841 0.0
C231 C 0.1347 0.62313 0.47662 0.0
H232 H 1.01316 0.47401 0.48353 0.0
H233 H 0.949 0.41091 0.49521 0.0
H234 H 0.87747 0.40937 0.44381 0.0
H235 H 0.94071 0.47115 0.4322 0.0
H236 H 0.98941 0.50928 0.39173 0.0
H237 H 0.99079 0.50935 0.35565 0.0
H238 H 0.12791 0.56342 0.35828 0.0
H239 H 0.12687 0.56427 0.39423 0.0
H240 H 0.17479 0.60146 0.43513 0.0
H241 H 0.23974 0.6637 0.44788 0.0
H242 H 0.17163 0.67563 0.49773 0.0
H243 H 1.10525 0.61281 0.48442 0.0
N244 N 1.05828 0.54006 0.45799 0.0
N245 N 1.02239 0.51048 0.42731 0.0
N246 N 1.09326 0.56642 0.42831 0.0
C247 C 1.02213 0.51075 0.44736 0.0
C248 C 1.05776 0.53796 0.4177 0.0
C249 C 1.0941 0.56829 0.44833 0.0
C250 C 0.98251 0.47748 0.45676 0.0
C251 C 0.9835 0.46061 0.47495 0.0
C252 C 0.94667 0.42435 0.48162 0.0
C253 C 0.90809 0.40423 0.47024 0.0
C254 C 0.90672 0.42299 0.45273 0.0
C255 C 0.94318 0.45879 0.44611 0.0
C256 C 1.05804 0.53685 0.39585 0.0
C257 C 1.01983 0.52109 0.3846 0.0
C258 C 1.0206 0.52129 0.36398 0.0
C259 C 1.05944 0.53631 0.35422 0.0
C260 C 1.09751 0.55142 0.36544 0.0
C261 C 1.09688 0.55209 0.38602 0.0
C262 C 0.13447 0.60196 0.45867 0.0
C263 C 0.17348 0.61685 0.44896 0.0
C264 C 0.62405 0.21867 0.78378 0.0
C265 C 0.63636 0.23384 0.80341 0.0
C266 C 0.64393 0.20827 0.81619 0.0
C267 C 0.64096 0.16927 0.80914 0.0
H268 H 0.60747 1.01754 0.81706 0.0
H269 H 0.61299 0.95802 0.83066 0.0
H270 H 0.69483 0.96376 0.78327 0.0
H271 H 0.6889 1.02221 0.76974 0.0
H272 H 0.64797 1.02996 0.72554 0.0
H273 H 0.63721 1.02073 0.68966 0.0
H274 H 0.57034 0.09237 0.69223 0.0
H275 H 0.58133 0.10206 0.72793 0.0
H276 H 0.61141 0.17035 0.7615 0.0
H277 H 0.61712 0.23697 0.77362 0.0
H278 H 0.65337 0.21905 0.83145 0.0
H279 H 0.64815 0.15094 0.81915 0.0
N280 N 0.63746 0.08881 0.79114 0.0
N281 N 0.63236 1.04847 0.76185 0.0
N282 N 0.62201 0.10737 0.76066 0.0
C283 C 0.63904 1.05505 0.78173 0.0
C284 C 0.62339 0.0742 0.75125 0.0
C285 C 0.62925 0.11554 0.78043 0.0
C286 C 0.64786 1.02473 0.79236 0.0
C287 C 0.62739 1.00666 0.80987 0.0
C288 C 0.63022 0.97228 0.81752 0.0
C289 C 0.65432 0.95593 0.80805 0.0
C290 C 0.67635 0.97561 0.7911 0.0
C291 C 0.67285 1.00916 0.7833 0.0
C292 C 0.61563 1.06686 0.72961 0.0
C293 C 0.63078 1.04355 0.71846 0.0
C294 C 0.62484 1.03844 0.69793 0.0
C295 C 0.60293 1.05583 0.68819 0.0
C296 C 0.58705 0.07836 0.69936 0.0
C297 C 0.59361 0.0841 0.7198 0.0
C298 C 0.6298 0.15486 0.78923 0.0
C299 C 0.62065 0.17999 0.77686 0.0
C300 C 0.75023 0.58726 0.11698 0.0
C301 C 0.75012 0.57062 0.13531 0.0
C302 C 0.7137 0.55782 0.14697 0.0
C303 C 0.67765 0.55969 0.13993 0.0
H304 H 0.56158 0.59587 0.14972 0.0
H305 H 0.49726 0.59382 0.16332 0.0
H306 H 0.42456 0.52204 0.11085 0.0
H307 H 0.48754 0.5236 0.09765 0.0
H308 H 0.54016 0.5678 0.05757 0.0
H309 H 0.53923 0.56872 0.02167 0.0
H310 H 0.66416 0.57972 0.02096 0.0
H311 H 0.66498 0.57818 0.05667 0.0
H312 H 0.71654 0.60176 0.09565 0.0
H313 H 0.7779 0.59856 0.10777 0.0
H314 H 0.71245 0.54493 0.16121 0.0
H315 H 0.64962 0.54812 0.1489 0.0
N316 N 0.6039 0.56804 0.1222 0.0
N317 N 0.56925 0.56681 0.09244 0.0
N318 N 0.63721 0.57409 0.0918 0.0
C319 C 0.56902 0.56519 0.11241 0.0
C320 C 0.60307 0.57135 0.08201 0.0
C321 C 0.63837 0.57248 0.11175 0.0
C322 C 0.52996 0.55993 0.12256 0.0
C323 C 0.5316 0.57898 0.14133 0.0
C324 C 0.49479 0.5782 0.14901 0.0
C325 C 0.45537 0.55775 0.13823 0.0
C326 C 0.45382 0.53761 0.1198 0.0
C327 C 0.49032 0.53876 0.11213 0.0
C328 C 0.60258 0.57273 0.06013 0.0
C329 C 0.56747 0.57041 0.04978 0.0
C330 C 0.56699 0.57116 0.02918 0.0
C331 C 0.60149 0.57404 0.01839 0.0
C332 C 0.63669 0.57672 0.02875 0.0
C333 C 0.63725 0.5761 0.0493 0.0
C334 C 0.67734 0.57459 0.12111 0.0
C335 C 0.71472 0.58924 0.11005 0.0
H336 H 0.19645 0.49773 0.17297 0.0
H337 H 0.25886 0.62975 0.15682 0.0
H338 H 0.26304 0.49677 0.16854 0.0
H339 H 0.32527 0.62848 0.15189 0.0
H340 H 0.44945 0.62396 0.15741 0.0
H341 H 0.38469 0.62597 0.16632 0.0
H342 H 0.30718 0.49498 0.14337 0.0
H343 H 0.37156 0.49251 0.13527 0.0
C344 C 0.22435 0.52666 0.1685 0.0
C345 C 0.22187 0.56377 0.16522 0.0
C346 C 0.26271 0.52603 0.16581 0.0
C347 C 0.29995 0.56244 0.15968 0.0
C348 C 0.29769 0.59988 0.15683 0.0
C349 C 0.25932 0.60054 0.15957 0.0
C350 C 0.41862 0.59532 0.1546 0.0
C351 C 0.41608 0.55815 0.14547 0.0
C352 C 0.38129 0.59664 0.15948 0.0
C353 C 0.34022 0.56074 0.1555 0.0
C354 C 0.33789 0.52324 0.14691 0.0
C355 C 0.37507 0.52196 0.14202 0.0
H356 H 0.71183 0.13419 0.47542 0.0
H357 H 0.66495 0.19904 0.51416 0.0
H358 H 0.7762 0.20233 0.47031 0.0
H359 H 0.73011 0.26755 0.50921 0.0
H360 H 0.87303 0.37856 0.50689 0.0
H361 H 0.81033 0.31002 0.51479 0.0
H362 H 0.79404 0.26743 0.45342 0.0
H363 H 0.85666 0.33468 0.44567 0.0
C364 C 0.71526 0.16292 0.48298 0.0
C365 C 0.68282 0.16082 0.49517 0.0
C366 C 0.75227 0.20221 0.47995 0.0
C367 C 0.75844 0.24078 0.48918 0.0
C368 C 0.72665 0.23862 0.50188 0.0
C369 C 0.68912 0.19926 0.50466 0.0
C370 C 0.85626 0.35439 0.49513 0.0
C371 C 0.87006 0.3625 0.47561 0.0
C372 C 0.82005 0.31519 0.49963 0.0
C373 C 0.797 0.28291 0.48477 0.0
C374 C 0.81108 0.29111 0.46533 0.0
C375 C 0.84688 0.33011 0.46084 0.0
H376 H 0.59522 0.69248 0.81055 0.0
H377 H 0.70797 0.75626 0.84885 0.0
H378 H 0.59762 0.76067 0.80679 0.0
H379 H 0.70933 0.82456 0.84547 0.0
H380 H 0.72301 0.94295 0.81169 0.0
H381 H 0.72246 0.87666 0.81901 0.0
H382 H 0.58602 0.81394 0.82682 0.0
H383 H 0.58647 0.88014 0.81936 0.0
C384 C 0.62026 0.72087 0.81841 0.0
C385 C 0.65141 0.71855 0.83005 0.0
C386 C 0.62124 0.75998 0.81641 0.0
C387 C 0.65312 0.79805 0.82608 0.0
C388 C 0.6843 0.79589 0.83778 0.0
C389 C 0.68339 0.75664 0.83979 0.0
C390 C 0.69291 0.91512 0.81513 0.0
C391 C 0.65476 0.91699 0.81485 0.0
C392 C 0.69266 0.87715 0.81945 0.0
C393 C 0.65414 0.83974 0.82336 0.0
C394 C 0.61618 0.84196 0.82365 0.0
C395 C 0.61651 0.88009 0.81957 0.0
H396 H 0.95197 0.50239 0.14482 0.0
H397 H 1.00138 0.62182 0.17948 0.0
H398 H 0.88452 0.50112 0.13961 0.0
H399 H 0.93356 0.62072 0.17407 0.0
H400 H 0.79208 0.58912 0.1718 0.0
H401 H 0.85639 0.5854 0.18048 0.0
H402 H 0.85774 0.53832 0.12112 0.0
H403 H 0.79362 0.54107 0.1127 0.0
C404 C 0.94861 0.52854 0.15133 0.0
C405 C 0.98269 0.56252 0.1624 0.0
C406 C 0.90973 0.52788 0.14826 0.0
C407 C 0.90334 0.56105 0.15621 0.0
C408 C 0.93694 0.59441 0.1678 0.0
C409 C 0.97607 0.59518 0.17082 0.0
C410 C 0.80585 0.57748 0.1607 0.0
C411 C 0.78763 0.56577 0.14148 0.0
C412 C 0.84305 0.57574 0.16562 0.0
C413 C 0.86272 0.5617 0.15152 0.0
C414 C 0.84364 0.54894 0.1325 0.0
C415 C 0.80688 0.55096 0.12758 0.0
H416 H 0.47531 0.8803 0.50542 0.0
H417 H 0.40831 0.94528 0.4874 0.0
H418 H 0.40873 0.81173 0.50219 0.0
H419 H 0.34209 0.8767 0.48349 0.0
H420 H 0.21994 0.75049 0.49075 0.0
H421 H 0.2857 0.81819 0.49862 0.0
H422 H 0.36028 0.76048 0.47891 0.0
H423 H 0.2949 0.69255 0.47216 0.0
C424 C 0.44644 0.88006 0.50072 0.0
C425 C 0.44754 0.91865 0.49666 0.0
C426 C 0.40807 0.84049 0.49873 0.0
C427 C 0.36951 0.8381 0.49247 0.0
C428 C 0.37063 0.87686 0.48865 0.0
C429 C 0.40893 0.91643 0.49076 0.0
C430 C 0.25035 0.75193 0.48849 0.0
C431 C 0.25168 0.71573 0.48063 0.0
C432 C 0.28828 0.79114 0.49273 0.0
C433 C 0.32883 0.79548 0.48925 0.0
C434 C 0.33005 0.75881 0.48201 0.0
C435 C 0.29224 0.71968 0.47786 0.0
H436 H 0.71333 0.50648 0.82011 0.0
H437 H 0.58012 0.43742 0.83536 0.0
H438 H 0.7135 0.43893 0.81609 0.0
H439 H 0.58028 0.36962 0.83114 0.0
H440 H 0.60499 0.25593 0.8362 0.0
H441 H 0.60878 0.32506 0.84432 0.0
H442 H 0.68336 0.37722 0.79274 0.0
H443 H 0.67991 0.30887 0.78487 0.0
C444 C 0.68404 0.47695 0.82268 0.0
C445 C 0.64661 0.47765 0.82795 0.0
C446 C 0.68411 0.43804 0.82029 0.0
C447 C 0.64684 0.39856 0.82318 0.0
C448 C 0.60969 0.39931 0.82896 0.0
C449 C 0.60953 0.43827 0.83124 0.0
C450 C 0.6227 0.28244 0.82681 0.0
C451 C 0.64199 0.27676 0.80984 0.0
C452 C 0.62453 0.32194 0.83133 0.0
C453 C 0.64627 0.35689 0.81916 0.0
C454 C 0.66667 0.35139 0.80258 0.0
C455 C 0.66444 0.31198 0.79798 0.0
H456 H 0.75517 0.90586 0.48782 0.0
H457 H 0.63248 0.79134 0.49365 0.0
H458 H 0.79127 0.8677 0.49774 0.0
H459 H 0.66889 0.75293 0.50363 0.0
H460 H 0.74597 0.7313 0.55193 0.0
H461 H 0.70804 0.76019 0.53427 0.0
H462 H 0.80793 0.81018 0.49159 0.0
H463 H 0.84683 0.78233 0.50976 0.0
C464 C 0.73586 0.87208 0.49056 0.0
C465 C 0.69088 0.85173 0.49013 0.0
C466 C 0.75665 0.8502 0.4963 0.0
C467 C 0.73293 0.8075 0.50176 0.0
C468 C 0.68799 0.78614 0.4999 0.0
C469 C 0.66716 0.80806 0.49415 0.0
C470 C 0.76007 0.74877 0.53887 0.0
C471 C 0.79972 0.75514 0.53241 0.0
C472 C 0.73791 0.76464 0.52853 0.0
C473 C 0.75483 0.78723 0.51145 0.0
C474 C 0.79418 0.79302 0.50475 0.0
C475 C 0.81636 0.777 0.51511 0.0
H476 H 0.86337 0.54511 0.85064 0.0
H477 H 0.88965 0.59006 0.7917 0.0
H478 H 0.9133 0.51871 0.84729 0.0
H479 H 0.93953 0.56274 0.78804 0.0
H480 H 1.07646 0.61137 0.8188 0.0
H481 H 1.00915 0.59783 0.80485 0.0
H482 H 0.94394 0.47702 0.83308 0.0
H483 H 1.01228 0.49052 0.84711 0.0
C484 C 0.87906 0.54818 0.83674 0.0
C485 C 0.87384 0.57069 0.82166 0.0
C486 C 0.9072 0.53241 0.83465 0.0
C487 C 0.93094 0.53915 0.81746 0.0
C488 C 0.92206 0.55753 0.80153 0.0
C489 C 0.89361 0.57318 0.80362 0.0
C490 C 1.04832 0.58079 0.82128 0.0
C491 C 1.04957 0.55277 0.83472 0.0
C492 C 1.00937 0.57292 0.81317 0.0
C493 C 0.97096 0.53702 0.81843 0.0
C494 C 0.97299 0.50558 0.82923 0.0
C495 C 1.01209 0.51342 0.83734 0.0
H496 H 0.29605 0.84771 0.112 0.0
H497 H 0.35557 0.79816 0.14999 0.0
H498 H 0.36501 0.91301 0.10893 0.0
H499 H 0.42337 0.86344 0.14795 0.0
H500 H 0.53353 0.98561 0.15698 0.0
H501 H 0.48487 0.92126 0.13686 0.0
H502 H 0.39566 0.96838 0.13282 0.0
H503 H 0.4447 1.03251 0.15193 0.0
C504 C 0.32418 0.85041 0.11925 0.0
C505 C 0.32047 0.81853 0.1316 0.0
C506 C 0.36364 0.88781 0.11759 0.0
C507 C 0.39961 0.89443 0.12878 0.0
C508 C 0.39672 0.85996 0.13908 0.0
C509 C 0.35755 0.82232 0.14039 0.0
C510 C 0.5041 0.98261 0.15112 0.0
C511 C 0.49234 1.01344 0.15639 0.0
C512 C 0.47613 0.94574 0.13966 0.0
C513 C 0.43551 0.93867 0.13374 0.0
C514 C 0.42645 0.97225 0.13698 0.0
C515 C 0.45465 1.00928 0.14812 0.0
H516 H 0.6041 0.32228 0.4895 0.0
H517 H 0.66665 0.24985 0.47343 0.0
H518 H 0.67388 0.3869 0.49473 0.0
H519 H 0.73633 0.31478 0.47827 0.0
H520 H 0.82408 0.41167 0.53199 0.0
H521 H 0.76688 0.35185 0.51243 0.0
H522 H 0.7453 0.44062 0.48037 0.0
H523 H 0.80152 0.50035 0.50017 0.0
C524 C 0.63268 0.32044 0.48655 0.0
C525 C 0.62984 0.28089 0.48135 0.0
C526 C 0.67263 0.35748 0.48937 0.0
C527 C 0.71043 0.35555 0.48714 0.0
C528 C 0.70761 0.31687 0.4803 0.0
C529 C 0.66767 0.27985 0.47737 0.0
C530 C 0.808 0.41847 0.52037 0.0
C531 C 0.81693 0.46066 0.51783 0.0
C532 C 0.77556 0.38427 0.50903 0.0
C533 C 0.75156 0.39171 0.495 0.0
C534 C 0.7632 0.43409 0.49118 0.0
C535 C 0.7957 0.46828 0.50244 0.0
H536 H 0.39214 0.62274 0.81039 0.0
H537 H 0.52578 0.71945 0.81491 0.0
H538 H 0.37263 0.67801 0.81523 0.0
H539 H 0.50657 0.77541 0.81926 0.0
H540 H 0.44455 0.82223 0.86902 0.0
H541 H 0.47866 0.79302 0.84771 0.0
H542 H 0.36991 0.74054 0.80703 0.0
H543 H 0.33448 0.76676 0.82888 0.0
C544 C 0.41737 0.65603 0.81171 0.0
C545 C 0.46045 0.6668 0.81268 0.0
C546 C 0.40629 0.68794 0.81435 0.0
C547 C 0.43814 0.73132 0.81788 0.0
C548 C 0.48132 0.74233 0.81696 0.0
C549 C 0.49232 0.71034 0.81448 0.0
C550 C 0.42833 0.80546 0.85528 0.0
C551 C 0.38573 0.79483 0.85136 0.0
C552 C 0.44815 0.78901 0.84288 0.0
C553 C 0.42596 0.76256 0.82612 0.0
C554 C 0.38704 0.75931 0.82027 0.0
C555 C 0.36693 0.77507 0.83281 0.0
H556 H 0.81763 0.34289 0.15587 0.0
H557 H 0.88906 0.47086 0.18296 0.0
H558 H 0.75117 0.34005 0.16467 0.0
H559 H 0.82232 0.46909 0.19114 0.0
H560 H 0.70937 0.40046 0.23517 0.0
H561 H 0.77314 0.43328 0.2158 0.0
H562 H 0.69869 0.36062 0.16379 0.0
H563 H 0.636 0.32477 0.18336 0.0
C564 C 0.81898 0.37095 0.16317 0.0
C565 C 0.85834 0.40663 0.16912 0.0
C566 C 0.78082 0.36964 0.16808 0.0
C567 C 0.78121 0.40427 0.17886 0.0
C568 C 0.82077 0.44152 0.18324 0.0
C569 C 0.85896 0.44252 0.17858 0.0
C570 C 0.70632 0.39194 0.21953 0.0
C571 C 0.66794 0.35785 0.21124 0.0
C572 C 0.74298 0.41134 0.20828 0.0
C573 C 0.74146 0.39782 0.18839 0.0
C574 C 0.70131 0.37022 0.17929 0.0
C575 C 0.66494 0.35004 0.19062 0.0
H576 H 0.11952 0.6327 0.10492 0.0
H577 H 0.14496 0.52715 0.1025 0.0
H578 H 0.14204 0.64782 0.07121 0.0
H579 H 0.1687 0.54311 0.06871 0.0
H580 H 0.15856 0.55628 0.0016 0.0
H581 H 0.14066 0.54008 0.03587 0.0
H582 H 0.2056 0.67586 0.05217 0.0
H583 H 0.22148 0.69206 0.01779 0.0
C584 C 0.13005 0.61275 0.09721 0.0
C585 C 0.13033 0.57862 0.10637 0.0
C586 C 0.14337 0.62171 0.07791 0.0
C587 C 0.15758 0.59695 0.06732 0.0
C588 C 0.15762 0.56258 0.07643 0.0
C589 C 0.14408 0.55347 0.09578 0.0
C590 C 0.16892 0.58268 0.0125 0.0
C591 C 0.191 0.62547 0.00692 0.0
C592 C 0.15911 0.57337 0.03218 0.0
C593 C 0.17133 0.60667 0.04672 0.0
C594 C 0.19503 0.64945 0.04126 0.0
C595 C 0.20466 0.65876 0.02157 0.0
H596 H 0.59342 1.00398 0.43195 0.0
H597 H 0.52263 1.07141 0.43854 0.0
H598 H 0.59357 1.01089 0.39611 0.0
H599 H 0.52196 0.07728 0.40292 0.0
H600 H 0.49496 1.04206 0.33688 0.0
H601 H 0.49111 1.02225 0.37114 0.0
H602 H 0.62894 0.08357 0.37501 0.0
H603 H 0.6329 0.10406 0.34077 0.0
C604 C 0.57737 1.01961 0.42571 0.0
C605 C 0.55813 1.03731 0.43794 0.0
C606 C 0.57762 1.02368 0.4053 0.0
C607 C 0.55765 1.04446 0.39689 0.0
C608 C 0.53724 1.06082 0.40909 0.0
C609 C 0.53785 1.05766 0.42944 0.0
C610 C 0.52434 1.05062 0.34496 0.0
C611 C 0.56423 0.07469 0.3363 0.0
C612 C 0.52213 1.03942 0.36451 0.0
C613 C 0.55973 1.05141 0.37558 0.0
C614 C 0.59954 0.07371 0.36666 0.0
C615 C 0.6018 0.08564 0.3472 0.0
H616 H 0.72087 0.66363 0.7714 0.0
H617 H 0.64215 0.52544 0.76717 0.0
H618 H 0.75243 0.66176 0.74016 0.0
H619 H 0.67488 0.52335 0.73589 0.0
H620 H 0.71896 0.54609 0.67071 0.0
H621 H 0.68251 0.54207 0.70153 0.0
H622 H 0.80214 0.64095 0.72847 0.0
H623 H 0.838 0.64555 0.69762 0.0
C624 C 0.7102 0.63277 0.76373 0.0
C625 C 0.67918 0.59466 0.77178 0.0
C626 C 0.72861 0.63166 0.74588 0.0
C627 C 0.7169 0.59234 0.73569 0.0
C628 C 0.68459 0.55419 0.74335 0.0
C629 C 0.6658 0.55536 0.76123 0.0
C630 C 0.73746 0.56646 0.68335 0.0
C631 C 0.78121 0.59643 0.68175 0.0
C632 C 0.7166 0.56419 0.70099 0.0
C633 C 0.73921 0.59172 0.71738 0.0
C634 C 0.78345 0.62014 0.71598 0.0
C635 C 0.80412 0.62263 0.69836 0.0
H636 H 0.62256 1.02353 0.56118 0.0
H637 H 0.52749 1.06269 0.56703 0.0
H638 H 0.62887 1.02413 0.59684 0.0
H639 H 0.53521 1.06545 0.60279 0.0
H640 H 0.52956 1.03001 0.66636 0.0
H641 H 0.52077 1.02482 0.63057 0.0
H642 H 0.65593 1.06918 0.62516 0.0
H643 H 0.66392 1.07238 0.66091 0.0
C644 C 0.60328 1.03269 0.57012 0.0
C645 C 0.57456 1.04311 0.56127 0.0
C646 C 0.60708 1.03331 0.59063 0.0
C647 C 0.58274 1.04504 0.60287 0.0
C648 C 0.55399 1.0555 0.59394 0.0
C649 C 0.54972 1.05422 0.5734 0.0
C650 C 0.55727 1.03847 0.65745 0.0
C651 C 0.59739 1.05149 0.66639 0.0
C652 C 0.55237 1.0358 0.63691 0.0
C653 C 0.58764 1.04673 0.6248 0.0
C654 C 0.62779 1.05968 0.63387 0.0
C655 C 0.6325 1.0617 0.6544 0.0
H656 H 0.68566 0.59564 0.89929 0.0
H657 H 0.56127 0.58396 0.8907 0.0
H658 H 0.67481 0.58953 0.93437 0.0
H659 H 0.55016 0.57722 0.9263 0.0
H660 H 0.57408 0.61594 -0.00559 0.0
H661 H 0.57786 0.61911 0.95851 0.0
H662 H 0.63114 0.53486 0.95688 0.0
H663 H 0.6274 0.53169 0.99255 0.0
C664 C 0.6558 0.59162 0.90484 0.0
C665 C 0.62424 0.59012 0.89204 0.0
C666 C 0.64949 0.58781 0.92505 0.0
C667 C 0.61141 0.58236 0.93318 0.0
C668 C 0.57993 0.5815 0.92051 0.0
C669 C 0.58622 0.58519 0.90012 0.0
C670 C 0.5861 0.59767 0.98635 0.0
C671 C 0.60101 0.57403 -0.00358 0.0
C672 C 0.5882 0.59946 0.96576 0.0
C673 C 0.6053 0.57768 0.95482 0.0
C674 C 0.6187 0.55284 0.96487 0.0
C675 C 0.61662 0.55106 0.98536 0.0
H676 H 1.05523 0.4836 0.22716 0.0
H677 H 1.10713 0.62068 0.23508 0.0
H678 H 1.04591 0.477 0.26276 0.0
H679 H 1.09691 0.61376 0.27057 0.0
H680 H 1.02585 0.57127 0.32994 0.0
H681 H 1.03102 0.57535 0.29402 0.0
H682 H 1.10051 0.5063 0.29347 0.0
H683 H 1.09605 0.50295 0.3294 0.0
C684 C 1.06434 0.51225 0.23646 0.0
C685 C 1.08208 0.55269 0.2283 0.0
C686 C 1.05915 0.50845 0.25682 0.0
C687 C 1.07067 0.54487 0.26938 0.0
C688 C 1.08754 0.58515 0.2612 0.0
C689 C 1.09358 0.58909 0.2409 0.0
C690 C 1.04195 0.55675 0.32209 0.0
C691 C 1.0606 0.53684 0.3324 0.0
C692 C 1.0451 0.55928 0.30161 0.0
C693 C 1.06615 0.54112 0.29101 0.0
C694 C 1.0839 0.52033 0.30128 0.0
C695 C 1.08154 0.5186 0.3218 0.0
loop_
_geom_bond_atom_site_label_1
_geom_bond_atom_site_label_2
_geom_bond_distance
_geom_bond_site_symmetry_2
_ccdc_geom_bond_type
Eu0 C9 2.828 . S
Eu0 O11 2.392 1_655 S
Eu0 O13 2.418 . S
Eu0 O18 2.373 . S
Eu0 O21 2.488 . S
Eu0 O22 2.471 . S
Eu0 O23 2.349 . S
Eu1 O10 2.373 . S
Eu1 O14 2.488 . S
Eu1 O15 2.471 . S
Eu1 O16 2.349 . S
Eu1 O19 2.392 1_455 S
Eu1 O20 2.418 . S
Eu1 C30 2.828 . S
C2 O20 1.244 . S
C2 O23 1.265 1_455 S
C3 C4 1.379 . S
C3 C7 1.373 . S
C3 C9 1.505 . S
C4 C3 1.379 . S
C4 C6 1.369 . S
C4 H32 0.930 . S
C5 C7 1.383 . S
C5 C8 1.382 . S
C5 H33 0.930 . S
C6 C4 1.369 . S
C6 C8 1.392 . S
C6 H34 0.930 . S
C7 C3 1.373 . S
C7 C5 1.383 . S
C7 H35 0.931 . S
C8 C5 1.382 . S
C8 C6 1.392 . S
C9 Eu0 2.828 . S
C9 C3 1.505 . S
C9 O21 1.249 . S
C9 O22 1.244 . S
O10 Eu1 2.373 . S
O10 C12 1.258 . S
O11 Eu0 2.392 1_455 S
O11 C12 1.242 . S
C12 O10 1.258 . S
C12 O11 1.242 . S
O13 Eu0 2.418 . S
O13 C17 1.242 1_655 S
O14 Eu1 2.488 . S
O14 C30 1.249 . S
O15 Eu1 2.471 . S
O15 C30 1.244 . S
O16 Eu1 2.349 . S
O16 C17 1.267 . S
C17 O13 1.242 1_455 S
C17 O16 1.267 . S
O18 Eu0 2.373 . S
O18 C31 1.258 . S
O19 Eu1 2.392 1_655 S
O19 C31 1.242 . S
O20 Eu1 2.418 . S
O20 C2 1.244 . S
O21 Eu0 2.488 . S
O21 C9 1.249 . S
O22 Eu0 2.471 . S
O22 C9 1.244 . S
O23 Eu0 2.349 . S
O23 C2 1.265 1_655 S
C24 C25 1.379 . S
C24 C28 1.373 . S
C24 C30 1.505 . S
C25 C24 1.379 . S
C25 C27 1.369 . S
C25 H36 0.930 . S
C26 C28 1.383 . S
C26 C29 1.382 . S
C26 H37 0.930 . S
C27 C25 1.369 . S
C27 C29 1.392 . S
C27 H38 0.930 . S
C28 C24 1.373 . S
C28 C26 1.383 . S
C28 H39 0.931 . S
C29 C26 1.382 . S
C29 C27 1.392 . S
C30 Eu1 2.828 . S
C30 O14 1.249 . S
C30 O15 1.244 . S
C30 C24 1.505 . S
C31 O18 1.258 . S
C31 O19 1.242 . S
H32 C4 0.930 . S
H33 C5 0.930 . S
H34 C6 0.930 . S
H35 C7 0.931 . S
H36 C25 0.930 . S
H37 C26 0.930 . S
H38 C27 0.930 . S
H39 C28 0.931 . S
Eu40 C49 2.828 . S
Eu40 O51 2.392 1_565 S
Eu40 O53 2.418 . S
Eu40 O58 2.373 . S
Eu40 O61 2.488 . S
Eu40 O62 2.471 . S
Eu40 O63 2.348 . S
Eu41 O50 2.373 . S
Eu41 O54 2.488 . S
Eu41 O55 2.471 . S
Eu41 O56 2.349 . S
Eu41 O59 2.392 1_545 S
Eu41 O60 2.418 . S
Eu41 C70 2.828 . S
C42 O60 1.244 . S
C42 O63 1.266 1_545 S
C43 C44 1.379 . S
C43 C47 1.373 . S
C43 C49 1.505 . S
C44 C43 1.379 . S
C44 C46 1.369 . S
C44 H72 0.930 . S
C45 C47 1.383 . S
C45 C48 1.382 . S
C45 H73 0.930 . S
C46 C44 1.369 . S
C46 C48 1.392 . S
C46 H74 0.930 . S
C47 C43 1.373 . S
C47 C45 1.383 . S
C47 H75 0.931 . S
C48 C45 1.382 . S
C48 C46 1.392 . S
C49 Eu40 2.828 . S
C49 C43 1.505 . S
C49 O61 1.249 . S
C49 O62 1.244 . S
O50 Eu41 2.373 . S
O50 C52 1.258 . S
O51 Eu40 2.392 1_545 S
O51 C52 1.242 . S
C52 O50 1.258 . S
C52 O51 1.242 . S
O53 Eu40 2.418 . S
O53 C57 1.244 1_565 S
O54 Eu41 2.488 . S
O54 C70 1.249 . S
O55 Eu41 2.471 . S
O55 C70 1.244 . S
O56 Eu41 2.349 . S
O56 C57 1.265 . S
C57 O53 1.244 1_545 S
C57 O56 1.265 . S
O58 Eu40 2.373 . S
O58 C71 1.258 . S
O59 Eu41 2.392 1_565 S
O59 C71 1.242 . S
O60 Eu41 2.418 . S
O60 C42 1.244 . S
O61 Eu40 2.488 . S
O61 C49 1.249 . S
O62 Eu40 2.471 . S
O62 C49 1.244 . S
O63 Eu40 2.348 . S
O63 C42 1.266 1_565 S
C64 C65 1.379 . S
C64 C68 1.373 . S
C64 C70 1.505 . S
C65 C64 1.379 . S
C65 C67 1.369 . S
C65 H76 0.930 . S
C66 C68 1.383 . S
C66 C69 1.382 . S
C66 H77 0.930 . S
C67 C65 1.369 . S
C67 C69 1.392 . S
C67 H78 0.930 . S
C68 C64 1.373 . S
C68 C66 1.383 . S
C68 H79 0.931 . S
C69 C66 1.382 . S
C69 C67 1.392 . S
C70 Eu41 2.828 . S
C70 O54 1.249 . S
C70 O55 1.244 . S
C70 C64 1.505 . S
C71 O58 1.258 . S
C71 O59 1.242 . S
H72 C44 0.930 . S
H73 C45 0.930 . S
H74 C46 0.930 . S
H75 C47 0.931 . S
H76 C65 0.930 . S
H77 C66 0.930 . S
H78 C67 0.930 . S
H79 C68 0.931 . S
Eu80 C89 2.828 . S
Eu80 O91 2.392 . S
Eu80 O93 2.418 . S
Eu80 O98 2.373 . S
Eu80 O101 2.488 . S
Eu80 O102 2.471 . S
Eu80 O103 2.349 . S
Eu81 O90 2.373 . S
Eu81 O94 2.488 . S
Eu81 O95 2.471 . S
Eu81 O96 2.349 . S
Eu81 O99 2.392 . S
Eu81 O100 2.418 . S
Eu81 C110 2.828 . S
C82 O100 1.244 . S
C82 O103 1.265 . S
C83 C84 1.379 . S
C83 C87 1.373 . S
C83 C89 1.505 . S
C84 C83 1.379 . S
C84 C86 1.369 . S
C84 H112 0.930 . S
C85 C87 1.383 . S
C85 C88 1.382 . S
C85 H113 0.930 . S
C86 C84 1.369 . S
C86 C88 1.392 . S
C86 H114 0.930 . S
C87 C83 1.373 . S
C87 C85 1.383 . S
C87 H115 0.931 . S
C88 C85 1.382 . S
C88 C86 1.392 . S
C89 Eu80 2.828 . S
C89 C83 1.505 . S
C89 O101 1.249 . S
C89 O102 1.244 . S
O90 Eu81 2.373 . S
O90 C92 1.258 . S
O91 Eu80 2.392 . S
O91 C92 1.242 . S
C92 O90 1.258 . S
C92 O91 1.242 . S
O93 Eu80 2.418 . S
O93 C97 1.244 . S
O94 Eu81 2.488 . S
O94 C110 1.249 . S
O95 Eu81 2.471 . S
O95 C110 1.244 . S
O96 Eu81 2.349 . S
O96 C97 1.265 . S
C97 O93 1.244 . S
C97 O96 1.265 . S
O98 Eu80 2.373 . S
O98 C111 1.258 . S
O99 Eu81 2.392 . S
O99 C111 1.242 . S
O100 Eu81 2.418 . S
O100 C82 1.244 . S
O101 Eu80 2.488 . S
O101 C89 1.249 . S
O102 Eu80 2.471 . S
O102 C89 1.244 . S
O103 Eu80 2.349 . S
O103 C82 1.265 . S
C104 C105 1.379 . S
C104 C108 1.373 . S
C104 C110 1.505 . S
C105 C104 1.379 . S
C105 C107 1.369 . S
C105 H116 0.930 . S
C106 C108 1.383 . S
C106 C109 1.382 . S
C106 H117 0.930 . S
C107 C105 1.369 . S
C107 C109 1.392 . S
C107 H118 0.930 . S
C108 C104 1.373 . S
C108 C106 1.383 . S
C108 H119 0.931 . S
C109 C106 1.382 . S
C109 C107 1.392 . S
C110 Eu81 2.828 . S
C110 O94 1.249 . S
C110 O95 1.244 . S
C110 C104 1.505 . S
C111 O98 1.258 . S
C111 O99 1.242 . S
H112 C84 0.930 . S
H113 C85 0.930 . S
H114 C86 0.930 . S
H115 C87 0.931 . S
H116 C105 0.930 . S
H117 C106 0.930 . S
H118 C107 0.930 . S
H119 C108 0.931 . S
C120 C121 1.384 . S
C120 H133 0.947 . S
C120 C155 1.382 . S
C121 C120 1.384 . S
C121 C122 1.378 . S
C122 C121 1.378 . S
C122 C123 1.378 . S
C122 H134 0.952 . S
C123 C122 1.378 . S
C123 H135 0.950 . S
C123 C154 1.383 . S
H124 C143 0.947 . S
H125 C144 0.946 . S
H126 C146 0.953 . S
H127 C147 0.945 . S
H128 C149 0.952 . S
H129 C150 0.949 . S
H130 C152 0.950 . S
H131 C153 0.948 . S
H132 C155 0.951 . S
H133 C120 0.947 . S
H134 C122 0.952 . S
H135 C123 0.950 . S
N136 C139 1.382 . S
N136 C141 1.363 1_545 S
N137 C139 1.371 . S
N137 C140 1.372 . S
N138 C140 1.361 1_565 S
N138 C141 1.377 . S
C139 N136 1.382 . S
C139 N137 1.371 . S
C139 C142 1.480 . S
C140 N137 1.372 . S
C140 N138 1.361 1_545 S
C140 C148 1.457 . S
C141 N136 1.363 1_565 S
C141 N138 1.377 . S
C141 C154 1.479 . S
C142 C139 1.480 . S
C142 C143 1.383 . S
C142 C147 1.385 . S
C143 H124 0.947 . S
C143 C142 1.383 . S
C143 C144 1.388 . S
C144 H125 0.946 . S
C144 C143 1.388 . S
C144 C145 1.384 . S
C145 C144 1.384 . S
C145 C146 1.377 . S
C146 H126 0.953 . S
C146 C145 1.377 . S
C146 C147 1.369 . S
C147 H127 0.945 . S
C147 C142 1.385 . S
C147 C146 1.369 . S
C148 C140 1.457 . S
C148 C149 1.372 . S
C148 C153 1.364 1_545 S
C149 H128 0.952 . S
C149 C148 1.372 . S
C149 C150 1.389 . S
C150 H129 0.949 . S
C150 C149 1.389 . S
C150 C151 1.387 . S
C151 C150 1.387 . S
C151 C152 1.372 1_545 S
C152 H130 0.950 . S
C152 C151 1.372 1_565 S
C152 C153 1.379 . S
C153 H131 0.948 . S
C153 C148 1.364 1_565 S
C153 C152 1.379 . S
C154 C123 1.383 . S
C154 C141 1.479 . S
C154 C155 1.398 . S
C155 C120 1.382 . S
C155 H132 0.951 . S
C155 C154 1.398 . S
C156 C157 1.384 . S
C156 H169 0.947 . S
C156 C191 1.382 . S
C157 C156 1.384 . S
C157 C158 1.378 . S
C158 C157 1.378 . S
C158 C159 1.378 . S
C158 H170 0.952 . S
C159 C158 1.378 . S
C159 H171 0.950 . S
C159 C190 1.383 . S
H160 C179 0.947 . S
H161 C180 0.946 . S
H162 C182 0.953 . S
H163 C183 0.945 . S
H164 C185 0.952 . S
H165 C186 0.949 . S
H166 C188 0.950 . S
H167 C189 0.948 . S
H168 C191 0.951 . S
H169 C156 0.947 . S
H170 C158 0.952 . S
H171 C159 0.950 . S
N172 C175 1.382 . S
N172 C177 1.363 . S
N173 C175 1.371 . S
N173 C176 1.372 . S
N174 C176 1.361 . S
N174 C177 1.377 . S
C175 N172 1.382 . S
C175 N173 1.371 . S
C175 C178 1.480 . S
C176 N173 1.372 . S
C176 N174 1.361 . S
C176 C184 1.457 . S
C177 N172 1.363 . S
C177 N174 1.377 . S
C177 C190 1.479 . S
C178 C175 1.480 . S
C178 C179 1.383 . S
C178 C183 1.385 . S
C179 H160 0.947 . S
C179 C178 1.383 . S
C179 C180 1.388 . S
C180 H161 0.946 . S
C180 C179 1.388 . S
C180 C181 1.384 . S
C181 C180 1.384 . S
C181 C182 1.377 . S
C182 H162 0.953 . S
C182 C181 1.377 . S
C182 C183 1.369 . S
C183 H163 0.945 . S
C183 C178 1.385 . S
C183 C182 1.369 . S
C184 C176 1.457 . S
C184 C185 1.372 . S
C184 C189 1.364 . S
C185 H164 0.952 . S
C185 C184 1.372 . S
C185 C186 1.389 . S
C186 H165 0.949 . S
C186 C185 1.389 . S
C186 C187 1.387 . S
C187 C186 1.387 . S
C187 C188 1.372 . S
C188 H166 0.950 . S
C188 C187 1.372 . S
C188 C189 1.379 . S
C189 H167 0.948 . S
C189 C184 1.364 . S
C189 C188 1.379 . S
C190 C159 1.383 . S
C190 C177 1.479 . S
C190 C191 1.398 . S
C191 C156 1.382 . S
C191 H168 0.951 . S
C191 C190 1.398 . S
C192 C193 1.384 . S
C192 H205 0.947 . S
C192 C227 1.382 . S
C193 C192 1.384 . S
C193 C194 1.378 . S
C194 C193 1.378 . S
C194 C195 1.378 . S
C194 H206 0.952 . S
C195 C194 1.378 . S
C195 H207 0.950 . S
C195 C226 1.383 . S
H196 C215 0.947 . S
H197 C216 0.946 . S
H198 C218 0.953 . S
H199 C219 0.945 . S
H200 C221 0.952 . S
H201 C222 0.949 . S
H202 C224 0.950 1_655 S
H203 C225 0.941 1_655 S
H204 C227 0.951 . S
H205 C192 0.947 . S
H206 C194 0.952 . S
H207 C195 0.950 . S
N208 C211 1.382 . S
N208 C213 1.363 . S
N209 C211 1.371 . S
N209 C212 1.372 . S
N210 C212 1.361 . S
N210 C213 1.377 . S
C211 N208 1.382 . S
C211 N209 1.371 . S
C211 C214 1.480 . S
C212 N209 1.372 . S
C212 N210 1.361 . S
C212 C220 1.457 . S
C213 N208 1.363 . S
C213 N210 1.377 . S
C213 C226 1.479 1_455 S
C214 C211 1.480 . S
C214 C215 1.383 . S
C214 C219 1.385 . S
C215 H196 0.947 . S
C215 C214 1.383 . S
C215 C216 1.388 . S
C216 H197 0.946 . S
C216 C215 1.388 . S
C216 C217 1.384 . S
C217 C216 1.384 . S
C217 C218 1.377 . S
C218 H198 0.953 . S
C218 C217 1.377 . S
C218 C219 1.369 . S
C219 H199 0.945 . S
C219 C214 1.385 . S
C219 C218 1.369 . S
C220 C212 1.457 . S
C220 C221 1.372 . S
C220 C225 1.372 . S
C221 H200 0.952 . S
C221 C220 1.372 . S
C221 C222 1.389 . S
C222 H201 0.949 . S
C222 C221 1.389 . S
C222 C223 1.387 . S
C223 C222 1.387 . S
C223 C224 1.372 . S
C224 H202 0.950 1_455 S
C224 C223 1.372 . S
C224 C225 1.379 . S
C225 H203 0.941 1_455 S
C225 C220 1.372 . S
C225 C224 1.379 . S
C226 C195 1.383 . S
C226 C213 1.479 1_655 S
C226 C227 1.398 . S
C227 C192 1.382 . S
C227 H204 0.951 . S
C227 C226 1.398 . S
C228 C229 1.384 . S
C228 H241 0.947 . S
C228 C263 1.382 . S
C229 C228 1.384 . S
C229 C230 1.378 . S
C230 C229 1.378 . S
C230 C231 1.378 . S
C230 H242 0.952 . S
C231 C230 1.378 . S
C231 H243 0.950 . S
C231 C262 1.383 . S
H232 C251 0.947 . S
H233 C252 0.946 . S
H234 C254 0.953 . S
H235 C255 0.945 . S
H236 C257 0.952 . S
H237 C258 0.949 . S
H238 C260 0.950 . S
H239 C261 0.948 . S
H240 C263 0.951 . S
H241 C228 0.947 . S
H242 C230 0.952 . S
H243 C231 0.950 . S
N244 C247 1.382 1_455 S
N244 C249 1.363 . S
N245 C247 1.371 . S
N245 C248 1.372 1_655 S
N246 C248 1.361 . S
N246 C249 1.377 . S
C247 N244 1.382 1_655 S
C247 N245 1.371 . S
C247 C250 1.480 . S
C248 N245 1.372 1_455 S
C248 N246 1.361 . S
C248 C256 1.457 . S
C249 N244 1.363 . S
C249 N246 1.377 . S
C249 C262 1.479 . S
C250 C247 1.480 . S
C250 C251 1.383 . S
C250 C255 1.385 . S
C251 H232 0.947 . S
C251 C250 1.383 . S
C251 C252 1.388 . S
C252 H233 0.946 . S
C252 C251 1.388 . S
C252 C253 1.384 . S
C253 C252 1.384 . S
C253 C254 1.377 . S
C254 H234 0.953 . S
C254 C253 1.377 . S
C254 C255 1.369 . S
C255 H235 0.945 . S
C255 C250 1.385 . S
C255 C254 1.369 . S
C256 C248 1.457 . S
C256 C257 1.372 1_455 S
C256 C261 1.364 . S
C257 H236 0.952 . S
C257 C256 1.372 1_655 S
C257 C258 1.389 . S
C258 H237 0.949 . S
C258 C257 1.389 . S
C258 C259 1.387 1_655 S
C259 C258 1.387 1_455 S
C259 C260 1.372 . S
C260 H238 0.950 . S
C260 C259 1.372 . S
C260 C261 1.379 . S
C261 H239 0.948 . S
C261 C256 1.364 . S
C261 C260 1.379 . S
C262 C231 1.383 . S
C262 C249 1.479 . S
C262 C263 1.398 . S
C263 C228 1.382 . S
C263 H240 0.951 . S
C263 C262 1.398 . S
C264 C265 1.384 . S
C264 H277 0.947 . S
C264 C299 1.382 . S
C265 C264 1.384 . S
C265 C266 1.378 . S
C266 C265 1.378 . S
C266 C267 1.378 . S
C266 H278 0.952 . S
C267 C266 1.378 . S
C267 H279 0.950 . S
C267 C298 1.383 . S
H268 C287 0.947 . S
H269 C288 0.946 . S
H270 C290 0.953 . S
H271 C291 0.945 . S
H272 C293 0.952 . S
H273 C294 0.949 . S
H274 C296 0.950 . S
H275 C297 0.948 . S
H276 C299 0.951 . S
H277 C264 0.947 . S
H278 C266 0.952 . S
H279 C267 0.950 . S
N280 C283 1.382 1_545 S
N280 C285 1.363 . S
N281 C283 1.371 . S
N281 C284 1.372 1_565 S
N282 C284 1.361 . S
N282 C285 1.377 . S
C283 N280 1.382 1_565 S
C283 N281 1.371 . S
C283 C286 1.480 . S
C284 N281 1.372 1_545 S
C284 N282 1.361 . S
C284 C292 1.457 . S
C285 N280 1.363 . S
C285 N282 1.377 . S
C285 C298 1.479 . S
C286 C283 1.480 . S
C286 C287 1.383 . S
C286 C291 1.385 . S
C287 H268 0.947 . S
C287 C286 1.383 . S
C287 C288 1.388 . S
C288 H269 0.946 . S
C288 C287 1.388 . S
C288 C289 1.384 . S
C289 C288 1.384 . S
C289 C290 1.377 . S
C290 H270 0.953 . S
C290 C289 1.377 . S
C290 C291 1.369 . S
C291 H271 0.945 . S
C291 C286 1.385 . S
C291 C290 1.369 . S
C292 C284 1.457 . S
C292 C293 1.372 1_545 S
C292 C297 1.364 . S
C293 H272 0.952 . S
C293 C292 1.372 1_565 S
C293 C294 1.389 . S
C294 H273 0.949 . S
C294 C293 1.389 . S
C294 C295 1.387 1_565 S
C295 C294 1.387 1_545 S
C295 C296 1.372 . S
C296 H274 0.950 . S
C296 C295 1.372 . S
C296 C297 1.379 . S
C297 H275 0.948 . S
C297 C292 1.364 . S
C297 C296 1.379 . S
C298 C267 1.383 . S
C298 C285 1.479 . S
C298 C299 1.398 . S
C299 C264 1.382 . S
C299 H276 0.951 . S
C299 C298 1.398 . S
C300 C301 1.384 . S
C300 H313 0.947 . S
C300 C335 1.382 . S
C301 C300 1.384 . S
C301 C302 1.378 . S
C302 C301 1.378 . S
C302 C303 1.378 . S
C302 H314 0.952 . S
C303 C302 1.378 . S
C303 H315 0.950 . S
C303 C334 1.383 . S
H304 C323 0.947 . S
H305 C324 0.946 . S
H306 C326 0.953 . S
H307 C327 0.945 . S
H308 C329 0.952 . S
H309 C330 0.949 . S
H310 C332 0.950 . S
H311 C333 0.948 . S
H312 C335 0.951 . S
H313 C300 0.947 . S
H314 C302 0.952 . S
H315 C303 0.950 . S
N316 C319 1.382 . S
N316 C321 1.363 . S
N317 C319 1.371 . S
N317 C320 1.372 . S
N318 C320 1.361 . S
N318 C321 1.377 . S
C319 N316 1.382 . S
C319 N317 1.371 . S
C319 C322 1.480 . S
C320 N317 1.372 . S
C320 N318 1.361 . S
C320 C328 1.457 . S
C321 N316 1.363 . S
C321 N318 1.377 . S
C321 C334 1.479 . S
C322 C319 1.480 . S
C322 C323 1.383 . S
C322 C327 1.385 . S
C323 H304 0.947 . S
C323 C322 1.383 . S
C323 C324 1.388 . S
C324 H305 0.946 . S
C324 C323 1.388 . S
C324 C325 1.384 . S
C325 C324 1.384 . S
C325 C326 1.377 . S
C326 H306 0.953 . S
C326 C325 1.377 . S
C326 C327 1.369 . S
C327 H307 0.945 . S
C327 C322 1.385 . S
C327 C326 1.369 . S
C328 C320 1.457 . S
C328 C329 1.372 . S
C328 C333 1.364 . S
C329 H308 0.952 . S
C329 C328 1.372 . S
C329 C330 1.389 . S
C330 H309 0.949 . S
C330 C329 1.389 . S
C330 C331 1.387 . S
C331 C330 1.387 . S
C331 C332 1.372 . S
C332 H310 0.950 . S
C332 C331 1.372 . S
C332 C333 1.379 . S
C333 H311 0.948 . S
C333 C328 1.364 . S
C333 C332 1.379 . S
C334 C303 1.383 . S
C334 C321 1.479 . S
C334 C335 1.398 . S
C335 C300 1.382 . S
C335 H312 0.951 . S
C335 C334 1.398 . S
H336 C344 0.950 . S
H337 C349 0.950 . S
H338 C346 0.950 . S
H339 C348 0.950 . S
H340 C350 0.950 . S
H341 C352 0.950 . S
H342 C354 0.950 . S
H343 C355 0.950 . S
C344 H336 0.950 . S
C344 C345 1.386 . S
C344 C346 1.391 . S
C345 C344 1.386 . S
C345 C349 1.393 . S
C346 H338 0.950 . S
C346 C344 1.391 . S
C346 C347 1.400 . S
C347 C346 1.400 . S
C347 C348 1.398 . S
C347 C353 1.491 . S
C348 H339 0.950 . S
C348 C347 1.398 . S
C348 C349 1.391 . S
C349 H337 0.950 . S
C349 C345 1.393 . S
C349 C348 1.391 . S
C350 H340 0.950 . S
C350 C351 1.386 . S
C350 C352 1.391 . S
C351 C350 1.386 . S
C351 C355 1.393 . S
C352 H341 0.950 . S
C352 C350 1.391 . S
C352 C353 1.400 . S
C353 C347 1.491 . S
C353 C352 1.400 . S
C353 C354 1.398 . S
C354 H342 0.950 . S
C354 C353 1.398 . S
C354 C355 1.391 . S
C355 H343 0.950 . S
C355 C351 1.393 . S
C355 C354 1.391 . S
H356 C364 0.950 . S
H357 C369 0.950 . S
H358 C366 0.950 . S
H359 C368 0.950 . S
H360 C370 0.950 . S
H361 C372 0.950 . S
H362 C374 0.950 . S
H363 C375 0.950 . S
C364 H356 0.950 . S
C364 C365 1.386 . S
C364 C366 1.391 . S
C365 C364 1.386 . S
C365 C369 1.393 . S
C366 H358 0.950 . S
C366 C364 1.391 . S
C366 C367 1.400 . S
C367 C366 1.400 . S
C367 C368 1.398 . S
C367 C373 1.491 . S
C368 H359 0.950 . S
C368 C367 1.398 . S
C368 C369 1.391 . S
C369 H357 0.950 . S
C369 C365 1.393 . S
C369 C368 1.391 . S
C370 H360 0.950 . S
C370 C371 1.386 . S
C370 C372 1.391 . S
C371 C370 1.386 . S
C371 C375 1.393 . S
C372 H361 0.950 . S
C372 C370 1.391 . S
C372 C373 1.400 . S
C373 C367 1.491 . S
C373 C372 1.400 . S
C373 C374 1.398 . S
C374 H362 0.950 . S
C374 C373 1.398 . S
C374 C375 1.391 . S
C375 H363 0.950 . S
C375 C371 1.393 . S
C375 C374 1.391 . S
H376 C384 0.950 . S
H377 C389 0.950 . S
H378 C386 0.950 . S
H379 C388 0.950 . S
H380 C390 0.950 . S
H381 C392 0.950 . S
H382 C394 0.950 . S
H383 C395 0.950 . S
C384 H376 0.950 . S
C384 C385 1.386 . S
C384 C386 1.391 . S
C385 C384 1.386 . S
C385 C389 1.393 . S
C386 H378 0.950 . S
C386 C384 1.391 . S
C386 C387 1.400 . S
C387 C386 1.400 . S
C387 C388 1.398 . S
C387 C393 1.491 . S
C388 H379 0.950 . S
C388 C387 1.398 . S
C388 C389 1.391 . S
C389 H377 0.950 . S
C389 C385 1.393 . S
C389 C388 1.391 . S
C390 H380 0.950 . S
C390 C391 1.386 . S
C390 C392 1.391 . S
C391 C390 1.386 . S
C391 C395 1.393 . S
C392 H381 0.950 . S
C392 C390 1.391 . S
C392 C393 1.400 . S
C393 C387 1.491 . S
C393 C392 1.400 . S
C393 C394 1.398 . S
C394 H382 0.950 . S
C394 C393 1.398 . S
C394 C395 1.391 . S
C395 H383 0.950 . S
C395 C391 1.393 . S
C395 C394 1.391 . S
H396 C404 0.950 . S
H397 C409 0.950 . S
H398 C406 0.950 . S
H399 C408 0.950 . S
H400 C410 0.950 . S
H401 C412 0.950 . S
H402 C414 0.950 . S
H403 C415 0.950 . S
C404 H396 0.950 . S
C404 C405 1.386 . S
C404 C406 1.391 . S
C405 C404 1.386 . S
C405 C409 1.393 . S
C406 H398 0.950 . S
C406 C404 1.391 . S
C406 C407 1.400 . S
C407 C406 1.400 . S
C407 C408 1.398 . S
C407 C413 1.491 . S
C408 H399 0.950 . S
C408 C407 1.398 . S
C408 C409 1.391 . S
C409 H397 0.950 . S
C409 C405 1.393 . S
C409 C408 1.391 . S
C410 H400 0.950 . S
C410 C411 1.386 . S
C410 C412 1.391 . S
C411 C410 1.386 . S
C411 C415 1.393 . S
C412 H401 0.950 . S
C412 C410 1.391 . S
C412 C413 1.400 . S
C413 C407 1.491 . S
C413 C412 1.400 . S
C413 C414 1.398 . S
C414 H402 0.950 . S
C414 C413 1.398 . S
C414 C415 1.391 . S
C415 H403 0.950 . S
C415 C411 1.393 . S
C415 C414 1.391 . S
H416 C424 0.950 . S
H417 C429 0.950 . S
H418 C426 0.950 . S
H419 C428 0.950 . S
H420 C430 0.950 . S
H421 C432 0.950 . S
H422 C434 0.950 . S
H423 C435 0.950 . S
C424 H416 0.950 . S
C424 C425 1.386 . S
C424 C426 1.391 . S
C425 C424 1.386 . S
C425 C429 1.393 . S
C426 H418 0.950 . S
C426 C424 1.391 . S
C426 C427 1.400 . S
C427 C426 1.400 . S
C427 C428 1.398 . S
C427 C433 1.491 . S
C428 H419 0.950 . S
C428 C427 1.398 . S
C428 C429 1.391 . S
C429 H417 0.950 . S
C429 C425 1.393 . S
C429 C428 1.391 . S
C430 H420 0.950 . S
C430 C431 1.386 . S
C430 C432 1.391 . S
C431 C430 1.386 . S
C431 C435 1.393 . S
C432 H421 0.950 . S
C432 C430 1.391 . S
C432 C433 1.400 . S
C433 C427 1.491 . S
C433 C432 1.400 . S
C433 C434 1.398 . S
C434 H422 0.950 . S
C434 C433 1.398 . S
C434 C435 1.391 . S
C435 H423 0.950 . S
C435 C431 1.393 . S
C435 C434 1.391 . S
H436 C444 0.950 . S
H437 C449 0.950 . S
H438 C446 0.950 . S
H439 C448 0.950 . S
H440 C450 0.950 . S
H441 C452 0.950 . S
H442 C454 0.950 . S
H443 C455 0.950 . S
C444 H436 0.950 . S
C444 C445 1.386 . S
C444 C446 1.391 . S
C445 C444 1.386 . S
C445 C449 1.393 . S
C446 H438 0.950 . S
C446 C444 1.391 . S
C446 C447 1.400 . S
C447 C446 1.400 . S
C447 C448 1.398 . S
C447 C453 1.491 . S
C448 H439 0.950 . S
C448 C447 1.398 . S
C448 C449 1.391 . S
C449 H437 0.950 . S
C449 C445 1.393 . S
C449 C448 1.391 . S
C450 H440 0.950 . S
C450 C451 1.386 . S
C450 C452 1.391 . S
C451 C450 1.386 . S
C451 C455 1.393 . S
C452 H441 0.950 . S
C452 C450 1.391 . S
C452 C453 1.400 . S
C453 C447 1.491 . S
C453 C452 1.400 . S
C453 C454 1.398 . S
C454 H442 0.950 . S
C454 C453 1.398 . S
C454 C455 1.391 . S
C455 H443 0.950 . S
C455 C451 1.393 . S
C455 C454 1.391 . S
H456 C464 0.950 . S
H457 C469 0.950 . S
H458 C466 0.950 . S
H459 C468 0.950 . S
H460 C470 0.950 . S
H461 C472 0.950 . S
H462 C474 0.950 . S
H463 C475 0.950 . S
C464 H456 0.950 . S
C464 C465 1.386 . S
C464 C466 1.391 . S
C465 C464 1.386 . S
C465 C469 1.393 . S
C466 H458 0.950 . S
C466 C464 1.391 . S
C466 C467 1.400 . S
C467 C466 1.400 . S
C467 C468 1.398 . S
C467 C473 1.491 . S
C468 H459 0.950 . S
C468 C467 1.398 . S
C468 C469 1.391 . S
C469 H457 0.950 . S
C469 C465 1.393 . S
C469 C468 1.391 . S
C470 H460 0.950 . S
C470 C471 1.386 . S
C470 C472 1.391 . S
C471 C470 1.386 . S
C471 C475 1.393 . S
C472 H461 0.950 . S
C472 C470 1.391 . S
C472 C473 1.400 . S
C473 C467 1.491 . S
C473 C472 1.400 . S
C473 C474 1.398 . S
C474 H462 0.950 . S
C474 C473 1.398 . S
C474 C475 1.391 . S
C475 H463 0.950 . S
C475 C471 1.393 . S
C475 C474 1.391 . S
H476 C484 0.950 . S
H477 C489 0.950 . S
H478 C486 0.950 . S
H479 C488 0.950 . S
H480 C490 0.950 . S
H481 C492 0.950 . S
H482 C494 0.950 . S
H483 C495 0.950 . S
C484 H476 0.950 . S
C484 C485 1.386 . S
C484 C486 1.391 . S
C485 C484 1.386 . S
C485 C489 1.393 . S
C486 H478 0.950 . S
C486 C484 1.391 . S
C486 C487 1.400 . S
C487 C486 1.400 . S
C487 C488 1.398 . S
C487 C493 1.491 . S
C488 H479 0.950 . S
C488 C487 1.398 . S
C488 C489 1.391 . S
C489 H477 0.950 . S
C489 C485 1.393 . S
C489 C488 1.391 . S
C490 H480 0.950 . S
C490 C491 1.386 . S
C490 C492 1.391 . S
C491 C490 1.386 . S
C491 C495 1.393 . S
C492 H481 0.950 . S
C492 C490 1.391 . S
C492 C493 1.400 . S
C493 C487 1.491 . S
C493 C492 1.400 . S
C493 C494 1.398 . S
C494 H482 0.950 . S
C494 C493 1.398 . S
C494 C495 1.391 . S
C495 H483 0.950 . S
C495 C491 1.393 . S
C495 C494 1.391 . S
H496 C504 0.950 . S
H497 C509 0.950 . S
H498 C506 0.950 . S
H499 C508 0.950 . S
H500 C510 0.950 . S
H501 C512 0.950 . S
H502 C514 0.950 . S
H503 C515 0.950 . S
C504 H496 0.950 . S
C504 C505 1.386 . S
C504 C506 1.391 . S
C505 C504 1.386 . S
C505 C509 1.393 . S
C506 H498 0.950 . S
C506 C504 1.391 . S
C506 C507 1.400 . S
C507 C506 1.400 . S
C507 C508 1.398 . S
C507 C513 1.491 . S
C508 H499 0.950 . S
C508 C507 1.398 . S
C508 C509 1.391 . S
C509 H497 0.950 . S
C509 C505 1.393 . S
C509 C508 1.391 . S
C510 H500 0.950 . S
C510 C511 1.386 . S
C510 C512 1.391 . S
C511 C510 1.386 . S
C511 C515 1.393 . S
C512 H501 0.950 . S
C512 C510 1.391 . S
C512 C513 1.400 . S
C513 C507 1.491 . S
C513 C512 1.400 . S
C513 C514 1.398 . S
C514 H502 0.950 . S
C514 C513 1.398 . S
C514 C515 1.391 . S
C515 H503 0.950 . S
C515 C511 1.393 . S
C515 C514 1.391 . S
H516 C524 0.950 . S
H517 C529 0.950 . S
H518 C526 0.950 . S
H519 C528 0.950 . S
H520 C530 0.950 . S
H521 C532 0.950 . S
H522 C534 0.950 . S
H523 C535 0.950 . S
C524 H516 0.950 . S
C524 C525 1.386 . S
C524 C526 1.391 . S
C525 C524 1.386 . S
C525 C529 1.393 . S
C526 H518 0.950 . S
C526 C524 1.391 . S
C526 C527 1.400 . S
C527 C526 1.400 . S
C527 C528 1.398 . S
C527 C533 1.491 . S
C528 H519 0.950 . S
C528 C527 1.398 . S
C528 C529 1.391 . S
C529 H517 0.950 . S
C529 C525 1.393 . S
C529 C528 1.391 . S
C530 H520 0.950 . S
C530 C531 1.386 . S
C530 C532 1.391 . S
C531 C530 1.386 . S
C531 C535 1.393 . S
C532 H521 0.950 . S
C532 C530 1.391 . S
C532 C533 1.400 . S
C533 C527 1.491 . S
C533 C532 1.400 . S
C533 C534 1.398 . S
C534 H522 0.950 . S
C534 C533 1.398 . S
C534 C535 1.391 . S
C535 H523 0.950 . S
C535 C531 1.393 . S
C535 C534 1.391 . S
H536 C544 0.950 . S
H537 C549 0.950 . S
H538 C546 0.950 . S
H539 C548 0.950 . S
H540 C550 0.950 . S
H541 C552 0.950 . S
H542 C554 0.950 . S
H543 C555 0.950 . S
C544 H536 0.950 . S
C544 C545 1.386 . S
C544 C546 1.391 . S
C545 C544 1.386 . S
C545 C549 1.393 . S
C546 H538 0.950 . S
C546 C544 1.391 . S
C546 C547 1.400 . S
C547 C546 1.400 . S
C547 C548 1.398 . S
C547 C553 1.491 . S
C548 H539 0.950 . S
C548 C547 1.398 . S
C548 C549 1.391 . S
C549 H537 0.950 . S
C549 C545 1.393 . S
C549 C548 1.391 . S
C550 H540 0.950 . S
C550 C551 1.386 . S
C550 C552 1.391 . S
C551 C550 1.386 . S
C551 C555 1.393 . S
C552 H541 0.950 . S
C552 C550 1.391 . S
C552 C553 1.400 . S
C553 C547 1.491 . S
C553 C552 1.400 . S
C553 C554 1.398 . S
C554 H542 0.950 . S
C554 C553 1.398 . S
C554 C555 1.391 . S
C555 H543 0.950 . S
C555 C551 1.393 . S
C555 C554 1.391 . S
H556 C564 0.950 . S
H557 C569 0.950 . S
H558 C566 0.950 . S
H559 C568 0.950 . S
H560 C570 0.950 . S
H561 C572 0.950 . S
H562 C574 0.950 . S
H563 C575 0.950 . S
C564 H556 0.950 . S
C564 C565 1.386 . S
C564 C566 1.391 . S
C565 C564 1.386 . S
C565 C569 1.393 . S
C566 H558 0.950 . S
C566 C564 1.391 . S
C566 C567 1.400 . S
C567 C566 1.400 . S
C567 C568 1.398 . S
C567 C573 1.491 . S
C568 H559 0.950 . S
C568 C567 1.398 . S
C568 C569 1.391 . S
C569 H557 0.950 . S
C569 C565 1.393 . S
C569 C568 1.391 . S
C570 H560 0.950 . S
C570 C571 1.386 . S
C570 C572 1.391 . S
C571 C570 1.386 . S
C571 C575 1.393 . S
C572 H561 0.950 . S
C572 C570 1.391 . S
C572 C573 1.400 . S
C573 C567 1.491 . S
C573 C572 1.400 . S
C573 C574 1.398 . S
C574 H562 0.950 . S
C574 C573 1.398 . S
C574 C575 1.391 . S
C575 H563 0.950 . S
C575 C571 1.393 . S
C575 C574 1.391 . S
H576 C584 0.950 . S
H577 C589 0.950 . S
H578 C586 0.950 . S
H579 C588 0.950 . S
H580 C590 0.950 . S
H581 C592 0.950 . S
H582 C594 0.950 1_655 S
H583 C595 0.950 1_655 S
C584 H576 0.950 . S
C584 C585 1.386 1_655 S
C584 C586 1.391 . S
C585 C584 1.386 1_455 S
C585 C589 1.393 . S
C586 H578 0.950 . S
C586 C584 1.391 . S
C586 C587 1.400 1_655 S
C587 C586 1.400 1_455 S
C587 C588 1.398 . S
C587 C593 1.491 . S
C588 H579 0.950 . S
C588 C587 1.398 . S
C588 C589 1.391 . S
C589 H577 0.950 . S
C589 C585 1.393 . S
C589 C588 1.391 . S
C590 H580 0.950 . S
C590 C591 1.386 . S
C590 C592 1.391 . S
C591 C590 1.386 . S
C591 C595 1.393 . S
C592 H581 0.950 . S
C592 C590 1.391 . S
C592 C593 1.400 . S
C593 C587 1.491 . S
C593 C592 1.400 . S
C593 C594 1.398 . S
C594 H582 0.950 1_455 S
C594 C593 1.398 . S
C594 C595 1.391 . S
C595 H583 0.950 1_455 S
C595 C591 1.393 . S
C595 C594 1.391 . S
H596 C604 0.950 . S
H597 C609 0.950 . S
H598 C606 0.950 1_565 S
H599 C608 0.950 . S
H600 C610 0.950 . S
H601 C612 0.950 . S
H602 C614 0.950 . S
H603 C615 0.950 . S
C604 H596 0.950 . S
C604 C605 1.386 1_565 S
C604 C606 1.391 1_565 S
C605 C604 1.386 1_545 S
C605 C609 1.393 . S
C606 H598 0.950 1_545 S
C606 C604 1.391 1_545 S
C606 C607 1.400 . S
C607 C606 1.400 . S
C607 C608 1.398 . S
C607 C613 1.491 . S
C608 H599 0.950 . S
C608 C607 1.398 . S
C608 C609 1.391 . S
C609 H597 0.950 . S
C609 C605 1.393 . S
C609 C608 1.391 . S
C610 H600 0.950 . S
C610 C611 1.386 . S
C610 C612 1.391 . S
C611 C610 1.386 . S
C611 C615 1.393 . S
C612 H601 0.950 . S
C612 C610 1.391 . S
C612 C613 1.400 . S
C613 C607 1.491 . S
C613 C612 1.400 . S
C613 C614 1.398 . S
C614 H602 0.950 . S
C614 C613 1.398 . S
C614 C615 1.391 . S
C615 H603 0.950 . S
C615 C611 1.393 . S
C615 C614 1.391 . S
H616 C624 0.950 . S
H617 C629 0.950 . S
H618 C626 0.950 . S
H619 C628 0.950 . S
H620 C630 0.950 . S
H621 C632 0.950 . S
H622 C634 0.950 . S
H623 C635 0.950 . S
C624 H616 0.950 . S
C624 C625 1.386 . S
C624 C626 1.391 . S
C625 C624 1.386 . S
C625 C629 1.393 . S
C626 H618 0.950 . S
C626 C624 1.391 . S
C626 C627 1.400 . S
C627 C626 1.400 . S
C627 C628 1.398 . S
C627 C633 1.491 . S
C628 H619 0.950 . S
C628 C627 1.398 . S
C628 C629 1.391 . S
C629 H617 0.950 . S
C629 C625 1.393 . S
C629 C628 1.391 . S
C630 H620 0.950 . S
C630 C631 1.386 . S
C630 C632 1.391 . S
C631 C630 1.386 . S
C631 C635 1.393 . S
C632 H621 0.950 . S
C632 C630 1.391 . S
C632 C633 1.400 . S
C633 C627 1.491 . S
C633 C632 1.400 . S
C633 C634 1.398 . S
C634 H622 0.950 . S
C634 C633 1.398 . S
C634 C635 1.391 . S
C635 H623 0.950 . S
C635 C631 1.393 . S
C635 C634 1.391 . S
H636 C644 0.950 . S
H637 C649 0.950 . S
H638 C646 0.950 . S
H639 C648 0.950 . S
H640 C650 0.950 . S
H641 C652 0.950 . S
H642 C654 0.950 . S
H643 C655 0.950 . S
C644 H636 0.950 . S
C644 C645 1.386 1_565 S
C644 C646 1.391 . S
C645 C644 1.386 1_545 S
C645 C649 1.393 . S
C646 H638 0.950 . S
C646 C644 1.391 . S
C646 C647 1.400 1_565 S
C647 C646 1.400 1_545 S
C647 C648 1.398 . S
C647 C653 1.491 . S
C648 H639 0.950 . S
C648 C647 1.398 . S
C648 C649 1.391 . S
C649 H637 0.950 . S
C649 C645 1.393 . S
C649 C648 1.391 . S
C650 H640 0.950 . S
C650 C651 1.386 . S
C650 C652 1.391 . S
C651 C650 1.386 . S
C651 C655 1.393 1_545 S
C652 H641 0.950 . S
C652 C650 1.391 . S
C652 C653 1.400 . S
C653 C647 1.491 . S
C653 C652 1.400 . S
C653 C654 1.398 1_545 S
C654 H642 0.950 . S
C654 C653 1.398 1_565 S
C654 C655 1.391 . S
C655 H643 0.950 . S
C655 C651 1.393 1_565 S
C655 C654 1.391 . S
H656 C664 0.950 . S
H657 C669 0.950 . S
H658 C666 0.950 . S
H659 C668 0.950 . S
H660 C670 0.950 . S
H661 C672 0.950 . S
H662 C674 0.950 . S
H663 C675 0.950 . S
C664 H656 0.950 . S
C664 C665 1.386 . S
C664 C666 1.391 . S
C665 C664 1.386 . S
C665 C669 1.393 . S
C666 H658 0.950 . S
C666 C664 1.391 . S
C666 C667 1.400 . S
C667 C666 1.400 . S
C667 C668 1.398 . S
C667 C673 1.491 . S
C668 H659 0.950 . S
C668 C667 1.398 . S
C668 C669 1.391 . S
C669 H657 0.950 . S
C669 C665 1.393 . S
C669 C668 1.391 . S
C670 H660 0.950 . S
C670 C671 1.393 . S
C670 C672 1.391 . S
C671 C670 1.393 . S
C671 C675 1.400 . S
C672 H661 0.950 . S
C672 C670 1.391 . S
C672 C673 1.400 . S
C673 C667 1.491 . S
C673 C672 1.400 . S
C673 C674 1.398 . S
C674 H662 0.950 . S
C674 C673 1.398 . S
C674 C675 1.391 . S
C675 H663 0.950 . S
C675 C671 1.400 . S
C675 C674 1.391 . S
H676 C684 0.950 . S
H677 C689 0.950 . S
H678 C686 0.950 . S
H679 C688 0.950 . S
H680 C690 0.950 . S
H681 C692 0.950 . S
H682 C694 0.950 . S
H683 C695 0.950 . S
C684 H676 0.950 . S
C684 C685 1.386 . S
C684 C686 1.391 . S
C685 C684 1.386 . S
C685 C689 1.393 1_455 S
C686 H678 0.950 . S
C686 C684 1.391 . S
C686 C687 1.400 . S
C687 C686 1.400 . S
C687 C688 1.398 1_455 S
C687 C693 1.491 . S
C688 H679 0.950 . S
C688 C687 1.398 1_655 S
C688 C689 1.391 . S
C689 H677 0.950 . S
C689 C685 1.393 1_655 S
C689 C688 1.391 . S
C690 H680 0.950 . S
C690 C691 1.386 1_655 S
C690 C692 1.391 . S
C691 C690 1.386 1_455 S
C691 C695 1.393 . S
C692 H681 0.950 . S
C692 C690 1.391 . S
C692 C693 1.400 1_655 S
C693 C687 1.491 . S
C693 C692 1.400 1_455 S
C693 C694 1.398 . S
C694 H682 0.950 . S
C694 C693 1.398 . S
C694 C695 1.391 . S
C695 H683 0.950 . S
C695 C691 1.393 . S
C695 C694 1.391 . S
C345 C12 2.942 . S
C351 C325 2.871 . S
C365 C52 2.936 . S
C371 C253 2.872 . S
C385 C111 2.992 . S
C391 C289 2.909 . S
C405 C31 3.134 . S
C411 C301 3.078 . S
C431 C229 3.080 . S
C425 C71 3.139 . S
C451 C265 3.025 . S
C445 C92 3.079 . S
C465 C48 0.483 . S
C471 C181 0.474 . S
C485 C109 0.514 . S
C491 C193 0.428 . S
C505 C29 0.504 . S
C511 C121 0.448 . S
C531 C157 0.325 . S
C525 C69 0.402 . S
C551 C217 0.396 . S
C545 C88 0.285 . S
C565 C8 0.282 . S
C571 C145 0.372 . S
C591 C223 1.064 1_554 S
C585 C17 1.079 . S
C605 C57 1.065 . S
C611 C151 1.073 . S
C625 C97 1.083 . S
C631 C187 1.088 . S
C651 C295 1.786 . S
C645 C42 1.730 . S
C671 C331 1.764 1_556 S
C665 C82 1.724 . S
C685 C2 1.728 . S
C691 C259 1.783 . S
