# Generated by pormake.
# Topology nom, (4,4)-cn, num edge types: 1
# Building blocks:
#     Node 0, Type 0, BuildingBlock: GIZVER_clean_linker_0, # of connection points: 4
#     Node 1, Type 0, BuildingBlock: GIZVER_clean_linker_0, # of connection points: 4
#     Node 2, Type 0, BuildingBlock: GIZVER_clean_linker_0, # of connection points: 4
#     Node 3, Type 0, BuildingBlock: GIZVER_clean_linker_0, # of connection points: 4
#     Node 4, Type 0, BuildingBlock: GIZVER_clean_linker_0, # of connection points: 4
#     Node 5, Type 0, BuildingBlock: GIZVER_clean_linker_0, # of connection points: 4
#     Node 6, Type 1, BuildingBlock: KUFVIS_clean_sbu_0, # of connection points: 4
#     Node 7, Type 1, BuildingBlock: KUFVIS_clean_sbu_0, # of connection points: 4
#     Node 8, Type 1, BuildingBlock: KUFVIS_clean_sbu_0, # of connection points: 4
#     Node 9, Type 1, BuildingBlock: KUFVIS_clean_sbu_0, # of connection points: 4
#     Node 10, Type 1, BuildingBlock: KUFVIS_clean_sbu_0, # of connection points: 4
#     Node 11, Type 1, BuildingBlock: KUFVIS_clean_sbu_0, # of connection points: 4
#     Edge 12, Type (0, 1), BuildingBlock: XIVTED_clean_linker_0, # of connection points: 2
#     Edge 13, Type (0, 1), BuildingBlock: XIVTED_clean_linker_0, # of connection points: 2
#     Edge 14, Type (0, 1), BuildingBlock: XIVTED_clean_linker_0, # of connection points: 2
#     Edge 15, Type (0, 1), BuildingBlock: XIVTED_clean_linker_0, # of connection points: 2
#     Edge 16, Type (0, 1), BuildingBlock: XIVTED_clean_linker_0, # of connection points: 2
#     Edge 17, Type (0, 1), BuildingBlock: XIVTED_clean_linker_0, # of connection points: 2
#     Edge 18, Type (0, 1), BuildingBlock: XIVTED_clean_linker_0, # of connection points: 2
#     Edge 19, Type (0, 1), BuildingBlock: XIVTED_clean_linker_0, # of connection points: 2
#     Edge 20, Type (0, 1), BuildingBlock: XIVTED_clean_linker_0, # of connection points: 2
#     Edge 21, Type (0, 1), BuildingBlock: XIVTED_clean_linker_0, # of connection points: 2
#     Edge 22, Type (0, 1), BuildingBlock: XIVTED_clean_linker_0, # of connection points: 2
#     Edge 23, Type (0, 1), BuildingBlock: XIVTED_clean_linker_0, # of connection points: 2
#     Edge 24, Type (0, 1), BuildingBlock: XIVTED_clean_linker_0, # of connection points: 2
#     Edge 25, Type (0, 1), BuildingBlock: XIVTED_clean_linker_0, # of connection points: 2
#     Edge 26, Type (0, 1), BuildingBlock: XIVTED_clean_linker_0, # of connection points: 2
#     Edge 27, Type (0, 1), BuildingBlock: XIVTED_clean_linker_0, # of connection points: 2
#     Edge 28, Type (0, 1), BuildingBlock: XIVTED_clean_linker_0, # of connection points: 2
#     Edge 29, Type (0, 1), BuildingBlock: XIVTED_clean_linker_0, # of connection points: 2
#     Edge 30, Type (0, 1), BuildingBlock: XIVTED_clean_linker_0, # of connection points: 2
#     Edge 31, Type (0, 1), BuildingBlock: XIVTED_clean_linker_0, # of connection points: 2
#     Edge 32, Type (0, 1), BuildingBlock: XIVTED_clean_linker_0, # of connection points: 2
#     Edge 33, Type (0, 1), BuildingBlock: XIVTED_clean_linker_0, # of connection points: 2
#     Edge 34, Type (0, 1), BuildingBlock: XIVTED_clean_linker_0, # of connection points: 2
#     Edge 35, Type (0, 1), BuildingBlock: XIVTED_clean_linker_0, # of connection points: 2
# Relax obj value: 0.005
# Max RMSD: 0.073
# Mean RMSD: 0.051
data_MOF--net-nom--node1-KUFVIS_clean_sbu_0--node2-GIZVER_clean_linker_0--edge1-XIVTED_clean_linker_0
_symmetry_space_group_name_H-M    P1
_symmetry_Int_Tables_number       1
_symmetry_cell_setting            triclinic
loop_
_symmetry_equiv_pos_as_xyz
'x, y, z'
_cell_length_a     46.137932
_cell_length_b     46.587543
_cell_length_c     46.95951
_cell_angle_alpha  90.407789
_cell_angle_beta   90.396379
_cell_angle_gamma 120.21911
loop_
_atom_site_label
_atom_site_type_symbol
_atom_site_fract_x
_atom_site_fract_y
_atom_site_fract_z
_atom_type_partial_charge
H0 H 0.98073 0.57286 0.3386 0.0
H1 H 0.99522 0.58292 0.24777 0.0
H2 H 0.90532 0.5018 0.28141 0.0
H3 H 0.02308 0.62616 0.31709 0.0
H4 H 0.02928 0.62934 0.27953 0.0
H5 H 0.03963 0.58736 0.34401 0.0
H6 H 0.13767 0.60823 0.31881 0.0
H7 H 0.07987 0.63317 0.26329 0.0
C8 C 0.9725 0.56317 0.3172 0.0
C9 C 0.94093 0.53442 0.31291 0.0
C10 C 0.99285 0.58022 0.29374 0.0
C11 C 0.98074 0.56887 0.2659 0.0
C12 C 0.94878 0.54106 0.26152 0.0
C13 C 0.93004 0.52324 0.28503 0.0
C14 C 0.02514 0.61298 0.29804 0.0
C15 C 0.05518 0.60855 0.3023 0.0
C16 C 0.059 0.59556 0.32809 0.0
C17 C 0.08862 0.59519 0.33422 0.0
C18 C 0.11396 0.60675 0.31378 0.0
C19 C 0.11104 0.62038 0.28826 0.0
C20 C 0.08158 0.62128 0.28247 0.0
H21 H 0.402 0.96688 0.49714 0.0
H22 H 0.45589 0.01063 0.4199 0.0
H23 H 0.43067 0.9116 0.44241 0.0
H24 H 0.40633 0.01762 0.4798 0.0
H25 H 0.41759 0.02821 0.44357 0.0
H26 H 0.4484 0.04306 0.5182 0.0
H27 H 0.53655 0.1356 0.49936 0.0
H28 H 0.47434 0.07283 0.43078 0.0
C29 C 0.41556 0.96592 0.47875 0.0
C30 C 0.41582 0.9365 0.47239 0.0
C31 C 0.43064 0.99317 0.46001 0.0
C32 C 0.44587 0.99054 0.43507 0.0
C33 C 0.44626 0.9613 0.42871 0.0
C34 C 0.43198 0.93491 0.44786 0.0
C35 C 0.42627 0.02298 0.46403 0.0
C36 C 0.45851 0.05358 0.47338 0.0
C37 C 0.46561 0.06014 0.50267 0.0
C38 C 0.49335 0.09003 0.51189 0.0
C39 C 0.51533 0.1123 0.49191 0.0
C40 C 0.50896 0.10653 0.46267 0.0
C41 C 0.48021 0.07708 0.45334 0.0
H42 H 0.4278 0.48579 0.60662 0.0
H43 H 0.45101 0.47276 0.69278 0.0
H44 H 0.43531 0.55363 0.6727 0.0
H45 H 0.42315 0.43425 0.61961 0.0
H46 H 0.42051 0.42457 0.65642 0.0
H47 H 0.47784 0.45934 0.59499 0.0
H48 H 0.54898 0.43581 0.63166 0.0
H49 H 0.46726 0.42595 0.68166 0.0
C50 C 0.43344 0.49457 0.6285 0.0
C51 C 0.43173 0.52277 0.63695 0.0
C52 C 0.44054 0.47648 0.64852 0.0
C53 C 0.44671 0.48722 0.6771 0.0
C54 C 0.44563 0.51556 0.68575 0.0
C55 C 0.43848 0.53322 0.66553 0.0
C56 C 0.43658 0.44323 0.64042 0.0
C57 C 0.46981 0.44427 0.63894 0.0
C58 C 0.48746 0.45235 0.61315 0.0
C59 C 0.51616 0.4494 0.61026 0.0
C60 C 0.52795 0.4399 0.63395 0.0
C61 C 0.51064 0.43155 0.6597 0.0
C62 C 0.48153 0.43377 0.66218 0.0
H63 H 0.95457 0.42688 0.77441 0.0
H64 H 1.00274 0.4646 0.85581 0.0
H65 H 0.90527 0.45151 0.83938 0.0
H66 H 1.00546 0.42803 0.78475 0.0
H67 H 0.01766 0.43118 0.82116 0.0
H68 H 0.03119 0.47764 0.75398 0.0
H69 H 0.13013 0.55328 0.78 0.0
H70 H 0.06434 0.48211 0.84068 0.0
C71 C 0.95488 0.43749 0.79508 0.0
C72 C 0.92601 0.43741 0.80476 0.0
C73 C 0.98331 0.44862 0.81304 0.0
C74 C 0.98222 0.45877 0.84113 0.0
C75 C 0.95383 0.4594 0.85081 0.0
C76 C 0.92704 0.45083 0.83185 0.0
C77 C 0.01227 0.44428 0.80403 0.0
C78 C 0.04374 0.47701 0.79827 0.0
C79 C 0.04994 0.49012 0.77062 0.0
C80 C 0.081 0.51802 0.76403 0.0
C81 C 0.10545 0.53322 0.78555 0.0
C82 C 0.09995 0.52057 0.81324 0.0
C83 C 0.06871 0.49265 0.81957 0.0
H84 H 0.60587 0.05879 0.00852 0.0
H85 H 0.60008 0.04223 0.91774 0.0
H86 H 0.60734 0.13135 0.95187 0.0
H87 H 0.62017 0.01845 0.98479 0.0
H88 H 0.60963 1.00713 0.94832 0.0
H89 H 0.57608 0.99804 0.02168 0.0
H90 H 0.4878 0.90521 0.00139 0.0
H91 H 0.55337 0.96391 0.93438 0.0
C92 C 0.60359 0.0662 0.98719 0.0
C93 C 0.60621 0.09729 0.983 0.0
C94 C 0.5999 0.04548 0.9637 0.0
C95 C 0.60031 0.05688 0.93587 0.0
C96 C 0.60402 0.08835 0.93153 0.0
C97 C 0.60474 0.10716 0.95521 0.0
C98 C 0.60112 0.01396 0.96804 0.0
C99 C 0.56771 0.98507 0.97686 0.0
C100 C 0.55926 0.98026 0.00589 0.0
C101 C 0.53005 0.9517 0.01471 0.0
C102 C 0.50911 0.92821 -0.00572 0.0
C103 C 0.51716 0.93208 0.9653 0.0
C104 C 0.54642 0.96091 0.95662 0.0
H105 H 0.60496 0.5464 0.10824 0.0
H106 H 0.59581 0.56645 0.19643 0.0
H107 H 0.59873 0.47873 0.17278 0.0
H108 H 0.61945 0.60225 0.12404 0.0
H109 H 0.61862 0.61135 0.16084 0.0
H110 H 0.56827 0.57955 0.09416 0.0
H111 H 0.49227 0.59909 0.12444 0.0
H112 H 0.56796 0.60596 0.18231 0.0
C113 C 0.60159 0.53888 0.13033 0.0
C114 C 0.60071 0.50931 0.13791 0.0
C115 C 0.59941 0.55943 0.15137 0.0
C116 C 0.59649 0.55021 0.18014 0.0
C117 C 0.59583 0.52086 0.188 0.0
C118 C 0.59743 0.50046 0.16669 0.0
C119 C 0.60418 0.59294 0.14364 0.0
C120 C 0.57112 0.59169 0.139 0.0
C121 C 0.55647 0.58507 0.11157 0.0
C122 C 0.52762 0.58719 0.10634 0.0
C123 C 0.51318 0.59528 0.12888 0.0
C124 C 0.52731 0.60212 0.15632 0.0
C125 C 0.55626 0.59996 0.16136 0.0
Mn126 Mn 0.64611 0.39507 0.40666 0.0
Mn127 Mn 0.68224 0.47445 0.43138 0.0
C128 C 0.61862 0.4102 0.43943 0.0
C129 C 0.63477 0.3401 0.40842 0.0
C130 C 0.64894 0.45281 0.37326 0.0
O131 O 0.69564 0.41422 0.39616 0.0
O132 O 0.71651 0.46552 0.41525 0.0
C133 C 0.72195 0.46936 0.47884 0.0
N134 N 0.69878 0.47706 0.46929 0.0
C135 C 0.6931 0.49477 0.51615 0.0
C136 C 0.71706 0.48722 0.52646 0.0
C137 C 0.73145 0.47435 0.50774 0.0
C138 C 0.68462 0.48926 0.48715 0.0
H139 H 0.73309 0.45949 0.46452 0.0
C140 C 0.72018 0.44322 0.40243 0.0
O141 O 0.63153 0.35288 0.38502 0.0
O142 O 0.64644 0.3598 0.4305 0.0
N143 N 0.65227 0.48684 0.44797 0.0
C144 C 0.6284 0.49134 0.43491 0.0
C145 C 0.61102 0.50339 0.45083 0.0
C146 C 0.61866 0.51111 0.47988 0.0
C147 C 0.64368 0.50677 0.49274 0.0
C148 C 0.66025 0.49479 0.47578 0.0
H149 H 0.62255 0.48565 0.41255 0.0
O150 O 0.60189 0.38409 0.42332 0.0
O151 O 0.65094 0.42663 0.43617 0.0
O152 O 0.64017 0.42227 0.37561 0.0
O153 O 0.6654 0.47459 0.39256 0.0
C154 C 0.65236 0.51321 0.52186 0.0
C155 C 0.67695 0.50709 0.53358 0.0
H156 H 0.7244 0.49096 0.54875 0.0
H157 H 0.74985 0.46832 0.51557 0.0
H158 H 0.59178 0.50672 0.44073 0.0
H159 H 0.60501 0.52014 0.49214 0.0
H160 H 0.6399 0.52238 0.53553 0.0
H161 H 0.68302 0.51164 0.55608 0.0
Mn162 Mn 0.25813 0.64642 0.54511 0.0
Mn163 Mn 0.21566 0.5652 0.52528 0.0
C164 C 0.21278 0.62634 0.51381 0.0
C165 C 0.29979 0.70184 0.53803 0.0
C166 C 0.20626 0.59037 0.58217 0.0
O167 O 0.29116 0.63082 0.55618 0.0
O168 O 0.26058 0.57772 0.54065 0.0
C169 C 0.25867 0.56836 0.47747 0.0
N170 N 0.22787 0.56015 0.48756 0.0
C171 C 0.20186 0.53772 0.44195 0.0
C172 C 0.23326 0.5457 0.43112 0.0
C173 C 0.26179 0.56119 0.44894 0.0
C174 C 0.20028 0.54541 0.47056 0.0
H175 H 0.28067 0.5803 0.49107 0.0
C176 C 0.28725 0.6019 0.55173 0.0
O177 O 0.28675 0.6915 0.56292 0.0
O178 O 0.29043 0.67953 0.51798 0.0
N179 N 0.17176 0.54962 0.50959 0.0
C180 C 0.1437 0.54532 0.52287 0.0
C181 C 0.11315 0.53113 0.5077 0.0
C182 C 0.11169 0.52114 0.47918 0.0
C183 C 0.1408 0.52541 0.46609 0.0
C184 C 0.17051 0.53961 0.48229 0.0
H185 H 0.14463 0.55283 0.54481 0.0
O186 O 0.22207 0.65339 0.52839 0.0
O187 O 0.23015 0.61181 0.51786 0.0
O188 O 0.22759 0.62101 0.57842 0.0
O189 O 0.20053 0.56764 0.5639 0.0
C190 C 0.14164 0.51667 0.43745 0.0
C191 C 0.17216 0.52293 0.42536 0.0
H192 H 0.23579 0.5403 0.4091 0.0
H193 H 0.28614 0.56759 0.44069 0.0
H194 H 0.09079 0.52791 0.51795 0.0
H195 H 0.08814 0.51041 0.46748 0.0
H196 H 0.11906 0.50566 0.42439 0.0
H197 H 0.17259 0.51664 0.40317 0.0
Mn198 Mn 0.62565 0.25915 0.71902 0.0
Mn199 Mn 0.66369 0.2218 0.68725 0.0
C200 C 0.59578 0.21391 0.68928 0.0
C201 C 0.60828 0.29828 0.71862 0.0
C202 C 0.64087 0.20939 0.74835 0.0
O203 O 0.67497 0.29375 0.72388 0.0
O204 O 0.69781 0.26598 0.70332 0.0
C205 C 0.69337 0.26923 0.63985 0.0
N206 N 0.67337 0.23758 0.64903 0.0
C207 C 0.65936 0.21678 0.60085 0.0
C208 C 0.67997 0.24911 0.5909 0.0
C209 C 0.69701 0.27545 0.6105 0.0
C210 C 0.65677 0.21208 0.63035 0.0
H211 H 0.70638 0.2896 0.6548 0.0
C212 C 0.70026 0.29141 0.71636 0.0
O213 O 0.61155 0.28614 0.74247 0.0
O214 O 0.61683 0.28916 0.69557 0.0
N215 N 0.6341 0.17921 0.6703 0.0
C216 C 0.61484 0.14954 0.68331 0.0
C217 C 0.59618 0.12065 0.66668 0.0
C218 C 0.59761 0.12251 0.63685 0.0
C219 C 0.6179 0.15323 0.62392 0.0
C220 C 0.63628 0.18111 0.6416 0.0
H221 H 0.6134 0.14798 0.70619 0.0
O222 O 0.58034 0.22168 0.70805 0.0
O223 O 0.62816 0.23298 0.68834 0.0
O224 O 0.63074 0.23037 0.74915 0.0
O225 O 0.6532 0.20359 0.7262 0.0
C226 C 0.62033 0.15733 0.59417 0.0
C227 C 0.64098 0.1891 0.58264 0.0
H228 H 0.68276 0.25403 0.56828 0.0
H229 H 0.71286 0.3005 0.603 0.0
H230 H 0.58057 0.09703 0.67683 0.0
H231 H 0.58296 0.10023 0.62408 0.0
H232 H 0.60621 0.13626 0.57997 0.0
H233 H 0.64243 0.19199 0.55974 0.0
Mn234 Mn 0.40011 0.645 0.90344 0.0
Mn235 Mn 0.3634 0.56592 0.92729 0.0
C236 C 0.42747 0.63033 0.93668 0.0
C237 C 0.41018 0.69938 0.90505 0.0
C238 C 0.39766 0.5869 0.87031 0.0
O239 O 0.35101 0.62585 0.89145 0.0
O240 O 0.32936 0.57481 0.91011 0.0
C241 C 0.32351 0.5721 0.97355 0.0
N242 N 0.34649 0.5639 0.96469 0.0
C243 C 0.35102 0.54607 0.01164 0.0
C244 C 0.32724 0.55414 0.02124 0.0
C245 C 0.31354 0.56733 0.00213 0.0
C246 C 0.36004 0.55145 0.98295 0.0
H247 H 0.31286 0.58218 0.9589 0.0
C248 C 0.32623 0.59714 0.89702 0.0
O249 O 0.41432 0.68655 0.88193 0.0
O250 O 0.39893 0.68022 0.92706 0.0
N251 N 0.39282 0.55327 0.94479 0.0
C252 C 0.41651 0.54814 0.93244 0.0
C253 C 0.43315 0.5356 0.94882 0.0
C254 C 0.4249 0.52795 0.97757 0.0
C255 C 0.40004 0.53289 0.9897 0.0
C256 C 0.38426 0.54539 0.97231 0.0
H257 H 0.42277 0.55369 0.91028 0.0
O258 O 0.44419 0.65647 0.92118 0.0
O259 O 0.39509 0.61381 0.93284 0.0
O260 O 0.40653 0.61749 0.87282 0.0
O261 O 0.38068 0.56529 0.88904 0.0
C262 C 0.39076 0.52652 0.01849 0.0
C263 C 0.3664 0.53328 0.0295 0.0
H264 H 0.3195 0.55051 0.04327 0.0
H265 H 0.29528 0.57374 0.0094 0.0
H266 H 0.45227 0.5318 0.93929 0.0
H267 H 0.43797 0.51851 0.99019 0.0
H268 H 0.40258 0.51692 0.03247 0.0
H269 H 0.35987 0.52878 0.05177 0.0
Mn270 Mn 0.76553 0.39596 0.06006 0.0
Mn271 Mn 0.81467 0.36779 0.08695 0.0
C272 C 0.80914 0.42877 0.09093 0.0
C273 C 0.71794 0.40124 0.06286 0.0
C274 C 0.82312 0.3962 0.02769 0.0
O275 O 0.73812 0.34612 0.05153 0.0
O276 O 0.77191 0.33008 0.07194 0.0
C277 C 0.7717 0.33114 0.13559 0.0
N278 N 0.80191 0.35486 0.12548 0.0
C279 C 0.82551 0.36903 0.17286 0.0
C280 C 0.79472 0.3446 0.18375 0.0
C281 C 0.76768 0.32563 0.16503 0.0
C282 C 0.82801 0.37343 0.14333 0.0
H283 H 0.75079 0.31659 0.12132 0.0
C284 C 0.74473 0.32367 0.05899 0.0
O285 O 0.73319 0.40492 0.03886 0.0
O286 O 0.72944 0.39313 0.08475 0.0
N287 N 0.85679 0.40122 0.10271 0.0
C288 C 0.88487 0.42373 0.0888 0.0
C289 C 0.91427 0.44449 0.10446 0.0
C290 C 0.91463 0.44169 0.1342 0.0
C291 C 0.88565 0.41795 0.148 0.0
C292 C 0.8572 0.39765 0.13124 0.0
H293 H 0.88485 0.42591 0.06593 0.0
O294 O 0.7965 0.44202 0.07451 0.0
O295 O 0.79526 0.39664 0.08946 0.0
O296 O 0.7992 0.40247 0.02901 0.0
O297 O 0.83015 0.38205 0.04764 0.0
C298 C 0.88381 0.41375 0.17774 0.0
C299 C 0.85371 0.38942 0.19017 0.0
H300 H 0.79149 0.34031 0.20645 0.0
H301 H 0.74379 0.30683 0.17328 0.0
H302 H 0.9366 0.46265 0.09364 0.0
H303 H 0.93732 0.45783 0.14621 0.0
H304 H 0.90531 0.4293 0.19127 0.0
H305 H 0.85251 0.38662 0.21309 0.0
Mn306 Mn 0.40787 0.77985 0.23342 0.0
Mn307 Mn 0.48821 0.82401 0.25757 0.0
C308 C 0.42541 0.82709 0.26114 0.0
C309 C 0.35156 0.73873 0.23827 0.0
C310 C 0.46731 0.82961 0.19765 0.0
O311 O 0.42452 0.74688 0.22799 0.0
O312 O 0.47728 0.779 0.24475 0.0
C313 C 0.4805 0.78355 0.30838 0.0
N314 N 0.4897 0.81356 0.29665 0.0
C315 C 0.50687 0.84101 0.34237 0.0
C316 C 0.49777 0.81043 0.35492 0.0
C317 C 0.48445 0.78157 0.33785 0.0
C318 C 0.50241 0.84146 0.31289 0.0
H319 H 0.47019 0.76129 0.29537 0.0
C320 C 0.45368 0.75166 0.23424 0.0
O321 O 0.36427 0.7498 0.21342 0.0
O322 O 0.37204 0.74981 0.25994 0.0
N323 N 0.50263 0.8681 0.27109 0.0
C324 C 0.5091 0.89545 0.25584 0.0
C325 C 0.52205 0.9263 0.26985 0.0
C326 C 0.5286 0.92881 0.29929 0.0
C327 C 0.5223 0.90045 0.31444 0.0
C328 C 0.50963 0.87042 0.2993 0.0
H329 H 0.50423 0.89372 0.23319 0.0
O330 O 0.3992 0.81628 0.2447 0.0
O331 O 0.44049 0.80987 0.26122 0.0
O332 O 0.43634 0.8078 0.20013 0.0
O333 O 0.48897 0.8372 0.21763 0.0
C334 C 0.52755 0.90069 0.34405 0.0
C335 C 0.51972 0.87097 0.35803 0.0
H336 H 0.50068 0.80878 0.37765 0.0
H337 H 0.47723 0.75785 0.34739 0.0
H338 H 0.5269 0.94808 0.258 0.0
H339 H 0.53827 0.95258 0.31007 0.0
H340 H 0.53717 0.92351 0.35635 0.0
H341 H 0.52344 0.87139 0.38086 0.0
H342 H 0.15352 0.68663 0.28945 0.0
H343 H 0.30281 0.69512 0.20058 0.0
H344 H 0.13988 0.59605 0.25173 0.0
H345 H 0.31671 0.73789 0.28485 0.0
H346 H 0.24145 0.6663 0.20738 0.0
H347 H 0.21221 0.71542 0.27425 0.0
C348 C 0.16256 0.6732 0.27689 0.0
C349 C 0.14185 0.63914 0.27137 0.0
C350 C 0.25813 0.68196 0.22428 0.0
C351 C 0.2088 0.67163 0.25442 0.0
C352 C 0.29298 0.69826 0.22051 0.0
C353 C 0.31483 0.71861 0.24232 0.0
C354 C 0.2453 0.68721 0.24956 0.0
C355 C 0.30083 0.7221 0.26763 0.0
C356 C 0.19606 0.68946 0.26862 0.0
C357 C 0.15503 0.62249 0.25588 0.0
N358 N 0.26701 0.70694 0.2704 0.0
N359 N 0.18782 0.6389 0.24795 0.0
H360 H 0.57705 0.13838 0.45883 0.0
H361 H 0.65023 0.3078 0.44895 0.0
H362 H 0.49053 0.13902 0.42453 0.0
H363 H 0.58923 0.29001 0.3736 0.0
H364 H 0.62362 0.24777 0.45549 0.0
H365 H 0.61299 0.19446 0.44071 0.0
C366 C 0.56575 0.14999 0.44669 0.0
C367 C 0.53073 0.13417 0.44341 0.0
C368 C 0.61664 0.25692 0.43709 0.0
C369 C 0.57157 0.19881 0.42353 0.0
C370 C 0.63168 0.29123 0.43349 0.0
C371 C 0.62208 0.30394 0.41063 0.0
C372 C 0.59131 0.23505 0.418 0.0
C373 C 0.5976 0.28126 0.39139 0.0
C374 C 0.5862 0.18219 0.43678 0.0
C375 C 0.51739 0.15031 0.42748 0.0
N376 N 0.58259 0.24794 0.39581 0.0
N377 N 0.5378 0.18201 0.41846 0.0
H378 H 0.45028 0.589 0.6332 0.0
H379 H 0.29297 0.54929 0.53386 0.0
H380 H 0.38098 0.49249 0.59714 0.0
H381 H 0.34326 0.63768 0.58673 0.0
H382 H 0.33319 0.53358 0.54933 0.0
H383 H 0.41933 0.61187 0.60892 0.0
C384 C 0.42887 0.57266 0.61991 0.0
C385 C 0.41802 0.53853 0.61763 0.0
C386 C 0.33563 0.5565 0.55751 0.0
C387 C 0.38282 0.56482 0.58953 0.0
C388 C 0.31256 0.56558 0.54872 0.0
C389 C 0.31423 0.59467 0.55941 0.0
C390 C 0.36082 0.57648 0.57726 0.0
C391 C 0.34079 0.61492 0.57813 0.0
C392 C 0.41126 0.58581 0.60607 0.0
C393 C 0.39057 0.51889 0.59953 0.0
N394 N 0.3629 0.60527 0.58671 0.0
N395 N 0.37382 0.53225 0.58644 0.0
H396 H 0.86324 0.40116 0.82749 0.0
H397 H 0.7606 0.30688 0.6926 0.0
H398 H 0.913 0.42962 0.74625 0.0
H399 H 0.71749 0.33691 0.7596 0.0
H400 H 0.81684 0.34676 0.7112 0.0
H401 H 0.80979 0.37189 0.80301 0.0
C402 C 0.86316 0.4021 0.80447 0.0
C403 C 0.89315 0.41917 0.78907 0.0
C404 C 0.795 0.34492 0.72143 0.0
C405 C 0.83105 0.38345 0.76077 0.0
C406 C 0.76295 0.32211 0.71099 0.0
C407 C 0.73426 0.31832 0.72476 0.0
C408 C 0.79825 0.36336 0.74616 0.0
C409 C 0.7388 0.33889 0.74834 0.0
C410 C 0.83236 0.38492 0.79051 0.0
C411 C 0.89075 0.41711 0.75913 0.0
N412 N 0.77015 0.36005 0.7586 0.0
N413 N 0.86019 0.39931 0.74589 0.0
H414 H 0.44882 0.892 0.96197 0.0
H415 H 0.45484 0.7495 0.87131 0.0
H416 H 0.54015 0.90536 0.92509 0.0
H417 H 0.39036 0.73054 0.94335 0.0
H418 H 0.47765 0.80937 0.87849 0.0
H419 H 0.41847 0.83583 0.94154 0.0
C420 C 0.46235 0.88345 0.94896 0.0
C421 C 0.49727 0.90318 0.9458 0.0
C422 C 0.45813 0.79201 0.89238 0.0
C423 C 0.46255 0.83908 0.92219 0.0
C424 C 0.44501 0.7579 0.88829 0.0
C425 C 0.42084 0.73507 0.90693 0.0
C426 C 0.44644 0.80327 0.91487 0.0
C427 C 0.40915 0.74731 0.92865 0.0
C428 C 0.44501 0.85137 0.93744 0.0
C429 C 0.51332 0.89104 0.9282 0.0
N430 N 0.4221 0.7806 0.93205 0.0
N431 N 0.4959 0.85953 0.91738 0.0
H432 H 0.56729 0.44174 0.13103 0.0
H433 H 0.66876 0.37752 0.10246 0.0
H434 H 0.65038 0.53134 0.09797 0.0
H435 H 0.7077 0.44531 0.03227 0.0
H436 H 0.63175 0.39902 0.11401 0.0
H437 H 0.58769 0.40917 0.10614 0.0
C438 C 0.58953 0.4545 0.11811 0.0
C439 C 0.60757 0.48935 0.11705 0.0
C440 C 0.64753 0.40854 0.0955 0.0
C441 C 0.63157 0.45232 0.08919 0.0
C442 C 0.66886 0.39639 0.08904 0.0
C443 C 0.69123 0.40961 0.06637 0.0
C444 C 0.64898 0.43462 0.07949 0.0
C445 C 0.69058 0.43427 0.0498 0.0
C446 C 0.60133 0.43593 0.10415 0.0
C447 C 0.63582 0.50456 0.09951 0.0
N448 N 0.67034 0.44656 0.0571 0.0
N449 N 0.64729 0.48597 0.08661 0.0
H450 H 0.35971 0.8834 0.45197 0.0
H451 H 0.3294 0.75561 0.57524 0.0
H452 H 0.42509 0.91716 0.52567 0.0
H453 H 0.31542 0.73005 0.48573 0.0
H454 H 0.35654 0.81488 0.56263 0.0
H455 H 0.33225 0.82684 0.47015 0.0
C456 C 0.36764 0.87893 0.47243 0.0
C457 C 0.39455 0.90489 0.48743 0.0
C458 C 0.34772 0.79616 0.54588 0.0
C459 C 0.36368 0.84004 0.50814 0.0
C460 C 0.33236 0.76242 0.553 0.0
C461 C 0.32016 0.73777 0.5315 0.0
C462 C 0.34998 0.80507 0.51714 0.0
C463 C 0.3245 0.74804 0.50305 0.0
C464 C 0.35227 0.84663 0.48261 0.0
C465 C 0.40418 0.89778 0.51368 0.0
N466 N 0.33861 0.78074 0.49676 0.0
N467 N 0.38882 0.86584 0.52323 0.0
H468 H 0.56972 0.45616 0.68956 0.0
H469 H 0.55941 0.28794 0.6814 0.0
H470 H 0.47403 0.36738 0.67589 0.0
H471 H 0.61777 0.35197 0.75132 0.0
H472 H 0.53103 0.31997 0.67617 0.0
H473 H 0.59097 0.42251 0.71171 0.0
C474 C 0.55285 0.42978 0.6923 0.0
C475 C 0.52004 0.41444 0.68112 0.0
C476 C 0.54978 0.32683 0.69287 0.0
C477 C 0.54448 0.37596 0.70507 0.0
C478 C 0.56618 0.30881 0.69569 0.0
C479 C 0.59099 0.31754 0.71671 0.0
C480 C 0.55897 0.3545 0.71061 0.0
C481 C 0.5987 0.34459 0.73486 0.0
C482 C 0.565 0.41064 0.70477 0.0
C483 C 0.49933 0.38012 0.68455 0.0
N484 N 0.5832 0.3627 0.73101 0.0
N485 N 0.51216 0.36188 0.69551 0.0
H486 H 0.11791 0.48538 0.84863 0.0
H487 H 0.30533 0.63565 0.86888 0.0
H488 H 0.14899 0.58557 0.8232 0.0
H489 H 0.26791 0.53875 0.90579 0.0
H490 H 0.24788 0.61911 0.85405 0.0
H491 H 0.17157 0.50593 0.8732 0.0
C492 C 0.13563 0.51184 0.84879 0.0
C493 C 0.12897 0.53368 0.83348 0.0
C494 C 0.25232 0.60162 0.86558 0.0
C495 C 0.19119 0.55733 0.86085 0.0
C496 C 0.28515 0.611 0.87394 0.0
C497 C 0.2917 0.58851 0.88834 0.0
C498 C 0.22589 0.56948 0.87155 0.0
C499 C 0.26436 0.55695 0.8945 0.0
C500 C 0.16653 0.52355 0.86258 0.0
C501 C 0.1533 0.5677 0.83423 0.0
N502 N 0.23285 0.54837 0.88592 0.0
N503 N 0.18351 0.5784 0.84724 0.0
H504 H 0.65784 0.11586 0.02105 0.0
H505 H 0.68161 0.29662 0.03455 0.0
H506 H 0.58187 0.1388 -0.00438 0.0
H507 H 0.75064 0.26927 0.07051 0.0
H508 H 0.64205 0.23784 0.0244 0.0
H509 H 0.68818 0.16959 0.0456 0.0
C510 C 0.64687 0.13166 0.02153 0.0
C511 C 0.61752 0.12302 0.00591 0.0
C512 C 0.66576 0.24473 0.03474 0.0
C513 C 0.65283 0.18524 0.03297 0.0
C514 C 0.68848 0.27835 0.04037 0.0
C515 C 0.71981 0.28814 0.05306 0.0
C516 C 0.67446 0.22067 0.04168 0.0
C517 C 0.72703 0.26314 0.06041 0.0
C518 C 0.66449 0.16264 0.0352 0.0
C519 C 0.60471 0.14475 0.00705 0.0
N520 N 0.70473 0.23073 0.05439 0.0
N521 N 0.62281 0.17515 0.01972 0.0
H522 H 0.46169 0.58146 0.16886 0.0
H523 H 0.51092 0.75165 0.24956 0.0
H524 H 0.56304 0.65633 0.1914 0.0
H525 H 0.4152 0.69052 0.2074 0.0
H526 H 0.52663 0.71047 0.23796 0.0
H527 H 0.4411 0.61427 0.19314 0.0
C528 C 0.47957 0.60445 0.17948 0.0
C529 C 0.51423 0.61644 0.17765 0.0
C530 C 0.5021 0.70591 0.23139 0.0
C531 C 0.49077 0.65406 0.20543 0.0
C532 C 0.49302 0.7295 0.23792 0.0
C533 C 0.46178 0.72495 0.22901 0.0
C534 C 0.47988 0.6773 0.21582 0.0
C535 C 0.43965 0.69532 0.21446 0.0
C536 C 0.46778 0.6232 0.1932 0.0
C537 C 0.53616 0.64607 0.19222 0.0
N538 N 0.44925 0.67273 0.2081 0.0
N539 N 0.52409 0.66407 0.20514 0.0
H540 H 0.92507 0.56515 0.3549 0.0
H541 H 0.74261 0.40826 0.37017 0.0
H542 H 0.89876 0.46797 0.32271 0.0
H543 H 0.77796 0.50015 0.41727 0.0
H544 H 0.80051 0.42777 0.35538 0.0
H545 H 0.87337 0.54002 0.38224 0.0
C546 C 0.90899 0.5384 0.35429 0.0
C547 C 0.91606 0.51875 0.33611 0.0
C548 C 0.79552 0.44343 0.36921 0.0
C549 C 0.856 0.48983 0.3665 0.0
C550 C 0.76243 0.43233 0.37758 0.0
C551 C 0.7551 0.45272 0.39462 0.0
C552 C 0.82141 0.47518 0.37784 0.0
C553 C 0.78204 0.48364 0.40373 0.0
C554 C 0.87915 0.52403 0.36963 0.0
C555 C 0.89395 0.48415 0.33603 0.0
N556 N 0.81374 0.49398 0.39501 0.0
N557 N 0.86458 0.47089 0.35042 0.0
H558 H 0.12049 0.56137 0.34954 0.0
H559 H 0.15095 0.62119 0.51219 0.0
H560 H 0.0754 0.6151 0.38528 0.0
H561 H 0.22383 0.61479 0.45982 0.0
H562 H 0.1133 0.60621 0.47024 0.0
H563 H 0.14732 0.56536 0.39549 0.0
C564 C 0.11556 0.57328 0.36724 0.0
C565 C 0.0963 0.58858 0.36337 0.0
C566 C 0.13742 0.60778 0.46815 0.0
C567 C 0.12648 0.59274 0.41606 0.0
C568 C 0.15879 0.61637 0.4919 0.0
C569 C 0.18976 0.61785 0.48942 0.0
C570 C 0.14745 0.60091 0.44202 0.0
C571 C 0.19948 0.61247 0.4627 0.0
C572 C 0.1309 0.57556 0.39342 0.0
C573 C 0.09013 0.60303 0.38725 0.0
N574 N 0.17824 0.60388 0.44006 0.0
N575 N 0.10559 0.60516 0.41258 0.0
H576 H 0.50369 0.06152 0.55924 0.0
H577 H 0.60205 0.23152 0.63451 0.0
H578 H 0.49404 0.14453 0.53194 0.0
H579 H 0.54547 0.14869 0.68994 0.0
H580 H 0.56973 0.19698 0.59378 0.0
H581 H 0.5238 0.08907 0.6063 0.0
C582 C 0.50495 0.08501 0.56347 0.0
C583 C 0.49779 0.10118 0.54184 0.0
C584 C 0.56436 0.18637 0.61488 0.0
C585 C 0.52103 0.13254 0.59443 0.0
C586 C 0.58291 0.20589 0.63795 0.0
C587 C 0.57675 0.19244 0.66522 0.0
C588 C 0.53975 0.15314 0.61914 0.0
C589 C 0.55109 0.15948 0.66894 0.0
C590 C 0.51642 0.10064 0.5901 0.0
C591 C 0.49987 0.13162 0.54806 0.0
N592 N 0.53372 0.14049 0.64591 0.0
N593 N 0.51201 0.14668 0.57359 0.0
H594 H 0.41283 0.47438 0.73017 0.0
H595 H 0.44049 0.62604 0.82885 0.0
H596 H 0.48023 0.57727 0.71042 0.0
H597 H 0.38059 0.52349 0.85379 0.0
H598 H 0.45841 0.60827 0.78702 0.0
H599 H 0.40525 0.49127 0.7777 0.0
C600 C 0.42675 0.50045 0.73611 0.0
C601 C 0.44693 0.52452 0.71626 0.0
C602 C 0.44147 0.58962 0.80168 0.0
C603 C 0.43769 0.54408 0.77023 0.0
C604 C 0.43101 0.59974 0.82555 0.0
C605 C 0.40864 0.57621 0.84479 0.0
C606 C 0.42933 0.55566 0.79676 0.0
C607 C 0.39763 0.54251 0.83945 0.0
C608 C 0.42214 0.51012 0.76314 0.0
C609 C 0.46405 0.55798 0.72498 0.0
N610 N 0.40789 0.53323 0.81582 0.0
N611 N 0.45869 0.5668 0.75116 0.0
H612 H 0.96301 0.42616 0.89434 0.0
H613 H 0.82521 0.43777 0.98571 0.0
H614 H 0.92873 0.49504 0.8769 0.0
H615 H 0.87358 0.3838 0.01352 0.0
H616 H 0.86489 0.46062 0.9468 0.0
H617 H 0.93516 0.41437 0.94037 0.0
C618 C 0.95069 0.43976 0.90064 0.0
C619 C 0.94782 0.46132 0.8816 0.0
C620 C 0.86693 0.44387 0.96146 0.0
C621 C 0.91477 0.44694 0.93374 0.0
C622 C 0.84399 0.43048 0.98356 0.0
C623 C 0.84573 0.40848 0.00285 0.0
C624 C 0.89171 0.43505 0.95834 0.0
C625 C 0.87105 0.40044 -0.00091 0.0
C626 C 0.93434 0.43263 0.92677 0.0
C627 C 0.93113 0.47788 0.89078 0.0
N628 N 0.89288 0.41354 0.97718 0.0
N629 N 0.91465 0.46983 0.91593 0.0
H630 H 0.47055 0.92845 0.04218 0.0
H631 H 0.53153 0.87403 0.18098 0.0
H632 H 0.57325 0.95365 0.05602 0.0
H633 H 0.42793 0.83121 0.15445 0.0
H634 H 0.54837 0.90961 0.13913 0.0
H635 H 0.45598 0.90097 0.08826 0.0
C636 C 0.49017 0.92879 0.05525 0.0
C637 C 0.52307 0.94305 0.04519 0.0
C638 C 0.52198 0.89236 0.1425 0.0
C639 C 0.50652 0.91119 0.09771 0.0
C640 C 0.51231 0.8719 0.1663 0.0
C641 C 0.47821 0.84933 0.17121 0.0
C642 C 0.49739 0.89053 0.1236 0.0
C643 C 0.4545 0.84793 0.1515 0.0
C644 C 0.48181 0.91288 0.08142 0.0
C645 C 0.5476 0.94305 0.06304 0.0
N646 N 0.46454 0.8683 0.12865 0.0
N647 N 0.53875 0.92694 0.08833 0.0
H648 H 0.63512 0.56298 0.23107 0.0
H649 H 0.60607 0.41323 0.33081 0.0
H650 H 0.56143 0.46037 0.21376 0.0
H651 H 0.66747 0.51618 0.35635 0.0
H652 H 0.58876 0.43059 0.28831 0.0
H653 H 0.64536 0.54722 0.27808 0.0
C654 C 0.62053 0.53726 0.23739 0.0
C655 C 0.5976 0.51289 0.21834 0.0
C656 C 0.60592 0.44942 0.30324 0.0
C657 C 0.60982 0.49458 0.27178 0.0
C658 C 0.61602 0.43953 0.3275 0.0
C659 C 0.63853 0.46327 0.34719 0.0
C660 C 0.61856 0.48337 0.29835 0.0
C661 C 0.65022 0.49698 0.34174 0.0
C662 C 0.62662 0.52822 0.26414 0.0
C663 C 0.57974 0.47988 0.22758 0.0
N664 N 0.64027 0.50603 0.31775 0.0
N665 N 0.58651 0.47166 0.25347 0.0
H666 H 0.4274 0.9736 0.377 0.0
H667 H 0.43223 0.88838 0.2538 0.0
H668 H 0.48376 0.93277 0.41551 0.0
H669 H 0.43214 0.82239 0.31764 0.0
H670 H 0.44522 0.93071 0.29119 0.0
H671 H 0.42648 0.94653 0.33197 0.0
C672 C 0.44081 0.9601 0.37567 0.0
C673 C 0.4553 0.955 0.4001 0.0
C674 C 0.44229 0.90694 0.29695 0.0
C675 C 0.45371 0.9235 0.34899 0.0
C676 C 0.43498 0.88296 0.27572 0.0
C677 C 0.43241 0.8526 0.2828 0.0
C678 C 0.44645 0.89996 0.32525 0.0
C679 C 0.43525 0.8461 0.31136 0.0
C680 C 0.44009 0.94448 0.34997 0.0
C681 C 0.47184 0.93683 0.39727 0.0
N682 N 0.44252 0.86975 0.33154 0.0
N683 N 0.46982 0.921 0.37238 0.0
H684 H 0.48367 0.42473 0.55887 0.0
H685 H 0.63794 0.41813 0.4947 0.0
H686 H 0.58263 0.4761 0.59723 0.0
H687 H 0.5611 0.41365 0.43909 0.0
H688 H 0.61283 0.43129 0.53477 0.0
H689 H 0.50779 0.41605 0.51558 0.0
C690 C 0.51054 0.43493 0.55801 0.0
C691 C 0.53109 0.4508 0.58195 0.0
C692 C 0.60155 0.42767 0.51378 0.0
C693 C 0.5584 0.43972 0.53299 0.0
C694 C 0.61587 0.42023 0.49099 0.0
C695 C 0.60232 0.41637 0.46356 0.0
C696 C 0.57308 0.43062 0.50914 0.0
C697 C 0.57272 0.41749 0.45994 0.0
C698 C 0.52418 0.42961 0.53339 0.0
C699 C 0.5657 0.46306 0.57959 0.0
N700 N 0.55912 0.42484 0.48252 0.0
N701 N 0.57814 0.45673 0.55579 0.0
H702 H 0.07051 0.47874 0.71702 0.0
H703 H 0.20658 0.63042 0.6257 0.0
H704 H 0.11505 0.58139 0.74338 0.0
H705 H 0.15804 0.52781 0.59789 0.0
H706 H 0.17065 0.61338 0.66749 0.0
H707 H 0.09791 0.49673 0.67101 0.0
C708 C 0.08532 0.50509 0.71286 0.0
C709 C 0.09073 0.52859 0.73417 0.0
C710 C 0.16782 0.59462 0.65219 0.0
C711 C 0.12306 0.54938 0.68185 0.0
C712 C 0.1885 0.60432 0.62838 0.0
C713 C 0.18562 0.58054 0.60826 0.0
C714 C 0.1441 0.56088 0.65601 0.0
C715 C 0.16144 0.54708 0.61284 0.0
C716 C 0.10133 0.51537 0.68669 0.0
C717 C 0.1106 0.56243 0.72767 0.0
N718 N 0.14175 0.53829 0.63623 0.0
N719 N 0.1264 0.5718 0.70226 0.0
H720 H 0.65066 0.15229 0.91928 0.0
H721 H 0.63318 0.14708 0.75258 0.0
H722 H 0.57647 0.06068 0.87862 0.0
H723 H 0.64026 0.22804 0.80336 0.0
H724 H 0.62432 0.11505 0.79626 0.0
H725 H 0.66003 0.18047 0.87408 0.0
C726 C 0.63606 0.13805 0.9009 0.0
C727 C 0.61172 0.10421 0.90306 0.0
C728 C 0.62778 0.13981 0.79762 0.0
C729 C 0.6237 0.13638 0.85087 0.0
C730 C 0.633 0.15817 0.77284 0.0
C731 C 0.63725 0.19023 0.77434 0.0
C732 C 0.62793 0.15411 0.82399 0.0
C733 C 0.63688 0.20338 0.80119 0.0
C734 C 0.6417 0.1542 0.87509 0.0
C735 C 0.59509 0.08684 0.87802 0.0
N736 N 0.63262 0.18538 0.82498 0.0
N737 N 0.60131 0.1032 0.85281 0.0
H738 H 0.56317 0.61706 0.05809 0.0
H739 H 0.40916 0.62161 -0.00817 0.0
H740 H 0.46227 0.55557 0.08839 0.0
H741 H 0.48492 0.62695 0.93545 0.0
H742 H 0.43485 0.60745 0.03098 0.0
H743 H 0.54017 0.62705 0.01433 0.0
C744 C 0.53622 0.60489 0.05521 0.0
C745 C 0.51458 0.58587 0.0771 0.0
C746 C 0.44575 0.61152 0.01 0.0
C747 C 0.48853 0.59831 0.02798 0.0
C748 C 0.4311 0.61949 0.98776 0.0
C749 C 0.44412 0.62374 0.96035 0.0
C750 C 0.47402 0.60849 0.00482 0.0
C751 C 0.47367 0.6227 0.95629 0.0
C752 C 0.5232 0.61091 0.03042 0.0
C753 C 0.47987 0.57096 0.07232 0.0
N754 N 0.48762 0.61483 0.97834 0.0
N755 N 0.46796 0.57812 0.04859 0.0
H756 H 0.97381 0.53401 0.21019 0.0
H757 H 0.79653 0.41857 0.14681 0.0
H758 H 0.88624 0.52852 0.24818 0.0
H759 H 0.87143 0.4841 0.08781 0.0
H760 H 0.83318 0.4517 0.18645 0.0
H761 H 0.94122 0.51083 0.16554 0.0
C762 C 0.94801 0.52836 0.20901 0.0
C763 C 0.93234 0.5322 0.23307 0.0
C764 C 0.84157 0.45881 0.1648 0.0
C765 C 0.89537 0.50545 0.18301 0.0
C766 C 0.82088 0.43987 0.14234 0.0
C767 C 0.83162 0.44836 0.11434 0.0
C768 C 0.87327 0.48613 0.15912 0.0
C769 C 0.86284 0.47667 0.10934 0.0
C770 C 0.92953 0.51515 0.18371 0.0
C771 C 0.89893 0.52482 0.23044 0.0
N772 N 0.88311 0.4944 0.13168 0.0
N773 N 0.88136 0.51112 0.2061 0.0
loop_
_geom_bond_atom_site_label_1
_geom_bond_atom_site_label_2
_geom_bond_distance
_geom_bond_site_symmetry_2
_ccdc_geom_bond_type
H0 C8 0.930 . S
H1 C11 0.930 . S
H2 C13 0.930 . S
H3 C14 0.970 1_655 S
H4 C14 0.970 . S
H5 C16 0.930 . S
H6 C18 0.930 . S
H7 C20 0.930 . S
C8 H0 0.930 . S
C8 C9 1.382 . S
C8 C10 1.426 . S
C9 C8 1.382 . S
C9 C13 1.389 . S
C10 C8 1.426 . S
C10 C11 1.375 . S
C10 C14 1.532 1_655 S
C11 H1 0.930 . S
C11 C10 1.375 . S
C11 C12 1.416 . S
C12 C11 1.416 . S
C12 C13 1.371 . S
C13 H2 0.930 . S
C13 C9 1.389 . S
C13 C12 1.371 . S
C14 H3 0.970 1_455 S
C14 H4 0.970 . S
C14 C10 1.532 1_455 S
C14 C15 1.499 . S
C15 C14 1.499 . S
C15 C16 1.370 . S
C15 C20 1.415 . S
C16 H5 0.930 . S
C16 C15 1.370 . S
C16 C17 1.407 . S
C17 C16 1.407 . S
C17 C18 1.365 . S
C18 H6 0.930 . S
C18 C17 1.365 . S
C18 C19 1.393 . S
C19 C18 1.393 . S
C19 C20 1.387 . S
C20 H7 0.930 . S
C20 C15 1.415 . S
C20 C19 1.387 . S
H21 C29 0.930 . S
H22 C32 0.930 . S
H23 C34 0.930 . S
H24 C35 0.970 . S
H25 C35 0.970 . S
H26 C37 0.930 . S
H27 C39 0.930 . S
H28 C41 0.930 . S
C29 H21 0.930 . S
C29 C30 1.382 . S
C29 C31 1.426 . S
C30 C29 1.382 . S
C30 C34 1.389 . S
C31 C29 1.426 . S
C31 C32 1.375 . S
C31 C35 1.532 1_565 S
C32 H22 0.930 . S
C32 C31 1.375 . S
C32 C33 1.416 . S
C33 C32 1.416 . S
C33 C34 1.371 . S
C34 H23 0.930 . S
C34 C30 1.389 . S
C34 C33 1.371 . S
C35 H24 0.970 . S
C35 H25 0.970 . S
C35 C31 1.532 1_545 S
C35 C36 1.499 . S
C36 C35 1.499 . S
C36 C37 1.370 . S
C36 C41 1.415 . S
C37 H26 0.930 . S
C37 C36 1.370 . S
C37 C38 1.407 . S
C38 C37 1.407 . S
C38 C39 1.365 . S
C39 H27 0.930 . S
C39 C38 1.365 . S
C39 C40 1.393 . S
C40 C39 1.393 . S
C40 C41 1.387 . S
C41 H28 0.930 . S
C41 C36 1.415 . S
C41 C40 1.387 . S
H42 C50 0.930 . S
H43 C53 0.930 . S
H44 C55 0.930 . S
H45 C56 0.970 . S
H46 C56 0.970 . S
H47 C58 0.930 . S
H48 C60 0.930 . S
H49 C62 0.930 . S
C50 H42 0.930 . S
C50 C51 1.382 . S
C50 C52 1.426 . S
C51 C50 1.382 . S
C51 C55 1.389 . S
C52 C50 1.426 . S
C52 C53 1.375 . S
C52 C56 1.532 . S
C53 H43 0.930 . S
C53 C52 1.375 . S
C53 C54 1.416 . S
C54 C53 1.416 . S
C54 C55 1.371 . S
C55 H44 0.930 . S
C55 C51 1.389 . S
C55 C54 1.371 . S
C56 H45 0.970 . S
C56 H46 0.970 . S
C56 C52 1.532 . S
C56 C57 1.499 . S
C57 C56 1.499 . S
C57 C58 1.370 . S
C57 C62 1.415 . S
C58 H47 0.930 . S
C58 C57 1.370 . S
C58 C59 1.407 . S
C59 C58 1.407 . S
C59 C60 1.365 . S
C60 H48 0.930 . S
C60 C59 1.365 . S
C60 C61 1.393 . S
C61 C60 1.393 . S
C61 C62 1.387 . S
C62 H49 0.930 . S
C62 C57 1.415 . S
C62 C61 1.387 . S
H63 C71 0.930 . S
H64 C74 0.930 . S
H65 C76 0.930 . S
H66 C77 0.970 . S
H67 C77 0.970 . S
H68 C79 0.930 . S
H69 C81 0.930 . S
H70 C83 0.930 . S
C71 H63 0.930 . S
C71 C72 1.382 . S
C71 C73 1.426 . S
C72 C71 1.382 . S
C72 C76 1.389 . S
C73 C71 1.426 . S
C73 C74 1.375 . S
C73 C77 1.532 1_655 S
C74 H64 0.930 . S
C74 C73 1.375 . S
C74 C75 1.416 . S
C75 C74 1.416 . S
C75 C76 1.371 . S
C76 H65 0.930 . S
C76 C72 1.389 . S
C76 C75 1.371 . S
C77 H66 0.970 . S
C77 H67 0.970 . S
C77 C73 1.532 1_455 S
C77 C78 1.499 . S
C78 C77 1.499 . S
C78 C79 1.370 . S
C78 C83 1.415 . S
C79 H68 0.930 . S
C79 C78 1.370 . S
C79 C80 1.407 . S
C80 C79 1.407 . S
C80 C81 1.365 . S
C81 H69 0.930 . S
C81 C80 1.365 . S
C81 C82 1.393 . S
C82 C81 1.393 . S
C82 C83 1.387 . S
C83 H70 0.930 . S
C83 C78 1.415 . S
C83 C82 1.387 . S
H84 C92 0.930 . S
H85 C95 0.930 . S
H86 C97 0.930 . S
H87 C98 0.970 1_554 S
H88 C98 0.970 . S
H89 C100 0.930 . S
H90 C102 0.930 . S
H91 C104 0.930 . S
C92 H84 0.930 . S
C92 C93 1.382 1_554 S
C92 C94 1.426 1_554 S
C93 C92 1.382 1_556 S
C93 C97 1.389 . S
C94 C92 1.426 1_556 S
C94 C95 1.375 . S
C94 C98 1.532 . S
C95 H85 0.930 . S
C95 C94 1.375 . S
C95 C96 1.416 . S
C96 C95 1.416 . S
C96 C97 1.371 . S
C97 H86 0.930 . S
C97 C93 1.389 . S
C97 C96 1.371 . S
C98 H87 0.970 1_556 S
C98 H88 0.970 . S
C98 C94 1.532 . S
C98 C99 1.499 1_545 S
C99 C98 1.499 1_565 S
C99 C100 1.370 1_556 S
C99 C104 1.415 . S
C100 H89 0.930 . S
C100 C99 1.370 1_554 S
C100 C101 1.407 . S
C101 C100 1.407 . S
C101 C102 1.365 . S
C102 H90 0.930 . S
C102 C101 1.365 . S
C102 C103 1.393 1_554 S
C103 C102 1.393 1_556 S
C103 C104 1.387 . S
C104 H91 0.930 . S
C104 C99 1.415 . S
C104 C103 1.387 . S
H105 C113 0.930 . S
H106 C116 0.930 . S
H107 C118 0.930 . S
H108 C119 0.970 . S
H109 C119 0.970 . S
H110 C121 0.930 . S
H111 C123 0.930 . S
H112 C125 0.930 . S
C113 H105 0.930 . S
C113 C114 1.382 . S
C113 C115 1.426 . S
C114 C113 1.382 . S
C114 C118 1.389 . S
C115 C113 1.426 . S
C115 C116 1.375 . S
C115 C119 1.532 . S
C116 H106 0.930 . S
C116 C115 1.375 . S
C116 C117 1.416 . S
C117 C116 1.416 . S
C117 C118 1.371 . S
C118 H107 0.930 . S
C118 C114 1.389 . S
C118 C117 1.371 . S
C119 H108 0.970 . S
C119 H109 0.970 . S
C119 C115 1.532 . S
C119 C120 1.499 . S
C120 C119 1.499 . S
C120 C121 1.370 . S
C120 C125 1.415 . S
C121 H110 0.930 . S
C121 C120 1.370 . S
C121 C122 1.407 . S
C122 C121 1.407 . S
C122 C123 1.365 . S
C123 H111 0.930 . S
C123 C122 1.365 . S
C123 C124 1.393 . S
C124 C123 1.393 . S
C124 C125 1.387 . S
C125 H112 0.930 . S
C125 C120 1.415 . S
C125 C124 1.387 . S
Mn126 O131 2.095 . S
Mn126 O141 2.162 . S
Mn126 O142 2.297 . S
Mn126 O150 2.385 . S
Mn126 O151 2.209 . S
Mn126 O152 2.094 . S
Mn127 O132 2.121 . S
Mn127 N134 2.257 . S
Mn127 N143 2.282 . S
Mn127 O151 2.215 . S
Mn127 O153 2.117 . S
C128 O150 1.234 . S
C128 O151 1.283 . S
C129 O141 1.281 . S
C129 O142 1.236 . S
C130 O152 1.240 . S
C130 O153 1.264 . S
O131 Mn126 2.095 . S
O131 C140 1.250 . S
O132 Mn127 2.121 . S
O132 C140 1.258 . S
C133 N134 1.326 . S
C133 C137 1.460 . S
C133 H139 0.929 . S
N134 Mn127 2.257 . S
N134 C133 1.326 . S
N134 C138 1.362 . S
C135 C136 1.258 . S
C135 C138 1.431 . S
C135 C155 1.449 . S
C136 C135 1.258 . S
C136 C137 1.477 . S
C136 H156 0.931 . S
C137 C133 1.460 . S
C137 C136 1.477 . S
C137 H157 0.930 . S
C138 N134 1.362 . S
C138 C135 1.431 . S
C138 C148 1.476 . S
H139 C133 0.929 . S
C140 O131 1.250 . S
C140 O132 1.258 . S
O141 Mn126 2.162 . S
O141 C129 1.281 . S
O142 Mn126 2.297 . S
O142 C129 1.236 . S
N143 Mn127 2.282 . S
N143 C144 1.328 . S
N143 C148 1.318 . S
C144 N143 1.328 . S
C144 C145 1.457 . S
C144 H149 0.929 . S
C145 C144 1.457 . S
C145 C146 1.291 . S
C145 H158 0.931 . S
C146 C145 1.291 . S
C146 C147 1.373 . S
C146 H159 0.929 . S
C147 C146 1.373 . S
C147 C148 1.396 . S
C147 C154 1.403 . S
C148 C138 1.476 . S
C148 N143 1.318 . S
C148 C147 1.396 . S
H149 C144 0.929 . S
O150 Mn126 2.385 . S
O150 C128 1.234 . S
O151 Mn126 2.209 . S
O151 Mn127 2.215 . S
O151 C128 1.283 . S
O152 Mn126 2.094 . S
O152 C130 1.240 . S
O153 Mn127 2.117 . S
O153 C130 1.264 . S
C154 C147 1.403 . S
C154 C155 1.399 . S
C154 H160 0.929 . S
C155 C135 1.449 . S
C155 C154 1.399 . S
C155 H161 0.930 . S
H156 C136 0.931 . S
H157 C137 0.930 . S
H158 C145 0.931 . S
H159 C146 0.929 . S
H160 C154 0.929 . S
H161 C155 0.930 . S
Mn162 O167 2.095 . S
Mn162 O177 2.162 . S
Mn162 O178 2.297 . S
Mn162 O186 2.385 . S
Mn162 O187 2.209 . S
Mn162 O188 2.094 . S
Mn163 O168 2.121 . S
Mn163 N170 2.257 . S
Mn163 N179 2.282 . S
Mn163 O187 2.215 . S
Mn163 O189 2.117 . S
C164 O186 1.234 . S
C164 O187 1.283 . S
C165 O177 1.281 . S
C165 O178 1.236 . S
C166 O188 1.240 . S
C166 O189 1.264 . S
O167 Mn162 2.095 . S
O167 C176 1.250 . S
O168 Mn163 2.121 . S
O168 C176 1.258 . S
C169 N170 1.326 . S
C169 C173 1.460 . S
C169 H175 0.929 . S
N170 Mn163 2.257 . S
N170 C169 1.326 . S
N170 C174 1.362 . S
C171 C172 1.258 . S
C171 C174 1.431 . S
C171 C191 1.449 . S
C172 C171 1.258 . S
C172 C173 1.477 . S
C172 H192 0.931 . S
C173 C169 1.460 . S
C173 C172 1.477 . S
C173 H193 0.930 . S
C174 N170 1.362 . S
C174 C171 1.431 . S
C174 C184 1.476 . S
H175 C169 0.929 . S
C176 O167 1.250 . S
C176 O168 1.258 . S
O177 Mn162 2.162 . S
O177 C165 1.281 . S
O178 Mn162 2.297 . S
O178 C165 1.236 . S
N179 Mn163 2.282 . S
N179 C180 1.328 . S
N179 C184 1.318 . S
C180 N179 1.328 . S
C180 C181 1.457 . S
C180 H185 0.929 . S
C181 C180 1.457 . S
C181 C182 1.291 . S
C181 H194 0.931 . S
C182 C181 1.291 . S
C182 C183 1.373 . S
C182 H195 0.929 . S
C183 C182 1.373 . S
C183 C184 1.396 . S
C183 C190 1.403 . S
C184 C174 1.476 . S
C184 N179 1.318 . S
C184 C183 1.396 . S
H185 C180 0.929 . S
O186 Mn162 2.385 . S
O186 C164 1.234 . S
O187 Mn162 2.209 . S
O187 Mn163 2.215 . S
O187 C164 1.283 . S
O188 Mn162 2.094 . S
O188 C166 1.240 . S
O189 Mn163 2.117 . S
O189 C166 1.264 . S
C190 C183 1.403 . S
C190 C191 1.399 . S
C190 H196 0.929 . S
C191 C171 1.449 . S
C191 C190 1.399 . S
C191 H197 0.930 . S
H192 C172 0.931 . S
H193 C173 0.930 . S
H194 C181 0.931 . S
H195 C182 0.929 . S
H196 C190 0.929 . S
H197 C191 0.930 . S
Mn198 O203 2.095 . S
Mn198 O213 2.162 . S
Mn198 O214 2.297 . S
Mn198 O222 2.385 . S
Mn198 O223 2.209 . S
Mn198 O224 2.094 . S
Mn199 O204 2.121 . S
Mn199 N206 2.257 . S
Mn199 N215 2.282 . S
Mn199 O223 2.215 . S
Mn199 O225 2.117 . S
C200 O222 1.234 . S
C200 O223 1.283 . S
C201 O213 1.281 . S
C201 O214 1.236 . S
C202 O224 1.240 . S
C202 O225 1.264 . S
O203 Mn198 2.095 . S
O203 C212 1.250 . S
O204 Mn199 2.121 . S
O204 C212 1.258 . S
C205 N206 1.326 . S
C205 C209 1.460 . S
C205 H211 0.929 . S
N206 Mn199 2.257 . S
N206 C205 1.326 . S
N206 C210 1.362 . S
C207 C208 1.258 . S
C207 C210 1.431 . S
C207 C227 1.449 . S
C208 C207 1.258 . S
C208 C209 1.477 . S
C208 H228 0.931 . S
C209 C205 1.460 . S
C209 C208 1.477 . S
C209 H229 0.930 . S
C210 N206 1.362 . S
C210 C207 1.431 . S
C210 C220 1.476 . S
H211 C205 0.929 . S
C212 O203 1.250 . S
C212 O204 1.258 . S
O213 Mn198 2.162 . S
O213 C201 1.281 . S
O214 Mn198 2.297 . S
O214 C201 1.236 . S
N215 Mn199 2.282 . S
N215 C216 1.328 . S
N215 C220 1.318 . S
C216 N215 1.328 . S
C216 C217 1.457 . S
C216 H221 0.929 . S
C217 C216 1.457 . S
C217 C218 1.291 . S
C217 H230 0.931 . S
C218 C217 1.291 . S
C218 C219 1.373 . S
C218 H231 0.929 . S
C219 C218 1.373 . S
C219 C220 1.396 . S
C219 C226 1.403 . S
C220 C210 1.476 . S
C220 N215 1.318 . S
C220 C219 1.396 . S
H221 C216 0.929 . S
O222 Mn198 2.385 . S
O222 C200 1.234 . S
O223 Mn198 2.209 . S
O223 Mn199 2.215 . S
O223 C200 1.283 . S
O224 Mn198 2.094 . S
O224 C202 1.240 . S
O225 Mn199 2.117 . S
O225 C202 1.264 . S
C226 C219 1.403 . S
C226 C227 1.399 . S
C226 H232 0.929 . S
C227 C207 1.449 . S
C227 C226 1.399 . S
C227 H233 0.930 . S
H228 C208 0.931 . S
H229 C209 0.930 . S
H230 C217 0.931 . S
H231 C218 0.929 . S
H232 C226 0.929 . S
H233 C227 0.930 . S
Mn234 O239 2.095 . S
Mn234 O249 2.162 . S
Mn234 O250 2.297 . S
Mn234 O258 2.385 . S
Mn234 O259 2.209 . S
Mn234 O260 2.094 . S
Mn235 O240 2.121 . S
Mn235 N242 2.257 . S
Mn235 N251 2.282 . S
Mn235 O259 2.215 . S
Mn235 O261 2.117 . S
C236 O258 1.234 . S
C236 O259 1.283 . S
C237 O249 1.281 . S
C237 O250 1.236 . S
C238 O260 1.240 . S
C238 O261 1.264 . S
O239 Mn234 2.095 . S
O239 C248 1.250 . S
O240 Mn235 2.121 . S
O240 C248 1.258 . S
C241 N242 1.326 . S
C241 C245 1.460 . S
C241 H247 0.929 . S
N242 Mn235 2.257 . S
N242 C241 1.326 . S
N242 C246 1.362 . S
C243 C244 1.258 . S
C243 C246 1.431 . S
C243 C263 1.449 . S
C244 C243 1.258 . S
C244 C245 1.477 . S
C244 H264 0.931 1_556 S
C245 C241 1.460 . S
C245 C244 1.477 . S
C245 H265 0.930 . S
C246 N242 1.362 . S
C246 C243 1.431 . S
C246 C256 1.476 . S
H247 C241 0.929 . S
C248 O239 1.250 . S
C248 O240 1.258 . S
O249 Mn234 2.162 . S
O249 C237 1.281 . S
O250 Mn234 2.297 . S
O250 C237 1.236 . S
N251 Mn235 2.282 . S
N251 C252 1.328 . S
N251 C256 1.318 . S
C252 N251 1.328 . S
C252 C253 1.457 . S
C252 H257 0.929 . S
C253 C252 1.457 . S
C253 C254 1.291 . S
C253 H266 0.931 . S
C254 C253 1.291 . S
C254 C255 1.373 . S
C254 H267 0.929 . S
C255 C254 1.373 . S
C255 C256 1.396 . S
C255 C262 1.403 . S
C256 C246 1.476 . S
C256 N251 1.318 . S
C256 C255 1.396 . S
H257 C252 0.929 . S
O258 Mn234 2.385 . S
O258 C236 1.234 . S
O259 Mn234 2.209 . S
O259 Mn235 2.215 . S
O259 C236 1.283 . S
O260 Mn234 2.094 . S
O260 C238 1.240 . S
O261 Mn235 2.117 . S
O261 C238 1.264 . S
C262 C255 1.403 . S
C262 C263 1.399 . S
C262 H268 0.929 . S
C263 C243 1.449 . S
C263 C262 1.399 . S
C263 H269 0.930 1_556 S
H264 C244 0.931 1_554 S
H265 C245 0.930 . S
H266 C253 0.931 . S
H267 C254 0.929 . S
H268 C262 0.929 . S
H269 C263 0.930 1_554 S
Mn270 O275 2.095 . S
Mn270 O285 2.162 . S
Mn270 O286 2.297 . S
Mn270 O294 2.385 . S
Mn270 O295 2.209 . S
Mn270 O296 2.094 . S
Mn271 O276 2.121 . S
Mn271 N278 2.257 . S
Mn271 N287 2.282 . S
Mn271 O295 2.215 . S
Mn271 O297 2.117 . S
C272 O294 1.234 . S
C272 O295 1.283 . S
C273 O285 1.281 . S
C273 O286 1.236 . S
C274 O296 1.240 . S
C274 O297 1.264 . S
O275 Mn270 2.095 . S
O275 C284 1.250 . S
O276 Mn271 2.121 . S
O276 C284 1.258 . S
C277 N278 1.326 . S
C277 C281 1.460 . S
C277 H283 0.929 . S
N278 Mn271 2.257 . S
N278 C277 1.326 . S
N278 C282 1.362 . S
C279 C280 1.258 . S
C279 C282 1.431 . S
C279 C299 1.449 . S
C280 C279 1.258 . S
C280 C281 1.477 . S
C280 H300 0.931 . S
C281 C277 1.460 . S
C281 C280 1.477 . S
C281 H301 0.930 . S
C282 N278 1.362 . S
C282 C279 1.431 . S
C282 C292 1.476 . S
H283 C277 0.929 . S
C284 O275 1.250 . S
C284 O276 1.258 . S
O285 Mn270 2.162 . S
O285 C273 1.281 . S
O286 Mn270 2.297 . S
O286 C273 1.236 . S
N287 Mn271 2.282 . S
N287 C288 1.328 . S
N287 C292 1.318 . S
C288 N287 1.328 . S
C288 C289 1.457 . S
C288 H293 0.929 . S
C289 C288 1.457 . S
C289 C290 1.291 . S
C289 H302 0.931 . S
C290 C289 1.291 . S
C290 C291 1.373 . S
C290 H303 0.929 . S
C291 C290 1.373 . S
C291 C292 1.396 . S
C291 C298 1.403 . S
C292 C282 1.476 . S
C292 N287 1.318 . S
C292 C291 1.396 . S
H293 C288 0.929 . S
O294 Mn270 2.385 . S
O294 C272 1.234 . S
O295 Mn270 2.209 . S
O295 Mn271 2.215 . S
O295 C272 1.283 . S
O296 Mn270 2.094 . S
O296 C274 1.240 . S
O297 Mn271 2.117 . S
O297 C274 1.264 . S
C298 C291 1.403 . S
C298 C299 1.399 . S
C298 H304 0.929 . S
C299 C279 1.449 . S
C299 C298 1.399 . S
C299 H305 0.930 . S
H300 C280 0.931 . S
H301 C281 0.930 . S
H302 C289 0.931 . S
H303 C290 0.929 . S
H304 C298 0.929 . S
H305 C299 0.930 . S
Mn306 O311 2.095 . S
Mn306 O321 2.162 . S
Mn306 O322 2.297 . S
Mn306 O330 2.385 . S
Mn306 O331 2.209 . S
Mn306 O332 2.094 . S
Mn307 O312 2.121 . S
Mn307 N314 2.257 . S
Mn307 N323 2.282 . S
Mn307 O331 2.215 . S
Mn307 O333 2.117 . S
C308 O330 1.234 . S
C308 O331 1.283 . S
C309 O321 1.281 . S
C309 O322 1.236 . S
C310 O332 1.240 . S
C310 O333 1.264 . S
O311 Mn306 2.095 . S
O311 C320 1.250 . S
O312 Mn307 2.121 . S
O312 C320 1.258 . S
C313 N314 1.326 . S
C313 C317 1.460 . S
C313 H319 0.929 . S
N314 Mn307 2.257 . S
N314 C313 1.326 . S
N314 C318 1.362 . S
C315 C316 1.258 . S
C315 C318 1.431 . S
C315 C335 1.449 . S
C316 C315 1.258 . S
C316 C317 1.477 . S
C316 H336 0.931 . S
C317 C313 1.460 . S
C317 C316 1.477 . S
C317 H337 0.930 . S
C318 N314 1.362 . S
C318 C315 1.431 . S
C318 C328 1.476 . S
H319 C313 0.929 . S
C320 O311 1.250 . S
C320 O312 1.258 . S
O321 Mn306 2.162 . S
O321 C309 1.281 . S
O322 Mn306 2.297 . S
O322 C309 1.236 . S
N323 Mn307 2.282 . S
N323 C324 1.328 . S
N323 C328 1.318 . S
C324 N323 1.328 . S
C324 C325 1.457 . S
C324 H329 0.929 . S
C325 C324 1.457 . S
C325 C326 1.291 . S
C325 H338 0.931 . S
C326 C325 1.291 . S
C326 C327 1.373 . S
C326 H339 0.929 . S
C327 C326 1.373 . S
C327 C328 1.396 . S
C327 C334 1.403 . S
C328 C318 1.476 . S
C328 N323 1.318 . S
C328 C327 1.396 . S
H329 C324 0.929 . S
O330 Mn306 2.385 . S
O330 C308 1.234 . S
O331 Mn306 2.209 . S
O331 Mn307 2.215 . S
O331 C308 1.283 . S
O332 Mn306 2.094 . S
O332 C310 1.240 . S
O333 Mn307 2.117 . S
O333 C310 1.264 . S
C334 C327 1.403 . S
C334 C335 1.399 . S
C334 H340 0.929 . S
C335 C315 1.449 . S
C335 C334 1.399 . S
C335 H341 0.930 . S
H336 C316 0.931 . S
H337 C317 0.930 . S
H338 C325 0.931 . S
H339 C326 0.929 . S
H340 C334 0.929 . S
H341 C335 0.930 . S
H342 C348 0.930 . S
H343 C352 0.930 . S
H344 C357 0.929 . S
H345 C355 0.929 . S
H346 C350 0.929 . S
H347 C356 0.929 . S
C348 H342 0.930 . S
C348 C349 1.367 . S
C348 C356 1.378 . S
C349 C348 1.367 . S
C349 C357 1.433 . S
C350 H346 0.929 . S
C350 C352 1.378 . S
C350 C354 1.350 . S
C351 C354 1.463 . S
C351 C356 1.350 . S
C351 N359 1.427 . S
C352 H343 0.930 . S
C352 C350 1.378 . S
C352 C353 1.367 . S
C353 C352 1.367 . S
C353 C355 1.433 . S
C354 C350 1.350 . S
C354 C351 1.463 . S
C354 N358 1.427 . S
C355 H345 0.929 . S
C355 C353 1.433 . S
C355 N358 1.384 . S
C356 H347 0.929 . S
C356 C348 1.378 . S
C356 C351 1.350 . S
C357 H344 0.929 . S
C357 C349 1.433 . S
C357 N359 1.384 . S
N358 C354 1.427 . S
N358 C355 1.384 . S
N359 C351 1.427 . S
N359 C357 1.384 . S
H360 C366 0.930 . S
H361 C370 0.930 . S
H362 C375 0.929 . S
H363 C373 0.929 . S
H364 C368 0.929 . S
H365 C374 0.929 . S
C366 H360 0.930 . S
C366 C367 1.367 . S
C366 C374 1.378 . S
C367 C366 1.367 . S
C367 C375 1.433 . S
C368 H364 0.929 . S
C368 C370 1.378 . S
C368 C372 1.350 . S
C369 C372 1.463 . S
C369 C374 1.350 . S
C369 N377 1.427 . S
C370 H361 0.930 . S
C370 C368 1.378 . S
C370 C371 1.367 . S
C371 C370 1.367 . S
C371 C373 1.433 . S
C372 C368 1.350 . S
C372 C369 1.463 . S
C372 N376 1.427 . S
C373 H363 0.929 . S
C373 C371 1.433 . S
C373 N376 1.384 . S
C374 H365 0.929 . S
C374 C366 1.378 . S
C374 C369 1.350 . S
C375 H362 0.929 . S
C375 C367 1.433 . S
C375 N377 1.384 . S
N376 C372 1.427 . S
N376 C373 1.384 . S
N377 C369 1.427 . S
N377 C375 1.384 . S
H378 C384 0.930 . S
H379 C388 0.930 . S
H380 C393 0.929 . S
H381 C391 0.929 . S
H382 C386 0.929 . S
H383 C392 0.929 . S
C384 H378 0.930 . S
C384 C385 1.367 . S
C384 C392 1.378 . S
C385 C384 1.367 . S
C385 C393 1.433 . S
C386 H382 0.929 . S
C386 C388 1.378 . S
C386 C390 1.350 . S
C387 C390 1.463 . S
C387 C392 1.350 . S
C387 N395 1.427 . S
C388 H379 0.930 . S
C388 C386 1.378 . S
C388 C389 1.367 . S
C389 C388 1.367 . S
C389 C391 1.433 . S
C390 C386 1.350 . S
C390 C387 1.463 . S
C390 N394 1.427 . S
C391 H381 0.929 . S
C391 C389 1.433 . S
C391 N394 1.384 . S
C392 H383 0.929 . S
C392 C384 1.378 . S
C392 C387 1.350 . S
C393 H380 0.929 . S
C393 C385 1.433 . S
C393 N395 1.384 . S
N394 C390 1.427 . S
N394 C391 1.384 . S
N395 C387 1.427 . S
N395 C393 1.384 . S
H396 C402 0.930 . S
H397 C406 0.930 . S
H398 C411 0.929 . S
H399 C409 0.929 . S
H400 C404 0.929 . S
H401 C410 0.929 . S
C402 H396 0.930 . S
C402 C403 1.367 . S
C402 C410 1.378 . S
C403 C402 1.367 . S
C403 C411 1.433 . S
C404 H400 0.929 . S
C404 C406 1.378 . S
C404 C408 1.350 . S
C405 C408 1.463 . S
C405 C410 1.350 . S
C405 N413 1.427 . S
C406 H397 0.930 . S
C406 C404 1.378 . S
C406 C407 1.367 . S
C407 C406 1.367 . S
C407 C409 1.433 . S
C408 C404 1.350 . S
C408 C405 1.463 . S
C408 N412 1.427 . S
C409 H399 0.929 . S
C409 C407 1.433 . S
C409 N412 1.384 . S
C410 H401 0.929 . S
C410 C402 1.378 . S
C410 C405 1.350 . S
C411 H398 0.929 . S
C411 C403 1.433 . S
C411 N413 1.384 . S
N412 C408 1.427 . S
N412 C409 1.384 . S
N413 C405 1.427 . S
N413 C411 1.384 . S
H414 C420 0.930 . S
H415 C424 0.930 . S
H416 C429 0.929 . S
H417 C427 0.929 . S
H418 C422 0.929 . S
H419 C428 0.929 . S
C420 H414 0.930 . S
C420 C421 1.367 . S
C420 C428 1.378 . S
C421 C420 1.367 . S
C421 C429 1.433 . S
C422 H418 0.929 . S
C422 C424 1.378 . S
C422 C426 1.350 . S
C423 C426 1.463 . S
C423 C428 1.350 . S
C423 N431 1.427 . S
C424 H415 0.930 . S
C424 C422 1.378 . S
C424 C425 1.367 . S
C425 C424 1.367 . S
C425 C427 1.433 . S
C426 C422 1.350 . S
C426 C423 1.463 . S
C426 N430 1.427 . S
C427 H417 0.929 . S
C427 C425 1.433 . S
C427 N430 1.384 . S
C428 H419 0.929 . S
C428 C420 1.378 . S
C428 C423 1.350 . S
C429 H416 0.929 . S
C429 C421 1.433 . S
C429 N431 1.384 . S
N430 C426 1.427 . S
N430 C427 1.384 . S
N431 C423 1.427 . S
N431 C429 1.384 . S
H432 C438 0.930 . S
H433 C442 0.930 . S
H434 C447 0.929 . S
H435 C445 0.929 . S
H436 C440 0.929 . S
H437 C446 0.929 . S
C438 H432 0.930 . S
C438 C439 1.367 . S
C438 C446 1.378 . S
C439 C438 1.367 . S
C439 C447 1.433 . S
C440 H436 0.929 . S
C440 C442 1.378 . S
C440 C444 1.350 . S
C441 C444 1.463 . S
C441 C446 1.350 . S
C441 N449 1.427 . S
C442 H433 0.930 . S
C442 C440 1.378 . S
C442 C443 1.367 . S
C443 C442 1.367 . S
C443 C445 1.433 . S
C444 C440 1.350 . S
C444 C441 1.463 . S
C444 N448 1.427 . S
C445 H435 0.929 . S
C445 C443 1.433 . S
C445 N448 1.384 . S
C446 H437 0.929 . S
C446 C438 1.378 . S
C446 C441 1.350 . S
C447 H434 0.929 . S
C447 C439 1.433 . S
C447 N449 1.384 . S
N448 C444 1.427 . S
N448 C445 1.384 . S
N449 C441 1.427 . S
N449 C447 1.384 . S
H450 C456 0.930 . S
H451 C460 0.930 . S
H452 C465 0.929 . S
H453 C463 0.929 . S
H454 C458 0.929 . S
H455 C464 0.929 . S
C456 H450 0.930 . S
C456 C457 1.367 . S
C456 C464 1.378 . S
C457 C456 1.367 . S
C457 C465 1.433 . S
C458 H454 0.929 . S
C458 C460 1.378 . S
C458 C462 1.350 . S
C459 C462 1.463 . S
C459 C464 1.350 . S
C459 N467 1.427 . S
C460 H451 0.930 . S
C460 C458 1.378 . S
C460 C461 1.367 . S
C461 C460 1.367 . S
C461 C463 1.433 . S
C462 C458 1.350 . S
C462 C459 1.463 . S
C462 N466 1.427 . S
C463 H453 0.929 . S
C463 C461 1.433 . S
C463 N466 1.384 . S
C464 H455 0.929 . S
C464 C456 1.378 . S
C464 C459 1.350 . S
C465 H452 0.929 . S
C465 C457 1.433 . S
C465 N467 1.384 . S
N466 C462 1.427 . S
N466 C463 1.384 . S
N467 C459 1.427 . S
N467 C465 1.384 . S
H468 C474 0.930 . S
H469 C478 0.930 . S
H470 C483 0.929 . S
H471 C481 0.929 . S
H472 C476 0.929 . S
H473 C482 0.929 . S
C474 H468 0.930 . S
C474 C475 1.367 . S
C474 C482 1.378 . S
C475 C474 1.367 . S
C475 C483 1.433 . S
C476 H472 0.929 . S
C476 C478 1.378 . S
C476 C480 1.350 . S
C477 C480 1.463 . S
C477 C482 1.350 . S
C477 N485 1.427 . S
C478 H469 0.930 . S
C478 C476 1.378 . S
C478 C479 1.367 . S
C479 C478 1.367 . S
C479 C481 1.433 . S
C480 C476 1.350 . S
C480 C477 1.463 . S
C480 N484 1.427 . S
C481 H471 0.929 . S
C481 C479 1.433 . S
C481 N484 1.384 . S
C482 H473 0.929 . S
C482 C474 1.378 . S
C482 C477 1.350 . S
C483 H470 0.929 . S
C483 C475 1.433 . S
C483 N485 1.384 . S
N484 C480 1.427 . S
N484 C481 1.384 . S
N485 C477 1.427 . S
N485 C483 1.384 . S
H486 C492 0.930 . S
H487 C496 0.930 . S
H488 C501 0.929 . S
H489 C499 0.929 . S
H490 C494 0.929 . S
H491 C500 0.929 . S
C492 H486 0.930 . S
C492 C493 1.367 . S
C492 C500 1.378 . S
C493 C492 1.367 . S
C493 C501 1.433 . S
C494 H490 0.929 . S
C494 C496 1.378 . S
C494 C498 1.350 . S
C495 C498 1.463 . S
C495 C500 1.350 . S
C495 N503 1.427 . S
C496 H487 0.930 . S
C496 C494 1.378 . S
C496 C497 1.367 . S
C497 C496 1.367 . S
C497 C499 1.433 . S
C498 C494 1.350 . S
C498 C495 1.463 . S
C498 N502 1.427 . S
C499 H489 0.929 . S
C499 C497 1.433 . S
C499 N502 1.384 . S
C500 H491 0.929 . S
C500 C492 1.378 . S
C500 C495 1.350 . S
C501 H488 0.929 . S
C501 C493 1.433 . S
C501 N503 1.384 . S
N502 C498 1.427 . S
N502 C499 1.384 . S
N503 C495 1.427 . S
N503 C501 1.384 . S
H504 C510 0.930 . S
H505 C514 0.930 . S
H506 C519 0.929 . S
H507 C517 0.929 . S
H508 C512 0.929 . S
H509 C518 0.929 1_556 S
C510 H504 0.930 . S
C510 C511 1.367 1_556 S
C510 C518 1.378 1_556 S
C511 C510 1.367 1_554 S
C511 C519 1.433 . S
C512 H508 0.929 . S
C512 C514 1.378 . S
C512 C516 1.350 . S
C513 C516 1.463 . S
C513 C518 1.350 . S
C513 N521 1.427 . S
C514 H505 0.930 . S
C514 C512 1.378 . S
C514 C515 1.367 . S
C515 C514 1.367 . S
C515 C517 1.433 . S
C516 C512 1.350 . S
C516 C513 1.463 . S
C516 N520 1.427 . S
C517 H507 0.929 . S
C517 C515 1.433 . S
C517 N520 1.384 . S
C518 H509 0.929 1_554 S
C518 C510 1.378 1_554 S
C518 C513 1.350 . S
C519 H506 0.929 . S
C519 C511 1.433 . S
C519 N521 1.384 . S
N520 C516 1.427 . S
N520 C517 1.384 . S
N521 C513 1.427 . S
N521 C519 1.384 . S
H522 C528 0.930 . S
H523 C532 0.930 . S
H524 C537 0.929 . S
H525 C535 0.929 . S
H526 C530 0.929 . S
H527 C536 0.929 . S
C528 H522 0.930 . S
C528 C529 1.367 . S
C528 C536 1.378 . S
C529 C528 1.367 . S
C529 C537 1.433 . S
C530 H526 0.929 . S
C530 C532 1.378 . S
C530 C534 1.350 . S
C531 C534 1.463 . S
C531 C536 1.350 . S
C531 N539 1.427 . S
C532 H523 0.930 . S
C532 C530 1.378 . S
C532 C533 1.367 . S
C533 C532 1.367 . S
C533 C535 1.433 . S
C534 C530 1.350 . S
C534 C531 1.463 . S
C534 N538 1.427 . S
C535 H525 0.929 . S
C535 C533 1.433 . S
C535 N538 1.384 . S
C536 H527 0.929 . S
C536 C528 1.378 . S
C536 C531 1.350 . S
C537 H524 0.929 . S
C537 C529 1.433 . S
C537 N539 1.384 . S
N538 C534 1.427 . S
N538 C535 1.384 . S
N539 C531 1.427 . S
N539 C537 1.384 . S
H540 C546 0.930 . S
H541 C550 0.930 . S
H542 C555 0.929 . S
H543 C553 0.929 . S
H544 C548 0.929 . S
H545 C554 0.929 . S
C546 H540 0.930 . S
C546 C547 1.367 . S
C546 C554 1.378 . S
C547 C546 1.367 . S
C547 C555 1.433 . S
C548 H544 0.929 . S
C548 C550 1.378 . S
C548 C552 1.350 . S
C549 C552 1.463 . S
C549 C554 1.350 . S
C549 N557 1.427 . S
C550 H541 0.930 . S
C550 C548 1.378 . S
C550 C551 1.367 . S
C551 C550 1.367 . S
C551 C553 1.433 . S
C552 C548 1.350 . S
C552 C549 1.463 . S
C552 N556 1.427 . S
C553 H543 0.929 . S
C553 C551 1.433 . S
C553 N556 1.384 . S
C554 H545 0.929 . S
C554 C546 1.378 . S
C554 C549 1.350 . S
C555 H542 0.929 . S
C555 C547 1.433 . S
C555 N557 1.384 . S
N556 C552 1.427 . S
N556 C553 1.384 . S
N557 C549 1.427 . S
N557 C555 1.384 . S
H558 C564 0.930 . S
H559 C568 0.930 . S
H560 C573 0.929 . S
H561 C571 0.929 . S
H562 C566 0.929 . S
H563 C572 0.929 . S
C564 H558 0.930 . S
C564 C565 1.367 . S
C564 C572 1.378 . S
C565 C564 1.367 . S
C565 C573 1.433 . S
C566 H562 0.929 . S
C566 C568 1.378 . S
C566 C570 1.350 . S
C567 C570 1.463 . S
C567 C572 1.350 . S
C567 N575 1.427 . S
C568 H559 0.930 . S
C568 C566 1.378 . S
C568 C569 1.367 . S
C569 C568 1.367 . S
C569 C571 1.433 . S
C570 C566 1.350 . S
C570 C567 1.463 . S
C570 N574 1.427 . S
C571 H561 0.929 . S
C571 C569 1.433 . S
C571 N574 1.384 . S
C572 H563 0.929 . S
C572 C564 1.378 . S
C572 C567 1.350 . S
C573 H560 0.929 . S
C573 C565 1.433 . S
C573 N575 1.384 . S
N574 C570 1.427 . S
N574 C571 1.384 . S
N575 C567 1.427 . S
N575 C573 1.384 . S
H576 C582 0.930 . S
H577 C586 0.930 . S
H578 C591 0.929 . S
H579 C589 0.929 . S
H580 C584 0.929 . S
H581 C590 0.929 . S
C582 H576 0.930 . S
C582 C583 1.367 . S
C582 C590 1.378 . S
C583 C582 1.367 . S
C583 C591 1.433 . S
C584 H580 0.929 . S
C584 C586 1.378 . S
C584 C588 1.350 . S
C585 C588 1.463 . S
C585 C590 1.350 . S
C585 N593 1.427 . S
C586 H577 0.930 . S
C586 C584 1.378 . S
C586 C587 1.367 . S
C587 C586 1.367 . S
C587 C589 1.433 . S
C588 C584 1.350 . S
C588 C585 1.463 . S
C588 N592 1.427 . S
C589 H579 0.929 . S
C589 C587 1.433 . S
C589 N592 1.384 . S
C590 H581 0.929 . S
C590 C582 1.378 . S
C590 C585 1.350 . S
C591 H578 0.929 . S
C591 C583 1.433 . S
C591 N593 1.384 . S
N592 C588 1.427 . S
N592 C589 1.384 . S
N593 C585 1.427 . S
N593 C591 1.384 . S
H594 C600 0.930 . S
H595 C604 0.930 . S
H596 C609 0.929 . S
H597 C607 0.929 . S
H598 C602 0.929 . S
H599 C608 0.929 . S
C600 H594 0.930 . S
C600 C601 1.367 . S
C600 C608 1.378 . S
C601 C600 1.367 . S
C601 C609 1.433 . S
C602 H598 0.929 . S
C602 C604 1.378 . S
C602 C606 1.350 . S
C603 C606 1.463 . S
C603 C608 1.350 . S
C603 N611 1.427 . S
C604 H595 0.930 . S
C604 C602 1.378 . S
C604 C605 1.367 . S
C605 C604 1.367 . S
C605 C607 1.433 . S
C606 C602 1.350 . S
C606 C603 1.463 . S
C606 N610 1.427 . S
C607 H597 0.929 . S
C607 C605 1.433 . S
C607 N610 1.384 . S
C608 H599 0.929 . S
C608 C600 1.378 . S
C608 C603 1.350 . S
C609 H596 0.929 . S
C609 C601 1.433 . S
C609 N611 1.384 . S
N610 C606 1.427 . S
N610 C607 1.384 . S
N611 C603 1.427 . S
N611 C609 1.384 . S
H612 C618 0.930 . S
H613 C622 0.930 . S
H614 C627 0.929 . S
H615 C625 0.929 1_554 S
H616 C620 0.929 . S
H617 C626 0.929 . S
C618 H612 0.930 . S
C618 C619 1.367 . S
C618 C626 1.378 . S
C619 C618 1.367 . S
C619 C627 1.433 . S
C620 H616 0.929 . S
C620 C622 1.378 . S
C620 C624 1.350 . S
C621 C624 1.463 . S
C621 C626 1.350 . S
C621 N629 1.427 . S
C622 H613 0.930 . S
C622 C620 1.378 . S
C622 C623 1.385 . S
C623 C622 1.385 . S
C623 C625 1.437 . S
C624 C620 1.350 . S
C624 C621 1.463 . S
C624 N628 1.427 . S
C625 H615 0.929 1_556 S
C625 C623 1.437 . S
C625 N628 1.384 . S
C626 H617 0.929 . S
C626 C618 1.378 . S
C626 C621 1.350 . S
C627 H614 0.929 . S
C627 C619 1.433 . S
C627 N629 1.384 . S
N628 C624 1.427 . S
N628 C625 1.384 . S
N629 C621 1.427 . S
N629 C627 1.384 . S
H630 C636 0.930 . S
H631 C640 0.930 . S
H632 C645 0.929 . S
H633 C643 0.929 . S
H634 C638 0.929 . S
H635 C644 0.929 . S
C636 H630 0.930 . S
C636 C637 1.367 . S
C636 C644 1.378 . S
C637 C636 1.367 . S
C637 C645 1.433 . S
C638 H634 0.929 . S
C638 C640 1.378 . S
C638 C642 1.350 . S
C639 C642 1.463 . S
C639 C644 1.350 . S
C639 N647 1.427 . S
C640 H631 0.930 . S
C640 C638 1.378 . S
C640 C641 1.367 . S
C641 C640 1.367 . S
C641 C643 1.433 . S
C642 C638 1.350 . S
C642 C639 1.463 . S
C642 N646 1.427 . S
C643 H633 0.929 . S
C643 C641 1.433 . S
C643 N646 1.384 . S
C644 H635 0.929 . S
C644 C636 1.378 . S
C644 C639 1.350 . S
C645 H632 0.929 . S
C645 C637 1.433 . S
C645 N647 1.384 . S
N646 C642 1.427 . S
N646 C643 1.384 . S
N647 C639 1.427 . S
N647 C645 1.384 . S
H648 C654 0.930 . S
H649 C658 0.930 . S
H650 C663 0.929 . S
H651 C661 0.929 . S
H652 C656 0.929 . S
H653 C662 0.929 . S
C654 H648 0.930 . S
C654 C655 1.367 . S
C654 C662 1.378 . S
C655 C654 1.367 . S
C655 C663 1.433 . S
C656 H652 0.929 . S
C656 C658 1.378 . S
C656 C660 1.350 . S
C657 C660 1.463 . S
C657 C662 1.350 . S
C657 N665 1.427 . S
C658 H649 0.930 . S
C658 C656 1.378 . S
C658 C659 1.367 . S
C659 C658 1.367 . S
C659 C661 1.433 . S
C660 C656 1.350 . S
C660 C657 1.463 . S
C660 N664 1.427 . S
C661 H651 0.929 . S
C661 C659 1.433 . S
C661 N664 1.384 . S
C662 H653 0.929 . S
C662 C654 1.378 . S
C662 C657 1.350 . S
C663 H650 0.929 . S
C663 C655 1.433 . S
C663 N665 1.384 . S
N664 C660 1.427 . S
N664 C661 1.384 . S
N665 C657 1.427 . S
N665 C663 1.384 . S
H666 C672 0.930 . S
H667 C676 0.930 . S
H668 C681 0.929 . S
H669 C679 0.929 . S
H670 C674 0.929 . S
H671 C680 0.929 . S
C672 H666 0.930 . S
C672 C673 1.367 . S
C672 C680 1.378 . S
C673 C672 1.367 . S
C673 C681 1.433 . S
C674 H670 0.929 . S
C674 C676 1.378 . S
C674 C678 1.350 . S
C675 C678 1.463 . S
C675 C680 1.350 . S
C675 N683 1.427 . S
C676 H667 0.930 . S
C676 C674 1.378 . S
C676 C677 1.367 . S
C677 C676 1.367 . S
C677 C679 1.433 . S
C678 C674 1.350 . S
C678 C675 1.463 . S
C678 N682 1.427 . S
C679 H669 0.929 . S
C679 C677 1.433 . S
C679 N682 1.384 . S
C680 H671 0.929 . S
C680 C672 1.378 . S
C680 C675 1.350 . S
C681 H668 0.929 . S
C681 C673 1.433 . S
C681 N683 1.384 . S
N682 C678 1.427 . S
N682 C679 1.384 . S
N683 C675 1.427 . S
N683 C681 1.384 . S
H684 C690 0.930 . S
H685 C694 0.930 . S
H686 C699 0.929 . S
H687 C697 0.929 . S
H688 C692 0.929 . S
H689 C698 0.929 . S
C690 H684 0.930 . S
C690 C691 1.367 . S
C690 C698 1.378 . S
C691 C690 1.367 . S
C691 C699 1.433 . S
C692 H688 0.929 . S
C692 C694 1.378 . S
C692 C696 1.350 . S
C693 C696 1.463 . S
C693 C698 1.350 . S
C693 N701 1.427 . S
C694 H685 0.930 . S
C694 C692 1.378 . S
C694 C695 1.367 . S
C695 C694 1.367 . S
C695 C697 1.433 . S
C696 C692 1.350 . S
C696 C693 1.463 . S
C696 N700 1.427 . S
C697 H687 0.929 . S
C697 C695 1.433 . S
C697 N700 1.384 . S
C698 H689 0.929 . S
C698 C690 1.378 . S
C698 C693 1.350 . S
C699 H686 0.929 . S
C699 C691 1.433 . S
C699 N701 1.384 . S
N700 C696 1.427 . S
N700 C697 1.384 . S
N701 C693 1.427 . S
N701 C699 1.384 . S
H702 C708 0.930 . S
H703 C712 0.930 . S
H704 C717 0.929 . S
H705 C715 0.929 . S
H706 C710 0.929 . S
H707 C716 0.929 . S
C708 H702 0.930 . S
C708 C709 1.367 . S
C708 C716 1.378 . S
C709 C708 1.367 . S
C709 C717 1.433 . S
C710 H706 0.929 . S
C710 C712 1.378 . S
C710 C714 1.350 . S
C711 C714 1.463 . S
C711 C716 1.350 . S
C711 N719 1.427 . S
C712 H703 0.930 . S
C712 C710 1.378 . S
C712 C713 1.367 . S
C713 C712 1.367 . S
C713 C715 1.433 . S
C714 C710 1.350 . S
C714 C711 1.463 . S
C714 N718 1.427 . S
C715 H705 0.929 . S
C715 C713 1.433 . S
C715 N718 1.384 . S
C716 H707 0.929 . S
C716 C708 1.378 . S
C716 C711 1.350 . S
C717 H704 0.929 . S
C717 C709 1.433 . S
C717 N719 1.384 . S
N718 C714 1.427 . S
N718 C715 1.384 . S
N719 C711 1.427 . S
N719 C717 1.384 . S
H720 C726 0.930 . S
H721 C730 0.930 . S
H722 C735 0.929 . S
H723 C733 0.929 . S
H724 C728 0.929 . S
H725 C734 0.929 . S
C726 H720 0.930 . S
C726 C727 1.367 . S
C726 C734 1.378 . S
C727 C726 1.367 . S
C727 C735 1.433 . S
C728 H724 0.929 . S
C728 C730 1.378 . S
C728 C732 1.350 . S
C729 C732 1.463 . S
C729 C734 1.350 . S
C729 N737 1.427 . S
C730 H721 0.930 . S
C730 C728 1.378 . S
C730 C731 1.367 . S
C731 C730 1.367 . S
C731 C733 1.433 . S
C732 C728 1.350 . S
C732 C729 1.463 . S
C732 N736 1.427 . S
C733 H723 0.929 . S
C733 C731 1.433 . S
C733 N736 1.384 . S
C734 H725 0.929 . S
C734 C726 1.378 . S
C734 C729 1.350 . S
C735 H722 0.929 . S
C735 C727 1.433 . S
C735 N737 1.384 . S
N736 C732 1.427 . S
N736 C733 1.384 . S
N737 C729 1.427 . S
N737 C735 1.384 . S
H738 C744 0.930 . S
H739 C748 0.930 . S
H740 C753 0.929 . S
H741 C751 0.929 . S
H742 C746 0.929 . S
H743 C752 0.929 . S
C744 H738 0.930 . S
C744 C745 1.367 . S
C744 C752 1.378 . S
C745 C744 1.367 . S
C745 C753 1.433 . S
C746 H742 0.929 . S
C746 C748 1.378 1_554 S
C746 C750 1.350 . S
C747 C750 1.463 . S
C747 C752 1.350 . S
C747 N755 1.427 . S
C748 H739 0.930 . S
C748 C746 1.378 1_556 S
C748 C749 1.367 . S
C749 C748 1.367 . S
C749 C751 1.433 . S
C750 C746 1.350 . S
C750 C747 1.463 . S
C750 N754 1.427 . S
C751 H741 0.929 . S
C751 C749 1.433 . S
C751 N754 1.384 1_556 S
C752 H743 0.929 . S
C752 C744 1.378 . S
C752 C747 1.350 . S
C753 H740 0.929 . S
C753 C745 1.433 . S
C753 N755 1.384 . S
N754 C750 1.427 . S
N754 C751 1.384 1_554 S
N755 C747 1.427 . S
N755 C753 1.384 . S
H756 C762 0.930 . S
H757 C766 0.930 . S
H758 C771 0.929 . S
H759 C769 0.929 . S
H760 C764 0.929 . S
H761 C770 0.929 . S
C762 H756 0.930 . S
C762 C763 1.367 . S
C762 C770 1.378 . S
C763 C762 1.367 . S
C763 C771 1.433 . S
C764 H760 0.929 . S
C764 C766 1.378 . S
C764 C768 1.350 . S
C765 C768 1.463 . S
C765 C770 1.350 . S
C765 N773 1.427 . S
C766 H757 0.930 . S
C766 C764 1.378 . S
C766 C767 1.367 . S
C767 C766 1.367 . S
C767 C769 1.433 . S
C768 C764 1.350 . S
C768 C765 1.463 . S
C768 N772 1.427 . S
C769 H759 0.929 . S
C769 C767 1.433 . S
C769 N772 1.384 . S
C770 H761 0.929 . S
C770 C762 1.378 . S
C770 C765 1.350 . S
C771 H758 0.929 . S
C771 C763 1.433 . S
C771 N773 1.384 . S
N772 C768 1.427 . S
N772 C769 1.384 . S
N773 C765 1.427 . S
N773 C771 1.384 . S
C353 C309 1.585 . S
C349 C19 1.490 . S
C367 C40 1.532 . S
C371 C129 1.619 . S
C385 C51 1.503 . S
C389 C176 1.558 . S
C403 C72 1.445 . S
C407 C212 1.511 . S
C425 C237 1.568 . S
C421 C103 1.477 . S
C439 C114 1.485 . S
C443 C273 1.586 . S
C457 C30 1.503 . S
C461 C165 1.620 . S
C475 C61 1.490 . S
C479 C201 1.569 . S
C493 C82 1.443 . S
C497 C248 1.498 . S
C515 C284 1.537 . S
C511 C93 1.456 1_554 S
C533 C320 1.532 . S
C529 C124 1.499 . S
C551 C140 1.560 . S
C547 C9 1.478 . S
C565 C17 1.440 . S
C569 C164 1.506 . S
C583 C38 1.447 . S
C587 C200 1.520 . S
C605 C238 1.513 . S
C601 C54 1.421 . S
C619 C75 1.430 . S
C623 C274 1.496 1_556 S
C641 C310 1.489 . S
C637 C101 1.414 . S
C659 C130 1.478 . S
C655 C117 1.394 . S
C677 C308 1.494 . S
C673 C33 1.404 . S
C691 C59 1.417 . S
C695 C128 1.501 . S
C713 C166 1.506 . S
C709 C80 1.431 . S
C727 C96 1.416 . S
C731 C202 1.506 . S
C745 C122 1.463 . S
C749 C236 1.542 . S
C763 C12 1.457 . S
C767 C272 1.529 . S
