# Generated by pormake.
# Topology ctn, (3,4)-cn, num edge types: 1
# Building blocks:
#     Node 0, Type 0, BuildingBlock: BETDAH_clean_linker_0, # of connection points: 3
#     Node 1, Type 0, BuildingBlock: BETDAH_clean_linker_0, # of connection points: 3
#     Node 2, Type 0, BuildingBlock: BETDAH_clean_linker_0, # of connection points: 3
#     Node 3, Type 0, BuildingBlock: BETDAH_clean_linker_0, # of connection points: 3
#     Node 4, Type 0, BuildingBlock: BETDAH_clean_linker_0, # of connection points: 3
#     Node 5, Type 0, BuildingBlock: BETDAH_clean_linker_0, # of connection points: 3
#     Node 6, Type 0, BuildingBlock: BETDAH_clean_linker_0, # of connection points: 3
#     Node 7, Type 0, BuildingBlock: BETDAH_clean_linker_0, # of connection points: 3
#     Node 8, Type 0, BuildingBlock: BETDAH_clean_linker_0, # of connection points: 3
#     Node 9, Type 0, BuildingBlock: BETDAH_clean_linker_0, # of connection points: 3
#     Node 10, Type 0, BuildingBlock: BETDAH_clean_linker_0, # of connection points: 3
#     Node 11, Type 0, BuildingBlock: BETDAH_clean_linker_0, # of connection points: 3
#     Node 12, Type 0, BuildingBlock: BETDAH_clean_linker_0, # of connection points: 3
#     Node 13, Type 0, BuildingBlock: BETDAH_clean_linker_0, # of connection points: 3
#     Node 14, Type 0, BuildingBlock: BETDAH_clean_linker_0, # of connection points: 3
#     Node 15, Type 0, BuildingBlock: BETDAH_clean_linker_0, # of connection points: 3
#     Node 16, Type 1, BuildingBlock: TATPOV_clean_sbu_0, # of connection points: 4
#     Node 17, Type 1, BuildingBlock: TATPOV_clean_sbu_0, # of connection points: 4
#     Node 18, Type 1, BuildingBlock: TATPOV_clean_sbu_0, # of connection points: 4
#     Node 19, Type 1, BuildingBlock: TATPOV_clean_sbu_0, # of connection points: 4
#     Node 20, Type 1, BuildingBlock: TATPOV_clean_sbu_0, # of connection points: 4
#     Node 21, Type 1, BuildingBlock: TATPOV_clean_sbu_0, # of connection points: 4
#     Node 22, Type 1, BuildingBlock: TATPOV_clean_sbu_0, # of connection points: 4
#     Node 23, Type 1, BuildingBlock: TATPOV_clean_sbu_0, # of connection points: 4
#     Node 24, Type 1, BuildingBlock: TATPOV_clean_sbu_0, # of connection points: 4
#     Node 25, Type 1, BuildingBlock: TATPOV_clean_sbu_0, # of connection points: 4
#     Node 26, Type 1, BuildingBlock: TATPOV_clean_sbu_0, # of connection points: 4
#     Node 27, Type 1, BuildingBlock: TATPOV_clean_sbu_0, # of connection points: 4
#     Edge 28, Type (0, 1), BuildingBlock: EZIPEK_clean_linker_0, # of connection points: 2
#     Edge 29, Type (0, 1), BuildingBlock: EZIPEK_clean_linker_0, # of connection points: 2
#     Edge 30, Type (0, 1), BuildingBlock: EZIPEK_clean_linker_0, # of connection points: 2
#     Edge 31, Type (0, 1), BuildingBlock: EZIPEK_clean_linker_0, # of connection points: 2
#     Edge 32, Type (0, 1), BuildingBlock: EZIPEK_clean_linker_0, # of connection points: 2
#     Edge 33, Type (0, 1), BuildingBlock: EZIPEK_clean_linker_0, # of connection points: 2
#     Edge 34, Type (0, 1), BuildingBlock: EZIPEK_clean_linker_0, # of connection points: 2
#     Edge 35, Type (0, 1), BuildingBlock: EZIPEK_clean_linker_0, # of connection points: 2
#     Edge 36, Type (0, 1), BuildingBlock: EZIPEK_clean_linker_0, # of connection points: 2
#     Edge 37, Type (0, 1), BuildingBlock: EZIPEK_clean_linker_0, # of connection points: 2
#     Edge 38, Type (0, 1), BuildingBlock: EZIPEK_clean_linker_0, # of connection points: 2
#     Edge 39, Type (0, 1), BuildingBlock: EZIPEK_clean_linker_0, # of connection points: 2
#     Edge 40, Type (0, 1), BuildingBlock: EZIPEK_clean_linker_0, # of connection points: 2
#     Edge 41, Type (0, 1), BuildingBlock: EZIPEK_clean_linker_0, # of connection points: 2
#     Edge 42, Type (0, 1), BuildingBlock: EZIPEK_clean_linker_0, # of connection points: 2
#     Edge 43, Type (0, 1), BuildingBlock: EZIPEK_clean_linker_0, # of connection points: 2
#     Edge 44, Type (0, 1), BuildingBlock: EZIPEK_clean_linker_0, # of connection points: 2
#     Edge 45, Type (0, 1), BuildingBlock: EZIPEK_clean_linker_0, # of connection points: 2
#     Edge 46, Type (0, 1), BuildingBlock: EZIPEK_clean_linker_0, # of connection points: 2
#     Edge 47, Type (0, 1), BuildingBlock: EZIPEK_clean_linker_0, # of connection points: 2
#     Edge 48, Type (0, 1), BuildingBlock: EZIPEK_clean_linker_0, # of connection points: 2
#     Edge 49, Type (0, 1), BuildingBlock: EZIPEK_clean_linker_0, # of connection points: 2
#     Edge 50, Type (0, 1), BuildingBlock: EZIPEK_clean_linker_0, # of connection points: 2
#     Edge 51, Type (0, 1), BuildingBlock: EZIPEK_clean_linker_0, # of connection points: 2
#     Edge 52, Type (0, 1), BuildingBlock: EZIPEK_clean_linker_0, # of connection points: 2
#     Edge 53, Type (0, 1), BuildingBlock: EZIPEK_clean_linker_0, # of connection points: 2
#     Edge 54, Type (0, 1), BuildingBlock: EZIPEK_clean_linker_0, # of connection points: 2
#     Edge 55, Type (0, 1), BuildingBlock: EZIPEK_clean_linker_0, # of connection points: 2
#     Edge 56, Type (0, 1), BuildingBlock: EZIPEK_clean_linker_0, # of connection points: 2
#     Edge 57, Type (0, 1), BuildingBlock: EZIPEK_clean_linker_0, # of connection points: 2
#     Edge 58, Type (0, 1), BuildingBlock: EZIPEK_clean_linker_0, # of connection points: 2
#     Edge 59, Type (0, 1), BuildingBlock: EZIPEK_clean_linker_0, # of connection points: 2
#     Edge 60, Type (0, 1), BuildingBlock: EZIPEK_clean_linker_0, # of connection points: 2
#     Edge 61, Type (0, 1), BuildingBlock: EZIPEK_clean_linker_0, # of connection points: 2
#     Edge 62, Type (0, 1), BuildingBlock: EZIPEK_clean_linker_0, # of connection points: 2
#     Edge 63, Type (0, 1), BuildingBlock: EZIPEK_clean_linker_0, # of connection points: 2
#     Edge 64, Type (0, 1), BuildingBlock: EZIPEK_clean_linker_0, # of connection points: 2
#     Edge 65, Type (0, 1), BuildingBlock: EZIPEK_clean_linker_0, # of connection points: 2
#     Edge 66, Type (0, 1), BuildingBlock: EZIPEK_clean_linker_0, # of connection points: 2
#     Edge 67, Type (0, 1), BuildingBlock: EZIPEK_clean_linker_0, # of connection points: 2
#     Edge 68, Type (0, 1), BuildingBlock: EZIPEK_clean_linker_0, # of connection points: 2
#     Edge 69, Type (0, 1), BuildingBlock: EZIPEK_clean_linker_0, # of connection points: 2
#     Edge 70, Type (0, 1), BuildingBlock: EZIPEK_clean_linker_0, # of connection points: 2
#     Edge 71, Type (0, 1), BuildingBlock: EZIPEK_clean_linker_0, # of connection points: 2
#     Edge 72, Type (0, 1), BuildingBlock: EZIPEK_clean_linker_0, # of connection points: 2
#     Edge 73, Type (0, 1), BuildingBlock: EZIPEK_clean_linker_0, # of connection points: 2
#     Edge 74, Type (0, 1), BuildingBlock: EZIPEK_clean_linker_0, # of connection points: 2
#     Edge 75, Type (0, 1), BuildingBlock: EZIPEK_clean_linker_0, # of connection points: 2
# Relax obj value: 0.049
# Max RMSD: 0.161
# Mean RMSD: 0.095
data_MOF--net-ctn--node1-TATPOV_clean_sbu_0--node2-BETDAH_clean_linker_0--edge1-EZIPEK_clean_linker_0
_symmetry_space_group_name_H-M    P1
_symmetry_Int_Tables_number       1
_symmetry_cell_setting            triclinic
loop_
_symmetry_equiv_pos_as_xyz
'x, y, z'
_cell_length_a     38.958218
_cell_length_b     38.999383
_cell_length_c     39.523525
_cell_angle_alpha  100.94553
_cell_angle_beta   91.721606
_cell_angle_gamma 96.527183
loop_
_atom_site_label
_atom_site_type_symbol
_atom_site_fract_x
_atom_site_fract_y
_atom_site_fract_z
_atom_type_partial_charge
H0 H 0.06149 0.96911 0.1011 0.0
H1 H 0.08606 0.02399 0.01821 0.0
H2 H 0.00302 0.05171 0.08341 0.0
C3 C 0.05666 0.9892 0.08661 0.0
C4 C 0.02986 0.00995 0.09568 0.0
C5 C 0.07688 0.99398 0.0585 0.0
C6 C 0.07055 0.02028 0.0398 0.0
C7 C 0.04385 0.04125 0.04894 0.0
C8 C 0.02372 0.0357 0.07661 0.0
N9 N 0.03563 0.06784 0.03098 0.0
C10 C 0.05407 0.08003 0.00511 0.0
H11 H 0.31205 0.6929 0.2766 0.0
H12 H 0.35733 0.72847 0.19041 0.0
H13 H 0.25654 0.67056 0.1777 0.0
C14 C 0.31071 0.69232 0.24933 0.0
C15 C 0.2834 0.67241 0.22722 0.0
C16 C 0.33869 0.71082 0.23607 0.0
C17 C 0.33591 0.71514 0.20162 0.0
C18 C 0.30527 0.70239 0.18162 0.0
C19 C 0.27933 0.68125 0.19438 0.0
N20 N 0.30239 0.70625 0.14685 0.0
C21 C 0.29222 0.73631 0.13748 0.0
H22 H 0.06637 0.40965 0.06349 0.0
H23 H 0.03461 0.51314 0.07189 0.0
H24 H 0.03144 0.44425 0.9728 0.0
C25 C 0.056 0.42947 0.05165 0.0
C26 C 0.04857 0.42286 0.01599 0.0
C27 C 0.05096 0.46197 0.07192 0.0
C28 C 0.03783 0.48771 0.05645 0.0
C29 C 0.0307 0.48119 0.02064 0.0
C30 C 0.03633 0.44893 0.00054 0.0
N31 N 0.02121 0.50801 0.00404 0.0
C32 C 0.98945 0.52072 0.00807 0.0
H33 H 0.81141 0.78363 0.17877 0.0
H34 H 0.75683 0.69447 0.21165 0.0
H35 H 0.7695 0.79585 0.27927 0.0
C36 C 0.79685 0.77259 0.19795 0.0
C37 C 0.79159 0.79397 0.22965 0.0
C38 C 0.78402 0.73681 0.1913 0.0
C39 C 0.76611 0.72233 0.2165 0.0
C40 C 0.7601 0.74358 0.24796 0.0
C41 C 0.77278 0.77954 0.25449 0.0
N42 N 0.74399 0.72763 0.2737 0.0
C43 C 0.71432 0.73823 0.28906 0.0
H44 H 0.08183 0.02624 0.41046 0.0
H45 H 0.12664 0.01232 0.50687 0.0
H46 H 0.0179 0.98123 0.48191 0.0
C47 C 0.07907 0.01751 0.43481 0.0
C48 C 0.04651 0.00374 0.44368 0.0
C49 C 0.10801 0.02036 0.45742 0.0
C50 C 0.10429 0.00974 0.48915 0.0
C51 C 0.07217 0.99501 0.49792 0.0
C52 C 0.04309 0.99177 0.475 0.0
N53 N 0.06998 0.98514 0.53056 0.0
C54 C 0.04819 0.95663 0.53699 0.0
H55 H 0.28446 0.71759 0.82563 0.0
H56 H 0.21706 0.77184 0.77153 0.0
H57 H 0.26501 0.68559 0.71585 0.0
C58 C 0.27174 0.72075 0.80183 0.0
C59 C 0.27679 0.69805 0.77075 0.0
C60 C 0.25047 0.74768 0.80221 0.0
C61 C 0.23339 0.7511 0.77135 0.0
C62 C 0.23887 0.72875 0.7401 0.0
C63 C 0.26091 0.70279 0.73998 0.0
N64 N 0.22379 0.73241 0.70808 0.0
C65 C 0.19122 0.74276 0.70389 0.0
H66 H 0.89424 0.56488 0.54354 0.0
H67 H 0.99201 0.57376 0.49568 0.0
H68 H 0.93186 0.47265 0.48656 0.0
C69 C 0.91376 0.55283 0.528 0.0
C70 C 0.90937 0.51646 0.51533 0.0
C71 C 0.94366 0.57356 0.52102 0.0
C72 C 0.96882 0.55781 0.50076 0.0
C73 C 0.96448 0.52128 0.48834 0.0
C74 C 0.935 0.50087 0.49602 0.0
N75 N 0.98972 0.50391 0.46916 0.0
C76 C 0.01171 0.51919 0.44776 0.0
H77 H 0.8752 0.74942 0.81506 0.0
H78 H 0.85523 0.85539 0.81341 0.0
H79 H 0.82326 0.80673 0.89815 0.0
C80 C 0.86527 0.77337 0.82718 0.0
C81 C 0.84899 0.77474 0.85851 0.0
C82 C 0.8676 0.80252 0.81088 0.0
C83 C 0.85371 0.83304 0.82618 0.0
C84 C 0.83788 0.83468 0.85781 0.0
C85 C 0.83603 0.80568 0.87405 0.0
N86 N 0.82282 0.86481 0.87334 0.0
C87 C 0.80686 0.88547 0.85415 0.0
H88 H 0.38197 0.26231 0.30529 0.0
H89 H 0.34158 0.3604 0.30376 0.0
H90 H 0.31115 0.3002 0.3809 0.0
C91 C 0.36631 0.28244 0.31646 0.0
C92 C 0.34673 0.27785 0.34475 0.0
C93 C 0.3647 0.31231 0.30173 0.0
C94 C 0.34319 0.33757 0.31539 0.0
C95 C 0.3241 0.33333 0.34428 0.0
C96 C 0.32637 0.30373 0.35902 0.0
N97 N 0.30235 0.35821 0.35919 0.0
C98 C 0.28417 0.37764 0.34044 0.0
H99 H 0.54244 0.90707 0.57786 0.0
H100 H 0.48884 0.98812 0.63474 0.0
H101 H 0.45189 0.93763 0.53188 0.0
C102 C 0.52148 0.92328 0.57931 0.0
C103 C 0.49751 0.91929 0.55112 0.0
C104 C 0.51809 0.94765 0.60966 0.0
C105 C 0.49133 0.96897 0.61143 0.0
C106 C 0.46794 0.96611 0.58331 0.0
C107 C 0.47053 0.94066 0.55344 0.0
N108 N 0.44206 0.98909 0.58599 0.0
C109 C 0.42796 0.00018 0.55784 0.0
H110 H 0.3297 0.31091 0.6541 0.0
H111 H 0.29535 0.21082 0.68007 0.0
H112 H 0.29943 0.30541 0.75711 0.0
C113 C 0.31955 0.29568 0.67265 0.0
C114 C 0.31523 0.31253 0.70664 0.0
C115 C 0.31222 0.25903 0.66295 0.0
C116 C 0.30033 0.23925 0.6873 0.0
C117 C 0.29485 0.25583 0.72097 0.0
C118 C 0.30229 0.29259 0.7307 0.0
N119 N 0.28482 0.23472 0.74531 0.0
C120 C 0.25497 0.23798 0.7634 0.0
H121 H 0.84348 0.16211 0.78087 0.0
H122 H 0.8795 0.25879 0.74923 0.0
H123 H 0.77299 0.21424 0.72801 0.0
C124 C 0.83863 0.18339 0.76794 0.0
C125 C 0.80523 0.185 0.7545 0.0
C126 C 0.86549 0.20984 0.76592 0.0
C127 C 0.85888 0.23789 0.7502 0.0
C128 C 0.82587 0.23947 0.73595 0.0
C129 C 0.79889 0.2128 0.73797 0.0
N130 N 0.82057 0.26943 0.72184 0.0
C131 C 0.79528 0.27061 0.69663 0.0
H132 H 0.55353 0.48371 0.59758 0.0
H133 H 0.59673 0.50206 0.50301 0.0
H134 H 0.51153 0.5562 0.54227 0.0
C135 C 0.55388 0.49716 0.57595 0.0
C136 C 0.52958 0.52066 0.57293 0.0
C137 C 0.57812 0.49036 0.55076 0.0
C138 C 0.57811 0.50739 0.52261 0.0
C139 C 0.55479 0.53158 0.51952 0.0
C140 C 0.53033 0.53828 0.5448 0.0
N141 N 0.55641 0.5472 0.48981 0.0
C142 C 0.54149 0.57665 0.48441 0.0
H143 H 0.59196 0.54412 0.91194 0.0
H144 H 0.59712 0.51082 0.00974 0.0
H145 H 0.49871 0.50671 0.95579 0.0
C146 C 0.5792 0.53347 0.93236 0.0
C147 C 0.54316 0.52528 0.9302 0.0
C148 C 0.59878 0.52823 0.96099 0.0
C149 C 0.5821 0.51437 0.98742 0.0
C150 C 0.54587 0.50668 0.98553 0.0
C151 C 0.52667 0.51247 0.95709 0.0
N152 N 0.52765 0.49486 0.01248 0.0
C153 C 0.53986 0.47316 0.03301 0.0
H154 H 0.78116 0.19138 0.34009 0.0
H155 H 0.71523 0.24867 0.28806 0.0
H156 H 0.76472 0.16491 0.2297 0.0
C157 C 0.7692 0.19587 0.31645 0.0
C158 C 0.77515 0.17473 0.28478 0.0
C159 C 0.74783 0.22277 0.31771 0.0
C160 C 0.73173 0.22797 0.28704 0.0
C161 C 0.73806 0.2072 0.25514 0.0
C162 C 0.76004 0.18104 0.25426 0.0
N163 N 0.72343 0.21212 0.22334 0.0
C164 C 0.69438 0.22908 0.21978 0.0
H165 H 0.4171 0.0878 0.04163 0.0
H166 H 0.52344 0.09654 0.01383 0.0
H167 H 0.46217 0.99538 0.99584 0.0
C168 C 0.43896 0.07571 0.03052 0.0
C169 C 0.43573 0.0393 0.0181 0.0
C170 C 0.47066 0.09641 0.02912 0.0
C171 C 0.49887 0.08066 0.01461 0.0
C172 C 0.49576 0.04415 0.0027 0.0
C173 C 0.46438 0.02363 0.00487 0.0
N174 N 0.52427 0.02723 0.9899 0.0
C175 C 0.54545 0.03933 0.966 0.0
Zn176 Zn 0.31241 0.85356 0.99468 0.0
Zn177 Zn 0.25396 0.88402 0.00629 0.0
O178 O 0.25558 0.85378 0.04461 0.0
O179 O 0.30374 0.82947 0.03448 0.0
O180 O 0.21275 0.91209 0.01639 0.0
O181 O 0.34191 0.89997 0.00243 0.0
O182 O 0.29405 0.92497 0.01109 0.0
C183 C 0.27734 0.83373 0.05192 0.0
C184 C 0.26315 0.83475 0.93672 0.0
O185 O 0.24443 0.85425 0.95615 0.0
O186 O 0.29316 0.83067 0.94713 0.0
C187 C 0.18206 0.90033 0.02208 0.0
O188 O 0.17402 0.86648 0.0209 0.0
C189 C 0.32682 0.92729 0.0091 0.0
Zn190 Zn 0.10357 0.44886 0.27703 0.0
Zn191 Zn 0.14379 0.51114 0.27834 0.0
O192 O 0.1139 0.52588 0.31893 0.0
O193 O 0.08097 0.47559 0.31795 0.0
O194 O 0.17669 0.55361 0.27516 0.0
O195 O 0.14639 0.42609 0.28628 0.0
O196 O 0.17772 0.4772 0.28797 0.0
C197 C 0.08999 0.50767 0.33134 0.0
C198 C 0.09708 0.47462 0.21425 0.0
O199 O 0.11838 0.49986 0.23072 0.0
O200 O 0.08648 0.44886 0.22803 0.0
C201 C 0.16933 0.5792 0.26182 0.0
O202 O 0.13731 0.58066 0.25132 0.0
C203 C 0.17544 0.44499 0.29057 0.0
Zn204 Zn 0.81057 0.5797 0.92719 0.0
Zn205 Zn 0.80952 0.62536 0.98897 0.0
O206 O 0.84971 0.59807 0.99747 0.0
O207 O 0.85102 0.56046 0.94829 0.0
O208 O 0.80632 0.65825 0.0341 0.0
O209 O 0.82023 0.62258 0.90472 0.0
O210 O 0.81982 0.65842 0.95517 0.0
C211 C 0.86318 0.57335 0.97874 0.0
C212 C 0.74531 0.57336 0.95909 0.0
O213 O 0.76116 0.59764 0.98225 0.0
O214 O 0.76057 0.56044 0.93264 0.0
C215 C 0.80568 0.64648 0.06192 0.0
O216 O 0.80817 0.61304 0.06114 0.0
C217 C 0.82321 0.65344 0.92273 0.0
Zn218 Zn 0.8617 0.00023 0.32519 0.0
Zn219 Zn 0.90495 0.00392 0.27242 0.0
O220 O 0.87658 0.0464 0.27273 0.0
O221 O 0.84143 0.04258 0.31508 0.0
O222 O 0.94004 0.0066 0.23509 0.0
O223 O 0.90222 0.00533 0.35926 0.0
O224 O 0.93667 0.00593 0.31594 0.0
C225 C 0.8524 0.05783 0.29127 0.0
C226 C 0.85288 0.93814 0.27148 0.0
O227 O 0.87623 0.95515 0.25707 0.0
O228 O 0.84223 0.95157 0.30037 0.0
C229 C 0.93204 0.00021 0.20283 0.0
O230 O 0.89939 0.99174 0.19212 0.0
C231 C 0.93223 0.00631 0.34786 0.0
Zn232 Zn 0.31598 0.07885 0.40677 0.0
Zn233 Zn 0.30946 0.12463 0.46825 0.0
O234 O 0.34403 0.09299 0.48042 0.0
O235 O 0.35083 0.05596 0.4321 0.0
O236 O 0.30543 0.15731 0.51335 0.0
O237 O 0.33029 0.12189 0.38574 0.0
O238 O 0.32372 0.15732 0.43516 0.0
C239 C 0.35751 0.06689 0.46418 0.0
C240 C 0.24727 0.07431 0.43361 0.0
O241 O 0.26118 0.09851 0.45794 0.0
O242 O 0.26458 0.06182 0.4085 0.0
C243 C 0.33069 0.17965 0.52701 0.0
O244 O 0.35971 0.18212 0.51106 0.0
C245 C 0.33091 0.15265 0.40356 0.0
Zn246 Zn 0.36939 0.52335 0.80543 0.0
Zn247 Zn 0.40965 0.5297 0.75121 0.0
O248 O 0.37888 0.57063 0.75368 0.0
O249 O 0.34643 0.56506 0.79768 0.0
O250 O 0.44091 0.53327 0.71103 0.0
O251 O 0.41256 0.52995 0.83672 0.0
O252 O 0.44496 0.53444 0.7925 0.0
C253 C 0.35533 0.58099 0.77367 0.0
C254 C 0.36133 0.46108 0.75264 0.0
O255 O 0.38372 0.47911 0.73808 0.0
O256 O 0.3502 0.47414 0.78142 0.0
C257 C 0.42972 0.52929 0.67975 0.0
O258 O 0.39622 0.52377 0.67228 0.0
C259 C 0.44207 0.53368 0.82442 0.0
Zn260 Zn 0.79738 0.32741 0.51577 0.0
Zn261 Zn 0.73728 0.35623 0.52094 0.0
O262 O 0.7383 0.33106 0.56312 0.0
O263 O 0.78713 0.30724 0.55793 0.0
O264 O 0.69409 0.38159 0.52426 0.0
O265 O 0.82438 0.37537 0.52105 0.0
O266 O 0.77517 0.39847 0.52423 0.0
C267 C 0.76026 0.3132 0.57415 0.0
C268 C 0.75216 0.30381 0.45525 0.0
O269 O 0.73207 0.32368 0.47216 0.0
O270 O 0.78145 0.30074 0.46824 0.0
C271 C 0.68289 0.39577 0.55288 0.0
O272 O 0.69784 0.39192 0.58193 0.0
C273 C 0.80806 0.40193 0.52385 0.0
Zn274 Zn 0.62885 0.95181 0.79796 0.0
Zn275 Zn 0.66199 0.01193 0.78444 0.0
O276 O 0.63832 0.03126 0.82862 0.0
O277 O 0.60901 0.98229 0.83801 0.0
O278 O 0.68751 0.05435 0.77009 0.0
O279 O 0.67426 0.93414 0.80535 0.0
O280 O 0.70132 0.98283 0.79322 0.0
C281 C 0.61745 0.01523 0.84627 0.0
C282 C 0.60707 0.9639 0.73292 0.0
O283 O 0.62768 0.99209 0.74285 0.0
O284 O 0.60384 0.94059 0.75129 0.0
C285 C 0.71127 0.0738 0.78981 0.0
O286 O 0.71812 0.06714 0.82049 0.0
C287 C 0.70203 0.95307 0.80195 0.0
Zn288 Zn 0.0655 0.27991 0.83897 0.0
Zn289 Zn 0.06605 0.22657 0.87476 0.0
O290 O 0.11147 0.22537 0.84815 0.0
O291 O 0.11035 0.26827 0.81885 0.0
O292 O 0.06449 0.18712 0.90236 0.0
O293 O 0.06627 0.31419 0.88389 0.0
O294 O 0.06569 0.27084 0.91276 0.0
C295 C 0.12512 0.24368 0.82733 0.0
C296 C 0.00478 0.22992 0.82407 0.0
O297 O 0.01978 0.21478 0.84528 0.0
O298 O 0.01932 0.25781 0.81618 0.0
C299 C 0.09003 0.17273 0.91165 0.0
O300 O 0.12116 0.18218 0.90218 0.0
C301 C 0.06571 0.30341 0.91212 0.0
Zn302 Zn 0.52531 0.80297 0.35481 0.0
Zn303 Zn 0.51643 0.74646 0.38008 0.0
O304 O 0.56617 0.747 0.36293 0.0
O305 O 0.56853 0.78866 0.33206 0.0
O306 O 0.51013 0.70319 0.4025 0.0
O307 O 0.53056 0.83406 0.40151 0.0
O308 O 0.50727 0.7874 0.41974 0.0
C309 C 0.582 0.76426 0.3425 0.0
C310 C 0.4647 0.7576 0.32512 0.0
O311 O 0.47949 0.73626 0.33968 0.0
O312 O 0.47715 0.7897 0.33104 0.0
C313 C 0.53185 0.69932 0.42584 0.0
O314 O 0.55805 0.72388 0.43586 0.0
C315 C 0.51658 0.82052 0.42509 0.0
Zn316 Zn 0.92947 0.78775 0.6042 0.0
Zn317 Zn 0.99289 0.7848 0.63586 0.0
O318 O 0.00181 0.82594 0.61019 0.0
O319 O 0.95155 0.82855 0.58397 0.0
O320 O 0.03886 0.78276 0.66027 0.0
O321 O 0.90979 0.79625 0.65174 0.0
O322 O 0.96052 0.79167 0.67573 0.0
C323 C 0.98324 0.83997 0.59079 0.0
C324 C 0.95654 0.72106 0.58438 0.0
O325 O 0.98202 0.7362 0.60476 0.0
O326 O 0.93098 0.73723 0.57939 0.0
C327 C 0.06195 0.76626 0.64474 0.0
O328 O 0.05626 0.75086 0.61219 0.0
C329 C 0.92867 0.79574 0.67827 0.0
Zn330 Zn 0.45674 0.31101 0.10945 0.0
Zn331 Zn 0.51484 0.30584 0.14841 0.0
O332 O 0.53062 0.348 0.12534 0.0
O333 O 0.48416 0.35141 0.0932 0.0
O334 O 0.55684 0.29855 0.17662 0.0
O335 O 0.43096 0.3188 0.15346 0.0
O336 O 0.47767 0.31329 0.18409 0.0
C337 C 0.51516 0.36238 0.10382 0.0
C338 C 0.48109 0.24388 0.09199 0.0
O339 O 0.50425 0.25808 0.11544 0.0
O340 O 0.45743 0.26098 0.08381 0.0
C341 C 0.58018 0.28223 0.16131 0.0
O342 O 0.57733 0.27191 0.12763 0.0
C343 C 0.44579 0.31766 0.18213 0.0
C344 C 0.26727 0.80692 0.84077 0.0
C345 C 0.24757 0.77317 0.83499 0.0
C346 C 0.2309 0.78361 0.89523 0.0
C347 C 0.25122 0.81694 0.90107 0.0
N348 N 0.28102 0.86425 0.87831 0.0
N349 N 0.20436 0.73259 0.85366 0.0
C350 C 0.26673 0.82988 0.8733 0.0
C351 C 0.22723 0.76261 0.8613 0.0
N352 N 0.28806 0.81621 0.8159 0.0
N353 N 0.2166 0.77138 0.92248 0.0
H354 H 0.20128 0.71672 0.82908 0.0
H355 H 0.1865 0.72493 0.87068 0.0
H356 H 0.2177 0.78674 0.94726 0.0
H357 H 0.20506 0.74569 0.92098 0.0
H358 H 0.3061 0.83862 0.81998 0.0
H359 H 0.28908 0.8003 0.79165 0.0
H360 H 0.29004 0.87647 0.8585 0.0
H361 H 0.28081 0.88152 0.90197 0.0
C362 C 0.019 0.53389 0.39034 0.0
C363 C 0.03417 0.52846 0.42153 0.0
C364 C 0.09011 0.52453 0.39545 0.0
C365 C 0.0732 0.52286 0.36278 0.0
N366 N 0.02313 0.52915 0.32841 0.0
N367 N 0.08408 0.5225 0.45619 0.0
C368 C 0.03819 0.52918 0.36011 0.0
C369 C 0.06997 0.52573 0.42501 0.0
N370 N 0.98622 0.54317 0.38985 0.0
N371 N 0.12514 0.52413 0.39787 0.0
H372 H 0.07009 0.52502 0.47847 0.0
H373 H 0.10905 0.51647 0.46002 0.0
H374 H 0.14034 0.52273 0.37651 0.0
H375 H 0.13963 0.52772 0.42108 0.0
H376 H 0.97416 0.54989 0.36861 0.0
H377 H 0.97203 0.54694 0.41198 0.0
H378 H 0.99679 0.52969 0.32377 0.0
H379 H 0.03722 0.52758 0.30621 0.0
C380 C 0.81233 0.71945 0.86482 0.0
C381 C 0.84321 0.74292 0.87406 0.0
C382 C 0.86241 0.70585 0.91282 0.0
C383 C 0.83025 0.68406 0.90578 0.0
N384 N 0.77247 0.6726 0.87926 0.0
N385 N 0.89609 0.76127 0.90922 0.0
C386 C 0.80467 0.69141 0.88275 0.0
C387 C 0.86785 0.73691 0.89875 0.0
N388 N 0.79053 0.72376 0.83857 0.0
N389 N 0.88817 0.6961 0.93191 0.0
H390 H 0.90151 0.78367 0.89856 0.0
H391 H 0.91294 0.76059 0.92997 0.0
H392 H 0.88514 0.67351 0.94258 0.0
H393 H 0.9134 0.70872 0.93495 0.0
H394 H 0.76977 0.70528 0.82786 0.0
H395 H 0.7946 0.74468 0.8256 0.0
H396 H 0.75149 0.67918 0.86596 0.0
H397 H 0.76577 0.65196 0.8921 0.0
C398 C 0.99797 0.03342 0.42398 0.0
C399 C 0.01598 0.00337 0.4202 0.0
C400 C 0.97822 0.97469 0.3696 0.0
C401 C 0.962 0.00582 0.37182 0.0
N402 N 0.95892 0.0664 0.39779 0.0
N403 N 0.02654 0.94706 0.38773 0.0
C404 C 0.97248 0.03561 0.39821 0.0
C405 C 0.00702 0.97444 0.39251 0.0
N406 N 0.00503 0.05966 0.45249 0.0
N407 N 0.96518 0.94495 0.34653 0.0
H408 H 0.04689 0.94526 0.40483 0.0
H409 H 0.02407 0.92723 0.36577 0.0
H410 H 0.9443 0.94412 0.32912 0.0
H411 H 0.97326 0.92036 0.34626 0.0
H412 H 0.99035 0.08044 0.45878 0.0
H413 H 0.02415 0.05937 0.47145 0.0
H414 H 0.968 0.09018 0.41402 0.0
H415 H 0.94028 0.06892 0.3792 0.0
C416 C 0.34748 0.22221 0.62193 0.0
C417 C 0.31835 0.2409 0.62752 0.0
C418 C 0.30095 0.22421 0.56596 0.0
C419 C 0.32753 0.20195 0.56127 0.0
N420 N 0.37293 0.17539 0.58584 0.0
N421 N 0.26486 0.25667 0.60615 0.0
C422 C 0.35016 0.19992 0.58947 0.0
C423 C 0.29441 0.24119 0.59986 0.0
N424 N 0.37291 0.22627 0.64748 0.0
N425 N 0.28275 0.23006 0.53791 0.0
H426 H 0.25936 0.26976 0.63057 0.0
H427 H 0.24457 0.25423 0.58776 0.0
H428 H 0.28726 0.2186 0.51263 0.0
H429 H 0.26552 0.24878 0.53941 0.0
H430 H 0.39648 0.21628 0.64371 0.0
H431 H 0.37179 0.24236 0.67164 0.0
H432 H 0.38729 0.17009 0.60649 0.0
H433 H 0.37528 0.15797 0.56274 0.0
C434 C 0.50491 0.55484 0.62567 0.0
C435 C 0.50225 0.52482 0.59861 0.0
C436 C 0.45333 0.49717 0.62569 0.0
C437 C 0.45441 0.52811 0.65154 0.0
N438 N 0.47708 0.58883 0.67268 0.0
N439 N 0.46981 0.47061 0.56889 0.0
C440 C 0.47907 0.55767 0.65057 0.0
C441 C 0.47512 0.497 0.59741 0.0
N442 N 0.53274 0.58009 0.62826 0.0
N443 N 0.4329 0.46722 0.6291 0.0
H444 H 0.48523 0.46961 0.54767 0.0
H445 H 0.44829 0.45159 0.56485 0.0
H446 H 0.41725 0.46579 0.64984 0.0
H447 H 0.43393 0.44285 0.61316 0.0
H448 H 0.53834 0.60052 0.64952 0.0
H449 H 0.55175 0.57924 0.61017 0.0
H450 H 0.49193 0.61231 0.67092 0.0
H451 H 0.45839 0.59197 0.69102 0.0
C452 C 0.7694 0.25306 0.63677 0.0
C453 C 0.77473 0.27793 0.6681 0.0
C454 C 0.75939 0.32465 0.63907 0.0
C455 C 0.75645 0.30035 0.60708 0.0
N456 N 0.74811 0.24025 0.57667 0.0
N457 N 0.76417 0.33347 0.70169 0.0
C458 C 0.75779 0.26402 0.60645 0.0
C459 C 0.76583 0.31239 0.67009 0.0
N460 N 0.77696 0.21953 0.63578 0.0
N461 N 0.75888 0.35975 0.63965 0.0
H462 H 0.76892 0.32488 0.72466 0.0
H463 H 0.75492 0.35786 0.70519 0.0
H464 H 0.75397 0.3699 0.6177 0.0
H465 H 0.76531 0.37915 0.66163 0.0
H466 H 0.77753 0.20107 0.61308 0.0
H467 H 0.78399 0.21059 0.65798 0.0
H468 H 0.74599 0.21311 0.57484 0.0
H469 H 0.7391 0.2479 0.55441 0.0
C470 C 0.52803 0.94113 0.67078 0.0
C471 C 0.54172 0.95021 0.64041 0.0
C472 C 0.5995 0.96382 0.66937 0.0
C473 C 0.58483 0.95928 0.70092 0.0
N474 N 0.53336 0.95204 0.73296 0.0
N475 N 0.58944 0.97609 0.61232 0.0
C476 C 0.54859 0.95017 0.70203 0.0
C477 C 0.57722 0.9632 0.64005 0.0
N478 N 0.49565 0.92315 0.66967 0.0
N479 N 0.63459 0.96736 0.66695 0.0
H480 H 0.57385 0.9765 0.59052 0.0
H481 H 0.61426 0.98924 0.61226 0.0
H482 H 0.6518 0.96685 0.68752 0.0
H483 H 0.64647 0.96726 0.64366 0.0
H484 H 0.48586 0.91293 0.69044 0.0
H485 H 0.48001 0.91525 0.647 0.0
H486 H 0.50663 0.94894 0.73498 0.0
H487 H 0.54702 0.96065 0.75671 0.0
C488 C 0.9071 0.22261 0.81779 0.0
C489 C 0.90041 0.20938 0.78191 0.0
C490 C 0.96198 0.20367 0.77478 0.0
C491 C 0.96874 0.21729 0.81057 0.0
N492 N 0.94762 0.23305 0.86754 0.0
N493 N 0.91922 0.18039 0.72754 0.0
C494 C 0.94116 0.22431 0.83257 0.0
C495 C 0.92721 0.19765 0.7608 0.0
N496 N 0.88123 0.23529 0.83736 0.0
N497 N 0.98899 0.19739 0.7541 0.0
H498 H 0.89401 0.17582 0.71658 0.0
H499 H 0.93687 0.1682 0.7116 0.0
H500 H 0.01447 0.19941 0.7639 0.0
H501 H 0.98652 0.19158 0.72727 0.0
H502 H 0.88519 0.24926 0.86262 0.0
H503 H 0.8558 0.23386 0.82767 0.0
H504 H 0.92832 0.23484 0.88521 0.0
H505 H 0.97234 0.23589 0.87931 0.0
C506 C 0.50171 0.90384 0.48661 0.0
C507 C 0.50102 0.89312 0.51894 0.0
C508 C 0.51316 0.83453 0.4904 0.0
C509 C 0.50922 0.84414 0.45768 0.0
N510 N 0.48677 0.88496 0.42591 0.0
N511 N 0.49607 0.84465 0.54942 0.0
C512 C 0.49955 0.8779 0.4561 0.0
C513 C 0.50365 0.85731 0.52024 0.0
N514 N 0.50585 0.93868 0.48476 0.0
N515 N 0.52751 0.80487 0.49359 0.0
H516 H 0.48716 0.85996 0.57119 0.0
H517 H 0.49488 0.81802 0.55043 0.0
H518 H 0.53714 0.7886 0.47297 0.0
H519 H 0.53344 0.79873 0.51747 0.0
H520 H 0.50917 0.94727 0.4615 0.0
H521 H 0.51007 0.95881 0.50649 0.0
H522 H 0.47715 0.90858 0.42457 0.0
H523 H 0.48144 0.86577 0.40354 0.0
C524 C 0.21992 0.26332 0.81127 0.0
C525 C 0.22289 0.2376 0.78128 0.0
C526 C 0.16241 0.21281 0.78376 0.0
C527 C 0.15958 0.23822 0.81404 0.0
N528 N 0.18645 0.28318 0.86058 0.0
N529 N 0.19985 0.18408 0.74219 0.0
C530 C 0.18869 0.2621 0.82904 0.0
C531 C 0.195 0.2111 0.76855 0.0
N532 N 0.24662 0.28945 0.82216 0.0
N533 N 0.13359 0.1913 0.76884 0.0
H534 H 0.22311 0.18244 0.72991 0.0
H535 H 0.18182 0.16198 0.73407 0.0
H536 H 0.10968 0.19097 0.78007 0.0
H537 H 0.13276 0.17516 0.74455 0.0
H538 H 0.24484 0.31129 0.84148 0.0
H539 H 0.27022 0.29044 0.81037 0.0
H540 H 0.20746 0.29888 0.87461 0.0
H541 H 0.16391 0.28278 0.8742 0.0
C542 C 0.52478 0.60279 0.43504 0.0
C543 C 0.53189 0.60681 0.47102 0.0
C544 C 0.52978 0.67036 0.47774 0.0
C545 C 0.52862 0.66702 0.4412 0.0
N546 N 0.52945 0.62983 0.38485 0.0
N547 N 0.54231 0.64408 0.52712 0.0
C548 C 0.52676 0.63311 0.41971 0.0
C549 C 0.53447 0.6405 0.4926 0.0
N550 N 0.51631 0.56985 0.41544 0.0
N551 N 0.52532 0.70184 0.49815 0.0
H552 H 0.54433 0.62253 0.53889 0.0
H553 H 0.54863 0.66832 0.54367 0.0
H554 H 0.52069 0.72384 0.48808 0.0
H555 H 0.52281 0.70523 0.52469 0.0
H556 H 0.50751 0.56532 0.38964 0.0
H557 H 0.51477 0.54714 0.42594 0.0
H558 H 0.5322 0.60611 0.36851 0.0
H559 H 0.53228 0.6512 0.37243 0.0
C560 C 0.86667 0.77816 0.74727 0.0
C561 C 0.88344 0.80073 0.77697 0.0
C562 C 0.9277 0.82311 0.74118 0.0
C563 C 0.91307 0.79773 0.71225 0.0
N564 N 0.87322 0.74552 0.68991 0.0
N565 N 0.93334 0.84009 0.80351 0.0
C566 C 0.88377 0.77369 0.71583 0.0
C567 C 0.91499 0.82191 0.77433 0.0
N568 N 0.83394 0.76183 0.74873 0.0
N569 N 0.95273 0.84923 0.73686 0.0
H570 H 0.92504 0.83957 0.82828 0.0
H571 H 0.95823 0.853 0.80329 0.0
H572 H 0.96208 0.85162 0.71286 0.0
H573 H 0.96178 0.87049 0.75647 0.0
H574 H 0.81918 0.74804 0.72693 0.0
H575 H 0.82021 0.76488 0.77114 0.0
H576 H 0.85424 0.72531 0.6927 0.0
H577 H 0.88584 0.74025 0.66694 0.0
C578 C 0.04347 0.89365 0.54092 0.0
C579 C 0.02961 0.92621 0.54733 0.0
C580 C 0.98609 0.90273 0.5831 0.0
C581 C 0.99889 0.86956 0.57546 0.0
N582 N 0.03487 0.83122 0.54156 0.0
N583 N 0.98423 0.96026 0.56846 0.0
C584 C 0.02626 0.86437 0.55281 0.0
C585 C -0.00028 0.93023 0.56646 0.0
N586 N 0.07355 0.89095 0.52417 0.0
N587 N 0.96223 0.90852 0.60758 0.0
H588 H 0.99385 0.98096 0.55676 0.0
H589 H 0.96036 0.96341 0.57905 0.0
H590 H 0.95211 0.88931 0.62087 0.0
H591 H 0.95464 0.93316 0.61695 0.0
H592 H 0.08729 0.86935 0.52247 0.0
H593 H 0.08603 0.91134 0.51369 0.0
H594 H 0.05205 0.82515 0.52226 0.0
H595 H 0.02255 0.80901 0.54927 0.0
C596 C 0.14999 0.78435 0.69402 0.0
C597 C 0.15676 0.74943 0.69396 0.0
C598 C 0.09856 0.72677 0.66844 0.0
C599 C 0.0936 0.76117 0.66401 0.0
N600 N 0.11473 0.82277 0.67069 0.0
N601 N 0.13881 0.68693 0.6804 0.0
C602 C 0.11917 0.79013 0.67671 0.0
C603 C 0.1313 0.7205 0.68122 0.0
N604 N 0.17296 0.81188 0.71081 0.0
N605 N 0.07156 0.70036 0.66143 0.0
H606 H 0.16186 0.68133 0.69109 0.0
H607 H 0.12314 0.66459 0.66748 0.0
H608 H 0.04708 0.70412 0.65244 0.0
H609 H 0.07235 0.67557 0.66737 0.0
H610 H 0.16815 0.83802 0.71474 0.0
H611 H 0.19582 0.80827 0.72342 0.0
H612 H 0.13394 0.84419 0.67582 0.0
H613 H 0.09245 0.82802 0.65831 0.0
C614 C 0.95784 0.62207 0.57254 0.0
C615 C 0.94935 0.61159 0.53664 0.0
C616 C 0.95173 0.67341 0.53135 0.0
C617 C 0.9557 0.68355 0.56783 0.0
N618 N 0.95675 0.667 0.62377 0.0
N619 N 0.9342 0.62654 0.48209 0.0
C620 C 0.95744 0.65778 0.58865 0.0
C621 C 0.94529 0.63707 0.51602 0.0
N622 N 0.96693 0.59799 0.59114 0.0
N623 N 0.95527 0.69846 0.51133 0.0
H624 H 0.92951 0.60016 0.4699 0.0
H625 H 0.92707 0.64379 0.46675 0.0
H626 H 0.96067 0.72529 0.52166 0.0
H627 H 0.95614 0.69254 0.48456 0.0
H628 H 0.97697 0.60485 0.61656 0.0
H629 H 0.96756 0.57154 0.58022 0.0
H630 H 0.95411 0.64868 0.63986 0.0
H631 H 0.95546 0.69266 0.63678 0.0
C632 C 0.78863 0.85845 0.23256 0.0
C633 C 0.80802 0.83103 0.23766 0.0
C634 C 0.85919 0.87395 0.25716 0.0
C635 C 0.83873 0.90156 0.25567 0.0
N636 N 0.78412 0.92116 0.24314 0.0
N637 N 0.86063 0.81183 0.25693 0.0
C638 C 0.80348 0.89408 0.24353 0.0
C639 C 0.84313 0.83852 0.25023 0.0
N640 N 0.7563 0.85027 0.2166 0.0
N641 N 0.89393 0.88163 0.26541 0.0
H642 H 0.84999 0.78548 0.25164 0.0
H643 H 0.88483 0.81577 0.26988 0.0
H644 H 0.90641 0.90724 0.27211 0.0
H645 H 0.91102 0.86276 0.26325 0.0
H646 H 0.74203 0.86868 0.20883 0.0
H647 H 0.74448 0.82445 0.20883 0.0
H648 H 0.75737 0.91776 0.23873 0.0
H649 H 0.79473 0.94753 0.24874 0.0
C650 C 0.83256 0.15109 0.28871 0.0
C651 C 0.79596 0.14476 0.28358 0.0
C652 C 0.79881 0.08118 0.27434 0.0
C653 C 0.83463 0.08765 0.28414 0.0
N654 N 0.88563 0.12867 0.30329 0.0
N655 N 0.74353 0.10405 0.27573 0.0
C656 C 0.85167 0.1226 0.2917 0.0
C657 C 0.77888 0.10983 0.27731 0.0
N658 N 0.84904 0.18424 0.2901 0.0
N659 N 0.784 0.04752 0.26152 0.0
H660 H 0.72788 0.12428 0.27799 0.0
H661 H 0.72967 0.07947 0.27515 0.0
H662 H 0.79803 0.02597 0.25851 0.0
H663 H 0.75883 0.04136 0.25069 0.0
H664 H 0.87581 0.18998 0.29026 0.0
H665 H 0.8358 0.20567 0.28827 0.0
H666 H 0.89845 0.15366 0.31313 0.0
H667 H 0.90055 0.10846 0.30513 0.0
C668 C 0.37935 0.00858 0.98972 0.0
C669 C 0.4026 0.01677 0.01922 0.0
C670 C 0.36778 0.97399 0.04619 0.0
C671 C 0.34814 0.96189 0.01456 0.0
N672 N 0.33387 0.96709 0.95621 0.0
N673 N 0.41937 0.00871 0.07608 0.0
C674 C 0.35309 0.97947 0.98649 0.0
C675 C 0.3966 0.00027 0.04791 0.0
N676 N 0.38264 0.0286 0.96484 0.0
N677 N 0.35865 0.96023 0.07444 0.0
H678 H 0.4399 0.02886 0.0787 0.0
H679 H 0.419 0.99491 0.09618 0.0
H680 H 0.33755 0.94099 0.0737 0.0
H681 H 0.36992 0.96974 0.09914 0.0
H682 H 0.36482 0.02617 0.94413 0.0
H683 H 0.40196 0.04977 0.96638 0.0
H684 H 0.33883 0.97583 0.93335 0.0
H685 H 0.31361 0.94667 0.9535 0.0
C686 C 0.25416 0.43032 0.34314 0.0
C687 C 0.26103 0.39732 0.32454 0.0
C688 C 0.21697 0.3998 0.2798 0.0
C689 C 0.20651 0.43005 0.30106 0.0
N690 N 0.21228 0.47169 0.35535 0.0
N691 N 0.24897 0.34935 0.2759 0.0
C692 C 0.22461 0.44502 0.3332 0.0
C693 C 0.24261 0.38176 0.2929 0.0
N694 N 0.2759 0.44758 0.37038 0.0
N695 N 0.20306 0.38896 0.2468 0.0
H696 H 0.26862 0.3362 0.28404 0.0
H697 H 0.23368 0.33467 0.25489 0.0
H698 H 0.18468 0.40198 0.23627 0.0
H699 H 0.21188 0.36915 0.22889 0.0
H700 H 0.27427 0.47336 0.38282 0.0
H701 H 0.29767 0.43731 0.37839 0.0
H702 H 0.22218 0.48086 0.38062 0.0
H703 H 0.19009 0.48265 0.34981 0.0
C704 C 0.16759 0.01009 0.43959 0.0
C705 C 0.14271 0.03381 0.44777 0.0
C706 C 0.18478 0.08255 0.43906 0.0
C707 C 0.21087 0.05971 0.4358 0.0
N708 N 0.22832 0.00264 0.43838 0.0
N709 N 0.12814 0.09328 0.45925 0.0
C710 C 0.20262 0.0236 0.4372 0.0
C711 C 0.15135 0.07026 0.44841 0.0
N712 N 0.15762 0.97461 0.43362 0.0
N713 N 0.19174 0.11568 0.4323 0.0
H714 H 0.10332 0.08528 0.4662 0.0
H715 H 0.13438 0.12051 0.46395 0.0
H716 H 0.21581 0.12529 0.42472 0.0
H717 H 0.17287 0.13232 0.43092 0.0
H718 H 0.17395 0.95607 0.42407 0.0
H719 H 0.13209 0.96374 0.43504 0.0
H720 H 0.22399 0.97727 0.44338 0.0
H721 H 0.25449 0.01152 0.43756 0.0
C722 C 0.75705 0.1651 0.78969 0.0
C723 C 0.7768 0.15828 0.76009 0.0
C724 C 0.75253 0.09619 0.7489 0.0
C725 C 0.73199 0.10317 0.77799 0.0
N726 N 0.70857 0.14529 0.82113 0.0
N727 N 0.78815 0.11998 0.70741 0.0
C728 C 0.7324 0.13799 0.79691 0.0
C729 C 0.77271 0.12463 0.73829 0.0
N730 N 0.76283 0.19704 0.81165 0.0
N731 N 0.75445 0.06225 0.73272 0.0
H732 H 0.80335 0.14032 0.69916 0.0
H733 H 0.78342 0.09703 0.68872 0.0
H734 H 0.74063 0.04054 0.73998 0.0
H735 H 0.77192 0.05529 0.71394 0.0
H736 H 0.75243 0.20218 0.83579 0.0
H737 H 0.77988 0.21794 0.80673 0.0
H738 H 0.70522 0.17071 0.83333 0.0
H739 H 0.68985 0.12612 0.82675 0.0
C740 C 0.42523 0.05022 0.52795 0.0
C741 C 0.41331 0.01515 0.53061 0.0
C742 C 0.36654 0.01265 0.4872 0.0
C743 C 0.37876 0.04761 0.48399 0.0
N744 N 0.42333 0.09705 0.49552 0.0
N745 N 0.378 0.96028 0.50823 0.0
C746 C 0.40928 0.06561 0.50263 0.0
C747 C 0.38578 0.99544 0.50861 0.0
N748 N 0.45107 0.06916 0.55035 0.0
N749 N 0.33537 0.99674 0.47175 0.0
H750 H 0.391 0.94714 0.52435 0.0
H751 H 0.36074 0.94359 0.49008 0.0
H752 H 0.3201 0.00838 0.45617 0.0
H753 H 0.3232 0.97308 0.47652 0.0
H754 H 0.4581 0.09609 0.55262 0.0
H755 H 0.46432 0.05829 0.56825 0.0
H756 H 0.44727 0.11004 0.50579 0.0
H757 H 0.41239 0.10876 0.47682 0.0
C758 C 0.63863 0.47961 0.56592 0.0
C759 C 0.60424 0.46573 0.55372 0.0
C760 C 0.62132 0.40593 0.54074 0.0
C761 C 0.6556 0.41971 0.55351 0.0
N762 N 0.69708 0.46891 0.58016 0.0
N763 N 0.56131 0.41606 0.53302 0.0
C764 C 0.66423 0.45635 0.56682 0.0
C765 C 0.59515 0.42894 0.54217 0.0
N766 N 0.64689 0.51528 0.57575 0.0
N767 N 0.61397 0.37084 0.52686 0.0
H768 H 0.54177 0.43219 0.53258 0.0
H769 H 0.55191 0.38946 0.52774 0.0
H770 H 0.63183 0.35291 0.52726 0.0
H771 H 0.59082 0.35942 0.51352 0.0
H772 H 0.67198 0.52791 0.58103 0.0
H773 H 0.6285 0.53291 0.57737 0.0
H774 H 0.7043 0.49425 0.59413 0.0
H775 H 0.71742 0.45356 0.57844 0.0
C776 C 0.76145 0.28061 0.35935 0.0
C777 C 0.74338 0.24608 0.35142 0.0
C778 C 0.72519 0.25194 0.41103 0.0
C779 C 0.74343 0.28629 0.41886 0.0
N780 N 0.77137 0.33672 0.39939 0.0
N781 N 0.70178 0.20181 0.36682 0.0
C782 C 0.75896 0.30174 0.39251 0.0
C783 C 0.72315 0.23271 0.37641 0.0
N784 N 0.78262 0.29245 0.33594 0.0
N785 N 0.71108 0.23726 0.43699 0.0
H786 H 0.69977 0.18723 0.34165 0.0
H787 H 0.68401 0.19209 0.38287 0.0
H788 H 0.71094 0.25128 0.46225 0.0
H789 H 0.70104 0.2109 0.43397 0.0
H790 H 0.79959 0.31564 0.34165 0.0
H791 H 0.78521 0.27788 0.31135 0.0
H792 H 0.78003 0.35053 0.38055 0.0
H793 H 0.76995 0.35276 0.42353 0.0
C794 C 0.6024 0.04416 0.94056 0.0
C795 C 0.56637 0.04566 0.9376 0.0
C796 C 0.56896 0.04286 0.87539 0.0
C797 C 0.60318 0.03424 0.87756 0.0
N798 N 0.65439 0.02977 0.91123 0.0
N799 N 0.51537 0.05128 0.90427 0.0
C800 C 0.62078 0.03664 0.91 0.0
C801 C 0.54977 0.04724 0.90566 0.0
N802 N 0.61864 0.04952 0.97259 0.0
N803 N 0.55501 0.04626 0.84423 0.0
H804 H 0.50135 0.05622 0.92642 0.0
H805 H 0.50048 0.04912 0.88152 0.0
H806 H 0.56899 0.04327 0.82195 0.0
H807 H 0.5309 0.05448 0.84073 0.0
H808 H 0.6453 0.05117 0.97697 0.0
H809 H 0.60537 0.0552 0.99516 0.0
H810 H 0.66781 0.02715 0.93356 0.0
H811 H 0.66874 0.02567 0.88925 0.0
C812 C 0.3683 0.24125 0.38497 0.0
C813 C 0.34498 0.24453 0.35784 0.0
C814 C 0.31242 0.18775 0.36087 0.0
C815 C 0.33679 0.18349 0.38675 0.0
N816 N 0.39088 0.20289 0.41969 0.0
N817 N 0.29887 0.21868 0.31544 0.0
C818 C 0.36563 0.20935 0.39777 0.0
C819 C 0.31836 0.21698 0.34431 0.0
N820 N 0.39241 0.26898 0.399 0.0
N821 N 0.28252 0.16504 0.35356 0.0
H822 H 0.30173 0.24014 0.3031 0.0
H823 H 0.28183 0.19765 0.30202 0.0
H824 H 0.27669 0.14356 0.36545 0.0
H825 H 0.26198 0.16917 0.33795 0.0
H826 H 0.40757 0.26991 0.42137 0.0
H827 H 0.39583 0.29222 0.38941 0.0
H828 H 0.41423 0.21903 0.42608 0.0
H829 H 0.38974 0.17973 0.4294 0.0
C830 C 0.50502 0.56096 0.9023 0.0
C831 C 0.52209 0.53038 0.89997 0.0
C832 C 0.49066 0.50428 0.84472 0.0
C833 C 0.47306 0.53457 0.84738 0.0
N834 N 0.46829 0.59454 0.87385 0.0
N835 N 0.53708 0.47636 0.86637 0.0
C836 C 0.48183 0.56385 0.87473 0.0
C837 C 0.51693 0.50323 0.87018 0.0
N838 N 0.51029 0.5867 0.93136 0.0
N839 N 0.48079 0.4757 0.81902 0.0
H840 H 0.5557 0.47407 0.88505 0.0
H841 H 0.53731 0.45779 0.8437 0.0
H842 H 0.46235 0.47573 0.79939 0.0
H843 H 0.4893 0.45121 0.8181 0.0
H844 H 0.49573 0.60768 0.9367 0.0
H845 H 0.52843 0.58627 0.9512 0.0
H846 H 0.47576 0.61799 0.89124 0.0
H847 H 0.45147 0.59733 0.85376 0.0
C848 C 0.76442 0.7086 0.13047 0.0
C849 C 0.78992 0.71415 0.15795 0.0
C850 C 0.82712 0.67787 0.12135 0.0
C851 C 0.8004 0.66996 0.09487 0.0
N852 N 0.74164 0.673 0.07562 0.0
N853 N 0.84367 0.70138 0.18171 0.0
C854 C 0.76852 0.68414 0.09972 0.0
C855 C 0.82078 0.698 0.15401 0.0
N856 N 0.73659 0.72723 0.13358 0.0
N857 N 0.85895 0.66728 0.1148 0.0
H858 H 0.84039 0.71678 0.20575 0.0
H859 H 0.86465 0.68706 0.18166 0.0
H860 H 0.86455 0.65255 0.09115 0.0
H861 H 0.88063 0.67541 0.13168 0.0
H862 H 0.71918 0.72742 0.11313 0.0
H863 H 0.73228 0.74475 0.15605 0.0
H864 H 0.71661 0.67934 0.07939 0.0
H865 H 0.74349 0.65489 0.05285 0.0
C866 C 0.00973 0.03239 0.15489 0.0
C867 C 0.00764 0.00523 0.1251 0.0
C868 C 0.96076 0.97202 0.15003 0.0
C869 C 0.95938 0.00145 0.17719 0.0
N870 N 0.97972 0.06201 0.20258 0.0
N871 N 0.97801 0.95094 0.09209 0.0
C872 C 0.98332 0.03221 0.17906 0.0
C873 C 0.9824 0.97539 0.12211 0.0
N874 N 0.0373 0.05815 0.16033 0.0
N875 N 0.94233 0.94039 0.15147 0.0
H876 H 0.99328 0.95232 0.07105 0.0
H877 H 0.95741 0.93087 0.08699 0.0
H878 H 0.9271 0.9365 0.17199 0.0
H879 H 0.94499 0.91718 0.13424 0.0
H880 H 0.04212 0.07666 0.18321 0.0
H881 H 0.05722 0.05889 0.14332 0.0
H882 H 0.99405 0.08624 0.20259 0.0
H883 H 0.9602 0.06351 0.22007 0.0
C884 C 0.30449 0.79778 0.1287 0.0
C885 C 0.28235 0.76561 0.12303 0.0
C886 C 0.24925 0.78385 0.0772 0.0
C887 C 0.27305 0.81484 0.08099 0.0
N888 N 0.31661 0.85635 0.11564 0.0
N889 N 0.22832 0.73202 0.09997 0.0
C890 C 0.29841 0.82349 0.10874 0.0
C891 C 0.25277 0.7601 0.10003 0.0
N892 N 0.33206 0.803 0.1521 0.0
N893 N 0.22481 0.77608 0.05046 0.0
H894 H 0.23049 0.71432 0.11648 0.0
H895 H 0.20468 0.72795 0.08595 0.0
H896 H 0.22089 0.79346 0.03405 0.0
H897 H 0.20941 0.75197 0.04356 0.0
H898 H 0.35154 0.82408 0.15491 0.0
H899 H 0.3361 0.78525 0.16812 0.0
H900 H 0.33383 0.86561 0.1369 0.0
H901 H 0.3121 0.87555 0.10143 0.0
C902 C 0.09801 0.4774 0.1185 0.0
C903 C 0.06219 0.4696 0.10901 0.0
C904 C 0.04923 0.47217 0.16962 0.0
C905 C 0.0852 0.47487 0.17835 0.0
N906 N 0.14399 0.47534 0.1603 0.0
N907 N 0.00346 0.4565 0.12448 0.0
C908 C 0.10973 0.4766 0.15266 0.0
C909 C 0.03765 0.46632 0.13431 0.0
N910 N 0.12078 0.48587 0.09486 0.0
N911 N 0.02627 0.47639 0.19514 0.0
H912 H 0.99395 0.45281 0.09892 0.0
H913 H 0.9849 0.44966 0.14124 0.0
H914 H 0.0339 0.48153 0.22132 0.0
H915 H 0.00013 0.47818 0.19054 0.0
H916 H 0.14669 0.49547 0.1012 0.0
H917 H 0.1131 0.48647 0.06947 0.0
H918 H 0.16238 0.47259 0.1417 0.0
H919 H 0.15375 0.47375 0.18472 0.0
C920 C 0.38966 0.75696 0.25998 0.0
C921 C 0.37172 0.72279 0.25779 0.0
C922 C 0.41133 0.71376 0.30357 0.0
C923 C 0.43293 0.74521 0.30146 0.0
N924 N 0.44653 0.78938 0.2662 0.0
N925 N 0.37548 0.66435 0.26924 0.0
C926 C 0.42335 0.76483 0.27633 0.0
C927 C 0.38565 0.69973 0.27694 0.0
N928 N 0.37459 0.78233 0.2476 0.0
N929 N 0.41335 0.69806 0.33153 0.0
H930 H 0.35915 0.65237 0.24785 0.0
H931 H 0.38689 0.64676 0.28158 0.0
H932 H 0.42789 0.70961 0.35417 0.0
H933 H 0.39633 0.67611 0.33404 0.0
H934 H 0.38631 0.80826 0.25106 0.0
H935 H 0.34903 0.77856 0.23772 0.0
H936 H 0.44049 0.80244 0.24649 0.0
H937 H 0.47283 0.79275 0.27334 0.0
C938 C 0.08755 0.386 0.97958 0.0
C939 C 0.05495 0.38909 0.9942 0.0
C940 C 0.03104 0.33208 0.95935 0.0
C941 C 0.06342 0.32937 0.94417 0.0
N942 N 0.12435 0.34857 0.94481 0.0
N943 N 0.99829 0.36258 0.00446 0.0
C944 C 0.09233 0.35474 0.956 0.0
C945 C 0.02756 0.36116 0.98625 0.0
N946 N 0.11341 0.41352 0.98728 0.0
N947 N 0.00318 0.30795 0.94667 0.0
H948 H 0.99472 0.38389 0.02386 0.0
H949 H 0.97876 0.34162 0.00238 0.0
H950 H 0.00495 0.28578 0.92765 0.0
H951 H 0.97792 0.31075 0.95354 0.0
H952 H 0.13636 0.41472 0.97452 0.0
H953 H 0.11122 0.43628 0.00541 0.0
H954 H 0.14715 0.36438 0.95459 0.0
H955 H 0.12845 0.32569 0.92768 0.0
C956 C 0.67777 0.77701 0.32574 0.0
C957 C 0.68141 0.74436 0.30408 0.0
C958 C 0.61994 0.72419 0.30821 0.0
C959 C 0.61656 0.75634 0.33094 0.0
N960 N 0.64293 0.81067 0.36651 0.0
N961 N 0.65832 0.68448 0.27944 0.0
C962 C 0.6457 0.78205 0.34114 0.0
C963 C 0.65319 0.71719 0.2968 0.0
N964 N 0.70481 0.80336 0.33115 0.0
N965 N 0.59113 0.70109 0.29623 0.0
H966 H 0.68209 0.67854 0.26994 0.0
H967 H 0.63985 0.6625 0.27673 0.0
H968 H 0.56637 0.70511 0.30418 0.0
H969 H 0.59125 0.67922 0.27652 0.0
H970 H 0.7027 0.82914 0.34315 0.0
H971 H 0.72915 0.79989 0.32179 0.0
H972 H 0.66389 0.82861 0.37769 0.0
H973 H 0.61994 0.81496 0.37862 0.0
C974 C 0.09538 0.12628 0.98842 0.0
C975 C 0.06791 0.09874 0.97893 0.0
C976 C 0.06083 0.11508 0.92234 0.0
C977 C 0.0845 0.14591 0.93391 0.0
N978 N 0.12211 0.18285 0.97948 0.0
N979 N 0.02347 0.06668 0.93756 0.0
C980 C 0.10164 0.15183 0.96718 0.0
C981 C 0.05054 0.09285 0.94593 0.0
N982 N 0.11539 0.12801 0.01784 0.0
N983 N 0.04898 0.10654 0.88852 0.0
H984 H 0.01647 0.04883 0.95351 0.0
H985 H 0.00689 0.06373 0.91578 0.0
H986 H 0.05648 0.12187 0.87044 0.0
H987 H 0.03433 0.08277 0.87761 0.0
H988 H 0.13794 0.1454 0.0246 0.0
H989 H 0.11118 0.10968 0.03386 0.0
H990 H 0.13215 0.19031 0.00486 0.0
H991 H 0.12679 0.20267 0.96526 0.0
C992 C 0.37374 0.29292 0.23895 0.0
C993 C 0.38439 0.31585 0.27073 0.0
C994 C 0.43318 0.34316 0.24331 0.0
C995 C 0.42474 0.31747 0.21273 0.0
N996 N 0.39116 0.2632 0.18397 0.0
N997 N 0.42666 0.35979 0.3049 0.0
C998 C 0.39606 0.29112 0.21115 0.0
C999 C 0.41476 0.34026 0.27342 0.0
N1000 N 0.34196 0.27333 0.23511 0.0
N1001 N 0.458 0.3709 0.24327 0.0
H1002 H 0.41372 0.35859 0.32745 0.0
H1003 H 0.45064 0.37512 0.30914 0.0
H1004 H 0.4718 0.37398 0.22161 0.0
H1005 H 0.4628 0.39238 0.26364 0.0
H1006 H 0.33138 0.25891 0.21145 0.0
H1007 H 0.32471 0.27421 0.25486 0.0
H1008 H 0.37287 0.2414 0.18337 0.0
H1009 H 0.40764 0.25992 0.1636 0.0
C1010 C 0.53859 0.45522 0.08963 0.0
C1011 C 0.54517 0.44737 0.05415 0.0
C1012 C 0.54617 0.3853 0.05695 0.0
C1013 C 0.53294 0.39212 0.09026 0.0
N1014 N 0.5188 0.43296 0.14004 0.0
N1015 N 0.55906 0.40671 0.00418 0.0
C1016 C 0.53054 0.42708 0.10745 0.0
C1017 C 0.55082 0.41297 0.03801 0.0
N1018 N 0.53974 0.48956 0.10593 0.0
N1019 N 0.55383 0.35224 0.04359 0.0
H1020 H 0.56422 0.42692 0.99043 0.0
H1021 H 0.55997 0.38175 0.98944 0.0
H1022 H 0.55066 0.33178 0.05728 0.0
H1023 H 0.56568 0.34561 0.02041 0.0
H1024 H 0.53765 0.49755 0.13236 0.0
H1025 H 0.54575 0.51041 0.09315 0.0
H1026 H 0.5126 0.45718 0.15278 0.0
H1027 H 0.51412 0.41294 0.15409 0.0
C1028 C 0.66335 0.2801 0.21406 0.0
C1029 C 0.66327 0.24324 0.2104 0.0
C1030 C 0.60516 0.2333 0.1821 0.0
C1031 C 0.60732 0.26971 0.18132 0.0
N1032 N 0.63807 0.32817 0.19559 0.0
N1033 N 0.63513 0.18415 0.19075 0.0
C1034 C 0.63612 0.29337 0.19748 0.0
C1035 C 0.63429 0.21966 0.19468 0.0
N1036 N 0.68939 0.30227 0.23351 0.0
N1037 N 0.57488 0.21199 0.17151 0.0
H1038 H 0.65526 0.17322 0.20115 0.0
H1039 H 0.61688 0.16544 0.17572 0.0
H1040 H 0.55297 0.2212 0.16236 0.0
H1041 H 0.57031 0.18595 0.17452 0.0
H1042 H 0.68955 0.32944 0.23994 0.0
H1043 H 0.70973 0.29314 0.24561 0.0
H1044 H 0.65996 0.34621 0.2034 0.0
H1045 H 0.61824 0.33878 0.18432 0.0
C1046 C 0.47552 0.15997 0.02383 0.0
C1047 C 0.47494 0.13435 0.04499 0.0
C1048 C 0.47714 0.18042 0.09683 0.0
C1049 C 0.48029 0.2063 0.07584 0.0
N1050 N 0.48921 0.22131 0.02004 0.0
N1051 N 0.48253 0.1202 0.10136 0.0
C1052 C 0.48137 0.19626 0.03947 0.0
C1053 C 0.47802 0.1446 0.08144 0.0
N1054 N 0.4695 0.14963 0.98892 0.0
N1055 N 0.47138 0.18973 0.13116 0.0
H1056 H 0.48318 0.09361 0.09106 0.0
H1057 H 0.48879 0.12682 0.12779 0.0
H1058 H 0.46952 0.21552 0.14347 0.0
H1059 H 0.46511 0.17147 0.14678 0.0
H1060 H 0.46581 0.16703 0.97254 0.0
H1061 H 0.4655 0.12327 0.97655 0.0
H1062 H 0.49386 0.21541 0.9939 0.0
H1063 H 0.49425 0.2481 0.03071 0.0
C1064 C 0.3032 0.37568 0.71764 0.0
C1065 C 0.32711 0.35079 0.71754 0.0
C1066 C 0.37384 0.3984 0.73924 0.0
C1067 C 0.3503 0.42341 0.73781 0.0
N1068 N 0.29427 0.43691 0.72099 0.0
N1069 N 0.38591 0.33795 0.72338 0.0
C1070 C 0.3154 0.41231 0.7257 0.0
C1071 C 0.36269 0.36205 0.72679 0.0
N1072 N 0.26878 0.3642 0.71058 0.0
N1073 N 0.40637 0.40923 0.75421 0.0
H1074 H 0.37865 0.31089 0.71621 0.0
H1075 H 0.41261 0.34478 0.72543 0.0
H1076 H 0.41577 0.43559 0.76325 0.0
H1077 H 0.4233 0.3921 0.76002 0.0
H1078 H 0.24944 0.38068 0.71385 0.0
H1079 H 0.25918 0.33762 0.70343 0.0
H1080 H 0.26955 0.43076 0.70912 0.0
H1081 H 0.30255 0.46388 0.72648 0.0
C1082 C 0.28046 0.63341 0.76563 0.0
C1083 C 0.29764 0.6682 0.77022 0.0
C1084 C 0.35374 0.64584 0.77515 0.0
C1085 C 0.33658 0.61092 0.76863 0.0
N1086 N 0.28479 0.57094 0.74996 0.0
N1087 N 0.35066 0.70731 0.77319 0.0
C1088 C 0.30025 0.60459 0.76154 0.0
C1089 C 0.33435 0.67436 0.77312 0.0
N1090 N 0.24522 0.62796 0.7665 0.0
N1091 N 0.3882 0.65192 0.78486 0.0
H1092 H 0.33728 0.72883 0.77218 0.0
H1093 H 0.37727 0.71279 0.77152 0.0
H1094 H 0.40332 0.63176 0.78621 0.0
H1095 H 0.40132 0.67695 0.79388 0.0
H1096 H 0.23153 0.60358 0.76717 0.0
H1097 H 0.22973 0.64836 0.76963 0.0
H1098 H 0.25899 0.56485 0.74098 0.0
H1099 H 0.29861 0.54924 0.74604 0.0
C1100 C 0.87826 0.47794 0.55159 0.0
C1101 C 0.87819 0.49375 0.52212 0.0
C1102 C 0.82711 0.4536 0.49669 0.0
C1103 C 0.82795 0.4369 0.52558 0.0
N1104 N 0.84763 0.43826 0.58415 0.0
N1105 N 0.84826 0.50354 0.47133 0.0
C1106 C 0.85139 0.45086 0.5543 0.0
C1107 C 0.85097 0.48393 0.4963 0.0
N1108 N 0.90488 0.48773 0.5761 0.0
N1109 N 0.80511 0.43917 0.46871 0.0
H1110 H 0.86567 0.52569 0.47034 0.0
H1111 H 0.82726 0.49985 0.45356 0.0
H1112 H 0.7869 0.41728 0.46816 0.0
H1113 H 0.8062 0.4475 0.44522 0.0
H1114 H 0.90882 0.47439 0.59606 0.0
H1115 H 0.9242 0.50842 0.57554 0.0
H1116 H 0.8619 0.44925 0.6071 0.0
H1117 H 0.82789 0.41862 0.58678 0.0
C1118 C 0.76589 0.88847 0.80586 0.0
C1119 C 0.78646 0.90563 0.83577 0.0
C1120 C 0.75657 0.95793 0.83912 0.0
C1121 C 0.73516 0.94036 0.80978 0.0
N1122 N 0.72568 0.89396 0.75961 0.0
N1123 N 0.8087 0.95918 0.87486 0.0
C1124 C 0.742 0.90722 0.79125 0.0
C1125 C 0.78434 0.94134 0.85026 0.0
N1126 N 0.7681 0.85387 0.79236 0.0
N1127 N 0.74894 0.98915 0.8578 0.0
H1128 H 0.82916 0.94743 0.88357 0.0
H1129 H 0.81053 0.98619 0.88419 0.0
H1130 H 0.72896 0.00235 0.8506 0.0
H1131 H 0.76097 0.00095 0.88171 0.0
H1132 H 0.75096 0.83868 0.77311 0.0
H1133 H 0.78606 0.83965 0.80177 0.0
H1134 H 0.73161 0.87138 0.74332 0.0
H1135 H 0.70842 0.90758 0.74822 0.0
C1136 C 0.6603 0.51408 0.95806 0.0
C1137 C 0.63667 0.53945 0.96385 0.0
C1138 C 0.68403 0.58683 0.96545 0.0
C1139 C 0.70808 0.56174 0.962 0.0
N1140 N 0.71995 0.50243 0.96243 0.0
N1141 N 0.62668 0.60004 0.98114 0.0
C1142 C 0.69646 0.52558 0.96045 0.0
C1143 C 0.64879 0.57587 0.97015 0.0
N1144 N 0.64822 0.47911 0.94908 0.0
N1145 N 0.69431 0.62072 0.96219 0.0
H1146 H 0.60066 0.59297 0.98502 0.0
H1147 H 0.63488 0.62675 0.98961 0.0
H1148 H 0.71957 0.62977 0.95738 0.0
H1149 H 0.67708 0.63902 0.96077 0.0
H1150 H 0.66401 0.45968 0.94074 0.0
H1151 H 0.62195 0.46967 0.94741 0.0
H1152 H 0.71301 0.47648 0.96493 0.0
H1153 H 0.7466 0.51003 0.9649 0.0
C1154 C 0.24 0.61694 0.21078 0.0
C1155 C 0.25881 0.64293 0.23699 0.0
C1156 C 0.22034 0.62448 0.27965 0.0
C1157 C 0.19821 0.60322 0.25283 0.0
N1158 N 0.18708 0.57815 0.19213 0.0
N1159 N 0.28021 0.64326 0.29499 0.0
C1160 C 0.20802 0.59914 0.21812 0.0
C1161 C 0.25301 0.63987 0.27165 0.0
N1162 N 0.25526 0.60572 0.18065 0.0
N1163 N 0.21064 0.6295 0.31296 0.0
H1164 H 0.30536 0.64211 0.28691 0.0
H1165 H 0.27736 0.63926 0.32016 0.0
H1166 H 0.18684 0.61851 0.31994 0.0
H1167 H 0.22514 0.64712 0.33285 0.0
H1168 H 0.24455 0.58457 0.16168 0.0
H1169 H 0.2809 0.61456 0.17686 0.0
H1170 H 0.19101 0.57768 0.1661 0.0
H1171 H 0.16447 0.56288 0.19638 0.0
C1172 C 0.92555 0.51092 0.9988 0.0
C1173 C 0.95641 0.53443 0.0072 0.0
C1174 C 0.92569 0.58409 -4e-05 0.0
C1175 C 0.89456 0.56068 0.99171 0.0
N1176 N 0.86288 0.50377 0.99117 0.0
N1177 N 0.98467 0.59361 0.02451 0.0
C1178 C 0.89389 0.52461 0.99357 0.0
C1179 C 0.95601 0.57115 0.01079 0.0
N1180 N 0.92672 0.47547 0.99484 0.0
N1181 N 0.92698 0.61806 0.99525 0.0
H1182 H 0.00732 0.58476 0.03246 0.0
H1183 H 0.98494 0.62081 0.03101 0.0
H1184 H 0.90568 0.62862 0.98671 0.0
H1185 H 0.94986 0.63508 0.99702 0.0
H1186 H 0.90602 0.45666 0.98472 0.0
H1187 H 0.94919 0.46475 8e-05 0.0
H1188 H 0.86027 0.47812 0.99551 0.0
H1189 H 0.83924 0.51321 0.98787 0.0
C1190 C 0.1366 0.97708 0.06752 0.0
C1191 C 0.10436 0.97078 0.04834 0.0
C1192 C 0.12466 0.92082 0.00964 0.0
C1193 C 0.15554 0.92497 0.03084 0.0
N1194 N 0.18852 0.95358 0.08328 0.0
N1195 N 0.06552 0.93385 0.0041 0.0
C1196 C 0.16096 0.95229 0.06062 0.0
C1197 C 0.0978 0.94186 0.02018 0.0
N1198 N 0.1442 0.00716 0.09193 0.0
N1199 N 0.12155 0.89775 0.97868 0.0
H1200 H 0.04535 0.94887 0.01072 0.0
H1201 H 0.05792 0.91082 0.98611 0.0
H1202 H 0.1408 0.88227 0.96983 0.0
H1203 H 0.10138 0.89624 0.96036 0.0
H1204 H 0.16863 0.01527 0.10413 0.0
H1205 H 0.12685 0.02565 0.09796 0.0
H1206 H 0.19179 0.9704 0.10728 0.0
H1207 H 0.20661 0.93564 0.07958 0.0
loop_
_geom_bond_atom_site_label_1
_geom_bond_atom_site_label_2
_geom_bond_distance
_geom_bond_site_symmetry_2
_ccdc_geom_bond_type
H0 C3 0.929 . S
H1 C6 0.929 . S
H2 C8 0.930 . S
C3 H0 0.929 . S
C3 C4 1.398 . S
C3 C5 1.396 . S
C4 C3 1.398 . S
C4 C8 1.407 . S
C5 C3 1.396 . S
C5 C6 1.394 . S
C6 H1 0.929 . S
C6 C5 1.394 . S
C6 C7 1.382 . S
C7 C6 1.382 . S
C7 C8 1.392 . S
C7 N9 1.420 . S
C8 H2 0.930 . S
C8 C4 1.407 . S
C8 C7 1.392 . S
N9 C7 1.420 . S
N9 C10 1.244 . S
C10 N9 1.244 . S
H11 C14 0.929 . S
H12 C17 0.929 . S
H13 C19 0.930 . S
C14 H11 0.929 . S
C14 C15 1.398 . S
C14 C16 1.396 . S
C15 C14 1.398 . S
C15 C19 1.407 . S
C16 C14 1.396 . S
C16 C17 1.394 . S
C17 H12 0.929 . S
C17 C16 1.394 . S
C17 C18 1.382 . S
C18 C17 1.382 . S
C18 C19 1.392 . S
C18 N20 1.420 . S
C19 H13 0.930 . S
C19 C15 1.407 . S
C19 C18 1.392 . S
N20 C18 1.420 . S
N20 C21 1.244 . S
C21 N20 1.244 . S
H22 C25 0.929 . S
H23 C28 0.929 . S
H24 C30 0.930 1_556 S
C25 H22 0.929 . S
C25 C26 1.398 1_455 S
C25 C27 1.396 . S
C26 C25 1.398 1_655 S
C26 C30 1.407 . S
C27 C25 1.396 . S
C27 C28 1.394 1_455 S
C28 H23 0.929 . S
C28 C27 1.394 1_655 S
C28 C29 1.382 . S
C29 C28 1.382 . S
C29 C30 1.392 . S
C29 N31 1.420 . S
C30 H24 0.930 1_554 S
C30 C26 1.407 . S
C30 C29 1.392 . S
N31 C29 1.420 . S
N31 C32 1.244 . S
C32 N31 1.244 . S
H33 C36 0.929 . S
H34 C39 0.929 . S
H35 C41 0.930 . S
C36 H33 0.929 . S
C36 C37 1.398 . S
C36 C38 1.396 . S
C37 C36 1.398 . S
C37 C41 1.407 . S
C38 C36 1.396 . S
C38 C39 1.394 . S
C39 H34 0.929 . S
C39 C38 1.394 . S
C39 C40 1.382 . S
C40 C39 1.382 . S
C40 C41 1.392 . S
C40 N42 1.420 . S
C41 H35 0.930 . S
C41 C37 1.407 . S
C41 C40 1.392 . S
N42 C40 1.420 . S
N42 C43 1.244 . S
C43 N42 1.244 . S
H44 C47 0.929 1_545 S
H45 C50 0.929 . S
H46 C52 0.930 . S
C47 H44 0.929 1_565 S
C47 C48 1.398 . S
C47 C49 1.396 . S
C48 C47 1.398 . S
C48 C52 1.407 . S
C49 C47 1.396 . S
C49 C50 1.394 . S
C50 H45 0.929 . S
C50 C49 1.394 . S
C50 C51 1.382 . S
C51 C50 1.382 . S
C51 C52 1.392 . S
C51 N53 1.420 . S
C52 H46 0.930 . S
C52 C48 1.407 . S
C52 C51 1.392 . S
N53 C51 1.420 . S
N53 C54 1.244 . S
C54 N53 1.244 . S
H55 C58 0.929 . S
H56 C61 0.929 . S
H57 C63 0.930 . S
C58 H55 0.929 . S
C58 C59 1.398 . S
C58 C60 1.396 . S
C59 C58 1.398 . S
C59 C63 1.407 . S
C60 C58 1.396 . S
C60 C61 1.394 . S
C61 H56 0.929 . S
C61 C60 1.394 . S
C61 C62 1.382 . S
C62 C61 1.382 . S
C62 C63 1.392 . S
C62 N64 1.420 . S
C63 H57 0.930 . S
C63 C59 1.407 . S
C63 C62 1.392 . S
N64 C62 1.420 . S
N64 C65 1.244 . S
C65 N64 1.244 . S
H66 C69 0.929 . S
H67 C72 0.929 1_455 S
H68 C74 0.930 . S
C69 H66 0.929 . S
C69 C70 1.398 . S
C69 C71 1.396 . S
C70 C69 1.398 . S
C70 C74 1.407 . S
C71 C69 1.396 . S
C71 C72 1.394 . S
C72 H67 0.929 1_655 S
C72 C71 1.394 . S
C72 C73 1.382 . S
C73 C72 1.382 . S
C73 C74 1.392 . S
C73 N75 1.420 1_655 S
C74 H68 0.930 . S
C74 C70 1.407 . S
C74 C73 1.392 . S
N75 C73 1.420 1_455 S
N75 C76 1.244 . S
C76 N75 1.244 . S
H77 C80 0.929 . S
H78 C83 0.929 . S
H79 C85 0.930 . S
C80 H77 0.929 . S
C80 C81 1.398 . S
C80 C82 1.396 . S
C81 C80 1.398 . S
C81 C85 1.407 . S
C82 C80 1.396 . S
C82 C83 1.394 . S
C83 H78 0.929 . S
C83 C82 1.394 . S
C83 C84 1.382 . S
C84 C83 1.382 . S
C84 C85 1.392 . S
C84 N86 1.420 . S
C85 H79 0.930 . S
C85 C81 1.407 . S
C85 C84 1.392 . S
N86 C84 1.420 . S
N86 C87 1.244 . S
C87 N86 1.244 . S
H88 C91 0.929 . S
H89 C94 0.929 . S
H90 C96 0.930 . S
C91 H88 0.929 . S
C91 C92 1.398 . S
C91 C93 1.396 . S
C92 C91 1.398 . S
C92 C96 1.407 . S
C93 C91 1.396 . S
C93 C94 1.394 . S
C94 H89 0.929 . S
C94 C93 1.394 . S
C94 C95 1.382 . S
C95 C94 1.382 . S
C95 C96 1.392 . S
C95 N97 1.420 . S
C96 H90 0.930 . S
C96 C92 1.407 . S
C96 C95 1.392 . S
N97 C95 1.420 . S
N97 C98 1.244 . S
C98 N97 1.244 . S
H99 C102 0.929 . S
H100 C105 0.929 1_545 S
H101 C107 0.930 . S
C102 H99 0.929 . S
C102 C103 1.398 . S
C102 C104 1.396 . S
C103 C102 1.398 . S
C103 C107 1.407 . S
C104 C102 1.396 . S
C104 C105 1.394 . S
C105 H100 0.929 1_565 S
C105 C104 1.394 . S
C105 C106 1.382 . S
C106 C105 1.382 . S
C106 C107 1.392 . S
C106 N108 1.437 . S
C107 H101 0.930 . S
C107 C103 1.407 . S
C107 C106 1.392 . S
N108 C106 1.437 . S
N108 C109 1.233 1_565 S
C109 N108 1.233 1_545 S
H110 C113 0.929 . S
H111 C116 0.929 . S
H112 C118 0.930 . S
C113 H110 0.929 . S
C113 C114 1.398 . S
C113 C115 1.396 . S
C114 C113 1.398 . S
C114 C118 1.407 . S
C115 C113 1.396 . S
C115 C116 1.394 . S
C116 H111 0.929 . S
C116 C115 1.394 . S
C116 C117 1.382 . S
C117 C116 1.382 . S
C117 C118 1.392 . S
C117 N119 1.420 . S
C118 H112 0.930 . S
C118 C114 1.407 . S
C118 C117 1.392 . S
N119 C117 1.420 . S
N119 C120 1.244 . S
C120 N119 1.244 . S
H121 C124 0.929 . S
H122 C127 0.929 . S
H123 C129 0.930 . S
C124 H121 0.929 . S
C124 C125 1.398 . S
C124 C126 1.396 . S
C125 C124 1.398 . S
C125 C129 1.407 . S
C126 C124 1.396 . S
C126 C127 1.394 . S
C127 H122 0.929 . S
C127 C126 1.394 . S
C127 C128 1.382 . S
C128 C127 1.382 . S
C128 C129 1.392 . S
C128 N130 1.420 . S
C129 H123 0.930 . S
C129 C125 1.407 . S
C129 C128 1.392 . S
N130 C128 1.420 . S
N130 C131 1.244 . S
C131 N130 1.244 . S
H132 C135 0.929 . S
H133 C138 0.929 . S
H134 C140 0.930 . S
C135 H132 0.929 . S
C135 C136 1.398 . S
C135 C137 1.396 . S
C136 C135 1.398 . S
C136 C140 1.407 . S
C137 C135 1.396 . S
C137 C138 1.394 . S
C138 H133 0.929 . S
C138 C137 1.394 . S
C138 C139 1.382 . S
C139 C138 1.382 . S
C139 C140 1.392 . S
C139 N141 1.420 . S
C140 H134 0.930 . S
C140 C136 1.407 . S
C140 C139 1.392 . S
N141 C139 1.420 . S
N141 C142 1.244 . S
C142 N141 1.244 . S
H143 C146 0.929 . S
H144 C149 0.929 1_554 S
H145 C151 0.930 . S
C146 H143 0.929 . S
C146 C147 1.398 . S
C146 C148 1.396 . S
C147 C146 1.398 . S
C147 C151 1.407 . S
C148 C146 1.396 . S
C148 C149 1.394 . S
C149 H144 0.929 1_556 S
C149 C148 1.394 . S
C149 C150 1.382 . S
C150 C149 1.382 . S
C150 C151 1.392 . S
C150 N152 1.420 1_556 S
C151 H145 0.930 . S
C151 C147 1.407 . S
C151 C150 1.392 . S
N152 C150 1.420 1_554 S
N152 C153 1.244 . S
C153 N152 1.244 . S
H154 C157 0.929 . S
H155 C160 0.929 . S
H156 C162 0.930 . S
C157 H154 0.929 . S
C157 C158 1.398 . S
C157 C159 1.396 . S
C158 C157 1.398 . S
C158 C162 1.407 . S
C159 C157 1.396 . S
C159 C160 1.394 . S
C160 H155 0.929 . S
C160 C159 1.394 . S
C160 C161 1.382 . S
C161 C160 1.382 . S
C161 C162 1.392 . S
C161 N163 1.420 . S
C162 H156 0.930 . S
C162 C158 1.407 . S
C162 C161 1.392 . S
N163 C161 1.420 . S
N163 C164 1.244 . S
C164 N163 1.244 . S
H165 C168 0.929 1_554 S
H166 C171 0.929 . S
H167 C173 0.930 1_565 S
C168 H165 0.929 1_556 S
C168 C169 1.398 . S
C168 C170 1.396 . S
C169 C168 1.398 . S
C169 C173 1.407 . S
C170 C168 1.396 . S
C170 C171 1.394 . S
C171 H166 0.929 . S
C171 C170 1.394 . S
C171 C172 1.382 . S
C172 C171 1.382 . S
C172 C173 1.392 . S
C172 N174 1.420 . S
C173 H167 0.930 1_545 S
C173 C169 1.407 . S
C173 C172 1.392 . S
N174 C172 1.420 . S
N174 C175 1.244 . S
C175 N174 1.244 . S
Zn176 O179 2.031 . S
Zn176 O181 2.049 . S
Zn176 O186 2.067 1_554 S
Zn177 O178 1.962 . S
Zn177 O180 1.986 . S
Zn177 O182 1.996 . S
Zn177 O185 1.943 . S
O178 Zn177 1.962 . S
O178 C183 1.254 . S
O179 Zn176 2.031 . S
O179 C183 1.269 . S
O180 Zn177 1.986 . S
O180 C187 1.262 . S
O181 Zn176 2.049 . S
O181 C189 1.260 . S
O182 Zn177 1.996 . S
O182 C189 1.257 . S
C183 O178 1.254 . S
C183 O179 1.269 . S
C184 O185 1.249 1_556 S
C184 O186 1.270 . S
O185 Zn177 1.943 . S
O185 C184 1.249 1_554 S
O186 Zn176 2.067 1_556 S
O186 C184 1.270 . S
C187 O180 1.262 . S
C187 O188 1.232 . S
O188 C187 1.232 . S
C189 O181 1.260 . S
C189 O182 1.257 . S
Zn190 O193 2.031 . S
Zn190 O195 2.049 . S
Zn190 O200 2.067 . S
Zn191 O192 1.962 . S
Zn191 O194 1.986 . S
Zn191 O196 1.996 . S
Zn191 O199 1.943 . S
O192 Zn191 1.962 . S
O192 C197 1.254 . S
O193 Zn190 2.031 . S
O193 C197 1.269 . S
O194 Zn191 1.986 . S
O194 C201 1.262 . S
O195 Zn190 2.049 . S
O195 C203 1.260 . S
O196 Zn191 1.996 . S
O196 C203 1.257 . S
C197 O192 1.254 . S
C197 O193 1.269 . S
C198 O199 1.249 . S
C198 O200 1.270 . S
O199 Zn191 1.943 . S
O199 C198 1.249 . S
O200 Zn190 2.067 . S
O200 C198 1.270 . S
C201 O194 1.262 . S
C201 O202 1.232 . S
O202 C201 1.232 . S
C203 O195 1.260 . S
C203 O196 1.257 . S
Zn204 O207 2.031 . S
Zn204 O209 2.049 . S
Zn204 O214 2.067 . S
Zn205 O206 1.962 . S
Zn205 O208 1.986 . S
Zn205 O210 1.996 1_554 S
Zn205 O213 1.943 . S
O206 Zn205 1.962 . S
O206 C211 1.254 . S
O207 Zn204 2.031 . S
O207 C211 1.269 1_556 S
O208 Zn205 1.986 . S
O208 C215 1.262 . S
O209 Zn204 2.049 . S
O209 C217 1.260 . S
O210 Zn205 1.996 1_556 S
O210 C217 1.257 . S
C211 O206 1.254 . S
C211 O207 1.269 1_554 S
C212 O213 1.249 1_556 S
C212 O214 1.270 . S
O213 Zn205 1.943 . S
O213 C212 1.249 1_554 S
O214 Zn204 2.067 . S
O214 C212 1.270 . S
C215 O208 1.262 . S
C215 O216 1.232 . S
O216 C215 1.232 . S
C217 O209 1.260 . S
C217 O210 1.257 . S
Zn218 O221 2.031 . S
Zn218 O223 2.049 . S
Zn218 O228 2.067 1_545 S
Zn219 O220 1.962 . S
Zn219 O222 1.986 . S
Zn219 O224 1.996 . S
Zn219 O227 1.943 1_545 S
O220 Zn219 1.962 . S
O220 C225 1.254 . S
O221 Zn218 2.031 . S
O221 C225 1.269 . S
O222 Zn219 1.986 . S
O222 C229 1.262 . S
O223 Zn218 2.049 . S
O223 C231 1.260 . S
O224 Zn219 1.996 . S
O224 C231 1.257 . S
C225 O220 1.254 . S
C225 O221 1.269 . S
C226 O227 1.249 . S
C226 O228 1.270 . S
O227 Zn219 1.943 1_565 S
O227 C226 1.249 . S
O228 Zn218 2.067 1_565 S
O228 C226 1.270 . S
C229 O222 1.262 . S
C229 O230 1.232 . S
O230 C229 1.232 . S
C231 O223 1.260 . S
C231 O224 1.257 . S
Zn232 O235 2.031 . S
Zn232 O237 2.049 . S
Zn232 O242 2.067 . S
Zn233 O234 1.962 . S
Zn233 O236 1.986 . S
Zn233 O238 1.996 . S
Zn233 O241 1.943 . S
O234 Zn233 1.962 . S
O234 C239 1.254 . S
O235 Zn232 2.031 . S
O235 C239 1.269 . S
O236 Zn233 1.986 . S
O236 C243 1.262 . S
O237 Zn232 2.049 . S
O237 C245 1.260 . S
O238 Zn233 1.996 . S
O238 C245 1.257 . S
C239 O234 1.254 . S
C239 O235 1.269 . S
C240 O241 1.249 . S
C240 O242 1.270 . S
O241 Zn233 1.943 . S
O241 C240 1.249 . S
O242 Zn232 2.067 . S
O242 C240 1.270 . S
C243 O236 1.262 . S
C243 O244 1.232 . S
O244 C243 1.232 . S
C245 O237 1.260 . S
C245 O238 1.257 . S
Zn246 O249 2.031 . S
Zn246 O251 2.049 . S
Zn246 O256 2.067 . S
Zn247 O248 1.962 . S
Zn247 O250 1.986 . S
Zn247 O252 1.996 . S
Zn247 O255 1.943 . S
O248 Zn247 1.962 . S
O248 C253 1.254 . S
O249 Zn246 2.031 . S
O249 C253 1.269 . S
O250 Zn247 1.986 . S
O250 C257 1.262 . S
O251 Zn246 2.049 . S
O251 C259 1.260 . S
O252 Zn247 1.996 . S
O252 C259 1.257 . S
C253 O248 1.254 . S
C253 O249 1.269 . S
C254 O255 1.249 . S
C254 O256 1.270 . S
O255 Zn247 1.943 . S
O255 C254 1.249 . S
O256 Zn246 2.067 . S
O256 C254 1.270 . S
C257 O250 1.262 . S
C257 O258 1.232 . S
O258 C257 1.232 . S
C259 O251 1.260 . S
C259 O252 1.257 . S
Zn260 O263 2.031 . S
Zn260 O265 2.049 . S
Zn260 O270 2.067 . S
Zn261 O262 1.962 . S
Zn261 O264 1.986 . S
Zn261 O266 1.996 . S
Zn261 O269 1.943 . S
O262 Zn261 1.962 . S
O262 C267 1.254 . S
O263 Zn260 2.031 . S
O263 C267 1.269 . S
O264 Zn261 1.986 . S
O264 C271 1.262 . S
O265 Zn260 2.049 . S
O265 C273 1.260 . S
O266 Zn261 1.996 . S
O266 C273 1.257 . S
C267 O262 1.254 . S
C267 O263 1.269 . S
C268 O269 1.249 . S
C268 O270 1.270 . S
O269 Zn261 1.943 . S
O269 C268 1.249 . S
O270 Zn260 2.067 . S
O270 C268 1.270 . S
C271 O264 1.262 . S
C271 O272 1.232 . S
O272 C271 1.232 . S
C273 O265 1.260 . S
C273 O266 1.257 . S
Zn274 O277 2.031 . S
Zn274 O279 2.049 . S
Zn274 O284 2.067 . S
Zn275 O276 1.962 . S
Zn275 O278 1.986 . S
Zn275 O280 1.996 1_545 S
Zn275 O283 1.942 . S
O276 Zn275 1.962 . S
O276 C281 1.254 . S
O277 Zn274 2.031 . S
O277 C281 1.269 1_565 S
O278 Zn275 1.986 . S
O278 C285 1.262 . S
O279 Zn274 2.049 . S
O279 C287 1.260 . S
O280 Zn275 1.996 1_565 S
O280 C287 1.257 . S
C281 O276 1.254 . S
C281 O277 1.269 1_545 S
C282 O283 1.232 1_565 S
C282 O284 1.270 . S
O283 Zn275 1.942 . S
O283 C282 1.232 1_545 S
O284 Zn274 2.067 . S
O284 C282 1.270 . S
C285 O278 1.262 . S
C285 O286 1.232 . S
O286 C285 1.232 . S
C287 O279 1.260 . S
C287 O280 1.257 . S
Zn288 O291 2.031 . S
Zn288 O293 2.038 1_455 S
Zn288 O298 2.067 1_455 S
Zn289 O290 1.962 . S
Zn289 O292 1.986 . S
Zn289 O294 1.996 . S
Zn289 O297 1.943 1_455 S
O290 Zn289 1.962 . S
O290 C295 1.254 . S
O291 Zn288 2.031 . S
O291 C295 1.269 . S
O292 Zn289 1.986 . S
O292 C299 1.262 . S
O293 Zn288 2.038 1_655 S
O293 C301 1.253 1_655 S
O294 Zn289 1.996 . S
O294 C301 1.257 . S
C295 O290 1.254 . S
C295 O291 1.269 . S
C296 O297 1.249 . S
C296 O298 1.270 . S
O297 Zn289 1.943 1_655 S
O297 C296 1.249 . S
O298 Zn288 2.067 1_655 S
O298 C296 1.270 . S
C299 O292 1.262 . S
C299 O300 1.232 . S
O300 C299 1.232 . S
C301 O293 1.253 1_455 S
C301 O294 1.257 . S
Zn302 O305 2.031 . S
Zn302 O307 2.049 . S
Zn302 O312 2.067 . S
Zn303 O304 1.962 . S
Zn303 O306 1.986 . S
Zn303 O308 1.996 . S
Zn303 O311 1.943 . S
O304 Zn303 1.962 . S
O304 C309 1.254 . S
O305 Zn302 2.031 . S
O305 C309 1.269 . S
O306 Zn303 1.986 . S
O306 C313 1.262 . S
O307 Zn302 2.049 . S
O307 C315 1.260 . S
O308 Zn303 1.996 . S
O308 C315 1.257 . S
C309 O304 1.254 . S
C309 O305 1.269 . S
C310 O311 1.249 . S
C310 O312 1.270 . S
O311 Zn303 1.943 . S
O311 C310 1.249 . S
O312 Zn302 2.067 . S
O312 C310 1.270 . S
C313 O306 1.262 . S
C313 O314 1.232 . S
O314 C313 1.232 . S
C315 O307 1.260 . S
C315 O308 1.257 . S
Zn316 O319 2.031 1_655 S
Zn316 O321 2.049 . S
Zn316 O326 2.067 . S
Zn317 O318 1.962 . S
Zn317 O320 1.986 . S
Zn317 O322 1.996 1_455 S
Zn317 O325 1.943 . S
O318 Zn317 1.962 . S
O318 C323 1.254 . S
O319 Zn316 2.031 1_455 S
O319 C323 1.269 . S
O320 Zn317 1.986 . S
O320 C327 1.262 . S
O321 Zn316 2.049 . S
O321 C329 1.260 . S
O322 Zn317 1.996 1_655 S
O322 C329 1.257 . S
C323 O318 1.254 . S
C323 O319 1.269 . S
C324 O325 1.249 1_655 S
C324 O326 1.270 . S
O325 Zn317 1.943 . S
O325 C324 1.249 1_455 S
O326 Zn316 2.067 . S
O326 C324 1.270 . S
C327 O320 1.262 . S
C327 O328 1.232 . S
O328 C327 1.232 . S
C329 O321 1.260 . S
C329 O322 1.257 . S
Zn330 O333 2.031 . S
Zn330 O335 2.049 . S
Zn330 O340 2.067 . S
Zn331 O332 1.962 . S
Zn331 O334 1.986 . S
Zn331 O336 1.996 . S
Zn331 O339 1.943 . S
O332 Zn331 1.962 . S
O332 C337 1.254 . S
O333 Zn330 2.031 . S
O333 C337 1.269 . S
O334 Zn331 1.986 . S
O334 C341 1.262 . S
O335 Zn330 2.049 . S
O335 C343 1.260 . S
O336 Zn331 1.996 . S
O336 C343 1.257 . S
C337 O332 1.254 . S
C337 O333 1.269 . S
C338 O339 1.249 . S
C338 O340 1.270 . S
O339 Zn331 1.943 . S
O339 C338 1.249 . S
O340 Zn330 2.067 . S
O340 C338 1.270 . S
C341 O334 1.262 . S
C341 O342 1.232 . S
O342 C341 1.232 . S
C343 O335 1.260 . S
C343 O336 1.257 . S
C344 C345 1.363 . S
C344 C350 1.379 . S
C344 N352 1.356 . S
C345 C344 1.363 . S
C345 C351 1.363 . S
C346 C347 1.363 . S
C346 C351 1.379 . S
C346 N353 1.356 . S
C347 C346 1.363 . S
C347 C350 1.363 . S
N348 C350 1.356 . S
N348 H360 0.984 . S
N348 H361 0.985 . S
N349 C351 1.356 . S
N349 H354 0.984 . S
N349 H355 0.985 . S
C350 C344 1.379 . S
C350 C347 1.363 . S
C350 N348 1.356 . S
C351 C345 1.363 . S
C351 C346 1.379 . S
C351 N349 1.356 . S
N352 C344 1.356 . S
N352 H358 0.984 . S
N352 H359 0.984 . S
N353 C346 1.356 . S
N353 H356 0.984 . S
N353 H357 0.985 . S
H354 N349 0.984 . S
H355 N349 0.985 . S
H356 N353 0.984 . S
H357 N353 0.985 . S
H358 N352 0.984 . S
H359 N352 0.984 . S
H360 N348 0.984 . S
H361 N348 0.985 . S
C362 C363 1.363 . S
C362 C368 1.379 . S
C362 N370 1.356 . S
C363 C362 1.363 . S
C363 C369 1.363 . S
C364 C365 1.363 . S
C364 C369 1.379 . S
C364 N371 1.356 . S
C365 C364 1.363 . S
C365 C368 1.363 . S
N366 C368 1.356 . S
N366 H378 0.984 . S
N366 H379 0.985 . S
N367 C369 1.356 . S
N367 H372 0.984 . S
N367 H373 0.985 . S
C368 C362 1.379 . S
C368 C365 1.363 . S
C368 N366 1.356 . S
C369 C363 1.363 . S
C369 C364 1.379 . S
C369 N367 1.356 . S
N370 C362 1.356 . S
N370 H376 0.984 . S
N370 H377 0.984 . S
N371 C364 1.356 . S
N371 H374 0.984 . S
N371 H375 0.985 . S
H372 N367 0.984 . S
H373 N367 0.985 . S
H374 N371 0.984 . S
H375 N371 0.985 . S
H376 N370 0.984 . S
H377 N370 0.984 . S
H378 N366 0.984 . S
H379 N366 0.985 . S
C380 C381 1.363 . S
C380 C386 1.379 . S
C380 N388 1.356 . S
C381 C380 1.363 . S
C381 C387 1.363 . S
C382 C383 1.363 . S
C382 C387 1.379 . S
C382 N389 1.356 . S
C383 C382 1.363 . S
C383 C386 1.363 . S
N384 C386 1.356 . S
N384 H396 0.984 . S
N384 H397 0.985 . S
N385 C387 1.356 . S
N385 H390 0.984 . S
N385 H391 0.985 . S
C386 C380 1.379 . S
C386 C383 1.363 . S
C386 N384 1.356 . S
C387 C381 1.363 . S
C387 C382 1.379 . S
C387 N385 1.356 . S
N388 C380 1.356 . S
N388 H394 0.984 . S
N388 H395 0.984 . S
N389 C382 1.356 . S
N389 H392 0.984 . S
N389 H393 0.985 . S
H390 N385 0.984 . S
H391 N385 0.985 . S
H392 N389 0.984 . S
H393 N389 0.985 . S
H394 N388 0.984 . S
H395 N388 0.984 . S
H396 N384 0.984 . S
H397 N384 0.985 . S
C398 C399 1.363 1_545 S
C398 C404 1.379 . S
C398 N406 1.356 . S
C399 C398 1.363 1_565 S
C399 C405 1.363 . S
C400 C401 1.362 1_465 S
C400 C405 1.379 . S
C400 N407 1.356 1_455 S
C401 C400 1.362 1_645 S
C401 C404 1.363 1_655 S
N402 C404 1.356 1_655 S
N402 H414 0.984 . S
N402 H415 0.985 . S
N403 C405 1.356 . S
N403 H408 0.984 . S
N403 H409 0.985 . S
C404 C398 1.379 . S
C404 C401 1.363 1_455 S
C404 N402 1.356 1_455 S
C405 C399 1.363 . S
C405 C400 1.379 . S
C405 N403 1.356 . S
N406 C398 1.356 . S
N406 H412 0.984 . S
N406 H413 0.984 . S
N407 C400 1.356 1_655 S
N407 H410 0.984 . S
N407 H411 0.985 1_655 S
H408 N403 0.984 . S
H409 N403 0.985 . S
H410 N407 0.984 . S
H411 N407 0.985 1_455 S
H412 N406 0.984 . S
H413 N406 0.984 . S
H414 N402 0.984 . S
H415 N402 0.985 . S
C416 C417 1.363 . S
C416 C422 1.379 . S
C416 N424 1.356 . S
C417 C416 1.363 . S
C417 C423 1.363 . S
C418 C419 1.363 . S
C418 C423 1.379 . S
C418 N425 1.356 . S
C419 C418 1.363 . S
C419 C422 1.363 . S
N420 C422 1.356 . S
N420 H432 0.984 . S
N420 H433 0.985 . S
N421 C423 1.356 . S
N421 H426 0.984 . S
N421 H427 0.985 . S
C422 C416 1.379 . S
C422 C419 1.363 . S
C422 N420 1.356 . S
C423 C417 1.363 . S
C423 C418 1.379 . S
C423 N421 1.356 . S
N424 C416 1.356 . S
N424 H430 0.984 . S
N424 H431 0.984 . S
N425 C418 1.356 . S
N425 H428 0.984 . S
N425 H429 0.985 . S
H426 N421 0.984 . S
H427 N421 0.985 . S
H428 N425 0.984 . S
H429 N425 0.985 . S
H430 N424 0.984 . S
H431 N424 0.984 . S
H432 N420 0.984 . S
H433 N420 0.985 . S
C434 C435 1.363 . S
C434 C440 1.379 . S
C434 N442 1.356 . S
C435 C434 1.363 . S
C435 C441 1.363 . S
C436 C437 1.363 . S
C436 C441 1.379 . S
C436 N443 1.356 . S
C437 C436 1.363 . S
C437 C440 1.363 . S
N438 C440 1.356 . S
N438 H450 0.984 . S
N438 H451 0.985 . S
N439 C441 1.356 . S
N439 H444 0.984 . S
N439 H445 0.985 . S
C440 C434 1.379 . S
C440 C437 1.363 . S
C440 N438 1.356 . S
C441 C435 1.363 . S
C441 C436 1.379 . S
C441 N439 1.356 . S
N442 C434 1.356 . S
N442 H448 0.984 . S
N442 H449 0.984 . S
N443 C436 1.356 . S
N443 H446 0.984 . S
N443 H447 0.985 . S
H444 N439 0.984 . S
H445 N439 0.985 . S
H446 N443 0.984 . S
H447 N443 0.985 . S
H448 N442 0.984 . S
H449 N442 0.984 . S
H450 N438 0.984 . S
H451 N438 0.985 . S
C452 C453 1.363 . S
C452 C458 1.379 . S
C452 N460 1.356 . S
C453 C452 1.363 . S
C453 C459 1.363 . S
C454 C455 1.363 . S
C454 C459 1.379 . S
C454 N461 1.356 . S
C455 C454 1.363 . S
C455 C458 1.363 . S
N456 C458 1.356 . S
N456 H468 0.984 . S
N456 H469 0.985 . S
N457 C459 1.356 . S
N457 H462 0.984 . S
N457 H463 0.985 . S
C458 C452 1.379 . S
C458 C455 1.363 . S
C458 N456 1.356 . S
C459 C453 1.363 . S
C459 C454 1.379 . S
C459 N457 1.356 . S
N460 C452 1.356 . S
N460 H466 0.984 . S
N460 H467 0.984 . S
N461 C454 1.356 . S
N461 H464 0.984 . S
N461 H465 0.985 . S
H462 N457 0.984 . S
H463 N457 0.985 . S
H464 N461 0.984 . S
H465 N461 0.985 . S
H466 N460 0.984 . S
H467 N460 0.984 . S
H468 N456 0.984 . S
H469 N456 0.985 . S
C470 C471 1.363 . S
C470 C476 1.379 . S
C470 N478 1.356 . S
C471 C470 1.363 . S
C471 C477 1.363 . S
C472 C473 1.340 1_545 S
C472 C477 1.383 1_545 S
C472 N479 1.370 . S
C473 C472 1.340 1_565 S
C473 C476 1.363 . S
N474 C476 1.356 . S
N474 H486 0.984 . S
N474 H487 0.985 . S
N475 C477 1.356 1_545 S
N475 H480 0.984 . S
N475 H481 0.985 . S
C476 C470 1.379 . S
C476 C473 1.363 . S
C476 N474 1.356 . S
C477 C471 1.363 . S
C477 C472 1.383 1_565 S
C477 N475 1.356 1_565 S
N478 C470 1.356 . S
N478 H484 0.984 . S
N478 H485 0.984 . S
N479 C472 1.370 . S
N479 H482 0.984 . S
N479 H483 0.985 . S
H480 N475 0.984 . S
H481 N475 0.985 . S
H482 N479 0.984 . S
H483 N479 0.985 . S
H484 N478 0.984 . S
H485 N478 0.984 . S
H486 N474 0.984 . S
H487 N474 0.985 . S
C488 C489 1.363 . S
C488 C494 1.379 . S
C488 N496 1.356 . S
C489 C488 1.363 . S
C489 C495 1.363 . S
C490 C491 1.363 . S
C490 C495 1.379 . S
C490 N497 1.356 . S
C491 C490 1.363 . S
C491 C494 1.363 . S
N492 C494 1.356 . S
N492 H504 0.984 . S
N492 H505 0.985 . S
N493 C495 1.356 . S
N493 H498 0.984 . S
N493 H499 0.985 . S
C494 C488 1.379 . S
C494 C491 1.363 . S
C494 N492 1.356 . S
C495 C489 1.363 . S
C495 C490 1.379 . S
C495 N493 1.356 . S
N496 C488 1.356 . S
N496 H502 0.984 . S
N496 H503 0.984 . S
N497 C490 1.356 . S
N497 H500 0.984 . S
N497 H501 0.985 . S
H498 N493 0.984 . S
H499 N493 0.985 . S
H500 N497 0.984 . S
H501 N497 0.985 . S
H502 N496 0.984 . S
H503 N496 0.984 . S
H504 N492 0.984 . S
H505 N492 0.985 . S
C506 C507 1.363 . S
C506 C512 1.379 . S
C506 N514 1.356 . S
C507 C506 1.363 . S
C507 C513 1.363 . S
C508 C509 1.363 . S
C508 C513 1.379 . S
C508 N515 1.356 . S
C509 C508 1.363 . S
C509 C512 1.363 . S
N510 C512 1.356 . S
N510 H522 0.984 . S
N510 H523 0.985 . S
N511 C513 1.356 . S
N511 H516 0.984 . S
N511 H517 0.985 . S
C512 C506 1.379 . S
C512 C509 1.363 . S
C512 N510 1.356 . S
C513 C507 1.363 . S
C513 C508 1.379 . S
C513 N511 1.356 . S
N514 C506 1.356 . S
N514 H520 0.984 . S
N514 H521 0.984 . S
N515 C508 1.356 . S
N515 H518 0.984 . S
N515 H519 0.985 . S
H516 N511 0.984 . S
H517 N511 0.985 . S
H518 N515 0.984 . S
H519 N515 0.985 . S
H520 N514 0.984 . S
H521 N514 0.984 . S
H522 N510 0.984 . S
H523 N510 0.985 . S
C524 C525 1.363 . S
C524 C530 1.379 . S
C524 N532 1.356 . S
C525 C524 1.363 . S
C525 C531 1.363 . S
C526 C527 1.363 . S
C526 C531 1.379 . S
C526 N533 1.356 . S
C527 C526 1.363 . S
C527 C530 1.363 . S
N528 C530 1.356 . S
N528 H540 0.984 . S
N528 H541 0.985 . S
N529 C531 1.356 . S
N529 H534 0.984 . S
N529 H535 0.985 . S
C530 C524 1.379 . S
C530 C527 1.363 . S
C530 N528 1.356 . S
C531 C525 1.363 . S
C531 C526 1.379 . S
C531 N529 1.356 . S
N532 C524 1.356 . S
N532 H538 0.984 . S
N532 H539 0.984 . S
N533 C526 1.356 . S
N533 H536 0.984 . S
N533 H537 0.985 . S
H534 N529 0.984 . S
H535 N529 0.985 . S
H536 N533 0.984 . S
H537 N533 0.985 . S
H538 N532 0.984 . S
H539 N532 0.984 . S
H540 N528 0.984 . S
H541 N528 0.985 . S
C542 C543 1.363 . S
C542 C548 1.379 . S
C542 N550 1.356 . S
C543 C542 1.363 . S
C543 C549 1.363 . S
C544 C545 1.363 . S
C544 C549 1.379 . S
C544 N551 1.356 . S
C545 C544 1.363 . S
C545 C548 1.363 . S
N546 C548 1.356 . S
N546 H558 0.984 . S
N546 H559 0.985 . S
N547 C549 1.356 . S
N547 H552 0.984 . S
N547 H553 0.985 . S
C548 C542 1.379 . S
C548 C545 1.363 . S
C548 N546 1.356 . S
C549 C543 1.363 . S
C549 C544 1.379 . S
C549 N547 1.356 . S
N550 C542 1.356 . S
N550 H556 0.984 . S
N550 H557 0.984 . S
N551 C544 1.356 . S
N551 H554 0.984 . S
N551 H555 0.985 . S
H552 N547 0.984 . S
H553 N547 0.985 . S
H554 N551 0.984 . S
H555 N551 0.985 . S
H556 N550 0.984 . S
H557 N550 0.984 . S
H558 N546 0.984 . S
H559 N546 0.985 . S
C560 C561 1.363 . S
C560 C566 1.379 . S
C560 N568 1.356 . S
C561 C560 1.363 . S
C561 C567 1.363 . S
C562 C563 1.363 . S
C562 C567 1.379 . S
C562 N569 1.356 . S
C563 C562 1.363 . S
C563 C566 1.363 . S
N564 C566 1.356 . S
N564 H576 0.984 . S
N564 H577 0.985 . S
N565 C567 1.356 . S
N565 H570 0.984 . S
N565 H571 0.985 . S
C566 C560 1.379 . S
C566 C563 1.363 . S
C566 N564 1.356 . S
C567 C561 1.363 . S
C567 C562 1.379 . S
C567 N565 1.356 . S
N568 C560 1.356 . S
N568 H574 0.984 . S
N568 H575 0.984 . S
N569 C562 1.356 . S
N569 H572 0.984 . S
N569 H573 0.985 . S
H570 N565 0.984 . S
H571 N565 0.985 . S
H572 N569 0.984 . S
H573 N569 0.985 . S
H574 N568 0.984 . S
H575 N568 0.984 . S
H576 N564 0.984 . S
H577 N564 0.985 . S
C578 C579 1.363 . S
C578 C584 1.379 . S
C578 N586 1.356 . S
C579 C578 1.363 . S
C579 C585 1.363 . S
C580 C581 1.363 . S
C580 C585 1.379 . S
C580 N587 1.356 1_455 S
C581 C580 1.363 . S
C581 C584 1.363 . S
N582 C584 1.356 . S
N582 H594 0.984 . S
N582 H595 0.985 . S
N583 C585 1.356 . S
N583 H588 0.984 . S
N583 H589 0.985 1_455 S
C584 C578 1.379 . S
C584 C581 1.363 . S
C584 N582 1.356 . S
C585 C579 1.363 . S
C585 C580 1.379 . S
C585 N583 1.356 . S
N586 C578 1.356 . S
N586 H592 0.984 . S
N586 H593 0.984 . S
N587 C580 1.356 1_655 S
N587 H590 0.984 . S
N587 H591 0.985 . S
H588 N583 0.984 . S
H589 N583 0.985 1_655 S
H590 N587 0.984 . S
H591 N587 0.985 . S
H592 N586 0.984 . S
H593 N586 0.984 . S
H594 N582 0.984 . S
H595 N582 0.985 . S
C596 C597 1.363 . S
C596 C602 1.379 . S
C596 N604 1.356 . S
C597 C596 1.363 . S
C597 C603 1.363 . S
C598 C599 1.363 . S
C598 C603 1.379 . S
C598 N605 1.356 . S
C599 C598 1.363 . S
C599 C602 1.363 . S
N600 C602 1.356 . S
N600 H612 0.984 . S
N600 H613 0.985 . S
N601 C603 1.356 . S
N601 H606 0.984 . S
N601 H607 0.985 . S
C602 C596 1.379 . S
C602 C599 1.363 . S
C602 N600 1.356 . S
C603 C597 1.363 . S
C603 C598 1.379 . S
C603 N601 1.356 . S
N604 C596 1.356 . S
N604 H610 0.984 . S
N604 H611 0.984 . S
N605 C598 1.356 . S
N605 H608 0.984 . S
N605 H609 0.985 . S
H606 N601 0.984 . S
H607 N601 0.985 . S
H608 N605 0.984 . S
H609 N605 0.985 . S
H610 N604 0.984 . S
H611 N604 0.984 . S
H612 N600 0.984 . S
H613 N600 0.985 . S
C614 C615 1.363 . S
C614 C620 1.379 . S
C614 N622 1.356 . S
C615 C614 1.363 . S
C615 C621 1.363 1_655 S
C616 C617 1.363 1_455 S
C616 C621 1.379 . S
C616 N623 1.356 . S
C617 C616 1.363 1_655 S
C617 C620 1.363 . S
N618 C620 1.356 . S
N618 H630 0.984 . S
N618 H631 0.985 . S
N619 C621 1.356 . S
N619 H624 0.984 . S
N619 H625 0.985 . S
C620 C614 1.379 . S
C620 C617 1.363 . S
C620 N618 1.356 . S
C621 C615 1.363 1_455 S
C621 C616 1.379 . S
C621 N619 1.356 . S
N622 C614 1.356 . S
N622 H628 0.984 . S
N622 H629 0.984 . S
N623 C616 1.356 . S
N623 H626 0.984 . S
N623 H627 0.985 . S
H624 N619 0.984 . S
H625 N619 0.985 . S
H626 N623 0.984 . S
H627 N623 0.985 . S
H628 N622 0.984 . S
H629 N622 0.984 . S
H630 N618 0.984 . S
H631 N618 0.985 . S
C632 C633 1.363 . S
C632 C638 1.379 . S
C632 N640 1.356 . S
C633 C632 1.363 . S
C633 C639 1.363 . S
C634 C635 1.363 . S
C634 C639 1.379 . S
C634 N641 1.356 . S
C635 C634 1.363 . S
C635 C638 1.363 . S
N636 C638 1.356 . S
N636 H648 0.984 . S
N636 H649 0.985 . S
N637 C639 1.356 . S
N637 H642 0.984 . S
N637 H643 0.985 . S
C638 C632 1.379 . S
C638 C635 1.363 . S
C638 N636 1.356 . S
C639 C633 1.363 . S
C639 C634 1.379 . S
C639 N637 1.356 . S
N640 C632 1.356 . S
N640 H646 0.984 . S
N640 H647 0.984 . S
N641 C634 1.356 . S
N641 H644 0.984 . S
N641 H645 0.985 . S
H642 N637 0.984 . S
H643 N637 0.985 . S
H644 N641 0.984 . S
H645 N641 0.985 . S
H646 N640 0.984 . S
H647 N640 0.984 . S
H648 N636 0.984 . S
H649 N636 0.985 . S
C650 C651 1.363 . S
C650 C656 1.379 . S
C650 N658 1.356 . S
C651 C650 1.363 . S
C651 C657 1.363 . S
C652 C653 1.363 . S
C652 C657 1.379 . S
C652 N659 1.356 . S
C653 C652 1.363 . S
C653 C656 1.363 . S
N654 C656 1.356 . S
N654 H666 0.984 . S
N654 H667 0.985 . S
N655 C657 1.356 . S
N655 H660 0.984 . S
N655 H661 0.985 . S
C656 C650 1.379 . S
C656 C653 1.363 . S
C656 N654 1.356 . S
C657 C651 1.363 . S
C657 C652 1.379 . S
C657 N655 1.356 . S
N658 C650 1.356 . S
N658 H664 0.984 . S
N658 H665 0.984 . S
N659 C652 1.356 . S
N659 H662 0.984 . S
N659 H663 0.985 . S
H660 N655 0.984 . S
H661 N655 0.985 . S
H662 N659 0.984 . S
H663 N659 0.985 . S
H664 N658 0.984 . S
H665 N658 0.984 . S
H666 N654 0.984 . S
H667 N654 0.985 . S
C668 C669 1.363 1_565 S
C668 C674 1.379 . S
C668 N676 1.356 . S
C669 C668 1.363 1_545 S
C669 C675 1.363 1_556 S
C670 C671 1.372 . S
C670 C675 1.373 1_565 S
C670 N677 1.356 1_565 S
C671 C670 1.372 . S
C671 C674 1.363 1_554 S
N672 C674 1.356 . S
N672 H684 0.984 . S
N672 H685 0.985 . S
N673 C675 1.356 . S
N673 H678 0.984 1_554 S
N673 H679 0.985 . S
C674 C668 1.379 . S
C674 C671 1.363 1_556 S
C674 N672 1.356 . S
C675 C669 1.363 1_554 S
C675 C670 1.373 1_545 S
C675 N673 1.356 . S
N676 C668 1.356 . S
N676 H682 0.984 . S
N676 H683 0.984 . S
N677 C670 1.356 1_545 S
N677 H680 0.984 1_545 S
N677 H681 0.985 . S
H678 N673 0.984 1_556 S
H679 N673 0.985 . S
H680 N677 0.984 1_565 S
H681 N677 0.985 . S
H682 N676 0.984 . S
H683 N676 0.984 . S
H684 N672 0.984 . S
H685 N672 0.985 . S
C686 C687 1.363 . S
C686 C692 1.379 . S
C686 N694 1.356 . S
C687 C686 1.363 . S
C687 C693 1.363 . S
C688 C689 1.363 . S
C688 C693 1.379 . S
C688 N695 1.356 . S
C689 C688 1.363 . S
C689 C692 1.363 . S
N690 C692 1.356 . S
N690 H702 0.984 . S
N690 H703 0.985 . S
N691 C693 1.356 . S
N691 H696 0.984 . S
N691 H697 0.985 . S
C692 C686 1.379 . S
C692 C689 1.363 . S
C692 N690 1.356 . S
C693 C687 1.363 . S
C693 C688 1.379 . S
C693 N691 1.356 . S
N694 C686 1.356 . S
N694 H700 0.984 . S
N694 H701 0.984 . S
N695 C688 1.356 . S
N695 H698 0.984 . S
N695 H699 0.985 . S
H696 N691 0.984 . S
H697 N691 0.985 . S
H698 N695 0.984 . S
H699 N695 0.985 . S
H700 N694 0.984 . S
H701 N694 0.984 . S
H702 N690 0.984 . S
H703 N690 0.985 . S
C704 C705 1.363 . S
C704 C710 1.379 . S
C704 N712 1.356 1_545 S
C705 C704 1.363 . S
C705 C711 1.363 . S
C706 C707 1.363 . S
C706 C711 1.379 . S
C706 N713 1.356 . S
C707 C706 1.363 . S
C707 C710 1.363 . S
N708 C710 1.356 . S
N708 H720 0.984 . S
N708 H721 0.985 . S
N709 C711 1.356 . S
N709 H714 0.984 . S
N709 H715 0.985 . S
C710 C704 1.379 . S
C710 C707 1.363 . S
C710 N708 1.356 . S
C711 C705 1.363 . S
C711 C706 1.379 . S
C711 N709 1.356 . S
N712 C704 1.356 1_565 S
N712 H718 0.984 . S
N712 H719 0.984 . S
N713 C706 1.356 . S
N713 H716 0.984 . S
N713 H717 0.985 . S
H714 N709 0.984 . S
H715 N709 0.985 . S
H716 N713 0.984 . S
H717 N713 0.985 . S
H718 N712 0.984 . S
H719 N712 0.984 . S
H720 N708 0.984 . S
H721 N708 0.985 . S
C722 C723 1.363 . S
C722 C728 1.379 . S
C722 N730 1.356 . S
C723 C722 1.363 . S
C723 C729 1.363 . S
C724 C725 1.363 . S
C724 C729 1.379 . S
C724 N731 1.356 . S
C725 C724 1.363 . S
C725 C728 1.363 . S
N726 C728 1.356 . S
N726 H738 0.984 . S
N726 H739 0.985 . S
N727 C729 1.356 . S
N727 H732 0.984 . S
N727 H733 0.985 . S
C728 C722 1.379 . S
C728 C725 1.363 . S
C728 N726 1.356 . S
C729 C723 1.363 . S
C729 C724 1.379 . S
C729 N727 1.356 . S
N730 C722 1.356 . S
N730 H736 0.984 . S
N730 H737 0.984 . S
N731 C724 1.356 . S
N731 H734 0.984 . S
N731 H735 0.985 . S
H732 N727 0.984 . S
H733 N727 0.985 . S
H734 N731 0.984 . S
H735 N731 0.985 . S
H736 N730 0.984 . S
H737 N730 0.984 . S
H738 N726 0.984 . S
H739 N726 0.985 . S
C740 C741 1.363 . S
C740 C746 1.379 . S
C740 N748 1.356 . S
C741 C740 1.363 . S
C741 C747 1.363 . S
C742 C743 1.363 . S
C742 C747 1.379 . S
C742 N749 1.356 . S
C743 C742 1.363 . S
C743 C746 1.363 . S
N744 C746 1.356 . S
N744 H756 0.984 . S
N744 H757 0.985 . S
N745 C747 1.356 1_565 S
N745 H750 0.984 . S
N745 H751 0.985 . S
C746 C740 1.379 . S
C746 C743 1.363 . S
C746 N744 1.356 . S
C747 C741 1.363 . S
C747 C742 1.379 . S
C747 N745 1.356 1_545 S
N748 C740 1.356 . S
N748 H754 0.984 . S
N748 H755 0.984 . S
N749 C742 1.356 . S
N749 H752 0.984 . S
N749 H753 0.985 . S
H750 N745 0.984 . S
H751 N745 0.985 . S
H752 N749 0.984 . S
H753 N749 0.985 . S
H754 N748 0.984 . S
H755 N748 0.984 . S
H756 N744 0.984 . S
H757 N744 0.985 . S
C758 C759 1.363 . S
C758 C764 1.379 . S
C758 N766 1.356 . S
C759 C758 1.363 . S
C759 C765 1.363 . S
C760 C761 1.363 . S
C760 C765 1.379 . S
C760 N767 1.356 . S
C761 C760 1.363 . S
C761 C764 1.363 . S
N762 C764 1.356 . S
N762 H774 0.984 . S
N762 H775 0.985 . S
N763 C765 1.356 . S
N763 H768 0.984 . S
N763 H769 0.985 . S
C764 C758 1.379 . S
C764 C761 1.363 . S
C764 N762 1.356 . S
C765 C759 1.363 . S
C765 C760 1.379 . S
C765 N763 1.356 . S
N766 C758 1.356 . S
N766 H772 0.984 . S
N766 H773 0.984 . S
N767 C760 1.356 . S
N767 H770 0.984 . S
N767 H771 0.985 . S
H768 N763 0.984 . S
H769 N763 0.985 . S
H770 N767 0.984 . S
H771 N767 0.985 . S
H772 N766 0.984 . S
H773 N766 0.984 . S
H774 N762 0.984 . S
H775 N762 0.985 . S
C776 C777 1.363 . S
C776 C782 1.379 . S
C776 N784 1.356 . S
C777 C776 1.363 . S
C777 C783 1.363 . S
C778 C779 1.363 . S
C778 C783 1.379 . S
C778 N785 1.356 . S
C779 C778 1.363 . S
C779 C782 1.363 . S
N780 C782 1.356 . S
N780 H792 0.984 . S
N780 H793 0.985 . S
N781 C783 1.356 . S
N781 H786 0.984 . S
N781 H787 0.985 . S
C782 C776 1.379 . S
C782 C779 1.363 . S
C782 N780 1.356 . S
C783 C777 1.363 . S
C783 C778 1.379 . S
C783 N781 1.356 . S
N784 C776 1.356 . S
N784 H790 0.984 . S
N784 H791 0.984 . S
N785 C778 1.356 . S
N785 H788 0.984 . S
N785 H789 0.985 . S
H786 N781 0.984 . S
H787 N781 0.985 . S
H788 N785 0.984 . S
H789 N785 0.985 . S
H790 N784 0.984 . S
H791 N784 0.984 . S
H792 N780 0.984 . S
H793 N780 0.985 . S
C794 C795 1.363 . S
C794 C800 1.379 . S
C794 N802 1.356 . S
C795 C794 1.363 . S
C795 C801 1.363 . S
C796 C797 1.363 . S
C796 C801 1.379 . S
C796 N803 1.356 1_545 S
C797 C796 1.363 . S
C797 C800 1.363 . S
N798 C800 1.356 . S
N798 H810 0.984 . S
N798 H811 0.985 . S
N799 C801 1.356 . S
N799 H804 0.984 . S
N799 H805 0.985 1_545 S
C800 C794 1.379 . S
C800 C797 1.363 . S
C800 N798 1.356 . S
C801 C795 1.363 . S
C801 C796 1.379 . S
C801 N799 1.356 . S
N802 C794 1.356 . S
N802 H808 0.984 . S
N802 H809 0.984 . S
N803 C796 1.356 1_565 S
N803 H806 0.984 . S
N803 H807 0.985 . S
H804 N799 0.984 . S
H805 N799 0.985 1_565 S
H806 N803 0.984 . S
H807 N803 0.985 . S
H808 N802 0.984 . S
H809 N802 0.984 . S
H810 N798 0.984 . S
H811 N798 0.985 . S
C812 C813 1.363 . S
C812 C818 1.379 . S
C812 N820 1.356 . S
C813 C812 1.363 . S
C813 C819 1.363 . S
C814 C815 1.363 . S
C814 C819 1.379 . S
C814 N821 1.356 . S
C815 C814 1.363 . S
C815 C818 1.363 . S
N816 C818 1.356 . S
N816 H828 0.984 . S
N816 H829 0.985 . S
N817 C819 1.356 . S
N817 H822 0.984 . S
N817 H823 0.985 . S
C818 C812 1.379 . S
C818 C815 1.363 . S
C818 N816 1.356 . S
C819 C813 1.363 . S
C819 C814 1.379 . S
C819 N817 1.356 . S
N820 C812 1.356 . S
N820 H826 0.984 . S
N820 H827 0.984 . S
N821 C814 1.356 . S
N821 H824 0.984 . S
N821 H825 0.985 . S
H822 N817 0.984 . S
H823 N817 0.985 . S
H824 N821 0.984 . S
H825 N821 0.985 . S
H826 N820 0.984 . S
H827 N820 0.984 . S
H828 N816 0.984 . S
H829 N816 0.985 . S
C830 C831 1.363 . S
C830 C836 1.379 . S
C830 N838 1.356 . S
C831 C830 1.363 . S
C831 C837 1.363 . S
C832 C833 1.363 . S
C832 C837 1.379 . S
C832 N839 1.356 . S
C833 C832 1.363 . S
C833 C836 1.363 . S
N834 C836 1.356 . S
N834 H846 0.984 . S
N834 H847 0.985 . S
N835 C837 1.356 . S
N835 H840 0.984 . S
N835 H841 0.985 . S
C836 C830 1.379 . S
C836 C833 1.363 . S
C836 N834 1.356 . S
C837 C831 1.363 . S
C837 C832 1.379 . S
C837 N835 1.356 . S
N838 C830 1.356 . S
N838 H844 0.984 . S
N838 H845 0.984 . S
N839 C832 1.356 . S
N839 H842 0.984 . S
N839 H843 0.985 . S
H840 N835 0.984 . S
H841 N835 0.985 . S
H842 N839 0.984 . S
H843 N839 0.985 . S
H844 N838 0.984 . S
H845 N838 0.984 . S
H846 N834 0.984 . S
H847 N834 0.985 . S
C848 C849 1.363 . S
C848 C854 1.379 . S
C848 N856 1.356 . S
C849 C848 1.363 . S
C849 C855 1.363 . S
C850 C851 1.363 . S
C850 C855 1.379 . S
C850 N857 1.356 . S
C851 C850 1.363 . S
C851 C854 1.363 . S
N852 C854 1.356 . S
N852 H864 0.984 . S
N852 H865 0.985 . S
N853 C855 1.356 . S
N853 H858 0.984 . S
N853 H859 0.985 . S
C854 C848 1.379 . S
C854 C851 1.363 . S
C854 N852 1.356 . S
C855 C849 1.363 . S
C855 C850 1.379 . S
C855 N853 1.356 . S
N856 C848 1.356 . S
N856 H862 0.984 . S
N856 H863 0.984 . S
N857 C850 1.356 . S
N857 H860 0.984 . S
N857 H861 0.985 . S
H858 N853 0.984 . S
H859 N853 0.985 . S
H860 N857 0.984 . S
H861 N857 0.985 . S
H862 N856 0.984 . S
H863 N856 0.984 . S
H864 N852 0.984 . S
H865 N852 0.985 . S
C866 C867 1.363 . S
C866 C872 1.379 . S
C866 N874 1.356 . S
C867 C866 1.363 . S
C867 C873 1.363 . S
C868 C869 1.363 1_655 S
C868 C873 1.379 1_655 S
C868 N875 1.356 1_545 S
C869 C868 1.363 1_455 S
C869 C872 1.366 . S
N870 C872 1.356 . S
N870 H882 0.984 . S
N870 H883 0.985 . S
N871 C873 1.356 1_565 S
N871 H876 0.984 . S
N871 H877 0.985 1_455 S
C872 C866 1.379 . S
C872 C869 1.366 . S
C872 N870 1.356 . S
C873 C867 1.363 . S
C873 C868 1.379 1_455 S
C873 N871 1.356 1_545 S
N874 C866 1.356 . S
N874 H880 0.984 . S
N874 H881 0.984 . S
N875 C868 1.356 1_565 S
N875 H878 0.984 . S
N875 H879 0.985 . S
H876 N871 0.984 . S
H877 N871 0.985 1_655 S
H878 N875 0.984 . S
H879 N875 0.985 . S
H880 N874 0.984 . S
H881 N874 0.984 . S
H882 N870 0.984 . S
H883 N870 0.985 . S
C884 C885 1.363 . S
C884 C890 1.379 . S
C884 N892 1.356 . S
C885 C884 1.363 . S
C885 C891 1.363 . S
C886 C887 1.363 . S
C886 C891 1.379 . S
C886 N893 1.356 . S
C887 C886 1.363 . S
C887 C890 1.363 . S
N888 C890 1.356 . S
N888 H900 0.984 . S
N888 H901 0.985 . S
N889 C891 1.356 . S
N889 H894 0.984 . S
N889 H895 0.985 . S
C890 C884 1.379 . S
C890 C887 1.363 . S
C890 N888 1.356 . S
C891 C885 1.363 . S
C891 C886 1.379 . S
C891 N889 1.356 . S
N892 C884 1.356 . S
N892 H898 0.984 . S
N892 H899 0.984 . S
N893 C886 1.356 . S
N893 H896 0.984 . S
N893 H897 0.985 . S
H894 N889 0.984 . S
H895 N889 0.985 . S
H896 N893 0.984 . S
H897 N893 0.985 . S
H898 N892 0.984 . S
H899 N892 0.984 . S
H900 N888 0.984 . S
H901 N888 0.985 . S
C902 C903 1.363 . S
C902 C908 1.379 . S
C902 N910 1.356 . S
C903 C902 1.363 . S
C903 C909 1.363 . S
C904 C905 1.363 . S
C904 C909 1.379 . S
C904 N911 1.356 . S
C905 C904 1.363 . S
C905 C908 1.363 . S
N906 C908 1.356 . S
N906 H918 0.984 . S
N906 H919 0.985 . S
N907 C909 1.372 . S
N907 H912 0.973 1_455 S
N907 H913 0.981 1_455 S
C908 C902 1.379 . S
C908 C905 1.363 . S
C908 N906 1.356 . S
C909 C903 1.363 . S
C909 C904 1.379 . S
C909 N907 1.372 . S
N910 C902 1.356 . S
N910 H916 0.984 . S
N910 H917 0.984 . S
N911 C904 1.356 . S
N911 H914 0.984 . S
N911 H915 0.985 . S
H912 N907 0.973 1_655 S
H913 N907 0.981 1_655 S
H914 N911 0.984 . S
H915 N911 0.985 . S
H916 N910 0.984 . S
H917 N910 0.984 . S
H918 N906 0.984 . S
H919 N906 0.985 . S
C920 C921 1.363 . S
C920 C926 1.379 . S
C920 N928 1.356 . S
C921 C920 1.363 . S
C921 C927 1.363 . S
C922 C923 1.363 . S
C922 C927 1.379 . S
C922 N929 1.356 . S
C923 C922 1.363 . S
C923 C926 1.363 . S
N924 C926 1.356 . S
N924 H936 0.984 . S
N924 H937 0.985 . S
N925 C927 1.356 . S
N925 H930 0.984 . S
N925 H931 0.985 . S
C926 C920 1.379 . S
C926 C923 1.363 . S
C926 N924 1.356 . S
C927 C921 1.363 . S
C927 C922 1.379 . S
C927 N925 1.356 . S
N928 C920 1.356 . S
N928 H934 0.984 . S
N928 H935 0.984 . S
N929 C922 1.356 . S
N929 H932 0.984 . S
N929 H933 0.985 . S
H930 N925 0.984 . S
H931 N925 0.985 . S
H932 N929 0.984 . S
H933 N929 0.985 . S
H934 N928 0.984 . S
H935 N928 0.984 . S
H936 N924 0.984 . S
H937 N924 0.985 . S
C938 C939 1.363 1_455 S
C938 C944 1.379 1_554 S
C938 N946 1.356 . S
C939 C938 1.363 1_655 S
C939 C945 1.363 1_554 S
C940 C941 1.335 1_655 S
C940 C945 1.379 . S
C940 N947 1.356 . S
C941 C940 1.335 1_455 S
C941 C944 1.383 . S
N942 C944 1.356 . S
N942 H954 0.984 . S
N942 H955 0.985 . S
N943 C945 1.356 . S
N943 H948 0.984 1_556 S
N943 H949 0.985 . S
C944 C938 1.379 1_556 S
C944 C941 1.383 . S
C944 N942 1.356 . S
C945 C939 1.363 1_556 S
C945 C940 1.379 . S
C945 N943 1.356 . S
N946 C938 1.356 . S
N946 H952 0.984 . S
N946 H953 0.984 . S
N947 C940 1.356 . S
N947 H950 0.984 . S
N947 H951 0.985 . S
H948 N943 0.984 1_554 S
H949 N943 0.985 . S
H950 N947 0.984 . S
H951 N947 0.985 . S
H952 N946 0.984 . S
H953 N946 0.984 . S
H954 N942 0.984 . S
H955 N942 0.985 . S
C956 C957 1.363 . S
C956 C962 1.379 . S
C956 N964 1.356 . S
C957 C956 1.363 . S
C957 C963 1.363 . S
C958 C959 1.363 . S
C958 C963 1.379 . S
C958 N965 1.356 . S
C959 C958 1.363 . S
C959 C962 1.363 . S
N960 C962 1.356 . S
N960 H972 0.984 . S
N960 H973 0.985 . S
N961 C963 1.356 . S
N961 H966 0.984 . S
N961 H967 0.985 . S
C962 C956 1.379 . S
C962 C959 1.363 . S
C962 N960 1.356 . S
C963 C957 1.363 . S
C963 C958 1.379 . S
C963 N961 1.356 . S
N964 C956 1.356 . S
N964 H970 0.984 . S
N964 H971 0.984 . S
N965 C958 1.356 . S
N965 H968 0.984 . S
N965 H969 0.985 . S
H966 N961 0.984 . S
H967 N961 0.985 . S
H968 N965 0.984 . S
H969 N965 0.985 . S
H970 N964 0.984 . S
H971 N964 0.984 . S
H972 N960 0.984 . S
H973 N960 0.985 . S
C974 C975 1.363 . S
C974 C980 1.379 . S
C974 N982 1.356 . S
C975 C974 1.363 . S
C975 C981 1.363 . S
C976 C977 1.363 . S
C976 C981 1.379 . S
C976 N983 1.356 1_455 S
C977 C976 1.363 . S
C977 C980 1.363 . S
N978 C980 1.356 . S
N978 H990 0.984 . S
N978 H991 0.985 . S
N979 C981 1.356 . S
N979 H984 0.984 1_556 S
N979 H985 0.985 1_455 S
C980 C974 1.379 . S
C980 C977 1.363 . S
C980 N978 1.356 . S
C981 C975 1.363 . S
C981 C976 1.379 . S
C981 N979 1.356 . S
N982 C974 1.356 . S
N982 H988 0.984 . S
N982 H989 0.984 1_556 S
N983 C976 1.356 1_655 S
N983 H986 0.984 . S
N983 H987 0.985 . S
H984 N979 0.984 1_554 S
H985 N979 0.985 1_655 S
H986 N983 0.984 . S
H987 N983 0.985 . S
H988 N982 0.984 . S
H989 N982 0.984 1_554 S
H990 N978 0.984 . S
H991 N978 0.985 . S
C992 C993 1.363 . S
C992 C998 1.379 . S
C992 N1000 1.356 . S
C993 C992 1.363 . S
C993 C999 1.363 . S
C994 C995 1.363 . S
C994 C999 1.379 . S
C994 N1001 1.356 . S
C995 C994 1.363 . S
C995 C998 1.363 . S
N996 C998 1.356 . S
N996 H1008 0.984 . S
N996 H1009 0.985 . S
N997 C999 1.356 . S
N997 H1002 0.984 . S
N997 H1003 0.985 . S
C998 C992 1.379 . S
C998 C995 1.363 . S
C998 N996 1.356 . S
C999 C993 1.363 . S
C999 C994 1.379 . S
C999 N997 1.356 . S
N1000 C992 1.356 . S
N1000 H1006 0.984 . S
N1000 H1007 0.984 . S
N1001 C994 1.356 . S
N1001 H1004 0.984 . S
N1001 H1005 0.985 . S
H1002 N997 0.984 . S
H1003 N997 0.985 . S
H1004 N1001 0.984 . S
H1005 N1001 0.985 . S
H1006 N1000 0.984 . S
H1007 N1000 0.984 . S
H1008 N996 0.984 . S
H1009 N996 0.985 . S
C1010 C1011 1.363 . S
C1010 C1016 1.379 . S
C1010 N1018 1.356 . S
C1011 C1010 1.363 . S
C1011 C1017 1.363 . S
C1012 C1013 1.363 . S
C1012 C1017 1.379 . S
C1012 N1019 1.356 . S
C1013 C1012 1.363 . S
C1013 C1016 1.363 . S
N1014 C1016 1.356 . S
N1014 H1026 0.984 . S
N1014 H1027 0.985 . S
N1015 C1017 1.356 . S
N1015 H1020 0.984 1_554 S
N1015 H1021 0.985 1_554 S
C1016 C1010 1.379 . S
C1016 C1013 1.363 . S
C1016 N1014 1.356 . S
C1017 C1011 1.363 . S
C1017 C1012 1.379 . S
C1017 N1015 1.356 . S
N1018 C1010 1.356 . S
N1018 H1024 0.984 . S
N1018 H1025 0.984 . S
N1019 C1012 1.356 . S
N1019 H1022 0.984 . S
N1019 H1023 0.985 . S
H1020 N1015 0.984 1_556 S
H1021 N1015 0.985 1_556 S
H1022 N1019 0.984 . S
H1023 N1019 0.985 . S
H1024 N1018 0.984 . S
H1025 N1018 0.984 . S
H1026 N1014 0.984 . S
H1027 N1014 0.985 . S
C1028 C1029 1.363 . S
C1028 C1034 1.379 . S
C1028 N1036 1.356 . S
C1029 C1028 1.363 . S
C1029 C1035 1.363 . S
C1030 C1031 1.363 . S
C1030 C1035 1.379 . S
C1030 N1037 1.356 . S
C1031 C1030 1.363 . S
C1031 C1034 1.363 . S
N1032 C1034 1.356 . S
N1032 H1044 0.984 . S
N1032 H1045 0.985 . S
N1033 C1035 1.356 . S
N1033 H1038 0.984 . S
N1033 H1039 0.985 . S
C1034 C1028 1.379 . S
C1034 C1031 1.363 . S
C1034 N1032 1.356 . S
C1035 C1029 1.363 . S
C1035 C1030 1.379 . S
C1035 N1033 1.356 . S
N1036 C1028 1.356 . S
N1036 H1042 0.984 . S
N1036 H1043 0.984 . S
N1037 C1030 1.356 . S
N1037 H1040 0.984 . S
N1037 H1041 0.985 . S
H1038 N1033 0.984 . S
H1039 N1033 0.985 . S
H1040 N1037 0.984 . S
H1041 N1037 0.985 . S
H1042 N1036 0.984 . S
H1043 N1036 0.984 . S
H1044 N1032 0.984 . S
H1045 N1032 0.985 . S
C1046 C1047 1.363 . S
C1046 C1052 1.379 . S
C1046 N1054 1.356 1_554 S
C1047 C1046 1.363 . S
C1047 C1053 1.363 . S
C1048 C1049 1.363 . S
C1048 C1053 1.379 . S
C1048 N1055 1.356 . S
C1049 C1048 1.363 . S
C1049 C1052 1.363 . S
N1050 C1052 1.356 . S
N1050 H1062 0.984 . S
N1050 H1063 0.985 . S
N1051 C1053 1.356 . S
N1051 H1056 0.984 . S
N1051 H1057 0.985 . S
C1052 C1046 1.379 . S
C1052 C1049 1.363 . S
C1052 N1050 1.356 . S
C1053 C1047 1.363 . S
C1053 C1048 1.379 . S
C1053 N1051 1.356 . S
N1054 C1046 1.356 1_556 S
N1054 H1060 0.984 . S
N1054 H1061 0.984 . S
N1055 C1048 1.356 . S
N1055 H1058 0.984 . S
N1055 H1059 0.985 . S
H1056 N1051 0.984 . S
H1057 N1051 0.985 . S
H1058 N1055 0.984 . S
H1059 N1055 0.985 . S
H1060 N1054 0.984 . S
H1061 N1054 0.984 . S
H1062 N1050 0.984 . S
H1063 N1050 0.985 . S
C1064 C1065 1.363 . S
C1064 C1070 1.379 . S
C1064 N1072 1.356 . S
C1065 C1064 1.363 . S
C1065 C1071 1.363 . S
C1066 C1067 1.363 . S
C1066 C1071 1.379 . S
C1066 N1073 1.356 . S
C1067 C1066 1.363 . S
C1067 C1070 1.363 . S
N1068 C1070 1.356 . S
N1068 H1080 0.984 . S
N1068 H1081 0.985 . S
N1069 C1071 1.356 . S
N1069 H1074 0.984 . S
N1069 H1075 0.985 . S
C1070 C1064 1.379 . S
C1070 C1067 1.363 . S
C1070 N1068 1.356 . S
C1071 C1065 1.363 . S
C1071 C1066 1.379 . S
C1071 N1069 1.356 . S
N1072 C1064 1.356 . S
N1072 H1078 0.984 . S
N1072 H1079 0.984 . S
N1073 C1066 1.356 . S
N1073 H1076 0.984 . S
N1073 H1077 0.985 . S
H1074 N1069 0.984 . S
H1075 N1069 0.985 . S
H1076 N1073 0.984 . S
H1077 N1073 0.985 . S
H1078 N1072 0.984 . S
H1079 N1072 0.984 . S
H1080 N1068 0.984 . S
H1081 N1068 0.985 . S
C1082 C1083 1.363 . S
C1082 C1088 1.379 . S
C1082 N1090 1.356 . S
C1083 C1082 1.363 . S
C1083 C1089 1.363 . S
C1084 C1085 1.363 . S
C1084 C1089 1.379 . S
C1084 N1091 1.356 . S
C1085 C1084 1.363 . S
C1085 C1088 1.363 . S
N1086 C1088 1.356 . S
N1086 H1098 0.984 . S
N1086 H1099 0.985 . S
N1087 C1089 1.356 . S
N1087 H1092 0.984 . S
N1087 H1093 0.985 . S
C1088 C1082 1.379 . S
C1088 C1085 1.363 . S
C1088 N1086 1.356 . S
C1089 C1083 1.363 . S
C1089 C1084 1.379 . S
C1089 N1087 1.356 . S
N1090 C1082 1.356 . S
N1090 H1096 0.984 . S
N1090 H1097 0.984 . S
N1091 C1084 1.356 . S
N1091 H1094 0.984 . S
N1091 H1095 0.985 . S
H1092 N1087 0.984 . S
H1093 N1087 0.985 . S
H1094 N1091 0.984 . S
H1095 N1091 0.985 . S
H1096 N1090 0.984 . S
H1097 N1090 0.984 . S
H1098 N1086 0.984 . S
H1099 N1086 0.985 . S
C1100 C1101 1.363 . S
C1100 C1106 1.379 . S
C1100 N1108 1.356 . S
C1101 C1100 1.363 . S
C1101 C1107 1.363 . S
C1102 C1103 1.363 . S
C1102 C1107 1.379 . S
C1102 N1109 1.356 . S
C1103 C1102 1.363 . S
C1103 C1106 1.363 . S
N1104 C1106 1.356 . S
N1104 H1116 0.984 . S
N1104 H1117 0.985 . S
N1105 C1107 1.356 . S
N1105 H1110 0.984 . S
N1105 H1111 0.985 . S
C1106 C1100 1.379 . S
C1106 C1103 1.363 . S
C1106 N1104 1.356 . S
C1107 C1101 1.363 . S
C1107 C1102 1.379 . S
C1107 N1105 1.356 . S
N1108 C1100 1.356 . S
N1108 H1114 0.984 . S
N1108 H1115 0.984 . S
N1109 C1102 1.356 . S
N1109 H1112 0.984 . S
N1109 H1113 0.985 . S
H1110 N1105 0.984 . S
H1111 N1105 0.985 . S
H1112 N1109 0.984 . S
H1113 N1109 0.985 . S
H1114 N1108 0.984 . S
H1115 N1108 0.984 . S
H1116 N1104 0.984 . S
H1117 N1104 0.985 . S
C1118 C1119 1.363 . S
C1118 C1124 1.379 . S
C1118 N1126 1.356 . S
C1119 C1118 1.363 . S
C1119 C1125 1.363 . S
C1120 C1121 1.363 . S
C1120 C1125 1.379 . S
C1120 N1127 1.356 . S
C1121 C1120 1.363 . S
C1121 C1124 1.363 . S
N1122 C1124 1.356 . S
N1122 H1134 0.984 . S
N1122 H1135 0.985 . S
N1123 C1125 1.356 . S
N1123 H1128 0.984 . S
N1123 H1129 0.985 . S
C1124 C1118 1.379 . S
C1124 C1121 1.363 . S
C1124 N1122 1.356 . S
C1125 C1119 1.363 . S
C1125 C1120 1.379 . S
C1125 N1123 1.356 . S
N1126 C1118 1.356 . S
N1126 H1132 0.984 . S
N1126 H1133 0.984 . S
N1127 C1120 1.356 . S
N1127 H1130 0.984 . S
N1127 H1131 0.985 . S
H1128 N1123 0.984 . S
H1129 N1123 0.985 . S
H1130 N1127 0.984 . S
H1131 N1127 0.985 . S
H1132 N1126 0.984 . S
H1133 N1126 0.984 . S
H1134 N1122 0.984 . S
H1135 N1122 0.985 . S
C1136 C1137 1.363 . S
C1136 C1142 1.379 . S
C1136 N1144 1.356 . S
C1137 C1136 1.363 . S
C1137 C1143 1.363 1_556 S
C1138 C1139 1.363 1_554 S
C1138 C1143 1.379 . S
C1138 N1145 1.356 . S
C1139 C1138 1.363 1_556 S
C1139 C1142 1.363 . S
N1140 C1142 1.356 . S
N1140 H1152 0.984 . S
N1140 H1153 0.985 . S
N1141 C1143 1.356 . S
N1141 H1146 0.984 . S
N1141 H1147 0.985 . S
C1142 C1136 1.379 . S
C1142 C1139 1.363 . S
C1142 N1140 1.356 . S
C1143 C1137 1.363 1_554 S
C1143 C1138 1.379 . S
C1143 N1141 1.356 . S
N1144 C1136 1.356 . S
N1144 H1150 0.984 . S
N1144 H1151 0.984 . S
N1145 C1138 1.356 . S
N1145 H1148 0.984 . S
N1145 H1149 0.985 . S
H1146 N1141 0.984 . S
H1147 N1141 0.985 . S
H1148 N1145 0.984 . S
H1149 N1145 0.985 . S
H1150 N1144 0.984 . S
H1151 N1144 0.984 . S
H1152 N1140 0.984 . S
H1153 N1140 0.985 . S
C1154 C1155 1.363 . S
C1154 C1160 1.379 . S
C1154 N1162 1.356 . S
C1155 C1154 1.363 . S
C1155 C1161 1.363 . S
C1156 C1157 1.363 . S
C1156 C1161 1.379 . S
C1156 N1163 1.356 . S
C1157 C1156 1.363 . S
C1157 C1160 1.363 . S
N1158 C1160 1.356 . S
N1158 H1170 0.984 . S
N1158 H1171 0.985 . S
N1159 C1161 1.356 . S
N1159 H1164 0.984 . S
N1159 H1165 0.985 . S
C1160 C1154 1.379 . S
C1160 C1157 1.363 . S
C1160 N1158 1.356 . S
C1161 C1155 1.363 . S
C1161 C1156 1.379 . S
C1161 N1159 1.356 . S
N1162 C1154 1.356 . S
N1162 H1168 0.984 . S
N1162 H1169 0.984 . S
N1163 C1156 1.356 . S
N1163 H1166 0.984 . S
N1163 H1167 0.985 . S
H1164 N1159 0.984 . S
H1165 N1159 0.985 . S
H1166 N1163 0.984 . S
H1167 N1163 0.985 . S
H1168 N1162 0.984 . S
H1169 N1162 0.984 . S
H1170 N1158 0.984 . S
H1171 N1158 0.985 . S
C1172 C1173 1.363 . S
C1172 C1178 1.379 . S
C1172 N1180 1.356 . S
C1173 C1172 1.363 . S
C1173 C1179 1.363 . S
C1174 C1175 1.363 . S
C1174 C1179 1.379 . S
C1174 N1181 1.356 . S
C1175 C1174 1.363 . S
C1175 C1178 1.363 . S
N1176 C1178 1.356 . S
N1176 H1188 0.984 . S
N1176 H1189 0.985 . S
N1177 C1179 1.356 . S
N1177 H1182 0.984 . S
N1177 H1183 0.985 . S
C1178 C1172 1.379 . S
C1178 C1175 1.363 . S
C1178 N1176 1.356 . S
C1179 C1173 1.363 . S
C1179 C1174 1.379 . S
C1179 N1177 1.356 . S
N1180 C1172 1.356 . S
N1180 H1186 0.984 . S
N1180 H1187 0.984 . S
N1181 C1174 1.356 . S
N1181 H1184 0.984 . S
N1181 H1185 0.985 . S
H1182 N1177 0.984 . S
H1183 N1177 0.985 . S
H1184 N1181 0.984 . S
H1185 N1181 0.985 . S
H1186 N1180 0.984 . S
H1187 N1180 0.984 . S
H1188 N1176 0.984 . S
H1189 N1176 0.985 . S
C1190 C1191 1.363 1_545 S
C1190 C1196 1.379 1_545 S
C1190 N1198 1.356 . S
C1191 C1190 1.363 1_565 S
C1191 C1197 1.370 . S
C1192 C1193 1.363 . S
C1192 C1197 1.379 . S
C1192 N1199 1.356 . S
C1193 C1192 1.363 . S
C1193 C1196 1.363 . S
N1194 C1196 1.356 . S
N1194 H1206 0.984 1_565 S
N1194 H1207 0.985 . S
N1195 C1197 1.356 . S
N1195 H1200 0.984 . S
N1195 H1201 0.985 1_554 S
C1196 C1190 1.379 1_565 S
C1196 C1193 1.363 . S
C1196 N1194 1.356 . S
C1197 C1191 1.370 . S
C1197 C1192 1.379 . S
C1197 N1195 1.356 . S
N1198 C1190 1.356 . S
N1198 H1204 0.984 . S
N1198 H1205 0.984 . S
N1199 C1192 1.356 . S
N1199 H1202 0.984 . S
N1199 H1203 0.985 1_554 S
H1200 N1195 0.984 . S
H1201 N1195 0.985 1_556 S
H1202 N1199 0.984 . S
H1203 N1199 0.985 1_556 S
H1204 N1198 0.984 . S
H1205 N1198 0.984 . S
H1206 N1194 0.984 1_545 S
H1207 N1194 0.985 . S
C347 C184 1.579 . S
C345 C60 1.627 . S
C365 C197 1.364 . S
C363 C76 1.368 . S
C381 C81 1.765 . S
C383 C217 1.622 . S
C401 C231 1.414 . S
C399 C48 1.503 . S
C419 C243 1.524 . S
C417 C115 1.529 . S
C437 C257 1.550 . S
C435 C136 1.554 . S
C453 C131 1.371 . S
C455 C267 1.353 . S
C473 C282 1.553 . S
C471 C104 1.546 . S
C489 C126 1.499 . S
C491 C296 1.445 . S
C509 C315 1.287 . S
C507 C103 1.372 . S
C525 C120 1.420 . S
C527 C295 1.404 . S
C545 C313 1.404 . S
C543 C142 1.413 . S
C561 C82 1.645 . S
C563 C329 1.538 . S
C579 C54 1.714 . S
C581 C323 1.706 . S
C597 C65 1.449 . S
C599 C327 1.456 . S
C615 C71 1.346 . S
C617 C324 1.342 . S
C633 C37 1.563 . S
C635 C226 1.546 . S
C651 C158 1.814 . S
C653 C225 1.803 . S
C671 C189 1.345 . S
C669 C169 1.386 . S
C689 C203 1.345 . S
C687 C98 1.460 . S
C705 C49 1.687 1_545 S
C707 C240 1.701 . S
C725 C285 1.469 . S
C723 C125 1.475 . S
C743 C239 1.418 . S
C741 C109 1.420 . S
C761 C271 1.673 . S
C759 C137 1.665 . S
C779 C268 1.579 . S
C777 C159 1.627 . S
C795 C175 1.368 . S
C797 C281 1.364 . S
C813 C92 1.765 . S
C815 C245 1.622 . S
C833 C259 1.413 . S
C831 C147 1.503 . S
C849 C38 1.529 . S
C851 C215 1.524 . S
C869 C229 1.548 1_455 S
C867 C4 1.554 . S
C887 C183 1.353 . S
C885 C21 1.371 . S
C905 C198 1.553 . S
C903 C27 1.546 . S
C921 C16 1.499 . S
C923 C310 1.444 . S
C939 C26 1.372 . S
C941 C301 1.298 . S
C957 C43 1.420 . S
C959 C309 1.404 . S
C975 C10 1.413 1_556 S
C977 C299 1.404 . S
C995 C343 1.538 . S
C993 C93 1.645 . S
C1013 C337 1.706 . S
C1011 C153 1.714 . S
C1031 C341 1.456 . S
C1029 C164 1.449 . S
C1047 C170 1.346 1_554 S
C1049 C338 1.342 . S
C1065 C114 1.563 . S
C1067 C254 1.546 . S
C1085 C253 1.803 . S
C1083 C59 1.814 . S
C1103 C273 1.345 . S
C1101 C70 1.386 . S
C1121 C287 1.345 . S
C1119 C87 1.460 . S
C1137 C148 1.687 . S
C1139 C212 1.701 . S
C1157 C201 1.469 . S
C1155 C15 1.475 . S
C1173 C32 1.420 . S
C1175 C211 1.418 . S
C1193 C187 1.673 . S
C1191 C5 1.658 1_565 S
