# Generated by pormake.
# Topology apo, (3,6)-cn, num edge types: 1
# Building blocks:
#     Node 0, Type 0, BuildingBlock: PAMTOO_clean_linker_0, # of connection points: 3
#     Node 1, Type 0, BuildingBlock: PAMTOO_clean_linker_0, # of connection points: 3
#     Node 2, Type 0, BuildingBlock: PAMTOO_clean_linker_0, # of connection points: 3
#     Node 3, Type 0, BuildingBlock: PAMTOO_clean_linker_0, # of connection points: 3
#     Node 4, Type 0, BuildingBlock: PAMTOO_clean_linker_0, # of connection points: 3
#     Node 5, Type 0, BuildingBlock: PAMTOO_clean_linker_0, # of connection points: 3
#     Node 6, Type 0, BuildingBlock: PAMTOO_clean_linker_0, # of connection points: 3
#     Node 7, Type 0, BuildingBlock: PAMTOO_clean_linker_0, # of connection points: 3
#     Node 8, Type 1, BuildingBlock: KUMBOL_clean_sbu_1, # of connection points: 6
#     Node 9, Type 1, BuildingBlock: KUMBOL_clean_sbu_1, # of connection points: 6
#     Node 10, Type 1, BuildingBlock: KUMBOL_clean_sbu_1, # of connection points: 6
#     Node 11, Type 1, BuildingBlock: KUMBOL_clean_sbu_1, # of connection points: 6
#     Edge 12, Type (0, 1), BuildingBlock: TEMPAE_clean_linker_10, # of connection points: 2
#     Edge 13, Type (0, 1), BuildingBlock: TEMPAE_clean_linker_10, # of connection points: 2
#     Edge 14, Type (0, 1), BuildingBlock: TEMPAE_clean_linker_10, # of connection points: 2
#     Edge 15, Type (0, 1), BuildingBlock: TEMPAE_clean_linker_10, # of connection points: 2
#     Edge 16, Type (0, 1), BuildingBlock: TEMPAE_clean_linker_10, # of connection points: 2
#     Edge 17, Type (0, 1), BuildingBlock: TEMPAE_clean_linker_10, # of connection points: 2
#     Edge 18, Type (0, 1), BuildingBlock: TEMPAE_clean_linker_10, # of connection points: 2
#     Edge 19, Type (0, 1), BuildingBlock: TEMPAE_clean_linker_10, # of connection points: 2
#     Edge 20, Type (0, 1), BuildingBlock: TEMPAE_clean_linker_10, # of connection points: 2
#     Edge 21, Type (0, 1), BuildingBlock: TEMPAE_clean_linker_10, # of connection points: 2
#     Edge 22, Type (0, 1), BuildingBlock: TEMPAE_clean_linker_10, # of connection points: 2
#     Edge 23, Type (0, 1), BuildingBlock: TEMPAE_clean_linker_10, # of connection points: 2
#     Edge 24, Type (0, 1), BuildingBlock: TEMPAE_clean_linker_10, # of connection points: 2
#     Edge 25, Type (0, 1), BuildingBlock: TEMPAE_clean_linker_10, # of connection points: 2
#     Edge 26, Type (0, 1), BuildingBlock: TEMPAE_clean_linker_10, # of connection points: 2
#     Edge 27, Type (0, 1), BuildingBlock: TEMPAE_clean_linker_10, # of connection points: 2
#     Edge 28, Type (0, 1), BuildingBlock: TEMPAE_clean_linker_10, # of connection points: 2
#     Edge 29, Type (0, 1), BuildingBlock: TEMPAE_clean_linker_10, # of connection points: 2
#     Edge 30, Type (0, 1), BuildingBlock: TEMPAE_clean_linker_10, # of connection points: 2
#     Edge 31, Type (0, 1), BuildingBlock: TEMPAE_clean_linker_10, # of connection points: 2
#     Edge 32, Type (0, 1), BuildingBlock: TEMPAE_clean_linker_10, # of connection points: 2
#     Edge 33, Type (0, 1), BuildingBlock: TEMPAE_clean_linker_10, # of connection points: 2
#     Edge 34, Type (0, 1), BuildingBlock: TEMPAE_clean_linker_10, # of connection points: 2
#     Edge 35, Type (0, 1), BuildingBlock: TEMPAE_clean_linker_10, # of connection points: 2
# Relax obj value: 0.040
# Max RMSD: 0.224
# Mean RMSD: 0.161
data_MOF--net-apo--node1-KUMBOL_clean_sbu_1--node2-PAMTOO_clean_linker_0--edge1-TEMPAE_clean_linker_10
_symmetry_space_group_name_H-M    P1
_symmetry_Int_Tables_number       1
_symmetry_cell_setting            triclinic
loop_
_symmetry_equiv_pos_as_xyz
'x, y, z'
_cell_length_a     27.83824
_cell_length_b     43.026694
_cell_length_c     51.756798
_cell_angle_alpha  89.907395
_cell_angle_beta   89.902562
_cell_angle_gamma 90.329229
loop_
_atom_site_label
_atom_site_type_symbol
_atom_site_fract_x
_atom_site_fract_y
_atom_site_fract_z
_atom_type_partial_charge
H0 H 0.36595 0.4357 0.42719 0.0
H1 H 0.30044 0.38732 0.36343 0.0
H2 H 0.28061 0.35336 0.44068 0.0
H3 H 0.29058 0.30352 0.40659 0.0
C4 C 0.2826 0.31472 0.38771 0.0
O5 O 0.26191 0.34339 0.39194 0.0
H6 H 0.31702 0.31788 0.37698 0.0
C7 C 0.3438 0.41684 0.41996 0.0
C8 C 0.32442 0.39494 0.43736 0.0
C9 C 0.33516 0.41455 0.39326 0.0
C10 C 0.30694 0.3898 0.38396 0.0
C11 C 0.28778 0.36768 0.40108 0.0
C12 C 0.29607 0.37047 0.42767 0.0
H13 H 0.17427 0.07484 0.92713 0.0
H14 H 0.2458 0.16252 0.93858 0.0
H15 H 0.22794 0.12716 0.86192 0.0
H16 H 0.32606 0.1478 0.87611 0.0
C17 C 0.31623 0.16927 0.88684 0.0
O18 O 0.26697 0.17085 0.88971 0.0
H19 H 0.33332 0.16796 0.90623 0.0
C20 C 0.19127 0.0954 0.91912 0.0
C21 C 0.19741 0.09806 0.89218 0.0
C22 C 0.2071 0.11878 0.93609 0.0
C23 C 0.23279 0.14427 0.92596 0.0
C24 C 0.24125 0.14664 0.8993 0.0
C25 C 0.2227 0.12405 0.88249 0.0
H26 H 0.86393 0.08909 0.58762 0.0
H27 H 0.79707 0.12851 0.6551 0.0
H28 H 0.78362 0.17437 0.58205 0.0
H29 H 0.79522 0.21797 0.62322 0.0
C30 C 0.78313 0.20373 0.63998 0.0
O31 O 0.76187 0.17667 0.63112 0.0
H32 H 0.81505 0.19784 0.65194 0.0
C33 C 0.843 0.10734 0.59654 0.0
C34 C 0.82488 0.13177 0.58127 0.0
C35 C 0.83263 0.10574 0.62316 0.0
C36 C 0.80487 0.12917 0.63458 0.0
C37 C 0.78768 0.1539 0.61977 0.0
C38 C 0.79717 0.15499 0.59321 0.0
H39 H 0.64332 0.41274 0.09627 0.0
H40 H 0.73085 0.33083 0.08716 0.0
H41 H 0.7304 0.37968 0.15904 0.0
H42 H 0.82407 0.35705 0.13815 0.0
C43 C 0.81202 0.33325 0.13259 0.0
O44 O 0.76264 0.33122 0.13445 0.0
H45 H 0.82323 0.32887 0.11229 0.0
C46 C 0.66876 0.39607 0.1038 0.0
C47 C 0.68553 0.39954 0.12926 0.0
C48 C 0.68488 0.37148 0.08807 0.0
C49 C 0.71727 0.34986 0.09867 0.0
C50 C 0.73323 0.35282 0.12418 0.0
C51 C 0.71774 0.37769 0.13931 0.0
H52 H 0.65967 0.58109 0.58736 0.0
H53 H 0.75479 0.65868 0.57629 0.0
H54 H 0.74287 0.61795 0.65119 0.0
H55 H 0.7273 0.68701 0.64634 0.0
C56 C 0.75836 0.69169 0.63327 0.0
O57 O 0.77804 0.66401 0.62506 0.0
H58 H 0.74444 0.70475 0.61631 0.0
C59 C 0.6856 0.59713 0.59541 0.0
C60 C 0.69833 0.59557 0.62187 0.0
C61 C 0.70694 0.61902 0.57867 0.0
C62 C 0.73897 0.64114 0.58877 0.0
C63 C 0.74997 0.6412 0.61511 0.0
C64 C 0.73114 0.61803 0.63131 0.0
H65 H 0.86484 0.93672 0.0929 0.0
H66 H 0.81063 0.8857 0.15878 0.0
H67 H 0.78987 0.84997 0.08246 0.0
H68 H 0.70402 0.84572 0.11597 0.0
C69 C 0.72189 0.84377 0.13512 0.0
O70 O 0.77096 0.84173 0.13164 0.0
H71 H 0.71307 0.8651 0.14629 0.0
C72 C 0.8464 0.9168 0.10111 0.0
C73 C 0.8292 0.89347 0.08443 0.0
C74 C 0.84044 0.9145 0.12812 0.0
C75 C 0.81553 0.88854 0.13815 0.0
C76 C 0.79672 0.86572 0.12169 0.0
C77 C 0.80424 0.86792 0.09496 0.0
H78 H 0.16562 0.92172 0.42846 0.0
H79 H 0.25208 0.83934 0.4367 0.0
H80 H 0.24365 0.8852 0.36347 0.0
H81 H 0.22486 0.81551 0.36732 0.0
C82 C 0.25679 0.80995 0.3794 0.0
O83 O 0.2774 0.8372 0.38826 0.0
H84 H 0.24477 0.79566 0.39615 0.0
C85 C 0.1899 0.90465 0.42046 0.0
C86 C 0.20353 0.90698 0.39431 0.0
C87 C 0.20697 0.88031 0.43615 0.0
C88 C 0.23798 0.85821 0.42516 0.0
C89 C 0.25047 0.85983 0.39898 0.0
C90 C 0.23382 0.88432 0.38373 0.0
H91 H 0.37878 0.59349 0.91977 0.0
H92 H 0.3015 0.63614 0.85711 0.0
H93 H 0.29627 0.67655 0.93268 0.0
H94 H 0.20606 0.68349 0.90665 0.0
C95 C 0.21753 0.67942 0.88636 0.0
O96 O 0.267 0.68152 0.88483 0.0
H97 H 0.20563 0.6557 0.88048 0.0
C98 C 0.35651 0.61213 0.91248 0.0
C99 C 0.33943 0.63499 0.92956 0.0
C100 C 0.34279 0.61217 0.88632 0.0
C101 C 0.31235 0.63568 0.8772 0.0
C102 C 0.29593 0.65887 0.89389 0.0
C103 C 0.30948 0.65855 0.91995 0.0
C104 C 0.89079 0.07498 0.27392 0.0
C105 C 0.90882 0.02602 0.29478 0.0
C106 C 0.91998 0.05749 0.28987 0.0
C107 C 0.86943 0.01211 0.28227 0.0
C108 C 0.85006 0.06157 0.26217 0.0
C109 C 0.84002 0.02988 0.26607 0.0
N110 N 0.90197 0.1054 0.27022 0.0
C111 C 0.87181 0.12447 0.25685 0.0
C112 C 0.82035 0.08055 0.24717 0.0
C113 C 0.83093 0.11225 0.2448 0.0
Gd114 Gd 0.0813 0.12656 0.23639 0.0
Gd115 Gd 0.97311 0.12357 0.28937 0.0
N116 N 0.95756 0.07175 0.30177 0.0
C117 C 0.93644 0.00985 0.31286 0.0
C118 C 0.98169 0.0569 0.32107 0.0
C119 C 0.9723 0.0256 0.32649 0.0
H120 H 0.0079 0.06921 0.33257 0.0
H121 H 0.99217 0.01382 0.34147 0.0
H122 H 0.07392 0.19834 0.21367 0.0
H123 H 0.88019 0.14892 0.25495 0.0
H124 H 0.12189 0.24707 0.21387 0.0
H125 H 0.92902 0.98567 0.31724 0.0
H126 H 0.8606 0.98787 0.28558 0.0
H127 H 0.15731 0.07013 0.25676 0.0
H128 H 0.78879 0.07111 0.23774 0.0
H129 H 0.80771 0.12722 0.23364 0.0
H130 H 0.26464 0.22008 0.2604 0.0
H131 H 0.80899 0.01909 0.25714 0.0
H132 H 0.2833 0.11411 0.28665 0.0
H133 H 0.23525 0.06657 0.27872 0.0
N134 N 0.15726 0.1197 0.25569 0.0
C135 C 0.18438 0.14586 0.25845 0.0
C136 C 0.17618 0.09131 0.26158 0.0
C137 C 0.24809 0.11596 0.27791 0.0
C138 C 0.22107 0.08909 0.2735 0.0
C139 C 0.23056 0.14469 0.2696 0.0
H140 H 0.29419 0.1714 0.27946 0.0
N141 N 0.12371 0.17361 0.23681 0.0
C142 C 0.16749 0.17352 0.24825 0.0
C143 C 0.17921 0.22742 0.23646 0.0
C144 C 0.19633 0.20055 0.24858 0.0
C145 C 0.10787 0.19916 0.22373 0.0
C146 C 0.13498 0.22662 0.22374 0.0
O147 O 0.96469 0.10634 0.2481 0.0
O148 O 0.03587 0.08314 0.23843 0.0
O149 O 0.0656 0.12985 0.19541 0.0
O150 O 0.13413 0.11225 0.20788 0.0
O151 O 0.04537 0.10358 0.30067 0.0
O152 O 0.07541 0.0841 0.26242 0.0
O153 O 0.06845 0.16629 0.26427 0.0
O154 O 0.04537 0.14247 0.30179 0.0
O155 O 0.93814 0.12194 0.32739 0.0
O156 O 0.93859 0.16479 0.30457 0.0
O157 O 0.01258 0.15101 0.22515 0.0
O158 O 0.97279 0.16558 0.2629 0.0
C159 C 0.98881 0.08316 0.23819 0.0
C160 C 0.07118 0.08326 0.28778 0.0
C161 C 0.1042 0.09427 0.16801 0.0
C162 C 0.11824 0.07963 0.123 0.0
C163 C 0.08387 0.04238 0.15351 0.0
C164 C 0.0859 0.0645 0.17318 0.0
C165 C 0.09963 0.04984 0.12858 0.0
C166 C 0.12042 0.10172 0.14304 0.0
C167 C 0.10638 0.118 0.18831 0.0
C168 C 0.24178 0.19963 0.2602 0.0
C169 C 0.25866 0.17186 0.27095 0.0
H170 H 0.20028 0.24868 0.23636 0.0
C171 C 0.06986 0.1641 0.28952 0.0
C172 C 0.98202 0.16867 0.23796 0.0
C173 C 0.89807 0.16716 0.34617 0.0
C174 C 0.87349 0.17344 0.39134 0.0
C175 C 0.84769 0.21051 0.35869 0.0
C176 C 0.87266 0.19419 0.33976 0.0
C177 C 0.84817 0.20034 0.38427 0.0
C178 C 0.89794 0.1566 0.37201 0.0
C179 C 0.92559 0.15094 0.32585 0.0
H180 H 0.06997 0.01937 0.15758 0.0
H181 H 0.07328 0.0584 0.19234 0.0
H182 H 0.09665 0.03236 0.11363 0.0
H183 H 0.13515 0.12468 0.13936 0.0
H184 H 0.82804 0.23125 0.35353 0.0
H185 H 0.87203 0.20273 0.32006 0.0
H186 H 0.82836 0.21347 0.39856 0.0
H187 H 0.91793 0.13598 0.37721 0.0
C188 C 0.66237 0.41414 0.76775 0.0
C189 C 0.66535 0.47025 0.77233 0.0
C190 C 0.64121 0.44163 0.77554 0.0
C191 C 0.71059 0.47089 0.76028 0.0
C192 C 0.70876 0.41451 0.75676 0.0
C193 C 0.7323 0.44307 0.75256 0.0
N194 N 0.63859 0.38696 0.77208 0.0
C195 C 0.66127 0.35926 0.76842 0.0
C196 C 0.7305 0.38613 0.75088 0.0
C197 C 0.70697 0.35837 0.75718 0.0
Gd198 Gd 0.45746 0.38306 0.73251 0.0
Gd199 Gd 0.55986 0.39118 0.78842 0.0
N200 N 0.59707 0.44028 0.78668 0.0
C201 C 0.64355 0.49726 0.78171 0.0
C202 C 0.57711 0.46612 0.79753 0.0
C203 C 0.59961 0.4951 0.79475 0.0
H204 H 0.54303 0.46438 0.80748 0.0
H205 H 0.58302 0.51573 0.80261 0.0
H206 H 0.50319 0.32337 0.69716 0.0
H207 H 0.6443 0.33774 0.77426 0.0
H208 H 0.48933 0.26728 0.69222 0.0
H209 H 0.66085 0.51973 0.77952 0.0
H210 H 0.72947 0.4927 0.75729 0.0
H211 H 0.36114 0.41097 0.76204 0.0
H212 H 0.76603 0.38539 0.74233 0.0
H213 H 0.72421 0.33629 0.75365 0.0
H214 H 0.34354 0.24799 0.73923 0.0
H215 H 0.76766 0.44385 0.7438 0.0
H216 H 0.26357 0.33547 0.77675 0.0
H217 H 0.28379 0.39146 0.77973 0.0
N218 N 0.38403 0.36638 0.74977 0.0
C219 C 0.37277 0.33584 0.74685 0.0
C220 C 0.3523 0.38653 0.76071 0.0
C221 C 0.29727 0.34394 0.76887 0.0
C222 C 0.30861 0.37557 0.77065 0.0
C223 C 0.32938 0.32366 0.75674 0.0
H224 H 0.28648 0.28194 0.76188 0.0
N225 N 0.44561 0.32971 0.72381 0.0
C226 C 0.40502 0.31682 0.73402 0.0
C227 C 0.42616 0.2668 0.7163 0.0
C228 C 0.39445 0.28496 0.73076 0.0
C229 C 0.47427 0.31261 0.70784 0.0
C230 C 0.46577 0.28082 0.70441 0.0
O231 O 0.54813 0.42908 0.75867 0.0
O232 O 0.52837 0.4048 0.72084 0.0
O233 O 0.42907 0.37701 0.69361 0.0
O234 O 0.41727 0.41993 0.71408 0.0
O235 O 0.48665 0.41158 0.79655 0.0
O236 O 0.45427 0.42671 0.75708 0.0
O237 O 0.44491 0.3661 0.77357 0.0
O238 O 0.51757 0.34641 0.78536 0.0
O239 O 0.54102 0.39757 0.82875 0.0
O240 O 0.60912 0.37726 0.81888 0.0
O241 O 0.53207 0.36502 0.72347 0.0
O242 O 0.56091 0.34823 0.76295 0.0
C243 C 0.55223 0.42618 0.73361 0.0
C244 C 0.4602 0.43023 0.78225 0.0
C245 C 0.42825 0.42305 0.66872 0.0
C246 C 0.42734 0.42943 0.62174 0.0
C247 C 0.47158 0.46594 0.64866 0.0
C248 C 0.45744 0.44966 0.67071 0.0
C249 C 0.45681 0.45592 0.62432 0.0
C250 C 0.41307 0.4131 0.64414 0.0
C251 C 0.41388 0.40547 0.69206 0.0
C252 C 0.35201 0.27246 0.74135 0.0
C253 C 0.31945 0.2918 0.7542 0.0
H254 H 0.41938 0.24223 0.71339 0.0
C255 C 0.47048 0.34492 0.78543 0.0
C256 C 0.56071 0.34749 0.73749 0.0
C257 C 0.57215 0.36076 0.85759 0.0
C258 C 0.57708 0.34499 0.90277 0.0
C259 C 0.53896 0.31112 0.87126 0.0
C260 C 0.54867 0.33273 0.85178 0.0
C261 C 0.55262 0.3173 0.89671 0.0
C262 C 0.58691 0.36667 0.88305 0.0
C263 C 0.57968 0.38439 0.83743 0.0
H264 H 0.49378 0.48654 0.65044 0.0
H265 H 0.46908 0.45796 0.68934 0.0
H266 H 0.46774 0.46926 0.60752 0.0
H267 H 0.39067 0.39251 0.64248 0.0
H268 H 0.52083 0.28955 0.8666 0.0
H269 H 0.53773 0.32769 0.83223 0.0
H270 H 0.54482 0.30027 0.9116 0.0
H271 H 0.60517 0.3883 0.88762 0.0
C272 C 0.84237 0.86767 0.76377 0.0
C273 C 0.83711 0.81143 0.76706 0.0
C274 C 0.86321 0.83936 0.77019 0.0
C275 C 0.79008 0.81232 0.75733 0.0
C276 C 0.79524 0.8686 0.75387 0.0
C277 C 0.76925 0.8408 0.75071 0.0
N278 N 0.8687 0.89418 0.76648 0.0
C279 C 0.84979 0.92242 0.76032 0.0
C280 C 0.77581 0.89745 0.74717 0.0
C281 C 0.80317 0.92447 0.75048 0.0
Gd282 Gd 0.05998 0.88852 0.73341 0.0
Gd283 Gd 0.94683 0.88811 0.78228 0.0
N284 N 0.90951 0.83911 0.7787 0.0
C285 C 0.85917 0.78339 0.77369 0.0
C286 C 0.93032 0.81196 0.78628 0.0
C287 C 0.9058 0.78371 0.78354 0.0
H288 H 0.9654 0.81184 0.79485 0.0
H289 H 0.92275 0.7622 0.78928 0.0
H290 H 0.03606 0.96186 0.71308 0.0
H291 H 0.8704 0.94345 0.76328 0.0
H292 H 0.06978 0.01432 0.71827 0.0
H293 H 0.84031 0.76145 0.77163 0.0
H294 H 0.76955 0.79108 0.75474 0.0
H295 H 0.14194 0.83964 0.75675 0.0
H296 H 0.73975 0.89913 0.73947 0.0
H297 H 0.78833 0.94689 0.74551 0.0
H298 H 0.21913 0.99765 0.76201 0.0
H299 H 0.73304 0.84105 0.74307 0.0
H300 H 0.26156 0.89314 0.78407 0.0
H301 H 0.22135 0.84223 0.77792 0.0
N302 N 0.13658 0.88847 0.75202 0.0
C303 C 0.15858 0.9166 0.7545 0.0
C304 C 0.1588 0.86193 0.75984 0.0
C305 C 0.2266 0.89211 0.77493 0.0
C306 C 0.20397 0.86333 0.77156 0.0
C307 C 0.20406 0.9192 0.76626 0.0
H308 H 0.26036 0.95111 0.77808 0.0
N309 N 0.09029 0.93976 0.73519 0.0
C310 C 0.13476 0.94298 0.74587 0.0
C311 C 0.13205 0.99852 0.73902 0.0
C312 C 0.15645 0.97253 0.74843 0.0
C313 C 0.06817 0.96474 0.72428 0.0
C314 C 0.08806 0.99452 0.72654 0.0
O315 O 0.93636 0.86773 0.74234 0.0
O316 O 0.00938 0.84737 0.73049 0.0
O317 O 0.06644 0.90017 0.69273 0.0
O318 O 0.11003 0.86361 0.70875 0.0
O319 O 0.0137 0.86111 0.79358 0.0
O320 O 0.05049 0.84417 0.75597 0.0
O321 O 0.06834 0.90625 0.77457 0.0
O322 O 0.99655 0.92957 0.78349 0.0
O323 O 0.94979 0.87689 0.82322 0.0
O324 O 0.89744 0.90971 0.80924 0.0
O325 O 0.99085 0.9122 0.72114 0.0
O326 O 0.95791 0.93171 0.75873 0.0
C327 C 0.96223 0.84756 0.72949 0.0
C328 C 0.04267 0.84215 0.78103 0.0
C329 C 0.08444 0.85841 0.66543 0.0
C330 C 0.08765 0.8491 0.61894 0.0
C331 C 0.03859 0.81597 0.64662 0.0
C332 C 0.053 0.83303 0.66819 0.0
C333 C 0.05554 0.82402 0.6221 0.0
C334 C 0.10209 0.86621 0.64079 0.0
C335 C 0.09661 0.87794 0.68783 0.0
C336 C 0.20182 0.97518 0.76007 0.0
C337 C 0.22544 0.94863 0.76908 0.0
H338 H 0.14741 0.02162 0.74071 0.0
C339 C 0.04342 0.92838 0.78554 0.0
C340 C 0.96307 0.93203 0.73344 0.0
C341 C 0.92709 0.9171 0.85146 0.0
C342 C 0.9237 0.9275 0.89788 0.0
C343 C 0.96104 0.96478 0.86853 0.0
C344 C 0.95108 0.94547 0.84759 0.0
C345 C 0.94773 0.9559 0.89351 0.0
C346 C 0.91333 0.9082 0.87659 0.0
C347 C 0.91639 0.89662 0.82945 0.0
H348 H 0.01411 0.79651 0.64893 0.0
H349 H 0.03942 0.82657 0.68698 0.0
H350 H 0.04408 0.8104 0.60561 0.0
H351 H 0.12614 0.88595 0.63855 0.0
H352 H 0.97875 0.98685 0.86534 0.0
H353 H 0.96179 0.9528 0.8284 0.0
H354 H 0.9555 0.97153 0.90937 0.0
H355 H 0.89506 0.88616 0.87957 0.0
C356 C 0.66082 0.67523 0.27406 0.0
C357 C 0.63953 0.7241 0.29404 0.0
C358 C 0.62903 0.6927 0.28854 0.0
C359 C 0.68126 0.7379 0.28372 0.0
C360 C 0.70389 0.68847 0.26472 0.0
C361 C 0.71349 0.72008 0.26919 0.0
N362 N 0.64996 0.64495 0.26952 0.0
C363 C 0.68205 0.62585 0.2576 0.0
C364 C 0.7362 0.6694 0.25144 0.0
C365 C 0.72549 0.63786 0.24815 0.0
Gd366 Gd 0.47159 0.62222 0.23059 0.0
Gd367 Gd 0.57642 0.62656 0.28547 0.0
N368 N 0.58938 0.67848 0.29852 0.0
C369 C 0.60869 0.74036 0.31049 0.0
C370 C 0.56183 0.69344 0.31642 0.0
C371 C 0.57019 0.72477 0.32213 0.0
H372 H 0.53366 0.68127 0.32668 0.0
H373 H 0.54738 0.73672 0.3358 0.0
H374 H 0.4876 0.55197 0.2055 0.0
H375 H 0.67353 0.60151 0.255 0.0
H376 H 0.44874 0.49999 0.20687 0.0
H377 H 0.61542 0.76453 0.31517 0.0
H378 H 0.68964 0.7621 0.28748 0.0
H379 H 0.38789 0.67233 0.25297 0.0
H380 H 0.7697 0.6787 0.24395 0.0
H381 H 0.75053 0.62285 0.23824 0.0
H382 H 0.30909 0.51518 0.26007 0.0
H383 H 0.74613 0.7308 0.26192 0.0
H384 H 0.27388 0.61919 0.2869 0.0
H385 H 0.31207 0.67002 0.27746 0.0
N386 N 0.39614 0.62322 0.25142 0.0
C387 C 0.37382 0.59527 0.25459 0.0
C388 C 0.37312 0.64995 0.25818 0.0
C389 C 0.30797 0.62002 0.27679 0.0
C390 C 0.32947 0.64876 0.27157 0.0
C391 C 0.3294 0.59285 0.2676 0.0
H392 H 0.2731 0.56127 0.2803 0.0
N393 N 0.4363 0.57257 0.23048 0.0
C394 C 0.39401 0.56923 0.24334 0.0
C395 C 0.39107 0.51489 0.23174 0.0
C396 C 0.37064 0.54015 0.24472 0.0
C397 C 0.45514 0.54853 0.21665 0.0
C398 C 0.43317 0.51922 0.21736 0.0
O399 O 0.58964 0.64532 0.24506 0.0
O400 O 0.51726 0.66574 0.233 0.0
O401 O 0.48143 0.6179 0.18889 0.0
O402 O 0.41937 0.64136 0.20401 0.0
O403 O 0.50262 0.64549 0.29502 0.0
O404 O 0.47396 0.66481 0.25639 0.0
O405 O 0.48571 0.58256 0.25859 0.0
O406 O 0.50386 0.60708 0.29634 0.0
O407 O 0.60768 0.62743 0.3244 0.0
O408 O 0.60999 0.5852 0.30089 0.0
O409 O 0.54388 0.60252 0.21959 0.0
O410 O 0.5792 0.58554 0.25786 0.0
C411 C 0.56442 0.66683 0.23337 0.0
C412 C 0.47688 0.66555 0.28178 0.0
C413 C 0.40897 0.6134 0.16531 0.0
C414 C 0.38276 0.60254 0.12107 0.0
C415 C 0.34321 0.57734 0.15759 0.0
C416 C 0.3734 0.59302 0.17464 0.0
C417 C 0.34764 0.58208 0.13104 0.0
C418 C 0.41361 0.61809 0.13849 0.0
C419 C 0.44024 0.63044 0.18349 0.0
C420 C 0.32746 0.53737 0.25861 0.0
C421 C 0.30699 0.56364 0.27013 0.0
H422 H 0.37424 0.49214 0.23237 0.0
C423 C 0.48311 0.58425 0.28383 0.0
C424 C 0.57147 0.58329 0.2327 0.0
C425 C 0.64722 0.58192 0.34318 0.0
C426 C 0.67017 0.57519 0.38857 0.0
C427 C 0.70082 0.54019 0.35553 0.0
C428 C 0.67519 0.55607 0.33662 0.0
C429 C 0.69857 0.54967 0.38123 0.0
C430 C 0.64484 0.5915 0.36922 0.0
C431 C 0.62107 0.5986 0.32262 0.0
H432 H 0.31574 0.56179 0.165 0.0
H433 H 0.36835 0.58958 0.19513 0.0
H434 H 0.32266 0.57024 0.11835 0.0
H435 H 0.44106 0.63383 0.13127 0.0
H436 H 0.72275 0.52051 0.35022 0.0
H437 H 0.67775 0.54831 0.31676 0.0
H438 H 0.71964 0.53712 0.39534 0.0
H439 H 0.62262 0.61112 0.3744 0.0
C440 C 0.13637 0.94016 0.37814 0.0
C441 C 0.18529 0.93267 0.37791 0.0
C442 C 0.11856 0.96438 0.36276 0.0
C443 C 0.15053 0.98174 0.34697 0.0
C444 C 0.19998 0.97423 0.34661 0.0
C445 C 0.21673 0.94966 0.362 0.0
C446 C 0.06552 0.97136 0.36342 0.0
C447 C 0.23525 0.99241 0.33024 0.0
C448 C 0.09799 0.02816 0.29126 0.0
C449 C 0.09407 0.05776 0.30226 0.0
C450 C 0.11656 1.00319 0.30552 0.0
C451 C 0.13226 0.00815 0.33122 0.0
C452 C 0.12952 0.03826 0.34213 0.0
C453 C 0.11016 0.06267 0.32755 0.0
C454 C 0.11834 0.97138 0.29331 0.0
C455 C 0.1464 0.0446 0.36933 0.0
H456 H 0.11187 0.92678 0.39014 0.0
H457 H 0.25465 0.94405 0.36193 0.0
H458 H 0.05981 0.99558 0.37002 0.0
H459 H 0.05031 0.96936 0.34369 0.0
H460 H 0.04537 0.95542 0.37647 0.0
H461 H 0.27246 0.98345 0.33196 0.0
H462 H 0.22438 0.99148 0.30964 0.0
H463 H 0.23511 0.01722 0.33607 0.0
H464 H 0.08519 0.02432 0.27174 0.0
H465 H 0.10739 0.08565 0.33598 0.0
H466 H 0.09566 0.95492 0.30456 0.0
H467 H 0.15559 0.96239 0.29371 0.0
H468 H 0.10558 0.97156 0.27298 0.0
H469 H 0.12449 0.0309 0.38324 0.0
H470 H 0.14382 0.06958 0.37451 0.0
H471 H 0.18426 0.03715 0.37161 0.0
C472 C 0.40738 0.57867 0.86765 0.0
C473 C 0.35883 0.58699 0.8688 0.0
C474 C 0.42273 0.55414 0.85184 0.0
C475 C 0.38854 0.53717 0.83722 0.0
C476 C 0.33953 0.54575 0.83808 0.0
C477 C 0.32532 0.57072 0.85372 0.0
C478 C 0.47543 0.54604 0.85112 0.0
C479 C 0.30189 0.52791 0.82315 0.0
C480 C 0.43377 0.48564 0.7827 0.0
C481 C 0.43779 0.45695 0.79531 0.0
C482 C 0.41739 0.51201 0.796 0.0
C483 C 0.40375 0.50932 0.82231 0.0
C484 C 0.40612 0.48006 0.83478 0.0
C485 C 0.42366 0.45432 0.82121 0.0
C486 C 0.4163 0.54293 0.7822 0.0
C487 C 0.39103 0.47603 0.86264 0.0
H488 H 0.43338 0.59142 0.87913 0.0
H489 H 0.28769 0.57696 0.85477 0.0
H490 H 0.48082 0.52256 0.85949 0.0
H491 H 0.48841 0.54533 0.83085 0.0
H492 H 0.49781 0.56291 0.86208 0.0
H493 H 0.26564 0.53833 0.82503 0.0
H494 H 0.31163 0.52704 0.80238 0.0
H495 H 0.30021 0.50357 0.83025 0.0
H496 H 0.44533 0.48776 0.76275 0.0
H497 H 0.42657 0.43208 0.83095 0.0
H498 H 0.44153 0.55936 0.7917 0.0
H499 H 0.37992 0.55318 0.78348 0.0
H500 H 0.42645 0.54089 0.7615 0.0
H501 H 0.41509 0.48983 0.87533 0.0
H502 H 0.39217 0.45135 0.86896 0.0
H503 H 0.35402 0.48485 0.86548 0.0
C504 C 0.65981 0.54252 0.62904 0.0
C505 C 0.67801 0.57053 0.63932 0.0
C506 C 0.63897 0.51957 0.64488 0.0
C507 C 0.63962 0.52322 0.67204 0.0
C508 C 0.65989 0.55047 0.68281 0.0
C509 C 0.67697 0.57418 0.6664 0.0
C510 C 0.61622 0.49142 0.63231 0.0
C511 C 0.6636 0.55479 0.71171 0.0
C512 C 0.55058 0.47888 0.71427 0.0
C513 C 0.57532 0.45128 0.71885 0.0
C514 C 0.57057 0.50221 0.69854 0.0
C515 C 0.61805 0.49881 0.68903 0.0
C516 C 0.64427 0.47161 0.69513 0.0
C517 C 0.62187 0.44765 0.70923 0.0
C518 C 0.5403 0.53001 0.69167 0.0
C519 C 0.69617 0.46811 0.68726 0.0
H520 H 0.66165 0.53803 0.60853 0.0
H521 H 0.68926 0.59556 0.67517 0.0
H522 H 0.64099 0.47141 0.63366 0.0
H523 H 0.58227 0.4848 0.64218 0.0
H524 H 0.60838 0.49554 0.61155 0.0
H525 H 0.69069 0.57281 0.71682 0.0
H526 H 0.62843 0.56228 0.7195 0.0
H527 H 0.67342 0.53273 0.72147 0.0
H528 H 0.51487 0.48174 0.72229 0.0
H529 H 0.64096 0.42627 0.7131 0.0
H530 H 0.54368 0.53561 0.67079 0.0
H531 H 0.55276 0.55055 0.70272 0.0
H532 H 0.50171 0.52607 0.69622 0.0
H533 H 0.69967 0.46888 0.66594 0.0
H534 H 0.71187 0.44599 0.69432 0.0
H535 H 0.71754 0.4878 0.69511 0.0
C536 C 0.90329 0.95472 0.13928 0.0
C537 C 0.86043 0.93904 0.14566 0.0
C538 C 0.92186 0.97841 0.15504 0.0
C539 C 0.89828 0.98593 0.17844 0.0
C540 C 0.85577 0.96978 0.18543 0.0
C541 C 0.83691 0.94697 0.16879 0.0
C542 C 0.96716 0.99513 0.14672 0.0
C543 C 0.83023 0.97654 0.21053 0.0
C544 C 0.97796 0.02734 0.22719 0.0
C545 C 0.96344 0.05822 0.22424 0.0
C546 C 0.95532 1.00334 0.21338 0.0
C547 C 0.91853 0.01062 0.19551 0.0
C548 C 0.90333 0.04185 0.19282 0.0
C549 C 0.92557 0.06525 0.20753 0.0
C550 C 0.97128 0.97026 0.21766 0.0
C551 C 0.86511 0.05077 0.17358 0.0
H552 H 0.92286 0.94838 0.12199 0.0
H553 H 0.80343 0.93558 0.1739 0.0
H554 H 0.96265 0.02068 0.14826 0.0
H555 H 0.997 0.98843 0.1597 0.0
H556 H 0.97762 0.98941 0.12656 0.0
H557 H 0.79974 0.96033 0.21412 0.0
H558 H 0.85575 0.97487 0.22692 0.0
H559 H 0.81624 1.00061 0.21026 0.0
H560 H 0.00686 0.02197 0.24046 0.0
H561 H 0.91453 0.08923 0.20528 0.0
H562 H 0.98953 0.96153 0.20007 0.0
H563 H 0.93969 0.955 0.22127 0.0
H564 H 0.99641 0.96819 0.23422 0.0
H565 H 0.87778 0.04545 0.15374 0.0
H566 H 0.85602 0.07585 0.17462 0.0
H567 H 0.83193 0.03696 0.17694 0.0
C568 C 0.81851 0.06253 0.65472 0.0
C569 C 0.85044 0.07962 0.63918 0.0
C570 C 0.83482 0.03809 0.67038 0.0
C571 C 0.88442 0.031 0.67091 0.0
C572 C 0.91688 0.04836 0.65536 0.0
C573 C 0.89939 0.07225 0.63945 0.0
C574 C 0.79896 0.01971 0.68623 0.0
C575 C 0.97013 0.04189 0.65574 0.0
C576 C 0.93356 0.98649 0.72866 0.0
C577 C 0.93984 0.95679 0.71818 0.0
C578 C 0.91551 0.0109 0.71352 0.0
C579 C 0.90236 0.00521 0.6875 0.0
C580 C 0.90722 0.97495 0.67714 0.0
C581 C 0.92648 0.9512 0.69252 0.0
C582 C 0.91179 0.04296 0.72513 0.0
C583 C 0.89258 0.96771 0.64971 0.0
H584 H 0.78058 0.0681 0.65438 0.0
H585 H 0.92414 0.08566 0.62761 0.0
H586 H 0.80085 0.99474 0.68103 0.0
H587 H 0.80782 0.02158 0.70706 0.0
H588 H 0.76154 0.02782 0.68331 0.0
H589 H 0.99073 0.05812 0.64314 0.0
H590 H 0.984 0.04386 0.67576 0.0
H591 H 0.97693 0.01777 0.6492 0.0
H592 H 0.94442 0.99092 0.74843 0.0
H593 H 0.93109 0.92817 0.68444 0.0
H594 H 0.87428 0.05137 0.72388 0.0
H595 H 0.9346 0.05949 0.71402 0.0
H596 H 0.9232 0.04347 0.74569 0.0
H597 H 0.85475 0.97468 0.64647 0.0
H598 H 0.89617 0.94263 0.64507 0.0
H599 H 0.91518 0.98126 0.63602 0.0
C600 C 0.70394 0.44456 0.15815 0.0
C601 C 0.66984 0.42615 0.14531 0.0
C602 C 0.68987 0.47022 0.17301 0.0
C603 C 0.64046 0.47732 0.17538 0.0
C604 C 0.60581 0.45848 0.16279 0.0
C605 C 0.62097 0.43325 0.14771 0.0
C606 C 0.72789 0.49005 0.1858 0.0
C607 C 0.55274 0.46503 0.1652 0.0
C608 C 0.59994 0.52841 0.23111 0.0
C609 C 0.59239 0.55685 0.21856 0.0
C610 C 0.61568 0.50229 0.21731 0.0
C611 C 0.62502 0.50492 0.19048 0.0
C612 C 0.61872 0.53386 0.17791 0.0
C613 C 0.60196 0.55939 0.19205 0.0
C614 C 0.62106 0.47169 0.2313 0.0
C615 C 0.62911 0.53777 0.14944 0.0
H616 H 0.74177 0.43923 0.15613 0.0
H617 H 0.59456 0.41883 0.13799 0.0
H618 H 0.72571 0.51425 0.17848 0.0
H619 H 0.72165 0.49087 0.20696 0.0
H620 H 0.76474 0.48123 0.18222 0.0
H621 H 0.53036 0.4474 0.1551 0.0
H622 H 0.54213 0.46553 0.18587 0.0
H623 H 0.54468 0.48824 0.15698 0.0
H624 H 0.59189 0.52628 0.25154 0.0
H625 H 0.59627 0.5814 0.18233 0.0
H626 H 0.65814 0.46283 0.22892 0.0
H627 H 0.59638 0.45417 0.22277 0.0
H628 H 0.61309 0.47365 0.25227 0.0
H629 H 0.66637 0.53035 0.1451 0.0
H630 H 0.62467 0.56218 0.14287 0.0
H631 H 0.60461 0.52272 0.13803 0.0
C632 C 0.40451 0.44678 0.37758 0.0
C633 C 0.35612 0.43799 0.3753 0.0
C634 C 0.42446 0.46993 0.36165 0.0
C635 C 0.39521 0.48492 0.34312 0.0
C636 C 0.34645 0.47589 0.34049 0.0
C637 C 0.32757 0.45232 0.35647 0.0
C638 C 0.47675 0.47861 0.36488 0.0
C639 C 0.31412 0.49129 0.32096 0.0
C640 C 0.43731 0.56535 0.32226 0.0
C641 C 0.45949 0.55903 0.29856 0.0
C642 C 0.41504 0.54156 0.3366 0.0
C643 C 0.41556 0.51067 0.32713 0.0
C644 C 0.43751 0.50429 0.30303 0.0
C645 C 0.45926 0.52858 0.28904 0.0
C646 C 0.39134 0.54943 0.362 0.0
C647 C 0.43894 0.47174 0.29224 0.0
H648 H 0.42686 0.43546 0.39187 0.0
H649 H 0.2901 0.44569 0.35474 0.0
H650 H 0.49591 0.47629 0.34617 0.0
H651 H 0.47989 0.50328 0.3709 0.0
H652 H 0.49505 0.46392 0.37949 0.0
H653 H 0.27614 0.48356 0.32286 0.0
H654 H 0.3157 0.51694 0.32307 0.0
H655 H 0.32672 0.48569 0.30119 0.0
H656 H 0.4371 0.58898 0.32952 0.0
H657 H 0.47694 0.52362 0.27085 0.0
H658 H 0.40979 0.53716 0.37799 0.0
H659 H 0.3534 0.54138 0.36193 0.0
H660 H 0.39211 0.57477 0.36605 0.0
H661 H 0.45868 0.4563 0.30569 0.0
H662 H 0.45657 0.47082 0.27298 0.0
H663 H 0.40195 0.4623 0.29043 0.0
C664 C 0.19848 0.06644 0.85087 0.0
C665 C 0.17654 0.07392 0.87454 0.0
C666 C 0.17867 0.04373 0.83442 0.0
C667 C 0.13718 0.027 0.84229 0.0
C668 C 0.11518 0.03419 0.86618 0.0
C669 C 0.13418 0.05804 0.88153 0.0
C670 C 0.20229 0.03765 0.80867 0.0
C671 C 0.07092 0.01712 0.87554 0.0
C672 C 0.0531 0.98436 0.79657 0.0
C673 C 0.06897 0.95368 0.799 0.0
C674 C 0.07691 0.00875 0.80929 0.0
C675 C 0.11623 1.00208 0.82569 0.0
C676 C 0.13278 0.97108 0.82785 0.0
C677 C 0.10944 0.94731 0.81407 0.0
C678 C 0.05959 0.04159 0.80539 0.0
C679 C 0.17365 0.96278 0.84564 0.0
H680 H 0.23142 0.07808 0.84516 0.0
H681 H 0.11535 0.06422 0.8991 0.0
H682 H 0.22144 0.01515 0.80943 0.0
H683 H 0.17494 0.03603 0.79314 0.0
H684 H 0.22867 0.05609 0.80346 0.0
H685 H 0.06478 0.02049 0.89657 0.0
H686 H 0.0392 0.02616 0.8651 0.0
H687 H 0.07347 0.99182 0.87168 0.0
H688 H 0.0224 0.98933 0.7844 0.0
H689 H 0.12179 0.92354 0.81578 0.0
H690 H 0.09041 0.05737 0.80136 0.0
H691 H 0.04189 0.04991 0.82328 0.0
H692 H 0.03352 0.04334 0.78923 0.0
H693 H 0.20617 0.97648 0.84059 0.0
H694 H 0.18269 0.93768 0.84476 0.0
H695 H 0.16386 0.96872 0.86583 0.0
C696 C 0.22944 0.12424 0.98314 0.0
C697 C 0.19549 0.11638 0.96419 0.0
C698 C 0.21906 0.12035 1.00959 0.0
C699 C 0.17383 0.10813 0.01725 0.0
C700 C 0.13909 0.10087 0.99823 0.0
C701 C 0.1502 0.10529 0.97204 0.0
C702 C 0.25682 0.1287 0.02933 0.0
C703 C 0.09042 0.08779 1.0055 0.0
C704 C 0.15941 0.06569 0.08132 0.0
C705 C 0.13487 0.08764 0.09635 0.0
C706 C 0.17335 0.07236 0.0558 0.0
C707 C 0.163 0.10183 0.04501 0.0
C708 C 0.13954 0.12444 0.06028 0.0
C709 C 0.12553 0.11703 0.08567 0.0
C710 C 0.19809 0.04753 0.04014 0.0
C711 C 0.12807 0.15619 0.04955 0.0
H712 H 0.26456 0.13269 0.9773 0.0
H713 H 0.12327 0.09986 0.95761 0.0
H714 H 0.24174 0.14485 0.04389 0.0
H715 H 0.26828 0.10748 0.03978 0.0
H716 H 0.28898 0.13973 0.02037 0.0
H717 H 0.06713 0.08386 0.98839 0.0
H718 H 0.09486 0.06534 0.01579 0.0
H719 H 0.07179 0.10383 0.01889 0.0
H720 H 0.16769 0.04315 0.08949 0.0
H721 H 0.10612 0.13407 0.09693 0.0
H722 H 0.23263 0.05653 0.03237 0.0
H723 H 0.17537 0.04105 0.02338 0.0
H724 H 0.2053 0.02626 0.05166 0.0
H725 H 0.16079 0.16702 0.04112 0.0
H726 H 0.11335 0.17199 0.06453 0.0
H727 H 0.10132 0.15395 0.03379 0.0
C728 C 0.3339 0.42641 0.47778 0.0
C729 C 0.33492 0.3974 0.46547 0.0
C730 C 0.34685 0.42952 0.50384 0.0
C731 C 0.36111 0.40296 0.51803 0.0
C732 C 0.36087 0.37345 0.50595 0.0
C733 C 0.34779 0.37102 0.47981 0.0
C734 C 0.34641 0.46139 0.51602 0.0
C735 C 0.37583 0.3446 0.52042 0.0
C736 C 0.44333 0.41968 0.57481 0.0
C737 C 0.41103 0.41954 0.59564 0.0
C738 C 0.4278 0.41327 0.54959 0.0
C739 C 0.3787 0.40655 0.54504 0.0
C740 C 0.3462 0.4052 0.5661 0.0
C741 C 0.36277 0.41168 0.59118 0.0
C742 C 0.46371 0.4147 0.52771 0.0
C743 C 0.29361 0.39806 0.56203 0.0
H744 H 0.32321 0.4468 0.46694 0.0
H745 H 0.34909 0.34857 0.47038 0.0
H746 H 0.32404 0.46112 0.53377 0.0
H747 H 0.3834 0.46809 0.52181 0.0
H748 H 0.33233 0.47945 0.5027 0.0
H749 H 0.37034 0.32315 0.50886 0.0
H750 H 0.41439 0.34638 0.52564 0.0
H751 H 0.35522 0.34242 0.53871 0.0
H752 H 0.48083 0.42522 0.57821 0.0
H753 H 0.33756 0.41174 0.60717 0.0
H754 H 0.45439 0.43401 0.51442 0.0
H755 H 0.46243 0.39288 0.51634 0.0
H756 H 0.50104 0.4184 0.53467 0.0
H757 H 0.27686 0.41712 0.55081 0.0
H758 H 0.27384 0.39537 0.58057 0.0
H759 H 0.28926 0.37642 0.55063 0.0
C760 C 0.65996 0.39506 0.04552 0.0
C761 C 0.66833 0.3685 0.0607 0.0
C762 C 0.6443 0.39257 0.01981 0.0
C763 C 0.63804 0.36282 1.00865 0.0
C764 C 0.64688 0.33593 0.02366 0.0
C765 C 0.66122 0.33908 0.04953 0.0
C766 C 0.63439 0.4218 1.00458 0.0
C767 C 0.64136 0.30377 0.01236 0.0
C768 C 0.55855 0.35138 0.94969 0.0
C769 C 0.59244 0.35105 0.92966 0.0
C770 C 0.57276 0.35611 0.97542 0.0
C771 C 0.62218 0.3597 0.98127 0.0
C772 C 0.65652 0.35945 0.96103 0.0
C773 C 0.64113 0.35551 0.93539 0.0
C774 C 0.53494 0.35706 0.99634 0.0
C775 C 0.70959 0.3625 0.9665 0.0
H776 H 0.66616 0.41794 0.0536 0.0
H777 H 0.66652 0.31835 0.06105 0.0
H778 H 0.65886 0.42323 0.98769 0.0
H779 H 0.59712 0.42123 0.99702 0.0
H780 H 0.63912 0.44314 0.01638 0.0
H781 H 0.65148 0.28525 0.02628 0.0
H782 H 0.6036 0.29984 1.00634 0.0
H783 H 0.66413 0.30154 0.99485 0.0
H784 H 0.52085 0.34811 0.94514 0.0
H785 H 0.66728 0.35501 0.91985 0.0
H786 H 0.53855 0.37883 1.00766 0.0
H787 H 0.54006 0.33741 0.00993 0.0
H788 H 0.49793 0.3557 0.9884 0.0
H789 H 0.71704 0.3845 0.97692 0.0
H790 H 0.73159 0.3621 0.94858 0.0
H791 H 0.72123 0.34318 0.97923 0.0
C792 C 0.88073 0.12743 0.54307 0.0
C793 C 0.83464 0.13327 0.55293 0.0
C794 C 0.89081 0.13085 0.51654 0.0
C795 C 0.85392 0.14028 0.49945 0.0
C796 C 0.80698 0.14514 0.50919 0.0
C797 C 0.79795 0.14158 0.53574 0.0
C798 C 0.94131 0.12547 0.50697 0.0
C799 C 0.76649 0.15502 0.49168 0.0
C800 C 0.88189 0.18591 0.43834 0.0
C801 C 0.87419 0.16367 0.41896 0.0
C802 C 0.8774 0.17823 0.46459 0.0
C803 C 0.86478 0.14749 0.47179 0.0
C804 C 0.85912 0.12453 0.45239 0.0
C805 C 0.86403 0.13288 0.42617 0.0
C806 C 0.88427 0.2034 0.48458 0.0
C807 C 0.8458 0.09149 0.45925 0.0
H808 H 0.90936 0.12117 0.55622 0.0
H809 H 0.76204 0.14555 0.5431 0.0
H810 H 0.94099 0.10956 0.49012 0.0
H811 H 0.95725 0.14782 0.50039 0.0
H812 H 0.96477 0.11548 0.52217 0.0
H813 H 0.73147 0.15601 0.50196 0.0
H814 H 0.77447 0.17836 0.48353 0.0
H815 H 0.76308 0.13869 0.47521 0.0
H816 H 0.89059 0.20963 0.43289 0.0
H817 H 0.8579 0.11561 0.41129 0.0
H818 H 0.91027 0.19579 0.49949 0.0
H819 H 0.84965 0.20789 0.49452 0.0
H820 H 0.89738 0.22553 0.47595 0.0
H821 H 0.87002 0.08247 0.47448 0.0
H822 H 0.84751 0.07578 0.44226 0.0
H823 H 0.80872 0.09082 0.46714 0.0
C824 C 0.83157 0.9241 0.04312 0.0
C825 C 0.83826 0.8958 0.0561 0.0
C826 C 0.84345 0.9274 0.01687 0.0
C827 C 0.86275 0.90184 1.0032 0.0
C828 C 0.86834 0.87295 0.01599 0.0
C829 C 0.85588 0.87025 0.04227 0.0
C830 C 0.83646 0.95853 1.00393 0.0
C831 C 0.88897 0.84519 1.00217 0.0
C832 C 0.86266 0.90707 0.92964 0.0
C833 C 0.90901 0.91858 0.9246 0.0
C834 C 0.84738 0.9008 0.95507 0.0
C835 C 0.87931 0.90597 0.97594 0.0
C836 C 0.92663 0.91662 0.97085 0.0
C837 C 0.94083 0.92286 0.9453 0.0
C838 C 0.7966 0.88959 0.95966 0.0
C839 C 0.96201 0.92213 0.99248 0.0
H840 H 0.81731 0.9438 0.05359 0.0
H841 H 0.86151 0.8484 0.05223 0.0
H842 H 0.87179 0.96821 0.99793 0.0
H843 H 0.81447 0.95576 0.98621 0.0
H844 H 0.81864 0.97557 0.01683 0.0
H845 H 0.88815 0.82388 0.01432 0.0
H846 H 0.86875 0.84058 0.98411 0.0
H847 H 0.92677 0.85012 0.9966 0.0
H848 H 0.83776 0.90394 0.91377 0.0
H849 H 0.97693 0.9313 0.94151 0.0
H850 H 0.77647 0.90736 0.97071 0.0
H851 H 0.79668 0.86804 0.97145 0.0
H852 H 0.77718 0.88491 0.94132 0.0
H853 H 0.94869 0.94088 1.00528 0.0
H854 H 0.99817 0.92886 0.98521 0.0
H855 H 0.96547 0.90086 1.00446 0.0
C856 C 0.65057 0.61562 0.54085 0.0
C857 C 0.6976 0.61765 0.55041 0.0
C858 C 0.64183 0.61185 0.51426 0.0
C859 C 0.68109 0.60937 0.49693 0.0
C860 C 0.72859 0.61223 0.50647 0.0
C861 C 0.73623 0.61659 0.53303 0.0
C862 C 0.59066 0.60962 0.50483 0.0
C863 C 0.77151 0.60922 0.48878 0.0
C864 C 0.6676 0.56154 0.43575 0.0
C865 C 0.66782 0.58444 0.41637 0.0
C866 C 0.6707 0.56942 0.46199 0.0
C867 C 0.67299 0.60108 0.46927 0.0
C868 C 0.67055 0.62443 0.44998 0.0
C869 C 0.66834 0.61585 0.42375 0.0
C870 C 0.67338 0.54372 0.48186 0.0
C871 C 0.67188 0.65845 0.45699 0.0
H872 H 0.62062 0.61674 0.55422 0.0
H873 H 0.77263 0.61788 0.54039 0.0
H874 H 0.58515 0.62544 0.48816 0.0
H875 H 0.5831 0.58564 0.49807 0.0
H876 H 0.56433 0.61549 0.5202 0.0
H877 H 0.80597 0.61358 0.49898 0.0
H878 H 0.77236 0.58546 0.48048 0.0
H879 H 0.76868 0.62579 0.47243 0.0
H880 H 0.66581 0.53723 0.43039 0.0
H881 H 0.66869 0.63378 0.40902 0.0
H882 H 0.64467 0.54655 0.49653 0.0
H883 H 0.7083 0.54503 0.49214 0.0
H884 H 0.66978 0.52028 0.47309 0.0
H885 H 0.64537 0.66339 0.47246 0.0
H886 H 0.66418 0.67363 0.44013 0.0
H887 H 0.7079 0.66462 0.46461 0.0
C888 C 0.3137 0.63616 0.97592 0.0
C889 C 0.35058 0.63314 0.95762 0.0
C890 C 0.32273 0.63245 1.00242 0.0
C891 C 0.36994 0.62586 0.01093 0.0
C892 C 0.40763 0.62366 0.99261 0.0
C893 C 0.39743 0.6271 0.96615 0.0
C894 C 0.28138 0.63461 0.02125 0.0
C895 C 0.45852 0.61712 1.00092 0.0
C896 C 0.3919 0.63837 0.08279 0.0
C897 C 0.38537 0.60821 0.09264 0.0
C898 C 0.38906 0.64432 0.0561 0.0
C899 C 0.37897 0.6196 0.03886 0.0
C900 C 0.37429 0.58896 0.04858 0.0
C901 C 0.37791 0.58363 0.07526 0.0
C902 C 0.39495 0.67726 0.04646 0.0
C903 C 0.36347 0.56191 0.03091 0.0
H904 H 0.27732 0.64044 0.96942 0.0
H905 H 0.42613 0.62503 0.95209 0.0
H906 H 0.27632 0.61195 0.0312 0.0
H907 H 0.28941 0.65219 0.03631 0.0
H908 H 0.24716 0.64093 0.01162 0.0
H909 H 0.48424 0.61824 0.9845 0.0
H910 H 0.46999 0.63408 0.01585 0.0
H911 H 0.46047 0.59366 0.00975 0.0
H912 H 0.39735 0.65758 0.09601 0.0
H913 H 0.3739 0.56015 0.08259 0.0
H914 H 0.36003 0.68584 0.03912 0.0
H915 H 0.42082 0.67811 0.03014 0.0
H916 H 0.40766 0.69324 0.06187 0.0
H917 H 0.32784 0.56522 0.02175 0.0
H918 H 0.36318 0.53933 0.04134 0.0
H919 H 0.39046 0.5608 0.01515 0.0
C920 C 0.18478 0.90382 0.47912 0.0
C921 C 0.19122 0.87736 0.46365 0.0
C922 C 0.16848 0.90126 0.50477 0.0
C923 C 0.15915 0.8715 0.5154 0.0
C924 C 0.16631 0.84469 0.50009 0.0
C925 C 0.18176 0.84795 0.4744 0.0
C926 C 0.16074 0.93042 0.52039 0.0
C927 C 0.15716 0.8125 0.51077 0.0
C928 C 0.15541 0.86004 0.58831 0.0
C929 C 0.10593 0.85714 0.59283 0.0
C930 C 0.17329 0.86528 0.56326 0.0
C931 C 0.14082 0.86823 0.54235 0.0
C932 C 0.09073 0.86645 0.54702 0.0
C933 C 0.07392 0.86064 0.57216 0.0
C934 C 0.22693 0.86657 0.55903 0.0
C935 C 0.0549 0.87007 0.52537 0.0
H936 H 0.19265 0.92663 0.47123 0.0
H937 H 0.18561 0.82735 0.46258 0.0
H938 H 0.12271 0.93166 0.52674 0.0
H939 H 0.1832 0.92989 0.53806 0.0
H940 H 0.16962 0.95182 0.50929 0.0
H941 H 0.1667 0.79398 0.49677 0.0
H942 H 0.17828 0.80898 0.52869 0.0
H943 H 0.11867 0.80985 0.51595 0.0
H944 H 0.18018 0.85713 0.60426 0.0
H945 H 0.03561 0.85872 0.57571 0.0
H946 H 0.23711 0.88833 0.54884 0.0
H947 H 0.23803 0.84692 0.54654 0.0
H948 H 0.24727 0.86529 0.57744 0.0
H949 H 0.06191 0.89199 0.51466 0.0
H950 H 0.01724 0.87022 0.53249 0.0
H951 H 0.05886 0.85068 0.51143 0.0
C952 C 0.19983 0.29284 0.37773 0.0
C953 C 0.24936 0.29358 0.37271 0.0
C954 C 0.16938 0.27204 0.36457 0.0
C955 C 0.1891 0.25101 0.34643 0.0
C956 C 0.23929 0.25114 0.34189 0.0
C957 C 0.26868 0.27247 0.355 0.0
C958 C 0.11612 0.27254 0.37007 0.0
C959 C 0.26226 0.22948 0.32269 0.0
C960 C 0.11815 0.17826 0.3285 0.0
C961 C 0.099 0.1866 0.30446 0.0
C962 C 0.14733 0.19904 0.34243 0.0
C963 C 0.15726 0.22895 0.33216 0.0
C964 C 0.13758 0.23754 0.30799 0.0
C965 C 0.10849 0.21631 0.29452 0.0
C966 C 0.1686 0.18872 0.36782 0.0
C967 C 0.14783 0.26897 0.29616 0.0
H968 H 0.18491 0.30855 0.39195 0.0
H969 H 0.30709 0.27255 0.35145 0.0
H970 H 0.09609 0.27731 0.35198 0.0
H971 H 0.10411 0.24945 0.37723 0.0
H972 H 0.1064 0.29039 0.38462 0.0
H973 H 0.30099 0.226 0.32687 0.0
H974 H 0.24419 0.20644 0.32228 0.0
H975 H 0.25938 0.24008 0.30325 0.0
H976 H 0.11117 0.1552 0.33617 0.0
H977 H 0.09301 0.22305 0.27619 0.0
H978 H 0.15868 0.20523 0.38335 0.0
H979 H 0.20839 0.1888 0.36637 0.0
H980 H 0.1564 0.16504 0.37349 0.0
H981 H 0.13865 0.28768 0.31002 0.0
H982 H 0.12746 0.27275 0.27799 0.0
H983 H 0.18676 0.27106 0.29181 0.0
C984 C 0.35974 0.22095 0.88478 0.0
C985 C 0.33477 0.19713 0.87205 0.0
C986 C 0.37998 0.24594 0.87095 0.0
C987 C 0.37514 0.24709 0.8437 0.0
C988 C 0.34854 0.22355 0.83088 0.0
C989 C 0.3285 0.19891 0.84524 0.0
C990 C 0.40818 0.27031 0.88551 0.0
C991 C 0.34164 0.22425 0.80197 0.0
C992 C 0.39939 0.32422 0.80978 0.0
C993 C 0.44603 0.31994 0.80025 0.0
C994 C 0.37557 0.30061 0.82362 0.0
C995 C 0.39939 0.27222 0.82854 0.0
C996 C 0.44677 0.26793 0.81921 0.0
C997 C 0.46935 0.29174 0.80501 0.0
C998 C 0.32506 0.30613 0.83312 0.0
C999 C 0.47366 0.23819 0.82428 0.0
H1000 H 0.36437 0.21968 0.90555 0.0
H1001 H 0.30871 0.18062 0.83548 0.0
H1002 H 0.44707 0.26576 0.88304 0.0
H1003 H 0.40093 0.29396 0.87795 0.0
H1004 H 0.39994 0.26988 0.90652 0.0
H1005 H 0.32239 0.20331 0.79476 0.0
H1006 H 0.32066 0.24509 0.79661 0.0
H1007 H 0.37687 0.22602 0.792 0.0
H1008 H 0.38156 0.3462 0.80659 0.0
H1009 H 0.50538 0.28826 0.79761 0.0
H1010 H 0.32331 0.30294 0.85438 0.0
H1011 H 0.30029 0.28885 0.82435 0.0
H1012 H 0.31208 0.3298 0.8283 0.0
H1013 H 0.47674 0.23428 0.84541 0.0
H1014 H 0.51033 0.23854 0.81578 0.0
H1015 H 0.45349 0.21818 0.81612 0.0
C1016 C 0.76713 0.24475 0.67336 0.0
C1017 C 0.74863 0.22285 0.65593 0.0
C1018 C 0.73666 0.26453 0.68731 0.0
C1019 C 0.68636 0.2624 0.6837 0.0
C1020 C 0.66736 0.2403 0.66616 0.0
C1021 C 0.69874 0.22106 0.65221 0.0
C1022 C 0.75836 0.28806 0.70557 0.0
C1023 C 0.6139 0.23729 0.66185 0.0
C1024 C 0.60536 0.29726 0.73528 0.0
C1025 C 0.59279 0.32564 0.72392 0.0
C1026 C 0.6355 0.2763 0.72234 0.0
C1027 C 0.65377 0.2841 0.69759 0.0
C1028 C 0.64124 0.31284 0.68612 0.0
C1029 C 0.61065 0.33316 0.69936 0.0
C1030 C 0.64765 0.24578 0.73511 0.0
C1031 C 0.66044 0.32224 0.65992 0.0
H1032 H 0.8057 0.24665 0.67584 0.0
H1033 H 0.68416 0.20477 0.63831 0.0
H1034 H 0.74797 0.31189 0.69964 0.0
H1035 H 0.74423 0.28429 0.72539 0.0
H1036 H 0.79819 0.28678 0.70616 0.0
H1037 H 0.60472 0.21788 0.64858 0.0
H1038 H 0.59522 0.2334 0.68055 0.0
H1039 H 0.59977 0.2592 0.65357 0.0
H1040 H 0.59117 0.29129 0.75418 0.0
H1041 H 0.60119 0.35521 0.69063 0.0
H1042 H 0.68707 0.24405 0.73778 0.0
H1043 H 0.63647 0.2262 0.72251 0.0
H1044 H 0.62992 0.24303 0.75422 0.0
H1045 H 0.70028 0.32274 0.6603 0.0
H1046 H 0.64742 0.34546 0.65377 0.0
H1047 H 0.6495 0.30488 0.6452 0.0
C1048 C 0.81801 0.27855 0.15008 0.0
C1049 C 0.8351 0.30927 0.14979 0.0
C1050 C 0.84038 0.25571 0.1652 0.0
C1051 C 0.88146 0.26366 0.17994 0.0
C1052 C 0.89908 0.2946 0.17957 0.0
C1053 C 0.8757 0.31703 0.16446 0.0
C1054 C 0.82044 0.223 0.16515 0.0
C1055 C 0.94313 0.30389 0.19476 0.0
C1056 C 0.91997 0.21071 0.23502 0.0
C1057 C 0.95626 0.19312 0.22327 0.0
C1058 C 0.89509 0.23361 0.22113 0.0
C1059 C 0.90714 0.23933 0.19495 0.0
C1060 C 0.9439 0.22184 0.18304 0.0
C1061 C 0.96779 0.19887 0.19727 0.0
C1062 C 0.85578 0.2516 0.23443 0.0
C1063 C 0.95814 0.22742 0.15523 0.0
H1064 H 0.78717 0.27238 0.13835 0.0
H1065 H 0.88947 0.34064 0.16391 0.0
H1066 H 0.84742 0.20685 0.15701 0.0
H1067 H 0.81283 0.2153 0.18522 0.0
H1068 H 0.78691 0.22098 0.15365 0.0
H1069 H 0.95156 0.32906 0.19288 0.0
H1070 H 0.93791 0.29833 0.21551 0.0
H1071 H 0.97458 0.29042 0.18797 0.0
H1072 H 0.91066 0.2065 0.25507 0.0
H1073 H 0.99574 0.18551 0.18793 0.0
H1074 H 0.82145 0.24856 0.22384 0.0
H1075 H 0.86456 0.27678 0.23422 0.0
H1076 H 0.85037 0.2441 0.25478 0.0
H1077 H 0.92684 0.22337 0.14241 0.0
H1078 H 0.98789 0.21208 0.14892 0.0
H1079 H 0.96957 0.25196 0.15257 0.0
C1080 C 0.79812 0.71058 0.67417 0.0
C1081 C 0.79533 0.7112 0.64715 0.0
C1082 C 0.82876 0.73104 0.6875 0.0
C1083 C 0.8575 0.75245 0.67341 0.0
C1084 C 0.85675 0.75192 0.64604 0.0
C1085 C 0.82571 0.73121 0.63323 0.0
C1086 C 0.82847 0.73081 0.71666 0.0
C1087 C 0.88718 0.77415 0.63033 0.0
C1088 C 0.88929 0.82869 0.70624 0.0
C1089 C 0.93659 0.82348 0.71435 0.0
C1090 C 0.86326 0.80575 0.69299 0.0
C1091 C 0.88528 0.77698 0.68729 0.0
C1092 C 0.93331 0.7717 0.69509 0.0
C1093 C 0.95829 0.79495 0.70871 0.0
C1094 C 0.81198 0.81227 0.68531 0.0
C1095 C 0.95805 0.74137 0.68935 0.0
H1096 H 0.77502 0.69481 0.68492 0.0
H1097 H 0.82393 0.73135 0.6123 0.0
H1098 H 0.86567 0.73099 0.72432 0.0
H1099 H 0.81057 0.75212 0.72376 0.0
H1100 H 0.80908 0.7103 0.72464 0.0
H1101 H 0.88537 0.76912 0.6093 0.0
H1102 H 0.87481 0.7983 0.63359 0.0
H1103 H 0.92522 0.77303 0.63659 0.0
H1104 H 0.87239 0.85077 0.71035 0.0
H1105 H 0.99458 0.79059 0.71528 0.0
H1106 H 0.78754 0.79519 0.69469 0.0
H1107 H 0.80776 0.80964 0.66411 0.0
H1108 H 0.80043 0.83602 0.69087 0.0
H1109 H 0.93862 0.722 0.69903 0.0
H1110 H 0.99602 0.74134 0.69592 0.0
H1111 H 0.95727 0.73669 0.66828 0.0
C1112 C 0.67783 0.79229 0.13673 0.0
C1113 C 0.70316 0.81578 0.14967 0.0
C1114 C 0.65716 0.76729 0.15035 0.0
C1115 C 0.66225 0.76566 0.17756 0.0
C1116 C 0.68928 0.78879 0.1906 0.0
C1117 C 0.70956 0.81355 0.17646 0.0
C1118 C 0.62887 0.74303 0.1357 0.0
C1119 C 0.69619 0.78762 0.2195 0.0
C1120 C 0.56664 0.7205 0.21479 0.0
C1121 C 0.58955 0.69208 0.21922 0.0
C1122 C 0.5901 0.74471 0.20149 0.0
C1123 C 0.63764 0.7404 0.19239 0.0
C1124 C 0.66096 0.71174 0.19687 0.0
C1125 C 0.63648 0.68788 0.21007 0.0
C1126 C 0.56393 0.7749 0.19711 0.0
C1127 C 0.71172 0.70624 0.18774 0.0
H1128 H 0.67329 0.79385 0.11597 0.0
H1129 H 0.72962 0.83159 0.18638 0.0
H1130 H 0.6433 0.71955 0.13979 0.0
H1131 H 0.59088 0.74315 0.14223 0.0
H1132 H 0.62977 0.74702 0.1145 0.0
H1133 H 0.71679 0.80794 0.22684 0.0
H1134 H 0.66085 0.78675 0.22944 0.0
H1135 H 0.71567 0.76614 0.22479 0.0
H1136 H 0.53039 0.72392 0.2219 0.0
H1137 H 0.65395 0.66573 0.21296 0.0
H1138 H 0.5609 0.77955 0.17609 0.0
H1139 H 0.5846 0.79443 0.20569 0.0
H1140 H 0.52729 0.77466 0.20565 0.0
H1141 H 0.71475 0.71102 0.16673 0.0
H1142 H 0.72372 0.68207 0.19149 0.0
H1143 H 0.73655 0.72244 0.19778 0.0
C1144 C 0.34143 0.79226 0.36849 0.0
C1145 C 0.29184 0.7911 0.36369 0.0
C1146 C 0.3733 0.7731 0.35482 0.0
C1147 C 0.355 0.75174 0.33647 0.0
C1148 C 0.30496 0.75027 0.33176 0.0
C1149 C 0.27404 0.76992 0.34547 0.0
C1150 C 0.42647 0.77536 0.36029 0.0
C1151 C 0.28396 0.72742 0.31269 0.0
C1152 C 0.43683 0.71716 0.28529 0.0
C1153 C 0.44721 0.68809 0.29606 0.0
C1154 C 0.4076 0.73841 0.29846 0.0
C1155 C 0.38789 0.73013 0.32278 0.0
C1156 C 0.39854 0.7008 0.33376 0.0
C1157 C 0.42836 0.68021 0.32033 0.0
C1158 C 0.39743 0.76956 0.28626 0.0
C1159 C 0.37771 0.69092 0.35947 0.0
H1160 H 0.35533 0.80798 0.38304 0.0
H1161 H 0.23563 0.76846 0.34221 0.0
H1162 H 0.43944 0.75304 0.36837 0.0
H1163 H 0.44657 0.77962 0.34208 0.0
H1164 H 0.43518 0.79425 0.37416 0.0
H1165 H 0.24449 0.73003 0.31054 0.0
H1166 H 0.30101 0.73052 0.29346 0.0
H1167 H 0.29153 0.70334 0.31913 0.0
H1168 H 0.45169 0.7233 0.26658 0.0
H1169 H 0.43606 0.6576 0.32856 0.0
H1170 H 0.40775 0.78853 0.29969 0.0
H1171 H 0.35836 0.77178 0.28253 0.0
H1172 H 0.41706 0.77289 0.26775 0.0
H1173 H 0.38785 0.7079 0.37465 0.0
H1174 H 0.39013 0.66751 0.36549 0.0
H1175 H 0.33791 0.69057 0.35837 0.0
C1176 C 0.21701 0.73041 0.86113 0.0
C1177 C 0.19337 0.70315 0.86921 0.0
C1178 C 0.19317 0.75278 0.84612 0.0
C1179 C 0.14425 0.74815 0.83959 0.0
C1180 C 0.1201 0.7209 0.84798 0.0
C1181 C 0.14495 0.69878 0.86269 0.0
C1182 C 0.22017 0.78151 0.83744 0.0
C1183 C 0.0678 0.71529 0.84172 0.0
C1184 C 0.06947 0.81909 0.82303 0.0
C1185 C 0.06789 0.81771 0.79596 0.0
C1186 C 0.09413 0.7966 0.83744 0.0
C1187 C 0.11795 0.77214 0.8245 0.0
C1188 C 0.11626 0.77048 0.7972 0.0
C1189 C 0.09099 0.79315 0.78327 0.0
C1190 C 0.0948 0.79909 0.86654 0.0
C1191 C 0.14132 0.74483 0.78269 0.0
H1192 H 0.2541 0.73438 0.86655 0.0
H1193 H 0.12637 0.67806 0.86937 0.0
H1194 H 0.21816 0.78386 0.81612 0.0
H1195 H 0.20334 0.80249 0.84588 0.0
H1196 H 0.25857 0.78104 0.84322 0.0
H1197 H 0.05445 0.69271 0.8494 0.0
H1198 H 0.04563 0.7342 0.84997 0.0
H1199 H 0.06242 0.71563 0.82049 0.0
H1200 H 0.05176 0.83795 0.83304 0.0
H1201 H 0.08952 0.79167 0.76239 0.0
H1202 H 0.13236 0.8013 0.87346 0.0
H1203 H 0.07952 0.77764 0.87528 0.0
H1204 H 0.07407 0.81934 0.87367 0.0
H1205 H 0.18023 0.74507 0.7873 0.0
H1206 H 0.13702 0.74703 0.76143 0.0
H1207 H 0.12683 0.72191 0.78885 0.0
loop_
_geom_bond_atom_site_label_1
_geom_bond_atom_site_label_2
_geom_bond_distance
_geom_bond_site_symmetry_2
_ccdc_geom_bond_type
H0 C7 0.929 . S
H1 C10 0.930 . S
H2 C12 0.929 . S
H3 C4 0.969 . S
C4 H3 0.969 . S
C4 O5 1.550 . S
C4 H6 0.973 . S
O5 C4 1.550 . S
O5 C11 1.412 . S
H6 C4 0.973 . S
C7 H0 0.929 . S
C7 C8 1.400 . S
C7 C9 1.364 . S
C8 C7 1.400 . S
C8 C12 1.377 . S
C9 C7 1.364 . S
C9 C10 1.374 . S
C10 H1 0.930 . S
C10 C9 1.374 . S
C10 C11 1.383 . S
C11 O5 1.412 . S
C11 C10 1.383 . S
C11 C12 1.394 . S
C12 H2 0.929 . S
C12 C8 1.377 . S
C12 C11 1.394 . S
H13 C20 0.929 . S
H14 C23 0.930 . S
H15 C25 0.929 . S
H16 C17 0.969 . S
C17 H16 0.969 . S
C17 O18 1.550 . S
C17 H19 0.973 . S
O18 C17 1.550 . S
O18 C24 1.412 . S
H19 C17 0.973 . S
C20 H13 0.929 . S
C20 C21 1.400 . S
C20 C22 1.364 . S
C21 C20 1.400 . S
C21 C25 1.377 . S
C22 C20 1.364 . S
C22 C23 1.374 . S
C23 H14 0.930 . S
C23 C22 1.374 . S
C23 C24 1.383 . S
C24 O18 1.412 . S
C24 C23 1.383 . S
C24 C25 1.394 . S
C25 H15 0.929 . S
C25 C21 1.377 . S
C25 C24 1.394 . S
H26 C33 0.929 . S
H27 C36 0.930 . S
H28 C38 0.929 . S
H29 C30 0.969 . S
C30 H29 0.969 . S
C30 O31 1.550 . S
C30 H32 0.973 . S
O31 C30 1.550 . S
O31 C37 1.412 . S
H32 C30 0.973 . S
C33 H26 0.929 . S
C33 C34 1.400 . S
C33 C35 1.364 . S
C34 C33 1.400 . S
C34 C38 1.377 . S
C35 C33 1.364 . S
C35 C36 1.374 . S
C36 H27 0.930 . S
C36 C35 1.374 . S
C36 C37 1.383 . S
C37 O31 1.412 . S
C37 C36 1.383 . S
C37 C38 1.394 . S
C38 H28 0.929 . S
C38 C34 1.377 . S
C38 C37 1.394 . S
H39 C46 0.929 . S
H40 C49 0.930 . S
H41 C51 0.929 . S
H42 C43 0.969 . S
C43 H42 0.969 . S
C43 O44 1.550 . S
C43 H45 0.973 . S
O44 C43 1.550 . S
O44 C50 1.412 . S
H45 C43 0.973 . S
C46 H39 0.929 . S
C46 C47 1.400 . S
C46 C48 1.364 . S
C47 C46 1.400 . S
C47 C51 1.377 . S
C48 C46 1.364 . S
C48 C49 1.374 . S
C49 H40 0.930 . S
C49 C48 1.374 . S
C49 C50 1.383 . S
C50 O44 1.412 . S
C50 C49 1.383 . S
C50 C51 1.394 . S
C51 H41 0.929 . S
C51 C47 1.377 . S
C51 C50 1.394 . S
H52 C59 0.929 . S
H53 C62 0.930 . S
H54 C64 0.929 . S
H55 C56 0.969 . S
C56 H55 0.969 . S
C56 O57 1.550 . S
C56 H58 0.973 . S
O57 C56 1.550 . S
O57 C63 1.412 . S
H58 C56 0.973 . S
C59 H52 0.929 . S
C59 C60 1.400 . S
C59 C61 1.364 . S
C60 C59 1.400 . S
C60 C64 1.377 . S
C61 C59 1.364 . S
C61 C62 1.374 . S
C62 H53 0.930 . S
C62 C61 1.374 . S
C62 C63 1.383 . S
C63 O57 1.412 . S
C63 C62 1.383 . S
C63 C64 1.394 . S
C64 H54 0.929 . S
C64 C60 1.377 . S
C64 C63 1.394 . S
H65 C72 0.929 . S
H66 C75 0.930 . S
H67 C77 0.929 . S
H68 C69 0.969 . S
C69 H68 0.969 . S
C69 O70 1.550 . S
C69 H71 0.973 . S
O70 C69 1.550 . S
O70 C76 1.412 . S
H71 C69 0.973 . S
C72 H65 0.929 . S
C72 C73 1.400 . S
C72 C74 1.364 . S
C73 C72 1.400 . S
C73 C77 1.377 . S
C74 C72 1.364 . S
C74 C75 1.374 . S
C75 H66 0.930 . S
C75 C74 1.374 . S
C75 C76 1.383 . S
C76 O70 1.412 . S
C76 C75 1.383 . S
C76 C77 1.394 . S
C77 H67 0.929 . S
C77 C73 1.377 . S
C77 C76 1.394 . S
H78 C85 0.929 . S
H79 C88 0.930 . S
H80 C90 0.929 . S
H81 C82 0.969 . S
C82 H81 0.969 . S
C82 O83 1.550 . S
C82 H84 0.973 . S
O83 C82 1.550 . S
O83 C89 1.412 . S
H84 C82 0.973 . S
C85 H78 0.929 . S
C85 C86 1.400 . S
C85 C87 1.364 . S
C86 C85 1.400 . S
C86 C90 1.377 . S
C87 C85 1.364 . S
C87 C88 1.374 . S
C88 H79 0.930 . S
C88 C87 1.374 . S
C88 C89 1.383 . S
C89 O83 1.412 . S
C89 C88 1.383 . S
C89 C90 1.394 . S
C90 H80 0.929 . S
C90 C86 1.377 . S
C90 C89 1.394 . S
H91 C98 0.929 . S
H92 C101 0.930 . S
H93 C103 0.929 . S
H94 C95 0.969 . S
C95 H94 0.969 . S
C95 O96 1.550 . S
C95 H97 0.973 . S
O96 C95 1.550 . S
O96 C102 1.412 . S
H97 C95 0.973 . S
C98 H91 0.929 . S
C98 C99 1.400 . S
C98 C100 1.364 . S
C99 C98 1.400 . S
C99 C103 1.377 . S
C100 C98 1.364 . S
C100 C101 1.374 . S
C101 H92 0.930 . S
C101 C100 1.374 . S
C101 C102 1.383 . S
C102 O96 1.412 . S
C102 C101 1.383 . S
C102 C103 1.394 . S
C103 H93 0.929 . S
C103 C99 1.377 . S
C103 C102 1.394 . S
C104 C106 1.422 . S
C104 C108 1.415 . S
C104 N110 1.369 . S
C105 C106 1.421 . S
C105 C107 1.417 . S
C105 C117 1.392 1_545 S
C106 C104 1.422 . S
C106 C105 1.421 . S
C106 N116 1.359 . S
C107 C105 1.417 . S
C107 C109 1.329 . S
C107 H126 0.930 . S
C108 C104 1.415 . S
C108 C109 1.437 . S
C108 C112 1.413 . S
C109 C107 1.329 . S
C109 C108 1.437 . S
C109 H131 0.929 . S
N110 C104 1.369 . S
N110 C111 1.338 . S
N110 Gd115 2.622 . S
C111 N110 1.338 . S
C111 C113 1.378 . S
C111 H123 0.929 . S
C112 C108 1.413 . S
C112 C113 1.348 . S
C112 H128 0.931 . S
C113 C111 1.378 . S
C113 C112 1.348 . S
C113 H129 0.930 . S
Gd114 N134 2.622 . S
Gd114 N141 2.570 . S
Gd114 O148 2.353 . S
Gd114 O149 2.468 . S
Gd114 O150 2.427 . S
Gd114 O152 2.388 . S
Gd114 O153 2.386 . S
Gd114 O157 2.307 . S
Gd114 C167 2.805 . S
Gd115 N110 2.622 . S
Gd115 N116 2.570 . S
Gd115 O147 2.386 . S
Gd115 O151 2.307 1_655 S
Gd115 O154 2.353 1_655 S
Gd115 O155 2.468 . S
Gd115 O156 2.427 . S
Gd115 O158 2.388 . S
Gd115 C179 2.805 . S
N116 C106 1.359 . S
N116 Gd115 2.570 . S
N116 C118 1.343 . S
C117 C105 1.392 1_565 S
C117 C119 1.319 1_565 S
C117 H125 0.964 . S
C118 N116 1.343 . S
C118 C119 1.390 . S
C118 H120 0.931 . S
C119 C117 1.319 1_545 S
C119 C118 1.390 . S
C119 H121 0.930 1_545 S
H120 C118 0.931 . S
H121 C119 0.930 1_565 S
H122 C145 0.931 . S
H123 C111 0.929 . S
H124 C146 0.930 . S
H125 C117 0.964 . S
H126 C107 0.930 . S
H127 C136 0.929 . S
H128 C112 0.931 . S
H129 C113 0.930 . S
H130 C168 0.930 . S
H131 C109 0.929 . S
H132 C137 0.931 . S
H133 C138 0.930 . S
N134 Gd114 2.622 . S
N134 C135 1.369 . S
N134 C136 1.338 . S
C135 N134 1.369 . S
C135 C139 1.415 . S
C135 C142 1.422 . S
C136 H127 0.929 . S
C136 N134 1.338 . S
C136 C138 1.378 . S
C137 H132 0.931 . S
C137 C138 1.348 . S
C137 C139 1.413 . S
C138 H133 0.930 . S
C138 C136 1.378 . S
C138 C137 1.348 . S
C139 C135 1.415 . S
C139 C137 1.413 . S
C139 C169 1.437 . S
H140 C169 0.929 . S
N141 Gd114 2.570 . S
N141 C142 1.359 . S
N141 C145 1.343 . S
C142 C135 1.422 . S
C142 N141 1.359 . S
C142 C144 1.421 . S
C143 C144 1.422 . S
C143 C146 1.321 . S
C143 H170 0.931 . S
C144 C142 1.421 . S
C144 C143 1.422 . S
C144 C168 1.417 . S
C145 H122 0.931 . S
C145 N141 1.343 . S
C145 C146 1.390 . S
C146 H124 0.930 . S
C146 C143 1.321 . S
C146 C145 1.390 . S
O147 Gd115 2.386 . S
O147 C159 1.265 . S
O148 Gd114 2.353 . S
O148 C159 1.242 1_455 S
O149 Gd114 2.468 . S
O149 C167 1.263 . S
O150 Gd114 2.427 . S
O150 C167 1.252 . S
O151 Gd115 2.307 1_455 S
O151 C160 1.261 . S
O152 Gd114 2.388 . S
O152 C160 1.252 . S
O153 Gd114 2.386 . S
O153 C171 1.265 . S
O154 Gd115 2.353 1_455 S
O154 C171 1.242 . S
O155 Gd115 2.468 . S
O155 C179 1.263 . S
O156 Gd115 2.427 . S
O156 C179 1.252 . S
O157 Gd114 2.307 . S
O157 C172 1.261 1_455 S
O158 Gd115 2.388 . S
O158 C172 1.252 . S
C159 O147 1.265 . S
C159 O148 1.242 1_655 S
C160 O151 1.261 . S
C160 O152 1.252 . S
C161 C164 1.394 . S
C161 C166 1.370 . S
C161 C167 1.500 . S
C162 C165 1.383 . S
C162 C166 1.395 . S
C163 C164 1.396 . S
C163 C165 1.365 . S
C163 H180 0.929 . S
C164 C161 1.394 . S
C164 C163 1.396 . S
C164 H181 0.930 . S
C165 C162 1.383 . S
C165 C163 1.365 . S
C165 H182 0.931 . S
C166 C161 1.370 . S
C166 C162 1.395 . S
C166 H183 0.930 . S
C167 Gd114 2.805 . S
C167 O149 1.263 . S
C167 O150 1.252 . S
C167 C161 1.500 . S
C168 H130 0.930 . S
C168 C144 1.417 . S
C168 C169 1.329 . S
C169 C139 1.437 . S
C169 H140 0.929 . S
C169 C168 1.329 . S
H170 C143 0.931 . S
C171 O153 1.265 . S
C171 O154 1.242 . S
C172 O157 1.261 1_655 S
C172 O158 1.252 . S
C173 C176 1.394 . S
C173 C178 1.370 . S
C173 C179 1.500 . S
C174 C177 1.383 . S
C174 C178 1.395 . S
C175 C176 1.396 . S
C175 C177 1.365 . S
C175 H184 0.929 . S
C176 C173 1.394 . S
C176 C175 1.396 . S
C176 H185 0.930 . S
C177 C174 1.383 . S
C177 C175 1.365 . S
C177 H186 0.931 . S
C178 C173 1.370 . S
C178 C174 1.395 . S
C178 H187 0.930 . S
C179 Gd115 2.805 . S
C179 O155 1.263 . S
C179 O156 1.252 . S
C179 C173 1.500 . S
H180 C163 0.929 . S
H181 C164 0.930 . S
H182 C165 0.931 . S
H183 C166 0.930 . S
H184 C175 0.929 . S
H185 C176 0.930 . S
H186 C177 0.931 . S
H187 C178 0.930 . S
C188 C190 1.422 . S
C188 C192 1.415 . S
C188 N194 1.369 . S
C189 C190 1.421 . S
C189 C191 1.417 . S
C189 C201 1.422 . S
C190 C188 1.422 . S
C190 C189 1.421 . S
C190 N200 1.359 . S
C191 C189 1.417 . S
C191 C193 1.329 . S
C191 H210 0.930 . S
C192 C188 1.415 . S
C192 C193 1.437 . S
C192 C196 1.413 . S
C193 C191 1.329 . S
C193 C192 1.437 . S
C193 H215 0.929 . S
N194 C188 1.369 . S
N194 C195 1.338 . S
N194 Gd199 2.622 . S
C195 N194 1.338 . S
C195 C197 1.378 . S
C195 H207 0.929 . S
C196 C192 1.413 . S
C196 C197 1.348 . S
C196 H212 0.931 . S
C197 C195 1.378 . S
C197 C196 1.348 . S
C197 H213 0.930 . S
Gd198 N218 2.622 . S
Gd198 N225 2.570 . S
Gd198 O232 2.353 . S
Gd198 O233 2.468 . S
Gd198 O234 2.427 . S
Gd198 O236 2.388 . S
Gd198 O237 2.386 . S
Gd198 O241 2.307 . S
Gd198 C251 2.805 . S
Gd199 N194 2.622 . S
Gd199 N200 2.570 . S
Gd199 O231 2.386 . S
Gd199 O235 2.307 . S
Gd199 O238 2.353 . S
Gd199 O239 2.468 . S
Gd199 O240 2.427 . S
Gd199 O242 2.388 . S
Gd199 C263 2.805 . S
N200 C190 1.359 . S
N200 Gd199 2.570 . S
N200 C202 1.343 . S
C201 C189 1.422 . S
C201 C203 1.321 . S
C201 H209 0.931 . S
C202 N200 1.343 . S
C202 C203 1.390 . S
C202 H204 0.931 . S
C203 C201 1.321 . S
C203 C202 1.390 . S
C203 H205 0.930 . S
H204 C202 0.931 . S
H205 C203 0.930 . S
H206 C229 0.931 . S
H207 C195 0.929 . S
H208 C230 0.930 . S
H209 C201 0.931 . S
H210 C191 0.930 . S
H211 C220 0.929 . S
H212 C196 0.931 . S
H213 C197 0.930 . S
H214 C252 0.930 . S
H215 C193 0.929 . S
H216 C221 0.931 . S
H217 C222 0.930 . S
N218 Gd198 2.622 . S
N218 C219 1.369 . S
N218 C220 1.338 . S
C219 N218 1.369 . S
C219 C223 1.415 . S
C219 C226 1.422 . S
C220 H211 0.929 . S
C220 N218 1.338 . S
C220 C222 1.378 . S
C221 H216 0.931 . S
C221 C222 1.348 . S
C221 C223 1.413 . S
C222 H217 0.930 . S
C222 C220 1.378 . S
C222 C221 1.348 . S
C223 C219 1.415 . S
C223 C221 1.413 . S
C223 C253 1.437 . S
H224 C253 0.929 . S
N225 Gd198 2.570 . S
N225 C226 1.359 . S
N225 C229 1.343 . S
C226 C219 1.422 . S
C226 N225 1.359 . S
C226 C228 1.421 . S
C227 C228 1.422 . S
C227 C230 1.321 . S
C227 H254 0.931 . S
C228 C226 1.421 . S
C228 C227 1.422 . S
C228 C252 1.417 . S
C229 H206 0.931 . S
C229 N225 1.343 . S
C229 C230 1.390 . S
C230 H208 0.930 . S
C230 C227 1.321 . S
C230 C229 1.390 . S
O231 Gd199 2.386 . S
O231 C243 1.265 . S
O232 Gd198 2.353 . S
O232 C243 1.242 . S
O233 Gd198 2.468 . S
O233 C251 1.263 . S
O234 Gd198 2.427 . S
O234 C251 1.252 . S
O235 Gd199 2.307 . S
O235 C244 1.261 . S
O236 Gd198 2.388 . S
O236 C244 1.252 . S
O237 Gd198 2.386 . S
O237 C255 1.265 . S
O238 Gd199 2.353 . S
O238 C255 1.242 . S
O239 Gd199 2.468 . S
O239 C263 1.263 . S
O240 Gd199 2.427 . S
O240 C263 1.252 . S
O241 Gd198 2.307 . S
O241 C256 1.261 . S
O242 Gd199 2.388 . S
O242 C256 1.252 . S
C243 O231 1.265 . S
C243 O232 1.242 . S
C244 O235 1.261 . S
C244 O236 1.252 . S
C245 C248 1.394 . S
C245 C250 1.370 . S
C245 C251 1.500 . S
C246 C249 1.383 . S
C246 C250 1.395 . S
C247 C248 1.396 . S
C247 C249 1.365 . S
C247 H264 0.929 . S
C248 C245 1.394 . S
C248 C247 1.396 . S
C248 H265 0.930 . S
C249 C246 1.383 . S
C249 C247 1.365 . S
C249 H266 0.931 . S
C250 C245 1.370 . S
C250 C246 1.395 . S
C250 H267 0.930 . S
C251 Gd198 2.805 . S
C251 O233 1.263 . S
C251 O234 1.252 . S
C251 C245 1.500 . S
C252 H214 0.930 . S
C252 C228 1.417 . S
C252 C253 1.329 . S
C253 C223 1.437 . S
C253 H224 0.929 . S
C253 C252 1.329 . S
H254 C227 0.931 . S
C255 O237 1.265 . S
C255 O238 1.242 . S
C256 O241 1.261 . S
C256 O242 1.252 . S
C257 C260 1.394 . S
C257 C262 1.370 . S
C257 C263 1.500 . S
C258 C261 1.383 . S
C258 C262 1.395 . S
C259 C260 1.396 . S
C259 C261 1.365 . S
C259 H268 0.929 . S
C260 C257 1.394 . S
C260 C259 1.396 . S
C260 H269 0.930 . S
C261 C258 1.383 . S
C261 C259 1.365 . S
C261 H270 0.931 . S
C262 C257 1.370 . S
C262 C258 1.395 . S
C262 H271 0.930 . S
C263 Gd199 2.805 . S
C263 O239 1.263 . S
C263 O240 1.252 . S
C263 C257 1.500 . S
H264 C247 0.929 . S
H265 C248 0.930 . S
H266 C249 0.931 . S
H267 C250 0.930 . S
H268 C259 0.929 . S
H269 C260 0.930 . S
H270 C261 0.931 . S
H271 C262 0.930 . S
C272 C274 1.422 . S
C272 C276 1.415 . S
C272 N278 1.369 . S
C273 C274 1.421 . S
C273 C275 1.417 . S
C273 C285 1.422 . S
C274 C272 1.422 . S
C274 C273 1.421 . S
C274 N284 1.359 . S
C275 C273 1.417 . S
C275 C277 1.329 . S
C275 H294 0.930 . S
C276 C272 1.415 . S
C276 C277 1.437 . S
C276 C280 1.413 . S
C277 C275 1.329 . S
C277 C276 1.437 . S
C277 H299 0.929 . S
N278 C272 1.369 . S
N278 C279 1.338 . S
N278 Gd283 2.622 . S
C279 N278 1.338 . S
C279 C281 1.378 . S
C279 H291 0.929 . S
C280 C276 1.413 . S
C280 C281 1.348 . S
C280 H296 0.931 . S
C281 C279 1.378 . S
C281 C280 1.348 . S
C281 H297 0.930 . S
Gd282 N302 2.622 . S
Gd282 N309 2.570 . S
Gd282 O316 2.353 . S
Gd282 O317 2.468 . S
Gd282 O318 2.427 . S
Gd282 O320 2.388 . S
Gd282 O321 2.386 . S
Gd282 O325 2.307 . S
Gd282 C335 2.805 . S
Gd283 N278 2.622 . S
Gd283 N284 2.570 . S
Gd283 O315 2.386 . S
Gd283 O319 2.307 1_655 S
Gd283 O322 2.353 1_655 S
Gd283 O323 2.468 . S
Gd283 O324 2.427 . S
Gd283 O326 2.388 . S
Gd283 C347 2.805 . S
N284 C274 1.359 . S
N284 Gd283 2.570 . S
N284 C286 1.343 . S
C285 C273 1.422 . S
C285 C287 1.321 . S
C285 H293 0.931 . S
C286 N284 1.343 . S
C286 C287 1.390 . S
C286 H288 0.931 . S
C287 C285 1.321 . S
C287 C286 1.390 . S
C287 H289 0.930 . S
H288 C286 0.931 . S
H289 C287 0.930 . S
H290 C313 0.931 . S
H291 C279 0.929 . S
H292 C314 0.930 1_545 S
H293 C285 0.931 . S
H294 C275 0.930 . S
H295 C304 0.929 . S
H296 C280 0.931 . S
H297 C281 0.930 . S
H298 C336 0.930 . S
H299 C277 0.929 . S
H300 C305 0.931 . S
H301 C306 0.930 . S
N302 Gd282 2.622 . S
N302 C303 1.369 . S
N302 C304 1.338 . S
C303 N302 1.369 . S
C303 C307 1.415 . S
C303 C310 1.422 . S
C304 H295 0.929 . S
C304 N302 1.338 . S
C304 C306 1.378 . S
C305 H300 0.931 . S
C305 C306 1.348 . S
C305 C307 1.413 . S
C306 H301 0.930 . S
C306 C304 1.378 . S
C306 C305 1.348 . S
C307 C303 1.415 . S
C307 C305 1.413 . S
C307 C337 1.437 . S
H308 C337 0.929 . S
N309 Gd282 2.570 . S
N309 C310 1.359 . S
N309 C313 1.343 . S
C310 C303 1.422 . S
C310 N309 1.359 . S
C310 C312 1.421 . S
C311 C312 1.422 1_545 S
C311 C314 1.321 1_545 S
C311 H338 0.931 . S
C312 C310 1.421 . S
C312 C311 1.422 1_565 S
C312 C336 1.417 . S
C313 H290 0.931 . S
C313 N309 1.343 . S
C313 C314 1.390 . S
C314 H292 0.930 1_565 S
C314 C311 1.321 1_565 S
C314 C313 1.390 . S
O315 Gd283 2.386 . S
O315 C327 1.265 . S
O316 Gd282 2.353 . S
O316 C327 1.242 1_455 S
O317 Gd282 2.468 . S
O317 C335 1.263 . S
O318 Gd282 2.427 . S
O318 C335 1.252 . S
O319 Gd283 2.307 1_455 S
O319 C328 1.261 . S
O320 Gd282 2.388 . S
O320 C328 1.252 . S
O321 Gd282 2.386 . S
O321 C339 1.265 . S
O322 Gd283 2.353 1_455 S
O322 C339 1.242 . S
O323 Gd283 2.468 . S
O323 C347 1.263 . S
O324 Gd283 2.427 . S
O324 C347 1.252 . S
O325 Gd282 2.307 . S
O325 C340 1.261 1_455 S
O326 Gd283 2.388 . S
O326 C340 1.252 . S
C327 O315 1.265 . S
C327 O316 1.242 1_655 S
C328 O319 1.261 . S
C328 O320 1.252 . S
C329 C332 1.394 . S
C329 C334 1.370 . S
C329 C335 1.500 . S
C330 C333 1.383 . S
C330 C334 1.395 . S
C331 C332 1.396 . S
C331 C333 1.365 . S
C331 H348 0.929 . S
C332 C329 1.394 . S
C332 C331 1.396 . S
C332 H349 0.930 . S
C333 C330 1.383 . S
C333 C331 1.365 . S
C333 H350 0.931 . S
C334 C329 1.370 . S
C334 C330 1.395 . S
C334 H351 0.930 . S
C335 Gd282 2.805 . S
C335 O317 1.263 . S
C335 O318 1.252 . S
C335 C329 1.500 . S
C336 H298 0.930 . S
C336 C312 1.417 . S
C336 C337 1.329 . S
C337 C307 1.437 . S
C337 H308 0.929 . S
C337 C336 1.329 . S
H338 C311 0.931 . S
C339 O321 1.265 . S
C339 O322 1.242 . S
C340 O325 1.261 1_655 S
C340 O326 1.252 . S
C341 C344 1.394 . S
C341 C346 1.370 . S
C341 C347 1.500 . S
C342 C345 1.383 . S
C342 C346 1.395 . S
C343 C344 1.396 . S
C343 C345 1.365 . S
C343 H352 0.929 . S
C344 C341 1.394 . S
C344 C343 1.396 . S
C344 H353 0.930 . S
C345 C342 1.383 . S
C345 C343 1.365 . S
C345 H354 0.931 . S
C346 C341 1.370 . S
C346 C342 1.395 . S
C346 H355 0.930 . S
C347 Gd283 2.805 . S
C347 O323 1.263 . S
C347 O324 1.252 . S
C347 C341 1.500 . S
H348 C331 0.929 . S
H349 C332 0.930 . S
H350 C333 0.931 . S
H351 C334 0.930 . S
H352 C343 0.929 . S
H353 C344 0.930 . S
H354 C345 0.931 . S
H355 C346 0.930 . S
C356 C358 1.422 . S
C356 C360 1.415 . S
C356 N362 1.369 . S
C357 C358 1.421 . S
C357 C359 1.417 . S
C357 C369 1.422 . S
C358 C356 1.422 . S
C358 C357 1.421 . S
C358 N368 1.359 . S
C359 C357 1.417 . S
C359 C361 1.329 . S
C359 H378 0.930 . S
C360 C356 1.415 . S
C360 C361 1.437 . S
C360 C364 1.413 . S
C361 C359 1.329 . S
C361 C360 1.437 . S
C361 H383 0.929 . S
N362 C356 1.369 . S
N362 C363 1.338 . S
N362 Gd367 2.622 . S
C363 N362 1.338 . S
C363 C365 1.378 . S
C363 H375 0.929 . S
C364 C360 1.413 . S
C364 C365 1.348 . S
C364 H380 0.931 . S
C365 C363 1.378 . S
C365 C364 1.348 . S
C365 H381 0.930 . S
Gd366 N386 2.622 . S
Gd366 N393 2.570 . S
Gd366 O400 2.353 . S
Gd366 O401 2.468 . S
Gd366 O402 2.427 . S
Gd366 O404 2.388 . S
Gd366 O405 2.386 . S
Gd366 O409 2.307 . S
Gd366 C419 2.805 . S
Gd367 N362 2.622 . S
Gd367 N368 2.570 . S
Gd367 O399 2.386 . S
Gd367 O403 2.307 . S
Gd367 O406 2.353 . S
Gd367 O407 2.468 . S
Gd367 O408 2.427 . S
Gd367 O410 2.388 . S
Gd367 C431 2.805 . S
N368 C358 1.359 . S
N368 Gd367 2.570 . S
N368 C370 1.343 . S
C369 C357 1.422 . S
C369 C371 1.321 . S
C369 H377 0.931 . S
C370 N368 1.343 . S
C370 C371 1.390 . S
C370 H372 0.931 . S
C371 C369 1.321 . S
C371 C370 1.390 . S
C371 H373 0.930 . S
H372 C370 0.931 . S
H373 C371 0.930 . S
H374 C397 0.931 . S
H375 C363 0.929 . S
H376 C398 0.930 . S
H377 C369 0.931 . S
H378 C359 0.930 . S
H379 C388 0.929 . S
H380 C364 0.931 . S
H381 C365 0.930 . S
H382 C420 0.930 . S
H383 C361 0.929 . S
H384 C389 0.931 . S
H385 C390 0.930 . S
N386 Gd366 2.622 . S
N386 C387 1.369 . S
N386 C388 1.338 . S
C387 N386 1.369 . S
C387 C391 1.415 . S
C387 C394 1.422 . S
C388 H379 0.929 . S
C388 N386 1.338 . S
C388 C390 1.378 . S
C389 H384 0.931 . S
C389 C390 1.348 . S
C389 C391 1.413 . S
C390 H385 0.930 . S
C390 C388 1.378 . S
C390 C389 1.348 . S
C391 C387 1.415 . S
C391 C389 1.413 . S
C391 C421 1.437 . S
H392 C421 0.929 . S
N393 Gd366 2.570 . S
N393 C394 1.359 . S
N393 C397 1.343 . S
C394 C387 1.422 . S
C394 N393 1.359 . S
C394 C396 1.421 . S
C395 C396 1.422 . S
C395 C398 1.321 . S
C395 H422 0.931 . S
C396 C394 1.421 . S
C396 C395 1.422 . S
C396 C420 1.417 . S
C397 H374 0.931 . S
C397 N393 1.343 . S
C397 C398 1.390 . S
C398 H376 0.930 . S
C398 C395 1.321 . S
C398 C397 1.390 . S
O399 Gd367 2.386 . S
O399 C411 1.265 . S
O400 Gd366 2.353 . S
O400 C411 1.242 . S
O401 Gd366 2.468 . S
O401 C419 1.263 . S
O402 Gd366 2.427 . S
O402 C419 1.252 . S
O403 Gd367 2.307 . S
O403 C412 1.261 . S
O404 Gd366 2.388 . S
O404 C412 1.252 . S
O405 Gd366 2.386 . S
O405 C423 1.265 . S
O406 Gd367 2.353 . S
O406 C423 1.242 . S
O407 Gd367 2.468 . S
O407 C431 1.263 . S
O408 Gd367 2.427 . S
O408 C431 1.252 . S
O409 Gd366 2.307 . S
O409 C424 1.261 . S
O410 Gd367 2.388 . S
O410 C424 1.252 . S
C411 O399 1.265 . S
C411 O400 1.242 . S
C412 O403 1.261 . S
C412 O404 1.252 . S
C413 C416 1.394 . S
C413 C418 1.370 . S
C413 C419 1.500 . S
C414 C417 1.383 . S
C414 C418 1.395 . S
C415 C416 1.396 . S
C415 C417 1.365 . S
C415 H432 0.929 . S
C416 C413 1.394 . S
C416 C415 1.396 . S
C416 H433 0.930 . S
C417 C414 1.383 . S
C417 C415 1.365 . S
C417 H434 0.931 . S
C418 C413 1.370 . S
C418 C414 1.395 . S
C418 H435 0.930 . S
C419 Gd366 2.805 . S
C419 O401 1.263 . S
C419 O402 1.252 . S
C419 C413 1.500 . S
C420 H382 0.930 . S
C420 C396 1.417 . S
C420 C421 1.329 . S
C421 C391 1.437 . S
C421 H392 0.929 . S
C421 C420 1.329 . S
H422 C395 0.931 . S
C423 O405 1.265 . S
C423 O406 1.242 . S
C424 O409 1.261 . S
C424 O410 1.252 . S
C425 C428 1.394 . S
C425 C430 1.370 . S
C425 C431 1.500 . S
C426 C429 1.383 . S
C426 C430 1.395 . S
C427 C428 1.396 . S
C427 C429 1.365 . S
C427 H436 0.929 . S
C428 C425 1.394 . S
C428 C427 1.396 . S
C428 H437 0.930 . S
C429 C426 1.383 . S
C429 C427 1.365 . S
C429 H438 0.931 . S
C430 C425 1.370 . S
C430 C426 1.395 . S
C430 H439 0.930 . S
C431 Gd367 2.805 . S
C431 O407 1.263 . S
C431 O408 1.252 . S
C431 C425 1.500 . S
H432 C415 0.929 . S
H433 C416 0.930 . S
H434 C417 0.931 . S
H435 C418 0.930 . S
H436 C427 0.929 . S
H437 C428 0.930 . S
H438 C429 0.931 . S
H439 C430 0.930 . S
C440 C441 1.391 . S
C440 C442 1.394 . S
C440 H456 0.931 . S
C441 C440 1.391 . S
C441 C445 1.376 . S
C442 C440 1.394 . S
C442 C443 1.369 . S
C442 C446 1.531 . S
C443 C442 1.369 . S
C443 C444 1.410 . S
C443 C451 1.503 . S
C444 C443 1.410 . S
C444 C445 1.392 . S
C444 C447 1.511 . S
C445 C441 1.376 . S
C445 C444 1.392 . S
C445 H457 0.929 . S
C446 C442 1.531 . S
C446 H458 0.960 1_565 S
C446 H459 0.962 . S
C446 H460 0.960 . S
C447 C444 1.511 . S
C447 H461 0.961 . S
C447 H462 0.961 . S
C447 H463 0.961 . S
C448 C449 1.370 . S
C448 C450 1.363 1_545 S
C448 H464 0.931 1_545 S
C449 C448 1.370 . S
C449 C453 1.408 . S
C450 C448 1.363 1_565 S
C450 C451 1.370 . S
C450 C454 1.524 . S
C451 C443 1.503 . S
C451 C450 1.370 . S
C451 C452 1.403 1_565 S
C452 C451 1.403 1_545 S
C452 C453 1.404 . S
C452 C455 1.539 . S
C453 C449 1.408 . S
C453 C452 1.404 . S
C453 H465 0.930 . S
C454 C450 1.524 . S
C454 H466 0.956 . S
C454 H467 0.961 . S
C454 H468 0.961 . S
C455 C452 1.539 . S
C455 H469 0.958 . S
C455 H470 0.961 . S
C455 H471 0.960 . S
H456 C440 0.931 . S
H457 C445 0.929 . S
H458 C446 0.960 1_545 S
H459 C446 0.962 . S
H460 C446 0.960 . S
H461 C447 0.961 . S
H462 C447 0.961 . S
H463 C447 0.961 . S
H464 C448 0.931 1_565 S
H465 C453 0.930 . S
H466 C454 0.956 . S
H467 C454 0.961 . S
H468 C454 0.961 . S
H469 C455 0.958 . S
H470 C455 0.961 . S
H471 C455 0.960 . S
C472 C473 1.391 . S
C472 C474 1.394 . S
C472 H488 0.931 . S
C473 C472 1.391 . S
C473 C477 1.376 . S
C474 C472 1.394 . S
C474 C475 1.369 . S
C474 C478 1.531 . S
C475 C474 1.369 . S
C475 C476 1.410 . S
C475 C483 1.503 . S
C476 C475 1.410 . S
C476 C477 1.392 . S
C476 C479 1.511 . S
C477 C473 1.376 . S
C477 C476 1.392 . S
C477 H489 0.929 . S
C478 C474 1.531 . S
C478 H490 0.960 . S
C478 H491 0.962 . S
C478 H492 0.960 . S
C479 C476 1.511 . S
C479 H493 0.961 . S
C479 H494 0.961 . S
C479 H495 0.961 . S
C480 C481 1.370 . S
C480 C482 1.363 . S
C480 H496 0.931 . S
C481 C480 1.370 . S
C481 C485 1.408 . S
C482 C480 1.363 . S
C482 C483 1.370 . S
C482 C486 1.524 . S
C483 C475 1.503 . S
C483 C482 1.370 . S
C483 C484 1.403 . S
C484 C483 1.403 . S
C484 C485 1.404 . S
C484 C487 1.539 . S
C485 C481 1.408 . S
C485 C484 1.404 . S
C485 H497 0.930 . S
C486 C482 1.524 . S
C486 H498 0.956 . S
C486 H499 0.961 . S
C486 H500 0.961 . S
C487 C484 1.539 . S
C487 H501 0.958 . S
C487 H502 0.961 . S
C487 H503 0.960 . S
H488 C472 0.931 . S
H489 C477 0.929 . S
H490 C478 0.960 . S
H491 C478 0.962 . S
H492 C478 0.960 . S
H493 C479 0.961 . S
H494 C479 0.961 . S
H495 C479 0.961 . S
H496 C480 0.931 . S
H497 C485 0.930 . S
H498 C486 0.956 . S
H499 C486 0.961 . S
H500 C486 0.961 . S
H501 C487 0.958 . S
H502 C487 0.961 . S
H503 C487 0.960 . S
C504 C505 1.391 . S
C504 C506 1.394 . S
C504 H520 0.931 . S
C505 C504 1.391 . S
C505 C509 1.376 . S
C506 C504 1.394 . S
C506 C507 1.369 . S
C506 C510 1.531 . S
C507 C506 1.369 . S
C507 C508 1.410 . S
C507 C515 1.503 . S
C508 C507 1.410 . S
C508 C509 1.392 . S
C508 C511 1.511 . S
C509 C505 1.376 . S
C509 C508 1.392 . S
C509 H521 0.929 . S
C510 C506 1.531 . S
C510 H522 0.960 . S
C510 H523 0.962 . S
C510 H524 0.960 . S
C511 C508 1.511 . S
C511 H525 0.961 . S
C511 H526 0.961 . S
C511 H527 0.961 . S
C512 C513 1.370 . S
C512 C514 1.363 . S
C512 H528 0.931 . S
C513 C512 1.370 . S
C513 C517 1.408 . S
C514 C512 1.363 . S
C514 C515 1.370 . S
C514 C518 1.524 . S
C515 C507 1.503 . S
C515 C514 1.370 . S
C515 C516 1.403 . S
C516 C515 1.403 . S
C516 C517 1.404 . S
C516 C519 1.539 . S
C517 C513 1.408 . S
C517 C516 1.404 . S
C517 H529 0.930 . S
C518 C514 1.524 . S
C518 H530 0.956 . S
C518 H531 0.961 . S
C518 H532 0.961 . S
C519 C516 1.539 . S
C519 H533 0.958 . S
C519 H534 0.961 . S
C519 H535 0.960 . S
H520 C504 0.931 . S
H521 C509 0.929 . S
H522 C510 0.960 . S
H523 C510 0.962 . S
H524 C510 0.960 . S
H525 C511 0.961 . S
H526 C511 0.961 . S
H527 C511 0.961 . S
H528 C512 0.931 . S
H529 C517 0.930 . S
H530 C518 0.956 . S
H531 C518 0.961 . S
H532 C518 0.961 . S
H533 C519 0.958 . S
H534 C519 0.961 . S
H535 C519 0.960 . S
C536 C537 1.391 . S
C536 C538 1.394 . S
C536 H552 0.931 . S
C537 C536 1.391 . S
C537 C541 1.376 . S
C538 C536 1.394 . S
C538 C539 1.369 . S
C538 C542 1.531 . S
C539 C538 1.369 . S
C539 C540 1.410 . S
C539 C547 1.503 . S
C540 C539 1.410 . S
C540 C541 1.392 . S
C540 C543 1.511 . S
C541 C537 1.376 . S
C541 C540 1.392 . S
C541 H553 0.929 . S
C542 C538 1.531 . S
C542 H554 0.960 1_565 S
C542 H555 0.962 . S
C542 H556 0.960 . S
C543 C540 1.511 . S
C543 H557 0.961 . S
C543 H558 0.961 . S
C543 H559 0.961 . S
C544 C545 1.370 . S
C544 C546 1.363 1_545 S
C544 H560 0.931 1_545 S
C545 C544 1.370 . S
C545 C549 1.408 . S
C546 C544 1.363 1_565 S
C546 C547 1.370 . S
C546 C550 1.524 . S
C547 C539 1.503 . S
C547 C546 1.370 . S
C547 C548 1.403 1_565 S
C548 C547 1.403 1_545 S
C548 C549 1.404 . S
C548 C551 1.539 . S
C549 C545 1.408 . S
C549 C548 1.404 . S
C549 H561 0.930 . S
C550 C546 1.524 . S
C550 H562 0.956 . S
C550 H563 0.961 . S
C550 H564 0.961 . S
C551 C548 1.539 . S
C551 H565 0.958 . S
C551 H566 0.961 . S
C551 H567 0.960 . S
H552 C536 0.931 . S
H553 C541 0.929 . S
H554 C542 0.960 1_545 S
H555 C542 0.962 . S
H556 C542 0.960 . S
H557 C543 0.961 . S
H558 C543 0.961 . S
H559 C543 0.961 . S
H560 C544 0.931 1_565 S
H561 C549 0.930 . S
H562 C550 0.956 . S
H563 C550 0.961 . S
H564 C550 0.961 . S
H565 C551 0.958 . S
H566 C551 0.961 . S
H567 C551 0.960 . S
C568 C569 1.391 . S
C568 C570 1.394 . S
C568 H584 0.931 . S
C569 C568 1.391 . S
C569 C573 1.376 . S
C570 C568 1.394 . S
C570 C571 1.369 . S
C570 C574 1.531 . S
C571 C570 1.369 . S
C571 C572 1.410 . S
C571 C579 1.503 . S
C572 C571 1.410 . S
C572 C573 1.392 . S
C572 C575 1.511 . S
C573 C569 1.376 . S
C573 C572 1.392 . S
C573 H585 0.929 . S
C574 C570 1.531 . S
C574 H586 0.960 . S
C574 H587 0.962 . S
C574 H588 0.960 . S
C575 C572 1.511 . S
C575 H589 0.961 . S
C575 H590 0.961 . S
C575 H591 0.972 . S
C576 C577 1.370 . S
C576 C578 1.363 1_565 S
C576 H592 0.931 1_565 S
C577 C576 1.370 . S
C577 C581 1.408 . S
C578 C576 1.363 1_545 S
C578 C579 1.370 . S
C578 C582 1.524 . S
C579 C571 1.503 . S
C579 C578 1.370 . S
C579 C580 1.403 1_545 S
C580 C579 1.403 1_565 S
C580 C581 1.404 . S
C580 C583 1.539 . S
C581 C577 1.408 . S
C581 C580 1.404 . S
C581 H593 0.930 . S
C582 C578 1.524 . S
C582 H594 0.956 . S
C582 H595 0.961 . S
C582 H596 0.961 . S
C583 C580 1.539 . S
C583 H597 0.958 . S
C583 H598 0.961 . S
C583 H599 0.960 . S
H584 C568 0.931 . S
H585 C573 0.929 . S
H586 C574 0.960 . S
H587 C574 0.962 . S
H588 C574 0.960 . S
H589 C575 0.961 . S
H590 C575 0.961 . S
H591 C575 0.972 . S
H592 C576 0.931 1_545 S
H593 C581 0.930 . S
H594 C582 0.956 . S
H595 C582 0.961 . S
H596 C582 0.961 . S
H597 C583 0.958 . S
H598 C583 0.961 . S
H599 C583 0.960 . S
C600 C601 1.391 . S
C600 C602 1.394 . S
C600 H616 0.931 . S
C601 C600 1.391 . S
C601 C605 1.376 . S
C602 C600 1.394 . S
C602 C603 1.369 . S
C602 C606 1.531 . S
C603 C602 1.369 . S
C603 C604 1.410 . S
C603 C611 1.503 . S
C604 C603 1.410 . S
C604 C605 1.392 . S
C604 C607 1.511 . S
C605 C601 1.376 . S
C605 C604 1.392 . S
C605 H617 0.929 . S
C606 C602 1.531 . S
C606 H618 0.960 . S
C606 H619 0.962 . S
C606 H620 0.960 . S
C607 C604 1.511 . S
C607 H621 0.961 . S
C607 H622 0.961 . S
C607 H623 0.961 . S
C608 C609 1.370 . S
C608 C610 1.363 . S
C608 H624 0.931 . S
C609 C608 1.370 . S
C609 C613 1.408 . S
C610 C608 1.363 . S
C610 C611 1.370 . S
C610 C614 1.524 . S
C611 C603 1.503 . S
C611 C610 1.370 . S
C611 C612 1.403 . S
C612 C611 1.403 . S
C612 C613 1.404 . S
C612 C615 1.539 . S
C613 C609 1.408 . S
C613 C612 1.404 . S
C613 H625 0.930 . S
C614 C610 1.524 . S
C614 H626 0.956 . S
C614 H627 0.961 . S
C614 H628 0.961 . S
C615 C612 1.539 . S
C615 H629 0.958 . S
C615 H630 0.961 . S
C615 H631 0.960 . S
H616 C600 0.931 . S
H617 C605 0.929 . S
H618 C606 0.960 . S
H619 C606 0.962 . S
H620 C606 0.960 . S
H621 C607 0.961 . S
H622 C607 0.961 . S
H623 C607 0.961 . S
H624 C608 0.931 . S
H625 C613 0.930 . S
H626 C614 0.956 . S
H627 C614 0.961 . S
H628 C614 0.961 . S
H629 C615 0.958 . S
H630 C615 0.961 . S
H631 C615 0.960 . S
C632 C633 1.391 . S
C632 C634 1.394 . S
C632 H648 0.931 . S
C633 C632 1.391 . S
C633 C637 1.376 . S
C634 C632 1.394 . S
C634 C635 1.369 . S
C634 C638 1.531 . S
C635 C634 1.369 . S
C635 C636 1.410 . S
C635 C643 1.503 . S
C636 C635 1.410 . S
C636 C637 1.392 . S
C636 C639 1.511 . S
C637 C633 1.376 . S
C637 C636 1.392 . S
C637 H649 0.929 . S
C638 C634 1.531 . S
C638 H650 0.960 . S
C638 H651 0.962 . S
C638 H652 0.960 . S
C639 C636 1.511 . S
C639 H653 0.961 . S
C639 H654 0.961 . S
C639 H655 0.961 . S
C640 C641 1.370 . S
C640 C642 1.363 . S
C640 H656 0.931 . S
C641 C640 1.370 . S
C641 C645 1.408 . S
C642 C640 1.363 . S
C642 C643 1.370 . S
C642 C646 1.524 . S
C643 C635 1.503 . S
C643 C642 1.370 . S
C643 C644 1.403 . S
C644 C643 1.403 . S
C644 C645 1.404 . S
C644 C647 1.539 . S
C645 C641 1.408 . S
C645 C644 1.404 . S
C645 H657 0.930 . S
C646 C642 1.524 . S
C646 H658 0.956 . S
C646 H659 0.961 . S
C646 H660 0.961 . S
C647 C644 1.539 . S
C647 H661 0.958 . S
C647 H662 0.961 . S
C647 H663 0.960 . S
H648 C632 0.931 . S
H649 C637 0.929 . S
H650 C638 0.960 . S
H651 C638 0.962 . S
H652 C638 0.960 . S
H653 C639 0.961 . S
H654 C639 0.961 . S
H655 C639 0.961 . S
H656 C640 0.931 . S
H657 C645 0.930 . S
H658 C646 0.956 . S
H659 C646 0.961 . S
H660 C646 0.961 . S
H661 C647 0.958 . S
H662 C647 0.961 . S
H663 C647 0.960 . S
C664 C665 1.391 . S
C664 C666 1.394 . S
C664 H680 0.931 . S
C665 C664 1.391 . S
C665 C669 1.376 . S
C666 C664 1.394 . S
C666 C667 1.369 . S
C666 C670 1.531 . S
C667 C666 1.369 . S
C667 C668 1.410 . S
C667 C675 1.503 . S
C668 C667 1.410 . S
C668 C669 1.392 . S
C668 C671 1.511 . S
C669 C665 1.376 . S
C669 C668 1.392 . S
C669 H681 0.929 . S
C670 C666 1.531 . S
C670 H682 0.960 1_545 S
C670 H683 0.962 . S
C670 H684 0.960 . S
C671 C668 1.511 . S
C671 H685 0.961 . S
C671 H686 0.961 . S
C671 H687 0.961 . S
C672 C673 1.370 . S
C672 C674 1.363 1_565 S
C672 H688 0.931 1_565 S
C673 C672 1.370 . S
C673 C677 1.408 . S
C674 C672 1.363 1_545 S
C674 C675 1.370 . S
C674 C678 1.524 . S
C675 C667 1.503 . S
C675 C674 1.370 . S
C675 C676 1.403 1_545 S
C676 C675 1.403 1_565 S
C676 C677 1.404 . S
C676 C679 1.539 . S
C677 C673 1.408 . S
C677 C676 1.404 . S
C677 H689 0.930 . S
C678 C674 1.524 . S
C678 H690 0.956 . S
C678 H691 0.961 . S
C678 H692 0.961 . S
C679 C676 1.539 . S
C679 H693 0.958 . S
C679 H694 0.961 . S
C679 H695 0.960 . S
H680 C664 0.931 . S
H681 C669 0.929 . S
H682 C670 0.960 1_565 S
H683 C670 0.962 . S
H684 C670 0.960 . S
H685 C671 0.961 . S
H686 C671 0.961 . S
H687 C671 0.961 . S
H688 C672 0.931 1_545 S
H689 C677 0.930 . S
H690 C678 0.956 . S
H691 C678 0.961 . S
H692 C678 0.961 . S
H693 C679 0.958 . S
H694 C679 0.961 . S
H695 C679 0.960 . S
C696 C697 1.391 . S
C696 C698 1.413 . S
C696 H712 0.931 . S
C697 C696 1.391 . S
C697 C701 1.376 . S
C698 C696 1.413 . S
C698 C699 1.367 1_556 S
C698 C702 1.513 1_556 S
C699 C698 1.367 1_554 S
C699 C700 1.410 1_554 S
C699 C707 1.503 . S
C700 C699 1.410 1_556 S
C700 C701 1.392 . S
C700 C703 1.511 . S
C701 C697 1.376 . S
C701 C700 1.392 . S
C701 H713 0.929 . S
C702 C698 1.513 1_554 S
C702 H714 0.960 . S
C702 H715 0.962 . S
C702 H716 0.960 . S
C703 C700 1.511 . S
C703 H717 0.961 . S
C703 H718 0.961 . S
C703 H719 0.961 . S
C704 C705 1.370 . S
C704 C706 1.363 . S
C704 H720 0.931 . S
C705 C704 1.370 . S
C705 C709 1.408 . S
C706 C704 1.363 . S
C706 C707 1.370 . S
C706 C710 1.524 . S
C707 C699 1.503 . S
C707 C706 1.370 . S
C707 C708 1.403 . S
C708 C707 1.403 . S
C708 C709 1.404 . S
C708 C711 1.539 . S
C709 C705 1.408 . S
C709 C708 1.404 . S
C709 H721 0.930 . S
C710 C706 1.524 . S
C710 H722 0.956 . S
C710 H723 0.961 . S
C710 H724 0.961 . S
C711 C708 1.539 . S
C711 H725 0.958 . S
C711 H726 0.961 . S
C711 H727 0.960 . S
H712 C696 0.931 . S
H713 C701 0.929 . S
H714 C702 0.960 . S
H715 C702 0.962 . S
H716 C702 0.960 . S
H717 C703 0.961 . S
H718 C703 0.961 . S
H719 C703 0.961 . S
H720 C704 0.931 . S
H721 C709 0.930 . S
H722 C710 0.956 . S
H723 C710 0.961 . S
H724 C710 0.961 . S
H725 C711 0.958 . S
H726 C711 0.961 . S
H727 C711 0.960 . S
C728 C729 1.391 . S
C728 C730 1.394 . S
C728 H744 0.931 . S
C729 C728 1.391 . S
C729 C733 1.376 . S
C730 C728 1.394 . S
C730 C731 1.369 . S
C730 C734 1.531 . S
C731 C730 1.369 . S
C731 C732 1.410 . S
C731 C739 1.503 . S
C732 C731 1.410 . S
C732 C733 1.392 . S
C732 C735 1.511 . S
C733 C729 1.376 . S
C733 C732 1.392 . S
C733 H745 0.929 . S
C734 C730 1.531 . S
C734 H746 0.960 . S
C734 H747 0.962 . S
C734 H748 0.960 . S
C735 C732 1.511 . S
C735 H749 0.961 . S
C735 H750 0.961 . S
C735 H751 0.961 . S
C736 C737 1.370 . S
C736 C738 1.363 . S
C736 H752 0.931 . S
C737 C736 1.370 . S
C737 C741 1.408 . S
C738 C736 1.363 . S
C738 C739 1.370 . S
C738 C742 1.524 . S
C739 C731 1.503 . S
C739 C738 1.370 . S
C739 C740 1.403 . S
C740 C739 1.403 . S
C740 C741 1.404 . S
C740 C743 1.539 . S
C741 C737 1.408 . S
C741 C740 1.404 . S
C741 H753 0.930 . S
C742 C738 1.524 . S
C742 H754 0.956 . S
C742 H755 0.961 . S
C742 H756 0.961 . S
C743 C740 1.539 . S
C743 H757 0.958 . S
C743 H758 0.961 . S
C743 H759 0.960 . S
H744 C728 0.931 . S
H745 C733 0.929 . S
H746 C734 0.960 . S
H747 C734 0.962 . S
H748 C734 0.960 . S
H749 C735 0.961 . S
H750 C735 0.961 . S
H751 C735 0.961 . S
H752 C736 0.931 . S
H753 C741 0.930 . S
H754 C742 0.956 . S
H755 C742 0.961 . S
H756 C742 0.961 . S
H757 C743 0.958 . S
H758 C743 0.961 . S
H759 C743 0.960 . S
C760 C761 1.391 . S
C760 C762 1.394 . S
C760 H776 0.931 . S
C761 C760 1.391 . S
C761 C765 1.376 . S
C762 C760 1.394 . S
C762 C763 1.369 1_554 S
C762 C766 1.531 . S
C763 C762 1.369 1_556 S
C763 C764 1.410 1_556 S
C763 C771 1.503 . S
C764 C763 1.410 1_554 S
C764 C765 1.392 . S
C764 C767 1.511 1_554 S
C765 C761 1.376 . S
C765 C764 1.392 . S
C765 H777 0.929 . S
C766 C762 1.531 . S
C766 H778 0.960 1_554 S
C766 H779 0.962 . S
C766 H780 0.960 . S
C767 C764 1.511 1_556 S
C767 H781 0.961 . S
C767 H782 0.961 . S
C767 H783 0.961 . S
C768 C769 1.370 . S
C768 C770 1.363 . S
C768 H784 0.931 . S
C769 C768 1.370 . S
C769 C773 1.408 . S
C770 C768 1.363 . S
C770 C771 1.370 . S
C770 C774 1.524 . S
C771 C763 1.503 . S
C771 C770 1.370 . S
C771 C772 1.403 . S
C772 C771 1.403 . S
C772 C773 1.404 . S
C772 C775 1.539 . S
C773 C769 1.408 . S
C773 C772 1.404 . S
C773 H785 0.930 . S
C774 C770 1.524 . S
C774 H786 0.956 1_556 S
C774 H787 0.961 . S
C774 H788 0.961 . S
C775 C772 1.539 . S
C775 H789 0.958 . S
C775 H790 0.961 . S
C775 H791 0.960 . S
H776 C760 0.931 . S
H777 C765 0.929 . S
H778 C766 0.960 1_556 S
H779 C766 0.962 . S
H780 C766 0.960 . S
H781 C767 0.961 . S
H782 C767 0.961 . S
H783 C767 0.961 . S
H784 C768 0.931 . S
H785 C773 0.930 . S
H786 C774 0.956 1_554 S
H787 C774 0.961 . S
H788 C774 0.961 . S
H789 C775 0.958 . S
H790 C775 0.961 . S
H791 C775 0.960 . S
C792 C793 1.391 . S
C792 C794 1.394 . S
C792 H808 0.931 . S
C793 C792 1.391 . S
C793 C797 1.376 . S
C794 C792 1.394 . S
C794 C795 1.369 . S
C794 C798 1.531 . S
C795 C794 1.369 . S
C795 C796 1.410 . S
C795 C803 1.503 . S
C796 C795 1.410 . S
C796 C797 1.392 . S
C796 C799 1.511 . S
C797 C793 1.376 . S
C797 C796 1.392 . S
C797 H809 0.929 . S
C798 C794 1.531 . S
C798 H810 0.960 . S
C798 H811 0.962 . S
C798 H812 0.960 . S
C799 C796 1.511 . S
C799 H813 0.961 . S
C799 H814 0.961 . S
C799 H815 0.961 . S
C800 C801 1.370 . S
C800 C802 1.363 . S
C800 H816 0.931 . S
C801 C800 1.370 . S
C801 C805 1.408 . S
C802 C800 1.363 . S
C802 C803 1.370 . S
C802 C806 1.524 . S
C803 C795 1.503 . S
C803 C802 1.370 . S
C803 C804 1.403 . S
C804 C803 1.403 . S
C804 C805 1.404 . S
C804 C807 1.539 . S
C805 C801 1.408 . S
C805 C804 1.404 . S
C805 H817 0.930 . S
C806 C802 1.524 . S
C806 H818 0.956 . S
C806 H819 0.961 . S
C806 H820 0.961 . S
C807 C804 1.539 . S
C807 H821 0.958 . S
C807 H822 0.961 . S
C807 H823 0.960 . S
H808 C792 0.931 . S
H809 C797 0.929 . S
H810 C798 0.960 . S
H811 C798 0.962 . S
H812 C798 0.960 . S
H813 C799 0.961 . S
H814 C799 0.961 . S
H815 C799 0.961 . S
H816 C800 0.931 . S
H817 C805 0.930 . S
H818 C806 0.956 . S
H819 C806 0.961 . S
H820 C806 0.961 . S
H821 C807 0.958 . S
H822 C807 0.961 . S
H823 C807 0.960 . S
C824 C825 1.391 . S
C824 C826 1.394 1_554 S
C824 H840 0.931 . S
C825 C824 1.391 . S
C825 C829 1.376 . S
C826 C824 1.394 1_556 S
C826 C827 1.369 . S
C826 C830 1.531 . S
C827 C826 1.369 . S
C827 C828 1.410 1_556 S
C827 C835 1.503 . S
C828 C827 1.410 1_554 S
C828 C829 1.392 . S
C828 C831 1.511 . S
C829 C825 1.376 . S
C829 C828 1.392 . S
C829 H841 0.929 . S
C830 C826 1.531 . S
C830 H842 0.960 . S
C830 H843 0.962 . S
C830 H844 0.960 . S
C831 C828 1.511 . S
C831 H845 0.961 . S
C831 H846 0.961 1_554 S
C831 H847 0.961 . S
C832 C833 1.370 . S
C832 C834 1.363 . S
C832 H848 0.931 . S
C833 C832 1.370 . S
C833 C837 1.408 . S
C834 C832 1.363 . S
C834 C835 1.370 . S
C834 C838 1.524 . S
C835 C827 1.503 . S
C835 C834 1.370 . S
C835 C836 1.403 . S
C836 C835 1.403 . S
C836 C837 1.404 . S
C836 C839 1.539 . S
C837 C833 1.408 . S
C837 C836 1.404 . S
C837 H849 0.930 . S
C838 C834 1.524 . S
C838 H850 0.956 . S
C838 H851 0.961 . S
C838 H852 0.961 . S
C839 C836 1.539 . S
C839 H853 0.958 . S
C839 H854 0.961 . S
C839 H855 0.960 . S
H840 C824 0.931 . S
H841 C829 0.929 . S
H842 C830 0.960 . S
H843 C830 0.962 . S
H844 C830 0.960 . S
H845 C831 0.961 . S
H846 C831 0.961 1_556 S
H847 C831 0.961 . S
H848 C832 0.931 . S
H849 C837 0.930 . S
H850 C838 0.956 . S
H851 C838 0.961 . S
H852 C838 0.961 . S
H853 C839 0.958 . S
H854 C839 0.961 . S
H855 C839 0.960 . S
C856 C857 1.391 . S
C856 C858 1.394 . S
C856 H872 0.931 . S
C857 C856 1.391 . S
C857 C861 1.376 . S
C858 C856 1.394 . S
C858 C859 1.369 . S
C858 C862 1.531 . S
C859 C858 1.369 . S
C859 C860 1.410 . S
C859 C867 1.503 . S
C860 C859 1.410 . S
C860 C861 1.392 . S
C860 C863 1.511 . S
C861 C857 1.376 . S
C861 C860 1.392 . S
C861 H873 0.929 . S
C862 C858 1.531 . S
C862 H874 0.960 . S
C862 H875 0.962 . S
C862 H876 0.960 . S
C863 C860 1.511 . S
C863 H877 0.961 . S
C863 H878 0.961 . S
C863 H879 0.961 . S
C864 C865 1.370 . S
C864 C866 1.363 . S
C864 H880 0.931 . S
C865 C864 1.370 . S
C865 C869 1.408 . S
C866 C864 1.363 . S
C866 C867 1.370 . S
C866 C870 1.524 . S
C867 C859 1.503 . S
C867 C866 1.370 . S
C867 C868 1.403 . S
C868 C867 1.403 . S
C868 C869 1.404 . S
C868 C871 1.539 . S
C869 C865 1.408 . S
C869 C868 1.404 . S
C869 H881 0.930 . S
C870 C866 1.524 . S
C870 H882 0.956 . S
C870 H883 0.961 . S
C870 H884 0.961 . S
C871 C868 1.539 . S
C871 H885 0.958 . S
C871 H886 0.961 . S
C871 H887 0.960 . S
H872 C856 0.931 . S
H873 C861 0.929 . S
H874 C862 0.960 . S
H875 C862 0.962 . S
H876 C862 0.960 . S
H877 C863 0.961 . S
H878 C863 0.961 . S
H879 C863 0.961 . S
H880 C864 0.931 . S
H881 C869 0.930 . S
H882 C870 0.956 . S
H883 C870 0.961 . S
H884 C870 0.961 . S
H885 C871 0.958 . S
H886 C871 0.961 . S
H887 C871 0.960 . S
C888 C889 1.391 . S
C888 C890 1.394 1_556 S
C888 H904 0.931 . S
C889 C888 1.391 . S
C889 C893 1.376 . S
C890 C888 1.394 1_554 S
C890 C891 1.369 . S
C890 C894 1.531 . S
C891 C890 1.369 . S
C891 C892 1.410 1_554 S
C891 C899 1.503 . S
C892 C891 1.410 1_556 S
C892 C893 1.392 . S
C892 C895 1.511 . S
C893 C889 1.376 . S
C893 C892 1.392 . S
C893 H905 0.929 . S
C894 C890 1.531 . S
C894 H906 0.960 . S
C894 H907 0.962 . S
C894 H908 0.960 . S
C895 C892 1.511 . S
C895 H909 0.961 . S
C895 H910 0.961 1_556 S
C895 H911 0.961 . S
C896 C897 1.370 . S
C896 C898 1.363 . S
C896 H912 0.931 . S
C897 C896 1.370 . S
C897 C901 1.408 . S
C898 C896 1.363 . S
C898 C899 1.370 . S
C898 C902 1.524 . S
C899 C891 1.503 . S
C899 C898 1.370 . S
C899 C900 1.403 . S
C900 C899 1.403 . S
C900 C901 1.404 . S
C900 C903 1.539 . S
C901 C897 1.408 . S
C901 C900 1.404 . S
C901 H913 0.930 . S
C902 C898 1.524 . S
C902 H914 0.956 . S
C902 H915 0.961 . S
C902 H916 0.961 . S
C903 C900 1.539 . S
C903 H917 0.958 . S
C903 H918 0.961 . S
C903 H919 0.960 . S
H904 C888 0.931 . S
H905 C893 0.929 . S
H906 C894 0.960 . S
H907 C894 0.962 . S
H908 C894 0.960 . S
H909 C895 0.961 . S
H910 C895 0.961 1_554 S
H911 C895 0.961 . S
H912 C896 0.931 . S
H913 C901 0.930 . S
H914 C902 0.956 . S
H915 C902 0.961 . S
H916 C902 0.961 . S
H917 C903 0.958 . S
H918 C903 0.961 . S
H919 C903 0.960 . S
C920 C921 1.391 . S
C920 C922 1.394 . S
C920 H936 0.931 . S
C921 C920 1.391 . S
C921 C925 1.376 . S
C922 C920 1.394 . S
C922 C923 1.369 . S
C922 C926 1.531 . S
C923 C922 1.369 . S
C923 C924 1.410 . S
C923 C931 1.503 . S
C924 C923 1.410 . S
C924 C925 1.392 . S
C924 C927 1.511 . S
C925 C921 1.376 . S
C925 C924 1.392 . S
C925 H937 0.929 . S
C926 C922 1.531 . S
C926 H938 0.960 . S
C926 H939 0.962 . S
C926 H940 0.960 . S
C927 C924 1.511 . S
C927 H941 0.961 . S
C927 H942 0.961 . S
C927 H943 0.961 . S
C928 C929 1.370 . S
C928 C930 1.363 . S
C928 H944 0.931 . S
C929 C928 1.370 . S
C929 C933 1.408 . S
C930 C928 1.363 . S
C930 C931 1.370 . S
C930 C934 1.524 . S
C931 C923 1.503 . S
C931 C930 1.370 . S
C931 C932 1.403 . S
C932 C931 1.403 . S
C932 C933 1.404 . S
C932 C935 1.539 . S
C933 C929 1.408 . S
C933 C932 1.404 . S
C933 H945 0.930 . S
C934 C930 1.524 . S
C934 H946 0.956 . S
C934 H947 0.961 . S
C934 H948 0.961 . S
C935 C932 1.539 . S
C935 H949 0.958 . S
C935 H950 0.961 . S
C935 H951 0.960 . S
H936 C920 0.931 . S
H937 C925 0.929 . S
H938 C926 0.960 . S
H939 C926 0.962 . S
H940 C926 0.960 . S
H941 C927 0.961 . S
H942 C927 0.961 . S
H943 C927 0.961 . S
H944 C928 0.931 . S
H945 C933 0.930 . S
H946 C934 0.956 . S
H947 C934 0.961 . S
H948 C934 0.961 . S
H949 C935 0.958 . S
H950 C935 0.961 . S
H951 C935 0.960 . S
C952 C953 1.391 . S
C952 C954 1.394 . S
C952 H968 0.931 . S
C953 C952 1.391 . S
C953 C957 1.376 . S
C954 C952 1.394 . S
C954 C955 1.369 . S
C954 C958 1.531 . S
C955 C954 1.369 . S
C955 C956 1.410 . S
C955 C963 1.503 . S
C956 C955 1.410 . S
C956 C957 1.392 . S
C956 C959 1.511 . S
C957 C953 1.376 . S
C957 C956 1.392 . S
C957 H969 0.929 . S
C958 C954 1.531 . S
C958 H970 0.960 . S
C958 H971 0.962 . S
C958 H972 0.960 . S
C959 C956 1.511 . S
C959 H973 0.961 . S
C959 H974 0.961 . S
C959 H975 0.961 . S
C960 C961 1.370 . S
C960 C962 1.363 . S
C960 H976 0.931 . S
C961 C960 1.370 . S
C961 C965 1.408 . S
C962 C960 1.363 . S
C962 C963 1.370 . S
C962 C966 1.524 . S
C963 C955 1.503 . S
C963 C962 1.370 . S
C963 C964 1.403 . S
C964 C963 1.403 . S
C964 C965 1.404 . S
C964 C967 1.539 . S
C965 C961 1.408 . S
C965 C964 1.404 . S
C965 H977 0.930 . S
C966 C962 1.524 . S
C966 H978 0.956 . S
C966 H979 0.961 . S
C966 H980 0.961 . S
C967 C964 1.539 . S
C967 H981 0.958 . S
C967 H982 0.961 . S
C967 H983 0.960 . S
H968 C952 0.931 . S
H969 C957 0.929 . S
H970 C958 0.960 . S
H971 C958 0.962 . S
H972 C958 0.960 . S
H973 C959 0.961 . S
H974 C959 0.961 . S
H975 C959 0.961 . S
H976 C960 0.931 . S
H977 C965 0.930 . S
H978 C966 0.956 . S
H979 C966 0.961 . S
H980 C966 0.961 . S
H981 C967 0.958 . S
H982 C967 0.961 . S
H983 C967 0.960 . S
C984 C985 1.391 . S
C984 C986 1.394 . S
C984 H1000 0.931 . S
C985 C984 1.391 . S
C985 C989 1.376 . S
C986 C984 1.394 . S
C986 C987 1.369 . S
C986 C990 1.531 . S
C987 C986 1.369 . S
C987 C988 1.410 . S
C987 C995 1.503 . S
C988 C987 1.410 . S
C988 C989 1.392 . S
C988 C991 1.511 . S
C989 C985 1.376 . S
C989 C988 1.392 . S
C989 H1001 0.929 . S
C990 C986 1.531 . S
C990 H1002 0.960 . S
C990 H1003 0.962 . S
C990 H1004 0.960 . S
C991 C988 1.511 . S
C991 H1005 0.961 . S
C991 H1006 0.961 . S
C991 H1007 0.961 . S
C992 C993 1.370 . S
C992 C994 1.363 . S
C992 H1008 0.931 . S
C993 C992 1.370 . S
C993 C997 1.408 . S
C994 C992 1.363 . S
C994 C995 1.370 . S
C994 C998 1.524 . S
C995 C987 1.503 . S
C995 C994 1.370 . S
C995 C996 1.403 . S
C996 C995 1.403 . S
C996 C997 1.404 . S
C996 C999 1.539 . S
C997 C993 1.408 . S
C997 C996 1.404 . S
C997 H1009 0.930 . S
C998 C994 1.524 . S
C998 H1010 0.956 . S
C998 H1011 0.961 . S
C998 H1012 0.961 . S
C999 C996 1.539 . S
C999 H1013 0.958 . S
C999 H1014 0.961 . S
C999 H1015 0.960 . S
H1000 C984 0.931 . S
H1001 C989 0.929 . S
H1002 C990 0.960 . S
H1003 C990 0.962 . S
H1004 C990 0.960 . S
H1005 C991 0.961 . S
H1006 C991 0.961 . S
H1007 C991 0.961 . S
H1008 C992 0.931 . S
H1009 C997 0.930 . S
H1010 C998 0.956 . S
H1011 C998 0.961 . S
H1012 C998 0.961 . S
H1013 C999 0.958 . S
H1014 C999 0.961 . S
H1015 C999 0.960 . S
C1016 C1017 1.391 . S
C1016 C1018 1.394 . S
C1016 H1032 0.931 . S
C1017 C1016 1.391 . S
C1017 C1021 1.376 . S
C1018 C1016 1.394 . S
C1018 C1019 1.369 . S
C1018 C1022 1.531 . S
C1019 C1018 1.369 . S
C1019 C1020 1.410 . S
C1019 C1027 1.503 . S
C1020 C1019 1.410 . S
C1020 C1021 1.392 . S
C1020 C1023 1.511 . S
C1021 C1017 1.376 . S
C1021 C1020 1.392 . S
C1021 H1033 0.929 . S
C1022 C1018 1.531 . S
C1022 H1034 0.960 . S
C1022 H1035 0.962 . S
C1022 H1036 0.960 . S
C1023 C1020 1.511 . S
C1023 H1037 0.961 . S
C1023 H1038 0.961 . S
C1023 H1039 0.961 . S
C1024 C1025 1.370 . S
C1024 C1026 1.363 . S
C1024 H1040 0.931 . S
C1025 C1024 1.370 . S
C1025 C1029 1.408 . S
C1026 C1024 1.363 . S
C1026 C1027 1.370 . S
C1026 C1030 1.524 . S
C1027 C1019 1.503 . S
C1027 C1026 1.370 . S
C1027 C1028 1.403 . S
C1028 C1027 1.403 . S
C1028 C1029 1.404 . S
C1028 C1031 1.539 . S
C1029 C1025 1.408 . S
C1029 C1028 1.404 . S
C1029 H1041 0.930 . S
C1030 C1026 1.524 . S
C1030 H1042 0.956 . S
C1030 H1043 0.961 . S
C1030 H1044 0.961 . S
C1031 C1028 1.539 . S
C1031 H1045 0.958 . S
C1031 H1046 0.961 . S
C1031 H1047 0.960 . S
H1032 C1016 0.931 . S
H1033 C1021 0.929 . S
H1034 C1022 0.960 . S
H1035 C1022 0.962 . S
H1036 C1022 0.960 . S
H1037 C1023 0.961 . S
H1038 C1023 0.961 . S
H1039 C1023 0.961 . S
H1040 C1024 0.931 . S
H1041 C1029 0.930 . S
H1042 C1030 0.956 . S
H1043 C1030 0.961 . S
H1044 C1030 0.961 . S
H1045 C1031 0.958 . S
H1046 C1031 0.961 . S
H1047 C1031 0.960 . S
C1048 C1049 1.391 . S
C1048 C1050 1.394 . S
C1048 H1064 0.931 . S
C1049 C1048 1.391 . S
C1049 C1053 1.376 . S
C1050 C1048 1.394 . S
C1050 C1051 1.369 . S
C1050 C1054 1.531 . S
C1051 C1050 1.369 . S
C1051 C1052 1.410 . S
C1051 C1059 1.503 . S
C1052 C1051 1.410 . S
C1052 C1053 1.392 . S
C1052 C1055 1.511 . S
C1053 C1049 1.376 . S
C1053 C1052 1.392 . S
C1053 H1065 0.929 . S
C1054 C1050 1.531 . S
C1054 H1066 0.960 . S
C1054 H1067 0.962 . S
C1054 H1068 0.960 . S
C1055 C1052 1.511 . S
C1055 H1069 0.961 . S
C1055 H1070 0.961 . S
C1055 H1071 0.961 . S
C1056 C1057 1.370 . S
C1056 C1058 1.363 . S
C1056 H1072 0.931 . S
C1057 C1056 1.370 . S
C1057 C1061 1.408 . S
C1058 C1056 1.363 . S
C1058 C1059 1.370 . S
C1058 C1062 1.524 . S
C1059 C1051 1.503 . S
C1059 C1058 1.370 . S
C1059 C1060 1.403 . S
C1060 C1059 1.403 . S
C1060 C1061 1.404 . S
C1060 C1063 1.539 . S
C1061 C1057 1.408 . S
C1061 C1060 1.404 . S
C1061 H1073 0.930 . S
C1062 C1058 1.524 . S
C1062 H1074 0.956 . S
C1062 H1075 0.961 . S
C1062 H1076 0.961 . S
C1063 C1060 1.539 . S
C1063 H1077 0.958 . S
C1063 H1078 0.961 . S
C1063 H1079 0.960 . S
H1064 C1048 0.931 . S
H1065 C1053 0.929 . S
H1066 C1054 0.960 . S
H1067 C1054 0.962 . S
H1068 C1054 0.960 . S
H1069 C1055 0.961 . S
H1070 C1055 0.961 . S
H1071 C1055 0.961 . S
H1072 C1056 0.931 . S
H1073 C1061 0.930 . S
H1074 C1062 0.956 . S
H1075 C1062 0.961 . S
H1076 C1062 0.961 . S
H1077 C1063 0.958 . S
H1078 C1063 0.961 . S
H1079 C1063 0.960 . S
C1080 C1081 1.391 . S
C1080 C1082 1.394 . S
C1080 H1096 0.931 . S
C1081 C1080 1.391 . S
C1081 C1085 1.376 . S
C1082 C1080 1.394 . S
C1082 C1083 1.369 . S
C1082 C1086 1.531 . S
C1083 C1082 1.369 . S
C1083 C1084 1.410 . S
C1083 C1091 1.503 . S
C1084 C1083 1.410 . S
C1084 C1085 1.392 . S
C1084 C1087 1.511 . S
C1085 C1081 1.376 . S
C1085 C1084 1.392 . S
C1085 H1097 0.929 . S
C1086 C1082 1.531 . S
C1086 H1098 0.960 . S
C1086 H1099 0.962 . S
C1086 H1100 0.960 . S
C1087 C1084 1.511 . S
C1087 H1101 0.961 . S
C1087 H1102 0.961 . S
C1087 H1103 0.961 . S
C1088 C1089 1.370 . S
C1088 C1090 1.363 . S
C1088 H1104 0.931 . S
C1089 C1088 1.370 . S
C1089 C1093 1.408 . S
C1090 C1088 1.363 . S
C1090 C1091 1.370 . S
C1090 C1094 1.524 . S
C1091 C1083 1.503 . S
C1091 C1090 1.370 . S
C1091 C1092 1.403 . S
C1092 C1091 1.403 . S
C1092 C1093 1.404 . S
C1092 C1095 1.539 . S
C1093 C1089 1.408 . S
C1093 C1092 1.404 . S
C1093 H1105 0.930 1_655 S
C1094 C1090 1.524 . S
C1094 H1106 0.956 . S
C1094 H1107 0.961 . S
C1094 H1108 0.961 . S
C1095 C1092 1.539 . S
C1095 H1109 0.958 1_655 S
C1095 H1110 0.961 1_655 S
C1095 H1111 0.960 . S
H1096 C1080 0.931 . S
H1097 C1085 0.929 . S
H1098 C1086 0.960 . S
H1099 C1086 0.962 . S
H1100 C1086 0.960 . S
H1101 C1087 0.961 . S
H1102 C1087 0.961 . S
H1103 C1087 0.961 . S
H1104 C1088 0.931 . S
H1105 C1093 0.930 1_455 S
H1106 C1094 0.956 . S
H1107 C1094 0.961 . S
H1108 C1094 0.961 . S
H1109 C1095 0.958 1_455 S
H1110 C1095 0.961 1_455 S
H1111 C1095 0.960 . S
C1112 C1113 1.391 . S
C1112 C1114 1.394 . S
C1112 H1128 0.931 . S
C1113 C1112 1.391 . S
C1113 C1117 1.376 . S
C1114 C1112 1.394 . S
C1114 C1115 1.369 . S
C1114 C1118 1.531 . S
C1115 C1114 1.369 . S
C1115 C1116 1.410 . S
C1115 C1123 1.503 . S
C1116 C1115 1.410 . S
C1116 C1117 1.392 . S
C1116 C1119 1.511 . S
C1117 C1113 1.376 . S
C1117 C1116 1.392 . S
C1117 H1129 0.929 . S
C1118 C1114 1.531 . S
C1118 H1130 0.960 . S
C1118 H1131 0.962 . S
C1118 H1132 0.960 . S
C1119 C1116 1.511 . S
C1119 H1133 0.961 . S
C1119 H1134 0.961 . S
C1119 H1135 0.961 . S
C1120 C1121 1.370 . S
C1120 C1122 1.363 . S
C1120 H1136 0.931 . S
C1121 C1120 1.370 . S
C1121 C1125 1.408 . S
C1122 C1120 1.363 . S
C1122 C1123 1.370 . S
C1122 C1126 1.524 . S
C1123 C1115 1.503 . S
C1123 C1122 1.370 . S
C1123 C1124 1.403 . S
C1124 C1123 1.403 . S
C1124 C1125 1.404 . S
C1124 C1127 1.539 . S
C1125 C1121 1.408 . S
C1125 C1124 1.404 . S
C1125 H1137 0.930 . S
C1126 C1122 1.524 . S
C1126 H1138 0.956 . S
C1126 H1139 0.961 . S
C1126 H1140 0.961 . S
C1127 C1124 1.539 . S
C1127 H1141 0.958 . S
C1127 H1142 0.961 . S
C1127 H1143 0.960 . S
H1128 C1112 0.931 . S
H1129 C1117 0.929 . S
H1130 C1118 0.960 . S
H1131 C1118 0.962 . S
H1132 C1118 0.960 . S
H1133 C1119 0.961 . S
H1134 C1119 0.961 . S
H1135 C1119 0.961 . S
H1136 C1120 0.931 . S
H1137 C1125 0.930 . S
H1138 C1126 0.956 . S
H1139 C1126 0.961 . S
H1140 C1126 0.961 . S
H1141 C1127 0.958 . S
H1142 C1127 0.961 . S
H1143 C1127 0.960 . S
C1144 C1145 1.391 . S
C1144 C1146 1.394 . S
C1144 H1160 0.931 . S
C1145 C1144 1.391 . S
C1145 C1149 1.376 . S
C1146 C1144 1.394 . S
C1146 C1147 1.369 . S
C1146 C1150 1.531 . S
C1147 C1146 1.369 . S
C1147 C1148 1.410 . S
C1147 C1155 1.503 . S
C1148 C1147 1.410 . S
C1148 C1149 1.392 . S
C1148 C1151 1.511 . S
C1149 C1145 1.376 . S
C1149 C1148 1.392 . S
C1149 H1161 0.929 . S
C1150 C1146 1.531 . S
C1150 H1162 0.960 . S
C1150 H1163 0.962 . S
C1150 H1164 0.960 . S
C1151 C1148 1.511 . S
C1151 H1165 0.961 . S
C1151 H1166 0.961 . S
C1151 H1167 0.961 . S
C1152 C1153 1.370 . S
C1152 C1154 1.363 . S
C1152 H1168 0.931 . S
C1153 C1152 1.370 . S
C1153 C1157 1.408 . S
C1154 C1152 1.363 . S
C1154 C1155 1.370 . S
C1154 C1158 1.524 . S
C1155 C1147 1.503 . S
C1155 C1154 1.370 . S
C1155 C1156 1.403 . S
C1156 C1155 1.403 . S
C1156 C1157 1.404 . S
C1156 C1159 1.539 . S
C1157 C1153 1.408 . S
C1157 C1156 1.404 . S
C1157 H1169 0.930 . S
C1158 C1154 1.524 . S
C1158 H1170 0.956 . S
C1158 H1171 0.961 . S
C1158 H1172 0.961 . S
C1159 C1156 1.539 . S
C1159 H1173 0.958 . S
C1159 H1174 0.961 . S
C1159 H1175 0.960 . S
H1160 C1144 0.931 . S
H1161 C1149 0.929 . S
H1162 C1150 0.960 . S
H1163 C1150 0.962 . S
H1164 C1150 0.960 . S
H1165 C1151 0.961 . S
H1166 C1151 0.961 . S
H1167 C1151 0.961 . S
H1168 C1152 0.931 . S
H1169 C1157 0.930 . S
H1170 C1158 0.956 . S
H1171 C1158 0.961 . S
H1172 C1158 0.961 . S
H1173 C1159 0.958 . S
H1174 C1159 0.961 . S
H1175 C1159 0.960 . S
C1176 C1177 1.391 . S
C1176 C1178 1.394 . S
C1176 H1192 0.931 . S
C1177 C1176 1.391 . S
C1177 C1181 1.376 . S
C1178 C1176 1.394 . S
C1178 C1179 1.369 . S
C1178 C1182 1.531 . S
C1179 C1178 1.369 . S
C1179 C1180 1.410 . S
C1179 C1187 1.503 . S
C1180 C1179 1.410 . S
C1180 C1181 1.392 . S
C1180 C1183 1.511 . S
C1181 C1177 1.376 . S
C1181 C1180 1.392 . S
C1181 H1193 0.929 . S
C1182 C1178 1.531 . S
C1182 H1194 0.960 . S
C1182 H1195 0.962 . S
C1182 H1196 0.960 . S
C1183 C1180 1.511 . S
C1183 H1197 0.961 . S
C1183 H1198 0.961 . S
C1183 H1199 0.961 . S
C1184 C1185 1.370 . S
C1184 C1186 1.363 . S
C1184 H1200 0.931 . S
C1185 C1184 1.370 . S
C1185 C1189 1.408 . S
C1186 C1184 1.363 . S
C1186 C1187 1.370 . S
C1186 C1190 1.524 . S
C1187 C1179 1.503 . S
C1187 C1186 1.370 . S
C1187 C1188 1.403 . S
C1188 C1187 1.403 . S
C1188 C1189 1.404 . S
C1188 C1191 1.539 . S
C1189 C1185 1.408 . S
C1189 C1188 1.404 . S
C1189 H1201 0.930 . S
C1190 C1186 1.524 . S
C1190 H1202 0.956 . S
C1190 H1203 0.961 . S
C1190 H1204 0.961 . S
C1191 C1188 1.539 . S
C1191 H1205 0.958 . S
C1191 H1206 0.961 . S
C1191 H1207 0.960 . S
H1192 C1176 0.931 . S
H1193 C1181 0.929 . S
H1194 C1182 0.960 . S
H1195 C1182 0.962 . S
H1196 C1182 0.960 . S
H1197 C1183 0.961 . S
H1198 C1183 0.961 . S
H1199 C1183 0.961 . S
H1200 C1184 0.931 . S
H1201 C1189 0.930 . S
H1202 C1190 0.956 . S
H1203 C1190 0.961 . S
H1204 C1190 0.961 . S
H1205 C1191 0.958 . S
H1206 C1191 0.961 . S
H1207 C1191 0.960 . S
C441 C86 1.635 . S
C449 C160 1.619 . S
C481 C244 1.688 . S
C473 C100 1.693 . S
C513 C243 1.624 . S
C505 C60 1.622 . S
C537 C74 1.691 . S
C545 C159 1.691 . S
C577 C340 1.685 . S
C569 C35 1.700 . S
C609 C424 1.624 . S
C601 C47 1.635 . S
C633 C9 1.692 . S
C641 C423 1.696 . S
C665 C21 1.631 . S
C673 C339 1.618 . S
C705 C162 1.454 . S
C697 C22 1.583 . S
C737 C246 1.410 . S
C729 C8 1.598 . S
C769 C258 1.376 . S
C761 C48 1.596 . S
C801 C174 1.388 . S
C793 C34 1.601 . S
C833 C342 1.434 . S
C825 C73 1.584 . S
C857 C61 1.595 . S
C865 C426 1.437 . S
C897 C414 1.412 . S
C889 C99 1.595 . S
C921 C87 1.573 . S
C929 C330 1.403 . S
C961 C171 1.606 . S
C953 C4 1.477 . S
C993 C255 1.504 . S
C985 C17 1.470 . S
C1017 C30 1.546 . S
C1025 C256 1.580 . S
C1057 C172 1.478 . S
C1049 C43 1.451 . S
C1089 C327 1.504 . S
C1081 C56 1.478 . S
C1113 C69 1.530 . S
C1121 C411 1.605 . S
C1145 C82 1.419 . S
C1153 C412 1.473 . S
C1177 C95 1.509 . S
C1185 C328 1.572 . S
