# Generated by pormake.
# Topology ctn, (3,4)-cn, num edge types: 1
# Building blocks:
#     Node 0, Type 0, BuildingBlock: QEWDON_clean_linker_0, # of connection points: 3
#     Node 1, Type 0, BuildingBlock: QEWDON_clean_linker_0, # of connection points: 3
#     Node 2, Type 0, BuildingBlock: QEWDON_clean_linker_0, # of connection points: 3
#     Node 3, Type 0, BuildingBlock: QEWDON_clean_linker_0, # of connection points: 3
#     Node 4, Type 0, BuildingBlock: QEWDON_clean_linker_0, # of connection points: 3
#     Node 5, Type 0, BuildingBlock: QEWDON_clean_linker_0, # of connection points: 3
#     Node 6, Type 0, BuildingBlock: QEWDON_clean_linker_0, # of connection points: 3
#     Node 7, Type 0, BuildingBlock: QEWDON_clean_linker_0, # of connection points: 3
#     Node 8, Type 0, BuildingBlock: QEWDON_clean_linker_0, # of connection points: 3
#     Node 9, Type 0, BuildingBlock: QEWDON_clean_linker_0, # of connection points: 3
#     Node 10, Type 0, BuildingBlock: QEWDON_clean_linker_0, # of connection points: 3
#     Node 11, Type 0, BuildingBlock: QEWDON_clean_linker_0, # of connection points: 3
#     Node 12, Type 0, BuildingBlock: QEWDON_clean_linker_0, # of connection points: 3
#     Node 13, Type 0, BuildingBlock: QEWDON_clean_linker_0, # of connection points: 3
#     Node 14, Type 0, BuildingBlock: QEWDON_clean_linker_0, # of connection points: 3
#     Node 15, Type 0, BuildingBlock: QEWDON_clean_linker_0, # of connection points: 3
#     Node 16, Type 1, BuildingBlock: UXUYUI_clean_sbu_0, # of connection points: 4
#     Node 17, Type 1, BuildingBlock: UXUYUI_clean_sbu_0, # of connection points: 4
#     Node 18, Type 1, BuildingBlock: UXUYUI_clean_sbu_0, # of connection points: 4
#     Node 19, Type 1, BuildingBlock: UXUYUI_clean_sbu_0, # of connection points: 4
#     Node 20, Type 1, BuildingBlock: UXUYUI_clean_sbu_0, # of connection points: 4
#     Node 21, Type 1, BuildingBlock: UXUYUI_clean_sbu_0, # of connection points: 4
#     Node 22, Type 1, BuildingBlock: UXUYUI_clean_sbu_0, # of connection points: 4
#     Node 23, Type 1, BuildingBlock: UXUYUI_clean_sbu_0, # of connection points: 4
#     Node 24, Type 1, BuildingBlock: UXUYUI_clean_sbu_0, # of connection points: 4
#     Node 25, Type 1, BuildingBlock: UXUYUI_clean_sbu_0, # of connection points: 4
#     Node 26, Type 1, BuildingBlock: UXUYUI_clean_sbu_0, # of connection points: 4
#     Node 27, Type 1, BuildingBlock: UXUYUI_clean_sbu_0, # of connection points: 4
#     Edge 28, Type (0, 1), BuildingBlock: KIFKEQ_clean_linker_1, # of connection points: 2
#     Edge 29, Type (0, 1), BuildingBlock: KIFKEQ_clean_linker_1, # of connection points: 2
#     Edge 30, Type (0, 1), BuildingBlock: KIFKEQ_clean_linker_1, # of connection points: 2
#     Edge 31, Type (0, 1), BuildingBlock: KIFKEQ_clean_linker_1, # of connection points: 2
#     Edge 32, Type (0, 1), BuildingBlock: KIFKEQ_clean_linker_1, # of connection points: 2
#     Edge 33, Type (0, 1), BuildingBlock: KIFKEQ_clean_linker_1, # of connection points: 2
#     Edge 34, Type (0, 1), BuildingBlock: KIFKEQ_clean_linker_1, # of connection points: 2
#     Edge 35, Type (0, 1), BuildingBlock: KIFKEQ_clean_linker_1, # of connection points: 2
#     Edge 36, Type (0, 1), BuildingBlock: KIFKEQ_clean_linker_1, # of connection points: 2
#     Edge 37, Type (0, 1), BuildingBlock: KIFKEQ_clean_linker_1, # of connection points: 2
#     Edge 38, Type (0, 1), BuildingBlock: KIFKEQ_clean_linker_1, # of connection points: 2
#     Edge 39, Type (0, 1), BuildingBlock: KIFKEQ_clean_linker_1, # of connection points: 2
#     Edge 40, Type (0, 1), BuildingBlock: KIFKEQ_clean_linker_1, # of connection points: 2
#     Edge 41, Type (0, 1), BuildingBlock: KIFKEQ_clean_linker_1, # of connection points: 2
#     Edge 42, Type (0, 1), BuildingBlock: KIFKEQ_clean_linker_1, # of connection points: 2
#     Edge 43, Type (0, 1), BuildingBlock: KIFKEQ_clean_linker_1, # of connection points: 2
#     Edge 44, Type (0, 1), BuildingBlock: KIFKEQ_clean_linker_1, # of connection points: 2
#     Edge 45, Type (0, 1), BuildingBlock: KIFKEQ_clean_linker_1, # of connection points: 2
#     Edge 46, Type (0, 1), BuildingBlock: KIFKEQ_clean_linker_1, # of connection points: 2
#     Edge 47, Type (0, 1), BuildingBlock: KIFKEQ_clean_linker_1, # of connection points: 2
#     Edge 48, Type (0, 1), BuildingBlock: KIFKEQ_clean_linker_1, # of connection points: 2
#     Edge 49, Type (0, 1), BuildingBlock: KIFKEQ_clean_linker_1, # of connection points: 2
#     Edge 50, Type (0, 1), BuildingBlock: KIFKEQ_clean_linker_1, # of connection points: 2
#     Edge 51, Type (0, 1), BuildingBlock: KIFKEQ_clean_linker_1, # of connection points: 2
#     Edge 52, Type (0, 1), BuildingBlock: KIFKEQ_clean_linker_1, # of connection points: 2
#     Edge 53, Type (0, 1), BuildingBlock: KIFKEQ_clean_linker_1, # of connection points: 2
#     Edge 54, Type (0, 1), BuildingBlock: KIFKEQ_clean_linker_1, # of connection points: 2
#     Edge 55, Type (0, 1), BuildingBlock: KIFKEQ_clean_linker_1, # of connection points: 2
#     Edge 56, Type (0, 1), BuildingBlock: KIFKEQ_clean_linker_1, # of connection points: 2
#     Edge 57, Type (0, 1), BuildingBlock: KIFKEQ_clean_linker_1, # of connection points: 2
#     Edge 58, Type (0, 1), BuildingBlock: KIFKEQ_clean_linker_1, # of connection points: 2
#     Edge 59, Type (0, 1), BuildingBlock: KIFKEQ_clean_linker_1, # of connection points: 2
#     Edge 60, Type (0, 1), BuildingBlock: KIFKEQ_clean_linker_1, # of connection points: 2
#     Edge 61, Type (0, 1), BuildingBlock: KIFKEQ_clean_linker_1, # of connection points: 2
#     Edge 62, Type (0, 1), BuildingBlock: KIFKEQ_clean_linker_1, # of connection points: 2
#     Edge 63, Type (0, 1), BuildingBlock: KIFKEQ_clean_linker_1, # of connection points: 2
#     Edge 64, Type (0, 1), BuildingBlock: KIFKEQ_clean_linker_1, # of connection points: 2
#     Edge 65, Type (0, 1), BuildingBlock: KIFKEQ_clean_linker_1, # of connection points: 2
#     Edge 66, Type (0, 1), BuildingBlock: KIFKEQ_clean_linker_1, # of connection points: 2
#     Edge 67, Type (0, 1), BuildingBlock: KIFKEQ_clean_linker_1, # of connection points: 2
#     Edge 68, Type (0, 1), BuildingBlock: KIFKEQ_clean_linker_1, # of connection points: 2
#     Edge 69, Type (0, 1), BuildingBlock: KIFKEQ_clean_linker_1, # of connection points: 2
#     Edge 70, Type (0, 1), BuildingBlock: KIFKEQ_clean_linker_1, # of connection points: 2
#     Edge 71, Type (0, 1), BuildingBlock: KIFKEQ_clean_linker_1, # of connection points: 2
#     Edge 72, Type (0, 1), BuildingBlock: KIFKEQ_clean_linker_1, # of connection points: 2
#     Edge 73, Type (0, 1), BuildingBlock: KIFKEQ_clean_linker_1, # of connection points: 2
#     Edge 74, Type (0, 1), BuildingBlock: KIFKEQ_clean_linker_1, # of connection points: 2
#     Edge 75, Type (0, 1), BuildingBlock: KIFKEQ_clean_linker_1, # of connection points: 2
# Relax obj value: 0.115
# Max RMSD: 0.279
# Mean RMSD: 0.161
data_MOF--net-ctn--node1-UXUYUI_clean_sbu_0--node2-QEWDON_clean_linker_0--edge1-KIFKEQ_clean_linker_1
_symmetry_space_group_name_H-M    P1
_symmetry_Int_Tables_number       1
_symmetry_cell_setting            triclinic
loop_
_symmetry_equiv_pos_as_xyz
'x, y, z'
_cell_length_a     66.249038
_cell_length_b     68.842489
_cell_length_c     73.201277
_cell_angle_alpha  97.659508
_cell_angle_beta   91.928723
_cell_angle_gamma 95.365221
loop_
_atom_site_label
_atom_site_type_symbol
_atom_site_fract_x
_atom_site_fract_y
_atom_site_fract_z
_atom_type_partial_charge
H0 H 0.0984 0.05077 0.05823 0.0
C1 C 0.08795 0.04712 0.06861 0.0
C2 C 0.08794 0.02884 0.07533 0.0
C3 C 0.07529 0.06117 0.07594 0.0
H4 H 0.0746 0.01073 0.09463 0.0
C5 C 0.07453 0.0246 0.08917 0.0
C6 C 0.06151 0.03844 0.09646 0.0
C7 C 0.06203 0.05663 0.08967 0.0
C8 C 0.07789 0.08162 0.07136 0.0
H9 H 0.0527 0.06772 0.09567 0.0
C10 C 0.07604 0.08586 0.05305 0.0
C11 C 0.07887 0.10556 0.04938 0.0
C12 C 0.08256 0.09716 0.08581 0.0
H13 H 0.08422 0.09426 0.09995 0.0
C14 C 0.08541 0.11655 0.08222 0.0
H15 H 0.07241 0.07398 0.04181 0.0
C16 C 0.08358 0.12075 0.06419 0.0
H17 H 0.08554 0.13602 0.06186 0.0
H18 H 0.089 0.1284 0.09348 0.0
H19 H 0.33802 0.74254 0.24129 0.0
C20 C 0.32773 0.72918 0.2385 0.0
C21 C 0.33263 0.71208 0.24548 0.0
C22 C 0.30886 0.7296 0.22926 0.0
H23 H 0.32217 0.68223 0.24868 0.0
C24 C 0.31862 0.69522 0.2428 0.0
C25 C 0.29969 0.69534 0.23355 0.0
C26 C 0.29498 0.71263 0.22671 0.0
C27 C 0.30202 0.74871 0.22596 0.0
H28 H 0.28018 0.71322 0.22014 0.0
C29 C 0.30161 0.75478 0.20829 0.0
C30 C 0.29504 0.77328 0.20588 0.0
C31 C 0.29561 0.76099 0.24105 0.0
H32 H 0.29577 0.7565 0.25469 0.0
C33 C 0.28874 0.77902 0.23869 0.0
H34 H 0.30676 0.74536 0.19668 0.0
C35 C 0.28839 0.78512 0.2213 0.0
H36 H 0.2827 0.79912 0.21992 0.0
H37 H 0.28362 0.78832 0.25039 0.0
H38 H 0.02035 0.47491 0.05179 0.0
C39 C 0.00795 0.48402 0.05101 0.0
C40 C 1.00187 0.49531 0.06704 0.0
C41 C 0.99878 0.48502 0.03369 0.0
H42 H 0.98062 0.51574 0.07754 0.0
C43 C 0.98549 0.50686 0.06546 0.0
C44 C 0.97557 0.50726 0.04818 0.0
C45 C 0.98258 0.4965 0.03239 0.0
C46 C 0.00759 0.47592 0.01672 0.0
H47 H 0.97573 0.49742 0.01891 0.0
C48 C 0.00864 0.45544 0.01311 0.0
C49 C 0.01767 0.44726 0.99709 0.0
C50 C 0.01551 0.48808 1.0042 0.0
H51 H 0.0149 0.50388 1.00678 0.0
C52 C 0.02463 0.48003 0.98843 0.0
H53 H 1.00245 0.44597 0.02268 0.0
C54 C 0.02578 0.45976 0.9849 0.0
H55 H 0.03266 0.45379 0.97242 0.0
H56 H 0.03078 0.48952 0.97889 0.0
H57 H 0.77189 0.80669 0.24401 0.0
C58 C 0.77081 0.80043 0.22958 0.0
C59 C 0.78027 0.81082 0.21633 0.0
C60 C 0.76134 0.78125 0.22452 0.0
H61 H 0.78686 0.80956 0.18746 0.0
C62 C 0.77971 0.80179 0.19785 0.0
C63 C 0.77034 0.7826 0.19265 0.0
C64 C 0.76101 0.77251 0.20605 0.0
C65 C 0.75517 0.76895 0.23882 0.0
H66 H 0.75452 0.75738 0.20234 0.0
C67 C 0.73646 0.77018 0.24729 0.0
C68 C 0.73056 0.75723 0.26 0.0
C69 C 0.7681 0.75516 0.24345 0.0
H70 H 0.78253 0.75403 0.23704 0.0
C71 C 0.7625 0.74266 0.25628 0.0
H72 H 0.72633 0.78065 0.24356 0.0
C73 C 0.74386 0.7436 0.26445 0.0
H74 H 0.73984 0.73367 0.27435 0.0
H75 H 0.77259 0.73209 0.25981 0.0
H76 H 0.09675 0.9636 0.48926 0.0
C77 C 0.08558 0.96772 0.47969 0.0
C78 C 0.08856 0.98601 0.47306 0.0
C79 C 0.06876 0.95429 0.47323 0.0
H80 H 0.07749 1.0043 0.45409 0.0
C81 C 0.07448 0.99072 0.45991 0.0
C82 C 0.05752 0.9775 0.45325 0.0
C83 C 0.05469 0.95944 0.46032 0.0
C84 C 0.06751 0.93367 0.47735 0.0
H85 H 0.04178 0.94898 0.45544 0.0
C86 C 0.06628 0.92887 0.4955 0.0
C87 C 0.06535 0.90896 0.49858 0.0
C88 C 0.06774 0.91849 0.46251 0.0
H89 H 0.06878 0.92183 0.4485 0.0
C90 C 0.0669 0.89891 0.46555 0.0
H91 H 0.06602 0.94045 0.50704 0.0
C92 C 0.06572 0.89416 0.4834 0.0
H93 H 0.06482 0.87877 0.48533 0.0
H94 H 0.06711 0.88736 0.454 0.0
H95 H 0.26799 0.68872 0.78927 0.0
C96 C 0.26648 0.69871 0.80181 0.0
C97 C 0.27738 0.69622 0.81793 0.0
C98 C 0.25438 0.71439 0.80144 0.0
H99 H 0.28443 0.70766 0.84652 0.0
C100 C 0.2759 0.70945 0.83406 0.0
C101 C 0.26308 0.7247 0.83425 0.0
C102 C 0.25225 0.72701 0.81788 0.0
C103 C 0.24567 0.71831 0.78343 0.0
H104 H 0.24305 0.73921 0.81775 0.0
C105 C 0.22531 0.72242 0.78111 0.0
C106 C 0.2174 0.72478 0.76349 0.0
C107 C 0.25803 0.71749 0.76812 0.0
H108 H 0.27383 0.7148 0.76954 0.0
C109 C 0.25026 0.72013 0.75081 0.0
H110 H 0.21554 0.72308 0.7927 0.0
C111 C 0.23003 0.72358 0.74845 0.0
H112 H 0.22423 0.72545 0.73484 0.0
H113 H 0.25992 0.71939 0.73916 0.0
H114 H 0.9812 0.59414 0.47806 0.0
C115 C 0.97148 0.58139 0.48078 0.0
C116 C 0.96518 0.5799 0.49879 0.0
C117 C 0.96465 0.56695 0.46595 0.0
H118 H 0.94688 0.56193 0.51534 0.0
C119 C 0.95249 0.56311 0.50176 0.0
C120 C 0.9456 0.54848 0.48701 0.0
C121 C 0.95173 0.55055 0.4691 0.0
C122 C 0.96815 0.57087 0.4469 0.0
H123 H 0.94591 0.53973 0.45754 0.0
C124 C 0.98382 0.56292 0.43668 0.0
C125 C 0.98737 0.56797 0.4189 0.0
C126 C 0.95585 0.58346 0.43917 0.0
H127 H 0.94376 0.58969 0.44688 0.0
C128 C 0.95908 0.58818 0.42151 0.0
H129 H 0.99348 0.55336 0.4427 0.0
C130 C 0.97475 0.58057 0.41146 0.0
H131 H 0.97693 0.58447 0.39775 0.0
H132 H 0.94948 0.59786 0.41563 0.0
H133 H 0.82689 0.81685 0.8022 0.0
C134 C 0.82558 0.80543 0.81106 0.0
C135 C 0.83696 0.78903 0.80788 0.0
C136 C 0.81303 0.80764 0.82613 0.0
H137 H 0.84377 0.76197 0.81789 0.0
C138 C 0.83495 0.77449 0.81984 0.0
C139 C 0.82181 0.77615 0.83458 0.0
C140 C 0.81102 0.7928 0.83756 0.0
C141 C 0.8036 0.82623 0.83135 0.0
H142 H 0.80143 0.79459 0.84926 0.0
C143 C 0.791 0.83415 0.81885 0.0
C144 C 0.78121 0.85107 0.82487 0.0
C145 C 0.8069 0.83589 0.84953 0.0
H146 H 0.81673 0.83028 0.85931 0.0
C147 C 0.79764 0.85284 0.85532 0.0
H148 H 0.7882 0.82679 0.80484 0.0
C149 C 0.78477 0.86031 0.84316 0.0
H150 H 0.7776 0.87343 0.84803 0.0
H151 H 0.80032 0.86012 0.86935 0.0
H152 H 0.33256 0.31818 0.30186 0.0
C153 C 0.32972 0.30668 0.3105 0.0
C154 C 0.33927 0.28919 0.30712 0.0
C155 C 0.31783 0.31008 0.3259 0.0
H156 H 0.34289 0.26104 0.31606 0.0
C157 C 0.33597 0.2747 0.31894 0.0
C158 C 0.3238 0.2777 0.33431 0.0
C159 C 0.315 0.2956 0.33765 0.0
C160 C 0.31023 0.32957 0.33117 0.0
H161 H 0.30634 0.29867 0.34982 0.0
C162 C 0.2967 0.33748 0.31948 0.0
C163 C 0.28853 0.3553 0.32569 0.0
C164 C 0.31606 0.34 0.34866 0.0
H165 H 0.32654 0.33429 0.35779 0.0
C166 C 0.30844 0.35784 0.35457 0.0
H167 H 0.29192 0.32945 0.30604 0.0
C168 C 0.29467 0.36538 0.34326 0.0
H169 H 0.28878 0.37917 0.34826 0.0
H170 H 0.31306 0.36575 0.36807 0.0
H171 H 0.52102 0.97798 0.54744 0.0
C172 C 0.50949 0.98807 0.54686 0.0
C173 C 0.50396 0.9993 0.56316 0.0
C174 C 0.501 0.99044 0.5296 0.0
H175 H 0.48445 0.02121 0.57418 0.0
C176 C 0.48869 0.01216 0.56192 0.0
C177 C 0.4797 0.01432 0.54467 0.0
C178 C 0.48606 1.00344 0.52865 0.0
C179 C 0.50919 0.98098 0.5124 0.0
H180 H 0.47939 1.00509 0.51528 0.0
C181 C 0.51075 0.96053 0.50925 0.0
C182 C 0.51915 0.95202 0.493 0.0
C183 C 0.51602 0.99275 0.49914 0.0
H184 H 0.51513 0.00853 0.50132 0.0
C185 C 0.52443 0.98439 0.48312 0.0
H186 H 0.50545 0.95132 0.51937 0.0
C187 C 0.52604 0.96419 0.48005 0.0
H188 H 0.53236 0.958 0.46736 0.0
H189 H 0.52971 0.99361 0.47302 0.0
H190 H 0.27484 0.30964 0.74818 0.0
C191 C 0.27312 0.30236 0.73407 0.0
C192 C 0.28122 0.31188 0.7197 0.0
C193 C 0.26408 0.28289 0.73057 0.0
H194 H 0.2856 0.30895 0.69042 0.0
C195 C 0.27971 0.30166 0.70164 0.0
C196 C 0.27102 0.282 0.69795 0.0
C197 C 0.26307 0.27278 0.71255 0.0
C198 C 0.25891 0.27213 0.74619 0.0
H199 H 0.25706 0.25742 0.71015 0.0
C200 C 0.2397 0.2723 0.75385 0.0
C201 C 0.23564 0.26269 0.76938 0.0
C202 C 0.27383 0.26208 0.75387 0.0
H203 H 0.28868 0.26184 0.74812 0.0
C204 C 0.2698 0.25245 0.76913 0.0
H205 H 0.22818 0.28016 0.748 0.0
C206 C 0.25089 0.25281 0.7769 0.0
H207 H 0.24809 0.24518 0.78873 0.0
H208 H 0.28141 0.24475 0.775 0.0
H209 H 0.83583 0.24464 0.73836 0.0
C210 C 0.82591 0.23108 0.73746 0.0
C211 C 0.8325 0.21469 0.74481 0.0
C212 C 0.8061 0.23044 0.7298 0.0
H213 H 0.82343 0.1851 0.75024 0.0
C214 C 0.81899 0.19747 0.74386 0.0
C215 C 0.79915 0.19658 0.73613 0.0
C216 C 0.79289 0.21317 0.72908 0.0
C217 C 0.79782 0.24874 0.72589 0.0
H218 H 0.77746 0.21294 0.72355 0.0
C219 C 0.80098 0.25646 0.70919 0.0
C220 C 0.79229 0.27375 0.70588 0.0
C221 C 0.78605 0.2583 0.73919 0.0
H222 H 0.78343 0.25251 0.75205 0.0
C223 C 0.77747 0.27531 0.736 0.0
H224 H 0.8101 0.24907 0.69893 0.0
C225 C 0.78048 0.28296 0.7195 0.0
H226 H 0.7732 0.29595 0.7173 0.0
H227 H 0.76831 0.28253 0.74631 0.0
H228 H 0.59883 0.5523 0.55659 0.0
C229 C 0.58946 0.54956 0.568 0.0
C230 C 0.59016 0.53195 0.57583 0.0
C231 C 0.57756 0.56422 0.57545 0.0
H232 H 0.57902 0.51596 0.59758 0.0
C233 C 0.57803 0.529 0.59093 0.0
C234 C 0.56565 0.5434 0.59833 0.0
C235 C 0.56547 0.56085 0.59032 0.0
C236 C 0.58002 0.58422 0.56979 0.0
H237 H 0.55618 0.57218 0.59587 0.0
C238 C 0.57693 0.58748 0.5513 0.0
C239 C 0.57992 0.60677 0.54658 0.0
C240 C 0.58604 0.60034 0.58338 0.0
H241 H 0.58865 0.59819 0.59763 0.0
C242 C 0.58906 0.61932 0.57873 0.0
H243 H 0.57224 0.57517 0.54072 0.0
C244 C 0.58606 0.62254 0.56051 0.0
H245 H 0.58823 0.63751 0.55733 0.0
H246 H 0.59373 0.6316 0.58932 0.0
H247 H 0.6003 0.45866 0.98859 0.0
C248 C 0.58944 0.46283 0.97878 0.0
C249 C 0.59264 0.48121 0.97229 0.0
C250 C 0.57281 0.44936 0.97187 0.0
H251 H 0.58187 0.49958 0.95318 0.0
C252 C 0.57881 0.48597 0.95894 0.0
C253 C 0.56195 0.47279 0.95199 0.0
C254 C 0.55901 0.45459 0.95877 0.0
C255 C 0.57149 0.42868 0.97582 0.0
H256 H 0.54623 0.44413 0.95353 0.0
C257 C 0.56996 0.4237 0.99389 0.0
C258 C 0.5689 0.40373 0.99683 0.0
C259 C 0.57195 0.41362 0.96091 0.0
H260 H 0.57323 0.41709 0.94696 0.0
C261 C 0.571 0.39399 0.96379 0.0
H262 H 0.56953 0.4352 1.00547 0.0
C263 C 0.56948 0.38906 0.98156 0.0
H264 H 0.56842 0.37362 0.98333 0.0
H265 H 0.57136 0.38253 0.95218 0.0
H266 H 0.77121 0.20163 0.28389 0.0
C267 C 0.76881 0.20878 0.29764 0.0
C268 C 0.77798 0.20244 0.31315 0.0
C269 C 0.75699 0.22476 0.29953 0.0
H270 H 0.78227 0.20821 0.34289 0.0
C271 C 0.77483 0.21238 0.3308 0.0
C272 C 0.76267 0.22821 0.33293 0.0
C273 C 0.75358 0.23412 0.3172 0.0
C274 C 0.75159 0.23375 0.28299 0.0
H275 H 0.74506 0.24691 0.31862 0.0
C276 C 0.73129 0.23392 0.27657 0.0
C277 C 0.72697 0.24212 0.26033 0.0
C278 C 0.76739 0.24219 0.27341 0.0
H279 H 0.78306 0.24227 0.27819 0.0
C280 C 0.76316 0.25077 0.25773 0.0
H281 H 0.71909 0.22717 0.28381 0.0
C282 C 0.74317 0.25076 0.25122 0.0
H283 H 0.74039 0.25765 0.23903 0.0
H284 H 0.77545 0.25741 0.25054 0.0
H285 H 0.47425 0.09271 0.97282 0.0
C286 C 0.46663 0.07889 0.97572 0.0
C287 C 0.46199 0.07651 0.9939 0.0
C288 C 0.46098 0.06377 0.96114 0.0
H289 H 0.44694 0.05748 0.01132 0.0
C290 C 0.45137 0.05884 0.9974 0.0
C291 C 0.44504 0.04368 0.98285 0.0
C292 C 0.45036 0.0462 0.96476 0.0
C293 C 0.46322 0.06773 0.94195 0.0
H294 H 0.44556 0.03483 0.95332 0.0
C295 C 0.47909 0.06087 0.93128 0.0
C296 C 0.48128 0.06576 0.91327 0.0
C297 C 0.4494 0.07909 0.93446 0.0
H298 H 0.43713 0.08446 0.9425 0.0
C299 C 0.45126 0.08361 0.91657 0.0
H300 H 0.48992 0.05229 0.93715 0.0
C301 C 0.46707 0.07706 0.90605 0.0
H302 H 0.46811 0.08075 0.89216 0.0
H303 H 0.44047 0.09231 0.91085 0.0
Li304 Li 0.28285 0.89369 0.02061 0.0
Li305 Li 0.2668 0.87078 0.03913 0.0
Li306 Li 0.26055 0.86513 1.00543 0.0
Li307 Li 0.2461 0.89388 0.02619 0.0
C308 C 0.30474 0.8617 0.02689 0.0
N309 N 0.34166 0.85447 0.04188 0.0
C310 C 0.31336 0.87361 0.04269 0.0
C311 C 0.31484 0.84608 0.01873 0.0
C312 C 0.33205 0.86973 0.05006 0.0
C313 C 0.33352 0.84268 0.02651 0.0
C314 C 0.27013 0.91133 0.06057 0.0
C315 C 0.25341 0.9247 0.08753 0.0
N316 N 0.27139 0.93434 0.09464 0.0
C317 C 0.28845 0.92141 0.06814 0.0
C318 C 0.25246 0.91301 0.07034 0.0
C319 C 0.28877 0.93294 0.08539 0.0
C320 C 0.30632 0.93051 0.02356 0.0
N321 N 0.30646 0.91104 0.01724 0.0
C322 C 0.33883 0.91713 1.00442 0.0
C323 C 0.32229 0.90416 0.00786 0.0
C324 C 0.33911 0.93735 0.01077 0.0
C325 C 0.3226 0.94396 0.02056 0.0
H326 H 0.29335 0.93564 0.03064 0.0
H327 H 0.3219 0.88866 1.00271 0.0
C328 C 0.27089 0.83674 0.05688 0.0
N329 N 0.27082 0.85668 0.06007 0.0
C330 C 0.27346 0.82589 0.07155 0.0
C331 C 0.27678 0.85631 0.09247 0.0
C332 C 0.27392 0.8665 0.07747 0.0
C333 C 0.27634 0.83566 0.08973 0.0
H334 H 0.26882 0.82922 0.04291 0.0
H335 H 0.27437 0.88229 0.07987 0.0
C336 C 0.26888 0.90531 0.99044 0.0
N337 N 0.28874 0.92955 0.96817 0.0
C338 C 0.26531 0.92512 0.99173 0.0
C339 C 0.28245 0.89779 0.97775 0.0
C340 C 0.27552 0.93715 0.98036 0.0
C341 C 0.29236 0.91029 0.96663 0.0
C342 C 0.23009 0.85122 0.03473 0.0
C343 C 0.22818 0.83115 0.02794 0.0
C344 C 0.22222 0.85758 0.05173 0.0
C345 C 0.21872 0.81771 0.03844 0.0
C346 C 0.21289 0.8437 0.06183 0.0
N347 N 0.21137 0.82421 0.05504 0.0
C348 C 0.26143 0.82753 0.98436 0.0
C349 C 0.25092 0.85203 0.96729 0.0
C350 C 0.26052 0.81384 0.96833 0.0
N351 N 0.25672 0.84622 0.98355 0.0
C352 C 0.25021 0.83894 0.95087 0.0
C353 C 0.25518 0.8196 0.95126 0.0
H354 H 0.26633 0.82338 0.99743 0.0
H355 H 0.24731 0.86698 0.96699 0.0
C356 C 0.22941 0.93013 0.03398 0.0
N357 N 0.22439 0.91036 0.03025 0.0
C358 C 0.21447 0.94286 0.03818 0.0
C359 C 0.18933 0.9147 0.03459 0.0
C360 C 0.2048 0.90249 0.03041 0.0
C361 C 0.19407 0.93523 0.03871 0.0
H362 H 0.24515 0.936 0.03399 0.0
H363 H 0.20122 0.88669 0.0276 0.0
O364 O 0.2864 0.86512 0.01947 0.0
O365 O 0.26954 0.90003 0.04366 0.0
O366 O 0.25957 0.89345 1.00188 0.0
O367 O 0.23968 0.86455 0.02483 0.0
H368 H 0.30569 0.88567 0.04922 0.0
H369 H 0.30831 0.8367 1.00651 0.0
H370 H 0.33889 0.87883 0.06229 0.0
H371 H 0.34153 0.83065 0.02034 0.0
H372 H 0.23984 0.92612 0.09522 0.0
H373 H 0.3023 0.92029 0.06083 0.0
H374 H 0.23815 0.90538 0.06475 0.0
H375 H 0.30285 0.94078 0.09141 0.0
H376 H 0.35126 0.9114 0.99687 0.0
H377 H 0.32202 0.95945 0.02542 0.0
H378 H 0.27291 0.81001 0.06865 0.0
H379 H 0.27955 0.86467 0.10607 0.0
H380 H 0.25487 0.93118 1.00147 0.0
H381 H 0.2856 0.88255 0.97676 0.0
H382 H 0.27297 0.95253 0.98127 0.0
H383 H 0.30303 0.90472 0.95686 0.0
H384 H 0.23405 0.82598 0.01475 0.0
H385 H 0.22343 0.87305 0.05712 0.0
H386 H 0.21726 0.80212 0.0334 0.0
H387 H 0.20688 0.84841 0.07507 0.0
H388 H 0.26464 0.79911 0.96916 0.0
H389 H 0.24593 0.8439 0.93798 0.0
H390 H 0.2189 0.95855 0.04099 0.0
H391 H 0.17391 0.90807 0.03505 0.0
Li392 Li 0.12736 0.51 0.27425 0.0
Li393 Li 0.15319 0.48947 0.25902 0.0
Li394 Li 0.1536 0.52409 0.256 0.0
Li395 Li 0.1269 0.50118 0.23985 0.0
C396 C 0.17388 0.52372 0.2869 0.0
N397 N 0.20781 0.54805 0.30122 0.0
C398 C 0.19324 0.51772 0.2841 0.0
C399 C 0.17174 0.54201 0.29709 0.0
C400 C 0.21022 0.53025 0.29144 0.0
C401 C 0.18909 0.55413 0.30418 0.0
C402 C 0.11722 0.4644 0.25061 0.0
C403 C 0.12146 0.43736 0.22694 0.0
N404 N 0.10579 0.42653 0.23353 0.0
C405 C 0.10117 0.45302 0.25715 0.0
C406 C 0.12747 0.45653 0.23539 0.0
C407 C 0.09562 0.4339 0.24832 0.0
C408 C 0.09031 0.51323 0.29201 0.0
N409 N 0.11076 0.51408 0.295 0.0
C410 C 0.10758 0.5225 0.32749 0.0
C411 C 0.11952 0.51842 0.31231 0.0
C412 C 0.08641 0.52201 0.32485 0.0
C413 C 0.07779 0.51712 0.3068 0.0
H414 H 0.08378 0.50986 0.27807 0.0
H415 H 0.13582 0.51895 0.3143 0.0
C416 C 0.18486 0.4642 0.25174 0.0
N417 N 0.16909 0.4683 0.26256 0.0
C418 C 0.19706 0.44943 0.25528 0.0
C419 C 0.1764 0.44327 0.28085 0.0
C420 C 0.16461 0.45811 0.27682 0.0
C421 C 0.19302 0.4388 0.27012 0.0
H422 H 0.18816 0.47261 0.24056 0.0
H423 H 0.15208 0.4618 0.28529 0.0
C424 C 0.11645 0.54451 0.25711 0.0
N425 N 0.1004 0.58038 0.26186 0.0
C426 C 0.10821 0.55194 0.24195 0.0
C427 C 0.11637 0.55526 0.27471 0.0
C428 C 0.10023 0.57013 0.24463 0.0
C429 C 0.10822 0.57338 0.27682 0.0
C430 C 0.16112 0.50862 0.21989 0.0
C431 C 0.15222 0.52493 0.21499 0.0
C432 C 0.17445 0.49931 0.20804 0.0
C433 C 0.15678 0.53164 0.19828 0.0
C434 C 0.17863 0.50646 0.19144 0.0
N435 N 0.16977 0.52234 0.18694 0.0
C436 C 0.19079 0.54368 0.24769 0.0
C437 C 0.16663 0.56582 0.257 0.0
C438 C 0.20483 0.55928 0.24475 0.0
N439 N 0.17203 0.54713 0.25359 0.0
C440 C 0.18017 0.58185 0.25419 0.0
C441 C 0.19954 0.5787 0.24785 0.0
H442 H 0.19479 0.52872 0.24507 0.0
H443 H 0.15186 0.56843 0.26185 0.0
C444 C 0.08989 0.50191 0.21977 0.0
N445 N 0.10886 0.49597 0.21825 0.0
C446 C 0.07692 0.50082 0.20409 0.0
C447 C 0.10305 0.48708 0.18565 0.0
C448 C 0.11536 0.4881 0.2017 0.0
C449 C 0.08369 0.49379 0.1867 0.0
H450 H 0.08509 0.5081 0.23309 0.0
H451 H 0.13034 0.48314 0.20083 0.0
O452 O 0.15712 0.51191 0.27935 0.0
O453 O 0.12278 0.48315 0.2591 0.0
O454 O 0.12402 0.52656 0.25476 0.0
O455 O 0.15691 0.50175 0.2362 0.0
H456 H 0.19515 0.50364 0.27617 0.0
H457 H 0.15686 0.5469 0.29932 0.0
H458 H 0.22531 0.52586 0.28929 0.0
H459 H 0.18768 0.56839 0.31198 0.0
H460 H 0.12925 0.43108 0.21515 0.0
H461 H 0.09309 0.45893 0.26891 0.0
H462 H 0.13993 0.4651 0.23013 0.0
H463 H 0.08322 0.42492 0.25323 0.0
H464 H 0.11487 0.526 0.34116 0.0
H465 H 0.06159 0.51683 0.30406 0.0
H466 H 0.20954 0.44643 0.24649 0.0
H467 H 0.17285 0.43579 0.29262 0.0
H468 H 0.10797 0.54375 0.22824 0.0
H469 H 0.12274 0.54983 0.2866 0.0
H470 H 0.09386 0.57607 0.23301 0.0
H471 H 0.10816 0.58189 0.29035 0.0
H472 H 0.14194 0.53236 0.22397 0.0
H473 H 0.18146 0.48666 0.2116 0.0
H474 H 0.14998 0.54424 0.19432 0.0
H475 H 0.1889 0.49938 0.18213 0.0
H476 H 0.21952 0.55611 0.23972 0.0
H477 H 0.17555 0.59659 0.25707 0.0
H478 H 0.06212 0.50618 0.20544 0.0
H479 H 0.1087 0.48134 0.1725 0.0
Li480 Li 0.77601 0.62478 0.99828 0.0
Li481 Li 0.7932 0.65443 0.01774 0.0
Li482 Li 0.79769 0.65072 0.98464 0.0
Li483 Li 0.81267 0.62957 1.00382 0.0
C484 C 0.75835 0.66466 1.00602 0.0
N485 N 0.73239 0.68858 0.02475 0.0
C486 C 0.74795 0.65847 0.02086 0.0
C487 C 0.7554 0.68294 1.00061 0.0
C488 C 0.73494 0.6708 0.03018 0.0
C489 C 0.74223 0.69483 0.01027 0.0
C490 C 0.80083 0.61686 0.0343 0.0
C491 C 0.82597 0.61645 0.05884 0.0
N492 N 0.8214 0.59666 0.058 0.0
C493 C 0.79629 0.59655 0.03378 0.0
C494 C 0.81573 0.62692 0.04699 0.0
C495 C 0.80689 0.5866 0.04584 0.0
C496 C 0.75522 0.58637 0.99289 0.0
N497 N 0.7525 0.60586 0.99461 0.0
C498 C 0.71642 0.59824 0.9923 0.0
C499 C 0.73357 0.61194 0.99395 0.0
C500 C 0.71872 0.57802 0.99109 0.0
C501 C 0.73849 0.57214 0.99115 0.0
H502 H 0.77044 0.58189 0.99303 0.0
H503 H 0.73172 0.62744 0.99474 0.0
C504 C 0.79262 0.69269 0.03852 0.0
N505 N 0.79019 0.67297 0.03929 0.0
C506 C 0.7901 0.70609 0.05424 0.0
C507 C 0.78293 0.67864 0.07123 0.0
C508 C 0.78514 0.66581 0.05515 0.0
C509 C 0.78545 0.69904 0.0709 0.0
H510 H 0.79643 0.69798 0.02568 0.0
H511 H 0.78271 0.6501 0.05531 0.0
C512 C 0.78838 0.61353 0.96309 0.0
N513 N 0.76993 0.59816 0.92916 0.0
C514 C 0.79669 0.5985 0.95193 0.0
C515 C 0.77062 0.6207 0.95702 0.0
C516 C 0.78716 0.59094 0.93481 0.0
C517 C 0.76154 0.61274 0.93982 0.0
C518 C 0.83683 0.66293 0.99729 0.0
C519 C 0.84277 0.65065 0.98204 0.0
C520 C 0.84941 0.67982 1.00453 0.0
C521 C 0.86125 0.6555 0.9743 0.0
C522 C 0.86778 0.68415 0.9964 0.0
N523 N 0.87326 0.672 0.98157 0.0
C524 C 0.8005 0.68512 0.96727 0.0
C525 C 0.80606 0.65664 0.94691 0.0
C526 C 0.80317 0.69683 0.95314 0.0
N527 N 0.8016 0.66535 0.96391 0.0
C528 C 0.8088 0.66778 0.93234 0.0
C529 C 0.80721 0.68819 0.93527 0.0
H530 H 0.79773 0.69186 0.98105 0.0
H531 H 0.80763 0.64106 0.94456 0.0
C532 C 0.83395 0.59559 1.00151 0.0
N533 N 0.83552 0.61513 0.00802 0.0
C534 C 0.8492 0.58399 1.00585 0.0
C535 C 0.86757 0.61288 0.0233 0.0
C536 C 0.85201 0.62394 0.01855 0.0
C537 C 0.86622 0.59257 0.01707 0.0
H538 H 0.82053 0.5889 0.99339 0.0
H539 H 0.85279 0.63946 0.02377 0.0
O540 O 0.77162 0.65302 0.99709 0.0
O541 O 0.79102 0.6268 0.02225 0.0
O542 O 0.79754 0.62089 0.97993 0.0
O543 O 0.81876 0.65867 1.00511 0.0
H544 H 0.75019 0.64442 0.02532 0.0
H545 H 0.76315 0.6879 0.98906 0.0
H546 H 0.72694 0.66626 0.04179 0.0
H547 H 0.73985 0.70904 1.00626 0.0
H548 H 0.83765 0.62402 0.06861 0.0
H549 H 0.78479 0.58854 0.02411 0.0
H550 H 0.81963 0.64261 0.04743 0.0
H551 H 0.8036 0.57086 0.04551 0.0
H552 H 0.70151 0.60344 0.99184 0.0
H553 H 0.74103 0.55674 0.99025 0.0
H554 H 0.79214 0.72176 0.05351 0.0
H555 H 0.77907 0.67269 0.08378 0.0
H556 H 0.8104 0.59276 0.95647 0.0
H557 H 0.76392 0.63229 0.96543 0.0
H558 H 0.79345 0.57932 0.92602 0.0
H559 H 0.74782 0.61817 0.93494 0.0
H560 H 0.83328 0.63752 0.97621 0.0
H561 H 0.845 0.68949 0.01631 0.0
H562 H 0.86602 0.64613 0.96249 0.0
H563 H 0.87767 0.69718 1.00186 0.0
H564 H 0.80233 0.71254 0.95626 0.0
H565 H 0.81186 0.66039 0.91887 0.0
H566 H 0.84737 0.56835 1.00092 0.0
H567 H 0.88049 0.62016 0.03182 0.0
Li568 Li 0.90836 0.03769 0.2773 0.0
Li569 Li 0.93358 0.01809 0.29118 0.0
Li570 Li 0.93399 0.02386 0.25837 0.0
Li571 Li 0.90634 1.0012 0.26862 0.0
C572 C 0.95466 0.05468 0.27576 0.0
N573 N 0.98794 0.07533 0.26319 0.0
C574 C 0.97426 0.0514 0.28142 0.0
C575 C 0.95197 0.06855 0.26381 0.0
C576 C 0.9909 0.06198 0.2749 0.0
C577 C 0.96899 0.07881 0.25757 0.0
C578 C 0.89576 0.01378 0.30953 0.0
C579 C 0.88658 0.99289 0.3325 0.0
N580 N 0.8808 0.00871 0.34354 0.0
C581 C 0.88964 0.02982 0.32106 0.0
C582 C 0.89414 0.99514 0.31525 0.0
C583 C 0.88214 0.02696 0.33821 0.0
C584 C 0.87143 0.0555 0.2824 0.0
N585 N 0.89199 0.05922 0.28297 0.0
C586 C 0.88946 0.09358 0.29214 0.0
C587 C 0.90112 0.07779 0.28786 0.0
C588 C 0.86811 0.09032 0.29129 0.0
C589 C 0.85918 0.07087 0.28632 0.0
H590 H 0.86453 0.04055 0.2788 0.0
H591 H 0.91749 0.08034 0.28858 0.0
C592 C 0.96763 1.00668 0.31018 0.0
N593 N 0.94982 0.01478 0.31276 0.0
C594 C 0.97963 1.00321 0.32529 0.0
C595 C 0.95479 0.01649 0.34552 0.0
C596 C 0.94351 0.02006 0.33004 0.0
C597 C 0.97317 0.00786 0.34336 0.0
H598 H 0.97253 1.00285 0.29632 0.0
H599 H 0.92962 0.02692 0.33191 0.0
C600 C 0.88844 0.02966 0.24467 0.0
N601 N 0.85569 0.04594 0.23061 0.0
C602 C 0.86929 0.01899 0.24253 0.0
C603 C 0.89096 0.04854 0.23951 0.0
C604 C 0.85292 0.0275 0.23541 0.0
C605 C 0.87421 0.05654 0.23249 0.0
C606 C 0.94078 0.98009 0.26821 0.0
C607 C 0.94901 0.97082 0.25241 0.0
C608 C 0.937 0.96975 0.28311 0.0
C609 C 0.95315 0.95121 0.25173 0.0
C610 C 0.94136 0.95017 0.2819 0.0
N611 N 0.94926 0.94138 0.26636 0.0
C612 C 0.97044 0.02081 0.23886 0.0
C613 C 0.94403 0.03337 0.22282 0.0
C614 C 0.98286 0.02158 0.22381 0.0
N615 N 0.95139 0.0266 0.23809 0.0
C616 C 0.95591 0.03439 0.20747 0.0
C617 C 0.97558 0.02828 0.20772 0.0
H618 H 0.97588 0.01528 0.25109 0.0
H619 H 0.92881 0.03776 0.22245 0.0
C620 C 0.87182 0.97394 0.27141 0.0
N621 N 0.88896 0.97726 0.26211 0.0
C622 C 0.85931 0.95628 0.26704 0.0
C623 C 0.88209 0.94595 0.24337 0.0
C624 C 0.89405 0.96386 0.24809 0.0
C625 C 0.86451 0.9419 0.25297 0.0
H626 H 0.86785 0.98501 0.28223 0.0
H627 H 0.90742 0.96707 0.24054 0.0
O628 O 0.93821 0.04403 0.28154 0.0
O629 O 0.90317 0.01633 0.29271 0.0
O630 O 0.90459 0.02167 0.25183 0.0
O631 O 0.93645 0.99921 0.26902 0.0
H632 H 0.9766 0.04068 0.29063 0.0
H633 H 0.93689 0.07119 0.25923 0.0
H634 H 0.00616 0.05953 0.27909 0.0
H635 H 0.96714 0.08949 0.24822 0.0
H636 H 0.88528 0.97855 0.33712 0.0
H637 H 0.89085 0.04437 0.31689 0.0
H638 H 0.8986 0.98252 0.30644 0.0
H639 H 0.87743 0.03926 0.34731 0.0
H640 H 0.89717 0.10815 0.29629 0.0
H641 H 0.84286 0.0675 0.2852 0.0
H642 H 0.99387 0.99705 0.32275 0.0
H643 H 0.94888 0.02018 0.35901 0.0
H644 H 0.86707 1.00435 0.24639 0.0
H645 H 0.90564 0.05704 0.24117 0.0
H646 H 0.83801 0.01944 0.23375 0.0
H647 H 0.87591 0.0712 0.22858 0.0
H648 H 0.95201 0.97864 0.24075 0.0
H649 H 0.93083 0.97678 0.29548 0.0
H650 H 0.95944 0.9438 0.23956 0.0
H651 H 0.93848 0.94197 0.29332 0.0
H652 H 0.9978 0.01649 0.22462 0.0
H653 H 0.94971 0.03994 0.19554 0.0
H654 H 0.84591 0.95378 0.27482 0.0
H655 H 0.88645 0.93547 0.23217 0.0
Li656 Li 0.28997 0.15756 0.51901 0.0
Li657 Li 0.27278 0.12887 0.49841 0.0
Li658 Li 0.31093 0.1326 0.5058 0.0
Li659 Li 0.29605 0.15328 0.48472 0.0
C660 C 0.28289 0.12938 0.54036 0.0
N661 N 0.27225 0.13068 0.57666 0.0
C662 C 0.26288 0.12394 0.54448 0.0
C663 C 0.29755 0.13522 0.55471 0.0
C664 C 0.25779 0.12475 0.56292 0.0
C665 C 0.29186 0.13587 0.57297 0.0
C666 C 0.25207 0.16104 0.49038 0.0
C667 C 0.22766 0.15759 0.46467 0.0
N668 N 0.21503 0.16809 0.47543 0.0
C669 C 0.23893 0.17195 0.50115 0.0
C670 C 0.24647 0.15392 0.47196 0.0
C671 C 0.22024 0.1753 0.49336 0.0
C672 C 0.30189 0.18914 0.54768 0.0
N673 N 0.28621 0.17587 0.54052 0.0
C674 C 0.2656 0.18674 0.56538 0.0
C675 C 0.26817 0.1747 0.54883 0.0
C676 C 0.28173 0.20022 0.57342 0.0
C677 C 0.29998 0.20149 0.56418 0.0
H678 H 0.31599 0.19002 0.5407 0.0
H679 H 0.25589 0.16408 0.54284 0.0
C680 C 0.2509 0.0912 0.48869 0.0
N681 N 0.24878 0.11045 0.49468 0.0
C682 C 0.23399 0.07714 0.48666 0.0
C683 C 0.21299 0.10294 0.49693 0.0
C684 C 0.2303 0.11643 0.49894 0.0
C685 C 0.21469 0.08296 0.49078 0.0
H686 H 0.26578 0.08675 0.48563 0.0
H687 H 0.22899 0.1316 0.50434 0.0
C688 C 0.33637 0.16544 0.50955 0.0
N689 N 0.37795 0.17205 0.51608 0.0
C690 C 0.34885 0.17065 0.4956 0.0
C691 C 0.34504 0.16386 0.5269 0.0
C692 C 0.36983 0.17388 0.49915 0.0
C693 C 0.36609 0.16717 0.5299 0.0
C694 C 0.29631 0.11615 0.46354 0.0
C695 C 0.31494 0.11254 0.45603 0.0
C696 C 0.27844 0.11132 0.45253 0.0
C697 C 0.31543 0.10466 0.43747 0.0
C698 C 0.27955 0.10344 0.43403 0.0
N699 N 0.29787 0.10033 0.42693 0.0
C700 C 0.33201 0.10671 0.52468 0.0
C701 C 0.35074 0.11948 0.50122 0.0
C702 C 0.34807 0.0962 0.52931 0.0
N703 N 0.33362 0.11817 0.51093 0.0
C704 C 0.36716 0.10917 0.50536 0.0
C705 C 0.36599 0.09732 0.51961 0.0
H706 H 0.31818 0.10563 0.53204 0.0
H707 H 0.35175 0.12865 0.49034 0.0
C708 C 0.2881 0.18166 0.46101 0.0
N709 N 0.30011 0.16712 0.46343 0.0
C710 C 0.29036 0.19212 0.44596 0.0
C711 C 0.3181 0.17332 0.43653 0.0
C712 C 0.31502 0.16291 0.45157 0.0
C713 C 0.30556 0.18805 0.4335 0.0
H714 H 0.27684 0.18535 0.47088 0.0
H715 H 0.32481 0.15173 0.45396 0.0
O716 O 0.28808 0.12905 0.52238 0.0
O717 O 0.27034 0.15745 0.49786 0.0
O718 O 0.3158 0.16199 0.50625 0.0
O719 O 0.29556 0.12379 0.48173 0.0
H720 H 0.25135 0.1193 0.53359 0.0
H721 H 0.31313 0.1393 0.55181 0.0
H722 H 0.24233 0.1207 0.5663 0.0
H723 H 0.30302 0.14051 0.5842 0.0
H724 H 0.22314 0.15214 0.45043 0.0
H725 H 0.24309 0.17774 0.51538 0.0
H726 H 0.25664 0.14586 0.46334 0.0
H727 H 0.20988 0.18364 0.50155 0.0
H728 H 0.25131 0.18508 0.57204 0.0
H729 H 0.3127 0.21192 0.56964 0.0
H730 H 0.23598 0.06191 0.4818 0.0
H731 H 0.19848 0.10802 0.50061 0.0
H732 H 0.34242 0.17218 0.48217 0.0
H733 H 0.33565 0.15997 0.53788 0.0
H734 H 0.37966 0.17783 0.48844 0.0
H735 H 0.373 0.16584 0.54322 0.0
H736 H 0.32889 0.11596 0.46439 0.0
H737 H 0.26384 0.11344 0.45821 0.0
H738 H 0.32976 0.10197 0.43144 0.0
H739 H 0.26584 0.09972 0.42533 0.0
H740 H 0.34631 0.08702 0.54018 0.0
H741 H 0.38073 0.11066 0.49761 0.0
H742 H 0.28062 0.20362 0.44433 0.0
H743 H 0.33007 0.1698 0.42729 0.0
Li744 Li 0.43651 0.51708 0.79264 0.0
Li745 Li 0.41256 0.53698 0.78011 0.0
Li746 Li 0.40964 0.50125 0.76969 0.0
Li747 Li 0.43833 0.52411 0.75961 0.0
C748 C 0.39921 0.50706 0.80928 0.0
N749 N 0.38486 0.49061 0.83933 0.0
C750 C 0.38938 0.51833 0.82291 0.0
C751 C 0.40163 0.4874 0.81086 0.0
C752 C 0.38227 0.50975 0.83802 0.0
C753 C 0.39429 0.47935 0.82617 0.0
C754 C 0.4488 0.55717 0.79766 0.0
C755 C 0.47233 0.58417 0.81198 0.0
N756 N 0.46123 0.58544 0.82731 0.0
C757 C 0.43763 0.55872 0.81356 0.0
C758 C 0.4663 0.56996 0.79684 0.0
C759 C 0.44416 0.57311 0.82841 0.0
C760 C 0.47162 0.50697 0.81101 0.0
N761 N 0.45286 0.51299 0.81386 0.0
C762 C 0.45743 0.51203 0.84631 0.0
C763 C 0.44582 0.51588 0.83115 0.0
C764 C 0.47678 0.5055 0.84384 0.0
C765 C 0.48388 0.5032 0.82583 0.0
H766 H 0.47702 0.50503 0.79716 0.0
H767 H 0.43113 0.52111 0.83329 0.0
C768 C 0.37624 0.55366 0.78891 0.0
N769 N 0.39617 0.55849 0.78609 0.0
C770 C 0.36326 0.56836 0.79304 0.0
C771 C 0.3916 0.59285 0.79182 0.0
C772 C 0.40397 0.57766 0.78733 0.0
C773 C 0.37093 0.58826 0.79464 0.0
H774 H 0.37041 0.53832 0.78783 0.0
H775 H 0.41978 0.58117 0.78476 0.0
C776 C 0.44562 0.48052 0.7658 0.0
N777 N 0.45795 0.44328 0.75725 0.0
C778 C 0.45154 0.47421 0.74801 0.0
C779 C 0.44624 0.46801 0.7793 0.0
C780 C 0.45765 0.45529 0.74394 0.0
C781 C 0.45245 0.4492 0.77469 0.0
C782 C 0.39324 0.53238 0.74773 0.0
C783 C 0.37321 0.52379 0.74673 0.0
C784 C 0.39748 0.55126 0.7429 0.0
C785 C 0.35767 0.53432 0.741 0.0
C786 C 0.38152 0.56132 0.73727 0.0
N787 N 0.36211 0.55272 0.73645 0.0
C788 C 0.37411 0.4748 0.77089 0.0
C789 C 0.39674 0.4644 0.74805 0.0
C790 C 0.36124 0.45744 0.7661 0.0
N791 N 0.39169 0.47778 0.76211 0.0
C792 C 0.38437 0.44681 0.74286 0.0
C793 C 0.36644 0.44302 0.75206 0.0
H794 H 0.37012 0.48586 0.78171 0.0
H795 H 0.41036 0.46737 0.7408 0.0
C796 C 0.47538 0.52335 0.74084 0.0
N797 N 0.45573 0.52747 0.73955 0.0
C798 C 0.48791 0.52469 0.72591 0.0
C799 C 0.45985 0.53473 0.70872 0.0
C800 C 0.44783 0.53301 0.72388 0.0
C801 C 0.48018 0.53047 0.70955 0.0
H802 H 0.48125 0.51879 0.7534 0.0
H803 H 0.43208 0.53584 0.72304 0.0
O804 O 0.40643 0.51533 0.7945 0.0
O805 O 0.44282 0.54309 0.78299 0.0
O806 O 0.43968 0.49903 0.77002 0.0
O807 O 0.40858 0.52254 0.75383 0.0
H808 H 0.3874 0.53358 0.82189 0.0
H809 H 0.40895 0.47843 0.80032 0.0
H810 H 0.37471 0.51831 0.84871 0.0
H811 H 0.39607 0.46415 0.82757 0.0
H812 H 0.48585 0.59418 0.81154 0.0
H813 H 0.42404 0.54897 0.81443 0.0
H814 H 0.47513 0.5689 0.78463 0.0
H815 H 0.43565 0.57448 0.84079 0.0
H816 H 0.45106 0.51386 0.85978 0.0
H817 H 0.49882 0.49864 0.82315 0.0
H818 H 0.34743 0.56422 0.79519 0.0
H819 H 0.39803 0.60803 0.79274 0.0
H820 H 0.45122 0.48375 0.73741 0.0
H821 H 0.44215 0.47279 0.79324 0.0
H822 H 0.46213 0.45016 0.7302 0.0
H823 H 0.45295 0.43934 0.785 0.0
H824 H 0.36967 0.50923 0.75049 0.0
H825 H 0.4129 0.55821 0.74383 0.0
H826 H 0.34208 0.5279 0.74023 0.0
H827 H 0.38454 0.576 0.73364 0.0
H828 H 0.34758 0.45516 0.77359 0.0
H829 H 0.38874 0.43634 0.73166 0.0
H830 H 0.50351 0.5214 0.72723 0.0
H831 H 0.45315 0.53896 0.69632 0.0
Li832 Li 0.78293 0.39576 0.52104 0.0
Li833 Li 0.76945 0.37228 0.5401 0.0
Li834 Li 0.76103 0.36685 0.50624 0.0
Li835 Li 0.7467 0.39499 0.52738 0.0
C836 C 0.80654 0.36226 0.518 0.0
N837 N 0.84539 0.35107 0.51478 0.0
C838 C 0.8188 0.36166 0.53379 0.0
C839 C 0.81389 0.35677 0.50058 0.0
C840 C 0.83844 0.35608 0.53188 0.0
C841 C 0.83361 0.35127 0.49924 0.0
C842 C 0.78418 0.41595 0.55382 0.0
C843 C 0.79632 0.45039 0.56058 0.0
N844 N 0.81324 0.44554 0.56925 0.0
C845 C 0.80165 0.41131 0.56287 0.0
C846 C 0.78144 0.43565 0.55273 0.0
C847 C 0.81617 0.42647 0.57057 0.0
C848 C 0.80161 0.43014 0.50878 0.0
N849 N 0.80577 0.41434 0.5171 0.0
C850 C 0.84112 0.42605 0.52005 0.0
C851 C 0.82508 0.41222 0.52292 0.0
C852 C 0.83727 0.44206 0.51088 0.0
C853 C 0.81721 0.44405 0.50525 0.0
H854 H 0.78611 0.43208 0.50495 0.0
H855 H 0.82809 0.40001 0.53006 0.0
C856 C 0.77748 0.3389 0.55734 0.0
N857 N 0.77452 0.35833 0.56061 0.0
C858 C 0.78114 0.3284 0.57203 0.0
C859 C 0.77895 0.35817 0.59316 0.0
C860 C 0.77502 0.368 0.57809 0.0
C861 C 0.78207 0.33809 0.59023 0.0
H862 H 0.77699 0.33156 0.54328 0.0
H863 H 0.77236 0.38338 0.58034 0.0
C864 C 0.76322 0.40017 0.4861 0.0
N865 N 0.77055 0.41003 0.45141 0.0
C866 C 0.75 0.4113 0.47766 0.0
C867 C 0.7802 0.39411 0.47696 0.0
C868 C 0.75396 0.41612 0.4601 0.0
C869 C 0.78364 0.39923 0.45942 0.0
C870 C 0.73345 0.3521 0.53712 0.0
C871 C 0.73198 0.33199 0.53055 0.0
C872 C 0.72722 0.3584 0.5548 0.0
C873 C 0.72438 0.31846 0.54186 0.0
C874 C 0.71974 0.34441 0.5657 0.0
N875 N 0.71849 0.3249 0.55906 0.0
C876 C 0.76395 0.32961 0.48592 0.0
C877 C 0.74848 0.35135 0.46862 0.0
C878 C 0.76306 0.31521 0.47044 0.0
N879 N 0.7569 0.34734 0.48473 0.0
C880 C 0.74768 0.33753 0.45269 0.0
C881 C 0.75521 0.31914 0.45333 0.0
H882 H 0.77056 0.32676 0.4989 0.0
H883 H 0.74281 0.36546 0.46797 0.0
C884 C 0.72734 0.42976 0.52783 0.0
N885 N 0.7244 0.4108 0.53128 0.0
C886 C 0.71239 0.44259 0.53164 0.0
C887 C 0.69112 0.41592 0.54162 0.0
C888 C 0.7066 0.40364 0.53779 0.0
C889 C 0.69405 0.4358 0.53885 0.0
H890 H 0.74146 0.43499 0.52229 0.0
H891 H 0.70449 0.38846 0.54023 0.0
O892 O 0.78715 0.36738 0.51959 0.0
O893 O 0.7701 0.40126 0.54571 0.0
O894 O 0.75956 0.39536 0.5033 0.0
O895 O 0.74143 0.36554 0.52649 0.0
H896 H 0.81329 0.36558 0.54739 0.0
H897 H 0.80444 0.35658 0.48821 0.0
H898 H 0.84814 0.3557 0.54398 0.0
H899 H 0.83953 0.34707 0.48584 0.0
H900 H 0.79445 0.46569 0.55973 0.0
H901 H 0.80411 0.39616 0.56375 0.0
H902 H 0.76806 0.43953 0.54578 0.0
H903 H 0.82981 0.42308 0.57751 0.0
H904 H 0.8564 0.42413 0.52473 0.0
H905 H 0.8136 0.45643 0.49846 0.0
H906 H 0.78354 0.31297 0.56917 0.0
H907 H 0.77925 0.36612 0.60698 0.0
H908 H 0.73681 0.41614 0.48461 0.0
H909 H 0.79066 0.38569 0.48341 0.0
H910 H 0.74385 0.42471 0.45337 0.0
H911 H 0.79674 0.39465 0.45218 0.0
H912 H 0.73676 0.32688 0.51691 0.0
H913 H 0.72853 0.37392 0.56019 0.0
H914 H 0.72323 0.30284 0.53698 0.0
H915 H 0.71502 0.34906 0.57947 0.0
H916 H 0.76862 0.30119 0.47193 0.0
H917 H 0.74172 0.34155 0.43992 0.0
H918 H 0.71516 0.45769 0.52897 0.0
H919 H 0.67724 0.41008 0.54719 0.0
Li920 Li 0.652 0.98852 0.75636 0.0
Li921 Li 0.62588 0.00918 0.77098 0.0
Li922 Li 0.62692 1.00113 0.73659 0.0
Li923 Li 0.65344 0.02327 0.75411 0.0
C924 C 0.61592 0.96407 0.74629 0.0
N925 N 0.60457 0.92658 0.72828 0.0
C926 C 0.59948 0.95265 0.75216 0.0
C927 C 0.62661 0.95645 0.73126 0.0
C928 C 0.59397 0.93372 0.74287 0.0
C929 C 0.62063 0.93746 0.72234 0.0
C930 C 0.67155 0.02228 0.78583 0.0
C931 C 0.68535 0.05229 0.80469 0.0
N932 N 0.70439 0.04685 0.8022 0.0
C933 C 0.69123 0.01692 0.78352 0.0
C934 C 0.66854 0.04004 0.79656 0.0
C935 C 0.70765 0.02956 0.7919 0.0
C936 C 0.6845 0.9643 0.75044 0.0
N937 N 0.66737 0.96698 0.7598 0.0
C938 C 0.67271 0.93996 0.77622 0.0
C939 C 0.66125 0.95512 0.7724 0.0
C940 C 0.6907 0.93694 0.76701 0.0
C941 C 0.69643 0.94929 0.75383 0.0
H942 H 0.6891 0.97404 0.74058 0.0
H943 H 0.64765 0.9577 0.77974 0.0
C944 C 0.58809 0.01405 0.78635 0.0
N945 N 0.60805 0.01329 0.79078 0.0
C946 C 0.57453 0.01844 0.80018 0.0
C947 C 0.60223 0.02071 0.82295 0.0
C948 C 0.61528 0.0163 0.80865 0.0
C949 C 0.58156 0.02209 0.81878 0.0
H950 H 0.58278 0.01162 0.77201 0.0
H951 H 0.63126 0.01567 0.81177 0.0
C952 C 0.66226 0.00835 0.71803 0.0
N953 N 0.67283 0.02236 0.68565 0.0
C954 C 0.65438 0.02519 0.71319 0.0
C955 C 0.67554 0.99865 0.70641 0.0
C956 C 0.6599 0.03205 0.69677 0.0
C957 C 0.68069 1.00595 0.69009 0.0
C958 C 0.61648 0.04424 0.75365 0.0
C959 C 0.60934 0.05171 0.73807 0.0
C960 C 0.61515 0.05489 0.77115 0.0
C961 C 0.60121 0.06984 0.74024 0.0
C962 C 0.60691 0.07296 0.77274 0.0
N963 N 0.60018 0.08 0.75739 0.0
C964 C 0.59054 1.00241 0.7159 0.0
C965 C 0.61647 0.98925 0.698 0.0
C966 C 0.57784 1.00156 0.70009 0.0
N967 N 0.6096 0.99665 0.71455 0.0
C968 C 0.6044 0.98844 0.68182 0.0
C969 C 0.58493 0.99493 0.68272 0.0
H970 H 0.58544 0.00821 0.72924 0.0
H971 H 0.63149 0.98439 0.69725 0.0
C972 C 0.69123 0.04293 0.74709 0.0
N973 N 0.67247 0.04622 0.75309 0.0
C974 C 0.70561 0.05869 0.74533 0.0
C975 C 0.68132 0.08107 0.75626 0.0
C976 C 0.66743 0.06487 0.75782 0.0
C977 C 0.7007 0.07813 0.74983 0.0
H978 H 0.69503 0.02798 0.74362 0.0
H979 H 0.65264 0.06732 0.76275 0.0
O980 O 0.62146 0.98263 0.75525 0.0
O981 O 0.65536 0.0104 0.77725 0.0
O982 O 0.65709 1.00129 0.73404 0.0
O983 O 0.6241 0.02631 0.75179 0.0
H984 H 0.59106 0.95837 0.76377 0.0
H985 H 0.63938 0.96506 0.72652 0.0
H986 H 0.58127 0.9247 0.74726 0.0
H987 H 0.62875 0.93137 0.71069 0.0
H988 H 0.68327 0.06615 0.81293 0.0
H989 H 0.69381 1.00326 0.77517 0.0
H990 H 0.6534 0.04442 0.79842 0.0
H991 H 0.72298 0.02568 0.79014 0.0
H992 H 0.66781 0.9311 0.78671 0.0
H993 H 0.71003 0.94745 0.74625 0.0
H994 H 0.5587 0.01905 0.79631 0.0
H995 H 0.60838 0.02361 0.83704 0.0
H996 H 0.64418 0.03293 0.72202 0.0
H997 H 0.68175 0.98556 0.70993 0.0
H998 H 0.65391 0.04507 0.69286 0.0
H999 H 0.69093 0.99857 0.68096 0.0
H1000 H 0.61002 0.04359 0.72442 0.0
H1001 H 0.62065 0.04942 0.78336 0.0
H1002 H 0.59568 0.07582 0.7283 0.0
H1003 H 0.6059 0.08139 0.78619 0.0
H1004 H 0.56295 1.00676 0.70136 0.0
H1005 H 0.61031 0.98296 0.66871 0.0
H1006 H 0.72046 0.05567 0.74062 0.0
H1007 H 0.67674 0.09575 0.75975 0.0
Li1008 Li 0.05004 0.23272 0.87241 0.0
Li1009 Li 0.02907 0.25005 0.89779 0.0
Li1010 Li 0.03427 0.21468 0.89591 0.0
Li1011 Li 0.01315 0.22556 0.87271 0.0
C1012 C 0.06944 0.23123 0.91072 0.0
N1013 N 0.09663 0.21599 0.93304 0.0
C1014 C 0.07059 0.23721 0.92976 0.0
C1015 C 0.08221 0.21761 0.903 0.0
C1016 C 0.08441 0.2293 0.94082 0.0
C1017 C 0.09584 0.21006 0.91452 0.0
C1018 C 0.01806 0.25898 0.85767 0.0
C1019 C 0.98818 0.27323 0.84812 0.0
N1020 N 0.99534 0.27314 0.83091 0.0
C1021 C 0.02519 0.25917 0.83993 0.0
C1022 C 0.99949 0.26621 0.86185 0.0
C1023 C 0.01346 0.26636 0.82659 0.0
C1024 C 0.07202 0.2292 0.83957 0.0
N1025 N 0.07295 0.23672 0.85775 0.0
C1026 C 0.10673 0.2515 0.85543 0.0
C1027 C 0.08983 0.24767 0.86579 0.0
C1028 C 0.10621 0.24423 0.8365 0.0
C1029 C 0.0885 0.23286 0.82862 0.0
H1030 H 0.05833 0.22062 0.83351 0.0
H1031 H 0.09016 0.25347 0.88029 0.0
C1032 C 0.02599 0.27395 0.93214 0.0
N1033 N 0.0266 0.27392 0.91359 0.0
C1034 C 0.02399 0.29144 0.94378 0.0
C1035 C 0.02278 0.30837 0.91693 0.0
C1036 C 0.02514 0.29065 0.90586 0.0
C1037 C 0.02224 0.30891 0.93615 0.0
H1038 H 0.02694 0.26035 0.93788 0.0
H1039 H 0.02579 0.29025 0.89109 0.0
C1040 C 0.02562 0.1875 0.86417 0.0
N1041 N 0.00852 0.14907 0.85545 0.0
C1042 C 0.00712 0.18152 0.87133 0.0
C1043 C 0.0354 0.17397 0.85254 0.0
C1044 C 0.99872 0.16203 0.86677 0.0
C1045 C 0.02652 0.15459 0.84831 0.0
C1046 C 0.99113 0.22749 0.90779 0.0
C1047 C 0.98264 0.21044 0.9142 0.0
C1048 C 0.981 0.24452 0.91006 0.0
C1049 C 0.96401 0.21065 0.92257 0.0
C1050 C 0.9624 0.24413 0.91852 0.0
N1051 N 0.95436 0.22734 0.92453 0.0
C1052 C 0.03299 0.20076 0.92996 0.0
C1053 C 0.04675 0.17854 0.90728 0.0
C1054 C 0.03705 0.18907 0.94357 0.0
N1055 N 0.03808 0.1955 0.91228 0.0
C1056 C 0.05097 0.16628 0.92049 0.0
C1057 C 0.04644 0.17171 0.93899 0.0
H1058 H 0.0263 0.21441 0.9336 0.0
H1059 H 0.05099 0.17483 0.89321 0.0
C1060 C 0.99285 0.21763 0.83758 0.0
N1061 N 0.98947 0.21988 0.85593 0.0
C1062 C 0.97668 0.21632 0.82453 0.0
C1063 C 0.95365 0.21816 0.8494 0.0
C1064 C 0.97027 0.21973 0.86196 0.0
C1065 C 0.95671 0.21694 0.83037 0.0
H1066 H 0.00824 0.21769 0.83309 0.0
H1067 H 0.96774 0.22124 0.87651 0.0
O1068 O 0.05547 0.23818 0.89972 0.0
O1069 O 0.0291 0.25155 0.87079 0.0
O1070 O 0.03425 0.20646 0.86851 0.0
O1071 O 0.00944 0.22758 0.89968 0.0
H1072 H 0.06077 0.24769 0.93595 0.0
H1073 H 0.08135 0.21269 0.88829 0.0
H1074 H 0.08538 0.23368 0.9556 0.0
H1075 H 0.10572 0.1994 0.90876 0.0
H1076 H 0.9737 0.27868 0.85112 0.0
H1077 H 0.03955 0.25372 0.83647 0.0
H1078 H 0.99374 0.26616 0.87549 0.0
H1079 H 0.01873 0.26649 0.81278 0.0
H1080 H 0.1201 0.25997 0.86229 0.0
H1081 H 0.0872 0.22712 0.81408 0.0
H1082 H 0.02351 0.29128 0.95854 0.0
H1083 H 0.02172 0.32158 0.91055 0.0
H1084 H 0.9993 0.19181 0.88024 0.0
H1085 H 0.04974 0.17839 0.84689 0.0
H1086 H 0.98441 0.1572 0.87221 0.0
H1087 H 0.03394 0.14394 0.83935 0.0
H1088 H 0.99036 0.19718 0.91273 0.0
H1089 H 0.98737 0.25788 0.90533 0.0
H1090 H 0.95724 0.19754 0.92754 0.0
H1091 H 0.95437 0.25718 0.92031 0.0
H1092 H 0.0331 0.19373 0.9576 0.0
H1093 H 0.0584 0.15313 0.9164 0.0
H1094 H 0.97995 0.21555 0.81007 0.0
H1095 H 0.93856 0.21814 0.85463 0.0
Li1096 Li 0.55054 0.73638 0.37185 0.0
Li1097 Li 0.53024 0.75344 0.39654 0.0
Li1098 Li 0.53599 0.71787 0.3955 0.0
Li1099 Li 0.51413 0.72854 0.3723 0.0
C1100 C 0.57505 0.73616 0.40413 0.0
N1101 N 0.61243 0.72521 0.41428 0.0
C1102 C 0.5864 0.74687 0.41921 0.0
C1103 C 0.58268 0.71987 0.39422 0.0
C1104 C 0.60528 0.7411 0.42412 0.0
C1105 C 0.60162 0.71457 0.39956 0.0
C1106 C 0.51978 0.76053 0.35484 0.0
C1107 C 0.4911 0.77348 0.34124 0.0
N1108 N 0.49999 0.7718 0.3247 0.0
C1109 C 0.52869 0.75905 0.33773 0.0
C1110 C 0.5009 0.76794 0.35665 0.0
C1111 C 0.51843 0.7648 0.32265 0.0
C1112 C 0.57894 0.72524 0.34516 0.0
N1113 N 0.57324 0.74053 0.35692 0.0
C1114 C 0.59924 0.76255 0.34667 0.0
C1115 C 0.58303 0.75892 0.35793 0.0
C1116 C 0.60545 0.74707 0.33426 0.0
C1117 C 0.59509 0.72817 0.33371 0.0
H1118 H 0.57092 0.71077 0.34466 0.0
H1119 H 0.57807 0.77083 0.36735 0.0
C1120 C 0.53179 0.77854 0.43077 0.0
N1121 N 0.52806 0.77747 0.41226 0.0
C1122 C 0.53012 0.79613 0.44239 0.0
C1123 C 0.5206 0.81102 0.41568 0.0
C1124 C 0.52269 0.79327 0.40458 0.0
C1125 C 0.52434 0.81263 0.43485 0.0
H1126 H 0.53606 0.76572 0.43648 0.0
H1127 H 0.52003 0.79208 0.38982 0.0
C1128 C 0.52609 0.69083 0.36425 0.0
N1129 N 0.50763 0.65275 0.35657 0.0
C1130 C 0.50876 0.68509 0.37335 0.0
C1131 C 0.534 0.67719 0.35122 0.0
C1132 C 0.49966 0.66579 0.36928 0.0
C1133 C 0.52447 0.65801 0.34754 0.0
C1134 C 0.49244 0.73256 0.40699 0.0
C1135 C 0.48321 0.71728 0.41556 0.0
C1136 C 0.48283 0.74971 0.40641 0.0
C1137 C 0.46442 0.71938 0.4233 0.0
C1138 C 0.46405 0.75124 0.41432 0.0
N1139 N 0.4553 0.73617 0.42252 0.0
C1140 C 0.53433 0.70238 0.42907 0.0
C1141 C 0.54949 0.68202 0.40584 0.0
C1142 C 0.53747 0.68939 0.44179 0.0
N1143 N 0.54032 0.69852 0.41149 0.0
C1144 C 0.55304 0.66865 0.41816 0.0
C1145 C 0.54704 0.67226 0.43646 0.0
H1146 H 0.5273 0.71573 0.43328 0.0
H1147 H 0.55427 0.67931 0.39182 0.0
C1148 C 0.49355 0.7195 0.33744 0.0
N1149 N 0.49026 0.72169 0.35583 0.0
C1150 C 0.47725 0.71705 0.32444 0.0
C1151 C 0.45431 0.71721 0.34939 0.0
C1152 C 0.47107 0.7201 0.36193 0.0
C1153 C 0.45733 0.71613 0.33041 0.0
H1154 H 0.50892 0.72026 0.33288 0.0
H1155 H 0.4686 0.72139 0.37648 0.0
O1156 O 0.55647 0.74152 0.39926 0.0
O1157 O 0.52947 0.75467 0.36969 0.0
O1158 O 0.53536 0.70964 0.368 0.0
O1159 O 0.5109 0.73074 0.39944 0.0
H1160 H 0.58064 0.75949 0.42705 0.0
H1161 H 0.57404 0.71134 0.38258 0.0
H1162 H 0.61424 0.74926 0.43577 0.0
H1163 H 0.6077 0.70198 0.39203 0.0
H1164 H 0.4764 0.77905 0.34241 0.0
H1165 H 0.54325 0.75332 0.33602 0.0
H1166 H 0.49372 0.76914 0.36974 0.0
H1167 H 0.52509 0.76362 0.30931 0.0
H1168 H 0.60657 0.77738 0.34747 0.0
H1169 H 0.59951 0.7157 0.32464 0.0
H1170 H 0.53308 0.79677 0.45711 0.0
H1171 H 0.51644 0.82348 0.40928 0.0
H1172 H 0.50236 0.69536 0.38343 0.0
H1173 H 0.5474 0.68134 0.34403 0.0
H1174 H 0.48625 0.66117 0.37624 0.0
H1175 H 0.53045 0.6473 0.3375 0.0
H1176 H 0.49046 0.70392 0.41618 0.0
H1177 H 0.48972 0.76166 0.39987 0.0
H1178 H 0.45708 0.70766 0.42993 0.0
H1179 H 0.45642 0.76442 0.41392 0.0
H1180 H 0.5329 0.693 0.45581 0.0
H1181 H 0.56036 0.65561 0.41339 0.0
H1182 H 0.48017 0.71599 0.30989 0.0
H1183 H 0.43915 0.71648 0.35452 0.0
Li1184 Li 0.01859 0.78843 0.64626 0.0
Li1185 Li 0.99538 0.77423 0.66946 0.0
Li1186 Li 0.03132 0.76951 0.67 0.0
Li1187 Li 0.00796 0.75236 0.64446 0.0
C1188 C 0.03049 0.81121 0.68247 0.0
N1189 N 0.05383 0.84423 0.7 0.0
C1190 C 0.0255 0.82002 0.69984 0.0
C1191 C 0.04725 0.81929 0.67396 0.0
C1192 C 0.03752 0.83667 0.7085 0.0
C1193 C 0.05888 0.83596 0.68306 0.0
C1194 C 0.97778 0.76729 0.62753 0.0
C1195 C 0.94956 0.74518 0.61327 0.0
N1196 N 0.95297 0.752 0.59692 0.0
C1197 C 0.98093 0.77417 0.61063 0.0
C1198 C 0.9619 0.75278 0.62892 0.0
C1199 C 0.96824 0.76622 0.5953 0.0
C1200 C 0.04104 0.80599 0.62003 0.0
N1201 N 0.02504 0.80867 0.63092 0.0
C1202 C 0.0184 0.83743 0.61734 0.0
C1203 C 0.01384 0.82414 0.62996 0.0
C1204 C 0.03462 0.83473 0.6056 0.0
C1205 C 0.04618 0.81891 0.60739 0.0
H1206 H 0.04965 0.79356 0.62092 0.0
H1207 H 1.00105 0.82587 0.63864 0.0
C1208 C 0.97807 0.78051 0.7041 0.0
N1209 N 0.97336 0.77839 0.68567 0.0
C1210 C 0.9628 0.7816 0.7168 0.0
C1211 C 0.93806 0.7795 0.69145 0.0
C1212 C 0.95382 0.77808 0.67917 0.0
C1213 C 0.94246 0.78094 0.71054 0.0
H1214 H 0.99372 0.78088 0.70894 0.0
H1215 H 0.95043 0.77643 0.66446 0.0
C1216 C 0.05404 0.7589 0.6418 0.0
N1217 N 0.09152 0.7443 0.64116 0.0
C1218 C 0.05541 0.73869 0.63731 0.0
C1219 C 0.07176 0.77168 0.64585 0.0
C1220 C 0.07449 0.7316 0.63707 0.0
C1221 C 0.09056 0.76401 0.64551 0.0
C1222 C 0.99782 0.74094 0.68395 0.0
C1223 C 0.00641 0.74223 0.70183 0.0
C1224 C 0.97833 0.73141 0.67978 0.0
C1225 C 0.99523 0.73412 0.71531 0.0
C1226 C 0.96762 0.72353 0.69365 0.0
N1227 N 0.97622 0.72505 0.71098 0.0
C1228 C 0.06475 0.78037 0.69761 0.0
C1229 C 0.05908 0.74679 0.68488 0.0
C1230 C 0.08107 0.77645 0.70871 0.0
N1231 N 0.05419 0.76564 0.68586 0.0
C1232 C 0.07539 0.74223 0.6956 0.0
C1233 C 0.08671 0.75716 0.70776 0.0
H1234 H 0.06056 0.79519 0.69858 0.0
H1235 H 0.05029 0.73523 0.67569 0.0
C1236 C 1.00385 0.73083 0.60875 0.0
N1237 N 1.00204 0.729 0.6269 0.0
C1238 C 0.9996 0.71447 0.59524 0.0
C1239 C 0.99274 0.69431 0.61936 0.0
C1240 C 0.99677 0.71118 0.63242 0.0
C1241 C 0.99394 0.6959 0.60048 0.0
H1242 H 0.00865 0.74504 0.60475 0.0
H1243 H 0.99582 0.71002 0.64695 0.0
O1244 O 0.0188 0.79498 0.67378 0.0
O1245 O 0.99028 0.77464 0.64261 0.0
O1246 O 0.03545 0.76609 0.64249 0.0
O1247 O 0.00836 0.74915 0.67066 0.0
H1248 H 0.01249 0.81405 0.70657 0.0
H1249 H 0.05131 0.81271 0.66053 0.0
H1250 H 0.03388 0.8436 0.72197 0.0
H1251 H 0.07193 0.84232 0.67665 0.0
H1252 H 0.9373 0.73385 0.61411 0.0
H1253 H 0.99317 0.78538 0.6093 0.0
H1254 H 0.95925 0.74732 0.64189 0.0
H1255 H 0.97057 0.77132 0.58211 0.0
H1256 H 0.00893 0.84929 0.61639 0.0
H1257 H 0.05907 0.81637 0.59898 0.0
H1258 H 0.96688 0.78295 0.73141 0.0
H1259 H 0.92255 0.77892 0.68606 0.0
H1260 H 0.0419 0.72853 0.63425 0.0
H1261 H 0.07104 0.78734 0.6494 0.0
H1262 H 0.07576 0.71599 0.63371 0.0
H1263 H 0.10438 0.77373 0.64872 0.0
H1264 H 0.02144 0.74964 0.70534 0.0
H1265 H 0.97146 0.73028 0.66602 0.0
H1266 H 1.00164 0.73512 0.72923 0.0
H1267 H 0.95247 0.71624 0.69064 0.0
H1268 H 0.08902 0.78842 0.7181 0.0
H1269 H 0.07923 0.72717 0.69412 0.0
H1270 H 1.00103 0.71625 0.58085 0.0
H1271 H 0.98845 0.68024 0.62395 0.0
Li1272 Li 0.51644 0.28382 0.14303 0.0
Li1273 Li 0.49538 0.26902 0.16597 0.0
Li1274 Li 0.53179 0.2647 0.16446 0.0
Li1275 Li 0.50698 0.24785 0.13996 0.0
C1276 C 0.53083 0.29908 0.1849 0.0
N1277 N 0.55583 0.31646 0.21474 0.0
C1278 C 0.524 0.29958 0.2028 0.0
C1279 C 0.55035 0.30747 0.18217 0.0
C1280 C 0.53686 0.30845 0.21771 0.0
C1281 C 0.56277 0.31615 0.19744 0.0
C1282 C 0.46987 0.27449 0.14005 0.0
C1283 C 0.43398 0.26655 0.14282 0.0
N1284 N 0.43127 0.28602 0.14408 0.0
C1285 C 0.46675 0.29441 0.14134 0.0
C1286 C 0.45339 0.26041 0.14076 0.0
C1287 C 0.4471 0.29994 0.14337 0.0
C1288 C 0.51308 0.30047 0.11035 0.0
N1289 N 0.52086 0.3047 0.128 0.0
C1290 C 0.53756 0.33523 0.12135 0.0
C1291 C 0.53255 0.3219 0.1338 0.0
C1292 C 0.53058 0.33071 0.10277 0.0
C1293 C 0.51782 0.31324 0.09746 0.0
H1294 H 0.5038 0.28672 0.10609 0.0
H1295 H 0.53856 0.32499 0.1479 0.0
C1296 C 0.46327 0.25591 0.18744 0.0
N1297 N 0.47341 0.27235 0.18249 0.0
C1298 C 0.44778 0.2574 0.19989 0.0
C1299 C 0.4533 0.29279 0.20206 0.0
C1300 C 0.46858 0.2906 0.18935 0.0
C1301 C 0.44274 0.27603 0.20768 0.0
H1302 H 0.46731 0.24158 0.18186 0.0
H1303 H 0.47688 0.30348 0.18525 0.0
C1304 C 0.54427 0.26752 0.12294 0.0
N1305 N 0.56365 0.2804 0.09327 0.0
C1306 C 0.53767 0.25956 0.10492 0.0
C1307 C 0.56082 0.28191 0.12586 0.0
C1308 C 0.54766 0.26628 0.09011 0.0
C1309 C 0.57038 0.28827 0.11069 0.0
C1310 C 0.50716 0.22468 0.16623 0.0
C1311 C 0.52396 0.2153 0.17114 0.0
C1312 C 0.48885 0.21342 0.16039 0.0
C1313 C 0.52217 0.19479 0.17008 0.0
C1314 C 0.48768 0.19295 0.15948 0.0
N1315 N 0.50423 0.18414 0.16431 0.0
C1316 C 0.5557 0.26159 0.19713 0.0
C1317 C 0.57333 0.2591 0.16945 0.0
C1318 C 0.57339 0.25939 0.20735 0.0
N1319 N 0.55605 0.26169 0.17857 0.0
C1320 C 0.5913 0.25668 0.17907 0.0
C1321 C 0.5916 0.25696 0.19834 0.0
H1322 H 0.54166 0.26321 0.20403 0.0
H1323 H 0.57314 0.2587 0.15465 0.0
C1324 C 0.48484 0.22406 0.10985 0.0
N1325 N 0.50085 0.22477 0.1221 0.0
C1326 C 0.4804 0.20777 0.09626 0.0
C1327 C 0.50888 0.1931 0.10823 0.0
C1328 C 0.51302 0.20986 0.12133 0.0
C1329 C 0.49241 0.19185 0.09531 0.0
H1330 H 0.47569 0.23632 0.11044 0.0
H1331 H 0.52594 0.21096 0.13096 0.0
O1332 O 0.51855 0.29025 0.17014 0.0
O1333 O 0.48905 0.26885 0.13867 0.0
O1334 O 0.53426 0.26163 0.13761 0.0
O1335 O 0.50865 0.24476 0.16711 0.0
H1336 H 0.50902 0.293 0.2052 0.0
H1337 H 0.55597 0.307 0.16845 0.0
H1338 H 0.53181 0.30888 0.23164 0.0
H1339 H 0.57796 0.32257 0.19554 0.0
H1340 H 0.42109 0.25584 0.1435 0.0
H1341 H 0.4794 0.30548 0.14097 0.0
H1342 H 0.45561 0.24495 0.13996 0.0
H1343 H 0.44446 0.31531 0.14445 0.0
H1344 H 0.54749 0.34848 0.12603 0.0
H1345 H 0.51185 0.30928 0.08336 0.0
H1346 H 0.43988 0.24399 0.20337 0.0
H1347 H 0.45021 0.30749 0.20775 0.0
H1348 H 0.52482 0.24851 0.10237 0.0
H1349 H 0.56605 0.28832 0.13971 0.0
H1350 H 0.54264 0.26034 0.07609 0.0
H1351 H 0.58309 0.29952 0.11275 0.0
H1352 H 0.53826 0.22372 0.17566 0.0
H1353 H 0.47579 0.22037 0.15618 0.0
H1354 H 0.53506 0.18735 0.17381 0.0
H1355 H 0.47366 0.18406 0.15484 0.0
H1356 H 0.57282 0.25981 0.22216 0.0
H1357 H 0.60474 0.25434 0.17139 0.0
H1358 H 0.46788 0.20791 0.08641 0.0
H1359 H 0.51849 0.18124 0.10835 0.0
H1360 H 0.22873 0.73504 0.85113 0.0
H1361 H 0.29404 0.74579 0.85593 0.0
H1362 H 0.22634 0.75793 0.87955 0.0
H1363 H 0.29163 0.76895 0.88409 0.0
H1364 H 0.27439 0.82613 0.91996 0.0
H1365 H 0.27611 0.8031 0.89162 0.0
H1366 H 0.23849 0.75891 0.91489 0.0
H1367 H 0.2371 0.78185 0.94344 0.0
C1368 C 0.24254 0.74237 0.85824 0.0
C1369 C 0.26157 0.73864 0.85138 0.0
C1370 C 0.24118 0.75536 0.87451 0.0
C1371 C 0.2588 0.76521 0.88399 0.0
C1372 C 0.27781 0.76162 0.87701 0.0
C1373 C 0.27919 0.74832 0.86098 0.0
C1374 C 0.26642 0.81153 0.91898 0.0
C1375 C 0.25559 0.80577 0.93388 0.0
C1376 C 0.2675 0.79833 0.90282 0.0
C1377 C 0.25743 0.77924 0.90108 0.0
C1378 C 0.24631 0.77358 0.91585 0.0
C1379 C 0.24559 0.78664 0.93218 0.0
H1380 H 0.9973 0.52995 0.41155 0.0
H1381 H 0.01524 0.58923 0.40119 0.0
H1382 H 0.02274 0.51764 0.39051 0.0
H1383 H 0.04032 0.57705 0.38012 0.0
H1384 H 0.09424 0.55184 0.35363 0.0
H1385 H 0.07225 0.56177 0.37854 0.0
H1386 H 0.02692 0.5145 0.35657 0.0
H1387 H 0.04916 0.50423 0.33188 0.0
C1388 C 0.00688 0.54035 0.40499 0.0
C1389 C 1.00421 0.56052 0.40791 0.0
C1390 C 0.0213 0.53331 0.39282 0.0
C1391 C 0.03351 0.54635 0.38356 0.0
C1392 C 0.03133 0.5666 0.38712 0.0
C1393 C 0.01684 0.57358 0.39909 0.0
C1394 C 0.07974 0.54334 0.35427 0.0
C1395 C 0.07344 0.52728 0.34068 0.0
C1396 C 0.06705 0.54914 0.36847 0.0
C1397 C 0.04778 0.539 0.36951 0.0
C1398 C 0.04173 0.52255 0.35627 0.0
C1399 C 0.05438 0.51681 0.34199 0.0
H1400 H 0.78701 0.75987 0.84781 0.0
H1401 H 0.85204 0.75869 0.85094 0.0
H1402 H 0.78362 0.7379 0.87123 0.0
H1403 H 0.84873 0.73686 0.87466 0.0
H1404 H 0.83375 0.68497 0.90705 0.0
H1405 H 0.83707 0.70455 0.88167 0.0
H1406 H 0.79007 0.73917 0.90361 0.0
H1407 H 0.78609 0.71908 0.92839 0.0
C1408 C 0.80061 0.75489 0.85352 0.0
C1409 C 0.81981 0.76116 0.84757 0.0
C1410 C 0.79868 0.74235 0.86704 0.0
C1411 C 0.81591 0.73575 0.8751 0.0
C1412 C 0.8351 0.74148 0.8687 0.0
C1413 C 0.83701 0.754 0.85507 0.0
C1414 C 0.82394 0.69661 0.90635 0.0
C1415 C 0.80961 0.70036 0.91985 0.0
C1416 C 0.82603 0.70801 0.89188 0.0
C1417 C 0.81381 0.72347 0.89047 0.0
C1418 C 0.79955 0.72723 0.90401 0.0
C1419 C 0.79746 0.71585 0.91844 0.0
H1420 H 0.04599 0.0135 0.44655 0.0
H1421 H 0.038 0.95161 0.42473 0.0
H1422 H 0.02648 0.02091 0.42018 0.0
H1423 H 0.01677 0.95878 0.39944 0.0
H1424 H 0.99729 0.97763 0.34559 0.0
H1425 H 0.01739 0.97102 0.37185 0.0
H1426 H 0.99526 0.02042 0.40542 0.0
H1427 H 0.97683 0.02826 0.37867 0.0
C1428 C 0.03997 1.0014 0.43625 0.0
C1429 C 0.04383 0.98193 0.43791 0.0
C1430 C 0.0284 1.00564 0.42117 0.0
C1431 C 0.01995 0.99051 0.40743 0.0
C1432 C 0.0233 0.97097 0.4094 0.0
C1433 C 0.03521 0.96678 0.42426 0.0
C1434 C 0.99699 0.9874 0.35842 0.0
C1435 C 0.98533 1.00358 0.35976 0.0
C1436 C 0.00828 0.98333 0.37373 0.0
C1437 C 0.00798 0.99504 0.39102 0.0
C1438 C 0.99623 0.01115 0.39239 0.0
C1439 C 0.98526 0.01546 0.37699 0.0
H1440 H 0.30249 0.28254 0.67474 0.0
H1441 H 0.24156 0.25556 0.6788 0.0
H1442 H 0.30447 0.26347 0.64451 0.0
H1443 H 0.24382 0.23587 0.64869 0.0
H1444 H 0.24875 0.21865 0.5859 0.0
H1445 H 0.24562 0.23861 0.61567 0.0
H1446 H 0.30699 0.22949 0.63168 0.0
H1447 H 0.31011 0.20953 0.60206 0.0
C1448 C 0.28943 0.27265 0.66912 0.0
C1449 C 0.27181 0.27067 0.6792 0.0
C1450 C 0.29067 0.26151 0.65186 0.0
C1451 C 0.27435 0.24804 0.64419 0.0
C1452 C 0.25661 0.24622 0.65413 0.0
C1453 C 0.25538 0.25736 0.67146 0.0
C1454 C 0.26153 0.22079 0.59582 0.0
C1455 C 0.27973 0.21254 0.5915 0.0
C1456 C 0.25972 0.23223 0.6129 0.0
C1457 C 0.27608 0.23574 0.62605 0.0
C1458 C 0.29422 0.22742 0.62175 0.0
C1459 C 0.29602 0.21597 0.60472 0.0
H1460 H 0.54447 0.50975 0.60717 0.0
H1461 H 0.56013 0.57131 0.62769 0.0
H1462 H 0.52435 0.50621 0.63418 0.0
H1463 H 0.53977 0.56783 0.6543 0.0
H1464 H 0.48277 0.55954 0.68737 0.0
H1465 H 0.50349 0.56199 0.6607 0.0
H1466 H 0.52789 0.50753 0.66853 0.0
H1467 H 0.50686 0.50491 0.69513 0.0
C1468 C 0.54375 0.5225 0.61745 0.0
C1469 C 0.55377 0.54088 0.61504 0.0
C1470 C 0.53219 0.52047 0.63293 0.0
C1471 C 0.53028 0.53679 0.64633 0.0
C1472 C 0.54057 0.55505 0.64408 0.0
C1473 C 0.55221 0.55704 0.62873 0.0
C1474 C 0.49246 0.54802 0.68336 0.0
C1475 C 0.49313 0.53203 0.69341 0.0
C1476 C 0.50448 0.54951 0.66816 0.0
C1477 C 0.51741 0.53498 0.66248 0.0
C1478 C 0.51801 0.51891 0.67245 0.0
C1479 C 0.50611 0.51751 0.6878 0.0
H1480 H 0.79099 0.25427 0.67038 0.0
H1481 H 0.79911 0.31255 0.70145 0.0
H1482 H 0.79124 0.26876 0.64163 0.0
H1483 H 0.79818 0.32697 0.67305 0.0
H1484 H 0.80881 0.34998 0.61966 0.0
H1485 H 0.81458 0.33339 0.64649 0.0
H1486 H 0.76989 0.2857 0.62383 0.0
H1487 H 0.76476 0.30208 0.59668 0.0
C1488 C 0.79305 0.27015 0.67109 0.0
C1489 C 0.79481 0.28223 0.68826 0.0
C1490 C 0.7929 0.27849 0.6546 0.0
C1491 C 0.79452 0.2991 0.65489 0.0
C1492 C 0.7971 0.31108 0.67211 0.0
C1493 C 0.79737 0.30278 0.6885 0.0
C1494 C 0.80028 0.33591 0.62041 0.0
C1495 C 0.78621 0.32742 0.60614 0.0
C1496 C 0.80353 0.32639 0.63583 0.0
C1497 C 0.79257 0.30823 0.63754 0.0
C1498 C 0.77885 0.29951 0.62298 0.0
C1499 C 0.7758 0.30894 0.60742 0.0
H1500 H 0.48946 1.00206 0.59832 0.0
H1501 H 0.54437 0.99514 0.56888 0.0
H1502 H 0.50851 1.00178 0.62737 0.0
H1503 H 0.56284 0.99316 0.59744 0.0
H1504 H 0.59695 0.01032 0.65205 0.0
H1505 H 0.57697 0.01209 0.62397 0.0
H1506 H 0.52489 0.98234 0.64627 0.0
H1507 H 0.54488 0.9815 0.6748 0.0
C1508 C 0.50553 1.00037 0.59797 0.0
C1509 C 0.51523 0.99851 0.58109 0.0
C1510 C 0.51644 0.99993 0.61466 0.0
C1511 C 0.53733 0.99748 0.61491 0.0
C1512 C 0.54691 0.99544 0.598 0.0
C1513 C 0.53612 0.99617 0.58143 0.0
C1514 C 0.58125 1.0041 0.6509 0.0
C1515 C 0.57253 0.99563 0.66555 0.0
C1516 C 0.56975 1.00501 0.63473 0.0
C1517 C 0.54926 0.99716 0.6326 0.0
C1518 C 0.5405 0.98878 0.64739 0.0
C1519 C 0.55197 0.98816 0.66373 0.0
H1520 H 0.85198 0.2464 0.76757 0.0
H1521 H 0.85849 0.18589 0.7459 0.0
H1522 H 0.88296 0.24766 0.78653 0.0
H1523 H 0.88864 0.18667 0.76594 0.0
H1524 H 0.95099 0.19732 0.7949 0.0
H1525 H 0.92289 0.19813 0.77282 0.0
H1526 H 0.8941 0.23643 0.81349 0.0
H1527 H 0.9228 0.23682 0.83497 0.0
C1528 C 0.86009 0.23339 0.76666 0.0
C1529 C 0.85255 0.21601 0.75517 0.0
C1530 C 0.87774 0.234 0.77785 0.0
C1531 C 0.88827 0.21718 0.77809 0.0
C1532 C 0.88112 0.19999 0.76613 0.0
C1533 C 0.86359 0.19946 0.75477 0.0
C1534 C 0.93883 0.20617 0.79906 0.0
C1535 C 0.93927 0.21695 0.81684 0.0
C1536 C 0.92252 0.20643 0.78643 0.0
C1537 C 0.90608 0.21734 0.79126 0.0
C1538 C 0.90655 0.2281 0.80905 0.0
C1539 C 0.92293 0.22802 0.82158 0.0
H1540 H 0.55183 0.93301 0.482 0.0
H1541 H 0.48885 0.92251 0.49439 0.0
H1542 H 0.55251 0.89806 0.47085 0.0
H1543 H 0.4895 0.88738 0.48327 0.0
H1544 H 0.4939 0.83668 0.434 0.0
H1545 H 0.4925 0.86929 0.45143 0.0
H1546 H 0.54944 0.86413 0.48 0.0
H1547 H 0.55093 0.83151 0.46239 0.0
C1548 C 0.53822 0.92313 0.4826 0.0
C1549 C 0.52026 0.93046 0.48894 0.0
C1550 C 0.53863 0.9031 0.47633 0.0
C1551 C 0.52102 0.88998 0.47609 0.0
C1552 C 0.50326 0.89718 0.48316 0.0
C1553 C 0.50292 0.91722 0.48965 0.0
C1554 C 0.50605 0.84246 0.44409 0.0
C1555 C 0.5226 0.83161 0.44672 0.0
C1556 C 0.50514 0.86105 0.45421 0.0
C1557 C 0.52088 0.8693 0.46707 0.0
C1558 C 0.53715 0.8582 0.4701 0.0
C1559 C 0.53794 0.83949 0.46012 0.0
H1560 H 0.19784 0.2523 0.75271 0.0
H1561 H 0.22858 0.27292 0.8056 0.0
H1562 H 0.16536 0.24907 0.7678 0.0
H1563 H 0.19631 0.26981 0.82063 0.0
H1564 H 0.13233 0.27807 0.8393 0.0
H1565 H 0.16262 0.28422 0.82215 0.0
H1566 H 0.15064 0.22661 0.7903 0.0
H1567 H 0.12066 0.22007 0.80783 0.0
C1568 C 0.19757 0.25643 0.7675 0.0
C1569 C 0.21568 0.26281 0.77801 0.0
C1570 C 0.17906 0.25444 0.77614 0.0
C1571 C 0.17831 0.25914 0.7954 0.0
C1572 C 0.19636 0.26622 0.80576 0.0
C1573 C 0.21484 0.26791 0.79718 0.0
C1574 C 0.13618 0.26659 0.82878 0.0
C1575 C 0.12405 0.24845 0.82516 0.0
C1576 C 0.1535 0.2702 0.81886 0.0
C1577 C 0.15903 0.25589 0.80491 0.0
C1578 C 0.14663 0.23802 0.80084 0.0
C1579 C 0.12941 0.2343 0.8109 0.0
H1580 H 0.60511 0.62841 0.5267 0.0
H1581 H 0.54605 0.59565 0.52367 0.0
H1582 H 0.59686 0.6411 0.49814 0.0
H1583 H 0.53776 0.60814 0.49475 0.0
H1584 H 0.52234 0.66009 0.46294 0.0
H1585 H 0.53059 0.64065 0.4872 0.0
H1586 H 0.58951 0.63391 0.46503 0.0
H1587 H 0.58148 0.65386 0.44108 0.0
C1588 C 0.59049 0.62359 0.51966 0.0
C1589 C 0.57618 0.61113 0.52746 0.0
C1590 C 0.58578 0.63078 0.50322 0.0
C1591 C 0.56657 0.62579 0.49418 0.0
C1592 C 0.5526 0.61248 0.50148 0.0
C1593 C 0.55741 0.60514 0.51792 0.0
C1594 C 0.53704 0.65442 0.46321 0.0
C1595 C 0.55131 0.65873 0.45014 0.0
C1596 C 0.54168 0.64305 0.47699 0.0
C1597 C 0.56075 0.63574 0.47814 0.0
C1598 C 0.57475 0.63946 0.46468 0.0
C1599 C 0.57008 0.65077 0.45083 0.0
H1600 H 0.84686 0.75568 0.78608 0.0
H1601 H 0.86058 0.81899 0.79501 0.0
H1602 H 0.87174 0.75334 0.76223 0.0
H1603 H 0.88464 0.81654 0.77059 0.0
H1604 H 0.91099 0.80417 0.7126 0.0
H1605 H 0.88473 0.80585 0.73544 0.0
H1606 H 0.91056 0.76054 0.7614 0.0
H1607 H 0.93686 0.75899 0.7387 0.0
C1608 C 0.85512 0.76911 0.78305 0.0
C1609 C 0.85156 0.78753 0.79264 0.0
C1610 C 0.86932 0.76774 0.76928 0.0
C1611 C 0.8801 0.78476 0.7645 0.0
C1612 C 0.87636 0.80318 0.77379 0.0
C1613 C 0.86243 0.80455 0.78776 0.0
C1614 C 0.91095 0.7945 0.72313 0.0
C1615 C 0.92602 0.78151 0.72391 0.0
C1616 C 0.89602 0.79554 0.73625 0.0
C1617 C 0.89559 0.78333 0.75022 0.0
C1618 C 0.91041 0.77004 0.75074 0.0
C1619 C 0.92554 0.76925 0.73784 0.0
H1620 H 0.03724 0.91828 0.5243 0.0
H1621 H 0.08898 0.88527 0.51468 0.0
H1622 H 0.03011 0.90209 0.55168 0.0
H1623 H 0.08212 0.86935 0.54192 0.0
H1624 H 0.04606 0.82372 0.57051 0.0
H1625 H 0.0549 0.84433 0.54701 0.0
H1626 H 0.04173 0.89576 0.58346 0.0
H1627 H 0.03308 0.87499 0.60739 0.0
C1628 C 0.04741 0.90801 0.52836 0.0
C1629 C 0.06354 0.90288 0.51727 0.0
C1630 C 0.04331 0.89869 0.54398 0.0
C1631 C 0.05528 0.88408 0.54876 0.0
C1632 C 0.07227 0.88014 0.53839 0.0
C1633 C 0.07631 0.88936 0.52285 0.0
C1634 C 0.0453 0.83945 0.57373 0.0
C1635 C 0.03916 0.84766 0.59105 0.0
C1636 C 0.05037 0.8513 0.56018 0.0
C1637 C 0.04938 0.87178 0.56342 0.0
C1638 C 0.04268 0.88004 0.58052 0.0
C1639 C 0.03768 0.86812 0.59421 0.0
H1640 H 0.19836 0.75704 0.7763 0.0
H1641 H 0.18875 0.7006 0.74221 0.0
H1642 H 0.16506 0.76519 0.76549 0.0
H1643 H 0.15557 0.70852 0.73148 0.0
H1644 H 0.09095 0.72402 0.72426 0.0
H1645 H 0.12078 0.7158 0.74096 0.0
H1646 H 0.15229 0.77199 0.73425 0.0
H1647 H 0.12277 0.78006 0.71711 0.0
C1648 C 0.18884 0.7462 0.76691 0.0
C1649 C 0.19595 0.72818 0.76013 0.0
C1650 C 0.16992 0.7509 0.76058 0.0
C1651 C 0.15773 0.73753 0.74755 0.0
C1652 C 0.16447 0.71906 0.74163 0.0
C1653 C 0.18345 0.71451 0.74775 0.0
C1654 C 0.10425 0.73462 0.72623 0.0
C1655 C 0.10441 0.75266 0.71913 0.0
C1656 C 0.1213 0.72993 0.73593 0.0
C1657 C 0.13889 0.74325 0.73895 0.0
C1658 C 0.13886 0.76153 0.73241 0.0
C1659 C 0.12189 0.76615 0.72256 0.0
H1660 H 0.96873 0.61957 0.4965 0.0
H1661 H 0.97301 0.57838 0.53584 0.0
H1662 H 0.97646 0.64676 0.52098 0.0
H1663 H 0.97908 0.60579 0.56071 0.0
H1664 H 0.00843 0.65981 0.5993 0.0
H1665 H 1.00224 0.63168 0.575 0.0
H1666 H 0.96216 0.66428 0.54567 0.0
H1667 H 0.96918 0.69252 0.56954 0.0
C1668 C 0.97143 0.61622 0.51035 0.0
C1669 C 0.97036 0.5966 0.51403 0.0
C1670 C 0.97548 0.63195 0.52455 0.0
C1671 C 0.9782 0.62864 0.54299 0.0
C1672 C 0.97726 0.60902 0.54671 0.0
C1673 C 0.97349 0.59323 0.53242 0.0
C1674 C 0.99825 0.66085 0.58766 0.0
C1675 C 0.98939 0.67839 0.58624 0.0
C1676 C 0.99461 0.6447 0.57373 0.0
C1677 C 0.98179 0.64562 0.55817 0.0
C1678 C 0.97255 0.66308 0.5571 0.0
C1679 C 0.97645 0.67929 0.57086 0.0
H1680 H 0.81679 0.82429 0.2039 0.0
H1681 H 0.7709 0.84155 0.24169 0.0
H1682 H 0.83629 0.85596 0.21277 0.0
H1683 H 0.79108 0.87302 0.25135 0.0
H1684 H 0.82298 0.9353 0.24957 0.0
H1685 H 0.80232 0.90389 0.24107 0.0
H1686 H 0.85676 0.87381 0.23785 0.0
H1687 H 0.87731 0.90517 0.24602 0.0
C1688 C 0.81077 0.83488 0.21405 0.0
C1689 C 0.79213 0.83036 0.22194 0.0
C1690 C 0.82217 0.85298 0.21937 0.0
C1691 C 0.81538 0.86708 0.23288 0.0
C1692 C 0.79671 0.86262 0.24079 0.0
C1693 C 0.78523 0.84447 0.23539 0.0
C1694 C 0.83049 0.92194 0.24717 0.0
C1695 C 0.8518 0.92276 0.24834 0.0
C1696 C 0.81865 0.90392 0.24233 0.0
C1697 C 0.82784 0.88626 0.23864 0.0
C1698 C 0.84915 0.88711 0.24017 0.0
C1699 C 0.86096 0.90511 0.24489 0.0
H1700 H 0.78278 0.17346 0.33512 0.0
H1701 H 0.80457 0.19469 0.2857 0.0
H1702 H 0.80517 0.14722 0.33097 0.0
H1703 H 0.82563 0.16774 0.28079 0.0
H1704 H 0.87566 0.12851 0.2841 0.0
H1705 H 0.85501 0.15564 0.29078 0.0
H1706 H 0.8099 0.11711 0.31323 0.0
H1707 H 0.83133 0.09033 0.30789 0.0
C1708 C 0.79228 0.17256 0.32335 0.0
C1709 C 0.79165 0.18624 0.31071 0.0
C1710 C 0.80496 0.15729 0.32081 0.0
C1711 C 0.81728 0.15518 0.30548 0.0
C1712 C 0.81667 0.16892 0.29291 0.0
C1713 C 0.80421 0.18427 0.29556 0.0
C1714 C 0.86153 0.12583 0.29079 0.0
C1715 C 0.85529 0.10706 0.29541 0.0
C1716 C 0.84945 0.14141 0.29436 0.0
C1717 C 0.83057 0.13869 0.30243 0.0
C1718 C 0.82438 0.11995 0.30718 0.0
C1719 C 0.83659 0.10442 0.30381 0.0
H1720 H 0.44609 0.02292 0.01248 0.0
H1721 H 0.41232 0.02512 0.96136 0.0
H1722 H 0.42167 0.99629 0.01927 0.0
H1723 H 0.38831 0.99832 0.96799 0.0
H1724 H 0.35816 0.93872 0.97828 0.0
H1725 H 0.38523 0.96289 0.97136 0.0
H1726 H 0.3854 0.99264 0.02717 0.0
H1727 H 0.3586 0.96827 0.03419 0.0
C1728 C 0.43354 0.01772 1.00265 0.0
C1729 C 0.43127 0.02624 0.98635 0.0
C1730 C 0.41956 1.00243 1.00655 0.0
C1731 C 0.40303 0.99519 0.99418 0.0
C1732 C 0.40103 1.00335 0.97769 0.0
C1733 C 0.4149 0.01871 0.97385 0.0
C1734 C 0.36417 0.95027 0.98914 0.0
C1735 C 0.35619 0.95159 1.00678 0.0
C1736 C 0.37955 0.96421 0.98513 0.0
C1737 C 0.38746 0.97972 0.9987 0.0
C1738 C 0.37979 0.98079 0.01645 0.0
C1739 C 0.36428 0.96694 0.02042 0.0
H1740 H 0.2515 0.36502 0.33611 0.0
H1741 H 0.29096 0.36452 0.29041 0.0
H1742 H 0.22791 0.38285 0.32015 0.0
H1743 H 0.26718 0.38248 0.2742 0.0
H1744 H 0.23455 0.43985 0.26874 0.0
H1745 H 0.25658 0.41672 0.27927 0.0
H1746 H 0.20408 0.3806 0.29327 0.0
H1747 H 0.18198 0.40353 0.28249 0.0
C1748 C 0.25493 0.36847 0.32247 0.0
C1749 C 0.27307 0.36345 0.31451 0.0
C1750 C 0.24137 0.37861 0.31326 0.0
C1751 C 0.24566 0.38417 0.2959 0.0
C1752 C 0.26351 0.37854 0.28762 0.0
C1753 C 0.27702 0.36813 0.29679 0.0
C1754 C 0.22763 0.42677 0.27367 0.0
C1755 C 0.20642 0.42373 0.27492 0.0
C1756 C 0.2403 0.41348 0.27972 0.0
C1757 C 0.23212 0.39687 0.28725 0.0
C1758 C 0.2109 0.39342 0.28782 0.0
C1759 C 0.19823 0.40663 0.2817 0.0
H1760 H 0.12806 0.97737 0.47359 0.0
H1761 H 0.09107 0.02564 0.48414 0.0
H1762 H 0.15865 1.00048 0.47845 0.0
H1763 H 0.12154 0.04875 0.48961 0.0
H1764 H 0.17723 0.08663 0.47558 0.0
H1765 H 0.14717 0.06306 0.47272 0.0
H1766 H 0.18055 0.02277 0.49938 0.0
H1767 H 0.21081 0.04627 0.50174 0.0
C1768 C 0.1265 0.9929 0.47738 0.0
C1769 C 0.10717 0.99971 0.47842 0.0
C1770 C 0.14405 1.00619 0.48017 0.0
C1771 C 0.14267 0.0266 0.48423 0.0
C1772 C 0.12327 0.03324 0.48604 0.0
C1773 C 0.10577 0.01999 0.48306 0.0
C1774 C 0.17812 0.07277 0.4809 0.0
C1775 C 0.19642 0.06835 0.4889 0.0
C1776 C 0.16082 0.05925 0.47935 0.0
C1777 C 0.16126 0.04097 0.48594 0.0
C1778 C 0.17963 0.03654 0.49392 0.0
C1779 C 0.19701 0.05003 0.4953 0.0
H1780 H 0.80565 0.15762 0.72863 0.0
H1781 H 0.7596 0.19571 0.74591 0.0
H1782 H 0.78219 0.12885 0.73192 0.0
H1783 H 0.73601 0.167 0.74865 0.0
H1784 H 0.70814 0.11317 0.77274 0.0
H1785 H 0.73172 0.14148 0.76878 0.0
H1786 H 0.75067 0.1102 0.71813 0.0
H1787 H 0.72695 0.08188 0.722 0.0
C1788 C 0.79049 0.15984 0.73303 0.0
C1789 C 0.78451 0.17897 0.73698 0.0
C1790 C 0.77699 0.14335 0.73477 0.0
C1791 C 0.75723 0.14561 0.74061 0.0
C1792 C 0.75119 0.16473 0.74433 0.0
C1793 C 0.76464 0.18119 0.74252 0.0
C1794 C 0.71719 0.11236 0.76067 0.0
C1795 C 0.71556 0.09523 0.74766 0.0
C1796 C 0.73073 0.12861 0.75839 0.0
C1797 C 0.74303 0.12816 0.74309 0.0
C1798 C 0.74159 0.11096 0.73019 0.0
C1799 C 0.728 0.09471 0.73243 0.0
H1800 H 0.47851 0.04123 0.52059 0.0
H1801 H 0.44585 0.01917 0.56478 0.0
H1802 H 0.45172 0.06206 0.51546 0.0
H1803 H 0.41867 0.03984 0.55947 0.0
H1804 H 0.38094 0.09179 0.55381 0.0
H1805 H 0.40895 0.07299 0.56107 0.0
H1806 H 0.41768 0.05811 0.50284 0.0
H1807 H 0.3899 0.07699 0.49565 0.0
C1808 C 0.46554 0.04083 0.52921 0.0
C1809 C 0.46418 0.02838 0.54296 0.0
C1810 C 0.45011 0.05272 0.52622 0.0
C1811 C 0.43281 0.05245 0.53683 0.0
C1812 C 0.4318 0.04054 0.55108 0.0
C1813 C 0.44736 0.02868 0.55414 0.0
C1814 C 0.38879 0.08442 0.54256 0.0
C1815 C 0.38319 0.08598 0.52413 0.0
C1816 C 0.40485 0.07362 0.54673 0.0
C1817 C 0.4157 0.06407 0.53257 0.0
C1818 C 0.41 0.06559 0.51415 0.0
C1819 C 0.39402 0.07642 0.51 0.0
H1820 H 0.62871 0.53947 0.56403 0.0
H1821 H 0.58501 0.4914 0.57297 0.0
H1822 H 0.65274 0.51623 0.5541 0.0
H1823 H 0.60971 0.46814 0.56427 0.0
H1824 H 0.65278 0.42951 0.53186 0.0
H1825 H 0.62736 0.45236 0.53987 0.0
H1826 H 0.67462 0.49575 0.56592 0.0
H1827 H 0.69989 0.47315 0.5574 0.0
C1828 C 0.6241 0.52393 0.56378 0.0
C1829 C 0.60474 0.51743 0.56927 0.0
C1830 C 0.63812 0.51054 0.55838 0.0
C1831 C 0.63338 0.4902 0.55851 0.0
C1832 C 0.61394 0.48363 0.5638 0.0
C1833 C 0.59981 0.49705 0.56904 0.0
C1834 C 0.65768 0.44393 0.53933 0.0
C1835 C 0.67838 0.44955 0.54387 0.0
C1836 C 0.64309 0.45705 0.544 0.0
C1837 C 0.64882 0.47605 0.5535 0.0
C1838 C 0.66956 0.48149 0.55822 0.0
C1839 C 0.68412 0.46848 0.55339 0.0
H1840 H 0.72824 0.23825 0.34987 0.0
H1841 H 0.79346 0.24478 0.35724 0.0
H1842 H 0.72571 0.25861 0.37952 0.0
H1843 H 0.79125 0.26605 0.38628 0.0
H1844 H 0.78294 0.29231 0.44442 0.0
H1845 H 0.78359 0.26886 0.41678 0.0
H1846 H 0.72993 0.29039 0.39466 0.0
H1847 H 0.7281 0.31247 0.42311 0.0
C1848 C 0.74204 0.24412 0.35787 0.0
C1849 C 0.76103 0.23983 0.35135 0.0
C1850 C 0.74065 0.25597 0.37482 0.0
C1851 C 0.75827 0.2642 0.38549 0.0
C1852 C 0.77727 0.25975 0.37884 0.0
C1853 C 0.7786 0.24759 0.36209 0.0
C1854 C 0.77093 0.29179 0.43392 0.0
C1855 C 0.75544 0.30448 0.43624 0.0
C1856 C 0.77155 0.27849 0.41777 0.0
C1857 C 0.75694 0.27768 0.40319 0.0
C1858 C 0.74136 0.29026 0.40555 0.0
C1859 C 0.74052 0.3033 0.42186 0.0
H1860 H 0.49549 0.02925 0.9074 0.0
H1861 H 0.50544 0.08813 0.89313 0.0
H1862 H 0.52066 0.01841 0.88545 0.0
H1863 H 0.53054 0.07745 0.87145 0.0
H1864 H 0.55207 0.04719 0.81778 0.0
H1865 H 0.52916 0.05722 0.84171 0.0
H1866 H 0.55681 0.0214 0.87776 0.0
H1867 H 0.57943 0.01075 0.85342 0.0
C1868 C 0.5033 0.03993 0.89982 0.0
C1869 C 0.49826 0.05947 0.90178 0.0
C1870 C 0.5177 0.03374 0.88723 0.0
C1871 C 0.52737 0.04698 0.87643 0.0
C1872 C 0.52301 0.06673 0.87916 0.0
C1873 C 0.50866 0.07287 0.89163 0.0
C1874 C 0.55316 0.04123 0.83071 0.0
C1875 C 0.56758 0.02809 0.83361 0.0
C1876 C 0.54017 0.04721 0.84456 0.0
C1877 C 0.54122 0.04025 0.86175 0.0
C1878 C 0.55553 0.02697 0.86466 0.0
C1879 C 0.56861 0.02102 0.85077 0.0
H1880 H 0.35102 0.25295 0.34526 0.0
H1881 H 0.28986 0.26832 0.35325 0.0
H1882 H 0.3465 0.22971 0.36739 0.0
H1883 H 0.28599 0.24652 0.37649 0.0
H1884 H 0.27684 0.19523 0.40829 0.0
H1885 H 0.28116 0.21479 0.38306 0.0
H1886 H 0.34513 0.2272 0.39857 0.0
H1887 H 0.34079 0.20668 0.42313 0.0
C1888 C 0.33656 0.25138 0.35164 0.0
C1889 C 0.32087 0.26273 0.34738 0.0
C1890 C 0.33407 0.23822 0.36467 0.0
C1891 C 0.3159 0.23617 0.37403 0.0
C1892 C 0.30014 0.24733 0.36953 0.0
C1893 C 0.3025 0.26021 0.35633 0.0
C1894 C 0.29183 0.20208 0.4062 0.0
C1895 C 0.30846 0.19945 0.41771 0.0
C1896 C 0.29434 0.21346 0.39178 0.0
C1897 C 0.3135 0.2229 0.38869 0.0
C1898 C 0.33018 0.22 0.40017 0.0
C1899 C 0.32772 0.2083 0.41437 0.0
H1900 H 0.54964 0.50879 0.94654 0.0
H1901 H 0.54356 0.44756 0.92251 0.0
H1902 H 0.52993 0.51683 0.9205 0.0
H1903 H 0.5224 0.45532 0.89733 0.0
H1904 H 0.50312 0.47689 0.84442 0.0
H1905 H 0.52348 0.46961 0.87035 0.0
H1906 H 0.49795 0.51527 0.90609 0.0
H1907 H 0.47894 0.52368 0.87986 0.0
C1908 C 0.54401 0.49698 0.93579 0.0
C1909 C 0.54838 0.47751 0.93673 0.0
C1910 C 0.53238 0.50157 0.92091 0.0
C1911 C 0.52448 0.48678 0.90662 0.0
C1912 C 0.52846 0.46723 0.9078 0.0
C1913 C 0.54034 0.46269 0.92253 0.0
C1914 C 0.50209 0.48567 0.85771 0.0
C1915 C 0.48928 0.50094 0.85987 0.0
C1916 C 0.51356 0.48122 0.87275 0.0
C1917 C 0.51237 0.49171 0.89051 0.0
C1918 C 0.49955 0.50697 0.89267 0.0
C1919 C 0.48831 0.51161 0.87758 0.0
H1920 H 0.74015 0.76242 0.16914 0.0
H1921 H 0.80473 0.77924 0.17368 0.0
H1922 H 0.74385 0.74353 0.13872 0.0
H1923 H 0.80844 0.76015 0.1435 0.0
H1924 H 0.80563 0.69992 0.10396 0.0
H1925 H 0.80186 0.72169 0.13268 0.0
H1926 H 0.75668 0.75041 0.10536 0.0
H1927 H 0.7608 0.72882 0.0764 0.0
C1928 C 0.75507 0.76218 0.16356 0.0
C1929 C 0.77214 0.77232 0.1737 0.0
C1930 C 0.75717 0.75148 0.14617 0.0
C1931 C 0.77643 0.75039 0.13883 0.0
C1932 C 0.79344 0.76072 0.14889 0.0
C1933 C 0.79129 0.77172 0.16607 0.0
C1934 C 0.79498 0.71096 0.10409 0.0
C1935 C 0.78352 0.71275 0.08802 0.0
C1936 C 0.79289 0.72344 0.12046 0.0
C1937 C 0.77899 0.7377 0.12119 0.0
C1938 C 0.76746 0.73948 0.10513 0.0
C1939 C 0.76988 0.72725 0.08861 0.0
H1940 H 0.07113 0.02215 0.12753 0.0
H1941 H 0.02216 0.04664 0.10089 0.0
H1942 H 0.05036 0.01841 0.15403 0.0
H1943 H 1.00165 0.04348 0.12756 0.0
H1944 H 0.96319 0.01877 0.17119 0.0
H1945 H 0.98355 0.01972 0.14418 0.0
H1946 H 0.03707 0.03915 0.17958 0.0
H1947 H 0.01667 0.03829 0.20665 0.0
C1948 C 0.05586 0.02654 0.12722 0.0
C1949 C 0.04834 0.0347 0.11205 0.0
C1950 C 0.04403 0.02463 0.14253 0.0
C1951 C 0.02434 0.03074 0.14303 0.0
C1952 C 0.01666 0.03846 0.12764 0.0
C1953 C 0.0285 0.04043 0.11239 0.0
C1954 C 0.97926 0.02343 0.17326 0.0
C1955 C 0.98821 0.02857 0.19118 0.0
C1956 C 0.99097 0.02393 0.15772 0.0
C1957 C 0.01199 0.02955 0.15964 0.0
C1958 C 0.021 0.03447 0.17755 0.0
C1959 C 0.00927 0.034 0.19311 0.0
H1960 H 0.30605 0.81067 0.19885 0.0
H1961 H 0.28386 0.75275 0.17141 0.0
H1962 H 0.3015 0.8242 0.17012 0.0
H1963 H 0.27989 0.76641 0.14229 0.0
H1964 H 0.29577 0.80205 0.09158 0.0
H1965 H 0.30117 0.78533 0.11861 0.0
H1966 H 0.26866 0.82779 0.1514 0.0
H1967 H 0.26251 0.84401 0.12451 0.0
C1968 C 0.30025 0.80077 0.18667 0.0
C1969 C 0.2949 0.78066 0.18759 0.0
C1970 C 0.2977 0.80855 0.17019 0.0
C1971 C 0.29002 0.79643 0.15405 0.0
C1972 C 0.28581 0.7761 0.15456 0.0
C1973 C 0.28815 0.76828 0.17121 0.0
C1974 C 0.28945 0.80765 0.10446 0.0
C1975 C 0.27892 0.82463 0.10582 0.0
C1976 C 0.29263 0.79807 0.11994 0.0
C1977 C 0.28557 0.80542 0.13715 0.0
C1978 C 0.27462 0.82201 0.13839 0.0
C1979 C 0.27121 0.83139 0.12295 0.0
H1980 H 0.04276 0.49376 0.07298 0.0
H1981 H 0.98736 0.49789 0.10219 0.0
H1982 H 0.06148 0.4927 0.10161 0.0
H1983 H 0.00658 0.49865 0.13131 0.0
H1984 H 0.04386 0.4796 0.1788 0.0
H1985 H 0.02373 0.48013 0.15028 0.0
H1986 H 0.07503 0.51142 0.12824 0.0
H1987 H 0.09521 0.50981 0.15625 0.0
C1988 C 0.03448 0.49443 0.08551 0.0
C1989 C 0.01337 0.49563 0.08506 0.0
C1990 C 0.04539 0.49424 0.10212 0.0
C1991 C 0.0357 0.49572 0.11899 0.0
C1992 C 0.01462 0.49721 0.11865 0.0
C1993 C 1.00359 0.49708 0.10191 0.0
C1994 C 0.05075 0.48652 0.16777 0.0
C1995 C 0.07115 0.49443 0.16962 0.0
C1996 C 0.03919 0.48698 0.15145 0.0
C1997 C 0.04768 0.49569 0.13672 0.0
C1998 C 0.06801 0.50406 0.13893 0.0
C1999 C 0.07962 0.50325 0.15505 0.0
H2000 H 0.3719 0.72276 0.23757 0.0
H2001 H 0.33539 0.70231 0.28014 0.0
H2002 H 0.40257 0.72267 0.25709 0.0
H2003 H 0.36563 0.70319 0.3001 0.0
H2004 H 0.42361 0.68973 0.32705 0.0
H2005 H 0.39427 0.6879 0.30568 0.0
H2006 H 0.4217 0.73841 0.28294 0.0
H2007 H 0.45146 0.73936 0.30371 0.0
C2008 C 0.37048 0.7184 0.25118 0.0
C2009 C 0.35134 0.71236 0.25729 0.0
C2010 C 0.38802 0.71845 0.26247 0.0
C2011 C 0.38676 0.71283 0.28027 0.0
C2012 C 0.36744 0.7071 0.28637 0.0
C2013 C 0.35002 0.70671 0.27498 0.0
C2014 C 0.42333 0.70033 0.31738 0.0
C2015 C 0.43977 0.71466 0.31701 0.0
C2016 C 0.40645 0.69943 0.30519 0.0
C2017 C 0.40535 0.71313 0.29257 0.0
C2018 C 0.42199 0.72738 0.29217 0.0
C2019 C 0.43906 0.72802 0.30413 0.0
H2020 H 0.05046 0.42741 0.98838 0.0
H2021 H 0.98588 0.4187 0.99482 0.0
H2022 H 0.0506 0.39254 0.97636 0.0
H2023 H 0.98595 0.38374 0.98262 0.0
H2024 H 0.99461 0.33513 0.93197 0.0
H2025 H 0.99284 0.36744 0.94999 0.0
H2026 H 0.04358 0.35765 0.98504 0.0
H2027 H 0.04527 0.32521 0.96702 0.0
C2028 C 0.03637 0.41792 0.98749 0.0
C2029 C 0.01816 0.4257 0.99246 0.0
C2030 C 0.03645 0.39797 0.98071 0.0
C2031 C 0.01827 0.38546 0.97849 0.0
C2032 C 1.00016 0.39309 0.9841 0.0
C2033 C 1.00013 0.41301 0.99119 0.0
C2034 C 1.00525 0.33983 0.94363 0.0
C2035 C 0.02014 0.32774 0.94805 0.0
C2036 C 1.00413 0.35822 0.95403 0.0
C2037 C 0.01807 0.36503 0.96891 0.0
C2038 C 0.03269 0.35276 0.97361 0.0
C2039 C 0.03359 0.3342 0.96337 0.0
H2040 H 0.70322 0.72575 0.26221 0.0
H2041 H 0.71284 0.7888 0.27724 0.0
H2042 H 0.67212 0.72484 0.27902 0.0
H2043 H 0.68137 0.78798 0.29404 0.0
H2044 H 0.64112 0.77097 0.34238 0.0
H2045 H 0.66984 0.77513 0.32276 0.0
H2046 H 0.63753 0.73499 0.27879 0.0
H2047 H 0.60871 0.73101 0.29825 0.0
C2048 C 0.69853 0.73946 0.26899 0.0
C2049 C 0.71052 0.75733 0.26852 0.0
C2050 C 0.68063 0.73897 0.27851 0.0
C2051 C 0.67427 0.75633 0.28793 0.0
C2052 C 0.68596 0.77433 0.28705 0.0
C2053 C 0.70385 0.77484 0.27732 0.0
C2054 C 0.63997 0.76328 0.32843 0.0
C2055 C 0.62262 0.75048 0.322 0.0
C2056 C 0.65645 0.76569 0.31717 0.0
C2057 C 0.65603 0.75531 0.29924 0.0
C2058 C 0.63847 0.74296 0.29264 0.0
C2059 C 0.62198 0.74062 0.30384 0.0
H2060 H 0.04759 0.09349 0.02354 0.0
H2061 H 0.10444 0.1302 0.03264 0.0
H2062 H 0.04072 0.10767 0.99521 0.0
H2063 H 0.09772 0.14422 1.00446 0.0
H2064 H 0.06439 0.18557 0.97281 0.0
H2065 H 0.0733 0.16707 0.99747 0.0
H2066 H 0.05123 0.1127 0.96326 0.0
H2067 H 0.04191 0.13144 0.93848 0.0
C2068 C 0.05885 0.10418 0.01923 0.0
C2069 C 0.07642 0.11093 0.03044 0.0
C2070 C 0.05491 0.11235 1.00303 0.0
C2071 C 0.06849 0.12738 0.99777 0.0
C2072 C 0.0867 0.13304 0.00834 0.0
C2073 C 0.0906 0.12494 0.02445 0.0
C2074 C 0.06133 0.16968 0.97054 0.0
C2075 C 0.05231 0.16001 0.95371 0.0
C2076 C 0.06666 0.15902 0.98461 0.0
C2077 C 0.06311 0.13836 0.98232 0.0
C2078 C 0.05411 0.1286 0.96548 0.0
C2079 C 0.04891 0.13931 0.95126 0.0
H2080 H 0.33476 0.29683 0.27138 0.0
H2081 H 0.3769 0.27624 0.30894 0.0
H2082 H 0.35913 0.29341 0.2471 0.0
H2083 H 0.40145 0.27336 0.28502 0.0
H2084 H 0.43462 0.2525 0.23458 0.0
H2085 H 0.40898 0.25488 0.25738 0.0
H2086 H 0.39037 0.30691 0.23709 0.0
H2087 H 0.41518 0.30369 0.21332 0.0
C2088 C 0.34928 0.29165 0.27446 0.0
C2089 C 0.35381 0.28665 0.29205 0.0
C2090 C 0.36332 0.28978 0.26057 0.0
C2091 C 0.38237 0.28306 0.26397 0.0
C2092 C 0.38685 0.27816 0.28165 0.0
C2093 C 0.37275 0.27984 0.29544 0.0
C2094 C 0.42486 0.26427 0.23468 0.0
C2095 C 0.42704 0.27783 0.2219 0.0
C2096 C 0.41028 0.26584 0.24805 0.0
C2097 C 0.39755 0.28117 0.24928 0.0
C2098 C 0.39969 0.29475 0.23651 0.0
C2099 C 0.41418 0.29308 0.223 0.0
H2100 H 0.54139 0.41444 0.0227 0.0
H2101 H 0.59083 0.37842 0.01269 0.0
H2102 H 0.53328 0.39852 0.05001 0.0
H2103 H 0.58289 0.36267 0.03982 0.0
H2104 H 0.54344 0.3189 0.06849 0.0
H2105 H 0.55428 0.33906 0.04507 0.0
H2106 H 0.54463 0.39161 0.08169 0.0
H2107 H 0.53337 0.37121 0.10524 0.0
C2108 C 0.55086 0.40353 0.02663 0.0
C2109 C 0.56658 0.3975 0.01543 0.0
C2110 C 0.54619 0.39437 0.04223 0.0
C2111 C 0.55717 0.37901 0.04688 0.0
C2112 C 0.57381 0.37408 0.03639 0.0
C2113 C 0.57843 0.38318 0.02089 0.0
C2114 C 0.54348 0.33474 0.07155 0.0
C2115 C 0.5374 0.34342 0.08871 0.0
C2116 C 0.54995 0.34635 0.05819 0.0
C2117 C 0.55048 0.367 0.06153 0.0
C2118 C 0.54435 0.37575 0.07866 0.0
C2119 C 0.53803 0.36409 0.09218 0.0
H2120 H 0.7141 0.23356 0.22416 0.0
H2121 H 0.69204 0.24956 0.27843 0.0
H2122 H 0.68094 0.23688 0.21032 0.0
H2123 H 0.65844 0.25255 0.26442 0.0
H2124 H 0.5966 0.23735 0.22848 0.0
H2125 H 0.6284 0.23274 0.24461 0.0
H2126 H 0.66185 0.26642 0.20788 0.0
H2127 H 0.63029 0.27155 0.19213 0.0
C2128 C 0.70214 0.23776 0.23317 0.0
C2129 C 0.70587 0.24168 0.2524 0.0
C2130 C 0.68312 0.23965 0.22521 0.0
C2131 C 0.66719 0.24533 0.23625 0.0
C2132 C 0.67047 0.24818 0.25557 0.0
C2133 C 0.68967 0.24642 0.26358 0.0
C2134 C 0.6107 0.24404 0.224 0.0
C2135 C 0.6108 0.25466 0.20881 0.0
C2136 C 0.62891 0.24132 0.23324 0.0
C2137 C 0.64763 0.249 0.22737 0.0
C2138 C 0.64769 0.25997 0.21249 0.0
C2139 C 0.62956 0.26284 0.2034 0.0
H2140 H 0.45149 0.11392 0.99511 0.0
H2141 H 0.48293 0.07644 0.02672 0.0
H2142 H 0.4587 0.14137 0.02013 0.0
H2143 H 0.49056 0.1041 0.05165 0.0
H2144 H 0.51939 0.16818 0.07785 0.0
H2145 H 0.51197 0.13971 0.05418 0.0
H2146 H 0.44821 0.14761 0.05519 0.0
H2147 H 0.45523 0.17535 0.07966 0.0
C2148 C 0.46007 0.11163 0.00738 0.0
C2149 C 0.46672 0.09312 0.009 0.0
C2150 C 0.46408 0.12727 0.0217 0.0
C2151 C 0.47517 0.12482 0.03778 0.0
C2152 C 0.48204 0.10637 0.03935 0.0
C2153 C 0.47764 0.09058 0.02516 0.0
C2154 C 0.5037 0.1637 0.07341 0.0
C2155 C 0.48795 0.17428 0.08083 0.0
C2156 C 0.49951 0.14742 0.05973 0.0
C2157 C 0.47954 0.14154 0.05284 0.0
C2158 C 0.46378 0.15199 0.06015 0.0
C2159 C 0.46789 0.16801 0.0741 0.0
H2160 H 0.27248 0.34369 0.74405 0.0
H2161 H 0.31645 0.32504 0.70479 0.0
H2162 H 0.29276 0.37538 0.75196 0.0
H2163 H 0.33609 0.35691 0.71201 0.0
H2164 H 0.37862 0.40606 0.74456 0.0
H2165 H 0.35759 0.37495 0.7366 0.0
H2166 H 0.3037 0.40582 0.74049 0.0
H2167 H 0.32483 0.43701 0.74865 0.0
C2168 C 0.28638 0.34637 0.73702 0.0
C2169 C 0.29277 0.33176 0.72376 0.0
C2170 C 0.29792 0.36463 0.74142 0.0
C2171 C 0.31614 0.36872 0.73269 0.0
C2172 C 0.32231 0.35422 0.71922 0.0
C2173 C 0.31084 0.33599 0.71487 0.0
C2174 C 0.36229 0.40625 0.74356 0.0
C2175 C 0.35343 0.42406 0.74717 0.0
C2176 C 0.3502 0.38839 0.73897 0.0
C2177 C 0.32891 0.38783 0.73779 0.0
C2178 C 0.32003 0.40565 0.74149 0.0
C2179 C 0.33214 0.42354 0.74615 0.0
H2180 H 0.31829 0.69942 0.82535 0.0
H2181 H 0.26687 0.65693 0.80862 0.0
H2182 H 0.34105 0.67348 0.82024 0.0
H2183 H 0.28923 0.63068 0.80455 0.0
H2184 H 0.33445 0.59185 0.77778 0.0
H2185 H 0.31213 0.61775 0.78457 0.0
H2186 H 0.35402 0.64582 0.82899 0.0
H2187 H 0.37679 0.62032 0.82135 0.0
C2188 C 0.31187 0.68439 0.82101 0.0
C2189 C 0.29088 0.68014 0.81734 0.0
C2190 C 0.32488 0.66945 0.81811 0.0
C2191 C 0.31714 0.64982 0.81175 0.0
C2192 C 0.29594 0.64559 0.80891 0.0
C2193 C 0.28303 0.66058 0.81146 0.0
C2194 C 0.33882 0.60357 0.789 0.0
C2195 C 0.35734 0.60408 0.79902 0.0
C2196 C 0.32595 0.61841 0.79304 0.0
C2197 C 0.33104 0.63399 0.8075 0.0
C2198 C 0.34961 0.63435 0.81758 0.0
C2199 C 0.36267 0.61968 0.81328 0.0
H2200 H 0.90884 0.53757 0.46908 0.0
H2201 H 0.94823 0.5226 0.51205 0.0
H2202 H 0.88315 0.51181 0.47495 0.0
H2203 H 0.92308 0.49592 0.51738 0.0
H2204 H 0.86573 0.46297 0.53554 0.0
H2205 H 0.89211 0.48831 0.52975 0.0
H2206 H 0.87342 0.47856 0.47177 0.0
H2207 H 0.84639 0.45415 0.47797 0.0
C2208 C 0.91211 0.52846 0.47958 0.0
C2209 C 0.93053 0.53201 0.49007 0.0
C2210 C 0.89742 0.51356 0.48292 0.0
C2211 C 0.9009 0.50153 0.49663 0.0
C2212 C 0.91956 0.505 0.50695 0.0
C2213 C 0.9341 0.52019 0.50382 0.0
C2214 C 0.86738 0.46629 0.52158 0.0
C2215 C 0.85399 0.45672 0.50722 0.0
C2216 C 0.88259 0.48075 0.51819 0.0
C2217 C 0.88502 0.48571 0.50025 0.0
C2218 C 0.87183 0.47564 0.48584 0.0
C2219 C 0.85638 0.4615 0.48932 0.0
H2220 H 0.74225 0.85763 0.83138 0.0
H2221 H 0.78792 0.86358 0.79134 0.0
H2222 H 0.72011 0.87606 0.81449 0.0
H2223 H 0.76562 0.88211 0.77418 0.0
H2224 H 0.73235 0.93924 0.76996 0.0
H2225 H 0.75349 0.91545 0.78057 0.0
H2226 H 0.69991 0.87616 0.78583 0.0
H2227 H 0.67873 0.89983 0.77501 0.0
C2228 C 0.74735 0.86258 0.81871 0.0
C2229 C 0.76679 0.85924 0.81267 0.0
C2230 C 0.73464 0.87307 0.80897 0.0
C2231 C 0.7411 0.88066 0.79301 0.0
C2232 C 0.76026 0.87661 0.78652 0.0
C2233 C 0.77295 0.86587 0.79621 0.0
C2234 C 0.72505 0.92536 0.77297 0.0
C2235 C 0.70375 0.9216 0.77179 0.0
C2236 C 0.73722 0.91168 0.77905 0.0
C2237 C 0.7284 0.89393 0.78417 0.0
C2238 C 0.70718 0.88982 0.78228 0.0
C2239 C 0.69502 0.90345 0.77613 0.0
H2240 H 0.5955 0.52133 0.98074 0.0
H2241 H 0.63191 0.47221 0.97646 0.0
H2242 H 0.62613 0.54414 0.98623 0.0
H2243 H 0.66261 0.49504 0.9827 0.0
H2244 H 0.71249 0.54204 0.96942 0.0
H2245 H 0.68246 0.51831 0.96688 0.0
H2246 H 0.65394 0.55669 0.00765 0.0
H2247 H 0.6839 0.58044 0.01006 0.0
C2248 C 0.61005 0.51539 0.9812 0.0
C2249 C 0.61122 0.49493 0.97805 0.0
C2250 C 0.62765 0.52848 0.98451 0.0
C2251 C 0.64692 0.52148 0.98481 0.0
C2252 C 0.64806 0.50098 0.9823 0.0
C2253 C 0.63042 0.48786 0.97898 0.0
C2254 C 0.6999 0.54532 0.97798 0.0
C2255 C 0.7006 0.56323 0.98986 0.0
C2256 C 0.68267 0.53168 0.97657 0.0
C2257 C 0.66569 0.53555 0.98704 0.0
C2258 C 0.66655 0.55333 0.99914 0.0
C2259 C 0.68375 0.56698 1.00051 0.0
H2260 H 0.25943 0.69525 0.24084 0.0
H2261 H 0.30521 0.65628 0.22518 0.0
H2262 H 0.23514 0.66693 0.24314 0.0
H2263 H 0.28086 0.62788 0.2273 0.0
H2264 H 0.24046 0.58457 0.25628 0.0
H2265 H 0.26413 0.61236 0.25107 0.0
H2266 H 0.21521 0.63874 0.22631 0.0
H2267 H 0.19151 0.61098 0.23166 0.0
C2268 C 0.26419 0.68061 0.23749 0.0
C2269 C 0.28428 0.67803 0.23285 0.0
C2270 C 0.25025 0.66434 0.23884 0.0
C2271 C 0.25605 0.64508 0.23555 0.0
C2272 C 0.27597 0.6425 0.2303 0.0
C2273 C 0.28991 0.65877 0.229 0.0
C2274 C 0.23479 0.59621 0.24956 0.0
C2275 C 0.21407 0.59556 0.24444 0.0
C2276 C 0.24838 0.61214 0.24653 0.0
C2277 C 0.24162 0.62783 0.23824 0.0
C2278 C 0.22091 0.62709 0.23298 0.0
C2279 C 0.20731 0.61117 0.23605 0.0
H2280 H 0.93964 0.49622 0.02873 0.0
H2281 H 0.97285 0.54581 0.06262 0.0
H2282 H 0.91301 0.51675 0.02221 0.0
H2283 H 0.9463 0.56661 0.05584 0.0
H2284 H 0.88582 0.59413 0.05095 0.0
H2285 H 0.91147 0.57348 0.05991 0.0
H2286 H 0.90858 0.54274 1.00429 0.0
H2287 H 0.88288 0.56321 0.99544 0.0
C2288 C 0.94121 0.51155 0.03483 0.0
C2289 C 0.95842 0.51943 0.04608 0.0
C2290 C 0.92599 0.52337 0.031 0.0
C2291 C 0.9276 0.54346 0.03824 0.0
C2292 C 0.94447 0.55119 0.05011 0.0
C2293 C 0.95969 0.53928 0.05402 0.0
C2294 C 0.8908 0.58306 0.04061 0.0
C2295 C 0.88223 0.5803 0.02248 0.0
C2296 C 0.90551 0.5712 0.04575 0.0
C2297 C 0.91205 0.55631 0.03288 0.0
C2298 C 0.90362 0.55374 0.01471 0.0
C2299 C 0.88889 0.56553 0.00959 0.0
H2300 H 0.08194 0.98849 0.06703 0.0
H2301 H 0.12818 0.03745 0.06943 0.0
H2302 H 0.10717 0.96565 0.05812 0.0
H2303 H 0.15316 0.01475 0.06003 0.0
H2304 H 0.19683 0.96793 0.06489 0.0
H2305 H 0.17106 0.99012 0.07303 0.0
H2306 H 0.12885 0.95503 0.03273 0.0
H2307 H 0.15477 0.93283 0.0244 0.0
C2308 C 0.09745 0.99439 0.06558 0.0
C2309 C 0.10298 0.01483 0.06893 0.0
C2310 C 0.11188 0.9813 0.06032 0.0
C2311 C 0.13225 0.98833 0.05841 0.0
C2312 C 0.13769 0.00878 0.06157 0.0
C2313 C 0.12328 0.02184 0.06674 0.0
C2314 C 0.18216 0.96502 0.05757 0.0
C2315 C 0.17801 0.9486 0.04386 0.0
C2316 C 0.16733 0.97777 0.06228 0.0
C2317 C 0.14788 0.97447 0.05347 0.0
C2318 C 0.1436 0.95792 0.03993 0.0
C2319 C 0.15848 0.94517 0.03516 0.0
loop_
_geom_bond_atom_site_label_1
_geom_bond_atom_site_label_2
_geom_bond_distance
_geom_bond_site_symmetry_2
_ccdc_geom_bond_type
H0 C1 0.949 . S
C1 H0 0.949 . S
C1 C2 1.395 . S
C1 C3 1.391 . S
C2 C1 1.395 . S
C2 C5 1.390 . S
C3 C1 1.391 . S
C3 C7 1.387 . S
C3 C8 1.491 . S
H4 C5 0.950 . S
C5 C2 1.390 . S
C5 H4 0.950 . S
C5 C6 1.378 . S
C6 C5 1.378 . S
C6 C7 1.409 . S
C7 C3 1.387 . S
C7 C6 1.409 . S
C7 H9 0.951 . S
C8 C3 1.491 . S
C8 C10 1.382 . S
C8 C12 1.404 . S
H9 C7 0.951 . S
C10 C8 1.382 . S
C10 C11 1.390 . S
C10 H15 0.949 . S
C11 C10 1.390 . S
C11 C16 1.399 . S
C12 C8 1.404 . S
C12 H13 0.950 . S
C12 C14 1.375 . S
H13 C12 0.950 . S
C14 C12 1.375 . S
C14 C16 1.382 . S
C14 H18 0.950 . S
H15 C10 0.949 . S
C16 C11 1.399 . S
C16 C14 1.382 . S
C16 H17 0.952 . S
H17 C16 0.952 . S
H18 C14 0.950 . S
H19 C20 0.949 . S
C20 H19 0.949 . S
C20 C21 1.395 . S
C20 C22 1.391 . S
C21 C20 1.395 . S
C21 C24 1.390 . S
C22 C20 1.391 . S
C22 C26 1.387 . S
C22 C27 1.491 . S
H23 C24 0.950 . S
C24 C21 1.390 . S
C24 H23 0.950 . S
C24 C25 1.378 . S
C25 C24 1.378 . S
C25 C26 1.409 . S
C26 C22 1.387 . S
C26 C25 1.409 . S
C26 H28 0.951 . S
C27 C22 1.491 . S
C27 C29 1.382 . S
C27 C31 1.404 . S
H28 C26 0.951 . S
C29 C27 1.382 . S
C29 C30 1.390 . S
C29 H34 0.949 . S
C30 C29 1.390 . S
C30 C35 1.399 . S
C31 C27 1.404 . S
C31 H32 0.950 . S
C31 C33 1.375 . S
H32 C31 0.950 . S
C33 C31 1.375 . S
C33 C35 1.382 . S
C33 H37 0.950 . S
H34 C29 0.949 . S
C35 C30 1.399 . S
C35 C33 1.382 . S
C35 H36 0.952 . S
H36 C35 0.952 . S
H37 C33 0.950 . S
H38 C39 0.949 . S
C39 H38 0.949 . S
C39 C40 1.395 . S
C39 C41 1.391 1_455 S
C40 C39 1.395 . S
C40 C43 1.390 1_455 S
C41 C39 1.391 1_655 S
C41 C45 1.387 . S
C41 C46 1.487 1_654 S
H42 C43 0.950 . S
C43 C40 1.390 1_655 S
C43 H42 0.950 . S
C43 C44 1.378 . S
C44 C43 1.378 . S
C44 C45 1.409 . S
C45 C41 1.387 . S
C45 C44 1.409 . S
C45 H47 0.951 1_554 S
C46 C41 1.487 1_456 S
C46 C48 1.386 . S
C46 C50 1.404 . S
H47 C45 0.951 1_556 S
C48 C46 1.386 . S
C48 C49 1.390 . S
C48 H53 0.949 1_556 S
C49 C48 1.390 . S
C49 C54 1.399 . S
C50 C46 1.404 . S
C50 H51 0.949 1_455 S
C50 C52 1.376 . S
H51 C50 0.949 1_655 S
C52 C50 1.376 . S
C52 C54 1.382 . S
C52 H56 0.950 . S
H53 C48 0.949 1_554 S
C54 C49 1.399 . S
C54 C52 1.382 . S
C54 H55 0.952 . S
H55 C54 0.952 . S
H56 C52 0.950 . S
H57 C58 0.949 . S
C58 H57 0.949 . S
C58 C59 1.395 . S
C58 C60 1.391 . S
C59 C58 1.395 . S
C59 C62 1.390 . S
C60 C58 1.391 . S
C60 C64 1.387 . S
C60 C65 1.491 . S
H61 C62 0.950 . S
C62 C59 1.390 . S
C62 H61 0.950 . S
C62 C63 1.378 . S
C63 C62 1.378 . S
C63 C64 1.409 . S
C64 C60 1.387 . S
C64 C63 1.409 . S
C64 H66 0.951 . S
C65 C60 1.491 . S
C65 C67 1.382 . S
C65 C69 1.404 . S
H66 C64 0.951 . S
C67 C65 1.382 . S
C67 C68 1.390 . S
C67 H72 0.949 . S
C68 C67 1.390 . S
C68 C73 1.399 . S
C69 C65 1.404 . S
C69 H70 0.950 . S
C69 C71 1.375 . S
H70 C69 0.950 . S
C71 C69 1.375 . S
C71 C73 1.382 . S
C71 H75 0.950 . S
H72 C67 0.949 . S
C73 C68 1.399 . S
C73 C71 1.382 . S
C73 H74 0.952 . S
H74 C73 0.952 . S
H75 C71 0.950 . S
H76 C77 0.949 . S
C77 H76 0.949 . S
C77 C78 1.395 . S
C77 C79 1.391 . S
C78 C77 1.395 . S
C78 C81 1.390 . S
C79 C77 1.391 . S
C79 C83 1.387 . S
C79 C84 1.491 . S
H80 C81 0.901 1_545 S
C81 C78 1.390 . S
C81 H80 0.901 1_565 S
C81 C82 1.378 . S
C82 C81 1.378 . S
C82 C83 1.409 . S
C83 C79 1.387 . S
C83 C82 1.409 . S
C83 H85 0.951 . S
C84 C79 1.491 . S
C84 C86 1.382 . S
C84 C88 1.404 . S
H85 C83 0.951 . S
C86 C84 1.382 . S
C86 C87 1.390 . S
C86 H91 0.949 . S
C87 C86 1.390 . S
C87 C92 1.399 . S
C88 C84 1.404 . S
C88 H89 0.950 . S
C88 C90 1.375 . S
H89 C88 0.950 . S
C90 C88 1.375 . S
C90 C92 1.382 . S
C90 H94 0.950 . S
H91 C86 0.949 . S
C92 C87 1.399 . S
C92 C90 1.382 . S
C92 H93 0.952 . S
H93 C92 0.952 . S
H94 C90 0.950 . S
H95 C96 0.949 . S
C96 H95 0.949 . S
C96 C97 1.395 . S
C96 C98 1.391 . S
C97 C96 1.395 . S
C97 C100 1.390 . S
C98 C96 1.391 . S
C98 C102 1.387 . S
C98 C103 1.491 . S
H99 C100 0.950 . S
C100 C97 1.390 . S
C100 H99 0.950 . S
C100 C101 1.378 . S
C101 C100 1.378 . S
C101 C102 1.409 . S
C102 C98 1.387 . S
C102 C101 1.409 . S
C102 H104 0.951 . S
C103 C98 1.491 . S
C103 C105 1.382 . S
C103 C107 1.404 . S
H104 C102 0.951 . S
C105 C103 1.382 . S
C105 C106 1.390 . S
C105 H110 0.949 . S
C106 C105 1.390 . S
C106 C111 1.399 . S
C107 C103 1.404 . S
C107 H108 0.950 . S
C107 C109 1.375 . S
H108 C107 0.950 . S
C109 C107 1.375 . S
C109 C111 1.382 . S
C109 H113 0.950 . S
H110 C105 0.949 . S
C111 C106 1.399 . S
C111 C109 1.382 . S
C111 H112 0.952 . S
H112 C111 0.952 . S
H113 C109 0.950 . S
H114 C115 0.949 . S
C115 H114 0.949 . S
C115 C116 1.395 . S
C115 C117 1.391 . S
C116 C115 1.395 . S
C116 C119 1.390 . S
C117 C115 1.391 . S
C117 C121 1.387 . S
C117 C122 1.491 . S
H118 C119 0.950 . S
C119 C116 1.390 . S
C119 H118 0.950 . S
C119 C120 1.378 . S
C120 C119 1.378 . S
C120 C121 1.409 . S
C121 C117 1.387 . S
C121 C120 1.409 . S
C121 H123 0.951 . S
C122 C117 1.491 . S
C122 C124 1.382 . S
C122 C126 1.404 . S
H123 C121 0.951 . S
C124 C122 1.382 . S
C124 C125 1.390 1_655 S
C124 H129 0.949 1_655 S
C125 C124 1.390 1_455 S
C125 C130 1.399 1_455 S
C126 C122 1.404 . S
C126 H127 0.950 . S
C126 C128 1.375 . S
H127 C126 0.950 . S
C128 C126 1.375 . S
C128 C130 1.382 . S
C128 H132 0.950 . S
H129 C124 0.949 1_455 S
C130 C125 1.399 1_655 S
C130 C128 1.382 . S
C130 H131 0.952 . S
H131 C130 0.952 . S
H132 C128 0.950 . S
H133 C134 0.949 . S
C134 H133 0.949 . S
C134 C135 1.395 . S
C134 C136 1.391 . S
C135 C134 1.395 . S
C135 C138 1.390 . S
C136 C134 1.391 . S
C136 C140 1.387 . S
C136 C141 1.491 . S
H137 C138 0.950 . S
C138 C135 1.390 . S
C138 H137 0.950 . S
C138 C139 1.378 . S
C139 C138 1.378 . S
C139 C140 1.409 . S
C140 C136 1.387 . S
C140 C139 1.409 . S
C140 H142 0.951 . S
C141 C136 1.491 . S
C141 C143 1.382 . S
C141 C145 1.404 . S
H142 C140 0.951 . S
C143 C141 1.382 . S
C143 C144 1.390 . S
C143 H148 0.949 . S
C144 C143 1.390 . S
C144 C149 1.399 . S
C145 C141 1.404 . S
C145 H146 0.950 . S
C145 C147 1.375 . S
H146 C145 0.950 . S
C147 C145 1.375 . S
C147 C149 1.382 . S
C147 H151 0.950 . S
H148 C143 0.949 . S
C149 C144 1.399 . S
C149 C147 1.382 . S
C149 H150 0.952 . S
H150 C149 0.952 . S
H151 C147 0.950 . S
H152 C153 0.949 . S
C153 H152 0.949 . S
C153 C154 1.395 . S
C153 C155 1.391 . S
C154 C153 1.395 . S
C154 C157 1.390 . S
C155 C153 1.391 . S
C155 C159 1.387 . S
C155 C160 1.491 . S
H156 C157 0.950 . S
C157 C154 1.390 . S
C157 H156 0.950 . S
C157 C158 1.378 . S
C158 C157 1.378 . S
C158 C159 1.409 . S
C159 C155 1.387 . S
C159 C158 1.409 . S
C159 H161 0.951 . S
C160 C155 1.491 . S
C160 C162 1.382 . S
C160 C164 1.404 . S
H161 C159 0.951 . S
C162 C160 1.382 . S
C162 C163 1.390 . S
C162 H167 0.949 . S
C163 C162 1.390 . S
C163 C168 1.399 . S
C164 C160 1.404 . S
C164 H165 0.950 . S
C164 C166 1.375 . S
H165 C164 0.950 . S
C166 C164 1.375 . S
C166 C168 1.382 . S
C166 H170 0.950 . S
H167 C162 0.949 . S
C168 C163 1.399 . S
C168 C166 1.382 . S
C168 H169 0.952 . S
H169 C168 0.952 . S
H170 C166 0.950 . S
H171 C172 0.949 . S
C172 H171 0.949 . S
C172 C173 1.395 . S
C172 C174 1.391 . S
C173 C172 1.395 . S
C173 C176 1.390 . S
C174 C172 1.391 . S
C174 C178 1.387 . S
C174 C179 1.491 . S
H175 C176 0.950 1_545 S
C176 C173 1.390 . S
C176 H175 0.950 1_565 S
C176 C177 1.378 . S
C177 C176 1.378 . S
C177 C178 1.409 . S
C178 C174 1.387 . S
C178 C177 1.409 . S
C178 H180 0.951 . S
C179 C174 1.491 . S
C179 C181 1.382 . S
C179 C183 1.404 . S
H180 C178 0.951 . S
C181 C179 1.382 . S
C181 C182 1.390 . S
C181 H186 0.949 . S
C182 C181 1.390 . S
C182 C187 1.399 . S
C183 C179 1.404 . S
C183 H184 0.950 . S
C183 C185 1.375 . S
H184 C183 0.950 . S
C185 C183 1.375 . S
C185 C187 1.382 . S
C185 H189 0.950 . S
H186 C181 0.949 . S
C187 C182 1.399 . S
C187 C185 1.382 . S
C187 H188 0.952 . S
H188 C187 0.952 . S
H189 C185 0.950 . S
H190 C191 0.949 . S
C191 H190 0.949 . S
C191 C192 1.395 . S
C191 C193 1.391 . S
C192 C191 1.395 . S
C192 C195 1.390 . S
C193 C191 1.391 . S
C193 C197 1.387 . S
C193 C198 1.491 . S
H194 C195 0.950 . S
C195 C192 1.390 . S
C195 H194 0.950 . S
C195 C196 1.378 . S
C196 C195 1.378 . S
C196 C197 1.409 . S
C197 C193 1.387 . S
C197 C196 1.409 . S
C197 H199 0.951 . S
C198 C193 1.491 . S
C198 C200 1.382 . S
C198 C202 1.404 . S
H199 C197 0.951 . S
C200 C198 1.382 . S
C200 C201 1.390 . S
C200 H205 0.949 . S
C201 C200 1.390 . S
C201 C206 1.399 . S
C202 C198 1.404 . S
C202 H203 0.950 . S
C202 C204 1.375 . S
H203 C202 0.950 . S
C204 C202 1.375 . S
C204 C206 1.382 . S
C204 H208 0.950 . S
H205 C200 0.949 . S
C206 C201 1.399 . S
C206 C204 1.382 . S
C206 H207 0.952 . S
H207 C206 0.952 . S
H208 C204 0.950 . S
H209 C210 0.949 . S
C210 H209 0.949 . S
C210 C211 1.395 . S
C210 C212 1.391 . S
C211 C210 1.395 . S
C211 C214 1.390 . S
C212 C210 1.391 . S
C212 C216 1.387 . S
C212 C217 1.491 . S
H213 C214 0.950 . S
C214 C211 1.390 . S
C214 H213 0.950 . S
C214 C215 1.378 . S
C215 C214 1.378 . S
C215 C216 1.409 . S
C216 C212 1.387 . S
C216 C215 1.409 . S
C216 H218 0.951 . S
C217 C212 1.491 . S
C217 C219 1.382 . S
C217 C221 1.404 . S
H218 C216 0.951 . S
C219 C217 1.382 . S
C219 C220 1.390 . S
C219 H224 0.949 . S
C220 C219 1.390 . S
C220 C225 1.399 . S
C221 C217 1.404 . S
C221 H222 0.950 . S
C221 C223 1.375 . S
H222 C221 0.950 . S
C223 C221 1.375 . S
C223 C225 1.382 . S
C223 H227 0.950 . S
H224 C219 0.949 . S
C225 C220 1.399 . S
C225 C223 1.382 . S
C225 H226 0.952 . S
H226 C225 0.952 . S
H227 C223 0.950 . S
H228 C229 0.949 . S
C229 H228 0.949 . S
C229 C230 1.395 . S
C229 C231 1.391 . S
C230 C229 1.395 . S
C230 C233 1.390 . S
C231 C229 1.391 . S
C231 C235 1.387 . S
C231 C236 1.491 . S
H232 C233 0.950 . S
C233 C230 1.390 . S
C233 H232 0.950 . S
C233 C234 1.378 . S
C234 C233 1.378 . S
C234 C235 1.409 . S
C235 C231 1.387 . S
C235 C234 1.409 . S
C235 H237 0.951 . S
C236 C231 1.491 . S
C236 C238 1.382 . S
C236 C240 1.404 . S
H237 C235 0.951 . S
C238 C236 1.382 . S
C238 C239 1.390 . S
C238 H243 0.949 . S
C239 C238 1.390 . S
C239 C244 1.399 . S
C240 C236 1.404 . S
C240 H241 0.950 . S
C240 C242 1.375 . S
H241 C240 0.950 . S
C242 C240 1.375 . S
C242 C244 1.382 . S
C242 H246 0.950 . S
H243 C238 0.949 . S
C244 C239 1.399 . S
C244 C242 1.382 . S
C244 H245 0.952 . S
H245 C244 0.952 . S
H246 C242 0.950 . S
H247 C248 0.949 1_554 S
C248 H247 0.949 1_556 S
C248 C249 1.395 . S
C248 C250 1.391 . S
C249 C248 1.395 . S
C249 C252 1.390 . S
C250 C248 1.391 . S
C250 C254 1.387 . S
C250 C255 1.491 . S
H251 C252 0.950 . S
C252 C249 1.390 . S
C252 H251 0.950 . S
C252 C253 1.378 . S
C253 C252 1.378 . S
C253 C254 1.409 . S
C254 C250 1.387 . S
C254 C253 1.409 . S
C254 H256 0.951 . S
C255 C250 1.491 . S
C255 C257 1.382 1_556 S
C255 C259 1.404 . S
H256 C254 0.951 . S
C257 C255 1.382 1_554 S
C257 C258 1.390 . S
C257 H262 0.949 . S
C258 C257 1.390 . S
C258 C263 1.399 . S
C259 C255 1.404 . S
C259 H260 0.950 . S
C259 C261 1.375 . S
H260 C259 0.950 . S
C261 C259 1.375 . S
C261 C263 1.382 1_556 S
C261 H265 0.950 . S
H262 C257 0.949 . S
C263 C258 1.399 . S
C263 C261 1.382 1_554 S
C263 H264 0.952 . S
H264 C263 0.952 . S
H265 C261 0.950 . S
H266 C267 0.949 . S
C267 H266 0.949 . S
C267 C268 1.395 . S
C267 C269 1.391 . S
C268 C267 1.395 . S
C268 C271 1.390 . S
C269 C267 1.391 . S
C269 C273 1.387 . S
C269 C274 1.491 . S
H270 C271 0.950 . S
C271 C268 1.390 . S
C271 H270 0.950 . S
C271 C272 1.378 . S
C272 C271 1.378 . S
C272 C273 1.409 . S
C273 C269 1.387 . S
C273 C272 1.409 . S
C273 H275 0.951 . S
C274 C269 1.491 . S
C274 C276 1.382 . S
C274 C278 1.404 . S
H275 C273 0.951 . S
C276 C274 1.382 . S
C276 C277 1.390 . S
C276 H281 0.949 . S
C277 C276 1.390 . S
C277 C282 1.399 . S
C278 C274 1.404 . S
C278 H279 0.950 . S
C278 C280 1.375 . S
H279 C278 0.950 . S
C280 C278 1.375 . S
C280 C282 1.382 . S
C280 H284 0.950 . S
H281 C276 0.949 . S
C282 C277 1.399 . S
C282 C280 1.382 . S
C282 H283 0.952 . S
H283 C282 0.952 . S
H284 C280 0.950 . S
H285 C286 0.949 . S
C286 H285 0.949 . S
C286 C287 1.395 . S
C286 C288 1.391 . S
C287 C286 1.395 . S
C287 C290 1.390 . S
C288 C286 1.391 . S
C288 C292 1.387 . S
C288 C293 1.491 . S
H289 C290 0.950 . S
C290 C287 1.390 . S
C290 H289 0.950 . S
C290 C291 1.378 . S
C291 C290 1.378 . S
C291 C292 1.409 . S
C292 C288 1.387 . S
C292 C291 1.409 . S
C292 H294 0.951 . S
C293 C288 1.491 . S
C293 C295 1.382 . S
C293 C297 1.404 . S
H294 C292 0.951 . S
C295 C293 1.382 . S
C295 C296 1.390 . S
C295 H300 0.949 . S
C296 C295 1.390 . S
C296 C301 1.399 . S
C297 C293 1.404 . S
C297 H298 0.950 . S
C297 C299 1.375 . S
H298 C297 0.950 . S
C299 C297 1.375 . S
C299 C301 1.382 . S
C299 H303 0.950 . S
H300 C295 0.949 . S
C301 C296 1.399 . S
C301 C299 1.382 . S
C301 H302 0.952 . S
H302 C301 0.952 . S
H303 C299 0.950 . S
Li304 N321 1.990 . S
Li304 O364 1.956 . S
Li304 O365 1.970 . S
Li304 O366 1.961 . S
Li305 N329 1.990 . S
Li305 O364 1.970 . S
Li305 O365 1.956 . S
Li305 O367 1.961 . S
Li306 N351 1.990 1_554 S
Li306 O364 1.961 . S
Li306 O366 1.956 . S
Li306 O367 1.970 . S
Li307 N357 1.990 . S
Li307 O365 1.961 . S
Li307 O366 1.970 . S
Li307 O367 1.956 . S
C308 C310 1.348 . S
C308 C311 1.356 . S
C308 O364 1.325 . S
N309 C312 1.314 . S
N309 C313 1.279 . S
C310 C308 1.348 . S
C310 C312 1.353 . S
C310 H368 0.929 . S
C311 C308 1.356 . S
C311 C313 1.358 . S
C311 H369 0.930 . S
C312 N309 1.314 . S
C312 C310 1.353 . S
C312 H370 0.930 . S
C313 N309 1.279 . S
C313 C311 1.358 . S
C313 H371 0.930 1_554 S
C314 C317 1.348 . S
C314 C318 1.356 . S
C314 O365 1.325 . S
C315 N316 1.279 . S
C315 C318 1.358 . S
C315 H372 0.930 . S
N316 C315 1.279 . S
N316 C319 1.314 . S
C317 C314 1.348 . S
C317 C319 1.353 . S
C317 H373 0.929 . S
C318 C314 1.356 . S
C318 C315 1.358 . S
C318 H374 0.930 . S
C319 N316 1.314 . S
C319 C317 1.353 . S
C319 H375 0.930 . S
C320 N321 1.314 . S
C320 C325 1.353 . S
C320 H326 0.930 . S
N321 Li304 1.990 . S
N321 C320 1.314 . S
N321 C323 1.279 . S
C322 C323 1.358 . S
C322 C324 1.356 . S
C322 H376 0.930 . S
C323 N321 1.279 . S
C323 C322 1.358 . S
C323 H327 0.930 . S
C324 C322 1.356 . S
C324 C325 1.348 . S
C325 C320 1.353 . S
C325 C324 1.348 . S
C325 H377 0.929 . S
H326 C320 0.930 . S
H327 C323 0.930 . S
C328 N329 1.314 . S
C328 C330 1.353 . S
C328 H334 0.930 . S
N329 Li305 1.990 . S
N329 C328 1.314 . S
N329 C332 1.279 . S
C330 C328 1.353 . S
C330 C333 1.348 . S
C330 H378 0.929 . S
C331 C332 1.358 . S
C331 C333 1.356 . S
C331 H379 0.930 . S
C332 N329 1.279 . S
C332 C331 1.358 . S
C332 H335 0.930 . S
C333 C330 1.348 . S
C333 C331 1.356 . S
H334 C328 0.930 . S
H335 C332 0.930 . S
C336 C338 1.365 . S
C336 C339 1.403 . S
C336 O366 1.269 1_556 S
N337 C340 1.314 . S
N337 C341 1.279 . S
C338 C336 1.365 . S
C338 C340 1.353 . S
C338 H380 0.929 1_556 S
C339 C336 1.403 . S
C339 C341 1.358 . S
C339 H381 0.930 . S
C340 N337 1.314 . S
C340 C338 1.353 . S
C340 H382 0.930 . S
C341 N337 1.279 . S
C341 C339 1.358 . S
C341 H383 0.930 . S
C342 C343 1.348 . S
C342 C344 1.356 . S
C342 O367 1.325 . S
C343 C342 1.348 . S
C343 C345 1.353 . S
C343 H384 0.929 . S
C344 C342 1.356 . S
C344 C346 1.358 . S
C344 H385 0.930 . S
C345 C343 1.353 . S
C345 N347 1.314 . S
C345 H386 0.930 . S
C346 C344 1.358 . S
C346 N347 1.279 . S
C346 H387 0.930 . S
N347 C345 1.314 . S
N347 C346 1.279 . S
C348 C350 1.353 . S
C348 N351 1.314 . S
C348 H354 0.930 1_556 S
C349 N351 1.279 . S
C349 C352 1.358 . S
C349 H355 0.930 . S
C350 C348 1.353 . S
C350 C353 1.348 . S
C350 H388 0.929 . S
N351 Li306 1.990 1_556 S
N351 C348 1.314 . S
N351 C349 1.279 . S
C352 C349 1.358 . S
C352 C353 1.356 . S
C352 H389 0.930 . S
C353 C350 1.348 . S
C353 C352 1.356 . S
H354 C348 0.930 1_554 S
H355 C349 0.930 . S
C356 N357 1.314 . S
C356 C358 1.353 . S
C356 H362 0.930 . S
N357 Li307 1.990 . S
N357 C356 1.314 . S
N357 C360 1.279 . S
C358 C356 1.353 . S
C358 C361 1.348 . S
C358 H390 0.929 . S
C359 C360 1.358 . S
C359 C361 1.356 . S
C359 H391 0.930 . S
C360 N357 1.279 . S
C360 C359 1.358 . S
C360 H363 0.930 . S
C361 C358 1.348 . S
C361 C359 1.356 . S
H362 C356 0.930 . S
H363 C360 0.930 . S
O364 Li304 1.956 . S
O364 Li305 1.970 . S
O364 Li306 1.961 . S
O364 C308 1.325 . S
O365 Li304 1.970 . S
O365 Li305 1.956 . S
O365 Li307 1.961 . S
O365 C314 1.325 . S
O366 Li304 1.961 . S
O366 Li306 1.956 . S
O366 Li307 1.970 . S
O366 C336 1.269 1_554 S
O367 Li305 1.961 . S
O367 Li306 1.970 . S
O367 Li307 1.956 . S
O367 C342 1.325 . S
H368 C310 0.929 . S
H369 C311 0.930 . S
H370 C312 0.930 . S
H371 C313 0.930 1_556 S
H372 C315 0.930 . S
H373 C317 0.929 . S
H374 C318 0.930 . S
H375 C319 0.930 . S
H376 C322 0.930 . S
H377 C325 0.929 . S
H378 C330 0.929 . S
H379 C331 0.930 . S
H380 C338 0.929 1_554 S
H381 C339 0.930 . S
H382 C340 0.930 . S
H383 C341 0.930 . S
H384 C343 0.929 . S
H385 C344 0.930 . S
H386 C345 0.930 . S
H387 C346 0.930 . S
H388 C350 0.929 . S
H389 C352 0.930 . S
H390 C358 0.929 . S
H391 C359 0.930 . S
Li392 N409 1.990 . S
Li392 O452 1.956 . S
Li392 O453 1.970 . S
Li392 O454 1.961 . S
Li393 N417 1.990 . S
Li393 O452 1.970 . S
Li393 O453 1.956 . S
Li393 O455 1.961 . S
Li394 N439 1.990 . S
Li394 O452 1.961 . S
Li394 O454 1.956 . S
Li394 O455 1.970 . S
Li395 N445 1.990 . S
Li395 O453 1.961 . S
Li395 O454 1.970 . S
Li395 O455 1.956 . S
C396 C398 1.348 . S
C396 C399 1.356 . S
C396 O452 1.325 . S
N397 C400 1.314 . S
N397 C401 1.279 . S
C398 C396 1.348 . S
C398 C400 1.353 . S
C398 H456 0.929 . S
C399 C396 1.356 . S
C399 C401 1.358 . S
C399 H457 0.930 . S
C400 N397 1.314 . S
C400 C398 1.353 . S
C400 H458 0.930 . S
C401 N397 1.279 . S
C401 C399 1.358 . S
C401 H459 0.930 . S
C402 C405 1.348 . S
C402 C406 1.356 . S
C402 O453 1.325 . S
C403 N404 1.279 . S
C403 C406 1.358 . S
C403 H460 0.930 . S
N404 C403 1.279 . S
N404 C407 1.314 . S
C405 C402 1.348 . S
C405 C407 1.353 . S
C405 H461 0.929 . S
C406 C402 1.356 . S
C406 C403 1.358 . S
C406 H462 0.930 . S
C407 N404 1.314 . S
C407 C405 1.353 . S
C407 H463 0.930 . S
C408 N409 1.314 . S
C408 C413 1.353 . S
C408 H414 0.930 . S
N409 Li392 1.990 . S
N409 C408 1.314 . S
N409 C411 1.279 . S
C410 C411 1.358 . S
C410 C412 1.356 . S
C410 H464 0.930 . S
C411 N409 1.279 . S
C411 C410 1.358 . S
C411 H415 0.930 . S
C412 C410 1.356 . S
C412 C413 1.348 . S
C413 C408 1.353 . S
C413 C412 1.348 . S
C413 H465 0.929 . S
H414 C408 0.930 . S
H415 C411 0.930 . S
C416 N417 1.314 . S
C416 C418 1.353 . S
C416 H422 0.930 . S
N417 Li393 1.990 . S
N417 C416 1.314 . S
N417 C420 1.279 . S
C418 C416 1.353 . S
C418 C421 1.348 . S
C418 H466 0.929 . S
C419 C420 1.358 . S
C419 C421 1.356 . S
C419 H467 0.930 . S
C420 N417 1.279 . S
C420 C419 1.358 . S
C420 H423 0.930 . S
C421 C418 1.348 . S
C421 C419 1.356 . S
H422 C416 0.930 . S
H423 C420 0.930 . S
C424 C426 1.348 . S
C424 C427 1.356 . S
C424 O454 1.325 . S
N425 C428 1.314 . S
N425 C429 1.279 . S
C426 C424 1.348 . S
C426 C428 1.353 . S
C426 H468 0.929 . S
C427 C424 1.356 . S
C427 C429 1.358 . S
C427 H469 0.930 . S
C428 N425 1.314 . S
C428 C426 1.353 . S
C428 H470 0.930 . S
C429 N425 1.279 . S
C429 C427 1.358 . S
C429 H471 0.930 . S
C430 C431 1.348 . S
C430 C432 1.356 . S
C430 O455 1.325 . S
C431 C430 1.348 . S
C431 C433 1.353 . S
C431 H472 0.929 . S
C432 C430 1.356 . S
C432 C434 1.358 . S
C432 H473 0.930 . S
C433 C431 1.353 . S
C433 N435 1.314 . S
C433 H474 0.930 . S
C434 C432 1.358 . S
C434 N435 1.279 . S
C434 H475 0.930 . S
N435 C433 1.314 . S
N435 C434 1.279 . S
C436 C438 1.353 . S
C436 N439 1.314 . S
C436 H442 0.930 . S
C437 N439 1.279 . S
C437 C440 1.358 . S
C437 H443 0.930 . S
C438 C436 1.353 . S
C438 C441 1.348 . S
C438 H476 0.929 . S
N439 Li394 1.990 . S
N439 C436 1.314 . S
N439 C437 1.279 . S
C440 C437 1.358 . S
C440 C441 1.356 . S
C440 H477 0.930 . S
C441 C438 1.348 . S
C441 C440 1.356 . S
H442 C436 0.930 . S
H443 C437 0.930 . S
C444 N445 1.314 . S
C444 C446 1.353 . S
C444 H450 0.930 . S
N445 Li395 1.990 . S
N445 C444 1.314 . S
N445 C448 1.279 . S
C446 C444 1.353 . S
C446 C449 1.348 . S
C446 H478 0.929 . S
C447 C448 1.358 . S
C447 C449 1.356 . S
C447 H479 0.930 . S
C448 N445 1.279 . S
C448 C447 1.358 . S
C448 H451 0.930 . S
C449 C446 1.348 . S
C449 C447 1.356 . S
H450 C444 0.930 . S
H451 C448 0.930 . S
O452 Li392 1.956 . S
O452 Li393 1.970 . S
O452 Li394 1.961 . S
O452 C396 1.325 . S
O453 Li392 1.970 . S
O453 Li393 1.956 . S
O453 Li395 1.961 . S
O453 C402 1.325 . S
O454 Li392 1.961 . S
O454 Li394 1.956 . S
O454 Li395 1.970 . S
O454 C424 1.325 . S
O455 Li393 1.961 . S
O455 Li394 1.970 . S
O455 Li395 1.956 . S
O455 C430 1.325 . S
H456 C398 0.929 . S
H457 C399 0.930 . S
H458 C400 0.930 . S
H459 C401 0.930 . S
H460 C403 0.930 . S
H461 C405 0.929 . S
H462 C406 0.930 . S
H463 C407 0.930 . S
H464 C410 0.930 . S
H465 C413 0.929 . S
H466 C418 0.929 . S
H467 C419 0.930 . S
H468 C426 0.929 . S
H469 C427 0.930 . S
H470 C428 0.930 . S
H471 C429 0.930 . S
H472 C431 0.929 . S
H473 C432 0.930 . S
H474 C433 0.930 . S
H475 C434 0.930 . S
H476 C438 0.929 . S
H477 C440 0.930 . S
H478 C446 0.929 . S
H479 C447 0.930 . S
Li480 N497 1.990 . S
Li480 O540 1.956 1_556 S
Li480 O541 1.970 1_556 S
Li480 O542 1.961 . S
Li481 N505 1.990 . S
Li481 O540 1.970 . S
Li481 O541 1.956 . S
Li481 O543 1.961 . S
Li482 N527 1.990 . S
Li482 O540 1.961 1_556 S
Li482 O542 1.956 . S
Li482 O543 1.970 1_556 S
Li483 N533 1.990 . S
Li483 O541 1.961 . S
Li483 O542 1.970 1_554 S
Li483 O543 1.956 . S
C484 C486 1.385 . S
C484 C487 1.317 1_554 S
C484 O540 1.329 . S
N485 C488 1.287 1_556 S
N485 C489 1.304 . S
C486 C484 1.385 . S
C486 C488 1.353 . S
C486 H544 0.929 . S
C487 C484 1.317 1_556 S
C487 C489 1.358 . S
C487 H545 0.930 . S
C488 N485 1.287 1_554 S
C488 C486 1.353 . S
C488 H546 0.930 . S
C489 N485 1.304 . S
C489 C487 1.358 . S
C489 H547 0.930 . S
C490 C493 1.348 . S
C490 C494 1.356 . S
C490 O541 1.325 . S
C491 N492 1.279 . S
C491 C494 1.358 . S
C491 H548 0.930 . S
N492 C491 1.279 . S
N492 C495 1.314 . S
C493 C490 1.348 . S
C493 C495 1.353 . S
C493 H549 0.929 . S
C494 C490 1.356 . S
C494 C491 1.358 . S
C494 H550 0.930 . S
C495 N492 1.314 . S
C495 C493 1.353 . S
C495 H551 0.930 . S
C496 N497 1.314 . S
C496 C501 1.353 . S
C496 H502 0.930 . S
N497 Li480 1.990 . S
N497 C496 1.314 . S
N497 C499 1.279 . S
C498 C499 1.358 . S
C498 C500 1.356 . S
C498 H552 0.930 . S
C499 N497 1.279 . S
C499 C498 1.358 . S
C499 H503 0.930 1_556 S
C500 C498 1.356 . S
C500 C501 1.348 . S
C501 C496 1.353 . S
C501 C500 1.348 . S
C501 H553 0.929 . S
H502 C496 0.930 . S
H503 C499 0.930 1_554 S
C504 N505 1.314 . S
C504 C506 1.353 . S
C504 H510 0.930 . S
N505 Li481 1.990 . S
N505 C504 1.314 . S
N505 C508 1.279 . S
C506 C504 1.353 . S
C506 C509 1.348 . S
C506 H554 0.929 . S
C507 C508 1.358 . S
C507 C509 1.356 . S
C507 H555 0.930 . S
C508 N505 1.279 . S
C508 C507 1.358 . S
C508 H511 0.930 . S
C509 C506 1.348 . S
C509 C507 1.356 . S
H510 C504 0.930 . S
H511 C508 0.930 . S
C512 C514 1.348 . S
C512 C515 1.356 . S
C512 O542 1.325 . S
N513 C516 1.314 . S
N513 C517 1.279 . S
C514 C512 1.348 . S
C514 C516 1.353 . S
C514 H556 0.929 . S
C515 C512 1.356 . S
C515 C517 1.358 . S
C515 H557 0.930 . S
C516 N513 1.314 . S
C516 C514 1.353 . S
C516 H558 0.930 . S
C517 N513 1.279 . S
C517 C515 1.358 . S
C517 H559 0.930 . S
C518 C519 1.348 1_554 S
C518 C520 1.356 . S
C518 O543 1.325 . S
C519 C518 1.348 1_556 S
C519 C521 1.353 . S
C519 H560 0.929 . S
C520 C518 1.356 . S
C520 C522 1.358 . S
C520 H561 0.930 . S
C521 C519 1.353 . S
C521 N523 1.314 1_556 S
C521 H562 0.930 . S
C522 C520 1.358 . S
C522 N523 1.279 . S
C522 H563 0.930 . S
N523 C521 1.314 1_554 S
N523 C522 1.279 . S
C524 C526 1.353 . S
C524 N527 1.314 . S
C524 H530 0.930 . S
C525 N527 1.279 . S
C525 C528 1.358 . S
C525 H531 0.930 . S
C526 C524 1.353 . S
C526 C529 1.348 . S
C526 H564 0.929 . S
N527 Li482 1.990 . S
N527 C524 1.314 . S
N527 C525 1.279 . S
C528 C525 1.358 . S
C528 C529 1.356 . S
C528 H565 0.930 . S
C529 C526 1.348 . S
C529 C528 1.356 . S
H530 C524 0.930 . S
H531 C525 0.930 . S
C532 N533 1.314 . S
C532 C534 1.353 . S
C532 H538 0.930 . S
N533 Li483 1.990 . S
N533 C532 1.314 . S
N533 C536 1.288 . S
C534 C532 1.353 . S
C534 C537 1.348 . S
C534 H566 0.929 . S
C535 C536 1.359 . S
C535 C537 1.359 . S
C535 H567 0.918 1_554 S
C536 N533 1.288 . S
C536 C535 1.359 . S
C536 H539 0.920 1_554 S
C537 C534 1.348 . S
C537 C535 1.359 . S
H538 C532 0.930 . S
H539 C536 0.920 1_556 S
O540 Li480 1.956 1_554 S
O540 Li481 1.970 . S
O540 Li482 1.961 1_554 S
O540 C484 1.329 . S
O541 Li480 1.970 1_554 S
O541 Li481 1.956 . S
O541 Li483 1.961 . S
O541 C490 1.325 . S
O542 Li480 1.961 . S
O542 Li482 1.956 . S
O542 Li483 1.970 1_556 S
O542 C512 1.325 . S
O543 Li481 1.961 . S
O543 Li482 1.970 1_554 S
O543 Li483 1.956 . S
O543 C518 1.325 . S
H544 C486 0.929 . S
H545 C487 0.930 . S
H546 C488 0.930 . S
H547 C489 0.930 . S
H548 C491 0.930 . S
H549 C493 0.929 . S
H550 C494 0.930 . S
H551 C495 0.930 . S
H552 C498 0.930 . S
H553 C501 0.929 . S
H554 C506 0.929 . S
H555 C507 0.930 . S
H556 C514 0.929 . S
H557 C515 0.930 . S
H558 C516 0.930 . S
H559 C517 0.930 . S
H560 C519 0.929 . S
H561 C520 0.930 . S
H562 C521 0.930 . S
H563 C522 0.930 . S
H564 C526 0.929 . S
H565 C528 0.930 . S
H566 C534 0.929 . S
H567 C535 0.918 1_556 S
Li568 N585 1.990 . S
Li568 O628 1.956 . S
Li568 O629 1.970 . S
Li568 O630 1.961 . S
Li569 N593 1.990 . S
Li569 O628 1.970 . S
Li569 O629 1.956 . S
Li569 O631 1.961 1_545 S
Li570 N615 1.990 . S
Li570 O628 1.961 . S
Li570 O630 1.956 . S
Li570 O631 1.970 1_545 S
Li571 N621 1.990 . S
Li571 O629 1.961 1_565 S
Li571 O630 1.970 1_565 S
Li571 O631 1.956 . S
C572 C574 1.348 . S
C572 C575 1.356 . S
C572 O628 1.325 . S
N573 C576 1.314 . S
N573 C577 1.279 . S
C574 C572 1.348 . S
C574 C576 1.353 . S
C574 H632 0.929 . S
C575 C572 1.356 . S
C575 C577 1.358 . S
C575 H633 0.930 . S
C576 N573 1.314 . S
C576 C574 1.353 . S
C576 H634 0.930 . S
C577 N573 1.279 . S
C577 C575 1.358 . S
C577 H635 0.930 . S
C578 C581 1.348 . S
C578 C582 1.356 1_545 S
C578 O629 1.325 . S
C579 N580 1.279 1_565 S
C579 C582 1.358 . S
C579 H636 0.930 . S
N580 C579 1.279 1_545 S
N580 C583 1.314 . S
C581 C578 1.348 . S
C581 C583 1.353 . S
C581 H637 0.929 . S
C582 C578 1.356 1_565 S
C582 C579 1.358 . S
C582 H638 0.930 . S
C583 N580 1.314 . S
C583 C581 1.353 . S
C583 H639 0.930 . S
C584 N585 1.314 . S
C584 C589 1.353 . S
C584 H590 0.930 . S
N585 Li568 1.990 . S
N585 C584 1.314 . S
N585 C587 1.279 . S
C586 C587 1.358 . S
C586 C588 1.356 . S
C586 H640 0.930 . S
C587 N585 1.279 . S
C587 C586 1.358 . S
C587 H591 0.930 . S
C588 C586 1.356 . S
C588 C589 1.348 . S
C589 C584 1.353 . S
C589 C588 1.348 . S
C589 H641 0.929 . S
H590 C584 0.930 . S
H591 C587 0.930 . S
C592 N593 1.314 . S
C592 C594 1.353 1_655 S
C592 H598 0.930 . S
N593 Li569 1.990 . S
N593 C592 1.314 . S
N593 C596 1.279 . S
C594 C592 1.353 1_455 S
C594 C597 1.348 1_455 S
C594 H642 0.929 . S
C595 C596 1.358 . S
C595 C597 1.356 . S
C595 H643 0.930 . S
C596 N593 1.279 . S
C596 C595 1.358 . S
C596 H599 0.930 . S
C597 C594 1.348 1_655 S
C597 C595 1.356 . S
H598 C592 0.930 . S
H599 C596 0.930 . S
C600 C602 1.344 . S
C600 C603 1.356 . S
C600 O630 1.325 . S
N601 C604 1.314 . S
N601 C605 1.279 . S
C602 C600 1.344 . S
C602 C604 1.352 . S
C602 H644 0.935 1_545 S
C603 C600 1.356 . S
C603 C605 1.358 . S
C603 H645 0.930 . S
C604 N601 1.314 . S
C604 C602 1.352 . S
C604 H646 0.930 1_545 S
C605 N601 1.279 . S
C605 C603 1.358 . S
C605 H647 0.930 . S
C606 C607 1.348 . S
C606 C608 1.356 . S
C606 O631 1.325 . S
C607 C606 1.348 . S
C607 C609 1.353 . S
C607 H648 0.929 . S
C608 C606 1.356 . S
C608 C610 1.358 . S
C608 H649 0.930 . S
C609 C607 1.353 . S
C609 N611 1.314 . S
C609 H650 0.930 . S
C610 C608 1.358 . S
C610 N611 1.279 . S
C610 H651 0.930 . S
N611 C609 1.314 . S
N611 C610 1.279 . S
C612 C614 1.353 . S
C612 N615 1.314 . S
C612 H618 0.930 . S
C613 N615 1.279 . S
C613 C616 1.358 . S
C613 H619 0.930 . S
C614 C612 1.353 . S
C614 C617 1.348 . S
C614 H652 0.929 1_655 S
N615 Li570 1.990 . S
N615 C612 1.314 . S
N615 C613 1.279 . S
C616 C613 1.358 . S
C616 C617 1.356 . S
C616 H653 0.930 . S
C617 C614 1.348 . S
C617 C616 1.356 . S
H618 C612 0.930 . S
H619 C613 0.930 . S
C620 N621 1.314 . S
C620 C622 1.353 . S
C620 H626 0.930 . S
N621 Li571 1.990 . S
N621 C620 1.314 . S
N621 C624 1.279 . S
C622 C620 1.353 . S
C622 C625 1.348 . S
C622 H654 0.929 . S
C623 C624 1.358 . S
C623 C625 1.356 . S
C623 H655 0.930 . S
C624 N621 1.279 . S
C624 C623 1.358 . S
C624 H627 0.930 . S
C625 C622 1.348 . S
C625 C623 1.356 . S
H626 C620 0.930 . S
H627 C624 0.930 . S
O628 Li568 1.956 . S
O628 Li569 1.970 . S
O628 Li570 1.961 . S
O628 C572 1.325 . S
O629 Li568 1.970 . S
O629 Li569 1.956 . S
O629 Li571 1.961 1_545 S
O629 C578 1.325 . S
O630 Li568 1.961 . S
O630 Li570 1.956 . S
O630 Li571 1.970 1_545 S
O630 C600 1.325 . S
O631 Li569 1.961 1_565 S
O631 Li570 1.970 1_565 S
O631 Li571 1.956 . S
O631 C606 1.325 . S
H632 C574 0.929 . S
H633 C575 0.930 . S
H634 C576 0.930 . S
H635 C577 0.930 . S
H636 C579 0.930 . S
H637 C581 0.929 . S
H638 C582 0.930 . S
H639 C583 0.930 . S
H640 C586 0.930 . S
H641 C589 0.929 . S
H642 C594 0.929 . S
H643 C595 0.930 . S
H644 C602 0.935 1_565 S
H645 C603 0.930 . S
H646 C604 0.930 1_565 S
H647 C605 0.930 . S
H648 C607 0.929 . S
H649 C608 0.930 . S
H650 C609 0.930 . S
H651 C610 0.930 . S
H652 C614 0.929 1_455 S
H653 C616 0.930 . S
H654 C622 0.929 . S
H655 C623 0.930 . S
Li656 N673 1.990 . S
Li656 O716 1.956 . S
Li656 O717 1.970 . S
Li656 O718 1.961 . S
Li657 N681 1.990 . S
Li657 O716 1.970 . S
Li657 O717 1.956 . S
Li657 O719 1.961 . S
Li658 N703 1.990 . S
Li658 O716 1.961 . S
Li658 O718 1.956 . S
Li658 O719 1.970 . S
Li659 N709 1.990 . S
Li659 O717 1.961 . S
Li659 O718 1.970 . S
Li659 O719 1.956 . S
C660 C662 1.348 . S
C660 C663 1.356 . S
C660 O716 1.325 . S
N661 C664 1.314 . S
N661 C665 1.279 . S
C662 C660 1.348 . S
C662 C664 1.353 . S
C662 H720 0.929 . S
C663 C660 1.356 . S
C663 C665 1.358 . S
C663 H721 0.930 . S
C664 N661 1.314 . S
C664 C662 1.353 . S
C664 H722 0.930 . S
C665 N661 1.279 . S
C665 C663 1.358 . S
C665 H723 0.930 . S
C666 C669 1.348 . S
C666 C670 1.356 . S
C666 O717 1.325 . S
C667 N668 1.279 . S
C667 C670 1.358 . S
C667 H724 0.930 . S
N668 C667 1.279 . S
N668 C671 1.314 . S
C669 C666 1.348 . S
C669 C671 1.353 . S
C669 H725 0.929 . S
C670 C666 1.356 . S
C670 C667 1.358 . S
C670 H726 0.930 . S
C671 N668 1.314 . S
C671 C669 1.353 . S
C671 H727 0.930 . S
C672 N673 1.314 . S
C672 C677 1.353 . S
C672 H678 0.930 . S
N673 Li656 1.990 . S
N673 C672 1.314 . S
N673 C675 1.279 . S
C674 C675 1.358 . S
C674 C676 1.356 . S
C674 H728 0.930 . S
C675 N673 1.279 . S
C675 C674 1.358 . S
C675 H679 0.930 . S
C676 C674 1.356 . S
C676 C677 1.348 . S
C677 C672 1.353 . S
C677 C676 1.348 . S
C677 H729 0.929 . S
H678 C672 0.930 . S
H679 C675 0.930 . S
C680 N681 1.314 . S
C680 C682 1.353 . S
C680 H686 0.930 . S
N681 Li657 1.990 . S
N681 C680 1.314 . S
N681 C684 1.279 . S
C682 C680 1.353 . S
C682 C685 1.348 . S
C682 H730 0.929 . S
C683 C684 1.358 . S
C683 C685 1.356 . S
C683 H731 0.930 . S
C684 N681 1.279 . S
C684 C683 1.358 . S
C684 H687 0.930 . S
C685 C682 1.348 . S
C685 C683 1.356 . S
H686 C680 0.930 . S
H687 C684 0.930 . S
C688 C690 1.348 . S
C688 C691 1.356 . S
C688 O718 1.325 . S
N689 C692 1.314 . S
N689 C693 1.279 . S
C690 C688 1.348 . S
C690 C692 1.353 . S
C690 H732 0.929 . S
C691 C688 1.356 . S
C691 C693 1.358 . S
C691 H733 0.930 . S
C692 N689 1.314 . S
C692 C690 1.353 . S
C692 H734 0.930 . S
C693 N689 1.279 . S
C693 C691 1.358 . S
C693 H735 0.930 . S
C694 C695 1.348 . S
C694 C696 1.356 . S
C694 O719 1.325 . S
C695 C694 1.348 . S
C695 C697 1.353 . S
C695 H736 0.929 . S
C696 C694 1.356 . S
C696 C698 1.358 . S
C696 H737 0.930 . S
C697 C695 1.353 . S
C697 N699 1.314 . S
C697 H738 0.930 . S
C698 C696 1.358 . S
C698 N699 1.279 . S
C698 H739 0.930 . S
N699 C697 1.314 . S
N699 C698 1.279 . S
C700 C702 1.353 . S
C700 N703 1.314 . S
C700 H706 0.930 . S
C701 N703 1.279 . S
C701 C704 1.358 . S
C701 H707 0.930 . S
C702 C700 1.353 . S
C702 C705 1.348 . S
C702 H740 0.929 . S
N703 Li658 1.990 . S
N703 C700 1.314 . S
N703 C701 1.279 . S
C704 C701 1.358 . S
C704 C705 1.356 . S
C704 H741 0.930 . S
C705 C702 1.348 . S
C705 C704 1.356 . S
H706 C700 0.930 . S
H707 C701 0.930 . S
C708 N709 1.314 . S
C708 C710 1.353 . S
C708 H714 0.930 . S
N709 Li659 1.990 . S
N709 C708 1.314 . S
N709 C712 1.279 . S
C710 C708 1.353 . S
C710 C713 1.348 . S
C710 H742 0.929 . S
C711 C712 1.358 . S
C711 C713 1.356 . S
C711 H743 0.930 . S
C712 N709 1.279 . S
C712 C711 1.358 . S
C712 H715 0.930 . S
C713 C710 1.348 . S
C713 C711 1.356 . S
H714 C708 0.930 . S
H715 C712 0.930 . S
O716 Li656 1.956 . S
O716 Li657 1.970 . S
O716 Li658 1.961 . S
O716 C660 1.325 . S
O717 Li656 1.970 . S
O717 Li657 1.956 . S
O717 Li659 1.961 . S
O717 C666 1.325 . S
O718 Li656 1.961 . S
O718 Li658 1.956 . S
O718 Li659 1.970 . S
O718 C688 1.325 . S
O719 Li657 1.961 . S
O719 Li658 1.970 . S
O719 Li659 1.956 . S
O719 C694 1.325 . S
H720 C662 0.929 . S
H721 C663 0.930 . S
H722 C664 0.930 . S
H723 C665 0.930 . S
H724 C667 0.930 . S
H725 C669 0.929 . S
H726 C670 0.930 . S
H727 C671 0.930 . S
H728 C674 0.930 . S
H729 C677 0.929 . S
H730 C682 0.929 . S
H731 C683 0.930 . S
H732 C690 0.929 . S
H733 C691 0.930 . S
H734 C692 0.930 . S
H735 C693 0.930 . S
H736 C695 0.929 . S
H737 C696 0.930 . S
H738 C697 0.930 . S
H739 C698 0.930 . S
H740 C702 0.929 . S
H741 C704 0.930 . S
H742 C710 0.929 . S
H743 C711 0.930 . S
Li744 N761 1.990 . S
Li744 O804 1.956 . S
Li744 O805 1.970 . S
Li744 O806 1.961 . S
Li745 N769 1.990 . S
Li745 O804 1.970 . S
Li745 O805 1.956 . S
Li745 O807 1.961 . S
Li746 N791 1.990 . S
Li746 O804 1.961 . S
Li746 O806 1.956 . S
Li746 O807 1.970 . S
Li747 N797 1.990 . S
Li747 O805 1.961 . S
Li747 O806 1.970 . S
Li747 O807 1.956 . S
C748 C750 1.348 . S
C748 C751 1.356 . S
C748 O804 1.325 . S
N749 C752 1.314 . S
N749 C753 1.279 . S
C750 C748 1.348 . S
C750 C752 1.353 . S
C750 H808 0.929 . S
C751 C748 1.356 . S
C751 C753 1.358 . S
C751 H809 0.930 . S
C752 N749 1.314 . S
C752 C750 1.353 . S
C752 H810 0.930 . S
C753 N749 1.279 . S
C753 C751 1.358 . S
C753 H811 0.930 . S
C754 C757 1.348 . S
C754 C758 1.356 . S
C754 O805 1.325 . S
C755 N756 1.279 . S
C755 C758 1.358 . S
C755 H812 0.930 . S
N756 C755 1.279 . S
N756 C759 1.314 . S
C757 C754 1.348 . S
C757 C759 1.353 . S
C757 H813 0.929 . S
C758 C754 1.356 . S
C758 C755 1.358 . S
C758 H814 0.930 . S
C759 N756 1.314 . S
C759 C757 1.353 . S
C759 H815 0.930 . S
C760 N761 1.314 . S
C760 C765 1.353 . S
C760 H766 0.930 . S
N761 Li744 1.990 . S
N761 C760 1.314 . S
N761 C763 1.279 . S
C762 C763 1.358 . S
C762 C764 1.356 . S
C762 H816 0.930 . S
C763 N761 1.279 . S
C763 C762 1.358 . S
C763 H767 0.930 . S
C764 C762 1.356 . S
C764 C765 1.348 . S
C765 C760 1.353 . S
C765 C764 1.348 . S
C765 H817 0.929 . S
H766 C760 0.930 . S
H767 C763 0.930 . S
C768 N769 1.314 . S
C768 C770 1.353 . S
C768 H774 0.930 . S
N769 Li745 1.990 . S
N769 C768 1.314 . S
N769 C772 1.279 . S
C770 C768 1.353 . S
C770 C773 1.348 . S
C770 H818 0.929 . S
C771 C772 1.358 . S
C771 C773 1.356 . S
C771 H819 0.930 . S
C772 N769 1.279 . S
C772 C771 1.358 . S
C772 H775 0.930 . S
C773 C770 1.348 . S
C773 C771 1.356 . S
H774 C768 0.930 . S
H775 C772 0.930 . S
C776 C778 1.348 . S
C776 C779 1.356 . S
C776 O806 1.325 . S
N777 C780 1.314 . S
N777 C781 1.279 . S
C778 C776 1.348 . S
C778 C780 1.353 . S
C778 H820 0.929 . S
C779 C776 1.356 . S
C779 C781 1.358 . S
C779 H821 0.930 . S
C780 N777 1.314 . S
C780 C778 1.353 . S
C780 H822 0.930 . S
C781 N777 1.279 . S
C781 C779 1.358 . S
C781 H823 0.930 . S
C782 C783 1.348 . S
C782 C784 1.356 . S
C782 O807 1.325 . S
C783 C782 1.348 . S
C783 C785 1.353 . S
C783 H824 0.929 . S
C784 C782 1.356 . S
C784 C786 1.358 . S
C784 H825 0.930 . S
C785 C783 1.353 . S
C785 N787 1.314 . S
C785 H826 0.930 . S
C786 C784 1.358 . S
C786 N787 1.279 . S
C786 H827 0.930 . S
N787 C785 1.314 . S
N787 C786 1.279 . S
C788 C790 1.353 . S
C788 N791 1.314 . S
C788 H794 0.930 . S
C789 N791 1.279 . S
C789 C792 1.358 . S
C789 H795 0.930 . S
C790 C788 1.353 . S
C790 C793 1.348 . S
C790 H828 0.929 . S
N791 Li746 1.990 . S
N791 C788 1.314 . S
N791 C789 1.279 . S
C792 C789 1.358 . S
C792 C793 1.356 . S
C792 H829 0.930 . S
C793 C790 1.348 . S
C793 C792 1.356 . S
H794 C788 0.930 . S
H795 C789 0.930 . S
C796 N797 1.314 . S
C796 C798 1.353 . S
C796 H802 0.930 . S
N797 Li747 1.990 . S
N797 C796 1.314 . S
N797 C800 1.279 . S
C798 C796 1.353 . S
C798 C801 1.348 . S
C798 H830 0.929 . S
C799 C800 1.358 . S
C799 C801 1.356 . S
C799 H831 0.930 . S
C800 N797 1.279 . S
C800 C799 1.358 . S
C800 H803 0.930 . S
C801 C798 1.348 . S
C801 C799 1.356 . S
H802 C796 0.930 . S
H803 C800 0.930 . S
O804 Li744 1.956 . S
O804 Li745 1.970 . S
O804 Li746 1.961 . S
O804 C748 1.325 . S
O805 Li744 1.970 . S
O805 Li745 1.956 . S
O805 Li747 1.961 . S
O805 C754 1.325 . S
O806 Li744 1.961 . S
O806 Li746 1.956 . S
O806 Li747 1.970 . S
O806 C776 1.325 . S
O807 Li745 1.961 . S
O807 Li746 1.970 . S
O807 Li747 1.956 . S
O807 C782 1.325 . S
H808 C750 0.929 . S
H809 C751 0.930 . S
H810 C752 0.930 . S
H811 C753 0.930 . S
H812 C755 0.930 . S
H813 C757 0.929 . S
H814 C758 0.930 . S
H815 C759 0.930 . S
H816 C762 0.930 . S
H817 C765 0.929 . S
H818 C770 0.929 . S
H819 C771 0.930 . S
H820 C778 0.929 . S
H821 C779 0.930 . S
H822 C780 0.930 . S
H823 C781 0.930 . S
H824 C783 0.929 . S
H825 C784 0.930 . S
H826 C785 0.930 . S
H827 C786 0.930 . S
H828 C790 0.929 . S
H829 C792 0.930 . S
H830 C798 0.929 . S
H831 C799 0.930 . S
Li832 N849 1.990 . S
Li832 O892 1.956 . S
Li832 O893 1.970 . S
Li832 O894 1.961 . S
Li833 N857 1.990 . S
Li833 O892 1.970 . S
Li833 O893 1.956 . S
Li833 O895 1.961 . S
Li834 N879 1.990 . S
Li834 O892 1.961 . S
Li834 O894 1.956 . S
Li834 O895 1.970 . S
Li835 N885 1.990 . S
Li835 O893 1.961 . S
Li835 O894 1.970 . S
Li835 O895 1.956 . S
C836 C838 1.348 . S
C836 C839 1.356 . S
C836 O892 1.325 . S
N837 C840 1.314 . S
N837 C841 1.279 . S
C838 C836 1.348 . S
C838 C840 1.353 . S
C838 H896 0.929 . S
C839 C836 1.356 . S
C839 C841 1.358 . S
C839 H897 0.930 . S
C840 N837 1.314 . S
C840 C838 1.353 . S
C840 H898 0.930 . S
C841 N837 1.279 . S
C841 C839 1.358 . S
C841 H899 0.930 . S
C842 C845 1.348 . S
C842 C846 1.356 . S
C842 O893 1.325 . S
C843 N844 1.279 . S
C843 C846 1.358 . S
C843 H900 0.930 . S
N844 C843 1.279 . S
N844 C847 1.314 . S
C845 C842 1.348 . S
C845 C847 1.353 . S
C845 H901 0.929 . S
C846 C842 1.356 . S
C846 C843 1.358 . S
C846 H902 0.930 . S
C847 N844 1.314 . S
C847 C845 1.353 . S
C847 H903 0.930 . S
C848 N849 1.314 . S
C848 C853 1.353 . S
C848 H854 0.930 . S
N849 Li832 1.990 . S
N849 C848 1.314 . S
N849 C851 1.279 . S
C850 C851 1.358 . S
C850 C852 1.356 . S
C850 H904 0.930 . S
C851 N849 1.279 . S
C851 C850 1.358 . S
C851 H855 0.930 . S
C852 C850 1.356 . S
C852 C853 1.348 . S
C853 C848 1.353 . S
C853 C852 1.348 . S
C853 H905 0.929 . S
H854 C848 0.930 . S
H855 C851 0.930 . S
C856 N857 1.314 . S
C856 C858 1.353 . S
C856 H862 0.930 . S
N857 Li833 1.990 . S
N857 C856 1.314 . S
N857 C860 1.279 . S
C858 C856 1.353 . S
C858 C861 1.348 . S
C858 H906 0.929 . S
C859 C860 1.358 . S
C859 C861 1.356 . S
C859 H907 0.930 . S
C860 N857 1.279 . S
C860 C859 1.358 . S
C860 H863 0.930 . S
C861 C858 1.348 . S
C861 C859 1.356 . S
H862 C856 0.930 . S
H863 C860 0.930 . S
C864 C866 1.348 . S
C864 C867 1.356 . S
C864 O894 1.325 . S
N865 C868 1.314 . S
N865 C869 1.279 . S
C866 C864 1.348 . S
C866 C868 1.353 . S
C866 H908 0.929 . S
C867 C864 1.356 . S
C867 C869 1.358 . S
C867 H909 0.930 . S
C868 N865 1.314 . S
C868 C866 1.353 . S
C868 H910 0.930 . S
C869 N865 1.279 . S
C869 C867 1.358 . S
C869 H911 0.930 . S
C870 C871 1.348 . S
C870 C872 1.356 . S
C870 O895 1.325 . S
C871 C870 1.348 . S
C871 C873 1.353 . S
C871 H912 0.929 . S
C872 C870 1.356 . S
C872 C874 1.358 . S
C872 H913 0.930 . S
C873 C871 1.353 . S
C873 N875 1.314 . S
C873 H914 0.930 . S
C874 C872 1.358 . S
C874 N875 1.279 . S
C874 H915 0.930 . S
N875 C873 1.314 . S
N875 C874 1.279 . S
C876 C878 1.353 . S
C876 N879 1.314 . S
C876 H882 0.930 . S
C877 N879 1.279 . S
C877 C880 1.358 . S
C877 H883 0.930 . S
C878 C876 1.353 . S
C878 C881 1.348 . S
C878 H916 0.929 . S
N879 Li834 1.990 . S
N879 C876 1.314 . S
N879 C877 1.279 . S
C880 C877 1.358 . S
C880 C881 1.356 . S
C880 H917 0.930 . S
C881 C878 1.348 . S
C881 C880 1.356 . S
H882 C876 0.930 . S
H883 C877 0.930 . S
C884 N885 1.314 . S
C884 C886 1.353 . S
C884 H890 0.930 . S
N885 Li835 1.990 . S
N885 C884 1.314 . S
N885 C888 1.279 . S
C886 C884 1.353 . S
C886 C889 1.348 . S
C886 H918 0.929 . S
C887 C888 1.358 . S
C887 C889 1.356 . S
C887 H919 0.930 . S
C888 N885 1.279 . S
C888 C887 1.358 . S
C888 H891 0.930 . S
C889 C886 1.348 . S
C889 C887 1.356 . S
H890 C884 0.930 . S
H891 C888 0.930 . S
O892 Li832 1.956 . S
O892 Li833 1.970 . S
O892 Li834 1.961 . S
O892 C836 1.325 . S
O893 Li832 1.970 . S
O893 Li833 1.956 . S
O893 Li835 1.961 . S
O893 C842 1.325 . S
O894 Li832 1.961 . S
O894 Li834 1.956 . S
O894 Li835 1.970 . S
O894 C864 1.325 . S
O895 Li833 1.961 . S
O895 Li834 1.970 . S
O895 Li835 1.956 . S
O895 C870 1.325 . S
H896 C838 0.929 . S
H897 C839 0.930 . S
H898 C840 0.930 . S
H899 C841 0.930 . S
H900 C843 0.930 . S
H901 C845 0.929 . S
H902 C846 0.930 . S
H903 C847 0.930 . S
H904 C850 0.930 . S
H905 C853 0.929 . S
H906 C858 0.929 . S
H907 C859 0.930 . S
H908 C866 0.929 . S
H909 C867 0.930 . S
H910 C868 0.930 . S
H911 C869 0.930 . S
H912 C871 0.929 . S
H913 C872 0.930 . S
H914 C873 0.930 . S
H915 C874 0.930 . S
H916 C878 0.929 . S
H917 C880 0.930 . S
H918 C886 0.929 . S
H919 C887 0.930 . S
Li920 N937 1.990 1_545 S
Li920 O980 1.956 . S
Li920 O981 1.970 . S
Li920 O982 1.961 . S
Li921 N945 1.990 . S
Li921 O980 1.970 . S
Li921 O981 1.956 . S
Li921 O983 1.961 . S
Li922 N967 1.990 . S
Li922 O980 1.961 . S
Li922 O982 1.956 . S
Li922 O983 1.970 . S
Li923 N973 1.990 . S
Li923 O981 1.961 . S
Li923 O982 1.970 . S
Li923 O983 1.956 . S
C924 C926 1.348 . S
C924 C927 1.356 . S
C924 O980 1.325 1_565 S
N925 C928 1.314 . S
N925 C929 1.279 . S
C926 C924 1.348 . S
C926 C928 1.353 . S
C926 H984 0.929 . S
C927 C924 1.356 . S
C927 C929 1.358 . S
C927 H985 0.930 . S
C928 N925 1.314 . S
C928 C926 1.353 . S
C928 H986 0.930 . S
C929 N925 1.279 . S
C929 C927 1.358 . S
C929 H987 0.930 . S
C930 C933 1.348 . S
C930 C934 1.356 . S
C930 O981 1.325 . S
C931 N932 1.279 . S
C931 C934 1.358 . S
C931 H988 0.930 . S
N932 C931 1.279 . S
N932 C935 1.314 . S
C933 C930 1.348 . S
C933 C935 1.353 . S
C933 H989 0.929 . S
C934 C930 1.356 . S
C934 C931 1.358 . S
C934 H990 0.930 . S
C935 N932 1.314 . S
C935 C933 1.353 . S
C935 H991 0.930 . S
C936 N937 1.314 . S
C936 C941 1.353 . S
C936 H942 0.930 . S
N937 Li920 1.990 1_565 S
N937 C936 1.314 . S
N937 C939 1.279 . S
C938 C939 1.358 . S
C938 C940 1.356 . S
C938 H992 0.930 . S
C939 N937 1.279 . S
C939 C938 1.358 . S
C939 H943 0.930 . S
C940 C938 1.356 . S
C940 C941 1.348 . S
C941 C936 1.353 . S
C941 C940 1.348 . S
C941 H993 0.929 . S
H942 C936 0.930 . S
H943 C939 0.930 . S
C944 N945 1.314 . S
C944 C946 1.353 . S
C944 H950 0.930 . S
N945 Li921 1.990 . S
N945 C944 1.314 . S
N945 C948 1.279 . S
C946 C944 1.353 . S
C946 C949 1.348 . S
C946 H994 0.929 . S
C947 C948 1.358 . S
C947 C949 1.356 . S
C947 H995 0.930 . S
C948 N945 1.279 . S
C948 C947 1.358 . S
C948 H951 0.930 . S
C949 C946 1.348 . S
C949 C947 1.356 . S
H950 C944 0.930 . S
H951 C948 0.930 . S
C952 C954 1.348 . S
C952 C955 1.356 1_545 S
C952 O982 1.325 . S
N953 C956 1.314 . S
N953 C957 1.279 1_545 S
C954 C952 1.348 . S
C954 C956 1.353 . S
C954 H996 0.929 . S
C955 C952 1.356 1_565 S
C955 C957 1.358 . S
C955 H997 0.930 . S
C956 N953 1.314 . S
C956 C954 1.353 . S
C956 H998 0.930 . S
C957 N953 1.279 1_565 S
C957 C955 1.358 . S
C957 H999 0.930 . S
C958 C959 1.348 . S
C958 C960 1.356 . S
C958 O983 1.325 . S
C959 C958 1.348 . S
C959 C961 1.353 . S
C959 H1000 0.929 . S
C960 C958 1.356 . S
C960 C962 1.358 . S
C960 H1001 0.930 . S
C961 C959 1.353 . S
C961 N963 1.314 . S
C961 H1002 0.930 . S
C962 C960 1.358 . S
C962 N963 1.279 . S
C962 H1003 0.930 . S
N963 C961 1.314 . S
N963 C962 1.279 . S
C964 C966 1.352 1_545 S
C964 N967 1.314 . S
C964 H970 0.930 . S
C965 N967 1.279 . S
C965 C968 1.358 . S
C965 H971 0.930 . S
C966 C964 1.352 1_565 S
C966 C969 1.343 1_565 S
C966 H1004 0.936 . S
N967 Li922 1.990 . S
N967 C964 1.314 . S
N967 C965 1.279 . S
C968 C965 1.358 . S
C968 C969 1.356 . S
C968 H1005 0.930 . S
C969 C966 1.343 1_545 S
C969 C968 1.356 . S
H970 C964 0.930 . S
H971 C965 0.930 . S
C972 N973 1.314 . S
C972 C974 1.353 . S
C972 H978 0.930 . S
N973 Li923 1.990 . S
N973 C972 1.314 . S
N973 C976 1.279 . S
C974 C972 1.353 . S
C974 C977 1.348 . S
C974 H1006 0.929 . S
C975 C976 1.358 . S
C975 C977 1.356 . S
C975 H1007 0.930 . S
C976 N973 1.279 . S
C976 C975 1.358 . S
C976 H979 0.930 . S
C977 C974 1.348 . S
C977 C975 1.356 . S
H978 C972 0.930 . S
H979 C976 0.930 . S
O980 Li920 1.956 . S
O980 Li921 1.970 . S
O980 Li922 1.961 . S
O980 C924 1.325 1_545 S
O981 Li920 1.970 . S
O981 Li921 1.956 . S
O981 Li923 1.961 . S
O981 C930 1.325 . S
O982 Li920 1.961 . S
O982 Li922 1.956 . S
O982 Li923 1.970 . S
O982 C952 1.325 . S
O983 Li921 1.961 . S
O983 Li922 1.970 . S
O983 Li923 1.956 . S
O983 C958 1.325 . S
H984 C926 0.929 . S
H985 C927 0.930 . S
H986 C928 0.930 . S
H987 C929 0.930 . S
H988 C931 0.930 . S
H989 C933 0.929 . S
H990 C934 0.930 . S
H991 C935 0.930 . S
H992 C938 0.930 . S
H993 C941 0.929 . S
H994 C946 0.929 . S
H995 C947 0.930 . S
H996 C954 0.929 . S
H997 C955 0.930 . S
H998 C956 0.930 . S
H999 C957 0.930 . S
H1000 C959 0.929 . S
H1001 C960 0.930 . S
H1002 C961 0.930 . S
H1003 C962 0.930 . S
H1004 C966 0.936 . S
H1005 C968 0.930 . S
H1006 C974 0.929 . S
H1007 C975 0.930 . S
Li1008 N1025 1.990 . S
Li1008 O1068 1.956 . S
Li1008 O1069 1.970 . S
Li1008 O1070 1.961 . S
Li1009 N1033 1.990 . S
Li1009 O1068 1.970 . S
Li1009 O1069 1.956 . S
Li1009 O1071 1.961 1_455 S
Li1010 N1055 1.990 . S
Li1010 O1068 1.961 . S
Li1010 O1070 1.956 . S
Li1010 O1071 1.970 1_455 S
Li1011 N1061 1.990 . S
Li1011 O1069 1.961 1_655 S
Li1011 O1070 1.970 1_655 S
Li1011 O1071 1.956 . S
C1012 C1014 1.348 . S
C1012 C1015 1.356 . S
C1012 O1068 1.325 . S
N1013 C1016 1.314 . S
N1013 C1017 1.279 . S
C1014 C1012 1.348 . S
C1014 C1016 1.353 . S
C1014 H1072 0.929 . S
C1015 C1012 1.356 . S
C1015 C1017 1.358 . S
C1015 H1073 0.930 . S
C1016 N1013 1.314 . S
C1016 C1014 1.353 . S
C1016 H1074 0.930 . S
C1017 N1013 1.279 . S
C1017 C1015 1.358 . S
C1017 H1075 0.930 . S
C1018 C1021 1.348 . S
C1018 C1022 1.356 1_455 S
C1018 O1069 1.325 . S
C1019 N1020 1.242 1_655 S
C1019 C1022 1.358 . S
C1019 H1076 0.930 . S
N1020 C1019 1.242 1_455 S
N1020 C1023 1.359 . S
C1021 C1018 1.348 . S
C1021 C1023 1.353 . S
C1021 H1077 0.929 . S
C1022 C1018 1.356 1_655 S
C1022 C1019 1.358 . S
C1022 H1078 0.930 . S
C1023 N1020 1.359 . S
C1023 C1021 1.353 . S
C1023 H1079 0.930 . S
C1024 N1025 1.314 . S
C1024 C1029 1.353 . S
C1024 H1030 0.930 . S
N1025 Li1008 1.990 . S
N1025 C1024 1.314 . S
N1025 C1027 1.279 . S
C1026 C1027 1.358 . S
C1026 C1028 1.356 . S
C1026 H1080 0.930 . S
C1027 N1025 1.279 . S
C1027 C1026 1.358 . S
C1027 H1031 0.930 . S
C1028 C1026 1.356 . S
C1028 C1029 1.348 . S
C1029 C1024 1.353 . S
C1029 C1028 1.348 . S
C1029 H1081 0.929 . S
H1030 C1024 0.930 . S
H1031 C1027 0.930 . S
C1032 N1033 1.314 1_655 S
C1032 C1034 1.353 . S
C1032 H1038 0.930 . S
N1033 Li1009 1.990 . S
N1033 C1032 1.314 1_455 S
N1033 C1036 1.279 . S
C1034 C1032 1.353 . S
C1034 C1037 1.348 1_655 S
C1034 H1082 0.929 . S
C1035 C1036 1.358 . S
C1035 C1037 1.356 . S
C1035 H1083 0.930 . S
C1036 N1033 1.279 . S
C1036 C1035 1.358 . S
C1036 H1039 0.930 . S
C1037 C1034 1.348 1_455 S
C1037 C1035 1.356 . S
H1038 C1032 0.930 . S
H1039 C1036 0.930 . S
C1040 C1042 1.348 1_455 S
C1040 C1043 1.356 . S
C1040 O1070 1.325 . S
N1041 C1044 1.314 1_455 S
N1041 C1045 1.279 . S
C1042 C1040 1.348 1_655 S
C1042 C1044 1.353 . S
C1042 H1084 0.929 . S
C1043 C1040 1.356 . S
C1043 C1045 1.358 . S
C1043 H1085 0.930 . S
C1044 N1041 1.314 1_655 S
C1044 C1042 1.353 . S
C1044 H1086 0.930 . S
C1045 N1041 1.279 . S
C1045 C1043 1.358 . S
C1045 H1087 0.930 . S
C1046 C1047 1.348 . S
C1046 C1048 1.356 . S
C1046 O1071 1.325 . S
C1047 C1046 1.348 . S
C1047 C1049 1.353 . S
C1047 H1088 0.929 . S
C1048 C1046 1.356 . S
C1048 C1050 1.358 . S
C1048 H1089 0.930 . S
C1049 C1047 1.353 . S
C1049 N1051 1.314 . S
C1049 H1090 0.930 . S
C1050 C1048 1.358 . S
C1050 N1051 1.279 . S
C1050 H1091 0.930 . S
N1051 C1049 1.314 . S
N1051 C1050 1.279 . S
C1052 C1054 1.353 . S
C1052 N1055 1.314 . S
C1052 H1058 0.930 . S
C1053 N1055 1.279 . S
C1053 C1056 1.358 . S
C1053 H1059 0.930 . S
C1054 C1052 1.353 . S
C1054 C1057 1.348 . S
C1054 H1092 0.929 . S
N1055 Li1010 1.990 . S
N1055 C1052 1.314 . S
N1055 C1053 1.279 . S
C1056 C1053 1.358 . S
C1056 C1057 1.356 . S
C1056 H1093 0.930 . S
C1057 C1054 1.348 . S
C1057 C1056 1.356 . S
H1058 C1052 0.930 . S
H1059 C1053 0.930 . S
C1060 N1061 1.314 . S
C1060 C1062 1.353 . S
C1060 H1066 0.930 . S
N1061 Li1011 1.990 . S
N1061 C1060 1.314 . S
N1061 C1064 1.279 . S
C1062 C1060 1.353 . S
C1062 C1065 1.348 . S
C1062 H1094 0.929 . S
C1063 C1064 1.358 . S
C1063 C1065 1.356 . S
C1063 H1095 0.930 . S
C1064 N1061 1.279 . S
C1064 C1063 1.358 . S
C1064 H1067 0.930 . S
C1065 C1062 1.348 . S
C1065 C1063 1.356 . S
H1066 C1060 0.930 . S
H1067 C1064 0.930 . S
O1068 Li1008 1.956 . S
O1068 Li1009 1.970 . S
O1068 Li1010 1.961 . S
O1068 C1012 1.325 . S
O1069 Li1008 1.970 . S
O1069 Li1009 1.956 . S
O1069 Li1011 1.961 1_455 S
O1069 C1018 1.325 . S
O1070 Li1008 1.961 . S
O1070 Li1010 1.956 . S
O1070 Li1011 1.970 1_455 S
O1070 C1040 1.325 . S
O1071 Li1009 1.961 1_655 S
O1071 Li1010 1.970 1_655 S
O1071 Li1011 1.956 . S
O1071 C1046 1.325 . S
H1072 C1014 0.929 . S
H1073 C1015 0.930 . S
H1074 C1016 0.930 . S
H1075 C1017 0.930 . S
H1076 C1019 0.930 . S
H1077 C1021 0.929 . S
H1078 C1022 0.930 . S
H1079 C1023 0.930 . S
H1080 C1026 0.930 . S
H1081 C1029 0.929 . S
H1082 C1034 0.929 . S
H1083 C1035 0.930 . S
H1084 C1042 0.929 . S
H1085 C1043 0.930 . S
H1086 C1044 0.930 . S
H1087 C1045 0.930 . S
H1088 C1047 0.929 . S
H1089 C1048 0.930 . S
H1090 C1049 0.930 . S
H1091 C1050 0.930 . S
H1092 C1054 0.929 . S
H1093 C1056 0.930 . S
H1094 C1062 0.929 . S
H1095 C1063 0.930 . S
Li1096 N1113 1.990 . S
Li1096 O1156 1.956 . S
Li1096 O1157 1.970 . S
Li1096 O1158 1.961 . S
Li1097 N1121 1.990 . S
Li1097 O1156 1.970 . S
Li1097 O1157 1.956 . S
Li1097 O1159 1.961 . S
Li1098 N1143 1.990 . S
Li1098 O1156 1.961 . S
Li1098 O1158 1.956 . S
Li1098 O1159 1.970 . S
Li1099 N1149 1.990 . S
Li1099 O1157 1.961 . S
Li1099 O1158 1.970 . S
Li1099 O1159 1.956 . S
C1100 C1102 1.348 . S
C1100 C1103 1.356 . S
C1100 O1156 1.325 . S
N1101 C1104 1.314 . S
N1101 C1105 1.279 . S
C1102 C1100 1.348 . S
C1102 C1104 1.353 . S
C1102 H1160 0.929 . S
C1103 C1100 1.356 . S
C1103 C1105 1.358 . S
C1103 H1161 0.930 . S
C1104 N1101 1.314 . S
C1104 C1102 1.353 . S
C1104 H1162 0.930 . S
C1105 N1101 1.279 . S
C1105 C1103 1.358 . S
C1105 H1163 0.930 . S
C1106 C1109 1.348 . S
C1106 C1110 1.356 . S
C1106 O1157 1.325 . S
C1107 N1108 1.279 . S
C1107 C1110 1.358 . S
C1107 H1164 0.930 . S
N1108 C1107 1.279 . S
N1108 C1111 1.314 . S
C1109 C1106 1.348 . S
C1109 C1111 1.353 . S
C1109 H1165 0.929 . S
C1110 C1106 1.356 . S
C1110 C1107 1.358 . S
C1110 H1166 0.930 . S
C1111 N1108 1.314 . S
C1111 C1109 1.353 . S
C1111 H1167 0.930 . S
C1112 N1113 1.314 . S
C1112 C1117 1.353 . S
C1112 H1118 0.930 . S
N1113 Li1096 1.990 . S
N1113 C1112 1.314 . S
N1113 C1115 1.279 . S
C1114 C1115 1.358 . S
C1114 C1116 1.356 . S
C1114 H1168 0.930 . S
C1115 N1113 1.279 . S
C1115 C1114 1.358 . S
C1115 H1119 0.930 . S
C1116 C1114 1.356 . S
C1116 C1117 1.348 . S
C1117 C1112 1.353 . S
C1117 C1116 1.348 . S
C1117 H1169 0.929 . S
H1118 C1112 0.930 . S
H1119 C1115 0.930 . S
C1120 N1121 1.314 . S
C1120 C1122 1.353 . S
C1120 H1126 0.930 . S
N1121 Li1097 1.990 . S
N1121 C1120 1.314 . S
N1121 C1124 1.279 . S
C1122 C1120 1.353 . S
C1122 C1125 1.348 . S
C1122 H1170 0.929 . S
C1123 C1124 1.358 . S
C1123 C1125 1.356 . S
C1123 H1171 0.930 . S
C1124 N1121 1.279 . S
C1124 C1123 1.358 . S
C1124 H1127 0.930 . S
C1125 C1122 1.348 . S
C1125 C1123 1.356 . S
H1126 C1120 0.930 . S
H1127 C1124 0.930 . S
C1128 C1130 1.348 . S
C1128 C1131 1.356 . S
C1128 O1158 1.325 . S
N1129 C1132 1.314 . S
N1129 C1133 1.279 . S
C1130 C1128 1.348 . S
C1130 C1132 1.353 . S
C1130 H1172 0.929 . S
C1131 C1128 1.356 . S
C1131 C1133 1.358 . S
C1131 H1173 0.930 . S
C1132 N1129 1.314 . S
C1132 C1130 1.353 . S
C1132 H1174 0.930 . S
C1133 N1129 1.279 . S
C1133 C1131 1.358 . S
C1133 H1175 0.930 . S
C1134 C1135 1.348 . S
C1134 C1136 1.356 . S
C1134 O1159 1.325 . S
C1135 C1134 1.348 . S
C1135 C1137 1.353 . S
C1135 H1176 0.929 . S
C1136 C1134 1.356 . S
C1136 C1138 1.358 . S
C1136 H1177 0.930 . S
C1137 C1135 1.353 . S
C1137 N1139 1.314 . S
C1137 H1178 0.930 . S
C1138 C1136 1.358 . S
C1138 N1139 1.279 . S
C1138 H1179 0.930 . S
N1139 C1137 1.314 . S
N1139 C1138 1.279 . S
C1140 C1142 1.353 . S
C1140 N1143 1.314 . S
C1140 H1146 0.930 . S
C1141 N1143 1.279 . S
C1141 C1144 1.358 . S
C1141 H1147 0.930 . S
C1142 C1140 1.353 . S
C1142 C1145 1.348 . S
C1142 H1180 0.929 . S
N1143 Li1098 1.990 . S
N1143 C1140 1.314 . S
N1143 C1141 1.279 . S
C1144 C1141 1.358 . S
C1144 C1145 1.356 . S
C1144 H1181 0.930 . S
C1145 C1142 1.348 . S
C1145 C1144 1.356 . S
H1146 C1140 0.930 . S
H1147 C1141 0.930 . S
C1148 N1149 1.314 . S
C1148 C1150 1.353 . S
C1148 H1154 0.930 . S
N1149 Li1099 1.990 . S
N1149 C1148 1.314 . S
N1149 C1152 1.279 . S
C1150 C1148 1.353 . S
C1150 C1153 1.348 . S
C1150 H1182 0.929 . S
C1151 C1152 1.358 . S
C1151 C1153 1.356 . S
C1151 H1183 0.930 . S
C1152 N1149 1.279 . S
C1152 C1151 1.358 . S
C1152 H1155 0.930 . S
C1153 C1150 1.348 . S
C1153 C1151 1.356 . S
H1154 C1148 0.930 . S
H1155 C1152 0.930 . S
O1156 Li1096 1.956 . S
O1156 Li1097 1.970 . S
O1156 Li1098 1.961 . S
O1156 C1100 1.325 . S
O1157 Li1096 1.970 . S
O1157 Li1097 1.956 . S
O1157 Li1099 1.961 . S
O1157 C1106 1.325 . S
O1158 Li1096 1.961 . S
O1158 Li1098 1.956 . S
O1158 Li1099 1.970 . S
O1158 C1128 1.325 . S
O1159 Li1097 1.961 . S
O1159 Li1098 1.970 . S
O1159 Li1099 1.956 . S
O1159 C1134 1.325 . S
H1160 C1102 0.929 . S
H1161 C1103 0.930 . S
H1162 C1104 0.930 . S
H1163 C1105 0.930 . S
H1164 C1107 0.930 . S
H1165 C1109 0.929 . S
H1166 C1110 0.930 . S
H1167 C1111 0.930 . S
H1168 C1114 0.930 . S
H1169 C1117 0.929 . S
H1170 C1122 0.929 . S
H1171 C1123 0.930 . S
H1172 C1130 0.929 . S
H1173 C1131 0.930 . S
H1174 C1132 0.930 . S
H1175 C1133 0.930 . S
H1176 C1135 0.929 . S
H1177 C1136 0.930 . S
H1178 C1137 0.930 . S
H1179 C1138 0.930 . S
H1180 C1142 0.929 . S
H1181 C1144 0.930 . S
H1182 C1150 0.929 . S
H1183 C1151 0.930 . S
Li1184 N1201 1.990 . S
Li1184 O1244 1.956 . S
Li1184 O1245 1.970 1_455 S
Li1184 O1246 1.961 . S
Li1185 N1209 1.990 . S
Li1185 O1244 1.970 1_655 S
Li1185 O1245 1.956 . S
Li1185 O1247 1.961 . S
Li1186 N1231 1.990 . S
Li1186 O1244 1.961 . S
Li1186 O1246 1.956 . S
Li1186 O1247 1.970 1_455 S
Li1187 N1237 1.990 . S
Li1187 O1245 1.961 . S
Li1187 O1246 1.970 1_655 S
Li1187 O1247 1.956 . S
C1188 C1190 1.348 1_455 S
C1188 C1191 1.356 . S
C1188 O1244 1.325 . S
N1189 C1192 1.320 . S
N1189 C1193 1.279 . S
C1190 C1188 1.348 1_655 S
C1190 C1192 1.352 1_655 S
C1190 H1248 0.929 . S
C1191 C1188 1.356 . S
C1191 C1193 1.358 . S
C1191 H1249 0.930 . S
C1192 N1189 1.320 . S
C1192 C1190 1.352 1_455 S
C1192 H1250 0.924 1_455 S
C1193 N1189 1.279 . S
C1193 C1191 1.358 . S
C1193 H1251 0.930 . S
C1194 C1197 1.348 . S
C1194 C1198 1.356 . S
C1194 O1245 1.325 . S
C1195 N1196 1.279 . S
C1195 C1198 1.358 . S
C1195 H1252 0.930 . S
N1196 C1195 1.279 . S
N1196 C1199 1.314 . S
C1197 C1194 1.348 . S
C1197 C1199 1.353 . S
C1197 H1253 0.929 . S
C1198 C1194 1.356 . S
C1198 C1195 1.358 . S
C1198 H1254 0.930 . S
C1199 N1196 1.314 . S
C1199 C1197 1.353 . S
C1199 H1255 0.930 . S
C1200 N1201 1.314 . S
C1200 C1205 1.353 . S
C1200 H1206 0.930 . S
N1201 Li1184 1.990 . S
N1201 C1200 1.314 . S
N1201 C1203 1.279 . S
C1202 C1203 1.358 . S
C1202 C1204 1.356 . S
C1202 H1256 0.930 . S
C1203 N1201 1.279 . S
C1203 C1202 1.358 . S
C1203 H1207 0.930 . S
C1204 C1202 1.356 . S
C1204 C1205 1.348 . S
C1205 C1200 1.353 . S
C1205 C1204 1.348 . S
C1205 H1257 0.929 . S
H1206 C1200 0.930 . S
H1207 C1203 0.930 . S
C1208 N1209 1.314 . S
C1208 C1210 1.353 . S
C1208 H1214 0.930 . S
N1209 Li1185 1.990 . S
N1209 C1208 1.314 . S
N1209 C1212 1.279 . S
C1210 C1208 1.353 . S
C1210 C1213 1.348 . S
C1210 H1258 0.929 . S
C1211 C1212 1.358 . S
C1211 C1213 1.356 . S
C1211 H1259 0.930 . S
C1212 N1209 1.279 . S
C1212 C1211 1.358 . S
C1212 H1215 0.930 . S
C1213 C1210 1.348 . S
C1213 C1211 1.356 . S
H1214 C1208 0.930 . S
H1215 C1212 0.930 . S
C1216 C1218 1.348 . S
C1216 C1219 1.356 . S
C1216 O1246 1.325 . S
N1217 C1220 1.314 . S
N1217 C1221 1.279 . S
C1218 C1216 1.348 . S
C1218 C1220 1.353 . S
C1218 H1260 0.929 . S
C1219 C1216 1.356 . S
C1219 C1221 1.358 . S
C1219 H1261 0.930 . S
C1220 N1217 1.314 . S
C1220 C1218 1.353 . S
C1220 H1262 0.930 . S
C1221 N1217 1.279 . S
C1221 C1219 1.358 . S
C1221 H1263 0.930 . S
C1222 C1223 1.348 1_655 S
C1222 C1224 1.356 . S
C1222 O1247 1.325 . S
C1223 C1222 1.348 1_455 S
C1223 C1225 1.353 1_455 S
C1223 H1264 0.929 . S
C1224 C1222 1.356 . S
C1224 C1226 1.358 . S
C1224 H1265 0.930 . S
C1225 C1223 1.353 1_655 S
C1225 N1227 1.314 . S
C1225 H1266 0.930 1_655 S
C1226 C1224 1.358 . S
C1226 N1227 1.279 . S
C1226 H1267 0.930 . S
N1227 C1225 1.314 . S
N1227 C1226 1.279 . S
C1228 C1230 1.353 . S
C1228 N1231 1.314 . S
C1228 H1234 0.930 . S
C1229 N1231 1.279 . S
C1229 C1232 1.358 . S
C1229 H1235 0.930 . S
C1230 C1228 1.353 . S
C1230 C1233 1.348 . S
C1230 H1268 0.929 . S
N1231 Li1186 1.990 . S
N1231 C1228 1.314 . S
N1231 C1229 1.279 . S
C1232 C1229 1.358 . S
C1232 C1233 1.356 . S
C1232 H1269 0.930 . S
C1233 C1230 1.348 . S
C1233 C1232 1.356 . S
H1234 C1228 0.930 . S
H1235 C1229 0.930 . S
C1236 N1237 1.314 . S
C1236 C1238 1.353 . S
C1236 H1242 0.930 . S
N1237 Li1187 1.990 . S
N1237 C1236 1.314 . S
N1237 C1240 1.279 . S
C1238 C1236 1.353 . S
C1238 C1241 1.348 . S
C1238 H1270 0.929 . S
C1239 C1240 1.358 . S
C1239 C1241 1.356 . S
C1239 H1271 0.930 . S
C1240 N1237 1.279 . S
C1240 C1239 1.358 . S
C1240 H1243 0.930 . S
C1241 C1238 1.348 . S
C1241 C1239 1.356 . S
H1242 C1236 0.930 . S
H1243 C1240 0.930 . S
O1244 Li1184 1.956 . S
O1244 Li1185 1.970 1_455 S
O1244 Li1186 1.961 . S
O1244 C1188 1.325 . S
O1245 Li1184 1.970 1_655 S
O1245 Li1185 1.956 . S
O1245 Li1187 1.961 . S
O1245 C1194 1.325 . S
O1246 Li1184 1.961 . S
O1246 Li1186 1.956 . S
O1246 Li1187 1.970 1_455 S
O1246 C1216 1.325 . S
O1247 Li1185 1.961 . S
O1247 Li1186 1.970 1_655 S
O1247 Li1187 1.956 . S
O1247 C1222 1.325 . S
H1248 C1190 0.929 . S
H1249 C1191 0.930 . S
H1250 C1192 0.924 1_655 S
H1251 C1193 0.930 . S
H1252 C1195 0.930 . S
H1253 C1197 0.929 . S
H1254 C1198 0.930 . S
H1255 C1199 0.930 . S
H1256 C1202 0.930 . S
H1257 C1205 0.929 . S
H1258 C1210 0.929 . S
H1259 C1211 0.930 . S
H1260 C1218 0.929 . S
H1261 C1219 0.930 . S
H1262 C1220 0.930 . S
H1263 C1221 0.930 . S
H1264 C1223 0.929 . S
H1265 C1224 0.930 . S
H1266 C1225 0.930 1_455 S
H1267 C1226 0.930 . S
H1268 C1230 0.929 . S
H1269 C1232 0.930 . S
H1270 C1238 0.929 . S
H1271 C1239 0.930 . S
Li1272 N1289 1.990 . S
Li1272 O1332 1.956 . S
Li1272 O1333 1.970 . S
Li1272 O1334 1.961 . S
Li1273 N1297 1.990 . S
Li1273 O1332 1.970 . S
Li1273 O1333 1.956 . S
Li1273 O1335 1.961 . S
Li1274 N1319 1.990 . S
Li1274 O1332 1.961 . S
Li1274 O1334 1.956 . S
Li1274 O1335 1.970 . S
Li1275 N1325 1.990 . S
Li1275 O1333 1.961 . S
Li1275 O1334 1.970 . S
Li1275 O1335 1.956 . S
C1276 C1278 1.348 . S
C1276 C1279 1.356 . S
C1276 O1332 1.325 . S
N1277 C1280 1.314 . S
N1277 C1281 1.279 . S
C1278 C1276 1.348 . S
C1278 C1280 1.353 . S
C1278 H1336 0.929 . S
C1279 C1276 1.356 . S
C1279 C1281 1.358 . S
C1279 H1337 0.930 . S
C1280 N1277 1.314 . S
C1280 C1278 1.353 . S
C1280 H1338 0.930 . S
C1281 N1277 1.279 . S
C1281 C1279 1.358 . S
C1281 H1339 0.930 . S
C1282 C1285 1.348 . S
C1282 C1286 1.356 . S
C1282 O1333 1.325 . S
C1283 N1284 1.279 . S
C1283 C1286 1.358 . S
C1283 H1340 0.930 . S
N1284 C1283 1.279 . S
N1284 C1287 1.314 . S
C1285 C1282 1.348 . S
C1285 C1287 1.353 . S
C1285 H1341 0.929 . S
C1286 C1282 1.356 . S
C1286 C1283 1.358 . S
C1286 H1342 0.930 . S
C1287 N1284 1.314 . S
C1287 C1285 1.353 . S
C1287 H1343 0.930 . S
C1288 N1289 1.314 . S
C1288 C1293 1.353 . S
C1288 H1294 0.930 . S
N1289 Li1272 1.990 . S
N1289 C1288 1.314 . S
N1289 C1291 1.279 . S
C1290 C1291 1.358 . S
C1290 C1292 1.356 . S
C1290 H1344 0.930 . S
C1291 N1289 1.279 . S
C1291 C1290 1.358 . S
C1291 H1295 0.930 . S
C1292 C1290 1.356 . S
C1292 C1293 1.348 . S
C1293 C1288 1.353 . S
C1293 C1292 1.348 . S
C1293 H1345 0.929 . S
H1294 C1288 0.930 . S
H1295 C1291 0.930 . S
C1296 N1297 1.314 . S
C1296 C1298 1.353 . S
C1296 H1302 0.930 . S
N1297 Li1273 1.990 . S
N1297 C1296 1.314 . S
N1297 C1300 1.279 . S
C1298 C1296 1.353 . S
C1298 C1301 1.348 . S
C1298 H1346 0.929 . S
C1299 C1300 1.358 . S
C1299 C1301 1.356 . S
C1299 H1347 0.930 . S
C1300 N1297 1.279 . S
C1300 C1299 1.358 . S
C1300 H1303 0.930 . S
C1301 C1298 1.348 . S
C1301 C1299 1.356 . S
H1302 C1296 0.930 . S
H1303 C1300 0.930 . S
C1304 C1306 1.348 . S
C1304 C1307 1.356 . S
C1304 O1334 1.325 . S
N1305 C1308 1.314 . S
N1305 C1309 1.279 . S
C1306 C1304 1.348 . S
C1306 C1308 1.353 . S
C1306 H1348 0.929 . S
C1307 C1304 1.356 . S
C1307 C1309 1.358 . S
C1307 H1349 0.930 . S
C1308 N1305 1.314 . S
C1308 C1306 1.353 . S
C1308 H1350 0.930 . S
C1309 N1305 1.279 . S
C1309 C1307 1.358 . S
C1309 H1351 0.930 . S
C1310 C1311 1.348 . S
C1310 C1312 1.356 . S
C1310 O1335 1.325 . S
C1311 C1310 1.348 . S
C1311 C1313 1.353 . S
C1311 H1352 0.929 . S
C1312 C1310 1.356 . S
C1312 C1314 1.358 . S
C1312 H1353 0.930 . S
C1313 C1311 1.353 . S
C1313 N1315 1.314 . S
C1313 H1354 0.930 . S
C1314 C1312 1.358 . S
C1314 N1315 1.279 . S
C1314 H1355 0.930 . S
N1315 C1313 1.314 . S
N1315 C1314 1.279 . S
C1316 C1318 1.353 . S
C1316 N1319 1.314 . S
C1316 H1322 0.930 . S
C1317 N1319 1.279 . S
C1317 C1320 1.358 . S
C1317 H1323 0.930 . S
C1318 C1316 1.353 . S
C1318 C1321 1.348 . S
C1318 H1356 0.929 . S
N1319 Li1274 1.990 . S
N1319 C1316 1.314 . S
N1319 C1317 1.279 . S
C1320 C1317 1.358 . S
C1320 C1321 1.356 . S
C1320 H1357 0.930 . S
C1321 C1318 1.348 . S
C1321 C1320 1.356 . S
H1322 C1316 0.930 . S
H1323 C1317 0.930 . S
C1324 N1325 1.314 . S
C1324 C1326 1.353 . S
C1324 H1330 0.930 . S
N1325 Li1275 1.990 . S
N1325 C1324 1.314 . S
N1325 C1328 1.279 . S
C1326 C1324 1.353 . S
C1326 C1329 1.348 . S
C1326 H1358 0.929 . S
C1327 C1328 1.358 . S
C1327 C1329 1.356 . S
C1327 H1359 0.930 . S
C1328 N1325 1.279 . S
C1328 C1327 1.358 . S
C1328 H1331 0.930 . S
C1329 C1326 1.348 . S
C1329 C1327 1.356 . S
H1330 C1324 0.930 . S
H1331 C1328 0.930 . S
O1332 Li1272 1.956 . S
O1332 Li1273 1.970 . S
O1332 Li1274 1.961 . S
O1332 C1276 1.325 . S
O1333 Li1272 1.970 . S
O1333 Li1273 1.956 . S
O1333 Li1275 1.961 . S
O1333 C1282 1.325 . S
O1334 Li1272 1.961 . S
O1334 Li1274 1.956 . S
O1334 Li1275 1.970 . S
O1334 C1304 1.325 . S
O1335 Li1273 1.961 . S
O1335 Li1274 1.970 . S
O1335 Li1275 1.956 . S
O1335 C1310 1.325 . S
H1336 C1278 0.929 . S
H1337 C1279 0.930 . S
H1338 C1280 0.930 . S
H1339 C1281 0.930 . S
H1340 C1283 0.930 . S
H1341 C1285 0.929 . S
H1342 C1286 0.930 . S
H1343 C1287 0.930 . S
H1344 C1290 0.930 . S
H1345 C1293 0.929 . S
H1346 C1298 0.929 . S
H1347 C1299 0.930 . S
H1348 C1306 0.929 . S
H1349 C1307 0.930 . S
H1350 C1308 0.930 . S
H1351 C1309 0.930 . S
H1352 C1311 0.929 . S
H1353 C1312 0.930 . S
H1354 C1313 0.930 . S
H1355 C1314 0.930 . S
H1356 C1318 0.929 . S
H1357 C1320 0.930 . S
H1358 C1326 0.929 . S
H1359 C1327 0.930 . S
H1360 C1368 0.950 . S
H1361 C1373 0.950 . S
H1362 C1370 0.950 . S
H1363 C1372 0.950 . S
H1364 C1374 0.950 . S
H1365 C1376 0.950 . S
H1366 C1378 0.950 . S
H1367 C1379 0.950 . S
C1368 H1360 0.950 . S
C1368 C1369 1.386 . S
C1368 C1370 1.391 . S
C1369 C1368 1.386 . S
C1369 C1373 1.393 . S
C1370 H1362 0.950 . S
C1370 C1368 1.391 . S
C1370 C1371 1.400 . S
C1371 C1370 1.400 . S
C1371 C1372 1.398 . S
C1371 C1377 1.491 . S
C1372 H1363 0.950 . S
C1372 C1371 1.398 . S
C1372 C1373 1.391 . S
C1373 H1361 0.950 . S
C1373 C1369 1.393 . S
C1373 C1372 1.391 . S
C1374 H1364 0.950 . S
C1374 C1375 1.386 . S
C1374 C1376 1.391 . S
C1375 C1374 1.386 . S
C1375 C1379 1.393 . S
C1376 H1365 0.950 . S
C1376 C1374 1.391 . S
C1376 C1377 1.400 . S
C1377 C1371 1.491 . S
C1377 C1376 1.400 . S
C1377 C1378 1.398 . S
C1378 H1366 0.950 . S
C1378 C1377 1.398 . S
C1378 C1379 1.391 . S
C1379 H1367 0.950 . S
C1379 C1375 1.393 . S
C1379 C1378 1.391 . S
H1380 C1388 0.950 . S
H1381 C1393 0.950 . S
H1382 C1390 0.950 . S
H1383 C1392 0.950 . S
H1384 C1394 0.950 . S
H1385 C1396 0.950 . S
H1386 C1398 0.950 . S
H1387 C1399 0.950 . S
C1388 H1380 0.950 . S
C1388 C1389 1.386 . S
C1388 C1390 1.391 . S
C1389 C1388 1.386 . S
C1389 C1393 1.393 . S
C1390 H1382 0.950 . S
C1390 C1388 1.391 . S
C1390 C1391 1.400 . S
C1391 C1390 1.400 . S
C1391 C1392 1.398 . S
C1391 C1397 1.491 . S
C1392 H1383 0.950 . S
C1392 C1391 1.398 . S
C1392 C1393 1.391 . S
C1393 H1381 0.950 . S
C1393 C1389 1.393 . S
C1393 C1392 1.391 . S
C1394 H1384 0.950 . S
C1394 C1395 1.386 . S
C1394 C1396 1.391 . S
C1395 C1394 1.386 . S
C1395 C1399 1.393 . S
C1396 H1385 0.950 . S
C1396 C1394 1.391 . S
C1396 C1397 1.400 . S
C1397 C1391 1.491 . S
C1397 C1396 1.400 . S
C1397 C1398 1.398 . S
C1398 H1386 0.950 . S
C1398 C1397 1.398 . S
C1398 C1399 1.391 . S
C1399 H1387 0.950 . S
C1399 C1395 1.393 . S
C1399 C1398 1.391 . S
H1400 C1408 0.950 . S
H1401 C1413 0.950 . S
H1402 C1410 0.950 . S
H1403 C1412 0.950 . S
H1404 C1414 0.950 . S
H1405 C1416 0.950 . S
H1406 C1418 0.950 . S
H1407 C1419 0.950 . S
C1408 H1400 0.950 . S
C1408 C1409 1.386 . S
C1408 C1410 1.391 . S
C1409 C1408 1.386 . S
C1409 C1413 1.393 . S
C1410 H1402 0.950 . S
C1410 C1408 1.391 . S
C1410 C1411 1.400 . S
C1411 C1410 1.400 . S
C1411 C1412 1.398 . S
C1411 C1417 1.491 . S
C1412 H1403 0.950 . S
C1412 C1411 1.398 . S
C1412 C1413 1.391 . S
C1413 H1401 0.950 . S
C1413 C1409 1.393 . S
C1413 C1412 1.391 . S
C1414 H1404 0.950 . S
C1414 C1415 1.386 . S
C1414 C1416 1.391 . S
C1415 C1414 1.386 . S
C1415 C1419 1.393 . S
C1416 H1405 0.950 . S
C1416 C1414 1.391 . S
C1416 C1417 1.400 . S
C1417 C1411 1.491 . S
C1417 C1416 1.400 . S
C1417 C1418 1.398 . S
C1418 H1406 0.950 . S
C1418 C1417 1.398 . S
C1418 C1419 1.391 . S
C1419 H1407 0.950 . S
C1419 C1415 1.393 . S
C1419 C1418 1.391 . S
H1420 C1428 0.950 . S
H1421 C1433 0.950 . S
H1422 C1430 0.950 . S
H1423 C1432 0.950 . S
H1424 C1434 0.950 . S
H1425 C1436 0.950 . S
H1426 C1438 0.950 . S
H1427 C1439 0.982 . S
C1428 H1420 0.950 . S
C1428 C1429 1.386 1_545 S
C1428 C1430 1.391 . S
C1429 C1428 1.386 1_565 S
C1429 C1433 1.393 . S
C1430 H1422 0.950 . S
C1430 C1428 1.391 . S
C1430 C1431 1.400 1_545 S
C1431 C1430 1.400 1_565 S
C1431 C1432 1.398 . S
C1431 C1437 1.499 . S
C1432 H1423 0.950 . S
C1432 C1431 1.398 . S
C1432 C1433 1.391 . S
C1433 H1421 0.950 . S
C1433 C1429 1.393 . S
C1433 C1432 1.391 . S
C1434 H1424 0.950 . S
C1434 C1435 1.386 1_565 S
C1434 C1436 1.391 . S
C1435 C1434 1.386 1_545 S
C1435 C1439 1.393 . S
C1436 H1425 0.950 . S
C1436 C1434 1.391 . S
C1436 C1437 1.410 . S
C1437 C1431 1.499 . S
C1437 C1436 1.410 . S
C1437 C1438 1.381 1_565 S
C1438 H1426 0.950 . S
C1438 C1437 1.381 1_545 S
C1438 C1439 1.391 . S
C1439 H1427 0.982 . S
C1439 C1435 1.393 . S
C1439 C1438 1.391 . S
H1440 C1448 0.950 . S
H1441 C1453 0.950 . S
H1442 C1450 0.950 . S
H1443 C1452 0.950 . S
H1444 C1454 0.950 . S
H1445 C1456 0.950 . S
H1446 C1458 0.950 . S
H1447 C1459 0.950 . S
C1448 H1440 0.950 . S
C1448 C1449 1.386 . S
C1448 C1450 1.391 . S
C1449 C1448 1.386 . S
C1449 C1453 1.393 . S
C1450 H1442 0.950 . S
C1450 C1448 1.391 . S
C1450 C1451 1.400 . S
C1451 C1450 1.400 . S
C1451 C1452 1.398 . S
C1451 C1457 1.491 . S
C1452 H1443 0.950 . S
C1452 C1451 1.398 . S
C1452 C1453 1.391 . S
C1453 H1441 0.950 . S
C1453 C1449 1.393 . S
C1453 C1452 1.391 . S
C1454 H1444 0.950 . S
C1454 C1455 1.386 . S
C1454 C1456 1.391 . S
C1455 C1454 1.386 . S
C1455 C1459 1.393 . S
C1456 H1445 0.950 . S
C1456 C1454 1.391 . S
C1456 C1457 1.400 . S
C1457 C1451 1.491 . S
C1457 C1456 1.400 . S
C1457 C1458 1.398 . S
C1458 H1446 0.950 . S
C1458 C1457 1.398 . S
C1458 C1459 1.391 . S
C1459 H1447 0.950 . S
C1459 C1455 1.393 . S
C1459 C1458 1.391 . S
H1460 C1468 0.950 . S
H1461 C1473 0.950 . S
H1462 C1470 0.950 . S
H1463 C1472 0.950 . S
H1464 C1474 0.950 . S
H1465 C1476 0.950 . S
H1466 C1478 0.950 . S
H1467 C1479 0.950 . S
C1468 H1460 0.950 . S
C1468 C1469 1.386 . S
C1468 C1470 1.391 . S
C1469 C1468 1.386 . S
C1469 C1473 1.393 . S
C1470 H1462 0.950 . S
C1470 C1468 1.391 . S
C1470 C1471 1.400 . S
C1471 C1470 1.400 . S
C1471 C1472 1.398 . S
C1471 C1477 1.491 . S
C1472 H1463 0.950 . S
C1472 C1471 1.398 . S
C1472 C1473 1.391 . S
C1473 H1461 0.950 . S
C1473 C1469 1.393 . S
C1473 C1472 1.391 . S
C1474 H1464 0.950 . S
C1474 C1475 1.386 . S
C1474 C1476 1.391 . S
C1475 C1474 1.386 . S
C1475 C1479 1.393 . S
C1476 H1465 0.950 . S
C1476 C1474 1.391 . S
C1476 C1477 1.400 . S
C1477 C1471 1.491 . S
C1477 C1476 1.400 . S
C1477 C1478 1.398 . S
C1478 H1466 0.950 . S
C1478 C1477 1.398 . S
C1478 C1479 1.391 . S
C1479 H1467 0.950 . S
C1479 C1475 1.393 . S
C1479 C1478 1.391 . S
H1480 C1488 0.950 . S
H1481 C1493 0.950 . S
H1482 C1490 0.950 . S
H1483 C1492 0.950 . S
H1484 C1494 0.950 . S
H1485 C1496 0.950 . S
H1486 C1498 0.950 . S
H1487 C1499 0.950 . S
C1488 H1480 0.950 . S
C1488 C1489 1.386 . S
C1488 C1490 1.391 . S
C1489 C1488 1.386 . S
C1489 C1493 1.393 . S
C1490 H1482 0.950 . S
C1490 C1488 1.391 . S
C1490 C1491 1.400 . S
C1491 C1490 1.400 . S
C1491 C1492 1.398 . S
C1491 C1497 1.491 . S
C1492 H1483 0.950 . S
C1492 C1491 1.398 . S
C1492 C1493 1.391 . S
C1493 H1481 0.950 . S
C1493 C1489 1.393 . S
C1493 C1492 1.391 . S
C1494 H1484 0.950 . S
C1494 C1495 1.386 . S
C1494 C1496 1.391 . S
C1495 C1494 1.386 . S
C1495 C1499 1.393 . S
C1496 H1485 0.950 . S
C1496 C1494 1.391 . S
C1496 C1497 1.400 . S
C1497 C1491 1.491 . S
C1497 C1496 1.400 . S
C1497 C1498 1.398 . S
C1498 H1486 0.950 . S
C1498 C1497 1.398 . S
C1498 C1499 1.391 . S
C1499 H1487 0.950 . S
C1499 C1495 1.393 . S
C1499 C1498 1.391 . S
H1500 C1508 0.950 . S
H1501 C1513 0.913 1_545 S
H1502 C1510 0.950 . S
H1503 C1512 0.950 . S
H1504 C1514 0.950 . S
H1505 C1516 0.950 . S
H1506 C1518 0.950 . S
H1507 C1519 0.950 . S
C1508 H1500 0.950 . S
C1508 C1509 1.386 . S
C1508 C1510 1.391 . S
C1509 C1508 1.386 . S
C1509 C1513 1.427 . S
C1510 H1502 0.950 . S
C1510 C1508 1.391 . S
C1510 C1511 1.400 . S
C1511 C1510 1.400 . S
C1511 C1512 1.398 1_565 S
C1511 C1517 1.491 . S
C1512 H1503 0.950 . S
C1512 C1511 1.398 1_545 S
C1512 C1513 1.396 1_545 S
C1513 H1501 0.913 1_565 S
C1513 C1509 1.427 . S
C1513 C1512 1.396 1_565 S
C1514 H1504 0.950 . S
C1514 C1515 1.386 1_545 S
C1514 C1516 1.391 . S
C1515 C1514 1.386 1_565 S
C1515 C1519 1.393 . S
C1516 H1505 0.950 . S
C1516 C1514 1.391 . S
C1516 C1517 1.400 1_545 S
C1517 C1511 1.491 . S
C1517 C1516 1.400 1_565 S
C1517 C1518 1.398 . S
C1518 H1506 0.950 . S
C1518 C1517 1.398 . S
C1518 C1519 1.391 . S
C1519 H1507 0.950 . S
C1519 C1515 1.393 . S
C1519 C1518 1.391 . S
H1520 C1528 0.950 . S
H1521 C1533 0.950 . S
H1522 C1530 0.950 . S
H1523 C1532 0.950 . S
H1524 C1534 0.950 . S
H1525 C1536 0.950 . S
H1526 C1538 0.950 . S
H1527 C1539 0.950 . S
C1528 H1520 0.950 . S
C1528 C1529 1.386 . S
C1528 C1530 1.391 . S
C1529 C1528 1.386 . S
C1529 C1533 1.393 . S
C1530 H1522 0.950 . S
C1530 C1528 1.391 . S
C1530 C1531 1.400 . S
C1531 C1530 1.400 . S
C1531 C1532 1.398 . S
C1531 C1537 1.491 . S
C1532 H1523 0.950 . S
C1532 C1531 1.398 . S
C1532 C1533 1.391 . S
C1533 H1521 0.950 . S
C1533 C1529 1.393 . S
C1533 C1532 1.391 . S
C1534 H1524 0.950 . S
C1534 C1535 1.386 . S
C1534 C1536 1.391 . S
C1535 C1534 1.386 . S
C1535 C1539 1.393 . S
C1536 H1525 0.950 . S
C1536 C1534 1.391 . S
C1536 C1537 1.400 . S
C1537 C1531 1.491 . S
C1537 C1536 1.400 . S
C1537 C1538 1.398 . S
C1538 H1526 0.950 . S
C1538 C1537 1.398 . S
C1538 C1539 1.391 . S
C1539 H1527 0.950 . S
C1539 C1535 1.393 . S
C1539 C1538 1.391 . S
H1540 C1548 0.950 . S
H1541 C1553 0.950 . S
H1542 C1550 0.950 . S
H1543 C1552 0.950 . S
H1544 C1554 0.950 . S
H1545 C1556 0.950 . S
H1546 C1558 0.950 . S
H1547 C1559 0.950 . S
C1548 H1540 0.950 . S
C1548 C1549 1.386 . S
C1548 C1550 1.391 . S
C1549 C1548 1.386 . S
C1549 C1553 1.393 . S
C1550 H1542 0.950 . S
C1550 C1548 1.391 . S
C1550 C1551 1.400 . S
C1551 C1550 1.400 . S
C1551 C1552 1.398 . S
C1551 C1557 1.491 . S
C1552 H1543 0.950 . S
C1552 C1551 1.398 . S
C1552 C1553 1.391 . S
C1553 H1541 0.950 . S
C1553 C1549 1.393 . S
C1553 C1552 1.391 . S
C1554 H1544 0.950 . S
C1554 C1555 1.386 . S
C1554 C1556 1.391 . S
C1555 C1554 1.386 . S
C1555 C1559 1.393 . S
C1556 H1545 0.950 . S
C1556 C1554 1.391 . S
C1556 C1557 1.400 . S
C1557 C1551 1.491 . S
C1557 C1556 1.400 . S
C1557 C1558 1.398 . S
C1558 H1546 0.950 . S
C1558 C1557 1.398 . S
C1558 C1559 1.391 . S
C1559 H1547 0.950 . S
C1559 C1555 1.393 . S
C1559 C1558 1.391 . S
H1560 C1568 0.950 . S
H1561 C1573 0.950 . S
H1562 C1570 0.950 . S
H1563 C1572 0.950 . S
H1564 C1574 0.950 . S
H1565 C1576 0.950 . S
H1566 C1578 0.950 . S
H1567 C1579 0.950 . S
C1568 H1560 0.950 . S
C1568 C1569 1.386 . S
C1568 C1570 1.391 . S
C1569 C1568 1.386 . S
C1569 C1573 1.393 . S
C1570 H1562 0.950 . S
C1570 C1568 1.391 . S
C1570 C1571 1.400 . S
C1571 C1570 1.400 . S
C1571 C1572 1.398 . S
C1571 C1577 1.491 . S
C1572 H1563 0.950 . S
C1572 C1571 1.398 . S
C1572 C1573 1.391 . S
C1573 H1561 0.950 . S
C1573 C1569 1.393 . S
C1573 C1572 1.391 . S
C1574 H1564 0.950 . S
C1574 C1575 1.386 . S
C1574 C1576 1.391 . S
C1575 C1574 1.386 . S
C1575 C1579 1.393 . S
C1576 H1565 0.950 . S
C1576 C1574 1.391 . S
C1576 C1577 1.400 . S
C1577 C1571 1.491 . S
C1577 C1576 1.400 . S
C1577 C1578 1.398 . S
C1578 H1566 0.950 . S
C1578 C1577 1.398 . S
C1578 C1579 1.391 . S
C1579 H1567 0.950 . S
C1579 C1575 1.393 . S
C1579 C1578 1.391 . S
H1580 C1588 0.950 . S
H1581 C1593 0.950 . S
H1582 C1590 0.950 . S
H1583 C1592 0.950 . S
H1584 C1594 0.950 . S
H1585 C1596 0.950 . S
H1586 C1598 0.950 . S
H1587 C1599 0.950 . S
C1588 H1580 0.950 . S
C1588 C1589 1.386 . S
C1588 C1590 1.391 . S
C1589 C1588 1.386 . S
C1589 C1593 1.393 . S
C1590 H1582 0.950 . S
C1590 C1588 1.391 . S
C1590 C1591 1.400 . S
C1591 C1590 1.400 . S
C1591 C1592 1.398 . S
C1591 C1597 1.491 . S
C1592 H1583 0.950 . S
C1592 C1591 1.398 . S
C1592 C1593 1.391 . S
C1593 H1581 0.950 . S
C1593 C1589 1.393 . S
C1593 C1592 1.391 . S
C1594 H1584 0.950 . S
C1594 C1595 1.386 . S
C1594 C1596 1.391 . S
C1595 C1594 1.386 . S
C1595 C1599 1.393 . S
C1596 H1585 0.950 . S
C1596 C1594 1.391 . S
C1596 C1597 1.400 . S
C1597 C1591 1.491 . S
C1597 C1596 1.400 . S
C1597 C1598 1.398 . S
C1598 H1586 0.950 . S
C1598 C1597 1.398 . S
C1598 C1599 1.391 . S
C1599 H1587 0.950 . S
C1599 C1595 1.393 . S
C1599 C1598 1.391 . S
H1600 C1608 0.950 . S
H1601 C1613 0.950 . S
H1602 C1610 0.950 . S
H1603 C1612 0.950 . S
H1604 C1614 0.950 . S
H1605 C1616 0.950 . S
H1606 C1618 0.950 . S
H1607 C1619 0.950 . S
C1608 H1600 0.950 . S
C1608 C1609 1.386 . S
C1608 C1610 1.391 . S
C1609 C1608 1.386 . S
C1609 C1613 1.393 . S
C1610 H1602 0.950 . S
C1610 C1608 1.391 . S
C1610 C1611 1.400 . S
C1611 C1610 1.400 . S
C1611 C1612 1.398 . S
C1611 C1617 1.491 . S
C1612 H1603 0.950 . S
C1612 C1611 1.398 . S
C1612 C1613 1.391 . S
C1613 H1601 0.950 . S
C1613 C1609 1.393 . S
C1613 C1612 1.391 . S
C1614 H1604 0.950 . S
C1614 C1615 1.386 . S
C1614 C1616 1.391 . S
C1615 C1614 1.386 . S
C1615 C1619 1.393 . S
C1616 H1605 0.950 . S
C1616 C1614 1.391 . S
C1616 C1617 1.400 . S
C1617 C1611 1.491 . S
C1617 C1616 1.400 . S
C1617 C1618 1.398 . S
C1618 H1606 0.950 . S
C1618 C1617 1.398 . S
C1618 C1619 1.391 . S
C1619 H1607 0.950 . S
C1619 C1615 1.393 . S
C1619 C1618 1.391 . S
H1620 C1628 0.950 . S
H1621 C1633 0.950 . S
H1622 C1630 0.950 . S
H1623 C1632 0.950 . S
H1624 C1634 0.950 . S
H1625 C1636 0.950 . S
H1626 C1638 0.950 . S
H1627 C1639 0.950 . S
C1628 H1620 0.950 . S
C1628 C1629 1.386 . S
C1628 C1630 1.391 . S
C1629 C1628 1.386 . S
C1629 C1633 1.393 . S
C1630 H1622 0.950 . S
C1630 C1628 1.391 . S
C1630 C1631 1.400 . S
C1631 C1630 1.400 . S
C1631 C1632 1.398 . S
C1631 C1637 1.491 . S
C1632 H1623 0.950 . S
C1632 C1631 1.398 . S
C1632 C1633 1.391 . S
C1633 H1621 0.950 . S
C1633 C1629 1.393 . S
C1633 C1632 1.391 . S
C1634 H1624 0.950 . S
C1634 C1635 1.386 . S
C1634 C1636 1.391 . S
C1635 C1634 1.386 . S
C1635 C1639 1.393 . S
C1636 H1625 0.950 . S
C1636 C1634 1.391 . S
C1636 C1637 1.400 . S
C1637 C1631 1.491 . S
C1637 C1636 1.400 . S
C1637 C1638 1.398 . S
C1638 H1626 0.950 . S
C1638 C1637 1.398 . S
C1638 C1639 1.391 . S
C1639 H1627 0.950 . S
C1639 C1635 1.393 . S
C1639 C1638 1.391 . S
H1640 C1648 0.950 . S
H1641 C1653 0.950 . S
H1642 C1650 0.950 . S
H1643 C1652 0.950 . S
H1644 C1654 0.950 . S
H1645 C1656 0.950 . S
H1646 C1658 0.950 . S
H1647 C1659 0.950 . S
C1648 H1640 0.950 . S
C1648 C1649 1.386 . S
C1648 C1650 1.391 . S
C1649 C1648 1.386 . S
C1649 C1653 1.393 . S
C1650 H1642 0.950 . S
C1650 C1648 1.391 . S
C1650 C1651 1.400 . S
C1651 C1650 1.400 . S
C1651 C1652 1.398 . S
C1651 C1657 1.491 . S
C1652 H1643 0.950 . S
C1652 C1651 1.398 . S
C1652 C1653 1.391 . S
C1653 H1641 0.950 . S
C1653 C1649 1.393 . S
C1653 C1652 1.391 . S
C1654 H1644 0.950 . S
C1654 C1655 1.386 . S
C1654 C1656 1.391 . S
C1655 C1654 1.386 . S
C1655 C1659 1.393 . S
C1656 H1645 0.950 . S
C1656 C1654 1.391 . S
C1656 C1657 1.400 . S
C1657 C1651 1.491 . S
C1657 C1656 1.400 . S
C1657 C1658 1.398 . S
C1658 H1646 0.950 . S
C1658 C1657 1.398 . S
C1658 C1659 1.391 . S
C1659 H1647 0.950 . S
C1659 C1655 1.393 . S
C1659 C1658 1.391 . S
H1660 C1668 0.950 . S
H1661 C1673 0.950 . S
H1662 C1670 0.950 . S
H1663 C1672 0.950 . S
H1664 C1674 0.950 . S
H1665 C1676 0.950 . S
H1666 C1678 0.950 . S
H1667 C1679 0.950 . S
C1668 H1660 0.950 . S
C1668 C1669 1.386 . S
C1668 C1670 1.391 . S
C1669 C1668 1.386 . S
C1669 C1673 1.393 . S
C1670 H1662 0.950 . S
C1670 C1668 1.391 . S
C1670 C1671 1.400 . S
C1671 C1670 1.400 . S
C1671 C1672 1.398 . S
C1671 C1677 1.491 . S
C1672 H1663 0.950 . S
C1672 C1671 1.398 . S
C1672 C1673 1.391 . S
C1673 H1661 0.950 . S
C1673 C1669 1.393 . S
C1673 C1672 1.391 . S
C1674 H1664 0.950 . S
C1674 C1675 1.386 . S
C1674 C1676 1.391 . S
C1675 C1674 1.386 . S
C1675 C1679 1.393 . S
C1676 H1665 0.950 . S
C1676 C1674 1.391 . S
C1676 C1677 1.400 . S
C1677 C1671 1.491 . S
C1677 C1676 1.400 . S
C1677 C1678 1.398 . S
C1678 H1666 0.950 . S
C1678 C1677 1.398 . S
C1678 C1679 1.391 . S
C1679 H1667 0.950 . S
C1679 C1675 1.393 . S
C1679 C1678 1.391 . S
H1680 C1688 0.950 . S
H1681 C1693 0.950 . S
H1682 C1690 0.950 . S
H1683 C1692 0.950 . S
H1684 C1694 0.950 . S
H1685 C1696 0.950 . S
H1686 C1698 0.950 . S
H1687 C1699 0.950 . S
C1688 H1680 0.950 . S
C1688 C1689 1.386 . S
C1688 C1690 1.391 . S
C1689 C1688 1.386 . S
C1689 C1693 1.393 . S
C1690 H1682 0.950 . S
C1690 C1688 1.391 . S
C1690 C1691 1.400 . S
C1691 C1690 1.400 . S
C1691 C1692 1.398 . S
C1691 C1697 1.491 . S
C1692 H1683 0.950 . S
C1692 C1691 1.398 . S
C1692 C1693 1.391 . S
C1693 H1681 0.950 . S
C1693 C1689 1.393 . S
C1693 C1692 1.391 . S
C1694 H1684 0.950 . S
C1694 C1695 1.386 . S
C1694 C1696 1.391 . S
C1695 C1694 1.386 . S
C1695 C1699 1.393 . S
C1696 H1685 0.950 . S
C1696 C1694 1.391 . S
C1696 C1697 1.400 . S
C1697 C1691 1.491 . S
C1697 C1696 1.400 . S
C1697 C1698 1.398 . S
C1698 H1686 0.950 . S
C1698 C1697 1.398 . S
C1698 C1699 1.391 . S
C1699 H1687 0.950 . S
C1699 C1695 1.393 . S
C1699 C1698 1.391 . S
H1700 C1708 0.950 . S
H1701 C1713 0.950 . S
H1702 C1710 0.950 . S
H1703 C1712 0.950 . S
H1704 C1714 0.950 . S
H1705 C1716 0.950 . S
H1706 C1718 0.950 . S
H1707 C1719 0.950 . S
C1708 H1700 0.950 . S
C1708 C1709 1.386 . S
C1708 C1710 1.391 . S
C1709 C1708 1.386 . S
C1709 C1713 1.393 . S
C1710 H1702 0.950 . S
C1710 C1708 1.391 . S
C1710 C1711 1.400 . S
C1711 C1710 1.400 . S
C1711 C1712 1.398 . S
C1711 C1717 1.491 . S
C1712 H1703 0.950 . S
C1712 C1711 1.398 . S
C1712 C1713 1.391 . S
C1713 H1701 0.950 . S
C1713 C1709 1.393 . S
C1713 C1712 1.391 . S
C1714 H1704 0.950 . S
C1714 C1715 1.386 . S
C1714 C1716 1.391 . S
C1715 C1714 1.386 . S
C1715 C1719 1.393 . S
C1716 H1705 0.950 . S
C1716 C1714 1.391 . S
C1716 C1717 1.400 . S
C1717 C1711 1.491 . S
C1717 C1716 1.400 . S
C1717 C1718 1.398 . S
C1718 H1706 0.950 . S
C1718 C1717 1.398 . S
C1718 C1719 1.391 . S
C1719 H1707 0.950 . S
C1719 C1715 1.393 . S
C1719 C1718 1.391 . S
H1720 C1728 0.950 1_554 S
H1721 C1733 0.951 . S
H1722 C1730 0.950 . S
H1723 C1732 0.950 . S
H1724 C1734 0.968 . S
H1725 C1736 0.950 . S
H1726 C1738 0.950 . S
H1727 C1739 0.950 . S
C1728 H1720 0.950 1_556 S
C1728 C1729 1.386 . S
C1728 C1730 1.391 1_556 S
C1729 C1728 1.386 . S
C1729 C1733 1.393 . S
C1730 H1722 0.950 . S
C1730 C1728 1.391 1_554 S
C1730 C1731 1.400 1_544 S
C1731 C1730 1.400 1_566 S
C1731 C1732 1.398 . S
C1731 C1737 1.491 1_556 S
C1732 H1723 0.950 . S
C1732 C1731 1.398 . S
C1732 C1733 1.391 1_565 S
C1733 H1721 0.951 . S
C1733 C1729 1.393 . S
C1733 C1732 1.391 1_545 S
C1734 H1724 0.968 . S
C1734 C1735 1.346 1_556 S
C1734 C1736 1.414 . S
C1735 C1734 1.346 1_554 S
C1735 C1739 1.393 . S
C1736 H1725 0.950 . S
C1736 C1734 1.414 . S
C1736 C1737 1.400 1_556 S
C1737 C1731 1.491 1_554 S
C1737 C1736 1.400 1_554 S
C1737 C1738 1.398 . S
C1738 H1726 0.950 . S
C1738 C1737 1.398 . S
C1738 C1739 1.391 . S
C1739 H1727 0.950 . S
C1739 C1735 1.393 . S
C1739 C1738 1.391 . S
H1740 C1748 0.950 . S
H1741 C1753 0.950 . S
H1742 C1750 0.950 . S
H1743 C1752 0.950 . S
H1744 C1754 0.950 . S
H1745 C1756 0.950 . S
H1746 C1758 0.950 . S
H1747 C1759 0.950 . S
C1748 H1740 0.950 . S
C1748 C1749 1.386 . S
C1748 C1750 1.391 . S
C1749 C1748 1.386 . S
C1749 C1753 1.393 . S
C1750 H1742 0.950 . S
C1750 C1748 1.391 . S
C1750 C1751 1.400 . S
C1751 C1750 1.400 . S
C1751 C1752 1.398 . S
C1751 C1757 1.491 . S
C1752 H1743 0.950 . S
C1752 C1751 1.398 . S
C1752 C1753 1.391 . S
C1753 H1741 0.950 . S
C1753 C1749 1.393 . S
C1753 C1752 1.391 . S
C1754 H1744 0.950 . S
C1754 C1755 1.386 . S
C1754 C1756 1.391 . S
C1755 C1754 1.386 . S
C1755 C1759 1.393 . S
C1756 H1745 0.950 . S
C1756 C1754 1.391 . S
C1756 C1757 1.400 . S
C1757 C1751 1.491 . S
C1757 C1756 1.400 . S
C1757 C1758 1.398 . S
C1758 H1746 0.950 . S
C1758 C1757 1.398 . S
C1758 C1759 1.391 . S
C1759 H1747 0.950 . S
C1759 C1755 1.393 . S
C1759 C1758 1.391 . S
H1760 C1768 0.950 . S
H1761 C1773 0.950 . S
H1762 C1770 0.950 . S
H1763 C1772 0.950 . S
H1764 C1774 0.950 . S
H1765 C1776 0.950 . S
H1766 C1778 0.950 . S
H1767 C1779 0.950 . S
C1768 H1760 0.950 . S
C1768 C1769 1.386 1_565 S
C1768 C1770 1.391 1_565 S
C1769 C1768 1.386 1_545 S
C1769 C1773 1.393 . S
C1770 H1762 0.950 . S
C1770 C1768 1.391 1_545 S
C1770 C1771 1.400 . S
C1771 C1770 1.400 . S
C1771 C1772 1.398 . S
C1771 C1777 1.491 . S
C1772 H1763 0.950 . S
C1772 C1771 1.398 . S
C1772 C1773 1.391 . S
C1773 H1761 0.950 . S
C1773 C1769 1.393 . S
C1773 C1772 1.391 . S
C1774 H1764 0.950 . S
C1774 C1775 1.386 . S
C1774 C1776 1.391 . S
C1775 C1774 1.386 . S
C1775 C1779 1.393 . S
C1776 H1765 0.950 . S
C1776 C1774 1.391 . S
C1776 C1777 1.400 . S
C1777 C1771 1.491 . S
C1777 C1776 1.400 . S
C1777 C1778 1.398 . S
C1778 H1766 0.950 . S
C1778 C1777 1.398 . S
C1778 C1779 1.391 . S
C1779 H1767 0.950 . S
C1779 C1775 1.393 . S
C1779 C1778 1.391 . S
H1780 C1788 0.950 . S
H1781 C1793 0.950 . S
H1782 C1790 0.950 . S
H1783 C1792 0.950 . S
H1784 C1794 0.950 . S
H1785 C1796 0.950 . S
H1786 C1798 0.950 . S
H1787 C1799 0.950 . S
C1788 H1780 0.950 . S
C1788 C1789 1.386 . S
C1788 C1790 1.391 . S
C1789 C1788 1.386 . S
C1789 C1793 1.393 . S
C1790 H1782 0.950 . S
C1790 C1788 1.391 . S
C1790 C1791 1.400 . S
C1791 C1790 1.400 . S
C1791 C1792 1.398 . S
C1791 C1797 1.491 . S
C1792 H1783 0.950 . S
C1792 C1791 1.398 . S
C1792 C1793 1.391 . S
C1793 H1781 0.950 . S
C1793 C1789 1.393 . S
C1793 C1792 1.391 . S
C1794 H1784 0.950 . S
C1794 C1795 1.386 . S
C1794 C1796 1.391 . S
C1795 C1794 1.386 . S
C1795 C1799 1.393 . S
C1796 H1785 0.950 . S
C1796 C1794 1.391 . S
C1796 C1797 1.400 . S
C1797 C1791 1.491 . S
C1797 C1796 1.400 . S
C1797 C1798 1.398 . S
C1798 H1786 0.950 . S
C1798 C1797 1.398 . S
C1798 C1799 1.391 . S
C1799 H1787 0.950 . S
C1799 C1795 1.393 . S
C1799 C1798 1.391 . S
H1800 C1808 0.950 . S
H1801 C1813 0.950 . S
H1802 C1810 0.950 . S
H1803 C1812 0.950 . S
H1804 C1814 0.950 . S
H1805 C1816 0.950 . S
H1806 C1818 0.950 . S
H1807 C1819 0.950 . S
C1808 H1800 0.950 . S
C1808 C1809 1.386 . S
C1808 C1810 1.391 . S
C1809 C1808 1.386 . S
C1809 C1813 1.393 . S
C1810 H1802 0.950 . S
C1810 C1808 1.391 . S
C1810 C1811 1.400 . S
C1811 C1810 1.400 . S
C1811 C1812 1.398 . S
C1811 C1817 1.491 . S
C1812 H1803 0.950 . S
C1812 C1811 1.398 . S
C1812 C1813 1.391 . S
C1813 H1801 0.950 . S
C1813 C1809 1.393 . S
C1813 C1812 1.391 . S
C1814 H1804 0.950 . S
C1814 C1815 1.386 . S
C1814 C1816 1.391 . S
C1815 C1814 1.386 . S
C1815 C1819 1.393 . S
C1816 H1805 0.950 . S
C1816 C1814 1.391 . S
C1816 C1817 1.400 . S
C1817 C1811 1.491 . S
C1817 C1816 1.400 . S
C1817 C1818 1.398 . S
C1818 H1806 0.950 . S
C1818 C1817 1.398 . S
C1818 C1819 1.391 . S
C1819 H1807 0.950 . S
C1819 C1815 1.393 . S
C1819 C1818 1.391 . S
H1820 C1828 0.950 . S
H1821 C1833 0.950 . S
H1822 C1830 0.950 . S
H1823 C1832 0.950 . S
H1824 C1834 0.950 . S
H1825 C1836 0.950 . S
H1826 C1838 0.950 . S
H1827 C1839 0.950 . S
C1828 H1820 0.950 . S
C1828 C1829 1.386 . S
C1828 C1830 1.391 . S
C1829 C1828 1.386 . S
C1829 C1833 1.393 . S
C1830 H1822 0.950 . S
C1830 C1828 1.391 . S
C1830 C1831 1.400 . S
C1831 C1830 1.400 . S
C1831 C1832 1.398 . S
C1831 C1837 1.491 . S
C1832 H1823 0.950 . S
C1832 C1831 1.398 . S
C1832 C1833 1.391 . S
C1833 H1821 0.950 . S
C1833 C1829 1.393 . S
C1833 C1832 1.391 . S
C1834 H1824 0.950 . S
C1834 C1835 1.386 . S
C1834 C1836 1.391 . S
C1835 C1834 1.386 . S
C1835 C1839 1.393 . S
C1836 H1825 0.950 . S
C1836 C1834 1.391 . S
C1836 C1837 1.400 . S
C1837 C1831 1.491 . S
C1837 C1836 1.400 . S
C1837 C1838 1.398 . S
C1838 H1826 0.950 . S
C1838 C1837 1.398 . S
C1838 C1839 1.391 . S
C1839 H1827 0.950 . S
C1839 C1835 1.393 . S
C1839 C1838 1.391 . S
H1840 C1848 0.950 . S
H1841 C1853 0.950 . S
H1842 C1850 0.950 . S
H1843 C1852 0.950 . S
H1844 C1854 0.950 . S
H1845 C1856 0.950 . S
H1846 C1858 0.950 . S
H1847 C1859 0.950 . S
C1848 H1840 0.950 . S
C1848 C1849 1.386 . S
C1848 C1850 1.391 . S
C1849 C1848 1.386 . S
C1849 C1853 1.393 . S
C1850 H1842 0.950 . S
C1850 C1848 1.391 . S
C1850 C1851 1.400 . S
C1851 C1850 1.400 . S
C1851 C1852 1.398 . S
C1851 C1857 1.491 . S
C1852 H1843 0.950 . S
C1852 C1851 1.398 . S
C1852 C1853 1.391 . S
C1853 H1841 0.950 . S
C1853 C1849 1.393 . S
C1853 C1852 1.391 . S
C1854 H1844 0.950 . S
C1854 C1855 1.386 . S
C1854 C1856 1.391 . S
C1855 C1854 1.386 . S
C1855 C1859 1.393 . S
C1856 H1845 0.950 . S
C1856 C1854 1.391 . S
C1856 C1857 1.400 . S
C1857 C1851 1.491 . S
C1857 C1856 1.400 . S
C1857 C1858 1.398 . S
C1858 H1846 0.950 . S
C1858 C1857 1.398 . S
C1858 C1859 1.391 . S
C1859 H1847 0.950 . S
C1859 C1855 1.393 . S
C1859 C1858 1.391 . S
H1860 C1868 0.950 . S
H1861 C1873 0.950 . S
H1862 C1870 0.950 . S
H1863 C1872 0.950 . S
H1864 C1874 0.950 . S
H1865 C1876 0.950 . S
H1866 C1878 0.950 . S
H1867 C1879 0.950 . S
C1868 H1860 0.950 . S
C1868 C1869 1.386 . S
C1868 C1870 1.391 . S
C1869 C1868 1.386 . S
C1869 C1873 1.393 . S
C1870 H1862 0.950 . S
C1870 C1868 1.391 . S
C1870 C1871 1.400 . S
C1871 C1870 1.400 . S
C1871 C1872 1.398 . S
C1871 C1877 1.491 . S
C1872 H1863 0.950 . S
C1872 C1871 1.398 . S
C1872 C1873 1.391 . S
C1873 H1861 0.950 . S
C1873 C1869 1.393 . S
C1873 C1872 1.391 . S
C1874 H1864 0.950 . S
C1874 C1875 1.386 . S
C1874 C1876 1.391 . S
C1875 C1874 1.386 . S
C1875 C1879 1.393 . S
C1876 H1865 0.950 . S
C1876 C1874 1.391 . S
C1876 C1877 1.400 . S
C1877 C1871 1.491 . S
C1877 C1876 1.400 . S
C1877 C1878 1.398 . S
C1878 H1866 0.950 . S
C1878 C1877 1.398 . S
C1878 C1879 1.391 . S
C1879 H1867 0.950 . S
C1879 C1875 1.393 . S
C1879 C1878 1.391 . S
H1880 C1888 0.950 . S
H1881 C1893 0.950 . S
H1882 C1890 0.950 . S
H1883 C1892 0.950 . S
H1884 C1894 0.950 . S
H1885 C1896 0.950 . S
H1886 C1898 0.950 . S
H1887 C1899 0.950 . S
C1888 H1880 0.950 . S
C1888 C1889 1.386 . S
C1888 C1890 1.391 . S
C1889 C1888 1.386 . S
C1889 C1893 1.393 . S
C1890 H1882 0.950 . S
C1890 C1888 1.391 . S
C1890 C1891 1.400 . S
C1891 C1890 1.400 . S
C1891 C1892 1.398 . S
C1891 C1897 1.491 . S
C1892 H1883 0.950 . S
C1892 C1891 1.398 . S
C1892 C1893 1.391 . S
C1893 H1881 0.950 . S
C1893 C1889 1.393 . S
C1893 C1892 1.391 . S
C1894 H1884 0.950 . S
C1894 C1895 1.386 . S
C1894 C1896 1.391 . S
C1895 C1894 1.386 . S
C1895 C1899 1.393 . S
C1896 H1885 0.950 . S
C1896 C1894 1.391 . S
C1896 C1897 1.400 . S
C1897 C1891 1.491 . S
C1897 C1896 1.400 . S
C1897 C1898 1.398 . S
C1898 H1886 0.950 . S
C1898 C1897 1.398 . S
C1898 C1899 1.391 . S
C1899 H1887 0.950 . S
C1899 C1895 1.393 . S
C1899 C1898 1.391 . S
H1900 C1908 0.950 . S
H1901 C1913 0.950 . S
H1902 C1910 0.950 . S
H1903 C1912 0.950 . S
H1904 C1914 0.950 . S
H1905 C1916 0.950 . S
H1906 C1918 0.950 . S
H1907 C1919 0.950 . S
C1908 H1900 0.950 . S
C1908 C1909 1.386 . S
C1908 C1910 1.391 . S
C1909 C1908 1.386 . S
C1909 C1913 1.393 . S
C1910 H1902 0.950 . S
C1910 C1908 1.391 . S
C1910 C1911 1.400 . S
C1911 C1910 1.400 . S
C1911 C1912 1.398 . S
C1911 C1917 1.491 . S
C1912 H1903 0.950 . S
C1912 C1911 1.398 . S
C1912 C1913 1.391 . S
C1913 H1901 0.950 . S
C1913 C1909 1.393 . S
C1913 C1912 1.391 . S
C1914 H1904 0.950 . S
C1914 C1915 1.386 . S
C1914 C1916 1.391 . S
C1915 C1914 1.386 . S
C1915 C1919 1.393 . S
C1916 H1905 0.950 . S
C1916 C1914 1.391 . S
C1916 C1917 1.400 . S
C1917 C1911 1.491 . S
C1917 C1916 1.400 . S
C1917 C1918 1.398 . S
C1918 H1906 0.950 . S
C1918 C1917 1.398 . S
C1918 C1919 1.391 . S
C1919 H1907 0.950 . S
C1919 C1915 1.393 . S
C1919 C1918 1.391 . S
H1920 C1928 0.950 . S
H1921 C1933 0.950 . S
H1922 C1930 0.950 . S
H1923 C1932 0.950 . S
H1924 C1934 0.950 . S
H1925 C1936 0.950 . S
H1926 C1938 0.950 . S
H1927 C1939 0.950 . S
C1928 H1920 0.950 . S
C1928 C1929 1.386 . S
C1928 C1930 1.391 . S
C1929 C1928 1.386 . S
C1929 C1933 1.393 . S
C1930 H1922 0.950 . S
C1930 C1928 1.391 . S
C1930 C1931 1.400 . S
C1931 C1930 1.400 . S
C1931 C1932 1.398 . S
C1931 C1937 1.491 . S
C1932 H1923 0.950 . S
C1932 C1931 1.398 . S
C1932 C1933 1.391 . S
C1933 H1921 0.950 . S
C1933 C1929 1.393 . S
C1933 C1932 1.391 . S
C1934 H1924 0.950 . S
C1934 C1935 1.386 . S
C1934 C1936 1.391 . S
C1935 C1934 1.386 . S
C1935 C1939 1.393 . S
C1936 H1925 0.950 . S
C1936 C1934 1.391 . S
C1936 C1937 1.400 . S
C1937 C1931 1.491 . S
C1937 C1936 1.400 . S
C1937 C1938 1.398 . S
C1938 H1926 0.950 . S
C1938 C1937 1.398 . S
C1938 C1939 1.391 . S
C1939 H1927 0.950 . S
C1939 C1935 1.393 . S
C1939 C1938 1.391 . S
H1940 C1948 0.950 . S
H1941 C1953 0.950 1_655 S
H1942 C1950 0.950 . S
H1943 C1952 0.950 1_655 S
H1944 C1954 0.950 . S
H1945 C1956 0.950 . S
H1946 C1958 0.950 . S
H1947 C1959 0.950 . S
C1948 H1940 0.950 . S
C1948 C1949 1.386 . S
C1948 C1950 1.391 . S
C1949 C1948 1.386 . S
C1949 C1953 1.393 . S
C1950 H1942 0.950 . S
C1950 C1948 1.391 . S
C1950 C1951 1.400 . S
C1951 C1950 1.400 . S
C1951 C1952 1.398 . S
C1951 C1957 1.491 . S
C1952 H1943 0.950 1_455 S
C1952 C1951 1.398 . S
C1952 C1953 1.391 . S
C1953 H1941 0.950 1_455 S
C1953 C1949 1.393 . S
C1953 C1952 1.391 . S
C1954 H1944 0.950 . S
C1954 C1955 1.386 . S
C1954 C1956 1.391 . S
C1955 C1954 1.386 . S
C1955 C1959 1.393 1_655 S
C1956 H1945 0.950 . S
C1956 C1954 1.391 . S
C1956 C1957 1.400 1_655 S
C1957 C1951 1.491 . S
C1957 C1956 1.400 1_455 S
C1957 C1958 1.398 . S
C1958 H1946 0.950 . S
C1958 C1957 1.398 . S
C1958 C1959 1.391 . S
C1959 H1947 0.950 . S
C1959 C1955 1.393 1_455 S
C1959 C1958 1.391 . S
H1960 C1968 0.950 . S
H1961 C1973 0.950 . S
H1962 C1970 0.950 . S
H1963 C1972 0.950 . S
H1964 C1974 0.950 . S
H1965 C1976 0.950 . S
H1966 C1978 0.950 . S
H1967 C1979 0.950 . S
C1968 H1960 0.950 . S
C1968 C1969 1.386 . S
C1968 C1970 1.391 . S
C1969 C1968 1.386 . S
C1969 C1973 1.393 . S
C1970 H1962 0.950 . S
C1970 C1968 1.391 . S
C1970 C1971 1.400 . S
C1971 C1970 1.400 . S
C1971 C1972 1.398 . S
C1971 C1977 1.491 . S
C1972 H1963 0.950 . S
C1972 C1971 1.398 . S
C1972 C1973 1.391 . S
C1973 H1961 0.950 . S
C1973 C1969 1.393 . S
C1973 C1972 1.391 . S
C1974 H1964 0.950 . S
C1974 C1975 1.386 . S
C1974 C1976 1.391 . S
C1975 C1974 1.386 . S
C1975 C1979 1.393 . S
C1976 H1965 0.950 . S
C1976 C1974 1.391 . S
C1976 C1977 1.400 . S
C1977 C1971 1.491 . S
C1977 C1976 1.400 . S
C1977 C1978 1.398 . S
C1978 H1966 0.950 . S
C1978 C1977 1.398 . S
C1978 C1979 1.391 . S
C1979 H1967 0.950 . S
C1979 C1975 1.393 . S
C1979 C1978 1.391 . S
H1980 C1988 0.950 . S
H1981 C1993 0.950 1_655 S
H1982 C1990 0.950 . S
H1983 C1992 0.950 . S
H1984 C1994 0.950 . S
H1985 C1996 0.950 . S
H1986 C1998 0.950 . S
H1987 C1999 0.950 . S
C1988 H1980 0.950 . S
C1988 C1989 1.386 . S
C1988 C1990 1.391 . S
C1989 C1988 1.386 . S
C1989 C1993 1.393 . S
C1990 H1982 0.950 . S
C1990 C1988 1.391 . S
C1990 C1991 1.400 . S
C1991 C1990 1.400 . S
C1991 C1992 1.398 . S
C1991 C1997 1.491 . S
C1992 H1983 0.950 . S
C1992 C1991 1.398 . S
C1992 C1993 1.391 . S
C1993 H1981 0.950 1_455 S
C1993 C1989 1.393 . S
C1993 C1992 1.391 . S
C1994 H1984 0.950 . S
C1994 C1995 1.386 . S
C1994 C1996 1.391 . S
C1995 C1994 1.386 . S
C1995 C1999 1.393 . S
C1996 H1985 0.950 . S
C1996 C1994 1.391 . S
C1996 C1997 1.400 . S
C1997 C1991 1.491 . S
C1997 C1996 1.400 . S
C1997 C1998 1.398 . S
C1998 H1986 0.950 . S
C1998 C1997 1.398 . S
C1998 C1999 1.391 . S
C1999 H1987 0.950 . S
C1999 C1995 1.393 . S
C1999 C1998 1.391 . S
H2000 C2008 0.950 . S
H2001 C2013 0.950 . S
H2002 C2010 0.950 . S
H2003 C2012 0.950 . S
H2004 C2014 0.950 . S
H2005 C2016 0.950 . S
H2006 C2018 0.950 . S
H2007 C2019 0.950 . S
C2008 H2000 0.950 . S
C2008 C2009 1.386 . S
C2008 C2010 1.391 . S
C2009 C2008 1.386 . S
C2009 C2013 1.393 . S
C2010 H2002 0.950 . S
C2010 C2008 1.391 . S
C2010 C2011 1.400 . S
C2011 C2010 1.400 . S
C2011 C2012 1.398 . S
C2011 C2017 1.491 . S
C2012 H2003 0.950 . S
C2012 C2011 1.398 . S
C2012 C2013 1.391 . S
C2013 H2001 0.950 . S
C2013 C2009 1.393 . S
C2013 C2012 1.391 . S
C2014 H2004 0.950 . S
C2014 C2015 1.386 . S
C2014 C2016 1.391 . S
C2015 C2014 1.386 . S
C2015 C2019 1.393 . S
C2016 H2005 0.950 . S
C2016 C2014 1.391 . S
C2016 C2017 1.400 . S
C2017 C2011 1.491 . S
C2017 C2016 1.400 . S
C2017 C2018 1.398 . S
C2018 H2006 0.950 . S
C2018 C2017 1.398 . S
C2018 C2019 1.391 . S
C2019 H2007 0.950 . S
C2019 C2015 1.393 . S
C2019 C2018 1.391 . S
H2020 C2028 0.950 . S
H2021 C2033 0.950 . S
H2022 C2030 0.950 . S
H2023 C2032 0.950 . S
H2024 C2034 0.950 . S
H2025 C2036 0.950 . S
H2026 C2038 0.950 . S
H2027 C2039 0.950 . S
C2028 H2020 0.950 . S
C2028 C2029 1.386 . S
C2028 C2030 1.391 . S
C2029 C2028 1.386 . S
C2029 C2033 1.393 1_455 S
C2030 H2022 0.950 . S
C2030 C2028 1.391 . S
C2030 C2031 1.400 . S
C2031 C2030 1.400 . S
C2031 C2032 1.398 1_455 S
C2031 C2037 1.491 . S
C2032 H2023 0.950 . S
C2032 C2031 1.398 1_655 S
C2032 C2033 1.391 . S
C2033 H2021 0.950 . S
C2033 C2029 1.393 1_655 S
C2033 C2032 1.391 . S
C2034 H2024 0.950 . S
C2034 C2035 1.386 1_655 S
C2034 C2036 1.391 . S
C2035 C2034 1.386 1_455 S
C2035 C2039 1.393 . S
C2036 H2025 0.950 . S
C2036 C2034 1.391 . S
C2036 C2037 1.400 1_655 S
C2037 C2031 1.491 . S
C2037 C2036 1.400 1_455 S
C2037 C2038 1.398 . S
C2038 H2026 0.950 . S
C2038 C2037 1.398 . S
C2038 C2039 1.391 . S
C2039 H2027 0.950 . S
C2039 C2035 1.393 . S
C2039 C2038 1.391 . S
H2040 C2048 0.950 . S
H2041 C2053 0.950 . S
H2042 C2050 0.950 . S
H2043 C2052 0.950 . S
H2044 C2054 0.950 . S
H2045 C2056 0.950 . S
H2046 C2058 0.950 . S
H2047 C2059 0.950 . S
C2048 H2040 0.950 . S
C2048 C2049 1.386 . S
C2048 C2050 1.391 . S
C2049 C2048 1.386 . S
C2049 C2053 1.393 . S
C2050 H2042 0.950 . S
C2050 C2048 1.391 . S
C2050 C2051 1.400 . S
C2051 C2050 1.400 . S
C2051 C2052 1.398 . S
C2051 C2057 1.491 . S
C2052 H2043 0.950 . S
C2052 C2051 1.398 . S
C2052 C2053 1.391 . S
C2053 H2041 0.950 . S
C2053 C2049 1.393 . S
C2053 C2052 1.391 . S
C2054 H2044 0.950 . S
C2054 C2055 1.386 . S
C2054 C2056 1.391 . S
C2055 C2054 1.386 . S
C2055 C2059 1.393 . S
C2056 H2045 0.950 . S
C2056 C2054 1.391 . S
C2056 C2057 1.400 . S
C2057 C2051 1.491 . S
C2057 C2056 1.400 . S
C2057 C2058 1.398 . S
C2058 H2046 0.950 . S
C2058 C2057 1.398 . S
C2058 C2059 1.391 . S
C2059 H2047 0.950 . S
C2059 C2055 1.393 . S
C2059 C2058 1.391 . S
H2060 C2068 0.950 . S
H2061 C2073 0.950 1_554 S
H2062 C2070 0.950 . S
H2063 C2072 0.950 . S
H2064 C2074 0.950 . S
H2065 C2076 0.950 . S
H2066 C2078 0.950 . S
H2067 C2079 0.950 1_655 S
C2068 H2060 0.950 . S
C2068 C2069 1.386 . S
C2068 C2070 1.391 . S
C2069 C2068 1.386 . S
C2069 C2073 1.393 . S
C2070 H2062 0.950 . S
C2070 C2068 1.391 . S
C2070 C2071 1.400 . S
C2071 C2070 1.400 . S
C2071 C2072 1.398 . S
C2071 C2077 1.491 . S
C2072 H2063 0.950 . S
C2072 C2071 1.398 . S
C2072 C2073 1.391 . S
C2073 H2061 0.950 1_556 S
C2073 C2069 1.393 . S
C2073 C2072 1.391 . S
C2074 H2064 0.950 . S
C2074 C2075 1.386 . S
C2074 C2076 1.391 . S
C2075 C2074 1.386 . S
C2075 C2079 1.393 . S
C2076 H2065 0.950 . S
C2076 C2074 1.391 . S
C2076 C2077 1.400 . S
C2077 C2071 1.491 . S
C2077 C2076 1.400 . S
C2077 C2078 1.398 . S
C2078 H2066 0.950 . S
C2078 C2077 1.398 . S
C2078 C2079 1.391 . S
C2079 H2067 0.950 1_455 S
C2079 C2075 1.393 . S
C2079 C2078 1.391 . S
H2080 C2088 0.950 . S
H2081 C2093 0.950 . S
H2082 C2090 0.950 . S
H2083 C2092 0.950 . S
H2084 C2094 0.950 . S
H2085 C2096 0.950 . S
H2086 C2098 0.950 . S
H2087 C2099 0.950 . S
C2088 H2080 0.950 . S
C2088 C2089 1.386 . S
C2088 C2090 1.391 . S
C2089 C2088 1.386 . S
C2089 C2093 1.393 . S
C2090 H2082 0.950 . S
C2090 C2088 1.391 . S
C2090 C2091 1.400 . S
C2091 C2090 1.400 . S
C2091 C2092 1.398 . S
C2091 C2097 1.491 . S
C2092 H2083 0.950 . S
C2092 C2091 1.398 . S
C2092 C2093 1.391 . S
C2093 H2081 0.950 . S
C2093 C2089 1.393 . S
C2093 C2092 1.391 . S
C2094 H2084 0.950 . S
C2094 C2095 1.386 . S
C2094 C2096 1.391 . S
C2095 C2094 1.386 . S
C2095 C2099 1.393 . S
C2096 H2085 0.950 . S
C2096 C2094 1.391 . S
C2096 C2097 1.400 . S
C2097 C2091 1.491 . S
C2097 C2096 1.400 . S
C2097 C2098 1.398 . S
C2098 H2086 0.950 . S
C2098 C2097 1.398 . S
C2098 C2099 1.391 . S
C2099 H2087 0.950 . S
C2099 C2095 1.393 . S
C2099 C2098 1.391 . S
H2100 C2108 0.950 . S
H2101 C2113 0.950 . S
H2102 C2110 0.950 . S
H2103 C2112 0.950 . S
H2104 C2114 0.950 . S
H2105 C2116 0.950 . S
H2106 C2118 0.950 . S
H2107 C2119 0.950 . S
C2108 H2100 0.950 . S
C2108 C2109 1.386 . S
C2108 C2110 1.391 . S
C2109 C2108 1.386 . S
C2109 C2113 1.393 . S
C2110 H2102 0.950 . S
C2110 C2108 1.391 . S
C2110 C2111 1.400 . S
C2111 C2110 1.400 . S
C2111 C2112 1.398 . S
C2111 C2117 1.491 . S
C2112 H2103 0.950 . S
C2112 C2111 1.398 . S
C2112 C2113 1.391 . S
C2113 H2101 0.950 . S
C2113 C2109 1.393 . S
C2113 C2112 1.391 . S
C2114 H2104 0.950 . S
C2114 C2115 1.386 . S
C2114 C2116 1.391 . S
C2115 C2114 1.386 . S
C2115 C2119 1.393 . S
C2116 H2105 0.950 . S
C2116 C2114 1.391 . S
C2116 C2117 1.400 . S
C2117 C2111 1.491 . S
C2117 C2116 1.400 . S
C2117 C2118 1.398 . S
C2118 H2106 0.950 . S
C2118 C2117 1.398 . S
C2118 C2119 1.391 . S
C2119 H2107 0.950 . S
C2119 C2115 1.393 . S
C2119 C2118 1.391 . S
H2120 C2128 0.950 . S
H2121 C2133 0.950 . S
H2122 C2130 0.950 . S
H2123 C2132 0.950 . S
H2124 C2134 0.950 . S
H2125 C2136 0.950 . S
H2126 C2138 0.950 . S
H2127 C2139 0.950 . S
C2128 H2120 0.950 . S
C2128 C2129 1.386 . S
C2128 C2130 1.391 . S
C2129 C2128 1.386 . S
C2129 C2133 1.393 . S
C2130 H2122 0.950 . S
C2130 C2128 1.391 . S
C2130 C2131 1.400 . S
C2131 C2130 1.400 . S
C2131 C2132 1.398 . S
C2131 C2137 1.491 . S
C2132 H2123 0.950 . S
C2132 C2131 1.398 . S
C2132 C2133 1.391 . S
C2133 H2121 0.950 . S
C2133 C2129 1.393 . S
C2133 C2132 1.391 . S
C2134 H2124 0.950 . S
C2134 C2135 1.386 . S
C2134 C2136 1.391 . S
C2135 C2134 1.386 . S
C2135 C2139 1.393 . S
C2136 H2125 0.950 . S
C2136 C2134 1.391 . S
C2136 C2137 1.400 . S
C2137 C2131 1.491 . S
C2137 C2136 1.400 . S
C2137 C2138 1.398 . S
C2138 H2126 0.950 . S
C2138 C2137 1.398 . S
C2138 C2139 1.391 . S
C2139 H2127 0.950 . S
C2139 C2135 1.393 . S
C2139 C2138 1.391 . S
H2140 C2148 0.950 . S
H2141 C2153 0.950 . S
H2142 C2150 0.950 . S
H2143 C2152 0.950 . S
H2144 C2154 0.950 . S
H2145 C2156 0.950 . S
H2146 C2158 0.950 . S
H2147 C2159 0.950 . S
C2148 H2140 0.950 . S
C2148 C2149 1.386 . S
C2148 C2150 1.391 1_556 S
C2149 C2148 1.386 . S
C2149 C2153 1.393 1_556 S
C2150 H2142 0.950 . S
C2150 C2148 1.391 1_554 S
C2150 C2151 1.400 . S
C2151 C2150 1.400 . S
C2151 C2152 1.398 . S
C2151 C2157 1.491 . S
C2152 H2143 0.950 . S
C2152 C2151 1.398 . S
C2152 C2153 1.391 . S
C2153 H2141 0.950 . S
C2153 C2149 1.393 1_554 S
C2153 C2152 1.391 . S
C2154 H2144 0.950 . S
C2154 C2155 1.386 . S
C2154 C2156 1.391 . S
C2155 C2154 1.386 . S
C2155 C2159 1.393 . S
C2156 H2145 0.950 . S
C2156 C2154 1.391 . S
C2156 C2157 1.400 . S
C2157 C2151 1.491 . S
C2157 C2156 1.400 . S
C2157 C2158 1.398 . S
C2158 H2146 0.950 . S
C2158 C2157 1.398 . S
C2158 C2159 1.391 . S
C2159 H2147 0.950 . S
C2159 C2155 1.393 . S
C2159 C2158 1.391 . S
H2160 C2168 0.950 . S
H2161 C2173 0.950 . S
H2162 C2170 0.950 . S
H2163 C2172 0.950 . S
H2164 C2174 0.950 . S
H2165 C2176 0.950 . S
H2166 C2178 0.950 . S
H2167 C2179 0.950 . S
C2168 H2160 0.950 . S
C2168 C2169 1.386 . S
C2168 C2170 1.391 . S
C2169 C2168 1.386 . S
C2169 C2173 1.393 . S
C2170 H2162 0.950 . S
C2170 C2168 1.391 . S
C2170 C2171 1.400 . S
C2171 C2170 1.400 . S
C2171 C2172 1.398 . S
C2171 C2177 1.491 . S
C2172 H2163 0.950 . S
C2172 C2171 1.398 . S
C2172 C2173 1.391 . S
C2173 H2161 0.950 . S
C2173 C2169 1.393 . S
C2173 C2172 1.391 . S
C2174 H2164 0.950 . S
C2174 C2175 1.386 . S
C2174 C2176 1.391 . S
C2175 C2174 1.386 . S
C2175 C2179 1.393 . S
C2176 H2165 0.950 . S
C2176 C2174 1.391 . S
C2176 C2177 1.400 . S
C2177 C2171 1.491 . S
C2177 C2176 1.400 . S
C2177 C2178 1.398 . S
C2178 H2166 0.950 . S
C2178 C2177 1.398 . S
C2178 C2179 1.391 . S
C2179 H2167 0.950 . S
C2179 C2175 1.393 . S
C2179 C2178 1.391 . S
H2180 C2188 0.950 . S
H2181 C2193 0.950 . S
H2182 C2190 0.950 . S
H2183 C2192 0.950 . S
H2184 C2194 0.950 . S
H2185 C2196 0.950 . S
H2186 C2198 0.950 . S
H2187 C2199 0.950 . S
C2188 H2180 0.950 . S
C2188 C2189 1.386 . S
C2188 C2190 1.391 . S
C2189 C2188 1.386 . S
C2189 C2193 1.393 . S
C2190 H2182 0.950 . S
C2190 C2188 1.391 . S
C2190 C2191 1.400 . S
C2191 C2190 1.400 . S
C2191 C2192 1.398 . S
C2191 C2197 1.491 . S
C2192 H2183 0.950 . S
C2192 C2191 1.398 . S
C2192 C2193 1.391 . S
C2193 H2181 0.950 . S
C2193 C2189 1.393 . S
C2193 C2192 1.391 . S
C2194 H2184 0.950 . S
C2194 C2195 1.386 . S
C2194 C2196 1.391 . S
C2195 C2194 1.386 . S
C2195 C2199 1.393 . S
C2196 H2185 0.950 . S
C2196 C2194 1.391 . S
C2196 C2197 1.400 . S
C2197 C2191 1.491 . S
C2197 C2196 1.400 . S
C2197 C2198 1.398 . S
C2198 H2186 0.950 . S
C2198 C2197 1.398 . S
C2198 C2199 1.391 . S
C2199 H2187 0.950 . S
C2199 C2195 1.393 . S
C2199 C2198 1.391 . S
H2200 C2208 0.950 . S
H2201 C2213 0.950 . S
H2202 C2210 0.950 . S
H2203 C2212 0.950 . S
H2204 C2214 0.950 . S
H2205 C2216 0.950 . S
H2206 C2218 0.950 . S
H2207 C2219 0.950 . S
C2208 H2200 0.950 . S
C2208 C2209 1.386 . S
C2208 C2210 1.391 . S
C2209 C2208 1.386 . S
C2209 C2213 1.393 . S
C2210 H2202 0.950 . S
C2210 C2208 1.391 . S
C2210 C2211 1.400 . S
C2211 C2210 1.400 . S
C2211 C2212 1.398 . S
C2211 C2217 1.491 . S
C2212 H2203 0.950 . S
C2212 C2211 1.398 . S
C2212 C2213 1.391 . S
C2213 H2201 0.950 . S
C2213 C2209 1.393 . S
C2213 C2212 1.391 . S
C2214 H2204 0.950 . S
C2214 C2215 1.386 . S
C2214 C2216 1.391 . S
C2215 C2214 1.386 . S
C2215 C2219 1.393 . S
C2216 H2205 0.950 . S
C2216 C2214 1.391 . S
C2216 C2217 1.400 . S
C2217 C2211 1.491 . S
C2217 C2216 1.400 . S
C2217 C2218 1.398 . S
C2218 H2206 0.950 . S
C2218 C2217 1.398 . S
C2218 C2219 1.391 . S
C2219 H2207 0.950 . S
C2219 C2215 1.393 . S
C2219 C2218 1.391 . S
H2220 C2228 0.950 . S
H2221 C2233 0.950 . S
H2222 C2230 0.950 . S
H2223 C2232 0.950 . S
H2224 C2234 0.950 . S
H2225 C2236 0.950 . S
H2226 C2238 0.950 . S
H2227 C2239 0.950 . S
C2228 H2220 0.950 . S
C2228 C2229 1.386 . S
C2228 C2230 1.391 . S
C2229 C2228 1.386 . S
C2229 C2233 1.393 . S
C2230 H2222 0.950 . S
C2230 C2228 1.391 . S
C2230 C2231 1.400 . S
C2231 C2230 1.400 . S
C2231 C2232 1.398 . S
C2231 C2237 1.491 . S
C2232 H2223 0.950 . S
C2232 C2231 1.398 . S
C2232 C2233 1.391 . S
C2233 H2221 0.950 . S
C2233 C2229 1.393 . S
C2233 C2232 1.391 . S
C2234 H2224 0.950 . S
C2234 C2235 1.386 . S
C2234 C2236 1.391 . S
C2235 C2234 1.386 . S
C2235 C2239 1.393 . S
C2236 H2225 0.950 . S
C2236 C2234 1.391 . S
C2236 C2237 1.400 . S
C2237 C2231 1.491 . S
C2237 C2236 1.400 . S
C2237 C2238 1.398 . S
C2238 H2226 0.950 . S
C2238 C2237 1.398 . S
C2238 C2239 1.391 . S
C2239 H2227 0.950 . S
C2239 C2235 1.393 . S
C2239 C2238 1.391 . S
H2240 C2248 0.950 . S
H2241 C2253 0.950 . S
H2242 C2250 0.950 . S
H2243 C2252 0.950 . S
H2244 C2254 0.950 . S
H2245 C2256 0.950 . S
H2246 C2258 0.971 . S
H2247 C2259 0.949 . S
C2248 H2240 0.950 . S
C2248 C2249 1.386 1_554 S
C2248 C2250 1.391 . S
C2249 C2248 1.386 1_556 S
C2249 C2253 1.393 . S
C2250 H2242 0.950 . S
C2250 C2248 1.391 . S
C2250 C2251 1.400 1_554 S
C2251 C2250 1.400 1_556 S
C2251 C2252 1.398 . S
C2251 C2257 1.491 . S
C2252 H2243 0.950 . S
C2252 C2251 1.398 . S
C2252 C2253 1.391 . S
C2253 H2241 0.950 . S
C2253 C2249 1.393 . S
C2253 C2252 1.391 . S
C2254 H2244 0.950 . S
C2254 C2255 1.386 . S
C2254 C2256 1.391 . S
C2255 C2254 1.386 . S
C2255 C2259 1.394 1_556 S
C2256 H2245 0.950 . S
C2256 C2254 1.391 . S
C2256 C2257 1.400 . S
C2257 C2251 1.491 . S
C2257 C2256 1.400 . S
C2257 C2258 1.385 1_556 S
C2258 H2246 0.971 . S
C2258 C2257 1.385 1_554 S
C2258 C2259 1.385 . S
C2259 H2247 0.949 . S
C2259 C2255 1.394 1_554 S
C2259 C2258 1.385 . S
H2260 C2268 0.950 . S
H2261 C2273 0.950 . S
H2262 C2270 0.950 . S
H2263 C2272 0.950 . S
H2264 C2274 0.950 . S
H2265 C2276 0.950 . S
H2266 C2278 0.950 . S
H2267 C2279 0.950 . S
C2268 H2260 0.950 . S
C2268 C2269 1.386 . S
C2268 C2270 1.391 . S
C2269 C2268 1.386 . S
C2269 C2273 1.393 . S
C2270 H2262 0.950 . S
C2270 C2268 1.391 . S
C2270 C2271 1.400 . S
C2271 C2270 1.400 . S
C2271 C2272 1.398 . S
C2271 C2277 1.491 . S
C2272 H2263 0.950 . S
C2272 C2271 1.398 . S
C2272 C2273 1.391 . S
C2273 H2261 0.950 . S
C2273 C2269 1.393 . S
C2273 C2272 1.391 . S
C2274 H2264 0.950 . S
C2274 C2275 1.386 . S
C2274 C2276 1.391 . S
C2275 C2274 1.386 . S
C2275 C2279 1.393 . S
C2276 H2265 0.950 . S
C2276 C2274 1.391 . S
C2276 C2277 1.400 . S
C2277 C2271 1.491 . S
C2277 C2276 1.400 . S
C2277 C2278 1.398 . S
C2278 H2266 0.950 . S
C2278 C2277 1.398 . S
C2278 C2279 1.391 . S
C2279 H2267 0.950 . S
C2279 C2275 1.393 . S
C2279 C2278 1.391 . S
H2280 C2288 0.950 . S
H2281 C2293 0.950 . S
H2282 C2290 0.930 1_556 S
H2283 C2292 0.950 . S
H2284 C2294 0.950 . S
H2285 C2296 0.950 . S
H2286 C2298 0.950 . S
H2287 C2299 0.950 . S
C2288 H2280 0.950 . S
C2288 C2289 1.386 . S
C2288 C2290 1.391 . S
C2289 C2288 1.386 . S
C2289 C2293 1.393 . S
C2290 H2282 0.930 1_554 S
C2290 C2288 1.391 . S
C2290 C2291 1.400 . S
C2291 C2290 1.400 . S
C2291 C2292 1.398 . S
C2291 C2297 1.491 . S
C2292 H2283 0.950 . S
C2292 C2291 1.398 . S
C2292 C2293 1.391 . S
C2293 H2281 0.950 . S
C2293 C2289 1.393 . S
C2293 C2292 1.391 . S
C2294 H2284 0.950 . S
C2294 C2295 1.386 . S
C2294 C2296 1.391 . S
C2295 C2294 1.386 . S
C2295 C2299 1.393 1_554 S
C2296 H2285 0.950 . S
C2296 C2294 1.391 . S
C2296 C2297 1.400 . S
C2297 C2291 1.491 . S
C2297 C2296 1.400 . S
C2297 C2298 1.398 1_554 S
C2298 H2286 0.950 . S
C2298 C2297 1.398 1_556 S
C2298 C2299 1.391 . S
C2299 H2287 0.950 . S
C2299 C2295 1.393 1_556 S
C2299 C2298 1.391 . S
H2300 C2308 0.950 . S
H2301 C2313 0.950 . S
H2302 C2310 0.950 . S
H2303 C2312 0.955 . S
H2304 C2314 0.950 . S
H2305 C2316 0.950 . S
H2306 C2318 0.950 . S
H2307 C2319 0.950 . S
C2308 H2300 0.950 . S
C2308 C2309 1.386 1_565 S
C2308 C2310 1.391 . S
C2309 C2308 1.386 1_545 S
C2309 C2313 1.393 . S
C2310 H2302 0.950 . S
C2310 C2308 1.391 . S
C2310 C2311 1.400 . S
C2311 C2310 1.400 . S
C2311 C2312 1.384 1_565 S
C2311 C2317 1.491 . S
C2312 H2303 0.955 . S
C2312 C2311 1.384 1_545 S
C2312 C2313 1.400 . S
C2313 H2301 0.950 . S
C2313 C2309 1.393 . S
C2313 C2312 1.400 . S
C2314 H2304 0.950 . S
C2314 C2315 1.386 . S
C2314 C2316 1.391 . S
C2315 C2314 1.386 . S
C2315 C2319 1.393 . S
C2316 H2305 0.950 . S
C2316 C2314 1.391 . S
C2316 C2317 1.400 . S
C2317 C2311 1.491 . S
C2317 C2316 1.400 . S
C2317 C2318 1.398 . S
C2318 H2306 0.950 . S
C2318 C2317 1.398 . S
C2318 C2319 1.391 . S
C2319 H2307 0.950 . S
C2319 C2315 1.393 . S
C2319 C2318 1.391 . S
C1375 C353 1.885 . S
C1369 C101 1.880 . S
C1395 C412 1.011 . S
C1389 C125 0.934 . S
C1409 C139 2.126 . S
C1415 C529 2.120 . S
C1435 C597 1.864 1_455 S
C1429 C82 1.892 . S
C1455 C676 1.622 . S
C1449 C196 1.638 . S
C1475 C801 1.879 . S
C1469 C234 1.892 . S
C1489 C220 0.743 . S
C1495 C861 0.762 . S
C1515 C969 1.715 1_565 S
C1509 C173 1.710 . S
C1529 C211 1.229 . S
C1535 C1065 1.234 . S
C1555 C1125 1.051 . S
C1549 C182 1.036 . S
C1569 C201 1.342 . S
C1575 C1028 1.486 . S
C1595 C1145 1.328 . S
C1589 C239 1.279 . S
C1609 C135 1.678 . S
C1615 C1213 1.685 . S
C1629 C87 1.875 . S
C1635 C1204 2.055 . S
C1649 C106 1.075 . S
C1655 C1233 1.202 . S
C1669 C116 1.213 . S
C1675 C1241 1.238 . S
C1689 C59 1.976 . S
C1695 C625 1.998 . S
C1709 C268 2.342 . S
C1715 C588 2.352 . S
C1735 C324 1.162 . S
C1729 C291 1.171 . S
C1755 C421 1.460 . S
C1749 C163 1.325 . S
C1769 C78 2.133 1_545 S
C1775 C685 2.171 . S
C1795 C977 1.111 . S
C1789 C215 1.114 . S
C1815 C705 1.682 . S
C1809 C177 1.699 1_545 S
C1835 C889 1.888 . S
C1829 C230 1.868 . S
C1855 C881 1.901 . S
C1849 C272 1.897 . S
C1869 C296 0.939 . S
C1875 C949 1.028 . S
C1889 C158 2.119 . S
C1895 C713 2.113 . S
C1915 C764 1.841 . S
C1909 C253 1.866 . S
C1929 C63 1.621 . S
C1935 C509 1.594 . S
C1955 C617 1.893 . S
C1949 C6 1.901 . S
C1975 C333 0.754 . S
C1969 C30 0.780 . S
C1995 C449 1.723 . S
C1989 C40 1.715 . S
C2009 C21 1.275 . S
C2015 C1153 1.283 . S
C2029 C49 1.006 . S
C2035 C1037 1.026 . S
C2049 C68 1.325 . S
C2055 C1116 1.468 . S
C2069 C11 1.245 1_556 S
C2075 C1057 1.333 . S
C2095 C1301 1.647 . S
C2089 C154 1.639 . S
C2115 C1292 2.068 . S
C2109 C258 1.876 . S
C2135 C1321 1.256 . S
C2129 C277 1.156 . S
C2149 C287 1.215 . S
C2155 C1329 1.240 . S
C2169 C192 1.982 . S
C2175 C793 1.997 . S
C2195 C773 2.322 . S
C2189 C97 2.310 . S
C2215 C852 1.161 . S
C2209 C120 1.171 . S
C2235 C940 1.472 . S
C2229 C144 1.347 . S
C2249 C249 2.143 . S
C2255 C500 2.175 . S
C2275 C441 1.135 . S
C2269 C25 1.129 . S
C2289 C44 1.656 . S
C2295 C537 1.632 . S
C2315 C361 1.890 . S
C2309 C2 1.877 . S
