# Generated by pormake.
# Topology eea, (3,6)-cn, num edge types: 1
# Building blocks:
#     Node 0, Type 0, BuildingBlock: BELTOD_clean_linker_0, # of connection points: 3
#     Node 1, Type 0, BuildingBlock: BELTOD_clean_linker_0, # of connection points: 3
#     Node 2, Type 0, BuildingBlock: BELTOD_clean_linker_0, # of connection points: 3
#     Node 3, Type 0, BuildingBlock: BELTOD_clean_linker_0, # of connection points: 3
#     Node 4, Type 0, BuildingBlock: BELTOD_clean_linker_0, # of connection points: 3
#     Node 5, Type 0, BuildingBlock: BELTOD_clean_linker_0, # of connection points: 3
#     Node 6, Type 0, BuildingBlock: BELTOD_clean_linker_0, # of connection points: 3
#     Node 7, Type 0, BuildingBlock: BELTOD_clean_linker_0, # of connection points: 3
#     Node 8, Type 0, BuildingBlock: BELTOD_clean_linker_0, # of connection points: 3
#     Node 9, Type 0, BuildingBlock: BELTOD_clean_linker_0, # of connection points: 3
#     Node 10, Type 0, BuildingBlock: BELTOD_clean_linker_0, # of connection points: 3
#     Node 11, Type 0, BuildingBlock: BELTOD_clean_linker_0, # of connection points: 3
#     Node 12, Type 0, BuildingBlock: BELTOD_clean_linker_0, # of connection points: 3
#     Node 13, Type 0, BuildingBlock: BELTOD_clean_linker_0, # of connection points: 3
#     Node 14, Type 0, BuildingBlock: BELTOD_clean_linker_0, # of connection points: 3
#     Node 15, Type 0, BuildingBlock: BELTOD_clean_linker_0, # of connection points: 3
#     Node 16, Type 0, BuildingBlock: BELTOD_clean_linker_0, # of connection points: 3
#     Node 17, Type 0, BuildingBlock: BELTOD_clean_linker_0, # of connection points: 3
#     Node 18, Type 1, BuildingBlock: NUHQIS_clean_sbu_0, # of connection points: 6
#     Node 19, Type 1, BuildingBlock: NUHQIS_clean_sbu_0, # of connection points: 6
#     Node 20, Type 1, BuildingBlock: NUHQIS_clean_sbu_0, # of connection points: 6
#     Node 21, Type 1, BuildingBlock: NUHQIS_clean_sbu_0, # of connection points: 6
#     Node 22, Type 1, BuildingBlock: NUHQIS_clean_sbu_0, # of connection points: 6
#     Node 23, Type 1, BuildingBlock: NUHQIS_clean_sbu_0, # of connection points: 6
#     Node 24, Type 1, BuildingBlock: NUHQIS_clean_sbu_0, # of connection points: 6
#     Node 25, Type 1, BuildingBlock: NUHQIS_clean_sbu_0, # of connection points: 6
#     Node 26, Type 1, BuildingBlock: NUHQIS_clean_sbu_0, # of connection points: 6
#     Edge 27, Type (0, 1), BuildingBlock: MIFKUJ_clean_linker_0, # of connection points: 2
#     Edge 28, Type (0, 1), BuildingBlock: MIFKUJ_clean_linker_0, # of connection points: 2
#     Edge 29, Type (0, 1), BuildingBlock: MIFKUJ_clean_linker_0, # of connection points: 2
#     Edge 30, Type (0, 1), BuildingBlock: MIFKUJ_clean_linker_0, # of connection points: 2
#     Edge 31, Type (0, 1), BuildingBlock: MIFKUJ_clean_linker_0, # of connection points: 2
#     Edge 32, Type (0, 1), BuildingBlock: MIFKUJ_clean_linker_0, # of connection points: 2
#     Edge 33, Type (0, 1), BuildingBlock: MIFKUJ_clean_linker_0, # of connection points: 2
#     Edge 34, Type (0, 1), BuildingBlock: MIFKUJ_clean_linker_0, # of connection points: 2
#     Edge 35, Type (0, 1), BuildingBlock: MIFKUJ_clean_linker_0, # of connection points: 2
#     Edge 36, Type (0, 1), BuildingBlock: MIFKUJ_clean_linker_0, # of connection points: 2
#     Edge 37, Type (0, 1), BuildingBlock: MIFKUJ_clean_linker_0, # of connection points: 2
#     Edge 38, Type (0, 1), BuildingBlock: MIFKUJ_clean_linker_0, # of connection points: 2
#     Edge 39, Type (0, 1), BuildingBlock: MIFKUJ_clean_linker_0, # of connection points: 2
#     Edge 40, Type (0, 1), BuildingBlock: MIFKUJ_clean_linker_0, # of connection points: 2
#     Edge 41, Type (0, 1), BuildingBlock: MIFKUJ_clean_linker_0, # of connection points: 2
#     Edge 42, Type (0, 1), BuildingBlock: MIFKUJ_clean_linker_0, # of connection points: 2
#     Edge 43, Type (0, 1), BuildingBlock: MIFKUJ_clean_linker_0, # of connection points: 2
#     Edge 44, Type (0, 1), BuildingBlock: MIFKUJ_clean_linker_0, # of connection points: 2
#     Edge 45, Type (0, 1), BuildingBlock: MIFKUJ_clean_linker_0, # of connection points: 2
#     Edge 46, Type (0, 1), BuildingBlock: MIFKUJ_clean_linker_0, # of connection points: 2
#     Edge 47, Type (0, 1), BuildingBlock: MIFKUJ_clean_linker_0, # of connection points: 2
#     Edge 48, Type (0, 1), BuildingBlock: MIFKUJ_clean_linker_0, # of connection points: 2
#     Edge 49, Type (0, 1), BuildingBlock: MIFKUJ_clean_linker_0, # of connection points: 2
#     Edge 50, Type (0, 1), BuildingBlock: MIFKUJ_clean_linker_0, # of connection points: 2
#     Edge 51, Type (0, 1), BuildingBlock: MIFKUJ_clean_linker_0, # of connection points: 2
#     Edge 52, Type (0, 1), BuildingBlock: MIFKUJ_clean_linker_0, # of connection points: 2
#     Edge 53, Type (0, 1), BuildingBlock: MIFKUJ_clean_linker_0, # of connection points: 2
#     Edge 54, Type (0, 1), BuildingBlock: MIFKUJ_clean_linker_0, # of connection points: 2
#     Edge 55, Type (0, 1), BuildingBlock: MIFKUJ_clean_linker_0, # of connection points: 2
#     Edge 56, Type (0, 1), BuildingBlock: MIFKUJ_clean_linker_0, # of connection points: 2
#     Edge 57, Type (0, 1), BuildingBlock: MIFKUJ_clean_linker_0, # of connection points: 2
#     Edge 58, Type (0, 1), BuildingBlock: MIFKUJ_clean_linker_0, # of connection points: 2
#     Edge 59, Type (0, 1), BuildingBlock: MIFKUJ_clean_linker_0, # of connection points: 2
#     Edge 60, Type (0, 1), BuildingBlock: MIFKUJ_clean_linker_0, # of connection points: 2
#     Edge 61, Type (0, 1), BuildingBlock: MIFKUJ_clean_linker_0, # of connection points: 2
#     Edge 62, Type (0, 1), BuildingBlock: MIFKUJ_clean_linker_0, # of connection points: 2
#     Edge 63, Type (0, 1), BuildingBlock: MIFKUJ_clean_linker_0, # of connection points: 2
#     Edge 64, Type (0, 1), BuildingBlock: MIFKUJ_clean_linker_0, # of connection points: 2
#     Edge 65, Type (0, 1), BuildingBlock: MIFKUJ_clean_linker_0, # of connection points: 2
#     Edge 66, Type (0, 1), BuildingBlock: MIFKUJ_clean_linker_0, # of connection points: 2
#     Edge 67, Type (0, 1), BuildingBlock: MIFKUJ_clean_linker_0, # of connection points: 2
#     Edge 68, Type (0, 1), BuildingBlock: MIFKUJ_clean_linker_0, # of connection points: 2
#     Edge 69, Type (0, 1), BuildingBlock: MIFKUJ_clean_linker_0, # of connection points: 2
#     Edge 70, Type (0, 1), BuildingBlock: MIFKUJ_clean_linker_0, # of connection points: 2
#     Edge 71, Type (0, 1), BuildingBlock: MIFKUJ_clean_linker_0, # of connection points: 2
#     Edge 72, Type (0, 1), BuildingBlock: MIFKUJ_clean_linker_0, # of connection points: 2
#     Edge 73, Type (0, 1), BuildingBlock: MIFKUJ_clean_linker_0, # of connection points: 2
#     Edge 74, Type (0, 1), BuildingBlock: MIFKUJ_clean_linker_0, # of connection points: 2
#     Edge 75, Type (0, 1), BuildingBlock: MIFKUJ_clean_linker_0, # of connection points: 2
#     Edge 76, Type (0, 1), BuildingBlock: MIFKUJ_clean_linker_0, # of connection points: 2
#     Edge 77, Type (0, 1), BuildingBlock: MIFKUJ_clean_linker_0, # of connection points: 2
#     Edge 78, Type (0, 1), BuildingBlock: MIFKUJ_clean_linker_0, # of connection points: 2
#     Edge 79, Type (0, 1), BuildingBlock: MIFKUJ_clean_linker_0, # of connection points: 2
#     Edge 80, Type (0, 1), BuildingBlock: MIFKUJ_clean_linker_0, # of connection points: 2
# Relax obj value: 0.032
# Max RMSD: 0.130
# Mean RMSD: 0.071
data_MOF--net-eea--node1-NUHQIS_clean_sbu_0--node2-BELTOD_clean_linker_0--edge1-MIFKUJ_clean_linker_0
_symmetry_space_group_name_H-M    P1
_symmetry_Int_Tables_number       1
_symmetry_cell_setting            triclinic
loop_
_symmetry_equiv_pos_as_xyz
'x, y, z'
_cell_length_a     74.222174
_cell_length_b     74.229213
_cell_length_c     102.33177
_cell_angle_alpha  93.878424
_cell_angle_beta   93.513143
_cell_angle_gamma 119.88129
loop_
_atom_site_label
_atom_site_type_symbol
_atom_site_fract_x
_atom_site_fract_y
_atom_site_fract_z
_atom_type_partial_charge
P0 P 0.32095 0.17039 0.40962 0.0
H1 H 0.33019 0.14704 0.38949 0.0
H2 H 0.31154 0.11018 0.38036 0.0
H3 H 0.26411 0.09734 0.40661 0.0
H4 H 0.28277 0.13421 0.41561 0.0
H5 H 0.32871 0.21302 0.41337 0.0
H6 H 0.31054 0.22999 0.40424 0.0
H7 H 0.26683 0.17218 0.38023 0.0
H8 H 0.2845 0.15524 0.38972 0.0
H9 H 0.34125 0.15811 0.42925 0.0
H10 H 0.30117 0.18476 0.42883 0.0
O11 O 0.34551 0.18236 0.40582 0.0
H12 H 0.34165 0.15856 0.45323 0.0
H13 H 0.30206 0.18579 0.45279 0.0
C14 C 0.30799 0.1432 0.40335 0.0
C15 C 0.31589 0.13624 0.39336 0.0
C16 C 0.30524 0.1152 0.38816 0.0
C17 C 0.28639 0.1009 0.39279 0.0
C18 C 0.2785 0.10803 0.40278 0.0
C19 C 0.28923 0.12902 0.408 0.0
C20 C 0.3078 0.18281 0.40242 0.0
C21 C 0.31516 0.20403 0.40616 0.0
C22 C 0.30484 0.21373 0.40085 0.0
C23 C 0.28712 0.20242 0.39152 0.0
C24 C 0.28013 0.18125 0.38759 0.0
C25 C 0.29034 0.17154 0.393 0.0
C26 C 0.32158 0.17181 0.42728 0.0
C27 C 0.33273 0.16426 0.43433 0.0
C28 C 0.33285 0.1644 0.44799 0.0
C29 C 0.32196 0.1723 0.45482 0.0
C30 C 0.31077 0.17985 0.44774 0.0
C31 C 0.31037 0.17936 0.43404 0.0
P32 P 0.90919 0.11992 0.43196 0.0
H33 H 0.90709 0.10022 0.40603 0.0
H34 H 0.87802 0.07484 0.39011 0.0
H35 H 0.83443 0.07707 0.41544 0.0
H36 H 0.86351 0.10324 0.43083 0.0
H37 H 0.95472 0.14226 0.4357 0.0
H38 H 0.98134 0.16994 0.42466 0.0
H39 H 0.93308 0.1742 0.40159 0.0
H40 H 0.90645 0.14603 0.41254 0.0
H41 H 0.88344 0.09618 0.45154 0.0
H42 H 0.91724 0.16084 0.44432 0.0
O43 O 0.91967 0.1057 0.43658 0.0
H44 H 0.87212 0.10574 0.47133 0.0
H45 H 0.90698 0.17082 0.46458 0.0
C46 C 0.88752 0.10343 0.41969 0.0
C47 C 0.89126 0.09547 0.40802 0.0
C48 C 0.87459 0.08082 0.39899 0.0
C49 C 0.85381 0.07362 0.40155 0.0
C50 C 0.85018 0.08233 0.41305 0.0
C51 C 0.86689 0.09718 0.42199 0.0
C52 C 0.92865 0.14184 0.42472 0.0
C53 C 0.94988 0.14921 0.4283 0.0
C54 C 0.9651 0.16518 0.42205 0.0
C55 C 0.95935 0.17421 0.41216 0.0
C56 C 0.93801 0.16732 0.40899 0.0
C57 C 0.92279 0.1513 0.41527 0.0
C58 C 0.90112 0.12775 0.44646 0.0
C59 C 0.88855 0.11249 0.4543 0.0
C60 C 0.88226 0.11805 0.46571 0.0
C61 C 0.8888 0.13912 0.4697 0.0
C62 C 0.90143 0.15442 0.46176 0.0
C63 C 0.90746 0.14876 0.4502 0.0
P64 P 0.87101 0.7431 0.42592 0.0
H65 H 0.86029 0.74855 0.39933 0.0
H66 H 0.83908 0.76227 0.39012 0.0
H67 H 0.82836 0.77701 0.42947 0.0
H68 H 0.85053 0.76429 0.43858 0.0
H69 H 0.90128 0.72921 0.42477 0.0
H70 H 0.93565 0.74403 0.41671 0.0
H71 H 0.933 0.79915 0.40879 0.0
H72 H 0.89862 0.78422 0.41691 0.0
H73 H 0.8367 0.72229 0.44177 0.0
H74 H 0.90394 0.75953 0.44855 0.0
O75 O 0.85863 0.71857 0.41861 0.0
H76 H 0.83517 0.71679 0.46507 0.0
H77 H 0.90252 0.75389 0.47186 0.0
C78 C 0.85685 0.75518 0.41962 0.0
C79 C 0.85354 0.75496 0.40597 0.0
C80 C 0.84121 0.76264 0.40072 0.0
C81 C 0.83166 0.7705 0.40901 0.0
C82 C 0.83552 0.77123 0.42275 0.0
C83 C 0.84809 0.76374 0.428 0.0
C84 C 0.89725 0.75544 0.42124 0.0
C85 C 0.90818 0.74456 0.4214 0.0
C86 C 0.92788 0.7531 0.41685 0.0
C87 C 0.93699 0.7727 0.41201 0.0
C88 C 0.92625 0.78387 0.41227 0.0
C89 C 0.9066 0.77537 0.41694 0.0
C90 C 0.87039 0.74135 0.44341 0.0
C91 C 0.85112 0.7295 0.44832 0.0
C92 C 0.85027 0.72642 0.46164 0.0
C93 C 0.86874 0.73489 0.4703 0.0
C94 C 0.88804 0.74703 0.4654 0.0
C95 C 0.88886 0.75032 0.45207 0.0
P96 P 0.11777 0.26369 0.58303 0.0
H97 H 0.10398 0.27495 0.60666 0.0
H98 H 0.07027 0.26065 0.61529 0.0
H99 H 0.04249 0.21223 0.58227 0.0
H100 H 0.07642 0.22732 0.57343 0.0
H101 H 0.16217 0.27808 0.58535 0.0
H102 H 0.18294 0.26309 0.59338 0.0
H103 H 0.12647 0.20775 0.60077 0.0
H104 H 0.10575 0.22292 0.59273 0.0
H105 H 0.0962 0.27755 0.56528 0.0
H106 H 0.13534 0.25019 0.56188 0.0
O107 O 0.13138 0.28883 0.58919 0.0
H108 H 0.09777 0.28297 0.54197 0.0
H109 H 0.13751 0.25609 0.53877 0.0
C110 C 0.09262 0.25242 0.58929 0.0
C111 C 0.09062 0.26133 0.60122 0.0
C112 C 0.0713 0.25296 0.60623 0.0
C113 C 0.05353 0.23521 0.59952 0.0
C114 C 0.05571 0.22609 0.58762 0.0
C115 C 0.0751 0.23462 0.58256 0.0
C116 C 0.13246 0.25175 0.58859 0.0
C117 C 0.15425 0.2627 0.58868 0.0
C118 C 0.16609 0.25404 0.59318 0.0
C119 C 0.15636 0.23423 0.59773 0.0
C120 C 0.13444 0.22314 0.59746 0.0
C121 C 0.12257 0.23178 0.59284 0.0
C122 C 0.11558 0.26342 0.56535 0.0
C123 C 0.10483 0.27238 0.55947 0.0
C124 C 0.10594 0.27568 0.54616 0.0
C125 C 0.11796 0.27018 0.53849 0.0
C126 C 0.12795 0.26035 0.54431 0.0
C127 C 0.1268 0.25704 0.55761 0.0
P128 P 0.77099 0.87495 0.57914 0.0
H129 H 0.78983 0.89612 0.60542 0.0
H130 H 0.7891 0.9242 0.61878 0.0
H131 H 0.74707 0.92527 0.58803 0.0
H132 H 0.74698 0.89647 0.57513 0.0
H133 H 0.78507 0.84514 0.57487 0.0
H134 H 0.78319 0.81733 0.58726 0.0
H135 H 0.74878 0.83026 0.61532 0.0
H136 H 0.75043 0.85789 0.60275 0.0
H137 H 0.77005 0.89273 0.55489 0.0
H138 H 0.73188 0.83495 0.57113 0.0
O139 O 0.79509 0.88707 0.57457 0.0
H140 H 0.74629 0.87911 0.53447 0.0
H141 H 0.70821 0.82114 0.55062 0.0
C142 C 0.76834 0.89405 0.58934 0.0
C143 C 0.78014 0.90215 0.60169 0.0
C144 C 0.77987 0.91837 0.60925 0.0
C145 C 0.76814 0.92716 0.60447 0.0
C146 C 0.75603 0.91871 0.59215 0.0
C147 C 0.75611 0.90228 0.58467 0.0
C148 C 0.76845 0.85394 0.58812 0.0
C149 C 0.77707 0.84194 0.58367 0.0
C150 C 0.77583 0.82596 0.59069 0.0
C151 C 0.76594 0.82175 0.60229 0.0
C152 C 0.75671 0.83338 0.6065 0.0
C153 C 0.75773 0.84921 0.59935 0.0
C154 C 0.75286 0.86478 0.56443 0.0
C155 C 0.75655 0.87711 0.55404 0.0
C156 C 0.74292 0.86937 0.54243 0.0
C157 C 0.72546 0.84906 0.54098 0.0
C158 C 0.72167 0.83678 0.55146 0.0
C159 C 0.73518 0.84467 0.56317 0.0
P160 P 0.12838 0.8394 0.59319 0.0
H161 H 0.16864 0.86615 0.60901 0.0
H162 H 0.19026 0.90397 0.61438 0.0
H163 H 0.14397 0.9121 0.5921 0.0
H164 H 0.12233 0.87403 0.58668 0.0
H165 H 0.09308 0.79719 0.58806 0.0
H166 H 0.0585 0.77983 0.59565 0.0
H167 H 0.07098 0.83892 0.61544 0.0
H168 H 0.10596 0.85581 0.60845 0.0
H169 H 0.15592 0.8311 0.57801 0.0
H170 H 0.10184 0.83761 0.57011 0.0
O171 O 0.13963 0.828 0.60113 0.0
H172 H 0.15746 0.82581 0.55439 0.0
H173 H 0.10306 0.83202 0.54638 0.0
C174 C 0.14373 0.86727 0.59761 0.0
C175 C 0.16304 0.876 0.60532 0.0
C176 C 0.17548 0.89766 0.60831 0.0
C177 C 0.16881 0.91099 0.60365 0.0
C178 C 0.14941 0.90219 0.59592 0.0
C179 C 0.13706 0.88049 0.59282 0.0
C180 C 0.10202 0.82783 0.59752 0.0
C181 C 0.08825 0.80643 0.59392 0.0
C182 C 0.06837 0.79654 0.59822 0.0
C183 C 0.06178 0.80792 0.60617 0.0
C184 C 0.07554 0.82954 0.6095 0.0
C185 C 0.09555 0.83934 0.60534 0.0
C186 C 0.12851 0.8343 0.57578 0.0
C187 C 0.14417 0.83108 0.57118 0.0
C188 C 0.145 0.828 0.55766 0.0
C189 C 0.13027 0.82832 0.54849 0.0
C190 C 0.11468 0.83177 0.55318 0.0
C191 C 0.11386 0.83481 0.56673 0.0
P192 P 0.98612 0.49742 0.74255 0.0
H193 H 0.97743 0.47518 0.71635 0.0
H194 H 0.95849 0.43807 0.70801 0.0
H195 H 0.94809 0.42228 0.74785 0.0
H196 H 0.96591 0.45921 0.75594 0.0
H197 H 0.99621 0.54066 0.7428 0.0
H198 H 0.97664 0.55689 0.73448 0.0
H199 H 0.92412 0.49573 0.72056 0.0
H200 H 0.94348 0.47961 0.72906 0.0
H201 H 0.01557 0.49533 0.76157 0.0
H202 H 0.9639 0.50652 0.76247 0.0
O203 O 0.00954 0.50924 0.73699 0.0
H204 H 0.01919 0.49764 0.78567 0.0
H205 H 0.96757 0.50903 0.78653 0.0
C206 C 0.97323 0.46998 0.73674 0.0
C207 C 0.9711 0.46366 0.72326 0.0
C208 C 0.96035 0.44242 0.71853 0.0
C209 C 0.95174 0.42708 0.72725 0.0
C210 C 0.95417 0.43358 0.7408 0.0
C211 C 0.96464 0.45482 0.74548 0.0
C212 C 0.97149 0.50899 0.73633 0.0
C213 C 0.9805 0.53078 0.73793 0.0
C214 C 0.96929 0.54001 0.73324 0.0
C215 C 0.94895 0.52754 0.72679 0.0
C216 C 0.9399 0.5057 0.72532 0.0
C217 C 0.951 0.49648 0.73017 0.0
C218 C 0.98978 0.50119 0.76027 0.0
C219 C 0.00522 0.49859 0.76697 0.0
C220 C 0.00715 0.49974 0.78071 0.0
C221 C 0.99369 0.50357 0.78795 0.0
C222 C 0.97833 0.50634 0.7812 0.0
C223 C 0.97626 0.50494 0.76744 0.0
P224 P 0.5745 0.4549 0.77124 0.0
H225 H 0.56316 0.41087 0.7681 0.0
H226 H 0.53225 0.37919 0.75742 0.0
H227 H 0.50535 0.41603 0.7451 0.0
H228 H 0.53642 0.44785 0.75598 0.0
H229 H 0.61272 0.49534 0.77585 0.0
H230 H 0.63622 0.51856 0.76112 0.0
H231 H 0.59348 0.47812 0.72751 0.0
H232 H 0.57039 0.45475 0.74227 0.0
H233 H 0.55259 0.43694 0.7935 0.0
H234 H 0.57593 0.49545 0.77692 0.0
O235 O 0.59036 0.44802 0.77878 0.0
H236 H 0.54058 0.45015 0.81144 0.0
H237 H 0.56402 0.50888 0.79498 0.0
C238 C 0.55213 0.43172 0.76275 0.0
C239 C 0.55069 0.41221 0.76308 0.0
C240 C 0.53295 0.39407 0.75704 0.0
C241 C 0.51638 0.39514 0.75046 0.0
C242 C 0.51796 0.41477 0.75002 0.0
C243 C 0.53564 0.43291 0.75623 0.0
C244 C 0.58964 0.47346 0.76021 0.0
C245 C 0.60823 0.4917 0.76531 0.0
C246 C 0.62163 0.505 0.75686 0.0
C247 C 0.61677 0.50023 0.7431 0.0
C248 C 0.59782 0.48217 0.73804 0.0
C249 C 0.58444 0.46886 0.74652 0.0
C250 C 0.56531 0.46524 0.78395 0.0
C251 C 0.55508 0.45264 0.79371 0.0
C252 C 0.54813 0.46018 0.80393 0.0
C253 C 0.55135 0.48056 0.80462 0.0
C254 C 0.56151 0.49318 0.79476 0.0
C255 C 0.56831 0.48551 0.78443 0.0
P256 P 0.53879 0.07568 0.75625 0.0
H257 H 0.51254 0.06435 0.73135 0.0
H258 H 0.48998 0.07644 0.72193 0.0
H259 H 0.50894 0.12222 0.75593 0.0
H260 H 0.5318 0.11012 0.76525 0.0
H261 H 0.56732 0.06029 0.75183 0.0
H262 H 0.60154 0.07554 0.74373 0.0
H263 H 0.60201 0.1337 0.74141 0.0
H264 H 0.5674 0.11806 0.74935 0.0
H265 H 0.50632 0.06662 0.77359 0.0
H266 H 0.5717 0.08543 0.77778 0.0
O267 O 0.52685 0.05035 0.75059 0.0
H268 H 0.50482 0.06215 0.79699 0.0
H269 H 0.57039 0.08123 0.80123 0.0
C270 C 0.52346 0.08601 0.74913 0.0
C271 C 0.51186 0.07699 0.73679 0.0
C272 C 0.49888 0.08386 0.73144 0.0
C273 C 0.49736 0.10007 0.73827 0.0
C274 C 0.50973 0.1097 0.75041 0.0
C275 C 0.52271 0.10274 0.75579 0.0
C276 C 0.56465 0.08791 0.75097 0.0
C277 C 0.57478 0.07633 0.74959 0.0
C278 C 0.59447 0.08516 0.74505 0.0
C279 C 0.60458 0.10587 0.74187 0.0
C280 C 0.59456 0.11762 0.74358 0.0
C281 C 0.5748 0.10874 0.74817 0.0
C282 C 0.53918 0.07671 0.77394 0.0
C283 C 0.52051 0.07036 0.77962 0.0
C284 C 0.51968 0.0678 0.79303 0.0
C285 C 0.53748 0.07128 0.80102 0.0
C286 C 0.55634 0.0782 0.79535 0.0
C287 C 0.55715 0.08081 0.78193 0.0
P288 P 0.78486 0.59406 0.92111 0.0
H289 H 0.771 0.5865 0.94709 0.0
H290 H 0.73664 0.57096 0.9551 0.0
H291 H 0.70764 0.5577 0.91502 0.0
H292 H 0.74211 0.57274 0.90707 0.0
H293 H 0.82798 0.60632 0.91841 0.0
H294 H 0.84981 0.59165 0.92492 0.0
H295 H 0.79652 0.53975 0.93859 0.0
H296 H 0.77476 0.55448 0.93202 0.0
H297 H 0.78629 0.62731 0.90674 0.0
H298 H 0.78188 0.56764 0.89742 0.0
O299 O 0.79763 0.61787 0.9295 0.0
H300 H 0.78879 0.63341 0.88363 0.0
H301 H 0.78387 0.57336 0.87413 0.0
C302 C 0.75913 0.5808 0.92651 0.0
C303 C 0.75721 0.58005 0.94002 0.0
C304 C 0.73754 0.5713 0.94459 0.0
C305 C 0.71932 0.56325 0.93572 0.0
C306 C 0.72129 0.56358 0.92212 0.0
C307 C 0.74104 0.57229 0.91756 0.0
C308 C 0.79984 0.58166 0.92487 0.0
C309 C 0.82096 0.59167 0.9227 0.0
C310 C 0.83339 0.58321 0.92636 0.0
C311 C 0.82492 0.56458 0.93233 0.0
C312 C 0.80356 0.55427 0.93417 0.0
C313 C 0.79109 0.56269 0.9304 0.0
C314 C 0.78434 0.59723 0.90381 0.0
C315 C 0.78566 0.61542 0.89968 0.0
C316 C 0.78693 0.61881 0.88641 0.0
C317 C 0.78671 0.60395 0.877 0.0
C318 C 0.7845 0.58531 0.88114 0.0
C319 C 0.78325 0.58196 0.89444 0.0
P320 P 0.45228 0.21367 0.91442 0.0
H321 H 0.48273 0.25497 0.9278 0.0
H322 H 0.47909 0.2824 0.93966 0.0
H323 H 0.41184 0.24386 0.93246 0.0
H324 H 0.41562 0.21647 0.92047 0.0
H325 H 0.43901 0.16993 0.90683 0.0
H326 H 0.43262 0.14115 0.91967 0.0
H327 H 0.443 0.18085 0.95552 0.0
H328 H 0.44955 0.20964 0.94263 0.0
H329 H 0.46371 0.22591 0.88837 0.0
H330 H 0.40791 0.18476 0.90558 0.0
O331 O 0.4774 0.22292 0.91233 0.0
H332 H 0.4437 0.21536 0.86663 0.0
H333 H 0.38773 0.17413 0.88381 0.0
C334 C 0.44945 0.23385 0.92306 0.0
C335 C 0.4672 0.25243 0.92871 0.0
C336 C 0.46509 0.26803 0.9356 0.0
C337 C 0.44517 0.26528 0.937 0.0
C338 C 0.42739 0.24652 0.93141 0.0
C339 C 0.42953 0.23087 0.92455 0.0
C340 C 0.44434 0.19178 0.92375 0.0
C341 C 0.43939 0.17228 0.91743 0.0
C342 C 0.43569 0.15582 0.92478 0.0
C343 C 0.43724 0.15873 0.9386 0.0
C344 C 0.44177 0.17819 0.94489 0.0
C345 C 0.44538 0.19461 0.93751 0.0
C346 C 0.43733 0.20585 0.89852 0.0
C347 C 0.44716 0.21451 0.88745 0.0
C348 C 0.43573 0.20844 0.87504 0.0
C349 C 0.4142 0.19379 0.87352 0.0
C350 C 0.40429 0.1855 0.8847 0.0
C351 C 0.4158 0.1915 0.89712 0.0
P352 P 0.79578 0.17649 0.9247 0.0
H353 H 0.82781 0.19844 0.94724 0.0
H354 H 0.85034 0.23558 0.95516 0.0
H355 H 0.81976 0.25142 0.92453 0.0
H356 H 0.79749 0.21424 0.91648 0.0
H357 H 0.76557 0.13366 0.92842 0.0
H358 H 0.73046 0.11719 0.93532 0.0
H359 H 0.73223 0.17639 0.93663 0.0
H360 H 0.76754 0.19283 0.93001 0.0
H361 H 0.83096 0.19168 0.90944 0.0
H362 H 0.76374 0.15792 0.90153 0.0
O363 O 0.80688 0.16375 0.93102 0.0
H364 H 0.83404 0.19011 0.88587 0.0
H365 H 0.76666 0.15577 0.87783 0.0
C366 C 0.81103 0.20362 0.93126 0.0
C367 C 0.82588 0.20987 0.94225 0.0
C368 C 0.8388 0.23108 0.94675 0.0
C369 C 0.83682 0.24633 0.94042 0.0
C370 C 0.82151 0.23997 0.92963 0.0
C371 C 0.80882 0.21877 0.92503 0.0
C372 C 0.76937 0.16455 0.92898 0.0
C373 C 0.7584 0.1431 0.9302 0.0
C374 C 0.73822 0.13366 0.93403 0.0
C375 C 0.72853 0.14549 0.93661 0.0
C376 C 0.73936 0.1669 0.93495 0.0
C377 C 0.75958 0.17632 0.93111 0.0
C378 C 0.79717 0.17493 0.90722 0.0
C379 C 0.81685 0.18384 0.9026 0.0
C380 C 0.81857 0.1828 0.88911 0.0
C381 C 0.80059 0.17267 0.87994 0.0
C382 C 0.78081 0.16383 0.88462 0.0
C383 C 0.77912 0.16494 0.89818 0.0
P384 P 0.64998 0.82763 0.07385 0.0
H385 H 0.6578 0.80631 0.05169 0.0
H386 H 0.64034 0.76963 0.0423 0.0
H387 H 0.59648 0.7533 0.07141 0.0
H388 H 0.6142 0.7899 0.08083 0.0
H389 H 0.65519 0.86898 0.07982 0.0
H390 H 0.63593 0.88547 0.07176 0.0
H391 H 0.59562 0.82976 0.04494 0.0
H392 H 0.61425 0.81312 0.05351 0.0
H393 H 0.67359 0.81771 0.09268 0.0
H394 H 0.62844 0.83805 0.09384 0.0
O395 O 0.67428 0.84043 0.06964 0.0
H396 H 0.67473 0.81682 0.11648 0.0
H397 H 0.63059 0.83874 0.11768 0.0
C398 C 0.63755 0.80066 0.06712 0.0
C399 C 0.64454 0.79478 0.05611 0.0
C400 C 0.63444 0.77386 0.05068 0.0
C401 C 0.61711 0.75855 0.05617 0.0
C402 C 0.61002 0.76465 0.06712 0.0
C403 C 0.62011 0.78555 0.0725 0.0
C404 C 0.63595 0.83972 0.06748 0.0
C405 C 0.64211 0.86031 0.07227 0.0
C406 C 0.63116 0.86977 0.06755 0.0
C407 C 0.61409 0.85893 0.05772 0.0
C408 C 0.60833 0.83842 0.05273 0.0
C409 C 0.61912 0.8289 0.05758 0.0
C410 C 0.6514 0.82848 0.09152 0.0
C411 C 0.66426 0.82243 0.09812 0.0
C412 C 0.66497 0.82206 0.11176 0.0
C413 C 0.65294 0.82795 0.11912 0.0
C414 C 0.63994 0.8339 0.1124 0.0
C415 C 0.63897 0.83388 0.09871 0.0
P416 P 0.24282 0.79305 0.10476 0.0
H417 H 0.23768 0.75416 0.09213 0.0
H418 H 0.20814 0.72369 0.07925 0.0
H419 H 0.17182 0.7545 0.08106 0.0
H420 H 0.20169 0.78516 0.09382 0.0
H421 H 0.28386 0.82938 0.11251 0.0
H422 H 0.31056 0.85435 0.10005 0.0
H423 H 0.26879 0.82472 0.06411 0.0
H424 H 0.24191 0.80028 0.07673 0.0
H425 H 0.21208 0.77158 0.12255 0.0
H426 H 0.25065 0.83528 0.11431 0.0
O427 O 0.25608 0.7837 0.11279 0.0
H428 H 0.19947 0.78356 0.14074 0.0
H429 H 0.23811 0.84741 0.13258 0.0
C430 C 0.22165 0.77165 0.09418 0.0
C431 C 0.22339 0.7544 0.08971 0.0
C432 C 0.20646 0.73696 0.0824 0.0
C433 C 0.18751 0.73655 0.07934 0.0
C434 C 0.18619 0.75435 0.08327 0.0
C435 C 0.20319 0.7718 0.09062 0.0
C436 C 0.26095 0.81297 0.09557 0.0
C437 C 0.28035 0.8285 0.10198 0.0
C438 C 0.29566 0.84264 0.09481 0.0
C439 C 0.29195 0.84138 0.08104 0.0
C440 C 0.27214 0.82625 0.07471 0.0
C441 C 0.25676 0.81217 0.08192 0.0
C442 C 0.23228 0.8025 0.11708 0.0
C443 C 0.21762 0.78814 0.12455 0.0
C444 C 0.21036 0.79501 0.13492 0.0
C445 C 0.21779 0.81644 0.1381 0.0
C446 C 0.23224 0.83081 0.13043 0.0
C447 C 0.23939 0.82388 0.11996 0.0
P448 P 0.19923 0.39242 0.08551 0.0
H449 H 0.18395 0.39368 0.05902 0.0
H450 H 0.16238 0.40733 0.05024 0.0
H451 H 0.16029 0.4302 0.08978 0.0
H452 H 0.18159 0.41608 0.0985 0.0
H453 H 0.23239 0.38243 0.08587 0.0
H454 H 0.26749 0.40011 0.07893 0.0
H455 H 0.26052 0.45296 0.07113 0.0
H456 H 0.22522 0.43493 0.07786 0.0
H457 H 0.17023 0.35768 0.09887 0.0
H458 H 0.22327 0.41946 0.11 0.0
O459 O 0.1892 0.3688 0.0771 0.0
H460 H 0.16763 0.3517 0.12201 0.0
H461 H 0.22077 0.41356 0.13334 0.0
C462 C 0.18412 0.40361 0.0794 0.0
C463 C 0.17883 0.40163 0.0658 0.0
C464 C 0.16661 0.40958 0.06079 0.0
C465 C 0.15952 0.41982 0.0693 0.0
C466 C 0.1652 0.42211 0.08296 0.0
C467 C 0.17748 0.41413 0.08796 0.0
C468 C 0.2261 0.40722 0.0822 0.0
C469 C 0.23852 0.39793 0.08279 0.0
C470 C 0.25866 0.40813 0.07888 0.0
C471 C 0.26683 0.42793 0.07435 0.0
C472 C 0.2546 0.43758 0.07433 0.0
C473 C 0.23442 0.42732 0.07825 0.0
C474 C 0.19721 0.38883 0.10272 0.0
C475 C 0.18139 0.36995 0.10631 0.0
C476 C 0.17996 0.36652 0.11955 0.0
C477 C 0.19418 0.38204 0.12951 0.0
C478 C 0.2096 0.4013 0.1259 0.0
C479 C 0.21112 0.40465 0.11258 0.0
P480 P 0.44791 0.92865 0.25263 0.0
H481 H 0.43152 0.90927 0.27621 0.0
H482 H 0.39681 0.8937 0.28368 0.0
H483 H 0.37158 0.89858 0.24574 0.0
H484 H 0.40649 0.91462 0.23847 0.0
H485 H 0.48975 0.94943 0.26692 0.0
H486 H 0.51289 0.93685 0.27455 0.0
H487 H 0.46661 0.87406 0.25812 0.0
H488 H 0.44309 0.88669 0.25077 0.0
H489 H 0.44363 0.95773 0.23682 0.0
H490 H 0.45476 0.90627 0.23016 0.0
O491 O 0.45691 0.95233 0.26072 0.0
H492 H 0.44814 0.96434 0.21386 0.0
H493 H 0.45974 0.91307 0.20726 0.0
C494 C 0.42159 0.91282 0.25672 0.0
C495 C 0.41842 0.90649 0.26938 0.0
C496 C 0.3985 0.89756 0.27364 0.0
C497 C 0.38132 0.89492 0.26534 0.0
C498 C 0.38447 0.90062 0.25247 0.0
C499 C 0.40444 0.9096 0.24823 0.0
C500 C 0.46461 0.91896 0.25839 0.0
C501 C 0.48442 0.93292 0.26506 0.0
C502 C 0.49766 0.92573 0.26942 0.0
C503 C 0.4915 0.90449 0.26695 0.0
C504 C 0.47174 0.89053 0.2601 0.0
C505 C 0.45831 0.8977 0.25595 0.0
C506 C 0.44929 0.9318 0.23531 0.0
C507 C 0.44706 0.94785 0.23042 0.0
C508 C 0.44974 0.95168 0.2173 0.0
C509 C 0.45464 0.93946 0.20875 0.0
C510 C 0.45595 0.92276 0.21355 0.0
C511 C 0.45323 0.91894 0.22671 0.0
P512 P 0.10918 0.55277 0.24895 0.0
H513 H 0.13353 0.5761 0.27364 0.0
H514 H 0.13316 0.60302 0.28861 0.0
H515 H 0.07982 0.5961 0.26439 0.0
H516 H 0.08008 0.569 0.24961 0.0
H517 H 0.12647 0.52561 0.24469 0.0
H518 H 0.12362 0.49624 0.25558 0.0
H519 H 0.08074 0.50066 0.28058 0.0
H520 H 0.08416 0.53051 0.26977 0.0
H521 H 0.11179 0.57006 0.22403 0.0
H522 H 0.06598 0.51813 0.24227 0.0
O523 O 0.1333 0.56515 0.2444 0.0
H524 H 0.08759 0.55896 0.20402 0.0
H525 H 0.0414 0.50708 0.22231 0.0
C526 C 0.10701 0.57076 0.26048 0.0
C527 C 0.12162 0.58024 0.27166 0.0
C528 C 0.12143 0.59563 0.28016 0.0
C529 C 0.10656 0.60177 0.27761 0.0
C530 C 0.09136 0.59157 0.26667 0.0
C531 C 0.0916 0.57617 0.25815 0.0
C532 C 0.10593 0.53048 0.25665 0.0
C533 C 0.11647 0.52026 0.25252 0.0
C534 C 0.11463 0.50331 0.25867 0.0
C535 C 0.10197 0.49611 0.26898 0.0
C536 C 0.09086 0.50603 0.27281 0.0
C537 C 0.09277 0.52305 0.26664 0.0
C538 C 0.09084 0.54462 0.23448 0.0
C539 C 0.09648 0.55626 0.22372 0.0
C540 C 0.08253 0.55001 0.21233 0.0
C541 C 0.06257 0.53209 0.21156 0.0
C542 C 0.05677 0.52076 0.22253 0.0
C543 C 0.07079 0.52706 0.23394 0.0
P544 P 0.46591 0.51036 0.25788 0.0
H545 H 0.49419 0.53041 0.28216 0.0
H546 H 0.51421 0.56674 0.29217 0.0
H547 H 0.48726 0.58494 0.2607 0.0
H548 H 0.46769 0.54865 0.25061 0.0
H549 H 0.44219 0.47211 0.27031 0.0
H550 H 0.40742 0.45529 0.27771 0.0
H551 H 0.39728 0.50335 0.26343 0.0
H552 H 0.4323 0.52026 0.25614 0.0
H553 H 0.49811 0.53472 0.24134 0.0
H554 H 0.43416 0.48402 0.23569 0.0
O555 O 0.47839 0.49819 0.26299 0.0
H556 H 0.49943 0.53308 0.21754 0.0
H557 H 0.43528 0.4824 0.2118 0.0
C558 C 0.47982 0.53695 0.26552 0.0
C559 C 0.49263 0.54224 0.27742 0.0
C560 C 0.50394 0.563 0.28318 0.0
C561 C 0.50246 0.57879 0.27718 0.0
C562 C 0.48906 0.57324 0.26544 0.0
C563 C 0.47778 0.55249 0.2597 0.0
C564 C 0.43989 0.49754 0.26278 0.0
C565 C 0.4325 0.47903 0.26873 0.0
C566 C 0.41254 0.46934 0.2729 0.0
C567 C 0.39958 0.47799 0.27117 0.0
C568 C 0.40698 0.49645 0.26505 0.0
C569 C 0.42696 0.50609 0.26085 0.0
C570 C 0.4659 0.50984 0.24027 0.0
C571 C 0.48423 0.52347 0.23495 0.0
C572 C 0.48494 0.52254 0.22133 0.0
C573 C 0.4674 0.50772 0.21276 0.0
C574 C 0.44907 0.49395 0.21814 0.0
C575 C 0.44836 0.49497 0.2318 0.0
Tb576 Tb 0.49455 0.98323 0.98812 0.0
Eu577 Eu 0.51127 0.00882 0.01798 0.0
C578 C 0.51799 0.97071 0.00851 0.0
C579 C 0.46797 0.96659 0.01191 0.0
C580 C 0.48781 0.97711 0.95194 0.0
C581 C 0.49372 0.97495 0.92893 0.0
C582 C 0.48836 0.96571 0.94064 0.0
C583 C 0.49269 0.99792 0.95138 0.0
C584 C 0.49792 0.00712 0.93966 0.0
C585 C 0.49859 0.99577 0.92831 0.0
C586 C 0.48299 0.96752 0.96438 0.0
O587 O 0.49601 0.01302 0.9875 0.0
O588 O 0.48809 0.01631 0.00831 0.0
O589 O 0.53333 0.03066 0.00473 0.0
O590 O 0.52793 0.00497 0.98852 0.0
C591 C 0.48826 0.02036 0.99606 0.0
O592 O 0.50542 0.02368 0.03504 0.0
O593 O 0.534 0.02248 0.03553 0.0
O594 O 0.52669 0.98965 0.01475 0.0
O595 O 0.50188 0.96349 0.99949 0.0
O596 O 0.46761 0.97016 0.99949 0.0
O597 O 0.48516 0.9767 0.02004 0.0
C598 C 0.53896 0.02431 0.99425 0.0
O599 O 0.49864 0.96816 0.97135 0.0
O600 O 0.47197 0.97244 0.97171 0.0
C601 C 0.51814 0.01911 0.0554 0.0
C602 C 0.5084 0.0041 0.08017 0.0
C603 C 0.50857 0.02247 0.07733 0.0
C604 C 0.51343 0.0299 0.06509 0.0
C605 C 0.51798 0.00072 0.05813 0.0
C606 C 0.51324 0.99334 0.07042 0.0
C607 C 0.52189 0.0266 0.0423 0.0
H608 H 0.49385 0.9657 0.92033 0.0
H609 H 0.48475 0.94969 0.94088 0.0
H610 H 0.49261 0.00713 0.96002 0.0
H611 H 0.50181 0.02324 0.93956 0.0
H612 H 0.50449 0.03093 0.08446 0.0
H613 H 0.51318 0.04393 0.06312 0.0
H614 H 0.52134 0.99197 0.05074 0.0
H615 H 0.51346 0.97927 0.07229 0.0
Tb616 Tb 0.01131 0.5076 0.9905 0.0
Eu617 Eu 0.98355 0.4942 0.01573 0.0
C618 C 0.02288 0.53912 0.01596 0.0
C619 C 0.02493 0.49083 0.01433 0.0
C620 C 0.02759 0.51582 0.95657 0.0
C621 C 0.03556 0.53047 0.93578 0.0
C622 C 0.03995 0.53232 0.94942 0.0
C623 C 0.01075 0.49731 0.9499 0.0
C624 C 0.00647 0.49536 0.9362 0.0
C625 C 0.01877 0.512 0.92903 0.0
C626 C 0.03214 0.51865 0.97098 0.0
O627 O 0.99127 0.47365 0.98719 0.0
O628 O 0.96432 0.46964 0.99886 0.0
O629 O 0.9725 0.51155 0.00342 0.0
O630 O 0.98161 0.50473 0.98346 0.0
C631 C 0.97188 0.46253 0.98994 0.0
O632 O 0.96563 0.47121 0.02892 0.0
O633 O 0.96852 0.50183 0.03101 0.0
O634 O 0.0137 0.52356 0.02305 0.0
O635 O 0.01964 0.53618 0.00305 0.0
O636 O 0.03119 0.50463 0.00577 0.0
O637 O 0.00586 0.48207 0.01777 0.0
C638 C 0.97066 0.51039 0.9905 0.0
O639 O 0.02579 0.52986 0.97734 0.0
O640 O 0.0284 0.50216 0.97671 0.0
C641 C 0.96705 0.4859 0.05033 0.0
C642 C 0.97591 0.48929 0.07781 0.0
C643 C 0.95611 0.47415 0.07152 0.0
C644 C 0.95171 0.47253 0.05787 0.0
C645 C 0.98693 0.5008 0.05652 0.0
C646 C 0.9913 0.50254 0.07017 0.0
C647 C 0.96218 0.48421 0.03603 0.0
H648 H 0.04544 0.54344 0.93048 0.0
H649 H 0.05295 0.54674 0.95442 0.0
H650 H 0.00085 0.48445 0.95527 0.0
H651 H 0.99332 0.48102 0.93125 0.0
H652 H 0.94395 0.46382 0.07718 0.0
H653 H 0.9363 0.46091 0.05321 0.0
H654 H 0.99905 0.51112 0.05082 0.0
H655 H 0.00679 0.51412 0.07473 0.0
Tb656 Tb 0.50134 0.49749 0.01477 0.0
Eu657 Eu 0.47939 0.50107 0.98678 0.0
C658 C 0.47462 0.45869 0.99441 0.0
C659 C 0.52523 0.50646 0.98921 0.0
C660 C 0.51273 0.49641 0.05038 0.0
C661 C 0.5119 0.486 0.07242 0.0
C662 C 0.51659 0.4851 0.05945 0.0
C663 C 0.50418 0.50875 0.05442 0.0
C664 C 0.49964 0.5098 0.06743 0.0
C665 C 0.50332 0.49831 0.07653 0.0
C666 C 0.51666 0.49431 0.03661 0.0
O667 O 0.50144 0.5268 0.01686 0.0
O668 O 0.50463 0.53331 0.99542 0.0
O669 O 0.45888 0.50123 0.00205 0.0
O670 O 0.46896 0.48672 0.01809 0.0
C671 C 0.50754 0.54001 0.00799 0.0
O672 O 0.47127 0.51864 0.97368 0.0
O673 O 0.46177 0.48639 0.96755 0.0
O674 O 0.46389 0.4674 0.99058 0.0
O675 O 0.4929 0.46988 0.00137 0.0
O676 O 0.52653 0.51019 0.00211 0.0
O677 O 0.50758 0.4993 0.98162 0.0
C678 C 0.45603 0.49235 0.01302 0.0
O679 O 0.50141 0.47855 0.02908 0.0
O680 O 0.52478 0.51133 0.03078 0.0
C681 C 0.47013 0.50876 0.95106 0.0
C682 C 0.48288 0.51469 0.92556 0.0
C683 C 0.46176 0.5068 0.92752 0.0
C684 C 0.45546 0.50387 0.94017 0.0
C685 C 0.4913 0.51715 0.94923 0.0
C686 C 0.49764 0.52017 0.93658 0.0
C687 C 0.46297 0.50347 0.96405 0.0
H688 H 0.51509 0.47715 0.07925 0.0
H689 H 0.52306 0.47541 0.05647 0.0
H690 H 0.50081 0.51738 0.0475 0.0
H691 H 0.49284 0.51923 0.07028 0.0
H692 H 0.45007 0.5026 0.91923 0.0
H693 H 0.43904 0.49729 0.94142 0.0
H694 H 0.5028 0.5208 0.95754 0.0
H695 H 0.51396 0.526 0.93538 0.0
Tb696 Tb 0.16217 0.32136 0.32246 0.0
Eu697 Eu 0.17995 0.35034 0.35137 0.0
C698 C 0.18682 0.31188 0.34381 0.0
C699 C 0.13602 0.30816 0.34673 0.0
C700 C 0.15496 0.30933 0.28647 0.0
C701 C 0.14967 0.3023 0.2626 0.0
C702 C 0.14533 0.29529 0.27502 0.0
C703 C 0.16895 0.33048 0.28539 0.0
C704 C 0.17329 0.33751 0.273 0.0
C705 C 0.16375 0.32351 0.26142 0.0
C706 C 0.15029 0.302 0.29952 0.0
O707 O 0.16187 0.34998 0.31993 0.0
O708 O 0.15738 0.3579 0.34099 0.0
O709 O 0.2011 0.37062 0.33716 0.0
O710 O 0.19533 0.34343 0.32203 0.0
C711 C 0.1556 0.35925 0.32833 0.0
O712 O 0.1748 0.36686 0.36785 0.0
O713 O 0.20315 0.36527 0.36866 0.0
O714 O 0.19582 0.33145 0.34895 0.0
O715 O 0.1699 0.30348 0.33536 0.0
O716 O 0.13551 0.30966 0.33399 0.0
O717 O 0.15337 0.31912 0.35465 0.0
C718 C 0.2064 0.36319 0.327 0.0
O719 O 0.16604 0.30382 0.30706 0.0
O720 O 0.13956 0.30843 0.30597 0.0
C721 C 0.1871 0.36252 0.38853 0.0
C722 C 0.17613 0.34649 0.413 0.0
C723 C 0.16985 0.36017 0.40835 0.0
C724 C 0.17536 0.36814 0.39631 0.0
C725 C 0.19369 0.34912 0.39321 0.0
C726 C 0.18834 0.34128 0.40532 0.0
C727 C 0.1911 0.36969 0.37529 0.0
H728 H 0.14174 0.29113 0.25393 0.0
H729 H 0.13439 0.27893 0.27567 0.0
H730 H 0.17654 0.34157 0.29415 0.0
H731 H 0.18428 0.35388 0.27253 0.0
H732 H 0.16018 0.36432 0.41384 0.0
H733 H 0.16998 0.37835 0.39291 0.0
H734 H 0.20274 0.34443 0.38745 0.0
H735 H 0.19377 0.33109 0.40865 0.0
Tb736 Tb 0.67281 0.83679 0.32228 0.0
Eu737 Eu 0.64971 0.83484 0.34904 0.0
C738 C 0.688 0.87609 0.34216 0.0
C739 C 0.68762 0.82586 0.34877 0.0
C740 C 0.68605 0.83676 0.28762 0.0
C741 C 0.69774 0.8459 0.26617 0.0
C742 C 0.70208 0.8478 0.27982 0.0
C743 C 0.66549 0.82385 0.28164 0.0
C744 C 0.66113 0.82183 0.26795 0.0
C745 C 0.67724 0.83279 0.26005 0.0
C746 C 0.69115 0.83916 0.30195 0.0
O747 O 0.64232 0.80867 0.31897 0.0
O748 O 0.63914 0.80191 0.3404 0.0
O749 O 0.62939 0.83737 0.33304 0.0
O750 O 0.65163 0.84818 0.31678 0.0
C751 C 0.63429 0.7955 0.32774 0.0
O752 O 0.6234 0.81887 0.36058 0.0
O753 O 0.64962 0.8493 0.36822 0.0
O754 O 0.66882 0.86837 0.34513 0.0
O755 O 0.69375 0.8639 0.3362 0.0
O756 O 0.68379 0.82196 0.33585 0.0
O757 O 0.67892 0.83437 0.35571 0.0
C758 C 0.63443 0.84498 0.32175 0.0
O759 O 0.69164 0.85513 0.30847 0.0
O760 O 0.68175 0.82229 0.30784 0.0
C761 C 0.63247 0.82616 0.3836 0.0
C762 C 0.6361 0.81692 0.4095 0.0
C763 C 0.62178 0.82325 0.40563 0.0
C764 C 0.62001 0.82786 0.39277 0.0
C765 C 0.64619 0.81906 0.38722 0.0
C766 C 0.64798 0.81445 0.40009 0.0
C767 C 0.63214 0.83329 0.37063 0.0
H768 H 0.71044 0.8549 0.26044 0.0
H769 H 0.718 0.85798 0.2843 0.0
H770 H 0.65287 0.8153 0.28754 0.0
H771 H 0.64521 0.81148 0.26356 0.0
H772 H 0.61225 0.82506 0.41262 0.0
H773 H 0.60933 0.8333 0.39009 0.0
H774 H 0.65598 0.81776 0.38023 0.0
H775 H 0.65931 0.80984 0.40281 0.0
Tb776 Tb 0.17084 0.83871 0.35178 0.0
Eu777 Eu 0.15017 0.84509 0.32423 0.0
C778 C 0.14402 0.80125 0.33038 0.0
C779 C 0.19521 0.84822 0.32662 0.0
C780 C 0.17884 0.83033 0.38654 0.0
C781 C 0.1839 0.82277 0.40875 0.0
C782 C 0.19008 0.82595 0.39605 0.0
C783 C 0.16106 0.83097 0.38975 0.0
C784 C 0.15483 0.82775 0.40239 0.0
C785 C 0.16638 0.82396 0.41212 0.0
C786 C 0.18644 0.8356 0.37363 0.0
O787 O 0.18715 0.87159 0.34862 0.0
O788 O 0.15935 0.87268 0.33906 0.0
O789 O 0.12388 0.83195 0.33697 0.0
O790 O 0.143 0.83908 0.35722 0.0
C791 C 0.17766 0.88203 0.346 0.0
O792 O 0.15056 0.8658 0.31003 0.0
O793 O 0.1277 0.83271 0.30656 0.0
O794 O 0.14924 0.81439 0.32148 0.0
O795 O 0.14657 0.8078 0.34295 0.0
O796 O 0.19052 0.83784 0.33701 0.0
O797 O 0.18386 0.8558 0.3218 0.0
C798 C 0.12535 0.83338 0.34991 0.0
O799 O 0.17778 0.82061 0.36392 0.0
O800 O 0.18821 0.8529 0.37013 0.0
C801 C 0.1426 0.8499 0.28825 0.0
C802 C 0.15478 0.84907 0.26278 0.0
C803 C 0.13595 0.8487 0.2646 0.0
C804 C 0.12995 0.84918 0.27726 0.0
C805 C 0.16126 0.85004 0.28648 0.0
C806 C 0.16734 0.84971 0.27387 0.0
C807 C 0.13647 0.85051 0.30158 0.0
H808 H 0.19327 0.8201 0.41604 0.0
H809 H 0.20393 0.82553 0.39376 0.0
H810 H 0.15234 0.83453 0.38256 0.0
H811 H 0.1411 0.82848 0.40458 0.0
H812 H 0.12603 0.84832 0.25624 0.0
H813 H 0.11548 0.84903 0.27848 0.0
H814 H 0.17114 0.8504 0.29485 0.0
H815 H 0.18174 0.84967 0.27277 0.0
Tb816 Tb 0.82482 0.64647 0.65646 0.0
Eu817 Eu 0.84041 0.67325 0.68626 0.0
C818 C 0.84433 0.63309 0.67951 0.0
C819 C 0.79475 0.63226 0.67846 0.0
C820 C 0.82019 0.63944 0.62045 0.0
C821 C 0.82816 0.63865 0.59782 0.0
C822 C 0.82234 0.62891 0.60932 0.0
C823 C 0.82386 0.65986 0.61995 0.0
C824 C 0.82953 0.66956 0.60843 0.0
C825 C 0.83188 0.65911 0.59726 0.0
C826 C 0.81598 0.62987 0.63288 0.0
O827 O 0.81145 0.66675 0.6575 0.0
O828 O 0.83499 0.69333 0.67303 0.0
O829 O 0.86903 0.6851 0.67536 0.0
O830 O 0.85206 0.67627 0.65443 0.0
C831 C 0.82008 0.68604 0.6632 0.0
O832 O 0.8354 0.69017 0.70262 0.0
O833 O 0.86225 0.68592 0.70415 0.0
O834 O 0.83902 0.64278 0.68826 0.0
O835 O 0.84346 0.63565 0.66695 0.0
O836 O 0.80163 0.62593 0.66862 0.0
O837 O 0.80564 0.65127 0.68467 0.0
C838 C 0.86921 0.68632 0.66261 0.0
O839 O 0.83259 0.63362 0.64035 0.0
O840 O 0.80279 0.63211 0.63969 0.0
C841 C 0.84571 0.68428 0.72336 0.0
C842 C 0.83497 0.66987 0.74812 0.0
C843 C 0.84142 0.69075 0.74623 0.0
C844 C 0.84678 0.69789 0.73395 0.0
C845 C 0.83916 0.6634 0.72516 0.0
C846 C 0.83394 0.65629 0.73745 0.0
C847 C 0.85085 0.69176 0.71038 0.0
H848 H 0.82965 0.63013 0.58934 0.0
H849 H 0.81983 0.61326 0.60957 0.0
H850 H 0.82269 0.66845 0.62853 0.0
H851 H 0.83253 0.68541 0.60835 0.0
H852 H 0.84255 0.70163 0.75429 0.0
H853 H 0.85171 0.71403 0.73272 0.0
H854 H 0.83799 0.65257 0.71705 0.0
H855 H 0.82877 0.64006 0.73853 0.0
Tb856 Tb 0.33831 0.17264 0.65661 0.0
Eu857 Eu 0.30983 0.15566 0.68114 0.0
C858 C 0.3491 0.20155 0.6832 0.0
C859 C 0.35182 0.15422 0.67919 0.0
C860 C 0.35526 0.18267 0.62312 0.0
C861 C 0.36622 0.19478 0.60203 0.0
C862 C 0.37052 0.19632 0.61566 0.0
C863 C 0.33564 0.16728 0.61681 0.0
C864 C 0.33134 0.16566 0.60314 0.0
C865 C 0.34655 0.17953 0.59563 0.0
C866 C 0.35973 0.18536 0.63749 0.0
O867 O 0.31836 0.13873 0.65192 0.0
O868 O 0.2908 0.13302 0.66344 0.0
O869 O 0.29777 0.17342 0.67009 0.0
O870 O 0.30895 0.17075 0.64999 0.0
C871 C 0.29873 0.12708 0.65415 0.0
O872 O 0.29237 0.13081 0.69332 0.0
O873 O 0.29504 0.1611 0.6975 0.0
O874 O 0.33934 0.18503 0.68945 0.0
O875 O 0.34667 0.20013 0.67028 0.0
O876 O 0.35819 0.16979 0.67194 0.0
O877 O 0.33217 0.14336 0.68139 0.0
C878 C 0.29712 0.17469 0.65733 0.0
O879 O 0.35243 0.19565 0.64388 0.0
O880 O 0.35652 0.16881 0.64298 0.0
C881 C 0.29719 0.14415 0.71545 0.0
C882 C 0.31229 0.14717 0.74188 0.0
C883 C 0.29065 0.13705 0.738 0.0
C884 C 0.28315 0.13555 0.72485 0.0
C885 C 0.31876 0.15417 0.71926 0.0
C886 C 0.32624 0.15573 0.73236 0.0
C887 C 0.28964 0.14306 0.7017 0.0
H888 H 0.37832 0.2055 0.59648 0.0
H889 H 0.38572 0.20831 0.62041 0.0
H890 H 0.32361 0.15674 0.62247 0.0
H891 H 0.316 0.15387 0.59849 0.0
H892 H 0.27953 0.13019 0.7451 0.0
H893 H 0.26645 0.12775 0.72202 0.0
H894 H 0.32982 0.16097 0.71211 0.0
H895 H 0.34299 0.16401 0.73507 0.0
Tb896 Tb 0.83636 0.16576 0.68194 0.0
Eu897 Eu 0.81646 0.17203 0.65417 0.0
C898 C 0.81216 0.12854 0.65993 0.0
C899 C 0.86137 0.17591 0.65689 0.0
C900 C 0.84622 0.16309 0.71748 0.0
C901 C 0.84483 0.15257 0.73949 0.0
C902 C 0.84924 0.15124 0.72651 0.0
C903 C 0.83865 0.17629 0.72155 0.0
C904 C 0.83436 0.17774 0.73457 0.0
C905 C 0.83738 0.16588 0.74371 0.0
C906 C 0.85018 0.16084 0.70374 0.0
O907 O 0.83641 0.19495 0.68546 0.0
O908 O 0.84053 0.20363 0.66447 0.0
O909 O 0.79612 0.17278 0.66935 0.0
O910 O 0.80339 0.15445 0.68395 0.0
C911 C 0.84259 0.20903 0.67716 0.0
O912 O 0.81815 0.19213 0.63913 0.0
O913 O 0.79297 0.16004 0.63705 0.0
O914 O 0.80192 0.13747 0.65555 0.0
O915 O 0.8293 0.13907 0.66809 0.0
O916 O 0.86229 0.17937 0.66978 0.0
O917 O 0.84381 0.16874 0.64923 0.0
C918 C 0.79173 0.16199 0.67954 0.0
O919 O 0.83451 0.14579 0.69604 0.0
O920 O 0.85947 0.17801 0.69813 0.0
C921 C 0.80771 0.17412 0.61792 0.0
C922 C 0.81898 0.17014 0.59252 0.0
C923 C 0.80615 0.17879 0.59471 0.0
C924 C 0.80058 0.18078 0.60733 0.0
C925 C 0.82041 0.16541 0.61578 0.0
C926 C 0.82603 0.16349 0.60323 0.0
C927 C 0.80278 0.17699 0.6313 0.0
H928 H 0.84695 0.1429 0.74617 0.0
H929 H 0.85481 0.14078 0.72347 0.0
H930 H 0.83603 0.18543 0.71466 0.0
H931 H 0.82886 0.18831 0.73749 0.0
H932 H 0.80029 0.18387 0.58665 0.0
H933 H 0.79082 0.1876 0.60883 0.0
H934 H 0.82615 0.16029 0.62387 0.0
H935 H 0.83622 0.1571 0.60197 0.0
H936 H 0.28957 0.86073 0.05951 0.0
H937 H 0.31793 0.88231 0.04659 0.0
H938 H 0.36126 0.87434 0.07214 0.0
H939 H 0.33312 0.85262 0.08492 0.0
H940 H 0.37718 0.91469 0.0675 0.0
H941 H 0.34186 0.84663 0.04196 0.0
H942 H 0.31144 0.81549 0.02967 0.0
H943 H 0.30403 0.85403 0.00289 0.0
H944 H 0.33427 0.88545 0.01514 0.0
H945 H 0.46456 0.94586 0.03333 0.0
H946 H 0.43314 0.92463 0.04379 0.0
H947 H 0.39612 0.93362 0.01356 0.0
H948 H 0.4276 0.95434 0.00273 0.0
H949 H 0.37524 0.89512 0.0199 0.0
H950 H 0.41342 0.96303 0.04423 0.0
H951 H 0.44404 0.9939 0.05658 0.0
H952 H 0.44571 0.95616 0.0861 0.0
H953 H 0.41562 0.92495 0.07372 0.0
C954 C 0.30512 0.86348 0.06232 0.0
C955 C 0.30907 0.855 0.0733 0.0
C956 C 0.32131 0.87584 0.05495 0.0
C957 C 0.34169 0.87985 0.05838 0.0
C958 C 0.34568 0.87156 0.06937 0.0
C959 C 0.32956 0.85921 0.07671 0.0
C960 C 0.35902 0.89263 0.05058 0.0
C961 C 0.37686 0.91035 0.05712 0.0
C962 C 0.35828 0.88729 0.03694 0.0
C963 C 0.34016 0.86841 0.02956 0.0
C964 C 0.33364 0.84848 0.03352 0.0
C965 C 0.31645 0.83078 0.02655 0.0
C966 C 0.30577 0.83279 0.01553 0.0
C967 C 0.31229 0.8525 0.01144 0.0
C968 C 0.32946 0.87026 0.01839 0.0
C969 C 0.4497 0.94316 0.02883 0.0
C970 C 0.44854 0.95192 0.01728 0.0
C971 C 0.43175 0.93111 0.03486 0.0
C972 C 0.41234 0.92802 0.02969 0.0
C973 C 0.41096 0.93595 0.0178 0.0
C974 C 0.42893 0.94775 0.01161 0.0
C975 C 0.39369 0.91695 0.0369 0.0
C976 C 0.37556 0.89963 0.03025 0.0
C977 C 0.39415 0.9227 0.05047 0.0
C978 C 0.41232 0.94156 0.05796 0.0
C979 C 0.42045 0.96125 0.05328 0.0
C980 C 0.43776 0.97882 0.06028 0.0
C981 C 0.44691 0.97698 0.07208 0.0
C982 C 0.43875 0.95757 0.07691 0.0
C983 C 0.42157 0.93992 0.0699 0.0
H984 H 0.46025 0.99061 0.07752 0.0
H985 H 0.29247 0.81906 0.01015 0.0
H986 H 0.12525 0.41816 0.07923 0.0
H987 H 0.10286 0.43072 0.07005 0.0
H988 H 0.14043 0.45145 0.03776 0.0
H989 H 0.1633 0.43963 0.04712 0.0
H990 H 0.13192 0.48019 0.04692 0.0
H991 H 0.09219 0.40637 0.03392 0.0
H992 H 0.07469 0.36902 0.03723 0.0
H993 H 0.03447 0.37728 0.06233 0.0
H994 H 0.05194 0.41476 0.05932 0.0
H995 H 0.06175 0.49708 0.00583 0.0
H996 H 0.08509 0.48581 0.01523 0.0
H997 H 0.0453 0.46064 0.04609 0.0
H998 H 0.02154 0.47114 0.03645 0.0
H999 H 0.05514 0.4339 0.03754 0.0
H1000 H 0.09578 0.50853 0.0504 0.0
H1001 H 0.11545 0.54619 0.04798 0.0
H1002 H 0.15485 0.53633 0.02296 0.0
H1003 H 0.13524 0.49858 0.02508 0.0
C1004 C 0.12889 0.42559 0.07025 0.0
C1005 C 0.14606 0.42782 0.0639 0.0
C1006 C 0.11591 0.43255 0.06493 0.0
C1007 C 0.11976 0.44176 0.0531 0.0
C1008 C 0.13706 0.44428 0.04685 0.0
C1009 C 0.15004 0.43737 0.05217 0.0
C1010 C 0.106 0.44912 0.04733 0.0
C1011 C 0.11514 0.47 0.0447 0.0
C1012 C 0.08407 0.43596 0.04469 0.0
C1013 C 0.07352 0.41342 0.0465 0.0
C1014 C 0.07973 0.40026 0.04023 0.0
C1015 C 0.06979 0.37906 0.04204 0.0
C1016 C 0.05351 0.37079 0.05001 0.0
C1017 C 0.0471 0.38371 0.05617 0.0
C1018 C 0.057 0.40493 0.05441 0.0
C1019 C 0.05805 0.48927 0.01467 0.0
C1020 C 0.03975 0.485 0.02037 0.0
C1021 C 0.0715 0.48292 0.0201 0.0
C1022 C 0.06719 0.47257 0.03151 0.0
C1023 C 0.04902 0.46854 0.03729 0.0
C1024 C 0.03543 0.4746 0.03176 0.0
C1025 C 0.08103 0.46514 0.03718 0.0
C1026 C 0.0719 0.44417 0.03976 0.0
C1027 C 0.10302 0.47822 0.03972 0.0
C1028 C 0.11393 0.50071 0.03782 0.0
C1029 C 0.10845 0.51435 0.04424 0.0
C1030 C 0.11964 0.53574 0.04295 0.0
C1031 C 0.13643 0.54364 0.03534 0.0
C1032 C 0.14187 0.53018 0.02886 0.0
C1033 C 0.13072 0.5088 0.0301 0.0
H1034 H 0.14536 0.56021 0.03451 0.0
H1035 H 0.04583 0.35437 0.05139 0.0
H1036 H 0.60312 0.72413 0.06947 0.0
H1037 H 0.585 0.68744 0.06024 0.0
H1038 H 0.58926 0.70586 0.02094 0.0
H1039 H 0.6069 0.74266 0.03013 0.0
H1040 H 0.55062 0.67383 0.02357 0.0
H1041 H 0.62105 0.68942 0.03311 0.0
H1042 H 0.6547 0.70264 0.04668 0.0
H1043 H 0.62402 0.65787 0.07384 0.0
H1044 H 0.59011 0.64457 0.06053 0.0
H1045 H 0.52112 0.57217 0.99259 0.0
H1046 H 0.54009 0.6097 0.99994 0.0
H1047 H 0.53744 0.59668 0.04045 0.0
H1048 H 0.51864 0.55922 0.03323 0.0
H1049 H 0.57644 0.62651 0.03593 0.0
H1050 H 0.50579 0.6121 0.02676 0.0
H1051 H 0.47224 0.59894 0.01308 0.0
H1052 H 0.5037 0.64156 0.98496 0.0
H1053 H 0.53751 0.65478 0.99839 0.0
C1054 C 0.60007 0.72038 0.05886 0.0
C1055 C 0.60645 0.73629 0.05053 0.0
C1056 C 0.5899 0.69942 0.0536 0.0
C1057 C 0.58601 0.69395 0.0399 0.0
C1058 C 0.5922 0.70977 0.03154 0.0
C1059 C 0.60242 0.73077 0.0368 0.0
C1060 C 0.5752 0.67167 0.03437 0.0
C1061 C 0.55644 0.66354 0.02609 0.0
C1062 C 0.58262 0.65821 0.03785 0.0
C1063 C 0.603 0.66613 0.04588 0.0
C1064 C 0.62145 0.6825 0.04203 0.0
C1065 C 0.64057 0.68999 0.04967 0.0
C1066 C 0.64149 0.68113 0.06113 0.0
C1067 C 0.62328 0.66473 0.06496 0.0
C1068 C 0.60411 0.6572 0.05737 0.0
C1069 C 0.52449 0.57729 0.00306 0.0
C1070 C 0.51833 0.5627 0.01232 0.0
C1071 C 0.53529 0.59873 0.00724 0.0
C1072 C 0.54006 0.60594 0.02074 0.0
C1073 C 0.53392 0.59143 0.02999 0.0
C1074 C 0.52309 0.57001 0.02583 0.0
C1075 C 0.55174 0.62863 0.02528 0.0
C1076 C 0.5707 0.63683 0.03335 0.0
C1077 C 0.54452 0.64215 0.02158 0.0
C1078 C 0.5242 0.63426 0.01351 0.0
C1079 C 0.50558 0.61854 0.01761 0.0
C1080 C 0.48651 0.6111 0.00991 0.0
C1081 C 0.48584 0.61937 0.99814 0.0
C1082 C 0.50425 0.63514 0.99407 0.0
C1083 C 0.52336 0.64263 0.00172 0.0
H1084 H 0.47107 0.61359 0.99219 0.0
H1085 H 0.65631 0.68694 0.06703 0.0
H1086 H 0.82639 0.27634 0.94556 0.0
H1087 H 0.84997 0.31351 0.95291 0.0
H1088 H 0.90293 0.30427 0.95218 0.0
H1089 H 0.87928 0.26696 0.94529 0.0
H1090 H 0.90853 0.32819 0.9731 0.0
H1091 H 0.88931 0.32817 0.92778 0.0
H1092 H 0.86559 0.31995 0.90752 0.0
H1093 H 0.83887 0.35362 0.92581 0.0
H1094 H 0.86224 0.36179 0.94625 0.0
H1095 H 0.98389 0.43722 0.97732 0.0
H1096 H 0.96141 0.4008 0.96767 0.0
H1097 H 0.90696 0.40319 0.9776 0.0
H1098 H 0.92928 0.43945 0.98744 0.0
H1099 H 0.90354 0.38346 0.95124 0.0
H1100 H 0.92328 0.38185 0.99703 0.0
H1101 H 0.94874 0.39069 0.01646 0.0
H1102 H 0.97677 0.36045 0.99568 0.0
H1103 H 0.95165 0.35171 0.97604 0.0
C1104 C 0.84307 0.28231 0.94694 0.0
C1105 C 0.85104 0.26883 0.94486 0.0
C1106 C 0.85656 0.30356 0.95107 0.0
C1107 C 0.8783 0.31182 0.95289 0.0
C1108 C 0.88624 0.2983 0.95086 0.0
C1109 C 0.87274 0.277 0.94693 0.0
C1110 C 0.89274 0.33445 0.95719 0.0
C1111 C 0.90761 0.34022 0.96816 0.0
C1112 C 0.89147 0.35027 0.95087 0.0
C1113 C 0.8774 0.34542 0.93859 0.0
C1114 C 0.87827 0.33369 0.92752 0.0
C1115 C 0.86491 0.32906 0.916 0.0
C1116 C 0.8507 0.33621 0.91539 0.0
C1117 C 0.84987 0.34806 0.9263 0.0
C1118 C 0.86318 0.35271 0.93785 0.0
C1119 C 0.96712 0.43005 0.97734 0.0
C1120 C 0.95835 0.44113 0.98321 0.0
C1121 C 0.95433 0.40926 0.97185 0.0
C1122 C 0.93258 0.39935 0.97201 0.0
C1123 C 0.92372 0.41061 0.97741 0.0
C1124 C 0.93651 0.43127 0.98307 0.0
C1125 C 0.91908 0.37695 0.96709 0.0
C1126 C 0.90444 0.3713 0.95606 0.0
C1127 C 0.92077 0.36125 0.97319 0.0
C1128 C 0.93574 0.36633 0.98503 0.0
C1129 C 0.93499 0.37725 0.99657 0.0
C1130 C 0.94934 0.38221 0.00762 0.0
C1131 C 0.96441 0.37619 0.00729 0.0
C1132 C 0.96512 0.36514 0.99591 0.0
C1133 C 0.95082 0.36016 0.98482 0.0
H1134 H 0.9755 0.38005 0.01586 0.0
H1135 H 0.84037 0.33262 0.90646 0.0
H1136 H 0.68168 0.52892 0.92554 0.0
H1137 H 0.64758 0.51632 0.93378 0.0
H1138 H 0.67576 0.56672 0.96543 0.0
H1139 H 0.70975 0.57953 0.95722 0.0
H1140 H 0.64894 0.52865 0.97396 0.0
H1141 H 0.64612 0.56991 0.93872 0.0
H1142 H 0.6495 0.57785 0.91565 0.0
H1143 H 0.60398 0.51387 0.90207 0.0
H1144 H 0.60028 0.50562 0.92508 0.0
H1145 H 0.56579 0.53321 0.99915 0.0
H1146 H 0.59731 0.54024 0.98913 0.0
H1147 H 0.55952 0.49566 0.95558 0.0
H1148 H 0.52784 0.48941 0.9653 0.0
H1149 H 0.58978 0.52611 0.94685 0.0
H1150 H 0.58716 0.48505 0.98094 0.0
H1151 H 0.58382 0.47392 0.00325 0.0
H1152 H 0.63923 0.53168 0.01833 0.0
H1153 H 0.64275 0.54329 0.99613 0.0
C1154 C 0.6806 0.53742 0.9342 0.0
C1155 C 0.69851 0.55524 0.94072 0.0
C1156 C 0.66109 0.53017 0.93891 0.0
C1157 C 0.65909 0.54066 0.95018 0.0
C1158 C 0.67694 0.55831 0.95676 0.0
C1159 C 0.6964 0.56557 0.95206 0.0
C1160 C 0.63845 0.53349 0.95516 0.0
C1161 C 0.63604 0.52826 0.9681 0.0
C1162 C 0.62133 0.53206 0.94732 0.0
C1163 C 0.62295 0.53717 0.93357 0.0
C1164 C 0.63682 0.55758 0.9308 0.0
C1165 C 0.63879 0.56212 0.91774 0.0
C1166 C 0.627 0.54636 0.9074 0.0
C1167 C 0.61315 0.52604 0.91009 0.0
C1168 C 0.61102 0.52145 0.92313 0.0
C1169 C 0.56419 0.52487 0.98965 0.0
C1170 C 0.54432 0.51063 0.98307 0.0
C1171 C 0.58225 0.5288 0.98394 0.0
C1172 C 0.58093 0.5181 0.97171 0.0
C1173 C 0.56105 0.50407 0.96504 0.0
C1174 C 0.54293 0.50047 0.97062 0.0
C1175 C 0.60032 0.52181 0.96591 0.0
C1176 C 0.60252 0.5263 0.95277 0.0
C1177 C 0.61711 0.52203 0.9735 0.0
C1178 C 0.61512 0.51511 0.98688 0.0
C1179 C 0.59855 0.49544 0.98903 0.0
C1180 C 0.59664 0.48904 0.00166 0.0
C1181 C 0.61128 0.5021 0.01221 0.0
C1182 C 0.6279 0.52158 0.01015 0.0
C1183 C 0.62987 0.52807 0.99754 0.0
H1184 H 0.60977 0.49712 0.02198 0.0
H1185 H 0.62855 0.5499 0.8973 0.0
H1186 H 0.40916 0.1166 0.93454 0.0
H1187 H 0.41024 0.08919 0.94606 0.0
H1188 H 0.46458 0.13627 0.97134 0.0
H1189 H 0.46341 0.16354 0.96005 0.0
H1190 H 0.43875 0.07898 0.94667 0.0
H1191 H 0.46908 0.12146 1.00047 0.0
H1192 H 0.46281 0.14429 0.01584 0.0
H1193 H 0.40222 0.12154 0.99488 0.0
H1194 H 0.40798 0.09834 0.97949 0.0
H1195 H 0.50133 0.04619 0.97697 0.0
H1196 H 0.48657 0.06672 0.96883 0.0
H1197 H 0.44074 0.04367 0.99666 0.0
H1198 H 0.45644 0.02404 0.00541 0.0
H1199 H 0.45232 0.082 0.99509 0.0
H1200 H 0.42844 0.02362 0.96301 0.0
H1201 H 0.43198 0.99817 0.94823 0.0
H1202 H 0.47213 0.04724 0.92605 0.0
H1203 H 0.46907 0.07305 0.9408 0.0
C1204 C 0.42113 0.12106 0.94269 0.0
C1205 C 0.43617 0.14221 0.94643 0.0
C1206 C 0.42172 0.10541 0.94926 0.0
C1207 C 0.43735 0.11066 0.95966 0.0
C1208 C 0.45204 0.13182 0.96359 0.0
C1209 C 0.45138 0.14743 0.9571 0.0
C1210 C 0.43973 0.09421 0.96563 0.0
C1211 C 0.44144 0.07947 0.95726 0.0
C1212 C 0.44267 0.09442 0.97945 0.0
C1213 C 0.43903 0.10823 0.98877 0.0
C1214 C 0.45437 0.12123 0.99918 0.0
C1215 C 0.45091 0.13426 0.00789 0.0
C1216 C 0.43215 0.1344 0.00632 0.0
C1217 C 0.41678 0.12147 0.99606 0.0
C1218 C 0.42014 0.1084 0.98733 0.0
C1219 C 0.48818 0.04561 0.9814 0.0
C1220 C 0.47989 0.03348 0.99173 0.0
C1221 C 0.47964 0.0572 0.97667 0.0
C1222 C 0.46211 0.05623 0.98185 0.0
C1223 C 0.45415 0.04453 0.99244 0.0
C1224 C 0.46309 0.03334 0.99743 0.0
C1225 C 0.45229 0.06752 0.97611 0.0
C1226 C 0.44917 0.08123 0.98451 0.0
C1227 C 0.44737 0.06588 0.96233 0.0
C1228 C 0.44855 0.05029 0.95305 0.0
C1229 C 0.43803 0.02899 0.95498 0.0
C1230 C 0.43998 0.01451 0.94662 0.0
C1231 C 0.45229 0.02109 0.93622 0.0
C1232 C 0.46259 0.04216 0.93411 0.0
C1233 C 0.4607 0.05673 0.94245 0.0
H1234 H 0.45382 0.00985 0.92979 0.0
H1235 H 0.42951 0.14451 0.01307 0.0
H1236 H 0.71503 0.16192 0.95587 0.0
H1237 H 0.68157 0.14466 0.96505 0.0
H1238 H 0.6615 0.08927 0.93807 0.0
H1239 H 0.6946 0.1067 0.92848 0.0
H1240 H 0.62976 0.09657 0.94085 0.0
H1241 H 0.68175 0.09332 0.96966 0.0
H1242 H 0.71515 0.10789 0.98378 0.0
H1243 H 0.69761 0.144 0.00889 0.0
H1244 H 0.6642 0.12984 0.9948 0.0
H1245 H 0.55469 0.01595 0.97277 0.0
H1246 H 0.58559 0.03981 0.96287 0.0
H1247 H 0.59732 0.08998 0.99226 0.0
H1248 H 0.56633 0.06596 0.00247 0.0
H1249 H 0.6325 0.08887 0.98862 0.0
H1250 H 0.57796 0.08799 0.96088 0.0
H1251 H 0.54426 0.07187 0.94691 0.0
H1252 H 0.56603 0.04225 0.91977 0.0
H1253 H 0.59978 0.05791 0.93368 0.0
C1254 C 0.70335 0.14622 0.95169 0.0
C1255 C 0.70758 0.13563 0.9415 0.0
C1256 C 0.68429 0.13631 0.95704 0.0
C1257 C 0.66915 0.11556 0.95239 0.0
C1258 C 0.67298 0.10526 0.94186 0.0
C1259 C 0.692 0.11517 0.93648 0.0
C1260 C 0.64982 0.10416 0.95892 0.0
C1261 C 0.63034 0.09478 0.95127 0.0
C1262 C 0.65056 0.10223 0.97259 0.0
C1263 C 0.6706 0.11071 0.98109 0.0
C1264 C 0.6851 0.10449 0.97813 0.0
C1265 C 0.70401 0.11266 0.98614 0.0
C1266 C 0.70853 0.12692 0.99721 0.0
C1267 C 0.69411 0.13299 1.0003 0.0
C1268 C 0.67518 0.1249 0.99231 0.0
C1269 C 0.56376 0.03205 0.97719 0.0
C1270 C 0.55799 0.03903 0.98844 0.0
C1271 C 0.58139 0.04572 0.97142 0.0
C1272 C 0.59356 0.06676 0.97668 0.0
C1273 C 0.58804 0.07381 0.988 0.0
C1274 C 0.57034 0.06008 0.99382 0.0
C1275 C 0.61244 0.08105 0.97053 0.0
C1276 C 0.63186 0.09094 0.97824 0.0
C1277 C 0.6116 0.08332 0.9569 0.0
C1278 C 0.5914 0.07406 0.94839 0.0
C1279 C 0.57554 0.07794 0.95198 0.0
C1280 C 0.55643 0.06889 0.94407 0.0
C1281 C 0.55302 0.05605 0.93247 0.0
C1282 C 0.56871 0.05222 0.92875 0.0
C1283 C 0.58785 0.06121 0.93665 0.0
H1284 H 0.53825 0.04914 0.92634 0.0
H1285 H 0.72318 0.13321 0.0034 0.0
H1286 H 0.82585 0.54978 0.95594 0.0
H1287 H 0.85018 0.53926 0.96473 0.0
H1288 H 0.87966 0.55131 0.92879 0.0
H1289 H 0.85514 0.56162 0.91984 0.0
H1290 H 0.87411 0.51445 0.93841 0.0
H1291 H 0.9023 0.58691 0.95423 0.0
H1292 H 0.9013 0.61707 0.96503 0.0
H1293 H 0.88847 0.58848 0.00101 0.0
H1294 H 0.88908 0.55799 0.99036 0.0
H1295 H 0.96666 0.51649 0.96457 0.0
H1296 H 0.94176 0.52477 0.95377 0.0
H1297 H 0.9151 0.52267 0.99033 0.0
H1298 H 0.94026 0.51505 0.00126 0.0
H1299 H 0.91985 0.55508 0.97949 0.0
H1300 H 0.89076 0.48238 0.96402 0.0
H1301 H 0.89104 0.45166 0.95348 0.0
H1302 H 0.9046 0.47962 0.91731 0.0
H1303 H 0.90468 0.51065 0.92769 0.0
C1304 C 0.83727 0.54986 0.94981 0.0
C1305 C 0.83862 0.55661 0.93721 0.0
C1306 C 0.85126 0.54399 0.95488 0.0
C1307 C 0.86687 0.54473 0.94746 0.0
C1308 C 0.86778 0.55069 0.93469 0.0
C1309 C 0.85386 0.5567 0.92963 0.0
C1310 C 0.88276 0.54015 0.95329 0.0
C1311 C 0.88431 0.52347 0.9473 0.0
C1312 C 0.89578 0.55169 0.96501 0.0
C1313 C 0.89554 0.57008 0.97146 0.0
C1314 C 0.8991 0.58698 0.96442 0.0
C1315 C 0.89863 0.60415 0.97052 0.0
C1316 C 0.89477 0.60467 0.98369 0.0
C1317 C 0.89143 0.58804 0.9908 0.0
C1318 C 0.89185 0.57082 0.98474 0.0
C1319 C 0.95546 0.51775 0.9703 0.0
C1320 C 0.95547 0.51511 0.98378 0.0
C1321 C 0.94115 0.52239 0.96409 0.0
C1322 C 0.92634 0.52411 0.97119 0.0
C1323 C 0.92636 0.52146 0.98464 0.0
C1324 C 0.94077 0.51707 0.99088 0.0
C1325 C 0.91108 0.52912 0.96476 0.0
C1326 C 0.90968 0.54599 0.9706 0.0
C1327 C 0.89812 0.51763 0.95297 0.0
C1328 C 0.89793 0.49893 0.94668 0.0
C1329 C 0.89395 0.48204 0.95385 0.0
C1330 C 0.89402 0.46456 0.9479 0.0
C1331 C 0.89789 0.46371 0.93474 0.0
C1332 C 0.90163 0.48031 0.9275 0.0
C1333 C 0.90161 0.49784 0.93341 0.0
H1334 H 0.89794 0.45017 0.93015 0.0
H1335 H 0.89442 0.61798 0.9884 0.0
H1336 H 0.46683 0.28906 0.96015 0.0
H1337 H 0.46572 0.3189 0.97077 0.0
H1338 H 0.41758 0.30936 0.94062 0.0
H1339 H 0.41903 0.27976 0.92972 0.0
H1340 H 0.44851 0.34927 0.94423 0.0
H1341 H 0.40605 0.29911 0.97188 0.0
H1342 H 0.39611 0.27093 0.9862 0.0
H1343 H 0.44981 0.31134 0.01383 0.0
H1344 H 0.46026 0.33968 0.99958 0.0
H1345 H 0.44081 0.43234 0.97666 0.0
H1346 H 0.43001 0.39649 0.96795 0.0
H1347 H 0.48002 0.39898 0.99328 0.0
H1348 H 0.49091 0.43476 0.00209 0.0
H1349 H 0.44282 0.36069 0.99178 0.0
H1350 H 0.48738 0.40867 0.96266 0.0
H1351 H 0.49764 0.43705 0.94845 0.0
H1352 H 0.43968 0.40028 0.9236 0.0
H1353 H 0.42895 0.37179 0.9378 0.0
C1354 C 0.45596 0.29328 0.95581 0.0
C1355 C 0.44311 0.28216 0.94407 0.0
C1356 C 0.45517 0.31018 0.96196 0.0
C1357 C 0.44142 0.31622 0.95655 0.0
C1358 C 0.42823 0.30488 0.94498 0.0
C1359 C 0.42899 0.28792 0.93882 0.0
C1360 C 0.44207 0.33535 0.96244 0.0
C1361 C 0.44677 0.35157 0.95456 0.0
C1362 C 0.44023 0.3385 0.97598 0.0
C1363 C 0.43402 0.32149 0.9846 0.0
C1364 C 0.41584 0.30195 0.98096 0.0
C1365 C 0.41009 0.28595 0.98908 0.0
C1366 C 0.42234 0.28933 0.00091 0.0
C1367 C 0.44034 0.30874 0.00466 0.0
C1368 C 0.44617 0.32479 0.99657 0.0
C1369 C 0.44937 0.42518 0.9805 0.0
C1370 C 0.46686 0.43646 0.98997 0.0
C1371 C 0.44317 0.40472 0.9755 0.0
C1372 C 0.45435 0.39521 0.9799 0.0
C1373 C 0.4712 0.40607 0.98978 0.0
C1374 C 0.47747 0.42656 0.99473 0.0
C1375 C 0.4495 0.37455 0.9736 0.0
C1376 C 0.44413 0.35815 0.9814 0.0
C1377 C 0.45073 0.3712 0.95999 0.0
C1378 C 0.45726 0.38821 0.95137 0.0
C1379 C 0.47676 0.40671 0.95422 0.0
C1380 C 0.48267 0.4228 0.94617 0.0
C1381 C 0.46929 0.4205 0.93515 0.0
C1382 C 0.45001 0.40206 0.93215 0.0
C1383 C 0.444 0.38593 0.94019 0.0
H1384 H 0.47389 0.43297 0.92893 0.0
H1385 H 0.41786 0.27692 0.00718 0.0
H1386 H 0.15927 0.733 0.05921 0.0
H1387 H 0.12926 0.70075 0.04794 0.0
H1388 H 0.14401 0.66445 0.07309 0.0
H1389 H 0.17387 0.69644 0.08431 0.0
H1390 H 0.13718 0.64868 0.04808 0.0
H1391 H 0.10279 0.6727 0.07719 0.0
H1392 H 0.09329 0.69789 0.08664 0.0
H1393 H 0.06584 0.69819 0.04854 0.0
H1394 H 0.07543 0.67319 0.03882 0.0
H1395 H 0.04452 0.55008 0.04044 0.0
H1396 H 0.07065 0.58531 0.05055 0.0
H1397 H 0.05971 0.61147 0.01668 0.0
H1398 H 0.03394 0.57624 0.00631 0.0
H1399 H 0.06382 0.6335 0.04416 0.0
H1400 H 0.09759 0.60901 0.01524 0.0
H1401 H 0.10668 0.58347 0.00589 0.0
H1402 H 0.13575 0.58479 0.04384 0.0
H1403 H 0.12623 0.60978 0.05346 0.0
C1404 C 0.15597 0.71813 0.06239 0.0
C1405 C 0.16903 0.71724 0.07257 0.0
C1406 C 0.13882 0.69973 0.05596 0.0
C1407 C 0.13434 0.68018 0.05971 0.0
C1408 C 0.14724 0.67934 0.06998 0.0
C1409 C 0.16436 0.69764 0.07634 0.0
C1410 C 0.11672 0.66043 0.05274 0.0
C1411 C 0.12114 0.64535 0.04736 0.0
C1412 C 0.09584 0.65628 0.05142 0.0
C1413 C 0.09004 0.67126 0.05726 0.0
C1414 C 0.09489 0.67827 0.07081 0.0
C1415 C 0.08946 0.69249 0.07622 0.0
C1416 C 0.07903 0.69969 0.06819 0.0
C1417 C 0.07395 0.69263 0.05474 0.0
C1418 C 0.07937 0.67843 0.04928 0.0
C1419 C 0.04751 0.56334 0.0352 0.0
C1420 C 0.03733 0.56042 0.02255 0.0
C1421 C 0.0624 0.58342 0.04099 0.0
C1422 C 0.06703 0.6009 0.03433 0.0
C1423 C 0.05624 0.59814 0.02196 0.0
C1424 C 0.04166 0.57802 0.01604 0.0
C1425 C 0.08438 0.62179 0.03987 0.0
C1426 C 0.07992 0.63701 0.04489 0.0
C1427 C 0.10527 0.62617 0.04087 0.0
C1428 C 0.11093 0.61104 0.03511 0.0
C1429 C 0.10563 0.6036 0.02162 0.0
C1430 C 0.11088 0.58922 0.01626 0.0
C1431 C 0.12166 0.58237 0.02426 0.0
C1432 C 0.12726 0.58993 0.03764 0.0
C1433 C 0.12192 0.6042 0.04306 0.0
H1434 H 0.12575 0.5713 0.02005 0.0
H1435 H 0.07483 0.71069 0.0724 0.0
H1436 H 0.30274 0.42878 0.08381 0.0
H1437 H 0.33549 0.44228 0.07385 0.0
H1438 H 0.31075 0.46337 0.043 0.0
H1439 H 0.27766 0.44919 0.05262 0.0
H1440 H 0.3284 0.44309 0.03283 0.0
H1441 H 0.34866 0.49791 0.06783 0.0
H1442 H 0.35322 0.51337 0.09074 0.0
H1443 H 0.39307 0.48932 0.10222 0.0
H1444 H 0.38851 0.47344 0.07941 0.0
H1445 H 0.42411 0.49919 0.00514 0.0
H1446 H 0.39294 0.49091 0.01607 0.0
H1447 H 0.41429 0.46721 0.04708 0.0
H1448 H 0.44563 0.47569 0.03636 0.0
H1449 H 0.39857 0.49034 0.05704 0.0
H1450 H 0.37687 0.43408 0.02251 0.0
H1451 H 0.37246 0.41846 0.99966 0.0
H1452 H 0.3353 0.44512 0.98744 0.0
H1453 H 0.33973 0.46115 0.01021 0.0
C1454 C 0.30425 0.4363 0.07491 0.0
C1455 C 0.2875 0.43785 0.06902 0.0
C1456 C 0.32309 0.44421 0.06929 0.0
C1457 C 0.3257 0.45403 0.05772 0.0
C1458 C 0.30915 0.45592 0.05195 0.0
C1459 C 0.29029 0.44797 0.05754 0.0
C1460 C 0.34526 0.46136 0.05128 0.0
C1461 C 0.34371 0.45372 0.03807 0.0
C1462 C 0.36532 0.47481 0.05819 0.0
C1463 C 0.36808 0.48432 0.07192 0.0
C1464 C 0.35825 0.49576 0.07526 0.0
C1465 C 0.36087 0.50463 0.08823 0.0
C1466 C 0.37339 0.50228 0.09794 0.0
C1467 C 0.38336 0.4911 0.09469 0.0
C1468 C 0.38078 0.48218 0.08174 0.0
C1469 C 0.42225 0.49229 0.0143 0.0
C1470 C 0.43735 0.48796 0.01979 0.0
C1471 C 0.40436 0.4875 0.02053 0.0
C1472 C 0.40113 0.47819 0.03232 0.0
C1473 C 0.41641 0.47434 0.03798 0.0
C1474 C 0.4343 0.47912 0.03178 0.0
C1475 C 0.38164 0.47204 0.03863 0.0
C1476 C 0.38322 0.47984 0.0518 0.0
C1477 C 0.36159 0.45871 0.03171 0.0
C1478 C 0.35882 0.44899 0.01803 0.0
C1479 C 0.36789 0.43674 0.01493 0.0
C1480 C 0.36537 0.4278 0.002 0.0
C1481 C 0.35366 0.43085 0.9921 0.0
C1482 C 0.34439 0.4428 0.99512 0.0
C1483 C 0.34689 0.45181 0.00803 0.0
H1484 H 0.35172 0.4239 0.98209 0.0
H1485 H 0.3754 0.50917 0.10797 0.0
H1486 H 0.57189 0.84069 0.05039 0.0
H1487 H 0.55299 0.85719 0.04164 0.0
H1488 H 0.61052 0.91642 0.04532 0.0
H1489 H 0.62976 0.89999 0.05351 0.0
H1490 H 0.5753 0.9171 0.05586 0.0
H1491 H 0.59324 0.89149 0.01648 0.0
H1492 H 0.5932 0.86387 0.00164 0.0
H1493 H 0.52607 0.82987 0.99683 0.0
H1494 H 0.52573 0.85718 0.0118 0.0
H1495 H 0.55686 0.98321 0.02008 0.0
H1496 H 0.57019 0.96145 0.02803 0.0
H1497 H 0.51131 0.90599 0.01392 0.0
H1498 H 0.49801 0.92785 0.0055 0.0
H1499 H 0.54268 0.89969 0.00954 0.0
H1500 H 0.52291 0.92457 0.04655 0.0
H1501 H 0.52057 0.95046 0.06164 0.0
H1502 H 0.58702 0.98287 0.07206 0.0
H1503 H 0.58982 0.95736 0.05685 0.0
C1504 C 0.58062 0.85717 0.04918 0.0
C1505 C 0.60242 0.86897 0.05265 0.0
C1506 C 0.56974 0.86658 0.04427 0.0
C1507 C 0.5804 0.88798 0.04285 0.0
C1508 C 0.60203 0.89988 0.04644 0.0
C1509 C 0.61297 0.89046 0.05119 0.0
C1510 C 0.56912 0.89805 0.0375 0.0
C1511 C 0.5683 0.91346 0.04572 0.0
C1512 C 0.55923 0.89256 0.02444 0.0
C1513 C 0.55946 0.87625 0.01537 0.0
C1514 C 0.57848 0.87804 0.01235 0.0
C1515 C 0.57852 0.86246 0.00389 0.0
C1516 C 0.55964 0.84509 0.99833 0.0
C1517 C 0.54068 0.84331 0.00117 0.0
C1518 C 0.54055 0.85884 0.00962 0.0
C1519 C 0.54675 0.96638 0.0186 0.0
C1520 C 0.52632 0.95722 0.01229 0.0
C1521 C 0.55436 0.95395 0.0232 0.0
C1522 C 0.54156 0.93212 0.02188 0.0
C1523 C 0.52139 0.92283 0.01513 0.0
C1524 C 0.51383 0.93531 0.01033 0.0
C1525 C 0.54936 0.91926 0.0278 0.0
C1526 C 0.54946 0.90325 0.01974 0.0
C1527 C 0.55818 0.92386 0.04112 0.0
C1528 C 0.55659 0.9391 0.05048 0.0
C1529 C 0.53705 0.93728 0.052 0.0
C1530 C 0.53564 0.95189 0.06058 0.0
C1531 C 0.55364 0.96833 0.06779 0.0
C1532 C 0.57309 0.97014 0.06647 0.0
C1533 C 0.57459 0.95558 0.05788 0.0
H1534 H 0.55251 0.97964 0.07442 0.0
H1535 H 0.5597 0.83304 0.99178 0.0
H1536 H 0.99824 0.20648 0.42198 0.0
H1537 H 0.02603 0.23013 0.40961 0.0
H1538 H 0.98493 0.20188 0.37342 0.0
H1539 H 0.9573 0.17751 0.38568 0.0
H1540 H 0.02153 0.20529 0.37056 0.0
H1541 H 0.99913 0.25171 0.38704 0.0
H1542 H 0.9894 0.26992 0.40374 0.0
H1543 H 0.05106 0.29876 0.42437 0.0
H1544 H 0.06112 0.28053 0.40789 0.0
H1545 H 0.09658 0.28232 0.33395 0.0
H1546 H 0.06452 0.26048 0.3439 0.0
H1547 H 0.09949 0.28095 0.38244 0.0
H1548 H 0.13141 0.30285 0.37268 0.0
H1549 H 0.06362 0.28213 0.3824 0.0
H1550 H 0.08473 0.23324 0.3669 0.0
H1551 H 0.09441 0.21495 0.35023 0.0
H1552 H 0.03475 0.19084 0.32766 0.0
H1553 H 0.02482 0.20924 0.34412 0.0
C1554 C 0.99509 0.20529 0.41139 0.0
C1555 C 0.97555 0.19004 0.40482 0.0
C1556 C 0.01093 0.21899 0.40434 0.0
C1557 C 0.00752 0.21794 0.39059 0.0
C1558 C 0.9879 0.20303 0.38402 0.0
C1559 C 0.97205 0.18924 0.39107 0.0
C1560 C 0.02483 0.23159 0.38303 0.0
C1561 C 0.03047 0.22215 0.37298 0.0
C1562 C 0.03675 0.25354 0.38634 0.0
C1563 C 0.03082 0.26461 0.39627 0.0
C1564 C 0.01058 0.26182 0.39519 0.0
C1565 C 0.00502 0.27217 0.40461 0.0
C1566 C 0.0196 0.28546 0.41512 0.0
C1567 C 0.0398 0.28847 0.41622 0.0
C1568 C 0.04544 0.27815 0.40683 0.0
C1569 C 0.09745 0.28211 0.34454 0.0
C1570 C 0.11659 0.2943 0.3525 0.0
C1571 C 0.07912 0.26961 0.3502 0.0
C1572 C 0.07965 0.26904 0.36391 0.0
C1573 C 0.09872 0.28121 0.37185 0.0
C1574 C 0.11699 0.29364 0.36622 0.0
C1575 C 0.06044 0.25578 0.37009 0.0
C1576 C 0.05448 0.26531 0.37989 0.0
C1577 C 0.04821 0.23392 0.36654 0.0
C1578 C 0.05413 0.22281 0.35666 0.0
C1579 C 0.07375 0.22418 0.35833 0.0
C1580 C 0.07927 0.21377 0.34893 0.0
C1581 C 0.06523 0.20179 0.33787 0.0
C1582 C 0.04562 0.20016 0.33621 0.0
C1583 C 0.04004 0.21056 0.34558 0.0
H1584 H 0.06953 0.19374 0.3306 0.0
H1585 H 0.01527 0.29346 0.42241 0.0
H1586 H 0.82663 0.80326 0.4184 0.0
H1587 H 0.8025 0.81368 0.40906 0.0
H1588 H 0.78033 0.76399 0.37726 0.0
H1589 H 0.80377 0.75298 0.38669 0.0
H1590 H 0.78984 0.8027 0.36884 0.0
H1591 H 0.75019 0.75792 0.40126 0.0
H1592 H 0.7453 0.74728 0.42369 0.0
H1593 H 0.7552 0.80747 0.43833 0.0
H1594 H 0.76014 0.81847 0.41597 0.0
H1595 H 0.69997 0.79883 0.33944 0.0
H1596 H 0.72461 0.79059 0.35048 0.0
H1597 H 0.73365 0.8331 0.38448 0.0
H1598 H 0.70824 0.8407 0.37366 0.0
H1599 H 0.73278 0.80079 0.39268 0.0
H1600 H 0.77027 0.84572 0.36106 0.0
H1601 H 0.7769 0.85849 0.33925 0.0
H1602 H 0.77441 0.80193 0.32384 0.0
H1603 H 0.76747 0.78869 0.34553 0.0
C1604 C 0.81647 0.79436 0.4095 0.0
C1605 C 0.81727 0.77727 0.40331 0.0
C1606 C 0.80274 0.80042 0.40415 0.0
C1607 C 0.78958 0.78957 0.39248 0.0
C1608 C 0.79043 0.77265 0.38623 0.0
C1609 C 0.80398 0.76647 0.39162 0.0
C1610 C 0.77495 0.79582 0.38668 0.0
C1611 C 0.77721 0.80209 0.37397 0.0
C1612 C 0.75899 0.79576 0.39359 0.0
C1613 C 0.7557 0.78906 0.40698 0.0
C1614 C 0.7514 0.76891 0.40928 0.0
C1615 C 0.74857 0.76279 0.42197 0.0
C1616 C 0.74994 0.77669 0.43243 0.0
C1617 C 0.7541 0.79671 0.43021 0.0
C1618 C 0.75686 0.80287 0.41753 0.0
C1619 C 0.70719 0.80643 0.34927 0.0
C1620 C 0.70226 0.82056 0.35563 0.0
C1621 C 0.7214 0.80179 0.35556 0.0
C1622 C 0.73146 0.81159 0.36822 0.0
C1623 C 0.72623 0.82539 0.3747 0.0
C1624 C 0.71171 0.82976 0.36849 0.0
C1625 C 0.74737 0.80737 0.37465 0.0
C1626 C 0.74543 0.80155 0.3875 0.0
C1627 C 0.7639 0.80821 0.36795 0.0
C1628 C 0.76817 0.81614 0.3549 0.0
C1629 C 0.771 0.83595 0.353 0.0
C1630 C 0.77483 0.84327 0.34066 0.0
C1631 C 0.77603 0.83101 0.33016 0.0
C1632 C 0.77345 0.81141 0.33199 0.0
C1633 C 0.76959 0.80399 0.3443 0.0
H1634 H 0.77899 0.83671 0.32061 0.0
H1635 H 0.74777 0.77194 0.44225 0.0
H1636 H 0.24448 0.07615 0.38539 0.0
H1637 H 0.22544 0.03918 0.37663 0.0
H1638 H 0.28329 0.03839 0.37887 0.0
H1639 H 0.30244 0.07544 0.38752 0.0
H1640 H 0.25999 0.01781 0.35634 0.0
H1641 H 0.24893 0.01811 0.40201 0.0
H1642 H 0.23855 0.02828 0.4224 0.0
H1643 H 0.1759 0.00238 0.40385 0.0
H1644 H 0.18599 0.99232 0.38327 0.0
H1645 H 0.21889 0.90808 0.35477 0.0
H1646 H 0.23664 0.94569 0.3616 0.0
H1647 H 0.17849 0.9449 0.35366 0.0
H1648 H 0.16058 0.90724 0.34667 0.0
H1649 H 0.20087 0.96623 0.37835 0.0
H1650 H 0.21249 0.96341 0.33293 0.0
H1651 H 0.22387 0.95291 0.31314 0.0
H1652 H 0.2869 0.98358 0.33183 0.0
H1653 H 0.2758 0.99367 0.3519 0.0
C1654 C 0.25311 0.06805 0.38407 0.0
C1655 C 0.27492 0.07862 0.38721 0.0
C1656 C 0.24223 0.04695 0.37906 0.0
C1657 C 0.25292 0.03596 0.37727 0.0
C1658 C 0.27474 0.04658 0.38018 0.0
C1659 C 0.28565 0.06772 0.3851 0.0
C1660 C 0.24134 0.01335 0.37245 0.0
C1661 C 0.24723 0.00649 0.36124 0.0
C1662 C 0.2244 0.99867 0.37869 0.0
C1663 C 0.21827 0.00467 0.39106 0.0
C1664 C 0.23298 0.01474 0.40224 0.0
C1665 C 0.22714 0.02046 0.41384 0.0
C1666 C 0.20659 0.01604 0.41441 0.0
C1667 C 0.19182 0.00583 0.40339 0.0
C1668 C 0.19759 0.00011 0.39176 0.0
C1669 C 0.20986 0.91589 0.35447 0.0
C1670 C 0.18834 0.90472 0.35017 0.0
C1671 C 0.22005 0.93738 0.35832 0.0
C1672 C 0.20887 0.94803 0.35803 0.0
C1673 C 0.18736 0.93691 0.3539 0.0
C1674 C 0.17719 0.91544 0.34989 0.0
C1675 C 0.21964 0.97072 0.36232 0.0
C1676 C 0.21359 0.97758 0.37343 0.0
C1677 C 0.23658 0.98535 0.35606 0.0
C1678 C 0.24324 0.97908 0.34401 0.0
C1679 C 0.22872 0.96766 0.33291 0.0
C1680 C 0.23513 0.96179 0.32163 0.0
C1681 C 0.25607 0.96746 0.32125 0.0
C1682 C 0.27066 0.97907 0.33216 0.0
C1683 C 0.26431 0.98484 0.3435 0.0
H1684 H 0.26101 0.96294 0.3125 0.0
H1685 H 0.2021 0.02047 0.42339 0.0
H1686 H 0.51074 0.59469 0.30323 0.0
H1687 H 0.53285 0.63121 0.3126 0.0
H1688 H 0.5449 0.64966 0.27354 0.0
H1689 H 0.52343 0.61316 0.26414 0.0
H1690 H 0.5802 0.66826 0.28999 0.0
H1691 H 0.51086 0.65774 0.29065 0.0
H1692 H 0.47449 0.6403 0.29613 0.0
H1693 H 0.49638 0.65346 0.33739 0.0
H1694 H 0.5329 0.67075 0.33214 0.0
H1695 H 0.62172 0.77688 0.30236 0.0
H1696 H 0.59896 0.73982 0.29479 0.0
H1697 H 0.59165 0.72608 0.33506 0.0
H1698 H 0.61432 0.7633 0.34278 0.0
H1699 H 0.55449 0.70468 0.31919 0.0
H1700 H 0.6239 0.71632 0.3185 0.0
H1701 H 0.66024 0.73413 0.31297 0.0
H1702 H 0.6382 0.71891 0.27172 0.0
H1703 H 0.6017 0.70126 0.27701 0.0
C1704 C 0.51819 0.60651 0.29664 0.0
C1705 C 0.51527 0.60101 0.28293 0.0
C1706 C 0.53066 0.6274 0.302 0.0
C1707 C 0.54036 0.64319 0.29376 0.0
C1708 C 0.53751 0.63774 0.28008 0.0
C1709 C 0.52507 0.61688 0.27472 0.0
C1710 C 0.55381 0.66538 0.29935 0.0
C1711 C 0.5745 0.67628 0.29625 0.0
C1712 C 0.54655 0.67568 0.30782 0.0
C1713 C 0.52461 0.66534 0.311 0.0
C1714 C 0.50791 0.65676 0.30089 0.0
C1715 C 0.48727 0.64693 0.30395 0.0
C1716 C 0.48312 0.64572 0.3171 0.0
C1717 C 0.49962 0.65438 0.32721 0.0
C1718 C 0.52029 0.66421 0.3242 0.0
C1719 C 0.61526 0.76603 0.30964 0.0
C1720 C 0.61994 0.77306 0.32319 0.0
C1721 C 0.6023 0.74482 0.30528 0.0
C1722 C 0.59385 0.73017 0.31437 0.0
C1723 C 0.59808 0.73714 0.32789 0.0
C1724 C 0.61108 0.75841 0.33228 0.0
C1725 C 0.58076 0.70758 0.30968 0.0
C1726 C 0.56019 0.6966 0.31297 0.0
C1727 C 0.58812 0.69719 0.30138 0.0
C1728 C 0.61006 0.70762 0.29816 0.0
C1729 C 0.6268 0.7169 0.30825 0.0
C1730 C 0.64743 0.72694 0.30516 0.0
C1731 C 0.65152 0.72769 0.292 0.0
C1732 C 0.635 0.71833 0.2819 0.0
C1733 C 0.61433 0.70829 0.28495 0.0
H1734 H 0.66751 0.73548 0.28962 0.0
H1735 H 0.46713 0.6381 0.31945 0.0
H1736 H 0.36176 0.86446 0.28174 0.0
H1737 H 0.32943 0.85501 0.29157 0.0
H1738 H 0.32148 0.89917 0.27021 0.0
H1739 H 0.35417 0.90929 0.26076 0.0
H1740 H 0.31556 0.9036 0.2951 0.0
H1741 H 0.29009 0.84548 0.26159 0.0
H1742 H 0.28959 0.81559 0.24912 0.0
H1743 H 0.28161 0.78514 0.28429 0.0
H1744 H 0.2823 0.81497 0.297 0.0
H1745 H 0.21149 0.87178 0.30643 0.0
H1746 H 0.24216 0.87778 0.29571 0.0
H1747 H 0.25179 0.83841 0.32093 0.0
H1748 H 0.22095 0.83221 0.33177 0.0
H1749 H 0.25667 0.83093 0.29442 0.0
H1750 H 0.28185 0.88918 0.32776 0.0
H1751 H 0.28154 0.91879 0.33998 0.0
H1752 H 0.28952 0.9489 0.30467 0.0
H1753 H 0.28962 0.9193 0.29219 0.0
C1754 C 0.35314 0.87217 0.27912 0.0
C1755 C 0.36064 0.88766 0.27043 0.0
C1756 C 0.33451 0.86659 0.28466 0.0
C1757 C 0.32287 0.87625 0.28157 0.0
C1758 C 0.33013 0.89145 0.27274 0.0
C1759 C 0.34876 0.89707 0.26723 0.0
C1760 C 0.30367 0.87126 0.28799 0.0
C1761 C 0.30258 0.88773 0.29477 0.0
C1762 C 0.2869 0.85051 0.28788 0.0
C1763 C 0.28647 0.83255 0.28027 0.0
C1764 C 0.2884 0.83249 0.26668 0.0
C1765 C 0.28804 0.81554 0.25957 0.0
C1766 C 0.28563 0.7985 0.26592 0.0
C1767 C 0.2835 0.79835 0.27939 0.0
C1768 C 0.28385 0.81527 0.28655 0.0
C1769 C 0.22006 0.86434 0.30973 0.0
C1770 C 0.21379 0.85161 0.32006 0.0
C1771 C 0.23764 0.86783 0.30358 0.0
C1772 C 0.24938 0.8587 0.3076 0.0
C1773 C 0.24296 0.84563 0.3177 0.0
C1774 C 0.22539 0.8422 0.32392 0.0
C1775 C 0.2686 0.86328 0.30141 0.0
C1776 C 0.26969 0.84677 0.29471 0.0
C1777 C 0.28536 0.884 0.30154 0.0
C1778 C 0.28557 0.90195 0.30902 0.0
C1779 C 0.2834 0.90205 0.32258 0.0
C1780 C 0.28329 0.91883 0.32956 0.0
C1781 C 0.28548 0.93569 0.3231 0.0
C1782 C 0.28783 0.93582 0.30965 0.0
C1783 C 0.28794 0.91905 0.30263 0.0
H1784 H 0.28543 0.94867 0.32853 0.0
H1785 H 0.28537 0.7854 0.26039 0.0
H1786 H 0.10234 0.49336 0.29554 0.0
H1787 H 0.10569 0.46748 0.30737 0.0
H1788 H 0.10465 0.4351 0.27044 0.0
H1789 H 0.1003 0.46032 0.25852 0.0
H1790 H 0.08435 0.40779 0.28741 0.0
H1791 H 0.15081 0.47162 0.28833 0.0
H1792 H 0.17512 0.50963 0.29303 0.0
H1793 H 0.16677 0.50625 0.33413 0.0
H1794 H 0.14217 0.46824 0.32963 0.0
H1795 H 0.1455 0.36196 0.30272 0.0
H1796 H 0.13127 0.38296 0.29454 0.0
H1797 H 0.13133 0.40583 0.33444 0.0
H1798 H 0.14565 0.38487 0.34277 0.0
H1799 H 0.14899 0.4372 0.31845 0.0
H1800 H 0.08597 0.37164 0.31739 0.0
H1801 H 0.06277 0.33355 0.31212 0.0
H1802 H 0.06562 0.33987 0.27079 0.0
H1803 H 0.08909 0.37798 0.2758 0.0
C1804 C 0.10227 0.48043 0.28991 0.0
C1805 C 0.10135 0.47906 0.27608 0.0
C1806 C 0.10437 0.46575 0.2967 0.0
C1807 C 0.10585 0.44963 0.28979 0.0
C1808 C 0.10368 0.4475 0.27597 0.0
C1809 C 0.10142 0.46206 0.26918 0.0
C1810 C 0.11133 0.43596 0.29688 0.0
C1811 C 0.09851 0.41419 0.29416 0.0
C1812 C 0.12961 0.44435 0.3059 0.0
C1813 C 0.14448 0.46716 0.30862 0.0
C1814 C 0.15405 0.47902 0.29835 0.0
C1815 C 0.16789 0.50055 0.30098 0.0
C1816 C 0.17244 0.51036 0.31386 0.0
C1817 C 0.16319 0.49864 0.32415 0.0
C1818 C 0.14931 0.4771 0.32157 0.0
C1819 C 0.14244 0.3714 0.30978 0.0
C1820 C 0.14674 0.37177 0.3234 0.0
C1821 C 0.13417 0.38328 0.30508 0.0
C1822 C 0.13004 0.39574 0.3139 0.0
C1823 C 0.13433 0.39621 0.32749 0.0
C1824 C 0.14249 0.38422 0.33222 0.0
C1825 C 0.12218 0.40903 0.30882 0.0
C1826 C 0.13462 0.43076 0.31189 0.0
C1827 C 0.10366 0.40058 0.30006 0.0
C1828 C 0.08942 0.37767 0.29698 0.0
C1829 C 0.08178 0.3649 0.30717 0.0
C1830 C 0.06856 0.3433 0.30423 0.0
C1831 C 0.06276 0.33429 0.29113 0.0
C1832 C 0.07013 0.34687 0.28093 0.0
C1833 C 0.08338 0.36848 0.28382 0.0
H1834 H 0.05252 0.31757 0.28887 0.0
H1835 H 0.18316 0.52703 0.31588 0.0
H1836 H 0.38108 0.49683 0.28424 0.0
H1837 H 0.34712 0.47991 0.29293 0.0
H1838 H 0.33694 0.41947 0.27792 0.0
H1839 H 0.37057 0.43628 0.26891 0.0
H1840 H 0.30194 0.42171 0.27344 0.0
H1841 H 0.35368 0.43827 0.3102 0.0
H1842 H 0.38519 0.46156 0.32555 0.0
H1843 H 0.35749 0.49779 0.33795 0.0
H1844 H 0.3259 0.47486 0.32252 0.0
H1845 H 0.22644 0.35134 0.31006 0.0
H1846 H 0.25794 0.37347 0.30009 0.0
H1847 H 0.2614 0.42844 0.31996 0.0
H1848 H 0.23 0.40616 0.33045 0.0
H1849 H 0.29871 0.43238 0.32145 0.0
H1850 H 0.24613 0.41469 0.28498 0.0
H1851 H 0.21474 0.39084 0.26962 0.0
H1852 H 0.2438 0.35595 0.2572 0.0
H1853 H 0.27547 0.37978 0.27233 0.0
C1854 C 0.37148 0.47995 0.28263 0.0
C1855 C 0.37857 0.46788 0.27595 0.0
C1856 C 0.35216 0.4703 0.2877 0.0
C1857 C 0.33961 0.44841 0.28621 0.0
C1858 C 0.3464 0.43638 0.27923 0.0
C1859 C 0.3657 0.446 0.27418 0.0
C1860 C 0.3196 0.4379 0.29215 0.0
C1861 C 0.30125 0.42398 0.28395 0.0
C1862 C 0.31859 0.44124 0.30581 0.0
C1863 C 0.33754 0.455 0.3151 0.0
C1864 C 0.35438 0.45131 0.31612 0.0
C1865 C 0.37224 0.46442 0.32485 0.0
C1866 C 0.37337 0.48119 0.33269 0.0
C1867 C 0.35661 0.48483 0.33185 0.0
C1868 C 0.33872 0.47177 0.32312 0.0
C1869 C 0.23379 0.36814 0.31231 0.0
C1870 C 0.22563 0.37698 0.32103 0.0
C1871 C 0.25176 0.38081 0.30649 0.0
C1872 C 0.26179 0.40267 0.30899 0.0
C1873 C 0.25383 0.41161 0.31779 0.0
C1874 C 0.23591 0.39887 0.32379 0.0
C1875 C 0.28105 0.41596 0.30277 0.0
C1876 C 0.29929 0.43039 0.31091 0.0
C1877 C 0.28199 0.41309 0.28906 0.0
C1878 C 0.2631 0.39895 0.27982 0.0
C1879 C 0.24579 0.40191 0.27898 0.0
C1880 C 0.22798 0.38843 0.2703 0.0
C1881 C 0.22726 0.37184 0.2625 0.0
C1882 C 0.24438 0.36878 0.26329 0.0
C1883 C 0.26232 0.38236 0.27182 0.0
H1884 H 0.21352 0.36144 0.25577 0.0
H1885 H 0.38721 0.49132 0.33945 0.0
H1886 H 0.50414 0.88112 0.25265 0.0
H1887 H 0.52933 0.87075 0.26011 0.0
H1888 H 0.53571 0.90045 0.29923 0.0
H1889 H 0.51128 0.91156 0.29162 0.0
H1890 H 0.572 0.90986 0.29368 0.0
H1891 H 0.5067 0.84502 0.28993 0.0
H1892 H 0.47316 0.81618 0.27885 0.0
H1893 H 0.50561 0.80195 0.25029 0.0
H1894 H 0.53935 0.83089 0.26112 0.0
H1895 H 0.60739 0.85507 0.33223 0.0
H1896 H 0.58431 0.86497 0.3208 0.0
H1897 H 0.60599 0.8574 0.28384 0.0
H1898 H 0.62969 0.84791 0.29529 0.0
H1899 H 0.55772 0.83696 0.28618 0.0
H1900 H 0.62387 0.90192 0.29224 0.0
H1901 H 0.65623 0.92937 0.30535 0.0
H1902 H 0.62004 0.94179 0.33185 0.0
H1903 H 0.58744 0.91415 0.31901 0.0
C1904 C 0.51085 0.88527 0.26285 0.0
C1905 C 0.50578 0.89711 0.27157 0.0
C1906 C 0.5252 0.8793 0.26713 0.0
C1907 C 0.53433 0.88459 0.2803 0.0
C1908 C 0.52902 0.89624 0.28902 0.0
C1909 C 0.51501 0.90253 0.28469 0.0
C1910 C 0.5497 0.87844 0.28502 0.0
C1911 C 0.56872 0.89386 0.29208 0.0
C1912 C 0.54578 0.85766 0.28276 0.0
C1913 C 0.52552 0.84027 0.27624 0.0
C1914 C 0.50667 0.83584 0.28123 0.0
C1915 C 0.48763 0.81946 0.275 0.0
C1916 C 0.48725 0.80728 0.26385 0.0
C1917 C 0.50593 0.81142 0.25892 0.0
C1918 C 0.52501 0.8278 0.2651 0.0
C1919 C 0.60725 0.85545 0.32166 0.0
C1920 C 0.62037 0.85071 0.31465 0.0
C1921 C 0.59407 0.86114 0.31516 0.0
C1922 C 0.59348 0.86189 0.30151 0.0
C1923 C 0.60626 0.85686 0.29439 0.0
C1924 C 0.61982 0.85156 0.30095 0.0
C1925 C 0.57962 0.86831 0.29488 0.0
C1926 C 0.56096 0.85296 0.28755 0.0
C1927 C 0.58365 0.88904 0.29708 0.0
C1928 C 0.60322 0.90583 0.30473 0.0
C1929 C 0.62281 0.91037 0.30093 0.0
C1930 C 0.64119 0.92599 0.3083 0.0
C1931 C 0.64019 0.93728 0.31945 0.0
C1932 C 0.62079 0.93302 0.32322 0.0
C1933 C 0.60236 0.91739 0.31589 0.0
H1934 H 0.65444 0.94937 0.32514 0.0
H1935 H 0.47249 0.7946 0.25905 0.0
H1936 H 0.07467 0.60555 0.28713 0.0
H1937 H 0.07712 0.63683 0.29872 0.0
H1938 H 0.14394 0.67013 0.2975 0.0
H1939 H 0.14162 0.63903 0.28609 0.0
H1940 H 0.13519 0.68047 0.32036 0.0
H1941 H 0.1104 0.67389 0.27445 0.0
H1942 H 0.08616 0.65601 0.2542 0.0
H1943 H 0.03572 0.65358 0.27396 0.0
H1944 H 0.05964 0.67122 0.29439 0.0
H1945 H 0.14099 0.78309 0.30565 0.0
H1946 H 0.13053 0.7468 0.29896 0.0
H1947 H 0.1182 0.73224 0.33871 0.0
H1948 H 0.12915 0.76878 0.3456 0.0
H1949 H 0.09609 0.71033 0.29851 0.0
H1950 H 0.13184 0.69566 0.34522 0.0
H1951 H 0.15941 0.71553 0.36375 0.0
H1952 H 0.19355 0.76399 0.33945 0.0
H1953 H 0.16633 0.74428 0.32075 0.0
C1954 C 0.08988 0.61952 0.28943 0.0
C1955 C 0.10795 0.61987 0.28568 0.0
C1956 C 0.09126 0.63735 0.29606 0.0
C1957 C 0.1107 0.65588 0.29885 0.0
C1958 C 0.1288 0.65598 0.29552 0.0
C1959 C 0.12745 0.63817 0.289 0.0
C1960 C 0.11228 0.67563 0.30446 0.0
C1961 C 0.12646 0.68689 0.31568 0.0
C1962 C 0.10109 0.68414 0.29826 0.0
C1963 C 0.08673 0.67363 0.28598 0.0
C1964 C 0.0941 0.66941 0.2745 0.0
C1965 C 0.08043 0.65934 0.26299 0.0
C1966 C 0.0594 0.6536 0.26281 0.0
C1967 C 0.052 0.65799 0.27413 0.0
C1968 C 0.06561 0.66802 0.28567 0.0
C1969 C 0.13593 0.77218 0.31298 0.0
C1970 C 0.1361 0.77888 0.32619 0.0
C1971 C 0.12985 0.75139 0.30911 0.0
C1972 C 0.12378 0.73685 0.31836 0.0
C1973 C 0.12312 0.74328 0.33146 0.0
C1974 C 0.12936 0.76416 0.33536 0.0
C1975 C 0.11924 0.71532 0.31429 0.0
C1976 C 0.10447 0.70371 0.30338 0.0
C1977 C 0.13033 0.70675 0.32055 0.0
C1978 C 0.14693 0.71862 0.33166 0.0
C1979 C 0.14527 0.71053 0.34384 0.0
C1980 C 0.16082 0.72177 0.35436 0.0
C1981 C 0.17818 0.74105 0.35279 0.0
C1982 C 0.18006 0.74909 0.34067 0.0
C1983 C 0.16457 0.73791 0.33011 0.0
H1984 H 0.19019 0.74973 0.36095 0.0
H1985 H 0.04883 0.64581 0.25389 0.0
H1986 H 0.81477 0.06798 0.39449 0.0
H1987 H 0.78472 0.03715 0.38209 0.0
H1988 H 0.82263 0.00889 0.37632 0.0
H1989 H 0.85246 0.03915 0.389 0.0
H1990 H 0.79617 0.0036 0.35362 0.0
H1991 H 0.79301 0.99605 0.40047 0.0
H1992 H 0.79157 0.00741 0.4234 0.0
H1993 H 0.73499 0.00734 0.41164 0.0
H1994 H 0.73628 0.99626 0.38859 0.0
H1995 H 0.73032 0.895 0.34241 0.0
H1996 H 0.75633 0.93119 0.35013 0.0
H1997 H 0.70731 0.94394 0.35877 0.0
H1998 H 0.6811 0.90739 0.35142 0.0
H1999 H 0.73657 0.96022 0.37835 0.0
H2000 H 0.73637 0.96297 0.33217 0.0
H2001 H 0.73734 0.95199 0.30907 0.0
H2002 H 0.79899 0.96194 0.3187 0.0
H2003 H 0.79829 0.9727 0.34191 0.0
C2004 C 0.81673 0.05522 0.39059 0.0
C2005 C 0.83607 0.05606 0.39283 0.0
C2006 C 0.79958 0.03769 0.38344 0.0
C2007 C 0.80147 0.02074 0.37836 0.0
C2008 C 0.8209 0.02188 0.38009 0.0
C2009 C 0.83799 0.03928 0.38731 0.0
C2010 C 0.783 0.00115 0.37201 0.0
C2011 C 0.78313 0.99404 0.35899 0.0
C2012 C 0.76573 0.98908 0.37893 0.0
C2013 C 0.76488 0.99558 0.39279 0.0
C2014 C 0.78036 0.99862 0.40276 0.0
C2015 C 0.77955 0.00498 0.41578 0.0
C2016 C 0.76323 0.00816 0.41897 0.0
C2017 C 0.74764 0.00492 0.40915 0.0
C2018 C 0.7484 0.99859 0.39611 0.0
C2019 C 0.72502 0.90551 0.34585 0.0
C2020 C 0.70363 0.89832 0.3463 0.0
C2021 C 0.73994 0.92628 0.35019 0.0
C2022 C 0.7338 0.94044 0.35482 0.0
C2023 C 0.71242 0.93334 0.35519 0.0
C2024 C 0.69746 0.91245 0.35098 0.0
C2025 C 0.74985 0.96228 0.35996 0.0
C2026 C 0.74932 0.96987 0.37279 0.0
C2027 C 0.76665 0.97487 0.3528 0.0
C2028 C 0.76722 0.96853 0.33882 0.0
C2029 C 0.75009 0.96269 0.32939 0.0
C2030 C 0.75059 0.95652 0.31627 0.0
C2031 C 0.7682 0.95624 0.31243 0.0
C2032 C 0.78536 0.96217 0.32169 0.0
C2033 C 0.78493 0.96834 0.33483 0.0
H2034 H 0.76855 0.95145 0.30226 0.0
H2035 H 0.76263 0.01308 0.42905 0.0
H2036 H 0.97236 0.77275 0.42156 0.0
H2037 H 0.00476 0.7845 0.41126 0.0
H2038 H 0.97972 0.80301 0.37908 0.0
H2039 H 0.94717 0.79104 0.38922 0.0
H2040 H 0.99722 0.77979 0.37059 0.0
H2041 H 0.01651 0.8395 0.402 0.0
H2042 H 0.02089 0.85761 0.42408 0.0
H2043 H 0.06247 0.83698 0.43828 0.0
H2044 H 0.05811 0.8185 0.41632 0.0
H2045 H 0.09004 0.83296 0.33995 0.0
H2046 H 0.05866 0.82418 0.35076 0.0
H2047 H 0.08609 0.81303 0.38545 0.0
H2048 H 0.11764 0.8223 0.37481 0.0
H2049 H 0.06722 0.83287 0.39276 0.0
H2050 H 0.04791 0.77245 0.36261 0.0
H2051 H 0.04347 0.75274 0.34112 0.0
H2052 H 0.00188 0.7723 0.32527 0.0
H2053 H 0.0063 0.79238 0.34663 0.0
C2054 C 0.97377 0.77935 0.4123 0.0
C2055 C 0.9572 0.78099 0.40622 0.0
C2056 C 0.99234 0.78618 0.40647 0.0
C2057 C 0.99471 0.79476 0.39444 0.0
C2058 C 0.97825 0.7965 0.38838 0.0
C2059 C 0.95973 0.78981 0.39424 0.0
C2060 C 0.01411 0.80132 0.38797 0.0
C2061 C 0.01251 0.79163 0.37535 0.0
C2062 C 0.03411 0.81627 0.39435 0.0
C2063 C 0.03682 0.82745 0.40754 0.0
C2064 C 0.02645 0.83868 0.40986 0.0
C2065 C 0.02896 0.84904 0.42235 0.0
C2066 C 0.04191 0.8484 0.43259 0.0
C2067 C 0.05243 0.83744 0.43034 0.0
C2068 C 0.04996 0.82704 0.41788 0.0
C2069 C 0.0894 0.82866 0.34989 0.0
C2070 C 0.10641 0.82838 0.35653 0.0
C2071 C 0.0714 0.82355 0.35605 0.0
C2072 C 0.06982 0.81762 0.36888 0.0
C2073 C 0.08689 0.81758 0.37557 0.0
C2074 C 0.10499 0.82293 0.36947 0.0
C2075 C 0.05038 0.81137 0.37532 0.0
C2076 C 0.05195 0.82107 0.38796 0.0
C2077 C 0.03035 0.79619 0.36903 0.0
C2078 C 0.02761 0.78409 0.35618 0.0
C2079 C 0.03794 0.77268 0.35452 0.0
C2080 C 0.03541 0.76142 0.34236 0.0
C2081 C 0.02245 0.76132 0.33183 0.0
C2082 C 0.01195 0.77243 0.33344 0.0
C2083 C 0.01444 0.78373 0.34557 0.0
H2084 H 0.02051 0.75259 0.32243 0.0
H2085 H 0.04383 0.85643 0.44225 0.0
H2086 H 0.30394 0.2423 0.38465 0.0
H2087 H 0.28532 0.25925 0.37622 0.0
H2088 H 0.22643 0.20253 0.37697 0.0
H2089 H 0.24482 0.18559 0.38582 0.0
H2090 H 0.23012 0.22198 0.35334 0.0
H2091 H 0.23953 0.23929 0.40043 0.0
H2092 H 0.25998 0.25265 0.4223 0.0
H2093 H 0.29781 0.3128 0.40909 0.0
H2094 H 0.27777 0.2997 0.38707 0.0
H2095 H 0.16748 0.26934 0.34356 0.0
H2096 H 0.18304 0.24906 0.35128 0.0
H2097 H 0.24289 0.30584 0.36009 0.0
H2098 H 0.22722 0.32612 0.353 0.0
H2099 H 0.2369 0.28434 0.37936 0.0
H2100 H 0.22974 0.26797 0.33233 0.0
H2101 H 0.21095 0.25538 0.30995 0.0
H2102 H 0.17103 0.19489 0.3221 0.0
H2103 H 0.18942 0.20721 0.34461 0.0
C2104 C 0.28702 0.23346 0.38317 0.0
C2105 C 0.27589 0.2126 0.386 0.0
C2106 C 0.27643 0.24314 0.37826 0.0
C2107 C 0.25453 0.23214 0.37605 0.0
C2108 C 0.24336 0.21122 0.37858 0.0
C2109 C 0.25392 0.20157 0.38359 0.0
C2110 C 0.24332 0.24271 0.3714 0.0
C2111 C 0.23133 0.23546 0.35907 0.0
C2112 C 0.24532 0.2605 0.37879 0.0
C2113 C 0.25727 0.26846 0.39207 0.0
C2114 C 0.25231 0.25532 0.40216 0.0
C2115 C 0.26381 0.26285 0.41459 0.0
C2116 C 0.28021 0.28355 0.41708 0.0
C2117 C 0.28511 0.29677 0.40715 0.0
C2118 C 0.27368 0.28931 0.39469 0.0
C2119 C 0.18397 0.27741 0.34709 0.0
C2120 C 0.19614 0.29928 0.34772 0.0
C2121 C 0.19288 0.26582 0.35144 0.0
C2122 C 0.21422 0.27588 0.35616 0.0
C2123 C 0.22638 0.29771 0.35657 0.0
C2124 C 0.21742 0.30929 0.35249 0.0
C2125 C 0.22392 0.26396 0.36109 0.0
C2126 C 0.23559 0.27087 0.37356 0.0
C2127 C 0.22184 0.24603 0.35372 0.0
C2128 C 0.21081 0.23858 0.34019 0.0
C2129 C 0.21686 0.25203 0.33025 0.0
C2130 C 0.2063 0.24494 0.31754 0.0
C2131 C 0.18977 0.22437 0.31462 0.0
C2132 C 0.18381 0.21083 0.32439 0.0
C2133 C 0.19431 0.21785 0.33712 0.0
H2134 H 0.18162 0.2189 0.30477 0.0
H2135 H 0.2891 0.28935 0.42671 0.0
H2136 H 0.62715 0.48704 0.72062 0.0
H2137 H 0.6542 0.50823 0.70693 0.0
H2138 H 0.66873 0.56404 0.73183 0.0
H2139 H 0.64115 0.54302 0.74532 0.0
H2140 H 0.67023 0.57073 0.70603 0.0
H2141 H 0.69747 0.54045 0.7361 0.0
H2142 H 0.69766 0.51157 0.74656 0.0
H2143 H 0.70023 0.48407 0.70894 0.0
H2144 H 0.69978 0.51267 0.69822 0.0
H2145 H 0.77502 0.64092 0.69744 0.0
H2146 H 0.74212 0.61708 0.7055 0.0
H2147 H 0.73494 0.56675 0.67794 0.0
H2148 H 0.7682 0.5906 0.66981 0.0
H2149 H 0.7276 0.55515 0.70253 0.0
H2150 H 0.70461 0.58817 0.67285 0.0
H2151 H 0.70558 0.61787 0.66279 0.0
H2152 H 0.69566 0.64081 0.69971 0.0
H2153 H 0.69497 0.61144 0.71005 0.0
C2154 C 0.63577 0.50386 0.72304 0.0
C2155 C 0.63204 0.51331 0.73414 0.0
C2156 C 0.65138 0.51594 0.71526 0.0
C2157 C 0.66371 0.53769 0.71847 0.0
C2158 C 0.65947 0.54727 0.7292 0.0
C2159 C 0.64382 0.53521 0.73698 0.0
C2160 C 0.68176 0.55033 0.71111 0.0
C2161 C 0.68285 0.56742 0.70533 0.0
C2162 C 0.69797 0.5457 0.70991 0.0
C2163 C 0.69835 0.52856 0.71634 0.0
C2164 C 0.69792 0.52816 0.73004 0.0
C2165 C 0.69809 0.51185 0.73602 0.0
C2166 C 0.69889 0.49596 0.72841 0.0
C2167 C 0.69957 0.49637 0.71481 0.0
C2168 C 0.69937 0.51263 0.70878 0.0
C2169 C 0.76647 0.62483 0.69299 0.0
C2170 C 0.7743 0.6177 0.68295 0.0
C2171 C 0.74754 0.61122 0.69759 0.0
C2172 C 0.73592 0.5902 0.69221 0.0
C2173 C 0.74363 0.58296 0.68218 0.0
C2174 C 0.76261 0.59662 0.67753 0.0
C2175 C 0.71623 0.57571 0.69757 0.0
C2176 C 0.71485 0.5583 0.70303 0.0
C2177 C 0.6998 0.5801 0.69848 0.0
C2178 C 0.69988 0.59765 0.69225 0.0
C2179 C 0.70277 0.59962 0.67885 0.0
C2180 C 0.70326 0.61639 0.67309 0.0
C2181 C 0.70072 0.63124 0.68061 0.0
C2182 C 0.69763 0.6293 0.69389 0.0
C2183 C 0.69716 0.61257 0.69971 0.0
H2184 H 0.70113 0.64422 0.67614 0.0
H2185 H 0.69903 0.48335 0.73306 0.0
H2186 H 0.4573 0.07471 0.72676 0.0
H2187 H 0.43328 0.08488 0.71709 0.0
H2188 H 0.47959 0.14991 0.72774 0.0
H2189 H 0.50378 0.1398 0.73752 0.0
H2190 H 0.44122 0.14234 0.73265 0.0
H2191 H 0.47064 0.12699 0.69599 0.0
H2192 H 0.48045 0.10564 0.68193 0.0
H2193 H 0.41593 0.05758 0.67381 0.0
H2194 H 0.40576 0.07853 0.68797 0.0
H2195 H 0.39323 0.18102 0.68736 0.0
H2196 H 0.41827 0.17262 0.69805 0.0
H2197 H 0.37009 0.10774 0.69527 0.0
H2198 H 0.34483 0.11614 0.68501 0.0
H2199 H 0.41009 0.11627 0.68621 0.0
H2200 H 0.38042 0.13209 0.72194 0.0
H2201 H 0.37024 0.1531 0.73583 0.0
H2202 H 0.43478 0.19931 0.74673 0.0
H2203 H 0.44541 0.17923 0.73217 0.0
C2204 C 0.46247 0.0912 0.72697 0.0
C2205 C 0.48258 0.10645 0.73279 0.0
C2206 C 0.44868 0.09699 0.72145 0.0
C2207 C 0.45473 0.11818 0.72147 0.0
C2208 C 0.47459 0.13347 0.72756 0.0
C2209 C 0.48839 0.12766 0.73317 0.0
C2210 C 0.44034 0.12428 0.715 0.0
C2211 C 0.4347 0.13696 0.72243 0.0
C2212 C 0.43141 0.11682 0.70174 0.0
C2213 C 0.43746 0.10426 0.69313 0.0
C2214 C 0.45856 0.11181 0.69127 0.0
C2215 C 0.46418 0.09979 0.68328 0.0
C2216 C 0.44882 0.08025 0.677 0.0
C2217 C 0.42781 0.07271 0.67868 0.0
C2218 C 0.4221 0.08466 0.68668 0.0
C2219 C 0.38802 0.16496 0.68901 0.0
C2220 C 0.36711 0.1492 0.68534 0.0
C2221 C 0.4023 0.16022 0.69514 0.0
C2222 C 0.39601 0.13956 0.69743 0.0
C2223 C 0.37523 0.12377 0.69357 0.0
C2224 C 0.36083 0.12859 0.68776 0.0
C2225 C 0.41106 0.13436 0.70385 0.0
C2226 C 0.41677 0.12181 0.6964 0.0
C2227 C 0.42003 0.14196 0.71708 0.0
C2228 C 0.41371 0.15433 0.72568 0.0
C2229 C 0.39247 0.14698 0.72701 0.0
C2230 C 0.3866 0.15873 0.73503 0.0
C2231 C 0.40182 0.17763 0.74207 0.0
C2232 C 0.42298 0.18479 0.74114 0.0
C2233 C 0.42894 0.17329 0.73292 0.0
H2234 H 0.39719 0.18664 0.74829 0.0
H2235 H 0.4532 0.07096 0.67081 0.0
H2236 H 0.9601 0.40712 0.70697 0.0
H2237 H 0.94043 0.37005 0.69853 0.0
H2238 H 0.89795 0.35842 0.72799 0.0
H2239 H 0.91687 0.39558 0.73615 0.0
H2240 H 0.91381 0.32982 0.72531 0.0
H2241 H 0.88102 0.35948 0.69907 0.0
H2242 H 0.88083 0.38446 0.68444 0.0
H2243 H 0.90786 0.3635 0.65549 0.0
H2244 H 0.9085 0.3386 0.67005 0.0
H2245 H 0.83817 0.2259 0.70042 0.0
H2246 H 0.85557 0.26288 0.70899 0.0
H2247 H 0.88797 0.27931 0.67421 0.0
H2248 H 0.86974 0.24246 0.66532 0.0
H2249 H 0.87695 0.30596 0.68001 0.0
H2250 H 0.91128 0.27744 0.70537 0.0
H2251 H 0.9134 0.25292 0.71962 0.0
H2252 H 0.88662 0.27209 0.74971 0.0
H2253 H 0.88407 0.29655 0.73556 0.0
C2254 C 0.94642 0.39678 0.71156 0.0
C2255 C 0.94009 0.40444 0.72224 0.0
C2256 C 0.9353 0.37558 0.70678 0.0
C2257 C 0.91776 0.36159 0.71264 0.0
C2258 C 0.91154 0.36901 0.72339 0.0
C2259 C 0.92247 0.39026 0.72808 0.0
C2260 C 0.9058 0.3392 0.70746 0.0
C2261 C 0.90551 0.32449 0.71547 0.0
C2262 C 0.89551 0.33247 0.6945 0.0
C2263 C 0.895 0.34733 0.68571 0.0
C2264 C 0.88709 0.36033 0.68964 0.0
C2265 C 0.88686 0.37445 0.68135 0.0
C2266 C 0.89437 0.37561 0.66906 0.0
C2267 C 0.90207 0.3626 0.66502 0.0
C2268 C 0.90235 0.34847 0.67328 0.0
C2269 C 0.84895 0.23744 0.6946 0.0
C2270 C 0.85267 0.23134 0.68223 0.0
C2271 C 0.859 0.25856 0.69953 0.0
C2272 C 0.87345 0.27392 0.69238 0.0
C2273 C 0.87692 0.2678 0.67993 0.0
C2274 C 0.86652 0.24673 0.67487 0.0
C2275 C 0.88499 0.29634 0.69782 0.0
C2276 C 0.88522 0.31113 0.68986 0.0
C2277 C 0.89555 0.30318 0.71076 0.0
C2278 C 0.8973 0.28868 0.71935 0.0
C2279 C 0.90573 0.27634 0.71499 0.0
C2280 C 0.90702 0.26246 0.72305 0.0
C2281 C 0.9001 0.26091 0.73554 0.0
C2282 C 0.89194 0.27329 0.74002 0.0
C2283 C 0.89059 0.28718 0.73199 0.0
H2284 H 0.90109 0.25014 0.74177 0.0
H2285 H 0.89419 0.38655 0.66265 0.0
H2286 H 0.21074 0.93512 0.60222 0.0
H2287 H 0.23307 0.9727 0.60871 0.0
H2288 H 0.17942 0.97632 0.61918 0.0
H2289 H 0.15694 0.93874 0.61242 0.0
H2290 H 0.20376 0.00911 0.6074 0.0
H2291 H 0.21433 0.97492 0.64265 0.0
H2292 H 0.22263 0.95043 0.6529 0.0
H2293 H 0.28394 0.98164 0.64006 0.0
H2294 H 0.27589 0.00615 0.62956 0.0
H2295 H 0.25631 0.10213 0.65267 0.0
H2296 H 0.23476 0.06657 0.64165 0.0
H2297 H 0.28947 0.06897 0.62766 0.0
H2298 H 0.31122 0.10467 0.63863 0.0
H2299 H 0.26566 0.03377 0.64018 0.0
H2300 H 0.25467 0.07015 0.60643 0.0
H2301 H 0.24509 0.09429 0.59693 0.0
H2302 H 0.18319 0.05892 0.60838 0.0
H2303 H 0.19248 0.03476 0.61815 0.0
C2304 C 0.20372 0.94395 0.6059 0.0
C2305 C 0.18213 0.93398 0.60693 0.0
C2306 C 0.21649 0.96542 0.60962 0.0
C2307 C 0.20801 0.9773 0.61467 0.0
C2308 C 0.18634 0.96748 0.61533 0.0
C2309 C 0.17351 0.94603 0.61147 0.0
C2310 C 0.22178 -0.00017 0.61955 0.0
C2311 C 0.21717 0.01448 0.61467 0.0
C2312 C 0.23952 0.00691 0.62887 0.0
C2313 C 0.24442 0.99222 0.6352 0.0
C2314 C 0.22952 0.97646 0.64192 0.0
C2315 C 0.23419 0.96259 0.64779 0.0
C2316 C 0.25378 0.96444 0.6471 0.0
C2317 C 0.26876 0.9802 0.64057 0.0
C2318 C 0.26416 0.9941 0.63466 0.0
C2319 C 0.26377 0.09519 0.64715 0.0
C2320 C 0.28551 0.1062 0.64658 0.0
C2321 C 0.25139 0.0749 0.6408 0.0
C2322 C 0.2605 0.06517 0.63379 0.0
C2323 C 0.28214 0.07623 0.633 0.0
C2324 C 0.29452 0.09664 0.63924 0.0
C2325 C 0.2476 0.04301 0.62805 0.0
C2326 C 0.25235 0.02841 0.63283 0.0
C2327 C 0.22984 0.03598 0.6188 0.0
C2328 C 0.22433 0.05072 0.61311 0.0
C2329 C 0.23908 0.06764 0.60705 0.0
C2330 C 0.23368 0.0813 0.60159 0.0
C2331 C 0.21354 0.07812 0.60205 0.0
C2332 C 0.19878 0.06134 0.60802 0.0
C2333 C 0.2041 0.04766 0.61352 0.0
H2334 H 0.20932 0.0886 0.59773 0.0
H2335 H 0.25737 0.95369 0.65165 0.0
H2336 H 0.01443 0.21844 0.58591 0.0
H2337 H 0.981 0.20585 0.59493 0.0
H2338 H 0.01245 0.22077 0.63434 0.0
H2339 H 0.0457 0.23222 0.6254 0.0
H2340 H 0.97737 0.18537 0.63297 0.0
H2341 H 0.99672 0.25336 0.61962 0.0
H2342 H 0.00684 0.27977 0.60394 0.0
H2343 H 0.94985 0.23957 0.57887 0.0
H2344 H 0.93943 0.21286 0.59437 0.0
H2345 H 0.90089 0.19048 0.66912 0.0
H2346 H 0.9325 0.19844 0.65877 0.0
H2347 H 0.89709 0.17942 0.62041 0.0
H2348 H 0.86551 0.17166 0.63062 0.0
H2349 H 0.933 0.21533 0.6204 0.0
H2350 H 0.91264 0.14823 0.63442 0.0
H2351 H 0.90239 0.1219 0.65015 0.0
H2352 H 0.96117 0.16022 0.67391 0.0
H2353 H 0.97166 0.18693 0.65842 0.0
C2354 C 0.01423 0.21873 0.59649 0.0
C2355 C 0.0329 0.22658 0.60491 0.0
C2356 C 0.99509 0.21176 0.60166 0.0
C2357 C 0.99419 0.21275 0.61535 0.0
C2358 C 0.01269 0.21998 0.62375 0.0
C2359 C 0.03178 0.22675 0.6186 0.0
C2360 C 0.97413 0.2066 0.62101 0.0
C2361 C 0.96781 0.19211 0.63032 0.0
C2362 C 0.96128 0.21494 0.61734 0.0
C2363 C 0.9674 0.23105 0.60809 0.0
C2364 C 0.9864 0.25012 0.61073 0.0
C2365 C 0.99216 0.26515 0.60189 0.0
C2366 C 0.97899 0.26134 0.59041 0.0
C2367 C 0.96 0.24251 0.58778 0.0
C2368 C 0.95415 0.22744 0.59659 0.0
C2369 C 0.89978 0.18792 0.65848 0.0
C2370 C 0.88059 0.18038 0.65073 0.0
C2371 C 0.91788 0.1924 0.65258 0.0
C2372 C 0.91716 0.18934 0.6388 0.0
C2373 C 0.89805 0.18189 0.63105 0.0
C2374 C 0.87996 0.1774 0.63693 0.0
C2375 C 0.9364 0.1943 0.63246 0.0
C2376 C 0.94254 0.20853 0.62302 0.0
C2377 C 0.94908 0.18574 0.63601 0.0
C2378 C 0.94285 0.16967 0.64532 0.0
C2379 C 0.92332 0.15112 0.64306 0.0
C2380 C 0.91747 0.13611 0.65192 0.0
C2381 C 0.9311 0.13941 0.66304 0.0
C2382 C 0.95062 0.1577 0.6653 0.0
C2383 C 0.95653 0.17277 0.65648 0.0
H2384 H 0.92655 0.12777 0.66988 0.0
H2385 H 0.9835 0.27298 0.58357 0.0
H2386 H 0.77673 0.82629 0.62874 0.0
H2387 H 0.78212 0.8022 0.64142 0.0
H2388 H 0.762 0.75804 0.60655 0.0
H2389 H 0.75657 0.78206 0.59381 0.0
H2390 H 0.74745 0.73951 0.63057 0.0
H2391 H 0.81111 0.78914 0.6131 0.0
H2392 H 0.83875 0.82469 0.60991 0.0
H2393 H 0.85503 0.83978 0.65178 0.0
H2394 H 0.82724 0.80438 0.65521 0.0
H2395 H 0.7947 0.67898 0.64071 0.0
H2396 H 0.78237 0.70156 0.63274 0.0
H2397 H 0.81554 0.7464 0.66699 0.0
H2398 H 0.82839 0.72405 0.67492 0.0
H2399 H 0.822 0.76555 0.64574 0.0
H2400 H 0.76186 0.71528 0.66362 0.0
H2401 H 0.73431 0.68008 0.66746 0.0
H2402 H 0.71088 0.66645 0.62646 0.0
H2403 H 0.73851 0.70147 0.62231 0.0
C2404 C 0.773 0.81124 0.62386 0.0
C2405 C 0.76639 0.80606 0.61028 0.0
C2406 C 0.77614 0.79756 0.6311 0.0
C2407 C 0.77258 0.77846 0.62487 0.0
C2408 C 0.7648 0.77272 0.6115 0.0
C2409 C 0.76186 0.78648 0.60423 0.0
C2410 C 0.77895 0.76544 0.63191 0.0
C2411 C 0.76373 0.74508 0.63385 0.0
C2412 C 0.80013 0.77303 0.63648 0.0
C2413 C 0.81695 0.79422 0.63442 0.0
C2414 C 0.82047 0.8001 0.62163 0.0
C2415 C 0.83618 0.82021 0.61978 0.0
C2416 C 0.8486 0.83451 0.63064 0.0
C2417 C 0.84537 0.8287 0.64338 0.0
C2418 C 0.82965 0.80862 0.64528 0.0
C2419 C 0.7993 0.69358 0.64661 0.0
C2420 C 0.81248 0.6997 0.65848 0.0
C2421 C 0.79212 0.70643 0.64206 0.0
C2422 C 0.79773 0.72551 0.64938 0.0
C2423 C 0.81095 0.7317 0.66122 0.0
C2424 C 0.81828 0.71892 0.66573 0.0
C2425 C 0.79053 0.73937 0.64432 0.0
C2426 C 0.80564 0.75994 0.64269 0.0
C2427 C 0.76921 0.73201 0.64018 0.0
C2428 C 0.75238 0.71098 0.64264 0.0
C2429 C 0.75093 0.70474 0.6554 0.0
C2430 C 0.73528 0.68482 0.65764 0.0
C2431 C 0.72088 0.67102 0.64721 0.0
C2432 C 0.72206 0.67715 0.63453 0.0
C2433 C 0.7377 0.69705 0.63223 0.0
H2434 H 0.70879 0.6556 0.64896 0.0
H2435 H 0.86075 0.85007 0.62919 0.0
H2436 H 0.05181 0.8162 0.63043 0.0
H2437 H 0.01863 0.79723 0.63954 0.0
H2438 H 0.99196 0.755 0.60364 0.0
H2439 H 0.02468 0.77484 0.59405 0.0
H2440 H 0.96379 0.76217 0.6123 0.0
H2441 H 0.01069 0.74249 0.63196 0.0
H2442 H 0.04328 0.7481 0.64391 0.0
H2443 H 0.03274 0.77755 0.67781 0.0
H2444 H 1.00022 0.77236 0.666 0.0
H2445 H 0.87865 0.68031 0.63814 0.0
H2446 H 0.91104 0.70144 0.62859 0.0
H2447 H 0.93666 0.74338 0.6647 0.0
H2448 H 0.90451 0.7214 0.6746 0.0
H2449 H 0.96509 0.73687 0.65581 0.0
H2450 H 0.91591 0.75422 0.63496 0.0
H2451 H 0.88222 0.7447 0.62256 0.0
H2452 H 0.8962 0.71574 0.59006 0.0
H2453 H 0.92991 0.72495 0.60231 0.0
C2454 C 0.03881 0.80319 0.62431 0.0
C2455 C 0.04111 0.79703 0.61149 0.0
C2456 C 0.01986 0.79213 0.62964 0.0
C2457 C 0.00289 0.77435 0.62242 0.0
C2458 C 0.00486 0.76856 0.60947 0.0
C2459 C 0.02371 0.7798 0.60405 0.0
C2460 C 0.98333 0.76145 0.62849 0.0
C2461 C 0.96407 0.75651 0.62177 0.0
C2462 C 0.98362 0.75414 0.6409 0.0
C2463 C 0.00314 0.75723 0.64805 0.0
C2464 C 0.0154 0.75029 0.64193 0.0
C2465 C 0.03385 0.75338 0.64868 0.0
C2466 C 0.0401 0.76323 0.6616 0.0
C2467 C 0.02789 0.76996 0.6678 0.0
C2468 C 0.00944 0.76694 0.66109 0.0
C2469 C 0.89118 0.69406 0.64405 0.0
C2470 C 0.88902 0.69935 0.65708 0.0
C2471 C 0.90966 0.70623 0.63854 0.0
C2472 C 0.92613 0.7244 0.64576 0.0
C2473 C 0.92412 0.72954 0.65888 0.0
C2474 C 0.90577 0.71701 0.66453 0.0
C2475 C 0.94556 0.73779 0.63972 0.0
C2476 C 0.96481 0.74273 0.64642 0.0
C2477 C 0.9452 0.7448 0.6272 0.0
C2478 C 0.92539 0.7402 0.61959 0.0
C2479 C 0.91181 0.74584 0.62517 0.0
C2480 C 0.8927 0.74048 0.61817 0.0
C2481 C 0.88706 0.72958 0.60554 0.0
C2482 C 0.9006 0.72419 0.59984 0.0
C2483 C 0.91973 0.72952 0.60679 0.0
H2484 H 0.87221 0.72533 0.60017 0.0
H2485 H 0.05439 0.7656 0.66681 0.0
H2486 H 0.15218 0.21468 0.62003 0.0
H2487 H 0.1749 0.20277 0.62964 0.0
H2488 H 0.21256 0.22269 0.59734 0.0
H2489 H 0.1897 0.23434 0.58756 0.0
H2490 H 0.20568 0.18445 0.60418 0.0
H2491 H 0.22873 0.25326 0.62577 0.0
H2492 H 0.22435 0.28026 0.63813 0.0
H2493 H 0.20425 0.24269 0.67017 0.0
H2494 H 0.20823 0.21531 0.6579 0.0
H2495 H 0.29644 0.18684 0.63273 0.0
H2496 H 0.27183 0.19578 0.62237 0.0
H2497 H 0.23901 0.18305 0.65702 0.0
H2498 H 0.26401 0.17482 0.66763 0.0
H2499 H 0.24268 0.21693 0.64885 0.0
H2500 H 0.22056 0.1484 0.62777 0.0
H2501 H 0.22557 0.12163 0.61571 0.0
H2502 H 0.24337 0.1578 0.58292 0.0
H2503 H 0.23887 0.18502 0.59491 0.0
C2504 C 0.1651 0.21623 0.61487 0.0
C2505 C 0.16921 0.22558 0.60307 0.0
C2506 C 0.17816 0.20956 0.62042 0.0
C2507 C 0.19557 0.21207 0.61429 0.0
C2508 C 0.19926 0.22067 0.60226 0.0
C2509 C 0.18628 0.22745 0.59675 0.0
C2510 C 0.21042 0.20653 0.62066 0.0
C2511 C 0.21393 0.19167 0.6139 0.0
C2512 C 0.22086 0.21566 0.63344 0.0
C2513 C 0.21857 0.23215 0.64086 0.0
C2514 C 0.22321 0.25068 0.63541 0.0
C2515 C 0.22083 0.26607 0.6424 0.0
C2516 C 0.21397 0.26317 0.65491 0.0
C2517 C 0.20953 0.2449 0.66047 0.0
C2518 C 0.21186 0.22945 0.6535 0.0
C2519 C 0.28397 0.18591 0.63815 0.0
C2520 C 0.28216 0.18005 0.651 0.0
C2521 C 0.26982 0.19093 0.63218 0.0
C2522 C 0.2533 0.18976 0.63881 0.0
C2523 C 0.25158 0.18405 0.65168 0.0
C2524 C 0.26589 0.17931 0.65773 0.0
C2525 C 0.23795 0.19472 0.63242 0.0
C2526 C 0.23436 0.20955 0.63917 0.0
C2527 C 0.22737 0.18546 0.61966 0.0
C2528 C 0.22955 0.16884 0.61229 0.0
C2529 C 0.22564 0.1507 0.61801 0.0
C2530 C 0.22839 0.13544 0.61119 0.0
C2531 C 0.23482 0.13802 0.59856 0.0
C2532 C 0.23842 0.15583 0.59271 0.0
C2533 C 0.23576 0.17118 0.59951 0.0
H2534 H 0.23701 0.12623 0.5933 0.0
H2535 H 0.21214 0.2751 0.66032 0.0
H2536 H 0.73694 0.93658 0.607 0.0
H2537 H 0.74032 0.96878 0.61772 0.0
H2538 H 0.80555 0.99196 0.62969 0.0
H2539 H 0.8026 0.96033 0.61865 0.0
H2540 H 0.78406 0.99863 0.64971 0.0
H2541 H 0.79317 0.00773 0.60346 0.0
H2542 H 0.78194 0.99792 0.57962 0.0
H2543 H 0.72756 0.00302 0.58458 0.0
H2544 H 0.73834 0.01257 0.6085 0.0
H2545 H 0.83342 0.10758 0.66255 0.0
H2546 H 0.82165 0.0714 0.65449 0.0
H2547 H 0.76225 0.06301 0.63894 0.0
H2548 H 0.77423 0.09956 0.64664 0.0
H2549 H 0.77532 0.0463 0.62163 0.0
H2550 H 0.76752 0.04131 0.66715 0.0
H2551 H 0.7776 0.05065 0.69111 0.0
H2552 H 0.82703 0.03687 0.68817 0.0
H2553 H 0.81746 0.02774 0.66416 0.0
C2554 C 0.75203 0.94854 0.61187 0.0
C2555 C 0.76952 0.94584 0.61189 0.0
C2556 C 0.75388 0.96686 0.61806 0.0
C2557 C 0.7732 0.98272 0.62444 0.0
C2558 C 0.79047 0.97981 0.62488 0.0
C2559 C 0.7887 0.96163 0.6186 0.0
C2560 C 0.77587 0.0029 0.63009 0.0
C2561 C 0.78225 0.00914 0.6436 0.0
C2562 C 0.77281 0.01622 0.62215 0.0
C2563 C 0.76642 0.01061 0.60777 0.0
C2564 C 0.77873 0.00658 0.59948 0.0
C2565 C 0.77247 0.0011 0.58595 0.0
C2566 C 0.75402 -0.00022 0.58059 0.0
C2567 C 0.74183 0.004 0.58875 0.0
C2568 C 0.74801 0.00946 0.60228 0.0
C2569 C 0.8178 0.09803 0.65748 0.0
C2570 C 0.80473 0.10643 0.65527 0.0
C2571 C 0.81103 0.07727 0.65294 0.0
C2572 C 0.7909 0.06432 0.64633 0.0
C2573 C 0.7778 0.07267 0.64408 0.0
C2574 C 0.78467 0.09355 0.64849 0.0
C2575 C 0.78399 0.04238 0.64129 0.0
C2576 C 0.77681 0.03574 0.62786 0.0
C2577 C 0.78608 0.0286 0.64936 0.0
C2578 C 0.79185 0.03397 0.66382 0.0
C2579 C 0.78063 0.0404 0.67159 0.0
C2580 C 0.78624 0.04564 0.68519 0.0
C2581 C 0.80297 0.04439 0.69115 0.0
C2582 C 0.81409 0.03784 0.68353 0.0
C2583 C 0.80856 0.0326 0.66993 0.0
H2584 H 0.80729 0.04846 0.70168 0.0
H2585 H 0.74919 0.99554 0.57011 0.0
H2586 H 0.49637 0.38807 0.72572 0.0
H2587 H 0.46621 0.35556 0.71505 0.0
H2588 H 0.46351 0.32611 0.75041 0.0
H2589 H 0.49402 0.35843 0.76095 0.0
H2590 H 0.45899 0.30068 0.73042 0.0
H2591 H 0.4275 0.34173 0.7406 0.0
H2592 H 0.423 0.3725 0.7411 0.0
H2593 H 0.41377 0.36529 0.69882 0.0
H2594 H 0.4185 0.33463 0.69805 0.0
H2595 H 0.36064 0.21016 0.70983 0.0
H2596 H 0.38694 0.24354 0.72204 0.0
H2597 H 0.39758 0.27264 0.68603 0.0
H2598 H 0.37118 0.2394 0.67374 0.0
H2599 H 0.39685 0.29779 0.70707 0.0
H2600 H 0.42964 0.25661 0.69769 0.0
H2601 H 0.43212 0.22472 0.69805 0.0
H2602 H 0.43719 0.23171 0.74035 0.0
H2603 H 0.43433 0.26337 0.74022 0.0
C2604 C 0.4892 0.3747 0.73124 0.0
C2605 C 0.49753 0.37576 0.74415 0.0
C2606 C 0.47192 0.35613 0.72515 0.0
C2607 C 0.46237 0.33839 0.73197 0.0
C2608 C 0.4706 0.33953 0.74492 0.0
C2609 C 0.48803 0.358 0.75094 0.0
C2610 C 0.44425 0.31845 0.72547 0.0
C2611 C 0.44528 0.30006 0.7255 0.0
C2612 C 0.42643 0.31756 0.71885 0.0
C2613 C 0.42356 0.33599 0.71927 0.0
C2614 C 0.42467 0.3468 0.7314 0.0
C2615 C 0.42205 0.36421 0.73174 0.0
C2616 C 0.41815 0.37088 0.72 0.0
C2617 C 0.41682 0.36012 0.7079 0.0
C2618 C 0.41945 0.34271 0.70751 0.0
C2619 C 0.36842 0.22368 0.70451 0.0
C2620 C 0.36391 0.22205 0.69078 0.0
C2621 C 0.38348 0.24275 0.71151 0.0
C2622 C 0.39437 0.2605 0.70491 0.0
C2623 C 0.38936 0.25912 0.6913 0.0
C2624 C 0.37433 0.24006 0.68429 0.0
C2625 C 0.41173 0.28024 0.71205 0.0
C2626 C 0.41056 0.29853 0.71208 0.0
C2627 C 0.42931 0.28101 0.71886 0.0
C2628 C 0.43162 0.26227 0.71894 0.0
C2629 C 0.43118 0.25127 0.70706 0.0
C2630 C 0.43263 0.23322 0.70722 0.0
C2631 C 0.43476 0.22614 0.71921 0.0
C2632 C 0.4355 0.23714 0.73106 0.0
C2633 C 0.43398 0.25516 0.73095 0.0
H2634 H 0.4359 0.21217 0.7193 0.0
H2635 H 0.41612 0.38436 0.72028 0.0
H2636 H 0.61789 0.13073 0.72181 0.0
H2637 H 0.65063 0.14315 0.7119 0.0
H2638 H 0.67025 0.11293 0.73927 0.0
H2639 H 0.63791 0.10112 0.74954 0.0
H2640 H 0.7025 0.15024 0.7358 0.0
H2641 H 0.64903 0.09017 0.70768 0.0
H2642 H 0.61524 0.06913 0.69391 0.0
H2643 H 0.63319 0.11739 0.66826 0.0
H2644 H 0.66699 0.13885 0.682 0.0
H2645 H 0.77865 0.14179 0.70147 0.0
H2646 H 0.74793 0.135 0.71243 0.0
H2647 H 0.73193 0.16653 0.68402 0.0
H2648 H 0.76253 0.17316 0.67286 0.0
H2649 H 0.69823 0.13052 0.68793 0.0
H2650 H 0.75316 0.18957 0.71544 0.0
H2651 H 0.787 0.20997 0.72922 0.0
H2652 H 0.76655 0.16328 0.7561 0.0
H2653 H 0.73272 0.14239 0.74234 0.0
C2654 C 0.62931 0.12703 0.72589 0.0
C2655 C 0.62514 0.11476 0.73642 0.0
C2656 C 0.64796 0.13397 0.72011 0.0
C2657 C 0.66278 0.12869 0.72468 0.0
C2658 C 0.65902 0.11712 0.73551 0.0
C2659 C 0.64041 0.11021 0.7413 0.0
C2660 C 0.68187 0.13455 0.71793 0.0
C2661 C 0.70156 0.14577 0.72536 0.0
C2662 C 0.68072 0.1291 0.70424 0.0
C2663 C 0.66044 0.1162 0.69595 0.0
C2664 C 0.6457 0.09636 0.69917 0.0
C2665 C 0.62656 0.08435 0.69136 0.0
C2666 C 0.62205 0.09194 0.68024 0.0
C2667 C 0.63669 0.11154 0.67689 0.0
C2668 C 0.65584 0.12363 0.68468 0.0
C2669 C 0.76863 0.14732 0.69753 0.0
C2670 C 0.7731 0.15802 0.68625 0.0
C2671 C 0.75111 0.14352 0.70387 0.0
C2672 C 0.73771 0.15047 0.69915 0.0
C2673 C 0.74205 0.16107 0.68787 0.0
C2674 C 0.7596 0.16488 0.68151 0.0
C2675 C 0.71889 0.14616 0.7058 0.0
C2676 C 0.69921 0.13517 0.69835 0.0
C2677 C 0.72009 0.15176 0.71947 0.0
C2678 C 0.74044 0.16431 0.72778 0.0
C2679 C 0.75593 0.18355 0.72422 0.0
C2680 C 0.77512 0.19522 0.73204 0.0
C2681 C 0.77894 0.18791 0.74351 0.0
C2682 C 0.76358 0.16892 0.7472 0.0
C2683 C 0.74439 0.15715 0.73939 0.0
H2684 H 0.79378 0.19699 0.74957 0.0
H2685 H 0.60722 0.08262 0.6742 0.0
H2686 H 0.94365 0.55783 0.7395 0.0
H2687 H 0.92401 0.57379 0.73088 0.0
H2688 H 0.90822 0.5353 0.69378 0.0
H2689 H 0.92777 0.5192 0.70237 0.0
H2690 H 0.92331 0.57864 0.69166 0.0
H2691 H 0.87206 0.52208 0.71292 0.0
H2692 H 0.85863 0.50111 0.73141 0.0
H2693 H 0.8656 0.55477 0.75496 0.0
H2694 H 0.87938 0.57615 0.73667 0.0
H2695 H 0.8507 0.60513 0.66458 0.0
H2696 H 0.8665 0.58506 0.67214 0.0
H2697 H 0.87352 0.61195 0.71216 0.0
H2698 H 0.8571 0.63144 0.70477 0.0
H2699 H 0.86197 0.57276 0.71215 0.0
H2700 H 0.91478 0.63004 0.69247 0.0
H2701 H 0.92982 0.65267 0.67491 0.0
H2702 H 0.92214 0.60022 0.64959 0.0
H2703 H 0.90678 0.5772 0.66695 0.0
C2704 C 0.93604 0.55284 0.7295 0.0
C2705 C 0.93717 0.53728 0.7216 0.0
C2706 C 0.92476 0.56187 0.72462 0.0
C2707 C 0.9146 0.5556 0.71173 0.0
C2708 C 0.91593 0.54027 0.70376 0.0
C2709 C 0.92698 0.53104 0.70869 0.0
C2710 C 0.9027 0.5652 0.70656 0.0
C2711 C 0.90969 0.57712 0.69598 0.0
C2712 C 0.88532 0.56362 0.71247 0.0
C2713 C 0.87694 0.55076 0.72346 0.0
C2714 C 0.8709 0.52946 0.72208 0.0
C2715 C 0.86319 0.51749 0.73252 0.0
C2716 C 0.86131 0.52661 0.74436 0.0
C2717 C 0.86709 0.54773 0.74578 0.0
C2718 C 0.87483 0.55977 0.73538 0.0
C2719 C 0.85549 0.60666 0.675 0.0
C2720 C 0.85276 0.61997 0.68406 0.0
C2721 C 0.86461 0.59526 0.6793 0.0
C2722 C 0.87157 0.59729 0.69269 0.0
C2723 C 0.86832 0.61013 0.70178 0.0
C2724 C 0.85895 0.62131 0.69752 0.0
C2725 C 0.88262 0.58641 0.69725 0.0
C2726 C 0.87551 0.57424 0.70774 0.0
C2727 C 0.90011 0.58804 0.69138 0.0
C2728 C 0.90943 0.60186 0.68095 0.0
C2729 C 0.91616 0.6233 0.68312 0.0
C2730 C 0.92476 0.6362 0.67321 0.0
C2731 C 0.92688 0.62788 0.66113 0.0
C2732 C 0.92045 0.60664 0.65895 0.0
C2733 C 0.91181 0.59366 0.66882 0.0
H2734 H 0.93354 0.63789 0.65347 0.0
H2735 H 0.85534 0.51732 0.75243 0.0
H2736 H 0.47721 0.97821 0.20063 0.0
H2737 H 0.48474 0.98704 0.17832 0.0
H2738 H 0.45032 0.92154 0.16355 0.0
H2739 H 0.44263 0.91254 0.18595 0.0
H2740 H 0.48651 0.94167 0.15265 0.0
H2741 H 0.42912 0.95225 0.15884 0.0
H2742 H 0.40925 0.96584 0.17021 0.0
H2743 H 0.45789 0.0288 0.16752 0.0
H2744 H 0.47821 0.0156 0.1563 0.0
H2745 H 0.48497 0.96332 0.08538 0.0
H2746 H 0.47487 0.95053 0.10667 0.0
H2747 H 0.50882 0.01388 0.12567 0.0
H2748 H 0.5192 0.02678 0.1045 0.0
H2749 H 0.4702 0.9923 0.13361 0.0
H2750 H 0.52819 0.98121 0.12825 0.0
H2751 H 0.54752 0.96726 0.11658 0.0
H2752 H 0.49682 0.90461 0.11732 0.0
H2753 H 0.47704 0.91822 0.12883 0.0
C2754 C 0.471 0.96566 0.19263 0.0
C2755 C 0.45912 0.94466 0.19508 0.0
C2756 C 0.47537 0.97074 0.17987 0.0
C2757 C 0.46785 0.95498 0.16921 0.0
C2758 C 0.45626 0.93397 0.17162 0.0
C2759 C 0.45191 0.92885 0.18442 0.0
C2760 C 0.47226 0.96058 0.15562 0.0
C2761 C 0.48263 0.95247 0.14839 0.0
C2762 C 0.46748 0.97491 0.15012 0.0
C2763 C 0.45527 0.98292 0.15683 0.0
C2764 C 0.43566 0.969 0.16076 0.0
C2765 C 0.4243 0.97663 0.16716 0.0
C2766 C 0.43232 0.99817 0.16961 0.0
C2767 C 0.45171 0.01212 0.16563 0.0
C2768 C 0.46314 0.00457 0.15924 0.0
C2769 C 0.49056 0.97453 0.0941 0.0
C2770 C 0.50286 0.99611 0.09318 0.0
C2771 C 0.48469 0.96718 0.10627 0.0
C2772 C 0.49114 0.98124 0.11778 0.0
C2773 C 0.50354 0.00275 0.11691 0.0
C2774 C 0.50941 0.0101 0.10477 0.0
C2775 C 0.48478 0.9737 0.13074 0.0
C2776 C 0.47397 0.98141 0.13783 0.0
C2777 C 0.48908 0.95895 0.13607 0.0
C2778 C 0.50104 0.95075 0.12927 0.0
C2779 C 0.52109 0.96447 0.12583 0.0
C2780 C 0.53214 0.95662 0.11926 0.0
C2781 C 0.52338 0.93507 0.11618 0.0
C2782 C 0.50357 0.92131 0.1197 0.0
C2783 C 0.49244 0.92908 0.12625 0.0
H2784 H 0.53196 0.92902 0.11108 0.0
H2785 H 0.4235 0.00404 0.17457 0.0
H2786 H 0.05515 0.55608 0.19538 0.0
H2787 H 0.03481 0.54489 0.17379 0.0
H2788 H 0.01678 0.48083 0.17815 0.0
H2789 H 0.03786 0.49206 0.19958 0.0
H2790 H 0.03057 0.49051 0.15513 0.0
H2791 H 0.98093 0.49754 0.17879 0.0
H2792 H 0.9679 0.51435 0.19411 0.0
H2793 H 0.98507 0.56434 0.16993 0.0
H2794 H 0.9985 0.54799 0.15455 0.0
H2795 H 0.96689 0.45804 0.09346 0.0
H2796 H 0.97613 0.46175 0.11729 0.0
H2797 H 0.0048 0.52874 0.11857 0.0
H2798 H 0.99542 0.52513 0.09481 0.0
H2799 H 0.9809 0.51277 0.13938 0.0
H2800 H 0.03459 0.50748 0.11763 0.0
H2801 H 0.04754 0.49048 0.10237 0.0
H2802 H 0.02182 0.43635 0.12338 0.0
H2803 H 0.00845 0.45295 0.13866 0.0
C2804 C 0.04681 0.53959 0.19177 0.0
C2805 C 0.04825 0.52498 0.19916 0.0
C2806 C 0.03496 0.53318 0.17949 0.0
C2807 C 0.02409 0.51198 0.1744 0.0
C2808 C 0.02498 0.49725 0.18192 0.0
C2809 C 0.0369 0.50368 0.1942 0.0
C2810 C 0.01333 0.50557 0.16078 0.0
C2811 C 0.01933 0.49496 0.15177 0.0
C2812 C 0.99894 0.51168 0.15634 0.0
C2813 C 0.99086 0.52159 0.16555 0.0
C2814 C 0.98208 0.5122 0.17679 0.0
C2815 C 0.97459 0.52163 0.18548 0.0
C2816 C 0.97569 0.54042 0.18301 0.0
C2817 C 0.98424 0.54979 0.17183 0.0
C2818 C 0.99177 0.54043 0.16311 0.0
C2819 C 0.97493 0.47352 0.09886 0.0
C2820 C 0.98058 0.49132 0.09229 0.0
C2821 C 0.98026 0.47562 0.11244 0.0
C2822 C 0.99125 0.49552 0.11964 0.0
C2823 C 0.99632 0.51325 0.11317 0.0
C2824 C 0.99113 0.51118 0.0996 0.0
C2825 C 0.99846 0.4981 0.1338 0.0
C2826 C 0.99184 0.50802 0.14286 0.0
C2827 C 0.01221 0.49128 0.13833 0.0
C2828 C 0.02031 0.48134 0.12918 0.0
C2829 C 0.03154 0.49188 0.11892 0.0
C2830 C 0.03898 0.48233 0.11028 0.0
C2831 C 0.03544 0.46232 0.11188 0.0
C2832 C 0.02451 0.45183 0.12214 0.0
C2833 C 0.017 0.46131 0.1308 0.0
H2834 H 0.04122 0.45495 0.10518 0.0
H2835 H 0.96988 0.54769 0.18975 0.0
H2836 H 0.48506 0.53979 0.19744 0.0
H2837 H 0.48907 0.53744 0.17395 0.0
H2838 H 0.45632 0.47014 0.17187 0.0
H2839 H 0.4527 0.47238 0.19545 0.0
H2840 H 0.49201 0.48511 0.16017 0.0
H2841 H 0.43277 0.49494 0.1587 0.0
H2842 H 0.41306 0.51236 0.16469 0.0
H2843 H 0.4589 0.56854 0.15031 0.0
H2844 H 0.47906 0.55154 0.1444 0.0
H2845 H 0.48286 0.46544 0.0908 0.0
H2846 H 0.47487 0.46653 0.11357 0.0
H2847 H 0.50408 0.53371 0.11607 0.0
H2848 H 0.51178 0.53264 0.09319 0.0
H2849 H 0.4692 0.51813 0.12749 0.0
H2850 H 0.52914 0.50936 0.12973 0.0
H2851 H 0.54961 0.49266 0.12395 0.0
H2852 H 0.5035 0.43548 0.1372 0.0
H2853 H 0.48261 0.45176 0.1429 0.0
C2854 C 0.47871 0.52449 0.19198 0.0
C2855 C 0.46858 0.50627 0.19831 0.0
C2856 C 0.48085 0.52316 0.17853 0.0
C2857 C 0.47284 0.50361 0.17113 0.0
C2858 C 0.46255 0.48539 0.17739 0.0
C2859 C 0.46035 0.48669 0.19084 0.0
C2860 C 0.47602 0.50221 0.157 0.0
C2861 C 0.48672 0.49203 0.15298 0.0
C2862 C 0.46964 0.51177 0.1477 0.0
C2863 C 0.45752 0.52201 0.15122 0.0
C2864 C 0.43874 0.51106 0.15692 0.0
C2865 C 0.42747 0.52085 0.16028 0.0
C2866 C 0.43475 0.54156 0.15791 0.0
C2867 C 0.45329 0.55251 0.15215 0.0
C2868 C 0.46463 0.54279 0.14878 0.0
C2869 C 0.48765 0.48045 0.09623 0.0
C2870 C 0.49809 0.49898 0.09026 0.0
C2871 C 0.48308 0.48106 0.10924 0.0
C2872 C 0.48917 0.50024 0.11662 0.0
C2873 C 0.49924 0.51873 0.11058 0.0
C2874 C 0.50363 0.51811 0.09752 0.0
C2875 C 0.48522 0.50104 0.13065 0.0
C2876 C 0.47442 0.51113 0.13467 0.0
C2877 C 0.49163 0.49152 0.13998 0.0
C2878 C 0.50421 0.48172 0.13662 0.0
C2879 C 0.52329 0.49318 0.13132 0.0
C2880 C 0.53498 0.4838 0.12808 0.0
C2881 C 0.52783 0.46301 0.13018 0.0
C2882 C 0.50901 0.45157 0.13556 0.0
C2883 C 0.49724 0.46088 0.13881 0.0
H2884 H 0.5369 0.45577 0.12766 0.0
H2885 H 0.42599 0.54912 0.16052 0.0
H2886 H 0.99718 0.47599 0.80272 0.0
H2887 H 0.99995 0.47705 0.82676 0.0
H2888 H 0.99667 0.53356 0.83004 0.0
H2889 H 0.99395 0.53262 0.80596 0.0
H2890 H 0.029 0.53546 0.84702 0.0
H2891 H 0.95525 0.49005 0.83476 0.0
H2892 H 0.92394 0.45977 0.82252 0.0
H2893 H 0.94098 0.41806 0.83917 0.0
H2894 H 0.97258 0.44813 0.85136 0.0
H2895 H 0.01652 0.54053 0.91462 0.0
H2896 H 0.0108 0.53851 0.89066 0.0
H2897 H 0.00532 0.47767 0.88677 0.0
H2898 H 0.01065 0.47947 0.91081 0.0
H2899 H 0.97707 0.47797 0.86993 0.0
H2900 H 0.05081 0.52222 0.88164 0.0
H2901 H 0.08289 0.55189 0.89364 0.0
H2902 H 0.06715 0.59499 0.87775 0.0
H2903 H 0.0348 0.56554 0.86579 0.0
C2904 C 0.99715 0.48868 0.80858 0.0
C2905 C 0.99537 0.50424 0.8025 0.0
C2906 C 0.99858 0.48919 0.82228 0.0
C2907 C 0.99837 0.50531 0.83014 0.0
C2908 C 0.9968 0.52097 0.82412 0.0
C2909 C 0.99514 0.52035 0.8104 0.0
C2910 C 1.00013 0.50598 0.84467 0.0
C2911 C 0.0175 0.52306 0.85207 0.0
C2912 C 0.98542 0.48947 0.85116 0.0
C2913 C 0.96639 0.47136 0.84387 0.0
C2914 C 0.95242 0.47443 0.83572 0.0
C2915 C 0.9346 0.4573 0.82881 0.0
C2916 C 0.93051 0.437 0.83003 0.0
C2917 C 0.94419 0.43379 0.83821 0.0
C2918 C 0.96205 0.45087 0.84513 0.0
C2919 C 0.01411 0.52673 0.90864 0.0
C2920 C 0.01422 0.51023 0.91455 0.0
C2921 C 0.01086 0.5256 0.89496 0.0
C2922 C 0.00803 0.50811 0.8869 0.0
C2923 C 0.00753 0.49134 0.8928 0.0
C2924 C 0.01056 0.49237 0.90651 0.0
C2925 C 0.00597 0.5075 0.87234 0.0
C2926 C 0.98857 0.49042 0.86491 0.0
C2927 C 0.02079 0.52392 0.86579 0.0
C2928 C 0.04028 0.54167 0.87292 0.0
C2929 C 0.05411 0.53802 0.88078 0.0
C2930 C 0.07235 0.5548 0.88757 0.0
C2931 C 0.07703 0.57531 0.88649 0.0
C2932 C 0.06349 0.57909 0.87859 0.0
C2933 C 0.04521 0.56236 0.8718 0.0
H2934 H 0.09116 0.58828 0.89175 0.0
H2935 H 0.9167 0.42376 0.82468 0.0
H2936 H 0.51402 0.46032 0.81483 0.0
H2937 H 0.50344 0.47201 0.83426 0.0
H2938 H 0.56199 0.53045 0.83908 0.0
H2939 H 0.57286 0.51862 0.81969 0.0
H2940 H 0.55306 0.51353 0.86215 0.0
H2941 H 0.51763 0.52973 0.82894 0.0
H2942 H 0.49541 0.524 0.8084 0.0
H2943 H 0.44289 0.47407 0.82349 0.0
H2944 H 0.46487 0.47928 0.84407 0.0
H2945 H 0.51714 0.54646 0.9164 0.0
H2946 H 0.52917 0.54667 0.89461 0.0
H2947 H 0.47539 0.48561 0.88254 0.0
H2948 H 0.46318 0.48543 0.90418 0.0
H2949 H 0.48466 0.51027 0.86263 0.0
H2950 H 0.52261 0.4908 0.89399 0.0
H2951 H 0.54366 0.49839 0.9154 0.0
H2952 H 0.59121 0.55632 0.9038 0.0
H2953 H 0.57038 0.54909 0.88234 0.0
C2954 C 0.52463 0.47569 0.82 0.0
C2955 C 0.54431 0.48852 0.81575 0.0
C2956 C 0.51849 0.48243 0.83104 0.0
C2957 C 0.53185 0.50218 0.83807 0.0
C2958 C 0.55141 0.51518 0.83377 0.0
C2959 C 0.55753 0.50847 0.82265 0.0
C2960 C 0.52562 0.5086 0.85027 0.0
C2961 C 0.53831 0.51324 0.86219 0.0
C2962 C 0.50628 0.50805 0.85039 0.0
C2963 C 0.49296 0.50481 0.83802 0.0
C2964 C 0.50139 0.51741 0.82785 0.0
C2965 C 0.48882 0.51427 0.8162 0.0
C2966 C 0.46776 0.49866 0.81463 0.0
C2967 C 0.45921 0.48616 0.82472 0.0
C2968 C 0.47171 0.48921 0.83639 0.0
C2969 C 0.50782 0.53316 0.90906 0.0
C2970 C 0.48929 0.51587 0.91203 0.0
C2971 C 0.51468 0.53331 0.89661 0.0
C2972 C 0.50332 0.51602 0.88701 0.0
C2973 C 0.48437 0.49915 0.88978 0.0
C2974 C 0.47742 0.49906 0.90216 0.0
C2975 C 0.51182 0.51462 0.87445 0.0
C2976 C 0.49956 0.51088 0.8625 0.0
C2977 C 0.53155 0.51605 0.87428 0.0
C2978 C 0.5449 0.51949 0.88663 0.0
C2979 C 0.53762 0.5051 0.896 0.0
C2980 C 0.54947 0.50936 0.90814 0.0
C2981 C 0.56867 0.5279 0.91099 0.0
C2982 C 0.57629 0.542 0.90159 0.0
C2983 C 0.5645 0.5378 0.88942 0.0
H2984 H 0.57765 0.53134 0.92048 0.0
H2985 H 0.45806 0.49626 0.80561 0.0
H2986 H 0.51635 0.07938 0.81952 0.0
H2987 H 0.51169 0.06862 0.84174 0.0
H2988 H 0.55056 0.04135 0.83628 0.0
H2989 H 0.55482 0.05153 0.81396 0.0
H2990 H 0.51526 0.01482 0.84596 0.0
H2991 H 0.56829 0.08692 0.8564 0.0
H2992 H 0.58427 0.12501 0.85606 0.0
H2993 H 0.53316 0.12369 0.87436 0.0
H2994 H 0.51671 0.08552 0.87465 0.0
H2995 H 0.52466 0.99328 0.91141 0.0
H2996 H 0.53309 0.00823 0.89054 0.0
H2997 H 0.49429 0.03555 0.8962 0.0
H2998 H 0.48585 0.02069 0.91713 0.0
H2999 H 0.52991 0.06252 0.88658 0.0
H3000 H 0.47643 0.99066 0.87563 0.0
H3001 H 0.46005 0.95252 0.87594 0.0
H3002 H 0.51153 0.9534 0.85839 0.0
H3003 H 0.52838 0.99162 0.85815 0.0
C3004 C 0.52394 0.07113 0.82306 0.0
C3005 C 0.53598 0.06635 0.81494 0.0
C3006 C 0.52141 0.06514 0.83581 0.0
C3007 C 0.5309 0.0543 0.84073 0.0
C3008 C 0.54313 0.04975 0.83272 0.0
C3009 C 0.54571 0.05576 0.81999 0.0
C3010 C 0.52728 0.0468 0.85398 0.0
C3011 C 0.51878 0.02532 0.85486 0.0
C3012 C 0.5313 0.06037 0.86557 0.0
C3013 C 0.54116 0.08332 0.86542 0.0
C3014 C 0.56036 0.09472 0.86025 0.0
C3015 C 0.56953 0.11633 0.86009 0.0
C3016 C 0.55971 0.12676 0.86515 0.0
C3017 C 0.54073 0.11559 0.87043 0.0
C3018 C 0.53149 0.09397 0.8706 0.0
C3019 C 0.51781 0.00237 0.90818 0.0
C3020 C 0.50434 0.00555 0.91585 0.0
C3021 C 0.5227 0.01096 0.89626 0.0
C3022 C 0.51405 0.02274 0.89167 0.0
C3023 C 0.50112 0.02649 0.89951 0.0
C3024 C 0.49629 0.01797 0.91147 0.0
C3025 C 0.51801 0.03058 0.87854 0.0
C3026 C 0.52648 0.05207 0.87767 0.0
C3027 C 0.5139 0.01702 0.86693 0.0
C3028 C 0.50376 0.99403 0.86699 0.0
C3029 C 0.48433 0.98274 0.87193 0.0
C3030 C 0.47495 0.96111 0.87208 0.0
C3031 C 0.48477 0.95056 0.86722 0.0
C3032 C 0.50396 0.96161 0.86217 0.0
C3033 C 0.51342 0.98325 0.86202 0.0
H3034 H 0.47748 0.93381 0.86734 0.0
H3035 H 0.56683 0.14349 0.86502 0.0
H3036 H 0.11947 0.24725 0.51675 0.0
H3037 H 0.12762 0.25816 0.4948 0.0
H3038 H 0.13225 0.31713 0.50731 0.0
H3039 H 0.12431 0.30645 0.52925 0.0
H3040 H 0.11181 0.30196 0.48289 0.0
H3041 H 0.17583 0.31304 0.50579 0.0
H3042 H 0.19812 0.30274 0.51824 0.0
H3043 H 0.18706 0.25696 0.48606 0.0
H3044 H 0.16445 0.2668 0.47349 0.0
H3045 H 0.17249 0.36551 0.43587 0.0
H3046 H 0.16048 0.3502 0.45622 0.0
H3047 H 0.15353 0.29193 0.43946 0.0
H3048 H 0.16487 0.30685 0.41887 0.0
H3049 H 0.1736 0.30435 0.4651 0.0
H3050 H 0.11131 0.29472 0.44163 0.0
H3051 H 0.08945 0.30536 0.42906 0.0
H3052 H 0.09726 0.34837 0.46213 0.0
H3053 H 0.11951 0.33825 0.47484 0.0
C3054 C 0.12223 0.26255 0.51484 0.0
C3055 C 0.12128 0.27598 0.52481 0.0
C3056 C 0.12686 0.26875 0.50227 0.0
C3057 C 0.13079 0.28858 0.49944 0.0
C3058 C 0.12924 0.30175 0.50924 0.0
C3059 C 0.1246 0.29556 0.52179 0.0
C3060 C 0.13713 0.29592 0.48641 0.0
C3061 C 0.12544 0.30266 0.47906 0.0
C3062 C 0.15461 0.29638 0.48124 0.0
C3063 C 0.16826 0.2905 0.48876 0.0
C3064 C 0.17801 0.30066 0.50142 0.0
C3065 C 0.19073 0.29493 0.50849 0.0
C3066 C 0.19395 0.27916 0.50296 0.0
C3067 C 0.18452 0.26914 0.49034 0.0
C3068 C 0.17176 0.2748 0.48323 0.0
C3069 C 0.16819 0.34936 0.43641 0.0
C3070 C 0.16959 0.33743 0.42564 0.0
C3071 C 0.16141 0.34066 0.4481 0.0
C3072 C 0.15594 0.31987 0.44932 0.0
C3073 C 0.1577 0.30802 0.43873 0.0
C3074 C 0.16432 0.31665 0.42698 0.0
C3075 C 0.14842 0.3106 0.46168 0.0
C3076 C 0.15989 0.3035 0.46889 0.0
C3077 C 0.13074 0.30982 0.46673 0.0
C3078 C 0.11726 0.31587 0.45915 0.0
C3079 C 0.10852 0.30658 0.44619 0.0
C3080 C 0.09603 0.31249 0.43904 0.0
C3081 C 0.09199 0.32756 0.44478 0.0
C3082 C 0.10042 0.33671 0.4577 0.0
C3083 C 0.11297 0.33089 0.46488 0.0
H3084 H 0.08232 0.33212 0.43923 0.0
H3085 H 0.20381 0.27474 0.50845 0.0
H3086 H 0.70845 0.86805 0.52713 0.0
H3087 H 0.68782 0.85552 0.50553 0.0
H3088 H 0.69078 0.79888 0.50478 0.0
H3089 H 0.7115 0.8114 0.52646 0.0
H3090 H 0.7023 0.81882 0.48198 0.0
H3091 H 0.64554 0.79509 0.50822 0.0
H3092 H 0.62559 0.79771 0.52592 0.0
H3093 H 0.62037 0.84573 0.50789 0.0
H3094 H 0.64056 0.84363 0.49019 0.0
H3095 H 0.64139 0.78634 0.4196 0.0
H3096 H 0.65113 0.78488 0.44267 0.0
H3097 H 0.64957 0.84111 0.45399 0.0
H3098 H 0.63978 0.84258 0.43109 0.0
H3099 H 0.63375 0.81417 0.47188 0.0
H3100 H 0.69542 0.84278 0.44859 0.0
H3101 H 0.71583 0.84172 0.43071 0.0
H3102 H 0.71263 0.78628 0.44332 0.0
H3103 H 0.69197 0.78689 0.46119 0.0
C3104 C 0.70456 0.85286 0.52239 0.0
C3105 C 0.71157 0.8407 0.52842 0.0
C3106 C 0.69268 0.84566 0.51011 0.0
C3107 C 0.68768 0.82622 0.50362 0.0
C3108 C 0.69441 0.81388 0.50968 0.0
C3109 C 0.70612 0.82099 0.52206 0.0
C3110 C 0.67657 0.81957 0.49013 0.0
C3111 C 0.68707 0.81728 0.47978 0.0
C3112 C 0.65691 0.818 0.48729 0.0
C3113 C 0.6447 0.81929 0.49791 0.0
C3114 C 0.64028 0.80633 0.50808 0.0
C3115 C 0.6289 0.8077 0.51811 0.0
C3116 C 0.62175 0.8219 0.51804 0.0
C3117 C 0.62592 0.83474 0.50793 0.0
C3118 C 0.63731 0.83344 0.49789 0.0
C3119 C 0.64298 0.79828 0.42704 0.0
C3120 C 0.6399 0.81462 0.42353 0.0
C3121 C 0.6485 0.79741 0.4402 0.0
C3122 C 0.6513 0.81303 0.45002 0.0
C3123 C 0.6474 0.82885 0.44659 0.0
C3124 C 0.64177 0.82965 0.43348 0.0
C3125 C 0.65972 0.81395 0.46372 0.0
C3126 C 0.64875 0.81522 0.4741 0.0
C3127 C 0.67906 0.81481 0.4666 0.0
C3128 C 0.69195 0.81473 0.45611 0.0
C3129 C 0.69899 0.83032 0.4475 0.0
C3130 C 0.71061 0.8298 0.43738 0.0
C3131 C 0.71544 0.8139 0.43585 0.0
C3132 C 0.70882 0.79856 0.4445 0.0
C3133 C 0.69717 0.79899 0.45463 0.0
H3134 H 0.72433 0.81348 0.42796 0.0
H3135 H 0.61293 0.82293 0.52581 0.0
H3136 H 0.12533 0.8501 0.52939 0.0
H3137 H 0.12911 0.84659 0.50595 0.0
H3138 H 0.14219 0.797 0.51163 0.0
H3139 H 0.13839 0.8004 0.5351 0.0
H3140 H 0.16984 0.8247 0.49749 0.0
H3141 H 0.0953 0.7868 0.49615 0.0
H3142 H 0.06063 0.78094 0.50064 0.0
H3143 H 0.06993 0.8323 0.47937 0.0
H3144 H 0.10481 0.83869 0.47492 0.0
H3145 H 0.16632 0.79677 0.42905 0.0
H3146 H 0.1583 0.79515 0.45194 0.0
H3147 H 0.1457 0.84563 0.44914 0.0
H3148 H 0.1538 0.84745 0.42634 0.0
H3149 H 0.11669 0.81524 0.46167 0.0
H3150 H 0.19183 0.85444 0.46424 0.0
H3151 H 0.2266 0.86059 0.45974 0.0
H3152 H 0.21605 0.80685 0.47876 0.0
H3153 H 0.18107 0.8002 0.48321 0.0
C3154 C 0.12869 0.83823 0.52562 0.0
C3155 C 0.13156 0.82553 0.53412 0.0
C3156 C 0.13086 0.83625 0.51221 0.0
C3157 C 0.13576 0.8214 0.507 0.0
C3158 C 0.13845 0.80858 0.51543 0.0
C3159 C 0.13633 0.81059 0.52885 0.0
C3160 C 0.13891 0.81984 0.49286 0.0
C3161 C 0.15806 0.82226 0.48965 0.0
C3162 C 0.12374 0.81714 0.48264 0.0
C3163 C 0.10276 0.81335 0.48531 0.0
C3164 C 0.09003 0.79697 0.49252 0.0
C3165 C 0.07033 0.79353 0.49504 0.0
C3166 C 0.0631 0.80627 0.49032 0.0
C3167 C 0.07555 0.82246 0.48304 0.0
C3168 C 0.09529 0.82599 0.48051 0.0
C3169 C 0.16192 0.80757 0.43333 0.0
C3170 C 0.16074 0.82226 0.42586 0.0
C3171 C 0.1573 0.8066 0.4464 0.0
C3172 C 0.15158 0.8204 0.45229 0.0
C3173 C 0.15 0.83478 0.44479 0.0
C3174 C 0.15458 0.83575 0.43173 0.0
C3175 C 0.14763 0.82021 0.46634 0.0
C3176 C 0.12837 0.8175 0.46952 0.0
C3177 C 0.1627 0.82268 0.47655 0.0
C3178 C 0.18375 0.82669 0.47392 0.0
C3179 C 0.19686 0.84383 0.46736 0.0
C3180 C 0.21662 0.84743 0.46484 0.0
C3181 C 0.22351 0.83408 0.46893 0.0
C3182 C 0.21068 0.81715 0.47558 0.0
C3183 C 0.19089 0.81347 0.47811 0.0
H3184 H 0.23881 0.83689 0.46697 0.0
H3185 H 0.04783 0.80358 0.49228 0.0
H3186 H 0.68691 0.83766 0.13663 0.0
H3187 H 0.68813 0.83627 0.1604 0.0
H3188 H 0.62295 0.81772 0.15875 0.0
H3189 H 0.62111 0.81786 0.13483 0.0
H3190 H 0.65238 0.85252 0.17923 0.0
H3191 H 0.63101 0.78176 0.16257 0.0
H3192 H 0.63352 0.75458 0.14893 0.0
H3193 H 0.69468 0.7759 0.16855 0.0
H3194 H 0.69267 0.80344 0.18217 0.0
H3195 H 0.64331 0.83011 0.24569 0.0
H3196 H 0.63667 0.8274 0.22175 0.0
H3197 H 0.69488 0.82891 0.21753 0.0
H3198 H 0.70108 0.83048 0.24136 0.0
H3199 H 0.66612 0.80114 0.19963 0.0
H3200 H 0.68958 0.87261 0.21519 0.0
H3201 H 0.68936 0.90144 0.2285 0.0
H3202 H 0.62728 0.88102 0.21085 0.0
H3203 H 0.62703 0.85187 0.19755 0.0
C3204 C 0.67269 0.83293 0.14122 0.0
C3205 C 0.65387 0.82775 0.13371 0.0
C3206 C 0.6735 0.83234 0.15484 0.0
C3207 C 0.65562 0.82685 0.16126 0.0
C3208 C 0.63692 0.82207 0.15392 0.0
C3209 C 0.63597 0.8223 0.14025 0.0
C3210 C 0.65656 0.826 0.17566 0.0
C3211 C 0.65502 0.84109 0.18373 0.0
C3212 C 0.66055 0.8114 0.18143 0.0
C3213 C 0.66177 0.7948 0.1733 0.0
C3214 C 0.64508 0.78079 0.16389 0.0
C3215 C 0.64639 0.76529 0.15618 0.0
C3216 C 0.66427 0.76355 0.15785 0.0
C3217 C 0.68085 0.77728 0.16726 0.0
C3218 C 0.67962 0.79283 0.17498 0.0
C3219 C 0.65456 0.82956 0.23967 0.0
C3220 C 0.67281 0.83067 0.24548 0.0
C3221 C 0.65085 0.82825 0.22598 0.0
C3222 C 0.66544 0.82829 0.21784 0.0
C3223 C 0.68344 0.82895 0.2236 0.0
C3224 C 0.68707 0.83009 0.23726 0.0
C3225 C 0.66216 0.82783 0.20334 0.0
C3226 C 0.66329 0.8125 0.1952 0.0
C3227 C 0.65809 0.84241 0.19751 0.0
C3228 C 0.6582 0.85992 0.20549 0.0
C3229 C 0.67582 0.87416 0.21423 0.0
C3230 C 0.67579 0.89058 0.22175 0.0
C3231 C 0.65829 0.89302 0.22055 0.0
C3232 C 0.64081 0.87908 0.21179 0.0
C3233 C 0.64074 0.86261 0.20425 0.0
H3234 H 0.6583 0.90575 0.22638 0.0
H3235 H 0.66525 0.75153 0.15187 0.0
H3236 H 0.17847 0.79989 0.14579 0.0
H3237 H 0.16849 0.80922 0.16639 0.0
H3238 H 0.23225 0.85853 0.17755 0.0
H3239 H 0.24244 0.84896 0.15707 0.0
H3240 H 0.21665 0.83414 0.19703 0.0
H3241 H 0.19472 0.87018 0.16903 0.0
H3242 H 0.17646 0.87435 0.14955 0.0
H3243 H 0.11742 0.82749 0.16032 0.0
H3244 H 0.13536 0.82281 0.17977 0.0
H3245 H 0.19359 0.87279 0.25493 0.0
H3246 H 0.20477 0.8706 0.23319 0.0
H3247 H 0.142 0.82189 0.21871 0.0
H3248 H 0.13067 0.82419 0.24042 0.0
H3249 H 0.15861 0.84858 0.20084 0.0
H3250 H 0.18057 0.81084 0.22787 0.0
H3251 H 0.19863 0.80613 0.24724 0.0
H3252 H 0.25749 0.85566 0.23811 0.0
H3253 H 0.23973 0.86087 0.21878 0.0
C3254 C 0.19034 0.81281 0.15259 0.0
C3255 C 0.21126 0.82365 0.14983 0.0
C3256 C 0.18458 0.81824 0.16431 0.0
C3257 C 0.19961 0.83465 0.17347 0.0
C3258 C 0.2204 0.84585 0.17059 0.0
C3259 C 0.22616 0.84047 0.15885 0.0
C3260 C 0.19384 0.83915 0.18642 0.0
C3261 C 0.20423 0.83769 0.19788 0.0
C3262 C 0.17727 0.84325 0.1875 0.0
C3263 C 0.16641 0.84602 0.1758 0.0
C3264 C 0.17786 0.86063 0.16719 0.0
C3265 C 0.16756 0.86312 0.15616 0.0
C3266 C 0.1458 0.85116 0.15368 0.0
C3267 C 0.13428 0.83673 0.16224 0.0
C3268 C 0.1445 0.83417 0.17328 0.0
C3269 C 0.18218 0.8616 0.24711 0.0
C3270 C 0.16129 0.84854 0.2494 0.0
C3271 C 0.18858 0.86037 0.23469 0.0
C3272 C 0.1743 0.84585 0.22437 0.0
C3273 C 0.15329 0.83321 0.22653 0.0
C3274 C 0.14684 0.83454 0.23893 0.0
C3275 C 0.18133 0.84343 0.21143 0.0
C3276 C 0.17116 0.84521 0.19999 0.0
C3277 C 0.19807 0.83956 0.21035 0.0
C3278 C 0.20878 0.83639 0.22195 0.0
C3279 C 0.19734 0.82084 0.23005 0.0
C3280 C 0.20753 0.81806 0.24101 0.0
C3281 C 0.22919 0.83063 0.24393 0.0
C3282 C 0.24071 0.84596 0.23586 0.0
C3283 C 0.23059 0.84883 0.22489 0.0
H3284 H 0.23705 0.82846 0.25242 0.0
H3285 H 0.13785 0.85311 0.14514 0.0
H3286 H 0.18892 0.3469 0.13964 0.0
H3287 H 0.18501 0.33893 0.16239 0.0
H3288 H 0.19256 0.39949 0.17394 0.0
H3289 H 0.19679 0.40768 0.1511 0.0
H3290 H 0.2131 0.39004 0.19211 0.0
H3291 H 0.14395 0.35519 0.16971 0.0
H3292 H 0.11573 0.33241 0.15214 0.0
H3293 H 0.12143 0.27987 0.16163 0.0
H3294 H 0.14991 0.30241 0.17914 0.0
H3295 H 0.16971 0.36051 0.25331 0.0
H3296 H 0.17688 0.37236 0.23151 0.0
H3297 H 0.17507 0.31527 0.21764 0.0
H3298 H 0.16846 0.30351 0.23948 0.0
H3299 H 0.15082 0.32437 0.20102 0.0
H3300 H 0.2234 0.36064 0.22071 0.0
H3301 H 0.2525 0.38366 0.23777 0.0
H3302 H 0.23862 0.43284 0.23396 0.0
H3303 H 0.20985 0.41029 0.21654 0.0
C3304 C 0.18969 0.35851 0.14701 0.0
C3305 C 0.19291 0.37783 0.14353 0.0
C3306 C 0.18744 0.35393 0.16003 0.0
C3307 C 0.18804 0.36842 0.16986 0.0
C3308 C 0.19193 0.38802 0.16652 0.0
C3309 C 0.19437 0.39269 0.15347 0.0
C3310 C 0.18426 0.36286 0.18354 0.0
C3311 C 0.1993 0.37585 0.19405 0.0
C3312 C 0.16642 0.34419 0.18614 0.0
C3313 C 0.14919 0.33054 0.17567 0.0
C3314 C 0.13928 0.33881 0.16799 0.0
C3315 C 0.12323 0.32593 0.15805 0.0
C3316 C 0.11682 0.30472 0.15575 0.0
C3317 C 0.12643 0.29632 0.16341 0.0
C3318 C 0.14251 0.30913 0.17336 0.0
C3319 C 0.17113 0.35057 0.24569 0.0
C3320 C 0.1684 0.33097 0.24818 0.0
C3321 C 0.17523 0.35739 0.23322 0.0
C3322 C 0.17661 0.34475 0.22295 0.0
C3323 C 0.17401 0.32526 0.2254 0.0
C3324 C 0.17007 0.3185 0.23789 0.0
C3325 C 0.17979 0.35135 0.20949 0.0
C3326 C 0.16455 0.3386 0.19904 0.0
C3327 C 0.19734 0.37024 0.20696 0.0
C3328 C 0.21443 0.38377 0.21745 0.0
C3329 C 0.22654 0.37635 0.22356 0.0
C3330 C 0.24301 0.38933 0.23324 0.0
C3331 C 0.24727 0.40962 0.23706 0.0
C3332 C 0.23526 0.4171 0.23103 0.0
C3333 C 0.21899 0.40429 0.22117 0.0
H3334 H 0.25991 0.41956 0.24465 0.0
H3335 H 0.10439 0.29477 0.14804 0.0
H3336 H 0.77049 0.62281 0.86189 0.0
H3337 H 0.77775 0.63254 0.83968 0.0
H3338 H 0.81651 0.6045 0.83814 0.0
H3339 H 0.81003 0.5955 0.86057 0.0
H3340 H 0.83572 0.64164 0.82966 0.0
H3341 H 0.76744 0.58124 0.82059 0.0
H3342 H 0.73 0.55872 0.82292 0.0
H3343 H 0.71794 0.60653 0.81123 0.0
H3344 H 0.75537 0.62946 0.809 0.0
H3345 H 0.8459 0.64508 0.76109 0.0
H3346 H 0.83657 0.63256 0.78255 0.0
H3347 H 0.80213 0.66501 0.78618 0.0
H3348 H 0.81114 0.67733 0.76461 0.0
H3349 H 0.78051 0.62494 0.7933 0.0
H3350 H 0.84924 0.68543 0.80285 0.0
H3351 H 0.88667 0.70747 0.8003 0.0
H3352 H 0.89771 0.65852 0.81088 0.0
H3353 H 0.86026 0.63606 0.81331 0.0
C3354 C 0.78059 0.61874 0.85685 0.0
C3355 C 0.78969 0.60838 0.86306 0.0
C3356 C 0.78456 0.62412 0.84407 0.0
C3357 C 0.79753 0.61909 0.83716 0.0
C3358 C 0.80641 0.60851 0.84326 0.0
C3359 C 0.80251 0.60318 0.85605 0.0
C3360 C 0.80253 0.62561 0.8238 0.0
C3361 C 0.82362 0.63768 0.82166 0.0
C3362 C 0.78678 0.62089 0.81342 0.0
C3363 C 0.76425 0.60715 0.81475 0.0
C3364 C 0.75683 0.58702 0.81862 0.0
C3365 C 0.73561 0.57417 0.8199 0.0
C3366 C 0.72161 0.58121 0.81726 0.0
C3367 C 0.7288 0.60111 0.81329 0.0
C3368 C 0.75002 0.61403 0.81201 0.0
C3369 C 0.83622 0.64943 0.76641 0.0
C3370 C 0.82931 0.66225 0.76116 0.0
C3371 C 0.83102 0.64238 0.77871 0.0
C3372 C 0.8188 0.64799 0.78601 0.0
C3373 C 0.81162 0.66053 0.78072 0.0
C3374 C 0.81692 0.6677 0.76845 0.0
C3375 C 0.81364 0.6409 0.79921 0.0
C3376 C 0.79255 0.62879 0.80131 0.0
C3377 C 0.82938 0.64549 0.80954 0.0
C3378 C 0.85191 0.65899 0.80813 0.0
C3379 C 0.85961 0.6793 0.80452 0.0
C3380 C 0.88084 0.69188 0.80312 0.0
C3381 C 0.89455 0.68438 0.80539 0.0
C3382 C 0.88706 0.6643 0.80911 0.0
C3383 C 0.86585 0.65164 0.81051 0.0
H3384 H 0.91098 0.69415 0.80431 0.0
H3385 H 0.70518 0.57124 0.81826 0.0
H3386 H 0.37615 0.18983 0.86647 0.0
H3387 H 0.35714 0.18014 0.84439 0.0
H3388 H 0.40619 0.17301 0.82872 0.0
H3389 H 0.42534 0.18294 0.85072 0.0
H3390 H 0.39602 0.19471 0.81384 0.0
H3391 H 0.35825 0.13047 0.83288 0.0
H3392 H 0.33826 0.10788 0.84939 0.0
H3393 H 0.29061 0.12394 0.84244 0.0
H3394 H 0.31047 0.14686 0.826 0.0
H3395 H 0.34445 0.14196 0.75122 0.0
H3396 H 0.3603 0.14882 0.77395 0.0
H3397 H 0.31426 0.16329 0.78689 0.0
H3398 H 0.29863 0.15702 0.76405 0.0
H3399 H 0.32207 0.13816 0.80316 0.0
H3400 H 0.36031 0.20221 0.78381 0.0
H3401 H 0.38056 0.22438 0.7672 0.0
H3402 H 0.42767 0.20774 0.77462 0.0
H3403 H 0.40754 0.18521 0.79114 0.0
C3404 C 0.38274 0.18598 0.85832 0.0
C3405 C 0.40223 0.18718 0.86028 0.0
C3406 C 0.37187 0.18043 0.84572 0.0
C3407 C 0.38017 0.17568 0.83491 0.0
C3408 C 0.39953 0.17668 0.8369 0.0
C3409 C 0.41047 0.18239 0.84946 0.0
C3410 C 0.36908 0.17038 0.82144 0.0
C3411 C 0.37994 0.18215 0.81148 0.0
C3412 C 0.34793 0.15434 0.81843 0.0
C3413 C 0.33596 0.14056 0.82831 0.0
C3414 C 0.34359 0.12933 0.83495 0.0
C3415 C 0.33227 0.11644 0.84428 0.0
C3416 C 0.31321 0.11452 0.84699 0.0
C3417 C 0.3054 0.12546 0.84035 0.0
C3418 C 0.31667 0.13839 0.83101 0.0
C3419 C 0.33778 0.14675 0.75888 0.0
C3420 C 0.32051 0.14929 0.75582 0.0
C3421 C 0.34677 0.15053 0.77186 0.0
C3422 C 0.33859 0.15682 0.78204 0.0
C3423 C 0.32078 0.15847 0.77914 0.0
C3424 C 0.31185 0.15482 0.76611 0.0
C3425 C 0.34912 0.16235 0.79563 0.0
C3426 C 0.33815 0.1507 0.80557 0.0
C3427 C 0.37023 0.17841 0.79863 0.0
C3428 C 0.38232 0.19188 0.78864 0.0
C3429 C 0.3749 0.20313 0.78182 0.0
C3430 C 0.38638 0.21581 0.77245 0.0
C3431 C 0.40541 0.21751 0.76988 0.0
C3432 C 0.41297 0.20648 0.77666 0.0
C3433 C 0.40152 0.19374 0.78602 0.0
H3434 H 0.41427 0.22731 0.76261 0.0
H3435 H 0.30446 0.10453 0.85421 0.0
H3436 H 0.77779 0.17751 0.85973 0.0
H3437 H 0.78242 0.17672 0.83624 0.0
H3438 H 0.83282 0.1645 0.84428 0.0
H3439 H 0.82811 0.16492 0.86767 0.0
H3440 H 0.84316 0.19599 0.82864 0.0
H3441 H 0.78549 0.12599 0.83047 0.0
H3442 H 0.75032 0.10006 0.83552 0.0
H3443 H 0.72295 0.12556 0.80989 0.0
H3444 H 0.75801 0.15184 0.80482 0.0
H3445 H 0.85925 0.16551 0.76617 0.0
H3446 H 0.85128 0.16701 0.78881 0.0
H3447 H 0.79787 0.17214 0.77553 0.0
H3448 H 0.80498 0.16922 0.7527 0.0
H3449 H 0.78784 0.1465 0.79357 0.0
H3450 H 0.84437 0.21512 0.7906 0.0
H3451 H 0.87917 0.24176 0.78544 0.0
H3452 H 0.9083 0.22053 0.81314 0.0
H3453 H 0.87365 0.19356 0.81833 0.0
C3454 C 0.78967 0.17437 0.85647 0.0
C3455 C 0.80265 0.17138 0.86559 0.0
C3456 C 0.79233 0.17399 0.84305 0.0
C3457 C 0.80796 0.17054 0.83852 0.0
C3458 C 0.82076 0.16734 0.84758 0.0
C3459 C 0.81809 0.16766 0.86096 0.0
C3460 C 0.81138 0.17065 0.8244 0.0
C3461 C 0.83114 0.18504 0.82097 0.0
C3462 C 0.79545 0.15686 0.81437 0.0
C3463 C 0.77438 0.14102 0.81738 0.0
C3464 C 0.77198 0.12618 0.826 0.0
C3465 C 0.75207 0.1114 0.82885 0.0
C3466 C 0.73441 0.1112 0.82306 0.0
C3467 C 0.73664 0.12575 0.81438 0.0
C3468 C 0.75652 0.14058 0.81151 0.0
C3469 C 0.84565 0.16671 0.76801 0.0
C3470 C 0.83279 0.16732 0.75758 0.0
C3471 C 0.84128 0.16786 0.78101 0.0
C3472 C 0.8242 0.1701 0.78393 0.0
C3473 C 0.81122 0.17057 0.77354 0.0
C3474 C 0.81545 0.16915 0.7605 0.0
C3475 C 0.8198 0.1716 0.79781 0.0
C3476 C 0.79984 0.15758 0.8012 0.0
C3477 C 0.8355 0.1859 0.80781 0.0
C3478 C 0.85639 0.20221 0.80478 0.0
C3479 C 0.85819 0.21604 0.79553 0.0
C3480 C 0.87789 0.23121 0.7926 0.0
C3481 C 0.89593 0.23281 0.79894 0.0
C3482 C 0.89431 0.21927 0.80823 0.0
C3483 C 0.87464 0.20405 0.81118 0.0
H3484 H 0.91117 0.24456 0.79666 0.0
H3485 H 0.719 0.09975 0.82528 0.0
H3486 H 0.31379 0.14024 0.46946 0.0
H3487 H 0.31574 0.14132 0.49354 0.0
H3488 H 0.33345 0.20645 0.49688 0.0
H3489 H 0.33127 0.20537 0.47278 0.0
H3490 H 0.35986 0.19658 0.51295 0.0
H3491 H 0.2873 0.1746 0.50279 0.0
H3492 H 0.25167 0.15237 0.49146 0.0
H3493 H 0.24772 0.09881 0.50769 0.0
H3494 H 0.28348 0.12069 0.51897 0.0
H3495 H 0.35538 0.21179 0.58104 0.0
H3496 H 0.34934 0.21014 0.55714 0.0
H3497 H 0.3214 0.14303 0.55367 0.0
H3498 H 0.32722 0.14458 0.57766 0.0
H3499 H 0.29973 0.15384 0.53748 0.0
H3500 H 0.37166 0.1743 0.54704 0.0
H3501 H 0.4076 0.19537 0.55811 0.0
H3502 H 0.41338 0.25015 0.54265 0.0
H3503 H 0.37734 0.22945 0.53163 0.0
C3504 C 0.31802 0.15474 0.47535 0.0
C3505 C 0.3224 0.17273 0.46931 0.0
C3506 C 0.31903 0.15531 0.48906 0.0
C3507 C 0.32467 0.17394 0.49693 0.0
C3508 C 0.32902 0.19192 0.49093 0.0
C3509 C 0.32769 0.19127 0.47721 0.0
C3510 C 0.32678 0.17484 0.51146 0.0
C3511 C 0.34668 0.1875 0.51836 0.0
C3512 C 0.30965 0.16244 0.51839 0.0
C3513 C 0.28816 0.14925 0.51161 0.0
C3514 C 0.27892 0.15804 0.50384 0.0
C3515 C 0.25868 0.14551 0.49745 0.0
C3516 C 0.24746 0.12418 0.49882 0.0
C3517 C 0.25644 0.11534 0.50662 0.0
C3518 C 0.27669 0.1278 0.51302 0.0
C3519 C 0.34801 0.19669 0.57517 0.0
C3520 C 0.34197 0.17833 0.58119 0.0
C3521 C 0.34455 0.19576 0.56153 0.0
C3522 C 0.33525 0.1765 0.5536 0.0
C3523 C 0.32864 0.15807 0.5596 0.0
C3524 C 0.33196 0.15897 0.57329 0.0
C3525 C 0.33285 0.17569 0.53904 0.0
C3526 C 0.31292 0.16299 0.53211 0.0
C3527 C 0.35002 0.18787 0.53203 0.0
C3528 C 0.37173 0.20036 0.53862 0.0
C3529 C 0.38054 0.19087 0.54608 0.0
C3530 C 0.40094 0.20274 0.55234 0.0
C3531 C 0.41275 0.22409 0.55112 0.0
C3532 C 0.4042 0.23361 0.5436 0.0
C3533 C 0.38379 0.22182 0.53734 0.0
H3534 H 0.42854 0.23325 0.55596 0.0
H3535 H 0.23179 0.1145 0.49388 0.0
H3536 H 0.8846 0.12166 0.49289 0.0
H3537 H 0.87189 0.12932 0.5127 0.0
H3538 H 0.8671 0.17809 0.4951 0.0
H3539 H 0.87883 0.16988 0.47484 0.0
H3540 H 0.88739 0.18763 0.52338 0.0
H3541 H 0.82488 0.13928 0.49494 0.0
H3542 H 0.80231 0.10703 0.47996 0.0
H3543 H 0.80122 0.06995 0.51067 0.0
H3544 H 0.82407 0.10201 0.52578 0.0
H3545 H 0.83045 0.19824 0.57421 0.0
H3546 H 0.84162 0.19513 0.55258 0.0
H3547 H 0.83353 0.1349 0.55933 0.0
H3548 H 0.82153 0.13749 0.58066 0.0
H3549 H 0.8186 0.13343 0.53512 0.0
H3550 H 0.88225 0.17967 0.56299 0.0
H3551 H 0.90633 0.21083 0.57843 0.0
H3552 H 0.907 0.25068 0.54971 0.0
H3553 H 0.8827 0.21973 0.53415 0.0
C3554 C 0.88062 0.13386 0.49309 0.0
C3555 C 0.88248 0.14492 0.48213 0.0
C3556 C 0.87356 0.13834 0.5045 0.0
C3557 C 0.86848 0.15417 0.50529 0.0
C3558 C 0.87101 0.16583 0.49464 0.0
C3559 C 0.8778 0.16115 0.4831 0.0
C3560 C 0.85981 0.15782 0.51715 0.0
C3561 C 0.87218 0.17602 0.52587 0.0
C3562 C 0.84022 0.14237 0.52047 0.0
C3563 C 0.82634 0.12306 0.51145 0.0
C3564 C 0.81998 0.12426 0.49846 0.0
C3565 C 0.80711 0.10601 0.48996 0.0
C3566 C 0.80038 0.08645 0.49435 0.0
C3567 C 0.80646 0.08511 0.50728 0.0
C3568 C 0.81936 0.10332 0.51582 0.0
C3569 C 0.83078 0.18421 0.57101 0.0
C3570 C 0.8252 0.16815 0.5792 0.0
C3571 C 0.83739 0.18256 0.5587 0.0
C3572 C 0.83869 0.16491 0.5544 0.0
C3573 C 0.83274 0.14871 0.56245 0.0
C3574 C 0.82606 0.1503 0.5747 0.0
C3575 C 0.84627 0.16317 0.54154 0.0
C3576 C 0.83369 0.14525 0.53261 0.0
C3577 C 0.86581 0.17877 0.53813 0.0
C3578 C 0.88045 0.19739 0.54746 0.0
C3579 C 0.88739 0.19508 0.56001 0.0
C3580 C 0.90111 0.2127 0.56878 0.0
C3581 C 0.90812 0.23272 0.56508 0.0
C3582 C 0.90151 0.23516 0.55258 0.0
C3583 C 0.88778 0.21759 0.54377 0.0
H3584 H 0.91873 0.24634 0.57188 0.0
H3585 H 0.79041 0.07234 0.48776 0.0
H3586 H 0.8425 0.73612 0.48756 0.0
H3587 H 0.83924 0.72593 0.50995 0.0
H3588 H 0.88927 0.71267 0.50687 0.0
H3589 H 0.89252 0.72273 0.48444 0.0
H3590 H 0.85446 0.68056 0.51584 0.0
H3591 H 0.89811 0.75479 0.52601 0.0
H3592 H 0.90832 0.79173 0.52505 0.0
H3593 H 0.85251 0.78106 0.54163 0.0
H3594 H 0.8418 0.74396 0.54251 0.0
H3595 H 0.8613 0.66037 0.58192 0.0
H3596 H 0.87041 0.6759 0.56126 0.0
H3597 H 0.82568 0.69659 0.5643 0.0
H3598 H 0.81681 0.6814 0.58511 0.0
H3599 H 0.85958 0.72585 0.55551 0.0
H3600 H 0.81453 0.6519 0.54415 0.0
H3601 H 0.80296 0.61456 0.54474 0.0
H3602 H 0.8596 0.62414 0.52988 0.0
H3603 H 0.87163 0.66163 0.52937 0.0
C3604 C 0.85287 0.73113 0.49169 0.0
C3605 C 0.86777 0.73023 0.48424 0.0
C3606 C 0.85108 0.72544 0.50451 0.0
C3607 C 0.86409 0.71864 0.51011 0.0
C3608 C 0.87912 0.71793 0.50275 0.0
C3609 C 0.88105 0.72381 0.48998 0.0
C3610 C 0.86131 0.71134 0.52341 0.0
C3611 C 0.85593 0.69057 0.52456 0.0
C3612 C 0.86264 0.72422 0.53471 0.0
C3613 C 0.86906 0.74654 0.53421 0.0
C3614 C 0.88792 0.76027 0.52935 0.0
C3615 C 0.89381 0.78125 0.52884 0.0
C3616 C 0.88104 0.78873 0.53325 0.0
C3617 C 0.86237 0.77524 0.53821 0.0
C3618 C 0.85639 0.75424 0.53872 0.0
C3619 C 0.85339 0.6682 0.57816 0.0
C3620 C 0.83815 0.66943 0.58505 0.0
C3621 C 0.85861 0.67709 0.56636 0.0
C3622 C 0.84844 0.68708 0.56106 0.0
C3623 C 0.83371 0.68893 0.56815 0.0
C3624 C 0.82865 0.68023 0.58004 0.0
C3625 C 0.85265 0.69501 0.54795 0.0
C3626 C 0.85824 0.71588 0.54681 0.0
C3627 C 0.8513 0.68215 0.53661 0.0
C3628 C 0.84407 0.65961 0.53686 0.0
C3629 C 0.82458 0.64608 0.5411 0.0
C3630 C 0.81793 0.62488 0.54141 0.0
C3631 C 0.83056 0.617 0.53738 0.0
C3632 C 0.84985 0.63028 0.53301 0.0
C3633 C 0.85658 0.6515 0.53271 0.0
H3634 H 0.82539 0.60058 0.53762 0.0
H3635 H 0.88564 0.80498 0.53285 0.0
loop_
_geom_bond_atom_site_label_1
_geom_bond_atom_site_label_2
_geom_bond_distance
_geom_bond_site_symmetry_2
_ccdc_geom_bond_type
P0 O11 1.490 . S
P0 C14 1.812 . S
P0 C20 1.803 . S
P0 C26 1.819 . S
H1 C15 0.941 . S
H2 C16 0.939 . S
H3 C18 0.940 . S
H4 C19 0.940 . S
H5 C21 0.939 . S
H6 C22 0.942 . S
H7 C24 0.940 . S
H8 C25 0.939 . S
H9 C27 0.941 . S
H10 C31 0.939 . S
O11 P0 1.490 . S
H12 C28 0.939 . S
H13 C30 0.940 . S
C14 P0 1.812 . S
C14 C15 1.389 . S
C14 C19 1.391 . S
C15 H1 0.941 . S
C15 C14 1.389 . S
C15 C16 1.397 . S
C16 H2 0.939 . S
C16 C15 1.397 . S
C16 C17 1.378 . S
C17 C16 1.378 . S
C17 C18 1.378 . S
C18 H3 0.940 . S
C18 C17 1.378 . S
C18 C19 1.396 . S
C19 H4 0.940 . S
C19 C14 1.391 . S
C19 C18 1.396 . S
C20 P0 1.803 . S
C20 C21 1.378 . S
C20 C25 1.400 . S
C21 H5 0.939 . S
C21 C20 1.378 . S
C21 C22 1.361 . S
C22 H6 0.942 . S
C22 C21 1.361 . S
C22 C23 1.369 . S
C23 C22 1.369 . S
C23 C24 1.404 . S
C24 H7 0.940 . S
C24 C23 1.404 . S
C24 C25 1.389 . S
C25 H8 0.939 . S
C25 C20 1.400 . S
C25 C24 1.389 . S
C26 P0 1.819 . S
C26 C27 1.391 . S
C26 C31 1.391 . S
C27 H9 0.941 . S
C27 C26 1.391 . S
C27 C28 1.396 . S
C28 H12 0.939 . S
C28 C27 1.396 . S
C28 C29 1.397 . S
C29 C28 1.397 . S
C29 C30 1.385 . S
C30 H13 0.940 . S
C30 C29 1.385 . S
C30 C31 1.388 . S
C31 H10 0.939 . S
C31 C26 1.391 . S
C31 C30 1.388 . S
P32 O43 1.490 . S
P32 C46 1.812 . S
P32 C52 1.803 . S
P32 C58 1.819 . S
H33 C47 0.941 . S
H34 C48 0.939 . S
H35 C50 0.940 . S
H36 C51 0.940 . S
H37 C53 0.939 . S
H38 C54 0.942 . S
H39 C56 0.940 . S
H40 C57 0.939 . S
H41 C59 0.941 . S
H42 C63 0.939 . S
O43 P32 1.490 . S
H44 C60 0.939 . S
H45 C62 0.940 . S
C46 P32 1.812 . S
C46 C47 1.389 . S
C46 C51 1.391 . S
C47 H33 0.941 . S
C47 C46 1.389 . S
C47 C48 1.397 . S
C48 H34 0.939 . S
C48 C47 1.397 . S
C48 C49 1.378 . S
C49 C48 1.378 . S
C49 C50 1.378 . S
C50 H35 0.940 . S
C50 C49 1.378 . S
C50 C51 1.396 . S
C51 H36 0.940 . S
C51 C46 1.391 . S
C51 C50 1.396 . S
C52 P32 1.803 . S
C52 C53 1.378 . S
C52 C57 1.400 . S
C53 H37 0.939 . S
C53 C52 1.378 . S
C53 C54 1.361 . S
C54 H38 0.942 . S
C54 C53 1.361 . S
C54 C55 1.369 . S
C55 C54 1.369 . S
C55 C56 1.404 . S
C56 H39 0.940 . S
C56 C55 1.404 . S
C56 C57 1.389 . S
C57 H40 0.939 . S
C57 C52 1.400 . S
C57 C56 1.389 . S
C58 P32 1.819 . S
C58 C59 1.391 . S
C58 C63 1.391 . S
C59 H41 0.941 . S
C59 C58 1.391 . S
C59 C60 1.396 . S
C60 H44 0.939 . S
C60 C59 1.396 . S
C60 C61 1.397 . S
C61 C60 1.397 . S
C61 C62 1.385 . S
C62 H45 0.940 . S
C62 C61 1.385 . S
C62 C63 1.388 . S
C63 H42 0.939 . S
C63 C58 1.391 . S
C63 C62 1.388 . S
P64 O75 1.490 . S
P64 C78 1.812 . S
P64 C84 1.803 . S
P64 C90 1.819 . S
H65 C79 0.941 . S
H66 C80 0.939 . S
H67 C82 0.940 . S
H68 C83 0.940 . S
H69 C85 0.939 . S
H70 C86 0.942 . S
H71 C88 0.940 . S
H72 C89 0.939 . S
H73 C91 0.941 . S
H74 C95 0.939 . S
O75 P64 1.490 . S
H76 C92 0.939 . S
H77 C94 0.940 . S
C78 P64 1.812 . S
C78 C79 1.389 . S
C78 C83 1.391 . S
C79 H65 0.941 . S
C79 C78 1.389 . S
C79 C80 1.397 . S
C80 H66 0.939 . S
C80 C79 1.397 . S
C80 C81 1.378 . S
C81 C80 1.378 . S
C81 C82 1.378 . S
C82 H67 0.940 . S
C82 C81 1.378 . S
C82 C83 1.396 . S
C83 H68 0.940 . S
C83 C78 1.391 . S
C83 C82 1.396 . S
C84 P64 1.803 . S
C84 C85 1.378 . S
C84 C89 1.400 . S
C85 H69 0.939 . S
C85 C84 1.378 . S
C85 C86 1.361 . S
C86 H70 0.942 . S
C86 C85 1.361 . S
C86 C87 1.369 . S
C87 C86 1.369 . S
C87 C88 1.404 . S
C88 H71 0.940 . S
C88 C87 1.404 . S
C88 C89 1.389 . S
C89 H72 0.939 . S
C89 C84 1.400 . S
C89 C88 1.389 . S
C90 P64 1.819 . S
C90 C91 1.391 . S
C90 C95 1.391 . S
C91 H73 0.941 . S
C91 C90 1.391 . S
C91 C92 1.396 . S
C92 H76 0.939 . S
C92 C91 1.396 . S
C92 C93 1.397 . S
C93 C92 1.397 . S
C93 C94 1.385 . S
C94 H77 0.940 . S
C94 C93 1.385 . S
C94 C95 1.388 . S
C95 H74 0.939 . S
C95 C90 1.391 . S
C95 C94 1.388 . S
P96 O107 1.490 . S
P96 C110 1.812 . S
P96 C116 1.803 . S
P96 C122 1.819 . S
H97 C111 0.941 . S
H98 C112 0.939 . S
H99 C114 0.940 . S
H100 C115 0.940 . S
H101 C117 0.939 . S
H102 C118 0.942 . S
H103 C120 0.940 . S
H104 C121 0.939 . S
H105 C123 0.941 . S
H106 C127 0.939 . S
O107 P96 1.490 . S
H108 C124 0.939 . S
H109 C126 0.940 . S
C110 P96 1.812 . S
C110 C111 1.389 . S
C110 C115 1.391 . S
C111 H97 0.941 . S
C111 C110 1.389 . S
C111 C112 1.397 . S
C112 H98 0.939 . S
C112 C111 1.397 . S
C112 C113 1.378 . S
C113 C112 1.378 . S
C113 C114 1.378 . S
C114 H99 0.940 . S
C114 C113 1.378 . S
C114 C115 1.396 . S
C115 H100 0.940 . S
C115 C110 1.391 . S
C115 C114 1.396 . S
C116 P96 1.803 . S
C116 C117 1.378 . S
C116 C121 1.400 . S
C117 H101 0.939 . S
C117 C116 1.378 . S
C117 C118 1.361 . S
C118 H102 0.942 . S
C118 C117 1.361 . S
C118 C119 1.369 . S
C119 C118 1.369 . S
C119 C120 1.404 . S
C120 H103 0.940 . S
C120 C119 1.404 . S
C120 C121 1.389 . S
C121 H104 0.939 . S
C121 C116 1.400 . S
C121 C120 1.389 . S
C122 P96 1.819 . S
C122 C123 1.391 . S
C122 C127 1.391 . S
C123 H105 0.941 . S
C123 C122 1.391 . S
C123 C124 1.396 . S
C124 H108 0.939 . S
C124 C123 1.396 . S
C124 C125 1.397 . S
C125 C124 1.397 . S
C125 C126 1.385 . S
C126 H109 0.940 . S
C126 C125 1.385 . S
C126 C127 1.388 . S
C127 H106 0.939 . S
C127 C122 1.391 . S
C127 C126 1.388 . S
P128 O139 1.490 . S
P128 C142 1.812 . S
P128 C148 1.803 . S
P128 C154 1.819 . S
H129 C143 0.941 . S
H130 C144 0.939 . S
H131 C146 0.940 . S
H132 C147 0.940 . S
H133 C149 0.939 . S
H134 C150 0.942 . S
H135 C152 0.940 . S
H136 C153 0.939 . S
H137 C155 0.941 . S
H138 C159 0.939 . S
O139 P128 1.490 . S
H140 C156 0.939 . S
H141 C158 0.940 . S
C142 P128 1.812 . S
C142 C143 1.389 . S
C142 C147 1.391 . S
C143 H129 0.941 . S
C143 C142 1.389 . S
C143 C144 1.397 . S
C144 H130 0.939 . S
C144 C143 1.397 . S
C144 C145 1.378 . S
C145 C144 1.378 . S
C145 C146 1.378 . S
C146 H131 0.940 . S
C146 C145 1.378 . S
C146 C147 1.396 . S
C147 H132 0.940 . S
C147 C142 1.391 . S
C147 C146 1.396 . S
C148 P128 1.803 . S
C148 C149 1.378 . S
C148 C153 1.400 . S
C149 H133 0.939 . S
C149 C148 1.378 . S
C149 C150 1.361 . S
C150 H134 0.942 . S
C150 C149 1.361 . S
C150 C151 1.369 . S
C151 C150 1.369 . S
C151 C152 1.404 . S
C152 H135 0.940 . S
C152 C151 1.404 . S
C152 C153 1.389 . S
C153 H136 0.939 . S
C153 C148 1.400 . S
C153 C152 1.389 . S
C154 P128 1.819 . S
C154 C155 1.391 . S
C154 C159 1.391 . S
C155 H137 0.941 . S
C155 C154 1.391 . S
C155 C156 1.396 . S
C156 H140 0.939 . S
C156 C155 1.396 . S
C156 C157 1.397 . S
C157 C156 1.397 . S
C157 C158 1.385 . S
C158 H141 0.940 . S
C158 C157 1.385 . S
C158 C159 1.388 . S
C159 H138 0.939 . S
C159 C154 1.391 . S
C159 C158 1.388 . S
P160 O171 1.490 . S
P160 C174 1.812 . S
P160 C180 1.803 . S
P160 C186 1.819 . S
H161 C175 0.941 . S
H162 C176 0.939 . S
H163 C178 0.940 . S
H164 C179 0.940 . S
H165 C181 0.939 . S
H166 C182 0.942 . S
H167 C184 0.940 . S
H168 C185 0.939 . S
H169 C187 0.941 . S
H170 C191 0.939 . S
O171 P160 1.490 . S
H172 C188 0.939 . S
H173 C190 0.940 . S
C174 P160 1.812 . S
C174 C175 1.389 . S
C174 C179 1.391 . S
C175 H161 0.941 . S
C175 C174 1.389 . S
C175 C176 1.397 . S
C176 H162 0.939 . S
C176 C175 1.397 . S
C176 C177 1.378 . S
C177 C176 1.378 . S
C177 C178 1.378 . S
C178 H163 0.940 . S
C178 C177 1.378 . S
C178 C179 1.396 . S
C179 H164 0.940 . S
C179 C174 1.391 . S
C179 C178 1.396 . S
C180 P160 1.803 . S
C180 C181 1.378 . S
C180 C185 1.400 . S
C181 H165 0.939 . S
C181 C180 1.378 . S
C181 C182 1.361 . S
C182 H166 0.942 . S
C182 C181 1.361 . S
C182 C183 1.369 . S
C183 C182 1.369 . S
C183 C184 1.404 . S
C184 H167 0.940 . S
C184 C183 1.404 . S
C184 C185 1.389 . S
C185 H168 0.939 . S
C185 C180 1.400 . S
C185 C184 1.389 . S
C186 P160 1.819 . S
C186 C187 1.391 . S
C186 C191 1.391 . S
C187 H169 0.941 . S
C187 C186 1.391 . S
C187 C188 1.396 . S
C188 H172 0.939 . S
C188 C187 1.396 . S
C188 C189 1.397 . S
C189 C188 1.397 . S
C189 C190 1.385 . S
C190 H173 0.940 . S
C190 C189 1.385 . S
C190 C191 1.388 . S
C191 H170 0.939 . S
C191 C186 1.391 . S
C191 C190 1.388 . S
P192 O203 1.490 1_655 S
P192 C206 1.812 . S
P192 C212 1.803 . S
P192 C218 1.819 . S
H193 C207 0.941 . S
H194 C208 0.939 . S
H195 C210 0.940 . S
H196 C211 0.940 . S
H197 C213 0.939 . S
H198 C214 0.942 . S
H199 C216 0.940 . S
H200 C217 0.939 . S
H201 C219 0.941 1_455 S
H202 C223 0.939 . S
O203 P192 1.490 1_455 S
H204 C220 0.939 1_455 S
H205 C222 0.940 . S
C206 P192 1.812 . S
C206 C207 1.389 . S
C206 C211 1.391 . S
C207 H193 0.941 . S
C207 C206 1.389 . S
C207 C208 1.397 . S
C208 H194 0.939 . S
C208 C207 1.397 . S
C208 C209 1.378 . S
C209 C208 1.378 . S
C209 C210 1.378 . S
C210 H195 0.940 . S
C210 C209 1.378 . S
C210 C211 1.396 . S
C211 H196 0.940 . S
C211 C206 1.391 . S
C211 C210 1.396 . S
C212 P192 1.803 . S
C212 C213 1.378 . S
C212 C217 1.400 . S
C213 H197 0.939 . S
C213 C212 1.378 . S
C213 C214 1.361 . S
C214 H198 0.942 . S
C214 C213 1.361 . S
C214 C215 1.369 . S
C215 C214 1.369 . S
C215 C216 1.404 . S
C216 H199 0.940 . S
C216 C215 1.404 . S
C216 C217 1.389 . S
C217 H200 0.939 . S
C217 C212 1.400 . S
C217 C216 1.389 . S
C218 P192 1.819 . S
C218 C219 1.391 . S
C218 C223 1.391 . S
C219 H201 0.941 1_655 S
C219 C218 1.391 . S
C219 C220 1.396 . S
C220 H204 0.939 1_655 S
C220 C219 1.396 . S
C220 C221 1.397 . S
C221 C220 1.397 . S
C221 C222 1.385 . S
C222 H205 0.940 . S
C222 C221 1.385 . S
C222 C223 1.388 . S
C223 H202 0.939 . S
C223 C218 1.391 . S
C223 C222 1.388 . S
P224 O235 1.490 . S
P224 C238 1.812 . S
P224 C244 1.803 . S
P224 C250 1.819 . S
H225 C239 0.941 . S
H226 C240 0.939 . S
H227 C242 0.940 . S
H228 C243 0.940 . S
H229 C245 0.939 . S
H230 C246 0.942 . S
H231 C248 0.940 . S
H232 C249 0.939 . S
H233 C251 0.941 . S
H234 C255 0.939 . S
O235 P224 1.490 . S
H236 C252 0.939 . S
H237 C254 0.940 . S
C238 P224 1.812 . S
C238 C239 1.389 . S
C238 C243 1.391 . S
C239 H225 0.941 . S
C239 C238 1.389 . S
C239 C240 1.397 . S
C240 H226 0.939 . S
C240 C239 1.397 . S
C240 C241 1.378 . S
C241 C240 1.378 . S
C241 C242 1.378 . S
C242 H227 0.940 . S
C242 C241 1.378 . S
C242 C243 1.396 . S
C243 H228 0.940 . S
C243 C238 1.391 . S
C243 C242 1.396 . S
C244 P224 1.803 . S
C244 C245 1.378 . S
C244 C249 1.400 . S
C245 H229 0.939 . S
C245 C244 1.378 . S
C245 C246 1.361 . S
C246 H230 0.942 . S
C246 C245 1.361 . S
C246 C247 1.369 . S
C247 C246 1.369 . S
C247 C248 1.404 . S
C248 H231 0.940 . S
C248 C247 1.404 . S
C248 C249 1.389 . S
C249 H232 0.939 . S
C249 C244 1.400 . S
C249 C248 1.389 . S
C250 P224 1.819 . S
C250 C251 1.391 . S
C250 C255 1.391 . S
C251 H233 0.941 . S
C251 C250 1.391 . S
C251 C252 1.396 . S
C252 H236 0.939 . S
C252 C251 1.396 . S
C252 C253 1.397 . S
C253 C252 1.397 . S
C253 C254 1.385 . S
C254 H237 0.940 . S
C254 C253 1.385 . S
C254 C255 1.388 . S
C255 H234 0.939 . S
C255 C250 1.391 . S
C255 C254 1.388 . S
P256 O267 1.490 . S
P256 C270 1.812 . S
P256 C276 1.803 . S
P256 C282 1.819 . S
H257 C271 0.941 . S
H258 C272 0.939 . S
H259 C274 0.940 . S
H260 C275 0.940 . S
H261 C277 0.939 . S
H262 C278 0.942 . S
H263 C280 0.940 . S
H264 C281 0.939 . S
H265 C283 0.941 . S
H266 C287 0.939 . S
O267 P256 1.490 . S
H268 C284 0.939 . S
H269 C286 0.940 . S
C270 P256 1.812 . S
C270 C271 1.389 . S
C270 C275 1.391 . S
C271 H257 0.941 . S
C271 C270 1.389 . S
C271 C272 1.397 . S
C272 H258 0.939 . S
C272 C271 1.397 . S
C272 C273 1.378 . S
C273 C272 1.378 . S
C273 C274 1.378 . S
C274 H259 0.940 . S
C274 C273 1.378 . S
C274 C275 1.396 . S
C275 H260 0.940 . S
C275 C270 1.391 . S
C275 C274 1.396 . S
C276 P256 1.803 . S
C276 C277 1.378 . S
C276 C281 1.400 . S
C277 H261 0.939 . S
C277 C276 1.378 . S
C277 C278 1.361 . S
C278 H262 0.942 . S
C278 C277 1.361 . S
C278 C279 1.369 . S
C279 C278 1.369 . S
C279 C280 1.404 . S
C280 H263 0.940 . S
C280 C279 1.404 . S
C280 C281 1.389 . S
C281 H264 0.939 . S
C281 C276 1.400 . S
C281 C280 1.389 . S
C282 P256 1.819 . S
C282 C283 1.391 . S
C282 C287 1.391 . S
C283 H265 0.941 . S
C283 C282 1.391 . S
C283 C284 1.396 . S
C284 H268 0.939 . S
C284 C283 1.396 . S
C284 C285 1.397 . S
C285 C284 1.397 . S
C285 C286 1.385 . S
C286 H269 0.940 . S
C286 C285 1.385 . S
C286 C287 1.388 . S
C287 H266 0.939 . S
C287 C282 1.391 . S
C287 C286 1.388 . S
P288 O299 1.490 . S
P288 C302 1.812 . S
P288 C308 1.803 . S
P288 C314 1.819 . S
H289 C303 0.941 . S
H290 C304 0.939 . S
H291 C306 0.940 . S
H292 C307 0.940 . S
H293 C309 0.939 . S
H294 C310 0.942 . S
H295 C312 0.940 . S
H296 C313 0.939 . S
H297 C315 0.941 . S
H298 C319 0.939 . S
O299 P288 1.490 . S
H300 C316 0.939 . S
H301 C318 0.940 . S
C302 P288 1.812 . S
C302 C303 1.389 . S
C302 C307 1.391 . S
C303 H289 0.941 . S
C303 C302 1.389 . S
C303 C304 1.397 . S
C304 H290 0.939 . S
C304 C303 1.397 . S
C304 C305 1.378 . S
C305 C304 1.378 . S
C305 C306 1.378 . S
C306 H291 0.940 . S
C306 C305 1.378 . S
C306 C307 1.396 . S
C307 H292 0.940 . S
C307 C302 1.391 . S
C307 C306 1.396 . S
C308 P288 1.803 . S
C308 C309 1.378 . S
C308 C313 1.400 . S
C309 H293 0.939 . S
C309 C308 1.378 . S
C309 C310 1.361 . S
C310 H294 0.942 . S
C310 C309 1.361 . S
C310 C311 1.369 . S
C311 C310 1.369 . S
C311 C312 1.404 . S
C312 H295 0.940 . S
C312 C311 1.404 . S
C312 C313 1.389 . S
C313 H296 0.939 . S
C313 C308 1.400 . S
C313 C312 1.389 . S
C314 P288 1.819 . S
C314 C315 1.391 . S
C314 C319 1.391 . S
C315 H297 0.941 . S
C315 C314 1.391 . S
C315 C316 1.396 . S
C316 H300 0.939 . S
C316 C315 1.396 . S
C316 C317 1.397 . S
C317 C316 1.397 . S
C317 C318 1.385 . S
C318 H301 0.940 . S
C318 C317 1.385 . S
C318 C319 1.388 . S
C319 H298 0.939 . S
C319 C314 1.391 . S
C319 C318 1.388 . S
P320 O331 1.490 . S
P320 C334 1.812 . S
P320 C340 1.803 . S
P320 C346 1.819 . S
H321 C335 0.941 . S
H322 C336 0.939 . S
H323 C338 0.940 . S
H324 C339 0.940 . S
H325 C341 0.939 . S
H326 C342 0.942 . S
H327 C344 0.940 . S
H328 C345 0.939 . S
H329 C347 0.941 . S
H330 C351 0.939 . S
O331 P320 1.490 . S
H332 C348 0.939 . S
H333 C350 0.940 . S
C334 P320 1.812 . S
C334 C335 1.389 . S
C334 C339 1.391 . S
C335 H321 0.941 . S
C335 C334 1.389 . S
C335 C336 1.397 . S
C336 H322 0.939 . S
C336 C335 1.397 . S
C336 C337 1.378 . S
C337 C336 1.378 . S
C337 C338 1.378 . S
C338 H323 0.940 . S
C338 C337 1.378 . S
C338 C339 1.396 . S
C339 H324 0.940 . S
C339 C334 1.391 . S
C339 C338 1.396 . S
C340 P320 1.803 . S
C340 C341 1.378 . S
C340 C345 1.400 . S
C341 H325 0.939 . S
C341 C340 1.378 . S
C341 C342 1.361 . S
C342 H326 0.942 . S
C342 C341 1.361 . S
C342 C343 1.369 . S
C343 C342 1.369 . S
C343 C344 1.404 . S
C344 H327 0.940 . S
C344 C343 1.404 . S
C344 C345 1.389 . S
C345 H328 0.939 . S
C345 C340 1.400 . S
C345 C344 1.389 . S
C346 P320 1.819 . S
C346 C347 1.391 . S
C346 C351 1.391 . S
C347 H329 0.941 . S
C347 C346 1.391 . S
C347 C348 1.396 . S
C348 H332 0.939 . S
C348 C347 1.396 . S
C348 C349 1.397 . S
C349 C348 1.397 . S
C349 C350 1.385 . S
C350 H333 0.940 . S
C350 C349 1.385 . S
C350 C351 1.388 . S
C351 H330 0.939 . S
C351 C346 1.391 . S
C351 C350 1.388 . S
P352 O363 1.490 . S
P352 C366 1.812 . S
P352 C372 1.803 . S
P352 C378 1.819 . S
H353 C367 0.941 . S
H354 C368 0.939 . S
H355 C370 0.940 . S
H356 C371 0.940 . S
H357 C373 0.939 . S
H358 C374 0.942 . S
H359 C376 0.940 . S
H360 C377 0.939 . S
H361 C379 0.941 . S
H362 C383 0.939 . S
O363 P352 1.490 . S
H364 C380 0.939 . S
H365 C382 0.940 . S
C366 P352 1.812 . S
C366 C367 1.389 . S
C366 C371 1.391 . S
C367 H353 0.941 . S
C367 C366 1.389 . S
C367 C368 1.397 . S
C368 H354 0.939 . S
C368 C367 1.397 . S
C368 C369 1.378 . S
C369 C368 1.378 . S
C369 C370 1.378 . S
C370 H355 0.940 . S
C370 C369 1.378 . S
C370 C371 1.396 . S
C371 H356 0.940 . S
C371 C366 1.391 . S
C371 C370 1.396 . S
C372 P352 1.803 . S
C372 C373 1.378 . S
C372 C377 1.400 . S
C373 H357 0.939 . S
C373 C372 1.378 . S
C373 C374 1.361 . S
C374 H358 0.942 . S
C374 C373 1.361 . S
C374 C375 1.369 . S
C375 C374 1.369 . S
C375 C376 1.404 . S
C376 H359 0.940 . S
C376 C375 1.404 . S
C376 C377 1.389 . S
C377 H360 0.939 . S
C377 C372 1.400 . S
C377 C376 1.389 . S
C378 P352 1.819 . S
C378 C379 1.391 . S
C378 C383 1.391 . S
C379 H361 0.941 . S
C379 C378 1.391 . S
C379 C380 1.396 . S
C380 H364 0.939 . S
C380 C379 1.396 . S
C380 C381 1.397 . S
C381 C380 1.397 . S
C381 C382 1.385 . S
C382 H365 0.940 . S
C382 C381 1.385 . S
C382 C383 1.388 . S
C383 H362 0.939 . S
C383 C378 1.391 . S
C383 C382 1.388 . S
P384 O395 1.490 . S
P384 C398 1.812 . S
P384 C404 1.803 . S
P384 C410 1.819 . S
H385 C399 0.941 . S
H386 C400 0.939 . S
H387 C402 0.940 . S
H388 C403 0.940 . S
H389 C405 0.939 . S
H390 C406 0.942 . S
H391 C408 0.940 . S
H392 C409 0.939 . S
H393 C411 0.941 . S
H394 C415 0.939 . S
O395 P384 1.490 . S
H396 C412 0.939 . S
H397 C414 0.940 . S
C398 P384 1.812 . S
C398 C399 1.389 . S
C398 C403 1.391 . S
C399 H385 0.941 . S
C399 C398 1.389 . S
C399 C400 1.397 . S
C400 H386 0.939 . S
C400 C399 1.397 . S
C400 C401 1.378 . S
C401 C400 1.378 . S
C401 C402 1.378 . S
C402 H387 0.940 . S
C402 C401 1.378 . S
C402 C403 1.396 . S
C403 H388 0.940 . S
C403 C398 1.391 . S
C403 C402 1.396 . S
C404 P384 1.803 . S
C404 C405 1.378 . S
C404 C409 1.400 . S
C405 H389 0.939 . S
C405 C404 1.378 . S
C405 C406 1.361 . S
C406 H390 0.942 . S
C406 C405 1.361 . S
C406 C407 1.369 . S
C407 C406 1.369 . S
C407 C408 1.404 . S
C408 H391 0.940 . S
C408 C407 1.404 . S
C408 C409 1.389 . S
C409 H392 0.939 . S
C409 C404 1.400 . S
C409 C408 1.389 . S
C410 P384 1.819 . S
C410 C411 1.391 . S
C410 C415 1.391 . S
C411 H393 0.941 . S
C411 C410 1.391 . S
C411 C412 1.396 . S
C412 H396 0.939 . S
C412 C411 1.396 . S
C412 C413 1.397 . S
C413 C412 1.397 . S
C413 C414 1.385 . S
C414 H397 0.940 . S
C414 C413 1.385 . S
C414 C415 1.388 . S
C415 H394 0.939 . S
C415 C410 1.391 . S
C415 C414 1.388 . S
P416 O427 1.490 . S
P416 C430 1.812 . S
P416 C436 1.803 . S
P416 C442 1.819 . S
H417 C431 0.941 . S
H418 C432 0.939 . S
H419 C434 0.940 . S
H420 C435 0.940 . S
H421 C437 0.939 . S
H422 C438 0.942 . S
H423 C440 0.940 . S
H424 C441 0.939 . S
H425 C443 0.941 . S
H426 C447 0.939 . S
O427 P416 1.490 . S
H428 C444 0.939 . S
H429 C446 0.940 . S
C430 P416 1.812 . S
C430 C431 1.389 . S
C430 C435 1.391 . S
C431 H417 0.941 . S
C431 C430 1.389 . S
C431 C432 1.397 . S
C432 H418 0.939 . S
C432 C431 1.397 . S
C432 C433 1.378 . S
C433 C432 1.378 . S
C433 C434 1.378 . S
C434 H419 0.940 . S
C434 C433 1.378 . S
C434 C435 1.396 . S
C435 H420 0.940 . S
C435 C430 1.391 . S
C435 C434 1.396 . S
C436 P416 1.803 . S
C436 C437 1.378 . S
C436 C441 1.400 . S
C437 H421 0.939 . S
C437 C436 1.378 . S
C437 C438 1.361 . S
C438 H422 0.942 . S
C438 C437 1.361 . S
C438 C439 1.369 . S
C439 C438 1.369 . S
C439 C440 1.404 . S
C440 H423 0.940 . S
C440 C439 1.404 . S
C440 C441 1.389 . S
C441 H424 0.939 . S
C441 C436 1.400 . S
C441 C440 1.389 . S
C442 P416 1.819 . S
C442 C443 1.391 . S
C442 C447 1.391 . S
C443 H425 0.941 . S
C443 C442 1.391 . S
C443 C444 1.396 . S
C444 H428 0.939 . S
C444 C443 1.396 . S
C444 C445 1.397 . S
C445 C444 1.397 . S
C445 C446 1.385 . S
C446 H429 0.940 . S
C446 C445 1.385 . S
C446 C447 1.388 . S
C447 H426 0.939 . S
C447 C442 1.391 . S
C447 C446 1.388 . S
P448 O459 1.490 . S
P448 C462 1.812 . S
P448 C468 1.803 . S
P448 C474 1.819 . S
H449 C463 0.941 . S
H450 C464 0.939 . S
H451 C466 0.940 . S
H452 C467 0.940 . S
H453 C469 0.939 . S
H454 C470 0.942 . S
H455 C472 0.940 . S
H456 C473 0.939 . S
H457 C475 0.941 . S
H458 C479 0.939 . S
O459 P448 1.490 . S
H460 C476 0.939 . S
H461 C478 0.940 . S
C462 P448 1.812 . S
C462 C463 1.389 . S
C462 C467 1.391 . S
C463 H449 0.941 . S
C463 C462 1.389 . S
C463 C464 1.397 . S
C464 H450 0.939 . S
C464 C463 1.397 . S
C464 C465 1.378 . S
C465 C464 1.378 . S
C465 C466 1.378 . S
C466 H451 0.940 . S
C466 C465 1.378 . S
C466 C467 1.396 . S
C467 H452 0.940 . S
C467 C462 1.391 . S
C467 C466 1.396 . S
C468 P448 1.803 . S
C468 C469 1.378 . S
C468 C473 1.400 . S
C469 H453 0.939 . S
C469 C468 1.378 . S
C469 C470 1.361 . S
C470 H454 0.942 . S
C470 C469 1.361 . S
C470 C471 1.369 . S
C471 C470 1.369 . S
C471 C472 1.404 . S
C472 H455 0.940 . S
C472 C471 1.404 . S
C472 C473 1.389 . S
C473 H456 0.939 . S
C473 C468 1.400 . S
C473 C472 1.389 . S
C474 P448 1.819 . S
C474 C475 1.391 . S
C474 C479 1.391 . S
C475 H457 0.941 . S
C475 C474 1.391 . S
C475 C476 1.396 . S
C476 H460 0.939 . S
C476 C475 1.396 . S
C476 C477 1.397 . S
C477 C476 1.397 . S
C477 C478 1.385 . S
C478 H461 0.940 . S
C478 C477 1.385 . S
C478 C479 1.388 . S
C479 H458 0.939 . S
C479 C474 1.391 . S
C479 C478 1.388 . S
P480 O491 1.490 . S
P480 C494 1.812 . S
P480 C500 1.803 . S
P480 C506 1.819 . S
H481 C495 0.941 . S
H482 C496 0.939 . S
H483 C498 0.940 . S
H484 C499 0.940 . S
H485 C501 0.939 . S
H486 C502 0.942 . S
H487 C504 0.940 . S
H488 C505 0.939 . S
H489 C507 0.941 . S
H490 C511 0.939 . S
O491 P480 1.490 . S
H492 C508 0.939 . S
H493 C510 0.940 . S
C494 P480 1.812 . S
C494 C495 1.389 . S
C494 C499 1.391 . S
C495 H481 0.941 . S
C495 C494 1.389 . S
C495 C496 1.397 . S
C496 H482 0.939 . S
C496 C495 1.397 . S
C496 C497 1.378 . S
C497 C496 1.378 . S
C497 C498 1.378 . S
C498 H483 0.940 . S
C498 C497 1.378 . S
C498 C499 1.396 . S
C499 H484 0.940 . S
C499 C494 1.391 . S
C499 C498 1.396 . S
C500 P480 1.803 . S
C500 C501 1.378 . S
C500 C505 1.400 . S
C501 H485 0.939 . S
C501 C500 1.378 . S
C501 C502 1.361 . S
C502 H486 0.942 . S
C502 C501 1.361 . S
C502 C503 1.369 . S
C503 C502 1.369 . S
C503 C504 1.404 . S
C504 H487 0.940 . S
C504 C503 1.404 . S
C504 C505 1.389 . S
C505 H488 0.939 . S
C505 C500 1.400 . S
C505 C504 1.389 . S
C506 P480 1.819 . S
C506 C507 1.391 . S
C506 C511 1.391 . S
C507 H489 0.941 . S
C507 C506 1.391 . S
C507 C508 1.396 . S
C508 H492 0.939 . S
C508 C507 1.396 . S
C508 C509 1.397 . S
C509 C508 1.397 . S
C509 C510 1.385 . S
C510 H493 0.940 . S
C510 C509 1.385 . S
C510 C511 1.388 . S
C511 H490 0.939 . S
C511 C506 1.391 . S
C511 C510 1.388 . S
P512 O523 1.490 . S
P512 C526 1.812 . S
P512 C532 1.803 . S
P512 C538 1.819 . S
H513 C527 0.941 . S
H514 C528 0.939 . S
H515 C530 0.940 . S
H516 C531 0.940 . S
H517 C533 0.939 . S
H518 C534 0.942 . S
H519 C536 0.940 . S
H520 C537 0.939 . S
H521 C539 0.941 . S
H522 C543 0.939 . S
O523 P512 1.490 . S
H524 C540 0.939 . S
H525 C542 0.940 . S
C526 P512 1.812 . S
C526 C527 1.389 . S
C526 C531 1.391 . S
C527 H513 0.941 . S
C527 C526 1.389 . S
C527 C528 1.397 . S
C528 H514 0.939 . S
C528 C527 1.397 . S
C528 C529 1.378 . S
C529 C528 1.378 . S
C529 C530 1.378 . S
C530 H515 0.940 . S
C530 C529 1.378 . S
C530 C531 1.396 . S
C531 H516 0.940 . S
C531 C526 1.391 . S
C531 C530 1.396 . S
C532 P512 1.803 . S
C532 C533 1.378 . S
C532 C537 1.400 . S
C533 H517 0.939 . S
C533 C532 1.378 . S
C533 C534 1.361 . S
C534 H518 0.942 . S
C534 C533 1.361 . S
C534 C535 1.369 . S
C535 C534 1.369 . S
C535 C536 1.404 . S
C536 H519 0.940 . S
C536 C535 1.404 . S
C536 C537 1.389 . S
C537 H520 0.939 . S
C537 C532 1.400 . S
C537 C536 1.389 . S
C538 P512 1.819 . S
C538 C539 1.391 . S
C538 C543 1.391 . S
C539 H521 0.941 . S
C539 C538 1.391 . S
C539 C540 1.396 . S
C540 H524 0.939 . S
C540 C539 1.396 . S
C540 C541 1.397 . S
C541 C540 1.397 . S
C541 C542 1.385 . S
C542 H525 0.940 . S
C542 C541 1.385 . S
C542 C543 1.388 . S
C543 H522 0.939 . S
C543 C538 1.391 . S
C543 C542 1.388 . S
P544 O555 1.490 . S
P544 C558 1.812 . S
P544 C564 1.803 . S
P544 C570 1.819 . S
H545 C559 0.941 . S
H546 C560 0.939 . S
H547 C562 0.940 . S
H548 C563 0.940 . S
H549 C565 0.939 . S
H550 C566 0.942 . S
H551 C568 0.940 . S
H552 C569 0.939 . S
H553 C571 0.941 . S
H554 C575 0.939 . S
O555 P544 1.490 . S
H556 C572 0.939 . S
H557 C574 0.940 . S
C558 P544 1.812 . S
C558 C559 1.389 . S
C558 C563 1.391 . S
C559 H545 0.941 . S
C559 C558 1.389 . S
C559 C560 1.397 . S
C560 H546 0.939 . S
C560 C559 1.397 . S
C560 C561 1.378 . S
C561 C560 1.378 . S
C561 C562 1.378 . S
C562 H547 0.940 . S
C562 C561 1.378 . S
C562 C563 1.396 . S
C563 H548 0.940 . S
C563 C558 1.391 . S
C563 C562 1.396 . S
C564 P544 1.803 . S
C564 C565 1.378 . S
C564 C569 1.400 . S
C565 H549 0.939 . S
C565 C564 1.378 . S
C565 C566 1.361 . S
C566 H550 0.942 . S
C566 C565 1.361 . S
C566 C567 1.369 . S
C567 C566 1.369 . S
C567 C568 1.404 . S
C568 H551 0.940 . S
C568 C567 1.404 . S
C568 C569 1.389 . S
C569 H552 0.939 . S
C569 C564 1.400 . S
C569 C568 1.389 . S
C570 P544 1.819 . S
C570 C571 1.391 . S
C570 C575 1.391 . S
C571 H553 0.941 . S
C571 C570 1.391 . S
C571 C572 1.396 . S
C572 H556 0.939 . S
C572 C571 1.396 . S
C572 C573 1.397 . S
C573 C572 1.397 . S
C573 C574 1.385 . S
C574 H557 0.940 . S
C574 C573 1.385 . S
C574 C575 1.388 . S
C575 H554 0.939 . S
C575 C570 1.391 . S
C575 C574 1.388 . S
Tb576 C586 2.825 . S
Tb576 O587 2.347 1_565 S
Tb576 O590 2.366 1_565 S
Tb576 O595 2.418 . S
Tb576 O596 2.392 . S
Tb576 O599 2.479 . S
Tb576 O600 2.471 1_565 S
Eu577 O588 2.418 . S
Eu577 O589 2.384 . S
Eu577 O592 2.479 . S
Eu577 O593 2.471 1_545 S
Eu577 O594 2.347 1_545 S
Eu577 O597 2.366 1_545 S
Eu577 C607 2.825 . S
C578 O594 1.259 . S
C578 O595 1.265 1_554 S
C579 O596 1.245 1_554 S
C579 O597 1.265 . S
C580 C582 1.380 . S
C580 C583 1.374 1_565 S
C580 C586 1.507 . S
C581 C582 1.384 . S
C581 C585 1.387 1_565 S
C581 H608 0.930 . S
C582 C580 1.380 . S
C582 C581 1.384 . S
C582 H609 0.931 . S
C583 C580 1.374 1_545 S
C583 C584 1.390 . S
C583 H610 0.930 . S
C584 C583 1.390 . S
C584 C585 1.391 . S
C584 H611 0.930 . S
C585 C581 1.387 1_545 S
C585 C584 1.391 . S
C586 Tb576 2.825 . S
C586 C580 1.507 . S
C586 O599 1.238 . S
C586 O600 1.247 1_565 S
O587 Tb576 2.347 1_545 S
O587 C591 1.255 1_556 S
O588 Eu577 2.418 . S
O588 C591 1.274 . S
O589 Eu577 2.384 . S
O589 C598 1.255 1_554 S
O590 Tb576 2.366 1_545 S
O590 C598 1.265 . S
C591 O587 1.255 1_554 S
C591 O588 1.274 . S
O592 Eu577 2.479 . S
O592 C607 1.238 . S
O593 Eu577 2.471 1_565 S
O593 C607 1.247 1_565 S
O594 Eu577 2.347 1_565 S
O594 C578 1.259 . S
O595 Tb576 2.418 . S
O595 C578 1.265 1_556 S
O596 Tb576 2.392 . S
O596 C579 1.245 1_556 S
O597 Eu577 2.366 1_565 S
O597 C579 1.265 . S
C598 O589 1.255 1_556 S
C598 O590 1.265 . S
O599 Tb576 2.479 . S
O599 C586 1.238 . S
O600 Tb576 2.471 1_545 S
O600 C586 1.247 1_545 S
C601 C604 1.380 . S
C601 C605 1.374 1_545 S
C601 C607 1.507 . S
C602 C603 1.387 1_565 S
C602 C606 1.391 . S
C603 C602 1.387 1_545 S
C603 C604 1.384 . S
C603 H612 0.930 . S
C604 C601 1.380 . S
C604 C603 1.384 . S
C604 H613 0.931 . S
C605 C601 1.374 1_565 S
C605 C606 1.390 . S
C605 H614 0.930 . S
C606 C602 1.391 . S
C606 C605 1.390 . S
C606 H615 0.930 . S
C607 Eu577 2.825 . S
C607 O592 1.238 . S
C607 O593 1.247 1_545 S
C607 C601 1.507 . S
H608 C581 0.930 . S
H609 C582 0.931 . S
H610 C583 0.930 . S
H611 C584 0.930 . S
H612 C603 0.930 . S
H613 C604 0.931 . S
H614 C605 0.930 . S
H615 C606 0.930 . S
Tb616 C626 2.825 . S
Tb616 O627 2.347 1_455 S
Tb616 O630 2.366 1_455 S
Tb616 O635 2.418 . S
Tb616 O636 2.384 1_556 S
Tb616 O639 2.479 . S
Tb616 O640 2.471 1_455 S
Eu617 O628 2.418 . S
Eu617 O629 2.384 . S
Eu617 O632 2.479 . S
Eu617 O633 2.471 1_655 S
Eu617 O634 2.347 1_655 S
Eu617 O637 2.366 1_655 S
Eu617 C647 2.825 . S
C618 O634 1.259 . S
C618 O635 1.265 1_554 S
C619 O636 1.255 . S
C619 O637 1.265 . S
C620 C622 1.382 . S
C620 C623 1.370 1_455 S
C620 C626 1.508 . S
C621 C622 1.384 . S
C621 C625 1.387 1_455 S
C621 H648 0.930 . S
C622 C620 1.382 . S
C622 C621 1.384 . S
C622 H649 0.931 . S
C623 C620 1.370 1_655 S
C623 C624 1.390 . S
C623 H650 0.930 . S
C624 C623 1.390 . S
C624 C625 1.391 . S
C624 H651 0.930 . S
C625 C621 1.387 1_655 S
C625 C624 1.391 . S
C626 Tb616 2.825 . S
C626 C620 1.508 . S
C626 O639 1.238 . S
C626 O640 1.247 1_455 S
O627 Tb616 2.347 1_655 S
O627 C631 1.259 . S
O628 Eu617 2.418 . S
O628 C631 1.265 1_554 S
O629 Eu617 2.384 . S
O629 C638 1.255 1_554 S
O630 Tb616 2.366 1_655 S
O630 C638 1.265 . S
C631 O627 1.259 . S
C631 O628 1.265 1_556 S
O632 Eu617 2.479 . S
O632 C647 1.238 . S
O633 Eu617 2.471 1_455 S
O633 C647 1.247 1_455 S
O634 Eu617 2.347 1_455 S
O634 C618 1.259 . S
O635 Tb616 2.418 . S
O635 C618 1.265 1_556 S
O636 Tb616 2.384 1_554 S
O636 C619 1.255 . S
O637 Eu617 2.366 1_455 S
O637 C619 1.265 . S
C638 O629 1.255 1_556 S
C638 O630 1.265 . S
O639 Tb616 2.479 . S
O639 C626 1.238 . S
O640 Tb616 2.471 1_655 S
O640 C626 1.247 1_655 S
C641 C644 1.380 1_455 S
C641 C645 1.374 . S
C641 C647 1.507 1_455 S
C642 C643 1.387 1_455 S
C642 C646 1.391 . S
C643 C642 1.387 1_655 S
C643 C644 1.384 . S
C643 H652 0.930 . S
C644 C641 1.380 1_655 S
C644 C643 1.384 . S
C644 H653 0.931 . S
C645 C641 1.374 . S
C645 C646 1.390 . S
C645 H654 0.930 . S
C646 C642 1.391 . S
C646 C645 1.390 . S
C646 H655 0.930 . S
C647 Eu617 2.825 . S
C647 O632 1.238 . S
C647 O633 1.247 1_655 S
C647 C641 1.507 1_655 S
H648 C621 0.930 . S
H649 C622 0.931 . S
H650 C623 0.930 . S
H651 C624 0.930 . S
H652 C643 0.930 . S
H653 C644 0.931 . S
H654 C645 0.930 . S
H655 C646 0.930 . S
Tb656 C666 2.825 . S
Tb656 O667 2.347 . S
Tb656 O670 2.366 . S
Tb656 O675 2.418 . S
Tb656 O676 2.384 . S
Tb656 O679 2.479 . S
Tb656 O680 2.471 . S
Eu657 O668 2.418 . S
Eu657 O669 2.384 1_556 S
Eu657 O672 2.479 . S
Eu657 O673 2.471 . S
Eu657 O674 2.347 . S
Eu657 O677 2.366 . S
Eu657 C687 2.825 . S
C658 O674 1.259 . S
C658 O675 1.265 1_556 S
C659 O676 1.255 1_556 S
C659 O677 1.265 . S
C660 C662 1.380 . S
C660 C663 1.374 . S
C660 C666 1.507 . S
C661 C662 1.384 . S
C661 C665 1.387 . S
C661 H688 0.930 . S
C662 C660 1.380 . S
C662 C661 1.384 . S
C662 H689 0.931 . S
C663 C660 1.374 . S
C663 C664 1.390 . S
C663 H690 0.930 . S
C664 C663 1.390 . S
C664 C665 1.391 . S
C664 H691 0.930 . S
C665 C661 1.387 . S
C665 C664 1.391 . S
C666 Tb656 2.825 . S
C666 C660 1.507 . S
C666 O679 1.238 . S
C666 O680 1.247 . S
O667 Tb656 2.347 . S
O667 C671 1.259 . S
O668 Eu657 2.418 . S
O668 C671 1.265 1_556 S
O669 Eu657 2.384 1_554 S
O669 C678 1.255 . S
O670 Tb656 2.366 . S
O670 C678 1.265 . S
C671 O667 1.259 . S
C671 O668 1.265 1_554 S
O672 Eu657 2.479 . S
O672 C687 1.238 . S
O673 Eu657 2.471 . S
O673 C687 1.247 . S
O674 Eu657 2.347 . S
O674 C658 1.259 . S
O675 Tb656 2.418 . S
O675 C658 1.265 1_554 S
O676 Tb656 2.384 . S
O676 C659 1.255 1_554 S
O677 Eu657 2.366 . S
O677 C659 1.265 . S
C678 O669 1.255 . S
C678 O670 1.265 . S
O679 Tb656 2.479 . S
O679 C666 1.238 . S
O680 Tb656 2.471 . S
O680 C666 1.247 . S
C681 C684 1.380 . S
C681 C685 1.374 . S
C681 C687 1.507 . S
C682 C683 1.387 . S
C682 C686 1.391 . S
C683 C682 1.387 . S
C683 C684 1.384 . S
C683 H692 0.930 . S
C684 C681 1.380 . S
C684 C683 1.384 . S
C684 H693 0.931 . S
C685 C681 1.374 . S
C685 C686 1.390 . S
C685 H694 0.930 . S
C686 C682 1.391 . S
C686 C685 1.390 . S
C686 H695 0.930 . S
C687 Eu657 2.825 . S
C687 O672 1.238 . S
C687 O673 1.247 . S
C687 C681 1.507 . S
H688 C661 0.930 . S
H689 C662 0.931 . S
H690 C663 0.930 . S
H691 C664 0.930 . S
H692 C683 0.930 . S
H693 C684 0.931 . S
H694 C685 0.930 . S
H695 C686 0.930 . S
Tb696 C706 2.825 . S
Tb696 O707 2.347 . S
Tb696 O710 2.366 . S
Tb696 O715 2.418 . S
Tb696 O716 2.384 . S
Tb696 O719 2.479 . S
Tb696 O720 2.471 . S
Eu697 O708 2.418 . S
Eu697 O709 2.384 . S
Eu697 O712 2.479 . S
Eu697 O713 2.471 . S
Eu697 O714 2.347 . S
Eu697 O717 2.366 . S
Eu697 C727 2.825 . S
C698 O714 1.259 . S
C698 O715 1.265 . S
C699 O716 1.255 . S
C699 O717 1.265 . S
C700 C702 1.380 . S
C700 C703 1.374 . S
C700 C706 1.507 . S
C701 C702 1.384 . S
C701 C705 1.387 . S
C701 H728 0.930 . S
C702 C700 1.380 . S
C702 C701 1.384 . S
C702 H729 0.931 . S
C703 C700 1.374 . S
C703 C704 1.390 . S
C703 H730 0.930 . S
C704 C703 1.390 . S
C704 C705 1.391 . S
C704 H731 0.930 . S
C705 C701 1.387 . S
C705 C704 1.391 . S
C706 Tb696 2.825 . S
C706 C700 1.507 . S
C706 O719 1.238 . S
C706 O720 1.247 . S
O707 Tb696 2.347 . S
O707 C711 1.259 . S
O708 Eu697 2.418 . S
O708 C711 1.265 . S
O709 Eu697 2.384 . S
O709 C718 1.255 . S
O710 Tb696 2.366 . S
O710 C718 1.265 . S
C711 O707 1.259 . S
C711 O708 1.265 . S
O712 Eu697 2.479 . S
O712 C727 1.238 . S
O713 Eu697 2.471 . S
O713 C727 1.247 . S
O714 Eu697 2.347 . S
O714 C698 1.259 . S
O715 Tb696 2.418 . S
O715 C698 1.265 . S
O716 Tb696 2.384 . S
O716 C699 1.255 . S
O717 Eu697 2.366 . S
O717 C699 1.265 . S
C718 O709 1.255 . S
C718 O710 1.265 . S
O719 Tb696 2.479 . S
O719 C706 1.238 . S
O720 Tb696 2.471 . S
O720 C706 1.247 . S
C721 C724 1.380 . S
C721 C725 1.374 . S
C721 C727 1.507 . S
C722 C723 1.387 . S
C722 C726 1.391 . S
C723 C722 1.387 . S
C723 C724 1.384 . S
C723 H732 0.930 . S
C724 C721 1.380 . S
C724 C723 1.384 . S
C724 H733 0.931 . S
C725 C721 1.374 . S
C725 C726 1.390 . S
C725 H734 0.930 . S
C726 C722 1.391 . S
C726 C725 1.390 . S
C726 H735 0.930 . S
C727 Eu697 2.825 . S
C727 O712 1.238 . S
C727 O713 1.247 . S
C727 C721 1.507 . S
H728 C701 0.930 . S
H729 C702 0.931 . S
H730 C703 0.930 . S
H731 C704 0.930 . S
H732 C723 0.930 . S
H733 C724 0.931 . S
H734 C725 0.930 . S
H735 C726 0.930 . S
Tb736 C746 2.825 . S
Tb736 O747 2.347 . S
Tb736 O750 2.366 . S
Tb736 O755 2.418 . S
Tb736 O756 2.384 . S
Tb736 O759 2.479 . S
Tb736 O760 2.471 . S
Eu737 O748 2.418 . S
Eu737 O749 2.384 . S
Eu737 O752 2.479 . S
Eu737 O753 2.471 . S
Eu737 O754 2.347 . S
Eu737 O757 2.366 . S
Eu737 C767 2.825 . S
C738 O754 1.259 . S
C738 O755 1.265 . S
C739 O756 1.255 . S
C739 O757 1.265 . S
C740 C742 1.380 . S
C740 C743 1.374 . S
C740 C746 1.507 . S
C741 C742 1.384 . S
C741 C745 1.387 . S
C741 H768 0.930 . S
C742 C740 1.380 . S
C742 C741 1.384 . S
C742 H769 0.931 . S
C743 C740 1.374 . S
C743 C744 1.390 . S
C743 H770 0.930 . S
C744 C743 1.390 . S
C744 C745 1.391 . S
C744 H771 0.930 . S
C745 C741 1.387 . S
C745 C744 1.391 . S
C746 Tb736 2.825 . S
C746 C740 1.507 . S
C746 O759 1.238 . S
C746 O760 1.247 . S
O747 Tb736 2.347 . S
O747 C751 1.259 . S
O748 Eu737 2.418 . S
O748 C751 1.265 . S
O749 Eu737 2.384 . S
O749 C758 1.255 . S
O750 Tb736 2.366 . S
O750 C758 1.265 . S
C751 O747 1.259 . S
C751 O748 1.265 . S
O752 Eu737 2.479 . S
O752 C767 1.238 . S
O753 Eu737 2.471 . S
O753 C767 1.247 . S
O754 Eu737 2.347 . S
O754 C738 1.259 . S
O755 Tb736 2.418 . S
O755 C738 1.265 . S
O756 Tb736 2.384 . S
O756 C739 1.255 . S
O757 Eu737 2.366 . S
O757 C739 1.265 . S
C758 O749 1.255 . S
C758 O750 1.265 . S
O759 Tb736 2.479 . S
O759 C746 1.238 . S
O760 Tb736 2.471 . S
O760 C746 1.247 . S
C761 C764 1.380 . S
C761 C765 1.374 . S
C761 C767 1.507 . S
C762 C763 1.387 . S
C762 C766 1.391 . S
C763 C762 1.387 . S
C763 C764 1.384 . S
C763 H772 0.930 . S
C764 C761 1.380 . S
C764 C763 1.384 . S
C764 H773 0.931 . S
C765 C761 1.374 . S
C765 C766 1.390 . S
C765 H774 0.930 . S
C766 C762 1.391 . S
C766 C765 1.390 . S
C766 H775 0.930 . S
C767 Eu737 2.825 . S
C767 O752 1.238 . S
C767 O753 1.247 . S
C767 C761 1.507 . S
H768 C741 0.930 . S
H769 C742 0.931 . S
H770 C743 0.930 . S
H771 C744 0.930 . S
H772 C763 0.930 . S
H773 C764 0.931 . S
H774 C765 0.930 . S
H775 C766 0.930 . S
Tb776 C786 2.825 . S
Tb776 O787 2.347 . S
Tb776 O790 2.366 . S
Tb776 O795 2.418 . S
Tb776 O796 2.384 . S
Tb776 O799 2.479 . S
Tb776 O800 2.471 . S
Eu777 O788 2.418 . S
Eu777 O789 2.384 . S
Eu777 O792 2.479 . S
Eu777 O793 2.471 . S
Eu777 O794 2.347 . S
Eu777 O797 2.366 . S
Eu777 C807 2.825 . S
C778 O794 1.259 . S
C778 O795 1.265 . S
C779 O796 1.255 . S
C779 O797 1.265 . S
C780 C782 1.380 . S
C780 C783 1.374 . S
C780 C786 1.507 . S
C781 C782 1.384 . S
C781 C785 1.387 . S
C781 H808 0.930 . S
C782 C780 1.380 . S
C782 C781 1.384 . S
C782 H809 0.931 . S
C783 C780 1.374 . S
C783 C784 1.390 . S
C783 H810 0.930 . S
C784 C783 1.390 . S
C784 C785 1.391 . S
C784 H811 0.930 . S
C785 C781 1.387 . S
C785 C784 1.391 . S
C786 Tb776 2.825 . S
C786 C780 1.507 . S
C786 O799 1.238 . S
C786 O800 1.247 . S
O787 Tb776 2.347 . S
O787 C791 1.259 . S
O788 Eu777 2.418 . S
O788 C791 1.265 . S
O789 Eu777 2.384 . S
O789 C798 1.255 . S
O790 Tb776 2.366 . S
O790 C798 1.265 . S
C791 O787 1.259 . S
C791 O788 1.265 . S
O792 Eu777 2.479 . S
O792 C807 1.238 . S
O793 Eu777 2.471 . S
O793 C807 1.247 . S
O794 Eu777 2.347 . S
O794 C778 1.259 . S
O795 Tb776 2.418 . S
O795 C778 1.265 . S
O796 Tb776 2.384 . S
O796 C779 1.255 . S
O797 Eu777 2.366 . S
O797 C779 1.265 . S
C798 O789 1.255 . S
C798 O790 1.265 . S
O799 Tb776 2.479 . S
O799 C786 1.238 . S
O800 Tb776 2.471 . S
O800 C786 1.247 . S
C801 C804 1.380 . S
C801 C805 1.374 . S
C801 C807 1.507 . S
C802 C803 1.387 . S
C802 C806 1.391 . S
C803 C802 1.387 . S
C803 C804 1.384 . S
C803 H812 0.930 . S
C804 C801 1.380 . S
C804 C803 1.384 . S
C804 H813 0.931 . S
C805 C801 1.374 . S
C805 C806 1.390 . S
C805 H814 0.930 . S
C806 C802 1.391 . S
C806 C805 1.390 . S
C806 H815 0.930 . S
C807 Eu777 2.825 . S
C807 O792 1.238 . S
C807 O793 1.247 . S
C807 C801 1.507 . S
H808 C781 0.930 . S
H809 C782 0.931 . S
H810 C783 0.930 . S
H811 C784 0.930 . S
H812 C803 0.930 . S
H813 C804 0.931 . S
H814 C805 0.930 . S
H815 C806 0.930 . S
Tb816 C826 2.825 . S
Tb816 O827 2.347 . S
Tb816 O830 2.366 . S
Tb816 O835 2.418 . S
Tb816 O836 2.384 . S
Tb816 O839 2.479 . S
Tb816 O840 2.471 . S
Eu817 O828 2.418 . S
Eu817 O829 2.384 . S
Eu817 O832 2.479 . S
Eu817 O833 2.471 . S
Eu817 O834 2.347 . S
Eu817 O837 2.366 . S
Eu817 C847 2.825 . S
C818 O834 1.259 . S
C818 O835 1.265 . S
C819 O836 1.255 . S
C819 O837 1.265 . S
C820 C822 1.380 . S
C820 C823 1.374 . S
C820 C826 1.507 . S
C821 C822 1.384 . S
C821 C825 1.387 . S
C821 H848 0.930 . S
C822 C820 1.380 . S
C822 C821 1.384 . S
C822 H849 0.931 . S
C823 C820 1.374 . S
C823 C824 1.390 . S
C823 H850 0.930 . S
C824 C823 1.390 . S
C824 C825 1.391 . S
C824 H851 0.930 . S
C825 C821 1.387 . S
C825 C824 1.391 . S
C826 Tb816 2.825 . S
C826 C820 1.507 . S
C826 O839 1.238 . S
C826 O840 1.247 . S
O827 Tb816 2.347 . S
O827 C831 1.259 . S
O828 Eu817 2.418 . S
O828 C831 1.265 . S
O829 Eu817 2.384 . S
O829 C838 1.255 . S
O830 Tb816 2.366 . S
O830 C838 1.265 . S
C831 O827 1.259 . S
C831 O828 1.265 . S
O832 Eu817 2.479 . S
O832 C847 1.238 . S
O833 Eu817 2.471 . S
O833 C847 1.247 . S
O834 Eu817 2.347 . S
O834 C818 1.259 . S
O835 Tb816 2.418 . S
O835 C818 1.265 . S
O836 Tb816 2.384 . S
O836 C819 1.255 . S
O837 Eu817 2.366 . S
O837 C819 1.265 . S
C838 O829 1.255 . S
C838 O830 1.265 . S
O839 Tb816 2.479 . S
O839 C826 1.238 . S
O840 Tb816 2.471 . S
O840 C826 1.247 . S
C841 C844 1.380 . S
C841 C845 1.374 . S
C841 C847 1.507 . S
C842 C843 1.387 . S
C842 C846 1.391 . S
C843 C842 1.387 . S
C843 C844 1.384 . S
C843 H852 0.930 . S
C844 C841 1.380 . S
C844 C843 1.384 . S
C844 H853 0.931 . S
C845 C841 1.374 . S
C845 C846 1.390 . S
C845 H854 0.930 . S
C846 C842 1.391 . S
C846 C845 1.390 . S
C846 H855 0.930 . S
C847 Eu817 2.825 . S
C847 O832 1.238 . S
C847 O833 1.247 . S
C847 C841 1.507 . S
H848 C821 0.930 . S
H849 C822 0.931 . S
H850 C823 0.930 . S
H851 C824 0.930 . S
H852 C843 0.930 . S
H853 C844 0.931 . S
H854 C845 0.930 . S
H855 C846 0.930 . S
Tb856 C866 2.825 . S
Tb856 O867 2.347 . S
Tb856 O870 2.366 . S
Tb856 O875 2.418 . S
Tb856 O876 2.384 . S
Tb856 O879 2.479 . S
Tb856 O880 2.471 . S
Eu857 O868 2.418 . S
Eu857 O869 2.384 . S
Eu857 O872 2.479 . S
Eu857 O873 2.471 . S
Eu857 O874 2.347 . S
Eu857 O877 2.366 . S
Eu857 C887 2.825 . S
C858 O874 1.259 . S
C858 O875 1.265 . S
C859 O876 1.255 . S
C859 O877 1.265 . S
C860 C862 1.380 . S
C860 C863 1.374 . S
C860 C866 1.507 . S
C861 C862 1.384 . S
C861 C865 1.387 . S
C861 H888 0.930 . S
C862 C860 1.380 . S
C862 C861 1.384 . S
C862 H889 0.931 . S
C863 C860 1.374 . S
C863 C864 1.390 . S
C863 H890 0.930 . S
C864 C863 1.390 . S
C864 C865 1.391 . S
C864 H891 0.930 . S
C865 C861 1.387 . S
C865 C864 1.391 . S
C866 Tb856 2.825 . S
C866 C860 1.507 . S
C866 O879 1.238 . S
C866 O880 1.247 . S
O867 Tb856 2.347 . S
O867 C871 1.259 . S
O868 Eu857 2.418 . S
O868 C871 1.265 . S
O869 Eu857 2.384 . S
O869 C878 1.255 . S
O870 Tb856 2.366 . S
O870 C878 1.265 . S
C871 O867 1.259 . S
C871 O868 1.265 . S
O872 Eu857 2.479 . S
O872 C887 1.238 . S
O873 Eu857 2.471 . S
O873 C887 1.247 . S
O874 Eu857 2.347 . S
O874 C858 1.259 . S
O875 Tb856 2.418 . S
O875 C858 1.265 . S
O876 Tb856 2.384 . S
O876 C859 1.255 . S
O877 Eu857 2.366 . S
O877 C859 1.265 . S
C878 O869 1.255 . S
C878 O870 1.265 . S
O879 Tb856 2.479 . S
O879 C866 1.238 . S
O880 Tb856 2.471 . S
O880 C866 1.247 . S
C881 C884 1.380 . S
C881 C885 1.374 . S
C881 C887 1.507 . S
C882 C883 1.387 . S
C882 C886 1.391 . S
C883 C882 1.387 . S
C883 C884 1.384 . S
C883 H892 0.930 . S
C884 C881 1.380 . S
C884 C883 1.384 . S
C884 H893 0.931 . S
C885 C881 1.374 . S
C885 C886 1.390 . S
C885 H894 0.930 . S
C886 C882 1.391 . S
C886 C885 1.390 . S
C886 H895 0.930 . S
C887 Eu857 2.825 . S
C887 O872 1.238 . S
C887 O873 1.247 . S
C887 C881 1.507 . S
H888 C861 0.930 . S
H889 C862 0.931 . S
H890 C863 0.930 . S
H891 C864 0.930 . S
H892 C883 0.930 . S
H893 C884 0.931 . S
H894 C885 0.930 . S
H895 C886 0.930 . S
Tb896 C906 2.825 . S
Tb896 O907 2.347 . S
Tb896 O910 2.366 . S
Tb896 O915 2.418 . S
Tb896 O916 2.384 . S
Tb896 O919 2.479 . S
Tb896 O920 2.471 . S
Eu897 O908 2.418 . S
Eu897 O909 2.384 . S
Eu897 O912 2.479 . S
Eu897 O913 2.471 . S
Eu897 O914 2.347 . S
Eu897 O917 2.366 . S
Eu897 C927 2.825 . S
C898 O914 1.259 . S
C898 O915 1.265 . S
C899 O916 1.255 . S
C899 O917 1.265 . S
C900 C902 1.380 . S
C900 C903 1.374 . S
C900 C906 1.507 . S
C901 C902 1.384 . S
C901 C905 1.387 . S
C901 H928 0.930 . S
C902 C900 1.380 . S
C902 C901 1.384 . S
C902 H929 0.931 . S
C903 C900 1.374 . S
C903 C904 1.390 . S
C903 H930 0.930 . S
C904 C903 1.390 . S
C904 C905 1.391 . S
C904 H931 0.930 . S
C905 C901 1.387 . S
C905 C904 1.391 . S
C906 Tb896 2.825 . S
C906 C900 1.507 . S
C906 O919 1.238 . S
C906 O920 1.247 . S
O907 Tb896 2.347 . S
O907 C911 1.259 . S
O908 Eu897 2.418 . S
O908 C911 1.265 . S
O909 Eu897 2.384 . S
O909 C918 1.255 . S
O910 Tb896 2.366 . S
O910 C918 1.265 . S
C911 O907 1.259 . S
C911 O908 1.265 . S
O912 Eu897 2.479 . S
O912 C927 1.238 . S
O913 Eu897 2.471 . S
O913 C927 1.247 . S
O914 Eu897 2.347 . S
O914 C898 1.259 . S
O915 Tb896 2.418 . S
O915 C898 1.265 . S
O916 Tb896 2.384 . S
O916 C899 1.255 . S
O917 Eu897 2.366 . S
O917 C899 1.265 . S
C918 O909 1.255 . S
C918 O910 1.265 . S
O919 Tb896 2.479 . S
O919 C906 1.238 . S
O920 Tb896 2.471 . S
O920 C906 1.247 . S
C921 C924 1.380 . S
C921 C925 1.374 . S
C921 C927 1.507 . S
C922 C923 1.387 . S
C922 C926 1.391 . S
C923 C922 1.387 . S
C923 C924 1.384 . S
C923 H932 0.930 . S
C924 C921 1.380 . S
C924 C923 1.384 . S
C924 H933 0.931 . S
C925 C921 1.374 . S
C925 C926 1.390 . S
C925 H934 0.930 . S
C926 C922 1.391 . S
C926 C925 1.390 . S
C926 H935 0.930 . S
C927 Eu897 2.825 . S
C927 O912 1.238 . S
C927 O913 1.247 . S
C927 C921 1.507 . S
H928 C901 0.930 . S
H929 C902 0.931 . S
H930 C903 0.930 . S
H931 C904 0.930 . S
H932 C923 0.930 . S
H933 C924 0.931 . S
H934 C925 0.930 . S
H935 C926 0.930 . S
H936 C954 0.951 . S
H937 C956 0.951 . S
H938 C958 0.950 . S
H939 C959 0.950 . S
H940 C961 0.950 . S
H941 C964 0.950 . S
H942 C965 0.950 . S
H943 C967 0.950 . S
H944 C968 0.950 . S
H945 C969 0.951 . S
H946 C971 0.951 . S
H947 C973 0.950 . S
H948 C974 0.950 . S
H949 C976 0.950 . S
H950 C979 0.950 . S
H951 C980 0.950 . S
H952 C982 0.950 . S
H953 C983 0.950 . S
C954 H936 0.951 . S
C954 C955 1.366 . S
C954 C956 1.388 . S
C955 C954 1.366 . S
C955 C959 1.385 . S
C956 H937 0.951 . S
C956 C954 1.388 . S
C956 C957 1.366 . S
C957 C956 1.366 . S
C957 C958 1.414 . S
C957 C960 1.499 . S
C958 H938 0.950 . S
C958 C957 1.414 . S
C958 C959 1.374 . S
C959 H939 0.950 . S
C959 C955 1.385 . S
C959 C958 1.374 . S
C960 C957 1.499 . S
C960 C961 1.373 . S
C960 C962 1.389 . S
C961 H940 0.950 . S
C961 C960 1.373 . S
C961 C977 1.377 . S
C962 C960 1.389 . S
C962 C963 1.524 . S
C962 C976 1.377 . S
C963 C962 1.524 . S
C963 C964 1.397 . S
C963 C968 1.363 . S
C964 H941 0.950 . S
C964 C963 1.397 . S
C964 C965 1.334 . S
C965 H942 0.950 . S
C965 C964 1.334 . S
C965 C966 1.287 1_554 S
C966 C965 1.287 1_556 S
C966 C967 1.524 . S
C966 H985 0.913 . S
C967 H943 0.950 . S
C967 C966 1.524 . S
C967 C968 1.415 1_556 S
C968 H944 0.950 . S
C968 C963 1.363 . S
C968 C967 1.415 1_554 S
C969 H945 0.951 . S
C969 C970 1.366 . S
C969 C971 1.388 . S
C970 C969 1.366 . S
C970 C974 1.385 . S
C971 H946 0.951 . S
C971 C969 1.388 . S
C971 C972 1.366 . S
C972 C971 1.366 . S
C972 C973 1.414 . S
C972 C975 1.499 . S
C973 H947 0.950 . S
C973 C972 1.414 . S
C973 C974 1.374 . S
C974 H948 0.950 . S
C974 C970 1.385 . S
C974 C973 1.374 . S
C975 C972 1.499 . S
C975 C976 1.373 . S
C975 C977 1.389 . S
C976 H949 0.950 . S
C976 C962 1.377 . S
C976 C975 1.373 . S
C977 C961 1.377 . S
C977 C975 1.389 . S
C977 C978 1.524 . S
C978 C977 1.524 . S
C978 C979 1.397 . S
C978 C983 1.363 . S
C979 H950 0.950 . S
C979 C978 1.397 . S
C979 C980 1.334 . S
C980 H951 0.950 . S
C980 C979 1.334 . S
C980 C981 1.287 . S
C981 C980 1.287 . S
C981 C982 1.524 . S
C981 H984 0.999 . S
C982 H952 0.950 . S
C982 C981 1.524 . S
C982 C983 1.415 . S
C983 H953 0.950 . S
C983 C978 1.363 . S
C983 C982 1.415 . S
H984 C981 0.999 . S
H985 C966 0.913 . S
H986 C1004 0.951 . S
H987 C1006 0.951 . S
H988 C1008 0.950 . S
H989 C1009 0.950 . S
H990 C1011 0.950 . S
H991 C1014 0.950 . S
H992 C1015 0.950 . S
H993 C1017 0.950 . S
H994 C1018 0.950 . S
H995 C1019 0.951 . S
H996 C1021 0.951 . S
H997 C1023 0.950 . S
H998 C1024 0.950 . S
H999 C1026 0.950 . S
H1000 C1029 0.950 . S
H1001 C1030 0.950 . S
H1002 C1032 0.950 . S
H1003 C1033 0.950 . S
C1004 H986 0.951 . S
C1004 C1005 1.366 . S
C1004 C1006 1.388 . S
C1005 C1004 1.366 . S
C1005 C1009 1.385 . S
C1006 H987 0.951 . S
C1006 C1004 1.388 . S
C1006 C1007 1.366 . S
C1007 C1006 1.366 . S
C1007 C1008 1.414 . S
C1007 C1010 1.499 . S
C1008 H988 0.950 . S
C1008 C1007 1.414 . S
C1008 C1009 1.374 . S
C1009 H989 0.950 . S
C1009 C1005 1.385 . S
C1009 C1008 1.374 . S
C1010 C1007 1.499 . S
C1010 C1011 1.373 . S
C1010 C1012 1.389 . S
C1011 H990 0.950 . S
C1011 C1010 1.373 . S
C1011 C1027 1.377 . S
C1012 C1010 1.389 . S
C1012 C1013 1.524 . S
C1012 C1026 1.377 . S
C1013 C1012 1.524 . S
C1013 C1014 1.397 . S
C1013 C1018 1.363 . S
C1014 H991 0.950 . S
C1014 C1013 1.397 . S
C1014 C1015 1.334 . S
C1015 H992 0.950 . S
C1015 C1014 1.334 . S
C1015 C1016 1.287 . S
C1016 C1015 1.287 . S
C1016 C1017 1.524 . S
C1016 H1035 0.913 . S
C1017 H993 0.950 . S
C1017 C1016 1.524 . S
C1017 C1018 1.415 . S
C1018 H994 0.950 . S
C1018 C1013 1.363 . S
C1018 C1017 1.415 . S
C1019 H995 0.951 . S
C1019 C1020 1.366 . S
C1019 C1021 1.388 . S
C1020 C1019 1.366 . S
C1020 C1024 1.385 . S
C1021 H996 0.951 . S
C1021 C1019 1.388 . S
C1021 C1022 1.366 . S
C1022 C1021 1.366 . S
C1022 C1023 1.414 . S
C1022 C1025 1.499 . S
C1023 H997 0.950 . S
C1023 C1022 1.414 . S
C1023 C1024 1.374 . S
C1024 H998 0.950 . S
C1024 C1020 1.385 . S
C1024 C1023 1.374 . S
C1025 C1022 1.499 . S
C1025 C1026 1.373 . S
C1025 C1027 1.389 . S
C1026 H999 0.950 . S
C1026 C1012 1.377 . S
C1026 C1025 1.373 . S
C1027 C1011 1.377 . S
C1027 C1025 1.389 . S
C1027 C1028 1.524 . S
C1028 C1027 1.524 . S
C1028 C1029 1.397 . S
C1028 C1033 1.363 . S
C1029 H1000 0.950 . S
C1029 C1028 1.397 . S
C1029 C1030 1.334 . S
C1030 H1001 0.950 . S
C1030 C1029 1.334 . S
C1030 C1031 1.287 . S
C1031 C1030 1.287 . S
C1031 C1032 1.524 . S
C1031 H1034 0.999 . S
C1032 H1002 0.950 . S
C1032 C1031 1.524 . S
C1032 C1033 1.415 . S
C1033 H1003 0.950 . S
C1033 C1028 1.363 . S
C1033 C1032 1.415 . S
H1034 C1031 0.999 . S
H1035 C1016 0.913 . S
H1036 C1054 0.951 . S
H1037 C1056 0.951 . S
H1038 C1058 0.950 . S
H1039 C1059 0.950 . S
H1040 C1061 0.950 . S
H1041 C1064 0.950 . S
H1042 C1065 0.950 . S
H1043 C1067 0.950 . S
H1044 C1068 0.950 . S
H1045 C1069 0.952 1_556 S
H1046 C1071 0.951 . S
H1047 C1073 0.950 . S
H1048 C1074 0.950 . S
H1049 C1076 0.950 . S
H1050 C1079 0.950 . S
H1051 C1080 0.950 . S
H1052 C1082 0.950 . S
H1053 C1083 0.950 . S
C1054 H1036 0.951 . S
C1054 C1055 1.366 . S
C1054 C1056 1.388 . S
C1055 C1054 1.366 . S
C1055 C1059 1.385 . S
C1056 H1037 0.951 . S
C1056 C1054 1.388 . S
C1056 C1057 1.366 . S
C1057 C1056 1.366 . S
C1057 C1058 1.414 . S
C1057 C1060 1.499 . S
C1058 H1038 0.950 . S
C1058 C1057 1.414 . S
C1058 C1059 1.374 . S
C1059 H1039 0.950 . S
C1059 C1055 1.385 . S
C1059 C1058 1.374 . S
C1060 C1057 1.499 . S
C1060 C1061 1.373 . S
C1060 C1062 1.389 . S
C1061 H1040 0.950 . S
C1061 C1060 1.373 . S
C1061 C1077 1.377 . S
C1062 C1060 1.389 . S
C1062 C1063 1.524 . S
C1062 C1076 1.377 . S
C1063 C1062 1.524 . S
C1063 C1064 1.397 . S
C1063 C1068 1.363 . S
C1064 H1041 0.950 . S
C1064 C1063 1.397 . S
C1064 C1065 1.334 . S
C1065 H1042 0.950 . S
C1065 C1064 1.334 . S
C1065 C1066 1.287 . S
C1066 C1065 1.287 . S
C1066 C1067 1.524 . S
C1066 H1085 0.913 . S
C1067 H1043 0.950 . S
C1067 C1066 1.524 . S
C1067 C1068 1.415 . S
C1068 H1044 0.950 . S
C1068 C1063 1.363 . S
C1068 C1067 1.415 . S
C1069 H1045 0.952 1_554 S
C1069 C1070 1.366 . S
C1069 C1071 1.388 . S
C1070 C1069 1.366 . S
C1070 C1074 1.385 . S
C1071 H1046 0.951 . S
C1071 C1069 1.388 . S
C1071 C1072 1.366 . S
C1072 C1071 1.366 . S
C1072 C1073 1.414 . S
C1072 C1075 1.499 . S
C1073 H1047 0.950 . S
C1073 C1072 1.414 . S
C1073 C1074 1.374 . S
C1074 H1048 0.950 . S
C1074 C1070 1.385 . S
C1074 C1073 1.374 . S
C1075 C1072 1.499 . S
C1075 C1076 1.373 . S
C1075 C1077 1.389 . S
C1076 H1049 0.950 . S
C1076 C1062 1.377 . S
C1076 C1075 1.373 . S
C1077 C1061 1.377 . S
C1077 C1075 1.389 . S
C1077 C1078 1.524 . S
C1078 C1077 1.524 . S
C1078 C1079 1.397 . S
C1078 C1083 1.363 . S
C1079 H1050 0.950 . S
C1079 C1078 1.397 . S
C1079 C1080 1.334 . S
C1080 H1051 0.950 . S
C1080 C1079 1.334 . S
C1080 C1081 1.287 . S
C1081 C1080 1.287 . S
C1081 C1082 1.524 . S
C1081 H1084 0.999 . S
C1082 H1052 0.950 . S
C1082 C1081 1.524 . S
C1082 C1083 1.415 . S
C1083 H1053 0.950 . S
C1083 C1078 1.363 . S
C1083 C1082 1.415 . S
H1084 C1081 0.999 . S
H1085 C1066 0.913 . S
H1086 C1104 0.951 . S
H1087 C1106 0.951 . S
H1088 C1108 0.950 . S
H1089 C1109 0.950 . S
H1090 C1111 0.950 . S
H1091 C1114 0.950 . S
H1092 C1115 0.950 . S
H1093 C1117 0.950 . S
H1094 C1118 0.950 . S
H1095 C1119 0.951 . S
H1096 C1121 0.951 . S
H1097 C1123 0.950 . S
H1098 C1124 0.950 . S
H1099 C1126 0.950 . S
H1100 C1129 0.950 . S
H1101 C1130 0.950 . S
H1102 C1132 0.950 . S
H1103 C1133 0.981 . S
C1104 H1086 0.951 . S
C1104 C1105 1.366 . S
C1104 C1106 1.388 . S
C1105 C1104 1.366 . S
C1105 C1109 1.385 . S
C1106 H1087 0.951 . S
C1106 C1104 1.388 . S
C1106 C1107 1.366 . S
C1107 C1106 1.366 . S
C1107 C1108 1.414 . S
C1107 C1110 1.499 . S
C1108 H1088 0.950 . S
C1108 C1107 1.414 . S
C1108 C1109 1.374 . S
C1109 H1089 0.950 . S
C1109 C1105 1.385 . S
C1109 C1108 1.374 . S
C1110 C1107 1.499 . S
C1110 C1111 1.373 . S
C1110 C1112 1.389 . S
C1111 H1090 0.950 . S
C1111 C1110 1.373 . S
C1111 C1127 1.377 . S
C1112 C1110 1.389 . S
C1112 C1113 1.524 . S
C1112 C1126 1.377 . S
C1113 C1112 1.524 . S
C1113 C1114 1.397 . S
C1113 C1118 1.363 . S
C1114 H1091 0.950 . S
C1114 C1113 1.397 . S
C1114 C1115 1.334 . S
C1115 H1092 0.950 . S
C1115 C1114 1.334 . S
C1115 C1116 1.287 . S
C1116 C1115 1.287 . S
C1116 C1117 1.524 . S
C1116 H1135 0.913 . S
C1117 H1093 0.950 . S
C1117 C1116 1.524 . S
C1117 C1118 1.415 . S
C1118 H1094 0.950 . S
C1118 C1113 1.363 . S
C1118 C1117 1.415 . S
C1119 H1095 0.951 . S
C1119 C1120 1.366 . S
C1119 C1121 1.388 . S
C1120 C1119 1.366 . S
C1120 C1124 1.385 . S
C1121 H1096 0.951 . S
C1121 C1119 1.388 . S
C1121 C1122 1.366 . S
C1122 C1121 1.366 . S
C1122 C1123 1.414 . S
C1122 C1125 1.499 . S
C1123 H1097 0.950 . S
C1123 C1122 1.414 . S
C1123 C1124 1.374 . S
C1124 H1098 0.950 . S
C1124 C1120 1.385 . S
C1124 C1123 1.374 . S
C1125 C1122 1.499 . S
C1125 C1126 1.373 . S
C1125 C1127 1.389 . S
C1126 H1099 0.950 . S
C1126 C1112 1.377 . S
C1126 C1125 1.373 . S
C1127 C1111 1.377 . S
C1127 C1125 1.389 . S
C1127 C1128 1.524 1_556 S
C1128 C1127 1.524 1_554 S
C1128 C1129 1.397 . S
C1128 C1133 1.363 . S
C1129 H1100 0.950 . S
C1129 C1128 1.397 . S
C1129 C1130 1.334 . S
C1130 H1101 0.950 . S
C1130 C1129 1.334 . S
C1130 C1131 1.287 . S
C1131 C1130 1.287 . S
C1131 C1132 1.524 . S
C1131 H1134 0.999 . S
C1132 H1102 0.950 . S
C1132 C1131 1.524 . S
C1132 C1133 1.415 . S
C1133 H1103 0.981 . S
C1133 C1128 1.363 . S
C1133 C1132 1.415 . S
H1134 C1131 0.999 . S
H1135 C1116 0.913 . S
H1136 C1154 0.951 . S
H1137 C1156 0.951 . S
H1138 C1158 0.950 . S
H1139 C1159 0.950 . S
H1140 C1161 0.950 . S
H1141 C1164 0.950 . S
H1142 C1165 0.950 . S
H1143 C1167 0.950 . S
H1144 C1168 0.950 . S
H1145 C1169 0.951 . S
H1146 C1171 0.951 . S
H1147 C1173 0.950 . S
H1148 C1174 0.950 . S
H1149 C1176 0.950 . S
H1150 C1179 0.950 . S
H1151 C1180 0.950 . S
H1152 C1182 0.950 . S
H1153 C1183 0.950 . S
C1154 H1136 0.951 . S
C1154 C1155 1.366 . S
C1154 C1156 1.388 . S
C1155 C1154 1.366 . S
C1155 C1159 1.385 . S
C1156 H1137 0.951 . S
C1156 C1154 1.388 . S
C1156 C1157 1.366 . S
C1157 C1156 1.366 . S
C1157 C1158 1.414 . S
C1157 C1160 1.499 . S
C1158 H1138 0.950 . S
C1158 C1157 1.414 . S
C1158 C1159 1.374 . S
C1159 H1139 0.950 . S
C1159 C1155 1.385 . S
C1159 C1158 1.374 . S
C1160 C1157 1.499 . S
C1160 C1161 1.373 . S
C1160 C1162 1.389 . S
C1161 H1140 0.950 . S
C1161 C1160 1.373 . S
C1161 C1177 1.377 . S
C1162 C1160 1.389 . S
C1162 C1163 1.524 . S
C1162 C1176 1.377 . S
C1163 C1162 1.524 . S
C1163 C1164 1.397 . S
C1163 C1168 1.363 . S
C1164 H1141 0.950 . S
C1164 C1163 1.397 . S
C1164 C1165 1.334 . S
C1165 H1142 0.950 . S
C1165 C1164 1.334 . S
C1165 C1166 1.287 . S
C1166 C1165 1.287 . S
C1166 C1167 1.524 . S
C1166 H1185 0.913 . S
C1167 H1143 0.950 . S
C1167 C1166 1.524 . S
C1167 C1168 1.415 . S
C1168 H1144 0.950 . S
C1168 C1163 1.363 . S
C1168 C1167 1.415 . S
C1169 H1145 0.951 . S
C1169 C1170 1.366 . S
C1169 C1171 1.388 . S
C1170 C1169 1.366 . S
C1170 C1174 1.385 . S
C1171 H1146 0.951 . S
C1171 C1169 1.388 . S
C1171 C1172 1.366 . S
C1172 C1171 1.366 . S
C1172 C1173 1.414 . S
C1172 C1175 1.499 . S
C1173 H1147 0.950 . S
C1173 C1172 1.414 . S
C1173 C1174 1.374 . S
C1174 H1148 0.950 . S
C1174 C1170 1.385 . S
C1174 C1173 1.374 . S
C1175 C1172 1.499 . S
C1175 C1176 1.373 . S
C1175 C1177 1.389 . S
C1176 H1149 0.950 . S
C1176 C1162 1.377 . S
C1176 C1175 1.373 . S
C1177 C1161 1.377 . S
C1177 C1175 1.389 . S
C1177 C1178 1.524 . S
C1178 C1177 1.524 . S
C1178 C1179 1.397 . S
C1178 C1183 1.363 . S
C1179 H1150 0.950 . S
C1179 C1178 1.397 . S
C1179 C1180 1.334 1_556 S
C1180 H1151 0.950 . S
C1180 C1179 1.334 1_554 S
C1180 C1181 1.287 . S
C1181 C1180 1.287 . S
C1181 C1182 1.524 . S
C1181 H1184 0.999 . S
C1182 H1152 0.950 . S
C1182 C1181 1.524 . S
C1182 C1183 1.415 1_554 S
C1183 H1153 0.950 . S
C1183 C1178 1.363 . S
C1183 C1182 1.415 1_556 S
H1184 C1181 0.999 . S
H1185 C1166 0.913 . S
H1186 C1204 0.951 . S
H1187 C1206 0.951 . S
H1188 C1208 0.950 . S
H1189 C1209 0.950 . S
H1190 C1211 0.950 . S
H1191 C1214 0.950 1_556 S
H1192 C1215 0.950 . S
H1193 C1217 0.950 . S
H1194 C1218 0.950 . S
H1195 C1219 0.951 . S
H1196 C1221 0.951 . S
H1197 C1223 0.950 . S
H1198 C1224 0.958 . S
H1199 C1226 0.987 . S
H1200 C1229 0.950 . S
H1201 C1230 0.950 . S
H1202 C1232 0.950 . S
H1203 C1233 0.950 . S
C1204 H1186 0.951 . S
C1204 C1205 1.366 . S
C1204 C1206 1.388 . S
C1205 C1204 1.366 . S
C1205 C1209 1.385 . S
C1206 H1187 0.951 . S
C1206 C1204 1.388 . S
C1206 C1207 1.366 . S
C1207 C1206 1.366 . S
C1207 C1208 1.414 . S
C1207 C1210 1.499 . S
C1208 H1188 0.950 . S
C1208 C1207 1.414 . S
C1208 C1209 1.374 . S
C1209 H1189 0.950 . S
C1209 C1205 1.385 . S
C1209 C1208 1.374 . S
C1210 C1207 1.499 . S
C1210 C1211 1.373 . S
C1210 C1212 1.389 . S
C1211 H1190 0.950 . S
C1211 C1210 1.373 . S
C1211 C1227 1.377 . S
C1212 C1210 1.389 . S
C1212 C1213 1.594 . S
C1212 C1226 1.377 . S
C1213 C1212 1.594 . S
C1213 C1214 1.384 1_556 S
C1213 C1218 1.311 1_556 S
C1214 H1191 0.950 1_554 S
C1214 C1213 1.384 1_554 S
C1214 C1215 1.334 . S
C1215 H1192 0.950 . S
C1215 C1214 1.334 . S
C1215 C1216 1.287 . S
C1216 C1215 1.287 . S
C1216 C1217 1.524 . S
C1216 H1235 0.913 . S
C1217 H1193 0.950 . S
C1217 C1216 1.524 . S
C1217 C1218 1.415 . S
C1218 H1194 0.950 . S
C1218 C1213 1.311 1_554 S
C1218 C1217 1.415 . S
C1219 H1195 0.951 . S
C1219 C1220 1.366 . S
C1219 C1221 1.388 . S
C1220 C1219 1.366 . S
C1220 C1224 1.385 . S
C1221 H1196 0.951 . S
C1221 C1219 1.388 . S
C1221 C1222 1.366 . S
C1222 C1221 1.366 . S
C1222 C1223 1.414 . S
C1222 C1225 1.499 . S
C1223 H1197 0.950 . S
C1223 C1222 1.414 . S
C1223 C1224 1.374 . S
C1224 H1198 0.958 . S
C1224 C1220 1.385 . S
C1224 C1223 1.374 . S
C1225 C1222 1.499 . S
C1225 C1226 1.373 . S
C1225 C1227 1.389 . S
C1226 H1199 0.987 . S
C1226 C1212 1.377 . S
C1226 C1225 1.373 . S
C1227 C1211 1.377 . S
C1227 C1225 1.389 . S
C1227 C1228 1.524 . S
C1228 C1227 1.524 . S
C1228 C1229 1.397 . S
C1228 C1233 1.363 . S
C1229 H1200 0.950 . S
C1229 C1228 1.397 . S
C1229 C1230 1.334 . S
C1230 H1201 0.950 . S
C1230 C1229 1.334 . S
C1230 C1231 1.287 . S
C1231 C1230 1.287 . S
C1231 C1232 1.524 . S
C1231 H1234 0.999 . S
C1232 H1202 0.950 . S
C1232 C1231 1.524 . S
C1232 C1233 1.415 . S
C1233 H1203 0.950 . S
C1233 C1228 1.363 . S
C1233 C1232 1.415 . S
H1234 C1231 0.999 . S
H1235 C1216 0.913 . S
H1236 C1254 0.951 . S
H1237 C1256 0.951 . S
H1238 C1258 0.950 . S
H1239 C1259 0.950 . S
H1240 C1261 0.950 . S
H1241 C1264 0.950 . S
H1242 C1265 0.950 . S
H1243 C1267 0.950 . S
H1244 C1268 0.955 . S
H1245 C1269 0.951 . S
H1246 C1271 0.951 . S
H1247 C1273 0.950 . S
H1248 C1274 0.950 . S
H1249 C1276 0.950 . S
H1250 C1279 0.950 . S
H1251 C1280 0.950 . S
H1252 C1282 0.950 . S
H1253 C1283 0.950 . S
C1254 H1236 0.951 . S
C1254 C1255 1.366 . S
C1254 C1256 1.388 . S
C1255 C1254 1.366 . S
C1255 C1259 1.385 . S
C1256 H1237 0.951 . S
C1256 C1254 1.388 . S
C1256 C1257 1.366 . S
C1257 C1256 1.366 . S
C1257 C1258 1.414 . S
C1257 C1260 1.499 . S
C1258 H1238 0.950 . S
C1258 C1257 1.414 . S
C1258 C1259 1.374 . S
C1259 H1239 0.950 . S
C1259 C1255 1.385 . S
C1259 C1258 1.374 . S
C1260 C1257 1.499 . S
C1260 C1261 1.373 . S
C1260 C1262 1.389 . S
C1261 H1240 0.950 . S
C1261 C1260 1.373 . S
C1261 C1277 1.377 . S
C1262 C1260 1.389 . S
C1262 C1263 1.524 . S
C1262 C1276 1.377 . S
C1263 C1262 1.524 . S
C1263 C1264 1.397 . S
C1263 C1268 1.387 . S
C1264 H1241 0.950 . S
C1264 C1263 1.397 . S
C1264 C1265 1.334 1_556 S
C1265 H1242 0.950 . S
C1265 C1264 1.334 1_554 S
C1265 C1266 1.287 . S
C1266 C1265 1.287 . S
C1266 C1267 1.524 . S
C1266 H1285 0.913 . S
C1267 H1243 0.950 . S
C1267 C1266 1.524 . S
C1267 C1268 1.388 1_554 S
C1268 H1244 0.955 . S
C1268 C1263 1.387 . S
C1268 C1267 1.388 1_556 S
C1269 H1245 0.951 . S
C1269 C1270 1.366 . S
C1269 C1271 1.388 . S
C1270 C1269 1.366 . S
C1270 C1274 1.385 . S
C1271 H1246 0.951 . S
C1271 C1269 1.388 . S
C1271 C1272 1.366 . S
C1272 C1271 1.366 . S
C1272 C1273 1.414 . S
C1272 C1275 1.499 . S
C1273 H1247 0.950 . S
C1273 C1272 1.414 . S
C1273 C1274 1.374 . S
C1274 H1248 0.950 . S
C1274 C1270 1.385 . S
C1274 C1273 1.374 . S
C1275 C1272 1.499 . S
C1275 C1276 1.373 . S
C1275 C1277 1.389 . S
C1276 H1249 0.950 . S
C1276 C1262 1.377 . S
C1276 C1275 1.373 . S
C1277 C1261 1.377 . S
C1277 C1275 1.389 . S
C1277 C1278 1.524 . S
C1278 C1277 1.524 . S
C1278 C1279 1.397 . S
C1278 C1283 1.363 . S
C1279 H1250 0.950 . S
C1279 C1278 1.397 . S
C1279 C1280 1.334 . S
C1280 H1251 0.950 . S
C1280 C1279 1.334 . S
C1280 C1281 1.287 . S
C1281 C1280 1.287 . S
C1281 C1282 1.524 . S
C1281 H1284 0.999 . S
C1282 H1252 0.950 . S
C1282 C1281 1.524 . S
C1282 C1283 1.415 . S
C1283 H1253 0.950 . S
C1283 C1278 1.363 . S
C1283 C1282 1.415 . S
H1284 C1281 0.999 . S
H1285 C1266 0.913 . S
H1286 C1304 0.951 . S
H1287 C1306 0.951 . S
H1288 C1308 0.950 . S
H1289 C1309 0.950 . S
H1290 C1311 0.950 . S
H1291 C1314 0.950 . S
H1292 C1315 0.950 . S
H1293 C1317 0.950 . S
H1294 C1318 0.950 . S
H1295 C1319 0.951 . S
H1296 C1321 0.951 . S
H1297 C1323 0.950 . S
H1298 C1324 0.950 . S
H1299 C1326 0.950 . S
H1300 C1329 0.950 . S
H1301 C1330 0.950 . S
H1302 C1332 0.950 . S
H1303 C1333 0.950 . S
C1304 H1286 0.951 . S
C1304 C1305 1.366 . S
C1304 C1306 1.388 . S
C1305 C1304 1.366 . S
C1305 C1309 1.385 . S
C1306 H1287 0.951 . S
C1306 C1304 1.388 . S
C1306 C1307 1.366 . S
C1307 C1306 1.366 . S
C1307 C1308 1.414 . S
C1307 C1310 1.499 . S
C1308 H1288 0.950 . S
C1308 C1307 1.414 . S
C1308 C1309 1.374 . S
C1309 H1289 0.950 . S
C1309 C1305 1.385 . S
C1309 C1308 1.374 . S
C1310 C1307 1.499 . S
C1310 C1311 1.373 . S
C1310 C1312 1.389 . S
C1311 H1290 0.950 . S
C1311 C1310 1.373 . S
C1311 C1327 1.377 . S
C1312 C1310 1.389 . S
C1312 C1313 1.524 . S
C1312 C1326 1.377 . S
C1313 C1312 1.524 . S
C1313 C1314 1.397 . S
C1313 C1318 1.363 . S
C1314 H1291 0.950 . S
C1314 C1313 1.397 . S
C1314 C1315 1.334 . S
C1315 H1292 0.950 . S
C1315 C1314 1.334 . S
C1315 C1316 1.287 1_556 S
C1316 C1315 1.287 1_554 S
C1316 C1317 1.524 . S
C1316 H1335 0.913 . S
C1317 H1293 0.950 . S
C1317 C1316 1.524 . S
C1317 C1318 1.415 1_554 S
C1318 H1294 0.950 . S
C1318 C1313 1.363 . S
C1318 C1317 1.415 1_556 S
C1319 H1295 0.951 . S
C1319 C1320 1.366 . S
C1319 C1321 1.388 . S
C1320 C1319 1.366 . S
C1320 C1324 1.385 . S
C1321 H1296 0.951 . S
C1321 C1319 1.388 . S
C1321 C1322 1.366 . S
C1322 C1321 1.366 . S
C1322 C1323 1.414 . S
C1322 C1325 1.499 . S
C1323 H1297 0.950 . S
C1323 C1322 1.414 . S
C1323 C1324 1.374 . S
C1324 H1298 0.950 . S
C1324 C1320 1.385 . S
C1324 C1323 1.374 . S
C1325 C1322 1.499 . S
C1325 C1326 1.373 . S
C1325 C1327 1.389 . S
C1326 H1299 0.950 . S
C1326 C1312 1.377 . S
C1326 C1325 1.373 . S
C1327 C1311 1.377 . S
C1327 C1325 1.389 . S
C1327 C1328 1.524 . S
C1328 C1327 1.524 . S
C1328 C1329 1.397 . S
C1328 C1333 1.363 . S
C1329 H1300 0.950 . S
C1329 C1328 1.397 . S
C1329 C1330 1.334 . S
C1330 H1301 0.950 . S
C1330 C1329 1.334 . S
C1330 C1331 1.287 . S
C1331 C1330 1.287 . S
C1331 C1332 1.524 . S
C1331 H1334 0.999 . S
C1332 H1302 0.950 . S
C1332 C1331 1.524 . S
C1332 C1333 1.415 . S
C1333 H1303 0.950 . S
C1333 C1328 1.363 . S
C1333 C1332 1.415 . S
H1334 C1331 0.999 . S
H1335 C1316 0.913 . S
H1336 C1354 0.951 . S
H1337 C1356 0.951 . S
H1338 C1358 0.950 . S
H1339 C1359 0.950 . S
H1340 C1361 0.950 . S
H1341 C1364 0.950 . S
H1342 C1365 0.950 . S
H1343 C1367 0.950 . S
H1344 C1368 0.950 . S
H1345 C1369 0.951 . S
H1346 C1371 0.951 . S
H1347 C1373 0.950 1_554 S
H1348 C1374 0.892 1_554 S
H1349 C1376 0.909 1_554 S
H1350 C1379 0.950 . S
H1351 C1380 0.950 . S
H1352 C1382 0.950 . S
H1353 C1383 0.950 . S
C1354 H1336 0.951 . S
C1354 C1355 1.366 . S
C1354 C1356 1.388 . S
C1355 C1354 1.366 . S
C1355 C1359 1.385 . S
C1356 H1337 0.951 . S
C1356 C1354 1.388 . S
C1356 C1357 1.366 . S
C1357 C1356 1.366 . S
C1357 C1358 1.414 . S
C1357 C1360 1.499 . S
C1358 H1338 0.950 . S
C1358 C1357 1.414 . S
C1358 C1359 1.374 . S
C1359 H1339 0.950 . S
C1359 C1355 1.385 . S
C1359 C1358 1.374 . S
C1360 C1357 1.499 . S
C1360 C1361 1.373 . S
C1360 C1362 1.389 . S
C1361 H1340 0.950 . S
C1361 C1360 1.373 . S
C1361 C1377 1.377 . S
C1362 C1360 1.389 . S
C1362 C1363 1.523 1_556 S
C1362 C1376 1.377 . S
C1363 C1362 1.523 1_554 S
C1363 C1364 1.397 1_554 S
C1363 C1368 1.364 . S
C1364 H1341 0.950 . S
C1364 C1363 1.397 1_556 S
C1364 C1365 1.334 1_556 S
C1365 H1342 0.950 . S
C1365 C1364 1.334 1_554 S
C1365 C1366 1.287 . S
C1366 C1365 1.287 . S
C1366 C1367 1.524 . S
C1366 H1385 0.913 . S
C1367 H1343 0.950 . S
C1367 C1366 1.524 . S
C1367 C1368 1.415 . S
C1368 H1344 0.950 . S
C1368 C1363 1.364 . S
C1368 C1367 1.415 . S
C1369 H1345 0.951 . S
C1369 C1370 1.366 . S
C1369 C1371 1.388 . S
C1370 C1369 1.366 . S
C1370 C1374 1.436 . S
C1371 H1346 0.951 . S
C1371 C1369 1.388 . S
C1371 C1372 1.366 . S
C1372 C1371 1.366 . S
C1372 C1373 1.414 . S
C1372 C1375 1.499 . S
C1373 H1347 0.950 1_556 S
C1373 C1372 1.414 . S
C1373 C1374 1.387 . S
C1374 H1348 0.892 1_556 S
C1374 C1370 1.436 . S
C1374 C1373 1.387 . S
C1375 C1372 1.499 . S
C1375 C1376 1.373 . S
C1375 C1377 1.389 . S
C1376 H1349 0.909 1_556 S
C1376 C1362 1.377 . S
C1376 C1375 1.373 . S
C1377 C1361 1.377 . S
C1377 C1375 1.389 . S
C1377 C1378 1.524 . S
C1378 C1377 1.524 . S
C1378 C1379 1.397 . S
C1378 C1383 1.363 . S
C1379 H1350 0.950 . S
C1379 C1378 1.397 . S
C1379 C1380 1.334 . S
C1380 H1351 0.950 . S
C1380 C1379 1.334 . S
C1380 C1381 1.287 . S
C1381 C1380 1.287 . S
C1381 C1382 1.524 . S
C1381 H1384 0.999 . S
C1382 H1352 0.950 . S
C1382 C1381 1.524 . S
C1382 C1383 1.415 . S
C1383 H1353 0.950 . S
C1383 C1378 1.363 . S
C1383 C1382 1.415 . S
H1384 C1381 0.999 . S
H1385 C1366 0.913 . S
H1386 C1404 0.951 . S
H1387 C1406 0.951 . S
H1388 C1408 0.950 . S
H1389 C1409 0.950 . S
H1390 C1411 0.950 . S
H1391 C1414 0.950 . S
H1392 C1415 0.950 . S
H1393 C1417 0.950 . S
H1394 C1418 0.950 . S
H1395 C1419 0.951 . S
H1396 C1421 0.951 . S
H1397 C1423 0.950 . S
H1398 C1424 0.950 . S
H1399 C1426 0.950 . S
H1400 C1429 0.950 . S
H1401 C1430 0.947 1_556 S
H1402 C1432 0.950 . S
H1403 C1433 0.950 . S
C1404 H1386 0.951 . S
C1404 C1405 1.366 . S
C1404 C1406 1.388 . S
C1405 C1404 1.366 . S
C1405 C1409 1.385 . S
C1406 H1387 0.951 . S
C1406 C1404 1.388 . S
C1406 C1407 1.366 . S
C1407 C1406 1.366 . S
C1407 C1408 1.414 . S
C1407 C1410 1.499 . S
C1408 H1388 0.950 . S
C1408 C1407 1.414 . S
C1408 C1409 1.374 . S
C1409 H1389 0.950 . S
C1409 C1405 1.385 . S
C1409 C1408 1.374 . S
C1410 C1407 1.499 . S
C1410 C1411 1.373 . S
C1410 C1412 1.389 . S
C1411 H1390 0.950 . S
C1411 C1410 1.373 . S
C1411 C1427 1.377 . S
C1412 C1410 1.389 . S
C1412 C1413 1.524 . S
C1412 C1426 1.377 . S
C1413 C1412 1.524 . S
C1413 C1414 1.397 . S
C1413 C1418 1.363 . S
C1414 H1391 0.950 . S
C1414 C1413 1.397 . S
C1414 C1415 1.334 . S
C1415 H1392 0.950 . S
C1415 C1414 1.334 . S
C1415 C1416 1.287 . S
C1416 C1415 1.287 . S
C1416 C1417 1.524 . S
C1416 H1435 0.913 . S
C1417 H1393 0.950 . S
C1417 C1416 1.524 . S
C1417 C1418 1.415 . S
C1418 H1394 0.950 . S
C1418 C1413 1.363 . S
C1418 C1417 1.415 . S
C1419 H1395 0.951 . S
C1419 C1420 1.366 . S
C1419 C1421 1.388 . S
C1420 C1419 1.366 . S
C1420 C1424 1.385 . S
C1421 H1396 0.951 . S
C1421 C1419 1.388 . S
C1421 C1422 1.366 . S
C1422 C1421 1.366 . S
C1422 C1423 1.414 . S
C1422 C1425 1.499 . S
C1423 H1397 0.950 . S
C1423 C1422 1.414 . S
C1423 C1424 1.374 . S
C1424 H1398 0.950 . S
C1424 C1420 1.385 . S
C1424 C1423 1.374 . S
C1425 C1422 1.499 . S
C1425 C1426 1.373 . S
C1425 C1427 1.389 . S
C1426 H1399 0.950 . S
C1426 C1412 1.377 . S
C1426 C1425 1.373 . S
C1427 C1411 1.377 . S
C1427 C1425 1.389 . S
C1427 C1428 1.524 . S
C1428 C1427 1.524 . S
C1428 C1429 1.397 . S
C1428 C1433 1.363 . S
C1429 H1400 0.950 . S
C1429 C1428 1.397 . S
C1429 C1430 1.336 . S
C1430 H1401 0.947 1_554 S
C1430 C1429 1.336 . S
C1430 C1431 1.288 . S
C1431 C1430 1.288 . S
C1431 C1432 1.524 . S
C1431 H1434 0.999 . S
C1432 H1402 0.950 . S
C1432 C1431 1.524 . S
C1432 C1433 1.415 . S
C1433 H1403 0.950 . S
C1433 C1428 1.363 . S
C1433 C1432 1.415 . S
H1434 C1431 0.999 . S
H1435 C1416 0.913 . S
H1436 C1454 0.951 . S
H1437 C1456 0.951 . S
H1438 C1458 0.950 . S
H1439 C1459 0.950 . S
H1440 C1461 0.950 . S
H1441 C1464 0.950 . S
H1442 C1465 0.950 . S
H1443 C1467 0.950 . S
H1444 C1468 0.950 . S
H1445 C1469 0.951 . S
H1446 C1471 0.951 . S
H1447 C1473 0.950 . S
H1448 C1474 0.950 . S
H1449 C1476 0.950 . S
H1450 C1479 0.950 . S
H1451 C1480 0.950 . S
H1452 C1482 0.950 . S
H1453 C1483 0.950 . S
C1454 H1436 0.951 . S
C1454 C1455 1.366 . S
C1454 C1456 1.388 . S
C1455 C1454 1.366 . S
C1455 C1459 1.385 . S
C1456 H1437 0.951 . S
C1456 C1454 1.388 . S
C1456 C1457 1.366 . S
C1457 C1456 1.366 . S
C1457 C1458 1.414 . S
C1457 C1460 1.499 . S
C1458 H1438 0.950 . S
C1458 C1457 1.414 . S
C1458 C1459 1.374 . S
C1459 H1439 0.950 . S
C1459 C1455 1.385 . S
C1459 C1458 1.374 . S
C1460 C1457 1.499 . S
C1460 C1461 1.373 . S
C1460 C1462 1.389 . S
C1461 H1440 0.950 . S
C1461 C1460 1.373 . S
C1461 C1477 1.377 . S
C1462 C1460 1.389 . S
C1462 C1463 1.524 . S
C1462 C1476 1.377 . S
C1463 C1462 1.524 . S
C1463 C1464 1.397 . S
C1463 C1468 1.363 . S
C1464 H1441 0.950 . S
C1464 C1463 1.397 . S
C1464 C1465 1.334 . S
C1465 H1442 0.950 . S
C1465 C1464 1.334 . S
C1465 C1466 1.287 . S
C1466 C1465 1.287 . S
C1466 C1467 1.524 . S
C1466 H1485 0.913 . S
C1467 H1443 0.950 . S
C1467 C1466 1.524 . S
C1467 C1468 1.415 . S
C1468 H1444 0.950 . S
C1468 C1463 1.363 . S
C1468 C1467 1.415 . S
C1469 H1445 0.951 . S
C1469 C1470 1.366 . S
C1469 C1471 1.388 . S
C1470 C1469 1.366 . S
C1470 C1474 1.385 . S
C1471 H1446 0.951 . S
C1471 C1469 1.388 . S
C1471 C1472 1.366 . S
C1472 C1471 1.366 . S
C1472 C1473 1.414 . S
C1472 C1475 1.499 . S
C1473 H1447 0.950 . S
C1473 C1472 1.414 . S
C1473 C1474 1.374 . S
C1474 H1448 0.950 . S
C1474 C1470 1.385 . S
C1474 C1473 1.374 . S
C1475 C1472 1.499 . S
C1475 C1476 1.373 . S
C1475 C1477 1.389 . S
C1476 H1449 0.950 . S
C1476 C1462 1.377 . S
C1476 C1475 1.373 . S
C1477 C1461 1.377 . S
C1477 C1475 1.389 . S
C1477 C1478 1.524 . S
C1478 C1477 1.524 . S
C1478 C1479 1.397 . S
C1478 C1483 1.363 . S
C1479 H1450 0.950 . S
C1479 C1478 1.397 . S
C1479 C1480 1.334 1_554 S
C1480 H1451 0.950 . S
C1480 C1479 1.334 1_556 S
C1480 C1481 1.287 . S
C1481 C1480 1.287 . S
C1481 C1482 1.524 . S
C1481 H1484 0.999 . S
C1482 H1452 0.950 . S
C1482 C1481 1.524 . S
C1482 C1483 1.415 1_556 S
C1483 H1453 0.950 . S
C1483 C1478 1.363 . S
C1483 C1482 1.415 1_554 S
H1484 C1481 0.999 . S
H1485 C1466 0.913 . S
H1486 C1504 0.951 . S
H1487 C1506 0.951 . S
H1488 C1508 0.950 . S
H1489 C1509 0.950 . S
H1490 C1511 0.950 . S
H1491 C1514 0.950 . S
H1492 C1515 0.950 . S
H1493 C1517 0.950 . S
H1494 C1518 0.950 . S
H1495 C1519 0.951 1_556 S
H1496 C1521 0.951 . S
H1497 C1523 0.950 . S
H1498 C1524 0.950 . S
H1499 C1526 0.950 . S
H1500 C1529 0.950 . S
H1501 C1530 0.930 1_545 S
H1502 C1532 0.951 . S
H1503 C1533 0.950 . S
C1504 H1486 0.951 . S
C1504 C1505 1.366 . S
C1504 C1506 1.388 . S
C1505 C1504 1.366 . S
C1505 C1509 1.385 . S
C1506 H1487 0.951 . S
C1506 C1504 1.388 . S
C1506 C1507 1.366 . S
C1507 C1506 1.366 . S
C1507 C1508 1.414 . S
C1507 C1510 1.499 . S
C1508 H1488 0.950 . S
C1508 C1507 1.414 . S
C1508 C1509 1.374 . S
C1509 H1489 0.950 . S
C1509 C1505 1.385 . S
C1509 C1508 1.374 . S
C1510 C1507 1.499 . S
C1510 C1511 1.373 . S
C1510 C1512 1.389 . S
C1511 H1490 0.950 . S
C1511 C1510 1.373 . S
C1511 C1527 1.377 . S
C1512 C1510 1.389 . S
C1512 C1513 1.524 . S
C1512 C1526 1.377 . S
C1513 C1512 1.524 . S
C1513 C1514 1.397 . S
C1513 C1518 1.363 . S
C1514 H1491 0.950 . S
C1514 C1513 1.397 . S
C1514 C1515 1.334 . S
C1515 H1492 0.950 . S
C1515 C1514 1.334 . S
C1515 C1516 1.287 . S
C1516 C1515 1.287 . S
C1516 C1517 1.524 . S
C1516 H1535 0.913 . S
C1517 H1493 0.950 . S
C1517 C1516 1.524 . S
C1517 C1518 1.415 . S
C1518 H1494 0.950 . S
C1518 C1513 1.363 . S
C1518 C1517 1.415 . S
C1519 H1495 0.951 1_554 S
C1519 C1520 1.366 . S
C1519 C1521 1.388 . S
C1520 C1519 1.366 . S
C1520 C1524 1.385 . S
C1521 H1496 0.951 . S
C1521 C1519 1.388 . S
C1521 C1522 1.366 . S
C1522 C1521 1.366 . S
C1522 C1523 1.414 . S
C1522 C1525 1.499 . S
C1523 H1497 0.950 . S
C1523 C1522 1.414 . S
C1523 C1524 1.374 . S
C1524 H1498 0.950 . S
C1524 C1520 1.385 . S
C1524 C1523 1.374 . S
C1525 C1522 1.499 . S
C1525 C1526 1.373 . S
C1525 C1527 1.389 . S
C1526 H1499 0.950 . S
C1526 C1512 1.377 . S
C1526 C1525 1.373 . S
C1527 C1511 1.377 . S
C1527 C1525 1.389 . S
C1527 C1528 1.524 . S
C1528 C1527 1.524 . S
C1528 C1529 1.397 . S
C1528 C1533 1.363 . S
C1529 H1500 0.950 . S
C1529 C1528 1.397 . S
C1529 C1530 1.358 . S
C1530 H1501 0.930 1_565 S
C1530 C1529 1.358 . S
C1530 C1531 1.284 1_565 S
C1531 C1530 1.284 1_545 S
C1531 C1532 1.531 . S
C1531 H1534 0.999 . S
C1532 H1502 0.951 . S
C1532 C1531 1.531 . S
C1532 C1533 1.406 1_545 S
C1533 H1503 0.950 . S
C1533 C1528 1.363 . S
C1533 C1532 1.406 1_565 S
H1534 C1531 0.999 . S
H1535 C1516 0.913 . S
H1536 C1554 0.951 . S
H1537 C1556 0.951 . S
H1538 C1558 0.950 . S
H1539 C1559 0.950 . S
H1540 C1561 0.950 . S
H1541 C1564 0.950 . S
H1542 C1565 0.950 . S
H1543 C1567 0.950 . S
H1544 C1568 0.950 . S
H1545 C1569 0.951 . S
H1546 C1571 0.951 . S
H1547 C1573 0.950 . S
H1548 C1574 0.950 . S
H1549 C1576 0.950 . S
H1550 C1579 0.950 . S
H1551 C1580 0.950 . S
H1552 C1582 0.950 . S
H1553 C1583 0.950 . S
C1554 H1536 0.951 . S
C1554 C1555 1.366 . S
C1554 C1556 1.388 . S
C1555 C1554 1.366 . S
C1555 C1559 1.385 . S
C1556 H1537 0.951 . S
C1556 C1554 1.388 . S
C1556 C1557 1.366 . S
C1557 C1556 1.366 . S
C1557 C1558 1.414 . S
C1557 C1560 1.499 1_655 S
C1558 H1538 0.950 . S
C1558 C1557 1.414 . S
C1558 C1559 1.374 . S
C1559 H1539 0.950 . S
C1559 C1555 1.385 . S
C1559 C1558 1.374 . S
C1560 C1557 1.499 1_455 S
C1560 C1561 1.373 . S
C1560 C1562 1.389 . S
C1561 H1540 0.950 . S
C1561 C1560 1.373 . S
C1561 C1577 1.377 . S
C1562 C1560 1.389 . S
C1562 C1563 1.524 . S
C1562 C1576 1.377 . S
C1563 C1562 1.524 . S
C1563 C1564 1.397 1_455 S
C1563 C1568 1.363 . S
C1564 H1541 0.950 . S
C1564 C1563 1.397 1_655 S
C1564 C1565 1.334 . S
C1565 H1542 0.950 . S
C1565 C1564 1.334 . S
C1565 C1566 1.287 . S
C1566 C1565 1.287 . S
C1566 C1567 1.524 1_655 S
C1566 H1585 0.913 . S
C1567 H1543 0.950 . S
C1567 C1566 1.524 1_455 S
C1567 C1568 1.415 . S
C1568 H1544 0.950 . S
C1568 C1563 1.363 . S
C1568 C1567 1.415 . S
C1569 H1545 0.951 . S
C1569 C1570 1.366 . S
C1569 C1571 1.388 . S
C1570 C1569 1.366 . S
C1570 C1574 1.385 . S
C1571 H1546 0.951 . S
C1571 C1569 1.388 . S
C1571 C1572 1.366 . S
C1572 C1571 1.366 . S
C1572 C1573 1.414 . S
C1572 C1575 1.499 . S
C1573 H1547 0.950 . S
C1573 C1572 1.414 . S
C1573 C1574 1.374 . S
C1574 H1548 0.950 . S
C1574 C1570 1.385 . S
C1574 C1573 1.374 . S
C1575 C1572 1.499 . S
C1575 C1576 1.373 . S
C1575 C1577 1.389 . S
C1576 H1549 0.950 . S
C1576 C1562 1.377 . S
C1576 C1575 1.373 . S
C1577 C1561 1.377 . S
C1577 C1575 1.389 . S
C1577 C1578 1.524 . S
C1578 C1577 1.524 . S
C1578 C1579 1.397 . S
C1578 C1583 1.363 . S
C1579 H1550 0.950 . S
C1579 C1578 1.397 . S
C1579 C1580 1.334 . S
C1580 H1551 0.950 . S
C1580 C1579 1.334 . S
C1580 C1581 1.287 . S
C1581 C1580 1.287 . S
C1581 C1582 1.524 . S
C1581 H1584 0.999 . S
C1582 H1552 0.950 . S
C1582 C1581 1.524 . S
C1582 C1583 1.415 . S
C1583 H1553 0.950 . S
C1583 C1578 1.363 . S
C1583 C1582 1.415 . S
H1584 C1581 0.999 . S
H1585 C1566 0.913 . S
H1586 C1604 0.951 . S
H1587 C1606 0.951 . S
H1588 C1608 0.950 . S
H1589 C1609 0.950 . S
H1590 C1611 0.950 . S
H1591 C1614 0.950 . S
H1592 C1615 0.950 . S
H1593 C1617 0.950 . S
H1594 C1618 0.950 . S
H1595 C1619 0.951 . S
H1596 C1621 0.951 . S
H1597 C1623 0.950 . S
H1598 C1624 0.950 . S
H1599 C1626 0.950 . S
H1600 C1629 0.950 . S
H1601 C1630 0.950 . S
H1602 C1632 0.950 . S
H1603 C1633 0.950 . S
C1604 H1586 0.951 . S
C1604 C1605 1.366 . S
C1604 C1606 1.388 . S
C1605 C1604 1.366 . S
C1605 C1609 1.385 . S
C1606 H1587 0.951 . S
C1606 C1604 1.388 . S
C1606 C1607 1.366 . S
C1607 C1606 1.366 . S
C1607 C1608 1.414 . S
C1607 C1610 1.499 . S
C1608 H1588 0.950 . S
C1608 C1607 1.414 . S
C1608 C1609 1.374 . S
C1609 H1589 0.950 . S
C1609 C1605 1.385 . S
C1609 C1608 1.374 . S
C1610 C1607 1.499 . S
C1610 C1611 1.373 . S
C1610 C1612 1.389 . S
C1611 H1590 0.950 . S
C1611 C1610 1.373 . S
C1611 C1627 1.377 . S
C1612 C1610 1.389 . S
C1612 C1613 1.524 . S
C1612 C1626 1.377 . S
C1613 C1612 1.524 . S
C1613 C1614 1.397 . S
C1613 C1618 1.363 . S
C1614 H1591 0.950 . S
C1614 C1613 1.397 . S
C1614 C1615 1.334 . S
C1615 H1592 0.950 . S
C1615 C1614 1.334 . S
C1615 C1616 1.287 . S
C1616 C1615 1.287 . S
C1616 C1617 1.524 . S
C1616 H1635 0.913 . S
C1617 H1593 0.950 . S
C1617 C1616 1.524 . S
C1617 C1618 1.415 . S
C1618 H1594 0.950 . S
C1618 C1613 1.363 . S
C1618 C1617 1.415 . S
C1619 H1595 0.951 . S
C1619 C1620 1.366 . S
C1619 C1621 1.388 . S
C1620 C1619 1.366 . S
C1620 C1624 1.385 . S
C1621 H1596 0.951 . S
C1621 C1619 1.388 . S
C1621 C1622 1.366 . S
C1622 C1621 1.366 . S
C1622 C1623 1.414 . S
C1622 C1625 1.499 . S
C1623 H1597 0.950 . S
C1623 C1622 1.414 . S
C1623 C1624 1.374 . S
C1624 H1598 0.950 . S
C1624 C1620 1.385 . S
C1624 C1623 1.374 . S
C1625 C1622 1.499 . S
C1625 C1626 1.373 . S
C1625 C1627 1.389 . S
C1626 H1599 0.950 . S
C1626 C1612 1.377 . S
C1626 C1625 1.373 . S
C1627 C1611 1.377 . S
C1627 C1625 1.389 . S
C1627 C1628 1.524 . S
C1628 C1627 1.524 . S
C1628 C1629 1.397 . S
C1628 C1633 1.363 . S
C1629 H1600 0.950 . S
C1629 C1628 1.397 . S
C1629 C1630 1.334 . S
C1630 H1601 0.950 . S
C1630 C1629 1.334 . S
C1630 C1631 1.287 . S
C1631 C1630 1.287 . S
C1631 C1632 1.524 . S
C1631 H1634 0.999 . S
C1632 H1602 0.950 . S
C1632 C1631 1.524 . S
C1632 C1633 1.415 . S
C1633 H1603 0.950 . S
C1633 C1628 1.363 . S
C1633 C1632 1.415 . S
H1634 C1631 0.999 . S
H1635 C1616 0.913 . S
H1636 C1654 0.951 . S
H1637 C1656 0.951 . S
H1638 C1658 0.950 . S
H1639 C1659 0.950 . S
H1640 C1661 0.950 . S
H1641 C1664 0.950 . S
H1642 C1665 0.950 . S
H1643 C1667 0.948 . S
H1644 C1668 0.950 . S
H1645 C1669 0.951 . S
H1646 C1671 0.951 . S
H1647 C1673 0.950 . S
H1648 C1674 0.950 . S
H1649 C1676 0.950 . S
H1650 C1679 0.950 . S
H1651 C1680 0.950 . S
H1652 C1682 0.950 . S
H1653 C1683 0.950 . S
C1654 H1636 0.951 . S
C1654 C1655 1.366 . S
C1654 C1656 1.388 . S
C1655 C1654 1.366 . S
C1655 C1659 1.385 . S
C1656 H1637 0.951 . S
C1656 C1654 1.388 . S
C1656 C1657 1.366 . S
C1657 C1656 1.366 . S
C1657 C1658 1.414 . S
C1657 C1660 1.499 . S
C1658 H1638 0.950 . S
C1658 C1657 1.414 . S
C1658 C1659 1.374 . S
C1659 H1639 0.950 . S
C1659 C1655 1.385 . S
C1659 C1658 1.374 . S
C1660 C1657 1.499 . S
C1660 C1661 1.373 . S
C1660 C1662 1.389 1_545 S
C1661 H1640 0.950 . S
C1661 C1660 1.373 . S
C1661 C1677 1.377 1_545 S
C1662 C1660 1.389 1_565 S
C1662 C1663 1.524 1_565 S
C1662 C1676 1.377 . S
C1663 C1662 1.524 1_545 S
C1663 C1664 1.397 . S
C1663 C1668 1.363 1_545 S
C1664 H1641 0.950 . S
C1664 C1663 1.397 . S
C1664 C1665 1.334 . S
C1665 H1642 0.950 . S
C1665 C1664 1.334 . S
C1665 C1666 1.287 . S
C1666 C1665 1.287 . S
C1666 C1667 1.523 1_545 S
C1666 H1685 0.913 . S
C1667 H1643 0.948 . S
C1667 C1666 1.523 1_565 S
C1667 C1668 1.419 . S
C1668 H1644 0.950 . S
C1668 C1663 1.363 1_565 S
C1668 C1667 1.419 . S
C1669 H1645 0.951 . S
C1669 C1670 1.366 . S
C1669 C1671 1.388 . S
C1670 C1669 1.366 . S
C1670 C1674 1.385 . S
C1671 H1646 0.951 . S
C1671 C1669 1.388 . S
C1671 C1672 1.366 . S
C1672 C1671 1.366 . S
C1672 C1673 1.414 . S
C1672 C1675 1.499 . S
C1673 H1647 0.950 . S
C1673 C1672 1.414 . S
C1673 C1674 1.374 . S
C1674 H1648 0.950 . S
C1674 C1670 1.385 . S
C1674 C1673 1.374 . S
C1675 C1672 1.499 . S
C1675 C1676 1.373 . S
C1675 C1677 1.389 . S
C1676 H1649 0.950 . S
C1676 C1662 1.377 . S
C1676 C1675 1.373 . S
C1677 C1661 1.377 1_565 S
C1677 C1675 1.389 . S
C1677 C1678 1.524 . S
C1678 C1677 1.524 . S
C1678 C1679 1.397 . S
C1678 C1683 1.363 . S
C1679 H1650 0.950 . S
C1679 C1678 1.397 . S
C1679 C1680 1.334 . S
C1680 H1651 0.950 . S
C1680 C1679 1.334 . S
C1680 C1681 1.287 . S
C1681 C1680 1.287 . S
C1681 C1682 1.524 . S
C1681 H1684 0.999 . S
C1682 H1652 0.950 . S
C1682 C1681 1.524 . S
C1682 C1683 1.415 . S
C1683 H1653 0.950 . S
C1683 C1678 1.363 . S
C1683 C1682 1.415 . S
H1684 C1681 0.999 . S
H1685 C1666 0.913 . S
H1686 C1704 0.951 . S
H1687 C1706 0.951 . S
H1688 C1708 0.950 . S
H1689 C1709 0.950 . S
H1690 C1711 0.950 . S
H1691 C1714 0.950 . S
H1692 C1715 0.950 . S
H1693 C1717 0.950 . S
H1694 C1718 0.950 . S
H1695 C1719 0.951 . S
H1696 C1721 0.951 . S
H1697 C1723 0.950 . S
H1698 C1724 0.950 . S
H1699 C1726 0.950 . S
H1700 C1729 0.950 . S
H1701 C1730 0.950 . S
H1702 C1732 0.950 . S
H1703 C1733 0.950 . S
C1704 H1686 0.951 . S
C1704 C1705 1.366 . S
C1704 C1706 1.388 . S
C1705 C1704 1.366 . S
C1705 C1709 1.385 . S
C1706 H1687 0.951 . S
C1706 C1704 1.388 . S
C1706 C1707 1.366 . S
C1707 C1706 1.366 . S
C1707 C1708 1.414 . S
C1707 C1710 1.499 . S
C1708 H1688 0.950 . S
C1708 C1707 1.414 . S
C1708 C1709 1.374 . S
C1709 H1689 0.950 . S
C1709 C1705 1.385 . S
C1709 C1708 1.374 . S
C1710 C1707 1.499 . S
C1710 C1711 1.373 . S
C1710 C1712 1.389 . S
C1711 H1690 0.950 . S
C1711 C1710 1.373 . S
C1711 C1727 1.377 . S
C1712 C1710 1.389 . S
C1712 C1713 1.524 . S
C1712 C1726 1.377 . S
C1713 C1712 1.524 . S
C1713 C1714 1.397 . S
C1713 C1718 1.363 . S
C1714 H1691 0.950 . S
C1714 C1713 1.397 . S
C1714 C1715 1.334 . S
C1715 H1692 0.950 . S
C1715 C1714 1.334 . S
C1715 C1716 1.287 . S
C1716 C1715 1.287 . S
C1716 C1717 1.524 . S
C1716 H1735 0.913 . S
C1717 H1693 0.950 . S
C1717 C1716 1.524 . S
C1717 C1718 1.415 . S
C1718 H1694 0.950 . S
C1718 C1713 1.363 . S
C1718 C1717 1.415 . S
C1719 H1695 0.951 . S
C1719 C1720 1.366 . S
C1719 C1721 1.388 . S
C1720 C1719 1.366 . S
C1720 C1724 1.385 . S
C1721 H1696 0.951 . S
C1721 C1719 1.388 . S
C1721 C1722 1.366 . S
C1722 C1721 1.366 . S
C1722 C1723 1.414 . S
C1722 C1725 1.499 . S
C1723 H1697 0.950 . S
C1723 C1722 1.414 . S
C1723 C1724 1.374 . S
C1724 H1698 0.950 . S
C1724 C1720 1.385 . S
C1724 C1723 1.374 . S
C1725 C1722 1.499 . S
C1725 C1726 1.373 . S
C1725 C1727 1.389 . S
C1726 H1699 0.950 . S
C1726 C1712 1.377 . S
C1726 C1725 1.373 . S
C1727 C1711 1.377 . S
C1727 C1725 1.389 . S
C1727 C1728 1.524 . S
C1728 C1727 1.524 . S
C1728 C1729 1.397 . S
C1728 C1733 1.363 . S
C1729 H1700 0.950 . S
C1729 C1728 1.397 . S
C1729 C1730 1.334 . S
C1730 H1701 0.950 . S
C1730 C1729 1.334 . S
C1730 C1731 1.287 . S
C1731 C1730 1.287 . S
C1731 C1732 1.524 . S
C1731 H1734 0.999 . S
C1732 H1702 0.950 . S
C1732 C1731 1.524 . S
C1732 C1733 1.415 . S
C1733 H1703 0.950 . S
C1733 C1728 1.363 . S
C1733 C1732 1.415 . S
H1734 C1731 0.999 . S
H1735 C1716 0.913 . S
H1736 C1754 0.951 . S
H1737 C1756 0.951 . S
H1738 C1758 0.950 . S
H1739 C1759 0.950 . S
H1740 C1761 0.950 . S
H1741 C1764 0.950 . S
H1742 C1765 0.950 . S
H1743 C1767 0.950 . S
H1744 C1768 0.950 . S
H1745 C1769 0.951 . S
H1746 C1771 0.951 . S
H1747 C1773 0.950 . S
H1748 C1774 0.950 . S
H1749 C1776 0.950 . S
H1750 C1779 0.950 . S
H1751 C1780 0.950 . S
H1752 C1782 0.950 . S
H1753 C1783 0.950 . S
C1754 H1736 0.951 . S
C1754 C1755 1.366 . S
C1754 C1756 1.388 . S
C1755 C1754 1.366 . S
C1755 C1759 1.385 . S
C1756 H1737 0.951 . S
C1756 C1754 1.388 . S
C1756 C1757 1.366 . S
C1757 C1756 1.366 . S
C1757 C1758 1.414 . S
C1757 C1760 1.499 . S
C1758 H1738 0.950 . S
C1758 C1757 1.414 . S
C1758 C1759 1.374 . S
C1759 H1739 0.950 . S
C1759 C1755 1.385 . S
C1759 C1758 1.374 . S
C1760 C1757 1.499 . S
C1760 C1761 1.373 . S
C1760 C1762 1.389 . S
C1761 H1740 0.950 . S
C1761 C1760 1.373 . S
C1761 C1777 1.377 . S
C1762 C1760 1.389 . S
C1762 C1763 1.524 . S
C1762 C1776 1.377 . S
C1763 C1762 1.524 . S
C1763 C1764 1.397 . S
C1763 C1768 1.363 . S
C1764 H1741 0.950 . S
C1764 C1763 1.397 . S
C1764 C1765 1.334 . S
C1765 H1742 0.950 . S
C1765 C1764 1.334 . S
C1765 C1766 1.287 . S
C1766 C1765 1.287 . S
C1766 C1767 1.524 . S
C1766 H1785 0.913 . S
C1767 H1743 0.950 . S
C1767 C1766 1.524 . S
C1767 C1768 1.415 . S
C1768 H1744 0.950 . S
C1768 C1763 1.363 . S
C1768 C1767 1.415 . S
C1769 H1745 0.951 . S
C1769 C1770 1.366 . S
C1769 C1771 1.388 . S
C1770 C1769 1.366 . S
C1770 C1774 1.385 . S
C1771 H1746 0.951 . S
C1771 C1769 1.388 . S
C1771 C1772 1.366 . S
C1772 C1771 1.366 . S
C1772 C1773 1.414 . S
C1772 C1775 1.499 . S
C1773 H1747 0.950 . S
C1773 C1772 1.414 . S
C1773 C1774 1.374 . S
C1774 H1748 0.950 . S
C1774 C1770 1.385 . S
C1774 C1773 1.374 . S
C1775 C1772 1.499 . S
C1775 C1776 1.373 . S
C1775 C1777 1.389 . S
C1776 H1749 0.950 . S
C1776 C1762 1.377 . S
C1776 C1775 1.373 . S
C1777 C1761 1.377 . S
C1777 C1775 1.389 . S
C1777 C1778 1.524 . S
C1778 C1777 1.524 . S
C1778 C1779 1.397 . S
C1778 C1783 1.363 . S
C1779 H1750 0.950 . S
C1779 C1778 1.397 . S
C1779 C1780 1.334 . S
C1780 H1751 0.950 . S
C1780 C1779 1.334 . S
C1780 C1781 1.287 . S
C1781 C1780 1.287 . S
C1781 C1782 1.524 . S
C1781 H1784 0.999 . S
C1782 H1752 0.950 . S
C1782 C1781 1.524 . S
C1782 C1783 1.415 . S
C1783 H1753 0.950 . S
C1783 C1778 1.363 . S
C1783 C1782 1.415 . S
H1784 C1781 0.999 . S
H1785 C1766 0.913 . S
H1786 C1804 0.951 . S
H1787 C1806 0.951 . S
H1788 C1808 0.950 . S
H1789 C1809 0.950 . S
H1790 C1811 0.950 . S
H1791 C1814 0.950 . S
H1792 C1815 0.950 . S
H1793 C1817 0.950 . S
H1794 C1818 0.950 . S
H1795 C1819 0.951 . S
H1796 C1821 0.951 . S
H1797 C1823 0.950 . S
H1798 C1824 0.950 . S
H1799 C1826 0.950 . S
H1800 C1829 0.950 . S
H1801 C1830 0.950 . S
H1802 C1832 0.950 . S
H1803 C1833 0.950 . S
C1804 H1786 0.951 . S
C1804 C1805 1.366 . S
C1804 C1806 1.388 . S
C1805 C1804 1.366 . S
C1805 C1809 1.385 . S
C1806 H1787 0.951 . S
C1806 C1804 1.388 . S
C1806 C1807 1.366 . S
C1807 C1806 1.366 . S
C1807 C1808 1.414 . S
C1807 C1810 1.499 . S
C1808 H1788 0.950 . S
C1808 C1807 1.414 . S
C1808 C1809 1.374 . S
C1809 H1789 0.950 . S
C1809 C1805 1.385 . S
C1809 C1808 1.374 . S
C1810 C1807 1.499 . S
C1810 C1811 1.373 . S
C1810 C1812 1.389 . S
C1811 H1790 0.950 . S
C1811 C1810 1.373 . S
C1811 C1827 1.377 . S
C1812 C1810 1.389 . S
C1812 C1813 1.524 . S
C1812 C1826 1.377 . S
C1813 C1812 1.524 . S
C1813 C1814 1.397 . S
C1813 C1818 1.363 . S
C1814 H1791 0.950 . S
C1814 C1813 1.397 . S
C1814 C1815 1.334 . S
C1815 H1792 0.950 . S
C1815 C1814 1.334 . S
C1815 C1816 1.287 . S
C1816 C1815 1.287 . S
C1816 C1817 1.524 . S
C1816 H1835 0.913 . S
C1817 H1793 0.950 . S
C1817 C1816 1.524 . S
C1817 C1818 1.415 . S
C1818 H1794 0.950 . S
C1818 C1813 1.363 . S
C1818 C1817 1.415 . S
C1819 H1795 0.951 . S
C1819 C1820 1.366 . S
C1819 C1821 1.388 . S
C1820 C1819 1.366 . S
C1820 C1824 1.385 . S
C1821 H1796 0.951 . S
C1821 C1819 1.388 . S
C1821 C1822 1.366 . S
C1822 C1821 1.366 . S
C1822 C1823 1.414 . S
C1822 C1825 1.499 . S
C1823 H1797 0.950 . S
C1823 C1822 1.414 . S
C1823 C1824 1.374 . S
C1824 H1798 0.950 . S
C1824 C1820 1.385 . S
C1824 C1823 1.374 . S
C1825 C1822 1.499 . S
C1825 C1826 1.373 . S
C1825 C1827 1.389 . S
C1826 H1799 0.950 . S
C1826 C1812 1.377 . S
C1826 C1825 1.373 . S
C1827 C1811 1.377 . S
C1827 C1825 1.389 . S
C1827 C1828 1.524 . S
C1828 C1827 1.524 . S
C1828 C1829 1.397 . S
C1828 C1833 1.363 . S
C1829 H1800 0.950 . S
C1829 C1828 1.397 . S
C1829 C1830 1.334 . S
C1830 H1801 0.950 . S
C1830 C1829 1.334 . S
C1830 C1831 1.287 . S
C1831 C1830 1.287 . S
C1831 C1832 1.524 . S
C1831 H1834 0.999 . S
C1832 H1802 0.950 . S
C1832 C1831 1.524 . S
C1832 C1833 1.415 . S
C1833 H1803 0.950 . S
C1833 C1828 1.363 . S
C1833 C1832 1.415 . S
H1834 C1831 0.999 . S
H1835 C1816 0.913 . S
H1836 C1854 0.951 . S
H1837 C1856 0.951 . S
H1838 C1858 0.950 . S
H1839 C1859 0.950 . S
H1840 C1861 0.950 . S
H1841 C1864 0.950 . S
H1842 C1865 0.950 . S
H1843 C1867 0.950 . S
H1844 C1868 0.950 . S
H1845 C1869 0.951 . S
H1846 C1871 0.951 . S
H1847 C1873 0.950 . S
H1848 C1874 0.950 . S
H1849 C1876 0.950 . S
H1850 C1879 0.950 . S
H1851 C1880 0.950 . S
H1852 C1882 0.950 . S
H1853 C1883 0.950 . S
C1854 H1836 0.951 . S
C1854 C1855 1.366 . S
C1854 C1856 1.388 . S
C1855 C1854 1.366 . S
C1855 C1859 1.385 . S
C1856 H1837 0.951 . S
C1856 C1854 1.388 . S
C1856 C1857 1.366 . S
C1857 C1856 1.366 . S
C1857 C1858 1.414 . S
C1857 C1860 1.499 . S
C1858 H1838 0.950 . S
C1858 C1857 1.414 . S
C1858 C1859 1.374 . S
C1859 H1839 0.950 . S
C1859 C1855 1.385 . S
C1859 C1858 1.374 . S
C1860 C1857 1.499 . S
C1860 C1861 1.373 . S
C1860 C1862 1.389 . S
C1861 H1840 0.950 . S
C1861 C1860 1.373 . S
C1861 C1877 1.377 . S
C1862 C1860 1.389 . S
C1862 C1863 1.524 . S
C1862 C1876 1.377 . S
C1863 C1862 1.524 . S
C1863 C1864 1.397 . S
C1863 C1868 1.363 . S
C1864 H1841 0.950 . S
C1864 C1863 1.397 . S
C1864 C1865 1.334 . S
C1865 H1842 0.950 . S
C1865 C1864 1.334 . S
C1865 C1866 1.287 . S
C1866 C1865 1.287 . S
C1866 C1867 1.524 . S
C1866 H1885 0.913 . S
C1867 H1843 0.950 . S
C1867 C1866 1.524 . S
C1867 C1868 1.415 . S
C1868 H1844 0.950 . S
C1868 C1863 1.363 . S
C1868 C1867 1.415 . S
C1869 H1845 0.951 . S
C1869 C1870 1.366 . S
C1869 C1871 1.388 . S
C1870 C1869 1.366 . S
C1870 C1874 1.385 . S
C1871 H1846 0.951 . S
C1871 C1869 1.388 . S
C1871 C1872 1.366 . S
C1872 C1871 1.366 . S
C1872 C1873 1.414 . S
C1872 C1875 1.499 . S
C1873 H1847 0.950 . S
C1873 C1872 1.414 . S
C1873 C1874 1.374 . S
C1874 H1848 0.950 . S
C1874 C1870 1.385 . S
C1874 C1873 1.374 . S
C1875 C1872 1.499 . S
C1875 C1876 1.373 . S
C1875 C1877 1.389 . S
C1876 H1849 0.950 . S
C1876 C1862 1.377 . S
C1876 C1875 1.373 . S
C1877 C1861 1.377 . S
C1877 C1875 1.389 . S
C1877 C1878 1.524 . S
C1878 C1877 1.524 . S
C1878 C1879 1.397 . S
C1878 C1883 1.363 . S
C1879 H1850 0.950 . S
C1879 C1878 1.397 . S
C1879 C1880 1.334 . S
C1880 H1851 0.950 . S
C1880 C1879 1.334 . S
C1880 C1881 1.287 . S
C1881 C1880 1.287 . S
C1881 C1882 1.524 . S
C1881 H1884 0.999 . S
C1882 H1852 0.950 . S
C1882 C1881 1.524 . S
C1882 C1883 1.415 . S
C1883 H1853 0.950 . S
C1883 C1878 1.363 . S
C1883 C1882 1.415 . S
H1884 C1881 0.999 . S
H1885 C1866 0.913 . S
H1886 C1904 0.951 . S
H1887 C1906 0.951 . S
H1888 C1908 0.950 . S
H1889 C1909 0.950 . S
H1890 C1911 0.950 . S
H1891 C1914 0.950 . S
H1892 C1915 0.950 . S
H1893 C1917 0.950 . S
H1894 C1918 0.950 . S
H1895 C1919 0.951 . S
H1896 C1921 0.951 . S
H1897 C1923 0.950 . S
H1898 C1924 0.950 . S
H1899 C1926 0.950 . S
H1900 C1929 0.950 . S
H1901 C1930 0.950 . S
H1902 C1932 0.950 . S
H1903 C1933 0.950 . S
C1904 H1886 0.951 . S
C1904 C1905 1.366 . S
C1904 C1906 1.388 . S
C1905 C1904 1.366 . S
C1905 C1909 1.385 . S
C1906 H1887 0.951 . S
C1906 C1904 1.388 . S
C1906 C1907 1.366 . S
C1907 C1906 1.366 . S
C1907 C1908 1.414 . S
C1907 C1910 1.499 . S
C1908 H1888 0.950 . S
C1908 C1907 1.414 . S
C1908 C1909 1.374 . S
C1909 H1889 0.950 . S
C1909 C1905 1.385 . S
C1909 C1908 1.374 . S
C1910 C1907 1.499 . S
C1910 C1911 1.373 . S
C1910 C1912 1.389 . S
C1911 H1890 0.950 . S
C1911 C1910 1.373 . S
C1911 C1927 1.377 . S
C1912 C1910 1.389 . S
C1912 C1913 1.524 . S
C1912 C1926 1.377 . S
C1913 C1912 1.524 . S
C1913 C1914 1.397 . S
C1913 C1918 1.363 . S
C1914 H1891 0.950 . S
C1914 C1913 1.397 . S
C1914 C1915 1.334 . S
C1915 H1892 0.950 . S
C1915 C1914 1.334 . S
C1915 C1916 1.287 . S
C1916 C1915 1.287 . S
C1916 C1917 1.524 . S
C1916 H1935 0.913 . S
C1917 H1893 0.950 . S
C1917 C1916 1.524 . S
C1917 C1918 1.415 . S
C1918 H1894 0.950 . S
C1918 C1913 1.363 . S
C1918 C1917 1.415 . S
C1919 H1895 0.951 . S
C1919 C1920 1.366 . S
C1919 C1921 1.388 . S
C1920 C1919 1.366 . S
C1920 C1924 1.385 . S
C1921 H1896 0.951 . S
C1921 C1919 1.388 . S
C1921 C1922 1.366 . S
C1922 C1921 1.366 . S
C1922 C1923 1.414 . S
C1922 C1925 1.499 . S
C1923 H1897 0.950 . S
C1923 C1922 1.414 . S
C1923 C1924 1.374 . S
C1924 H1898 0.950 . S
C1924 C1920 1.385 . S
C1924 C1923 1.374 . S
C1925 C1922 1.499 . S
C1925 C1926 1.373 . S
C1925 C1927 1.389 . S
C1926 H1899 0.950 . S
C1926 C1912 1.377 . S
C1926 C1925 1.373 . S
C1927 C1911 1.377 . S
C1927 C1925 1.389 . S
C1927 C1928 1.524 . S
C1928 C1927 1.524 . S
C1928 C1929 1.397 . S
C1928 C1933 1.363 . S
C1929 H1900 0.950 . S
C1929 C1928 1.397 . S
C1929 C1930 1.334 . S
C1930 H1901 0.950 . S
C1930 C1929 1.334 . S
C1930 C1931 1.287 . S
C1931 C1930 1.287 . S
C1931 C1932 1.524 . S
C1931 H1934 0.999 . S
C1932 H1902 0.950 . S
C1932 C1931 1.524 . S
C1932 C1933 1.415 . S
C1933 H1903 0.950 . S
C1933 C1928 1.363 . S
C1933 C1932 1.415 . S
H1934 C1931 0.999 . S
H1935 C1916 0.913 . S
H1936 C1954 0.951 . S
H1937 C1956 0.951 . S
H1938 C1958 0.950 . S
H1939 C1959 0.950 . S
H1940 C1961 0.950 . S
H1941 C1964 0.950 . S
H1942 C1965 0.950 . S
H1943 C1967 0.950 . S
H1944 C1968 0.950 . S
H1945 C1969 0.951 . S
H1946 C1971 0.951 . S
H1947 C1973 0.950 . S
H1948 C1974 0.950 . S
H1949 C1976 0.950 . S
H1950 C1979 0.950 . S
H1951 C1980 0.950 . S
H1952 C1982 0.950 . S
H1953 C1983 0.950 . S
C1954 H1936 0.951 . S
C1954 C1955 1.366 . S
C1954 C1956 1.388 . S
C1955 C1954 1.366 . S
C1955 C1959 1.385 . S
C1956 H1937 0.951 . S
C1956 C1954 1.388 . S
C1956 C1957 1.366 . S
C1957 C1956 1.366 . S
C1957 C1958 1.414 . S
C1957 C1960 1.499 . S
C1958 H1938 0.950 . S
C1958 C1957 1.414 . S
C1958 C1959 1.374 . S
C1959 H1939 0.950 . S
C1959 C1955 1.385 . S
C1959 C1958 1.374 . S
C1960 C1957 1.499 . S
C1960 C1961 1.373 . S
C1960 C1962 1.389 . S
C1961 H1940 0.950 . S
C1961 C1960 1.373 . S
C1961 C1977 1.377 . S
C1962 C1960 1.389 . S
C1962 C1963 1.524 . S
C1962 C1976 1.377 . S
C1963 C1962 1.524 . S
C1963 C1964 1.397 . S
C1963 C1968 1.363 . S
C1964 H1941 0.950 . S
C1964 C1963 1.397 . S
C1964 C1965 1.334 . S
C1965 H1942 0.950 . S
C1965 C1964 1.334 . S
C1965 C1966 1.287 . S
C1966 C1965 1.287 . S
C1966 C1967 1.524 . S
C1966 H1985 0.913 . S
C1967 H1943 0.950 . S
C1967 C1966 1.524 . S
C1967 C1968 1.415 . S
C1968 H1944 0.950 . S
C1968 C1963 1.363 . S
C1968 C1967 1.415 . S
C1969 H1945 0.951 . S
C1969 C1970 1.366 . S
C1969 C1971 1.388 . S
C1970 C1969 1.366 . S
C1970 C1974 1.385 . S
C1971 H1946 0.951 . S
C1971 C1969 1.388 . S
C1971 C1972 1.366 . S
C1972 C1971 1.366 . S
C1972 C1973 1.414 . S
C1972 C1975 1.499 . S
C1973 H1947 0.950 . S
C1973 C1972 1.414 . S
C1973 C1974 1.374 . S
C1974 H1948 0.950 . S
C1974 C1970 1.385 . S
C1974 C1973 1.374 . S
C1975 C1972 1.499 . S
C1975 C1976 1.373 . S
C1975 C1977 1.389 . S
C1976 H1949 0.950 . S
C1976 C1962 1.377 . S
C1976 C1975 1.373 . S
C1977 C1961 1.377 . S
C1977 C1975 1.389 . S
C1977 C1978 1.524 . S
C1978 C1977 1.524 . S
C1978 C1979 1.397 . S
C1978 C1983 1.363 . S
C1979 H1950 0.950 . S
C1979 C1978 1.397 . S
C1979 C1980 1.334 . S
C1980 H1951 0.950 . S
C1980 C1979 1.334 . S
C1980 C1981 1.287 . S
C1981 C1980 1.287 . S
C1981 C1982 1.524 . S
C1981 H1984 0.999 . S
C1982 H1952 0.950 . S
C1982 C1981 1.524 . S
C1982 C1983 1.415 . S
C1983 H1953 0.950 . S
C1983 C1978 1.363 . S
C1983 C1982 1.415 . S
H1984 C1981 0.999 . S
H1985 C1966 0.913 . S
H1986 C2004 0.951 . S
H1987 C2006 0.951 . S
H1988 C2008 0.950 . S
H1989 C2009 0.950 . S
H1990 C2011 0.950 1_545 S
H1991 C2014 0.950 . S
H1992 C2015 0.950 . S
H1993 C2017 0.950 . S
H1994 C2018 0.950 . S
H1995 C2019 0.951 . S
H1996 C2021 0.951 . S
H1997 C2023 0.950 . S
H1998 C2024 0.950 . S
H1999 C2026 0.950 . S
H2000 C2029 0.950 . S
H2001 C2030 0.950 . S
H2002 C2032 0.950 . S
H2003 C2033 0.950 . S
C2004 H1986 0.951 . S
C2004 C2005 1.366 . S
C2004 C2006 1.388 . S
C2005 C2004 1.366 . S
C2005 C2009 1.385 . S
C2006 H1987 0.951 . S
C2006 C2004 1.388 . S
C2006 C2007 1.366 . S
C2007 C2006 1.366 . S
C2007 C2008 1.414 . S
C2007 C2010 1.499 . S
C2008 H1988 0.950 . S
C2008 C2007 1.414 . S
C2008 C2009 1.374 . S
C2009 H1989 0.950 . S
C2009 C2005 1.385 . S
C2009 C2008 1.374 . S
C2010 C2007 1.499 . S
C2010 C2011 1.373 1_545 S
C2010 C2012 1.389 1_545 S
C2011 H1990 0.950 1_565 S
C2011 C2010 1.373 1_565 S
C2011 C2027 1.377 . S
C2012 C2010 1.389 1_565 S
C2012 C2013 1.537 . S
C2012 C2026 1.377 . S
C2013 C2012 1.537 . S
C2013 C2014 1.395 1_565 S
C2013 C2018 1.355 . S
C2014 H1991 0.950 . S
C2014 C2013 1.395 1_545 S
C2014 C2015 1.334 . S
C2015 H1992 0.950 . S
C2015 C2014 1.334 . S
C2015 C2016 1.287 . S
C2016 C2015 1.287 . S
C2016 C2017 1.524 . S
C2016 H2035 0.913 . S
C2017 H1993 0.950 . S
C2017 C2016 1.524 . S
C2017 C2018 1.415 1_545 S
C2018 H1994 0.950 . S
C2018 C2013 1.355 . S
C2018 C2017 1.415 1_565 S
C2019 H1995 0.951 . S
C2019 C2020 1.366 . S
C2019 C2021 1.388 . S
C2020 C2019 1.366 . S
C2020 C2024 1.385 . S
C2021 H1996 0.951 . S
C2021 C2019 1.388 . S
C2021 C2022 1.366 . S
C2022 C2021 1.366 . S
C2022 C2023 1.414 . S
C2022 C2025 1.499 . S
C2023 H1997 0.950 . S
C2023 C2022 1.414 . S
C2023 C2024 1.374 . S
C2024 H1998 0.950 . S
C2024 C2020 1.385 . S
C2024 C2023 1.374 . S
C2025 C2022 1.499 . S
C2025 C2026 1.373 . S
C2025 C2027 1.389 . S
C2026 H1999 0.950 . S
C2026 C2012 1.377 . S
C2026 C2025 1.373 . S
C2027 C2011 1.377 . S
C2027 C2025 1.389 . S
C2027 C2028 1.524 . S
C2028 C2027 1.524 . S
C2028 C2029 1.397 . S
C2028 C2033 1.363 . S
C2029 H2000 0.950 . S
C2029 C2028 1.397 . S
C2029 C2030 1.334 . S
C2030 H2001 0.950 . S
C2030 C2029 1.334 . S
C2030 C2031 1.287 . S
C2031 C2030 1.287 . S
C2031 C2032 1.524 . S
C2031 H2034 0.999 . S
C2032 H2002 0.950 . S
C2032 C2031 1.524 . S
C2032 C2033 1.415 . S
C2033 H2003 0.950 . S
C2033 C2028 1.363 . S
C2033 C2032 1.415 . S
H2034 C2031 0.999 . S
H2035 C2016 0.913 . S
H2036 C2054 0.951 . S
H2037 C2056 0.951 1_455 S
H2038 C2058 0.950 . S
H2039 C2059 0.950 . S
H2040 C2061 0.950 . S
H2041 C2064 0.950 . S
H2042 C2065 0.950 . S
H2043 C2067 0.950 . S
H2044 C2068 0.950 . S
H2045 C2069 0.951 . S
H2046 C2071 0.951 . S
H2047 C2073 0.950 . S
H2048 C2074 0.950 . S
H2049 C2076 0.950 . S
H2050 C2079 0.950 . S
H2051 C2080 0.950 . S
H2052 C2082 0.950 . S
H2053 C2083 0.950 . S
C2054 H2036 0.951 . S
C2054 C2055 1.366 . S
C2054 C2056 1.388 . S
C2055 C2054 1.366 . S
C2055 C2059 1.385 . S
C2056 H2037 0.951 1_655 S
C2056 C2054 1.388 . S
C2056 C2057 1.366 . S
C2057 C2056 1.366 . S
C2057 C2058 1.414 . S
C2057 C2060 1.499 1_655 S
C2058 H2038 0.950 . S
C2058 C2057 1.414 . S
C2058 C2059 1.374 . S
C2059 H2039 0.950 . S
C2059 C2055 1.385 . S
C2059 C2058 1.374 . S
C2060 C2057 1.499 1_455 S
C2060 C2061 1.373 . S
C2060 C2062 1.389 . S
C2061 H2040 0.950 . S
C2061 C2060 1.373 . S
C2061 C2077 1.377 . S
C2062 C2060 1.389 . S
C2062 C2063 1.524 . S
C2062 C2076 1.377 . S
C2063 C2062 1.524 . S
C2063 C2064 1.397 . S
C2063 C2068 1.363 . S
C2064 H2041 0.950 . S
C2064 C2063 1.397 . S
C2064 C2065 1.334 . S
C2065 H2042 0.950 . S
C2065 C2064 1.334 . S
C2065 C2066 1.287 . S
C2066 C2065 1.287 . S
C2066 C2067 1.524 . S
C2066 H2085 0.913 . S
C2067 H2043 0.950 . S
C2067 C2066 1.524 . S
C2067 C2068 1.415 . S
C2068 H2044 0.950 . S
C2068 C2063 1.363 . S
C2068 C2067 1.415 . S
C2069 H2045 0.951 . S
C2069 C2070 1.366 . S
C2069 C2071 1.388 . S
C2070 C2069 1.366 . S
C2070 C2074 1.385 . S
C2071 H2046 0.951 . S
C2071 C2069 1.388 . S
C2071 C2072 1.366 . S
C2072 C2071 1.366 . S
C2072 C2073 1.414 . S
C2072 C2075 1.499 . S
C2073 H2047 0.950 . S
C2073 C2072 1.414 . S
C2073 C2074 1.374 . S
C2074 H2048 0.950 . S
C2074 C2070 1.385 . S
C2074 C2073 1.374 . S
C2075 C2072 1.499 . S
C2075 C2076 1.373 . S
C2075 C2077 1.389 . S
C2076 H2049 0.950 . S
C2076 C2062 1.377 . S
C2076 C2075 1.373 . S
C2077 C2061 1.377 . S
C2077 C2075 1.389 . S
C2077 C2078 1.524 . S
C2078 C2077 1.524 . S
C2078 C2079 1.397 . S
C2078 C2083 1.363 . S
C2079 H2050 0.950 . S
C2079 C2078 1.397 . S
C2079 C2080 1.334 . S
C2080 H2051 0.950 . S
C2080 C2079 1.334 . S
C2080 C2081 1.287 . S
C2081 C2080 1.287 . S
C2081 C2082 1.524 . S
C2081 H2084 0.999 . S
C2082 H2052 0.950 . S
C2082 C2081 1.524 . S
C2082 C2083 1.415 . S
C2083 H2053 0.950 . S
C2083 C2078 1.363 . S
C2083 C2082 1.415 . S
H2084 C2081 0.999 . S
H2085 C2066 0.913 . S
H2086 C2104 0.951 . S
H2087 C2106 0.951 . S
H2088 C2108 0.950 . S
H2089 C2109 0.950 . S
H2090 C2111 0.950 . S
H2091 C2114 0.950 . S
H2092 C2115 0.950 . S
H2093 C2117 0.950 . S
H2094 C2118 0.950 . S
H2095 C2119 0.951 . S
H2096 C2121 0.951 . S
H2097 C2123 0.950 . S
H2098 C2124 0.950 . S
H2099 C2126 0.950 . S
H2100 C2129 0.950 . S
H2101 C2130 0.950 . S
H2102 C2132 0.950 . S
H2103 C2133 0.950 . S
C2104 H2086 0.951 . S
C2104 C2105 1.366 . S
C2104 C2106 1.388 . S
C2105 C2104 1.366 . S
C2105 C2109 1.385 . S
C2106 H2087 0.951 . S
C2106 C2104 1.388 . S
C2106 C2107 1.366 . S
C2107 C2106 1.366 . S
C2107 C2108 1.414 . S
C2107 C2110 1.499 . S
C2108 H2088 0.950 . S
C2108 C2107 1.414 . S
C2108 C2109 1.374 . S
C2109 H2089 0.950 . S
C2109 C2105 1.385 . S
C2109 C2108 1.374 . S
C2110 C2107 1.499 . S
C2110 C2111 1.373 . S
C2110 C2112 1.389 . S
C2111 H2090 0.950 . S
C2111 C2110 1.373 . S
C2111 C2127 1.377 . S
C2112 C2110 1.389 . S
C2112 C2113 1.524 . S
C2112 C2126 1.377 . S
C2113 C2112 1.524 . S
C2113 C2114 1.397 . S
C2113 C2118 1.363 . S
C2114 H2091 0.950 . S
C2114 C2113 1.397 . S
C2114 C2115 1.334 . S
C2115 H2092 0.950 . S
C2115 C2114 1.334 . S
C2115 C2116 1.287 . S
C2116 C2115 1.287 . S
C2116 C2117 1.524 . S
C2116 H2135 0.913 . S
C2117 H2093 0.950 . S
C2117 C2116 1.524 . S
C2117 C2118 1.415 . S
C2118 H2094 0.950 . S
C2118 C2113 1.363 . S
C2118 C2117 1.415 . S
C2119 H2095 0.951 . S
C2119 C2120 1.366 . S
C2119 C2121 1.388 . S
C2120 C2119 1.366 . S
C2120 C2124 1.385 . S
C2121 H2096 0.951 . S
C2121 C2119 1.388 . S
C2121 C2122 1.366 . S
C2122 C2121 1.366 . S
C2122 C2123 1.414 . S
C2122 C2125 1.499 . S
C2123 H2097 0.950 . S
C2123 C2122 1.414 . S
C2123 C2124 1.374 . S
C2124 H2098 0.950 . S
C2124 C2120 1.385 . S
C2124 C2123 1.374 . S
C2125 C2122 1.499 . S
C2125 C2126 1.373 . S
C2125 C2127 1.389 . S
C2126 H2099 0.950 . S
C2126 C2112 1.377 . S
C2126 C2125 1.373 . S
C2127 C2111 1.377 . S
C2127 C2125 1.389 . S
C2127 C2128 1.524 . S
C2128 C2127 1.524 . S
C2128 C2129 1.397 . S
C2128 C2133 1.363 . S
C2129 H2100 0.950 . S
C2129 C2128 1.397 . S
C2129 C2130 1.334 . S
C2130 H2101 0.950 . S
C2130 C2129 1.334 . S
C2130 C2131 1.287 . S
C2131 C2130 1.287 . S
C2131 C2132 1.524 . S
C2131 H2134 0.999 . S
C2132 H2102 0.950 . S
C2132 C2131 1.524 . S
C2132 C2133 1.415 . S
C2133 H2103 0.950 . S
C2133 C2128 1.363 . S
C2133 C2132 1.415 . S
H2134 C2131 0.999 . S
H2135 C2116 0.913 . S
H2136 C2154 0.951 . S
H2137 C2156 0.951 . S
H2138 C2158 0.950 . S
H2139 C2159 0.950 . S
H2140 C2161 0.950 . S
H2141 C2164 0.950 . S
H2142 C2165 0.950 . S
H2143 C2167 0.950 . S
H2144 C2168 0.950 . S
H2145 C2169 0.951 . S
H2146 C2171 0.951 . S
H2147 C2173 0.950 . S
H2148 C2174 0.950 . S
H2149 C2176 0.950 . S
H2150 C2179 0.950 . S
H2151 C2180 0.950 . S
H2152 C2182 0.950 . S
H2153 C2183 0.950 . S
C2154 H2136 0.951 . S
C2154 C2155 1.366 . S
C2154 C2156 1.388 . S
C2155 C2154 1.366 . S
C2155 C2159 1.385 . S
C2156 H2137 0.951 . S
C2156 C2154 1.388 . S
C2156 C2157 1.366 . S
C2157 C2156 1.366 . S
C2157 C2158 1.414 . S
C2157 C2160 1.499 . S
C2158 H2138 0.950 . S
C2158 C2157 1.414 . S
C2158 C2159 1.374 . S
C2159 H2139 0.950 . S
C2159 C2155 1.385 . S
C2159 C2158 1.374 . S
C2160 C2157 1.499 . S
C2160 C2161 1.373 . S
C2160 C2162 1.389 . S
C2161 H2140 0.950 . S
C2161 C2160 1.373 . S
C2161 C2177 1.377 . S
C2162 C2160 1.389 . S
C2162 C2163 1.524 . S
C2162 C2176 1.377 . S
C2163 C2162 1.524 . S
C2163 C2164 1.397 . S
C2163 C2168 1.363 . S
C2164 H2141 0.950 . S
C2164 C2163 1.397 . S
C2164 C2165 1.334 . S
C2165 H2142 0.950 . S
C2165 C2164 1.334 . S
C2165 C2166 1.287 . S
C2166 C2165 1.287 . S
C2166 C2167 1.524 . S
C2166 H2185 0.913 . S
C2167 H2143 0.950 . S
C2167 C2166 1.524 . S
C2167 C2168 1.415 . S
C2168 H2144 0.950 . S
C2168 C2163 1.363 . S
C2168 C2167 1.415 . S
C2169 H2145 0.951 . S
C2169 C2170 1.366 . S
C2169 C2171 1.388 . S
C2170 C2169 1.366 . S
C2170 C2174 1.385 . S
C2171 H2146 0.951 . S
C2171 C2169 1.388 . S
C2171 C2172 1.366 . S
C2172 C2171 1.366 . S
C2172 C2173 1.414 . S
C2172 C2175 1.499 . S
C2173 H2147 0.950 . S
C2173 C2172 1.414 . S
C2173 C2174 1.374 . S
C2174 H2148 0.950 . S
C2174 C2170 1.385 . S
C2174 C2173 1.374 . S
C2175 C2172 1.499 . S
C2175 C2176 1.373 . S
C2175 C2177 1.389 . S
C2176 H2149 0.950 . S
C2176 C2162 1.377 . S
C2176 C2175 1.373 . S
C2177 C2161 1.377 . S
C2177 C2175 1.389 . S
C2177 C2178 1.524 . S
C2178 C2177 1.524 . S
C2178 C2179 1.397 . S
C2178 C2183 1.363 . S
C2179 H2150 0.950 . S
C2179 C2178 1.397 . S
C2179 C2180 1.334 . S
C2180 H2151 0.950 . S
C2180 C2179 1.334 . S
C2180 C2181 1.287 . S
C2181 C2180 1.287 . S
C2181 C2182 1.524 . S
C2181 H2184 0.999 . S
C2182 H2152 0.950 . S
C2182 C2181 1.524 . S
C2182 C2183 1.415 . S
C2183 H2153 0.950 . S
C2183 C2178 1.363 . S
C2183 C2182 1.415 . S
H2184 C2181 0.999 . S
H2185 C2166 0.913 . S
H2186 C2204 0.951 . S
H2187 C2206 0.951 . S
H2188 C2208 0.950 . S
H2189 C2209 0.950 . S
H2190 C2211 0.950 . S
H2191 C2214 0.950 . S
H2192 C2215 0.950 . S
H2193 C2217 0.950 . S
H2194 C2218 0.950 . S
H2195 C2219 0.951 . S
H2196 C2221 0.951 . S
H2197 C2223 0.950 . S
H2198 C2224 0.950 . S
H2199 C2226 0.950 . S
H2200 C2229 0.950 . S
H2201 C2230 0.950 . S
H2202 C2232 0.950 . S
H2203 C2233 0.950 . S
C2204 H2186 0.951 . S
C2204 C2205 1.366 . S
C2204 C2206 1.388 . S
C2205 C2204 1.366 . S
C2205 C2209 1.385 . S
C2206 H2187 0.951 . S
C2206 C2204 1.388 . S
C2206 C2207 1.366 . S
C2207 C2206 1.366 . S
C2207 C2208 1.414 . S
C2207 C2210 1.499 . S
C2208 H2188 0.950 . S
C2208 C2207 1.414 . S
C2208 C2209 1.374 . S
C2209 H2189 0.950 . S
C2209 C2205 1.385 . S
C2209 C2208 1.374 . S
C2210 C2207 1.499 . S
C2210 C2211 1.373 . S
C2210 C2212 1.389 . S
C2211 H2190 0.950 . S
C2211 C2210 1.373 . S
C2211 C2227 1.377 . S
C2212 C2210 1.389 . S
C2212 C2213 1.524 . S
C2212 C2226 1.377 . S
C2213 C2212 1.524 . S
C2213 C2214 1.397 . S
C2213 C2218 1.363 . S
C2214 H2191 0.950 . S
C2214 C2213 1.397 . S
C2214 C2215 1.334 . S
C2215 H2192 0.950 . S
C2215 C2214 1.334 . S
C2215 C2216 1.287 . S
C2216 C2215 1.287 . S
C2216 C2217 1.524 . S
C2216 H2235 0.913 . S
C2217 H2193 0.950 . S
C2217 C2216 1.524 . S
C2217 C2218 1.415 . S
C2218 H2194 0.950 . S
C2218 C2213 1.363 . S
C2218 C2217 1.415 . S
C2219 H2195 0.951 . S
C2219 C2220 1.366 . S
C2219 C2221 1.388 . S
C2220 C2219 1.366 . S
C2220 C2224 1.385 . S
C2221 H2196 0.951 . S
C2221 C2219 1.388 . S
C2221 C2222 1.366 . S
C2222 C2221 1.366 . S
C2222 C2223 1.414 . S
C2222 C2225 1.499 . S
C2223 H2197 0.950 . S
C2223 C2222 1.414 . S
C2223 C2224 1.374 . S
C2224 H2198 0.950 . S
C2224 C2220 1.385 . S
C2224 C2223 1.374 . S
C2225 C2222 1.499 . S
C2225 C2226 1.373 . S
C2225 C2227 1.389 . S
C2226 H2199 0.950 . S
C2226 C2212 1.377 . S
C2226 C2225 1.373 . S
C2227 C2211 1.377 . S
C2227 C2225 1.389 . S
C2227 C2228 1.524 . S
C2228 C2227 1.524 . S
C2228 C2229 1.397 . S
C2228 C2233 1.363 . S
C2229 H2200 0.950 . S
C2229 C2228 1.397 . S
C2229 C2230 1.334 . S
C2230 H2201 0.950 . S
C2230 C2229 1.334 . S
C2230 C2231 1.287 . S
C2231 C2230 1.287 . S
C2231 C2232 1.524 . S
C2231 H2234 0.999 . S
C2232 H2202 0.950 . S
C2232 C2231 1.524 . S
C2232 C2233 1.415 . S
C2233 H2203 0.950 . S
C2233 C2228 1.363 . S
C2233 C2232 1.415 . S
H2234 C2231 0.999 . S
H2235 C2216 0.913 . S
H2236 C2254 0.951 . S
H2237 C2256 0.951 . S
H2238 C2258 0.950 . S
H2239 C2259 0.950 . S
H2240 C2261 0.950 . S
H2241 C2264 0.950 . S
H2242 C2265 0.950 . S
H2243 C2267 0.950 . S
H2244 C2268 0.950 . S
H2245 C2269 0.951 . S
H2246 C2271 0.951 . S
H2247 C2273 0.950 . S
H2248 C2274 0.950 . S
H2249 C2276 0.950 . S
H2250 C2279 0.950 . S
H2251 C2280 0.950 . S
H2252 C2282 0.950 . S
H2253 C2283 0.950 . S
C2254 H2236 0.951 . S
C2254 C2255 1.366 . S
C2254 C2256 1.388 . S
C2255 C2254 1.366 . S
C2255 C2259 1.385 . S
C2256 H2237 0.951 . S
C2256 C2254 1.388 . S
C2256 C2257 1.366 . S
C2257 C2256 1.366 . S
C2257 C2258 1.414 . S
C2257 C2260 1.499 . S
C2258 H2238 0.950 . S
C2258 C2257 1.414 . S
C2258 C2259 1.374 . S
C2259 H2239 0.950 . S
C2259 C2255 1.385 . S
C2259 C2258 1.374 . S
C2260 C2257 1.499 . S
C2260 C2261 1.373 . S
C2260 C2262 1.389 . S
C2261 H2240 0.950 . S
C2261 C2260 1.373 . S
C2261 C2277 1.377 . S
C2262 C2260 1.389 . S
C2262 C2263 1.524 . S
C2262 C2276 1.377 . S
C2263 C2262 1.524 . S
C2263 C2264 1.397 . S
C2263 C2268 1.363 . S
C2264 H2241 0.950 . S
C2264 C2263 1.397 . S
C2264 C2265 1.334 . S
C2265 H2242 0.950 . S
C2265 C2264 1.334 . S
C2265 C2266 1.287 . S
C2266 C2265 1.287 . S
C2266 C2267 1.524 . S
C2266 H2285 0.913 . S
C2267 H2243 0.950 . S
C2267 C2266 1.524 . S
C2267 C2268 1.415 . S
C2268 H2244 0.950 . S
C2268 C2263 1.363 . S
C2268 C2267 1.415 . S
C2269 H2245 0.951 . S
C2269 C2270 1.366 . S
C2269 C2271 1.388 . S
C2270 C2269 1.366 . S
C2270 C2274 1.385 . S
C2271 H2246 0.951 . S
C2271 C2269 1.388 . S
C2271 C2272 1.366 . S
C2272 C2271 1.366 . S
C2272 C2273 1.414 . S
C2272 C2275 1.499 . S
C2273 H2247 0.950 . S
C2273 C2272 1.414 . S
C2273 C2274 1.374 . S
C2274 H2248 0.950 . S
C2274 C2270 1.385 . S
C2274 C2273 1.374 . S
C2275 C2272 1.499 . S
C2275 C2276 1.373 . S
C2275 C2277 1.389 . S
C2276 H2249 0.950 . S
C2276 C2262 1.377 . S
C2276 C2275 1.373 . S
C2277 C2261 1.377 . S
C2277 C2275 1.389 . S
C2277 C2278 1.524 . S
C2278 C2277 1.524 . S
C2278 C2279 1.397 . S
C2278 C2283 1.363 . S
C2279 H2250 0.950 . S
C2279 C2278 1.397 . S
C2279 C2280 1.334 . S
C2280 H2251 0.950 . S
C2280 C2279 1.334 . S
C2280 C2281 1.287 . S
C2281 C2280 1.287 . S
C2281 C2282 1.524 . S
C2281 H2284 0.999 . S
C2282 H2252 0.950 . S
C2282 C2281 1.524 . S
C2282 C2283 1.415 . S
C2283 H2253 0.950 . S
C2283 C2278 1.363 . S
C2283 C2282 1.415 . S
H2284 C2281 0.999 . S
H2285 C2266 0.913 . S
H2286 C2304 0.951 . S
H2287 C2306 0.951 . S
H2288 C2308 0.950 . S
H2289 C2309 0.950 . S
H2290 C2311 0.950 . S
H2291 C2314 0.950 . S
H2292 C2315 0.950 . S
H2293 C2317 0.950 . S
H2294 C2318 0.950 1_545 S
H2295 C2319 0.951 . S
H2296 C2321 0.951 . S
H2297 C2323 0.950 . S
H2298 C2324 0.950 . S
H2299 C2326 0.950 . S
H2300 C2329 0.950 . S
H2301 C2330 0.950 . S
H2302 C2332 0.950 . S
H2303 C2333 0.950 . S
C2304 H2286 0.951 . S
C2304 C2305 1.366 . S
C2304 C2306 1.388 . S
C2305 C2304 1.366 . S
C2305 C2309 1.385 . S
C2306 H2287 0.951 . S
C2306 C2304 1.388 . S
C2306 C2307 1.366 . S
C2307 C2306 1.366 . S
C2307 C2308 1.414 . S
C2307 C2310 1.499 . S
C2308 H2288 0.950 . S
C2308 C2307 1.414 . S
C2308 C2309 1.374 . S
C2309 H2289 0.950 . S
C2309 C2305 1.385 . S
C2309 C2308 1.374 . S
C2310 C2307 1.499 . S
C2310 C2311 1.373 1_565 S
C2310 C2312 1.389 1_565 S
C2311 H2290 0.950 . S
C2311 C2310 1.373 1_545 S
C2311 C2327 1.377 . S
C2312 C2310 1.389 1_545 S
C2312 C2313 1.524 1_545 S
C2312 C2326 1.377 . S
C2313 C2312 1.524 1_565 S
C2313 C2314 1.397 . S
C2313 C2318 1.363 . S
C2314 H2291 0.950 . S
C2314 C2313 1.397 . S
C2314 C2315 1.334 . S
C2315 H2292 0.950 . S
C2315 C2314 1.334 . S
C2315 C2316 1.287 . S
C2316 C2315 1.287 . S
C2316 C2317 1.524 . S
C2316 H2335 0.913 . S
C2317 H2293 0.950 . S
C2317 C2316 1.524 . S
C2317 C2318 1.415 . S
C2318 H2294 0.950 1_565 S
C2318 C2313 1.363 . S
C2318 C2317 1.415 . S
C2319 H2295 0.951 . S
C2319 C2320 1.366 . S
C2319 C2321 1.388 . S
C2320 C2319 1.366 . S
C2320 C2324 1.385 . S
C2321 H2296 0.951 . S
C2321 C2319 1.388 . S
C2321 C2322 1.366 . S
C2322 C2321 1.366 . S
C2322 C2323 1.414 . S
C2322 C2325 1.499 . S
C2323 H2297 0.950 . S
C2323 C2322 1.414 . S
C2323 C2324 1.374 . S
C2324 H2298 0.950 . S
C2324 C2320 1.385 . S
C2324 C2323 1.374 . S
C2325 C2322 1.499 . S
C2325 C2326 1.373 . S
C2325 C2327 1.389 . S
C2326 H2299 0.950 . S
C2326 C2312 1.377 . S
C2326 C2325 1.373 . S
C2327 C2311 1.377 . S
C2327 C2325 1.389 . S
C2327 C2328 1.524 . S
C2328 C2327 1.524 . S
C2328 C2329 1.397 . S
C2328 C2333 1.363 . S
C2329 H2300 0.950 . S
C2329 C2328 1.397 . S
C2329 C2330 1.334 . S
C2330 H2301 0.950 . S
C2330 C2329 1.334 . S
C2330 C2331 1.287 . S
C2331 C2330 1.287 . S
C2331 C2332 1.524 . S
C2331 H2334 0.999 . S
C2332 H2302 0.950 . S
C2332 C2331 1.524 . S
C2332 C2333 1.415 . S
C2333 H2303 0.950 . S
C2333 C2328 1.363 . S
C2333 C2332 1.415 . S
H2334 C2331 0.999 . S
H2335 C2316 0.913 . S
H2336 C2354 0.951 . S
H2337 C2356 0.951 1_655 S
H2338 C2358 0.950 . S
H2339 C2359 0.950 . S
H2340 C2361 0.950 . S
H2341 C2364 0.950 1_455 S
H2342 C2365 0.953 1_455 S
H2343 C2367 0.950 . S
H2344 C2368 0.950 . S
H2345 C2369 0.951 . S
H2346 C2371 0.951 . S
H2347 C2373 0.950 . S
H2348 C2374 0.950 . S
H2349 C2376 0.950 . S
H2350 C2379 0.950 . S
H2351 C2380 0.950 . S
H2352 C2382 0.950 . S
H2353 C2383 0.950 . S
C2354 H2336 0.951 . S
C2354 C2355 1.366 . S
C2354 C2356 1.388 . S
C2355 C2354 1.366 . S
C2355 C2359 1.385 . S
C2356 H2337 0.951 1_455 S
C2356 C2354 1.388 . S
C2356 C2357 1.366 . S
C2357 C2356 1.366 . S
C2357 C2358 1.414 . S
C2357 C2360 1.499 1_455 S
C2358 H2338 0.950 . S
C2358 C2357 1.414 . S
C2358 C2359 1.374 . S
C2359 H2339 0.950 . S
C2359 C2355 1.385 . S
C2359 C2358 1.374 . S
C2360 C2357 1.499 1_655 S
C2360 C2361 1.373 . S
C2360 C2362 1.389 . S
C2361 H2340 0.950 . S
C2361 C2360 1.373 . S
C2361 C2377 1.377 . S
C2362 C2360 1.389 . S
C2362 C2363 1.524 . S
C2362 C2376 1.377 . S
C2363 C2362 1.524 . S
C2363 C2364 1.397 . S
C2363 C2368 1.363 . S
C2364 H2341 0.950 1_655 S
C2364 C2363 1.397 . S
C2364 C2365 1.335 . S
C2365 H2342 0.953 1_655 S
C2365 C2364 1.335 . S
C2365 C2366 1.283 . S
C2366 C2365 1.283 . S
C2366 C2367 1.524 . S
C2366 H2385 0.913 . S
C2367 H2343 0.950 . S
C2367 C2366 1.524 . S
C2367 C2368 1.415 . S
C2368 H2344 0.950 . S
C2368 C2363 1.363 . S
C2368 C2367 1.415 . S
C2369 H2345 0.951 . S
C2369 C2370 1.366 . S
C2369 C2371 1.388 . S
C2370 C2369 1.366 . S
C2370 C2374 1.385 . S
C2371 H2346 0.951 . S
C2371 C2369 1.388 . S
C2371 C2372 1.366 . S
C2372 C2371 1.366 . S
C2372 C2373 1.414 . S
C2372 C2375 1.499 . S
C2373 H2347 0.950 . S
C2373 C2372 1.414 . S
C2373 C2374 1.374 . S
C2374 H2348 0.950 . S
C2374 C2370 1.385 . S
C2374 C2373 1.374 . S
C2375 C2372 1.499 . S
C2375 C2376 1.373 . S
C2375 C2377 1.389 . S
C2376 H2349 0.950 . S
C2376 C2362 1.377 . S
C2376 C2375 1.373 . S
C2377 C2361 1.377 . S
C2377 C2375 1.389 . S
C2377 C2378 1.524 . S
C2378 C2377 1.524 . S
C2378 C2379 1.397 . S
C2378 C2383 1.363 . S
C2379 H2350 0.950 . S
C2379 C2378 1.397 . S
C2379 C2380 1.334 . S
C2380 H2351 0.950 . S
C2380 C2379 1.334 . S
C2380 C2381 1.287 . S
C2381 C2380 1.287 . S
C2381 C2382 1.524 . S
C2381 H2384 0.999 . S
C2382 H2352 0.950 . S
C2382 C2381 1.524 . S
C2382 C2383 1.415 . S
C2383 H2353 0.950 . S
C2383 C2378 1.363 . S
C2383 C2382 1.415 . S
H2384 C2381 0.999 . S
H2385 C2366 0.913 . S
H2386 C2404 0.951 . S
H2387 C2406 0.951 . S
H2388 C2408 0.950 . S
H2389 C2409 0.950 . S
H2390 C2411 0.950 . S
H2391 C2414 0.950 . S
H2392 C2415 0.950 . S
H2393 C2417 0.950 . S
H2394 C2418 0.950 . S
H2395 C2419 0.951 . S
H2396 C2421 0.951 . S
H2397 C2423 0.950 . S
H2398 C2424 0.950 . S
H2399 C2426 0.950 . S
H2400 C2429 0.950 . S
H2401 C2430 0.950 . S
H2402 C2432 0.950 . S
H2403 C2433 0.950 . S
C2404 H2386 0.951 . S
C2404 C2405 1.366 . S
C2404 C2406 1.388 . S
C2405 C2404 1.366 . S
C2405 C2409 1.385 . S
C2406 H2387 0.951 . S
C2406 C2404 1.388 . S
C2406 C2407 1.366 . S
C2407 C2406 1.366 . S
C2407 C2408 1.414 . S
C2407 C2410 1.499 . S
C2408 H2388 0.950 . S
C2408 C2407 1.414 . S
C2408 C2409 1.374 . S
C2409 H2389 0.950 . S
C2409 C2405 1.385 . S
C2409 C2408 1.374 . S
C2410 C2407 1.499 . S
C2410 C2411 1.373 . S
C2410 C2412 1.389 . S
C2411 H2390 0.950 . S
C2411 C2410 1.373 . S
C2411 C2427 1.377 . S
C2412 C2410 1.389 . S
C2412 C2413 1.524 . S
C2412 C2426 1.377 . S
C2413 C2412 1.524 . S
C2413 C2414 1.397 . S
C2413 C2418 1.363 . S
C2414 H2391 0.950 . S
C2414 C2413 1.397 . S
C2414 C2415 1.334 . S
C2415 H2392 0.950 . S
C2415 C2414 1.334 . S
C2415 C2416 1.287 . S
C2416 C2415 1.287 . S
C2416 C2417 1.524 . S
C2416 H2435 0.913 . S
C2417 H2393 0.950 . S
C2417 C2416 1.524 . S
C2417 C2418 1.415 . S
C2418 H2394 0.950 . S
C2418 C2413 1.363 . S
C2418 C2417 1.415 . S
C2419 H2395 0.951 . S
C2419 C2420 1.366 . S
C2419 C2421 1.388 . S
C2420 C2419 1.366 . S
C2420 C2424 1.385 . S
C2421 H2396 0.951 . S
C2421 C2419 1.388 . S
C2421 C2422 1.366 . S
C2422 C2421 1.366 . S
C2422 C2423 1.414 . S
C2422 C2425 1.499 . S
C2423 H2397 0.950 . S
C2423 C2422 1.414 . S
C2423 C2424 1.374 . S
C2424 H2398 0.950 . S
C2424 C2420 1.385 . S
C2424 C2423 1.374 . S
C2425 C2422 1.499 . S
C2425 C2426 1.373 . S
C2425 C2427 1.389 . S
C2426 H2399 0.950 . S
C2426 C2412 1.377 . S
C2426 C2425 1.373 . S
C2427 C2411 1.377 . S
C2427 C2425 1.389 . S
C2427 C2428 1.524 . S
C2428 C2427 1.524 . S
C2428 C2429 1.397 . S
C2428 C2433 1.363 . S
C2429 H2400 0.950 . S
C2429 C2428 1.397 . S
C2429 C2430 1.334 . S
C2430 H2401 0.950 . S
C2430 C2429 1.334 . S
C2430 C2431 1.287 . S
C2431 C2430 1.287 . S
C2431 C2432 1.524 . S
C2431 H2434 0.999 . S
C2432 H2402 0.950 . S
C2432 C2431 1.524 . S
C2432 C2433 1.415 . S
C2433 H2403 0.950 . S
C2433 C2428 1.363 . S
C2433 C2432 1.415 . S
H2434 C2431 0.999 . S
H2435 C2416 0.913 . S
H2436 C2454 0.951 . S
H2437 C2456 0.951 . S
H2438 C2458 0.950 . S
H2439 C2459 0.950 . S
H2440 C2461 0.950 . S
H2441 C2464 0.950 . S
H2442 C2465 0.950 . S
H2443 C2467 0.950 . S
H2444 C2468 0.950 1_655 S
H2445 C2469 0.951 . S
H2446 C2471 0.951 . S
H2447 C2473 0.950 . S
H2448 C2474 0.950 . S
H2449 C2476 0.950 . S
H2450 C2479 0.950 . S
H2451 C2480 0.950 . S
H2452 C2482 0.950 . S
H2453 C2483 0.950 . S
C2454 H2436 0.951 . S
C2454 C2455 1.366 . S
C2454 C2456 1.388 . S
C2455 C2454 1.366 . S
C2455 C2459 1.385 . S
C2456 H2437 0.951 . S
C2456 C2454 1.388 . S
C2456 C2457 1.366 . S
C2457 C2456 1.366 . S
C2457 C2458 1.414 . S
C2457 C2460 1.499 1_455 S
C2458 H2438 0.950 . S
C2458 C2457 1.414 . S
C2458 C2459 1.374 . S
C2459 H2439 0.950 . S
C2459 C2455 1.385 . S
C2459 C2458 1.374 . S
C2460 C2457 1.499 1_655 S
C2460 C2461 1.373 . S
C2460 C2462 1.389 . S
C2461 H2440 0.950 . S
C2461 C2460 1.373 . S
C2461 C2477 1.377 . S
C2462 C2460 1.389 . S
C2462 C2463 1.524 1_655 S
C2462 C2476 1.377 . S
C2463 C2462 1.524 1_455 S
C2463 C2464 1.397 . S
C2463 C2468 1.363 . S
C2464 H2441 0.950 . S
C2464 C2463 1.397 . S
C2464 C2465 1.334 . S
C2465 H2442 0.950 . S
C2465 C2464 1.334 . S
C2465 C2466 1.287 . S
C2466 C2465 1.287 . S
C2466 C2467 1.524 . S
C2466 H2485 0.913 . S
C2467 H2443 0.950 . S
C2467 C2466 1.524 . S
C2467 C2468 1.415 . S
C2468 H2444 0.950 1_455 S
C2468 C2463 1.363 . S
C2468 C2467 1.415 . S
C2469 H2445 0.951 . S
C2469 C2470 1.366 . S
C2469 C2471 1.388 . S
C2470 C2469 1.366 . S
C2470 C2474 1.385 . S
C2471 H2446 0.951 . S
C2471 C2469 1.388 . S
C2471 C2472 1.366 . S
C2472 C2471 1.366 . S
C2472 C2473 1.414 . S
C2472 C2475 1.499 . S
C2473 H2447 0.950 . S
C2473 C2472 1.414 . S
C2473 C2474 1.374 . S
C2474 H2448 0.950 . S
C2474 C2470 1.385 . S
C2474 C2473 1.374 . S
C2475 C2472 1.499 . S
C2475 C2476 1.373 . S
C2475 C2477 1.389 . S
C2476 H2449 0.950 . S
C2476 C2462 1.377 . S
C2476 C2475 1.373 . S
C2477 C2461 1.377 . S
C2477 C2475 1.389 . S
C2477 C2478 1.524 . S
C2478 C2477 1.524 . S
C2478 C2479 1.397 . S
C2478 C2483 1.363 . S
C2479 H2450 0.950 . S
C2479 C2478 1.397 . S
C2479 C2480 1.334 . S
C2480 H2451 0.950 . S
C2480 C2479 1.334 . S
C2480 C2481 1.287 . S
C2481 C2480 1.287 . S
C2481 C2482 1.524 . S
C2481 H2484 0.999 . S
C2482 H2452 0.950 . S
C2482 C2481 1.524 . S
C2482 C2483 1.415 . S
C2483 H2453 0.950 . S
C2483 C2478 1.363 . S
C2483 C2482 1.415 . S
H2484 C2481 0.999 . S
H2485 C2466 0.913 . S
H2486 C2504 0.951 . S
H2487 C2506 0.951 . S
H2488 C2508 0.950 . S
H2489 C2509 0.950 . S
H2490 C2511 0.950 . S
H2491 C2514 0.950 . S
H2492 C2515 0.950 . S
H2493 C2517 0.950 . S
H2494 C2518 0.950 . S
H2495 C2519 0.951 . S
H2496 C2521 0.951 . S
H2497 C2523 0.950 . S
H2498 C2524 0.950 . S
H2499 C2526 0.950 . S
H2500 C2529 0.950 . S
H2501 C2530 0.950 . S
H2502 C2532 0.950 . S
H2503 C2533 0.950 . S
C2504 H2486 0.951 . S
C2504 C2505 1.366 . S
C2504 C2506 1.388 . S
C2505 C2504 1.366 . S
C2505 C2509 1.385 . S
C2506 H2487 0.951 . S
C2506 C2504 1.388 . S
C2506 C2507 1.366 . S
C2507 C2506 1.366 . S
C2507 C2508 1.414 . S
C2507 C2510 1.499 . S
C2508 H2488 0.950 . S
C2508 C2507 1.414 . S
C2508 C2509 1.374 . S
C2509 H2489 0.950 . S
C2509 C2505 1.385 . S
C2509 C2508 1.374 . S
C2510 C2507 1.499 . S
C2510 C2511 1.373 . S
C2510 C2512 1.389 . S
C2511 H2490 0.950 . S
C2511 C2510 1.373 . S
C2511 C2527 1.377 . S
C2512 C2510 1.389 . S
C2512 C2513 1.524 . S
C2512 C2526 1.377 . S
C2513 C2512 1.524 . S
C2513 C2514 1.397 . S
C2513 C2518 1.363 . S
C2514 H2491 0.950 . S
C2514 C2513 1.397 . S
C2514 C2515 1.334 . S
C2515 H2492 0.950 . S
C2515 C2514 1.334 . S
C2515 C2516 1.287 . S
C2516 C2515 1.287 . S
C2516 C2517 1.524 . S
C2516 H2535 0.913 . S
C2517 H2493 0.950 . S
C2517 C2516 1.524 . S
C2517 C2518 1.415 . S
C2518 H2494 0.950 . S
C2518 C2513 1.363 . S
C2518 C2517 1.415 . S
C2519 H2495 0.951 . S
C2519 C2520 1.366 . S
C2519 C2521 1.388 . S
C2520 C2519 1.366 . S
C2520 C2524 1.385 . S
C2521 H2496 0.951 . S
C2521 C2519 1.388 . S
C2521 C2522 1.366 . S
C2522 C2521 1.366 . S
C2522 C2523 1.414 . S
C2522 C2525 1.499 . S
C2523 H2497 0.950 . S
C2523 C2522 1.414 . S
C2523 C2524 1.374 . S
C2524 H2498 0.950 . S
C2524 C2520 1.385 . S
C2524 C2523 1.374 . S
C2525 C2522 1.499 . S
C2525 C2526 1.373 . S
C2525 C2527 1.389 . S
C2526 H2499 0.950 . S
C2526 C2512 1.377 . S
C2526 C2525 1.373 . S
C2527 C2511 1.377 . S
C2527 C2525 1.389 . S
C2527 C2528 1.524 . S
C2528 C2527 1.524 . S
C2528 C2529 1.397 . S
C2528 C2533 1.363 . S
C2529 H2500 0.950 . S
C2529 C2528 1.397 . S
C2529 C2530 1.334 . S
C2530 H2501 0.950 . S
C2530 C2529 1.334 . S
C2530 C2531 1.287 . S
C2531 C2530 1.287 . S
C2531 C2532 1.524 . S
C2531 H2534 0.999 . S
C2532 H2502 0.950 . S
C2532 C2531 1.524 . S
C2532 C2533 1.415 . S
C2533 H2503 0.950 . S
C2533 C2528 1.363 . S
C2533 C2532 1.415 . S
H2534 C2531 0.999 . S
H2535 C2516 0.913 . S
H2536 C2554 0.951 . S
H2537 C2556 0.951 . S
H2538 C2558 0.950 . S
H2539 C2559 0.950 . S
H2540 C2561 0.950 1_565 S
H2541 C2564 0.950 . S
H2542 C2565 0.950 . S
H2543 C2567 0.950 . S
H2544 C2568 0.965 . S
H2545 C2569 0.951 . S
H2546 C2571 0.951 . S
H2547 C2573 0.950 . S
H2548 C2574 0.950 . S
H2549 C2576 0.950 . S
H2550 C2579 0.950 . S
H2551 C2580 0.950 . S
H2552 C2582 0.950 . S
H2553 C2583 0.950 . S
C2554 H2536 0.951 . S
C2554 C2555 1.366 . S
C2554 C2556 1.388 . S
C2555 C2554 1.366 . S
C2555 C2559 1.385 . S
C2556 H2537 0.951 . S
C2556 C2554 1.388 . S
C2556 C2557 1.366 . S
C2557 C2556 1.366 . S
C2557 C2558 1.414 . S
C2557 C2560 1.499 . S
C2558 H2538 0.950 . S
C2558 C2557 1.414 . S
C2558 C2559 1.374 . S
C2559 H2539 0.950 . S
C2559 C2555 1.385 . S
C2559 C2558 1.374 . S
C2560 C2557 1.499 . S
C2560 C2561 1.373 1_565 S
C2560 C2562 1.389 1_565 S
C2561 H2540 0.950 1_545 S
C2561 C2560 1.373 1_545 S
C2561 C2577 1.377 . S
C2562 C2560 1.389 1_545 S
C2562 C2563 1.524 1_545 S
C2562 C2576 1.377 . S
C2563 C2562 1.524 1_565 S
C2563 C2564 1.397 . S
C2563 C2568 1.347 1_565 S
C2564 H2541 0.950 . S
C2564 C2563 1.397 . S
C2564 C2565 1.334 . S
C2565 H2542 0.950 . S
C2565 C2564 1.334 . S
C2565 C2566 1.287 . S
C2566 C2565 1.287 . S
C2566 C2567 1.524 . S
C2566 H2585 0.913 . S
C2567 H2543 0.950 . S
C2567 C2566 1.524 . S
C2567 C2568 1.417 1_565 S
C2568 H2544 0.965 . S
C2568 C2563 1.347 1_545 S
C2568 C2567 1.417 1_545 S
C2569 H2545 0.951 . S
C2569 C2570 1.366 . S
C2569 C2571 1.388 . S
C2570 C2569 1.366 . S
C2570 C2574 1.385 . S
C2571 H2546 0.951 . S
C2571 C2569 1.388 . S
C2571 C2572 1.366 . S
C2572 C2571 1.366 . S
C2572 C2573 1.414 . S
C2572 C2575 1.499 . S
C2573 H2547 0.950 . S
C2573 C2572 1.414 . S
C2573 C2574 1.374 . S
C2574 H2548 0.950 . S
C2574 C2570 1.385 . S
C2574 C2573 1.374 . S
C2575 C2572 1.499 . S
C2575 C2576 1.373 . S
C2575 C2577 1.389 . S
C2576 H2549 0.950 . S
C2576 C2562 1.377 . S
C2576 C2575 1.373 . S
C2577 C2561 1.377 . S
C2577 C2575 1.389 . S
C2577 C2578 1.524 . S
C2578 C2577 1.524 . S
C2578 C2579 1.397 . S
C2578 C2583 1.363 . S
C2579 H2550 0.950 . S
C2579 C2578 1.397 . S
C2579 C2580 1.334 . S
C2580 H2551 0.950 . S
C2580 C2579 1.334 . S
C2580 C2581 1.287 . S
C2581 C2580 1.287 . S
C2581 C2582 1.524 . S
C2581 H2584 0.999 . S
C2582 H2552 0.950 . S
C2582 C2581 1.524 . S
C2582 C2583 1.415 . S
C2583 H2553 0.950 . S
C2583 C2578 1.363 . S
C2583 C2582 1.415 . S
H2584 C2581 0.999 . S
H2585 C2566 0.913 . S
H2586 C2604 0.951 . S
H2587 C2606 0.951 . S
H2588 C2608 0.950 . S
H2589 C2609 0.950 . S
H2590 C2611 0.950 . S
H2591 C2614 0.950 . S
H2592 C2615 0.950 . S
H2593 C2617 0.950 . S
H2594 C2618 0.950 . S
H2595 C2619 0.951 . S
H2596 C2621 0.951 . S
H2597 C2623 0.950 . S
H2598 C2624 0.950 . S
H2599 C2626 0.950 . S
H2600 C2629 0.950 . S
H2601 C2630 0.950 . S
H2602 C2632 0.950 . S
H2603 C2633 0.950 . S
C2604 H2586 0.951 . S
C2604 C2605 1.366 . S
C2604 C2606 1.388 . S
C2605 C2604 1.366 . S
C2605 C2609 1.385 . S
C2606 H2587 0.951 . S
C2606 C2604 1.388 . S
C2606 C2607 1.366 . S
C2607 C2606 1.366 . S
C2607 C2608 1.414 . S
C2607 C2610 1.499 . S
C2608 H2588 0.950 . S
C2608 C2607 1.414 . S
C2608 C2609 1.374 . S
C2609 H2589 0.950 . S
C2609 C2605 1.385 . S
C2609 C2608 1.374 . S
C2610 C2607 1.499 . S
C2610 C2611 1.373 . S
C2610 C2612 1.389 . S
C2611 H2590 0.950 . S
C2611 C2610 1.373 . S
C2611 C2627 1.377 . S
C2612 C2610 1.389 . S
C2612 C2613 1.524 . S
C2612 C2626 1.377 . S
C2613 C2612 1.524 . S
C2613 C2614 1.397 . S
C2613 C2618 1.363 . S
C2614 H2591 0.950 . S
C2614 C2613 1.397 . S
C2614 C2615 1.334 . S
C2615 H2592 0.950 . S
C2615 C2614 1.334 . S
C2615 C2616 1.287 . S
C2616 C2615 1.287 . S
C2616 C2617 1.524 . S
C2616 H2635 0.913 . S
C2617 H2593 0.950 . S
C2617 C2616 1.524 . S
C2617 C2618 1.415 . S
C2618 H2594 0.950 . S
C2618 C2613 1.363 . S
C2618 C2617 1.415 . S
C2619 H2595 0.951 . S
C2619 C2620 1.366 . S
C2619 C2621 1.388 . S
C2620 C2619 1.366 . S
C2620 C2624 1.385 . S
C2621 H2596 0.951 . S
C2621 C2619 1.388 . S
C2621 C2622 1.366 . S
C2622 C2621 1.366 . S
C2622 C2623 1.414 . S
C2622 C2625 1.499 . S
C2623 H2597 0.950 . S
C2623 C2622 1.414 . S
C2623 C2624 1.374 . S
C2624 H2598 0.950 . S
C2624 C2620 1.385 . S
C2624 C2623 1.374 . S
C2625 C2622 1.499 . S
C2625 C2626 1.373 . S
C2625 C2627 1.389 . S
C2626 H2599 0.950 . S
C2626 C2612 1.377 . S
C2626 C2625 1.373 . S
C2627 C2611 1.377 . S
C2627 C2625 1.389 . S
C2627 C2628 1.524 . S
C2628 C2627 1.524 . S
C2628 C2629 1.397 . S
C2628 C2633 1.363 . S
C2629 H2600 0.950 . S
C2629 C2628 1.397 . S
C2629 C2630 1.334 . S
C2630 H2601 0.950 . S
C2630 C2629 1.334 . S
C2630 C2631 1.287 . S
C2631 C2630 1.287 . S
C2631 C2632 1.524 . S
C2631 H2634 0.999 . S
C2632 H2602 0.950 . S
C2632 C2631 1.524 . S
C2632 C2633 1.415 . S
C2633 H2603 0.950 . S
C2633 C2628 1.363 . S
C2633 C2632 1.415 . S
H2634 C2631 0.999 . S
H2635 C2616 0.913 . S
H2636 C2654 0.951 . S
H2637 C2656 0.951 . S
H2638 C2658 0.950 . S
H2639 C2659 0.950 . S
H2640 C2661 0.950 . S
H2641 C2664 0.950 . S
H2642 C2665 0.950 . S
H2643 C2667 0.950 . S
H2644 C2668 0.950 . S
H2645 C2669 0.951 . S
H2646 C2671 0.951 . S
H2647 C2673 0.950 . S
H2648 C2674 0.950 . S
H2649 C2676 0.950 . S
H2650 C2679 0.950 . S
H2651 C2680 0.950 . S
H2652 C2682 0.950 . S
H2653 C2683 0.950 . S
C2654 H2636 0.951 . S
C2654 C2655 1.366 . S
C2654 C2656 1.388 . S
C2655 C2654 1.366 . S
C2655 C2659 1.385 . S
C2656 H2637 0.951 . S
C2656 C2654 1.388 . S
C2656 C2657 1.366 . S
C2657 C2656 1.366 . S
C2657 C2658 1.414 . S
C2657 C2660 1.499 . S
C2658 H2638 0.950 . S
C2658 C2657 1.414 . S
C2658 C2659 1.374 . S
C2659 H2639 0.950 . S
C2659 C2655 1.385 . S
C2659 C2658 1.374 . S
C2660 C2657 1.499 . S
C2660 C2661 1.373 . S
C2660 C2662 1.389 . S
C2661 H2640 0.950 . S
C2661 C2660 1.373 . S
C2661 C2677 1.377 . S
C2662 C2660 1.389 . S
C2662 C2663 1.524 . S
C2662 C2676 1.377 . S
C2663 C2662 1.524 . S
C2663 C2664 1.397 . S
C2663 C2668 1.363 . S
C2664 H2641 0.950 . S
C2664 C2663 1.397 . S
C2664 C2665 1.334 . S
C2665 H2642 0.950 . S
C2665 C2664 1.334 . S
C2665 C2666 1.287 . S
C2666 C2665 1.287 . S
C2666 C2667 1.524 . S
C2666 H2685 0.913 . S
C2667 H2643 0.950 . S
C2667 C2666 1.524 . S
C2667 C2668 1.415 . S
C2668 H2644 0.950 . S
C2668 C2663 1.363 . S
C2668 C2667 1.415 . S
C2669 H2645 0.951 . S
C2669 C2670 1.366 . S
C2669 C2671 1.388 . S
C2670 C2669 1.366 . S
C2670 C2674 1.385 . S
C2671 H2646 0.951 . S
C2671 C2669 1.388 . S
C2671 C2672 1.366 . S
C2672 C2671 1.366 . S
C2672 C2673 1.414 . S
C2672 C2675 1.499 . S
C2673 H2647 0.950 . S
C2673 C2672 1.414 . S
C2673 C2674 1.374 . S
C2674 H2648 0.950 . S
C2674 C2670 1.385 . S
C2674 C2673 1.374 . S
C2675 C2672 1.499 . S
C2675 C2676 1.373 . S
C2675 C2677 1.389 . S
C2676 H2649 0.950 . S
C2676 C2662 1.377 . S
C2676 C2675 1.373 . S
C2677 C2661 1.377 . S
C2677 C2675 1.389 . S
C2677 C2678 1.524 . S
C2678 C2677 1.524 . S
C2678 C2679 1.397 . S
C2678 C2683 1.363 . S
C2679 H2650 0.950 . S
C2679 C2678 1.397 . S
C2679 C2680 1.334 . S
C2680 H2651 0.950 . S
C2680 C2679 1.334 . S
C2680 C2681 1.287 . S
C2681 C2680 1.287 . S
C2681 C2682 1.524 . S
C2681 H2684 0.999 . S
C2682 H2652 0.950 . S
C2682 C2681 1.524 . S
C2682 C2683 1.415 . S
C2683 H2653 0.950 . S
C2683 C2678 1.363 . S
C2683 C2682 1.415 . S
H2684 C2681 0.999 . S
H2685 C2666 0.913 . S
H2686 C2704 0.951 . S
H2687 C2706 0.951 . S
H2688 C2708 0.950 . S
H2689 C2709 0.950 . S
H2690 C2711 0.950 . S
H2691 C2714 0.950 . S
H2692 C2715 0.950 . S
H2693 C2717 0.950 . S
H2694 C2718 0.950 . S
H2695 C2719 0.951 . S
H2696 C2721 0.951 . S
H2697 C2723 0.950 . S
H2698 C2724 0.950 . S
H2699 C2726 0.950 . S
H2700 C2729 0.950 . S
H2701 C2730 0.950 . S
H2702 C2732 0.950 . S
H2703 C2733 0.950 . S
C2704 H2686 0.951 . S
C2704 C2705 1.366 . S
C2704 C2706 1.388 . S
C2705 C2704 1.366 . S
C2705 C2709 1.385 . S
C2706 H2687 0.951 . S
C2706 C2704 1.388 . S
C2706 C2707 1.366 . S
C2707 C2706 1.366 . S
C2707 C2708 1.414 . S
C2707 C2710 1.499 . S
C2708 H2688 0.950 . S
C2708 C2707 1.414 . S
C2708 C2709 1.374 . S
C2709 H2689 0.950 . S
C2709 C2705 1.385 . S
C2709 C2708 1.374 . S
C2710 C2707 1.499 . S
C2710 C2711 1.373 . S
C2710 C2712 1.389 . S
C2711 H2690 0.950 . S
C2711 C2710 1.373 . S
C2711 C2727 1.377 . S
C2712 C2710 1.389 . S
C2712 C2713 1.524 . S
C2712 C2726 1.377 . S
C2713 C2712 1.524 . S
C2713 C2714 1.397 . S
C2713 C2718 1.363 . S
C2714 H2691 0.950 . S
C2714 C2713 1.397 . S
C2714 C2715 1.334 . S
C2715 H2692 0.950 . S
C2715 C2714 1.334 . S
C2715 C2716 1.287 . S
C2716 C2715 1.287 . S
C2716 C2717 1.524 . S
C2716 H2735 0.913 . S
C2717 H2693 0.950 . S
C2717 C2716 1.524 . S
C2717 C2718 1.415 . S
C2718 H2694 0.950 . S
C2718 C2713 1.363 . S
C2718 C2717 1.415 . S
C2719 H2695 0.951 . S
C2719 C2720 1.366 . S
C2719 C2721 1.388 . S
C2720 C2719 1.366 . S
C2720 C2724 1.385 . S
C2721 H2696 0.951 . S
C2721 C2719 1.388 . S
C2721 C2722 1.366 . S
C2722 C2721 1.366 . S
C2722 C2723 1.414 . S
C2722 C2725 1.499 . S
C2723 H2697 0.950 . S
C2723 C2722 1.414 . S
C2723 C2724 1.374 . S
C2724 H2698 0.950 . S
C2724 C2720 1.385 . S
C2724 C2723 1.374 . S
C2725 C2722 1.499 . S
C2725 C2726 1.373 . S
C2725 C2727 1.389 . S
C2726 H2699 0.950 . S
C2726 C2712 1.377 . S
C2726 C2725 1.373 . S
C2727 C2711 1.377 . S
C2727 C2725 1.389 . S
C2727 C2728 1.524 . S
C2728 C2727 1.524 . S
C2728 C2729 1.397 . S
C2728 C2733 1.363 . S
C2729 H2700 0.950 . S
C2729 C2728 1.397 . S
C2729 C2730 1.334 . S
C2730 H2701 0.950 . S
C2730 C2729 1.334 . S
C2730 C2731 1.287 . S
C2731 C2730 1.287 . S
C2731 C2732 1.524 . S
C2731 H2734 0.999 . S
C2732 H2702 0.950 . S
C2732 C2731 1.524 . S
C2732 C2733 1.415 . S
C2733 H2703 0.950 . S
C2733 C2728 1.363 . S
C2733 C2732 1.415 . S
H2734 C2731 0.999 . S
H2735 C2716 0.913 . S
H2736 C2754 0.951 . S
H2737 C2756 0.951 . S
H2738 C2758 0.950 . S
H2739 C2759 0.950 . S
H2740 C2761 0.950 . S
H2741 C2764 0.950 . S
H2742 C2765 0.950 . S
H2743 C2767 0.950 . S
H2744 C2768 0.950 . S
H2745 C2769 0.951 . S
H2746 C2771 0.951 . S
H2747 C2773 0.960 . S
H2748 C2774 0.950 . S
H2749 C2776 0.950 . S
H2750 C2779 0.950 . S
H2751 C2780 0.950 . S
H2752 C2782 0.950 . S
H2753 C2783 0.950 . S
C2754 H2736 0.951 . S
C2754 C2755 1.366 . S
C2754 C2756 1.388 . S
C2755 C2754 1.366 . S
C2755 C2759 1.385 . S
C2756 H2737 0.951 . S
C2756 C2754 1.388 . S
C2756 C2757 1.366 . S
C2757 C2756 1.366 . S
C2757 C2758 1.414 . S
C2757 C2760 1.499 . S
C2758 H2738 0.950 . S
C2758 C2757 1.414 . S
C2758 C2759 1.374 . S
C2759 H2739 0.950 . S
C2759 C2755 1.385 . S
C2759 C2758 1.374 . S
C2760 C2757 1.499 . S
C2760 C2761 1.373 . S
C2760 C2762 1.389 . S
C2761 H2740 0.950 . S
C2761 C2760 1.373 . S
C2761 C2777 1.377 . S
C2762 C2760 1.389 . S
C2762 C2763 1.524 . S
C2762 C2776 1.377 . S
C2763 C2762 1.524 . S
C2763 C2764 1.397 . S
C2763 C2768 1.363 1_565 S
C2764 H2741 0.950 . S
C2764 C2763 1.397 . S
C2764 C2765 1.334 . S
C2765 H2742 0.950 . S
C2765 C2764 1.334 . S
C2765 C2766 1.287 . S
C2766 C2765 1.287 . S
C2766 C2767 1.524 1_565 S
C2766 H2785 0.913 1_565 S
C2767 H2743 0.950 . S
C2767 C2766 1.524 1_545 S
C2767 C2768 1.415 . S
C2768 H2744 0.950 . S
C2768 C2763 1.363 1_545 S
C2768 C2767 1.415 . S
C2769 H2745 0.951 . S
C2769 C2770 1.366 . S
C2769 C2771 1.388 . S
C2770 C2769 1.366 . S
C2770 C2774 1.385 1_565 S
C2771 H2746 0.951 . S
C2771 C2769 1.388 . S
C2771 C2772 1.366 . S
C2772 C2771 1.366 . S
C2772 C2773 1.401 1_565 S
C2772 C2775 1.499 . S
C2773 H2747 0.960 . S
C2773 C2772 1.401 1_545 S
C2773 C2774 1.378 . S
C2774 H2748 0.950 . S
C2774 C2770 1.385 1_545 S
C2774 C2773 1.378 . S
C2775 C2772 1.499 . S
C2775 C2776 1.373 . S
C2775 C2777 1.389 . S
C2776 H2749 0.950 . S
C2776 C2762 1.377 . S
C2776 C2775 1.373 . S
C2777 C2761 1.377 . S
C2777 C2775 1.389 . S
C2777 C2778 1.524 . S
C2778 C2777 1.524 . S
C2778 C2779 1.397 . S
C2778 C2783 1.363 . S
C2779 H2750 0.950 . S
C2779 C2778 1.397 . S
C2779 C2780 1.334 . S
C2780 H2751 0.950 . S
C2780 C2779 1.334 . S
C2780 C2781 1.287 . S
C2781 C2780 1.287 . S
C2781 C2782 1.524 . S
C2781 H2784 0.999 . S
C2782 H2752 0.950 . S
C2782 C2781 1.524 . S
C2782 C2783 1.415 . S
C2783 H2753 0.950 . S
C2783 C2778 1.363 . S
C2783 C2782 1.415 . S
H2784 C2781 0.999 . S
H2785 C2766 0.913 1_545 S
H2786 C2804 0.951 . S
H2787 C2806 0.951 . S
H2788 C2808 0.950 . S
H2789 C2809 0.950 . S
H2790 C2811 0.950 . S
H2791 C2814 0.950 . S
H2792 C2815 0.950 . S
H2793 C2817 0.950 . S
H2794 C2818 0.950 . S
H2795 C2819 0.951 . S
H2796 C2821 0.951 . S
H2797 C2823 0.950 . S
H2798 C2824 0.950 . S
H2799 C2826 0.950 . S
H2800 C2829 0.950 . S
H2801 C2830 0.950 . S
H2802 C2832 0.950 . S
H2803 C2833 0.950 . S
C2804 H2786 0.951 . S
C2804 C2805 1.366 . S
C2804 C2806 1.388 . S
C2805 C2804 1.366 . S
C2805 C2809 1.385 . S
C2806 H2787 0.951 . S
C2806 C2804 1.388 . S
C2806 C2807 1.366 . S
C2807 C2806 1.366 . S
C2807 C2808 1.414 . S
C2807 C2810 1.499 . S
C2808 H2788 0.950 . S
C2808 C2807 1.414 . S
C2808 C2809 1.374 . S
C2809 H2789 0.950 . S
C2809 C2805 1.385 . S
C2809 C2808 1.374 . S
C2810 C2807 1.499 . S
C2810 C2811 1.373 . S
C2810 C2812 1.389 . S
C2811 H2790 0.950 . S
C2811 C2810 1.373 . S
C2811 C2827 1.377 . S
C2812 C2810 1.389 . S
C2812 C2813 1.524 1_455 S
C2812 C2826 1.377 . S
C2813 C2812 1.524 1_655 S
C2813 C2814 1.397 . S
C2813 C2818 1.363 1_655 S
C2814 H2791 0.950 . S
C2814 C2813 1.397 . S
C2814 C2815 1.334 . S
C2815 H2792 0.950 . S
C2815 C2814 1.334 . S
C2815 C2816 1.287 . S
C2816 C2815 1.287 . S
C2816 C2817 1.524 . S
C2816 H2835 0.913 . S
C2817 H2793 0.950 . S
C2817 C2816 1.524 . S
C2817 C2818 1.415 1_655 S
C2818 H2794 0.950 . S
C2818 C2813 1.363 1_455 S
C2818 C2817 1.415 1_455 S
C2819 H2795 0.951 . S
C2819 C2820 1.366 . S
C2819 C2821 1.388 . S
C2820 C2819 1.366 . S
C2820 C2824 1.385 . S
C2821 H2796 0.951 . S
C2821 C2819 1.388 . S
C2821 C2822 1.366 . S
C2822 C2821 1.366 . S
C2822 C2823 1.414 . S
C2822 C2825 1.499 . S
C2823 H2797 0.950 . S
C2823 C2822 1.414 . S
C2823 C2824 1.374 . S
C2824 H2798 0.950 . S
C2824 C2820 1.385 . S
C2824 C2823 1.374 . S
C2825 C2822 1.499 . S
C2825 C2826 1.373 . S
C2825 C2827 1.389 . S
C2826 H2799 0.950 . S
C2826 C2812 1.377 . S
C2826 C2825 1.373 . S
C2827 C2811 1.377 . S
C2827 C2825 1.389 . S
C2827 C2828 1.524 . S
C2828 C2827 1.524 . S
C2828 C2829 1.397 . S
C2828 C2833 1.363 . S
C2829 H2800 0.950 . S
C2829 C2828 1.397 . S
C2829 C2830 1.334 . S
C2830 H2801 0.950 . S
C2830 C2829 1.334 . S
C2830 C2831 1.287 . S
C2831 C2830 1.287 . S
C2831 C2832 1.524 . S
C2831 H2834 0.999 . S
C2832 H2802 0.950 . S
C2832 C2831 1.524 . S
C2832 C2833 1.415 . S
C2833 H2803 0.950 . S
C2833 C2828 1.363 . S
C2833 C2832 1.415 . S
H2834 C2831 0.999 . S
H2835 C2816 0.913 . S
H2836 C2854 0.951 . S
H2837 C2856 0.951 . S
H2838 C2858 0.950 . S
H2839 C2859 0.950 . S
H2840 C2861 0.950 . S
H2841 C2864 0.950 . S
H2842 C2865 0.950 . S
H2843 C2867 0.950 . S
H2844 C2868 0.950 . S
H2845 C2869 0.951 . S
H2846 C2871 0.951 . S
H2847 C2873 0.950 . S
H2848 C2874 0.950 . S
H2849 C2876 0.950 . S
H2850 C2879 0.950 . S
H2851 C2880 0.950 . S
H2852 C2882 0.950 . S
H2853 C2883 0.950 . S
C2854 H2836 0.951 . S
C2854 C2855 1.366 . S
C2854 C2856 1.388 . S
C2855 C2854 1.366 . S
C2855 C2859 1.385 . S
C2856 H2837 0.951 . S
C2856 C2854 1.388 . S
C2856 C2857 1.366 . S
C2857 C2856 1.366 . S
C2857 C2858 1.414 . S
C2857 C2860 1.499 . S
C2858 H2838 0.950 . S
C2858 C2857 1.414 . S
C2858 C2859 1.374 . S
C2859 H2839 0.950 . S
C2859 C2855 1.385 . S
C2859 C2858 1.374 . S
C2860 C2857 1.499 . S
C2860 C2861 1.373 . S
C2860 C2862 1.389 . S
C2861 H2840 0.950 . S
C2861 C2860 1.373 . S
C2861 C2877 1.377 . S
C2862 C2860 1.389 . S
C2862 C2863 1.524 . S
C2862 C2876 1.377 . S
C2863 C2862 1.524 . S
C2863 C2864 1.397 . S
C2863 C2868 1.363 . S
C2864 H2841 0.950 . S
C2864 C2863 1.397 . S
C2864 C2865 1.334 . S
C2865 H2842 0.950 . S
C2865 C2864 1.334 . S
C2865 C2866 1.287 . S
C2866 C2865 1.287 . S
C2866 C2867 1.524 . S
C2866 H2885 0.913 . S
C2867 H2843 0.950 . S
C2867 C2866 1.524 . S
C2867 C2868 1.415 . S
C2868 H2844 0.950 . S
C2868 C2863 1.363 . S
C2868 C2867 1.415 . S
C2869 H2845 0.951 . S
C2869 C2870 1.366 . S
C2869 C2871 1.388 . S
C2870 C2869 1.366 . S
C2870 C2874 1.385 . S
C2871 H2846 0.951 . S
C2871 C2869 1.388 . S
C2871 C2872 1.366 . S
C2872 C2871 1.366 . S
C2872 C2873 1.414 . S
C2872 C2875 1.499 . S
C2873 H2847 0.950 . S
C2873 C2872 1.414 . S
C2873 C2874 1.374 . S
C2874 H2848 0.950 . S
C2874 C2870 1.385 . S
C2874 C2873 1.374 . S
C2875 C2872 1.499 . S
C2875 C2876 1.373 . S
C2875 C2877 1.389 . S
C2876 H2849 0.950 . S
C2876 C2862 1.377 . S
C2876 C2875 1.373 . S
C2877 C2861 1.377 . S
C2877 C2875 1.389 . S
C2877 C2878 1.524 . S
C2878 C2877 1.524 . S
C2878 C2879 1.397 . S
C2878 C2883 1.363 . S
C2879 H2850 0.950 . S
C2879 C2878 1.397 . S
C2879 C2880 1.334 . S
C2880 H2851 0.950 . S
C2880 C2879 1.334 . S
C2880 C2881 1.287 . S
C2881 C2880 1.287 . S
C2881 C2882 1.524 . S
C2881 H2884 0.999 . S
C2882 H2852 0.950 . S
C2882 C2881 1.524 . S
C2882 C2883 1.415 . S
C2883 H2853 0.950 . S
C2883 C2878 1.363 . S
C2883 C2882 1.415 . S
H2884 C2881 0.999 . S
H2885 C2866 0.913 . S
H2886 C2904 0.951 . S
H2887 C2906 0.951 . S
H2888 C2908 0.950 . S
H2889 C2909 0.950 . S
H2890 C2911 0.950 1_455 S
H2891 C2914 0.950 . S
H2892 C2915 0.950 . S
H2893 C2917 0.950 . S
H2894 C2918 0.950 . S
H2895 C2919 0.951 . S
H2896 C2921 0.951 . S
H2897 C2923 0.950 . S
H2898 C2924 0.950 . S
H2899 C2926 0.950 . S
H2900 C2929 0.950 . S
H2901 C2930 0.950 . S
H2902 C2932 0.950 . S
H2903 C2933 0.950 . S
C2904 H2886 0.951 . S
C2904 C2905 1.366 . S
C2904 C2906 1.388 . S
C2905 C2904 1.366 . S
C2905 C2909 1.385 . S
C2906 H2887 0.951 . S
C2906 C2904 1.388 . S
C2906 C2907 1.366 . S
C2907 C2906 1.366 . S
C2907 C2908 1.414 . S
C2907 C2910 1.499 . S
C2908 H2888 0.950 . S
C2908 C2907 1.414 . S
C2908 C2909 1.374 . S
C2909 H2889 0.950 . S
C2909 C2905 1.385 . S
C2909 C2908 1.374 . S
C2910 C2907 1.499 . S
C2910 C2911 1.373 . S
C2910 C2912 1.389 . S
C2911 H2890 0.950 1_655 S
C2911 C2910 1.373 . S
C2911 C2927 1.376 . S
C2912 C2910 1.389 . S
C2912 C2913 1.524 . S
C2912 C2926 1.377 . S
C2913 C2912 1.524 . S
C2913 C2914 1.397 . S
C2913 C2918 1.363 . S
C2914 H2891 0.950 . S
C2914 C2913 1.397 . S
C2914 C2915 1.334 . S
C2915 H2892 0.950 . S
C2915 C2914 1.334 . S
C2915 C2916 1.287 . S
C2916 C2915 1.287 . S
C2916 C2917 1.524 . S
C2916 H2935 0.913 . S
C2917 H2893 0.950 . S
C2917 C2916 1.524 . S
C2917 C2918 1.415 . S
C2918 H2894 0.950 . S
C2918 C2913 1.363 . S
C2918 C2917 1.415 . S
C2919 H2895 0.951 . S
C2919 C2920 1.366 . S
C2919 C2921 1.388 . S
C2920 C2919 1.366 . S
C2920 C2924 1.385 . S
C2921 H2896 0.951 . S
C2921 C2919 1.388 . S
C2921 C2922 1.366 . S
C2922 C2921 1.366 . S
C2922 C2923 1.414 . S
C2922 C2925 1.499 . S
C2923 H2897 0.950 . S
C2923 C2922 1.414 . S
C2923 C2924 1.374 . S
C2924 H2898 0.950 . S
C2924 C2920 1.385 . S
C2924 C2923 1.374 . S
C2925 C2922 1.499 . S
C2925 C2926 1.373 . S
C2925 C2927 1.388 . S
C2926 H2899 0.950 . S
C2926 C2912 1.377 . S
C2926 C2925 1.373 . S
C2927 C2911 1.376 . S
C2927 C2925 1.388 . S
C2927 C2928 1.526 1_655 S
C2928 C2927 1.526 1_455 S
C2928 C2929 1.397 . S
C2928 C2933 1.363 . S
C2929 H2900 0.950 . S
C2929 C2928 1.397 . S
C2929 C2930 1.334 . S
C2930 H2901 0.950 . S
C2930 C2929 1.334 . S
C2930 C2931 1.287 . S
C2931 C2930 1.287 . S
C2931 C2932 1.524 . S
C2931 H2934 0.999 . S
C2932 H2902 0.950 . S
C2932 C2931 1.524 . S
C2932 C2933 1.415 . S
C2933 H2903 0.950 . S
C2933 C2928 1.363 . S
C2933 C2932 1.415 . S
H2934 C2931 0.999 . S
H2935 C2916 0.913 . S
H2936 C2954 0.951 . S
H2937 C2956 0.951 . S
H2938 C2958 0.950 . S
H2939 C2959 0.950 . S
H2940 C2961 0.950 . S
H2941 C2964 0.950 . S
H2942 C2965 0.950 . S
H2943 C2967 0.950 . S
H2944 C2968 0.950 . S
H2945 C2969 0.951 . S
H2946 C2971 0.951 . S
H2947 C2973 0.950 . S
H2948 C2974 0.950 . S
H2949 C2976 0.950 . S
H2950 C2979 0.950 . S
H2951 C2980 0.950 . S
H2952 C2982 0.950 . S
H2953 C2983 0.950 . S
C2954 H2936 0.951 . S
C2954 C2955 1.366 . S
C2954 C2956 1.388 . S
C2955 C2954 1.366 . S
C2955 C2959 1.385 . S
C2956 H2937 0.951 . S
C2956 C2954 1.388 . S
C2956 C2957 1.366 . S
C2957 C2956 1.366 . S
C2957 C2958 1.414 . S
C2957 C2960 1.499 . S
C2958 H2938 0.950 . S
C2958 C2957 1.414 . S
C2958 C2959 1.374 . S
C2959 H2939 0.950 . S
C2959 C2955 1.385 . S
C2959 C2958 1.374 . S
C2960 C2957 1.499 . S
C2960 C2961 1.373 . S
C2960 C2962 1.389 . S
C2961 H2940 0.950 . S
C2961 C2960 1.373 . S
C2961 C2977 1.377 . S
C2962 C2960 1.389 . S
C2962 C2963 1.524 . S
C2962 C2976 1.377 . S
C2963 C2962 1.524 . S
C2963 C2964 1.397 . S
C2963 C2968 1.363 . S
C2964 H2941 0.950 . S
C2964 C2963 1.397 . S
C2964 C2965 1.334 . S
C2965 H2942 0.950 . S
C2965 C2964 1.334 . S
C2965 C2966 1.287 . S
C2966 C2965 1.287 . S
C2966 C2967 1.524 . S
C2966 H2985 0.913 . S
C2967 H2943 0.950 . S
C2967 C2966 1.524 . S
C2967 C2968 1.415 . S
C2968 H2944 0.950 . S
C2968 C2963 1.363 . S
C2968 C2967 1.415 . S
C2969 H2945 0.951 . S
C2969 C2970 1.366 . S
C2969 C2971 1.388 . S
C2970 C2969 1.366 . S
C2970 C2974 1.385 . S
C2971 H2946 0.951 . S
C2971 C2969 1.388 . S
C2971 C2972 1.366 . S
C2972 C2971 1.366 . S
C2972 C2973 1.414 . S
C2972 C2975 1.499 . S
C2973 H2947 0.950 . S
C2973 C2972 1.414 . S
C2973 C2974 1.374 . S
C2974 H2948 0.950 . S
C2974 C2970 1.385 . S
C2974 C2973 1.374 . S
C2975 C2972 1.499 . S
C2975 C2976 1.373 . S
C2975 C2977 1.389 . S
C2976 H2949 0.950 . S
C2976 C2962 1.377 . S
C2976 C2975 1.373 . S
C2977 C2961 1.377 . S
C2977 C2975 1.389 . S
C2977 C2978 1.524 . S
C2978 C2977 1.524 . S
C2978 C2979 1.397 . S
C2978 C2983 1.363 . S
C2979 H2950 0.950 . S
C2979 C2978 1.397 . S
C2979 C2980 1.334 . S
C2980 H2951 0.950 . S
C2980 C2979 1.334 . S
C2980 C2981 1.287 . S
C2981 C2980 1.287 . S
C2981 C2982 1.524 . S
C2981 H2984 0.999 . S
C2982 H2952 0.950 . S
C2982 C2981 1.524 . S
C2982 C2983 1.415 . S
C2983 H2953 0.950 . S
C2983 C2978 1.363 . S
C2983 C2982 1.415 . S
H2984 C2981 0.999 . S
H2985 C2966 0.913 . S
H2986 C3004 0.951 . S
H2987 C3006 0.951 . S
H2988 C3008 0.950 . S
H2989 C3009 0.950 . S
H2990 C3011 0.950 . S
H2991 C3014 0.950 . S
H2992 C3015 0.950 . S
H2993 C3017 0.950 . S
H2994 C3018 0.950 . S
H2995 C3019 0.951 . S
H2996 C3021 0.951 . S
H2997 C3023 0.950 . S
H2998 C3024 0.950 . S
H2999 C3026 0.950 . S
H3000 C3029 0.950 . S
H3001 C3030 0.950 . S
H3002 C3032 0.950 . S
H3003 C3033 0.950 . S
C3004 H2986 0.951 . S
C3004 C3005 1.366 . S
C3004 C3006 1.388 . S
C3005 C3004 1.366 . S
C3005 C3009 1.385 . S
C3006 H2987 0.951 . S
C3006 C3004 1.388 . S
C3006 C3007 1.366 . S
C3007 C3006 1.366 . S
C3007 C3008 1.414 . S
C3007 C3010 1.499 . S
C3008 H2988 0.950 . S
C3008 C3007 1.414 . S
C3008 C3009 1.374 . S
C3009 H2989 0.950 . S
C3009 C3005 1.385 . S
C3009 C3008 1.374 . S
C3010 C3007 1.499 . S
C3010 C3011 1.373 . S
C3010 C3012 1.389 . S
C3011 H2990 0.950 . S
C3011 C3010 1.373 . S
C3011 C3027 1.377 . S
C3012 C3010 1.389 . S
C3012 C3013 1.524 . S
C3012 C3026 1.377 . S
C3013 C3012 1.524 . S
C3013 C3014 1.397 . S
C3013 C3018 1.363 . S
C3014 H2991 0.950 . S
C3014 C3013 1.397 . S
C3014 C3015 1.334 . S
C3015 H2992 0.950 . S
C3015 C3014 1.334 . S
C3015 C3016 1.287 . S
C3016 C3015 1.287 . S
C3016 C3017 1.524 . S
C3016 H3035 0.913 . S
C3017 H2993 0.950 . S
C3017 C3016 1.524 . S
C3017 C3018 1.415 . S
C3018 H2994 0.950 . S
C3018 C3013 1.363 . S
C3018 C3017 1.415 . S
C3019 H2995 0.951 . S
C3019 C3020 1.366 . S
C3019 C3021 1.388 . S
C3020 C3019 1.366 . S
C3020 C3024 1.385 . S
C3021 H2996 0.951 . S
C3021 C3019 1.388 . S
C3021 C3022 1.366 . S
C3022 C3021 1.366 . S
C3022 C3023 1.414 . S
C3022 C3025 1.499 . S
C3023 H2997 0.950 . S
C3023 C3022 1.414 . S
C3023 C3024 1.374 . S
C3024 H2998 0.950 . S
C3024 C3020 1.385 . S
C3024 C3023 1.374 . S
C3025 C3022 1.499 . S
C3025 C3026 1.373 . S
C3025 C3027 1.389 . S
C3026 H2999 0.950 . S
C3026 C3012 1.377 . S
C3026 C3025 1.373 . S
C3027 C3011 1.377 . S
C3027 C3025 1.389 . S
C3027 C3028 1.524 1_545 S
C3028 C3027 1.524 1_565 S
C3028 C3029 1.397 . S
C3028 C3033 1.363 . S
C3029 H3000 0.950 . S
C3029 C3028 1.397 . S
C3029 C3030 1.334 . S
C3030 H3001 0.950 . S
C3030 C3029 1.334 . S
C3030 C3031 1.287 . S
C3031 C3030 1.287 . S
C3031 C3032 1.524 . S
C3031 H3034 0.999 . S
C3032 H3002 0.950 . S
C3032 C3031 1.524 . S
C3032 C3033 1.415 . S
C3033 H3003 0.950 . S
C3033 C3028 1.363 . S
C3033 C3032 1.415 . S
H3034 C3031 0.999 . S
H3035 C3016 0.913 . S
H3036 C3054 0.951 . S
H3037 C3056 0.951 . S
H3038 C3058 0.950 . S
H3039 C3059 0.950 . S
H3040 C3061 0.950 . S
H3041 C3064 0.950 . S
H3042 C3065 0.950 . S
H3043 C3067 0.950 . S
H3044 C3068 0.950 . S
H3045 C3069 0.951 . S
H3046 C3071 0.951 . S
H3047 C3073 0.950 . S
H3048 C3074 0.950 . S
H3049 C3076 0.950 . S
H3050 C3079 0.950 . S
H3051 C3080 0.950 . S
H3052 C3082 0.950 . S
H3053 C3083 0.950 . S
C3054 H3036 0.951 . S
C3054 C3055 1.366 . S
C3054 C3056 1.388 . S
C3055 C3054 1.366 . S
C3055 C3059 1.385 . S
C3056 H3037 0.951 . S
C3056 C3054 1.388 . S
C3056 C3057 1.366 . S
C3057 C3056 1.366 . S
C3057 C3058 1.414 . S
C3057 C3060 1.499 . S
C3058 H3038 0.950 . S
C3058 C3057 1.414 . S
C3058 C3059 1.374 . S
C3059 H3039 0.950 . S
C3059 C3055 1.385 . S
C3059 C3058 1.374 . S
C3060 C3057 1.499 . S
C3060 C3061 1.373 . S
C3060 C3062 1.389 . S
C3061 H3040 0.950 . S
C3061 C3060 1.373 . S
C3061 C3077 1.377 . S
C3062 C3060 1.389 . S
C3062 C3063 1.524 . S
C3062 C3076 1.377 . S
C3063 C3062 1.524 . S
C3063 C3064 1.397 . S
C3063 C3068 1.363 . S
C3064 H3041 0.950 . S
C3064 C3063 1.397 . S
C3064 C3065 1.334 . S
C3065 H3042 0.950 . S
C3065 C3064 1.334 . S
C3065 C3066 1.287 . S
C3066 C3065 1.287 . S
C3066 C3067 1.524 . S
C3066 H3085 0.913 . S
C3067 H3043 0.950 . S
C3067 C3066 1.524 . S
C3067 C3068 1.415 . S
C3068 H3044 0.950 . S
C3068 C3063 1.363 . S
C3068 C3067 1.415 . S
C3069 H3045 0.951 . S
C3069 C3070 1.366 . S
C3069 C3071 1.388 . S
C3070 C3069 1.366 . S
C3070 C3074 1.385 . S
C3071 H3046 0.951 . S
C3071 C3069 1.388 . S
C3071 C3072 1.366 . S
C3072 C3071 1.366 . S
C3072 C3073 1.414 . S
C3072 C3075 1.499 . S
C3073 H3047 0.950 . S
C3073 C3072 1.414 . S
C3073 C3074 1.374 . S
C3074 H3048 0.950 . S
C3074 C3070 1.385 . S
C3074 C3073 1.374 . S
C3075 C3072 1.499 . S
C3075 C3076 1.373 . S
C3075 C3077 1.389 . S
C3076 H3049 0.950 . S
C3076 C3062 1.377 . S
C3076 C3075 1.373 . S
C3077 C3061 1.377 . S
C3077 C3075 1.389 . S
C3077 C3078 1.524 . S
C3078 C3077 1.524 . S
C3078 C3079 1.397 . S
C3078 C3083 1.363 . S
C3079 H3050 0.950 . S
C3079 C3078 1.397 . S
C3079 C3080 1.334 . S
C3080 H3051 0.950 . S
C3080 C3079 1.334 . S
C3080 C3081 1.287 . S
C3081 C3080 1.287 . S
C3081 C3082 1.524 . S
C3081 H3084 0.999 . S
C3082 H3052 0.950 . S
C3082 C3081 1.524 . S
C3082 C3083 1.415 . S
C3083 H3053 0.950 . S
C3083 C3078 1.363 . S
C3083 C3082 1.415 . S
H3084 C3081 0.999 . S
H3085 C3066 0.913 . S
H3086 C3104 0.951 . S
H3087 C3106 0.951 . S
H3088 C3108 0.950 . S
H3089 C3109 0.950 . S
H3090 C3111 0.950 . S
H3091 C3114 0.950 . S
H3092 C3115 0.950 . S
H3093 C3117 0.950 . S
H3094 C3118 0.950 . S
H3095 C3119 0.951 . S
H3096 C3121 0.951 . S
H3097 C3123 0.950 . S
H3098 C3124 0.950 . S
H3099 C3126 0.950 . S
H3100 C3129 0.950 . S
H3101 C3130 0.950 . S
H3102 C3132 0.950 . S
H3103 C3133 0.950 . S
C3104 H3086 0.951 . S
C3104 C3105 1.366 . S
C3104 C3106 1.388 . S
C3105 C3104 1.366 . S
C3105 C3109 1.385 . S
C3106 H3087 0.951 . S
C3106 C3104 1.388 . S
C3106 C3107 1.366 . S
C3107 C3106 1.366 . S
C3107 C3108 1.414 . S
C3107 C3110 1.499 . S
C3108 H3088 0.950 . S
C3108 C3107 1.414 . S
C3108 C3109 1.374 . S
C3109 H3089 0.950 . S
C3109 C3105 1.385 . S
C3109 C3108 1.374 . S
C3110 C3107 1.499 . S
C3110 C3111 1.373 . S
C3110 C3112 1.389 . S
C3111 H3090 0.950 . S
C3111 C3110 1.373 . S
C3111 C3127 1.377 . S
C3112 C3110 1.389 . S
C3112 C3113 1.524 . S
C3112 C3126 1.377 . S
C3113 C3112 1.524 . S
C3113 C3114 1.397 . S
C3113 C3118 1.363 . S
C3114 H3091 0.950 . S
C3114 C3113 1.397 . S
C3114 C3115 1.334 . S
C3115 H3092 0.950 . S
C3115 C3114 1.334 . S
C3115 C3116 1.287 . S
C3116 C3115 1.287 . S
C3116 C3117 1.524 . S
C3116 H3135 0.913 . S
C3117 H3093 0.950 . S
C3117 C3116 1.524 . S
C3117 C3118 1.415 . S
C3118 H3094 0.950 . S
C3118 C3113 1.363 . S
C3118 C3117 1.415 . S
C3119 H3095 0.951 . S
C3119 C3120 1.366 . S
C3119 C3121 1.388 . S
C3120 C3119 1.366 . S
C3120 C3124 1.385 . S
C3121 H3096 0.951 . S
C3121 C3119 1.388 . S
C3121 C3122 1.366 . S
C3122 C3121 1.366 . S
C3122 C3123 1.414 . S
C3122 C3125 1.499 . S
C3123 H3097 0.950 . S
C3123 C3122 1.414 . S
C3123 C3124 1.374 . S
C3124 H3098 0.950 . S
C3124 C3120 1.385 . S
C3124 C3123 1.374 . S
C3125 C3122 1.499 . S
C3125 C3126 1.373 . S
C3125 C3127 1.389 . S
C3126 H3099 0.950 . S
C3126 C3112 1.377 . S
C3126 C3125 1.373 . S
C3127 C3111 1.377 . S
C3127 C3125 1.389 . S
C3127 C3128 1.524 . S
C3128 C3127 1.524 . S
C3128 C3129 1.397 . S
C3128 C3133 1.363 . S
C3129 H3100 0.950 . S
C3129 C3128 1.397 . S
C3129 C3130 1.334 . S
C3130 H3101 0.950 . S
C3130 C3129 1.334 . S
C3130 C3131 1.287 . S
C3131 C3130 1.287 . S
C3131 C3132 1.524 . S
C3131 H3134 0.999 . S
C3132 H3102 0.950 . S
C3132 C3131 1.524 . S
C3132 C3133 1.415 . S
C3133 H3103 0.950 . S
C3133 C3128 1.363 . S
C3133 C3132 1.415 . S
H3134 C3131 0.999 . S
H3135 C3116 0.913 . S
H3136 C3154 0.951 . S
H3137 C3156 0.951 . S
H3138 C3158 0.950 . S
H3139 C3159 0.950 . S
H3140 C3161 0.950 . S
H3141 C3164 0.950 . S
H3142 C3165 0.950 . S
H3143 C3167 0.950 . S
H3144 C3168 0.950 . S
H3145 C3169 0.951 . S
H3146 C3171 0.951 . S
H3147 C3173 0.950 . S
H3148 C3174 0.950 . S
H3149 C3176 0.950 . S
H3150 C3179 0.950 . S
H3151 C3180 0.950 . S
H3152 C3182 0.950 . S
H3153 C3183 0.950 . S
C3154 H3136 0.951 . S
C3154 C3155 1.366 . S
C3154 C3156 1.388 . S
C3155 C3154 1.366 . S
C3155 C3159 1.385 . S
C3156 H3137 0.951 . S
C3156 C3154 1.388 . S
C3156 C3157 1.366 . S
C3157 C3156 1.366 . S
C3157 C3158 1.414 . S
C3157 C3160 1.499 . S
C3158 H3138 0.950 . S
C3158 C3157 1.414 . S
C3158 C3159 1.374 . S
C3159 H3139 0.950 . S
C3159 C3155 1.385 . S
C3159 C3158 1.374 . S
C3160 C3157 1.499 . S
C3160 C3161 1.373 . S
C3160 C3162 1.389 . S
C3161 H3140 0.950 . S
C3161 C3160 1.373 . S
C3161 C3177 1.377 . S
C3162 C3160 1.389 . S
C3162 C3163 1.524 . S
C3162 C3176 1.377 . S
C3163 C3162 1.524 . S
C3163 C3164 1.397 . S
C3163 C3168 1.363 . S
C3164 H3141 0.950 . S
C3164 C3163 1.397 . S
C3164 C3165 1.334 . S
C3165 H3142 0.950 . S
C3165 C3164 1.334 . S
C3165 C3166 1.287 . S
C3166 C3165 1.287 . S
C3166 C3167 1.524 . S
C3166 H3185 0.913 . S
C3167 H3143 0.950 . S
C3167 C3166 1.524 . S
C3167 C3168 1.415 . S
C3168 H3144 0.950 . S
C3168 C3163 1.363 . S
C3168 C3167 1.415 . S
C3169 H3145 0.951 . S
C3169 C3170 1.366 . S
C3169 C3171 1.388 . S
C3170 C3169 1.366 . S
C3170 C3174 1.385 . S
C3171 H3146 0.951 . S
C3171 C3169 1.388 . S
C3171 C3172 1.366 . S
C3172 C3171 1.366 . S
C3172 C3173 1.414 . S
C3172 C3175 1.499 . S
C3173 H3147 0.950 . S
C3173 C3172 1.414 . S
C3173 C3174 1.374 . S
C3174 H3148 0.950 . S
C3174 C3170 1.385 . S
C3174 C3173 1.374 . S
C3175 C3172 1.499 . S
C3175 C3176 1.373 . S
C3175 C3177 1.389 . S
C3176 H3149 0.950 . S
C3176 C3162 1.377 . S
C3176 C3175 1.373 . S
C3177 C3161 1.377 . S
C3177 C3175 1.389 . S
C3177 C3178 1.524 . S
C3178 C3177 1.524 . S
C3178 C3179 1.397 . S
C3178 C3183 1.363 . S
C3179 H3150 0.950 . S
C3179 C3178 1.397 . S
C3179 C3180 1.334 . S
C3180 H3151 0.950 . S
C3180 C3179 1.334 . S
C3180 C3181 1.287 . S
C3181 C3180 1.287 . S
C3181 C3182 1.524 . S
C3181 H3184 0.999 . S
C3182 H3152 0.950 . S
C3182 C3181 1.524 . S
C3182 C3183 1.415 . S
C3183 H3153 0.950 . S
C3183 C3178 1.363 . S
C3183 C3182 1.415 . S
H3184 C3181 0.999 . S
H3185 C3166 0.913 . S
H3186 C3204 0.951 . S
H3187 C3206 0.951 . S
H3188 C3208 0.950 . S
H3189 C3209 0.950 . S
H3190 C3211 0.950 . S
H3191 C3214 0.950 . S
H3192 C3215 0.950 . S
H3193 C3217 0.950 . S
H3194 C3218 0.950 . S
H3195 C3219 0.951 . S
H3196 C3221 0.951 . S
H3197 C3223 0.950 . S
H3198 C3224 0.950 . S
H3199 C3226 0.950 . S
H3200 C3229 0.950 . S
H3201 C3230 0.950 . S
H3202 C3232 0.950 . S
H3203 C3233 0.950 . S
C3204 H3186 0.951 . S
C3204 C3205 1.366 . S
C3204 C3206 1.388 . S
C3205 C3204 1.366 . S
C3205 C3209 1.385 . S
C3206 H3187 0.951 . S
C3206 C3204 1.388 . S
C3206 C3207 1.366 . S
C3207 C3206 1.366 . S
C3207 C3208 1.414 . S
C3207 C3210 1.499 . S
C3208 H3188 0.950 . S
C3208 C3207 1.414 . S
C3208 C3209 1.374 . S
C3209 H3189 0.950 . S
C3209 C3205 1.385 . S
C3209 C3208 1.374 . S
C3210 C3207 1.499 . S
C3210 C3211 1.373 . S
C3210 C3212 1.389 . S
C3211 H3190 0.950 . S
C3211 C3210 1.373 . S
C3211 C3227 1.377 . S
C3212 C3210 1.389 . S
C3212 C3213 1.524 . S
C3212 C3226 1.377 . S
C3213 C3212 1.524 . S
C3213 C3214 1.397 . S
C3213 C3218 1.363 . S
C3214 H3191 0.950 . S
C3214 C3213 1.397 . S
C3214 C3215 1.334 . S
C3215 H3192 0.950 . S
C3215 C3214 1.334 . S
C3215 C3216 1.287 . S
C3216 C3215 1.287 . S
C3216 C3217 1.524 . S
C3216 H3235 0.913 . S
C3217 H3193 0.950 . S
C3217 C3216 1.524 . S
C3217 C3218 1.415 . S
C3218 H3194 0.950 . S
C3218 C3213 1.363 . S
C3218 C3217 1.415 . S
C3219 H3195 0.951 . S
C3219 C3220 1.366 . S
C3219 C3221 1.388 . S
C3220 C3219 1.366 . S
C3220 C3224 1.385 . S
C3221 H3196 0.951 . S
C3221 C3219 1.388 . S
C3221 C3222 1.366 . S
C3222 C3221 1.366 . S
C3222 C3223 1.414 . S
C3222 C3225 1.499 . S
C3223 H3197 0.950 . S
C3223 C3222 1.414 . S
C3223 C3224 1.374 . S
C3224 H3198 0.950 . S
C3224 C3220 1.385 . S
C3224 C3223 1.374 . S
C3225 C3222 1.499 . S
C3225 C3226 1.373 . S
C3225 C3227 1.389 . S
C3226 H3199 0.950 . S
C3226 C3212 1.377 . S
C3226 C3225 1.373 . S
C3227 C3211 1.377 . S
C3227 C3225 1.389 . S
C3227 C3228 1.524 . S
C3228 C3227 1.524 . S
C3228 C3229 1.397 . S
C3228 C3233 1.363 . S
C3229 H3200 0.950 . S
C3229 C3228 1.397 . S
C3229 C3230 1.334 . S
C3230 H3201 0.950 . S
C3230 C3229 1.334 . S
C3230 C3231 1.287 . S
C3231 C3230 1.287 . S
C3231 C3232 1.524 . S
C3231 H3234 0.999 . S
C3232 H3202 0.950 . S
C3232 C3231 1.524 . S
C3232 C3233 1.415 . S
C3233 H3203 0.950 . S
C3233 C3228 1.363 . S
C3233 C3232 1.415 . S
H3234 C3231 0.999 . S
H3235 C3216 0.913 . S
H3236 C3254 0.951 . S
H3237 C3256 0.951 . S
H3238 C3258 0.950 . S
H3239 C3259 0.950 . S
H3240 C3261 0.950 . S
H3241 C3264 0.950 . S
H3242 C3265 0.950 . S
H3243 C3267 0.950 . S
H3244 C3268 0.950 . S
H3245 C3269 0.951 . S
H3246 C3271 0.951 . S
H3247 C3273 0.950 . S
H3248 C3274 0.950 . S
H3249 C3276 0.950 . S
H3250 C3279 0.950 . S
H3251 C3280 0.950 . S
H3252 C3282 0.950 . S
H3253 C3283 0.950 . S
C3254 H3236 0.951 . S
C3254 C3255 1.366 . S
C3254 C3256 1.388 . S
C3255 C3254 1.366 . S
C3255 C3259 1.385 . S
C3256 H3237 0.951 . S
C3256 C3254 1.388 . S
C3256 C3257 1.366 . S
C3257 C3256 1.366 . S
C3257 C3258 1.414 . S
C3257 C3260 1.499 . S
C3258 H3238 0.950 . S
C3258 C3257 1.414 . S
C3258 C3259 1.374 . S
C3259 H3239 0.950 . S
C3259 C3255 1.385 . S
C3259 C3258 1.374 . S
C3260 C3257 1.499 . S
C3260 C3261 1.373 . S
C3260 C3262 1.389 . S
C3261 H3240 0.950 . S
C3261 C3260 1.373 . S
C3261 C3277 1.377 . S
C3262 C3260 1.389 . S
C3262 C3263 1.524 . S
C3262 C3276 1.377 . S
C3263 C3262 1.524 . S
C3263 C3264 1.397 . S
C3263 C3268 1.363 . S
C3264 H3241 0.950 . S
C3264 C3263 1.397 . S
C3264 C3265 1.334 . S
C3265 H3242 0.950 . S
C3265 C3264 1.334 . S
C3265 C3266 1.287 . S
C3266 C3265 1.287 . S
C3266 C3267 1.524 . S
C3266 H3285 0.913 . S
C3267 H3243 0.950 . S
C3267 C3266 1.524 . S
C3267 C3268 1.415 . S
C3268 H3244 0.950 . S
C3268 C3263 1.363 . S
C3268 C3267 1.415 . S
C3269 H3245 0.951 . S
C3269 C3270 1.366 . S
C3269 C3271 1.388 . S
C3270 C3269 1.366 . S
C3270 C3274 1.385 . S
C3271 H3246 0.951 . S
C3271 C3269 1.388 . S
C3271 C3272 1.366 . S
C3272 C3271 1.366 . S
C3272 C3273 1.414 . S
C3272 C3275 1.499 . S
C3273 H3247 0.950 . S
C3273 C3272 1.414 . S
C3273 C3274 1.374 . S
C3274 H3248 0.950 . S
C3274 C3270 1.385 . S
C3274 C3273 1.374 . S
C3275 C3272 1.499 . S
C3275 C3276 1.373 . S
C3275 C3277 1.389 . S
C3276 H3249 0.950 . S
C3276 C3262 1.377 . S
C3276 C3275 1.373 . S
C3277 C3261 1.377 . S
C3277 C3275 1.389 . S
C3277 C3278 1.524 . S
C3278 C3277 1.524 . S
C3278 C3279 1.397 . S
C3278 C3283 1.363 . S
C3279 H3250 0.950 . S
C3279 C3278 1.397 . S
C3279 C3280 1.334 . S
C3280 H3251 0.950 . S
C3280 C3279 1.334 . S
C3280 C3281 1.287 . S
C3281 C3280 1.287 . S
C3281 C3282 1.524 . S
C3281 H3284 0.999 . S
C3282 H3252 0.950 . S
C3282 C3281 1.524 . S
C3282 C3283 1.415 . S
C3283 H3253 0.950 . S
C3283 C3278 1.363 . S
C3283 C3282 1.415 . S
H3284 C3281 0.999 . S
H3285 C3266 0.913 . S
H3286 C3304 0.951 . S
H3287 C3306 0.951 . S
H3288 C3308 0.950 . S
H3289 C3309 0.950 . S
H3290 C3311 0.950 . S
H3291 C3314 0.950 . S
H3292 C3315 0.950 . S
H3293 C3317 0.950 . S
H3294 C3318 0.950 . S
H3295 C3319 0.951 . S
H3296 C3321 0.951 . S
H3297 C3323 0.950 . S
H3298 C3324 0.950 . S
H3299 C3326 0.950 . S
H3300 C3329 0.950 . S
H3301 C3330 0.950 . S
H3302 C3332 0.950 . S
H3303 C3333 0.950 . S
C3304 H3286 0.951 . S
C3304 C3305 1.366 . S
C3304 C3306 1.388 . S
C3305 C3304 1.366 . S
C3305 C3309 1.385 . S
C3306 H3287 0.951 . S
C3306 C3304 1.388 . S
C3306 C3307 1.366 . S
C3307 C3306 1.366 . S
C3307 C3308 1.414 . S
C3307 C3310 1.499 . S
C3308 H3288 0.950 . S
C3308 C3307 1.414 . S
C3308 C3309 1.374 . S
C3309 H3289 0.950 . S
C3309 C3305 1.385 . S
C3309 C3308 1.374 . S
C3310 C3307 1.499 . S
C3310 C3311 1.373 . S
C3310 C3312 1.389 . S
C3311 H3290 0.950 . S
C3311 C3310 1.373 . S
C3311 C3327 1.377 . S
C3312 C3310 1.389 . S
C3312 C3313 1.524 . S
C3312 C3326 1.377 . S
C3313 C3312 1.524 . S
C3313 C3314 1.397 . S
C3313 C3318 1.363 . S
C3314 H3291 0.950 . S
C3314 C3313 1.397 . S
C3314 C3315 1.334 . S
C3315 H3292 0.950 . S
C3315 C3314 1.334 . S
C3315 C3316 1.287 . S
C3316 C3315 1.287 . S
C3316 C3317 1.524 . S
C3316 H3335 0.913 . S
C3317 H3293 0.950 . S
C3317 C3316 1.524 . S
C3317 C3318 1.415 . S
C3318 H3294 0.950 . S
C3318 C3313 1.363 . S
C3318 C3317 1.415 . S
C3319 H3295 0.951 . S
C3319 C3320 1.366 . S
C3319 C3321 1.388 . S
C3320 C3319 1.366 . S
C3320 C3324 1.385 . S
C3321 H3296 0.951 . S
C3321 C3319 1.388 . S
C3321 C3322 1.366 . S
C3322 C3321 1.366 . S
C3322 C3323 1.414 . S
C3322 C3325 1.499 . S
C3323 H3297 0.950 . S
C3323 C3322 1.414 . S
C3323 C3324 1.374 . S
C3324 H3298 0.950 . S
C3324 C3320 1.385 . S
C3324 C3323 1.374 . S
C3325 C3322 1.499 . S
C3325 C3326 1.373 . S
C3325 C3327 1.389 . S
C3326 H3299 0.950 . S
C3326 C3312 1.377 . S
C3326 C3325 1.373 . S
C3327 C3311 1.377 . S
C3327 C3325 1.389 . S
C3327 C3328 1.524 . S
C3328 C3327 1.524 . S
C3328 C3329 1.397 . S
C3328 C3333 1.363 . S
C3329 H3300 0.950 . S
C3329 C3328 1.397 . S
C3329 C3330 1.334 . S
C3330 H3301 0.950 . S
C3330 C3329 1.334 . S
C3330 C3331 1.287 . S
C3331 C3330 1.287 . S
C3331 C3332 1.524 . S
C3331 H3334 0.999 . S
C3332 H3302 0.950 . S
C3332 C3331 1.524 . S
C3332 C3333 1.415 . S
C3333 H3303 0.950 . S
C3333 C3328 1.363 . S
C3333 C3332 1.415 . S
H3334 C3331 0.999 . S
H3335 C3316 0.913 . S
H3336 C3354 0.951 . S
H3337 C3356 0.951 . S
H3338 C3358 0.950 . S
H3339 C3359 0.950 . S
H3340 C3361 0.950 . S
H3341 C3364 0.950 . S
H3342 C3365 0.950 . S
H3343 C3367 0.950 . S
H3344 C3368 0.950 . S
H3345 C3369 0.951 . S
H3346 C3371 0.951 . S
H3347 C3373 0.950 . S
H3348 C3374 0.950 . S
H3349 C3376 0.950 . S
H3350 C3379 0.950 . S
H3351 C3380 0.950 . S
H3352 C3382 0.950 . S
H3353 C3383 0.950 . S
C3354 H3336 0.951 . S
C3354 C3355 1.366 . S
C3354 C3356 1.388 . S
C3355 C3354 1.366 . S
C3355 C3359 1.385 . S
C3356 H3337 0.951 . S
C3356 C3354 1.388 . S
C3356 C3357 1.366 . S
C3357 C3356 1.366 . S
C3357 C3358 1.414 . S
C3357 C3360 1.499 . S
C3358 H3338 0.950 . S
C3358 C3357 1.414 . S
C3358 C3359 1.374 . S
C3359 H3339 0.950 . S
C3359 C3355 1.385 . S
C3359 C3358 1.374 . S
C3360 C3357 1.499 . S
C3360 C3361 1.373 . S
C3360 C3362 1.389 . S
C3361 H3340 0.950 . S
C3361 C3360 1.373 . S
C3361 C3377 1.377 . S
C3362 C3360 1.389 . S
C3362 C3363 1.524 . S
C3362 C3376 1.377 . S
C3363 C3362 1.524 . S
C3363 C3364 1.397 . S
C3363 C3368 1.363 . S
C3364 H3341 0.950 . S
C3364 C3363 1.397 . S
C3364 C3365 1.334 . S
C3365 H3342 0.950 . S
C3365 C3364 1.334 . S
C3365 C3366 1.287 . S
C3366 C3365 1.287 . S
C3366 C3367 1.524 . S
C3366 H3385 0.913 . S
C3367 H3343 0.950 . S
C3367 C3366 1.524 . S
C3367 C3368 1.415 . S
C3368 H3344 0.950 . S
C3368 C3363 1.363 . S
C3368 C3367 1.415 . S
C3369 H3345 0.951 . S
C3369 C3370 1.366 . S
C3369 C3371 1.388 . S
C3370 C3369 1.366 . S
C3370 C3374 1.385 . S
C3371 H3346 0.951 . S
C3371 C3369 1.388 . S
C3371 C3372 1.366 . S
C3372 C3371 1.366 . S
C3372 C3373 1.414 . S
C3372 C3375 1.499 . S
C3373 H3347 0.950 . S
C3373 C3372 1.414 . S
C3373 C3374 1.374 . S
C3374 H3348 0.950 . S
C3374 C3370 1.385 . S
C3374 C3373 1.374 . S
C3375 C3372 1.499 . S
C3375 C3376 1.373 . S
C3375 C3377 1.389 . S
C3376 H3349 0.950 . S
C3376 C3362 1.377 . S
C3376 C3375 1.373 . S
C3377 C3361 1.377 . S
C3377 C3375 1.389 . S
C3377 C3378 1.524 . S
C3378 C3377 1.524 . S
C3378 C3379 1.397 . S
C3378 C3383 1.363 . S
C3379 H3350 0.950 . S
C3379 C3378 1.397 . S
C3379 C3380 1.334 . S
C3380 H3351 0.950 . S
C3380 C3379 1.334 . S
C3380 C3381 1.287 . S
C3381 C3380 1.287 . S
C3381 C3382 1.524 . S
C3381 H3384 0.999 . S
C3382 H3352 0.950 . S
C3382 C3381 1.524 . S
C3382 C3383 1.415 . S
C3383 H3353 0.950 . S
C3383 C3378 1.363 . S
C3383 C3382 1.415 . S
H3384 C3381 0.999 . S
H3385 C3366 0.913 . S
H3386 C3404 0.951 . S
H3387 C3406 0.951 . S
H3388 C3408 0.950 . S
H3389 C3409 0.950 . S
H3390 C3411 0.950 . S
H3391 C3414 0.950 . S
H3392 C3415 0.950 . S
H3393 C3417 0.950 . S
H3394 C3418 0.950 . S
H3395 C3419 0.951 . S
H3396 C3421 0.951 . S
H3397 C3423 0.950 . S
H3398 C3424 0.950 . S
H3399 C3426 0.950 . S
H3400 C3429 0.950 . S
H3401 C3430 0.950 . S
H3402 C3432 0.950 . S
H3403 C3433 0.950 . S
C3404 H3386 0.951 . S
C3404 C3405 1.366 . S
C3404 C3406 1.388 . S
C3405 C3404 1.366 . S
C3405 C3409 1.385 . S
C3406 H3387 0.951 . S
C3406 C3404 1.388 . S
C3406 C3407 1.366 . S
C3407 C3406 1.366 . S
C3407 C3408 1.414 . S
C3407 C3410 1.499 . S
C3408 H3388 0.950 . S
C3408 C3407 1.414 . S
C3408 C3409 1.374 . S
C3409 H3389 0.950 . S
C3409 C3405 1.385 . S
C3409 C3408 1.374 . S
C3410 C3407 1.499 . S
C3410 C3411 1.373 . S
C3410 C3412 1.389 . S
C3411 H3390 0.950 . S
C3411 C3410 1.373 . S
C3411 C3427 1.377 . S
C3412 C3410 1.389 . S
C3412 C3413 1.524 . S
C3412 C3426 1.377 . S
C3413 C3412 1.524 . S
C3413 C3414 1.397 . S
C3413 C3418 1.363 . S
C3414 H3391 0.950 . S
C3414 C3413 1.397 . S
C3414 C3415 1.334 . S
C3415 H3392 0.950 . S
C3415 C3414 1.334 . S
C3415 C3416 1.287 . S
C3416 C3415 1.287 . S
C3416 C3417 1.524 . S
C3416 H3435 0.913 . S
C3417 H3393 0.950 . S
C3417 C3416 1.524 . S
C3417 C3418 1.415 . S
C3418 H3394 0.950 . S
C3418 C3413 1.363 . S
C3418 C3417 1.415 . S
C3419 H3395 0.951 . S
C3419 C3420 1.366 . S
C3419 C3421 1.388 . S
C3420 C3419 1.366 . S
C3420 C3424 1.385 . S
C3421 H3396 0.951 . S
C3421 C3419 1.388 . S
C3421 C3422 1.366 . S
C3422 C3421 1.366 . S
C3422 C3423 1.414 . S
C3422 C3425 1.499 . S
C3423 H3397 0.950 . S
C3423 C3422 1.414 . S
C3423 C3424 1.374 . S
C3424 H3398 0.950 . S
C3424 C3420 1.385 . S
C3424 C3423 1.374 . S
C3425 C3422 1.499 . S
C3425 C3426 1.373 . S
C3425 C3427 1.389 . S
C3426 H3399 0.950 . S
C3426 C3412 1.377 . S
C3426 C3425 1.373 . S
C3427 C3411 1.377 . S
C3427 C3425 1.389 . S
C3427 C3428 1.524 . S
C3428 C3427 1.524 . S
C3428 C3429 1.397 . S
C3428 C3433 1.363 . S
C3429 H3400 0.950 . S
C3429 C3428 1.397 . S
C3429 C3430 1.334 . S
C3430 H3401 0.950 . S
C3430 C3429 1.334 . S
C3430 C3431 1.287 . S
C3431 C3430 1.287 . S
C3431 C3432 1.524 . S
C3431 H3434 0.999 . S
C3432 H3402 0.950 . S
C3432 C3431 1.524 . S
C3432 C3433 1.415 . S
C3433 H3403 0.950 . S
C3433 C3428 1.363 . S
C3433 C3432 1.415 . S
H3434 C3431 0.999 . S
H3435 C3416 0.913 . S
H3436 C3454 0.951 . S
H3437 C3456 0.951 . S
H3438 C3458 0.950 . S
H3439 C3459 0.950 . S
H3440 C3461 0.950 . S
H3441 C3464 0.950 . S
H3442 C3465 0.950 . S
H3443 C3467 0.950 . S
H3444 C3468 0.950 . S
H3445 C3469 0.951 . S
H3446 C3471 0.951 . S
H3447 C3473 0.950 . S
H3448 C3474 0.950 . S
H3449 C3476 0.950 . S
H3450 C3479 0.950 . S
H3451 C3480 0.950 . S
H3452 C3482 0.950 . S
H3453 C3483 0.950 . S
C3454 H3436 0.951 . S
C3454 C3455 1.366 . S
C3454 C3456 1.388 . S
C3455 C3454 1.366 . S
C3455 C3459 1.385 . S
C3456 H3437 0.951 . S
C3456 C3454 1.388 . S
C3456 C3457 1.366 . S
C3457 C3456 1.366 . S
C3457 C3458 1.414 . S
C3457 C3460 1.499 . S
C3458 H3438 0.950 . S
C3458 C3457 1.414 . S
C3458 C3459 1.374 . S
C3459 H3439 0.950 . S
C3459 C3455 1.385 . S
C3459 C3458 1.374 . S
C3460 C3457 1.499 . S
C3460 C3461 1.373 . S
C3460 C3462 1.389 . S
C3461 H3440 0.950 . S
C3461 C3460 1.373 . S
C3461 C3477 1.377 . S
C3462 C3460 1.389 . S
C3462 C3463 1.524 . S
C3462 C3476 1.377 . S
C3463 C3462 1.524 . S
C3463 C3464 1.397 . S
C3463 C3468 1.363 . S
C3464 H3441 0.950 . S
C3464 C3463 1.397 . S
C3464 C3465 1.334 . S
C3465 H3442 0.950 . S
C3465 C3464 1.334 . S
C3465 C3466 1.287 . S
C3466 C3465 1.287 . S
C3466 C3467 1.524 . S
C3466 H3485 0.913 . S
C3467 H3443 0.950 . S
C3467 C3466 1.524 . S
C3467 C3468 1.415 . S
C3468 H3444 0.950 . S
C3468 C3463 1.363 . S
C3468 C3467 1.415 . S
C3469 H3445 0.951 . S
C3469 C3470 1.366 . S
C3469 C3471 1.388 . S
C3470 C3469 1.366 . S
C3470 C3474 1.385 . S
C3471 H3446 0.951 . S
C3471 C3469 1.388 . S
C3471 C3472 1.366 . S
C3472 C3471 1.366 . S
C3472 C3473 1.414 . S
C3472 C3475 1.499 . S
C3473 H3447 0.950 . S
C3473 C3472 1.414 . S
C3473 C3474 1.374 . S
C3474 H3448 0.950 . S
C3474 C3470 1.385 . S
C3474 C3473 1.374 . S
C3475 C3472 1.499 . S
C3475 C3476 1.373 . S
C3475 C3477 1.389 . S
C3476 H3449 0.950 . S
C3476 C3462 1.377 . S
C3476 C3475 1.373 . S
C3477 C3461 1.377 . S
C3477 C3475 1.389 . S
C3477 C3478 1.524 . S
C3478 C3477 1.524 . S
C3478 C3479 1.397 . S
C3478 C3483 1.363 . S
C3479 H3450 0.950 . S
C3479 C3478 1.397 . S
C3479 C3480 1.334 . S
C3480 H3451 0.950 . S
C3480 C3479 1.334 . S
C3480 C3481 1.287 . S
C3481 C3480 1.287 . S
C3481 C3482 1.524 . S
C3481 H3484 0.999 . S
C3482 H3452 0.950 . S
C3482 C3481 1.524 . S
C3482 C3483 1.415 . S
C3483 H3453 0.950 . S
C3483 C3478 1.363 . S
C3483 C3482 1.415 . S
H3484 C3481 0.999 . S
H3485 C3466 0.913 . S
H3486 C3504 0.951 . S
H3487 C3506 0.951 . S
H3488 C3508 0.950 . S
H3489 C3509 0.950 . S
H3490 C3511 0.950 . S
H3491 C3514 0.950 . S
H3492 C3515 0.950 . S
H3493 C3517 0.950 . S
H3494 C3518 0.950 . S
H3495 C3519 0.951 . S
H3496 C3521 0.951 . S
H3497 C3523 0.950 . S
H3498 C3524 0.950 . S
H3499 C3526 0.950 . S
H3500 C3529 0.950 . S
H3501 C3530 0.950 . S
H3502 C3532 0.950 . S
H3503 C3533 0.950 . S
C3504 H3486 0.951 . S
C3504 C3505 1.366 . S
C3504 C3506 1.388 . S
C3505 C3504 1.366 . S
C3505 C3509 1.385 . S
C3506 H3487 0.951 . S
C3506 C3504 1.388 . S
C3506 C3507 1.366 . S
C3507 C3506 1.366 . S
C3507 C3508 1.414 . S
C3507 C3510 1.499 . S
C3508 H3488 0.950 . S
C3508 C3507 1.414 . S
C3508 C3509 1.374 . S
C3509 H3489 0.950 . S
C3509 C3505 1.385 . S
C3509 C3508 1.374 . S
C3510 C3507 1.499 . S
C3510 C3511 1.373 . S
C3510 C3512 1.389 . S
C3511 H3490 0.950 . S
C3511 C3510 1.373 . S
C3511 C3527 1.377 . S
C3512 C3510 1.389 . S
C3512 C3513 1.524 . S
C3512 C3526 1.377 . S
C3513 C3512 1.524 . S
C3513 C3514 1.397 . S
C3513 C3518 1.363 . S
C3514 H3491 0.950 . S
C3514 C3513 1.397 . S
C3514 C3515 1.334 . S
C3515 H3492 0.950 . S
C3515 C3514 1.334 . S
C3515 C3516 1.287 . S
C3516 C3515 1.287 . S
C3516 C3517 1.524 . S
C3516 H3535 0.913 . S
C3517 H3493 0.950 . S
C3517 C3516 1.524 . S
C3517 C3518 1.415 . S
C3518 H3494 0.950 . S
C3518 C3513 1.363 . S
C3518 C3517 1.415 . S
C3519 H3495 0.951 . S
C3519 C3520 1.366 . S
C3519 C3521 1.388 . S
C3520 C3519 1.366 . S
C3520 C3524 1.385 . S
C3521 H3496 0.951 . S
C3521 C3519 1.388 . S
C3521 C3522 1.366 . S
C3522 C3521 1.366 . S
C3522 C3523 1.414 . S
C3522 C3525 1.499 . S
C3523 H3497 0.950 . S
C3523 C3522 1.414 . S
C3523 C3524 1.374 . S
C3524 H3498 0.950 . S
C3524 C3520 1.385 . S
C3524 C3523 1.374 . S
C3525 C3522 1.499 . S
C3525 C3526 1.373 . S
C3525 C3527 1.389 . S
C3526 H3499 0.950 . S
C3526 C3512 1.377 . S
C3526 C3525 1.373 . S
C3527 C3511 1.377 . S
C3527 C3525 1.389 . S
C3527 C3528 1.524 . S
C3528 C3527 1.524 . S
C3528 C3529 1.397 . S
C3528 C3533 1.363 . S
C3529 H3500 0.950 . S
C3529 C3528 1.397 . S
C3529 C3530 1.334 . S
C3530 H3501 0.950 . S
C3530 C3529 1.334 . S
C3530 C3531 1.287 . S
C3531 C3530 1.287 . S
C3531 C3532 1.524 . S
C3531 H3534 0.999 . S
C3532 H3502 0.950 . S
C3532 C3531 1.524 . S
C3532 C3533 1.415 . S
C3533 H3503 0.950 . S
C3533 C3528 1.363 . S
C3533 C3532 1.415 . S
H3534 C3531 0.999 . S
H3535 C3516 0.913 . S
H3536 C3554 0.951 . S
H3537 C3556 0.951 . S
H3538 C3558 0.950 . S
H3539 C3559 0.950 . S
H3540 C3561 0.950 . S
H3541 C3564 0.950 . S
H3542 C3565 0.950 . S
H3543 C3567 0.950 . S
H3544 C3568 0.950 . S
H3545 C3569 0.951 . S
H3546 C3571 0.951 . S
H3547 C3573 0.950 . S
H3548 C3574 0.950 . S
H3549 C3576 0.950 . S
H3550 C3579 0.950 . S
H3551 C3580 0.950 . S
H3552 C3582 0.950 . S
H3553 C3583 0.950 . S
C3554 H3536 0.951 . S
C3554 C3555 1.366 . S
C3554 C3556 1.388 . S
C3555 C3554 1.366 . S
C3555 C3559 1.385 . S
C3556 H3537 0.951 . S
C3556 C3554 1.388 . S
C3556 C3557 1.366 . S
C3557 C3556 1.366 . S
C3557 C3558 1.414 . S
C3557 C3560 1.499 . S
C3558 H3538 0.950 . S
C3558 C3557 1.414 . S
C3558 C3559 1.374 . S
C3559 H3539 0.950 . S
C3559 C3555 1.385 . S
C3559 C3558 1.374 . S
C3560 C3557 1.499 . S
C3560 C3561 1.373 . S
C3560 C3562 1.389 . S
C3561 H3540 0.950 . S
C3561 C3560 1.373 . S
C3561 C3577 1.377 . S
C3562 C3560 1.389 . S
C3562 C3563 1.524 . S
C3562 C3576 1.377 . S
C3563 C3562 1.524 . S
C3563 C3564 1.397 . S
C3563 C3568 1.363 . S
C3564 H3541 0.950 . S
C3564 C3563 1.397 . S
C3564 C3565 1.334 . S
C3565 H3542 0.950 . S
C3565 C3564 1.334 . S
C3565 C3566 1.287 . S
C3566 C3565 1.287 . S
C3566 C3567 1.524 . S
C3566 H3585 0.913 . S
C3567 H3543 0.950 . S
C3567 C3566 1.524 . S
C3567 C3568 1.415 . S
C3568 H3544 0.950 . S
C3568 C3563 1.363 . S
C3568 C3567 1.415 . S
C3569 H3545 0.951 . S
C3569 C3570 1.366 . S
C3569 C3571 1.388 . S
C3570 C3569 1.366 . S
C3570 C3574 1.385 . S
C3571 H3546 0.951 . S
C3571 C3569 1.388 . S
C3571 C3572 1.366 . S
C3572 C3571 1.366 . S
C3572 C3573 1.414 . S
C3572 C3575 1.499 . S
C3573 H3547 0.950 . S
C3573 C3572 1.414 . S
C3573 C3574 1.374 . S
C3574 H3548 0.950 . S
C3574 C3570 1.385 . S
C3574 C3573 1.374 . S
C3575 C3572 1.499 . S
C3575 C3576 1.373 . S
C3575 C3577 1.389 . S
C3576 H3549 0.950 . S
C3576 C3562 1.377 . S
C3576 C3575 1.373 . S
C3577 C3561 1.377 . S
C3577 C3575 1.389 . S
C3577 C3578 1.524 . S
C3578 C3577 1.524 . S
C3578 C3579 1.397 . S
C3578 C3583 1.363 . S
C3579 H3550 0.950 . S
C3579 C3578 1.397 . S
C3579 C3580 1.334 . S
C3580 H3551 0.950 . S
C3580 C3579 1.334 . S
C3580 C3581 1.287 . S
C3581 C3580 1.287 . S
C3581 C3582 1.524 . S
C3581 H3584 0.999 . S
C3582 H3552 0.950 . S
C3582 C3581 1.524 . S
C3582 C3583 1.415 . S
C3583 H3553 0.950 . S
C3583 C3578 1.363 . S
C3583 C3582 1.415 . S
H3584 C3581 0.999 . S
H3585 C3566 0.913 . S
H3586 C3604 0.951 . S
H3587 C3606 0.951 . S
H3588 C3608 0.950 . S
H3589 C3609 0.950 . S
H3590 C3611 0.950 . S
H3591 C3614 0.950 . S
H3592 C3615 0.950 . S
H3593 C3617 0.950 . S
H3594 C3618 0.950 . S
H3595 C3619 0.951 . S
H3596 C3621 0.951 . S
H3597 C3623 0.950 . S
H3598 C3624 0.950 . S
H3599 C3626 0.950 . S
H3600 C3629 0.950 . S
H3601 C3630 0.950 . S
H3602 C3632 0.950 . S
H3603 C3633 0.950 . S
C3604 H3586 0.951 . S
C3604 C3605 1.366 . S
C3604 C3606 1.388 . S
C3605 C3604 1.366 . S
C3605 C3609 1.385 . S
C3606 H3587 0.951 . S
C3606 C3604 1.388 . S
C3606 C3607 1.366 . S
C3607 C3606 1.366 . S
C3607 C3608 1.414 . S
C3607 C3610 1.499 . S
C3608 H3588 0.950 . S
C3608 C3607 1.414 . S
C3608 C3609 1.374 . S
C3609 H3589 0.950 . S
C3609 C3605 1.385 . S
C3609 C3608 1.374 . S
C3610 C3607 1.499 . S
C3610 C3611 1.373 . S
C3610 C3612 1.389 . S
C3611 H3590 0.950 . S
C3611 C3610 1.373 . S
C3611 C3627 1.377 . S
C3612 C3610 1.389 . S
C3612 C3613 1.524 . S
C3612 C3626 1.377 . S
C3613 C3612 1.524 . S
C3613 C3614 1.397 . S
C3613 C3618 1.363 . S
C3614 H3591 0.950 . S
C3614 C3613 1.397 . S
C3614 C3615 1.334 . S
C3615 H3592 0.950 . S
C3615 C3614 1.334 . S
C3615 C3616 1.287 . S
C3616 C3615 1.287 . S
C3616 C3617 1.524 . S
C3616 H3635 0.913 . S
C3617 H3593 0.950 . S
C3617 C3616 1.524 . S
C3617 C3618 1.415 . S
C3618 H3594 0.950 . S
C3618 C3613 1.363 . S
C3618 C3617 1.415 . S
C3619 H3595 0.951 . S
C3619 C3620 1.366 . S
C3619 C3621 1.388 . S
C3620 C3619 1.366 . S
C3620 C3624 1.385 . S
C3621 H3596 0.951 . S
C3621 C3619 1.388 . S
C3621 C3622 1.366 . S
C3622 C3621 1.366 . S
C3622 C3623 1.414 . S
C3622 C3625 1.499 . S
C3623 H3597 0.950 . S
C3623 C3622 1.414 . S
C3623 C3624 1.374 . S
C3624 H3598 0.950 . S
C3624 C3620 1.385 . S
C3624 C3623 1.374 . S
C3625 C3622 1.499 . S
C3625 C3626 1.373 . S
C3625 C3627 1.389 . S
C3626 H3599 0.950 . S
C3626 C3612 1.377 . S
C3626 C3625 1.373 . S
C3627 C3611 1.377 . S
C3627 C3625 1.389 . S
C3627 C3628 1.524 . S
C3628 C3627 1.524 . S
C3628 C3629 1.397 . S
C3628 C3633 1.363 . S
C3629 H3600 0.950 . S
C3629 C3628 1.397 . S
C3629 C3630 1.334 . S
C3630 H3601 0.950 . S
C3630 C3629 1.334 . S
C3630 C3631 1.287 . S
C3631 C3630 1.287 . S
C3631 C3632 1.524 . S
C3631 H3634 0.999 . S
C3632 H3602 0.950 . S
C3632 C3631 1.524 . S
C3632 C3633 1.415 . S
C3633 H3603 0.950 . S
C3633 C3628 1.363 . S
C3633 C3632 1.415 . S
H3634 C3631 0.999 . S
H3635 C3616 0.913 . S
C955 C439 1.514 . S
C970 C579 1.604 . S
C1005 C465 1.852 . S
C1020 C619 1.852 . S
C1055 C401 1.704 . S
C1070 C671 1.673 . S
C1105 C369 1.523 . S
C1120 C631 1.498 . S
C1170 C659 1.485 . S
C1155 C305 1.476 . S
C1205 C343 1.203 . S
C1220 C591 1.278 1_556 S
C1270 C598 1.644 . S
C1255 C375 1.651 . S
C1320 C638 1.809 . S
C1305 C311 1.808 . S
C1355 C337 1.595 . S
C1370 C658 1.675 . S
C1405 C433 1.441 . S
C1420 C618 1.497 . S
C1455 C471 1.435 . S
C1470 C678 1.442 . S
C1520 C578 1.326 . S
C1505 C407 1.340 . S
C1570 C699 1.605 . S
C1555 C55 1.513 . S
C1605 C81 1.852 . S
C1620 C739 1.852 . S
C1655 C17 1.703 . S
C1670 C791 1.673 . S
C1705 C561 1.523 . S
C1720 C751 1.497 . S
C1755 C497 1.477 . S
C1770 C779 1.485 . S
C1805 C535 1.204 . S
C1820 C711 1.283 . S
C1855 C567 1.651 . S
C1870 C718 1.644 . S
C1905 C503 1.808 . S
C1920 C758 1.810 . S
C1970 C778 1.675 . S
C1955 C529 1.595 . S
C2005 C49 1.441 . S
C2020 C738 1.496 . S
C2070 C798 1.442 . S
C2055 C87 1.435 . S
C2105 C23 1.340 . S
C2120 C698 1.326 . S
C2170 C819 1.605 . S
C2155 C247 1.514 . S
C2205 C273 1.852 . S
C2220 C859 1.852 . S
C2270 C911 1.672 . S
C2255 C209 1.703 . S
C2320 C871 1.496 . S
C2305 C177 1.523 . S
C2370 C899 1.485 . S
C2355 C113 1.477 . S
C2405 C151 1.204 . S
C2420 C831 1.283 . S
C2455 C183 1.651 . S
C2470 C838 1.644 . S
C2505 C119 1.809 . S
C2520 C878 1.810 . S
C2570 C898 1.675 . S
C2555 C145 1.595 . S
C2605 C241 1.441 . S
C2620 C858 1.496 . S
C2655 C279 1.436 . S
C2670 C918 1.442 . S
C2705 C215 1.340 . S
C2720 C818 1.326 . S
C2755 C509 1.275 . S
C2770 C602 1.287 . S
C2820 C642 1.842 . S
C2805 C541 1.756 . S
C2855 C573 1.561 . S
C2870 C665 1.563 . S
C2905 C221 1.891 . S
C2920 C625 1.871 . S
C2955 C253 1.465 . S
C2970 C682 1.530 . S
C3020 C585 1.280 . S
C3005 C285 1.268 . S
C3055 C125 1.275 . S
C3070 C722 1.286 . S
C3105 C157 1.756 . S
C3120 C762 1.842 . S
C3155 C189 1.561 . S
C3170 C785 1.563 . S
C3205 C413 1.891 . S
C3220 C745 1.870 . S
C3270 C802 1.530 . S
C3255 C445 1.465 . S
C3305 C477 1.269 . S
C3320 C705 1.280 . S
C3355 C317 1.275 . S
C3370 C842 1.287 . S
C3405 C349 1.756 . S
C3420 C882 1.842 . S
C3470 C905 1.563 . S
C3455 C381 1.561 . S
C3505 C29 1.891 . S
C3520 C865 1.870 . S
C3555 C61 1.466 . S
C3570 C922 1.530 . S
C3605 C93 1.268 . S
C3620 C825 1.280 . S
