# Generated by pormake.
# Topology pyr, (3,6)-cn, num edge types: 1
# Building blocks:
#     Node 0, Type 0, BuildingBlock: QEWDON_clean_linker_0, # of connection points: 3
#     Node 1, Type 0, BuildingBlock: QEWDON_clean_linker_0, # of connection points: 3
#     Node 2, Type 0, BuildingBlock: QEWDON_clean_linker_0, # of connection points: 3
#     Node 3, Type 0, BuildingBlock: QEWDON_clean_linker_0, # of connection points: 3
#     Node 4, Type 0, BuildingBlock: QEWDON_clean_linker_0, # of connection points: 3
#     Node 5, Type 0, BuildingBlock: QEWDON_clean_linker_0, # of connection points: 3
#     Node 6, Type 0, BuildingBlock: QEWDON_clean_linker_0, # of connection points: 3
#     Node 7, Type 0, BuildingBlock: QEWDON_clean_linker_0, # of connection points: 3
#     Node 8, Type 1, BuildingBlock: BETGAK_clean_sbu_0, # of connection points: 6
#     Node 9, Type 1, BuildingBlock: BETGAK_clean_sbu_0, # of connection points: 6
#     Node 10, Type 1, BuildingBlock: BETGAK_clean_sbu_0, # of connection points: 6
#     Node 11, Type 1, BuildingBlock: BETGAK_clean_sbu_0, # of connection points: 6
#     Edge 12, Type (0, 1), BuildingBlock: TEMPAE_clean_linker_10, # of connection points: 2
#     Edge 13, Type (0, 1), BuildingBlock: TEMPAE_clean_linker_10, # of connection points: 2
#     Edge 14, Type (0, 1), BuildingBlock: TEMPAE_clean_linker_10, # of connection points: 2
#     Edge 15, Type (0, 1), BuildingBlock: TEMPAE_clean_linker_10, # of connection points: 2
#     Edge 16, Type (0, 1), BuildingBlock: TEMPAE_clean_linker_10, # of connection points: 2
#     Edge 17, Type (0, 1), BuildingBlock: TEMPAE_clean_linker_10, # of connection points: 2
#     Edge 18, Type (0, 1), BuildingBlock: TEMPAE_clean_linker_10, # of connection points: 2
#     Edge 19, Type (0, 1), BuildingBlock: TEMPAE_clean_linker_10, # of connection points: 2
#     Edge 20, Type (0, 1), BuildingBlock: TEMPAE_clean_linker_10, # of connection points: 2
#     Edge 21, Type (0, 1), BuildingBlock: TEMPAE_clean_linker_10, # of connection points: 2
#     Edge 22, Type (0, 1), BuildingBlock: TEMPAE_clean_linker_10, # of connection points: 2
#     Edge 23, Type (0, 1), BuildingBlock: TEMPAE_clean_linker_10, # of connection points: 2
#     Edge 24, Type (0, 1), BuildingBlock: TEMPAE_clean_linker_10, # of connection points: 2
#     Edge 25, Type (0, 1), BuildingBlock: TEMPAE_clean_linker_10, # of connection points: 2
#     Edge 26, Type (0, 1), BuildingBlock: TEMPAE_clean_linker_10, # of connection points: 2
#     Edge 27, Type (0, 1), BuildingBlock: TEMPAE_clean_linker_10, # of connection points: 2
#     Edge 28, Type (0, 1), BuildingBlock: TEMPAE_clean_linker_10, # of connection points: 2
#     Edge 29, Type (0, 1), BuildingBlock: TEMPAE_clean_linker_10, # of connection points: 2
#     Edge 30, Type (0, 1), BuildingBlock: TEMPAE_clean_linker_10, # of connection points: 2
#     Edge 31, Type (0, 1), BuildingBlock: TEMPAE_clean_linker_10, # of connection points: 2
#     Edge 32, Type (0, 1), BuildingBlock: TEMPAE_clean_linker_10, # of connection points: 2
#     Edge 33, Type (0, 1), BuildingBlock: TEMPAE_clean_linker_10, # of connection points: 2
#     Edge 34, Type (0, 1), BuildingBlock: TEMPAE_clean_linker_10, # of connection points: 2
#     Edge 35, Type (0, 1), BuildingBlock: TEMPAE_clean_linker_10, # of connection points: 2
# Relax obj value: 0.172
# Max RMSD: 0.266
# Mean RMSD: 0.196
data_MOF--net-pyr--node1-BETGAK_clean_sbu_0--node2-QEWDON_clean_linker_0--edge1-TEMPAE_clean_linker_10
_symmetry_space_group_name_H-M    P1
_symmetry_Int_Tables_number       1
_symmetry_cell_setting            triclinic
loop_
_symmetry_equiv_pos_as_xyz
'x, y, z'
_cell_length_a     38.618559
_cell_length_b     42.250067
_cell_length_c     40.67331
_cell_angle_alpha  91.926746
_cell_angle_beta   89.377073
_cell_angle_gamma 108.22674
loop_
_atom_site_label
_atom_site_type_symbol
_atom_site_fract_x
_atom_site_fract_y
_atom_site_fract_z
_atom_type_partial_charge
H0 H 0.43275 0.32987 0.2061 0.0
C1 C 0.41172 0.3199 0.22421 0.0
C2 C 0.40527 0.28722 0.23506 0.0
C3 C 0.39053 0.33952 0.23608 0.0
H4 H 0.37154 0.24924 0.2663 0.0
C5 C 0.37774 0.2747 0.25849 0.0
C6 C 0.35667 0.29413 0.27071 0.0
C7 C 0.36326 0.32644 0.25948 0.0
C8 C 0.39587 0.37337 0.22367 0.0
H9 H 0.34721 0.34156 0.26926 0.0
C10 C 0.36542 0.38335 0.2162 0.0
C11 C 0.36956 0.4159 0.20625 0.0
C12 C 0.43095 0.3961 0.22002 0.0
H13 H 0.45489 0.38917 0.22578 0.0
C14 C 0.43539 0.42835 0.20974 0.0
H15 H 0.33837 0.36545 0.21775 0.0
C16 C 0.40498 0.43832 0.20308 0.0
H17 H 0.40925 0.46371 0.1959 0.0
H18 H 0.46251 0.44584 0.20733 0.0
H19 H 0.22851 0.89509 0.73573 0.0
C20 C 0.24495 0.88039 0.72584 0.0
C21 C 0.27931 0.88413 0.73955 0.0
C22 C 0.23173 0.85775 0.6993 0.0
H23 H 0.32661 0.86733 0.73701 0.0
C24 C 0.30045 0.86522 0.72613 0.0
C25 C 0.28779 0.84282 0.69944 0.0
C26 C 0.25317 0.83886 0.68641 0.0
C27 C 0.19613 0.85463 0.68408 0.0
H28 H 0.2434 0.82189 0.6655 0.0
C29 C 0.18854 0.88313 0.6737 0.0
C30 C 0.15593 0.88033 0.65696 0.0
C31 C 0.17038 0.82312 0.67845 0.0
H32 H 0.17566 0.80081 0.68629 0.0
C33 C 0.13755 0.82019 0.66268 0.0
H34 H 0.20847 0.90744 0.67805 0.0
C35 C 0.13038 0.84852 0.65181 0.0
H36 H 0.10523 0.84539 0.63866 0.0
H37 H 0.11783 0.79581 0.65838 0.0
H38 H 0.72114 0.45632 0.90054 0.0
C39 C 0.71107 0.43086 0.90853 0.0
C40 C 0.73057 0.42011 0.93321 0.0
C41 C 0.67707 0.4096 0.89629 0.0
H42 H 0.72988 0.37955 0.96446 0.0
C43 C 0.71563 0.38744 0.94514 0.0
C44 C 0.68229 0.36522 0.93332 0.0
C45 C 0.66412 0.37656 0.90838 0.0
C46 C 0.6506 0.42228 0.87666 0.0
H47 H 0.63862 0.35974 0.89898 0.0
C48 C 0.65843 0.44191 0.84735 0.0
C49 C 0.62983 0.45079 0.83087 0.0
C50 C 0.61463 0.41325 0.88879 0.0
H51 H 0.60736 0.39975 0.91133 0.0
C52 C 0.58709 0.42085 0.87247 0.0
H53 H 0.68591 0.45002 0.83768 0.0
C54 C 0.59435 0.43873 0.8439 0.0
H55 H 0.57154 0.44338 0.83196 0.0
H56 H 0.55959 0.41274 0.88215 0.0
H57 H 0.92782 0.80123 0.38525 0.0
C58 C 0.90541 0.78409 0.39818 0.0
C59 C 0.89411 0.79433 0.42897 0.0
C60 C 0.88633 0.75301 0.38246 0.0
H61 H 0.85459 0.77916 0.46796 0.0
C62 C 0.8632 0.77227 0.44409 0.0
C63 C 0.84278 0.74155 0.429 0.0
C64 C 0.85506 0.73196 0.39833 0.0
C65 C 0.89287 0.7477 0.3462 0.0
H66 H 0.83884 0.70928 0.38568 0.0
C67 C 0.90964 0.72433 0.3324 0.0
C68 C 0.91501 0.72213 0.29748 0.0
C69 C 0.88172 0.76791 0.32466 0.0
H70 H 0.86889 0.78579 0.33416 0.0
C71 C 0.88667 0.76553 0.29082 0.0
H72 H 0.91862 0.70851 0.34843 0.0
C73 C 0.90309 0.74303 0.27742 0.0
H74 H 0.90665 0.74199 0.25097 0.0
H75 H 0.87775 0.78139 0.27478 0.0
H76 H 0.71522 0.79274 0.94574 0.0
C77 C 0.73065 0.80897 0.92701 0.0
C78 C 0.76705 0.81072 0.92105 0.0
C79 C 0.71459 0.82914 0.90981 0.0
H80 H 0.81477 0.83292 0.89174 0.0
C81 C 0.78697 0.8322 0.89716 0.0
C82 C 0.7712 0.85205 0.87945 0.0
C83 C 0.73497 0.85054 0.88592 0.0
C84 C 0.67683 0.82844 0.91751 0.0
H85 H 0.72268 0.866 0.87246 0.0
C86 C 0.6691 0.8582 0.92542 0.0
C87 C 0.63368 0.85749 0.93474 0.0
C88 C 0.64865 0.79794 0.91825 0.0
H89 H 0.65399 0.77474 0.91216 0.0
C90 C 0.61328 0.79717 0.92671 0.0
H91 H 0.69099 0.88171 0.92571 0.0
C92 C 0.6058 0.82669 0.93506 0.0
H93 H 0.5782 0.82545 0.9418 0.0
H94 H 0.59165 0.77357 0.92708 0.0
H95 H 0.76806 0.1789 0.55405 0.0
C96 C 0.75985 0.17782 0.52852 0.0
C97 C 0.78087 0.16844 0.50416 0.0
C98 C 0.72825 0.18545 0.52016 0.0
H99 H 0.7867 0.15881 0.45259 0.0
C100 C 0.77063 0.16691 0.47113 0.0
C101 C 0.73963 0.17524 0.46205 0.0
C102 C 0.71852 0.18448 0.48679 0.0
C103 C 0.70525 0.19383 0.54641 0.0
H104 H 0.69432 0.19058 0.48013 0.0
C105 C 0.69114 0.22046 0.54304 0.0
C106 C 0.67005 0.2289 0.56825 0.0
C107 C 0.69763 0.17541 0.57525 0.0
H108 H 0.70768 0.15447 0.57837 0.0
C109 C 0.6766 0.1836 0.60025 0.0
H110 H 0.69749 0.23528 0.52124 0.0
C111 C 0.66295 0.21023 0.59689 0.0
H112 H 0.64653 0.21603 0.61653 0.0
H113 H 0.67083 0.16921 0.62231 0.0
H114 H 0.4466 0.81186 0.24862 0.0
C115 C 0.4197 0.79738 0.24 0.0
C116 C 0.40208 0.81109 0.21627 0.0
C117 C 0.40378 0.76457 0.25187 0.0
H118 H 0.35433 0.80018 0.18547 0.0
C119 C 0.36784 0.79071 0.2042 0.0
C120 C 0.35115 0.75782 0.21484 0.0
C121 C 0.36922 0.74531 0.23915 0.0
C122 C 0.42787 0.74786 0.26923 0.0
H123 H 0.35772 0.71966 0.24631 0.0
C124 C 0.4248 0.73768 0.30299 0.0
C125 C 0.4505 0.72307 0.31649 0.0
C126 C 0.45586 0.74223 0.24995 0.0
H127 H 0.45897 0.74927 0.22443 0.0
C128 C 0.48009 0.72747 0.26276 0.0
H129 H 0.40363 0.74187 0.31854 0.0
C130 C 0.47756 0.71816 0.29539 0.0
H131 H 0.49722 0.70695 0.30433 0.0
H132 H 0.50131 0.72336 0.2472 0.0
H133 H 0.2545 0.46589 0.75779 0.0
C134 C 0.23864 0.44357 0.74439 0.0
C135 C 0.2517 0.43487 0.71362 0.0
C136 C 0.20706 0.42188 0.75932 0.0
H137 H 0.24127 0.39796 0.67391 0.0
C138 C 0.23188 0.40438 0.69764 0.0
C139 C 0.20048 0.38199 0.71168 0.0
C140 C 0.18821 0.3915 0.74227 0.0
C141 C 0.19908 0.42538 0.79566 0.0
H142 H 0.16521 0.37404 0.75422 0.0
C143 C 0.18788 0.4517 0.81125 0.0
C144 C 0.18032 0.45149 0.84602 0.0
C145 C 0.20251 0.39982 0.81534 0.0
H146 H 0.2112 0.37968 0.80466 0.0
C147 C 0.19485 0.39942 0.84878 0.0
H148 H 0.18514 0.47179 0.79674 0.0
C149 C 0.18379 0.42465 0.86383 0.0
H150 H 0.17767 0.42298 0.88991 0.0
H151 H 0.19744 0.37922 0.86323 0.0
La152 La 0.05477 0.10216 0.53728 0.0
La153 La 0.04072 0.07353 0.60436 0.0
C154 C 0.06098 0.13501 0.4857 0.0
C155 C 0.09219 0.15336 0.46549 0.0
C156 C 0.1208 0.14023 0.45853 0.0
C157 C 0.14955 0.15708 0.43827 0.0
C158 C 0.15052 0.18757 0.42497 0.0
C159 C 0.12245 0.2012 0.43268 0.0
C160 C 0.09337 0.18409 0.45269 0.0
C161 C 0.10478 0.07683 0.55894 0.0
C162 C 0.08166 0.14995 0.6013 0.0
C163 C 0.03609 0.03984 0.65515 0.0
C164 C 1.00547 1.01667 0.67235 0.0
C165 C 0.96961 1.01622 0.66627 0.0
C166 C 0.94081 0.99659 0.68496 0.0
C167 C 0.94739 0.97687 0.70981 0.0
C168 C 0.9832 0.97634 0.71484 0.0
C169 C 1.01206 0.9962 0.69627 0.0
C170 C 0.99019 0.09811 0.58318 0.0
C171 C 1.01279 0.02583 0.54031 0.0
O172 O 0.05416 0.10275 0.48588 0.0
O173 O 0.0587 0.14759 0.51513 0.0
O174 O 0.09713 0.07812 0.52831 0.0
O175 O 0.08775 0.09278 0.57515 0.0
O176 O 0.06932 0.14725 0.57059 0.0
O177 O 0.07942 0.12266 0.61756 0.0
O178 O 0.03591 0.07072 0.65554 0.0
O179 O 0.04382 0.02991 0.626 0.0
O180 O 0.99695 0.09566 0.61383 0.0
O181 O 1.00744 0.08282 0.5663 0.0
O182 O 0.02423 0.02828 0.57129 0.0
O183 O 1.01561 0.05324 0.52404 0.0
H184 H 0.12082 0.11677 0.46846 0.0
H185 H 0.17113 0.1463 0.43303 0.0
H186 H 0.1226 0.22466 0.42262 0.0
H187 H 0.07163 0.19467 0.45792 0.0
H188 H 0.96403 0.03172 0.64765 0.0
H189 H 0.91345 0.99714 0.68027 0.0
H190 H 0.98909 0.96154 0.73397 0.0
H191 H 0.0396 0.99623 0.70117 0.0
La192 La 0.57362 0.09618 0.09518 0.0
La193 La 0.50966 0.08171 0.05668 0.0
C194 C 0.63566 0.11259 0.12191 0.0
C195 C 0.64794 0.11987 0.15639 0.0
C196 C 0.6331 0.097 0.1811 0.0
C197 C 0.64407 0.10467 0.21377 0.0
C198 C 0.66981 0.13545 0.2225 0.0
C199 C 0.68459 0.15835 0.19784 0.0
C200 C 0.67386 0.15054 0.16504 0.0
C201 C 0.52025 0.04379 0.1178 0.0
C202 C 0.51579 0.12615 0.12183 0.0
C203 C 0.44611 0.06353 0.03256 0.0
C204 C 0.42786 0.0465 1.00217 0.0
C205 C 0.43557 0.06153 0.97145 0.0
C206 C 0.41738 0.04519 0.94317 0.0
C207 C 0.39127 1.0135 0.94499 0.0
C208 C 0.38359 0.99854 0.97569 0.0
C209 C 0.40158 1.01496 1.004 0.0
C210 C 0.56323 0.13389 0.03395 0.0
C211 C 0.56801 0.05298 0.02955 0.0
O212 O 0.6165 0.08187 0.11436 0.0
O213 O 0.62196 0.13389 0.10894 0.0
O214 O 0.54195 0.06753 0.13564 0.0
O215 O 0.52868 0.05023 0.08794 0.0
O216 O 0.55084 0.12997 0.12195 0.0
O217 O 0.49381 0.1046 0.10114 0.0
O218 O 0.46929 0.09337 0.02996 0.0
O219 O 0.45801 0.04555 0.05237 0.0
O220 O 0.54129 0.11025 1.01608 0.0
O221 O 0.55471 0.12762 0.06384 0.0
O222 O 0.53269 0.048 0.03029 0.0
O223 O 0.59001 0.0756 0.04945 0.0
H224 H 0.61273 0.07328 0.17532 0.0
H225 H 0.63191 0.08673 0.23234 0.0
H226 H 0.70467 0.18216 0.20389 0.0
H227 H 0.68557 0.16858 0.14643 0.0
H228 H 0.45564 0.08586 0.96918 0.0
H229 H 0.42411 0.05716 0.91977 0.0
H230 H 0.36333 0.97428 0.97788 0.0
H231 H 0.39488 1.003 0.02741 0.0
La232 La 0.54328 0.56186 0.55147 0.0
La233 La 0.5513 0.61874 0.59308 0.0
C234 C 0.55661 0.51604 0.51742 0.0
C235 C 0.56432 0.48494 0.52359 0.0
C236 C 0.55561 0.46921 0.5538 0.0
C237 C 0.56549 0.4408 0.55987 0.0
C238 C 0.58448 0.42797 0.53591 0.0
C239 C 0.59266 0.44364 0.50557 0.0
C240 C 0.58264 0.47188 0.49949 0.0
C241 C 0.48259 0.55728 0.58555 0.0
C242 C 0.57744 0.56312 0.62448 0.0
C243 C 0.54085 0.66514 0.62857 0.0
C244 C 0.51504 0.68424 0.63015 0.0
C245 C 0.52126 0.71116 0.65271 0.0
C246 C 0.49552 0.72793 0.6568 0.0
C247 C 0.4631 0.71801 0.63834 0.0
C248 C 0.45746 0.69162 0.61495 0.0
C249 C 0.48322 0.67474 0.61097 0.0
C250 C 0.61172 0.62284 0.55862 0.0
C251 C 0.51685 0.61705 0.52089 0.0
O252 O 0.52367 0.51675 0.52418 0.0
O253 O 0.58161 0.54321 0.52773 0.0
O254 O 0.48372 0.54759 0.55507 0.0
O255 O 0.51509 0.56861 0.59602 0.0
O256 O 0.56736 0.54675 0.59588 0.0
O257 O 0.57361 0.59293 0.62943 0.0
O258 O 0.56308 0.67017 0.60347 0.0
O259 O 0.52706 0.63351 0.63463 0.0
O260 O 0.61086 0.63221 0.58919 0.0
O261 O 0.57914 0.61205 0.54837 0.0
O262 O 0.51749 0.62794 0.55205 0.0
O263 O 0.53038 0.5925 0.5138 0.0
H264 H 0.54172 0.47919 0.57281 0.0
H265 H 0.55912 0.42937 0.58355 0.0
H266 H 0.60688 0.43405 0.48653 0.0
H267 H 0.58968 0.48384 0.47611 0.0
H268 H 0.5457 0.71877 0.66768 0.0
H269 H 0.50084 0.7485 0.67464 0.0
H270 H 0.43264 0.68332 0.60055 0.0
H271 H 0.47785 0.65378 0.5936 0.0
La272 La 0.04637 0.55546 0.0833 0.0
La273 La 0.04399 0.61953 0.05231 0.0
C274 C 0.06503 0.50423 0.09104 0.0
C275 C 0.09093 0.49505 0.11208 0.0
C276 C 0.08609 0.46144 0.11775 0.0
C277 C 0.11333 0.45214 0.13345 0.0
C278 C 0.14618 0.47634 0.14332 0.0
C279 C 0.15004 0.51018 0.13889 0.0
C280 C 0.1226 0.5194 0.12366 0.0
C281 C 0.01996 0.59119 0.12762 0.0
C282 C 0.11114 0.62417 0.09819 0.0
C283 C 0.02785 0.66924 0.03323 0.0
C284 C 0.99479 0.67693 0.02398 0.0
C285 C 0.99759 0.70093 1.00037 0.0
C286 C 0.96678 0.70873 0.99073 0.0
C287 C 0.93251 0.69266 1.00457 0.0
C288 C 0.92969 0.66853 0.02831 0.0
C289 C 0.96064 0.66058 0.03785 0.0
C290 C 0.08021 0.58482 0.01778 0.0
C291 C 0.9752 0.55251 0.04295 0.0
O292 O 0.03625 0.50886 0.10524 0.0
O293 O 0.08012 0.52717 0.0698 0.0
O294 O 0.0248 0.56275 0.13295 0.0
O295 O 0.0301 0.59755 0.09823 0.0
O296 O 0.10041 0.591 0.09687 0.0
O297 O 0.09133 0.64096 0.08472 0.0
O298 O 0.03741 0.64847 1.01335 0.0
O299 O 0.03115 0.66323 0.06422 0.0
O300 O 0.08959 0.61711 0.02044 0.0
O301 O 0.05092 0.57336 0.03402 0.0
O302 O 0.98816 0.58562 0.04178 0.0
O303 O 0.99443 0.53511 0.05643 0.0
H304 H 0.06177 0.44228 0.10908 0.0
H305 H 0.109 0.42592 0.13712 0.0
H306 H 0.17497 0.52957 0.14573 0.0
H307 H 0.12688 0.5455 0.11962 0.0
H308 H 0.02372 0.71375 0.98942 0.0
H309 H 0.96991 0.72781 0.97279 0.0
H310 H 0.90359 0.65567 0.03925 0.0
H311 H 0.95792 0.64175 0.056 0.0
C312 C 0.3329 0.26448 0.3224 0.0
C313 C 0.32675 0.28022 0.29429 0.0
C314 C 0.30455 0.25074 0.34461 0.0
C315 C 0.26919 0.25237 0.33819 0.0
C316 C 0.26292 0.26843 0.30991 0.0
C317 C 0.29188 0.28235 0.28838 0.0
C318 C 0.31235 0.2342 0.37477 0.0
C319 C 0.22548 0.27021 0.30198 0.0
C320 C 0.18972 0.18665 0.37609 0.0
C321 C 0.18044 0.20457 0.40251 0.0
C322 C 0.21833 0.20204 0.35478 0.0
C323 C 0.23842 0.23605 0.36033 0.0
C324 C 0.22915 0.25431 0.38698 0.0
C325 C 0.19999 0.23837 0.40765 0.0
C326 C 0.22703 0.18189 0.32631 0.0
C327 C 0.25029 0.29051 0.39386 0.0
H328 H 0.35998 0.26313 0.32709 0.0
H329 H 0.28707 0.29426 0.26644 0.0
H330 H 0.3038 0.24542 0.39724 0.0
H331 H 0.29633 0.20734 0.3738 0.0
H332 H 0.34169 0.23653 0.37701 0.0
H333 H 0.22542 0.28439 0.27948 0.0
H334 H 0.20621 0.24465 0.29832 0.0
H335 H 0.21505 0.2822 0.32284 0.0
H336 H 0.17429 0.16058 0.37193 0.0
H337 H 0.19294 0.25213 0.42825 0.0
H338 H 0.25535 0.18112 0.32858 0.0
H339 H 0.22532 0.1939 0.3028 0.0
H340 H 0.20824 0.1559 0.32503 0.0
H341 H 0.2794 0.29318 0.39819 0.0
H342 H 0.23965 0.30112 0.41562 0.0
H343 H 0.24917 0.30543 0.3722 0.0
C344 C 0.32998 0.92672 0.76963 0.0
C345 C 0.29323 0.90707 0.76831 0.0
C346 C 0.34471 0.94571 0.79799 0.0
C347 C 0.32205 0.94529 0.82566 0.0
C348 C 0.28454 0.92674 0.82399 0.0
C349 C 0.27057 0.90777 0.79533 0.0
C350 C 0.38483 0.96522 0.79875 0.0
C351 C 0.2595 0.92589 0.85294 0.0
C352 C 0.369 0.96218 0.90881 0.0
C353 C 0.37247 0.99588 0.91488 0.0
C354 C 0.35217 0.94533 0.88007 0.0
C355 C 0.33825 0.96255 0.85694 0.0
C356 C 0.34112 0.99644 0.86317 0.0
C357 C 0.35836 1.01276 0.89203 0.0
C358 C 0.34994 0.90926 0.87416 0.0
C359 C 0.32631 1.01551 0.83922 0.0
H360 H 0.34747 0.92677 0.74859 0.0
H361 H 0.2422 0.89247 0.79456 0.0
H362 H 0.38876 0.99166 0.80601 0.0
H363 H 0.39875 0.95498 0.81746 0.0
H364 H 0.39825 0.96436 0.77459 0.0
H365 H 0.2305 0.91275 0.8467 0.0
H366 H 0.26747 0.91298 0.87347 0.0
H367 H 0.26202 0.95159 0.86193 0.0
H368 H 0.38022 0.94915 0.92624 0.0
H369 H 0.36062 0.03872 0.89685 0.0
H370 H 0.36524 0.90668 0.85151 0.0
H371 H 0.32118 0.89373 0.87026 0.0
H372 H 0.36124 0.89924 0.89499 0.0
H373 H 0.3407 1.01673 0.81531 0.0
H374 H 0.32942 0.04134 0.84833 0.0
H375 H 0.29698 1.00239 0.83451 0.0
C376 C 0.64968 0.46635 0.77078 0.0
C377 C 0.63357 0.47241 0.80061 0.0
C378 C 0.64506 0.48178 0.74101 0.0
C379 C 0.62263 0.50302 0.74024 0.0
C380 C 0.60756 0.51003 0.77055 0.0
C381 C 0.61404 0.49568 0.79992 0.0
C382 C 0.66341 0.47439 0.71013 0.0
C383 C 0.5826 0.53134 0.77184 0.0
C384 C 0.62037 0.5652 0.67252 0.0
C385 C 0.59102 0.54691 0.65234 0.0
C386 C 0.63241 0.55069 0.6995 0.0
C387 C 0.61366 0.5173 0.70824 0.0
C388 C 0.58401 0.49874 0.6878 0.0
C389 C 0.57374 0.51337 0.65996 0.0
C390 C 0.6653 0.57137 0.7188 0.0
C391 C 0.562 0.46365 0.69609 0.0
H392 H 0.66466 0.44852 0.7703 0.0
H393 H 0.60175 0.50135 0.82253 0.0
H394 H 0.64337 0.4551 0.69489 0.0
H395 H 0.67386 0.49701 0.6953 0.0
H396 H 0.68637 0.46489 0.7158 0.0
H397 H 0.57167 0.53338 0.79692 0.0
H398 H 0.59732 0.55679 0.76365 0.0
H399 H 0.55931 0.5206 0.75479 0.0
H400 H 0.63432 0.59099 0.66699 0.0
H401 H 0.55093 0.49886 0.64492 0.0
H402 H 0.68389 0.55656 0.72333 0.0
H403 H 0.6566 0.5789 0.74309 0.0
H404 H 0.68065 0.59428 0.70587 0.0
H405 H 0.57983 0.44757 0.69609 0.0
H406 H 0.53934 0.45261 0.67844 0.0
H407 H 0.5504 0.4635 0.7212 0.0
C408 C 0.91131 0.66933 0.26447 0.0
C409 C 0.93289 0.69919 0.27989 0.0
C410 C 0.92577 0.65193 0.24025 0.0
C411 C 0.96291 0.6646 0.23043 0.0
C412 C 0.98505 0.69433 0.24657 0.0
C413 C 0.96983 0.71123 0.2707 0.0
C414 C 0.90076 0.62052 0.22418 0.0
C415 C 0.02469 0.70906 0.23749 0.0
C416 C 1.00681 0.60401 0.18661 0.0
C417 C 1.0066 0.61159 0.15316 0.0
C418 C 0.99344 0.62124 0.21165 0.0
C419 C 0.97851 0.64672 0.20357 0.0
C420 C 0.97823 0.65458 0.16974 0.0
C421 C 0.99242 0.63721 0.14513 0.0
C422 C 0.99515 0.61195 0.24696 0.0
C423 C 0.96235 0.68108 0.15944 0.0
H424 H 0.88248 0.66037 0.27028 0.0
H425 H 0.98653 0.73487 0.28133 0.0
H426 H 0.89844 0.62427 0.19752 0.0
H427 H 0.91228 0.5997 0.22648 0.0
H428 H 0.87302 0.6131 0.23516 0.0
H429 H 0.03886 0.73118 0.25331 0.0
H430 H 0.03894 0.69013 0.23958 0.0
H431 H 0.02697 0.71663 0.2115 0.0
H432 H 0.01765 0.58438 0.19338 0.0
H433 H 0.99157 0.64316 0.11952 0.0
H434 H 0.96721 0.60271 0.25729 0.0
H435 H 1.01038 0.63427 0.262 0.0
H436 H 1.00854 0.5924 0.24952 0.0
H437 H 0.93333 0.67438 0.16706 0.0
H438 H 0.96401 0.68445 0.13243 0.0
H439 H 0.97694 0.70522 0.172 0.0
C440 C 0.43567 0.24301 0.24046 0.0
C441 C 0.42556 0.26531 0.22071 0.0
C442 C 0.45177 0.22008 0.22673 0.0
C443 C 0.45845 0.21974 0.19247 0.0
C444 C 0.44957 0.24295 0.17256 0.0
C445 C 0.43302 0.26527 0.18686 0.0
C446 C 0.46073 0.19563 0.24873 0.0
C447 C 0.45664 0.2436 0.13595 0.0
C448 C 0.52504 0.17792 0.15678 0.0
C449 C 0.50131 0.1483 0.14294 0.0
C450 C 0.51152 0.20113 0.17363 0.0
C451 C 0.4734 0.19432 0.1771 0.0
C452 C 0.44939 0.16381 0.1644 0.0
C453 C 0.46362 0.14127 0.14726 0.0
C454 C 0.53798 0.23352 0.18652 0.0
C455 C 0.40858 0.1554 0.16808 0.0
H456 H 0.4306 0.24321 0.26672 0.0
H457 H 0.42487 0.282 0.17127 0.0
H458 H 0.44449 0.16981 0.24116 0.0
H459 H 0.4899 0.19742 0.24616 0.0
H460 H 0.45499 0.1999 0.27505 0.0
H461 H 0.45032 0.26456 0.1243 0.0
H462 H 0.4856 0.24582 0.13097 0.0
H463 H 0.43972 0.21987 0.12405 0.0
H464 H 0.55421 0.18363 0.15338 0.0
H465 H 0.44515 0.11835 0.13679 0.0
H466 H 0.53268 0.23765 0.21292 0.0
H467 H 0.53411 0.25459 0.17308 0.0
H468 H 0.56682 0.23411 0.18366 0.0
H469 H 0.40131 0.15785 0.1943 0.0
H470 H 0.39381 0.12972 0.15884 0.0
H471 H 0.39892 0.17323 0.15426 0.0
C472 C 0.11454 0.91404 0.64461 0.0
C473 C 0.14942 0.91033 0.64358 0.0
C474 C 0.10798 0.94172 0.63099 0.0
C475 C 0.13709 0.96643 0.61629 0.0
C476 C 0.17241 0.96311 0.61556 0.0
C477 C 0.17809 0.93502 0.62898 0.0
C478 C 0.06985 0.9444 0.63204 0.0
C479 C 0.20415 0.98908 0.60025 0.0
C480 C 0.11457 0.02142 0.55348 0.0
C481 C 0.11647 0.05006 0.57265 0.0
C482 C 0.12118 0.99395 0.56741 0.0
C483 C 0.13052 0.99553 0.60113 0.0
C484 C 0.13342 0.02481 0.62036 0.0
C485 C 0.12614 0.05172 0.60588 0.0
C486 C 0.11712 0.96291 0.54628 0.0
C487 C 0.14343 0.02746 0.65635 0.0
H488 H 0.09233 0.89532 0.65618 0.0
H489 H 0.20497 0.93211 0.62746 0.0
H490 H 0.06989 0.9678 0.64527 0.0
H491 H 0.06007 0.94546 0.60667 0.0
H492 H 0.05023 0.92305 0.64437 0.0
H493 H 0.23018 0.98339 0.60275 0.0
H494 H 0.19881 0.99076 0.57373 0.0
H495 H 0.20738 1.01394 0.61196 0.0
H496 H 0.10655 0.01998 0.52786 0.0
H497 H 0.12732 0.07386 0.62069 0.0
H498 H 0.09516 0.94169 0.55632 0.0
H499 H 0.14269 0.95621 0.54669 0.0
H500 H 0.11042 0.966 0.52033 0.0
H501 H 0.12204 1.00883 0.67017 0.0
H502 H 0.1465 0.05262 0.66733 0.0
H503 H 0.16936 0.02181 0.65962 0.0
C504 C 0.76964 0.44625 0.98301 0.0
C505 C 0.76558 0.44301 0.94855 0.0
C506 C 0.80285 0.46522 0.99818 0.0
C507 C 0.83377 0.48124 0.97875 0.0
C508 C 0.82973 0.47848 0.9439 0.0
C509 C 0.79584 0.45985 0.92933 0.0
C510 C 0.80493 0.46774 0.03524 0.0
C511 C 0.86166 0.49444 0.92187 0.0
C512 C 0.9142 0.5513 0.01832 0.0
C513 C 0.93869 0.53429 0.02706 0.0
C514 C 0.88032 0.53458 1.0028 0.0
C515 C 0.87032 0.49983 0.99495 0.0
C516 C 0.89511 0.48263 1.00344 0.0
C517 C 0.92848 0.49982 0.01949 0.0
C518 C 0.85497 0.55421 0.99508 0.0
C519 C 0.88648 0.44586 0.99534 0.0
H520 H 0.74658 0.43373 0.9983 0.0
H521 H 0.79341 0.45745 0.90277 0.0
H522 H 0.82469 0.45566 0.04397 0.0
H523 H 0.81493 0.4943 0.04366 0.0
H524 H 0.77811 0.45573 0.04696 0.0
H525 H 0.85422 0.49084 0.8954 0.0
H526 H 0.87263 0.52156 0.9278 0.0
H527 H 0.88388 0.48362 0.92625 0.0
H528 H 0.92136 0.57783 0.02387 0.0
H529 H 0.94695 0.48618 0.02565 0.0
H530 H 0.8285 0.54344 1.00776 0.0
H531 H 0.84932 0.55249 0.9683 0.0
H532 H 0.86638 0.58094 1.00275 0.0
H533 H 0.86135 0.43166 1.00842 0.0
H534 H 0.90895 0.43619 1.00228 0.0
H535 H 0.88117 0.441 0.96859 0.0
C536 C 0.79762 0.68641 0.44718 0.0
C537 C 0.80731 0.72125 0.44475 0.0
C538 C 0.76553 0.668 0.46394 0.0
C539 C 0.74192 0.68452 0.47847 0.0
C540 C 0.75105 0.7195 0.47514 0.0
C541 C 0.78331 0.73724 0.45857 0.0
C542 C 0.75737 0.6309 0.46686 0.0
C543 C 0.72693 0.73847 0.4896 0.0
C544 C 0.64261 0.63709 0.50298 0.0
C545 C 0.64506 0.63579 0.53736 0.0
C546 C 0.67379 0.65203 0.48346 0.0
C547 C 0.70866 0.66585 0.49839 0.0
C548 C 0.7113 0.66355 0.53298 0.0
C549 C 0.67971 0.64883 0.55188 0.0
C550 C 0.66919 0.65393 0.44688 0.0
C551 C 0.74753 0.67746 0.55029 0.0
H552 H 0.81571 0.6736 0.4368 0.0
H553 H 0.78979 0.76396 0.45644 0.0
H554 H 0.75808 0.62483 0.49313 0.0
H555 H 0.72952 0.61757 0.45761 0.0
H556 H 0.77718 0.62135 0.453 0.0
H557 H 0.73671 0.76529 0.48364 0.0
H558 H 0.69867 0.72744 0.4803 0.0
H559 H 0.7259 0.73649 0.51675 0.0
H560 H 0.6161 0.62724 0.49138 0.0
H561 H 0.68213 0.64794 0.57834 0.0
H562 H 0.68825 0.64327 0.43333 0.0
H563 H 0.67604 0.68041 0.44011 0.0
H564 H 0.64093 0.64048 0.43863 0.0
H565 H 0.76793 0.66708 0.53864 0.0
H566 H 0.74563 0.67184 0.57685 0.0
H567 H 0.75781 0.70491 0.54789 0.0
C568 C 0.30521 0.41461 0.21851 0.0
C569 C 0.33684 0.42615 0.19927 0.0
C570 C 0.27353 0.42255 0.21125 0.0
C571 C 0.2736 0.44309 0.18447 0.0
C572 C 0.30568 0.45565 0.16553 0.0
C573 C 0.3368 0.44683 0.17299 0.0
C574 C 0.23976 0.40842 0.23184 0.0
C575 C 0.30692 0.47795 0.137 0.0
C576 C 0.18472 0.4382 0.14244 0.0
C577 C 0.17728 0.46642 0.15595 0.0
C578 C 0.21543 0.42987 0.15217 0.0
C579 C 0.23978 0.45057 0.17555 0.0
C580 C 0.23226 0.47878 0.1897 0.0
C581 C 0.20094 0.48617 0.17998 0.0
C582 C 0.22226 0.3993 0.13684 0.0
C583 C 0.25775 0.5016 0.21451 0.0
H584 H 0.30513 0.39922 0.23932 0.0
H585 H 0.36087 0.45559 0.15773 0.0
H586 H 0.23058 0.42889 0.24265 0.0
H587 H 0.21728 0.39261 0.21608 0.0
H588 H 0.24433 0.39317 0.25208 0.0
H589 H 0.33454 0.48714 0.1259 0.0
H590 H 0.28746 0.46413 0.11768 0.0
H591 H 0.29845 0.49973 0.14521 0.0
H592 H 0.16714 0.42306 0.12345 0.0
H593 H 0.1952 0.50769 0.19102 0.0
H594 H 0.22599 0.38288 0.15631 0.0
H595 H 0.24774 0.40679 0.12216 0.0
H596 H 0.19957 0.38471 0.12054 0.0
H597 H 0.26143 0.48726 0.23582 0.0
H598 H 0.24766 0.5222 0.22364 0.0
H599 H 0.285 0.51257 0.20322 0.0
C600 C 0.68732 0.31162 0.95814 0.0
C601 C 0.66557 0.33098 0.94834 0.0
C602 C 0.67213 0.28011 0.97271 0.0
C603 C 0.63392 0.26694 0.97821 0.0
C604 C 0.61183 0.28638 0.96855 0.0
C605 C 0.62769 0.31771 0.95384 0.0
C606 C 0.69714 0.26068 0.98202 0.0
C607 C 0.57114 0.27408 0.97387 0.0
C608 C 0.5881 0.17181 0.98632 0.0
C609 C 0.58318 0.16789 0.02049 0.0
C610 C 0.60476 0.2034 0.97252 0.0
C611 C 0.61699 0.23263 0.99307 0.0
C612 C 0.61243 0.22881 0.02769 0.0
C613 C 0.59586 0.19676 0.04089 0.0
C614 C 0.60896 0.20548 0.93566 0.0
C615 C 0.6246 0.25879 0.0509 0.0
H616 H 0.71646 0.32089 0.95398 0.0
H617 H 0.61024 0.33217 0.94719 0.0
H618 H 0.69428 0.25533 1.00861 0.0
H619 H 0.68936 0.23634 0.96829 0.0
H620 H 0.7262 0.27424 0.97676 0.0
H621 H 0.55759 0.29211 0.96572 0.0
H622 H 0.55911 0.25004 0.96016 0.0
H623 H 0.56508 0.26942 1.00032 0.0
H624 H 0.57859 0.14995 0.9701 0.0
H625 H 0.59225 0.19441 0.06726 0.0
H626 H 0.63802 0.2174 0.92918 0.0
H627 H 0.59342 0.22131 0.92616 0.0
H628 H 0.59919 0.18058 0.92298 0.0
H629 H 0.65408 0.27193 0.04742 0.0
H630 H 0.61975 0.25196 0.07707 0.0
H631 H 0.60977 0.27662 0.0453 0.0
C632 C 0.89238 0.84612 0.46236 0.0
C633 C 0.91274 0.82869 0.44467 0.0
C634 C 0.90896 0.87769 0.47786 0.0
C635 C 0.9472 0.89322 0.47563 0.0
C636 C 0.96798 0.87613 0.45749 0.0
C637 C 0.95068 0.84434 0.4424 0.0
C638 C 0.88534 0.8945 0.49671 0.0
C639 C 1.00869 0.89146 0.45408 0.0
C640 C 0.98357 0.98864 0.49108 0.0
C641 C 0.9961 0.99187 0.52379 0.0
C642 C 0.96828 0.95702 0.47512 0.0
C643 C 0.96508 0.92733 0.49201 0.0
C644 C 0.97795 0.93043 0.52496 0.0
C645 C 0.99323 0.96238 0.5403 0.0
C646 C 0.95536 0.95543 0.44005 0.0
C647 C 0.97527 0.89988 0.54425 0.0
H648 H 0.86305 0.83528 0.46386 0.0
H649 H 0.96711 0.83151 0.42917 0.0
H650 H 0.89492 0.89981 0.52253 0.0
H651 H 0.88756 0.91875 0.48573 0.0
H652 H 0.85618 0.87907 0.49682 0.0
H653 H 0.02113 0.87541 0.43903 0.0
H654 H 1.01504 0.91603 0.44251 0.0
H655 H 0.02162 0.89589 0.47875 0.0
H656 H 0.98569 1.01095 0.47775 0.0
H657 H 1.00293 0.96419 0.56541 0.0
H658 H 0.92566 0.94214 0.4387 0.0
H659 H 0.96915 0.94108 0.42427 0.0
H660 H 0.96069 0.98057 0.42984 0.0
H661 H 0.94624 0.8847 0.54683 0.0
H662 H 0.98743 0.90627 0.56919 0.0
H663 H 0.98932 0.8841 0.53086 0.0
C664 C 0.34814 0.84003 0.67946 0.0
C665 C 0.31111 0.82376 0.68541 0.0
C666 C 0.37144 0.82214 0.66884 0.0
C667 C 0.35737 0.7871 0.66418 0.0
C668 C 0.3197 0.77067 0.66889 0.0
C669 C 0.29694 0.78925 0.67939 0.0
C670 C 0.41139 0.84061 0.66385 0.0
C671 C 0.30376 0.73333 0.66423 0.0
C672 C 0.4174 0.74413 0.6184 0.0
C673 C 0.43479 0.73445 0.64456 0.0
C674 C 0.39149 0.76073 0.62432 0.0
C675 C 0.38273 0.76756 0.65715 0.0
C676 C 0.39957 0.75709 0.68359 0.0
C677 C 0.4254 0.74069 0.67696 0.0
C678 C 0.37415 0.77165 0.59554 0.0
C679 C 0.39079 0.76371 0.71895 0.0
H680 H 0.35901 0.8668 0.68358 0.0
H681 H 0.26834 0.77662 0.68411 0.0
H682 H 0.42779 0.83304 0.68249 0.0
H683 H 0.42043 0.83411 0.63928 0.0
H684 H 0.41741 0.86809 0.66602 0.0
H685 H 0.27353 0.72478 0.66593 0.0
H686 H 0.31184 0.72507 0.63998 0.0
H687 H 0.31468 0.72091 0.68336 0.0
H688 H 0.42473 0.73945 0.59332 0.0
H689 H 0.43827 0.73267 0.69724 0.0
H690 H 0.38212 0.79927 0.59576 0.0
H691 H 0.34401 0.76217 0.59759 0.0
H692 H 0.38236 0.76278 0.57157 0.0
H693 H 0.39866 0.79099 0.72417 0.0
H694 H 0.40518 0.75271 0.73662 0.0
H695 H 0.36102 0.75334 0.72329 0.0
C696 C 0.77989 0.8717 0.82168 0.0
C697 C 0.79299 0.87378 0.85393 0.0
C698 C 0.80233 0.88901 0.79644 0.0
C699 C 0.83846 0.90903 0.80386 0.0
C700 C 0.85115 0.91236 0.83671 0.0
C701 C 0.8283 0.89456 0.86132 0.0
C702 C 0.78795 0.88476 0.76167 0.0
C703 C 0.8893 0.93383 0.84573 0.0
C704 C 0.91357 0.92551 0.73978 0.0
C705 C 0.9174 0.9584 0.73166 0.0
C706 C 0.88692 0.90866 0.76228 0.0
C707 C 0.86383 0.92526 0.77724 0.0
C708 C 0.8669 0.95814 0.76843 0.0
C709 C 0.8936 0.97429 0.74565 0.0
C710 C 0.88421 0.87345 0.7708 0.0
C711 C 0.84301 0.97674 0.78405 0.0
H712 H 0.75266 0.8554 0.81595 0.0
H713 H 0.83827 0.89637 0.88635 0.0
H714 H 0.79212 0.90944 0.75086 0.0
H715 H 0.80328 0.87156 0.74623 0.0
H716 H 0.75849 0.87032 0.76039 0.0
H717 H 0.8941 0.93542 0.8727 0.0
H718 H 0.90945 0.92345 0.83361 0.0
H719 H 0.89446 0.95942 0.83678 0.0
H720 H 0.93165 0.91305 0.7287 0.0
H721 H 0.89674 0.99986 0.7397 0.0
H722 H 0.85572 0.85687 0.7678 0.0
H723 H 0.89179 0.87286 0.79695 0.0
H724 H 0.90232 0.86327 0.75525 0.0
H725 H 0.81387 0.96162 0.78195 0.0
H726 H 0.84688 1.00114 0.77266 0.0
H727 H 0.84941 0.98123 0.81067 0.0
C728 C 0.69238 0.15925 0.41737 0.0
C729 C 0.72898 0.17325 0.42681 0.0
C730 C 0.6824 0.15513 0.38404 0.0
C731 C 0.70969 0.16497 0.35957 0.0
C732 C 0.74653 0.17995 0.36893 0.0
C733 C 0.75569 0.18406 0.40242 0.0
C734 C 0.64277 0.13928 0.37499 0.0
C735 C 0.77642 0.19073 0.34356 0.0
C736 C 0.6898 0.12002 0.27624 0.0
C737 C 0.68093 0.14352 0.25735 0.0
C738 C 0.69949 0.12684 0.30946 0.0
C739 C 0.69999 0.15782 0.32422 0.0
C740 C 0.69119 0.18173 0.30524 0.0
C741 C 0.68193 0.17435 0.27193 0.0
C742 C 0.70914 0.10086 0.32878 0.0
C743 C 0.69112 0.21489 0.32022 0.0
H744 H 0.67161 0.15052 0.436 0.0
H745 H 0.78395 0.19547 0.40953 0.0
H746 H 0.6341 0.15508 0.35766 0.0
H747 H 0.63903 0.11479 0.36228 0.0
H748 H 0.62463 0.13538 0.39687 0.0
H749 H 0.80347 0.20337 0.3549 0.0
H750 H 0.77813 0.16866 0.32887 0.0
H751 H 0.77013 0.20792 0.32626 0.0
H752 H 0.68944 0.09632 0.26491 0.0
H753 H 0.67471 0.19242 0.25744 0.0
H754 H 0.69018 0.09337 0.34985 0.0
H755 H 0.73705 0.11144 0.33903 0.0
H756 H 0.7079 0.07823 0.31351 0.0
H757 H 0.67128 0.21085 0.34081 0.0
H758 H 0.68392 0.23085 0.30204 0.0
H759 H 0.71836 0.22849 0.3306 0.0
C760 C 0.48503 0.72689 0.36985 0.0
C761 C 0.45232 0.71307 0.35201 0.0
C762 C 0.49295 0.71249 0.39875 0.0
C763 C 0.46769 0.68308 0.41108 0.0
C764 C 0.4337 0.66995 0.39424 0.0
C765 C 0.42657 0.6848 0.36505 0.0
C766 C 0.5296 0.72782 0.41498 0.0
C767 C 0.4054 0.63905 0.40613 0.0
C768 C 0.50752 0.62498 0.45996 0.0
C769 C 0.50263 0.63327 0.49321 0.0
C770 C 0.49591 0.64042 0.43353 0.0
C771 C 0.47826 0.66497 0.43969 0.0
C772 C 0.47262 0.67309 0.47322 0.0
C773 C 0.48494 0.65748 0.49929 0.0
C774 C 0.5033 0.6308 0.39871 0.0
C775 C 0.45376 0.69861 0.48165 0.0
H776 H 0.50562 0.74824 0.35999 0.0
H777 H 0.40164 0.6731 0.35142 0.0
H778 H 0.52619 0.73194 0.44174 0.0
H779 H 0.54592 0.71045 0.41212 0.0
H780 H 0.54519 0.75196 0.40424 0.0
H781 H 0.37886 0.63424 0.39339 0.0
H782 H 0.4151 0.61718 0.40165 0.0
H783 H 0.40114 0.64131 0.43302 0.0
H784 H 0.52114 0.60658 0.45439 0.0
H785 H 0.48071 0.66438 0.52456 0.0
H786 H 0.52123 0.65294 0.38624 0.0
H787 H 0.47743 0.6219 0.38464 0.0
H788 H 0.51657 0.61094 0.39768 0.0
H789 H 0.47033 0.72332 0.47283 0.0
H790 H 0.44929 0.70089 0.50854 0.0
H791 H 0.42702 0.69184 0.46895 0.0
C792 C 0.13738 0.48622 0.85834 0.0
C793 C 0.16884 0.47779 0.86579 0.0
C794 C 0.12234 0.50469 0.88123 0.0
C795 C 0.13859 0.51477 0.91278 0.0
C796 C 0.17113 0.50742 0.91972 0.0
C797 C 0.18583 0.48961 0.89632 0.0
C798 C 0.08824 0.51245 0.87203 0.0
C799 C 0.18976 0.5171 0.95266 0.0
C800 C 0.12019 0.58418 0.96798 0.0
C801 C 0.09441 0.56636 0.99091 0.0
C802 C 0.13359 0.56795 0.94204 0.0
C803 C 0.12185 0.53259 0.9388 0.0
C804 C 0.09578 0.51441 0.96191 0.0
C805 C 0.08215 0.53138 0.98722 0.0
C806 C 0.16064 0.58881 0.91809 0.0
C807 C 0.08269 0.47683 0.96025 0.0
H808 H 0.12351 0.47704 0.83527 0.0
H809 H 0.21012 0.48347 0.90264 0.0
H810 H 0.06523 0.49823 0.88759 0.0
H811 H 0.09189 0.53933 0.8767 0.0
H812 H 0.08079 0.50599 0.8458 0.0
H813 H 0.21506 0.51003 0.95429 0.0
H814 H 0.19679 0.54439 0.95734 0.0
H815 H 0.17092 0.50476 0.97253 0.0
H816 H 0.12983 0.61116 0.97011 0.0
H817 H 0.06207 0.51714 1.00436 0.0
H818 H 0.15095 0.58173 0.89248 0.0
H819 H 0.18717 0.58407 0.92035 0.0
H820 H 0.16516 0.61592 0.92228 0.0
H821 H 0.07041 0.46775 0.93582 0.0
H822 H 0.06221 0.46616 0.97959 0.0
H823 H 0.10615 0.46729 0.96315 0.0
C824 C 0.60609 0.88918 0.97442 0.0
C825 C 0.62613 0.88859 0.94559 0.0
C826 C 0.59893 0.9183 0.98544 0.0
C827 C 0.61192 0.94758 0.96707 0.0
C828 C 0.63217 0.9472 0.93791 0.0
C829 C 0.63921 0.91771 0.92759 0.0
C830 C 0.57752 0.91774 1.01686 0.0
C831 C 0.64609 0.97782 0.91752 0.0
C832 C 0.56 1.00883 0.98531 0.0
C833 C 0.58232 0.0302 1.00911 0.0
C834 C 0.57041 0.98305 0.9698 0.0
C835 C 0.60378 0.97832 0.97855 0.0
C836 C 0.62745 1.00106 1.00106 0.0
C837 C 0.61651 0.02687 1.01596 0.0
C838 C 0.54464 0.95966 0.94556 0.0
C839 C 0.6632 0.99681 1.01112 0.0
H840 H 0.59642 0.86688 0.98868 0.0
H841 H 0.65452 0.91727 0.90518 0.0
H842 H 0.59377 0.93695 0.03471 0.0
H843 H 0.55223 0.92386 1.01173 0.0
H844 H 0.56991 0.8931 0.02852 0.0
H845 H 0.66164 0.97349 0.89561 0.0
H846 H 0.62288 0.9857 0.90914 0.0
H847 H 0.66398 0.99878 0.93266 0.0
H848 H 0.53366 1.01143 0.97966 0.0
H849 H 0.6339 0.04324 0.03436 0.0
H850 H 0.53255 0.93501 0.95672 0.0
H851 H 0.55951 0.95571 0.9231 0.0
H852 H 0.52213 0.96914 0.9383 0.0
H853 H 0.6578 0.97425 0.02604 0.0
H854 H 0.68026 1.01859 0.0259 0.0
H855 H 0.67892 0.99308 0.98916 0.0
C856 C 0.81102 0.12551 0.51314 0.0
C857 C 0.81296 0.15911 0.51345 0.0
C858 C 0.8407 0.11599 0.52355 0.0
C859 C 0.87313 0.14083 0.53391 0.0
C860 C 0.87543 0.17494 0.53338 0.0
C861 C 0.84503 0.18367 0.52346 0.0
C862 C 0.83703 0.07937 0.5243 0.0
C863 C 0.90978 0.2021 0.54365 0.0
C864 C 0.9352 0.11591 0.59234 0.0
C865 C 0.96103 0.10995 0.57066 0.0
C866 C 0.90644 0.12603 0.58065 0.0
C867 C 0.90405 0.13098 0.5466 0.0
C868 C 0.93067 0.12577 0.52472 0.0
C869 C 0.95869 0.11493 0.53701 0.0
C870 C 0.87824 0.13082 0.60466 0.0
C871 C 0.92943 0.13148 0.48836 0.0
H872 H 0.78594 0.10669 0.50544 0.0
H873 H 0.84623 0.20966 0.52351 0.0
H874 H 0.85879 0.07405 0.50924 0.0
H875 H 0.84044 0.0725 0.54988 0.0
H876 H 0.81016 0.06327 0.51494 0.0
H877 H 0.90785 0.22741 0.53984 0.0
H878 H 0.91535 0.2 0.57005 0.0
H879 H 0.93342 0.19927 0.52951 0.0
H880 H 0.93704 0.11199 0.61838 0.0
H881 H 0.97888 0.11049 0.52032 0.0
H882 H 0.85087 0.11386 0.59763 0.0
H883 H 0.87712 0.15669 0.60384 0.0
H884 H 0.88403 0.12584 0.63034 0.0
H885 H 0.90422 0.11392 0.47746 0.0
H886 H 0.95329 0.12802 0.47499 0.0
H887 H 0.92861 0.1571 0.48442 0.0
C888 C 0.31199 0.73561 0.16405 0.0
C889 C 0.31607 0.73623 0.19849 0.0
C890 C 0.27922 0.71679 0.14812 0.0
C891 C 0.24882 0.69807 0.16675 0.0
C892 C 0.2528 0.69834 0.20153 0.0
C893 C 0.28623 0.71699 0.21683 0.0
C894 C 0.27714 0.71703 0.1111 0.0
C895 C 0.22139 0.67936 0.22274 0.0
C896 C 0.1538 0.67668 0.12603 0.0
C897 C 0.14637 0.64304 0.11576 0.0
C898 C 0.18634 0.69446 0.14304 0.0
C899 C 0.21301 0.67876 0.1498 0.0
C900 C 0.20572 0.64484 0.13937 0.0
C901 C 0.17271 0.62751 0.12283 0.0
C902 C 0.19215 0.73025 0.15387 0.0
C903 C 0.23311 0.62684 0.14527 0.0
H904 H 0.33477 0.7498 0.14933 0.0
H905 H 0.28867 0.71722 0.24337 0.0
H906 H 0.26945 0.69114 0.10072 0.0
H907 H 0.25566 0.72775 0.10381 0.0
H908 H 0.30337 0.73173 0.09992 0.0
H909 H 0.22857 0.68176 0.24927 0.0
H910 H 0.19785 0.68868 0.21925 0.0
H911 H 0.21241 0.65255 0.2152 0.0
H912 H 0.13387 0.68915 0.12111 0.0
H913 H 0.16784 0.60176 0.11495 0.0
H914 H 0.21662 0.74675 0.14158 0.0
H915 H 0.19719 0.73339 0.18077 0.0
H916 H 0.16841 0.73863 0.1481 0.0
H917 H 0.25903 0.63957 0.1325 0.0
H918 H 0.22329 0.60037 0.13641 0.0
H919 H 0.23931 0.6276 0.1719 0.0
C920 C 0.29632 0.49064 0.69631 0.0
C921 C 0.28731 0.45584 0.69858 0.0
C922 C 0.32835 0.50961 0.67979 0.0
C923 C 0.35259 0.49371 0.66537 0.0
C924 C 0.34418 0.45878 0.66865 0.0
C925 C 0.31197 0.44048 0.68495 0.0
C926 C 0.33572 0.54663 0.67695 0.0
C927 C 0.36899 0.44044 0.65433 0.0
C928 C 0.41467 0.53035 0.59212 0.0
C929 C 0.44922 0.54394 0.60673 0.0
C930 C 0.38314 0.51517 0.61094 0.0
C931 C 0.38572 0.51294 0.64555 0.0
C932 C 0.42046 0.52732 0.66057 0.0
C933 C 0.45157 0.54272 0.64113 0.0
C934 C 0.34705 0.50068 0.59353 0.0
C935 C 0.42502 0.52552 0.69717 0.0
H936 H 0.2777 0.50297 0.70653 0.0
H937 H 0.30598 0.41378 0.68693 0.0
H938 H 0.36345 0.56038 0.68619 0.0
H939 H 0.33481 0.55267 0.6507 0.0
H940 H 0.31558 0.55571 0.69085 0.0
H941 H 0.35981 0.41363 0.66034 0.0
H942 H 0.37004 0.44237 0.62717 0.0
H943 H 0.39716 0.452 0.66368 0.0
H944 H 0.4123 0.53116 0.56566 0.0
H945 H 0.478 0.55296 0.65282 0.0
H946 H 0.32625 0.51059 0.60512 0.0
H947 H 0.33732 0.47322 0.59589 0.0
H948 H 0.34891 0.50633 0.56696 0.0
H949 H 0.40545 0.53562 0.71065 0.0
H950 H 0.45309 0.53954 0.70552 0.0
H951 H 0.41885 0.4991 0.70392 0.0
C952 C 0.76819 0.75595 0.94229 0.0
C953 C 0.78489 0.79036 0.93942 0.0
C954 C 0.78718 0.736 0.95581 0.0
C955 C 0.82356 0.75094 0.96664 0.0
C956 C 0.83966 0.78594 0.9655 0.0
C957 C 0.82011 0.80519 0.95195 0.0
C958 C 0.76903 0.69881 0.95687 0.0
C959 C 0.87831 0.80294 0.97699 0.0
C960 C 0.87725 0.70962 0.01843 0.0
C961 C 0.90036 0.70218 0.99465 0.0
C962 C 0.85023 0.72356 1.00949 0.0
C963 C 0.84641 0.73017 0.97605 0.0
C964 C 0.86803 0.72055 0.95177 0.0
C965 C 0.89471 0.70666 0.96138 0.0
C966 C 0.82746 0.73319 0.03603 0.0
C967 C 0.86466 0.72692 0.9158 0.0
H968 H 0.74096 0.74443 0.93256 0.0
H969 H 0.8328 0.83189 0.95029 0.0
H970 H 0.78138 0.68615 0.93793 0.0
H971 H 0.7734 0.6894 0.98111 0.0
H972 H 0.73926 0.69173 0.95211 0.0
H973 H 0.88578 0.83055 0.97672 0.0
H974 H 0.88202 0.7956 1.00231 0.0
H975 H 0.89752 0.79493 0.96076 0.0
H976 H 0.88156 0.70623 0.0442 0.0
H977 H 0.91208 0.7003 0.94289 0.0
H978 H 0.79839 0.72566 0.02858 0.0
H979 H 0.83683 0.76068 0.03988 0.0
H980 H 0.82957 0.72169 0.05979 0.0
H981 H 0.83573 0.71747 0.90793 0.0
H982 H 0.88083 0.71498 0.89979 0.0
H983 H 0.8744 0.75416 0.91192 0.0
C984 C 0.45745 0.8583 0.19602 0.0
C985 C 0.41971 0.84578 0.20246 0.0
C986 C 0.47359 0.88983 0.18167 0.0
C987 C 0.45191 0.91016 0.17335 0.0
C988 C 0.41392 0.89782 0.18004 0.0
C989 C 0.3985 0.86622 0.1943 0.0
C990 C 0.51407 0.90134 0.17516 0.0
C991 C 0.38934 0.91815 0.1722 0.0
C992 C 0.49793 1.00531 0.1655 0.0
C993 C 0.50122 1.00957 0.13126 0.0
C994 C 0.4821 0.97357 0.17926 0.0
C995 C 0.46894 0.94452 0.1586 0.0
C996 C 0.47195 0.94866 0.12392 0.0
C997 C 0.48783 0.98085 0.11077 0.0
C998 C 0.47964 0.97115 0.21619 0.0
C999 C 0.45862 0.91889 0.10059 0.0
H1000 H 0.47448 0.84309 0.20152 0.0
H1001 H 0.36951 0.85764 0.19935 0.0
H1002 H 0.51924 0.90592 0.14858 0.0
H1003 H 0.52709 0.9253 0.18871 0.0
H1004 H 0.52734 0.88288 0.18265 0.0
H1005 H 0.36037 0.90518 0.17835 0.0
H1006 H 0.39832 0.94238 0.1861 0.0
H1007 H 0.39123 0.9237 0.14565 0.0
H1008 H 0.50806 0.02703 0.18181 0.0
H1009 H 0.49021 0.98345 0.08435 0.0
H1010 H 0.49495 0.95463 0.22454 0.0
H1011 H 0.45081 0.95984 0.22371 0.0
H1012 H 0.49069 0.99586 0.22903 0.0
H1013 H 0.47321 0.90068 0.10538 0.0
H1014 H 0.46273 0.9259 0.07441 0.0
H1015 H 0.42918 0.90613 0.10476 0.0
C1016 C 0.14422 0.33237 0.69671 0.0
C1017 C 0.18225 0.34786 0.69538 0.0
C1018 C 0.12725 0.3005 0.6817 0.0
C1019 C 0.14846 0.2831 0.66466 0.0
C1020 C 0.18678 0.29851 0.66328 0.0
C1021 C 0.20304 0.33027 0.67857 0.0
C1022 C 0.08641 0.28541 0.68406 0.0
C1023 C 0.21085 0.28132 0.64566 0.0
C1024 C 0.11057 0.18754 0.65044 0.0
C1025 C 0.09879 0.18404 0.61747 0.0
C1026 C 0.12632 0.21929 0.66601 0.0
C1027 C 0.1308 0.24884 0.64847 0.0
C1028 C 0.11895 0.24548 0.6152 0.0
C1029 C 0.10316 0.21341 0.60025 0.0
C1030 C 0.13827 0.22118 0.70142 0.0
C1031 C 0.12311 0.27589 0.59521 0.0
H1032 H 0.12748 0.34535 0.7092 0.0
H1033 H 0.23241 0.34109 0.67774 0.0
H1034 H 0.07435 0.28069 0.65904 0.0
H1035 H 0.07947 0.261 0.69605 0.0
H1036 H 0.07361 0.30174 0.69825 0.0
H1037 H 0.24006 0.29663 0.6462 0.0
H1038 H 0.20805 0.2572 0.65715 0.0
H1039 H 0.20215 0.27571 0.61963 0.0
H1040 H 0.1074 0.16534 0.66428 0.0
H1041 H 0.09429 0.21142 0.57487 0.0
H1042 H 0.12412 0.23572 0.71653 0.0
H1043 H 0.16795 0.23442 0.70336 0.0
H1044 H 0.13253 0.19614 0.71195 0.0
H1045 H 0.10854 0.29191 0.60741 0.0
H1046 H 0.11236 0.26934 0.56981 0.0
H1047 H 0.15232 0.29089 0.59377 0.0
C1048 C 0.65932 0.2809 0.59077 0.0
C1049 C 0.65591 0.25744 0.5648 0.0
C1050 C 0.64699 0.30854 0.58751 0.0
C1051 C 0.63068 0.31265 0.55762 0.0
C1052 C 0.62663 0.28875 0.53151 0.0
C1053 C 0.63943 0.26148 0.53538 0.0
C1054 C 0.65206 0.33368 0.61577 0.0
C1055 C 0.60914 0.29219 0.49936 0.0
C1056 C 0.57237 0.37024 0.55642 0.0
C1057 C 0.59645 0.39872 0.54256 0.0
C1058 C 0.5832 0.34205 0.56172 0.0
C1059 C 0.61901 0.34256 0.55318 0.0
C1060 C 0.64362 0.37149 0.53976 0.0
C1061 C 0.632 0.39919 0.53453 0.0
C1062 C 0.55617 0.31154 0.57592 0.0
C1063 C 0.68215 0.37311 0.53068 0.0
H1064 H 0.6724 0.27802 0.61343 0.0
H1065 H 0.63637 0.24316 0.51541 0.0
H1066 H 0.67006 0.35834 0.60806 0.0
H1067 H 0.62547 0.33679 0.62289 0.0
H1068 H 0.66424 0.32629 0.63771 0.0
H1069 H 0.60688 0.27081 0.48194 0.0
H1070 H 0.58147 0.29409 0.50391 0.0
H1071 H 0.62538 0.31544 0.48752 0.0
H1072 H 0.54479 0.36975 0.56243 0.0
H1073 H 0.65084 0.42139 0.52428 0.0
H1074 H 0.56738 0.30464 0.59862 0.0
H1075 H 0.55131 0.29012 0.55812 0.0
H1076 H 0.52963 0.31543 0.5819 0.0
H1077 H 0.69638 0.3679 0.55241 0.0
H1078 H 0.69816 0.39781 0.52131 0.0
H1079 H 0.68174 0.35372 0.51148 0.0
loop_
_geom_bond_atom_site_label_1
_geom_bond_atom_site_label_2
_geom_bond_distance
_geom_bond_site_symmetry_2
_ccdc_geom_bond_type
H0 C1 0.949 . S
C1 H0 0.949 . S
C1 C2 1.395 . S
C1 C3 1.391 . S
C2 C1 1.395 . S
C2 C5 1.390 . S
C3 C1 1.391 . S
C3 C7 1.387 . S
C3 C8 1.491 . S
H4 C5 0.950 . S
C5 C2 1.390 . S
C5 H4 0.950 . S
C5 C6 1.378 . S
C6 C5 1.378 . S
C6 C7 1.409 . S
C7 C3 1.387 . S
C7 C6 1.409 . S
C7 H9 0.951 . S
C8 C3 1.491 . S
C8 C10 1.382 . S
C8 C12 1.404 . S
H9 C7 0.951 . S
C10 C8 1.382 . S
C10 C11 1.390 . S
C10 H15 0.949 . S
C11 C10 1.390 . S
C11 C16 1.399 . S
C12 C8 1.404 . S
C12 H13 0.950 . S
C12 C14 1.375 . S
H13 C12 0.950 . S
C14 C12 1.375 . S
C14 C16 1.382 . S
C14 H18 0.950 . S
H15 C10 0.949 . S
C16 C11 1.399 . S
C16 C14 1.382 . S
C16 H17 0.952 . S
H17 C16 0.952 . S
H18 C14 0.950 . S
H19 C20 0.949 . S
C20 H19 0.949 . S
C20 C21 1.395 . S
C20 C22 1.391 . S
C21 C20 1.395 . S
C21 C24 1.390 . S
C22 C20 1.391 . S
C22 C26 1.387 . S
C22 C27 1.491 . S
H23 C24 0.950 . S
C24 C21 1.390 . S
C24 H23 0.950 . S
C24 C25 1.378 . S
C25 C24 1.378 . S
C25 C26 1.409 . S
C26 C22 1.387 . S
C26 C25 1.409 . S
C26 H28 0.951 . S
C27 C22 1.491 . S
C27 C29 1.382 . S
C27 C31 1.404 . S
H28 C26 0.951 . S
C29 C27 1.382 . S
C29 C30 1.390 . S
C29 H34 0.949 . S
C30 C29 1.390 . S
C30 C35 1.399 . S
C31 C27 1.404 . S
C31 H32 0.950 . S
C31 C33 1.375 . S
H32 C31 0.950 . S
C33 C31 1.375 . S
C33 C35 1.382 . S
C33 H37 0.950 . S
H34 C29 0.949 . S
C35 C30 1.399 . S
C35 C33 1.382 . S
C35 H36 0.952 . S
H36 C35 0.952 . S
H37 C33 0.950 . S
H38 C39 0.949 . S
C39 H38 0.949 . S
C39 C40 1.395 . S
C39 C41 1.391 . S
C40 C39 1.395 . S
C40 C43 1.390 . S
C41 C39 1.391 . S
C41 C45 1.387 . S
C41 C46 1.491 . S
H42 C43 0.950 . S
C43 C40 1.390 . S
C43 H42 0.950 . S
C43 C44 1.378 . S
C44 C43 1.378 . S
C44 C45 1.409 . S
C45 C41 1.387 . S
C45 C44 1.409 . S
C45 H47 0.951 . S
C46 C41 1.491 . S
C46 C48 1.382 . S
C46 C50 1.404 . S
H47 C45 0.951 . S
C48 C46 1.382 . S
C48 C49 1.390 . S
C48 H53 0.949 . S
C49 C48 1.390 . S
C49 C54 1.399 . S
C50 C46 1.404 . S
C50 H51 0.950 . S
C50 C52 1.375 . S
H51 C50 0.950 . S
C52 C50 1.375 . S
C52 C54 1.382 . S
C52 H56 0.950 . S
H53 C48 0.949 . S
C54 C49 1.399 . S
C54 C52 1.382 . S
C54 H55 0.952 . S
H55 C54 0.952 . S
H56 C52 0.950 . S
H57 C58 0.949 . S
C58 H57 0.949 . S
C58 C59 1.395 . S
C58 C60 1.391 . S
C59 C58 1.395 . S
C59 C62 1.390 . S
C60 C58 1.391 . S
C60 C64 1.387 . S
C60 C65 1.491 . S
H61 C62 0.950 . S
C62 C59 1.390 . S
C62 H61 0.950 . S
C62 C63 1.378 . S
C63 C62 1.378 . S
C63 C64 1.409 . S
C64 C60 1.387 . S
C64 C63 1.409 . S
C64 H66 0.951 . S
C65 C60 1.491 . S
C65 C67 1.382 . S
C65 C69 1.404 . S
H66 C64 0.951 . S
C67 C65 1.382 . S
C67 C68 1.390 . S
C67 H72 0.949 . S
C68 C67 1.390 . S
C68 C73 1.399 . S
C69 C65 1.404 . S
C69 H70 0.950 . S
C69 C71 1.375 . S
H70 C69 0.950 . S
C71 C69 1.375 . S
C71 C73 1.382 . S
C71 H75 0.950 . S
H72 C67 0.949 . S
C73 C68 1.399 . S
C73 C71 1.382 . S
C73 H74 0.952 . S
H74 C73 0.952 . S
H75 C71 0.950 . S
H76 C77 0.949 . S
C77 H76 0.949 . S
C77 C78 1.395 . S
C77 C79 1.391 . S
C78 C77 1.395 . S
C78 C81 1.390 . S
C79 C77 1.391 . S
C79 C83 1.387 . S
C79 C84 1.491 . S
H80 C81 0.950 . S
C81 C78 1.390 . S
C81 H80 0.950 . S
C81 C82 1.378 . S
C82 C81 1.378 . S
C82 C83 1.409 . S
C83 C79 1.387 . S
C83 C82 1.409 . S
C83 H85 0.951 . S
C84 C79 1.491 . S
C84 C86 1.382 . S
C84 C88 1.404 . S
H85 C83 0.951 . S
C86 C84 1.382 . S
C86 C87 1.390 . S
C86 H91 0.949 . S
C87 C86 1.390 . S
C87 C92 1.399 . S
C88 C84 1.404 . S
C88 H89 0.950 . S
C88 C90 1.375 . S
H89 C88 0.950 . S
C90 C88 1.375 . S
C90 C92 1.382 . S
C90 H94 0.950 . S
H91 C86 0.949 . S
C92 C87 1.399 . S
C92 C90 1.382 . S
C92 H93 0.952 . S
H93 C92 0.952 . S
H94 C90 0.950 . S
H95 C96 0.949 . S
C96 H95 0.949 . S
C96 C97 1.395 . S
C96 C98 1.391 . S
C97 C96 1.395 . S
C97 C100 1.390 . S
C98 C96 1.391 . S
C98 C102 1.387 . S
C98 C103 1.491 . S
H99 C100 0.950 . S
C100 C97 1.390 . S
C100 H99 0.950 . S
C100 C101 1.378 . S
C101 C100 1.378 . S
C101 C102 1.409 . S
C102 C98 1.387 . S
C102 C101 1.409 . S
C102 H104 0.951 . S
C103 C98 1.491 . S
C103 C105 1.382 . S
C103 C107 1.404 . S
H104 C102 0.951 . S
C105 C103 1.382 . S
C105 C106 1.390 . S
C105 H110 0.949 . S
C106 C105 1.390 . S
C106 C111 1.399 . S
C107 C103 1.404 . S
C107 H108 0.950 . S
C107 C109 1.375 . S
H108 C107 0.950 . S
C109 C107 1.375 . S
C109 C111 1.382 . S
C109 H113 0.950 . S
H110 C105 0.949 . S
C111 C106 1.399 . S
C111 C109 1.382 . S
C111 H112 0.952 . S
H112 C111 0.952 . S
H113 C109 0.950 . S
H114 C115 0.949 . S
C115 H114 0.949 . S
C115 C116 1.395 . S
C115 C117 1.391 . S
C116 C115 1.395 . S
C116 C119 1.390 . S
C117 C115 1.391 . S
C117 C121 1.387 . S
C117 C122 1.491 . S
H118 C119 0.950 . S
C119 C116 1.390 . S
C119 H118 0.950 . S
C119 C120 1.378 . S
C120 C119 1.378 . S
C120 C121 1.409 . S
C121 C117 1.387 . S
C121 C120 1.409 . S
C121 H123 0.951 . S
C122 C117 1.491 . S
C122 C124 1.382 . S
C122 C126 1.404 . S
H123 C121 0.951 . S
C124 C122 1.382 . S
C124 C125 1.390 . S
C124 H129 0.949 . S
C125 C124 1.390 . S
C125 C130 1.399 . S
C126 C122 1.404 . S
C126 H127 0.950 . S
C126 C128 1.375 . S
H127 C126 0.950 . S
C128 C126 1.375 . S
C128 C130 1.382 . S
C128 H132 0.950 . S
H129 C124 0.949 . S
C130 C125 1.399 . S
C130 C128 1.382 . S
C130 H131 0.952 . S
H131 C130 0.952 . S
H132 C128 0.950 . S
H133 C134 0.949 . S
C134 H133 0.949 . S
C134 C135 1.395 . S
C134 C136 1.391 . S
C135 C134 1.395 . S
C135 C138 1.390 . S
C136 C134 1.391 . S
C136 C140 1.387 . S
C136 C141 1.491 . S
H137 C138 0.950 . S
C138 C135 1.390 . S
C138 H137 0.950 . S
C138 C139 1.378 . S
C139 C138 1.378 . S
C139 C140 1.409 . S
C140 C136 1.387 . S
C140 C139 1.409 . S
C140 H142 0.951 . S
C141 C136 1.491 . S
C141 C143 1.382 . S
C141 C145 1.404 . S
H142 C140 0.951 . S
C143 C141 1.382 . S
C143 C144 1.390 . S
C143 H148 0.949 . S
C144 C143 1.390 . S
C144 C149 1.399 . S
C145 C141 1.404 . S
C145 H146 0.950 . S
C145 C147 1.375 . S
H146 C145 0.950 . S
C147 C145 1.375 . S
C147 C149 1.382 . S
C147 H151 0.950 . S
H148 C143 0.949 . S
C149 C144 1.399 . S
C149 C147 1.382 . S
C149 H150 0.952 . S
H150 C149 0.952 . S
H151 C147 0.950 . S
La152 C154 2.928 . S
La152 O172 2.521 . S
La152 O173 2.628 . S
La152 O174 2.554 . S
La152 O175 2.757 . S
La152 O176 2.470 . S
La152 O181 2.482 1_455 S
La152 O183 2.504 1_445 S
La153 C163 2.928 1_545 S
La153 O175 2.482 1_655 S
La153 O177 2.503 1_655 S
La153 O178 2.521 1_545 S
La153 O179 2.628 1_545 S
La153 O180 2.554 . S
La153 O181 2.757 . S
La153 O182 2.470 1_545 S
C154 La152 2.928 . S
C154 C155 1.503 . S
C154 O172 1.261 . S
C154 O173 1.243 . S
C155 C154 1.503 . S
C155 C156 1.394 . S
C155 C160 1.373 . S
C156 C155 1.394 . S
C156 C157 1.380 . S
C156 H184 0.930 . S
C157 C156 1.380 . S
C157 C158 1.376 . S
C157 H185 0.930 . S
C158 C157 1.376 . S
C158 C159 1.370 . S
C159 C158 1.370 . S
C159 C160 1.396 . S
C159 H186 0.929 . S
C160 C155 1.373 . S
C160 C159 1.396 . S
C160 H187 0.929 . S
C161 O174 1.240 . S
C161 O175 1.289 . S
C162 O176 1.258 . S
C162 O177 1.256 . S
C163 La153 2.928 1_565 S
C163 C164 1.503 . S
C163 O178 1.261 . S
C163 O179 1.243 . S
C164 C163 1.503 . S
C164 C165 1.394 . S
C164 C169 1.373 . S
C165 C164 1.394 . S
C165 C166 1.380 . S
C165 H188 0.930 . S
C166 C165 1.380 . S
C166 C167 1.376 . S
C166 H189 0.930 . S
C167 C166 1.376 . S
C167 C168 1.370 . S
C168 C167 1.370 . S
C168 C169 1.396 . S
C168 H190 0.929 . S
C169 C164 1.373 . S
C169 C168 1.396 . S
C169 H191 0.929 . S
C170 O180 1.240 . S
C170 O181 1.289 . S
C171 O182 1.258 . S
C171 O183 1.255 . S
O172 La152 2.521 . S
O172 C154 1.261 . S
O173 La152 2.628 . S
O173 C154 1.243 . S
O174 La152 2.554 . S
O174 C161 1.240 . S
O175 La152 2.757 . S
O175 La153 2.482 1_455 S
O175 C161 1.289 . S
O176 La152 2.470 . S
O176 C162 1.258 . S
O177 La153 2.503 1_455 S
O177 C162 1.256 . S
O178 La153 2.521 1_565 S
O178 C163 1.261 . S
O179 La153 2.628 1_565 S
O179 C163 1.243 . S
O180 La153 2.554 . S
O180 C170 1.240 . S
O181 La152 2.482 1_655 S
O181 La153 2.757 . S
O181 C170 1.289 . S
O182 La153 2.470 1_565 S
O182 C171 1.258 . S
O183 La152 2.504 1_665 S
O183 C171 1.255 . S
H184 C156 0.930 . S
H185 C157 0.930 . S
H186 C159 0.929 . S
H187 C160 0.929 . S
H188 C165 0.930 . S
H189 C166 0.930 . S
H190 C168 0.929 . S
H191 C169 0.929 . S
La192 C194 2.928 . S
La192 O212 2.521 . S
La192 O213 2.628 . S
La192 O214 2.554 1_545 S
La192 O215 2.757 1_545 S
La192 O216 2.470 . S
La192 O221 2.482 . S
La192 O223 2.503 . S
La193 C203 2.928 1_544 S
La193 O215 2.482 1_545 S
La193 O217 2.503 . S
La193 O218 2.521 1_554 S
La193 O219 2.628 1_545 S
La193 O220 2.554 . S
La193 O221 2.757 . S
La193 O222 2.470 . S
C194 La192 2.928 . S
C194 C195 1.503 . S
C194 O212 1.261 . S
C194 O213 1.243 . S
C195 C194 1.503 . S
C195 C196 1.394 . S
C195 C200 1.373 . S
C196 C195 1.394 . S
C196 C197 1.380 . S
C196 H224 0.930 . S
C197 C196 1.380 . S
C197 C198 1.376 . S
C197 H225 0.930 . S
C198 C197 1.376 . S
C198 C199 1.370 . S
C199 C198 1.370 . S
C199 C200 1.396 . S
C199 H226 0.929 . S
C200 C195 1.373 . S
C200 C199 1.396 . S
C200 H227 0.929 . S
C201 O214 1.240 . S
C201 O215 1.289 . S
C202 O216 1.258 . S
C202 O217 1.256 . S
C203 La193 2.928 1_566 S
C203 C204 1.503 . S
C203 O218 1.261 1_565 S
C203 O219 1.243 1_556 S
C204 C203 1.503 . S
C204 C205 1.394 . S
C204 C209 1.373 . S
C205 C204 1.394 . S
C205 C206 1.380 . S
C205 H228 0.930 1_565 S
C206 C205 1.380 . S
C206 C207 1.376 . S
C206 H229 0.930 . S
C207 C206 1.376 . S
C207 C208 1.370 . S
C208 C207 1.370 . S
C208 C209 1.396 . S
C208 H230 0.929 . S
C209 C204 1.373 . S
C209 C208 1.396 . S
C209 H231 0.929 . S
C210 O220 1.240 . S
C210 O221 1.289 . S
C211 O222 1.258 1_565 S
C211 O223 1.256 1_565 S
O212 La192 2.521 . S
O212 C194 1.261 . S
O213 La192 2.628 . S
O213 C194 1.243 . S
O214 La192 2.554 1_565 S
O214 C201 1.240 . S
O215 La192 2.757 1_565 S
O215 La193 2.482 1_565 S
O215 C201 1.289 . S
O216 La192 2.470 . S
O216 C202 1.258 . S
O217 La193 2.503 . S
O217 C202 1.256 . S
O218 La193 2.521 1_556 S
O218 C203 1.261 1_545 S
O219 La193 2.628 1_565 S
O219 C203 1.243 1_554 S
O220 La193 2.554 . S
O220 C210 1.240 . S
O221 La192 2.482 . S
O221 La193 2.757 . S
O221 C210 1.289 . S
O222 La193 2.470 . S
O222 C211 1.258 1_545 S
O223 La192 2.503 . S
O223 C211 1.256 1_545 S
H224 C196 0.930 . S
H225 C197 0.930 . S
H226 C199 0.929 . S
H227 C200 0.929 . S
H228 C205 0.930 1_545 S
H229 C206 0.930 . S
H230 C208 0.929 . S
H231 C209 0.929 . S
La232 C234 2.928 . S
La232 O252 2.521 . S
La232 O253 2.628 . S
La232 O254 2.554 . S
La232 O255 2.757 . S
La232 O256 2.470 . S
La232 O261 2.482 . S
La232 O263 2.503 . S
La233 C243 2.928 . S
La233 O255 2.482 . S
La233 O257 2.503 . S
La233 O258 2.521 . S
La233 O259 2.628 . S
La233 O260 2.554 . S
La233 O261 2.757 . S
La233 O262 2.470 . S
C234 La232 2.928 . S
C234 C235 1.503 . S
C234 O252 1.261 . S
C234 O253 1.243 . S
C235 C234 1.503 . S
C235 C236 1.394 . S
C235 C240 1.373 . S
C236 C235 1.394 . S
C236 C237 1.380 . S
C236 H264 0.930 . S
C237 C236 1.380 . S
C237 C238 1.376 . S
C237 H265 0.930 . S
C238 C237 1.376 . S
C238 C239 1.370 . S
C239 C238 1.370 . S
C239 C240 1.396 . S
C239 H266 0.929 . S
C240 C235 1.373 . S
C240 C239 1.396 . S
C240 H267 0.929 . S
C241 O254 1.240 . S
C241 O255 1.289 . S
C242 O256 1.258 . S
C242 O257 1.256 . S
C243 La233 2.928 . S
C243 C244 1.503 . S
C243 O258 1.261 . S
C243 O259 1.243 . S
C244 C243 1.503 . S
C244 C245 1.394 . S
C244 C249 1.373 . S
C245 C244 1.394 . S
C245 C246 1.380 . S
C245 H268 0.930 . S
C246 C245 1.380 . S
C246 C247 1.376 . S
C246 H269 0.930 . S
C247 C246 1.376 . S
C247 C248 1.370 . S
C248 C247 1.370 . S
C248 C249 1.396 . S
C248 H270 0.929 . S
C249 C244 1.373 . S
C249 C248 1.396 . S
C249 H271 0.929 . S
C250 O260 1.240 . S
C250 O261 1.289 . S
C251 O262 1.258 . S
C251 O263 1.256 . S
O252 La232 2.521 . S
O252 C234 1.261 . S
O253 La232 2.628 . S
O253 C234 1.243 . S
O254 La232 2.554 . S
O254 C241 1.240 . S
O255 La232 2.757 . S
O255 La233 2.482 . S
O255 C241 1.289 . S
O256 La232 2.470 . S
O256 C242 1.258 . S
O257 La233 2.503 . S
O257 C242 1.256 . S
O258 La233 2.521 . S
O258 C243 1.261 . S
O259 La233 2.628 . S
O259 C243 1.243 . S
O260 La233 2.554 . S
O260 C250 1.240 . S
O261 La232 2.482 . S
O261 La233 2.757 . S
O261 C250 1.289 . S
O262 La233 2.470 . S
O262 C251 1.258 . S
O263 La232 2.503 . S
O263 C251 1.256 . S
H264 C236 0.930 . S
H265 C237 0.930 . S
H266 C239 0.929 . S
H267 C240 0.929 . S
H268 C245 0.930 . S
H269 C246 0.930 . S
H270 C248 0.929 . S
H271 C249 0.929 . S
La272 C274 2.928 . S
La272 O292 2.521 . S
La272 O293 2.628 . S
La272 O294 2.554 . S
La272 O295 2.757 . S
La272 O296 2.470 . S
La272 O301 2.482 1_554 S
La272 O303 2.503 1_455 S
La273 C283 2.928 1_455 S
La273 O295 2.482 1_556 S
La273 O297 2.503 1_556 S
La273 O298 2.521 . S
La273 O299 2.628 1_455 S
La273 O300 2.554 . S
La273 O301 2.757 . S
La273 O302 2.470 1_455 S
C274 La272 2.928 . S
C274 C275 1.503 . S
C274 O292 1.261 . S
C274 O293 1.243 . S
C275 C274 1.503 . S
C275 C276 1.394 . S
C275 C280 1.373 . S
C276 C275 1.394 . S
C276 C277 1.380 . S
C276 H304 0.930 . S
C277 C276 1.380 . S
C277 C278 1.376 . S
C277 H305 0.930 . S
C278 C277 1.376 . S
C278 C279 1.370 . S
C279 C278 1.370 . S
C279 C280 1.396 . S
C279 H306 0.929 . S
C280 C275 1.373 . S
C280 C279 1.396 . S
C280 H307 0.929 . S
C281 O294 1.240 . S
C281 O295 1.289 . S
C282 O296 1.258 . S
C282 O297 1.256 . S
C283 La273 2.928 1_655 S
C283 C284 1.503 . S
C283 O298 1.261 1_655 S
C283 O299 1.243 . S
C284 C283 1.503 . S
C284 C285 1.394 . S
C284 C289 1.373 . S
C285 C284 1.394 . S
C285 C286 1.380 . S
C285 H308 0.930 . S
C286 C285 1.380 . S
C286 C287 1.376 . S
C286 H309 0.930 . S
C287 C286 1.376 . S
C287 C288 1.370 . S
C288 C287 1.370 . S
C288 C289 1.396 . S
C288 H310 0.929 . S
C289 C284 1.373 . S
C289 C288 1.396 . S
C289 H311 0.929 . S
C290 O300 1.240 . S
C290 O301 1.289 . S
C291 O302 1.258 . S
C291 O303 1.256 1_556 S
O292 La272 2.521 . S
O292 C274 1.261 . S
O293 La272 2.628 . S
O293 C274 1.243 . S
O294 La272 2.554 . S
O294 C281 1.240 . S
O295 La272 2.757 . S
O295 La273 2.482 1_554 S
O295 C281 1.289 . S
O296 La272 2.470 . S
O296 C282 1.258 . S
O297 La273 2.503 1_554 S
O297 C282 1.256 . S
O298 La273 2.521 . S
O298 C283 1.261 1_455 S
O299 La273 2.628 1_655 S
O299 C283 1.243 . S
O300 La273 2.554 . S
O300 C290 1.240 . S
O301 La272 2.482 1_556 S
O301 La273 2.757 . S
O301 C290 1.289 . S
O302 La273 2.470 1_655 S
O302 C291 1.258 . S
O303 La272 2.503 1_655 S
O303 C291 1.256 1_554 S
H304 C276 0.930 . S
H305 C277 0.930 . S
H306 C279 0.929 . S
H307 C280 0.929 . S
H308 C285 0.930 . S
H309 C286 0.930 . S
H310 C288 0.929 . S
H311 C289 0.929 . S
C312 C313 1.391 . S
C312 C314 1.394 . S
C312 H328 0.931 . S
C313 C312 1.391 . S
C313 C317 1.376 . S
C314 C312 1.394 . S
C314 C315 1.369 . S
C314 C318 1.531 . S
C315 C314 1.369 . S
C315 C316 1.410 . S
C315 C323 1.503 . S
C316 C315 1.410 . S
C316 C317 1.392 . S
C316 C319 1.511 . S
C317 C313 1.376 . S
C317 C316 1.392 . S
C317 H329 0.929 . S
C318 C314 1.531 . S
C318 H330 0.960 . S
C318 H331 0.962 . S
C318 H332 0.960 . S
C319 C316 1.511 . S
C319 H333 0.961 . S
C319 H334 0.961 . S
C319 H335 0.961 . S
C320 C321 1.370 . S
C320 C322 1.363 . S
C320 H336 0.931 . S
C321 C320 1.370 . S
C321 C325 1.408 . S
C322 C320 1.363 . S
C322 C323 1.370 . S
C322 C326 1.524 . S
C323 C315 1.503 . S
C323 C322 1.370 . S
C323 C324 1.403 . S
C324 C323 1.403 . S
C324 C325 1.404 . S
C324 C327 1.539 . S
C325 C321 1.408 . S
C325 C324 1.404 . S
C325 H337 0.930 . S
C326 C322 1.524 . S
C326 H338 0.956 . S
C326 H339 0.961 . S
C326 H340 0.961 . S
C327 C324 1.539 . S
C327 H341 0.958 . S
C327 H342 0.961 . S
C327 H343 0.960 . S
H328 C312 0.931 . S
H329 C317 0.929 . S
H330 C318 0.960 . S
H331 C318 0.962 . S
H332 C318 0.960 . S
H333 C319 0.961 . S
H334 C319 0.961 . S
H335 C319 0.961 . S
H336 C320 0.931 . S
H337 C325 0.930 . S
H338 C326 0.956 . S
H339 C326 0.961 . S
H340 C326 0.961 . S
H341 C327 0.958 . S
H342 C327 0.961 . S
H343 C327 0.960 . S
C344 C345 1.391 . S
C344 C346 1.394 . S
C344 H360 0.931 . S
C345 C344 1.391 . S
C345 C349 1.376 . S
C346 C344 1.394 . S
C346 C347 1.369 . S
C346 C350 1.531 . S
C347 C346 1.369 . S
C347 C348 1.410 . S
C347 C355 1.503 . S
C348 C347 1.410 . S
C348 C349 1.392 . S
C348 C351 1.511 . S
C349 C345 1.376 . S
C349 C348 1.392 . S
C349 H361 0.929 . S
C350 C346 1.531 . S
C350 H362 0.960 . S
C350 H363 0.962 . S
C350 H364 0.960 . S
C351 C348 1.511 . S
C351 H365 0.961 . S
C351 H366 0.961 . S
C351 H367 0.961 . S
C352 C353 1.370 . S
C352 C354 1.363 . S
C352 H368 0.931 . S
C353 C352 1.370 . S
C353 C357 1.408 . S
C354 C352 1.363 . S
C354 C355 1.370 . S
C354 C358 1.524 . S
C355 C347 1.503 . S
C355 C354 1.370 . S
C355 C356 1.403 . S
C356 C355 1.403 . S
C356 C357 1.404 . S
C356 C359 1.539 . S
C357 C353 1.408 . S
C357 C356 1.404 . S
C357 H369 0.930 . S
C358 C354 1.524 . S
C358 H370 0.956 . S
C358 H371 0.961 . S
C358 H372 0.961 . S
C359 C356 1.539 . S
C359 H373 0.958 . S
C359 H374 0.961 . S
C359 H375 0.960 . S
H360 C344 0.931 . S
H361 C349 0.929 . S
H362 C350 0.960 . S
H363 C350 0.962 . S
H364 C350 0.960 . S
H365 C351 0.961 . S
H366 C351 0.961 . S
H367 C351 0.961 . S
H368 C352 0.931 . S
H369 C357 0.930 . S
H370 C358 0.956 . S
H371 C358 0.961 . S
H372 C358 0.961 . S
H373 C359 0.958 . S
H374 C359 0.961 . S
H375 C359 0.960 . S
C376 C377 1.391 . S
C376 C378 1.394 . S
C376 H392 0.931 . S
C377 C376 1.391 . S
C377 C381 1.376 . S
C378 C376 1.394 . S
C378 C379 1.369 . S
C378 C382 1.531 . S
C379 C378 1.369 . S
C379 C380 1.410 . S
C379 C387 1.503 . S
C380 C379 1.410 . S
C380 C381 1.392 . S
C380 C383 1.511 . S
C381 C377 1.376 . S
C381 C380 1.392 . S
C381 H393 0.929 . S
C382 C378 1.531 . S
C382 H394 0.960 . S
C382 H395 0.962 . S
C382 H396 0.960 . S
C383 C380 1.511 . S
C383 H397 0.961 . S
C383 H398 0.961 . S
C383 H399 0.961 . S
C384 C385 1.370 . S
C384 C386 1.363 . S
C384 H400 0.931 . S
C385 C384 1.370 . S
C385 C389 1.408 . S
C386 C384 1.363 . S
C386 C387 1.370 . S
C386 C390 1.524 . S
C387 C379 1.503 . S
C387 C386 1.370 . S
C387 C388 1.403 . S
C388 C387 1.403 . S
C388 C389 1.404 . S
C388 C391 1.539 . S
C389 C385 1.408 . S
C389 C388 1.404 . S
C389 H401 0.930 . S
C390 C386 1.524 . S
C390 H402 0.956 . S
C390 H403 0.961 . S
C390 H404 0.961 . S
C391 C388 1.539 . S
C391 H405 0.958 . S
C391 H406 0.961 . S
C391 H407 0.960 . S
H392 C376 0.931 . S
H393 C381 0.929 . S
H394 C382 0.960 . S
H395 C382 0.962 . S
H396 C382 0.960 . S
H397 C383 0.961 . S
H398 C383 0.961 . S
H399 C383 0.961 . S
H400 C384 0.931 . S
H401 C389 0.930 . S
H402 C390 0.956 . S
H403 C390 0.961 . S
H404 C390 0.961 . S
H405 C391 0.958 . S
H406 C391 0.961 . S
H407 C391 0.960 . S
C408 C409 1.391 . S
C408 C410 1.394 . S
C408 H424 0.931 . S
C409 C408 1.391 . S
C409 C413 1.376 . S
C410 C408 1.394 . S
C410 C411 1.369 . S
C410 C414 1.531 . S
C411 C410 1.369 . S
C411 C412 1.410 . S
C411 C419 1.503 . S
C412 C411 1.410 . S
C412 C413 1.392 . S
C412 C415 1.511 . S
C413 C409 1.376 . S
C413 C412 1.392 . S
C413 H425 0.929 . S
C414 C410 1.531 . S
C414 H426 0.960 . S
C414 H427 0.962 1_655 S
C414 H428 0.960 . S
C415 C412 1.511 . S
C415 H429 0.961 . S
C415 H430 0.961 . S
C415 H431 0.961 . S
C416 C417 1.370 . S
C416 C418 1.363 . S
C416 H432 0.931 1_655 S
C417 C416 1.370 . S
C417 C421 1.408 . S
C418 C416 1.363 . S
C418 C419 1.370 . S
C418 C422 1.524 . S
C419 C411 1.503 . S
C419 C418 1.370 . S
C419 C420 1.403 . S
C420 C419 1.403 . S
C420 C421 1.404 . S
C420 C423 1.539 . S
C421 C417 1.408 . S
C421 C420 1.404 . S
C421 H433 0.930 . S
C422 C418 1.524 . S
C422 H434 0.956 . S
C422 H435 0.961 . S
C422 H436 0.961 . S
C423 C420 1.539 . S
C423 H437 0.958 . S
C423 H438 0.961 . S
C423 H439 0.960 . S
H424 C408 0.931 . S
H425 C413 0.929 . S
H426 C414 0.960 . S
H427 C414 0.962 1_455 S
H428 C414 0.960 . S
H429 C415 0.961 . S
H430 C415 0.961 . S
H431 C415 0.961 . S
H432 C416 0.931 1_455 S
H433 C421 0.930 . S
H434 C422 0.956 . S
H435 C422 0.961 . S
H436 C422 0.961 . S
H437 C423 0.958 . S
H438 C423 0.961 . S
H439 C423 0.960 . S
C440 C441 1.391 . S
C440 C442 1.394 . S
C440 H456 0.931 . S
C441 C440 1.391 . S
C441 C445 1.376 . S
C442 C440 1.394 . S
C442 C443 1.369 . S
C442 C446 1.531 . S
C443 C442 1.369 . S
C443 C444 1.410 . S
C443 C451 1.503 . S
C444 C443 1.410 . S
C444 C445 1.392 . S
C444 C447 1.511 . S
C445 C441 1.376 . S
C445 C444 1.392 . S
C445 H457 0.929 . S
C446 C442 1.531 . S
C446 H458 0.960 . S
C446 H459 0.962 . S
C446 H460 0.960 . S
C447 C444 1.511 . S
C447 H461 0.961 . S
C447 H462 0.961 . S
C447 H463 0.961 . S
C448 C449 1.370 . S
C448 C450 1.363 . S
C448 H464 0.931 . S
C449 C448 1.370 . S
C449 C453 1.408 . S
C450 C448 1.363 . S
C450 C451 1.370 . S
C450 C454 1.524 . S
C451 C443 1.503 . S
C451 C450 1.370 . S
C451 C452 1.403 . S
C452 C451 1.403 . S
C452 C453 1.404 . S
C452 C455 1.539 . S
C453 C449 1.408 . S
C453 C452 1.404 . S
C453 H465 0.930 . S
C454 C450 1.524 . S
C454 H466 0.956 . S
C454 H467 0.961 . S
C454 H468 0.961 . S
C455 C452 1.539 . S
C455 H469 0.958 . S
C455 H470 0.961 . S
C455 H471 0.960 . S
H456 C440 0.931 . S
H457 C445 0.929 . S
H458 C446 0.960 . S
H459 C446 0.962 . S
H460 C446 0.960 . S
H461 C447 0.961 . S
H462 C447 0.961 . S
H463 C447 0.961 . S
H464 C448 0.931 . S
H465 C453 0.930 . S
H466 C454 0.956 . S
H467 C454 0.961 . S
H468 C454 0.961 . S
H469 C455 0.958 . S
H470 C455 0.961 . S
H471 C455 0.960 . S
C472 C473 1.391 . S
C472 C474 1.394 . S
C472 H488 0.931 . S
C473 C472 1.391 . S
C473 C477 1.376 . S
C474 C472 1.394 . S
C474 C475 1.369 . S
C474 C478 1.531 . S
C475 C474 1.369 . S
C475 C476 1.410 . S
C475 C483 1.503 . S
C476 C475 1.410 . S
C476 C477 1.392 . S
C476 C479 1.511 . S
C477 C473 1.376 . S
C477 C476 1.392 . S
C477 H489 0.929 . S
C478 C474 1.531 . S
C478 H490 0.960 . S
C478 H491 0.962 . S
C478 H492 0.960 . S
C479 C476 1.511 . S
C479 H493 0.961 . S
C479 H494 0.961 . S
C479 H495 0.961 . S
C480 C481 1.370 1_565 S
C480 C482 1.363 . S
C480 H496 0.931 . S
C481 C480 1.370 1_545 S
C481 C485 1.408 . S
C482 C480 1.363 . S
C482 C483 1.370 . S
C482 C486 1.524 . S
C483 C475 1.503 . S
C483 C482 1.370 . S
C483 C484 1.403 1_565 S
C484 C483 1.403 1_545 S
C484 C485 1.404 . S
C484 C487 1.539 . S
C485 C481 1.408 . S
C485 C484 1.404 . S
C485 H497 0.930 . S
C486 C482 1.524 . S
C486 H498 0.956 . S
C486 H499 0.961 . S
C486 H500 0.961 . S
C487 C484 1.539 . S
C487 H501 0.958 . S
C487 H502 0.961 . S
C487 H503 0.960 . S
H488 C472 0.931 . S
H489 C477 0.929 . S
H490 C478 0.960 . S
H491 C478 0.962 . S
H492 C478 0.960 . S
H493 C479 0.961 . S
H494 C479 0.961 . S
H495 C479 0.961 . S
H496 C480 0.931 . S
H497 C485 0.930 . S
H498 C486 0.956 . S
H499 C486 0.961 . S
H500 C486 0.961 . S
H501 C487 0.958 . S
H502 C487 0.961 . S
H503 C487 0.960 . S
C504 C505 1.391 . S
C504 C506 1.394 . S
C504 H520 0.931 . S
C505 C504 1.391 . S
C505 C509 1.376 . S
C506 C504 1.394 . S
C506 C507 1.369 . S
C506 C510 1.531 . S
C507 C506 1.369 . S
C507 C508 1.410 . S
C507 C515 1.503 . S
C508 C507 1.410 . S
C508 C509 1.392 . S
C508 C511 1.511 . S
C509 C505 1.376 . S
C509 C508 1.392 . S
C509 H521 0.929 . S
C510 C506 1.531 . S
C510 H522 0.960 . S
C510 H523 0.962 . S
C510 H524 0.960 . S
C511 C508 1.511 . S
C511 H525 0.961 . S
C511 H526 0.961 . S
C511 H527 0.961 . S
C512 C513 1.370 . S
C512 C514 1.363 . S
C512 H528 0.931 . S
C513 C512 1.370 . S
C513 C517 1.408 1_556 S
C514 C512 1.363 . S
C514 C515 1.370 . S
C514 C518 1.524 . S
C515 C507 1.503 . S
C515 C514 1.370 . S
C515 C516 1.403 . S
C516 C515 1.403 . S
C516 C517 1.404 1_556 S
C516 C519 1.539 1_556 S
C517 C513 1.408 1_554 S
C517 C516 1.404 1_554 S
C517 H529 0.930 . S
C518 C514 1.524 . S
C518 H530 0.956 . S
C518 H531 0.961 . S
C518 H532 0.961 . S
C519 C516 1.539 1_554 S
C519 H533 0.958 . S
C519 H534 0.961 . S
C519 H535 0.960 . S
H520 C504 0.931 . S
H521 C509 0.929 . S
H522 C510 0.960 . S
H523 C510 0.962 . S
H524 C510 0.960 . S
H525 C511 0.961 . S
H526 C511 0.961 . S
H527 C511 0.961 . S
H528 C512 0.931 . S
H529 C517 0.930 . S
H530 C518 0.956 . S
H531 C518 0.961 . S
H532 C518 0.961 . S
H533 C519 0.958 . S
H534 C519 0.961 . S
H535 C519 0.960 . S
C536 C537 1.391 . S
C536 C538 1.394 . S
C536 H552 0.931 . S
C537 C536 1.391 . S
C537 C541 1.376 . S
C538 C536 1.394 . S
C538 C539 1.369 . S
C538 C542 1.531 . S
C539 C538 1.369 . S
C539 C540 1.410 . S
C539 C547 1.503 . S
C540 C539 1.410 . S
C540 C541 1.392 . S
C540 C543 1.511 . S
C541 C537 1.376 . S
C541 C540 1.392 . S
C541 H553 0.929 . S
C542 C538 1.531 . S
C542 H554 0.960 . S
C542 H555 0.962 . S
C542 H556 0.960 . S
C543 C540 1.511 . S
C543 H557 0.961 . S
C543 H558 0.961 . S
C543 H559 0.961 . S
C544 C545 1.370 . S
C544 C546 1.363 . S
C544 H560 0.931 . S
C545 C544 1.370 . S
C545 C549 1.408 . S
C546 C544 1.363 . S
C546 C547 1.370 . S
C546 C550 1.524 . S
C547 C539 1.503 . S
C547 C546 1.370 . S
C547 C548 1.403 . S
C548 C547 1.403 . S
C548 C549 1.404 . S
C548 C551 1.539 . S
C549 C545 1.408 . S
C549 C548 1.404 . S
C549 H561 0.930 . S
C550 C546 1.524 . S
C550 H562 0.956 . S
C550 H563 0.961 . S
C550 H564 0.961 . S
C551 C548 1.539 . S
C551 H565 0.958 . S
C551 H566 0.961 . S
C551 H567 0.960 . S
H552 C536 0.931 . S
H553 C541 0.929 . S
H554 C542 0.960 . S
H555 C542 0.962 . S
H556 C542 0.960 . S
H557 C543 0.961 . S
H558 C543 0.961 . S
H559 C543 0.961 . S
H560 C544 0.931 . S
H561 C549 0.930 . S
H562 C550 0.956 . S
H563 C550 0.961 . S
H564 C550 0.961 . S
H565 C551 0.958 . S
H566 C551 0.961 . S
H567 C551 0.960 . S
C568 C569 1.391 . S
C568 C570 1.394 . S
C568 H584 0.931 . S
C569 C568 1.391 . S
C569 C573 1.376 . S
C570 C568 1.394 . S
C570 C571 1.369 . S
C570 C574 1.531 . S
C571 C570 1.369 . S
C571 C572 1.410 . S
C571 C579 1.503 . S
C572 C571 1.410 . S
C572 C573 1.392 . S
C572 C575 1.511 . S
C573 C569 1.376 . S
C573 C572 1.392 . S
C573 H585 0.929 . S
C574 C570 1.531 . S
C574 H586 0.960 . S
C574 H587 0.962 . S
C574 H588 0.960 . S
C575 C572 1.511 . S
C575 H589 0.961 . S
C575 H590 0.961 . S
C575 H591 0.961 . S
C576 C577 1.370 . S
C576 C578 1.363 . S
C576 H592 0.931 . S
C577 C576 1.370 . S
C577 C581 1.408 . S
C578 C576 1.363 . S
C578 C579 1.370 . S
C578 C582 1.524 . S
C579 C571 1.503 . S
C579 C578 1.370 . S
C579 C580 1.403 . S
C580 C579 1.403 . S
C580 C581 1.404 . S
C580 C583 1.539 . S
C581 C577 1.408 . S
C581 C580 1.404 . S
C581 H593 0.930 . S
C582 C578 1.524 . S
C582 H594 0.956 . S
C582 H595 0.961 . S
C582 H596 0.961 . S
C583 C580 1.539 . S
C583 H597 0.958 . S
C583 H598 0.961 . S
C583 H599 0.960 . S
H584 C568 0.931 . S
H585 C573 0.929 . S
H586 C574 0.960 . S
H587 C574 0.962 . S
H588 C574 0.960 . S
H589 C575 0.961 . S
H590 C575 0.961 . S
H591 C575 0.961 . S
H592 C576 0.931 . S
H593 C581 0.930 . S
H594 C582 0.956 . S
H595 C582 0.961 . S
H596 C582 0.961 . S
H597 C583 0.958 . S
H598 C583 0.961 . S
H599 C583 0.960 . S
C600 C601 1.391 . S
C600 C602 1.394 . S
C600 H616 0.931 . S
C601 C600 1.391 . S
C601 C605 1.376 . S
C602 C600 1.394 . S
C602 C603 1.369 . S
C602 C606 1.531 1_556 S
C603 C602 1.369 . S
C603 C604 1.410 . S
C603 C611 1.503 . S
C604 C603 1.410 . S
C604 C605 1.392 . S
C604 C607 1.511 . S
C605 C601 1.376 . S
C605 C604 1.392 . S
C605 H617 0.929 . S
C606 C602 1.531 1_554 S
C606 H618 0.960 . S
C606 H619 0.962 . S
C606 H620 0.960 . S
C607 C604 1.511 . S
C607 H621 0.961 . S
C607 H622 0.961 . S
C607 H623 0.961 . S
C608 C609 1.370 1_556 S
C608 C610 1.363 . S
C608 H624 0.931 . S
C609 C608 1.370 1_554 S
C609 C613 1.408 . S
C610 C608 1.363 . S
C610 C611 1.370 . S
C610 C614 1.524 . S
C611 C603 1.503 . S
C611 C610 1.370 . S
C611 C612 1.403 1_556 S
C612 C611 1.403 1_554 S
C612 C613 1.404 . S
C612 C615 1.539 . S
C613 C609 1.408 . S
C613 C612 1.404 . S
C613 H625 0.930 . S
C614 C610 1.524 . S
C614 H626 0.956 . S
C614 H627 0.961 . S
C614 H628 0.961 . S
C615 C612 1.539 . S
C615 H629 0.958 . S
C615 H630 0.961 . S
C615 H631 0.960 . S
H616 C600 0.931 . S
H617 C605 0.929 . S
H618 C606 0.960 . S
H619 C606 0.962 . S
H620 C606 0.960 . S
H621 C607 0.961 . S
H622 C607 0.961 . S
H623 C607 0.961 . S
H624 C608 0.931 . S
H625 C613 0.930 . S
H626 C614 0.956 . S
H627 C614 0.961 . S
H628 C614 0.961 . S
H629 C615 0.958 . S
H630 C615 0.961 . S
H631 C615 0.960 . S
C632 C633 1.391 . S
C632 C634 1.394 . S
C632 H648 0.931 . S
C633 C632 1.391 . S
C633 C637 1.376 . S
C634 C632 1.394 . S
C634 C635 1.369 . S
C634 C638 1.531 . S
C635 C634 1.369 . S
C635 C636 1.410 . S
C635 C643 1.503 . S
C636 C635 1.410 . S
C636 C637 1.392 . S
C636 C639 1.511 . S
C637 C633 1.376 . S
C637 C636 1.392 . S
C637 H649 0.929 . S
C638 C634 1.531 . S
C638 H650 0.960 . S
C638 H651 0.962 . S
C638 H652 0.960 . S
C639 C636 1.511 . S
C639 H653 0.961 . S
C639 H654 0.961 . S
C639 H655 0.961 . S
C640 C641 1.370 . S
C640 C642 1.363 . S
C640 H656 0.931 . S
C641 C640 1.370 . S
C641 C645 1.408 . S
C642 C640 1.363 . S
C642 C643 1.370 . S
C642 C646 1.524 . S
C643 C635 1.503 . S
C643 C642 1.370 . S
C643 C644 1.403 . S
C644 C643 1.403 . S
C644 C645 1.404 . S
C644 C647 1.539 . S
C645 C641 1.408 . S
C645 C644 1.404 . S
C645 H657 0.930 . S
C646 C642 1.524 . S
C646 H658 0.956 . S
C646 H659 0.961 . S
C646 H660 0.961 . S
C647 C644 1.539 . S
C647 H661 0.958 . S
C647 H662 0.961 . S
C647 H663 0.960 . S
H648 C632 0.931 . S
H649 C637 0.929 . S
H650 C638 0.960 . S
H651 C638 0.962 . S
H652 C638 0.960 . S
H653 C639 0.961 . S
H654 C639 0.961 . S
H655 C639 0.961 . S
H656 C640 0.931 . S
H657 C645 0.930 . S
H658 C646 0.956 . S
H659 C646 0.961 . S
H660 C646 0.961 . S
H661 C647 0.958 . S
H662 C647 0.961 . S
H663 C647 0.960 . S
C664 C665 1.391 . S
C664 C666 1.394 . S
C664 H680 0.931 . S
C665 C664 1.391 . S
C665 C669 1.376 . S
C666 C664 1.394 . S
C666 C667 1.369 . S
C666 C670 1.531 . S
C667 C666 1.369 . S
C667 C668 1.410 . S
C667 C675 1.503 . S
C668 C667 1.410 . S
C668 C669 1.392 . S
C668 C671 1.511 . S
C669 C665 1.376 . S
C669 C668 1.392 . S
C669 H681 0.929 . S
C670 C666 1.531 . S
C670 H682 0.960 . S
C670 H683 0.962 . S
C670 H684 0.960 . S
C671 C668 1.511 . S
C671 H685 0.961 . S
C671 H686 0.961 . S
C671 H687 0.961 . S
C672 C673 1.370 . S
C672 C674 1.363 . S
C672 H688 0.931 . S
C673 C672 1.370 . S
C673 C677 1.408 . S
C674 C672 1.363 . S
C674 C675 1.370 . S
C674 C678 1.524 . S
C675 C667 1.503 . S
C675 C674 1.370 . S
C675 C676 1.403 . S
C676 C675 1.403 . S
C676 C677 1.404 . S
C676 C679 1.539 . S
C677 C673 1.408 . S
C677 C676 1.404 . S
C677 H689 0.930 . S
C678 C674 1.524 . S
C678 H690 0.956 . S
C678 H691 0.961 . S
C678 H692 0.961 . S
C679 C676 1.539 . S
C679 H693 0.958 . S
C679 H694 0.961 . S
C679 H695 0.960 . S
H680 C664 0.931 . S
H681 C669 0.929 . S
H682 C670 0.960 . S
H683 C670 0.962 . S
H684 C670 0.960 . S
H685 C671 0.961 . S
H686 C671 0.961 . S
H687 C671 0.961 . S
H688 C672 0.931 . S
H689 C677 0.930 . S
H690 C678 0.956 . S
H691 C678 0.961 . S
H692 C678 0.961 . S
H693 C679 0.958 . S
H694 C679 0.961 . S
H695 C679 0.960 . S
C696 C697 1.391 . S
C696 C698 1.394 . S
C696 H712 0.931 . S
C697 C696 1.391 . S
C697 C701 1.376 . S
C698 C696 1.394 . S
C698 C699 1.369 . S
C698 C702 1.531 . S
C699 C698 1.369 . S
C699 C700 1.410 . S
C699 C707 1.503 . S
C700 C699 1.410 . S
C700 C701 1.392 . S
C700 C703 1.511 . S
C701 C697 1.376 . S
C701 C700 1.392 . S
C701 H713 0.929 . S
C702 C698 1.531 . S
C702 H714 0.960 . S
C702 H715 0.962 . S
C702 H716 0.960 . S
C703 C700 1.511 . S
C703 H717 0.961 . S
C703 H718 0.961 . S
C703 H719 0.961 . S
C704 C705 1.370 . S
C704 C706 1.363 . S
C704 H720 0.931 . S
C705 C704 1.370 . S
C705 C709 1.408 . S
C706 C704 1.363 . S
C706 C707 1.370 . S
C706 C710 1.524 . S
C707 C699 1.503 . S
C707 C706 1.370 . S
C707 C708 1.403 . S
C708 C707 1.403 . S
C708 C709 1.404 . S
C708 C711 1.539 . S
C709 C705 1.408 . S
C709 C708 1.404 . S
C709 H721 0.930 . S
C710 C706 1.524 . S
C710 H722 0.956 . S
C710 H723 0.961 . S
C710 H724 0.961 . S
C711 C708 1.539 . S
C711 H725 0.958 . S
C711 H726 0.961 . S
C711 H727 0.960 . S
H712 C696 0.931 . S
H713 C701 0.929 . S
H714 C702 0.960 . S
H715 C702 0.962 . S
H716 C702 0.960 . S
H717 C703 0.961 . S
H718 C703 0.961 . S
H719 C703 0.961 . S
H720 C704 0.931 . S
H721 C709 0.930 . S
H722 C710 0.956 . S
H723 C710 0.961 . S
H724 C710 0.961 . S
H725 C711 0.958 . S
H726 C711 0.961 . S
H727 C711 0.960 . S
C728 C729 1.391 . S
C728 C730 1.394 . S
C728 H744 0.931 . S
C729 C728 1.391 . S
C729 C733 1.376 . S
C730 C728 1.394 . S
C730 C731 1.369 . S
C730 C734 1.531 . S
C731 C730 1.369 . S
C731 C732 1.410 . S
C731 C739 1.503 . S
C732 C731 1.410 . S
C732 C733 1.392 . S
C732 C735 1.511 . S
C733 C729 1.376 . S
C733 C732 1.392 . S
C733 H745 0.929 . S
C734 C730 1.531 . S
C734 H746 0.960 . S
C734 H747 0.962 . S
C734 H748 0.960 . S
C735 C732 1.511 . S
C735 H749 0.961 . S
C735 H750 0.961 . S
C735 H751 0.961 . S
C736 C737 1.370 . S
C736 C738 1.363 . S
C736 H752 0.931 . S
C737 C736 1.370 . S
C737 C741 1.408 . S
C738 C736 1.363 . S
C738 C739 1.370 . S
C738 C742 1.524 . S
C739 C731 1.503 . S
C739 C738 1.370 . S
C739 C740 1.403 . S
C740 C739 1.403 . S
C740 C741 1.404 . S
C740 C743 1.539 . S
C741 C737 1.408 . S
C741 C740 1.404 . S
C741 H753 0.930 . S
C742 C738 1.524 . S
C742 H754 0.956 . S
C742 H755 0.961 . S
C742 H756 0.961 . S
C743 C740 1.539 . S
C743 H757 0.958 . S
C743 H758 0.961 . S
C743 H759 0.960 . S
H744 C728 0.931 . S
H745 C733 0.929 . S
H746 C734 0.960 . S
H747 C734 0.962 . S
H748 C734 0.960 . S
H749 C735 0.961 . S
H750 C735 0.961 . S
H751 C735 0.961 . S
H752 C736 0.931 . S
H753 C741 0.930 . S
H754 C742 0.956 . S
H755 C742 0.961 . S
H756 C742 0.961 . S
H757 C743 0.958 . S
H758 C743 0.961 . S
H759 C743 0.960 . S
C760 C761 1.391 . S
C760 C762 1.394 . S
C760 H776 0.931 . S
C761 C760 1.391 . S
C761 C765 1.376 . S
C762 C760 1.394 . S
C762 C763 1.369 . S
C762 C766 1.531 . S
C763 C762 1.369 . S
C763 C764 1.410 . S
C763 C771 1.503 . S
C764 C763 1.410 . S
C764 C765 1.392 . S
C764 C767 1.511 . S
C765 C761 1.376 . S
C765 C764 1.392 . S
C765 H777 0.929 . S
C766 C762 1.531 . S
C766 H778 0.960 . S
C766 H779 0.962 . S
C766 H780 0.960 . S
C767 C764 1.511 . S
C767 H781 0.961 . S
C767 H782 0.961 . S
C767 H783 0.961 . S
C768 C769 1.370 . S
C768 C770 1.363 . S
C768 H784 0.931 . S
C769 C768 1.370 . S
C769 C773 1.408 . S
C770 C768 1.363 . S
C770 C771 1.370 . S
C770 C774 1.524 . S
C771 C763 1.503 . S
C771 C770 1.370 . S
C771 C772 1.403 . S
C772 C771 1.403 . S
C772 C773 1.404 . S
C772 C775 1.539 . S
C773 C769 1.408 . S
C773 C772 1.404 . S
C773 H785 0.930 . S
C774 C770 1.524 . S
C774 H786 0.956 . S
C774 H787 0.961 . S
C774 H788 0.961 . S
C775 C772 1.539 . S
C775 H789 0.958 . S
C775 H790 0.961 . S
C775 H791 0.960 . S
H776 C760 0.931 . S
H777 C765 0.929 . S
H778 C766 0.960 . S
H779 C766 0.962 . S
H780 C766 0.960 . S
H781 C767 0.961 . S
H782 C767 0.961 . S
H783 C767 0.961 . S
H784 C768 0.931 . S
H785 C773 0.930 . S
H786 C774 0.956 . S
H787 C774 0.961 . S
H788 C774 0.961 . S
H789 C775 0.958 . S
H790 C775 0.961 . S
H791 C775 0.960 . S
C792 C793 1.391 . S
C792 C794 1.394 . S
C792 H808 0.931 . S
C793 C792 1.391 . S
C793 C797 1.376 . S
C794 C792 1.394 . S
C794 C795 1.369 . S
C794 C798 1.531 . S
C795 C794 1.369 . S
C795 C796 1.410 . S
C795 C803 1.503 . S
C796 C795 1.410 . S
C796 C797 1.392 . S
C796 C799 1.511 . S
C797 C793 1.376 . S
C797 C796 1.392 . S
C797 H809 0.929 . S
C798 C794 1.531 . S
C798 H810 0.960 . S
C798 H811 0.962 . S
C798 H812 0.960 . S
C799 C796 1.511 . S
C799 H813 0.961 . S
C799 H814 0.961 . S
C799 H815 0.961 . S
C800 C801 1.370 . S
C800 C802 1.363 . S
C800 H816 0.931 . S
C801 C800 1.370 . S
C801 C805 1.408 . S
C802 C800 1.363 . S
C802 C803 1.370 . S
C802 C806 1.524 . S
C803 C795 1.503 . S
C803 C802 1.370 . S
C803 C804 1.403 . S
C804 C803 1.403 . S
C804 C805 1.404 . S
C804 C807 1.539 . S
C805 C801 1.408 . S
C805 C804 1.404 . S
C805 H817 0.930 . S
C806 C802 1.524 . S
C806 H818 0.956 . S
C806 H819 0.961 . S
C806 H820 0.961 . S
C807 C804 1.539 . S
C807 H821 0.958 . S
C807 H822 0.961 . S
C807 H823 0.960 . S
H808 C792 0.931 . S
H809 C797 0.929 . S
H810 C798 0.960 . S
H811 C798 0.962 . S
H812 C798 0.960 . S
H813 C799 0.961 . S
H814 C799 0.961 . S
H815 C799 0.961 . S
H816 C800 0.931 . S
H817 C805 0.930 . S
H818 C806 0.956 . S
H819 C806 0.961 . S
H820 C806 0.961 . S
H821 C807 0.958 . S
H822 C807 0.961 . S
H823 C807 0.960 . S
C824 C825 1.391 . S
C824 C826 1.394 . S
C824 H840 0.931 . S
C825 C824 1.391 . S
C825 C829 1.376 . S
C826 C824 1.394 . S
C826 C827 1.369 . S
C826 C830 1.531 . S
C827 C826 1.369 . S
C827 C828 1.410 . S
C827 C835 1.503 . S
C828 C827 1.410 . S
C828 C829 1.392 . S
C828 C831 1.511 . S
C829 C825 1.376 . S
C829 C828 1.392 . S
C829 H841 0.929 . S
C830 C826 1.531 . S
C830 H842 0.960 . S
C830 H843 0.962 . S
C830 H844 0.960 . S
C831 C828 1.511 . S
C831 H845 0.961 . S
C831 H846 0.961 . S
C831 H847 0.961 . S
C832 C833 1.370 1_556 S
C832 C834 1.363 . S
C832 H848 0.931 . S
C833 C832 1.370 1_554 S
C833 C837 1.408 . S
C834 C832 1.363 . S
C834 C835 1.370 . S
C834 C838 1.524 . S
C835 C827 1.503 . S
C835 C834 1.370 . S
C835 C836 1.403 1_556 S
C836 C835 1.403 1_554 S
C836 C837 1.404 . S
C836 C839 1.539 . S
C837 C833 1.408 . S
C837 C836 1.404 . S
C837 H849 0.930 . S
C838 C834 1.524 . S
C838 H850 0.956 . S
C838 H851 0.961 . S
C838 H852 0.961 . S
C839 C836 1.539 . S
C839 H853 0.958 . S
C839 H854 0.961 . S
C839 H855 0.960 . S
H840 C824 0.931 . S
H841 C829 0.929 . S
H842 C830 0.960 . S
H843 C830 0.962 . S
H844 C830 0.960 . S
H845 C831 0.961 . S
H846 C831 0.961 . S
H847 C831 0.961 . S
H848 C832 0.931 . S
H849 C837 0.930 . S
H850 C838 0.956 . S
H851 C838 0.961 . S
H852 C838 0.961 . S
H853 C839 0.958 . S
H854 C839 0.961 . S
H855 C839 0.960 . S
C856 C857 1.391 . S
C856 C858 1.394 . S
C856 H872 0.931 . S
C857 C856 1.391 . S
C857 C861 1.376 . S
C858 C856 1.394 . S
C858 C859 1.369 . S
C858 C862 1.531 . S
C859 C858 1.369 . S
C859 C860 1.410 . S
C859 C867 1.503 . S
C860 C859 1.410 . S
C860 C861 1.392 . S
C860 C863 1.511 . S
C861 C857 1.376 . S
C861 C860 1.392 . S
C861 H873 0.929 . S
C862 C858 1.531 . S
C862 H874 0.960 . S
C862 H875 0.962 . S
C862 H876 0.960 . S
C863 C860 1.511 . S
C863 H877 0.961 . S
C863 H878 0.961 . S
C863 H879 0.961 . S
C864 C865 1.370 . S
C864 C866 1.363 . S
C864 H880 0.931 . S
C865 C864 1.370 . S
C865 C869 1.408 . S
C866 C864 1.363 . S
C866 C867 1.370 . S
C866 C870 1.524 . S
C867 C859 1.503 . S
C867 C866 1.370 . S
C867 C868 1.403 . S
C868 C867 1.403 . S
C868 C869 1.404 . S
C868 C871 1.539 . S
C869 C865 1.408 . S
C869 C868 1.404 . S
C869 H881 0.930 . S
C870 C866 1.524 . S
C870 H882 0.956 . S
C870 H883 0.961 . S
C870 H884 0.961 . S
C871 C868 1.539 . S
C871 H885 0.958 . S
C871 H886 0.961 . S
C871 H887 0.960 . S
H872 C856 0.931 . S
H873 C861 0.929 . S
H874 C862 0.960 . S
H875 C862 0.962 . S
H876 C862 0.960 . S
H877 C863 0.961 . S
H878 C863 0.961 . S
H879 C863 0.961 . S
H880 C864 0.931 . S
H881 C869 0.930 . S
H882 C870 0.956 . S
H883 C870 0.961 . S
H884 C870 0.961 . S
H885 C871 0.958 . S
H886 C871 0.961 . S
H887 C871 0.960 . S
C888 C889 1.391 . S
C888 C890 1.394 . S
C888 H904 0.931 . S
C889 C888 1.391 . S
C889 C893 1.376 . S
C890 C888 1.394 . S
C890 C891 1.369 . S
C890 C894 1.531 . S
C891 C890 1.369 . S
C891 C892 1.410 . S
C891 C899 1.503 . S
C892 C891 1.410 . S
C892 C893 1.392 . S
C892 C895 1.511 . S
C893 C889 1.376 . S
C893 C892 1.392 . S
C893 H905 0.929 . S
C894 C890 1.531 . S
C894 H906 0.960 . S
C894 H907 0.962 . S
C894 H908 0.960 . S
C895 C892 1.511 . S
C895 H909 0.961 . S
C895 H910 0.961 . S
C895 H911 0.961 . S
C896 C897 1.370 . S
C896 C898 1.363 . S
C896 H912 0.931 . S
C897 C896 1.370 . S
C897 C901 1.408 . S
C898 C896 1.363 . S
C898 C899 1.370 . S
C898 C902 1.524 . S
C899 C891 1.503 . S
C899 C898 1.370 . S
C899 C900 1.403 . S
C900 C899 1.403 . S
C900 C901 1.404 . S
C900 C903 1.539 . S
C901 C897 1.408 . S
C901 C900 1.404 . S
C901 H913 0.930 . S
C902 C898 1.524 . S
C902 H914 0.956 . S
C902 H915 0.961 . S
C902 H916 0.961 . S
C903 C900 1.539 . S
C903 H917 0.958 . S
C903 H918 0.961 . S
C903 H919 0.960 . S
H904 C888 0.931 . S
H905 C893 0.929 . S
H906 C894 0.960 . S
H907 C894 0.962 . S
H908 C894 0.960 . S
H909 C895 0.961 . S
H910 C895 0.961 . S
H911 C895 0.961 . S
H912 C896 0.931 . S
H913 C901 0.930 . S
H914 C902 0.956 . S
H915 C902 0.961 . S
H916 C902 0.961 . S
H917 C903 0.958 . S
H918 C903 0.961 . S
H919 C903 0.960 . S
C920 C921 1.391 . S
C920 C922 1.394 . S
C920 H936 0.931 . S
C921 C920 1.391 . S
C921 C925 1.376 . S
C922 C920 1.394 . S
C922 C923 1.369 . S
C922 C926 1.531 . S
C923 C922 1.369 . S
C923 C924 1.410 . S
C923 C931 1.503 . S
C924 C923 1.410 . S
C924 C925 1.392 . S
C924 C927 1.511 . S
C925 C921 1.376 . S
C925 C924 1.392 . S
C925 H937 0.929 . S
C926 C922 1.531 . S
C926 H938 0.960 . S
C926 H939 0.962 . S
C926 H940 0.960 . S
C927 C924 1.511 . S
C927 H941 0.961 . S
C927 H942 0.961 . S
C927 H943 0.961 . S
C928 C929 1.370 . S
C928 C930 1.363 . S
C928 H944 0.931 . S
C929 C928 1.370 . S
C929 C933 1.408 . S
C930 C928 1.363 . S
C930 C931 1.370 . S
C930 C934 1.524 . S
C931 C923 1.503 . S
C931 C930 1.370 . S
C931 C932 1.403 . S
C932 C931 1.403 . S
C932 C933 1.404 . S
C932 C935 1.539 . S
C933 C929 1.408 . S
C933 C932 1.404 . S
C933 H945 0.930 . S
C934 C930 1.524 . S
C934 H946 0.956 . S
C934 H947 0.961 . S
C934 H948 0.961 . S
C935 C932 1.539 . S
C935 H949 0.958 . S
C935 H950 0.961 . S
C935 H951 0.960 . S
H936 C920 0.931 . S
H937 C925 0.929 . S
H938 C926 0.960 . S
H939 C926 0.962 . S
H940 C926 0.960 . S
H941 C927 0.961 . S
H942 C927 0.961 . S
H943 C927 0.961 . S
H944 C928 0.931 . S
H945 C933 0.930 . S
H946 C934 0.956 . S
H947 C934 0.961 . S
H948 C934 0.961 . S
H949 C935 0.958 . S
H950 C935 0.961 . S
H951 C935 0.960 . S
C952 C953 1.391 . S
C952 C954 1.394 . S
C952 H968 0.931 . S
C953 C952 1.391 . S
C953 C957 1.376 . S
C954 C952 1.394 . S
C954 C955 1.369 . S
C954 C958 1.531 . S
C955 C954 1.369 . S
C955 C956 1.410 . S
C955 C963 1.503 . S
C956 C955 1.410 . S
C956 C957 1.392 . S
C956 C959 1.511 . S
C957 C953 1.376 . S
C957 C956 1.392 . S
C957 H969 0.929 . S
C958 C954 1.531 . S
C958 H970 0.960 . S
C958 H971 0.962 . S
C958 H972 0.960 . S
C959 C956 1.511 . S
C959 H973 0.961 . S
C959 H974 0.961 . S
C959 H975 0.961 . S
C960 C961 1.370 . S
C960 C962 1.363 . S
C960 H976 0.931 . S
C961 C960 1.370 . S
C961 C965 1.408 . S
C962 C960 1.363 . S
C962 C963 1.370 . S
C962 C966 1.524 . S
C963 C955 1.503 . S
C963 C962 1.370 . S
C963 C964 1.403 . S
C964 C963 1.403 . S
C964 C965 1.404 . S
C964 C967 1.539 . S
C965 C961 1.408 . S
C965 C964 1.404 . S
C965 H977 0.930 . S
C966 C962 1.524 . S
C966 H978 0.956 . S
C966 H979 0.961 . S
C966 H980 0.961 . S
C967 C964 1.539 . S
C967 H981 0.958 . S
C967 H982 0.961 . S
C967 H983 0.960 . S
H968 C952 0.931 . S
H969 C957 0.929 . S
H970 C958 0.960 . S
H971 C958 0.962 . S
H972 C958 0.960 . S
H973 C959 0.961 . S
H974 C959 0.961 . S
H975 C959 0.961 . S
H976 C960 0.931 . S
H977 C965 0.930 . S
H978 C966 0.956 . S
H979 C966 0.961 . S
H980 C966 0.961 . S
H981 C967 0.958 . S
H982 C967 0.961 . S
H983 C967 0.960 . S
C984 C985 1.391 . S
C984 C986 1.394 . S
C984 H1000 0.931 . S
C985 C984 1.391 . S
C985 C989 1.376 . S
C986 C984 1.394 . S
C986 C987 1.369 . S
C986 C990 1.531 . S
C987 C986 1.369 . S
C987 C988 1.410 . S
C987 C995 1.503 . S
C988 C987 1.410 . S
C988 C989 1.392 . S
C988 C991 1.511 . S
C989 C985 1.376 . S
C989 C988 1.392 . S
C989 H1001 0.929 . S
C990 C986 1.531 . S
C990 H1002 0.960 . S
C990 H1003 0.962 . S
C990 H1004 0.960 . S
C991 C988 1.511 . S
C991 H1005 0.961 . S
C991 H1006 0.961 . S
C991 H1007 0.961 . S
C992 C993 1.370 . S
C992 C994 1.363 . S
C992 H1008 0.931 . S
C993 C992 1.370 . S
C993 C997 1.408 . S
C994 C992 1.363 . S
C994 C995 1.370 . S
C994 C998 1.524 . S
C995 C987 1.503 . S
C995 C994 1.370 . S
C995 C996 1.403 . S
C996 C995 1.403 . S
C996 C997 1.404 . S
C996 C999 1.539 . S
C997 C993 1.408 . S
C997 C996 1.404 . S
C997 H1009 0.930 . S
C998 C994 1.524 . S
C998 H1010 0.956 . S
C998 H1011 0.961 . S
C998 H1012 0.961 . S
C999 C996 1.539 . S
C999 H1013 0.958 . S
C999 H1014 0.961 . S
C999 H1015 0.960 . S
H1000 C984 0.931 . S
H1001 C989 0.929 . S
H1002 C990 0.960 . S
H1003 C990 0.962 . S
H1004 C990 0.960 . S
H1005 C991 0.961 . S
H1006 C991 0.961 . S
H1007 C991 0.961 . S
H1008 C992 0.931 . S
H1009 C997 0.930 . S
H1010 C998 0.956 . S
H1011 C998 0.961 . S
H1012 C998 0.961 . S
H1013 C999 0.958 . S
H1014 C999 0.961 . S
H1015 C999 0.960 . S
C1016 C1017 1.391 . S
C1016 C1018 1.394 . S
C1016 H1032 0.931 . S
C1017 C1016 1.391 . S
C1017 C1021 1.376 . S
C1018 C1016 1.394 . S
C1018 C1019 1.369 . S
C1018 C1022 1.531 . S
C1019 C1018 1.369 . S
C1019 C1020 1.410 . S
C1019 C1027 1.503 . S
C1020 C1019 1.410 . S
C1020 C1021 1.392 . S
C1020 C1023 1.511 . S
C1021 C1017 1.376 . S
C1021 C1020 1.392 . S
C1021 H1033 0.929 . S
C1022 C1018 1.531 . S
C1022 H1034 0.960 . S
C1022 H1035 0.962 . S
C1022 H1036 0.960 . S
C1023 C1020 1.511 . S
C1023 H1037 0.961 . S
C1023 H1038 0.961 . S
C1023 H1039 0.961 . S
C1024 C1025 1.370 . S
C1024 C1026 1.363 . S
C1024 H1040 0.931 . S
C1025 C1024 1.370 . S
C1025 C1029 1.408 . S
C1026 C1024 1.363 . S
C1026 C1027 1.370 . S
C1026 C1030 1.524 . S
C1027 C1019 1.503 . S
C1027 C1026 1.370 . S
C1027 C1028 1.403 . S
C1028 C1027 1.403 . S
C1028 C1029 1.404 . S
C1028 C1031 1.539 . S
C1029 C1025 1.408 . S
C1029 C1028 1.404 . S
C1029 H1041 0.930 . S
C1030 C1026 1.524 . S
C1030 H1042 0.956 . S
C1030 H1043 0.961 . S
C1030 H1044 0.961 . S
C1031 C1028 1.539 . S
C1031 H1045 0.958 . S
C1031 H1046 0.961 . S
C1031 H1047 0.960 . S
H1032 C1016 0.931 . S
H1033 C1021 0.929 . S
H1034 C1022 0.960 . S
H1035 C1022 0.962 . S
H1036 C1022 0.960 . S
H1037 C1023 0.961 . S
H1038 C1023 0.961 . S
H1039 C1023 0.961 . S
H1040 C1024 0.931 . S
H1041 C1029 0.930 . S
H1042 C1030 0.956 . S
H1043 C1030 0.961 . S
H1044 C1030 0.961 . S
H1045 C1031 0.958 . S
H1046 C1031 0.961 . S
H1047 C1031 0.960 . S
C1048 C1049 1.391 . S
C1048 C1050 1.394 . S
C1048 H1064 0.931 . S
C1049 C1048 1.391 . S
C1049 C1053 1.376 . S
C1050 C1048 1.394 . S
C1050 C1051 1.369 . S
C1050 C1054 1.531 . S
C1051 C1050 1.369 . S
C1051 C1052 1.410 . S
C1051 C1059 1.503 . S
C1052 C1051 1.410 . S
C1052 C1053 1.392 . S
C1052 C1055 1.511 . S
C1053 C1049 1.376 . S
C1053 C1052 1.392 . S
C1053 H1065 0.929 . S
C1054 C1050 1.531 . S
C1054 H1066 0.960 . S
C1054 H1067 0.962 . S
C1054 H1068 0.960 . S
C1055 C1052 1.511 . S
C1055 H1069 0.961 . S
C1055 H1070 0.961 . S
C1055 H1071 0.961 . S
C1056 C1057 1.370 . S
C1056 C1058 1.363 . S
C1056 H1072 0.931 . S
C1057 C1056 1.370 . S
C1057 C1061 1.408 . S
C1058 C1056 1.363 . S
C1058 C1059 1.370 . S
C1058 C1062 1.524 . S
C1059 C1051 1.503 . S
C1059 C1058 1.370 . S
C1059 C1060 1.403 . S
C1060 C1059 1.403 . S
C1060 C1061 1.404 . S
C1060 C1063 1.539 . S
C1061 C1057 1.408 . S
C1061 C1060 1.404 . S
C1061 H1073 0.930 . S
C1062 C1058 1.524 . S
C1062 H1074 0.956 . S
C1062 H1075 0.961 . S
C1062 H1076 0.961 . S
C1063 C1060 1.539 . S
C1063 H1077 0.958 . S
C1063 H1078 0.961 . S
C1063 H1079 0.960 . S
H1064 C1048 0.931 . S
H1065 C1053 0.929 . S
H1066 C1054 0.960 . S
H1067 C1054 0.962 . S
H1068 C1054 0.960 . S
H1069 C1055 0.961 . S
H1070 C1055 0.961 . S
H1071 C1055 0.961 . S
H1072 C1056 0.931 . S
H1073 C1061 0.930 . S
H1074 C1062 0.956 . S
H1075 C1062 0.961 . S
H1076 C1062 0.961 . S
H1077 C1063 0.958 . S
H1078 C1063 0.961 . S
H1079 C1063 0.960 . S
C313 C6 1.182 . S
C321 C158 1.201 . S
C345 C21 1.475 . S
C353 C207 1.456 . S
C385 C242 1.850 . S
C377 C49 1.827 . S
C409 C68 2.078 . S
C417 C281 2.135 1_655 S
C449 C202 2.995 . S
C441 C2 2.863 . S
C481 C161 0.390 . S
C473 C30 0.533 . S
C513 C291 1.871 . S
C505 C40 1.924 . S
C545 C250 1.542 . S
C537 C63 1.531 . S
C569 C11 1.378 . S
C577 C278 1.541 . S
C609 C210 2.603 . S
C601 C44 2.689 . S
C633 C59 1.954 . S
C641 C171 1.965 . S
C665 C25 1.239 . S
C673 C247 1.216 . S
C705 C167 1.430 . S
C697 C82 1.410 . S
C729 C101 1.174 . S
C737 C198 1.225 . S
C761 C125 2.286 . S
C769 C251 2.385 . S
C793 C144 1.790 . S
C801 C290 1.917 . S
C825 C87 1.894 . S
C833 C211 2.003 . S
C865 C170 1.758 . S
C857 C97 1.774 . S
C897 C282 1.649 . S
C889 C120 1.743 . S
C929 C241 1.543 . S
C921 C135 1.622 . S
C953 C78 1.929 . S
C961 C287 2.022 . S
C993 C201 1.881 . S
C985 C116 1.931 . S
C1025 C162 2.649 . S
C1017 C139 2.655 . S
C1049 C106 0.911 . S
C1057 C238 0.900 . S
