# Generated by pormake.
# Topology zzz, (3,6)-cn, num edge types: 1
# Building blocks:
#     Node 0, Type 0, BuildingBlock: VETTIZ_charged_linker_0, # of connection points: 3
#     Node 1, Type 0, BuildingBlock: VETTIZ_charged_linker_0, # of connection points: 3
#     Node 2, Type 0, BuildingBlock: VETTIZ_charged_linker_0, # of connection points: 3
#     Node 3, Type 0, BuildingBlock: VETTIZ_charged_linker_0, # of connection points: 3
#     Node 4, Type 0, BuildingBlock: VETTIZ_charged_linker_0, # of connection points: 3
#     Node 5, Type 0, BuildingBlock: VETTIZ_charged_linker_0, # of connection points: 3
#     Node 6, Type 0, BuildingBlock: VETTIZ_charged_linker_0, # of connection points: 3
#     Node 7, Type 0, BuildingBlock: VETTIZ_charged_linker_0, # of connection points: 3
#     Node 8, Type 1, BuildingBlock: JUFBIX_clean_sbu_0, # of connection points: 6
#     Node 9, Type 1, BuildingBlock: JUFBIX_clean_sbu_0, # of connection points: 6
#     Node 10, Type 1, BuildingBlock: JUFBIX_clean_sbu_0, # of connection points: 6
#     Node 11, Type 1, BuildingBlock: JUFBIX_clean_sbu_0, # of connection points: 6
#     Edge 12, Type (0, 1), None
#     Edge 13, Type (0, 1), None
#     Edge 14, Type (0, 1), None
#     Edge 15, Type (0, 1), None
#     Edge 16, Type (0, 1), None
#     Edge 17, Type (0, 1), None
#     Edge 18, Type (0, 1), None
#     Edge 19, Type (0, 1), None
#     Edge 20, Type (0, 1), None
#     Edge 21, Type (0, 1), None
#     Edge 22, Type (0, 1), None
#     Edge 23, Type (0, 1), None
#     Edge 24, Type (0, 1), None
#     Edge 25, Type (0, 1), None
#     Edge 26, Type (0, 1), None
#     Edge 27, Type (0, 1), None
#     Edge 28, Type (0, 1), None
#     Edge 29, Type (0, 1), None
#     Edge 30, Type (0, 1), None
#     Edge 31, Type (0, 1), None
#     Edge 32, Type (0, 1), None
#     Edge 33, Type (0, 1), None
#     Edge 34, Type (0, 1), None
#     Edge 35, Type (0, 1), None
# Relax obj value: 0.275
# Max RMSD: 0.235
# Mean RMSD: 0.189
data_MOF--net-zzz--node1-JUFBIX_clean_sbu_0--node2-VETTIZ_charged_linker_0--edge1-none
_symmetry_space_group_name_H-M    P1
_symmetry_Int_Tables_number       1
_symmetry_cell_setting            triclinic
loop_
_symmetry_equiv_pos_as_xyz
'x, y, z'
_cell_length_a     32.420131
_cell_length_b     31.482112
_cell_length_c     12.649724
_cell_angle_alpha  77.120947
_cell_angle_beta   90.145693
_cell_angle_gamma 94.232841
loop_
_atom_site_label
_atom_site_type_symbol
_atom_site_fract_x
_atom_site_fract_y
_atom_site_fract_z
_atom_type_partial_charge
C0 C 0.89632 0.53068 0.62184 0.0
C1 C 0.93708 0.55149 0.62294 0.0
C2 C 0.95378 0.57832 0.52594 0.0
C3 C 0.89902 0.55033 0.42772 0.0
C4 C 0.87629 0.53366 0.52036 0.0
C5 C 0.83388 0.51522 0.48892 0.0
H6 H 0.72887 0.45476 0.05969 0.0
C7 C 0.88078 0.53303 0.3403 0.0
C8 C 0.8386 0.52194 0.36428 0.0
H9 H 0.6732 0.53626 0.24307 0.0
H10 H 0.74013 0.54393 0.3383 0.0
H11 H 0.80262 0.51262 0.99941 0.0
H12 H 0.78415 0.3984 0.25789 0.0
H13 H 0.83315 0.3964 0.20077 0.0
H14 H 0.78776 0.39621 0.11771 0.0
H15 H 0.80312 0.45854 0.97604 0.0
H16 H 0.84945 0.4881 1.00813 0.0
C17 C 0.79949 0.54127 0.52026 0.0
C18 C 0.82665 0.46641 0.54371 0.0
C19 C 0.98288 0.46055 0.14939 0.0
C20 C 0.97715 0.44606 0.05293 0.0
C21 C 0.93803 0.42819 0.03076 0.0
C22 C 0.9035 0.434 0.09067 0.0
C23 C 0.90879 0.45882 0.17026 0.0
C24 C 0.94814 0.47046 0.20152 0.0
C25 C 0.94787 0.50035 0.27959 0.0
C26 C 0.9019 0.50808 0.28023 0.0
C27 C 0.87944 0.48146 0.22243 0.0
C28 C 0.97562 0.54301 0.23712 0.0
C29 C 0.96208 0.47511 0.39107 0.0
C30 C 0.73018 0.47336 0.12227 0.0
C31 C 0.69563 0.49418 0.14463 0.0
C32 C 0.69937 0.51963 0.22434 0.0
C33 C 0.73721 0.52301 0.2813 0.0
C34 C 0.77074 0.4999 0.2597 0.0
C35 C 0.7668 0.47684 0.17847 0.0
C36 C 0.80667 0.46096 0.14967 0.0
C37 C 0.83593 0.48034 0.22203 0.0
C38 C 0.81502 0.50049 0.29258 0.0
C39 C 0.81614 0.48059 0.02714 0.0
C40 C 0.80296 0.41034 0.18219 0.0
H41 H 0.94838 0.59706 0.35272 0.0
H42 H 0.88201 0.51097 0.69552 0.0
H43 H 0.85216 0.44788 0.52268 0.0
H44 H 0.79708 0.45242 0.51649 0.0
H45 H 0.82511 0.46175 0.63335 0.0
H46 H 0.80254 0.57561 0.47264 0.0
H47 H 0.80112 0.54159 0.60787 0.0
H48 H 0.76862 0.52615 0.5058 0.0
H49 H 0.01347 0.47252 0.16926 0.0
H50 H 0.9332 0.41611 0.95754 0.0
H51 H 0.87384 0.42327 0.06441 0.0
H52 H 1.00023 0.53959 0.17981 0.0
H53 H 0.99247 0.55399 0.3038 0.0
H54 H 0.95681 0.56932 0.19391 0.0
H55 H 0.94144 0.44503 0.42126 0.0
H56 H 0.96209 0.49517 0.45266 0.0
H57 H 0.99412 0.4654 0.38487 0.0
H58 H 0.9839 0.59584 0.52495 0.0
C59 C 0.93468 0.5778 0.42734 0.0
C60 C 0.95841 0.87443 0.99124 0.0
C61 C 0.98028 0.90682 0.03478 0.0
C62 C 0.97012 0.9109 0.13979 0.0
C63 C 0.91568 0.85239 0.15353 0.0
C64 C 0.92676 0.8471 0.05224 0.0
C65 C 0.90873 0.80375 0.03565 0.0
H66 H 0.031 0.6691 0.21186 0.0
C67 C 0.89085 0.81286 0.2124 0.0
C68 C 0.89949 0.7809 0.15491 0.0
H69 H 0.92905 0.64382 1.00535 0.0
H70 H 0.8879 0.69312 0.07925 0.0
H71 H 0.0203 0.77929 0.19413 0.0
H72 H 0.95953 0.67746 0.44817 0.0
H73 H 0.99398 0.71897 0.48602 0.0
H74 H 0.01453 0.67785 0.42643 0.0
H75 H 0.0509 0.73892 0.27518 0.0
H76 H 0.0307 0.7802 0.33281 0.0
C77 C 0.93893 0.78272 0.97125 0.0
C78 C 0.86785 0.80991 0.97346 0.0
C79 C 0.91281 0.86444 0.52227 0.0
C80 C 0.95224 0.87995 0.54813 0.0
C81 C 0.98635 0.8558 0.53425 0.0
C82 C 0.98127 0.81899 0.48635 0.0
C83 C 0.94187 0.80632 0.45234 0.0
C84 C 0.90823 0.82926 0.4719 0.0
C85 C 0.87153 0.81989 0.40663 0.0
C86 C 0.89305 0.80076 0.32556 0.0
C87 C 0.92973 0.78317 0.36443 0.0
C88 C 0.84724 0.8597 0.35641 0.0
C89 C 0.84185 0.78424 0.47703 0.0
C90 C 0.99976 0.67367 0.18352 0.0
C91 C 0.9839 0.65431 0.09837 0.0
C92 C 0.94231 0.65899 0.06767 0.0
C93 C 0.9188 0.68711 0.10866 0.0
C94 C 0.93753 0.71061 0.17897 0.0
C95 C 0.97482 0.70093 0.22654 0.0
C96 C 0.98439 0.72828 0.31149 0.0
C97 C 0.94592 0.75425 0.30392 0.0
C98 C 0.92254 0.74691 0.21456 0.0
C99 C 0.02381 0.75845 0.27662 0.0
C100 C 0.98837 0.69887 0.42481 0.0
H101 H 0.93362 0.88575 0.28222 0.0
H102 H 0.96622 0.87067 0.91094 0.0
H103 H 0.84586 0.82674 1.01443 0.0
H104 H 0.85269 0.77765 0.96799 0.0
H105 H 0.8737 0.82985 0.88982 0.0
H106 H 0.96844 0.77644 1.01472 0.0
H107 H 0.94644 0.80426 0.89049 0.0
H108 H 0.92444 0.75255 0.95191 0.0
H109 H 0.88619 0.8819 0.53297 0.0
H110 H 0.01717 0.86697 0.55406 0.0
H111 H 1.00808 0.80304 0.47058 0.0
H112 H 0.86752 0.88753 0.31195 0.0
H113 H 0.83074 0.87092 0.4208 0.0
H114 H 0.82384 0.85076 0.2992 0.0
H115 H 0.8282 0.79668 0.54375 0.0
H116 H 0.85808 0.7547 0.51417 0.0
H117 H 0.81625 0.77413 0.42715 0.0
H118 H 0.98619 0.93569 0.17508 0.0
C119 C 0.93837 0.88354 0.19953 0.0
C120 C 0.8986 0.03416 0.06413 0.0
C121 C 0.90749 0.03117 0.9548 0.0
C122 C 0.8741 0.02366 0.88842 0.0
C123 C 0.82526 0.02323 0.03144 0.0
C124 C 0.8565 0.0301 0.10138 0.0
C125 C 0.83788 0.02638 0.21611 0.0
H126 H 0.67163 0.91233 0.52217 0.0
C127 C 0.78602 0.01377 0.0897 0.0
C128 C 0.7919 0.01373 0.20032 0.0
H129 H 0.69534 0.04629 0.5451 0.0
H130 H 0.75478 0.0542 0.41741 0.0
H131 H 0.66244 0.87839 0.36171 0.0
H132 H 0.74032 0.8816 0.24954 0.0
H133 H 0.73596 0.86663 0.39566 0.0
H134 H 0.77547 0.90707 0.3309 0.0
H135 H 0.66334 0.90793 0.22311 0.0
H136 H 0.64441 0.93129 0.33004 0.0
C137 C 0.8433 0.0705 0.249 0.0
C138 C 0.85739 0.99057 0.29931 0.0
C139 C 0.65196 0.04866 0.93792 0.0
C140 C 0.61409 0.04549 0.99399 0.0
C141 C 0.61248 0.02943 0.10718 0.0
C142 C 0.64606 1.00879 0.15912 0.0
C143 C 0.67958 1.00295 0.09558 0.0
C144 C 0.68437 0.02655 0.99059 0.0
C145 C 0.72655 0.02376 0.94598 0.0
C146 C 0.74709 1.00125 0.0508 0.0
C147 C 0.71705 0.98143 0.1288 0.0
C148 C 0.7456 0.07028 0.89455 0.0
C149 C 0.72184 0.99459 0.86253 0.0
C150 C 0.69009 0.94316 0.50349 0.0
C151 C 0.67772 0.97866 0.5431 0.0
C152 C 0.70365 0.01801 0.51681 0.0
C153 C 0.73834 0.02242 0.44436 0.0
C154 C 0.74642 0.98826 0.39297 0.0
C155 C 0.71974 0.94984 0.41985 0.0
C156 C 0.71298 0.93029 0.3222 0.0
C157 C 0.72767 0.96994 0.23705 0.0
C158 C 0.75837 0.9949 0.27549 0.0
C159 C 0.66825 0.9114 0.30782 0.0
C160 C 0.74294 0.89427 0.32479 0.0
H161 H 0.81 1.00886 0.87675 0.0
H162 H 0.92351 0.03779 0.1193 0.0
H163 H 0.85318 0.95905 0.27394 0.0
H164 H 0.84261 0.98645 0.38049 0.0
H165 H 0.89105 0.99889 0.3061 0.0
H166 H 0.82894 0.09621 0.18846 0.0
H167 H 0.87668 0.08066 0.25423 0.0
H168 H 0.82841 0.06819 0.3293 0.0
H169 H 0.65427 0.06267 0.85155 0.0
H170 H 0.58412 0.02856 0.153 0.0
H171 H 0.64528 0.99759 0.24589 0.0
H172 H 0.74998 0.09004 0.95697 0.0
H173 H 0.72527 0.08746 0.83079 0.0
H174 H 0.77562 0.06992 0.85402 0.0
H175 H 0.70207 1.00955 0.79452 0.0
H176 H 0.70711 0.96173 0.90079 0.0
H177 H 0.75147 0.98976 0.82613 0.0
H178 H 0.87909 0.01987 0.80646 0.0
C179 C 0.83373 0.01824 0.92743 0.0
C180 C 0.5571 0.65667 0.61175 0.0
C181 C 0.57906 0.61788 0.6402 0.0
C182 C 0.61076 0.61219 0.5697 0.0
C183 C 0.58743 0.67169 0.43391 0.0
C184 C 0.56431 0.68529 0.50826 0.0
C185 C 0.54435 0.72714 0.45157 0.0
H186 H 0.50608 0.85365 0.93596 0.0
C187 C 0.57458 0.69297 0.32613 0.0
C188 C 0.55804 0.73249 0.33168 0.0
H189 H 0.55735 0.91266 0.1886 0.0
H190 H 0.56448 0.83898 0.30578 0.0
H191 H 0.56772 0.78021 0.95498 0.0
H192 H 0.44665 0.77948 0.09294 0.0
H193 H 0.45154 0.72554 0.08086 0.0
H194 H 0.45336 0.76924 0.96053 0.0
H195 H 0.52097 0.78724 0.87836 0.0
H196 H 0.53726 0.73387 0.93492 0.0
C197 C 0.56124 0.76574 0.49876 0.0
C198 C 0.49693 0.72043 0.46404 0.0
C199 C 0.51859 0.58065 0.12181 0.0
C200 C 0.49709 0.58401 0.02449 0.0
C201 C 0.4817 0.62404 0.97398 0.0
C202 C 0.49098 0.66131 1.01547 0.0
C203 C 0.51633 0.65826 0.10691 0.0
C204 C 0.52903 0.61823 0.15971 0.0
C205 C 0.55484 0.62063 0.25719 0.0
C206 C 0.5577 0.66986 0.24988 0.0
C207 C 0.53364 0.69097 0.16483 0.0
C208 C 0.59758 0.60265 0.24626 0.0
C209 C 0.52997 0.59447 0.35824 0.0
C210 C 0.51811 0.85107 1.01695 0.0
C211 C 0.53105 0.88889 0.05262 0.0
C212 C 0.54666 0.88398 0.15944 0.0
C213 C 0.55012 0.84184 0.22774 0.0
C214 C 0.53603 0.80447 0.19072 0.0
C215 C 0.52077 0.80973 0.08621 0.0
C216 C 0.51088 0.76678 0.05557 0.0
C217 C 0.52722 0.73561 0.15302 0.0
C218 C 0.53922 0.75675 0.23611 0.0
C219 C 0.53522 0.76679 0.95016 0.0
C220 C 0.46324 0.75976 0.04619 0.0
H221 H 0.63697 0.63264 0.40826 0.0
H222 H 0.53324 0.66263 0.66523 0.0
H223 H 0.48495 0.69167 0.43259 0.0
H224 H 0.48228 0.74966 0.41804 0.0
H225 H 0.4874 0.715 0.55063 0.0
H226 H 0.59472 0.77367 0.47906 0.0
H227 H 0.55724 0.75772 0.58845 0.0
H228 H 0.54425 0.79506 0.46642 0.0
H229 H 0.53025 0.54989 0.16241 0.0
H230 H 0.46556 0.62739 0.89777 0.0
H231 H 0.48011 0.69145 0.97127 0.0
H232 H 0.59739 0.5807 0.18866 0.0
H233 H 0.60747 0.5827 0.32461 0.0
H234 H 0.62177 0.62955 0.2165 0.0
H235 H 0.50035 0.60923 0.36659 0.0
H236 H 0.54711 0.59296 0.43413 0.0
H237 H 0.52267 0.56006 0.35208 0.0
H238 H 0.6287 0.58385 0.58989 0.0
C239 C 0.61478 0.63902 0.46513 0.0
C240 C 0.35224 0.49452 0.43772 0.0
C241 C 0.36151 0.49071 0.54972 0.0
C242 C 0.3291 0.47874 0.62646 0.0
C243 C 0.27964 0.48988 0.48226 0.0
C244 C 0.31024 0.4913 0.40621 0.0
C245 C 0.29122 0.49545 0.2936 0.0
H246 H 0.14221 0.57864 0.96017 0.0
C247 C 0.24183 0.50389 0.42602 0.0
C248 C 0.2458 0.50144 0.31694 0.0
H249 H 0.16203 0.44293 0.98333 0.0
H250 H 0.21223 0.44659 0.13105 0.0
H251 H 0.1065 0.5302 0.15776 0.0
H252 H 0.21045 0.62575 0.10709 0.0
H253 H 0.17617 0.63688 0.20471 0.0
H254 H 0.15782 0.63589 0.07082 0.0
H255 H 0.09969 0.58652 0.15173 0.0
H256 H 0.10889 0.54836 0.27758 0.0
C257 C 0.29565 0.45349 0.25312 0.0
C258 C 0.31136 0.53561 0.21303 0.0
C259 C 0.14772 0.58637 0.61078 0.0
C260 C 0.10831 0.5988 0.57754 0.0
C261 C 0.10035 0.61235 0.46665 0.0
C262 C 0.12906 0.60605 0.39024 0.0
C263 C 0.1637 0.58272 0.427 0.0
C264 C 0.17355 0.57477 0.53559 0.0
C265 C 0.20772 0.54441 0.56335 0.0
C266 C 0.21394 0.53229 0.45476 0.0
C267 C 0.18908 0.55588 0.37542 0.0
C268 C 0.19307 0.50399 0.65416 0.0
C269 C 0.24547 0.57141 0.59582 0.0
C270 C 0.15861 0.54986 0.99111 0.0
C271 C 0.14797 0.51084 0.9577 0.0
C272 C 0.1697 0.4739 1.00507 0.0
C273 C 0.19875 0.47606 0.08956 0.0
C274 C 0.20419 0.51448 0.13027 0.0
C275 C 0.18022 0.54856 0.08675 0.0
C276 C 0.16537 0.57051 0.17235 0.0
C277 C 0.18938 0.54881 0.26906 0.0
C278 C 0.2149 0.51875 0.24211 0.0
C279 C 0.11779 0.5588 0.19072 0.0
C280 C 0.17785 0.62001 0.1372 0.0
H281 H 0.26421 0.47216 0.65429 0.0
H282 H 0.37678 0.50218 0.37714 0.0
H283 H 0.3087 0.56575 0.24384 0.0
H284 H 0.29599 0.53992 0.13313 0.0
H285 H 0.34466 0.53178 0.2003 0.0
H286 H 0.27886 0.42499 0.30803 0.0
H287 H 0.32879 0.44688 0.24989 0.0
H288 H 0.2831 0.45671 0.17028 0.0
H289 H 0.15409 0.57601 0.69657 0.0
H290 H 0.07016 0.62262 0.43975 0.0
H291 H 0.12105 0.61557 0.30656 0.0
H292 H 0.15964 0.50272 0.6737 0.0
H293 H 0.20978 0.50396 0.73099 0.0
H294 H 0.19711 0.47279 0.62974 0.0
H295 H 0.25655 0.59815 0.52634 0.0
H296 H 0.27165 0.55167 0.62399 0.0
H297 H 0.23702 0.58639 0.66372 0.0
H298 H 0.33541 0.47447 0.71216 0.0
C299 C 0.28805 0.47846 0.59308 0.0
C300 C 0.08329 0.1515 0.6778 0.0
C301 C 0.0604 0.12011 0.63287 0.0
C302 C 0.07155 0.11478 0.52966 0.0
C303 C 0.13109 0.1667 0.52551 0.0
C304 C 0.11794 0.17517 0.62177 0.0
C305 C 0.13909 0.21723 0.63873 0.0
H306 H 0.05042 0.37432 0.39901 0.0
C307 C 0.16222 0.20141 0.47268 0.0
C308 C 0.15615 0.23621 0.52297 0.0
H309 H 0.1414 0.38342 0.64709 0.0
H310 H 0.17667 0.32367 0.59898 0.0
H311 H 0.12776 0.34822 0.20139 0.0
H312 H 0.04277 0.26187 0.4341 0.0
H313 H 0.03894 0.25907 0.29476 0.0
H314 H 0.02308 0.3062 0.33614 0.0
H315 H 0.07357 0.35775 0.19907 0.0
H316 H 0.09074 0.31183 0.15243 0.0
C317 C 0.17513 0.2073 0.71783 0.0
C318 C 0.10827 0.2442 0.68451 0.0
C319 C 0.14325 0.14834 0.16219 0.0
C320 C 0.104 0.14261 0.1184 0.0
C321 C 0.07624 0.17574 0.11418 0.0
C322 C 0.08634 0.21184 0.16199 0.0
C323 C 0.12433 0.21466 0.21452 0.0
C324 C 0.15243 0.18308 0.21213 0.0
C325 C 0.18664 0.18499 0.2911 0.0
C326 C 0.16665 0.2113 0.35973 0.0
C327 C 0.13652 0.2366 0.30438 0.0
C328 C 0.22449 0.21239 0.23132 0.0
C329 C 0.20053 0.14014 0.35315 0.0
C330 C 0.07827 0.36416 0.44163 0.0
C331 C 0.09217 0.38233 0.53045 0.0
C332 C 0.1296 0.36964 0.58093 0.0
C333 C 0.14962 0.33547 0.55481 0.0
C334 C 0.13164 0.3142 0.47881 0.0
C335 C 0.09987 0.33068 0.41401 0.0
C336 C 0.09039 0.30354 0.32877 0.0
C337 C 0.12312 0.27012 0.35458 0.0
C338 C 0.14237 0.27416 0.45237 0.0
C339 C 0.09594 0.33202 0.21354 0.0
C340 C 0.04632 0.28136 0.3493 0.0
H341 H 0.11209 0.13553 0.39368 0.0
H342 H 0.07452 0.15676 0.75606 0.0
H343 H 0.083 0.25398 0.62676 0.0
H344 H 0.12422 0.27304 0.70705 0.0
H345 H 0.09393 0.22525 0.76182 0.0
H346 H 0.19689 0.18626 0.68973 0.0
H347 H 0.16331 0.19008 0.7998 0.0
H348 H 0.19276 0.23818 0.72475 0.0
H349 H 0.16544 0.12412 0.16515 0.0
H350 H 0.04587 0.17239 0.07995 0.0
H351 H 0.06378 0.23519 0.1625 0.0
H352 H 0.21623 0.24514 0.18617 0.0
H353 H 0.23758 0.19557 0.17197 0.0
H354 H 0.24897 0.2173 0.29009 0.0
H355 H 0.21907 0.12528 0.29903 0.0
H356 H 0.17448 0.11606 0.38439 0.0
H357 H 0.22037 0.14428 0.42244 0.0
H358 H 0.05423 0.09141 0.49226 0.0
C359 C 0.10635 0.13839 0.47539 0.0
C360 C 0.32191 0.02405 0.15354 0.0
C361 C 0.35818 0.05203 0.11592 0.0
C362 C 0.36216 0.0933 0.14294 0.0
C363 C 0.30736 0.06939 0.27578 0.0
C364 C 0.29465 0.0356 0.22898 0.0
C365 C 0.25749 1.00991 0.29414 0.0
H366 H 0.16864 0.98585 0.81459 0.0
C367 C 0.29257 0.05812 0.38851 0.0
C368 C 0.2553 0.03126 0.39279 0.0
H369 H 0.09453 0.02012 0.52814 0.0
H370 H 0.15674 0.02621 0.41131 0.0
H371 H 0.21631 0.92781 0.80589 0.0
H372 H 0.25684 0.05321 0.72452 0.0
H373 H 0.29143 0.01366 0.79057 0.0
H374 H 0.23996 0.01221 0.84317 0.0
H375 H 0.27059 0.93435 0.81099 0.0
H376 H 0.24609 0.91751 0.69606 0.0
C377 C 0.2648 0.96091 0.32874 0.0
C378 C 0.21804 0.01664 0.22688 0.0
C379 C 0.41625 0.01489 0.6208 0.0
C380 C 0.42123 0.97564 0.69576 0.0
C381 C 0.38703 0.94583 0.73069 0.0
C382 C 0.34776 0.95594 0.69169 0.0
C383 C 0.34302 0.99725 0.62557 0.0
C384 C 0.37686 0.02478 0.58437 0.0
C385 C 0.36623 0.06003 0.48848 0.0
C386 C 0.32013 0.04682 0.47696 0.0
C387 C 0.30741 0.01331 0.56575 0.0
C388 C 0.39448 0.05792 0.39172 0.0
C389 C 0.37168 0.10498 0.51771 0.0
C390 C 0.16549 0.99429 0.72731 0.0
C391 C 0.12664 1.00217 0.68142 0.0
C392 C 0.12401 0.0133 0.56613 0.0
C393 C 0.15935 0.01668 0.4985 0.0
C394 C 0.19744 1.00728 0.54637 0.0
C395 C 0.20013 0.99618 0.65875 0.0
C396 C 0.24347 0.98747 0.69404 0.0
C397 C 0.26591 0.99847 0.58401 0.0
C398 C 0.23908 1.00845 0.49723 0.0
C399 C 0.24439 0.93912 0.75419 0.0
C400 C 0.25879 0.01849 0.76723 0.0
H401 H 0.34471 0.1302 0.25875 0.0
H402 H 0.31751 0.99244 0.13321 0.0
H403 H 0.21205 0.05184 0.20478 0.0
H404 H 0.19089 0.99823 0.27348 0.0
H405 H 0.22112 1.0049 0.15087 0.0
H406 H 0.29381 0.95619 0.37564 0.0
H407 H 0.26724 0.94642 0.25678 0.0
H408 H 0.23871 0.94269 0.38034 0.0
H409 H 0.44247 0.03819 0.59452 0.0
H410 H 0.39069 0.91549 0.78906 0.0
H411 H 0.32264 0.93117 0.70914 0.0
H412 H 0.38033 0.03412 0.34751 0.0
H413 H 0.42566 0.04737 0.41575 0.0
H414 H 0.40128 0.09052 0.33775 0.0
H415 H 0.4046 0.11319 0.53431 0.0
H416 H 0.35299 0.10534 0.59109 0.0
H417 H 0.36146 0.13079 0.44991 0.0
H418 H 0.38905 0.11542 0.11494 0.0
C419 C 0.33706 0.10188 0.22529 0.0
C420 C 0.49545 0.35683 0.06794 0.0
C421 C 0.47481 0.39637 0.03713 0.0
C422 C 0.44284 0.40349 0.10514 0.0
C423 C 0.46348 0.34351 0.2436 0.0
C424 C 0.48667 0.32876 0.17135 0.0
C425 C 0.50493 0.28626 0.23036 0.0
H426 H 0.53164 0.15983 0.75398 0.0
C427 C 0.47497 0.32216 0.3524 0.0
C428 C 0.49004 0.28171 0.34902 0.0
H429 H 0.48365 0.1017 0.49646 0.0
H430 H 0.48038 0.17535 0.37669 0.0
H431 H 0.59649 0.22649 0.60544 0.0
H432 H 0.47527 0.24006 0.72303 0.0
H433 H 0.51001 0.28301 0.74637 0.0
H434 H 0.52004 0.2277 0.80524 0.0
H435 H 0.58956 0.24318 0.73013 0.0
H436 H 0.59547 0.28257 0.60214 0.0
C437 C 0.55249 0.29131 0.22155 0.0
C438 C 0.48751 0.24799 0.18268 0.0
C439 C 0.53627 0.43374 0.55232 0.0
C440 C 0.55777 0.42973 0.64977 0.0
C441 C 0.57156 0.38907 0.70146 0.0
C442 C 0.56034 0.35188 0.66147 0.0
C443 C 0.5347 0.35572 0.57052 0.0
C444 C 0.52382 0.39627 0.51606 0.0
C445 C 0.49766 0.39454 0.41875 0.0
C446 C 0.4927 0.34518 0.42785 0.0
C447 C 0.51573 0.32338 0.51423 0.0
C448 C 0.5232 0.41921 0.31739 0.0
C449 C 0.45592 0.41463 0.42871 0.0
C450 C 0.52071 0.16262 0.67189 0.0
C451 C 0.50712 0.12507 0.63593 0.0
C452 C 0.49396 0.13016 0.52683 0.0
C453 C 0.49286 0.17226 0.45693 0.0
C454 C 0.50743 0.20929 0.4945 0.0
C455 C 0.52091 0.20386 0.60068 0.0
C456 C 0.53344 0.24664 0.62934 0.0
C457 C 0.52003 0.27827 0.52865 0.0
C458 C 0.50757 0.25709 0.44604 0.0
C459 C 0.5811 0.25002 0.64314 0.0
C460 C 0.50861 0.24972 0.73162 0.0
H461 H 0.41518 0.38466 0.26527 0.0
H462 H 0.5194 0.34978 1.01627 0.0
H463 H 0.45375 0.24129 0.19969 0.0
H464 H 0.50336 0.21805 0.21704 0.0
H465 H 0.49257 0.25564 0.09333 0.0
H466 H 0.56491 0.31982 0.25343 0.0
H467 H 0.56291 0.29625 0.13577 0.0
H468 H 0.56592 0.26159 0.26913 0.0
H469 H 0.52585 0.46503 0.51102 0.0
H470 H 0.58763 0.38531 0.77784 0.0
H471 H 0.56983 0.32128 0.70671 0.0
H472 H 0.55184 0.40276 0.30914 0.0
H473 H 0.53226 0.45337 0.32297 0.0
H474 H 0.50579 0.42156 0.24168 0.0
H475 H 0.45773 0.43824 0.48226 0.0
H476 H 0.43112 0.38897 0.46276 0.0
H477 H 0.44592 0.43344 0.34919 0.0
H478 H 0.42583 0.43246 0.08293 0.0
C479 C 0.43738 0.37717 0.20995 0.0
Co480 Co 0.03466 0.02634 0.90007 0.0
C481 C 0.95004 0.02996 0.90876 0.0
Co482 Co 1.00493 1.00175 0.76551 0.0
C483 C 0.06469 0.09362 1.01276 0.0
C484 C 0.0902 0.03227 0.07555 0.0
N485 N 0.06336 0.0515 1.00212 0.0
N486 N 0.09193 0.10157 0.08844 0.0
C487 C 0.10755 0.06268 0.12879 0.0
H488 H 0.04712 0.1184 0.96328 0.0
H489 H 0.09742 0.99853 0.08793 0.0
C490 C 0.08848 0.99939 0.75003 0.0
N491 N 0.97763 0.97522 0.66418 0.0
C492 C 0.98425 0.93497 0.64792 0.0
C493 C 0.94558 0.98821 0.60049 0.0
N494 N 0.95717 0.92192 0.57827 0.0
C495 C 0.93298 0.95564 0.54785 0.0
C496 C 0.03262 0.08669 0.70371 0.0
O497 O 0.08786 0.01356 0.83768 0.0
O498 O 0.05451 0.98824 0.71137 0.0
O499 O 1.01288 0.05671 0.66677 0.0
O500 O 0.03987 0.08039 0.80409 0.0
O501 O 0.95372 0.01634 0.82122 0.0
H502 H 0.93152 0.0187 0.59529 0.0
H503 H 1.00736 0.91472 0.69042 0.0
O504 O 0.98274 0.03896 0.95776 0.0
O505 O 0.02776 0.97067 0.99789 0.0
O506 O 0.99799 0.94816 0.86268 0.0
C507 C 1.00656 0.94131 0.96218 0.0
H508 H 0.13014 0.05644 0.19243 0.0
H509 H 0.9074 0.9565 0.49265 0.0
Co510 Co 0.49712 0.01611 0.90791 0.0
C511 C 0.52758 0.93267 0.97775 0.0
Co512 Co 0.53863 0.99833 0.78273 0.0
C513 C 0.41931 0.04447 0.99493 0.0
C514 C 0.4569 1.00708 0.11444 0.0
N515 N 0.45696 0.02707 1.0083 0.0
N516 N 0.39572 0.03424 0.08763 0.0
C517 C 0.41974 0.01072 0.16185 0.0
H518 H 0.40884 0.06295 0.91821 0.0
H519 H 0.48184 0.98933 0.15523 0.0
C520 C 0.50922 0.08126 0.7113 0.0
N521 N 0.57825 0.98411 0.68483 0.0
C522 C 0.61901 0.99759 0.65955 0.0
C523 C 0.56976 0.95325 0.62782 0.0
N524 N 0.63593 0.97571 0.59034 0.0
C525 C 0.60417 0.94844 0.57018 0.0
C526 C 0.45802 0.97472 0.75964 0.0
O527 O 0.491 0.07216 0.8048 0.0
O528 O 0.53227 0.05379 0.68608 0.0
O529 O 0.49326 0.97469 0.71576 0.0
O530 O 0.45459 0.99016 0.84293 0.0
O531 O 0.54404 0.94179 0.88285 0.0
H532 H 0.54039 0.93457 0.62863 0.0
H533 H 0.63613 0.02226 0.69281 0.0
O534 O 0.50546 0.96033 1.00481 0.0
O535 O 0.54122 0.04175 0.97357 0.0
O536 O 0.58083 0.02317 0.85176 0.0
C537 C 0.57683 0.04037 0.93275 0.0
H538 H 0.41127 0.99711 0.24568 0.0
H539 H 0.60518 0.92635 0.51601 0.0
Co540 Co 0.55805 0.50114 0.88043 0.0
C541 C 0.49252 0.43472 0.95379 0.0
Co542 Co 0.49726 0.51195 0.79504 0.0
C543 C 0.63196 0.51149 0.02651 0.0
C544 C 0.61383 0.44702 1.00684 0.0
N545 N 0.60462 0.48896 0.97262 0.0
N546 N 0.65709 0.48463 0.09276 0.0
C547 C 0.64504 0.44428 0.08001 0.0
H548 H 0.63402 0.54667 1.01564 0.0
H549 H 0.5988 0.41956 0.9799 0.0
C550 C 0.56236 0.57862 0.72253 0.0
N551 N 0.45125 0.52076 0.69976 0.0
C552 C 0.42248 0.49104 0.67424 0.0
C553 C 0.44595 0.55763 0.62371 0.0
N554 N 0.40059 0.50775 0.5846 0.0
C555 C 0.4153 0.54971 0.55366 0.0
C556 C 0.50239 0.55075 0.96254 0.0
O557 O 0.58523 0.55508 0.79139 0.0
O558 O 0.52527 0.56441 0.71161 0.0
O559 O 0.47746 0.54523 0.88774 0.0
O560 O 0.53694 0.53347 0.97191 0.0
O561 O 0.47011 0.45842 0.88455 0.0
H562 H 0.46341 0.58869 0.61776 0.0
H563 H 0.41784 0.45756 0.71973 0.0
O564 O 0.52972 0.4485 0.96459 0.0
O565 O 0.57773 0.4683 0.78615 0.0
O566 O 0.51829 0.47965 0.70455 0.0
C567 C 0.55283 0.46284 0.71194 0.0
H568 H 0.6593 0.41469 0.1178 0.0
H569 H 0.40318 0.57367 0.48817 0.0
Co570 Co 0.03308 0.5524 0.8363 0.0
C571 C 0.10808 0.50986 0.89613 0.0
Co572 Co 0.0422 0.49365 0.77027 0.0
C573 C 0.99893 0.60311 0.97892 0.0
C574 C 0.06157 0.62414 0.93135 0.0
N575 N 0.02995 0.59595 0.91533 0.0
N576 N 1.01022 0.63398 0.03531 0.0
C577 C 0.04964 0.64732 1.00497 0.0
H578 H 0.96878 0.58543 0.98505 0.0
H579 H 0.09161 0.62751 0.89231 0.0
C580 C 0.96753 0.53839 0.70999 0.0
N581 N 0.04546 0.44999 0.69027 0.0
C582 C 0.07787 0.43777 0.63954 0.0
C583 C 1.01239 0.42667 0.66116 0.0
N584 N 0.06616 0.40826 0.57948 0.0
C585 C 0.0249 0.40134 0.5933 0.0
C586 C 1.00214 0.47055 0.9607 0.0
O587 O 0.98096 0.56499 0.76705 0.0
O588 O 0.98943 0.50718 0.70233 0.0
O589 O 0.01457 0.4532 0.88626 0.0
O590 O 1.00652 0.51176 0.94999 0.0
O591 O 0.09625 0.48167 0.84124 0.0
H592 H 0.98088 0.42793 0.68749 0.0
H593 H 0.10945 0.45023 0.6464 0.0
O594 O 0.08424 0.53964 0.90145 0.0
O595 O 0.06092 0.59259 0.72247 0.0
O596 O 0.06965 0.5348 0.65631 0.0
C597 C 0.07514 0.57581 0.64945 0.0
H598 H 0.06808 0.67305 0.03129 0.0
H599 H 1.00535 0.37815 0.56051 0.0
loop_
_geom_bond_atom_site_label_1
_geom_bond_atom_site_label_2
_geom_bond_distance
_geom_bond_site_symmetry_2
_ccdc_geom_bond_type
C0 C1 1.391 . S
C0 C4 1.391 . S
C0 H42 0.948 . S
C1 C0 1.391 . S
C1 C2 1.391 . S
C2 C1 1.391 . S
C2 H58 0.947 . S
C2 C59 1.392 . S
C3 C4 1.391 . S
C3 C7 1.397 . S
C3 C59 1.419 . S
C4 C0 1.391 . S
C4 C3 1.391 . S
C4 C5 1.399 . S
C5 C4 1.399 . S
C5 C8 1.396 . S
C5 C17 1.453 . S
C5 C18 1.684 . S
H6 C30 0.948 . S
C7 C3 1.397 . S
C7 C8 1.394 . S
C7 C26 1.723 . S
C8 C5 1.396 . S
C8 C7 1.394 . S
C8 C38 1.723 . S
H9 C32 0.947 . S
H10 C33 0.948 . S
H11 C39 0.986 . S
H12 C40 0.979 1_554 S
H13 C40 0.980 . S
H14 C40 0.983 . S
H15 C39 0.979 . S
H16 C39 0.977 . S
C17 C5 1.453 . S
C17 H46 0.982 . S
C17 H47 0.979 . S
C17 H48 0.977 . S
C18 C5 1.684 . S
C18 H43 0.979 . S
C18 H44 0.980 . S
C18 H45 0.983 . S
C19 C20 1.391 1_554 S
C19 C24 1.391 . S
C19 H49 0.948 . S
C20 C19 1.391 1_556 S
C20 C21 1.391 . S
C21 C20 1.391 . S
C21 C22 1.392 . S
C21 H50 0.947 . S
C22 C21 1.392 . S
C22 C23 1.419 1_556 S
C22 H51 0.948 . S
C23 C22 1.419 1_554 S
C23 C24 1.391 . S
C23 C27 1.397 . S
C24 C19 1.391 . S
C24 C23 1.391 . S
C24 C25 1.399 . S
C25 C24 1.399 . S
C25 C26 1.396 . S
C25 C28 1.453 . S
C25 C29 1.684 . S
C26 C7 1.723 . S
C26 C25 1.396 . S
C26 C27 1.394 . S
C27 C23 1.397 . S
C27 C26 1.394 . S
C27 C37 1.723 . S
C28 C25 1.453 . S
C28 H52 0.982 . S
C28 H53 0.979 . S
C28 H54 0.977 . S
C29 C25 1.684 . S
C29 H55 0.979 . S
C29 H56 0.980 . S
C29 H57 0.983 . S
C30 H6 0.948 . S
C30 C31 1.391 . S
C30 C35 1.391 . S
C31 C30 1.391 . S
C31 C32 1.391 . S
C32 H9 0.947 . S
C32 C31 1.391 . S
C32 C33 1.392 . S
C33 H10 0.948 . S
C33 C32 1.392 . S
C33 C34 1.419 . S
C34 C33 1.419 . S
C34 C35 1.391 . S
C34 C38 1.397 . S
C35 C30 1.391 . S
C35 C34 1.391 . S
C35 C36 1.399 . S
C36 C35 1.399 . S
C36 C37 1.396 . S
C36 C39 1.453 1_554 S
C36 C40 1.684 1_554 S
C37 C27 1.723 . S
C37 C36 1.396 . S
C37 C38 1.394 . S
C38 C8 1.723 . S
C38 C34 1.397 . S
C38 C37 1.394 . S
C39 H11 0.986 . S
C39 H15 0.979 . S
C39 H16 0.977 . S
C39 C36 1.453 1_556 S
C40 H12 0.979 1_556 S
C40 H13 0.980 . S
C40 H14 0.983 . S
C40 C36 1.684 1_556 S
H41 C59 0.948 . S
H42 C0 0.948 . S
H43 C18 0.979 . S
H44 C18 0.980 . S
H45 C18 0.983 . S
H46 C17 0.982 . S
H47 C17 0.979 . S
H48 C17 0.977 . S
H49 C19 0.948 . S
H50 C21 0.947 . S
H51 C22 0.948 . S
H52 C28 0.982 . S
H53 C28 0.979 . S
H54 C28 0.977 . S
H55 C29 0.979 . S
H56 C29 0.980 . S
H57 C29 0.983 . S
H58 C2 0.947 . S
C59 C2 1.392 . S
C59 C3 1.419 . S
C59 H41 0.948 . S
C60 C61 1.391 . S
C60 C64 1.391 . S
C60 H102 0.948 . S
C61 C60 1.391 . S
C61 C62 1.391 . S
C62 C61 1.391 . S
C62 H118 0.947 . S
C62 C119 1.392 . S
C63 C64 1.391 . S
C63 C67 1.397 1_556 S
C63 C119 1.419 . S
C64 C60 1.391 . S
C64 C63 1.391 . S
C64 C65 1.399 . S
C65 C64 1.399 . S
C65 C68 1.396 . S
C65 C77 1.453 . S
C65 C78 1.684 . S
H66 C90 0.948 . S
C67 C63 1.397 1_554 S
C67 C68 1.394 1_554 S
C67 C86 1.723 . S
C68 C65 1.396 . S
C68 C67 1.394 1_556 S
C68 C98 1.723 1_556 S
H69 C92 0.947 . S
H70 C93 0.948 . S
H71 C99 0.982 . S
H72 C100 0.979 . S
H73 C100 0.980 . S
H74 C100 0.983 . S
H75 C99 0.979 . S
H76 C99 0.977 . S
C77 C65 1.453 . S
C77 H106 0.982 . S
C77 H107 0.979 . S
C77 H108 0.977 . S
C78 C65 1.684 . S
C78 H103 0.979 . S
C78 H104 0.980 . S
C78 H105 0.983 . S
C79 C80 1.391 . S
C79 C84 1.391 . S
C79 H109 0.948 . S
C80 C79 1.391 . S
C80 C81 1.391 . S
C81 C80 1.391 . S
C81 C82 1.392 . S
C81 H110 0.947 . S
C82 C81 1.392 . S
C82 C83 1.419 . S
C82 H111 0.948 . S
C83 C82 1.419 . S
C83 C84 1.391 . S
C83 C87 1.397 . S
C84 C79 1.391 . S
C84 C83 1.391 . S
C84 C85 1.399 . S
C85 C84 1.399 . S
C85 C86 1.396 . S
C85 C88 1.453 . S
C85 C89 1.684 . S
C86 C67 1.723 . S
C86 C85 1.396 . S
C86 C87 1.394 . S
C87 C83 1.397 . S
C87 C86 1.394 . S
C87 C97 1.723 . S
C88 C85 1.453 . S
C88 H112 0.982 . S
C88 H113 0.979 . S
C88 H114 0.977 . S
C89 C85 1.684 . S
C89 H115 0.979 . S
C89 H116 0.980 . S
C89 H117 0.983 . S
C90 H66 0.948 . S
C90 C91 1.391 1_554 S
C90 C95 1.391 . S
C91 C90 1.391 1_556 S
C91 C92 1.391 . S
C92 H69 0.947 . S
C92 C91 1.391 . S
C92 C93 1.392 . S
C93 H70 0.948 . S
C93 C92 1.392 . S
C93 C94 1.419 1_556 S
C94 C93 1.419 1_554 S
C94 C95 1.391 . S
C94 C98 1.397 . S
C95 C90 1.391 . S
C95 C94 1.391 . S
C95 C96 1.399 . S
C96 C95 1.399 . S
C96 C97 1.396 . S
C96 C99 1.453 . S
C96 C100 1.684 . S
C97 C87 1.723 . S
C97 C96 1.396 . S
C97 C98 1.394 . S
C98 C68 1.723 1_554 S
C98 C94 1.397 . S
C98 C97 1.394 . S
C99 H71 0.982 . S
C99 H75 0.979 . S
C99 H76 0.977 . S
C99 C96 1.453 . S
C100 H72 0.979 . S
C100 H73 0.980 . S
C100 H74 0.983 . S
C100 C96 1.684 . S
H101 C119 0.948 1_554 S
H102 C60 0.948 . S
H103 C78 0.979 . S
H104 C78 0.980 . S
H105 C78 0.983 . S
H106 C77 0.982 . S
H107 C77 0.979 . S
H108 C77 0.977 . S
H109 C79 0.948 . S
H110 C81 0.947 . S
H111 C82 0.948 . S
H112 C88 0.982 . S
H113 C88 0.979 . S
H114 C88 0.977 . S
H115 C89 0.979 . S
H116 C89 0.980 . S
H117 C89 0.983 . S
H118 C62 0.947 . S
C119 C62 1.392 . S
C119 C63 1.419 . S
C119 H101 0.948 1_556 S
C120 C121 1.391 1_554 S
C120 C124 1.391 . S
C120 H162 0.948 . S
C121 C120 1.391 1_556 S
C121 C122 1.391 . S
C122 C121 1.391 . S
C122 H178 0.947 . S
C122 C179 1.392 . S
C123 C124 1.391 1_556 S
C123 C127 1.396 1_566 S
C123 C179 1.419 . S
C124 C120 1.391 . S
C124 C123 1.391 1_554 S
C124 C125 1.399 . S
C125 C124 1.399 . S
C125 C128 1.396 1_565 S
C125 C137 1.453 1_565 S
C125 C138 1.684 . S
H126 C150 0.948 . S
C127 C123 1.396 1_544 S
C127 C128 1.395 . S
C127 C146 1.723 1_554 S
C128 C125 1.396 1_545 S
C128 C127 1.395 . S
C128 C158 1.723 . S
H129 C152 0.947 . S
H130 C153 0.948 . S
H131 C159 0.982 . S
H132 C160 0.979 . S
H133 C160 0.980 . S
H134 C160 0.983 . S
H135 C159 0.979 . S
H136 C159 0.977 . S
C137 C125 1.453 1_545 S
C137 H166 0.982 . S
C137 H167 0.979 . S
C137 H168 0.977 . S
C138 C125 1.684 . S
C138 H163 0.979 . S
C138 H164 0.980 . S
C138 H165 0.983 . S
C139 C140 1.391 . S
C139 C144 1.391 . S
C139 H169 0.948 . S
C140 C139 1.391 . S
C140 C141 1.391 . S
C141 C140 1.391 . S
C141 C142 1.392 . S
C141 H170 0.947 . S
C142 C141 1.392 . S
C142 C143 1.419 . S
C142 H171 0.948 1_556 S
C143 C142 1.419 . S
C143 C144 1.391 . S
C143 C147 1.390 1_566 S
C144 C139 1.391 . S
C144 C143 1.391 . S
C144 C145 1.399 . S
C145 C144 1.399 . S
C145 C146 1.396 1_565 S
C145 C148 1.453 1_565 S
C145 C149 1.684 . S
C146 C127 1.723 1_556 S
C146 C145 1.396 1_545 S
C146 C147 1.388 1_556 S
C147 C143 1.390 1_544 S
C147 C146 1.388 1_554 S
C147 C157 1.733 . S
C148 C145 1.453 1_545 S
C148 H172 0.982 . S
C148 H173 0.979 . S
C148 H174 0.977 . S
C149 C145 1.684 . S
C149 H175 0.979 . S
C149 H176 0.980 . S
C149 H177 0.983 . S
C150 H126 0.948 . S
C150 C151 1.391 . S
C150 C155 1.391 . S
C151 C150 1.391 . S
C151 C152 1.391 . S
C152 H129 0.947 . S
C152 C151 1.391 . S
C152 C153 1.392 . S
C153 H130 0.948 . S
C153 C152 1.392 . S
C153 C154 1.419 . S
C154 C153 1.419 . S
C154 C155 1.391 . S
C154 C158 1.397 1_565 S
C155 C150 1.391 . S
C155 C154 1.391 . S
C155 C156 1.399 . S
C156 C155 1.399 . S
C156 C157 1.396 1_565 S
C156 C159 1.453 1_565 S
C156 C160 1.684 . S
C157 C147 1.733 . S
C157 C156 1.396 1_545 S
C157 C158 1.394 . S
C158 C128 1.723 . S
C158 C154 1.397 1_545 S
C158 C157 1.394 . S
C159 H131 0.982 . S
C159 H135 0.979 . S
C159 H136 0.977 . S
C159 C156 1.453 1_545 S
C160 H132 0.979 . S
C160 H133 0.980 . S
C160 H134 0.983 . S
C160 C156 1.684 . S
H161 C179 0.948 . S
H162 C120 0.948 . S
H163 C138 0.979 . S
H164 C138 0.980 . S
H165 C138 0.983 . S
H166 C137 0.982 . S
H167 C137 0.979 . S
H168 C137 0.977 . S
H169 C139 0.948 . S
H170 C141 0.947 . S
H171 C142 0.948 1_554 S
H172 C148 0.982 . S
H173 C148 0.979 . S
H174 C148 0.977 . S
H175 C149 0.979 . S
H176 C149 0.980 . S
H177 C149 0.983 . S
H178 C122 0.947 . S
C179 C122 1.392 . S
C179 C123 1.419 . S
C179 H161 0.948 . S
C180 C181 1.391 . S
C180 C184 1.391 . S
C180 H222 0.948 . S
C181 C180 1.391 . S
C181 C182 1.391 . S
C182 C181 1.391 . S
C182 H238 0.947 . S
C182 C239 1.392 . S
C183 C184 1.391 . S
C183 C187 1.397 . S
C183 C239 1.419 . S
C184 C180 1.391 . S
C184 C183 1.391 . S
C184 C185 1.399 . S
C185 C184 1.399 . S
C185 C188 1.396 . S
C185 C197 1.453 . S
C185 C198 1.684 . S
H186 C210 0.948 . S
C187 C183 1.397 . S
C187 C188 1.394 . S
C187 C206 1.723 . S
C188 C185 1.396 . S
C188 C187 1.394 . S
C188 C218 1.723 . S
H189 C212 0.947 . S
H190 C213 0.948 . S
H191 C219 0.982 . S
H192 C220 0.979 . S
H193 C220 0.980 . S
H194 C220 0.983 . S
H195 C219 0.979 . S
H196 C219 0.977 . S
C197 C185 1.453 . S
C197 H226 0.982 . S
C197 H227 0.979 . S
C197 H228 0.977 . S
C198 C185 1.684 . S
C198 H223 0.979 . S
C198 H224 0.980 . S
C198 H225 0.983 . S
C199 C200 1.391 . S
C199 C204 1.391 1_556 S
C199 H229 0.948 . S
C200 C199 1.391 . S
C200 C201 1.391 . S
C201 C200 1.391 . S
C201 C202 1.392 . S
C201 H230 0.947 . S
C202 C201 1.392 . S
C202 C203 1.419 . S
C202 H231 0.948 . S
C203 C202 1.419 . S
C203 C204 1.391 1_556 S
C203 C207 1.397 1_556 S
C204 C199 1.391 1_554 S
C204 C203 1.391 1_554 S
C204 C205 1.399 . S
C205 C204 1.399 . S
C205 C206 1.396 . S
C205 C208 1.453 . S
C205 C209 1.684 . S
C206 C187 1.723 . S
C206 C205 1.396 . S
C206 C207 1.394 . S
C207 C203 1.397 1_554 S
C207 C206 1.394 . S
C207 C217 1.723 . S
C208 C205 1.453 . S
C208 H232 0.982 . S
C208 H233 0.979 . S
C208 H234 0.977 . S
C209 C205 1.684 . S
C209 H235 0.979 . S
C209 H236 0.980 . S
C209 H237 0.983 . S
C210 H186 0.948 . S
C210 C211 1.391 1_556 S
C210 C215 1.391 1_556 S
C211 C210 1.391 1_554 S
C211 C212 1.391 . S
C212 H189 0.947 . S
C212 C211 1.391 . S
C212 C213 1.392 . S
C213 H190 0.948 . S
C213 C212 1.392 . S
C213 C214 1.419 . S
C214 C213 1.419 . S
C214 C215 1.391 . S
C214 C218 1.397 . S
C215 C210 1.391 1_554 S
C215 C214 1.391 . S
C215 C216 1.399 1_554 S
C216 C215 1.399 1_556 S
C216 C217 1.396 1_556 S
C216 C219 1.453 . S
C216 C220 1.684 . S
C217 C207 1.723 . S
C217 C216 1.396 1_554 S
C217 C218 1.394 . S
C218 C188 1.723 . S
C218 C214 1.397 . S
C218 C217 1.394 . S
C219 H191 0.982 . S
C219 H195 0.979 . S
C219 H196 0.977 . S
C219 C216 1.453 . S
C220 H192 0.979 . S
C220 H193 0.980 . S
C220 H194 0.983 . S
C220 C216 1.684 . S
H221 C239 0.948 . S
H222 C180 0.948 . S
H223 C198 0.979 . S
H224 C198 0.980 . S
H225 C198 0.983 . S
H226 C197 0.982 . S
H227 C197 0.979 . S
H228 C197 0.977 . S
H229 C199 0.948 . S
H230 C201 0.947 . S
H231 C202 0.948 . S
H232 C208 0.982 . S
H233 C208 0.979 . S
H234 C208 0.977 . S
H235 C209 0.979 . S
H236 C209 0.980 . S
H237 C209 0.983 . S
H238 C182 0.947 . S
C239 C182 1.392 . S
C239 C183 1.419 . S
C239 H221 0.948 . S
C240 C241 1.391 . S
C240 C244 1.391 . S
C240 H282 0.948 . S
C241 C240 1.391 . S
C241 C242 1.391 . S
C242 C241 1.391 . S
C242 H298 0.947 . S
C242 C299 1.392 . S
C243 C244 1.391 . S
C243 C247 1.397 . S
C243 C299 1.419 . S
C244 C240 1.391 . S
C244 C243 1.391 . S
C244 C245 1.399 . S
C245 C244 1.399 . S
C245 C248 1.396 . S
C245 C257 1.453 . S
C245 C258 1.684 . S
H246 C270 0.948 . S
C247 C243 1.397 . S
C247 C248 1.394 . S
C247 C266 1.723 . S
C248 C245 1.396 . S
C248 C247 1.394 . S
C248 C278 1.723 . S
H249 C272 0.947 . S
H250 C273 0.948 . S
H251 C279 0.982 . S
H252 C280 0.979 . S
H253 C280 0.980 . S
H254 C280 0.983 . S
H255 C279 0.979 . S
H256 C279 0.977 . S
C257 C245 1.453 . S
C257 H286 0.982 . S
C257 H287 0.979 . S
C257 H288 0.977 . S
C258 C245 1.684 . S
C258 H283 0.979 . S
C258 H284 0.980 . S
C258 H285 0.983 . S
C259 C260 1.391 . S
C259 C264 1.391 . S
C259 H289 0.948 . S
C260 C259 1.391 . S
C260 C261 1.391 . S
C261 C260 1.391 . S
C261 C262 1.392 . S
C261 H290 0.947 . S
C262 C261 1.392 . S
C262 C263 1.419 . S
C262 H291 0.948 . S
C263 C262 1.419 . S
C263 C264 1.391 . S
C263 C267 1.397 . S
C264 C259 1.391 . S
C264 C263 1.391 . S
C264 C265 1.399 . S
C265 C264 1.399 . S
C265 C266 1.396 . S
C265 C268 1.453 . S
C265 C269 1.684 . S
C266 C247 1.723 . S
C266 C265 1.396 . S
C266 C267 1.394 . S
C267 C263 1.397 . S
C267 C266 1.394 . S
C267 C277 1.723 . S
C268 C265 1.453 . S
C268 H292 0.982 . S
C268 H293 0.979 . S
C268 H294 0.977 . S
C269 C265 1.684 . S
C269 H295 0.979 . S
C269 H296 0.980 . S
C269 H297 0.983 . S
C270 H246 0.948 . S
C270 C271 1.391 1_554 S
C270 C275 1.391 . S
C271 C270 1.391 1_556 S
C271 C272 1.391 . S
C272 H249 0.947 . S
C272 C271 1.391 . S
C272 C273 1.392 1_556 S
C273 H250 0.948 . S
C273 C272 1.392 1_554 S
C273 C274 1.419 . S
C274 C273 1.419 . S
C274 C275 1.391 . S
C274 C278 1.397 . S
C275 C270 1.391 . S
C275 C274 1.391 . S
C275 C276 1.399 . S
C276 C275 1.399 . S
C276 C277 1.396 . S
C276 C279 1.453 . S
C276 C280 1.684 . S
C277 C267 1.723 . S
C277 C276 1.396 . S
C277 C278 1.394 . S
C278 C248 1.723 . S
C278 C274 1.397 . S
C278 C277 1.394 . S
C279 H251 0.982 . S
C279 H255 0.979 . S
C279 H256 0.977 . S
C279 C276 1.453 . S
C280 H252 0.979 . S
C280 H253 0.980 . S
C280 H254 0.983 . S
C280 C276 1.684 . S
H281 C299 0.948 . S
H282 C240 0.948 . S
H283 C258 0.979 . S
H284 C258 0.980 . S
H285 C258 0.983 . S
H286 C257 0.982 . S
H287 C257 0.979 . S
H288 C257 0.977 . S
H289 C259 0.948 . S
H290 C261 0.947 . S
H291 C262 0.948 . S
H292 C268 0.982 . S
H293 C268 0.979 . S
H294 C268 0.977 . S
H295 C269 0.979 . S
H296 C269 0.980 . S
H297 C269 0.983 . S
H298 C242 0.947 . S
C299 C242 1.392 . S
C299 C243 1.419 . S
C299 H281 0.948 . S
C300 C301 1.391 . S
C300 C304 1.391 . S
C300 H342 0.948 . S
C301 C300 1.391 . S
C301 C302 1.391 . S
C302 C301 1.391 . S
C302 H358 0.947 . S
C302 C359 1.392 . S
C303 C304 1.391 . S
C303 C307 1.397 . S
C303 C359 1.419 . S
C304 C300 1.391 . S
C304 C303 1.391 . S
C304 C305 1.399 . S
C305 C304 1.399 . S
C305 C308 1.396 . S
C305 C317 1.453 . S
C305 C318 1.684 . S
H306 C330 0.948 . S
C307 C303 1.397 . S
C307 C308 1.394 . S
C307 C326 1.723 . S
C308 C305 1.396 . S
C308 C307 1.394 . S
C308 C338 1.723 . S
H309 C332 0.947 . S
H310 C333 0.948 . S
H311 C339 0.982 . S
H312 C340 0.979 . S
H313 C340 0.980 . S
H314 C340 0.983 . S
H315 C339 0.979 . S
H316 C339 0.977 . S
C317 C305 1.453 . S
C317 H346 0.982 . S
C317 H347 0.979 . S
C317 H348 0.977 . S
C318 C305 1.684 . S
C318 H343 0.979 . S
C318 H344 0.980 . S
C318 H345 0.983 . S
C319 C320 1.391 . S
C319 C324 1.391 . S
C319 H349 0.948 . S
C320 C319 1.391 . S
C320 C321 1.391 . S
C321 C320 1.391 . S
C321 C322 1.392 . S
C321 H350 0.947 . S
C322 C321 1.392 . S
C322 C323 1.419 . S
C322 H351 0.948 . S
C323 C322 1.419 . S
C323 C324 1.391 . S
C323 C327 1.397 . S
C324 C319 1.391 . S
C324 C323 1.391 . S
C324 C325 1.399 . S
C325 C324 1.399 . S
C325 C326 1.396 . S
C325 C328 1.453 . S
C325 C329 1.684 . S
C326 C307 1.723 . S
C326 C325 1.396 . S
C326 C327 1.394 . S
C327 C323 1.397 . S
C327 C326 1.394 . S
C327 C337 1.723 . S
C328 C325 1.453 . S
C328 H352 0.982 . S
C328 H353 0.979 . S
C328 H354 0.977 . S
C329 C325 1.684 . S
C329 H355 0.979 . S
C329 H356 0.980 . S
C329 H357 0.983 . S
C330 H306 0.948 . S
C330 C331 1.391 . S
C330 C335 1.391 . S
C331 C330 1.391 . S
C331 C332 1.391 . S
C332 H309 0.947 . S
C332 C331 1.391 . S
C332 C333 1.392 . S
C333 H310 0.948 . S
C333 C332 1.392 . S
C333 C334 1.419 . S
C334 C333 1.419 . S
C334 C335 1.391 . S
C334 C338 1.397 . S
C335 C330 1.391 . S
C335 C334 1.391 . S
C335 C336 1.399 . S
C336 C335 1.399 . S
C336 C337 1.396 . S
C336 C339 1.453 . S
C336 C340 1.684 . S
C337 C327 1.723 . S
C337 C336 1.396 . S
C337 C338 1.394 . S
C338 C308 1.723 . S
C338 C334 1.397 . S
C338 C337 1.394 . S
C339 H311 0.982 . S
C339 H315 0.979 . S
C339 H316 0.977 . S
C339 C336 1.453 . S
C340 H312 0.979 . S
C340 H313 0.980 . S
C340 H314 0.983 . S
C340 C336 1.684 . S
H341 C359 0.948 . S
H342 C300 0.948 . S
H343 C318 0.979 . S
H344 C318 0.980 . S
H345 C318 0.983 . S
H346 C317 0.982 . S
H347 C317 0.979 . S
H348 C317 0.977 . S
H349 C319 0.948 . S
H350 C321 0.947 . S
H351 C322 0.948 . S
H352 C328 0.982 . S
H353 C328 0.979 . S
H354 C328 0.977 . S
H355 C329 0.979 . S
H356 C329 0.980 . S
H357 C329 0.983 . S
H358 C302 0.947 . S
C359 C302 1.392 . S
C359 C303 1.419 . S
C359 H341 0.948 . S
C360 C361 1.391 . S
C360 C364 1.391 . S
C360 H402 0.948 . S
C361 C360 1.391 . S
C361 C362 1.391 . S
C362 C361 1.391 . S
C362 H418 0.947 . S
C362 C419 1.392 . S
C363 C364 1.391 . S
C363 C367 1.397 1_545 S
C363 C419 1.419 . S
C364 C360 1.391 . S
C364 C363 1.391 . S
C364 C365 1.399 . S
C365 C364 1.399 . S
C365 C368 1.396 1_545 S
C365 C377 1.453 1_545 S
C365 C378 1.684 . S
H366 C390 0.948 . S
C367 C363 1.397 1_565 S
C367 C368 1.394 . S
C367 C386 1.723 . S
C368 C365 1.396 1_565 S
C368 C367 1.394 . S
C368 C398 1.723 . S
H369 C392 0.947 . S
H370 C393 0.948 . S
H371 C399 0.982 . S
H372 C400 0.979 . S
H373 C400 0.980 . S
H374 C400 0.983 . S
H375 C399 0.979 . S
H376 C399 0.977 . S
C377 C365 1.453 1_565 S
C377 H406 0.982 . S
C377 H407 0.979 . S
C377 H408 0.977 . S
C378 C365 1.684 . S
C378 H403 0.979 . S
C378 H404 0.980 . S
C378 H405 0.983 . S
C379 C380 1.391 . S
C379 C384 1.391 . S
C379 H409 0.948 . S
C380 C379 1.391 . S
C380 C381 1.391 . S
C381 C380 1.391 . S
C381 C382 1.392 . S
C381 H410 0.947 . S
C382 C381 1.392 . S
C382 C383 1.419 . S
C382 H411 0.948 . S
C383 C382 1.419 . S
C383 C384 1.391 . S
C383 C387 1.396 1_545 S
C384 C379 1.391 . S
C384 C383 1.391 . S
C384 C385 1.399 . S
C385 C384 1.399 . S
C385 C386 1.396 1_545 S
C385 C388 1.453 1_545 S
C385 C389 1.684 . S
C386 C367 1.723 . S
C386 C385 1.396 1_565 S
C386 C387 1.395 . S
C387 C383 1.396 1_565 S
C387 C386 1.395 . S
C387 C397 1.723 . S
C388 C385 1.453 1_565 S
C388 H412 0.982 . S
C388 H413 0.979 . S
C388 H414 0.977 . S
C389 C385 1.684 . S
C389 H415 0.979 . S
C389 H416 0.980 . S
C389 H417 0.983 . S
C390 H366 0.948 . S
C390 C391 1.391 . S
C390 C395 1.391 . S
C391 C390 1.391 . S
C391 C392 1.391 . S
C392 H369 0.947 . S
C392 C391 1.391 . S
C392 C393 1.392 . S
C393 H370 0.948 . S
C393 C392 1.392 . S
C393 C394 1.419 . S
C394 C393 1.419 . S
C394 C395 1.391 . S
C394 C398 1.397 1_545 S
C395 C390 1.391 . S
C395 C394 1.391 . S
C395 C396 1.399 . S
C396 C395 1.399 . S
C396 C397 1.396 1_545 S
C396 C399 1.453 1_545 S
C396 C400 1.684 . S
C397 C387 1.723 . S
C397 C396 1.396 1_565 S
C397 C398 1.394 . S
C398 C368 1.723 . S
C398 C394 1.397 1_565 S
C398 C397 1.394 . S
C399 H371 0.982 . S
C399 H375 0.979 . S
C399 H376 0.977 . S
C399 C396 1.453 1_565 S
C400 H372 0.979 . S
C400 H373 0.980 . S
C400 H374 0.983 . S
C400 C396 1.684 . S
H401 C419 0.948 . S
H402 C360 0.948 . S
H403 C378 0.979 . S
H404 C378 0.980 . S
H405 C378 0.983 . S
H406 C377 0.982 . S
H407 C377 0.979 . S
H408 C377 0.977 . S
H409 C379 0.948 . S
H410 C381 0.947 . S
H411 C382 0.948 . S
H412 C388 0.982 . S
H413 C388 0.979 . S
H414 C388 0.977 . S
H415 C389 0.979 . S
H416 C389 0.980 . S
H417 C389 0.983 . S
H418 C362 0.947 . S
C419 C362 1.392 . S
C419 C363 1.419 . S
C419 H401 0.948 . S
C420 C421 1.391 . S
C420 C424 1.391 . S
C420 H462 0.948 . S
C421 C420 1.391 . S
C421 C422 1.391 . S
C422 C421 1.391 . S
C422 H478 0.947 . S
C422 C479 1.392 . S
C423 C424 1.391 . S
C423 C427 1.397 . S
C423 C479 1.419 . S
C424 C420 1.391 . S
C424 C423 1.391 . S
C424 C425 1.399 . S
C425 C424 1.399 . S
C425 C428 1.396 . S
C425 C437 1.453 . S
C425 C438 1.684 . S
H426 C450 0.948 . S
C427 C423 1.397 . S
C427 C428 1.394 . S
C427 C446 1.723 . S
C428 C425 1.396 . S
C428 C427 1.394 . S
C428 C458 1.723 . S
H429 C452 0.947 . S
H430 C453 0.948 . S
H431 C459 0.982 . S
H432 C460 0.979 . S
H433 C460 0.980 . S
H434 C460 0.983 . S
H435 C459 0.979 . S
H436 C459 0.977 . S
C437 C425 1.453 . S
C437 H466 0.982 . S
C437 H467 0.979 . S
C437 H468 0.977 . S
C438 C425 1.684 . S
C438 H463 0.979 . S
C438 H464 0.980 . S
C438 H465 0.983 . S
C439 C440 1.391 . S
C439 C444 1.391 . S
C439 H469 0.948 . S
C440 C439 1.391 . S
C440 C441 1.391 . S
C441 C440 1.391 . S
C441 C442 1.392 . S
C441 H470 0.947 . S
C442 C441 1.392 . S
C442 C443 1.419 . S
C442 H471 0.948 . S
C443 C442 1.419 . S
C443 C444 1.391 . S
C443 C447 1.397 . S
C444 C439 1.391 . S
C444 C443 1.391 . S
C444 C445 1.399 . S
C445 C444 1.399 . S
C445 C446 1.396 . S
C445 C448 1.453 . S
C445 C449 1.684 . S
C446 C427 1.723 . S
C446 C445 1.396 . S
C446 C447 1.394 . S
C447 C443 1.397 . S
C447 C446 1.394 . S
C447 C457 1.723 . S
C448 C445 1.453 . S
C448 H472 0.982 . S
C448 H473 0.979 . S
C448 H474 0.977 . S
C449 C445 1.684 . S
C449 H475 0.979 . S
C449 H476 0.980 . S
C449 H477 0.983 . S
C450 H426 0.948 . S
C450 C451 1.391 . S
C450 C455 1.391 . S
C451 C450 1.391 . S
C451 C452 1.391 . S
C452 H429 0.947 . S
C452 C451 1.391 . S
C452 C453 1.392 . S
C453 H430 0.948 . S
C453 C452 1.392 . S
C453 C454 1.419 . S
C454 C453 1.419 . S
C454 C455 1.391 . S
C454 C458 1.397 . S
C455 C450 1.391 . S
C455 C454 1.391 . S
C455 C456 1.399 . S
C456 C455 1.399 . S
C456 C457 1.396 . S
C456 C459 1.453 . S
C456 C460 1.684 . S
C457 C447 1.723 . S
C457 C456 1.396 . S
C457 C458 1.394 . S
C458 C428 1.723 . S
C458 C454 1.397 . S
C458 C457 1.394 . S
C459 H431 0.982 . S
C459 H435 0.979 . S
C459 H436 0.977 . S
C459 C456 1.453 . S
C460 H432 0.979 . S
C460 H433 0.980 . S
C460 H434 0.983 . S
C460 C456 1.684 . S
H461 C479 0.948 . S
H462 C420 0.948 . S
H463 C438 0.979 . S
H464 C438 0.980 . S
H465 C438 0.983 . S
H466 C437 0.982 . S
H467 C437 0.979 . S
H468 C437 0.977 . S
H469 C439 0.948 . S
H470 C441 0.947 . S
H471 C442 0.948 . S
H472 C448 0.982 . S
H473 C448 0.979 . S
H474 C448 0.977 . S
H475 C449 0.979 . S
H476 C449 0.980 . S
H477 C449 0.983 . S
H478 C422 0.947 . S
C479 C422 1.392 . S
C479 C423 1.419 . S
C479 H461 0.948 . S
Co480 N485 2.057 1_556 S
Co480 O497 2.021 1_545 S
Co480 O500 2.062 . S
Co480 O504 2.117 1_455 S
Co480 O505 2.020 1_545 S
C481 O501 1.259 . S
C481 O504 1.258 . S
Co482 N491 2.057 . S
Co482 O498 2.116 1_655 S
Co482 O499 2.019 1_665 S
Co482 O501 2.022 1_565 S
Co482 O506 2.062 . S
C483 N485 1.316 . S
C483 N486 1.347 . S
C483 H488 0.931 . S
C484 N485 1.375 . S
C484 C487 1.350 . S
C484 H489 0.930 1_455 S
N485 Co480 2.057 1_554 S
N485 C483 1.316 . S
N485 C484 1.375 . S
N486 C483 1.347 . S
N486 C487 1.373 . S
C487 C484 1.350 . S
C487 N486 1.373 . S
C487 H508 0.931 . S
H488 C483 0.931 . S
H489 C484 0.930 1_655 S
C490 O497 1.259 . S
C490 O498 1.258 . S
N491 Co482 2.057 . S
N491 C492 1.316 . S
N491 C493 1.375 1_655 S
C492 N491 1.316 . S
C492 N494 1.347 . S
C492 H503 0.931 . S
C493 N491 1.375 1_455 S
C493 C495 1.350 . S
C493 H502 0.930 . S
N494 C492 1.347 . S
N494 C495 1.373 1_655 S
C495 C493 1.350 . S
C495 N494 1.373 1_455 S
C495 H509 0.931 . S
C496 O499 1.256 . S
C496 O500 1.255 . S
O497 Co480 2.021 1_565 S
O497 C490 1.259 . S
O498 Co482 2.116 1_455 S
O498 C490 1.258 . S
O499 Co482 2.019 1_445 S
O499 C496 1.256 . S
O500 Co480 2.062 . S
O500 C496 1.255 . S
O501 C481 1.259 . S
O501 Co482 2.022 1_545 S
H502 C493 0.930 . S
H503 C492 0.931 . S
O504 Co480 2.117 1_655 S
O504 C481 1.258 . S
O505 Co480 2.020 1_565 S
O505 C507 1.256 1_455 S
O506 Co482 2.062 . S
O506 C507 1.255 . S
C507 O505 1.256 1_655 S
C507 O506 1.255 . S
H508 C487 0.931 . S
H509 C495 0.931 . S
Co510 N515 2.057 1_546 S
Co510 O527 2.021 . S
Co510 O530 2.062 1_545 S
Co510 O534 2.117 1_545 S
Co510 O535 2.020 . S
C511 O531 1.259 . S
C511 O534 1.258 . S
Co512 N521 2.057 1_565 S
Co512 O528 2.117 1_565 S
Co512 O529 2.020 . S
Co512 O531 2.021 . S
Co512 O536 2.062 1_565 S
C513 N515 1.316 1_545 S
C513 N516 1.347 . S
C513 H518 0.931 . S
C514 N515 1.375 . S
C514 C517 1.350 . S
C514 H519 0.930 . S
N515 Co510 2.057 1_564 S
N515 C513 1.316 1_565 S
N515 C514 1.375 . S
N516 C513 1.347 . S
N516 C517 1.373 1_545 S
C517 C514 1.350 . S
C517 N516 1.373 1_565 S
C517 H538 0.931 . S
H518 C513 0.931 . S
H519 C514 0.930 . S
C520 O527 1.259 . S
C520 O528 1.258 . S
N521 Co512 2.057 1_545 S
N521 C522 1.316 1_545 S
N521 C523 1.375 . S
C522 N521 1.316 1_565 S
C522 N524 1.347 . S
C522 H533 0.931 . S
C523 N521 1.375 . S
C523 C525 1.350 . S
C523 H532 0.930 . S
N524 C522 1.347 . S
N524 C525 1.373 1_565 S
C525 C523 1.350 . S
C525 N524 1.373 1_545 S
C525 H539 0.931 . S
C526 O529 1.256 . S
C526 O530 1.255 . S
O527 Co510 2.021 . S
O527 C520 1.259 . S
O528 Co512 2.117 1_545 S
O528 C520 1.258 . S
O529 Co512 2.020 . S
O529 C526 1.256 . S
O530 Co510 2.062 1_565 S
O530 C526 1.255 . S
O531 C511 1.259 . S
O531 Co512 2.021 . S
H532 C523 0.930 . S
H533 C522 0.931 . S
O534 Co510 2.117 1_565 S
O534 C511 1.258 . S
O535 Co510 2.020 . S
O535 C537 1.256 . S
O536 Co512 2.062 1_545 S
O536 C537 1.255 . S
C537 O535 1.256 . S
C537 O536 1.255 . S
H538 C517 0.931 . S
H539 C525 0.931 . S
Co540 N545 2.057 . S
Co540 O557 2.021 . S
Co540 O560 2.062 . S
Co540 O564 2.117 . S
Co540 O565 2.020 . S
C541 O561 1.259 . S
C541 O564 1.258 . S
Co542 N551 2.057 . S
Co542 O558 2.117 . S
Co542 O559 2.020 . S
Co542 O561 2.021 . S
Co542 O566 2.062 . S
C543 N545 1.316 . S
C543 N546 1.347 . S
C543 H548 0.931 . S
C544 N545 1.375 . S
C544 C547 1.350 1_556 S
C544 H549 0.930 1_556 S
N545 Co540 2.057 . S
N545 C543 1.316 . S
N545 C544 1.375 . S
N546 C543 1.347 . S
N546 C547 1.373 1_556 S
C547 C544 1.350 1_554 S
C547 N546 1.373 1_554 S
C547 H568 0.931 . S
H548 C543 0.931 . S
H549 C544 0.930 1_554 S
C550 O557 1.259 . S
C550 O558 1.258 . S
N551 Co542 2.057 . S
N551 C552 1.316 . S
N551 C553 1.375 . S
C552 N551 1.316 . S
C552 N554 1.347 . S
C552 H563 0.931 . S
C553 N551 1.375 . S
C553 C555 1.350 . S
C553 H562 0.930 . S
N554 C552 1.347 . S
N554 C555 1.373 . S
C555 C553 1.350 . S
C555 N554 1.373 . S
C555 H569 0.931 . S
C556 O559 1.256 . S
C556 O560 1.255 . S
O557 Co540 2.021 . S
O557 C550 1.259 . S
O558 Co542 2.117 . S
O558 C550 1.258 . S
O559 Co542 2.020 . S
O559 C556 1.256 . S
O560 Co540 2.062 . S
O560 C556 1.255 . S
O561 C541 1.259 . S
O561 Co542 2.021 . S
H562 C553 0.930 . S
H563 C552 0.931 . S
O564 Co540 2.117 . S
O564 C541 1.258 . S
O565 Co540 2.020 . S
O565 C567 1.256 . S
O566 Co542 2.062 . S
O566 C567 1.255 . S
C567 O565 1.256 . S
C567 O566 1.255 . S
H568 C547 0.931 . S
H569 C555 0.931 . S
Co570 N575 2.057 . S
Co570 O587 2.021 1_455 S
Co570 O590 2.062 1_455 S
Co570 O594 2.117 . S
Co570 O595 2.020 . S
C571 O591 1.259 . S
C571 O594 1.258 . S
Co572 N581 2.057 . S
Co572 O588 2.117 1_455 S
Co572 O589 2.020 1_455 S
Co572 O591 2.021 . S
Co572 O596 2.062 . S
C573 N575 1.316 1_655 S
C573 N576 1.347 . S
C573 H578 0.931 . S
C574 N575 1.375 . S
C574 C577 1.350 . S
C574 H579 0.930 . S
N575 Co570 2.057 . S
N575 C573 1.316 1_455 S
N575 C574 1.375 . S
N576 C573 1.347 . S
N576 C577 1.373 1_655 S
C577 C574 1.350 . S
C577 N576 1.373 1_455 S
C577 H598 0.931 . S
H578 C573 0.931 . S
H579 C574 0.930 . S
C580 O587 1.259 . S
C580 O588 1.258 . S
N581 Co572 2.057 . S
N581 C582 1.316 . S
N581 C583 1.375 . S
C582 N581 1.316 . S
C582 N584 1.347 . S
C582 H593 0.931 . S
C583 N581 1.375 . S
C583 C585 1.350 . S
C583 H592 0.930 1_455 S
N584 C582 1.347 . S
N584 C585 1.373 . S
C585 C583 1.350 . S
C585 N584 1.373 . S
C585 H599 0.931 . S
C586 O589 1.256 . S
C586 O590 1.255 . S
O587 Co570 2.021 1_655 S
O587 C580 1.259 . S
O588 Co572 2.117 1_655 S
O588 C580 1.258 . S
O589 Co572 2.020 1_655 S
O589 C586 1.256 . S
O590 Co570 2.062 1_655 S
O590 C586 1.255 . S
O591 C571 1.259 . S
O591 Co572 2.021 . S
H592 C583 0.930 1_655 S
H593 C582 0.931 . S
O594 Co570 2.117 . S
O594 C571 1.258 . S
O595 Co570 2.020 . S
O595 C597 1.256 . S
O596 Co572 2.062 . S
O596 C597 1.255 . S
C597 O595 1.256 . S
C597 O596 1.255 . S
H598 C577 0.931 . S
H599 C585 0.931 . S
C391 C490 2.346 1_545 S
C520 C451 3.029 . S
N554 C241 2.176 . S
N584 C331 2.890 . S
C481 C121 2.079 1_545 S
C211 C511 2.870 1_554 S
C31 N546 2.609 1_554 S
C91 N576 3.113 . S
C496 C301 3.664 . S
C526 C380 2.580 1_565 S
C567 C440 2.269 . S
C260 C597 0.389 . S
C61 C507 3.879 . S
C537 C140 2.158 1_545 S
C556 C200 2.050 . S
C20 C586 0.554 . S
C320 N486 3.223 . S
C361 N516 2.652 . S
C541 C421 2.782 1_556 S
C571 C271 2.794 . S
C80 N494 3.390 . S
N524 C151 3.095 . S
C550 C181 2.679 . S
C1 C580 2.427 . S
