# Generated by pormake.
# Topology zzz, (3,6)-cn, num edge types: 1
# Building blocks:
#     Node 0, Type 0, BuildingBlock: PAMTOO_clean_linker_0, # of connection points: 3
#     Node 1, Type 0, BuildingBlock: PAMTOO_clean_linker_0, # of connection points: 3
#     Node 2, Type 0, BuildingBlock: PAMTOO_clean_linker_0, # of connection points: 3
#     Node 3, Type 0, BuildingBlock: PAMTOO_clean_linker_0, # of connection points: 3
#     Node 4, Type 0, BuildingBlock: PAMTOO_clean_linker_0, # of connection points: 3
#     Node 5, Type 0, BuildingBlock: PAMTOO_clean_linker_0, # of connection points: 3
#     Node 6, Type 0, BuildingBlock: PAMTOO_clean_linker_0, # of connection points: 3
#     Node 7, Type 0, BuildingBlock: PAMTOO_clean_linker_0, # of connection points: 3
#     Node 8, Type 1, BuildingBlock: PAMTOO_clean_sbu_0, # of connection points: 6
#     Node 9, Type 1, BuildingBlock: PAMTOO_clean_sbu_0, # of connection points: 6
#     Node 10, Type 1, BuildingBlock: PAMTOO_clean_sbu_0, # of connection points: 6
#     Node 11, Type 1, BuildingBlock: PAMTOO_clean_sbu_0, # of connection points: 6
#     Edge 12, Type (0, 1), BuildingBlock: XUDNAN_clean_linker_2, # of connection points: 2
#     Edge 13, Type (0, 1), BuildingBlock: XUDNAN_clean_linker_2, # of connection points: 2
#     Edge 14, Type (0, 1), BuildingBlock: XUDNAN_clean_linker_2, # of connection points: 2
#     Edge 15, Type (0, 1), BuildingBlock: XUDNAN_clean_linker_2, # of connection points: 2
#     Edge 16, Type (0, 1), BuildingBlock: XUDNAN_clean_linker_2, # of connection points: 2
#     Edge 17, Type (0, 1), BuildingBlock: XUDNAN_clean_linker_2, # of connection points: 2
#     Edge 18, Type (0, 1), BuildingBlock: XUDNAN_clean_linker_2, # of connection points: 2
#     Edge 19, Type (0, 1), BuildingBlock: XUDNAN_clean_linker_2, # of connection points: 2
#     Edge 20, Type (0, 1), BuildingBlock: XUDNAN_clean_linker_2, # of connection points: 2
#     Edge 21, Type (0, 1), BuildingBlock: XUDNAN_clean_linker_2, # of connection points: 2
#     Edge 22, Type (0, 1), BuildingBlock: XUDNAN_clean_linker_2, # of connection points: 2
#     Edge 23, Type (0, 1), BuildingBlock: XUDNAN_clean_linker_2, # of connection points: 2
#     Edge 24, Type (0, 1), BuildingBlock: XUDNAN_clean_linker_2, # of connection points: 2
#     Edge 25, Type (0, 1), BuildingBlock: XUDNAN_clean_linker_2, # of connection points: 2
#     Edge 26, Type (0, 1), BuildingBlock: XUDNAN_clean_linker_2, # of connection points: 2
#     Edge 27, Type (0, 1), BuildingBlock: XUDNAN_clean_linker_2, # of connection points: 2
#     Edge 28, Type (0, 1), BuildingBlock: XUDNAN_clean_linker_2, # of connection points: 2
#     Edge 29, Type (0, 1), BuildingBlock: XUDNAN_clean_linker_2, # of connection points: 2
#     Edge 30, Type (0, 1), BuildingBlock: XUDNAN_clean_linker_2, # of connection points: 2
#     Edge 31, Type (0, 1), BuildingBlock: XUDNAN_clean_linker_2, # of connection points: 2
#     Edge 32, Type (0, 1), BuildingBlock: XUDNAN_clean_linker_2, # of connection points: 2
#     Edge 33, Type (0, 1), BuildingBlock: XUDNAN_clean_linker_2, # of connection points: 2
#     Edge 34, Type (0, 1), BuildingBlock: XUDNAN_clean_linker_2, # of connection points: 2
#     Edge 35, Type (0, 1), BuildingBlock: XUDNAN_clean_linker_2, # of connection points: 2
# Relax obj value: 0.217
# Max RMSD: 0.237
# Mean RMSD: 0.124
data_MOF--net-zzz--node1-PAMTOO_clean_sbu_0--node2-PAMTOO_clean_linker_0--edge1-XUDNAN_clean_linker_2
_symmetry_space_group_name_H-M    P1
_symmetry_Int_Tables_number       1
_symmetry_cell_setting            triclinic
loop_
_symmetry_equiv_pos_as_xyz
'x, y, z'
_cell_length_a     56.688603
_cell_length_b     48.876781
_cell_length_c     15.598924
_cell_angle_alpha  91.393911
_cell_angle_beta   79.214708
_cell_angle_gamma 85.926925
loop_
_atom_site_label
_atom_site_type_symbol
_atom_site_fract_x
_atom_site_fract_y
_atom_site_fract_z
_atom_type_partial_charge
H0 H 0.84927 0.47415 0.47746 0.0
H1 H 0.77933 0.48281 0.40699 0.0
H2 H 0.79497 0.5342 0.6136 0.0
H3 H 0.77063 0.54635 0.41233 0.0
C4 C 0.75502 0.54188 0.46366 0.0
O5 O 0.76197 0.52229 0.51916 0.0
H6 H 0.74884 0.56126 0.50249 0.0
C7 C 0.83117 0.484 0.48757 0.0
C8 C 0.82428 0.50485 0.55293 0.0
C9 C 0.81517 0.47586 0.43459 0.0
C10 C 0.79191 0.48888 0.44708 0.0
C11 C 0.78468 0.51016 0.50994 0.0
C12 C 0.80075 0.518 0.56391 0.0
H13 H 0.06606 0.80377 0.42353 0.0
H14 H 0.05563 0.7309 0.28055 0.0
H15 H 1.00613 0.75595 0.51778 0.0
H16 H 1.0146 0.69114 0.48386 0.0
C17 C 0.02326 0.69258 0.41417 0.0
O18 O 1.01721 0.71853 0.3875 0.0
H19 H 0.0431 0.68919 0.40955 0.0
C20 C 0.05644 0.78552 0.41959 0.0
C21 C 0.03552 0.78216 0.48156 0.0
C22 C 0.06383 0.76721 0.34727 0.0
C23 C 0.05042 0.74477 0.33732 0.0
C24 C 0.02997 0.74032 0.39953 0.0
C25 C 0.02239 0.7591 0.47136 0.0
H26 H 0.70419 0.02042 0.31052 0.0
H27 H 0.77868 0.02033 0.19066 0.0
H28 H 0.75893 1.00242 0.46327 0.0
H29 H 0.81246 0.03339 0.39616 0.0
C30 C 0.81088 0.02801 0.32797 0.0
O31 O 0.79566 1.00691 0.32907 0.0
H32 H 0.8032 0.04681 0.30097 0.0
C33 C 0.72301 0.01715 0.31572 0.0
C34 C 0.72897 0.0101 0.39579 0.0
C35 C 0.74068 0.021 0.24242 0.0
C36 C 0.76499 0.01767 0.2478 0.0
C37 C 0.77177 0.0111 0.32719 0.0
C38 C 0.75371 1.00767 0.40204 0.0
H39 H 0.50282 0.69153 0.2877 0.0
H40 H 0.50997 0.764 0.13957 0.0
H41 H 0.5332 0.76134 0.38737 0.0
H42 H 0.50852 0.82221 0.34278 0.0
C43 C 0.50994 0.81542 0.27337 0.0
O44 O 0.52664 0.79289 0.25478 0.0
H45 H 0.49176 0.80968 0.26559 0.0
C46 C 0.50826 0.71235 0.2821 0.0
C47 C 0.51943 0.72379 0.34587 0.0
C48 C 0.50563 0.72616 0.20683 0.0
C49 C 0.51165 0.75332 0.19847 0.0
C50 C 0.52059 0.76656 0.26527 0.0
C51 C 0.52487 0.75164 0.33872 0.0
H52 H 0.19819 0.47267 0.13975 0.0
H53 H 0.27019 0.4742 0.18671 0.0
H54 H 0.2553 0.49378 0.93384 0.0
H55 H 0.28505 0.52649 0.09473 0.0
C56 C 0.29916 0.51175 0.05579 0.0
O57 O 0.28923 0.48826 0.03152 0.0
H58 H 0.30678 0.52231 0.99579 0.0
C59 C 0.21714 0.47451 0.11423 0.0
C60 C 0.22444 0.48238 0.02782 0.0
C61 C 0.23342 0.47172 0.17154 0.0
C62 C 0.25766 0.47579 0.14206 0.0
C63 C 0.26561 0.48377 0.05682 0.0
C64 C 0.24902 0.48733 0.99957 0.0
H65 H 0.05665 0.22339 0.24343 0.0
H66 H 0.05914 0.30888 0.30217 0.0
H67 H 0.03061 0.28346 0.07821 0.0
H68 H 1.0057 0.32847 0.25397 0.0
C69 C 1.01904 0.34172 0.21737 0.0
O70 O 0.0392 0.32599 0.17351 0.0
H71 H 1.01005 0.35224 0.16847 0.0
C72 C 0.05403 0.24438 0.22422 0.0
C73 C 0.04384 0.25005 0.15063 0.0
C74 C 0.06007 0.26526 0.27727 0.0
C75 C 0.05503 0.29266 0.25993 0.0
C76 C 0.04405 0.2992 0.18898 0.0
C77 C 0.0386 0.278 0.13386 0.0
H78 H 0.3291 0.98261 0.26945 0.0
H79 H 0.25697 0.98627 0.41819 0.0
H80 H 0.273 0.03345 0.18757 0.0
H81 H 0.22323 0.98668 0.29734 0.0
C82 C 0.21883 1.00918 0.30911 0.0
O83 O 0.23897 0.02216 0.32246 0.0
H84 H 0.21311 0.01744 0.24984 0.0
C85 C 0.31028 0.98995 0.278 0.0
C86 C 0.30335 1.00882 0.21946 0.0
C87 C 0.29386 0.98141 0.34932 0.0
C88 C 0.26976 0.99204 0.36216 0.0
C89 C 0.26198 0.01044 0.30359 0.0
C90 C 0.27878 0.01861 0.23125 0.0
H91 H 0.51846 0.3556 0.29697 0.0
H92 H 0.53685 0.2811 0.41942 0.0
H93 H 0.493 0.27967 0.22251 0.0
H94 H 0.47668 0.24105 0.37656 0.0
C95 C 0.49364 0.24115 0.40252 0.0
O96 O 0.51156 0.25037 0.33898 0.0
H97 H 0.49026 0.25545 0.46099 0.0
C98 C 0.51778 0.33371 0.30378 0.0
C99 C 0.50485 0.31952 0.25115 0.0
C100 C 0.53002 0.32038 0.36328 0.0
C101 C 0.52784 0.29208 0.37376 0.0
C102 C 0.51393 0.27752 0.32529 0.0
C103 C 0.50299 0.29111 0.26207 0.0
Dy104 Dy 1.00759 0.02449 0.76989 0.0
Dy105 Dy 0.03346 1.0028 0.9264 0.0
C106 C 0.06544 0.016 0.74426 0.0
O107 O 0.99955 0.9807 0.7826 0.0
O108 O 0.03403 0.96721 0.83014 0.0
O109 O 1.004 0.0214 0.63434 0.0
O110 O 0.98466 0.05468 0.71907 0.0
O111 O 0.99426 1.00222 0.98367 0.0
O112 O 0.97572 0.02351 0.88083 0.0
O113 O 0.0226 0.04717 0.96442 0.0
O114 O 1.02156 0.06118 0.82615 0.0
O115 O 0.03546 0.97475 0.02968 0.0
O116 O 0.06289 1.00331 0.99672 0.0
C117 C 1.01567 0.96126 0.79424 0.0
O118 O 0.04659 0.01266 0.70828 0.0
O119 O 0.06296 0.01824 0.8292 0.0
C120 C 1.0067 0.06659 0.58608 0.0
C121 C 0.03253 0.11275 0.53724 0.0
C122 C 0.04468 0.08781 0.55224 0.0
C123 C 0.03194 0.06498 0.57552 0.0
C124 C 0.99461 0.09078 0.56531 0.0
C125 C 1.00745 0.11359 0.54001 0.0
C126 C 0.99335 0.04614 0.63873 0.0
C127 C 0.97477 0.01229 0.95739 0.0
C128 C 0.02196 0.06677 0.90847 0.0
C129 C 0.07501 0.95903 0.03466 0.0
C130 C 0.10417 0.91005 0.03362 0.0
C131 C 0.09916 0.928 0.10787 0.0
C132 C 0.08459 0.95229 0.1084 0.0
C133 C 0.0815 0.94236 0.95812 0.0
C134 C 0.09596 0.91798 0.95763 0.0
C135 C 0.0565 0.9818 0.04024 0.0
H136 H 0.06388 0.08618 0.55122 0.0
H137 H 0.0418 0.04666 0.59133 0.0
H138 H 0.97515 0.09258 0.57369 0.0
H139 H 0.99755 0.13215 0.52576 0.0
H140 H 0.10487 0.9223 0.16792 0.0
H141 H 0.07975 0.96501 0.16786 0.0
H142 H 0.07434 0.94746 0.90031 0.0
H143 H 0.09956 0.90457 0.89958 0.0
Dy144 Dy 0.50876 0.99867 0.71713 0.0
Dy145 Dy 0.51724 0.0409 0.87004 0.0
C146 C 0.50886 0.0632 0.68898 0.0
O147 O 0.5494 0.99533 0.7001 0.0
O148 O 0.55285 0.03486 0.77807 0.0
O149 O 0.49962 0.99174 0.59056 0.0
O150 O 0.50507 0.95729 0.67059 0.0
O151 O 0.53098 0.99892 0.90242 0.0
O152 O 0.50508 0.97524 0.84063 0.0
O153 O 0.47881 0.03138 0.91354 0.0
O154 O 0.47185 0.01741 0.77992 0.0
O155 O 0.51758 0.05101 1.00557 0.0
O156 O 0.5288 0.08001 0.90636 0.0
C157 C 0.56263 0.01415 0.72469 0.0
O158 O 0.51709 0.03872 0.65489 0.0
O159 O 0.50191 0.06683 0.7739 0.0
C160 C 0.47184 0.95797 0.60006 0.0
C161 C 0.42458 0.94303 0.60234 0.0
C162 C 0.42866 0.96951 0.63024 0.0
C163 C 0.45196 0.97688 0.62888 0.0
C164 C 0.46799 0.9314 0.57242 0.0
C165 C 0.44448 0.92401 0.57288 0.0
C166 C 0.49621 0.96597 0.604 0.0
C167 C 0.51952 0.97675 0.89683 0.0
C168 C 0.46386 0.02505 0.86242 0.0
C169 C 0.55391 0.07088 1.00532 0.0
C170 C 0.60282 0.06818 0.01927 0.0
C171 C 0.59345 0.0466 0.97861 0.0
C172 C 0.56933 0.0478 0.9728 0.0
C173 C 0.5629 0.09272 0.04577 0.0
C174 C 0.58724 0.09129 0.05343 0.0
C175 C 0.52961 0.07251 0.98542 0.0
H176 H 0.41384 0.98491 0.65093 0.0
H177 H 0.45442 0.99756 0.64981 0.0
H178 H 0.48309 0.91644 0.55059 0.0
H179 H 0.44184 0.90351 0.55046 0.0
H180 H 0.60484 0.02883 0.94912 0.0
H181 H 0.5629 0.03092 0.93986 0.0
H182 H 0.55127 0.11088 0.07015 0.0
H183 H 0.59378 0.10816 0.08618 0.0
Dy184 Dy 0.53976 0.52029 0.85509 0.0
Dy185 Dy 0.49375 0.51651 0.7395 0.0
C186 C 0.50298 0.47346 0.88361 0.0
O187 O 0.55464 0.49002 0.74573 0.0
O188 O 0.52329 0.48704 0.66875 0.0
O189 O 0.55004 0.51795 0.98143 0.0
O190 O 0.57655 0.52827 0.86763 0.0
O191 O 0.52021 0.54372 0.66591 0.0
O192 O 0.53696 0.55898 0.78061 0.0
O193 O 0.48502 0.55326 0.83034 0.0
O194 O 0.50529 0.5382 0.93574 0.0
O195 O 0.46538 0.53659 0.68157 0.0
O196 O 0.46892 0.49231 0.68598 0.0
C197 C 0.54496 0.47945 0.68319 0.0
O198 O 0.52563 0.47895 0.87374 0.0
O199 O 0.48667 0.49009 0.8571 0.0
C200 C 0.59013 0.52571 0.00967 0.0
C201 C 0.62466 0.52517 0.12168 0.0
C202 C 0.60003 0.52297 0.15536 0.0
C203 C 0.58309 0.52317 0.10032 0.0
C204 C 0.61459 0.52875 0.97586 0.0
C205 C 0.63163 0.52852 0.03111 0.0
C206 C 0.57211 0.52382 0.95135 0.0
C207 C 0.531 0.56245 0.70349 0.0
C208 C 0.49065 0.55628 0.90744 0.0
C209 C 0.44651 0.51145 0.58101 0.0
C210 C 0.4195 0.50576 0.44527 0.0
C211 C 0.41863 0.53091 0.49221 0.0
C212 C 0.43188 0.53367 0.55908 0.0
C213 C 0.44791 0.48647 0.53279 0.0
C214 C 0.43469 0.48371 0.46569 0.0
C215 C 0.45695 0.51361 0.66179 0.0
H216 H 0.59374 0.52099 0.22471 0.0
H217 H 0.56441 0.52099 0.12901 0.0
H218 H 0.62068 0.5307 0.90637 0.0
H219 H 0.65038 0.53012 1.00235 0.0
H220 H 0.40752 0.54851 0.47783 0.0
H221 H 0.43006 0.55308 0.59565 0.0
H222 H 0.45864 0.46875 0.54862 0.0
H223 H 0.43573 0.46391 0.43195 0.0
Dy224 Dy 0.02426 0.54068 0.76146 0.0
Dy225 Dy 1.01419 0.48898 0.88805 0.0
C226 C 0.02789 0.47979 0.68299 0.0
O227 O 0.98702 0.53088 0.74899 0.0
O228 O 0.97707 0.50477 0.8695 0.0
O229 O 0.0244 0.55937 0.63722 0.0
O230 O 0.03656 0.5813 0.74046 0.0
O231 O 1.01847 0.52502 0.97374 0.0
O232 O 1.00648 0.55962 0.89176 0.0
O233 O 0.05467 0.48872 0.86106 0.0
O234 O 0.05902 0.5318 0.80795 0.0
O235 O 0.99899 0.4732 0.01232 0.0
O236 O 1.01934 0.4456 0.90943 0.0
C237 C 0.97115 0.51813 0.80307 0.0
O238 O 0.03939 0.50223 0.68216 0.0
O239 O 1.01267 0.47398 0.753 0.0
C240 C 0.06226 0.57751 0.60257 0.0
C241 C 0.10816 0.55131 0.54295 0.0
C242 C 0.10462 0.57081 0.61228 0.0
C243 C 0.08173 0.58395 0.64197 0.0
C244 C 0.06712 0.56188 0.52354 0.0
C245 C 0.08985 0.5485 0.49476 0.0
C246 C 0.03774 0.57851 0.65631 0.0
C247 C 1.01079 0.55069 0.96643 0.0
C248 C 0.06802 0.50922 0.83768 0.0
C249 C 0.98623 0.42898 1.00435 0.0
C250 C 0.94227 0.40452 0.04843 0.0
C251 C 0.95549 0.41126 0.11319 0.0
C252 C 0.97728 0.42319 0.09114 0.0
C253 C 0.97442 0.4201 0.9384 0.0
C254 C 0.95277 0.40759 0.96024 0.0
C255 C 1.0055 0.44773 0.98656 0.0
H256 H 0.11878 0.57381 0.64879 0.0
H257 H 0.07876 0.59648 0.70181 0.0
H258 H 0.05271 0.55713 0.49008 0.0
H259 H 0.09256 0.53425 0.43885 0.0
H260 H 0.94818 0.40975 0.18198 0.0
H261 H 0.9862 0.42988 0.14283 0.0
H262 H 0.98112 0.42428 0.87065 0.0
H263 H 0.94351 0.40206 0.90838 0.0
H264 H 0.16986 0.0099 0.31086 0.0
H265 H 0.2208 0.01636 0.48471 0.0
H266 H 0.18723 0.0199 0.6114 0.0
H267 H 0.12188 0.05748 0.43668 0.0
H268 H 0.09794 0.03757 0.41491 0.0
H269 H 0.1258 0.03689 0.33682 0.0
H270 H 0.13063 0.98392 0.34248 0.0
H271 H 0.10283 0.98444 0.42065 0.0
H272 H 0.13011 0.96826 0.44622 0.0
H273 H 0.14845 0.02165 0.71984 0.0
H274 H 0.10731 0.02091 0.80373 0.0
H275 H 0.0802 0.01273 0.56235 0.0
C276 C 0.17388 0.01254 0.37561 0.0
C277 C 0.19807 0.01357 0.38729 0.0
C278 C 0.20256 0.01613 0.47339 0.0
C279 C 0.18354 0.0181 0.54599 0.0
C280 C 0.15997 0.01721 0.5321 0.0
C281 C 0.15501 0.01452 0.44911 0.0
C282 C 0.12802 0.01325 0.45297 0.0
C283 C 0.11781 0.03775 0.40764 0.0
C284 C 0.12259 0.98584 0.41322 0.0
C285 C 0.11865 0.01534 0.55115 0.0
C286 C 0.13746 0.01777 0.59518 0.0
C287 C 0.1336 0.01982 0.68595 0.0
C288 C 0.11 0.01937 0.73315 0.0
C289 C 0.09021 0.01678 0.69027 0.0
C290 C 0.09476 0.01479 0.59756 0.0
H291 H 0.48822 0.22115 0.56873 0.0
H292 H 0.512 0.19558 0.29648 0.0
H293 H 0.51889 0.14759 0.33967 0.0
H294 H 0.53022 0.17458 0.65706 0.0
H295 H 0.50846 0.16834 0.75328 0.0
H296 H 0.50663 0.20064 0.70075 0.0
H297 H 0.46266 0.19347 0.6868 0.0
H298 H 0.46442 0.16106 0.73865 0.0
H299 H 0.4562 0.16265 0.6326 0.0
H300 H 0.52192 0.10193 0.41342 0.0
H301 H 0.52155 0.06272 0.51025 0.0
H302 H 0.49533 0.11797 0.73536 0.0
C303 C 0.4953 0.20552 0.51831 0.0
C304 C 0.50017 0.21225 0.42915 0.0
C305 C 0.50871 0.19103 0.36511 0.0
C306 C 0.51255 0.16371 0.38913 0.0
C307 C 0.50756 0.15779 0.4776 0.0
C308 C 0.49918 0.17815 0.54123 0.0
C309 C 0.49459 0.16629 0.63151 0.0
C310 C 0.51095 0.17817 0.68903 0.0
C311 C 0.46788 0.17116 0.67492 0.0
C312 C 0.50156 0.13604 0.60893 0.0
C313 C 0.50902 0.13158 0.51979 0.0
C314 C 0.51617 0.10528 0.48328 0.0
C315 C 0.51586 0.08306 0.53905 0.0
C316 C 0.5084 0.08705 0.63083 0.0
C317 C 0.50111 0.11405 0.66571 0.0
H318 H 0.30287 0.53 0.22233 0.0
H319 H 0.341 0.47892 1.00188 0.0
H320 H 0.37546 0.47085 0.07784 0.0
H321 H 0.35356 0.56246 0.26726 0.0
H322 H 0.34414 0.5633 0.38431 0.0
H323 H 0.32198 0.56361 0.31529 0.0
H324 H 0.30451 0.52066 0.38928 0.0
H325 H 0.32649 0.52035 0.45912 0.0
H326 H 0.32419 0.49025 0.39302 0.0
H327 H 0.40671 0.47036 0.17591 0.0
H328 H 0.43161 0.47649 0.28819 0.0
H329 H 0.37289 0.52757 0.44597 0.0
C330 C 0.31834 0.51679 0.19065 0.0
C331 C 0.31917 0.50482 0.10635 0.0
C332 C 0.3399 0.488 0.06668 0.0
C333 C 0.35956 0.4834 0.10929 0.0
C334 C 0.35831 0.49579 0.19184 0.0
C335 C 0.33814 0.51203 0.23232 0.0
C336 C 0.34158 0.52354 0.32015 0.0
C337 C 0.34024 0.5551 0.32179 0.0
C338 C 0.3231 0.51307 0.39481 0.0
C339 C 0.36692 0.51154 0.32247 0.0
C340 C 0.37623 0.49552 0.24798 0.0
C341 C 0.39947 0.48266 0.2348 0.0
C342 C 0.41347 0.48615 0.29933 0.0
C343 C 0.40436 0.5024 0.37664 0.0
C344 C 0.38066 0.51523 0.38764 0.0
H345 H 0.99998 0.35309 0.39202 0.0
H346 H 0.05254 0.37984 0.17812 0.0
H347 H 0.06168 0.41732 0.27408 0.0
H348 H 0.97689 0.41991 0.47747 0.0
H349 H 0.97242 0.41056 0.59009 0.0
H350 H 0.97111 0.38516 0.50594 0.0
H351 H 1.00416 0.35409 0.55853 0.0
H352 H 1.0055 0.3794 0.64307 0.0
H353 H 0.03246 0.36766 0.5665 0.0
H354 H 0.06386 0.45316 0.394 0.0
H355 H 0.05896 0.4838 0.52586 0.0
H356 H 1.00467 0.43341 0.66034 0.0
C357 C 1.01366 0.3666 0.36581 0.0
C358 C 0.02589 0.36329 0.278 0.0
C359 C 0.04329 0.38177 0.24559 0.0
C360 C 0.04852 0.40313 0.29958 0.0
C361 C 0.03609 0.40588 0.38589 0.0
C362 C 1.01903 0.38806 0.41875 0.0
C363 C 1.00762 0.39592 0.51281 0.0
C364 C 0.9804 0.40333 0.52207 0.0
C365 C 1.01275 0.3729 0.57382 0.0
C366 C 1.02083 0.42098 0.52786 0.0
C367 C 0.03721 0.42644 0.45404 0.0
C368 C 0.05115 0.44895 0.4522 0.0
C369 C 0.04823 0.46628 0.52752 0.0
C370 C 0.03149 0.46108 0.60391 0.0
C371 C 1.01774 0.43799 0.60348 0.0
H372 H 0.83467 0.04945 0.17423 0.0
H373 H 0.84368 0.98809 0.36381 0.0
H374 H 0.88569 0.97654 0.28677 0.0
H375 H 0.87168 0.01132 0.98341 0.0
H376 H 0.88413 0.04166 0.93603 0.0
H377 H 0.85442 0.04405 1.003 0.0
H378 H 0.86728 0.08106 0.10272 0.0
H379 H 0.89704 0.07869 0.0364 0.0
H380 H 0.89323 0.07358 0.15208 0.0
H381 H 0.92732 0.97373 0.19538 0.0
H382 H 0.9654 0.9781 0.09315 0.0
H383 H 0.93018 0.04092 0.95822 0.0
C384 C 0.84542 0.03331 0.19868 0.0
C385 C 0.83585 0.0195 0.27505 0.0
C386 C 0.85057 0.99873 0.30536 0.0
C387 C 0.87446 0.99212 0.26205 0.0
C388 C 0.88347 1.00637 0.18794 0.0
C389 C 0.86938 0.0264 0.15593 0.0
C390 C 0.88377 0.03904 0.07617 0.0
C391 C 0.87285 0.03369 0.99483 0.0
C392 C 0.88542 0.06993 0.09288 0.0
C393 C 0.90824 0.02323 0.06895 0.0
C394 C 0.90755 1.00452 0.13431 0.0
C395 C 0.92798 0.98817 0.14363 0.0
C396 C 0.94965 0.99093 0.08507 0.0
C397 C 0.95102 0.00984 0.01696 0.0
C398 C 0.92982 0.02609 0.00878 0.0
H399 H 0.48871 0.83655 0.13976 0.0
H400 H 0.54709 0.84827 0.27749 0.0
H401 H 0.55676 0.8898 0.19358 0.0
H402 H 0.51863 0.85997 0.92747 0.0
H403 H 0.49127 0.8766 0.90395 0.0
H404 H 0.48999 0.84705 0.97105 0.0
H405 H 0.46034 0.875 0.09395 0.0
H406 H 0.46165 0.90467 0.02751 0.0
H407 H 0.46882 0.90692 0.13514 0.0
H408 H 0.55825 0.93197 0.10097 0.0
H409 H 0.55281 0.96994 1.00315 0.0
H410 H 0.49365 0.93067 0.92341 0.0
C411 C 0.50376 0.84765 0.15125 0.0
C412 C 0.51724 0.83913 0.21515 0.0
C413 C 0.53665 0.85435 0.22868 0.0
C414 C 0.5422 0.878 0.18145 0.0
C415 C 0.52825 0.88619 0.12027 0.0
C416 C 0.50954 0.87132 0.10452 0.0
C417 C 0.49695 0.88492 0.03685 0.0
C418 C 0.49936 0.86601 0.95497 0.0
C419 C 0.47037 0.89338 0.07571 0.0
C420 C 0.5113 0.9099 0.01758 0.0
C421 C 0.52926 0.91025 0.06645 0.0
C422 C 0.54436 0.93172 0.06194 0.0
C423 C 0.54108 0.9533 0.00615 0.0
C424 C 0.52288 0.9534 0.95486 0.0
C425 C 0.50788 0.93122 0.96089 0.0
H426 H 0.74138 0.56219 0.31601 0.0
H427 H 0.72145 0.50351 0.51587 0.0
H428 H 0.68705 0.49229 0.44818 0.0
H429 H 0.68123 0.58754 0.30513 0.0
H430 H 0.68735 0.59175 0.18879 0.0
H431 H 0.71107 0.59422 0.25029 0.0
H432 H 0.73719 0.55624 0.14959 0.0
H433 H 0.71356 0.55368 0.08765 0.0
H434 H 0.72521 0.5236 0.13525 0.0
H435 H 0.65415 0.48803 0.35962 0.0
H436 H 0.62529 0.49131 0.25958 0.0
H437 H 0.66562 0.5538 0.11818 0.0
C438 C 0.72996 0.54667 0.34469 0.0
C439 C 0.7346 0.53323 0.4201 0.0
C440 C 0.71876 0.51365 0.45715 0.0
C441 C 0.69907 0.5072 0.41919 0.0
C442 C 0.69515 0.5207 0.3446 0.0
C443 C 0.71015 0.54007 0.30777 0.0
C444 C 0.70151 0.55224 0.22916 0.0
C445 C 0.6949 0.58328 0.24428 0.0
C446 C 0.7205 0.54606 0.14545 0.0
C447 C 0.67927 0.53675 0.22747 0.0
C448 C 0.67597 0.51863 0.29462 0.0
C449 C 0.65657 0.50223 0.30709 0.0
C450 C 0.6401 0.50443 0.25 0.0
C451 C 0.64285 0.523 0.18079 0.0
C452 C 0.66294 0.53922 0.16959 0.0
H453 H 0.02687 0.68865 0.23337 0.0
H454 H 1.00435 0.64483 0.46948 0.0
H455 H 0.99644 0.60513 0.38106 0.0
H456 H 0.9827 0.66173 0.11066 0.0
H457 H 1.00378 0.65942 0.00827 0.0
H458 H 1.00605 0.68525 0.09017 0.0
H459 H 0.05036 0.66749 0.08655 0.0
H460 H 0.0482 0.64154 1.00506 0.0
H461 H 0.05732 0.63184 0.10545 0.0
H462 H 0.99467 0.56863 0.26783 0.0
H463 H 0.99714 0.53839 0.1368 0.0
H464 H 1.01874 0.60582 0.97157 0.0
C465 C 1.01964 0.67096 0.26631 0.0
C466 C 1.01557 0.67014 0.35867 0.0
C467 C 1.007 0.6462 0.39917 0.0
C468 C 1.00254 0.6235 0.3494 0.0
C469 C 1.00672 0.62491 0.25874 0.0
C470 C 1.01485 0.64809 0.21736 0.0
C471 C 1.01873 0.6437 0.11866 0.0
C472 C 1.0018 0.66372 0.07965 0.0
C473 C 0.04523 0.64629 0.07648 0.0
C474 C 1.01191 0.61431 0.11118 0.0
C475 C 1.00512 0.6039 0.19298 0.0
C476 C 0.99957 0.5767 0.20347 0.0
C477 C 1.00109 0.55964 0.12863 0.0
C478 C 1.00779 0.5698 0.044 0.0
C479 C 1.01302 0.59764 0.03538 0.0
H480 H 0.03475 0.26499 0.43991 0.0
H481 H 0.10488 0.24331 0.28253 0.0
H482 H 0.11037 0.20397 0.37325 0.0
H483 H 0.04863 0.22695 0.65825 0.0
H484 H 1.018 0.21744 0.67714 0.0
H485 H 0.02492 0.25069 0.63591 0.0
H486 H 1.00362 0.24041 0.50761 0.0
H487 H 0.99767 0.20685 0.54452 0.0
H488 H 1.01429 0.21081 0.43566 0.0
H489 H 0.10004 0.15902 0.4211 0.0
H490 H 0.07921 0.11706 0.45124 0.0
H491 H 1.01584 0.16579 0.5891 0.0
C492 C 0.05206 0.25333 0.43057 0.0
C493 C 0.06936 0.25685 0.35515 0.0
C494 C 0.09162 0.24098 0.34118 0.0
C495 C 0.09472 0.21835 0.39208 0.0
C496 C 0.07561 0.2125 0.45771 0.0
C497 C 0.05508 0.23037 0.48057 0.0
C498 C 0.03519 0.21672 0.5392 0.0
C499 C 0.03148 0.22865 0.63321 0.0
C500 C 1.01134 0.21881 0.50449 0.0
C501 C 0.04626 0.18751 0.53338 0.0
C502 C 0.06985 0.18564 0.48886 0.0
C503 C 0.08208 0.16032 0.46034 0.0
C504 C 0.06997 0.13648 0.47738 0.0
C505 C 0.04579 0.13796 0.52299 0.0
C506 C 0.03422 0.16385 0.55353 0.0
H507 H 0.32785 0.93807 0.31728 0.0
H508 H 0.28228 0.98695 0.52827 0.0
H509 H 0.30699 0.9687 0.63078 0.0
H510 H 0.35146 0.88053 0.45433 0.0
H511 H 0.38107 0.88096 0.38773 0.0
H512 H 0.35469 0.88752 0.33996 0.0
H513 H 0.3705 0.93354 0.28387 0.0
H514 H 0.3966 0.92734 0.33179 0.0
H515 H 0.37741 0.95848 0.36076 0.0
H516 H 0.34195 0.95719 0.69922 0.0
H517 H 0.38359 0.95541 0.72482 0.0
H518 H 0.40933 0.91829 0.46617 0.0
C519 C 0.32253 0.94406 0.38584 0.0
C520 C 0.30323 0.96406 0.41454 0.0
C521 C 0.29674 0.97137 0.50465 0.0
C522 C 0.3108 0.9611 0.5635 0.0
C523 C 0.33124 0.94356 0.53128 0.0
C524 C 0.33698 0.93486 0.44429 0.0
C525 C 0.36248 0.92166 0.42092 0.0
C526 C 0.36241 0.89083 0.3995 0.0
C527 C 0.37761 0.93614 0.34501 0.0
C528 C 0.37094 0.92647 0.50609 0.0
C529 C 0.35234 0.93795 0.5701 0.0
C530 C 0.35647 0.94758 0.65042 0.0
C531 C 0.38022 0.94666 0.66417 0.0
C532 C 0.39965 0.93673 0.59725 0.0
C533 C 0.39477 0.92531 0.5191 0.0
H534 H 0.55342 0.36695 0.31597 0.0
H535 H 0.53779 0.3123 0.53165 0.0
H536 H 0.55285 0.3452 0.62625 0.0
H537 H 0.60137 0.40662 0.38771 0.0
H538 H 0.58763 0.43841 0.35724 0.0
H539 H 0.58581 0.40691 0.29693 0.0
H540 H 0.53924 0.41508 0.32541 0.0
H541 H 0.54097 0.44645 0.38508 0.0
H542 H 0.52296 0.42023 0.4362 0.0
H543 H 0.5623 0.38697 0.70461 0.0
H544 H 0.55712 0.43447 0.76562 0.0
H545 H 0.55558 0.46515 0.5086 0.0
C546 C 0.55318 0.36154 0.38291 0.0
C547 C 0.54389 0.33692 0.41593 0.0
C548 C 0.54503 0.33065 0.5034 0.0
C549 C 0.55357 0.34935 0.55802 0.0
C550 C 0.56052 0.37446 0.52493 0.0
C551 C 0.56 0.3807 0.43942 0.0
C552 C 0.56197 0.41108 0.425 0.0
C553 C 0.58561 0.41604 0.36305 0.0
C554 C 0.53998 0.42394 0.39103 0.0
C555 C 0.5623 0.42129 0.51701 0.0
C556 C 0.563 0.39964 0.57243 0.0
C557 C 0.56211 0.40399 0.66158 0.0
C558 C 0.55926 0.43106 0.6956 0.0
C559 C 0.55616 0.45327 0.64129 0.0
C560 C 0.55841 0.44842 0.55069 0.0
H561 H 0.23509 0.51065 0.29297 0.0
H562 H 0.20757 0.43202 0.25522 0.0
H563 H 0.17772 0.44025 0.39133 0.0
H564 H 0.21272 0.51721 0.55443 0.0
H565 H 0.20541 0.55329 0.54355 0.0
H566 H 0.23173 0.53611 0.47498 0.0
H567 H 0.21618 0.55354 0.33907 0.0
H568 H 0.18967 0.56991 0.40586 0.0
H569 H 0.18692 0.54496 0.32188 0.0
H570 H 0.14316 0.46265 0.48651 0.0
H571 H 0.10839 0.49591 0.53676 0.0
H572 H 0.15546 0.56236 0.51194 0.0
C573 C 0.22389 0.49446 0.31765 0.0
C574 C 0.22365 0.47062 0.26547 0.0
C575 C 0.20818 0.45015 0.29588 0.0
C576 C 0.19118 0.45475 0.3732 0.0
C577 C 0.18991 0.47995 0.41869 0.0
C578 C 0.20632 0.49933 0.3933 0.0
C579 C 0.19763 0.52709 0.43816 0.0
C580 C 0.21277 0.53381 0.50688 0.0
C581 C 0.19757 0.55017 0.37226 0.0
C582 C 0.1724 0.52136 0.48153 0.0
C583 C 0.16882 0.49372 0.47377 0.0
C584 C 0.14598 0.48411 0.49564 0.0
C585 C 0.12629 0.50317 0.52281 0.0
C586 C 0.1295 0.53155 0.52699 0.0
C587 C 0.15285 0.54064 0.5101 0.0
H588 H 0.06023 0.77499 0.1797 0.0
H589 H 0.10949 0.77887 0.35931 0.0
H590 H 0.13541 0.80667 0.25701 0.0
H591 H 0.10851 0.78524 0.96252 0.0
H592 H 0.08572 0.80613 0.92244 0.0
H593 H 0.0776 0.77673 0.98609 0.0
H594 H 0.04591 0.80784 0.09325 0.0
H595 H 0.05396 0.83699 0.03079 0.0
H596 H 0.05532 0.83745 0.14545 0.0
H597 H 0.14673 0.84579 0.17027 0.0
H598 H 0.14184 0.89157 0.11045 0.0
H599 H 0.08548 0.86424 0.98395 0.0
C600 C 0.07736 0.78019 0.1941 0.0
C601 C 0.08314 0.77466 0.27622 0.0
C602 C 0.10503 0.78269 0.29587 0.0
C603 C 0.11989 0.7984 0.23781 0.0
C604 C 0.11263 0.80581 0.16027 0.0
C605 C 0.09205 0.79642 0.13726 0.0
C606 C 0.08496 0.81221 0.06236 0.0
C607 C 0.08948 0.79399 0.97837 0.0
C608 C 0.05852 0.82436 0.08448 0.0
C609 C 0.10261 0.83428 0.05536 0.0
C610 C 0.11926 0.82939 0.10892 0.0
C611 C 0.1344 0.84937 0.12577 0.0
C612 C 0.13144 0.87541 0.09192 0.0
C613 C 0.11333 0.88131 0.04246 0.0
C614 C 0.09993 0.85997 0.01942 0.0
H615 H 0.71603 0.99138 0.1488 0.0
H616 H 0.74456 0.07048 0.16673 0.0
H617 H 0.71567 0.09038 0.0802 0.0
H618 H 0.69271 1.00018 0.93112 0.0
H619 H 0.66639 0.98305 0.97717 0.0
H620 H 0.69505 0.97304 0.00602 0.0
H621 H 0.6754 0.98094 0.16944 0.0
H622 H 0.64705 0.99193 0.14187 0.0
H623 H 0.66106 0.01425 0.20773 0.0
H624 H 0.67697 0.10397 0.03048 0.0
H625 H 0.63448 0.1091 0.01214 0.0
H626 H 0.62954 0.02168 0.04629 0.0
C627 C 0.71722 0.01238 0.12874 0.0
C628 C 0.73256 0.02938 0.1623 0.0
C629 C 0.73323 0.0571 0.13918 0.0
C630 C 0.71673 0.06856 0.09071 0.0
C631 C 0.69994 0.05186 0.06617 0.0
C632 C 0.70043 0.02412 0.08305 0.0
C633 C 0.67776 0.01182 0.06833 0.0
C634 C 0.68332 0.99078 0.99103 0.0
C635 C 0.66456 0.99903 0.15177 0.0
C636 C 0.66378 0.0372 0.04613 0.0
C637 C 0.67698 0.05997 0.04246 0.0
C638 C 0.6667 0.08612 0.03102 0.0
C639 C 0.64243 0.08891 0.02219 0.0
C640 C 0.62861 0.06575 0.02686 0.0
C641 C 0.63966 0.0397 0.03906 0.0
H642 H 0.53522 0.6862 0.11838 0.0
H643 H 0.46385 0.72664 0.14081 0.0
H644 H 0.45222 0.68807 0.05448 0.0
H645 H 0.54013 0.64911 0.90146 0.0
H646 H 0.55495 0.61926 0.93979 0.0
H647 H 0.55913 0.653 0.9809 0.0
H648 H 0.54506 0.63764 0.13909 0.0
H649 H 0.54022 0.60412 0.09904 0.0
H650 H 0.51591 0.62432 0.16872 0.0
H651 H 0.44769 0.64162 0.97964 0.0
H652 H 0.45074 0.59298 0.92509 0.0
H653 H 0.52337 0.58248 0.97565 0.0
C654 C 0.51755 0.68755 0.10089 0.0
C655 C 0.50058 0.7095 0.13352 0.0
C656 C 0.47724 0.71026 0.11362 0.0
C657 C 0.47049 0.68834 0.06552 0.0
C658 C 0.48728 0.66596 0.0393 0.0
C659 C 0.51043 0.66563 0.05602 0.0
C660 C 0.52408 0.63795 0.03395 0.0
C661 C 0.54585 0.63996 0.95958 0.0
C662 C 0.53175 0.62528 0.11501 0.0
C663 C 0.50489 0.62238 1.00418 0.0
C664 C 0.48396 0.63885 1.00534 0.0
C665 C 0.46399 0.6286 0.97879 0.0
C666 C 0.46575 0.60099 0.94887 0.0
C667 C 0.48699 0.58394 0.94899 0.0
C668 C 0.50661 0.59482 0.97769 0.0
H669 H 0.84284 0.42783 0.43703 0.0
H670 H 0.80758 0.47853 0.26709 0.0
H671 H 0.82936 0.45079 0.13968 0.0
H672 H 0.89633 0.42843 0.32846 0.0
H673 H 0.90771 0.39371 0.34193 0.0
H674 H 0.88294 0.40923 0.41996 0.0
H675 H 0.85717 0.36926 0.39338 0.0
H676 H 0.88212 0.3535 0.31449 0.0
H677 H 0.85321 0.3607 0.28418 0.0
H678 H 0.8633 0.43063 0.03442 0.0
H679 H 0.90544 0.42155 0.96512 0.0
H680 H 0.91959 0.37941 0.19404 0.0
C681 C 0.83906 0.43228 0.37309 0.0
C682 C 0.82361 0.4553 0.36184 0.0
C683 C 0.81907 0.46074 0.27753 0.0
C684 C 0.83136 0.44497 0.20458 0.0
C685 C 0.84787 0.42357 0.21699 0.0
C686 C 0.85138 0.41679 0.29962 0.0
C687 C 0.8734 0.39691 0.29481 0.0
C688 C 0.89111 0.40776 0.34937 0.0
C689 C 0.86603 0.3684 0.32339 0.0
C690 C 0.88347 0.39652 0.19766 0.0
C691 C 0.86791 0.411 0.15346 0.0
C692 C 0.87526 0.41836 0.06736 0.0
C693 C 0.89948 0.41291 0.02798 0.0
C694 C 0.91617 0.40012 0.07465 0.0
C695 C 0.9074 0.38963 0.15722 0.0
H696 H 0.06791 0.19826 0.12144 0.0
H697 H 1.0071 0.24695 0.05526 0.0
H698 H 0.99591 0.20589 0.98087 0.0
H699 H 0.08177 0.15183 0.93355 0.0
H700 H 0.08799 0.12265 0.99648 0.0
H701 H 0.09299 0.1566 0.03323 0.0
H702 H 0.06518 0.14981 0.18182 0.0
H703 H 0.05998 0.1159 0.14549 0.0
H704 H 0.03485 0.14063 0.18383 0.0
H705 H 0.99116 0.15822 0.91527 0.0
H706 H 0.99178 0.10891 0.87317 0.0
H707 H 0.05163 0.0908 1.0046 0.0
C708 C 0.052 0.20061 0.09258 0.0
C709 C 0.03828 0.22628 0.096 0.0
C710 C 1.01821 0.22793 0.05342 0.0
C711 C 1.01156 0.20454 0.01149 0.0
C712 C 0.02491 0.17944 0.01349 0.0
C713 C 0.04462 0.1774 0.05367 0.0
C714 C 0.05501 0.14788 0.05301 0.0
C715 C 0.08098 0.14455 1.00096 0.0
C716 C 0.05367 0.13798 0.14659 0.0
C717 C 0.03803 0.13338 0.00626 0.0
C718 C 1.02107 0.152 0.98231 0.0
C719 C 1.00418 0.14355 0.93474 0.0
C720 C 1.00465 0.11551 0.9112 0.0
C721 C 1.02144 0.09604 0.9371 0.0
C722 C 0.03825 0.10516 0.98567 0.0
H723 H 0.34677 0.02634 0.23999 0.0
H724 H 0.30474 0.01066 0.04138 0.0
H725 H 0.34068 0.0164 0.92645 0.0
H726 H 0.38588 0.07595 0.12158 0.0
H727 H 0.41173 0.06232 0.1631 0.0
H728 H 0.38193 0.06094 0.22727 0.0
H729 H 0.38969 1.00835 0.23745 0.0
H730 H 0.41937 0.00947 0.17255 0.0
H731 H 0.39847 0.9873 0.13856 0.0
H732 H 0.38325 0.01875 0.83374 0.0
H733 H 0.42667 0.01972 0.77325 0.0
H734 H 0.44072 0.03219 0.03477 0.0
C735 C 0.34491 0.02475 0.17222 0.0
C736 C 0.3228 0.01814 0.14978 0.0
C737 C 0.32128 0.01612 0.06031 0.0
C738 C 0.34171 0.01912 0.99467 0.0
C739 C 0.36353 0.02432 0.01949 0.0
C740 C 0.36508 0.02742 0.10644 0.0
C741 C 0.39078 0.03099 0.11713 0.0
C742 C 0.39268 0.05923 0.15978 0.0
C743 C 0.40012 1.00764 0.1695 0.0
C744 C 0.4037 0.02911 0.0226 0.0
C745 C 0.38771 0.02537 0.96705 0.0
C746 C 0.39576 0.02196 0.87695 0.0
C747 C 0.42059 0.0224 0.84308 0.0
C748 C 0.43736 0.02606 0.89879 0.0
C749 C 0.42854 0.02964 0.98985 0.0
H750 H 0.48014 0.37028 0.26765 0.0
H751 H 0.51043 0.30528 0.07663 0.0
H752 H 0.50664 0.33703 0.95786 0.0
H753 H 0.44023 0.40843 0.13479 0.0
H754 H 0.44744 0.4413 0.17291 0.0
H755 H 0.44644 0.41254 0.24345 0.0
H756 H 0.48984 0.41847 0.26472 0.0
H757 H 0.49115 0.44761 0.19649 0.0
H758 H 0.51362 0.41914 0.17041 0.0
H759 H 0.50718 0.37814 0.86175 0.0
H760 H 0.51076 0.4239 0.7979 0.0
H761 H 0.48263 0.46283 0.05208 0.0
C762 C 0.48511 0.3624 0.20071 0.0
C763 C 0.49549 0.33515 0.18155 0.0
C764 C 0.50201 0.3258 0.09312 0.0
C765 C 0.50011 0.34385 0.02519 0.0
C766 C 0.49149 0.37116 0.04668 0.0
C767 C 0.48379 0.38028 0.13258 0.0
C768 C 0.47841 0.41124 0.13954 0.0
C769 C 0.45152 0.4188 0.17483 0.0
C770 C 0.4942 0.4249 0.19608 0.0
C771 C 0.48525 0.41838 0.04452 0.0
C772 C 0.49228 0.39493 0.99169 0.0
C773 C 0.50117 0.3965 0.90238 0.0
C774 C 0.5032 0.42255 0.86662 0.0
C775 C 0.49652 0.44673 0.91986 0.0
C776 C 0.48715 0.44459 0.00965 0.0
H777 H 0.18502 0.45285 0.01968 0.0
H778 H 0.21995 0.5242 0.9143 0.0
H779 H 0.18512 0.53675 0.8445 0.0
H780 H 0.15456 0.43791 0.83576 0.0
H781 H 0.12794 0.42817 0.9074 0.0
H782 H 0.15694 0.42293 0.93857 0.0
H783 H 0.14053 0.45111 0.08279 0.0
H784 H 0.11158 0.45661 0.05185 0.0
H785 H 0.12723 0.48555 0.07856 0.0
H786 H 0.1441 0.54428 0.79971 0.0
H787 H 0.10189 0.54534 0.78024 0.0
H788 H 0.09314 0.46951 0.91752 0.0
C789 C 0.18559 0.47097 0.98097 0.0
C790 C 0.20548 0.48751 0.97284 0.0
C791 C 0.2053 0.51088 0.92079 0.0
C792 C 0.18542 0.5183 0.88137 0.0
C793 C 0.16578 0.50211 0.89389 0.0
C794 C 0.16585 0.47874 0.94183 0.0
C795 C 0.14198 0.46571 0.95018 0.0
C796 C 0.14558 0.43698 0.90529 0.0
C797 C 0.1296 0.4647 0.04656 0.0
C798 C 0.12814 0.48572 0.90122 0.0
C799 C 0.14226 0.50646 0.8686 0.0
C800 C 0.13308 0.52794 0.82426 0.0
C801 C 0.10895 0.52836 0.81349 0.0
C802 C 0.09399 0.50743 0.84657 0.0
C803 C 0.10399 0.48571 0.89046 0.0
H804 H 0.06185 0.81222 0.57735 0.0
H805 H 0.98907 0.80446 0.53514 0.0
H806 H 0.97549 0.84723 0.62346 0.0
H807 H 0.04506 0.84444 0.80324 0.0
H808 H 0.06938 0.86668 0.78361 0.0
H809 H 0.07264 0.83329 0.72916 0.0
H810 H 0.08297 0.85585 0.57957 0.0
H811 H 0.07954 0.88927 0.63334 0.0
H812 H 0.06222 0.88215 0.55067 0.0
H813 H 0.97097 0.89413 0.69725 0.0
H814 H 0.97514 0.94001 0.75921 0.0
H815 H 0.05089 0.91806 0.75499 0.0
C816 C 0.04292 0.81916 0.58828 0.0
C817 C 0.02651 0.80472 0.54919 0.0
C818 C 1.00194 0.81467 0.56531 0.0
C819 C 0.99409 0.83914 0.61501 0.0
C820 C 1.01093 0.8534 0.64927 0.0
C821 C 0.03479 0.84356 0.6378 0.0
C822 C 0.04956 0.86378 0.67634 0.0
C823 C 0.05976 0.8513 0.75262 0.0
C824 C 0.06976 0.87332 0.60576 0.0
C825 C 0.03046 0.88701 0.70844 0.0
C826 C 1.00827 0.88046 0.69273 0.0
C827 C 0.98817 0.89925 0.71114 0.0
C828 C 0.99077 0.92538 0.74602 0.0
C829 C 1.01331 0.93272 0.76257 0.0
C830 C 0.03333 0.91301 0.74444 0.0
H831 H 0.68939 0.98075 0.39503 0.0
H832 H 0.72108 0.03366 0.56203 0.0
H833 H 0.68265 0.03737 0.66955 0.0
H834 H 0.6338 0.01704 0.42395 0.0
H835 H 0.61615 0.9878 0.42341 0.0
H836 H 0.64698 0.98553 0.36664 0.0
H837 H 0.6569 0.9435 0.45478 0.0
H838 H 0.62598 0.94527 0.51108 0.0
H839 H 0.64992 0.94589 0.57245 0.0
H840 H 0.63893 0.04127 0.74654 0.0
H841 H 0.59514 0.04154 0.79494 0.0
H842 H 0.59117 0.98482 0.58087 0.0
C843 C 0.6885 0.99245 0.45557 0.0
C844 C 0.70846 1.00678 0.47026 0.0
C845 C 0.70635 0.02211 0.54982 0.0
C846 C 0.68445 0.02452 0.61086 0.0
C847 C 0.66482 0.01124 0.59204 0.0
C848 C 0.6668 0.99505 0.51696 0.0
C849 C 0.64265 0.98435 0.50925 0.0
C850 C 0.63442 0.99428 0.42589 0.0
C851 C 0.64394 0.95288 0.51208 0.0
C852 C 0.6265 0.99756 0.59079 0.0
C853 C 0.63973 0.01297 0.63747 0.0
C854 C 0.62862 0.02873 0.71145 0.0
C855 C 0.60355 0.02871 0.73862 0.0
C856 C 0.58945 0.01273 0.69339 0.0
C857 C 0.60131 0.99681 0.61836 0.0
H858 H 0.5361 0.66945 0.32377 0.0
H859 H 0.5178 0.73495 0.52315 0.0
H860 H 0.52307 0.70115 0.6359 0.0
H861 H 0.50045 0.62256 0.44174 0.0
H862 H 0.52035 0.59285 0.40015 0.0
H863 H 0.5196 0.62278 0.33561 0.0
H864 H 0.56554 0.62503 0.32432 0.0
H865 H 0.5665 0.59505 0.38895 0.0
H866 H 0.57794 0.62625 0.42259 0.0
H867 H 0.52761 0.65837 0.72797 0.0
H868 H 0.52826 0.61226 0.78967 0.0
H869 H 0.53806 0.57494 0.52924 0.0
C870 C 0.53317 0.67697 0.39108 0.0
C871 C 0.52615 0.70509 0.41424 0.0
C872 C 0.52329 0.71373 0.50318 0.0
C873 C 0.52613 0.69456 0.56773 0.0
C874 C 0.53173 0.66679 0.54243 0.0
C875 C 0.53512 0.65813 0.45588 0.0
C876 C 0.53851 0.62707 0.44517 0.0
C877 C 0.51854 0.61565 0.40323 0.0
C878 C 0.56362 0.61781 0.39213 0.0
C879 C 0.53622 0.61928 0.53958 0.0
C880 C 0.53288 0.64245 0.59474 0.0
C881 C 0.53028 0.64024 0.68499 0.0
C882 C 0.53079 0.61389 0.71948 0.0
C883 C 0.5333 0.5899 0.66433 0.0
C884 C 0.53616 0.59281 0.57311 0.0
H885 H 0.87156 0.51601 0.50006 0.0
H886 H 0.81754 0.50789 0.73247 0.0
H887 H 0.84874 0.51164 0.82375 0.0
H888 H 0.91883 0.47636 0.56596 0.0
H889 H 0.94222 0.49751 0.51793 0.0
H890 H 0.9154 0.49609 0.47229 0.0
H891 H 0.90768 0.54898 0.49043 0.0
H892 H 0.93463 0.5506 0.53538 0.0
H893 H 0.90622 0.56548 0.59613 0.0
H894 H 0.88767 0.51109 0.88793 0.0
H895 H 0.92893 0.51185 0.9195 0.0
H896 H 0.95672 0.52293 0.64521 0.0
C897 C 0.86619 0.51552 0.57035 0.0
C898 C 0.84199 0.51175 0.6091 0.0
C899 C 0.83581 0.51113 0.70131 0.0
C900 C 0.85351 0.51302 0.75358 0.0
C901 C 0.87733 0.51594 0.71296 0.0
C902 C 0.88354 0.51772 0.62335 0.0
C903 C 0.91037 0.52051 0.5951 0.0
C904 C 0.9224 0.49617 0.53424 0.0
C905 C 0.91499 0.54803 0.55171 0.0
C906 C 0.91845 0.51973 0.68251 0.0
C907 C 0.89923 0.5168 0.74983 0.0
C908 C 0.9027 0.51389 0.83569 0.0
C909 C 0.92625 0.51425 0.85308 0.0
C910 C 0.94611 0.51792 0.78531 0.0
C911 C 0.94193 0.52071 0.69902 0.0
loop_
_geom_bond_atom_site_label_1
_geom_bond_atom_site_label_2
_geom_bond_distance
_geom_bond_site_symmetry_2
_ccdc_geom_bond_type
H0 C7 0.929 . S
H1 C10 0.930 . S
H2 C12 0.929 . S
H3 C4 0.969 . S
C4 H3 0.969 . S
C4 O5 1.550 . S
C4 H6 0.973 . S
O5 C4 1.550 . S
O5 C11 1.412 . S
H6 C4 0.973 . S
C7 H0 0.929 . S
C7 C8 1.400 . S
C7 C9 1.364 . S
C8 C7 1.400 . S
C8 C12 1.377 . S
C9 C7 1.364 . S
C9 C10 1.374 . S
C10 H1 0.930 . S
C10 C9 1.374 . S
C10 C11 1.383 . S
C11 O5 1.412 . S
C11 C10 1.383 . S
C11 C12 1.394 . S
C12 H2 0.929 . S
C12 C8 1.377 . S
C12 C11 1.394 . S
H13 C20 0.929 . S
H14 C23 0.930 . S
H15 C25 0.929 . S
H16 C17 0.969 1_455 S
C17 H16 0.969 1_655 S
C17 O18 1.550 . S
C17 H19 0.973 . S
O18 C17 1.550 . S
O18 C24 1.412 . S
H19 C17 0.973 . S
C20 H13 0.929 . S
C20 C21 1.400 . S
C20 C22 1.364 . S
C21 C20 1.400 . S
C21 C25 1.377 . S
C22 C20 1.364 . S
C22 C23 1.374 . S
C23 H14 0.930 . S
C23 C22 1.374 . S
C23 C24 1.383 . S
C24 O18 1.412 . S
C24 C23 1.383 . S
C24 C25 1.394 . S
C25 H15 0.929 . S
C25 C21 1.377 . S
C25 C24 1.394 . S
H26 C33 0.928 1_565 S
H27 C36 0.930 . S
H28 C38 0.929 1_565 S
H29 C30 0.969 . S
C30 H29 0.969 . S
C30 O31 1.550 1_545 S
C30 H32 0.973 1_545 S
O31 C30 1.550 1_565 S
O31 C37 1.407 1_565 S
H32 C30 0.973 1_565 S
C33 H26 0.928 1_545 S
C33 C34 1.399 . S
C33 C35 1.364 . S
C34 C33 1.399 . S
C34 C38 1.378 . S
C35 C33 1.364 . S
C35 C36 1.375 1_545 S
C36 H27 0.930 . S
C36 C35 1.375 1_565 S
C36 C37 1.382 1_565 S
C37 O31 1.407 1_545 S
C37 C36 1.382 1_545 S
C37 C38 1.392 . S
C38 H28 0.929 1_545 S
C38 C34 1.378 . S
C38 C37 1.392 . S
H39 C46 0.929 . S
H40 C49 0.930 . S
H41 C51 0.929 . S
H42 C43 0.969 . S
C43 H42 0.969 . S
C43 O44 1.550 . S
C43 H45 0.973 . S
O44 C43 1.550 . S
O44 C50 1.412 . S
H45 C43 0.973 . S
C46 H39 0.929 . S
C46 C47 1.400 . S
C46 C48 1.364 . S
C47 C46 1.400 . S
C47 C51 1.377 . S
C48 C46 1.364 . S
C48 C49 1.374 . S
C49 H40 0.930 . S
C49 C48 1.374 . S
C49 C50 1.383 . S
C50 O44 1.412 . S
C50 C49 1.383 . S
C50 C51 1.394 . S
C51 H41 0.929 . S
C51 C47 1.377 . S
C51 C50 1.394 . S
H52 C59 0.929 . S
H53 C62 0.930 . S
H54 C64 0.929 . S
H55 C56 0.969 . S
C56 H55 0.969 . S
C56 O57 1.550 1_554 S
C56 H58 0.973 . S
O57 C56 1.550 1_556 S
O57 C63 1.412 . S
H58 C56 0.973 . S
C59 H52 0.929 . S
C59 C60 1.400 . S
C59 C61 1.364 1_556 S
C60 C59 1.400 . S
C60 C64 1.377 . S
C61 C59 1.364 1_554 S
C61 C62 1.374 . S
C62 H53 0.930 . S
C62 C61 1.374 . S
C62 C63 1.383 1_554 S
C63 O57 1.412 . S
C63 C62 1.383 1_556 S
C63 C64 1.394 . S
C64 H54 0.929 . S
C64 C60 1.377 . S
C64 C63 1.394 . S
H65 C72 0.929 . S
H66 C75 0.930 . S
H67 C77 0.929 1_556 S
H68 C69 0.969 . S
C69 H68 0.969 . S
C69 O70 1.550 . S
C69 H71 0.973 . S
O70 C69 1.550 . S
O70 C76 1.412 . S
H71 C69 0.973 . S
C72 H65 0.929 . S
C72 C73 1.400 . S
C72 C74 1.364 . S
C73 C72 1.400 . S
C73 C77 1.377 . S
C74 C72 1.364 . S
C74 C75 1.374 . S
C75 H66 0.930 . S
C75 C74 1.374 . S
C75 C76 1.383 . S
C76 O70 1.412 . S
C76 C75 1.383 . S
C76 C77 1.394 . S
C77 H67 0.929 1_554 S
C77 C73 1.377 . S
C77 C76 1.394 . S
H78 C85 0.929 1_565 S
H79 C88 0.927 . S
H80 C90 0.928 1_565 S
H81 C82 0.969 . S
C82 H81 0.969 . S
C82 O83 1.550 1_545 S
C82 H84 0.973 1_545 S
O83 C82 1.550 1_565 S
O83 C89 1.399 1_565 S
H84 C82 0.973 1_565 S
C85 H78 0.929 1_545 S
C85 C86 1.400 . S
C85 C87 1.364 . S
C86 C85 1.400 . S
C86 C90 1.376 . S
C87 C85 1.364 . S
C87 C88 1.374 1_545 S
C88 H79 0.927 . S
C88 C87 1.374 1_565 S
C88 C89 1.382 1_565 S
C89 O83 1.399 1_545 S
C89 C88 1.382 1_545 S
C89 C90 1.396 . S
C90 H80 0.928 1_545 S
C90 C86 1.376 . S
C90 C89 1.396 . S
H91 C98 0.929 . S
H92 C101 0.930 . S
H93 C103 0.929 . S
H94 C95 0.969 . S
C95 H94 0.969 . S
C95 O96 1.550 . S
C95 H97 0.973 . S
O96 C95 1.550 . S
O96 C102 1.412 . S
H97 C95 0.973 . S
C98 H91 0.929 . S
C98 C99 1.400 . S
C98 C100 1.364 . S
C99 C98 1.400 . S
C99 C103 1.377 . S
C100 C98 1.364 . S
C100 C101 1.374 . S
C101 H92 0.930 . S
C101 C100 1.374 . S
C101 C102 1.383 . S
C102 O96 1.412 . S
C102 C101 1.383 . S
C102 C103 1.394 . S
C103 H93 0.929 . S
C103 C99 1.377 . S
C103 C102 1.394 . S
Dy104 O107 2.307 1_545 S
Dy104 O109 2.395 1_655 S
Dy104 O110 2.379 . S
Dy104 O112 2.339 . S
Dy104 O114 2.298 . S
Dy104 O118 2.275 1_655 S
Dy104 C126 2.738 . S
Dy105 O108 2.298 . S
Dy105 O111 2.275 1_455 S
Dy105 O113 2.307 1_565 S
Dy105 O115 2.395 1_455 S
Dy105 O116 2.379 . S
Dy105 O119 2.339 . S
Dy105 C135 2.738 . S
C106 O118 1.254 1_565 S
C106 O119 1.257 . S
O107 Dy104 2.307 1_565 S
O107 C117 1.266 . S
O108 Dy105 2.298 . S
O108 C117 1.236 1_455 S
O109 Dy104 2.395 1_455 S
O109 C126 1.255 1_455 S
O110 Dy104 2.379 . S
O110 C126 1.249 . S
O111 Dy105 2.275 1_655 S
O111 C127 1.254 1_565 S
O112 Dy104 2.339 . S
O112 C127 1.257 . S
O113 Dy105 2.307 1_545 S
O113 C128 1.266 . S
O114 Dy104 2.298 . S
O114 C128 1.236 1_655 S
O115 Dy105 2.395 1_655 S
O115 C135 1.255 1_655 S
O116 Dy105 2.379 . S
O116 C135 1.249 . S
C117 O107 1.266 . S
C117 O108 1.236 1_655 S
O118 Dy104 2.275 1_455 S
O118 C106 1.254 1_545 S
O119 Dy105 2.339 . S
O119 C106 1.257 . S
C120 C123 1.344 1_655 S
C120 C124 1.328 . S
C120 C126 1.516 . S
C121 C122 1.304 1_655 S
C121 C125 1.323 . S
C122 C121 1.304 1_455 S
C122 C123 1.371 . S
C122 H136 0.930 . S
C123 C120 1.344 1_455 S
C123 C122 1.371 . S
C123 H137 0.931 . S
C124 C120 1.328 . S
C124 C125 1.433 . S
C124 H138 0.931 . S
C125 C121 1.323 . S
C125 C124 1.433 . S
C125 H139 0.933 . S
C126 Dy104 2.738 . S
C126 O109 1.255 1_655 S
C126 O110 1.249 . S
C126 C120 1.516 . S
C127 O111 1.254 1_545 S
C127 O112 1.257 . S
C128 O113 1.266 . S
C128 O114 1.236 1_455 S
C129 C132 1.344 1_455 S
C129 C133 1.328 . S
C129 C135 1.516 1_554 S
C130 C131 1.304 1_455 S
C130 C134 1.323 . S
C131 C130 1.304 1_655 S
C131 C132 1.371 . S
C131 H140 0.930 . S
C132 C129 1.344 1_655 S
C132 C131 1.371 . S
C132 H141 0.931 . S
C133 C129 1.328 . S
C133 C134 1.433 . S
C133 H142 0.931 . S
C134 C130 1.323 . S
C134 C133 1.433 . S
C134 H143 0.933 . S
C135 Dy105 2.738 . S
C135 O115 1.255 1_455 S
C135 O116 1.249 . S
C135 C129 1.516 1_556 S
H136 C122 0.930 . S
H137 C123 0.931 . S
H138 C124 0.931 . S
H139 C125 0.933 . S
H140 C131 0.930 . S
H141 C132 0.931 . S
H142 C133 0.931 . S
H143 C134 0.933 . S
Dy144 O147 2.307 . S
Dy144 O149 2.395 1_565 S
Dy144 O150 2.379 . S
Dy144 O152 2.339 . S
Dy144 O154 2.298 . S
Dy144 O158 2.275 1_565 S
Dy144 C166 2.738 . S
Dy145 O148 2.298 . S
Dy145 O151 2.275 1_545 S
Dy145 O153 2.307 . S
Dy145 O155 2.395 1_545 S
Dy145 O156 2.379 . S
Dy145 O159 2.339 . S
Dy145 C175 2.738 . S
C146 O158 1.254 . S
C146 O159 1.257 . S
O147 Dy144 2.307 . S
O147 C157 1.266 . S
O148 Dy145 2.298 . S
O148 C157 1.236 1_545 S
O149 Dy144 2.395 1_545 S
O149 C166 1.255 1_545 S
O150 Dy144 2.379 . S
O150 C166 1.249 . S
O151 Dy145 2.275 1_565 S
O151 C167 1.254 . S
O152 Dy144 2.339 . S
O152 C167 1.257 . S
O153 Dy145 2.307 . S
O153 C168 1.266 . S
O154 Dy144 2.298 . S
O154 C168 1.236 1_565 S
O155 Dy145 2.395 1_565 S
O155 C175 1.255 1_565 S
O156 Dy145 2.379 . S
O156 C175 1.249 . S
C157 O147 1.266 . S
C157 O148 1.236 1_565 S
O158 Dy144 2.275 1_545 S
O158 C146 1.254 . S
O159 Dy145 2.339 . S
O159 C146 1.257 . S
C160 C163 1.344 1_565 S
C160 C164 1.328 . S
C160 C166 1.516 . S
C161 C162 1.304 1_565 S
C161 C165 1.323 . S
C162 C161 1.304 1_545 S
C162 C163 1.371 . S
C162 H176 0.930 . S
C163 C160 1.344 1_545 S
C163 C162 1.371 . S
C163 H177 0.931 . S
C164 C160 1.328 . S
C164 C165 1.433 . S
C164 H178 0.931 . S
C165 C161 1.323 . S
C165 C164 1.433 . S
C165 H179 0.933 . S
C166 Dy144 2.738 . S
C166 O149 1.255 1_565 S
C166 O150 1.249 . S
C166 C160 1.516 . S
C167 O151 1.254 . S
C167 O152 1.257 . S
C168 O153 1.266 . S
C168 O154 1.236 1_545 S
C169 C172 1.344 1_545 S
C169 C173 1.328 . S
C169 C175 1.516 1_554 S
C170 C171 1.304 1_545 S
C170 C174 1.323 . S
C171 C170 1.304 1_565 S
C171 C172 1.371 . S
C171 H180 0.930 . S
C172 C169 1.344 1_565 S
C172 C171 1.371 . S
C172 H181 0.931 1_554 S
C173 C169 1.328 . S
C173 C174 1.433 . S
C173 H182 0.931 . S
C174 C170 1.323 . S
C174 C173 1.433 . S
C174 H183 0.933 . S
C175 Dy145 2.738 . S
C175 O155 1.255 1_545 S
C175 O156 1.249 . S
C175 C169 1.516 1_556 S
H176 C162 0.930 . S
H177 C163 0.931 . S
H178 C164 0.931 . S
H179 C165 0.933 . S
H180 C171 0.930 . S
H181 C172 0.931 1_556 S
H182 C173 0.931 . S
H183 C174 0.933 . S
Dy184 O187 2.307 . S
Dy184 O189 2.395 . S
Dy184 O190 2.379 . S
Dy184 O192 2.339 . S
Dy184 O194 2.298 . S
Dy184 O198 2.275 . S
Dy184 C206 2.738 . S
Dy185 O188 2.298 . S
Dy185 O191 2.275 . S
Dy185 O193 2.307 . S
Dy185 O195 2.395 . S
Dy185 O196 2.379 . S
Dy185 O199 2.339 . S
Dy185 C215 2.738 . S
C186 O198 1.254 . S
C186 O199 1.257 . S
O187 Dy184 2.307 . S
O187 C197 1.266 . S
O188 Dy185 2.298 . S
O188 C197 1.236 . S
O189 Dy184 2.395 . S
O189 C206 1.255 . S
O190 Dy184 2.379 . S
O190 C206 1.249 . S
O191 Dy185 2.275 . S
O191 C207 1.254 . S
O192 Dy184 2.339 . S
O192 C207 1.257 . S
O193 Dy185 2.307 . S
O193 C208 1.266 . S
O194 Dy184 2.298 . S
O194 C208 1.236 . S
O195 Dy185 2.395 . S
O195 C215 1.255 . S
O196 Dy185 2.379 . S
O196 C215 1.249 . S
C197 O187 1.266 . S
C197 O188 1.236 . S
O198 Dy184 2.275 . S
O198 C186 1.254 . S
O199 Dy185 2.339 . S
O199 C186 1.257 . S
C200 C203 1.344 1_556 S
C200 C204 1.328 . S
C200 C206 1.516 . S
C201 C202 1.304 . S
C201 C205 1.323 1_554 S
C202 C201 1.304 . S
C202 C203 1.371 . S
C202 H216 0.930 . S
C203 C200 1.344 1_554 S
C203 C202 1.371 . S
C203 H217 0.931 . S
C204 C200 1.328 . S
C204 C205 1.433 . S
C204 H218 0.931 . S
C205 C201 1.323 1_556 S
C205 C204 1.433 . S
C205 H219 0.933 . S
C206 Dy184 2.738 . S
C206 O189 1.255 . S
C206 O190 1.249 . S
C206 C200 1.516 . S
C207 O191 1.254 . S
C207 O192 1.257 . S
C208 O193 1.266 . S
C208 O194 1.236 . S
C209 C212 1.344 . S
C209 C213 1.328 . S
C209 C215 1.516 . S
C210 C211 1.304 . S
C210 C214 1.323 . S
C211 C210 1.304 . S
C211 C212 1.371 . S
C211 H220 0.930 . S
C212 C209 1.344 . S
C212 C211 1.371 . S
C212 H221 0.931 . S
C213 C209 1.328 . S
C213 C214 1.433 . S
C213 H222 0.931 . S
C214 C210 1.323 . S
C214 C213 1.433 . S
C214 H223 0.933 . S
C215 Dy185 2.738 . S
C215 O195 1.255 . S
C215 O196 1.249 . S
C215 C209 1.516 . S
H216 C202 0.930 . S
H217 C203 0.931 . S
H218 C204 0.931 . S
H219 C205 0.933 . S
H220 C211 0.930 . S
H221 C212 0.931 . S
H222 C213 0.931 . S
H223 C214 0.933 . S
Dy224 O227 2.307 1_455 S
Dy224 O229 2.395 . S
Dy224 O230 2.379 . S
Dy224 O232 2.339 . S
Dy224 O234 2.298 . S
Dy224 O238 2.275 . S
Dy224 C246 2.738 . S
Dy225 O228 2.298 . S
Dy225 O231 2.275 . S
Dy225 O233 2.307 1_655 S
Dy225 O235 2.395 . S
Dy225 O236 2.379 . S
Dy225 O239 2.339 . S
Dy225 C255 2.738 . S
C226 O238 1.254 . S
C226 O239 1.257 1_455 S
O227 Dy224 2.307 1_655 S
O227 C237 1.266 . S
O228 Dy225 2.298 . S
O228 C237 1.236 . S
O229 Dy224 2.395 . S
O229 C246 1.255 . S
O230 Dy224 2.379 . S
O230 C246 1.249 . S
O231 Dy225 2.275 . S
O231 C247 1.254 1_655 S
O232 Dy224 2.339 . S
O232 C247 1.257 . S
O233 Dy225 2.307 1_455 S
O233 C248 1.266 . S
O234 Dy224 2.298 . S
O234 C248 1.236 . S
O235 Dy225 2.395 . S
O235 C255 1.255 . S
O236 Dy225 2.379 . S
O236 C255 1.249 . S
C237 O227 1.266 . S
C237 O228 1.236 . S
O238 Dy224 2.275 . S
O238 C226 1.254 . S
O239 Dy225 2.339 . S
O239 C226 1.257 1_655 S
C240 C243 1.344 . S
C240 C244 1.328 . S
C240 C246 1.516 . S
C241 C242 1.304 . S
C241 C245 1.323 . S
C242 C241 1.304 . S
C242 C243 1.371 . S
C242 H256 0.930 . S
C243 C240 1.344 . S
C243 C242 1.371 . S
C243 H257 0.931 . S
C244 C240 1.328 . S
C244 C245 1.433 . S
C244 H258 0.931 . S
C245 C241 1.323 . S
C245 C244 1.433 . S
C245 H259 0.933 . S
C246 Dy224 2.738 . S
C246 O229 1.255 . S
C246 O230 1.249 . S
C246 C240 1.516 . S
C247 O231 1.254 1_455 S
C247 O232 1.257 . S
C248 O233 1.266 . S
C248 O234 1.236 . S
C249 C252 1.344 . S
C249 C253 1.328 . S
C249 C255 1.516 1_554 S
C250 C251 1.304 . S
C250 C254 1.323 . S
C251 C250 1.304 . S
C251 C252 1.371 . S
C251 H260 0.930 . S
C252 C249 1.344 . S
C252 C251 1.371 . S
C252 H261 0.931 . S
C253 C249 1.328 . S
C253 C254 1.433 . S
C253 H262 0.931 . S
C254 C250 1.323 . S
C254 C253 1.433 . S
C254 H263 0.933 . S
C255 Dy225 2.738 . S
C255 O235 1.255 . S
C255 O236 1.249 . S
C255 C249 1.516 1_556 S
H256 C242 0.930 . S
H257 C243 0.931 . S
H258 C244 0.931 . S
H259 C245 0.933 . S
H260 C251 0.930 . S
H261 C252 0.931 . S
H262 C253 0.931 . S
H263 C254 0.933 . S
H264 C276 0.930 . S
H265 C278 0.930 . S
H266 C279 0.930 . S
H267 C283 0.959 . S
H268 C283 0.959 . S
H269 C283 0.961 . S
H270 C284 0.960 . S
H271 C284 0.961 . S
H272 C284 0.959 . S
H273 C287 0.929 . S
H274 C288 0.931 . S
H275 C290 0.930 . S
C276 H264 0.930 . S
C276 C277 1.399 1_565 S
C276 C281 1.399 . S
C277 C276 1.399 1_545 S
C277 C278 1.376 . S
C278 H265 0.930 . S
C278 C277 1.376 . S
C278 C279 1.388 . S
C279 H266 0.930 . S
C279 C278 1.388 . S
C279 C280 1.390 . S
C280 C279 1.390 . S
C280 C281 1.394 1_545 S
C280 C286 1.465 . S
C281 C276 1.399 . S
C281 C280 1.394 1_565 S
C281 C282 1.516 . S
C282 C281 1.516 . S
C282 C283 1.502 . S
C282 C284 1.561 . S
C282 C285 1.526 . S
C283 H267 0.959 . S
C283 H268 0.959 . S
C283 H269 0.961 . S
C283 C282 1.502 . S
C284 H270 0.960 . S
C284 H271 0.961 . S
C284 H272 0.959 . S
C284 C282 1.561 . S
C285 C282 1.526 . S
C285 C286 1.396 1_565 S
C285 C290 1.390 . S
C286 C280 1.465 . S
C286 C285 1.396 1_545 S
C286 C287 1.399 . S
C287 H273 0.929 . S
C287 C286 1.399 . S
C287 C288 1.385 . S
C288 H274 0.931 . S
C288 C287 1.385 . S
C288 C289 1.389 . S
C289 C288 1.389 . S
C289 C290 1.387 1_545 S
C290 H275 0.930 . S
C290 C285 1.390 . S
C290 C289 1.387 1_565 S
H291 C303 0.930 . S
H292 C305 0.930 . S
H293 C306 0.930 . S
H294 C310 0.959 . S
H295 C310 0.959 . S
H296 C310 0.961 . S
H297 C311 0.960 . S
H298 C311 0.961 . S
H299 C311 0.959 . S
H300 C314 0.929 . S
H301 C315 0.931 . S
H302 C317 0.930 . S
C303 H291 0.930 . S
C303 C304 1.399 . S
C303 C308 1.399 . S
C304 C303 1.399 . S
C304 C305 1.376 . S
C305 H292 0.930 . S
C305 C304 1.376 . S
C305 C306 1.388 . S
C306 H293 0.930 . S
C306 C305 1.388 . S
C306 C307 1.390 . S
C307 C306 1.390 . S
C307 C308 1.394 . S
C307 C313 1.465 . S
C308 C303 1.399 . S
C308 C307 1.394 . S
C308 C309 1.516 . S
C309 C308 1.516 . S
C309 C310 1.502 . S
C309 C311 1.561 . S
C309 C312 1.526 . S
C310 H294 0.959 . S
C310 H295 0.959 . S
C310 H296 0.961 . S
C310 C309 1.502 . S
C311 H297 0.960 . S
C311 H298 0.961 . S
C311 H299 0.959 . S
C311 C309 1.561 . S
C312 C309 1.526 . S
C312 C313 1.396 . S
C312 C317 1.390 . S
C313 C307 1.465 . S
C313 C312 1.396 . S
C313 C314 1.399 . S
C314 H300 0.929 . S
C314 C313 1.399 . S
C314 C315 1.385 . S
C315 H301 0.931 . S
C315 C314 1.385 . S
C315 C316 1.389 . S
C316 C315 1.389 . S
C316 C317 1.387 . S
C317 H302 0.930 . S
C317 C312 1.390 . S
C317 C316 1.387 . S
H318 C330 0.930 . S
H319 C332 0.930 . S
H320 C333 0.930 . S
H321 C337 0.959 . S
H322 C337 0.959 . S
H323 C337 0.961 . S
H324 C338 0.960 . S
H325 C338 0.961 . S
H326 C338 0.959 . S
H327 C341 0.929 . S
H328 C342 0.931 . S
H329 C344 0.930 . S
C330 H318 0.930 . S
C330 C331 1.399 . S
C330 C335 1.399 . S
C331 C330 1.399 . S
C331 C332 1.376 . S
C332 H319 0.930 . S
C332 C331 1.376 . S
C332 C333 1.388 . S
C333 H320 0.930 . S
C333 C332 1.388 . S
C333 C334 1.390 . S
C334 C333 1.390 . S
C334 C335 1.394 . S
C334 C340 1.465 . S
C335 C330 1.399 . S
C335 C334 1.394 . S
C335 C336 1.516 . S
C336 C335 1.516 . S
C336 C337 1.502 . S
C336 C338 1.561 . S
C336 C339 1.526 . S
C337 H321 0.959 . S
C337 H322 0.959 . S
C337 H323 0.961 . S
C337 C336 1.502 . S
C338 H324 0.960 . S
C338 H325 0.961 . S
C338 H326 0.959 . S
C338 C336 1.561 . S
C339 C336 1.526 . S
C339 C340 1.396 . S
C339 C344 1.390 . S
C340 C334 1.465 . S
C340 C339 1.396 . S
C340 C341 1.399 . S
C341 H327 0.929 . S
C341 C340 1.399 . S
C341 C342 1.385 . S
C342 H328 0.931 . S
C342 C341 1.385 . S
C342 C343 1.389 . S
C343 C342 1.389 . S
C343 C344 1.387 . S
C344 H329 0.930 . S
C344 C339 1.390 . S
C344 C343 1.387 . S
H345 C357 0.930 . S
H346 C359 0.930 . S
H347 C360 0.930 . S
H348 C364 0.959 . S
H349 C364 0.959 . S
H350 C364 0.961 . S
H351 C365 0.960 . S
H352 C365 0.961 . S
H353 C365 0.959 . S
H354 C368 0.929 . S
H355 C369 0.931 . S
H356 C371 0.930 . S
C357 H345 0.930 . S
C357 C358 1.399 . S
C357 C362 1.399 . S
C358 C357 1.399 . S
C358 C359 1.376 . S
C359 H346 0.930 . S
C359 C358 1.376 . S
C359 C360 1.388 . S
C360 H347 0.930 . S
C360 C359 1.388 . S
C360 C361 1.390 . S
C361 C360 1.390 . S
C361 C362 1.394 . S
C361 C367 1.465 . S
C362 C357 1.399 . S
C362 C361 1.394 . S
C362 C363 1.516 . S
C363 C362 1.516 . S
C363 C364 1.502 1_455 S
C363 C365 1.561 . S
C363 C366 1.526 . S
C364 H348 0.959 . S
C364 H349 0.959 . S
C364 H350 0.961 . S
C364 C363 1.502 1_655 S
C365 H351 0.960 . S
C365 H352 0.961 . S
C365 H353 0.959 . S
C365 C363 1.561 . S
C366 C363 1.526 . S
C366 C367 1.396 . S
C366 C371 1.390 . S
C367 C361 1.465 . S
C367 C366 1.396 . S
C367 C368 1.399 . S
C368 H354 0.929 . S
C368 C367 1.399 . S
C368 C369 1.385 . S
C369 H355 0.931 . S
C369 C368 1.385 . S
C369 C370 1.389 . S
C370 C369 1.389 . S
C370 C371 1.387 . S
C371 H356 0.930 . S
C371 C366 1.390 . S
C371 C370 1.387 . S
H372 C384 0.930 . S
H373 C386 0.930 . S
H374 C387 0.930 . S
H375 C391 0.959 . S
H376 C391 0.959 . S
H377 C391 0.961 1_554 S
H378 C392 0.960 . S
H379 C392 0.961 . S
H380 C392 0.959 . S
H381 C395 0.929 . S
H382 C396 0.931 . S
H383 C398 0.930 . S
C384 H372 0.930 . S
C384 C385 1.399 1_545 S
C384 C389 1.399 . S
C385 C384 1.399 1_565 S
C385 C386 1.376 . S
C386 H373 0.930 . S
C386 C385 1.376 . S
C386 C387 1.388 . S
C387 H374 0.930 . S
C387 C386 1.388 . S
C387 C388 1.390 . S
C388 C387 1.390 . S
C388 C389 1.394 1_565 S
C388 C394 1.465 . S
C389 C384 1.399 . S
C389 C388 1.394 1_545 S
C389 C390 1.516 . S
C390 C389 1.516 . S
C390 C391 1.502 1_554 S
C390 C392 1.561 . S
C390 C393 1.526 . S
C391 H375 0.959 . S
C391 H376 0.959 . S
C391 H377 0.961 1_556 S
C391 C390 1.502 1_556 S
C392 H378 0.960 . S
C392 H379 0.961 . S
C392 H380 0.959 . S
C392 C390 1.561 . S
C393 C390 1.526 . S
C393 C394 1.396 1_545 S
C393 C398 1.390 1_554 S
C394 C388 1.465 . S
C394 C393 1.396 1_565 S
C394 C395 1.399 . S
C395 H381 0.929 . S
C395 C394 1.399 . S
C395 C396 1.378 1_554 S
C396 H382 0.931 . S
C396 C395 1.378 1_556 S
C396 C397 1.397 . S
C397 C396 1.397 . S
C397 C398 1.387 1_565 S
C398 H383 0.930 . S
C398 C393 1.390 1_556 S
C398 C397 1.387 1_545 S
H399 C411 0.930 . S
H400 C413 0.930 . S
H401 C414 0.930 . S
H402 C418 0.959 . S
H403 C418 0.959 . S
H404 C418 0.961 . S
H405 C419 0.960 . S
H406 C419 0.961 1_556 S
H407 C419 0.959 . S
H408 C422 0.929 1_554 S
H409 C423 0.931 . S
H410 C425 0.930 . S
C411 H399 0.930 . S
C411 C412 1.399 . S
C411 C416 1.399 . S
C412 C411 1.399 . S
C412 C413 1.376 . S
C413 H400 0.930 . S
C413 C412 1.376 . S
C413 C414 1.388 . S
C414 H401 0.930 . S
C414 C413 1.388 . S
C414 C415 1.390 . S
C415 C414 1.390 . S
C415 C416 1.394 . S
C415 C421 1.465 1_554 S
C416 C411 1.399 . S
C416 C415 1.394 . S
C416 C417 1.516 1_554 S
C417 C416 1.516 1_556 S
C417 C418 1.502 . S
C417 C419 1.561 1_556 S
C417 C420 1.526 . S
C418 H402 0.959 . S
C418 H403 0.959 . S
C418 H404 0.961 . S
C418 C417 1.502 . S
C419 H405 0.960 . S
C419 H406 0.961 1_554 S
C419 H407 0.959 . S
C419 C417 1.561 1_554 S
C420 C417 1.526 . S
C420 C421 1.396 . S
C420 C425 1.390 . S
C421 C415 1.465 1_556 S
C421 C420 1.396 . S
C421 C422 1.399 . S
C422 H408 0.929 1_556 S
C422 C421 1.399 . S
C422 C423 1.385 . S
C423 H409 0.931 . S
C423 C422 1.385 . S
C423 C424 1.389 . S
C424 C423 1.389 . S
C424 C425 1.387 . S
C425 H410 0.930 . S
C425 C420 1.390 . S
C425 C424 1.387 . S
H426 C438 0.930 . S
H427 C440 0.930 . S
H428 C441 0.930 . S
H429 C445 0.959 . S
H430 C445 0.959 . S
H431 C445 0.961 . S
H432 C446 0.960 . S
H433 C446 0.961 . S
H434 C446 0.959 . S
H435 C449 0.929 . S
H436 C450 0.931 . S
H437 C452 0.930 . S
C438 H426 0.930 . S
C438 C439 1.399 . S
C438 C443 1.399 . S
C439 C438 1.399 . S
C439 C440 1.376 . S
C440 H427 0.930 . S
C440 C439 1.376 . S
C440 C441 1.388 . S
C441 H428 0.930 . S
C441 C440 1.388 . S
C441 C442 1.390 . S
C442 C441 1.390 . S
C442 C443 1.394 . S
C442 C448 1.465 . S
C443 C438 1.399 . S
C443 C442 1.394 . S
C443 C444 1.516 . S
C444 C443 1.516 . S
C444 C445 1.502 . S
C444 C446 1.561 . S
C444 C447 1.526 . S
C445 H429 0.959 . S
C445 H430 0.959 . S
C445 H431 0.961 . S
C445 C444 1.502 . S
C446 H432 0.960 . S
C446 H433 0.961 . S
C446 H434 0.959 . S
C446 C444 1.561 . S
C447 C444 1.526 . S
C447 C448 1.396 . S
C447 C452 1.390 . S
C448 C442 1.465 . S
C448 C447 1.396 . S
C448 C449 1.399 . S
C449 H435 0.929 . S
C449 C448 1.399 . S
C449 C450 1.385 . S
C450 H436 0.931 . S
C450 C449 1.385 . S
C450 C451 1.389 . S
C451 C450 1.389 . S
C451 C452 1.387 . S
C452 H437 0.930 . S
C452 C447 1.390 . S
C452 C451 1.387 . S
H453 C465 0.930 . S
H454 C467 0.930 . S
H455 C468 0.930 . S
H456 C472 0.959 . S
H457 C472 0.959 . S
H458 C472 0.961 . S
H459 C473 0.960 . S
H460 C473 0.961 1_556 S
H461 C473 0.959 . S
H462 C476 0.929 . S
H463 C477 0.931 1_556 S
H464 C479 0.930 . S
C465 H453 0.930 . S
C465 C466 1.399 . S
C465 C470 1.399 . S
C466 C465 1.399 . S
C466 C467 1.376 1_655 S
C467 H454 0.930 . S
C467 C466 1.376 1_455 S
C467 C468 1.388 . S
C468 H455 0.930 . S
C468 C467 1.388 . S
C468 C469 1.390 . S
C469 C468 1.390 . S
C469 C470 1.394 1_455 S
C469 C475 1.465 . S
C470 C465 1.399 . S
C470 C469 1.394 1_655 S
C470 C471 1.516 . S
C471 C470 1.516 . S
C471 C472 1.502 . S
C471 C473 1.561 1_655 S
C471 C474 1.526 . S
C472 H456 0.959 . S
C472 H457 0.959 . S
C472 H458 0.961 . S
C472 C471 1.502 . S
C473 H459 0.960 . S
C473 H460 0.961 1_554 S
C473 H461 0.959 . S
C473 C471 1.561 1_455 S
C474 C471 1.526 . S
C474 C475 1.396 1_655 S
C474 C479 1.390 1_554 S
C475 C469 1.465 . S
C475 C474 1.396 1_455 S
C475 C476 1.399 . S
C476 H462 0.929 . S
C476 C475 1.399 . S
C476 C477 1.385 . S
C477 H463 0.931 1_554 S
C477 C476 1.385 . S
C477 C478 1.398 1_554 S
C478 C477 1.398 1_556 S
C478 C479 1.383 1_455 S
C479 H464 0.930 . S
C479 C474 1.390 1_556 S
C479 C478 1.383 1_655 S
H480 C492 0.930 1_655 S
H481 C494 0.930 . S
H482 C495 0.930 . S
H483 C499 0.918 1_455 S
H484 C499 0.976 . S
H485 C499 0.960 . S
H486 C500 0.960 . S
H487 C500 0.961 . S
H488 C500 0.959 . S
H489 C503 0.929 . S
H490 C504 0.931 . S
H491 C506 0.930 . S
C492 H480 0.930 1_455 S
C492 C493 1.399 . S
C492 C497 1.399 1_455 S
C493 C492 1.399 . S
C493 C494 1.376 . S
C494 H481 0.930 . S
C494 C493 1.376 . S
C494 C495 1.388 . S
C495 H482 0.930 . S
C495 C494 1.388 . S
C495 C496 1.390 . S
C496 C495 1.390 . S
C496 C497 1.394 1_455 S
C496 C502 1.465 1_455 S
C497 C492 1.399 1_655 S
C497 C496 1.394 1_655 S
C497 C498 1.516 . S
C498 C497 1.516 . S
C498 C499 1.531 . S
C498 C500 1.561 . S
C498 C501 1.526 . S
C499 H483 0.918 1_655 S
C499 H484 0.976 . S
C499 H485 0.960 . S
C499 C498 1.531 . S
C500 H486 0.960 . S
C500 H487 0.961 . S
C500 H488 0.959 . S
C500 C498 1.561 . S
C501 C498 1.526 . S
C501 C502 1.396 . S
C501 C506 1.390 . S
C502 C496 1.465 1_655 S
C502 C501 1.396 . S
C502 C503 1.399 1_655 S
C503 H489 0.929 . S
C503 C502 1.399 1_455 S
C503 C504 1.386 1_455 S
C504 H490 0.931 . S
C504 C503 1.386 1_655 S
C504 C505 1.389 . S
C505 C504 1.389 . S
C505 C506 1.387 . S
C506 H491 0.930 . S
C506 C501 1.390 . S
C506 C505 1.387 . S
H507 C519 0.930 . S
H508 C521 0.930 . S
H509 C522 0.930 . S
H510 C526 0.959 . S
H511 C526 0.959 . S
H512 C526 0.961 . S
H513 C527 0.960 . S
H514 C527 0.961 . S
H515 C527 0.959 . S
H516 C530 0.929 . S
H517 C531 0.931 . S
H518 C533 0.930 . S
C519 H507 0.930 . S
C519 C520 1.399 1_565 S
C519 C524 1.399 . S
C520 C519 1.399 1_545 S
C520 C521 1.376 . S
C521 H508 0.930 . S
C521 C520 1.376 . S
C521 C522 1.388 . S
C522 H509 0.930 . S
C522 C521 1.388 . S
C522 C523 1.390 . S
C523 C522 1.390 . S
C523 C524 1.394 1_545 S
C523 C529 1.462 1_545 S
C524 C519 1.399 . S
C524 C523 1.394 1_565 S
C524 C525 1.516 . S
C525 C524 1.516 . S
C525 C526 1.502 . S
C525 C527 1.561 . S
C525 C528 1.526 . S
C526 H510 0.959 . S
C526 H511 0.959 . S
C526 H512 0.961 . S
C526 C525 1.502 . S
C527 H513 0.960 . S
C527 H514 0.961 . S
C527 H515 0.959 . S
C527 C525 1.561 . S
C528 C525 1.526 . S
C528 C529 1.425 . S
C528 C533 1.390 . S
C529 C523 1.462 1_565 S
C529 C528 1.425 . S
C529 C530 1.379 1_565 S
C530 H516 0.929 . S
C530 C529 1.379 1_545 S
C530 C531 1.385 . S
C531 H517 0.931 . S
C531 C530 1.385 . S
C531 C532 1.389 1_545 S
C532 C531 1.389 1_565 S
C532 C533 1.387 . S
C533 H518 0.930 . S
C533 C528 1.390 . S
C533 C532 1.387 . S
H534 C546 0.930 . S
H535 C548 0.930 . S
H536 C549 0.930 . S
H537 C553 0.959 . S
H538 C553 0.959 . S
H539 C553 0.961 . S
H540 C554 0.960 . S
H541 C554 0.961 . S
H542 C554 0.959 . S
H543 C557 0.929 . S
H544 C558 0.931 . S
H545 C560 0.930 . S
C546 H534 0.930 . S
C546 C547 1.399 . S
C546 C551 1.399 . S
C547 C546 1.399 . S
C547 C548 1.376 . S
C548 H535 0.930 . S
C548 C547 1.376 . S
C548 C549 1.388 . S
C549 H536 0.930 . S
C549 C548 1.388 . S
C549 C550 1.390 . S
C550 C549 1.390 . S
C550 C551 1.394 . S
C550 C556 1.465 . S
C551 C546 1.399 . S
C551 C550 1.394 . S
C551 C552 1.516 . S
C552 C551 1.516 . S
C552 C553 1.502 . S
C552 C554 1.561 . S
C552 C555 1.526 . S
C553 H537 0.959 . S
C553 H538 0.959 . S
C553 H539 0.961 . S
C553 C552 1.502 . S
C554 H540 0.960 . S
C554 H541 0.961 . S
C554 H542 0.959 . S
C554 C552 1.561 . S
C555 C552 1.526 . S
C555 C556 1.396 . S
C555 C560 1.390 . S
C556 C550 1.465 . S
C556 C555 1.396 . S
C556 C557 1.399 . S
C557 H543 0.929 . S
C557 C556 1.399 . S
C557 C558 1.385 . S
C558 H544 0.931 . S
C558 C557 1.385 . S
C558 C559 1.389 . S
C559 C558 1.389 . S
C559 C560 1.387 . S
C560 H545 0.930 . S
C560 C555 1.390 . S
C560 C559 1.387 . S
H561 C573 0.930 . S
H562 C575 0.930 . S
H563 C576 0.930 . S
H564 C580 0.959 . S
H565 C580 0.959 . S
H566 C580 0.961 . S
H567 C581 0.960 . S
H568 C581 0.961 . S
H569 C581 0.959 . S
H570 C584 0.929 . S
H571 C585 0.931 . S
H572 C587 0.930 . S
C573 H561 0.930 . S
C573 C574 1.399 . S
C573 C578 1.399 . S
C574 C573 1.399 . S
C574 C575 1.376 . S
C575 H562 0.930 . S
C575 C574 1.376 . S
C575 C576 1.388 . S
C576 H563 0.930 . S
C576 C575 1.388 . S
C576 C577 1.390 . S
C577 C576 1.390 . S
C577 C578 1.394 . S
C577 C583 1.465 . S
C578 C573 1.399 . S
C578 C577 1.394 . S
C578 C579 1.516 . S
C579 C578 1.516 . S
C579 C580 1.502 . S
C579 C581 1.561 . S
C579 C582 1.526 . S
C580 H564 0.959 . S
C580 H565 0.959 . S
C580 H566 0.961 . S
C580 C579 1.502 . S
C581 H567 0.960 . S
C581 H568 0.961 . S
C581 H569 0.959 . S
C581 C579 1.561 . S
C582 C579 1.526 . S
C582 C583 1.396 . S
C582 C587 1.390 . S
C583 C577 1.465 . S
C583 C582 1.396 . S
C583 C584 1.399 . S
C584 H570 0.929 . S
C584 C583 1.399 . S
C584 C585 1.385 . S
C585 H571 0.931 . S
C585 C584 1.385 . S
C585 C586 1.389 . S
C586 C585 1.389 . S
C586 C587 1.387 . S
C587 H572 0.930 . S
C587 C582 1.390 . S
C587 C586 1.387 . S
H588 C600 0.930 . S
H589 C602 0.930 . S
H590 C603 0.930 . S
H591 C607 0.959 . S
H592 C607 0.959 . S
H593 C607 0.961 . S
H594 C608 0.960 . S
H595 C608 0.961 . S
H596 C608 0.959 . S
H597 C611 0.929 . S
H598 C612 0.931 . S
H599 C614 0.930 1_655 S
C600 H588 0.930 . S
C600 C601 1.399 . S
C600 C605 1.399 . S
C601 C600 1.399 . S
C601 C602 1.376 1_655 S
C602 H589 0.930 . S
C602 C601 1.376 1_455 S
C602 C603 1.388 . S
C603 H590 0.930 . S
C603 C602 1.388 . S
C603 C604 1.390 . S
C604 C603 1.390 . S
C604 C605 1.394 1_455 S
C604 C610 1.465 . S
C605 C600 1.399 . S
C605 C604 1.394 1_655 S
C605 C606 1.516 . S
C606 C605 1.516 . S
C606 C607 1.502 . S
C606 C608 1.561 . S
C606 C609 1.497 1_655 S
C607 H591 0.959 . S
C607 H592 0.959 . S
C607 H593 0.961 . S
C607 C606 1.502 . S
C608 H594 0.960 . S
C608 H595 0.961 . S
C608 H596 0.959 . S
C608 C606 1.561 . S
C609 C606 1.497 1_455 S
C609 C610 1.428 . S
C609 C614 1.390 . S
C610 C604 1.465 . S
C610 C609 1.428 . S
C610 C611 1.399 . S
C611 H597 0.929 . S
C611 C610 1.399 . S
C611 C612 1.385 . S
C612 H598 0.931 . S
C612 C611 1.385 . S
C612 C613 1.389 . S
C613 C612 1.389 . S
C613 C614 1.387 . S
C614 H599 0.930 1_455 S
C614 C609 1.390 . S
C614 C613 1.387 . S
H615 C627 0.920 1_565 S
H616 C629 0.930 . S
H617 C630 0.930 . S
H618 C634 0.959 . S
H619 C634 0.959 . S
H620 C634 0.961 . S
H621 C635 0.960 . S
H622 C635 0.961 . S
H623 C635 0.959 . S
H624 C638 0.929 . S
H625 C639 0.931 1_556 S
H626 C641 0.930 . S
C627 H615 0.920 1_545 S
C627 C628 1.399 . S
C627 C632 1.399 . S
C628 C627 1.399 . S
C628 C629 1.376 . S
C629 H616 0.930 . S
C629 C628 1.376 . S
C629 C630 1.388 . S
C630 H617 0.930 . S
C630 C629 1.388 . S
C630 C631 1.390 . S
C631 C630 1.390 . S
C631 C632 1.394 . S
C631 C637 1.465 . S
C632 C627 1.399 . S
C632 C631 1.394 . S
C632 C633 1.516 . S
C633 C632 1.516 . S
C633 C634 1.502 1_545 S
C633 C635 1.561 . S
C633 C636 1.526 . S
C634 H618 0.959 . S
C634 H619 0.959 . S
C634 H620 0.961 . S
C634 C633 1.502 1_565 S
C635 H621 0.960 . S
C635 H622 0.961 . S
C635 H623 0.959 . S
C635 C633 1.561 . S
C636 C633 1.526 . S
C636 C637 1.396 . S
C636 C641 1.390 . S
C637 C631 1.465 . S
C637 C636 1.396 . S
C637 C638 1.399 . S
C638 H624 0.929 . S
C638 C637 1.399 . S
C638 C639 1.385 . S
C639 H625 0.931 1_554 S
C639 C638 1.385 . S
C639 C640 1.389 . S
C640 C639 1.389 . S
C640 C641 1.387 . S
C641 H626 0.930 . S
C641 C636 1.390 . S
C641 C640 1.387 . S
H642 C654 0.930 1_556 S
H643 C656 0.930 . S
H644 C657 0.930 . S
H645 C661 0.959 . S
H646 C661 0.959 . S
H647 C661 0.961 . S
H648 C662 0.960 . S
H649 C662 0.961 . S
H650 C662 0.959 1_554 S
H651 C665 0.929 . S
H652 C666 0.931 . S
H653 C668 0.930 . S
C654 H642 0.930 1_554 S
C654 C655 1.399 . S
C654 C659 1.399 . S
C655 C654 1.399 . S
C655 C656 1.376 . S
C656 H643 0.930 . S
C656 C655 1.376 . S
C656 C657 1.388 . S
C657 H644 0.930 . S
C657 C656 1.388 . S
C657 C658 1.390 . S
C658 C657 1.390 . S
C658 C659 1.394 . S
C658 C664 1.465 . S
C659 C654 1.399 . S
C659 C658 1.394 . S
C659 C660 1.516 1_554 S
C660 C659 1.516 1_556 S
C660 C661 1.502 . S
C660 C662 1.561 . S
C660 C663 1.526 . S
C661 H645 0.959 . S
C661 H646 0.959 . S
C661 H647 0.961 . S
C661 C660 1.502 . S
C662 H648 0.960 . S
C662 H649 0.961 . S
C662 H650 0.959 1_556 S
C662 C660 1.561 . S
C663 C660 1.526 . S
C663 C664 1.396 1_556 S
C663 C668 1.390 . S
C664 C658 1.465 . S
C664 C663 1.396 1_554 S
C664 C665 1.399 . S
C665 H651 0.929 . S
C665 C664 1.399 . S
C665 C666 1.385 . S
C666 H652 0.931 . S
C666 C665 1.385 . S
C666 C667 1.389 1_554 S
C667 C666 1.389 1_556 S
C667 C668 1.387 . S
C668 H653 0.930 . S
C668 C663 1.390 . S
C668 C667 1.387 . S
H669 C681 0.930 . S
H670 C683 0.930 . S
H671 C684 0.930 . S
H672 C688 0.959 . S
H673 C688 0.959 . S
H674 C688 0.961 . S
H675 C689 0.960 . S
H676 C689 0.961 . S
H677 C689 0.959 . S
H678 C692 0.929 . S
H679 C693 0.931 . S
H680 C695 0.930 . S
C681 H669 0.930 . S
C681 C682 1.399 . S
C681 C686 1.399 . S
C682 C681 1.399 . S
C682 C683 1.376 . S
C683 H670 0.930 . S
C683 C682 1.376 . S
C683 C684 1.388 . S
C684 H671 0.930 . S
C684 C683 1.388 . S
C684 C685 1.390 . S
C685 C684 1.390 . S
C685 C686 1.394 . S
C685 C691 1.465 . S
C686 C681 1.399 . S
C686 C685 1.394 . S
C686 C687 1.516 . S
C687 C686 1.516 . S
C687 C688 1.502 . S
C687 C689 1.561 . S
C687 C690 1.526 . S
C688 H672 0.959 . S
C688 H673 0.959 . S
C688 H674 0.961 . S
C688 C687 1.502 . S
C689 H675 0.960 . S
C689 H676 0.961 . S
C689 H677 0.959 . S
C689 C687 1.561 . S
C690 C687 1.526 . S
C690 C691 1.396 . S
C690 C695 1.390 . S
C691 C685 1.465 . S
C691 C690 1.396 . S
C691 C692 1.399 . S
C692 H678 0.929 . S
C692 C691 1.399 . S
C692 C693 1.385 . S
C693 H679 0.931 . S
C693 C692 1.385 . S
C693 C694 1.389 . S
C694 C693 1.389 . S
C694 C695 1.387 . S
C695 H680 0.930 . S
C695 C690 1.390 . S
C695 C694 1.387 . S
H696 C708 0.930 . S
H697 C710 0.930 1_655 S
H698 C711 0.928 1_655 S
H699 C715 0.959 . S
H700 C715 0.959 . S
H701 C715 0.961 . S
H702 C716 0.960 . S
H703 C716 0.961 . S
H704 C716 0.959 . S
H705 C719 0.929 1_655 S
H706 C720 0.931 . S
H707 C722 0.930 . S
C708 H696 0.930 . S
C708 C709 1.399 1_554 S
C708 C713 1.399 1_554 S
C709 C708 1.399 1_556 S
C709 C710 1.376 . S
C710 H697 0.930 1_455 S
C710 C709 1.376 . S
C710 C711 1.389 . S
C711 H698 0.928 1_455 S
C711 C710 1.389 . S
C711 C712 1.391 . S
C712 C711 1.391 . S
C712 C713 1.394 . S
C712 C718 1.465 . S
C713 C708 1.399 1_556 S
C713 C712 1.394 . S
C713 C714 1.516 1_556 S
C714 C713 1.516 1_554 S
C714 C715 1.502 . S
C714 C716 1.561 1_455 S
C714 C717 1.526 1_554 S
C715 H699 0.959 . S
C715 H700 0.959 . S
C715 H701 0.961 . S
C715 C714 1.502 . S
C716 H702 0.960 . S
C716 H703 0.961 . S
C716 H704 0.959 . S
C716 C714 1.561 1_655 S
C717 C714 1.526 1_556 S
C717 C718 1.396 . S
C717 C722 1.390 . S
C718 C712 1.465 . S
C718 C717 1.396 . S
C718 C719 1.399 . S
C719 H705 0.929 1_455 S
C719 C718 1.399 . S
C719 C720 1.385 . S
C720 H706 0.931 . S
C720 C719 1.385 . S
C720 C721 1.389 . S
C721 C720 1.389 . S
C721 C722 1.387 . S
C722 H707 0.930 . S
C722 C717 1.390 . S
C722 C721 1.387 . S
H723 C735 0.930 . S
H724 C737 0.930 . S
H725 C738 0.930 1_556 S
H726 C742 0.959 . S
H727 C742 0.959 . S
H728 C742 0.961 . S
H729 C743 0.960 . S
H730 C743 0.961 . S
H731 C743 0.959 . S
H732 C746 0.929 . S
H733 C747 0.931 . S
H734 C749 0.930 . S
C735 H723 0.930 . S
C735 C736 1.399 1_545 S
C735 C740 1.399 . S
C736 C735 1.399 1_565 S
C736 C737 1.376 . S
C737 H724 0.930 . S
C737 C736 1.376 . S
C737 C738 1.388 . S
C738 H725 0.930 1_554 S
C738 C737 1.388 . S
C738 C739 1.390 . S
C739 C738 1.390 . S
C739 C740 1.394 1_565 S
C739 C745 1.465 1_554 S
C740 C735 1.399 . S
C740 C739 1.394 1_545 S
C740 C741 1.516 . S
C741 C740 1.516 . S
C741 C742 1.502 1_554 S
C741 C743 1.561 . S
C741 C744 1.526 1_554 S
C742 H726 0.959 . S
C742 H727 0.959 . S
C742 H728 0.961 . S
C742 C741 1.502 1_556 S
C743 H729 0.960 . S
C743 H730 0.961 . S
C743 H731 0.959 . S
C743 C741 1.561 . S
C744 C741 1.526 1_556 S
C744 C745 1.396 1_545 S
C744 C749 1.390 . S
C745 C739 1.465 1_556 S
C745 C744 1.396 1_565 S
C745 C746 1.399 . S
C746 H732 0.929 . S
C746 C745 1.399 . S
C746 C747 1.385 . S
C747 H733 0.931 . S
C747 C746 1.385 . S
C747 C748 1.389 1_565 S
C748 C747 1.389 1_545 S
C748 C749 1.387 . S
C749 H734 0.930 . S
C749 C744 1.390 . S
C749 C748 1.387 . S
H750 C762 0.930 . S
H751 C764 0.930 . S
H752 C765 0.930 . S
H753 C769 0.959 . S
H754 C769 0.959 . S
H755 C769 0.961 . S
H756 C770 0.960 . S
H757 C770 0.961 . S
H758 C770 0.959 . S
H759 C773 0.929 . S
H760 C774 0.931 . S
H761 C776 0.930 . S
C762 H750 0.930 . S
C762 C763 1.399 . S
C762 C767 1.399 . S
C763 C762 1.399 . S
C763 C764 1.376 . S
C764 H751 0.930 . S
C764 C763 1.376 . S
C764 C765 1.388 . S
C765 H752 0.930 . S
C765 C764 1.388 . S
C765 C766 1.390 . S
C766 C765 1.390 . S
C766 C767 1.394 . S
C766 C772 1.465 . S
C767 C762 1.399 . S
C767 C766 1.394 . S
C767 C768 1.516 . S
C768 C767 1.516 . S
C768 C769 1.502 . S
C768 C770 1.561 . S
C768 C771 1.526 . S
C769 H753 0.959 . S
C769 H754 0.959 . S
C769 H755 0.961 . S
C769 C768 1.502 . S
C770 H756 0.960 . S
C770 H757 0.961 . S
C770 H758 0.959 . S
C770 C768 1.561 . S
C771 C768 1.526 . S
C771 C772 1.396 . S
C771 C776 1.390 . S
C772 C766 1.465 . S
C772 C771 1.396 . S
C772 C773 1.399 1_554 S
C773 H759 0.929 . S
C773 C772 1.399 1_556 S
C773 C774 1.385 . S
C774 H760 0.931 . S
C774 C773 1.385 . S
C774 C775 1.389 . S
C775 C774 1.389 . S
C775 C776 1.387 1_556 S
C776 H761 0.930 . S
C776 C771 1.390 . S
C776 C775 1.387 1_554 S
H777 C789 0.930 . S
H778 C791 0.930 . S
H779 C792 0.930 . S
H780 C796 0.959 . S
H781 C796 0.959 . S
H782 C796 0.961 . S
H783 C797 0.960 . S
H784 C797 0.961 . S
H785 C797 0.959 . S
H786 C800 0.929 . S
H787 C801 0.931 . S
H788 C803 0.930 . S
C789 H777 0.930 . S
C789 C790 1.399 . S
C789 C794 1.399 . S
C790 C789 1.399 . S
C790 C791 1.376 . S
C791 H778 0.930 . S
C791 C790 1.376 . S
C791 C792 1.388 . S
C792 H779 0.930 . S
C792 C791 1.388 . S
C792 C793 1.390 . S
C793 C792 1.390 . S
C793 C794 1.394 . S
C793 C799 1.465 . S
C794 C789 1.399 . S
C794 C793 1.394 . S
C794 C795 1.516 . S
C795 C794 1.516 . S
C795 C796 1.502 . S
C795 C797 1.561 . S
C795 C798 1.526 . S
C796 H780 0.959 . S
C796 H781 0.959 . S
C796 H782 0.961 . S
C796 C795 1.502 . S
C797 H783 0.960 . S
C797 H784 0.961 . S
C797 H785 0.959 . S
C797 C795 1.561 . S
C798 C795 1.526 . S
C798 C799 1.396 . S
C798 C803 1.390 . S
C799 C793 1.465 . S
C799 C798 1.396 . S
C799 C800 1.399 . S
C800 H786 0.929 . S
C800 C799 1.399 . S
C800 C801 1.385 . S
C801 H787 0.931 . S
C801 C800 1.385 . S
C801 C802 1.389 . S
C802 C801 1.389 . S
C802 C803 1.387 . S
C803 H788 0.930 . S
C803 C798 1.390 . S
C803 C802 1.387 . S
H804 C816 0.930 . S
H805 C818 0.930 . S
H806 C819 0.930 . S
H807 C823 0.959 . S
H808 C823 0.959 . S
H809 C823 0.961 . S
H810 C824 0.960 . S
H811 C824 0.961 . S
H812 C824 0.959 . S
H813 C827 0.929 . S
H814 C828 0.931 . S
H815 C830 0.930 . S
C816 H804 0.930 . S
C816 C817 1.399 . S
C816 C821 1.399 . S
C817 C816 1.399 . S
C817 C818 1.376 . S
C818 H805 0.930 . S
C818 C817 1.376 . S
C818 C819 1.388 . S
C819 H806 0.930 . S
C819 C818 1.388 . S
C819 C820 1.390 . S
C820 C819 1.390 . S
C820 C821 1.394 . S
C820 C826 1.465 . S
C821 C816 1.399 . S
C821 C820 1.394 . S
C821 C822 1.516 1_655 S
C822 C821 1.516 1_455 S
C822 C823 1.501 1_455 S
C822 C824 1.562 . S
C822 C825 1.526 1_455 S
C823 H807 0.959 . S
C823 H808 0.959 . S
C823 H809 0.961 . S
C823 C822 1.501 1_655 S
C824 H810 0.960 . S
C824 H811 0.961 . S
C824 H812 0.959 . S
C824 C822 1.562 . S
C825 C822 1.526 1_655 S
C825 C826 1.396 . S
C825 C830 1.390 . S
C826 C820 1.465 . S
C826 C825 1.396 . S
C826 C827 1.399 . S
C827 H813 0.929 . S
C827 C826 1.399 . S
C827 C828 1.385 . S
C828 H814 0.931 . S
C828 C827 1.385 . S
C828 C829 1.389 . S
C829 C828 1.389 . S
C829 C830 1.387 . S
C830 H815 0.930 . S
C830 C825 1.390 . S
C830 C829 1.387 . S
H831 C843 0.930 . S
H832 C845 0.930 . S
H833 C846 0.930 . S
H834 C850 0.959 . S
H835 C850 0.959 . S
H836 C850 0.961 . S
H837 C851 0.960 . S
H838 C851 0.961 . S
H839 C851 0.959 . S
H840 C854 0.929 . S
H841 C855 0.931 . S
H842 C857 0.930 . S
C843 H831 0.930 . S
C843 C844 1.382 1_565 S
C843 C848 1.399 . S
C844 C843 1.382 1_545 S
C844 C845 1.394 . S
C845 H832 0.930 . S
C845 C844 1.394 . S
C845 C846 1.388 . S
C846 H833 0.930 . S
C846 C845 1.388 . S
C846 C847 1.390 . S
C847 C846 1.390 . S
C847 C848 1.394 1_545 S
C847 C853 1.465 . S
C848 C843 1.399 . S
C848 C847 1.394 1_565 S
C848 C849 1.516 . S
C849 C848 1.516 . S
C849 C850 1.502 . S
C849 C851 1.561 . S
C849 C852 1.526 . S
C850 H834 0.959 . S
C850 H835 0.959 . S
C850 H836 0.961 . S
C850 C849 1.502 . S
C851 H837 0.960 . S
C851 H838 0.961 . S
C851 H839 0.959 . S
C851 C849 1.561 . S
C852 C849 1.526 . S
C852 C853 1.396 1_565 S
C852 C857 1.390 . S
C853 C847 1.465 . S
C853 C852 1.396 1_545 S
C853 C854 1.399 . S
C854 H840 0.929 . S
C854 C853 1.399 . S
C854 C855 1.385 . S
C855 H841 0.931 . S
C855 C854 1.385 . S
C855 C856 1.389 1_545 S
C856 C855 1.389 1_565 S
C856 C857 1.387 . S
C857 H842 0.930 . S
C857 C852 1.390 . S
C857 C856 1.387 . S
H858 C870 0.930 . S
H859 C872 0.930 . S
H860 C873 0.930 . S
H861 C877 0.959 . S
H862 C877 0.959 . S
H863 C877 0.961 . S
H864 C878 0.960 . S
H865 C878 0.961 . S
H866 C878 0.959 . S
H867 C881 0.929 . S
H868 C882 0.931 . S
H869 C884 0.930 . S
C870 H858 0.930 . S
C870 C871 1.399 . S
C870 C875 1.399 . S
C871 C870 1.399 . S
C871 C872 1.376 . S
C872 H859 0.930 . S
C872 C871 1.376 . S
C872 C873 1.388 . S
C873 H860 0.930 . S
C873 C872 1.388 . S
C873 C874 1.390 . S
C874 C873 1.390 . S
C874 C875 1.394 . S
C874 C880 1.465 . S
C875 C870 1.399 . S
C875 C874 1.394 . S
C875 C876 1.516 . S
C876 C875 1.516 . S
C876 C877 1.502 . S
C876 C878 1.561 . S
C876 C879 1.526 . S
C877 H861 0.959 . S
C877 H862 0.959 . S
C877 H863 0.961 . S
C877 C876 1.502 . S
C878 H864 0.960 . S
C878 H865 0.961 . S
C878 H866 0.959 . S
C878 C876 1.561 . S
C879 C876 1.526 . S
C879 C880 1.396 . S
C879 C884 1.390 . S
C880 C874 1.465 . S
C880 C879 1.396 . S
C880 C881 1.399 . S
C881 H867 0.929 . S
C881 C880 1.399 . S
C881 C882 1.385 . S
C882 H868 0.931 . S
C882 C881 1.385 . S
C882 C883 1.389 . S
C883 C882 1.389 . S
C883 C884 1.387 . S
C884 H869 0.930 . S
C884 C879 1.390 . S
C884 C883 1.387 . S
H885 C897 0.930 . S
H886 C899 0.930 . S
H887 C900 0.930 . S
H888 C904 0.959 . S
H889 C904 0.959 . S
H890 C904 0.961 . S
H891 C905 0.960 . S
H892 C905 0.961 . S
H893 C905 0.959 . S
H894 C908 0.929 . S
H895 C909 0.931 . S
H896 C911 0.930 . S
C897 H885 0.930 . S
C897 C898 1.399 . S
C897 C902 1.399 . S
C898 C897 1.399 . S
C898 C899 1.376 . S
C899 H886 0.930 . S
C899 C898 1.376 . S
C899 C900 1.388 . S
C900 H887 0.930 . S
C900 C899 1.388 . S
C900 C901 1.390 . S
C901 C900 1.390 . S
C901 C902 1.394 . S
C901 C907 1.465 . S
C902 C897 1.399 . S
C902 C901 1.394 . S
C902 C903 1.516 . S
C903 C902 1.516 . S
C903 C904 1.502 . S
C903 C905 1.561 . S
C903 C906 1.526 . S
C904 H888 0.959 . S
C904 H889 0.959 . S
C904 H890 0.961 . S
C904 C903 1.502 . S
C905 H891 0.960 . S
C905 H892 0.961 . S
C905 H893 0.959 . S
C905 C903 1.561 . S
C906 C903 1.526 . S
C906 C907 1.396 . S
C906 C911 1.390 . S
C907 C901 1.465 . S
C907 C906 1.396 . S
C907 C908 1.399 . S
C908 H894 0.929 . S
C908 C907 1.399 . S
C908 C909 1.385 . S
C909 H895 0.931 . S
C909 C908 1.385 . S
C909 C910 1.389 . S
C910 C909 1.389 . S
C910 C911 1.387 . S
C911 H896 0.930 . S
C911 C906 1.390 . S
C911 C910 1.387 . S
C277 C82 1.804 . S
C289 C106 2.043 1_545 S
C316 C146 2.038 . S
C304 C95 1.961 . S
C343 C210 1.902 . S
C331 C56 1.583 . S
C370 C226 1.631 . S
C358 C69 1.391 . S
C397 C127 2.046 1_565 S
C385 C30 1.896 1_565 S
C412 C43 1.927 . S
C424 C167 2.054 . S
C439 C4 1.537 . S
C451 C201 1.902 . S
C466 C17 1.368 . S
C478 C247 1.614 . S
C505 C121 0.463 . S
C493 C74 0.353 . S
C532 C161 0.676 . S
C520 C87 0.737 . S
C559 C197 0.662 . S
C547 C100 0.816 . S
C574 C61 0.650 . S
C586 C241 0.508 . S
C601 C22 0.349 . S
C613 C130 0.546 . S
C640 C170 0.723 . S
C628 C35 0.786 . S
C667 C208 0.812 . S
C655 C48 0.647 . S
C682 C9 0.664 . S
C694 C250 0.557 . S
C709 C73 1.849 1_556 S
C721 C128 1.993 . S
C736 C86 1.858 1_565 S
C748 C168 2.010 . S
C775 C186 1.604 . S
C763 C99 1.622 . S
C802 C248 2.390 . S
C790 C60 2.143 . S
C817 C21 1.762 . S
C829 C117 2.022 . S
C856 C157 2.009 . S
C844 C34 1.904 . S
C883 C207 1.653 . S
C871 C47 1.566 . S
C898 C8 2.197 . S
C910 C237 2.391 . S
