# Generated by pormake.
# Topology pth, (4,4)-cn, num edge types: 1
# Building blocks:
#     Node 0, Type 0, BuildingBlock: TATPOV_clean_sbu_0, # of connection points: 4
#     Node 1, Type 0, BuildingBlock: TATPOV_clean_sbu_0, # of connection points: 4
#     Node 2, Type 0, BuildingBlock: TATPOV_clean_sbu_0, # of connection points: 4
#     Node 3, Type 1, BuildingBlock: MIFKUJ_clean_linker_1, # of connection points: 4
#     Node 4, Type 1, BuildingBlock: MIFKUJ_clean_linker_1, # of connection points: 4
#     Node 5, Type 1, BuildingBlock: MIFKUJ_clean_linker_1, # of connection points: 4
#     Edge 6, Type (0, 1), BuildingBlock: EZIPEK_clean_linker_0, # of connection points: 2
#     Edge 7, Type (0, 1), BuildingBlock: EZIPEK_clean_linker_0, # of connection points: 2
#     Edge 8, Type (0, 1), BuildingBlock: EZIPEK_clean_linker_0, # of connection points: 2
#     Edge 9, Type (0, 1), BuildingBlock: EZIPEK_clean_linker_0, # of connection points: 2
#     Edge 10, Type (0, 1), BuildingBlock: EZIPEK_clean_linker_0, # of connection points: 2
#     Edge 11, Type (0, 1), BuildingBlock: EZIPEK_clean_linker_0, # of connection points: 2
#     Edge 12, Type (0, 1), BuildingBlock: EZIPEK_clean_linker_0, # of connection points: 2
#     Edge 13, Type (0, 1), BuildingBlock: EZIPEK_clean_linker_0, # of connection points: 2
#     Edge 14, Type (0, 1), BuildingBlock: EZIPEK_clean_linker_0, # of connection points: 2
#     Edge 15, Type (0, 1), BuildingBlock: EZIPEK_clean_linker_0, # of connection points: 2
#     Edge 16, Type (0, 1), BuildingBlock: EZIPEK_clean_linker_0, # of connection points: 2
#     Edge 17, Type (0, 1), BuildingBlock: EZIPEK_clean_linker_0, # of connection points: 2
# Relax obj value: 0.039
# Max RMSD: 0.162
# Mean RMSD: 0.089
data_MOF--net-pth--node1-TATPOV_clean_sbu_0--node2-MIFKUJ_clean_linker_1--edge1-EZIPEK_clean_linker_0
_symmetry_space_group_name_H-M    P1
_symmetry_Int_Tables_number       1
_symmetry_cell_setting            triclinic
loop_
_symmetry_equiv_pos_as_xyz
'x, y, z'
_cell_length_a     23.243733
_cell_length_b     23.047789
_cell_length_c     48.422926
_cell_angle_alpha  92.564834
_cell_angle_beta   92.265724
_cell_angle_gamma 120.88278
loop_
_atom_site_label
_atom_site_type_symbol
_atom_site_fract_x
_atom_site_fract_y
_atom_site_fract_z
_atom_type_partial_charge
Zn0 Zn 0.14185 0.98659 0.00979 0.0
Zn1 Zn 0.07796 0.0393 0.03781 0.0
O2 O 0.09751 0.98878 0.0668 0.0
O3 O 0.15131 0.94683 0.04513 0.0
O4 O 0.04163 0.08742 0.06002 0.0
O5 O 0.21035 0.07903 0.99804 0.0
O6 O 0.1535 0.11808 0.01924 0.0
C7 C 0.12589 0.95409 0.06672 0.0
C8 C 0.00213 0.93378 0.99013 0.0
O9 O 0.00234 0.97255 0.00979 0.0
O10 O 0.05453 0.93189 0.98564 0.0
C11 C 0.08209 0.12999 0.07924 0.0
O12 O 0.14157 0.13722 0.08388 0.0
C13 C 0.20073 0.12717 0.00423 0.0
Zn14 Zn 0.15066 0.08699 0.34456 0.0
Zn15 Zn 0.04527 0.05383 0.37546 0.0
O16 O 0.12086 0.06845 0.40383 0.0
O17 O 0.20841 0.09972 0.37903 0.0
O18 O 0.96996 0.04145 0.39837 0.0
O19 O 0.14519 0.16251 0.32814 0.0
O20 O 0.05651 0.13091 0.35219 0.0
C21 C 0.18216 0.08598 0.40205 0.0
C22 C 0.03556 0.94978 0.33275 0.0
O23 O 0.0083 0.96466 0.3519 0.0
O24 O 0.09371 0.99255 0.32594 0.0
C25 C 0.95766 0.01527 0.42153 0.0
O26 O 0.99414 0.9917 0.4318 0.0
C27 C 0.09636 0.16849 0.33482 0.0
Zn28 Zn 0.09867 0.96307 0.74324 0.0
Zn29 Zn 0.03198 0.98448 0.7022 0.0
O30 O 0.10546 0.97911 0.68197 0.0
O31 O 0.15505 0.95314 0.71484 0.0
O32 O 0.9761 -0.005 0.67261 0.0
O33 O 0.01167 0.88695 0.75538 0.0
O34 O 0.95974 0.90093 0.71964 0.0
C35 C 0.15041 0.96636 0.69003 0.0
C36 C 0.10789 0.09252 0.74956 0.0
O37 O 0.06855 0.0713 0.72764 0.0
O38 O 0.12877 0.05652 0.75982 0.0
C39 C -0.00182 0.04428 0.65732 0.0
O40 O 0.06213 0.09168 0.65963 0.0
C41 C 0.95787 0.87088 0.74129 0.0
H42 H 0.12738 0.49081 0.1587 0.0
H43 H 0.13499 0.40206 0.13209 0.0
H44 H 0.94389 0.25026 0.15906 0.0
H45 H 0.93569 0.33883 0.18552 0.0
H46 H 0.04668 0.53599 0.15525 0.0
H47 H 0.12247 0.46024 0.22547 0.0
H48 H 0.13869 0.3856 0.25509 0.0
H49 H 0.93581 0.29927 0.27938 0.0
H50 H 0.91942 0.37464 0.24978 0.0
H51 H 0.89323 0.55537 0.23903 0.0
H52 H 0.88026 0.63821 0.26783 0.0
H53 H 0.09029 0.78623 0.26282 0.0
H54 H 0.10327 0.70392 0.23393 0.0
H55 H 0.98866 0.51335 0.25323 0.0
H56 H 0.95069 0.63976 0.18283 0.0
H57 H 0.97797 0.73878 0.15689 0.0
H58 H 0.16771 0.75971 0.13897 0.0
H59 H 0.14216 0.66282 0.1659 0.0
C60 C 0.03113 0.42145 0.1742 0.0
C61 C 0.087 0.43852 0.15885 0.0
C62 C 0.0915 0.38806 0.1438 0.0
C63 C 0.04009 0.31992 0.14379 0.0
C64 C 0.9841 0.30265 0.159 0.0
C65 C 0.97965 0.35309 0.17412 0.0
C66 C 0.02592 0.47494 0.19008 0.0
C67 C 0.03451 0.53135 0.17675 0.0
C68 C 0.01186 0.46999 0.21827 0.0
C69 C 0.01943 0.42221 0.23519 0.0
C70 C 0.0812 0.42487 0.23695 0.0
C71 C 0.09071 0.38289 0.25396 0.0
C72 C 0.03853 0.33756 0.26937 0.0
C73 C 0.97655 0.33438 0.26762 0.0
C74 C 0.96722 0.37701 0.25076 0.0
C75 C -0.00093 0.62399 0.23426 0.0
C76 C 0.93629 0.60584 0.24402 0.0
C77 C 0.92883 0.65276 0.26034 0.0
C78 C 0.98444 0.71777 0.26739 0.0
C79 C 0.04703 0.73605 0.25751 0.0
C80 C 0.05435 0.6894 0.24103 0.0
C81 C 0.00742 0.5733 0.21816 0.0
C82 C -0.00028 0.5174 0.23159 0.0
C83 C 0.02782 0.58204 0.19075 0.0
C84 C 0.04444 0.64382 0.1764 0.0
C85 C -0.00108 0.66661 0.17399 0.0
C86 C 0.01438 0.72299 0.1592 0.0
C87 C 0.07489 0.75641 0.14613 0.0
C88 C 0.12101 0.73475 0.14906 0.0
C89 C 0.10604 0.67911 0.16416 0.0
H90 H 0.68668 0.12548 0.49191 0.0
H91 H 0.7725 0.11902 0.46589 0.0
H92 H 0.70862 0.92249 0.49528 0.0
H93 H 0.62311 0.92867 0.5212 0.0
H94 H 0.54798 0.0469 0.49249 0.0
H95 H 0.73545 0.12882 0.55377 0.0
H96 H 0.83583 0.13686 0.57644 0.0
H97 H 0.71124 0.94664 0.61188 0.0
H98 H 0.6104 0.93781 0.58889 0.0
H99 H 0.41139 0.9102 0.58177 0.0
H100 H 0.32901 0.89513 0.6137 0.0
H101 H 0.37929 0.10158 0.60589 0.0
H102 H 0.46093 0.11535 0.57333 0.0
H103 H 0.55518 0.01457 0.59293 0.0
H104 H 0.36244 0.95128 0.52657 0.0
H105 H 0.27829 0.96412 0.49969 0.0
H106 H 0.43478 0.15708 0.47543 0.0
H107 H 0.5188 0.14534 0.5028 0.0
C108 C 0.64892 0.02775 0.50857 0.0
C109 C 0.69058 0.08067 0.49242 0.0
C110 C 0.73956 0.07718 0.47777 0.0
C111 C 0.7467 0.02042 0.4789 0.0
C112 C 0.7037 0.96663 0.49429 0.0
C113 C 0.65513 0.97025 0.50901 0.0
C114 C 0.6015 0.03344 0.52646 0.0
C115 C 0.54988 0.0408 0.51453 0.0
C116 C 0.60531 0.02753 0.55526 0.0
C117 C 0.66548 0.03239 0.56949 0.0
C118 C 0.72964 0.08849 0.56623 0.0
C119 C 0.7868 0.09325 0.57913 0.0
C120 C 0.78054 0.04221 0.59563 0.0
C121 C 0.71665 0.98627 0.59907 0.0
C122 C 0.65935 0.98147 0.58614 0.0
C123 C 0.44532 0.01519 0.5765 0.0
C124 C 0.40631 0.95308 0.58788 0.0
C125 C 0.36059 0.94556 0.60729 0.0
C126 C 0.3563 0.00155 0.61766 0.0
C127 C 0.38839 0.06042 0.60268 0.0
C128 C 0.43383 0.06792 0.58301 0.0
C129 C 0.49937 0.02461 0.55875 0.0
C130 C 0.55309 0.02085 0.5709 0.0
C131 C 0.49924 0.0378 0.53049 0.0
C132 C 0.44694 0.0475 0.51677 0.0
C133 C 0.3785 -0.00276 0.51615 0.0
C134 C 0.33054 0.00446 0.50084 0.0
C135 C 0.35058 0.06161 0.48571 0.0
C136 C 0.41851 0.11291 0.48713 0.0
C137 C 0.46632 0.10591 0.50255 0.0
H138 H 0.43675 0.40467 0.81999 0.0
H139 H 0.33574 0.31066 0.79513 0.0
H140 H 0.21398 0.37738 0.83438 0.0
H141 H 0.31577 0.47139 0.86001 0.0
H142 H 0.485 0.53973 0.81673 0.0
H143 H 0.42854 0.38062 0.88142 0.0
H144 H 0.36558 0.29315 0.91319 0.0
H145 H 0.33125 0.43302 0.96138 0.0
H146 H 0.39459 0.52126 0.92945 0.0
H147 H 0.5925 0.7121 0.91735 0.0
H148 H 0.69954 0.79394 0.94315 0.0
H149 H 0.79781 0.70435 0.90038 0.0
H150 H 0.69055 0.62132 0.87506 0.0
H151 H 0.52823 0.57209 0.91896 0.0
H152 H 0.6426 0.73739 0.85051 0.0
H153 H 0.73757 0.79712 0.82178 0.0
H154 H 0.68398 0.60755 0.77749 0.0
H155 H 0.59287 0.54692 0.80775 0.0
C156 C 0.38342 0.44462 0.84179 0.0
C157 C 0.38834 0.39897 0.82337 0.0
C158 C 0.33093 0.34556 0.80923 0.0
C159 C 0.26778 0.33736 0.81304 0.0
C160 C 0.26249 0.38305 0.83137 0.0
C161 C 0.32019 0.43621 0.84595 0.0
C162 C 0.44535 0.50236 0.85568 0.0
C163 C 0.49473 0.54717 0.8391 0.0
C164 C 0.45787 0.51069 0.88475 0.0
C165 C 0.41493 0.45694 0.90277 0.0
C166 C 0.40654 0.39228 0.89852 0.0
C167 C 0.37147 0.34273 0.91677 0.0
C168 C 0.34444 0.35712 0.93959 0.0
C169 C 0.35224 0.42147 0.94388 0.0
C170 C 0.38783 0.47138 0.92565 0.0
C171 C 0.63396 0.66132 0.89412 0.0
C172 C 0.63719 0.71039 0.91341 0.0
C173 C 0.69797 0.75704 0.92799 0.0
C174 C 0.75611 0.75505 0.92342 0.0
C175 C 0.75326 0.70665 0.90391 0.0
C176 C 0.69234 0.65961 0.88949 0.0
C177 C 0.56861 0.60973 0.88001 0.0
C178 C 0.51812 0.56617 0.89661 0.0
C179 C 0.55749 0.59916 0.85075 0.0
C180 C 0.61126 0.63736 0.83182 0.0
C181 C 0.65179 0.70839 0.83498 0.0
C182 C 0.70562 0.74253 0.81846 0.0
C183 C 0.7182 0.70651 0.79778 0.0
C184 C 0.67555 0.63606 0.79356 0.0
C185 C 0.62323 0.6017 0.81069 0.0
C186 C 0.06538 0.17269 0.12483 0.0
C187 C 0.06445 0.17376 0.09554 0.0
C188 C 0.03493 0.26166 0.09806 0.0
C189 C 0.04476 0.26684 0.12736 0.0
N190 N 0.07625 0.23278 0.16895 0.0
N191 N 0.05812 0.22602 0.05426 0.0
C192 C 0.06155 0.2236 0.1409 0.0
C193 C 0.05127 0.21965 0.08207 0.0
N194 N 0.06798 0.12184 0.13721 0.0
N195 N 0.00889 0.29609 0.08556 0.0
H196 H 0.07123 0.19723 0.04174 0.0
H197 H 0.05668 0.26405 0.04399 0.0
H198 H -0.00362 0.32745 0.09665 0.0
H199 H 0.99393 0.28873 0.06451 0.0
H200 H 0.06198 0.11432 0.1582 0.0
H201 H 0.06977 0.08311 0.12603 0.0
H202 H 0.09605 0.2079 0.17958 0.0
H203 H 0.07354 0.2692 0.18148 0.0
C204 C 0.91821 0.04889 0.46354 0.0
C205 C 0.90309 0.0133 0.43703 0.0
C206 C 0.78629 0.98603 0.4373 0.0
C207 C 0.80044 0.01772 0.4645 0.0
N208 N 0.87576 0.06897 0.50562 0.0
N209 N 0.82069 0.937 0.40094 0.0
C210 C 0.8652 0.04591 0.4783 0.0
C211 C 0.83649 0.97882 0.4245 0.0
N212 N 0.98355 0.08854 0.47399 0.0
N213 N 0.72528 0.964 0.42352 0.0
H214 H 0.85584 0.92934 0.39129 0.0
H215 H 0.77175 0.90507 0.39237 0.0
H216 H 0.68666 0.96685 0.43251 0.0
H217 H 0.71455 0.94755 0.40256 0.0
H218 H -0.00178 0.12154 0.49172 0.0
H219 H 0.0241 0.09311 0.46371 0.0
H220 H 0.91953 0.08262 0.51771 0.0
H221 H 0.8387 0.06952 0.51691 0.0
C222 C 0.84219 0.84122 0.75415 0.0
C223 C 0.8924 0.82353 0.7523 0.0
C224 C 0.82901 0.7292 0.78111 0.0
C225 C 0.77611 0.74312 0.78054 0.0
N226 N 0.72462 0.79973 0.75925 0.0
N227 N 0.92364 0.73945 0.7578 0.0
C228 C 0.78009 0.79486 0.76457 0.0
C229 C 0.8826 0.76381 0.76378 0.0
N230 N 0.85497 0.90407 0.74824 0.0
N231 N 0.83029 0.68594 0.79917 0.0
H232 H 0.96178 0.76211 0.74428 0.0
H233 H 0.91491 0.69287 0.76377 0.0
H234 H 0.79367 0.66167 0.81316 0.0
H235 H 0.87129 0.67955 0.80219 0.0
H236 H 0.82148 0.92045 0.7519 0.0
H237 H 0.90152 0.94291 0.74303 0.0
H238 H 0.72382 0.83311 0.74562 0.0
H239 H 0.67767 0.76552 0.76604 0.0
C240 C 0.15465 0.92557 0.11297 0.0
C241 C 0.11169 0.90658 0.08849 0.0
C242 C 0.04699 0.78964 0.10136 0.0
C243 C 0.08682 0.8091 0.12681 0.0
N244 N 0.17134 0.89718 0.15917 0.0
N245 N 0.00705 0.82579 0.06286 0.0
C246 C 0.13872 0.87769 0.13333 0.0
C247 C 0.05474 0.84021 0.0838 0.0
N248 N 0.21098 0.98874 0.11645 0.0
N249 N 0.00397 0.72255 0.09326 0.0
H250 H 0.01021 0.86191 0.0498 0.0
H251 H 0.96114 0.78018 0.06029 0.0
H252 H -0.00234 0.68331 0.10513 0.0
H253 H 0.97943 0.70551 0.07354 0.0
H254 H 0.2482 0.00354 0.13243 0.0
H255 H 0.22247 0.02524 0.10223 0.0
H256 H 0.20521 0.94746 0.16613 0.0
H257 H 0.16043 0.86339 0.17454 0.0
C258 C 0.23423 0.0243 0.42153 0.0
C259 C 0.21902 0.07627 0.42521 0.0
C260 C 0.27935 0.10995 0.47121 0.0
C261 C 0.30215 0.06429 0.46569 0.0
N262 N 0.30963 0.98509 0.43379 0.0
N263 N 0.22891 0.17121 0.45256 0.0
C264 C 0.28158 0.02308 0.44042 0.0
C265 C 0.24155 0.11958 0.44992 0.0
N266 N 0.20186 0.97481 0.40034 0.0
N267 N 0.29298 0.14305 0.49692 0.0
H268 H 0.20036 0.17863 0.43752 0.0
H269 H 0.24999 0.2091 0.46871 0.0
H270 H 0.32067 0.13705 0.51283 0.0
H271 H 0.27259 0.17208 0.50319 0.0
H272 H 0.20561 0.93169 0.39843 0.0
H273 H 0.1658 0.97312 0.38625 0.0
H274 H 0.30231 0.96048 0.41426 0.0
H275 H 0.34503 0.98283 0.44687 0.0
C276 C 0.16924 0.21992 0.75115 0.0
C277 C 0.12955 0.15897 0.76412 0.0
C278 C 0.16551 0.22053 0.80987 0.0
C279 C 0.20844 0.28059 0.79704 0.0
N280 N 0.23441 0.34297 0.75632 0.0
N281 N 0.07087 0.10499 0.80385 0.0
C282 C 0.20396 0.28205 0.76786 0.0
C283 C 0.12106 0.16081 0.7929 0.0
N284 N 0.17819 0.21819 0.72347 0.0
N285 N 0.17047 0.21922 0.83803 0.0
H286 H 0.03715 0.06096 0.79155 0.0
H287 H 0.05853 0.10477 0.8243 0.0
H288 H 0.20188 0.26221 0.85122 0.0
H289 H 0.14629 0.17479 0.84822 0.0
H290 H 0.2132 0.26015 0.71371 0.0
H291 H 0.15355 0.17394 0.71038 0.0
H292 H 0.22854 0.34797 0.73529 0.0
H293 H 0.26019 0.38901 0.76839 0.0
C294 C 0.9239 0.09159 0.65 0.0
C295 C 0.94956 0.05155 0.63954 0.0
C296 C 0.87196 0.01496 0.59801 0.0
C297 C 0.84098 0.04832 0.61007 0.0
N298 N 0.83315 0.11472 0.64803 0.0
N299 N 0.94769 0.97268 0.60463 0.0
C300 C 0.86616 0.08621 0.63611 0.0
C301 C 0.92377 0.01283 0.61371 0.0
N302 N 0.95488 0.13475 0.67321 0.0
N303 N 0.85246 0.98642 0.57139 0.0
H304 H 0.9878 0.97247 0.615 0.0
H305 H 0.92585 0.93709 0.58768 0.0
H306 H 0.81392 0.98623 0.5595 0.0
H307 H 0.87753 0.9675 0.56029 0.0
H308 H 0.94324 0.17056 0.68028 0.0
H309 H -0.00383 0.13861 0.68436 0.0
H310 H 0.84395 0.13613 0.66833 0.0
H311 H 0.79154 0.11314 0.63822 0.0
C312 C 0.90521 0.81756 0.97582 0.0
C313 C 0.93948 0.8884 0.97285 0.0
C314 C 0.85677 0.87097 0.93546 0.0
C315 C 0.81933 0.80124 0.94035 0.0
N316 N 0.80049 0.70999 0.96844 0.0
N317 N 0.94529 0.98442 0.95213 0.0
C318 C 0.84151 0.77496 0.96142 0.0
C319 C 0.91429 0.91575 0.95342 0.0
N320 N 0.93377 0.79069 0.99209 0.0
N321 N 0.83875 0.89375 0.91304 0.0
H322 H 0.98945 0.01868 0.96396 0.0
H323 H 0.92504 0.00775 0.94068 0.0
H324 H 0.79698 0.86222 0.89941 0.0
H325 H 0.86797 0.94243 0.90659 0.0
H326 H 0.91465 0.73882 0.99249 0.0
H327 H 0.97976 0.82002 0.0035 0.0
H328 H 0.81069 0.69054 0.98573 0.0
H329 H 0.75307 0.67712 0.95853 0.0
C330 C 0.97723 0.87291 0.29055 0.0
C331 C 0.00153 0.88134 0.31857 0.0
C332 C 0.99077 0.76998 0.31455 0.0
C333 C 0.97853 0.76755 0.28548 0.0
N334 N 0.95624 0.81295 0.24533 0.0
N335 N 0.02949 0.83886 0.35827 0.0
C336 C 0.9694 0.8174 0.27337 0.0
C337 C 0.00622 0.82936 0.33108 0.0
N338 N 0.96204 0.91842 0.2806 0.0
N339 N 0.98845 0.71587 0.32614 0.0
H340 H 0.03861 0.8806 0.37119 0.0
H341 H 0.04243 0.80717 0.36783 0.0
H342 H 0.97873 0.67229 0.31442 0.0
H343 H 0.99088 0.71164 0.3474 0.0
H344 H 0.93943 0.91307 0.26093 0.0
H345 H 0.96692 0.95899 0.29313 0.0
H346 H 0.95661 0.85131 0.23465 0.0
H347 H 0.94743 0.77132 0.23239 0.0
C348 C 0.21613 0.92224 0.66685 0.0
C349 C 0.20397 0.97592 0.67188 0.0
C350 C 0.31059 0.05325 0.65235 0.0
C351 C 0.31413 -0.00324 0.64184 0.0
N352 N 0.30425 0.89816 0.6616 0.0
N353 N 0.24238 0.09536 0.67036 0.0
C354 C 0.27638 0.93588 0.65516 0.0
C355 C 0.25176 0.04226 0.66476 0.0
N356 N 0.17022 0.858 0.67302 0.0
N357 N 0.36758 0.11589 0.65532 0.0
H358 H 0.20295 0.09155 0.68124 0.0
H359 H 0.27206 0.14258 0.66261 0.0
H360 H 0.41451 0.12272 0.65153 0.0
H361 H 0.37006 0.15817 0.66533 0.0
H362 H 0.17496 0.81646 0.66746 0.0
H363 H 0.1249 0.84563 0.68135 0.0
H364 H 0.28112 0.85648 0.67349 0.0
H365 H 0.35473 0.91543 0.65885 0.0
C366 C 0.20106 0.20112 0.96797 0.0
C367 C 0.23646 0.19025 0.98982 0.0
C368 C 0.33996 0.2959 0.98174 0.0
C369 C 0.30602 0.30319 0.95835 0.0
N370 N 0.20654 0.26244 0.92773 0.0
N371 N 0.33897 0.22396 0.01718 0.0
C372 C 0.23696 0.25608 0.95124 0.0
C373 C 0.30578 0.23692 0.9967 0.0
N374 N 0.13308 0.15851 0.96307 0.0
N375 N 0.40464 0.34583 0.98967 0.0
H376 H 0.31461 0.18305 0.02942 0.0
H377 H 0.39088 0.25146 0.02132 0.0
H378 H 0.43138 0.38891 0.9788 0.0
H379 H 0.43056 0.34731 0.00795 0.0
H380 H 0.103 0.16837 0.94999 0.0
H381 H 0.10532 0.11451 0.97322 0.0
H382 H 0.15912 0.22536 0.91916 0.0
H383 H 0.23027 0.30369 0.91562 0.0
C384 C 0.05094 0.18792 0.29108 0.0
C385 C 0.07882 0.21083 0.31879 0.0
C386 C 0.07068 0.31209 0.3153 0.0
C387 C 0.04896 0.29225 0.28682 0.0
N388 N 0.02387 0.21543 0.24654 0.0
N389 N 0.12029 0.29561 0.35712 0.0
C390 C 0.04048 0.23121 0.27441 0.0
C391 C 0.08966 0.273 0.33097 0.0
N392 N 0.03222 0.1237 0.28104 0.0
N393 N 0.07261 0.36798 0.32729 0.0
H394 H 0.13378 0.26754 0.36924 0.0
H395 H 0.13634 0.34373 0.36624 0.0
H396 H 0.06115 0.39897 0.3162 0.0
H397 H 0.08116 0.38138 0.34851 0.0
H398 H 0.00478 0.10119 0.26216 0.0
H399 H 0.03919 0.09033 0.29257 0.0
H400 H 0.02543 0.17641 0.23559 0.0
H401 H 0.01243 0.24406 0.23383 0.0
loop_
_geom_bond_atom_site_label_1
_geom_bond_atom_site_label_2
_geom_bond_distance
_geom_bond_site_symmetry_2
_ccdc_geom_bond_type
Zn0 O3 2.031 . S
Zn0 O5 2.049 1_564 S
Zn0 O10 2.067 1_554 S
Zn1 O2 1.962 . S
Zn1 O4 1.986 . S
Zn1 O6 1.996 . S
Zn1 O9 1.943 . S
O2 Zn1 1.962 . S
O2 C7 1.254 1_545 S
O3 Zn0 2.031 . S
O3 C7 1.269 . S
O4 Zn1 1.986 . S
O4 C11 1.262 . S
O5 Zn0 2.049 1_546 S
O5 C13 1.260 1_556 S
O6 Zn1 1.996 . S
O6 C13 1.257 . S
C7 O2 1.254 1_565 S
C7 O3 1.269 . S
C8 O9 1.249 1_665 S
C8 O10 1.270 1_654 S
O9 Zn1 1.943 . S
O9 C8 1.249 1_445 S
O10 Zn0 2.067 1_556 S
O10 C8 1.270 1_456 S
C11 O4 1.262 . S
C11 O12 1.232 . S
O12 C11 1.232 . S
C13 O5 1.260 1_554 S
C13 O6 1.257 . S
Zn14 O17 2.031 . S
Zn14 O19 2.049 . S
Zn14 O24 2.067 . S
Zn15 O16 1.962 . S
Zn15 O18 1.986 1_455 S
Zn15 O20 1.996 . S
Zn15 O23 1.943 1_445 S
O16 Zn15 1.962 . S
O16 C21 1.254 . S
O17 Zn14 2.031 . S
O17 C21 1.269 . S
O18 Zn15 1.986 1_655 S
O18 C25 1.262 . S
O19 Zn14 2.049 . S
O19 C27 1.260 . S
O20 Zn15 1.996 . S
O20 C27 1.257 . S
C21 O16 1.254 . S
C21 O17 1.269 . S
C22 O23 1.249 1_455 S
C22 O24 1.270 1_565 S
O23 Zn15 1.943 1_665 S
O23 C22 1.249 1_655 S
O24 Zn14 2.067 . S
O24 C22 1.270 1_545 S
C25 O18 1.262 . S
C25 O26 1.232 1_545 S
O26 C25 1.232 1_565 S
C27 O19 1.260 . S
C27 O20 1.257 . S
Zn28 O31 2.031 1_565 S
Zn28 O33 2.049 . S
Zn28 O38 2.067 1_565 S
Zn29 O30 1.962 1_545 S
Zn29 O32 1.986 1_445 S
Zn29 O34 1.996 1_445 S
Zn29 O37 1.943 . S
O30 Zn29 1.962 1_565 S
O30 C35 1.254 . S
O31 Zn28 2.031 1_545 S
O31 C35 1.269 1_545 S
O32 Zn29 1.986 1_665 S
O32 C39 1.262 1_565 S
O33 Zn28 2.049 . S
O33 C41 1.260 1_455 S
O34 Zn29 1.996 1_665 S
O34 C41 1.257 . S
C35 O30 1.254 . S
C35 O31 1.269 1_565 S
C36 O37 1.249 . S
C36 O38 1.270 . S
O37 Zn29 1.943 . S
O37 C36 1.249 . S
O38 Zn28 2.067 1_545 S
O38 C36 1.270 . S
C39 O32 1.262 1_545 S
C39 O40 1.232 1_655 S
O40 C39 1.232 1_455 S
C41 O33 1.260 1_655 S
C41 O34 1.257 . S
H42 C61 0.949 . S
H43 C62 0.950 . S
H44 C64 0.950 1_655 S
H45 C65 0.950 1_655 S
H46 C67 0.950 . S
H47 C70 0.950 . S
H48 C71 0.950 . S
H49 C73 0.951 . S
H50 C74 0.949 . S
H51 C76 0.949 . S
H52 C77 0.950 . S
H53 C79 0.950 . S
H54 C80 0.950 . S
H55 C82 0.950 . S
H56 C85 0.950 1_655 S
H57 C86 0.950 1_655 S
H58 C88 0.951 . S
H59 C89 0.949 . S
C60 C61 1.376 . S
C60 C65 1.386 . S
C60 C66 1.483 . S
C61 H42 0.949 . S
C61 C60 1.376 . S
C61 C62 1.397 . S
C62 H43 0.950 . S
C62 C61 1.397 . S
C62 C63 1.391 . S
C63 C62 1.391 . S
C63 C64 1.405 . S
C64 H44 0.950 1_455 S
C64 C63 1.405 . S
C64 C65 1.367 . S
C65 H45 0.950 1_455 S
C65 C60 1.386 . S
C65 C64 1.367 . S
C66 C60 1.483 . S
C66 C67 1.382 . S
C66 C68 1.403 . S
C67 H46 0.950 . S
C67 C66 1.382 . S
C67 C83 1.411 . S
C68 C66 1.403 . S
C68 C69 1.489 . S
C68 C82 1.411 . S
C69 C68 1.489 . S
C69 C70 1.383 . S
C69 C74 1.382 1_455 S
C70 H47 0.950 . S
C70 C69 1.383 . S
C70 C71 1.395 . S
C71 H48 0.950 . S
C71 C70 1.395 . S
C71 C72 1.288 . S
C72 C71 1.288 . S
C72 C73 1.392 1_455 S
C73 H49 0.951 . S
C73 C72 1.392 1_655 S
C73 C74 1.392 . S
C74 H50 0.949 . S
C74 C69 1.382 1_655 S
C74 C73 1.392 . S
C75 C76 1.376 1_455 S
C75 C80 1.386 . S
C75 C81 1.483 . S
C76 H51 0.949 . S
C76 C75 1.376 1_655 S
C76 C77 1.397 . S
C77 H52 0.950 . S
C77 C76 1.397 . S
C77 C78 1.391 1_655 S
C78 C77 1.391 1_455 S
C78 C79 1.405 . S
C79 H53 0.950 . S
C79 C78 1.405 . S
C79 C80 1.367 . S
C80 H54 0.950 . S
C80 C75 1.386 . S
C80 C79 1.367 . S
C81 C75 1.483 . S
C81 C82 1.382 . S
C81 C83 1.403 . S
C82 H55 0.950 . S
C82 C68 1.411 . S
C82 C81 1.382 . S
C83 C67 1.411 . S
C83 C81 1.403 . S
C83 C84 1.489 . S
C84 C83 1.489 . S
C84 C85 1.383 . S
C84 C89 1.382 . S
C85 H56 0.950 1_455 S
C85 C84 1.383 . S
C85 C86 1.395 . S
C86 H57 0.950 1_455 S
C86 C85 1.395 . S
C86 C87 1.288 . S
C87 C86 1.288 . S
C87 C88 1.392 . S
C88 H58 0.951 . S
C88 C87 1.392 . S
C88 C89 1.392 . S
C89 H59 0.949 . S
C89 C84 1.382 . S
C89 C88 1.392 . S
H90 C109 0.949 . S
H91 C110 0.950 . S
H92 C112 0.950 . S
H93 C113 0.950 . S
H94 C115 0.950 . S
H95 C118 0.950 . S
H96 C119 0.950 . S
H97 C121 0.951 . S
H98 C122 0.949 . S
H99 C124 0.949 . S
H100 C125 0.950 . S
H101 C127 0.950 . S
H102 C128 0.950 . S
H103 C130 0.950 . S
H104 C133 0.950 . S
H105 C134 0.950 1_565 S
H106 C136 0.951 . S
H107 C137 0.949 . S
C108 C109 1.376 . S
C108 C113 1.386 1_545 S
C108 C114 1.483 . S
C109 H90 0.949 . S
C109 C108 1.376 . S
C109 C110 1.397 . S
C110 H91 0.950 . S
C110 C109 1.397 . S
C110 C111 1.391 . S
C111 C110 1.391 . S
C111 C112 1.405 1_545 S
C112 H92 0.950 . S
C112 C111 1.405 1_565 S
C112 C113 1.367 . S
C113 H93 0.950 . S
C113 C108 1.386 1_565 S
C113 C112 1.367 . S
C114 C108 1.483 . S
C114 C115 1.382 . S
C114 C116 1.403 . S
C115 H94 0.950 . S
C115 C114 1.382 . S
C115 C131 1.411 . S
C116 C114 1.403 . S
C116 C117 1.489 . S
C116 C130 1.411 . S
C117 C116 1.489 . S
C117 C118 1.383 . S
C117 C122 1.382 1_545 S
C118 H95 0.950 . S
C118 C117 1.383 . S
C118 C119 1.395 . S
C119 H96 0.950 . S
C119 C118 1.395 . S
C119 C120 1.288 . S
C120 C119 1.288 . S
C120 C121 1.392 1_545 S
C121 H97 0.951 . S
C121 C120 1.392 1_565 S
C121 C122 1.392 . S
C122 H98 0.949 . S
C122 C117 1.382 1_565 S
C122 C121 1.392 . S
C123 C124 1.376 1_545 S
C123 C128 1.386 . S
C123 C129 1.483 . S
C124 H99 0.949 . S
C124 C123 1.376 1_565 S
C124 C125 1.397 . S
C125 H100 0.950 . S
C125 C124 1.397 . S
C125 C126 1.391 1_565 S
C126 C125 1.391 1_545 S
C126 C127 1.405 . S
C127 H101 0.950 . S
C127 C126 1.405 . S
C127 C128 1.367 . S
C128 H102 0.950 . S
C128 C123 1.386 . S
C128 C127 1.367 . S
C129 C123 1.483 . S
C129 C130 1.382 . S
C129 C131 1.403 . S
C130 H103 0.950 . S
C130 C116 1.411 . S
C130 C129 1.382 . S
C131 C115 1.411 . S
C131 C129 1.403 . S
C131 C132 1.489 . S
C132 C131 1.489 . S
C132 C133 1.383 1_545 S
C132 C137 1.382 . S
C133 H104 0.950 . S
C133 C132 1.383 1_565 S
C133 C134 1.395 1_565 S
C134 H105 0.950 1_545 S
C134 C133 1.395 1_545 S
C134 C135 1.288 . S
C135 C134 1.288 . S
C135 C136 1.392 . S
C136 H106 0.951 . S
C136 C135 1.392 . S
C136 C137 1.392 . S
C137 H107 0.949 . S
C137 C132 1.382 . S
C137 C136 1.392 . S
H138 C157 0.949 . S
H139 C158 0.950 . S
H140 C160 0.950 . S
H141 C161 0.950 . S
H142 C163 0.950 . S
H143 C166 0.950 . S
H144 C167 0.950 . S
H145 C169 0.951 . S
H146 C170 0.949 . S
H147 C172 0.949 . S
H148 C173 0.950 . S
H149 C175 0.950 . S
H150 C176 0.950 . S
H151 C178 0.950 . S
H152 C181 0.950 . S
H153 C182 0.950 . S
H154 C184 0.951 . S
H155 C185 0.949 . S
C156 C157 1.376 . S
C156 C161 1.386 . S
C156 C162 1.483 . S
C157 H138 0.949 . S
C157 C156 1.376 . S
C157 C158 1.397 . S
C158 H139 0.950 . S
C158 C157 1.397 . S
C158 C159 1.391 . S
C159 C158 1.391 . S
C159 C160 1.405 . S
C160 H140 0.950 . S
C160 C159 1.405 . S
C160 C161 1.367 . S
C161 H141 0.950 . S
C161 C156 1.386 . S
C161 C160 1.367 . S
C162 C156 1.483 . S
C162 C163 1.382 . S
C162 C164 1.403 . S
C163 H142 0.950 . S
C163 C162 1.382 . S
C163 C179 1.411 . S
C164 C162 1.403 . S
C164 C165 1.489 . S
C164 C178 1.411 . S
C165 C164 1.489 . S
C165 C166 1.383 . S
C165 C170 1.382 . S
C166 H143 0.950 . S
C166 C165 1.383 . S
C166 C167 1.395 . S
C167 H144 0.950 . S
C167 C166 1.395 . S
C167 C168 1.288 . S
C168 C167 1.288 . S
C168 C169 1.392 . S
C169 H145 0.951 . S
C169 C168 1.392 . S
C169 C170 1.392 . S
C170 H146 0.949 . S
C170 C165 1.382 . S
C170 C169 1.392 . S
C171 C172 1.376 . S
C171 C176 1.386 . S
C171 C177 1.483 . S
C172 H147 0.949 . S
C172 C171 1.376 . S
C172 C173 1.397 . S
C173 H148 0.950 . S
C173 C172 1.397 . S
C173 C174 1.391 . S
C174 C173 1.391 . S
C174 C175 1.405 . S
C175 H149 0.950 . S
C175 C174 1.405 . S
C175 C176 1.367 . S
C176 H150 0.950 . S
C176 C171 1.386 . S
C176 C175 1.367 . S
C177 C171 1.483 . S
C177 C178 1.382 . S
C177 C179 1.403 . S
C178 H151 0.950 . S
C178 C164 1.411 . S
C178 C177 1.382 . S
C179 C163 1.411 . S
C179 C177 1.403 . S
C179 C180 1.489 . S
C180 C179 1.489 . S
C180 C181 1.383 . S
C180 C185 1.382 . S
C181 H152 0.950 . S
C181 C180 1.383 . S
C181 C182 1.395 . S
C182 H153 0.950 . S
C182 C181 1.395 . S
C182 C183 1.288 . S
C183 C182 1.288 . S
C183 C184 1.392 . S
C184 H154 0.951 . S
C184 C183 1.392 . S
C184 C185 1.392 . S
C185 H155 0.949 . S
C185 C180 1.382 . S
C185 C184 1.392 . S
C186 C187 1.363 1_655 S
C186 C192 1.379 1_655 S
C186 N194 1.356 . S
C187 C186 1.363 1_455 S
C187 C193 1.363 . S
C188 C189 1.363 . S
C188 C193 1.379 . S
C188 N195 1.356 . S
C189 C188 1.363 . S
C189 C192 1.363 . S
N190 C192 1.356 1_655 S
N190 H202 0.984 . S
N190 H203 0.985 . S
N191 C193 1.356 . S
N191 H196 0.984 . S
N191 H197 0.985 . S
C192 C186 1.379 1_455 S
C192 C189 1.363 . S
C192 N190 1.356 1_455 S
C193 C187 1.363 . S
C193 C188 1.379 . S
C193 N191 1.356 . S
N194 C186 1.356 . S
N194 H200 0.984 . S
N194 H201 0.984 . S
N195 C188 1.356 . S
N195 H198 0.984 . S
N195 H199 0.985 . S
H196 N191 0.984 . S
H197 N191 0.985 . S
H198 N195 0.984 . S
H199 N195 0.985 . S
H200 N194 0.984 . S
H201 N194 0.984 . S
H202 N190 0.984 . S
H203 N190 0.985 . S
C204 C205 1.363 . S
C204 C210 1.379 . S
C204 N212 1.356 . S
C205 C204 1.363 . S
C205 C211 1.363 1_545 S
C206 C207 1.363 1_565 S
C206 C211 1.379 . S
C206 N213 1.356 . S
C207 C206 1.363 1_545 S
C207 C210 1.363 . S
N208 C210 1.356 . S
N208 H220 0.984 . S
N208 H221 0.985 . S
N209 C211 1.356 . S
N209 H214 0.984 . S
N209 H215 0.985 . S
C210 C204 1.379 . S
C210 C207 1.363 . S
C210 N208 1.356 . S
C211 C205 1.363 1_565 S
C211 C206 1.379 . S
C211 N209 1.356 . S
N212 C204 1.356 . S
N212 H218 0.984 . S
N212 H219 0.984 . S
N213 C206 1.356 . S
N213 H216 0.984 . S
N213 H217 0.985 . S
H214 N209 0.984 . S
H215 N209 0.985 . S
H216 N213 0.984 . S
H217 N213 0.985 . S
H218 N212 0.984 . S
H219 N212 0.984 . S
H220 N208 0.984 . S
H221 N208 0.985 . S
C222 C223 1.363 . S
C222 C228 1.379 . S
C222 N230 1.356 . S
C223 C222 1.363 . S
C223 C229 1.363 . S
C224 C225 1.363 . S
C224 C229 1.379 . S
C224 N231 1.356 . S
C225 C224 1.363 . S
C225 C228 1.363 . S
N226 C228 1.356 . S
N226 H238 0.984 . S
N226 H239 0.985 . S
N227 C229 1.356 . S
N227 H232 0.984 1_655 S
N227 H233 0.985 1_655 S
C228 C222 1.379 . S
C228 C225 1.363 . S
C228 N226 1.356 . S
C229 C223 1.363 . S
C229 C224 1.379 . S
C229 N227 1.356 . S
N230 C222 1.356 . S
N230 H236 0.984 . S
N230 H237 0.984 . S
N231 C224 1.356 . S
N231 H234 0.984 . S
N231 H235 0.985 . S
H232 N227 0.984 1_455 S
H233 N227 0.985 1_455 S
H234 N231 0.984 . S
H235 N231 0.985 . S
H236 N230 0.984 . S
H237 N230 0.984 . S
H238 N226 0.984 . S
H239 N226 0.985 . S
C240 C241 1.363 . S
C240 C246 1.379 . S
C240 N248 1.356 1_565 S
C241 C240 1.363 . S
C241 C247 1.363 . S
C242 C243 1.363 . S
C242 C247 1.379 . S
C242 N249 1.356 1_455 S
C243 C242 1.363 . S
C243 C246 1.363 . S
N244 C246 1.356 . S
N244 H256 0.984 . S
N244 H257 0.985 . S
N245 C247 1.356 . S
N245 H250 0.984 . S
N245 H251 0.985 1_455 S
C246 C240 1.379 . S
C246 C243 1.363 . S
C246 N244 1.356 . S
C247 C241 1.363 . S
C247 C242 1.379 . S
C247 N245 1.356 . S
N248 C240 1.356 1_545 S
N248 H254 0.984 . S
N248 H255 0.984 . S
N249 C242 1.356 1_655 S
N249 H252 0.984 . S
N249 H253 0.985 . S
H250 N245 0.984 . S
H251 N245 0.985 1_655 S
H252 N249 0.984 . S
H253 N249 0.985 . S
H254 N248 0.984 . S
H255 N248 0.984 . S
H256 N244 0.984 . S
H257 N244 0.985 . S
C258 C259 1.363 . S
C258 C264 1.379 . S
C258 N266 1.356 1_545 S
C259 C258 1.363 . S
C259 C265 1.363 . S
C260 C261 1.363 . S
C260 C265 1.379 . S
C260 N267 1.356 . S
C261 C260 1.363 . S
C261 C264 1.363 . S
N262 C264 1.356 1_565 S
N262 H274 0.984 . S
N262 H275 0.985 . S
N263 C265 1.356 . S
N263 H268 0.984 . S
N263 H269 0.985 . S
C264 C258 1.379 . S
C264 C261 1.363 . S
C264 N262 1.356 1_545 S
C265 C259 1.363 . S
C265 C260 1.379 . S
C265 N263 1.356 . S
N266 C258 1.356 1_565 S
N266 H272 0.984 . S
N266 H273 0.984 1_565 S
N267 C260 1.356 . S
N267 H270 0.984 . S
N267 H271 0.985 . S
H268 N263 0.984 . S
H269 N263 0.985 . S
H270 N267 0.984 . S
H271 N267 0.985 . S
H272 N266 0.984 . S
H273 N266 0.984 1_545 S
H274 N262 0.984 . S
H275 N262 0.985 . S
C276 C277 1.363 . S
C276 C282 1.379 . S
C276 N284 1.356 . S
C277 C276 1.363 . S
C277 C283 1.363 . S
C278 C279 1.363 . S
C278 C283 1.379 . S
C278 N285 1.356 . S
C279 C278 1.363 . S
C279 C282 1.363 . S
N280 C282 1.356 . S
N280 H292 0.984 . S
N280 H293 0.985 . S
N281 C283 1.356 . S
N281 H286 0.984 . S
N281 H287 0.985 . S
C282 C276 1.379 . S
C282 C279 1.363 . S
C282 N280 1.356 . S
C283 C277 1.363 . S
C283 C278 1.379 . S
C283 N281 1.356 . S
N284 C276 1.356 . S
N284 H290 0.984 . S
N284 H291 0.984 . S
N285 C278 1.356 . S
N285 H288 0.984 . S
N285 H289 0.985 . S
H286 N281 0.984 . S
H287 N281 0.985 . S
H288 N285 0.984 . S
H289 N285 0.985 . S
H290 N284 0.984 . S
H291 N284 0.984 . S
H292 N280 0.984 . S
H293 N280 0.985 . S
C294 C295 1.363 . S
C294 C300 1.379 . S
C294 N302 1.356 . S
C295 C294 1.363 . S
C295 C301 1.363 1_545 S
C296 C297 1.363 1_565 S
C296 C301 1.379 . S
C296 N303 1.356 . S
C297 C296 1.363 1_545 S
C297 C300 1.363 . S
N298 C300 1.356 . S
N298 H310 0.984 . S
N298 H311 0.985 . S
N299 C301 1.356 . S
N299 H304 0.984 . S
N299 H305 0.985 . S
C300 C294 1.379 . S
C300 C297 1.363 . S
C300 N298 1.356 . S
C301 C295 1.363 1_565 S
C301 C296 1.379 . S
C301 N299 1.356 . S
N302 C294 1.356 . S
N302 H308 0.984 . S
N302 H309 0.984 . S
N303 C296 1.356 . S
N303 H306 0.984 . S
N303 H307 0.985 . S
H304 N299 0.984 . S
H305 N299 0.985 . S
H306 N303 0.984 . S
H307 N303 0.985 . S
H308 N302 0.984 . S
H309 N302 0.984 . S
H310 N298 0.984 . S
H311 N298 0.985 . S
C312 C313 1.363 . S
C312 C318 1.379 . S
C312 N320 1.356 1_656 S
C313 C312 1.363 . S
C313 C319 1.363 . S
C314 C315 1.363 . S
C314 C319 1.379 . S
C314 N321 1.356 . S
C315 C314 1.363 . S
C315 C318 1.363 . S
N316 C318 1.356 . S
N316 H328 0.984 . S
N316 H329 0.985 . S
N317 C319 1.356 . S
N317 H322 0.984 . S
N317 H323 0.985 . S
C318 C312 1.379 . S
C318 C315 1.363 . S
C318 N316 1.356 . S
C319 C313 1.363 . S
C319 C314 1.379 . S
C319 N317 1.356 . S
N320 C312 1.356 1_454 S
N320 H326 0.984 . S
N320 H327 0.984 . S
N321 C314 1.356 . S
N321 H324 0.984 . S
N321 H325 0.985 . S
H322 N317 0.984 . S
H323 N317 0.985 . S
H324 N321 0.984 . S
H325 N321 0.985 . S
H326 N320 0.984 . S
H327 N320 0.984 . S
H328 N316 0.984 . S
H329 N316 0.985 . S
C330 C331 1.363 . S
C330 C336 1.379 . S
C330 N338 1.373 . S
C331 C330 1.363 . S
C331 C337 1.363 1_455 S
C332 C333 1.363 . S
C332 C337 1.379 1_455 S
C332 N339 1.356 1_455 S
C333 C332 1.363 . S
C333 C336 1.363 . S
N334 C336 1.356 . S
N334 H346 0.984 . S
N334 H347 0.985 . S
N335 C337 1.356 . S
N335 H340 0.984 . S
N335 H341 0.985 . S
C336 C330 1.379 . S
C336 C333 1.363 . S
C336 N334 1.356 . S
C337 C331 1.363 1_655 S
C337 C332 1.379 1_655 S
C337 N335 1.356 . S
N338 C330 1.373 . S
N338 H344 0.978 1_565 S
N338 H345 0.975 1_565 S
N339 C332 1.356 1_655 S
N339 H342 0.984 1_655 S
N339 H343 0.985 . S
H340 N335 0.984 . S
H341 N335 0.985 . S
H342 N339 0.984 1_455 S
H343 N339 0.985 . S
H344 N338 0.978 1_545 S
H345 N338 0.975 1_545 S
H346 N334 0.984 . S
H347 N334 0.985 . S
C348 C349 1.369 . S
C348 C354 1.379 . S
C348 N356 1.356 . S
C349 C348 1.369 . S
C349 C355 1.358 1_565 S
C350 C351 1.363 . S
C350 C355 1.379 . S
C350 N357 1.356 . S
C351 C350 1.363 . S
C351 C354 1.363 1_545 S
N352 C354 1.356 . S
N352 H364 0.984 . S
N352 H365 0.985 . S
N353 C355 1.356 . S
N353 H358 0.984 . S
N353 H359 0.985 . S
C354 C348 1.379 . S
C354 C351 1.363 1_565 S
C354 N352 1.356 . S
C355 C349 1.358 1_545 S
C355 C350 1.379 . S
C355 N353 1.356 . S
N356 C348 1.356 . S
N356 H362 0.984 . S
N356 H363 0.984 . S
N357 C350 1.356 . S
N357 H360 0.984 . S
N357 H361 0.985 . S
H358 N353 0.984 . S
H359 N353 0.985 . S
H360 N357 0.984 . S
H361 N357 0.985 . S
H362 N356 0.984 . S
H363 N356 0.984 . S
H364 N352 0.984 . S
H365 N352 0.985 . S
C366 C367 1.363 . S
C366 C372 1.379 . S
C366 N374 1.356 1_556 S
C367 C366 1.363 . S
C367 C373 1.363 . S
C368 C369 1.363 . S
C368 C373 1.379 . S
C368 N375 1.356 . S
C369 C368 1.363 . S
C369 C372 1.363 . S
N370 C372 1.356 . S
N370 H382 0.984 . S
N370 H383 0.985 . S
N371 C373 1.356 . S
N371 H376 0.984 . S
N371 H377 0.985 . S
C372 C366 1.379 . S
C372 C369 1.363 . S
C372 N370 1.356 . S
C373 C367 1.363 . S
C373 C368 1.379 . S
C373 N371 1.356 . S
N374 C366 1.356 1_554 S
N374 H380 0.984 . S
N374 H381 0.984 . S
N375 C368 1.356 . S
N375 H378 0.984 . S
N375 H379 0.985 . S
H376 N371 0.984 . S
H377 N371 0.985 . S
H378 N375 0.984 . S
H379 N375 0.985 . S
H380 N374 0.984 . S
H381 N374 0.984 . S
H382 N370 0.984 . S
H383 N370 0.985 . S
C384 C385 1.363 . S
C384 C390 1.379 . S
C384 N392 1.356 . S
C385 C384 1.363 . S
C385 C391 1.363 . S
C386 C387 1.363 . S
C386 C391 1.379 . S
C386 N393 1.356 . S
C387 C386 1.363 . S
C387 C390 1.363 . S
N388 C390 1.356 . S
N388 H400 0.984 1_455 S
N388 H401 0.985 . S
N389 C391 1.356 . S
N389 H394 0.984 . S
N389 H395 0.985 . S
C390 C384 1.379 . S
C390 C387 1.363 . S
C390 N388 1.356 . S
C391 C385 1.363 . S
C391 C386 1.379 . S
C391 N389 1.356 . S
N392 C384 1.356 . S
N392 H398 0.984 . S
N392 H399 0.984 . S
N393 C386 1.356 . S
N393 H396 0.984 . S
N393 H397 0.985 . S
H394 N389 0.984 . S
H395 N389 0.985 . S
H396 N393 0.984 . S
H397 N393 0.985 . S
H398 N392 0.984 . S
H399 N392 0.984 . S
H400 N388 0.984 1_655 S
H401 N388 0.985 . S
C189 C63 1.389 . S
C187 C11 1.368 . S
C205 C25 1.428 . S
C207 C111 1.449 . S
C223 C41 1.413 . S
C225 C183 1.477 . S
C241 C7 1.405 . S
C243 C87 1.393 . S
C261 C135 1.450 . S
C259 C21 1.459 . S
C277 C36 1.436 . S
C279 C159 1.520 . S
C297 C120 1.443 . S
C295 C39 1.422 . S
C313 C8 1.433 1_556 S
C315 C174 1.501 . S
C333 C78 1.533 . S
C331 C22 1.466 . S
C351 C126 1.454 . S
C349 C35 1.450 . S
C369 C168 1.463 . S
C367 C13 1.406 1_556 S
C385 C27 1.477 . S
C387 C72 1.518 . S
