# Generated by pormake.
# Topology apo, (3,6)-cn, num edge types: 1
# Building blocks:
#     Node 0, Type 0, BuildingBlock: KAKCAD_clean_linker_0, # of connection points: 3
#     Node 1, Type 0, BuildingBlock: KAKCAD_clean_linker_0, # of connection points: 3
#     Node 2, Type 0, BuildingBlock: KAKCAD_clean_linker_0, # of connection points: 3
#     Node 3, Type 0, BuildingBlock: KAKCAD_clean_linker_0, # of connection points: 3
#     Node 4, Type 0, BuildingBlock: KAKCAD_clean_linker_0, # of connection points: 3
#     Node 5, Type 0, BuildingBlock: KAKCAD_clean_linker_0, # of connection points: 3
#     Node 6, Type 0, BuildingBlock: KAKCAD_clean_linker_0, # of connection points: 3
#     Node 7, Type 0, BuildingBlock: KAKCAD_clean_linker_0, # of connection points: 3
#     Node 8, Type 1, BuildingBlock: KUMBOL_clean_sbu_1, # of connection points: 6
#     Node 9, Type 1, BuildingBlock: KUMBOL_clean_sbu_1, # of connection points: 6
#     Node 10, Type 1, BuildingBlock: KUMBOL_clean_sbu_1, # of connection points: 6
#     Node 11, Type 1, BuildingBlock: KUMBOL_clean_sbu_1, # of connection points: 6
#     Edge 12, Type (0, 1), BuildingBlock: XUDNAN_clean_linker_2, # of connection points: 2
#     Edge 13, Type (0, 1), BuildingBlock: XUDNAN_clean_linker_2, # of connection points: 2
#     Edge 14, Type (0, 1), BuildingBlock: XUDNAN_clean_linker_2, # of connection points: 2
#     Edge 15, Type (0, 1), BuildingBlock: XUDNAN_clean_linker_2, # of connection points: 2
#     Edge 16, Type (0, 1), BuildingBlock: XUDNAN_clean_linker_2, # of connection points: 2
#     Edge 17, Type (0, 1), BuildingBlock: XUDNAN_clean_linker_2, # of connection points: 2
#     Edge 18, Type (0, 1), BuildingBlock: XUDNAN_clean_linker_2, # of connection points: 2
#     Edge 19, Type (0, 1), BuildingBlock: XUDNAN_clean_linker_2, # of connection points: 2
#     Edge 20, Type (0, 1), BuildingBlock: XUDNAN_clean_linker_2, # of connection points: 2
#     Edge 21, Type (0, 1), BuildingBlock: XUDNAN_clean_linker_2, # of connection points: 2
#     Edge 22, Type (0, 1), BuildingBlock: XUDNAN_clean_linker_2, # of connection points: 2
#     Edge 23, Type (0, 1), BuildingBlock: XUDNAN_clean_linker_2, # of connection points: 2
#     Edge 24, Type (0, 1), BuildingBlock: XUDNAN_clean_linker_2, # of connection points: 2
#     Edge 25, Type (0, 1), BuildingBlock: XUDNAN_clean_linker_2, # of connection points: 2
#     Edge 26, Type (0, 1), BuildingBlock: XUDNAN_clean_linker_2, # of connection points: 2
#     Edge 27, Type (0, 1), BuildingBlock: XUDNAN_clean_linker_2, # of connection points: 2
#     Edge 28, Type (0, 1), BuildingBlock: XUDNAN_clean_linker_2, # of connection points: 2
#     Edge 29, Type (0, 1), BuildingBlock: XUDNAN_clean_linker_2, # of connection points: 2
#     Edge 30, Type (0, 1), BuildingBlock: XUDNAN_clean_linker_2, # of connection points: 2
#     Edge 31, Type (0, 1), BuildingBlock: XUDNAN_clean_linker_2, # of connection points: 2
#     Edge 32, Type (0, 1), BuildingBlock: XUDNAN_clean_linker_2, # of connection points: 2
#     Edge 33, Type (0, 1), BuildingBlock: XUDNAN_clean_linker_2, # of connection points: 2
#     Edge 34, Type (0, 1), BuildingBlock: XUDNAN_clean_linker_2, # of connection points: 2
#     Edge 35, Type (0, 1), BuildingBlock: XUDNAN_clean_linker_2, # of connection points: 2
# Relax obj value: 0.009
# Max RMSD: 0.098
# Mean RMSD: 0.076
data_MOF--net-apo--node1-KUMBOL_clean_sbu_1--node2-KAKCAD_clean_linker_0--edge1-XUDNAN_clean_linker_2
_symmetry_space_group_name_H-M    P1
_symmetry_Int_Tables_number       1
_symmetry_cell_setting            triclinic
loop_
_symmetry_equiv_pos_as_xyz
'x, y, z'
_cell_length_a     29.501444
_cell_length_b     52.148898
_cell_length_c     64.03127
_cell_angle_alpha  89.915613
_cell_angle_beta   89.984676
_cell_angle_gamma 90.397972
loop_
_atom_site_label
_atom_site_type_symbol
_atom_site_fract_x
_atom_site_fract_y
_atom_site_fract_z
_atom_type_partial_charge
C0 C 0.28479 0.46509 0.36019 0.0
C1 C 0.33136 0.47075 0.36068 0.0
C2 C 0.26639 0.44673 0.37381 0.0
C3 C 0.29413 0.43412 0.3884 0.0
C4 C 0.34024 0.44083 0.38957 0.0
C5 C 0.35874 0.45881 0.37572 0.0
C6 C 0.27617 0.4125 0.40112 0.0
C7 C 0.25287 0.39229 0.39131 0.0
C8 C 0.23919 0.37044 0.40262 0.0
C9 C 0.2482 0.36936 0.4242 0.0
C10 C 0.27153 0.38942 0.43434 0.0
C11 C 0.28542 0.41093 0.4226 0.0
C12 C 0.28286 0.38741 0.45699 0.0
C13 C 0.25141 0.37716 0.47131 0.0
C14 C 0.32559 0.39534 0.46442 0.0
C15 C 0.33654 0.39311 0.4856 0.0
C16 C 0.3051 0.38285 0.49991 0.0
C17 C 0.21881 0.34803 0.3915 0.0
C18 C 0.18851 0.35155 0.37477 0.0
C19 C 0.2317 0.32292 0.39674 0.0
C20 C 0.21581 0.30199 0.38521 0.0
C21 C 0.18693 0.30556 0.36799 0.0
C22 C 0.17283 0.33058 0.36313 0.0
C23 C 0.2624 0.37488 0.4925 0.0
H24 H 0.26311 0.47397 0.34864 0.0
H25 H 0.23069 0.44194 0.37265 0.0
H26 H 0.36246 0.43129 0.40053 0.0
H27 H 0.39476 0.46292 0.37639 0.0
H28 H 0.24773 0.393 0.37456 0.0
H29 H 0.30334 0.42658 0.43017 0.0
H30 H 0.23799 0.35256 0.43303 0.0
H31 H 0.21798 0.37118 0.46621 0.0
H32 H 0.35098 0.40288 0.45379 0.0
H33 H 0.36996 0.3991 0.49071 0.0
H34 H 0.17737 0.37058 0.37046 0.0
H35 H 0.25534 0.3194 0.40934 0.0
H36 H 0.2371 0.36728 0.50313 0.0
H37 H 0.15081 0.3341 0.34993 0.0
H38 H 0.22672 0.28297 0.38967 0.0
C39 C 0.20551 0.05209 0.86317 0.0
C40 C 0.16143 0.04178 0.86408 0.0
C41 C 0.21697 0.07381 0.87479 0.0
C42 C 0.18472 0.08552 0.88772 0.0
C43 C 0.14045 0.07541 0.88845 0.0
C44 C 0.12881 0.05382 0.87661 0.0
C45 C 0.19774 0.10796 0.90064 0.0
C46 C 0.22244 0.12828 0.89178 0.0
C47 C 0.23686 0.14925 0.90393 0.0
C48 C 0.22586 0.14962 0.92537 0.0
C49 C 0.20026 0.12958 0.93441 0.0
C50 C 0.18646 0.10884 0.92188 0.0
C51 C 0.18787 0.12991 0.95693 0.0
C52 C 0.22012 0.13611 0.97231 0.0
C53 C 0.14388 0.12285 0.96324 0.0
C54 C 0.13271 0.12127 0.9844 0.0
C55 C 0.16528 0.12661 0.99985 0.0
C56 C 0.26173 0.17097 0.89379 0.0
C57 C 0.292 0.1664 0.87723 0.0
C58 C 0.25319 0.1965 0.89954 0.0
C59 C 0.27282 0.21686 0.88844 0.0
C60 C 0.30096 0.21228 0.87107 0.0
C61 C 0.31094 0.18673 0.8659 0.0
C62 C 0.20898 0.13443 0.99354 0.0
H63 H 0.23121 0.04327 0.85353 0.0
H64 H 0.2514 0.08111 0.87403 0.0
H65 H 0.11487 0.08421 0.89818 0.0
H66 H 0.09468 0.04614 0.87767 0.0
H67 H 0.22936 0.12793 0.87516 0.0
H68 H 0.16799 0.09293 0.92882 0.0
H69 H 0.23681 0.16555 0.93501 0.0
H70 H 0.25441 0.1414 0.96794 0.0
H71 H 0.11803 0.1184 0.95176 0.0
H72 H 0.09846 0.11577 0.98865 0.0
H73 H 0.30039 0.14703 0.87264 0.0
H74 H 0.23002 0.20086 0.91213 0.0
H75 H 0.23505 0.13845 1.005 0.0
H76 H 0.33213 0.18224 0.85262 0.0
H77 H 0.26521 0.23623 0.8933 0.0
C78 C 0.81207 0.04198 0.64778 0.0
C79 C 0.85434 0.03198 0.64208 0.0
C80 C 0.79508 0.06376 0.63774 0.0
C81 C 0.82037 0.07624 0.622 0.0
C82 C 0.86309 0.06635 0.61665 0.0
C83 C 0.87968 0.0444 0.62645 0.0
C84 C 0.80272 0.09958 0.6113 0.0
C85 C 0.77755 0.11782 0.62235 0.0
C86 C 0.76183 0.14015 0.61253 0.0
C87 C 0.77275 0.14468 0.59145 0.0
C88 C 0.79756 0.12651 0.57992 0.0
C89 C 0.81154 0.10386 0.58999 0.0
C90 C 0.80862 0.13072 0.55735 0.0
C91 C 0.77829 0.14346 0.54394 0.0
C92 C 0.84931 0.12127 0.54885 0.0
C93 C 0.85853 0.12356 0.52752 0.0
C94 C 0.82795 0.13596 0.51422 0.0
C95 C 0.73376 0.15843 0.62459 0.0
C96 C 0.69722 0.14919 0.63655 0.0
C97 C 0.7445 0.18471 0.62527 0.0
C98 C 0.72053 0.20118 0.63851 0.0
C99 C 0.68519 0.19167 0.6512 0.0
C100 C 0.6731 0.16561 0.64958 0.0
C101 C 0.7881 0.14626 0.52264 0.0
H102 H 0.7917 0.03261 0.65967 0.0
H103 H 0.7618 0.07054 0.64211 0.0
H104 H 0.88409 0.07571 0.60501 0.0
H105 H 0.91268 0.03726 0.62196 0.0
H106 H 0.77088 0.11501 0.63884 0.0
H107 H 0.8287 0.08918 0.58113 0.0
H108 H 0.76157 0.16225 0.58411 0.0
H109 H 0.74638 0.15071 0.54971 0.0
H110 H 0.87424 0.11202 0.55864 0.0
H111 H 0.88978 0.11575 0.5214 0.0
H112 H 0.68768 0.1291 0.63603 0.0
H113 H 0.77261 0.19229 0.61623 0.0
H114 H 0.76389 0.1558 0.51262 0.0
H115 H 0.64529 0.15773 0.65865 0.0
H116 H 0.73091 0.2211 0.63943 0.0
C117 C 0.70809 0.45706 0.15147 0.0
C118 C 0.66368 0.46594 0.14897 0.0
C119 C 0.72439 0.43734 0.13897 0.0
C120 C 0.69643 0.42572 0.12387 0.0
C121 C 0.65265 0.43553 0.12061 0.0
C122 C 0.63643 0.45559 0.13306 0.0
C123 C 0.71285 0.40278 0.11242 0.0
C124 C 0.73796 0.38414 0.12313 0.0
C125 C 0.7581 0.36351 0.11258 0.0
C126 C 0.75038 0.36095 0.091 0.0
C127 C 0.72326 0.37867 0.08017 0.0
C128 C 0.70491 0.39965 0.09098 0.0
C129 C 0.71472 0.3755 0.05748 0.0
C130 C 0.75028 0.36927 0.04383 0.0
C131 C 0.67084 0.37853 0.04933 0.0
C132 C 0.66265 0.37525 0.02799 0.0
C133 C 0.69824 0.36906 0.01434 0.0
C134 C 0.78799 0.34532 0.12419 0.0
C135 C 0.8139 0.35405 0.14122 0.0
C136 C 0.79092 0.31927 0.11862 0.0
C137 C 0.81888 0.30252 0.12982 0.0
C138 C 0.84394 0.31123 0.14718 0.0
C139 C 0.84059 0.33725 0.15274 0.0
C140 C 0.74215 0.36616 0.02249 0.0
H141 H 0.72986 0.465 0.16349 0.0
H142 H 0.75873 0.43079 0.14148 0.0
H143 H 0.6303 0.42701 0.1091 0.0
H144 H 0.60196 0.46214 0.13095 0.0
H145 H 0.74163 0.38578 0.1399 0.0
H146 H 0.68572 0.41396 0.08253 0.0
H147 H 0.76555 0.34524 0.08252 0.0
H148 H 0.78452 0.36705 0.04963 0.0
H149 H 0.64272 0.38315 0.0595 0.0
H150 H 0.62853 0.37783 0.02214 0.0
H151 H 0.81384 0.37402 0.14581 0.0
H152 H 0.77126 0.31162 0.10576 0.0
H153 H 0.77019 0.36117 0.0124 0.0
H154 H 0.85811 0.34486 0.16624 0.0
H155 H 0.82081 0.28277 0.12474 0.0
C156 C 0.64354 0.56926 0.65919 0.0
C157 C 0.6555 0.54359 0.65541 0.0
C158 C 0.65947 0.58889 0.64632 0.0
C159 C 0.68695 0.58331 0.6291 0.0
C160 C 0.69738 0.55765 0.62464 0.0
C161 C 0.682 0.53793 0.63776 0.0
C162 C 0.70492 0.60444 0.61606 0.0
C163 C 0.72751 0.62522 0.62538 0.0
C164 C 0.74397 0.6457 0.61322 0.0
C165 C 0.73665 0.64547 0.59154 0.0
C166 C 0.71358 0.62486 0.58207 0.0
C167 C 0.69845 0.60423 0.59441 0.0
C168 C 0.70338 0.62515 0.55946 0.0
C169 C 0.68374 0.64682 0.55023 0.0
C170 C 0.71078 0.60325 0.54724 0.0
C171 C 0.69817 0.60288 0.52623 0.0
C172 C 0.67744 0.62433 0.51705 0.0
C173 C 0.77009 0.66672 0.62326 0.0
C174 C 0.75457 0.67797 0.64185 0.0
C175 C 0.81227 0.67439 0.61511 0.0
C176 C 0.83938 0.69202 0.6259 0.0
C177 C 0.82457 0.70255 0.64488 0.0
C178 C 0.78143 0.69585 0.65249 0.0
C179 C 0.6707 0.64638 0.52926 0.0
H180 H 0.62206 0.57429 0.67226 0.0
H181 H 0.65026 0.6085 0.64982 0.0
H182 H 0.71855 0.55295 0.61138 0.0
H183 H 0.69206 0.51843 0.63446 0.0
H184 H 0.73331 0.62511 0.6421 0.0
H185 H 0.67997 0.58847 0.58729 0.0
H186 H 0.74879 0.66132 0.58205 0.0
H187 H 0.67711 0.66383 0.5594 0.0
H188 H 0.7263 0.58637 0.55396 0.0
H189 H 0.70484 0.58579 0.51718 0.0
H190 H 0.722 0.67253 0.64837 0.0
H191 H 0.82515 0.66594 0.60087 0.0
H192 H 0.65431 0.66313 0.52279 0.0
H193 H 0.76931 0.70357 0.66715 0.0
H194 H 0.87239 0.69702 0.61962 0.0
C195 C 0.78654 0.87033 0.01992 0.0
C196 C 0.82753 0.88155 0.01316 0.0
C197 C 0.77408 0.87109 0.04103 0.0
C198 C 0.80226 0.88313 0.05581 0.0
C199 C 0.84411 0.89332 0.04918 0.0
C200 C 0.85659 0.89252 0.02814 0.0
C201 C 0.78675 0.8868 0.07773 0.0
C202 C 0.76591 0.86664 0.089 0.0
C203 C 0.74961 0.87053 0.1095 0.0
C204 C 0.75344 0.89544 0.11802 0.0
C205 C 0.77675 0.91522 0.10763 0.0
C206 C 0.79285 0.91081 0.08739 0.0
C207 C 0.78729 0.93959 0.11889 0.0
C208 C 0.75508 0.95074 0.13222 0.0
C209 C 0.83137 0.95012 0.11834 0.0
C210 C 0.8437 0.97011 0.13184 0.0
C211 C 0.81228 0.97986 0.14624 0.0
C212 C 0.73097 0.84883 0.12267 0.0
C213 C 0.71249 0.82614 0.11399 0.0
C214 C 0.73201 0.85069 0.14458 0.0
C215 C 0.7136 0.83165 0.15722 0.0
C216 C 0.69669 0.80851 0.14885 0.0
C217 C 0.69631 0.80612 0.12689 0.0
C218 C 0.76749 0.97054 0.1458 0.0
H219 H 0.76319 0.86189 0.0088 0.0
H220 H 0.74148 0.86322 0.04563 0.0
H221 H 0.86701 0.90227 0.06024 0.0
H222 H 0.88886 0.90081 0.02356 0.0
H223 H 0.7639 0.84786 0.08189 0.0
H224 H 0.80944 0.92631 0.07901 0.0
H225 H 0.73962 0.89955 0.13324 0.0
H226 H 0.72059 0.94352 0.13272 0.0
H227 H 0.85714 0.94189 0.10839 0.0
H228 H 0.87851 0.97684 0.13189 0.0
H229 H 0.71025 0.82366 0.09727 0.0
H230 H 0.7474 0.8668 0.15251 0.0
H231 H 0.74234 0.97801 0.15647 0.0
H232 H 0.68378 0.78885 0.11949 0.0
H233 H 0.71288 0.83567 0.17375 0.0
C234 C 0.1461 0.94549 0.36468 0.0
C235 C 0.15797 0.97001 0.37213 0.0
C236 C 0.16187 0.92342 0.3747 0.0
C237 C 0.18948 0.92534 0.39252 0.0
C238 C 0.20165 0.94976 0.39991 0.0
C239 C 0.18638 0.97181 0.38976 0.0
C240 C 0.20593 0.90193 0.40327 0.0
C241 C 0.22472 0.88187 0.39167 0.0
C242 C 0.24087 0.85966 0.40155 0.0
C243 C 0.23786 0.85761 0.42341 0.0
C244 C 0.21859 0.87744 0.43534 0.0
C245 C 0.203 0.8996 0.42508 0.0
C246 C 0.21392 0.87497 0.45843 0.0
C247 C 0.19987 0.85168 0.46755 0.0
C248 C 0.22249 0.89609 0.47153 0.0
C249 C 0.21692 0.89401 0.49316 0.0
C250 C 0.20264 0.87077 0.50227 0.0
C251 C 0.2612 0.83897 0.38874 0.0
C252 C 0.24015 0.83134 0.37007 0.0
C253 C 0.30297 0.82797 0.39421 0.0
C254 C 0.32436 0.81074 0.38067 0.0
C255 C 0.30429 0.80425 0.36145 0.0
C256 C 0.26137 0.81418 0.35662 0.0
C257 C 0.19424 0.84961 0.48919 0.0
H258 H 0.12377 0.94328 0.35138 0.0
H259 H 0.15171 0.90482 0.36875 0.0
H260 H 0.22352 0.9518 0.4134 0.0
H261 H 0.19712 0.9903 0.39571 0.0
H262 H 0.22789 0.88388 0.37487 0.0
H263 H 0.18735 0.9148 0.434 0.0
H264 H 0.25038 0.84054 0.43109 0.0
H265 H 0.1925 0.83511 0.45792 0.0
H266 H 0.23376 0.91425 0.46507 0.0
H267 H 0.22329 0.91076 0.50273 0.0
H268 H 0.20753 0.83906 0.36565 0.0
H269 H 0.32005 0.83356 0.40848 0.0
H270 H 0.18369 0.83134 0.4957 0.0
H271 H 0.24449 0.80907 0.34218 0.0
H272 H 0.35745 0.80344 0.38479 0.0
C273 C 0.29367 0.64127 0.99153 0.0
C274 C 0.33615 0.63306 0.99887 0.0
C275 C 0.28145 0.63796 0.9706 0.0
C276 C 0.31159 0.62668 0.95633 0.0
C277 C 0.35406 0.61848 0.96368 0.0
C278 C 0.36599 0.62143 0.98467 0.0
C279 C 0.29908 0.62369 0.93388 0.0
C280 C 0.27347 0.6426 0.92357 0.0
C281 C 0.26262 0.64021 0.90227 0.0
C282 C 0.27725 0.61855 0.89127 0.0
C283 C 0.30308 0.59968 0.9012 0.0
C284 C 0.31373 0.60225 0.92244 0.0
C285 C 0.32124 0.57811 0.88891 0.0
C286 C 0.29215 0.56253 0.87698 0.0
C287 C 0.36823 0.57423 0.8879 0.0
C288 C 0.386 0.55575 0.87448 0.0
C289 C 0.35696 0.54055 0.86228 0.0
C290 C 0.23756 0.66079 0.89127 0.0
C291 C 0.19891 0.67173 0.9003 0.0
C292 C 0.25246 0.66981 0.87172 0.0
C293 C 0.22961 0.68965 0.86157 0.0
C294 C 0.19118 0.70083 0.87069 0.0
C295 C 0.17584 0.69141 0.89009 0.0
C296 C 0.30992 0.54366 0.8639 0.0
H297 H 0.26993 0.65065 1.00185 0.0
H298 H 0.24821 0.64421 0.96565 0.0
H299 H 0.37856 0.61007 0.95319 0.0
H300 H 0.3987 0.61448 0.98971 0.0
H301 H 0.26339 0.65972 0.93188 0.0
H302 H 0.33314 0.58732 0.93 0.0
H303 H 0.26932 0.61659 0.87481 0.0
H304 H 0.2558 0.56525 0.87755 0.0
H305 H 0.39125 0.58621 0.89684 0.0
H306 H 0.42243 0.55364 0.87332 0.0
H307 H 0.18628 0.6649 0.91521 0.0
H308 H 0.2825 0.66195 0.86448 0.0
H309 H 0.28709 0.53216 0.85445 0.0
H310 H 0.14583 0.69919 0.89739 0.0
H311 H 0.24281 0.69664 0.84682 0.0
C312 C 0.84718 0.12773 0.26563 0.0
C313 C 0.83547 0.0867 0.28288 0.0
C314 C 0.86349 0.10801 0.27824 0.0
C315 C 0.79176 0.08513 0.27427 0.0
C316 C 0.80332 0.12618 0.25697 0.0
C317 C 0.77581 0.10476 0.26131 0.0
N318 N 0.87463 0.1482 0.26149 0.0
C319 C 0.85995 0.16812 0.24952 0.0
C320 C 0.78838 0.14628 0.24423 0.0
C321 C 0.81675 0.16738 0.24056 0.0
Gd322 Gd 0.0499 0.13192 0.23963 0.0
Gd323 Gd 0.94485 0.1481 0.2783 0.0
N324 N 0.90653 0.10963 0.28595 0.0
C325 C 0.85218 0.06757 0.29609 0.0
C326 C 0.92204 0.09163 0.29963 0.0
C327 C 0.89548 0.07017 0.30463 0.0
H328 H 0.95408 0.09402 0.30739 0.0
H329 H 0.90818 0.05584 0.31534 0.0
H330 H 0.04775 0.18684 0.21208 0.0
H331 H 0.8812 0.1848 0.24718 0.0
H332 H 0.09395 0.22604 0.20803 0.0
H333 H 0.8317 0.05093 0.30004 0.0
H334 H 0.76996 0.06881 0.27757 0.0
H335 H 0.11602 0.08834 0.26253 0.0
H336 H 0.75487 0.1458 0.23731 0.0
H337 H 0.80518 0.18318 0.23103 0.0
H338 H 0.23031 0.20738 0.24578 0.0
H339 H 0.742 0.10324 0.25479 0.0
H340 H 0.24435 0.12349 0.2758 0.0
H341 H 0.19289 0.08585 0.27765 0.0
N342 N 0.12312 0.12723 0.25329 0.0
C343 C 0.15122 0.1479 0.25159 0.0
C344 C 0.13777 0.10502 0.26218 0.0
C345 C 0.21047 0.12475 0.26937 0.0
C346 C 0.18149 0.10348 0.2705 0.0
C347 C 0.19562 0.14727 0.25967 0.0
H348 H 0.25783 0.16896 0.26402 0.0
N349 N 0.09249 0.16953 0.23376 0.0
C350 C 0.13539 0.16972 0.24157 0.0
C351 C 0.14813 0.21213 0.22745 0.0
C352 C 0.16404 0.19124 0.239 0.0
C353 C 0.07868 0.18871 0.22082 0.0
C354 C 0.10561 0.2106 0.21794 0.0
O355 O 0.93156 0.12628 0.24802 0.0
O356 O 0.99557 0.10214 0.24379 0.0
O357 O 0.04618 0.13125 0.20567 0.0
O358 O 0.08914 0.10441 0.2219 0.0
O359 O 0.00394 0.12595 0.29141 0.0
O360 O 0.03389 0.10196 0.26432 0.0
O361 O 0.06642 0.15403 0.26916 0.0
O362 O 0.00249 0.17688 0.27814 0.0
O363 O 0.93501 0.14964 0.31218 0.0
O364 O 0.90089 0.17699 0.29162 0.0
O365 O 0.99148 0.15683 0.22818 0.0
O366 O 0.96567 0.17976 0.25664 0.0
C367 C 0.95257 0.10621 0.24042 0.0
C368 C 0.02785 0.1065 0.28441 0.0
C369 C 0.11491 0.12013 0.18919 0.0
C370 C 0.14245 0.12493 0.15328 0.0
C371 C 0.19265 0.1335 0.18265 0.0
C372 C 0.15795 0.12733 0.19658 0.0
C373 C 0.18512 0.13227 0.16118 0.0
C374 C 0.1073 0.119 0.16751 0.0
C375 C 0.07773 0.11403 0.2039 0.0
C376 C 0.20796 0.19093 0.24746 0.0
C377 C 0.22369 0.16901 0.25779 0.0
H378 H 0.1691 0.22902 0.22505 0.0
C379 C 0.04639 0.17286 0.27911 0.0
C380 C 0.97398 0.17757 0.23662 0.0
C381 C 0.88542 0.18118 0.32878 0.0
C382 C 0.86461 0.18119 0.36591 0.0
C383 C 0.83669 0.21445 0.34252 0.0
C384 C 0.85975 0.20345 0.32584 0.0
C385 C 0.83864 0.20335 0.36232 0.0
C386 C 0.88824 0.1703 0.34892 0.0
C387 C 0.90727 0.16889 0.31061 0.0
H388 H 0.22573 0.13897 0.18853 0.0
H389 H 0.16501 0.12801 0.2131 0.0
H390 H 0.21314 0.1365 0.15077 0.0
H391 H 0.07401 0.11361 0.16178 0.0
H392 H 0.81655 0.23146 0.34003 0.0
H393 H 0.857 0.21226 0.31057 0.0
H394 H 0.81887 0.21194 0.37467 0.0
H395 H 0.90858 0.15333 0.35125 0.0
C396 C 0.65124 0.37327 0.76198 0.0
C397 C 0.66784 0.41744 0.77142 0.0
C398 C 0.63856 0.39599 0.77146 0.0
C399 C 0.7092 0.41617 0.76062 0.0
C400 C 0.69393 0.37146 0.75218 0.0
C401 C 0.72217 0.39324 0.75098 0.0
N402 N 0.62353 0.35243 0.76388 0.0
C403 C 0.63921 0.32868 0.75876 0.0
C404 C 0.70782 0.34754 0.74477 0.0
C405 C 0.68077 0.32595 0.74851 0.0
Gd406 Gd 0.46043 0.36415 0.73216 0.0
Gd407 Gd 0.55249 0.35995 0.77968 0.0
N408 N 0.59806 0.39675 0.78147 0.0
C409 C 0.65519 0.43921 0.78276 0.0
C410 C 0.58668 0.41721 0.79362 0.0
C411 C 0.61485 0.4389 0.79426 0.0
H412 H 0.55527 0.41694 0.80232 0.0
H413 H 0.60529 0.45539 0.80345 0.0
H414 H 0.49092 0.3168 0.69913 0.0
H415 H 0.62019 0.31167 0.76285 0.0
H416 H 0.46843 0.27206 0.69171 0.0
H417 H 0.67682 0.45608 0.78318 0.0
H418 H 0.73195 0.43256 0.76016 0.0
H419 H 0.37105 0.39235 0.75355 0.0
H420 H 0.74032 0.34533 0.73712 0.0
H421 H 0.6923 0.30713 0.7439 0.0
H422 H 0.32925 0.26093 0.72969 0.0
H423 H 0.75484 0.39228 0.74329 0.0
H424 H 0.26706 0.33549 0.76257 0.0
H425 H 0.2942 0.38033 0.76608 0.0
N426 N 0.38669 0.35464 0.74348 0.0
C427 C 0.37146 0.33038 0.74023 0.0
C428 C 0.35906 0.37282 0.75188 0.0
C429 C 0.30053 0.34071 0.75697 0.0
C430 C 0.31571 0.36606 0.75896 0.0
C431 C 0.32826 0.32257 0.74725 0.0
H432 H 0.28099 0.29067 0.74942 0.0
N433 N 0.43886 0.32259 0.72153 0.0
C434 C 0.39879 0.31368 0.72922 0.0
C435 C 0.40982 0.27316 0.71179 0.0
C436 C 0.38339 0.28862 0.72478 0.0
C437 C 0.46224 0.30855 0.70721 0.0
C438 C 0.44892 0.28339 0.70259 0.0
O439 O 0.54977 0.39407 0.75823 0.0
O440 O 0.53293 0.37634 0.72673 0.0
O441 O 0.43432 0.3654 0.70003 0.0
O442 O 0.44063 0.4004 0.71858 0.0
O443 O 0.49038 0.38416 0.78655 0.0
O444 O 0.46105 0.39791 0.75441 0.0
O445 O 0.43987 0.35138 0.76481 0.0
O446 O 0.50052 0.32837 0.77656 0.0
O447 O 0.53632 0.36192 0.8128 0.0
O448 O 0.59933 0.34501 0.80268 0.0
O449 O 0.52634 0.34293 0.72666 0.0
O450 O 0.54243 0.32527 0.75886 0.0
C451 C 0.55086 0.3949 0.73779 0.0
C452 C 0.46712 0.4003 0.77479 0.0
C453 C 0.41067 0.40571 0.68353 0.0
C454 C 0.38435 0.4102 0.6474 0.0
C455 C 0.38425 0.4469 0.67085 0.0
C456 C 0.40183 0.43183 0.68684 0.0
C457 C 0.37543 0.43624 0.65132 0.0
C458 C 0.40182 0.39493 0.66374 0.0
C459 C 0.42878 0.3901 0.70091 0.0
C460 C 0.34139 0.28022 0.73271 0.0
C461 C 0.31385 0.29718 0.74391 0.0
H462 H 0.39925 0.25378 0.70801 0.0
C463 C 0.45679 0.33264 0.77604 0.0
C464 C 0.54276 0.32432 0.73829 0.0
C465 C 0.57315 0.33372 0.83631 0.0
C466 C 0.59507 0.32577 0.87247 0.0
C467 C 0.55834 0.29226 0.85203 0.0
C468 C 0.55602 0.30868 0.83476 0.0
C469 C 0.57757 0.30071 0.87079 0.0
C470 C 0.59225 0.34219 0.85511 0.0
C471 C 0.57413 0.3513 0.81847 0.0
H472 H 0.37719 0.46695 0.67364 0.0
H473 H 0.40819 0.44064 0.70188 0.0
H474 H 0.36097 0.44838 0.63936 0.0
H475 H 0.40904 0.37488 0.66099 0.0
H476 H 0.54598 0.27276 0.85084 0.0
H477 H 0.54154 0.30182 0.82024 0.0
H478 H 0.57976 0.28746 0.88379 0.0
H479 H 0.60524 0.36166 0.85615 0.0
C480 C 0.8567 0.85323 0.75707 0.0
C481 C 0.84527 0.80768 0.76327 0.0
C482 C 0.87301 0.82977 0.76405 0.0
C483 C 0.80096 0.8095 0.75544 0.0
C484 C 0.81235 0.85507 0.74903 0.0
C485 C 0.78465 0.83308 0.74821 0.0
N486 N 0.88381 0.87433 0.75856 0.0
C487 C 0.86862 0.89785 0.75258 0.0
C488 C 0.79695 0.87905 0.74232 0.0
C489 C 0.82519 0.90054 0.74415 0.0
Gd490 Gd 0.07173 0.86224 0.73994 0.0
Gd491 Gd 0.95554 0.8678 0.77315 0.0
N492 N 0.91596 0.82865 0.77174 0.0
C493 C 0.86275 0.78447 0.77059 0.0
C494 C 0.93257 0.80628 0.77962 0.0
C495 C 0.90652 0.7838 0.77888 0.0
H496 H 0.96575 0.80564 0.78655 0.0
H497 H 0.92003 0.76603 0.7849 0.0
H498 H 0.05025 0.92334 0.72474 0.0
H499 H 0.88955 0.91464 0.75484 0.0
H500 H 0.08307 0.96628 0.72979 0.0
H501 H 0.84256 0.76704 0.77017 0.0
H502 H 0.77911 0.79273 0.75477 0.0
H503 H 0.14432 0.82117 0.76174 0.0
H504 H 0.76312 0.88124 0.73601 0.0
H505 H 0.8133 0.91924 0.73936 0.0
H506 H 0.22041 0.95104 0.76775 0.0
H507 H 0.75043 0.83413 0.74214 0.0
H508 H 0.25657 0.86435 0.78585 0.0
H509 H 0.21749 0.82274 0.78045 0.0
N510 N 0.14178 0.86147 0.75699 0.0
C511 C 0.16303 0.8845 0.75939 0.0
C512 C 0.16089 0.83944 0.76422 0.0
C513 C 0.22448 0.86377 0.77763 0.0
C514 C 0.20246 0.84025 0.77468 0.0
C515 C 0.20482 0.88628 0.76998 0.0
H516 H 0.25734 0.91216 0.78104 0.0
N517 N 0.10082 0.90429 0.74239 0.0
C518 C 0.14202 0.90652 0.75189 0.0
C519 C 0.14059 0.95247 0.74707 0.0
C520 C 0.1626 0.93075 0.75478 0.0
C521 C 0.08058 0.92525 0.73383 0.0
C522 C 0.0997 0.94966 0.73633 0.0
O523 O 0.95319 0.84257 0.74407 0.0
O524 O 0.02609 0.8277 0.7385 0.0
O525 O 0.08453 0.87114 0.70731 0.0
O526 O 0.12149 0.84059 0.72238 0.0
O527 O 0.014 0.84575 0.78715 0.0
O528 O 0.05996 0.82833 0.76133 0.0
O529 O 0.0721 0.88033 0.77189 0.0
O530 O 0.00451 0.90118 0.77303 0.0
O531 O 0.95818 0.86366 0.80694 0.0
O532 O 0.90876 0.88879 0.79288 0.0
O533 O 0.00851 0.87814 0.72476 0.0
O534 O 0.97083 0.89988 0.75063 0.0
C535 C 0.982 0.82624 0.73579 0.0
C536 C 0.04525 0.82955 0.78078 0.0
C537 C 0.10794 0.83692 0.68597 0.0
C538 C 0.11984 0.83181 0.64833 0.0
C539 C 0.08309 0.79798 0.66866 0.0
C540 C 0.08748 0.81261 0.68678 0.0
C541 C 0.09932 0.80737 0.64959 0.0
C542 C 0.1236 0.84653 0.66674 0.0
C543 C 0.11341 0.8526 0.70494 0.0
C544 C 0.20424 0.93256 0.76532 0.0
C545 C 0.2253 0.91041 0.77288 0.0
H546 H 0.15523 0.97143 0.74902 0.0
C547 C 0.04637 0.89845 0.77941 0.0
C548 C 0.97983 0.89584 0.73081 0.0
C549 C 0.88865 0.86858 0.82475 0.0
C550 C 0.85972 0.865 0.86052 0.0
C551 C 0.81867 0.84536 0.83159 0.0
C552 C 0.85133 0.85433 0.81758 0.0
C553 C 0.82263 0.85069 0.85287 0.0
C554 C 0.89286 0.87375 0.84622 0.0
C555 C 0.92328 0.87834 0.81009 0.0
H556 H 0.06747 0.77915 0.66942 0.0
H557 H 0.07526 0.80491 0.70143 0.0
H558 H 0.09653 0.79523 0.63595 0.0
H559 H 0.13852 0.86557 0.6662 0.0
H560 H 0.78985 0.83449 0.8259 0.0
H561 H 0.84715 0.85032 0.80118 0.0
H562 H 0.79603 0.84406 0.86325 0.0
H563 H 0.92203 0.88453 0.85172 0.0
C564 C 0.64824 0.66467 0.26145 0.0
C565 C 0.65497 0.70814 0.27467 0.0
C566 C 0.63008 0.68515 0.27225 0.0
C567 C 0.69759 0.71067 0.26511 0.0
C568 C 0.69185 0.6668 0.25253 0.0
C569 C 0.7159 0.69008 0.25397 0.0
N570 N 0.62463 0.64219 0.26093 0.0
C571 C 0.64483 0.62054 0.2535 0.0
C572 C 0.71081 0.64514 0.2432 0.0
C573 C 0.68749 0.6218 0.24403 0.0
Gd574 Gd 0.45186 0.63952 0.23338 0.0
Gd575 Gd 0.55247 0.64262 0.27698 0.0
N576 N 0.58854 0.68226 0.28107 0.0
C577 C 0.63636 0.72776 0.28682 0.0
C578 C 0.57075 0.70091 0.29346 0.0
C579 C 0.59422 0.72403 0.2964 0.0
H580 H 0.53849 0.69787 0.30109 0.0
H581 H 0.57987 0.73891 0.30607 0.0
H582 H 0.48107 0.58988 0.20237 0.0
H583 H 0.62911 0.60202 0.25542 0.0
H584 H 0.46093 0.54427 0.1981 0.0
H585 H 0.65444 0.74569 0.28909 0.0
H586 H 0.71698 0.7283 0.26654 0.0
H587 H 0.3683 0.66626 0.26055 0.0
H588 H 0.7442 0.64596 0.23617 0.0
H589 H 0.70283 0.60462 0.23782 0.0
H590 H 0.32822 0.53361 0.24064 0.0
H591 H 0.74928 0.6921 0.24708 0.0
H592 H 0.2696 0.60816 0.2748 0.0
H593 H 0.29607 0.6532 0.27725 0.0
N594 N 0.38296 0.62881 0.24954 0.0
C595 C 0.368 0.6043 0.24711 0.0
C596 C 0.35712 0.64654 0.25962 0.0
C597 C 0.30129 0.61378 0.2675 0.0
C598 C 0.31617 0.63922 0.26897 0.0
C599 C 0.32712 0.59598 0.25637 0.0
H600 H 0.28204 0.56353 0.26117 0.0
N601 N 0.43252 0.5965 0.22616 0.0
C602 C 0.39407 0.58752 0.23546 0.0
C603 C 0.40515 0.54593 0.21977 0.0
C604 C 0.37965 0.5619 0.23272 0.0
C605 C 0.45475 0.58172 0.21196 0.0
C606 C 0.44236 0.55605 0.20901 0.0
O607 O 0.54321 0.67561 0.25453 0.0
O608 O 0.51867 0.65797 0.22357 0.0
O609 O 0.42336 0.63602 0.20204 0.0
O610 O 0.41416 0.67131 0.22003 0.0
O611 O 0.48545 0.66132 0.2855 0.0
O612 O 0.45464 0.67462 0.25386 0.0
O613 O 0.4425 0.62407 0.26643 0.0
O614 O 0.51089 0.60665 0.27415 0.0
O615 O 0.54188 0.64367 0.31072 0.0
O616 O 0.60007 0.62439 0.29779 0.0
O617 O 0.51907 0.62208 0.22371 0.0
O618 O 0.54929 0.60863 0.25517 0.0
C619 C 0.54083 0.67582 0.234 0.0
C620 C 0.46027 0.67702 0.27422 0.0
C621 C 0.37951 0.66994 0.18558 0.0
C622 C 0.35877 0.67113 0.14868 0.0
C623 C 0.31964 0.69812 0.17369 0.0
C624 C 0.34657 0.68852 0.18978 0.0
C625 C 0.32548 0.68942 0.15326 0.0
C626 C 0.38571 0.6614 0.16495 0.0
C627 C 0.4059 0.65881 0.20285 0.0
C628 C 0.33964 0.55328 0.24245 0.0
C629 C 0.3133 0.57032 0.25413 0.0
H630 H 0.39529 0.52612 0.21728 0.0
C631 C 0.46663 0.60541 0.27424 0.0
C632 C 0.54498 0.60667 0.23474 0.0
C633 C 0.60999 0.6443 0.33036 0.0
C634 C 0.63356 0.64862 0.36675 0.0
C635 C 0.67658 0.66968 0.33911 0.0
C636 C 0.6471 0.65954 0.32424 0.0
C637 C 0.67015 0.66416 0.36021 0.0
C638 C 0.60313 0.63907 0.35163 0.0
C639 C 0.58016 0.63235 0.31467 0.0
H640 H 0.2941 0.71233 0.17706 0.0
H641 H 0.34109 0.6953 0.20556 0.0
H642 H 0.30451 0.69731 0.14098 0.0
H643 H 0.41114 0.64708 0.16158 0.0
H644 H 0.70523 0.68129 0.33421 0.0
H645 H 0.65411 0.66308 0.30797 0.0
H646 H 0.69484 0.6714 0.37127 0.0
H647 H 0.57454 0.62721 0.35629 0.0
H648 H 0.14237 0.97914 0.33008 0.0
H649 H 0.13095 0.01428 0.39136 0.0
H650 H 0.10022 0.05322 0.37517 0.0
H651 H 0.17197 0.03707 0.30135 0.0
H652 H 0.13846 0.02867 0.27882 0.0
H653 H 0.16254 1.00382 0.29487 0.0
H654 H 0.08271 0.98376 0.30022 0.0
H655 H 0.0585 0.00847 0.28412 0.0
H656 H 0.03758 1.00336 0.31026 0.0
H657 H 0.06963 0.08794 0.35293 0.0
H658 H 0.03805 0.11613 0.32593 0.0
H659 H 0.06384 0.058 0.27892 0.0
C660 C 0.13331 0.99496 0.34014 0.0
C661 C 0.13972 0.99359 0.36206 0.0
C662 C 0.12757 0.01492 0.37453 0.0
C663 C 0.10975 0.03714 0.36549 0.0
C664 C 0.1039 0.03778 0.34394 0.0
C665 C 0.11506 0.01728 0.33138 0.0
C666 C 0.10368 0.02277 0.30868 0.0
C667 C 0.14674 0.0231 0.29514 0.0
C668 C 0.06852 1.00344 0.30034 0.0
C669 C 0.08379 0.04941 0.31057 0.0
C670 C 0.08482 0.05773 0.33104 0.0
C671 C 0.06857 0.08164 0.33684 0.0
C672 C 0.05054 0.09749 0.32133 0.0
C673 C 0.04846 0.08936 0.30022 0.0
C674 C 0.06539 0.06493 0.29483 0.0
H675 H 0.35418 0.48808 0.86248 0.0
H676 H 0.40236 0.55376 0.82716 0.0
H677 H 0.43343 0.52479 0.80018 0.0
H678 H 0.45146 0.44865 0.85279 0.0
H679 H 0.41937 0.4192 0.85093 0.0
H680 H 0.39883 0.44507 0.86686 0.0
H681 H 0.32301 0.44458 0.8464 0.0
H682 H 0.34343 0.41875 0.83036 0.0
H683 H 0.32382 0.44793 0.81838 0.0
H684 H 0.45629 0.48905 0.7766 0.0
H685 H 0.47776 0.44837 0.75961 0.0
H686 H 0.42151 0.4056 0.81174 0.0
C687 C 0.37121 0.4962 0.849 0.0
C688 C 0.37588 0.52297 0.84664 0.0
C689 C 0.39863 0.5332 0.82904 0.0
C690 C 0.41614 0.51695 0.81368 0.0
C691 C 0.41101 0.49057 0.81637 0.0
C692 C 0.38967 0.4802 0.8337 0.0
C693 C 0.39065 0.45115 0.83321 0.0
C694 C 0.41664 0.4404 0.85206 0.0
C695 C 0.34236 0.43995 0.83202 0.0
C696 C 0.41621 0.44686 0.81301 0.0
C697 C 0.42673 0.46987 0.80335 0.0
C698 C 0.44863 0.47091 0.78409 0.0
C699 C 0.46055 0.44778 0.77455 0.0
C700 C 0.45155 0.42409 0.78454 0.0
C701 C 0.42911 0.42359 0.80398 0.0
H702 H 0.62856 0.49334 0.64746 0.0
H703 H 0.65334 0.54755 0.69781 0.0
H704 H 0.6275 0.51554 0.72328 0.0
H705 H 0.52934 0.46336 0.6691 0.0
H706 H 0.54389 0.4313 0.66121 0.0
H707 H 0.56382 0.45839 0.64622 0.0
H708 H 0.64672 0.44314 0.65059 0.0
H709 H 0.62696 0.41588 0.66544 0.0
H710 H 0.66867 0.43737 0.67644 0.0
H711 H 0.59439 0.48025 0.74295 0.0
H712 H 0.56411 0.44038 0.75723 0.0
H713 H 0.56796 0.40535 0.69579 0.0
C714 C 0.62892 0.49838 0.66386 0.0
C715 C 0.64201 0.52328 0.67054 0.0
C716 C 0.64205 0.52901 0.69216 0.0
C717 C 0.62777 0.51088 0.70682 0.0
C718 C 0.6142 0.48687 0.69971 0.0
C719 C 0.61524 0.48027 0.67887 0.0
C720 C 0.59963 0.45265 0.67582 0.0
C721 C 0.55662 0.45137 0.66228 0.0
C722 C 0.63778 0.4363 0.66652 0.0
C723 C 0.58952 0.44501 0.69825 0.0
C724 C 0.5978 0.46532 0.71158 0.0
C725 C 0.58901 0.46393 0.73281 0.0
C726 C 0.57227 0.44095 0.74083 0.0
C727 C 0.56563 0.41923 0.7279 0.0
C728 C 0.57361 0.42143 0.70617 0.0
H729 H 0.86431 0.02404 0.14287 0.0
H730 H 0.79458 0.97537 0.18774 0.0
H731 H 0.82152 1.00302 0.21643 0.0
H732 H 0.96218 0.03737 0.17419 0.0
H733 H 0.96768 0.07035 0.16604 0.0
H734 H 0.94229 0.0471 0.14878 0.0
H735 H 0.87028 0.07505 0.14594 0.0
H736 H 0.89552 0.09841 0.16318 0.0
H737 H 0.84104 0.08451 0.1694 0.0
H738 H 0.86125 0.03325 0.24044 0.0
H739 H 0.90608 0.06699 0.25808 0.0
H740 H 0.94456 0.099 0.19828 0.0
C741 C 0.85459 0.01935 0.15874 0.0
C742 C 0.82709 0.99763 0.16308 0.0
C743 C 0.81502 0.9921 0.18403 0.0
C744 C 0.83038 0.0076 0.20045 0.0
C745 C 0.85746 0.02877 0.19568 0.0
C746 C 0.86913 0.0349 0.17536 0.0
C747 C 0.89857 0.0589 0.17468 0.0
C748 C 0.94545 0.05307 0.16537 0.0
C749 C 0.87492 0.0805 0.16258 0.0
C750 C 0.90188 0.06509 0.19778 0.0
C751 C 0.8782 0.04728 0.20959 0.0
C752 C 0.87867 0.04779 0.23134 0.0
C753 C 0.90353 0.06722 0.24128 0.0
C754 C 0.92625 0.08628 0.22955 0.0
C755 C 0.92598 0.08505 0.20753 0.0
H756 H 0.86079 0.02104 0.68399 0.0
H757 H 0.8879 0.98987 0.62251 0.0
H758 H 0.91966 0.95088 0.63867 0.0
H759 H 0.96237 0.99899 0.70769 0.0
H760 H 0.93678 0.9917 0.73258 0.0
H761 H 0.91316 0.01638 0.71628 0.0
H762 H 0.83504 0.99331 0.71734 0.0
H763 H 0.85856 0.9685 0.73361 0.0
H764 H 0.8309 0.9602 0.70944 0.0
H765 H 0.94966 0.91593 0.66121 0.0
H766 H 0.97923 0.88764 0.68876 0.0
H767 H 0.93691 0.94236 0.73586 0.0
C768 C 0.87289 0.00581 0.67399 0.0
C769 C 0.87182 0.00834 0.65201 0.0
C770 C 0.88865 0.98829 0.63937 0.0
C771 C 0.9065 0.96606 0.6484 0.0
C772 C 0.90747 0.96424 0.6701 0.0
C773 C 0.89133 0.98357 0.68277 0.0
C774 C 0.8986 0.97724 0.70566 0.0
C775 C 0.92958 0.99727 0.71616 0.0
C776 C 0.85306 0.97466 0.71719 0.0
C777 C 0.92183 0.95152 0.70382 0.0
C778 C 0.92601 0.94426 0.68317 0.0
C779 C 0.94649 0.92136 0.67745 0.0
C780 C 0.9633 0.90546 0.69324 0.0
C781 C 0.95993 0.91258 0.71455 0.0
C782 C 0.93899 0.93601 0.71981 0.0
H783 H 0.6258 0.5135 0.14209 0.0
H784 H 0.66037 0.45898 0.19067 0.0
H785 H 0.63318 0.48907 0.21749 0.0
H786 H 0.66152 0.56954 0.17012 0.0
H787 H 0.61639 0.58969 0.16082 0.0
H788 H 0.63596 0.56343 0.14503 0.0
H789 H 0.55419 0.54509 0.14331 0.0
H790 H 0.53433 0.5713 0.1591 0.0
H791 H 0.52385 0.5387 0.16723 0.0
H792 H 0.60361 0.52421 0.23886 0.0
H793 H 0.5735 0.56342 0.25441 0.0
H794 H 0.56124 0.59751 0.19269 0.0
C795 C 0.62708 0.50794 0.15838 0.0
C796 C 0.64506 0.484 0.16444 0.0
C797 C 0.64685 0.47732 0.18584 0.0
C798 C 0.63142 0.49422 0.20113 0.0
C799 C 0.61455 0.51781 0.19477 0.0
C800 C 0.61226 0.52483 0.17397 0.0
C801 C 0.59395 0.55185 0.17169 0.0
C802 C 0.62906 0.56968 0.1613 0.0
C803 C 0.5489 0.55171 0.15961 0.0
C804 C 0.58674 0.55885 0.19444 0.0
C805 C 0.59849 0.53874 0.20737 0.0
C806 C 0.59431 0.54014 0.22893 0.0
C807 C 0.57723 0.56262 0.2376 0.0
C808 C 0.56471 0.58363 0.2248 0.0
C809 C 0.5702 0.58176 0.2029 0.0
H810 H 0.3116 0.52087 0.35051 0.0
H811 H 0.39885 0.45732 0.33438 0.0
H812 H 0.43639 0.48399 0.30751 0.0
H813 H 0.30098 0.54791 0.29757 0.0
H814 H 0.30396 0.58077 0.30626 0.0
H815 H 0.28021 0.55641 0.32307 0.0
H816 H 0.33695 0.56831 0.35225 0.0
H817 H 0.36042 0.5931 0.33585 0.0
H818 H 0.39682 0.5688 0.3466 0.0
H819 H 0.46795 0.51747 0.28451 0.0
H820 H 0.49582 0.5572 0.26795 0.0
H821 H 0.38994 0.60037 0.29864 0.0
C822 C 0.33817 0.51259 0.34105 0.0
C823 C 0.35237 0.48706 0.34436 0.0
C824 C 0.38771 0.47687 0.33205 0.0
C825 C 0.40894 0.49179 0.31668 0.0
C826 C 0.39456 0.51694 0.31386 0.0
C827 C 0.36027 0.52742 0.32575 0.0
C828 C 0.3542 0.55565 0.32061 0.0
C829 C 0.30703 0.56047 0.31131 0.0
C830 C 0.36262 0.57245 0.33998 0.0
C831 C 0.39115 0.55945 0.30436 0.0
C832 C 0.41343 0.53669 0.30054 0.0
C833 C 0.45059 0.53537 0.28721 0.0
C834 C 0.46633 0.55804 0.27797 0.0
C835 C 0.44505 0.58171 0.28208 0.0
C836 C 0.40631 0.58238 0.29504 0.0
H837 H 0.08777 0.03175 0.8389 0.0
H838 H 0.21026 0.99777 0.86385 0.0
H839 H 0.19269 0.95742 0.84539 0.0
H840 H 0.01706 0.97534 0.8417 0.0
H841 H 0.98843 0.98134 0.81733 0.0
H842 H 0.01026 0.00777 0.83247 0.0
H843 H 0.05705 0.02348 0.80055 0.0
H844 H 0.03506 0.99716 0.78533 0.0
H845 H 0.09541 1.00166 0.7879 0.0
H846 H 0.16228 0.92106 0.82499 0.0
H847 H 0.12198 0.89047 0.80244 0.0
H848 H 0.01913 0.94756 0.78953 0.0
C849 C 0.11068 0.01573 0.84051 0.0
C850 C 0.1504 0.0178 0.85277 0.0
C851 C 0.17992 0.9966 0.85437 0.0
C852 C 0.17012 0.97361 0.84404 0.0
C853 C 0.13079 0.97217 0.83208 0.0
C854 C 0.10162 0.99264 0.8301 0.0
C855 C 0.06217 0.98598 0.81583 0.0
C856 C 0.01679 0.98771 0.82754 0.0
C857 C 0.06246 1.00309 0.79624 0.0
C858 C 0.07345 0.95846 0.81042 0.0
C859 C 0.11326 0.95102 0.81998 0.0
C860 C 0.13113 0.92665 0.81737 0.0
C861 C 0.10796 0.90944 0.80448 0.0
C862 C 0.0675 0.91668 0.79415 0.0
C863 C 0.04977 0.94146 0.79735 0.0
H864 H 0.19106 0.15692 0.03317 0.0
H865 H 0.11456 0.08812 0.01763 0.0
H866 H 0.09617 0.08185 0.05485 0.0
H867 H 0.24015 0.13246 0.07994 0.0
H868 H 0.23722 0.16245 0.09382 0.0
H869 H 0.24216 0.16236 0.0658 0.0
H870 H 0.16955 0.18983 0.06296 0.0
H871 H 0.16428 0.18991 0.09099 0.0
H872 H 0.11787 0.17867 0.07507 0.0
H873 H 0.08874 0.08191 0.09398 0.0
H874 H 0.09478 0.08771 0.13213 0.0
H875 H 0.17561 0.15658 0.12224 0.0
C876 C 0.17048 0.14052 0.03757 0.0
C877 C 0.15396 0.12315 0.02237 0.0
C878 C 0.12689 0.10201 0.02887 0.0
C879 C 0.11641 0.09819 0.05001 0.0
C880 C 0.13319 0.11566 0.06455 0.0
C881 C 0.15968 0.1364 0.05863 0.0
C882 C 0.17463 0.15187 0.07745 0.0
C883 C 0.22662 0.15229 0.07936 0.0
C884 C 0.15542 0.17919 0.07656 0.0
C885 C 0.15297 0.13638 0.09488 0.0
C886 C 0.12896 0.11567 0.08711 0.0
C887 C 0.10713 0.09819 0.10025 0.0
C888 C 0.11049 0.10175 0.12192 0.0
C889 C 0.13561 0.12261 0.13029 0.0
C890 C 0.15649 0.14029 0.11643 0.0
H891 H 0.35029 0.41806 0.52418 0.0
H892 H 0.2855 0.34318 0.5269 0.0
H893 H 0.30263 0.34058 0.56465 0.0
H894 H 0.44121 0.40428 0.5611 0.0
H895 H 0.43988 0.43597 0.57228 0.0
H896 H 0.42428 0.43124 0.54535 0.0
H897 H 0.34679 0.45278 0.55227 0.0
H898 H 0.36211 0.45756 0.57919 0.0
H899 H 0.3107 0.44046 0.57274 0.0
H900 H 0.32436 0.34724 0.60276 0.0
H901 H 0.34656 0.36319 0.6377 0.0
H902 H 0.39933 0.43288 0.6093 0.0
C903 C 0.34036 0.4009 0.5326 0.0
C904 C 0.3166 0.3808 0.52252 0.0
C905 C 0.30333 0.35895 0.5343 0.0
C906 C 0.31322 0.35721 0.55572 0.0
C907 C 0.33652 0.37744 0.56516 0.0
C908 C 0.34994 0.39885 0.55394 0.0
C909 C 0.37292 0.41844 0.56785 0.0
C910 C 0.42252 0.42272 0.56125 0.0
C911 C 0.34654 0.4438 0.56802 0.0
C912 C 0.36986 0.4049 0.58872 0.0
C913 C 0.34903 0.38121 0.5869 0.0
C914 C 0.34107 0.36568 0.60431 0.0
C915 C 0.35405 0.37483 0.6241 0.0
C916 C 0.37461 0.39933 0.62633 0.0
C917 C 0.38324 0.4142 0.60824 0.0
H918 H 0.62794 0.34299 0.99568 0.0
H919 H 0.74928 0.38738 0.98182 0.0
H920 H 0.73604 0.38109 0.94408 0.0
H921 H 0.64129 0.29674 0.95495 0.0
H922 H 0.58159 0.29442 0.94922 0.0
H923 H 0.60014 0.3027 0.97516 0.0
H924 H 0.55237 0.34419 0.97379 0.0
H925 H 0.53352 0.33599 0.94787 0.0
H926 H 0.56068 0.36651 0.95258 0.0
H927 H 0.7101 0.36972 0.90802 0.0
H928 H 0.67324 0.35404 0.87588 0.0
H929 H 0.56791 0.31757 0.9131 0.0
C930 C 0.65147 0.3516 0.98469 0.0
C931 C 0.6897 0.36566 0.99167 0.0
C932 C 0.72008 0.37629 0.97682 0.0
C933 C 0.71273 0.37293 0.95537 0.0
C934 C 0.67487 0.35886 0.94903 0.0
C935 C 0.64473 0.34836 0.96323 0.0
C936 C 0.60701 0.33379 0.95228 0.0
C937 C 0.60757 0.30522 0.95826 0.0
C938 C 0.56066 0.34585 0.9569 0.0
C939 C 0.62068 0.33775 0.9297 0.0
C940 C 0.65988 0.35229 0.92819 0.0
C941 C 0.67925 0.35843 0.90899 0.0
C942 C 0.65791 0.34954 0.89082 0.0
C943 C 0.61752 0.33469 0.89195 0.0
C944 C 0.5989 0.32869 0.91172 0.0
H945 H 0.83295 0.17911 0.48994 0.0
H946 H 0.84399 0.09636 0.48756 0.0
H947 H 0.85791 0.09867 0.44943 0.0
H948 H 0.77659 0.18808 0.44152 0.0
H949 H 0.80714 0.21696 0.43472 0.0
H950 H 0.79878 0.20864 0.46175 0.0
H951 H 0.88557 0.21086 0.46791 0.0
H952 H 0.8942 0.21918 0.44088 0.0
H953 H 0.92267 0.19185 0.4519 0.0
H954 H 0.86538 0.11015 0.41112 0.0
H955 H 0.8691 0.12973 0.3761 0.0
H956 H 0.86067 0.20535 0.40424 0.0
C957 C 0.83837 0.16154 0.48133 0.0
C958 C 0.83722 0.13754 0.49153 0.0
C959 C 0.84488 0.1149 0.47992 0.0
C960 C 0.85275 0.11605 0.45831 0.0
C961 C 0.85364 0.14003 0.44866 0.0
C962 C 0.84719 0.16238 0.45984 0.0
C963 C 0.85023 0.18571 0.4458 0.0
C964 C 0.80552 0.20072 0.44596 0.0
C965 C 0.89057 0.20291 0.45199 0.0
C966 C 0.85819 0.17298 0.42488 0.0
C967 C 0.86002 0.14664 0.42682 0.0
C968 C 0.86476 0.1308 0.40945 0.0
C969 C 0.86723 0.14217 0.38957 0.0
C970 C 0.86535 0.16921 0.38716 0.0
C971 C 0.86159 0.18465 0.40527 0.0
H972 H 0.8155 0.8445 0.98282 0.0
H973 H 0.86452 0.92235 0.99208 0.0
H974 H 0.88181 0.92575 0.95451 0.0
H975 H 0.89763 0.82667 0.94311 0.0
H976 H 0.85727 0.80802 0.92831 0.0
H977 H 0.85066 0.8112 0.95616 0.0
H978 H 0.76943 0.82862 0.9508 0.0
H979 H 0.77577 0.82547 0.92296 0.0
H980 H 0.76088 0.85601 0.93408 0.0
H981 H 0.89029 0.92158 0.91563 0.0
H982 H 0.88914 0.91011 0.87829 0.0
H983 H 0.83614 0.83466 0.89425 0.0
C984 C 0.8299 0.86226 0.97696 0.0
C985 C 0.83896 0.88309 0.99051 0.0
C986 C 0.85805 0.90594 0.98216 0.0
C987 C 0.86779 0.90813 0.96079 0.0
C988 C 0.85837 0.88728 0.9479 0.0
C989 C 0.83996 0.86476 0.95565 0.0
C990 C 0.83215 0.84545 0.93833 0.0
C991 C 0.86117 0.82142 0.94168 0.0
C992 C 0.78155 0.83849 0.93643 0.0
C993 C 0.84841 0.86079 0.9196 0.0
C994 C 0.86357 0.88482 0.92547 0.0
C995 C 0.87895 0.9027 0.91086 0.0
C996 C 0.87846 0.89591 0.88966 0.0
C997 C 0.86274 0.87142 0.88319 0.0
C998 C 0.848 0.85362 0.89854 0.0
H999 H 0.6828 0.66314 0.48808 0.0
H1000 H 0.63913 0.58396 0.49568 0.0
H1001 H 0.61794 0.5824 0.45843 0.0
H1002 H 0.59245 0.68131 0.45155 0.0
H1003 H 0.62951 0.70213 0.43678 0.0
H1004 H 0.63917 0.69732 0.46429 0.0
H1005 H 0.7214 0.68292 0.4565 0.0
H1006 H 0.712 0.68764 0.429 0.0
H1007 H 0.7308 0.65694 0.43849 0.0
H1008 H 0.60697 0.58855 0.41982 0.0
H1009 H 0.60693 0.60198 0.3829 0.0
H1010 H 0.65181 0.67818 0.40132 0.0
C1011 C 0.66793 0.6456 0.48208 0.0
C1012 C 0.66283 0.62365 0.49485 0.0
C1013 C 0.64412 0.60092 0.48616 0.0
C1014 C 0.63153 0.59991 0.46506 0.0
C1015 C 0.63733 0.62186 0.45292 0.0
C1016 C 0.65478 0.64433 0.46115 0.0
C1017 C 0.65909 0.66496 0.44463 0.0
C1018 C 0.6282 0.68778 0.44961 0.0
C1019 C 0.70877 0.67361 0.44201 0.0
C1020 C 0.64241 0.65039 0.42571 0.0
C1021 C 0.62978 0.62561 0.43081 0.0
C1022 C 0.61598 0.60806 0.41568 0.0
C1023 C 0.61576 0.61595 0.39473 0.0
C1024 C 0.62915 0.64122 0.38911 0.0
C1025 C 0.64169 0.65869 0.40498 0.0
H1026 H 0.28188 0.63085 0.03401 0.0
H1027 H 0.42084 0.64493 0.01432 0.0
H1028 H 0.44283 0.65227 0.05092 0.0
H1029 H 0.27897 0.68087 0.07122 0.0
H1030 H 0.24383 0.66354 0.08953 0.0
H1031 H 0.23996 0.65661 0.06206 0.0
H1032 H 0.2567 0.60876 0.06958 0.0
H1033 H 0.26083 0.61556 0.0971 0.0
H1034 H 0.30719 0.60028 0.08378 0.0
H1035 H 0.4494 0.6598 0.08965 0.0
H1036 H 0.43853 0.66999 0.12707 0.0
H1037 H 0.29474 0.65395 0.12101 0.0
C1038 C 0.31696 0.63552 0.03729 0.0
C1039 C 0.34961 0.63703 0.02112 0.0
C1040 C 0.39524 0.64299 0.02634 0.0
C1041 C 0.4081 0.64735 0.04713 0.0
C1042 C 0.37499 0.64585 0.06259 0.0
C1043 C 0.3303 0.64025 0.05791 0.0
C1044 C 0.30076 0.6414 0.07723 0.0
C1045 C 0.26371 0.66183 0.07486 0.0
C1046 C 0.28016 0.61492 0.08221 0.0
C1047 C 0.33563 0.64916 0.09341 0.0
C1048 C 0.37842 0.65113 0.08475 0.0
C1049 C 0.41607 0.65825 0.09662 0.0
C1050 C 0.40965 0.6639 0.11783 0.0
C1051 C 0.36584 0.66279 0.12682 0.0
C1052 C 0.32855 0.65506 0.11446 0.0
H1053 H 0.13456 0.84587 0.52389 0.0
H1054 H 0.25763 0.89062 0.53288 0.0
H1055 H 0.24843 0.88686 0.57109 0.0
H1056 H 0.07258 0.87153 0.56772 0.0
H1057 H 0.0463 0.84126 0.57428 0.0
H1058 H 0.06191 0.84806 0.54764 0.0
H1059 H 0.10986 0.80664 0.54656 0.0
H1060 H 0.0944 0.79971 0.5732 0.0
H1061 H 0.15333 0.80179 0.56592 0.0
H1062 H 0.22767 0.8766 0.60833 0.0
H1063 H 0.19649 0.86122 0.64178 0.0
H1064 H 0.08544 0.82427 0.60859 0.0
C1065 C 0.15973 0.85479 0.53387 0.0
C1066 C 0.19682 0.86859 0.52532 0.0
C1067 C 0.22862 0.88024 0.53901 0.0
C1068 C 0.22381 0.8781 0.56075 0.0
C1069 C 0.18695 0.8643 0.56862 0.0
C1070 C 0.15539 0.8529 0.55561 0.0
C1071 C 0.11915 0.83892 0.56806 0.0
C1072 C 0.07221 0.85066 0.5642 0.0
C1073 C 0.11921 0.81005 0.56314 0.0
C1074 C 0.13546 0.84408 0.59011 0.0
C1075 C 0.17462 0.85874 0.59009 0.0
C1076 C 0.19672 0.86534 0.60855 0.0
C1077 C 0.17845 0.85664 0.62754 0.0
C1078 C 0.13818 0.84159 0.62803 0.0
C1079 C 0.11646 0.83547 0.60893 0.0
H1080 H 0.10406 0.29599 0.34917 0.0
H1081 H 0.23957 0.26504 0.35618 0.0
H1082 H 0.21805 0.22808 0.33439 0.0
H1083 H 0.04398 0.23602 0.35032 0.0
H1084 H 0.00327 0.24507 0.33072 0.0
H1085 H 0.0289 0.26923 0.34706 0.0
H1086 H 0.05637 0.29387 0.31418 0.0
H1087 H 0.03075 0.2698 0.29774 0.0
H1088 H 0.0901 0.27749 0.29495 0.0
H1089 H 0.18195 0.19399 0.31271 0.0
H1090 H 0.13377 0.16529 0.29176 0.0
H1091 H 0.02277 0.21921 0.29661 0.0
C1092 C 0.12934 0.28156 0.34601 0.0
C1093 C 0.17344 0.28338 0.35465 0.0
C1094 C 0.20529 0.26388 0.3502 0.0
C1095 C 0.19353 0.24287 0.33768 0.0
C1096 C 0.14985 0.24163 0.32954 0.0
C1097 C 0.11824 0.26046 0.33342 0.0
C1098 C 0.07364 0.25441 0.32263 0.0
C1099 C 0.03518 0.25097 0.33864 0.0
C1100 C 0.06205 0.27513 0.30641 0.0
C1101 C 0.08517 0.2292 0.31219 0.0
C1102 C 0.12931 0.22222 0.31643 0.0
C1103 C 0.14753 0.19942 0.30903 0.0
C1104 C 0.11996 0.18334 0.29692 0.0
C1105 C 0.07481 0.19022 0.29201 0.0
C1106 C 0.05725 0.21346 0.29989 0.0
H1107 H 0.38247 0.21614 0.84974 0.0
H1108 H 0.25755 0.25739 0.86167 0.0
H1109 H 0.28432 0.29259 0.83913 0.0
H1110 H 0.458 0.26986 0.84721 0.0
H1111 H 0.49043 0.25691 0.82581 0.0
H1112 H 0.46216 0.23563 0.84381 0.0
H1113 H 0.42103 0.21407 0.8125 0.0
H1114 H 0.44906 0.23578 0.79471 0.0
H1115 H 0.38807 0.23353 0.79493 0.0
H1116 H 0.32435 0.32345 0.81526 0.0
H1117 H 0.37504 0.34758 0.79162 0.0
H1118 H 0.47147 0.28519 0.79323 0.0
C1119 C 0.36042 0.23242 0.84757 0.0
C1120 C 0.31794 0.2339 0.85781 0.0
C1121 C 0.2907 0.25589 0.85456 0.0
C1122 C 0.30538 0.27595 0.84156 0.0
C1123 C 0.34716 0.2737 0.83165 0.0
C1124 C 0.37418 0.25245 0.83438 0.0
C1125 C 0.41712 0.25454 0.82147 0.0
C1126 C 0.45942 0.25423 0.83544 0.0
C1127 C 0.4189 0.23321 0.80492 0.0
C1128 C 0.41049 0.28056 0.81145 0.0
C1129 C 0.36974 0.2912 0.81743 0.0
C1130 C 0.35615 0.3152 0.81033 0.0
C1131 C 0.38499 0.32868 0.79675 0.0
C1132 C 0.42677 0.31809 0.7903 0.0
C1133 C 0.43967 0.29375 0.79786 0.0
H1134 H 0.65991 0.24256 0.64746 0.0
H1135 H 0.6602 0.17851 0.69093 0.0
H1136 H 0.62248 0.2052 0.71726 0.0
H1137 H 0.68463 0.29132 0.68576 0.0
H1138 H 0.64853 0.315 0.67392 0.0
H1139 H 0.67435 0.29068 0.658 0.0
H1140 H 0.595 0.27704 0.64431 0.0
H1141 H 0.56908 0.30131 0.66026 0.0
H1142 H 0.55126 0.26833 0.66273 0.0
H1143 H 0.58483 0.23832 0.73897 0.0
H1144 H 0.55128 0.27664 0.75515 0.0
H1145 H 0.57825 0.32022 0.69863 0.0
C1146 C 0.65222 0.23418 0.66254 0.0
C1147 C 0.66258 0.20825 0.66695 0.0
C1148 C 0.6517 0.19807 0.68691 0.0
C1149 C 0.63052 0.21314 0.70207 0.0
C1150 C 0.62057 0.23847 0.69717 0.0
C1151 C 0.63115 0.24902 0.67796 0.0
C1152 C 0.61725 0.27696 0.67695 0.0
C1153 C 0.65866 0.29452 0.67346 0.0
C1154 C 0.581 0.28114 0.66006 0.0
C1155 C 0.59761 0.28042 0.69864 0.0
C1156 C 0.59961 0.25789 0.70996 0.0
C1157 C 0.5832 0.25612 0.7303 0.0
C1158 C 0.56432 0.278 0.73937 0.0
C1159 C 0.56223 0.3014 0.72817 0.0
C1160 C 0.57919 0.30256 0.70753 0.0
H1161 H 0.83233 0.25892 0.1543 0.0
H1162 H 0.92277 0.32287 0.16843 0.0
H1163 H 0.96537 0.29544 0.19238 0.0
H1164 H 0.82951 0.22979 0.20367 0.0
H1165 H 0.83218 0.19734 0.19412 0.0
H1166 H 0.80794 0.22206 0.17808 0.0
H1167 H 0.86444 0.21091 0.14843 0.0
H1168 H 0.8887 0.1862 0.16456 0.0
H1169 H 0.92444 0.21109 0.15379 0.0
H1170 H 0.99177 0.26314 0.21824 0.0
H1171 H 0.00953 0.22513 0.23983 0.0
H1172 H 0.91222 0.17992 0.20474 0.0
C1173 C 0.86161 0.26718 0.16199 0.0
C1174 C 0.87295 0.29353 0.15975 0.0
C1175 C 0.91169 0.3032 0.17039 0.0
C1176 C 0.93666 0.28766 0.18392 0.0
C1177 C 0.92368 0.26214 0.18618 0.0
C1178 C 0.88796 0.2517 0.17509 0.0
C1179 C 0.88212 0.22339 0.18005 0.0
C1180 C 0.83515 0.21784 0.18955 0.0
C1181 C 0.89043 0.20693 0.16054 0.0
C1182 C 0.91942 0.21983 0.19606 0.0
C1183 C 0.94244 0.24261 0.19958 0.0
C1184 C 0.97507 0.24499 0.21519 0.0
C1185 C 0.98482 0.22342 0.22737 0.0
C1186 C 0.96327 0.19967 0.22334 0.0
C1187 C 0.93022 0.19777 0.2075 0.0
H1188 H 0.80606 0.74868 0.66384 0.0
H1189 H 0.91243 0.69275 0.65476 0.0
H1190 H 0.96327 0.71803 0.67752 0.0
H1191 H 0.88128 0.80443 0.66355 0.0
H1192 H 0.84926 0.82142 0.68304 0.0
H1193 H 0.82105 0.79905 0.66592 0.0
H1194 H 0.79 0.77333 0.69799 0.0
H1195 H 0.81671 0.79699 0.71432 0.0
H1196 H 0.82917 0.76348 0.71805 0.0
H1197 H 0.001 0.74775 0.70241 0.0
H1198 H 0.02657 0.7824 0.72566 0.0
H1199 H 0.8974 0.82072 0.7177 0.0
C1200 C 0.8401 0.74185 0.66666 0.0
C1201 C 0.85542 0.71879 0.65756 0.0
C1202 C 0.90025 0.7105 0.66141 0.0
C1203 C 0.92923 0.72462 0.67442 0.0
C1204 C 0.91298 0.74711 0.68331 0.0
C1205 C 0.86974 0.75591 0.67942 0.0
C1206 C 0.86132 0.78106 0.69059 0.0
C1207 C 0.85274 0.80277 0.67483 0.0
C1208 C 0.82197 0.7785 0.70618 0.0
C1209 C 0.90628 0.78472 0.70171 0.0
C1210 C 0.93544 0.76483 0.69728 0.0
C1211 C 0.97871 0.7636 0.7058 0.0
C1212 C 0.99298 0.78348 0.71893 0.0
C1213 C 0.96439 0.80457 0.7232 0.0
C1214 C 0.92014 0.80493 0.7147 0.0
H1215 H 0.63792 0.76625 0.14091 0.0
H1216 H 0.72023 0.80062 0.19022 0.0
H1217 H 0.68315 0.77343 0.21575 0.0
H1218 H 0.53796 0.75157 0.16884 0.0
H1219 H 0.53006 0.71948 0.159 0.0
H1220 H 0.55944 0.74313 0.14342 0.0
H1221 H 0.62909 0.71342 0.14063 0.0
H1222 H 0.5996 0.6895 0.1559 0.0
H1223 H 0.65453 0.70098 0.16412 0.0
H1224 H 0.62575 0.75071 0.23649 0.0
H1225 H 0.57521 0.71877 0.25179 0.0
H1226 H 0.55043 0.68561 0.1908 0.0
C1227 C 0.64879 0.76807 0.15696 0.0
C1228 C 0.67971 0.78772 0.16338 0.0
C1229 C 0.69368 0.78802 0.18465 0.0
C1230 C 0.67336 0.77216 0.19949 0.0
C1231 C 0.64124 0.75451 0.19284 0.0
C1232 C 0.63096 0.75101 0.17207 0.0
C1233 C 0.59914 0.72797 0.16952 0.0
C1234 C 0.55398 0.73603 0.1596 0.0
C1235 C 0.62196 0.7067 0.15678 0.0
C1236 C 0.59255 0.71989 0.19224 0.0
C1237 C 0.61594 0.73643 0.20521 0.0
C1238 C 0.61008 0.7363 0.22666 0.0
C1239 C 0.58194 0.71762 0.2353 0.0
C1240 C 0.563 0.69776 0.22297 0.0
C1241 C 0.56678 0.69952 0.20088 0.0
H1242 H 0.35327 0.75971 0.36751 0.0
H1243 H 0.31119 0.81381 0.3198 0.0
H1244 H 0.34872 0.7878 0.29294 0.0
H1245 H 0.46439 0.74553 0.34437 0.0
H1246 H 0.46212 0.71206 0.35138 0.0
H1247 H 0.43356 0.73541 0.3673 0.0
H1248 H 0.35814 0.71019 0.36303 0.0
H1249 H 0.38646 0.68683 0.34707 0.0
H1250 H 0.33732 0.7032 0.33717 0.0
H1251 H 0.38691 0.75569 0.27108 0.0
H1252 H 0.42542 0.7191 0.25503 0.0
H1253 H 0.44519 0.68518 0.31638 0.0
C1254 C 0.35246 0.76618 0.35144 0.0
C1255 C 0.32884 0.78867 0.34572 0.0
C1256 C 0.32827 0.79642 0.3245 0.0
C1257 C 0.34979 0.78188 0.30914 0.0
C1258 C 0.37207 0.75967 0.3152 0.0
C1259 C 0.37387 0.75181 0.33579 0.0
C1260 C 0.39928 0.72668 0.33779 0.0
C1261 C 0.4424 0.73014 0.351 0.0
C1262 C 0.36845 0.70548 0.34679 0.0
C1263 C 0.41079 0.72157 0.31507 0.0
C1264 C 0.39482 0.74097 0.3024 0.0
C1265 C 0.39985 0.74043 0.28082 0.0
C1266 C 0.42167 0.71944 0.27186 0.0
C1267 C 0.43836 0.69919 0.28442 0.0
C1268 C 0.43309 0.70042 0.30637 0.0
H1269 H 0.17486 0.70829 0.82857 0.0
H1270 H 0.15558 0.74331 0.88944 0.0
H1271 H 0.11663 0.77956 0.87282 0.0
H1272 H 0.19795 0.76793 0.80088 0.0
H1273 H 0.16876 0.75801 0.7775 0.0
H1274 H 0.195 0.73442 0.79407 0.0
H1275 H 0.1183 0.71012 0.79721 0.0
H1276 H 0.0919 0.73366 0.78068 0.0
H1277 H 0.06894 0.72704 0.80622 0.0
H1278 H 0.07928 0.81154 0.85018 0.0
H1279 H 0.04622 0.83825 0.82257 0.0
H1280 H 0.09121 0.78387 0.77572 0.0
C1281 C 0.16282 0.72367 0.8384 0.0
C1282 C 0.16799 0.72274 0.8604 0.0
C1283 C 0.15125 0.74322 0.87265 0.0
C1284 C 0.12938 0.76404 0.86334 0.0
C1285 C 0.12476 0.76427 0.84171 0.0
C1286 C 0.14111 0.74476 0.82934 0.0
C1287 C 0.13159 0.74993 0.80641 0.0
C1288 C 0.17598 0.75274 0.79399 0.0
C1289 C 0.10085 0.72894 0.79709 0.0
C1290 C 0.10705 0.77531 0.80791 0.0
C1291 C 0.10358 0.78314 0.82846 0.0
C1292 C 0.08182 0.80567 0.83402 0.0
C1293 C 0.06296 0.82064 0.81818 0.0
C1294 C 0.06602 0.81313 0.79695 0.0
C1295 C 0.0886 0.79018 0.79178 0.0
loop_
_geom_bond_atom_site_label_1
_geom_bond_atom_site_label_2
_geom_bond_distance
_geom_bond_site_symmetry_2
_ccdc_geom_bond_type
C0 C1 1.386 . S
C0 C2 1.397 . S
C0 H24 0.931 . S
C1 C0 1.386 . S
C1 C5 1.397 . S
C2 C0 1.397 . S
C2 C3 1.384 . S
C2 H25 0.930 . S
C3 C2 1.384 . S
C3 C4 1.377 . S
C3 C6 1.481 . S
C4 C3 1.377 . S
C4 C5 1.389 . S
C4 H26 0.929 . S
C5 C1 1.397 . S
C5 C4 1.389 . S
C5 H27 0.931 . S
C6 C3 1.481 . S
C6 C7 1.387 . S
C6 C11 1.390 . S
C7 C6 1.387 . S
C7 C8 1.401 . S
C7 H28 0.930 . S
C8 C7 1.401 . S
C8 C9 1.376 . S
C8 C17 1.511 . S
C9 C8 1.376 . S
C9 C10 1.392 . S
C9 H30 0.931 . S
C10 C9 1.392 . S
C10 C11 1.361 . S
C10 C12 1.500 . S
C11 C6 1.390 . S
C11 C10 1.361 . S
C11 H29 0.931 . S
C12 C10 1.500 . S
C12 C13 1.371 . S
C12 C14 1.365 . S
C13 C12 1.371 . S
C13 C23 1.386 . S
C13 H31 0.931 . S
C14 C12 1.365 . S
C14 C15 1.409 . S
C14 H32 0.929 . S
C15 C14 1.409 . S
C15 C16 1.380 . S
C15 H33 0.930 . S
C16 C15 1.380 . S
C16 C23 1.357 . S
C17 C8 1.511 . S
C17 C18 1.341 . S
C17 C19 1.371 . S
C18 C17 1.341 . S
C18 C22 1.394 . S
C18 H34 0.930 . S
C19 C17 1.371 . S
C19 C20 1.392 . S
C19 H35 0.931 . S
C20 C19 1.392 . S
C20 C21 1.331 . S
C20 H38 0.932 . S
C21 C20 1.331 . S
C21 C22 1.336 . S
C22 C18 1.394 . S
C22 C21 1.336 . S
C22 H37 0.929 . S
C23 C13 1.386 . S
C23 C16 1.357 . S
C23 H36 0.928 . S
H24 C0 0.931 . S
H25 C2 0.930 . S
H26 C4 0.929 . S
H27 C5 0.931 . S
H28 C7 0.930 . S
H29 C11 0.931 . S
H30 C9 0.931 . S
H31 C13 0.931 . S
H32 C14 0.929 . S
H33 C15 0.930 . S
H34 C18 0.930 . S
H35 C19 0.931 . S
H36 C23 0.928 . S
H37 C22 0.929 . S
H38 C20 0.932 . S
C39 C40 1.386 . S
C39 C41 1.397 . S
C39 H63 0.931 . S
C40 C39 1.386 . S
C40 C44 1.397 . S
C41 C39 1.397 . S
C41 C42 1.384 . S
C41 H64 0.930 . S
C42 C41 1.384 . S
C42 C43 1.377 . S
C42 C45 1.481 . S
C43 C42 1.377 . S
C43 C44 1.389 . S
C43 H65 0.929 . S
C44 C40 1.397 . S
C44 C43 1.389 . S
C44 H66 0.931 . S
C45 C42 1.481 . S
C45 C46 1.387 . S
C45 C50 1.390 . S
C46 C45 1.387 . S
C46 C47 1.401 . S
C46 H67 0.930 . S
C47 C46 1.401 . S
C47 C48 1.376 . S
C47 C56 1.511 . S
C48 C47 1.376 . S
C48 C49 1.392 . S
C48 H69 0.931 . S
C49 C48 1.392 . S
C49 C50 1.361 . S
C49 C51 1.500 . S
C50 C45 1.390 . S
C50 C49 1.361 . S
C50 H68 0.931 . S
C51 C49 1.500 . S
C51 C52 1.371 . S
C51 C53 1.365 . S
C52 C51 1.371 . S
C52 C62 1.386 . S
C52 H70 0.931 . S
C53 C51 1.365 . S
C53 C54 1.409 . S
C53 H71 0.929 . S
C54 C53 1.409 . S
C54 C55 1.380 . S
C54 H72 0.930 . S
C55 C54 1.380 . S
C55 C62 1.357 . S
C56 C47 1.511 . S
C56 C57 1.341 . S
C56 C58 1.371 . S
C57 C56 1.341 . S
C57 C61 1.394 . S
C57 H73 0.930 . S
C58 C56 1.371 . S
C58 C59 1.392 . S
C58 H74 0.931 . S
C59 C58 1.392 . S
C59 C60 1.331 . S
C59 H77 0.932 . S
C60 C59 1.331 . S
C60 C61 1.336 . S
C61 C57 1.394 . S
C61 C60 1.336 . S
C61 H76 0.929 . S
C62 C52 1.386 . S
C62 C55 1.357 . S
C62 H75 0.928 . S
H63 C39 0.931 . S
H64 C41 0.930 . S
H65 C43 0.929 . S
H66 C44 0.931 . S
H67 C46 0.930 . S
H68 C50 0.931 . S
H69 C48 0.931 . S
H70 C52 0.931 . S
H71 C53 0.929 . S
H72 C54 0.930 . S
H73 C57 0.930 . S
H74 C58 0.931 . S
H75 C62 0.928 . S
H76 C61 0.929 . S
H77 C59 0.932 . S
C78 C79 1.386 . S
C78 C80 1.397 . S
C78 H102 0.931 . S
C79 C78 1.386 . S
C79 C83 1.397 . S
C80 C78 1.397 . S
C80 C81 1.384 . S
C80 H103 0.930 . S
C81 C80 1.384 . S
C81 C82 1.377 . S
C81 C84 1.481 . S
C82 C81 1.377 . S
C82 C83 1.389 . S
C82 H104 0.929 . S
C83 C79 1.397 . S
C83 C82 1.389 . S
C83 H105 0.931 . S
C84 C81 1.481 . S
C84 C85 1.387 . S
C84 C89 1.390 . S
C85 C84 1.387 . S
C85 C86 1.401 . S
C85 H106 0.930 . S
C86 C85 1.401 . S
C86 C87 1.376 . S
C86 C95 1.511 . S
C87 C86 1.376 . S
C87 C88 1.392 . S
C87 H108 0.931 . S
C88 C87 1.392 . S
C88 C89 1.361 . S
C88 C90 1.500 . S
C89 C84 1.390 . S
C89 C88 1.361 . S
C89 H107 0.931 . S
C90 C88 1.500 . S
C90 C91 1.371 . S
C90 C92 1.365 . S
C91 C90 1.371 . S
C91 C101 1.386 . S
C91 H109 0.931 . S
C92 C90 1.365 . S
C92 C93 1.409 . S
C92 H110 0.929 . S
C93 C92 1.409 . S
C93 C94 1.380 . S
C93 H111 0.930 . S
C94 C93 1.380 . S
C94 C101 1.357 . S
C95 C86 1.511 . S
C95 C96 1.341 . S
C95 C97 1.371 . S
C96 C95 1.341 . S
C96 C100 1.394 . S
C96 H112 0.930 . S
C97 C95 1.371 . S
C97 C98 1.392 . S
C97 H113 0.931 . S
C98 C97 1.392 . S
C98 C99 1.331 . S
C98 H116 0.932 . S
C99 C98 1.331 . S
C99 C100 1.336 . S
C100 C96 1.394 . S
C100 C99 1.336 . S
C100 H115 0.929 . S
C101 C91 1.386 . S
C101 C94 1.357 . S
C101 H114 0.928 . S
H102 C78 0.931 . S
H103 C80 0.930 . S
H104 C82 0.929 . S
H105 C83 0.931 . S
H106 C85 0.930 . S
H107 C89 0.931 . S
H108 C87 0.931 . S
H109 C91 0.931 . S
H110 C92 0.929 . S
H111 C93 0.930 . S
H112 C96 0.930 . S
H113 C97 0.931 . S
H114 C101 0.928 . S
H115 C100 0.929 . S
H116 C98 0.932 . S
C117 C118 1.386 . S
C117 C119 1.397 . S
C117 H141 0.931 . S
C118 C117 1.386 . S
C118 C122 1.397 . S
C119 C117 1.397 . S
C119 C120 1.384 . S
C119 H142 0.930 . S
C120 C119 1.384 . S
C120 C121 1.377 . S
C120 C123 1.481 . S
C121 C120 1.377 . S
C121 C122 1.389 . S
C121 H143 0.929 . S
C122 C118 1.397 . S
C122 C121 1.389 . S
C122 H144 0.931 . S
C123 C120 1.481 . S
C123 C124 1.387 . S
C123 C128 1.390 . S
C124 C123 1.387 . S
C124 C125 1.401 . S
C124 H145 0.930 . S
C125 C124 1.401 . S
C125 C126 1.376 . S
C125 C134 1.511 . S
C126 C125 1.376 . S
C126 C127 1.392 . S
C126 H147 0.931 . S
C127 C126 1.392 . S
C127 C128 1.361 . S
C127 C129 1.500 . S
C128 C123 1.390 . S
C128 C127 1.361 . S
C128 H146 0.931 . S
C129 C127 1.500 . S
C129 C130 1.371 . S
C129 C131 1.365 . S
C130 C129 1.371 . S
C130 C140 1.386 . S
C130 H148 0.931 . S
C131 C129 1.365 . S
C131 C132 1.409 . S
C131 H149 0.929 . S
C132 C131 1.409 . S
C132 C133 1.380 . S
C132 H150 0.930 . S
C133 C132 1.380 . S
C133 C140 1.357 . S
C134 C125 1.511 . S
C134 C135 1.341 . S
C134 C136 1.371 . S
C135 C134 1.341 . S
C135 C139 1.394 . S
C135 H151 0.930 . S
C136 C134 1.371 . S
C136 C137 1.392 . S
C136 H152 0.931 . S
C137 C136 1.392 . S
C137 C138 1.331 . S
C137 H155 0.932 . S
C138 C137 1.331 . S
C138 C139 1.336 . S
C139 C135 1.394 . S
C139 C138 1.336 . S
C139 H154 0.929 . S
C140 C130 1.386 . S
C140 C133 1.357 . S
C140 H153 0.928 . S
H141 C117 0.931 . S
H142 C119 0.930 . S
H143 C121 0.929 . S
H144 C122 0.931 . S
H145 C124 0.930 . S
H146 C128 0.931 . S
H147 C126 0.931 . S
H148 C130 0.931 . S
H149 C131 0.929 . S
H150 C132 0.930 . S
H151 C135 0.930 . S
H152 C136 0.931 . S
H153 C140 0.928 . S
H154 C139 0.929 . S
H155 C137 0.932 . S
C156 C157 1.386 . S
C156 C158 1.397 . S
C156 H180 0.931 . S
C157 C156 1.386 . S
C157 C161 1.397 . S
C158 C156 1.397 . S
C158 C159 1.384 . S
C158 H181 0.930 . S
C159 C158 1.384 . S
C159 C160 1.377 . S
C159 C162 1.481 . S
C160 C159 1.377 . S
C160 C161 1.389 . S
C160 H182 0.929 . S
C161 C157 1.397 . S
C161 C160 1.389 . S
C161 H183 0.931 . S
C162 C159 1.481 . S
C162 C163 1.387 . S
C162 C167 1.390 . S
C163 C162 1.387 . S
C163 C164 1.401 . S
C163 H184 0.930 . S
C164 C163 1.401 . S
C164 C165 1.376 . S
C164 C173 1.511 . S
C165 C164 1.376 . S
C165 C166 1.392 . S
C165 H186 0.931 . S
C166 C165 1.392 . S
C166 C167 1.361 . S
C166 C168 1.500 . S
C167 C162 1.390 . S
C167 C166 1.361 . S
C167 H185 0.931 . S
C168 C166 1.500 . S
C168 C169 1.371 . S
C168 C170 1.365 . S
C169 C168 1.371 . S
C169 C179 1.386 . S
C169 H187 0.931 . S
C170 C168 1.365 . S
C170 C171 1.409 . S
C170 H188 0.929 . S
C171 C170 1.409 . S
C171 C172 1.380 . S
C171 H189 0.930 . S
C172 C171 1.380 . S
C172 C179 1.357 . S
C173 C164 1.511 . S
C173 C174 1.341 . S
C173 C175 1.371 . S
C174 C173 1.341 . S
C174 C178 1.394 . S
C174 H190 0.930 . S
C175 C173 1.371 . S
C175 C176 1.392 . S
C175 H191 0.931 . S
C176 C175 1.392 . S
C176 C177 1.331 . S
C176 H194 0.932 . S
C177 C176 1.331 . S
C177 C178 1.336 . S
C178 C174 1.394 . S
C178 C177 1.336 . S
C178 H193 0.929 . S
C179 C169 1.386 . S
C179 C172 1.357 . S
C179 H192 0.928 . S
H180 C156 0.931 . S
H181 C158 0.930 . S
H182 C160 0.929 . S
H183 C161 0.931 . S
H184 C163 0.930 . S
H185 C167 0.931 . S
H186 C165 0.931 . S
H187 C169 0.931 . S
H188 C170 0.929 . S
H189 C171 0.930 . S
H190 C174 0.930 . S
H191 C175 0.931 . S
H192 C179 0.928 . S
H193 C178 0.929 . S
H194 C176 0.932 . S
C195 C196 1.386 . S
C195 C197 1.397 . S
C195 H219 0.931 . S
C196 C195 1.386 . S
C196 C200 1.397 . S
C197 C195 1.397 . S
C197 C198 1.384 . S
C197 H220 0.930 . S
C198 C197 1.384 . S
C198 C199 1.377 . S
C198 C201 1.481 . S
C199 C198 1.377 . S
C199 C200 1.389 . S
C199 H221 0.929 . S
C200 C196 1.397 . S
C200 C199 1.389 . S
C200 H222 0.931 . S
C201 C198 1.481 . S
C201 C202 1.387 . S
C201 C206 1.390 . S
C202 C201 1.387 . S
C202 C203 1.401 . S
C202 H223 0.930 . S
C203 C202 1.401 . S
C203 C204 1.376 . S
C203 C212 1.511 . S
C204 C203 1.376 . S
C204 C205 1.392 . S
C204 H225 0.931 . S
C205 C204 1.392 . S
C205 C206 1.361 . S
C205 C207 1.500 . S
C206 C201 1.390 . S
C206 C205 1.361 . S
C206 H224 0.931 . S
C207 C205 1.500 . S
C207 C208 1.371 . S
C207 C209 1.365 . S
C208 C207 1.371 . S
C208 C218 1.386 . S
C208 H226 0.931 . S
C209 C207 1.365 . S
C209 C210 1.409 . S
C209 H227 0.929 . S
C210 C209 1.409 . S
C210 C211 1.380 . S
C210 H228 0.930 . S
C211 C210 1.380 . S
C211 C218 1.357 . S
C212 C203 1.511 . S
C212 C213 1.341 . S
C212 C214 1.371 . S
C213 C212 1.341 . S
C213 C217 1.394 . S
C213 H229 0.930 . S
C214 C212 1.371 . S
C214 C215 1.392 . S
C214 H230 0.931 . S
C215 C214 1.392 . S
C215 C216 1.331 . S
C215 H233 0.932 . S
C216 C215 1.331 . S
C216 C217 1.336 . S
C217 C213 1.394 . S
C217 C216 1.336 . S
C217 H232 0.929 . S
C218 C208 1.386 . S
C218 C211 1.357 . S
C218 H231 0.928 . S
H219 C195 0.931 . S
H220 C197 0.930 . S
H221 C199 0.929 . S
H222 C200 0.931 . S
H223 C202 0.930 . S
H224 C206 0.931 . S
H225 C204 0.931 . S
H226 C208 0.931 . S
H227 C209 0.929 . S
H228 C210 0.930 . S
H229 C213 0.930 . S
H230 C214 0.931 . S
H231 C218 0.928 . S
H232 C217 0.929 . S
H233 C215 0.932 . S
C234 C235 1.386 . S
C234 C236 1.397 . S
C234 H258 0.931 . S
C235 C234 1.386 . S
C235 C239 1.397 . S
C236 C234 1.397 . S
C236 C237 1.384 . S
C236 H259 0.930 . S
C237 C236 1.384 . S
C237 C238 1.377 . S
C237 C240 1.481 . S
C238 C237 1.377 . S
C238 C239 1.389 . S
C238 H260 0.929 . S
C239 C235 1.397 . S
C239 C238 1.389 . S
C239 H261 0.931 . S
C240 C237 1.481 . S
C240 C241 1.387 . S
C240 C245 1.390 . S
C241 C240 1.387 . S
C241 C242 1.401 . S
C241 H262 0.930 . S
C242 C241 1.401 . S
C242 C243 1.376 . S
C242 C251 1.511 . S
C243 C242 1.376 . S
C243 C244 1.392 . S
C243 H264 0.931 . S
C244 C243 1.392 . S
C244 C245 1.361 . S
C244 C246 1.500 . S
C245 C240 1.390 . S
C245 C244 1.361 . S
C245 H263 0.931 . S
C246 C244 1.500 . S
C246 C247 1.371 . S
C246 C248 1.365 . S
C247 C246 1.371 . S
C247 C257 1.386 . S
C247 H265 0.931 . S
C248 C246 1.365 . S
C248 C249 1.409 . S
C248 H266 0.929 . S
C249 C248 1.409 . S
C249 C250 1.380 . S
C249 H267 0.930 . S
C250 C249 1.380 . S
C250 C257 1.357 . S
C251 C242 1.511 . S
C251 C252 1.341 . S
C251 C253 1.371 . S
C252 C251 1.341 . S
C252 C256 1.394 . S
C252 H268 0.930 . S
C253 C251 1.371 . S
C253 C254 1.392 . S
C253 H269 0.931 . S
C254 C253 1.392 . S
C254 C255 1.331 . S
C254 H272 0.932 . S
C255 C254 1.331 . S
C255 C256 1.336 . S
C256 C252 1.394 . S
C256 C255 1.336 . S
C256 H271 0.929 . S
C257 C247 1.386 . S
C257 C250 1.357 . S
C257 H270 0.928 . S
H258 C234 0.931 . S
H259 C236 0.930 . S
H260 C238 0.929 . S
H261 C239 0.931 . S
H262 C241 0.930 . S
H263 C245 0.931 . S
H264 C243 0.931 . S
H265 C247 0.931 . S
H266 C248 0.929 . S
H267 C249 0.930 . S
H268 C252 0.930 . S
H269 C253 0.931 . S
H270 C257 0.928 . S
H271 C256 0.929 . S
H272 C254 0.932 . S
C273 C274 1.386 . S
C273 C275 1.397 . S
C273 H297 0.931 . S
C274 C273 1.386 . S
C274 C278 1.397 . S
C275 C273 1.397 . S
C275 C276 1.384 . S
C275 H298 0.930 . S
C276 C275 1.384 . S
C276 C277 1.377 . S
C276 C279 1.481 . S
C277 C276 1.377 . S
C277 C278 1.389 . S
C277 H299 0.929 . S
C278 C274 1.397 . S
C278 C277 1.389 . S
C278 H300 0.931 . S
C279 C276 1.481 . S
C279 C280 1.387 . S
C279 C284 1.390 . S
C280 C279 1.387 . S
C280 C281 1.401 . S
C280 H301 0.930 . S
C281 C280 1.401 . S
C281 C282 1.376 . S
C281 C290 1.511 . S
C282 C281 1.376 . S
C282 C283 1.392 . S
C282 H303 0.931 . S
C283 C282 1.392 . S
C283 C284 1.361 . S
C283 C285 1.500 . S
C284 C279 1.390 . S
C284 C283 1.361 . S
C284 H302 0.931 . S
C285 C283 1.500 . S
C285 C286 1.371 . S
C285 C287 1.365 . S
C286 C285 1.371 . S
C286 C296 1.386 . S
C286 H304 0.931 . S
C287 C285 1.365 . S
C287 C288 1.409 . S
C287 H305 0.929 . S
C288 C287 1.409 . S
C288 C289 1.380 . S
C288 H306 0.930 . S
C289 C288 1.380 . S
C289 C296 1.357 . S
C290 C281 1.511 . S
C290 C291 1.341 . S
C290 C292 1.371 . S
C291 C290 1.341 . S
C291 C295 1.394 . S
C291 H307 0.930 . S
C292 C290 1.371 . S
C292 C293 1.392 . S
C292 H308 0.931 . S
C293 C292 1.392 . S
C293 C294 1.331 . S
C293 H311 0.932 . S
C294 C293 1.331 . S
C294 C295 1.336 . S
C295 C291 1.394 . S
C295 C294 1.336 . S
C295 H310 0.929 . S
C296 C286 1.386 . S
C296 C289 1.357 . S
C296 H309 0.928 . S
H297 C273 0.931 . S
H298 C275 0.930 . S
H299 C277 0.929 . S
H300 C278 0.931 . S
H301 C280 0.930 . S
H302 C284 0.931 . S
H303 C282 0.931 . S
H304 C286 0.931 . S
H305 C287 0.929 . S
H306 C288 0.930 . S
H307 C291 0.930 . S
H308 C292 0.931 . S
H309 C296 0.928 . S
H310 C295 0.929 . S
H311 C293 0.932 . S
C312 C314 1.422 . S
C312 C316 1.415 . S
C312 N318 1.369 . S
C313 C314 1.421 . S
C313 C315 1.417 . S
C313 C325 1.422 . S
C314 C312 1.422 . S
C314 C313 1.421 . S
C314 N324 1.359 . S
C315 C313 1.417 . S
C315 C317 1.329 . S
C315 H334 0.930 . S
C316 C312 1.415 . S
C316 C317 1.437 . S
C316 C320 1.413 . S
C317 C315 1.329 . S
C317 C316 1.437 . S
C317 H339 0.929 . S
N318 C312 1.369 . S
N318 C319 1.338 . S
N318 Gd323 2.622 . S
C319 N318 1.338 . S
C319 C321 1.378 . S
C319 H331 0.929 . S
C320 C316 1.413 . S
C320 C321 1.348 . S
C320 H336 0.931 . S
C321 C319 1.378 . S
C321 C320 1.348 . S
C321 H337 0.930 . S
Gd322 N342 2.622 . S
Gd322 N349 2.570 . S
Gd322 O356 2.353 . S
Gd322 O357 2.468 . S
Gd322 O358 2.427 . S
Gd322 O360 2.388 . S
Gd322 O361 2.386 . S
Gd322 O365 2.326 . S
Gd322 C375 2.805 . S
Gd323 N318 2.622 . S
Gd323 N324 2.570 . S
Gd323 O355 2.386 . S
Gd323 O359 2.307 1_655 S
Gd323 O362 2.353 1_655 S
Gd323 O363 2.468 . S
Gd323 O364 2.427 . S
Gd323 O366 2.388 . S
Gd323 C387 2.805 . S
N324 C314 1.359 . S
N324 Gd323 2.570 . S
N324 C326 1.343 . S
C325 C313 1.422 . S
C325 C327 1.321 . S
C325 H333 0.931 . S
C326 N324 1.343 . S
C326 C327 1.390 . S
C326 H328 0.931 . S
C327 C325 1.321 . S
C327 C326 1.390 . S
C327 H329 0.930 . S
H328 C326 0.931 . S
H329 C327 0.930 . S
H330 C353 0.931 . S
H331 C319 0.929 . S
H332 C354 0.930 . S
H333 C325 0.931 . S
H334 C315 0.930 . S
H335 C344 0.929 . S
H336 C320 0.931 . S
H337 C321 0.930 . S
H338 C376 0.930 . S
H339 C317 0.929 . S
H340 C345 0.931 . S
H341 C346 0.930 . S
N342 Gd322 2.622 . S
N342 C343 1.369 . S
N342 C344 1.338 . S
C343 N342 1.369 . S
C343 C347 1.415 . S
C343 C350 1.422 . S
C344 H335 0.929 . S
C344 N342 1.338 . S
C344 C346 1.378 . S
C345 H340 0.931 . S
C345 C346 1.348 . S
C345 C347 1.413 . S
C346 H341 0.930 . S
C346 C344 1.378 . S
C346 C345 1.348 . S
C347 C343 1.415 . S
C347 C345 1.413 . S
C347 C377 1.437 . S
H348 C377 0.929 . S
N349 Gd322 2.570 . S
N349 C350 1.359 . S
N349 C353 1.343 . S
C350 C343 1.422 . S
C350 N349 1.359 . S
C350 C352 1.421 . S
C351 C352 1.422 . S
C351 C354 1.321 . S
C351 H378 0.931 . S
C352 C350 1.421 . S
C352 C351 1.422 . S
C352 C376 1.417 . S
C353 H330 0.931 . S
C353 N349 1.343 . S
C353 C354 1.390 . S
C354 H332 0.930 . S
C354 C351 1.321 . S
C354 C353 1.390 . S
O355 Gd323 2.386 . S
O355 C367 1.265 . S
O356 Gd322 2.353 . S
O356 C367 1.242 1_455 S
O357 Gd322 2.468 . S
O357 C375 1.263 . S
O358 Gd322 2.427 . S
O358 C375 1.252 . S
O359 Gd323 2.307 1_455 S
O359 C368 1.261 . S
O360 Gd322 2.388 . S
O360 C368 1.252 . S
O361 Gd322 2.386 . S
O361 C379 1.265 . S
O362 Gd323 2.353 1_455 S
O362 C379 1.242 . S
O363 Gd323 2.468 . S
O363 C387 1.263 . S
O364 Gd323 2.427 . S
O364 C387 1.252 . S
O365 Gd322 2.326 . S
O365 C380 1.239 1_455 S
O366 Gd323 2.388 . S
O366 C380 1.252 . S
C367 O355 1.265 . S
C367 O356 1.242 1_655 S
C368 O359 1.261 . S
C368 O360 1.252 . S
C369 C372 1.394 . S
C369 C374 1.370 . S
C369 C375 1.500 . S
C370 C373 1.383 . S
C370 C374 1.395 . S
C371 C372 1.396 . S
C371 C373 1.365 . S
C371 H388 0.929 . S
C372 C369 1.394 . S
C372 C371 1.396 . S
C372 H389 0.930 . S
C373 C370 1.383 . S
C373 C371 1.365 . S
C373 H390 0.931 . S
C374 C369 1.370 . S
C374 C370 1.395 . S
C374 H391 0.930 . S
C375 Gd322 2.805 . S
C375 O357 1.263 . S
C375 O358 1.252 . S
C375 C369 1.500 . S
C376 H338 0.930 . S
C376 C352 1.417 . S
C376 C377 1.329 . S
C377 C347 1.437 . S
C377 H348 0.929 . S
C377 C376 1.329 . S
H378 C351 0.931 . S
C379 O361 1.265 . S
C379 O362 1.242 . S
C380 O365 1.239 1_655 S
C380 O366 1.252 . S
C381 C384 1.394 . S
C381 C386 1.370 . S
C381 C387 1.500 . S
C382 C385 1.383 . S
C382 C386 1.395 . S
C383 C384 1.396 . S
C383 C385 1.365 . S
C383 H392 0.929 . S
C384 C381 1.394 . S
C384 C383 1.396 . S
C384 H393 0.930 . S
C385 C382 1.383 . S
C385 C383 1.365 . S
C385 H394 0.931 . S
C386 C381 1.370 . S
C386 C382 1.395 . S
C386 H395 0.930 . S
C387 Gd323 2.805 . S
C387 O363 1.263 . S
C387 O364 1.252 . S
C387 C381 1.500 . S
H388 C371 0.929 . S
H389 C372 0.930 . S
H390 C373 0.931 . S
H391 C374 0.930 . S
H392 C383 0.929 . S
H393 C384 0.930 . S
H394 C385 0.931 . S
H395 C386 0.930 . S
C396 C398 1.422 . S
C396 C400 1.415 . S
C396 N402 1.369 . S
C397 C398 1.421 . S
C397 C399 1.417 . S
C397 C409 1.422 . S
C398 C396 1.422 . S
C398 C397 1.421 . S
C398 N408 1.359 . S
C399 C397 1.417 . S
C399 C401 1.329 . S
C399 H418 0.930 . S
C400 C396 1.415 . S
C400 C401 1.437 . S
C400 C404 1.413 . S
C401 C399 1.329 . S
C401 C400 1.437 . S
C401 H423 0.929 . S
N402 C396 1.369 . S
N402 C403 1.338 . S
N402 Gd407 2.622 . S
C403 N402 1.338 . S
C403 C405 1.378 . S
C403 H415 0.929 . S
C404 C400 1.413 . S
C404 C405 1.348 . S
C404 H420 0.931 . S
C405 C403 1.378 . S
C405 C404 1.348 . S
C405 H421 0.930 . S
Gd406 N426 2.622 . S
Gd406 N433 2.570 . S
Gd406 O440 2.353 . S
Gd406 O441 2.468 . S
Gd406 O442 2.427 . S
Gd406 O444 2.388 . S
Gd406 O445 2.386 . S
Gd406 O449 2.307 . S
Gd406 C459 2.805 . S
Gd407 N402 2.622 . S
Gd407 N408 2.570 . S
Gd407 O439 2.386 . S
Gd407 O443 2.307 . S
Gd407 O446 2.353 . S
Gd407 O447 2.468 . S
Gd407 O448 2.427 . S
Gd407 O450 2.388 . S
Gd407 C471 2.805 . S
N408 C398 1.359 . S
N408 Gd407 2.570 . S
N408 C410 1.343 . S
C409 C397 1.422 . S
C409 C411 1.321 . S
C409 H417 0.931 . S
C410 N408 1.343 . S
C410 C411 1.390 . S
C410 H412 0.931 . S
C411 C409 1.321 . S
C411 C410 1.390 . S
C411 H413 0.930 . S
H412 C410 0.931 . S
H413 C411 0.930 . S
H414 C437 0.931 . S
H415 C403 0.929 . S
H416 C438 0.930 . S
H417 C409 0.931 . S
H418 C399 0.930 . S
H419 C428 0.929 . S
H420 C404 0.931 . S
H421 C405 0.930 . S
H422 C460 0.930 . S
H423 C401 0.929 . S
H424 C429 0.931 . S
H425 C430 0.930 . S
N426 Gd406 2.622 . S
N426 C427 1.369 . S
N426 C428 1.338 . S
C427 N426 1.369 . S
C427 C431 1.415 . S
C427 C434 1.422 . S
C428 H419 0.929 . S
C428 N426 1.338 . S
C428 C430 1.378 . S
C429 H424 0.931 . S
C429 C430 1.348 . S
C429 C431 1.413 . S
C430 H425 0.930 . S
C430 C428 1.378 . S
C430 C429 1.348 . S
C431 C427 1.415 . S
C431 C429 1.413 . S
C431 C461 1.437 . S
H432 C461 0.929 . S
N433 Gd406 2.570 . S
N433 C434 1.359 . S
N433 C437 1.343 . S
C434 C427 1.422 . S
C434 N433 1.359 . S
C434 C436 1.421 . S
C435 C436 1.422 . S
C435 C438 1.321 . S
C435 H462 0.931 . S
C436 C434 1.421 . S
C436 C435 1.422 . S
C436 C460 1.417 . S
C437 H414 0.931 . S
C437 N433 1.343 . S
C437 C438 1.390 . S
C438 H416 0.930 . S
C438 C435 1.321 . S
C438 C437 1.390 . S
O439 Gd407 2.386 . S
O439 C451 1.265 . S
O440 Gd406 2.353 . S
O440 C451 1.242 . S
O441 Gd406 2.468 . S
O441 C459 1.263 . S
O442 Gd406 2.427 . S
O442 C459 1.252 . S
O443 Gd407 2.307 . S
O443 C452 1.261 . S
O444 Gd406 2.388 . S
O444 C452 1.252 . S
O445 Gd406 2.386 . S
O445 C463 1.265 . S
O446 Gd407 2.353 . S
O446 C463 1.242 . S
O447 Gd407 2.468 . S
O447 C471 1.263 . S
O448 Gd407 2.427 . S
O448 C471 1.252 . S
O449 Gd406 2.307 . S
O449 C464 1.261 . S
O450 Gd407 2.388 . S
O450 C464 1.252 . S
C451 O439 1.265 . S
C451 O440 1.242 . S
C452 O443 1.261 . S
C452 O444 1.252 . S
C453 C456 1.394 . S
C453 C458 1.370 . S
C453 C459 1.500 . S
C454 C457 1.383 . S
C454 C458 1.395 . S
C455 C456 1.396 . S
C455 C457 1.365 . S
C455 H472 0.929 . S
C456 C453 1.394 . S
C456 C455 1.396 . S
C456 H473 0.930 . S
C457 C454 1.383 . S
C457 C455 1.365 . S
C457 H474 0.931 . S
C458 C453 1.370 . S
C458 C454 1.395 . S
C458 H475 0.930 . S
C459 Gd406 2.805 . S
C459 O441 1.263 . S
C459 O442 1.252 . S
C459 C453 1.500 . S
C460 H422 0.930 . S
C460 C436 1.417 . S
C460 C461 1.329 . S
C461 C431 1.437 . S
C461 H432 0.929 . S
C461 C460 1.329 . S
H462 C435 0.931 . S
C463 O445 1.265 . S
C463 O446 1.242 . S
C464 O449 1.261 . S
C464 O450 1.252 . S
C465 C468 1.394 . S
C465 C470 1.370 . S
C465 C471 1.500 . S
C466 C469 1.383 . S
C466 C470 1.395 . S
C467 C468 1.396 . S
C467 C469 1.365 . S
C467 H476 0.929 . S
C468 C465 1.394 . S
C468 C467 1.396 . S
C468 H477 0.930 . S
C469 C466 1.383 . S
C469 C467 1.365 . S
C469 H478 0.931 . S
C470 C465 1.370 . S
C470 C466 1.395 . S
C470 H479 0.930 . S
C471 Gd407 2.805 . S
C471 O447 1.263 . S
C471 O448 1.252 . S
C471 C465 1.500 . S
H472 C455 0.929 . S
H473 C456 0.930 . S
H474 C457 0.931 . S
H475 C458 0.930 . S
H476 C467 0.929 . S
H477 C468 0.930 . S
H478 C469 0.931 . S
H479 C470 0.930 . S
C480 C482 1.422 . S
C480 C484 1.415 . S
C480 N486 1.369 . S
C481 C482 1.421 . S
C481 C483 1.417 . S
C481 C493 1.422 . S
C482 C480 1.422 . S
C482 C481 1.421 . S
C482 N492 1.359 . S
C483 C481 1.417 . S
C483 C485 1.329 . S
C483 H502 0.930 . S
C484 C480 1.415 . S
C484 C485 1.437 . S
C484 C488 1.413 . S
C485 C483 1.329 . S
C485 C484 1.437 . S
C485 H507 0.929 . S
N486 C480 1.369 . S
N486 C487 1.338 . S
N486 Gd491 2.622 . S
C487 N486 1.338 . S
C487 C489 1.378 . S
C487 H499 0.929 . S
C488 C484 1.413 . S
C488 C489 1.348 . S
C488 H504 0.931 . S
C489 C487 1.378 . S
C489 C488 1.348 . S
C489 H505 0.930 . S
Gd490 N510 2.622 . S
Gd490 N517 2.570 . S
Gd490 O524 2.353 . S
Gd490 O525 2.468 . S
Gd490 O526 2.427 . S
Gd490 O528 2.388 . S
Gd490 O529 2.386 . S
Gd490 O533 2.307 . S
Gd490 C543 2.805 . S
Gd491 N486 2.622 . S
Gd491 N492 2.570 . S
Gd491 O523 2.386 . S
Gd491 O527 2.307 1_655 S
Gd491 O530 2.353 1_655 S
Gd491 O531 2.468 . S
Gd491 O532 2.427 . S
Gd491 O534 2.388 . S
Gd491 C555 2.805 . S
N492 C482 1.359 . S
N492 Gd491 2.570 . S
N492 C494 1.343 . S
C493 C481 1.422 . S
C493 C495 1.321 . S
C493 H501 0.931 . S
C494 N492 1.343 . S
C494 C495 1.390 . S
C494 H496 0.931 . S
C495 C493 1.321 . S
C495 C494 1.390 . S
C495 H497 0.930 . S
H496 C494 0.931 . S
H497 C495 0.930 . S
H498 C521 0.931 . S
H499 C487 0.929 . S
H500 C522 0.930 . S
H501 C493 0.931 . S
H502 C483 0.930 . S
H503 C512 0.929 . S
H504 C488 0.931 . S
H505 C489 0.930 . S
H506 C544 0.930 . S
H507 C485 0.929 . S
H508 C513 0.931 . S
H509 C514 0.930 . S
N510 Gd490 2.622 . S
N510 C511 1.369 . S
N510 C512 1.338 . S
C511 N510 1.369 . S
C511 C515 1.415 . S
C511 C518 1.422 . S
C512 H503 0.929 . S
C512 N510 1.338 . S
C512 C514 1.378 . S
C513 H508 0.931 . S
C513 C514 1.348 . S
C513 C515 1.413 . S
C514 H509 0.930 . S
C514 C512 1.378 . S
C514 C513 1.348 . S
C515 C511 1.415 . S
C515 C513 1.413 . S
C515 C545 1.437 . S
H516 C545 0.929 . S
N517 Gd490 2.570 . S
N517 C518 1.359 . S
N517 C521 1.343 . S
C518 C511 1.422 . S
C518 N517 1.359 . S
C518 C520 1.421 . S
C519 C520 1.422 . S
C519 C522 1.321 . S
C519 H546 0.931 . S
C520 C518 1.421 . S
C520 C519 1.422 . S
C520 C544 1.417 . S
C521 H498 0.931 . S
C521 N517 1.343 . S
C521 C522 1.390 . S
C522 H500 0.930 . S
C522 C519 1.321 . S
C522 C521 1.390 . S
O523 Gd491 2.386 . S
O523 C535 1.265 . S
O524 Gd490 2.353 . S
O524 C535 1.242 1_455 S
O525 Gd490 2.468 . S
O525 C543 1.263 . S
O526 Gd490 2.427 . S
O526 C543 1.252 . S
O527 Gd491 2.307 1_455 S
O527 C536 1.261 . S
O528 Gd490 2.388 . S
O528 C536 1.252 . S
O529 Gd490 2.386 . S
O529 C547 1.265 . S
O530 Gd491 2.353 1_455 S
O530 C547 1.242 . S
O531 Gd491 2.468 . S
O531 C555 1.263 . S
O532 Gd491 2.427 . S
O532 C555 1.252 . S
O533 Gd490 2.307 . S
O533 C548 1.261 1_455 S
O534 Gd491 2.388 . S
O534 C548 1.252 . S
C535 O523 1.265 . S
C535 O524 1.242 1_655 S
C536 O527 1.261 . S
C536 O528 1.252 . S
C537 C540 1.394 . S
C537 C542 1.370 . S
C537 C543 1.500 . S
C538 C541 1.383 . S
C538 C542 1.395 . S
C539 C540 1.396 . S
C539 C541 1.365 . S
C539 H556 0.929 . S
C540 C537 1.394 . S
C540 C539 1.396 . S
C540 H557 0.930 . S
C541 C538 1.383 . S
C541 C539 1.365 . S
C541 H558 0.931 . S
C542 C537 1.370 . S
C542 C538 1.395 . S
C542 H559 0.930 . S
C543 Gd490 2.805 . S
C543 O525 1.263 . S
C543 O526 1.252 . S
C543 C537 1.500 . S
C544 H506 0.930 . S
C544 C520 1.417 . S
C544 C545 1.329 . S
C545 C515 1.437 . S
C545 H516 0.929 . S
C545 C544 1.329 . S
H546 C519 0.931 . S
C547 O529 1.265 . S
C547 O530 1.242 . S
C548 O533 1.261 1_655 S
C548 O534 1.252 . S
C549 C552 1.394 . S
C549 C554 1.370 . S
C549 C555 1.500 . S
C550 C553 1.383 . S
C550 C554 1.395 . S
C551 C552 1.396 . S
C551 C553 1.365 . S
C551 H560 0.929 . S
C552 C549 1.394 . S
C552 C551 1.396 . S
C552 H561 0.930 . S
C553 C550 1.383 . S
C553 C551 1.365 . S
C553 H562 0.931 . S
C554 C549 1.370 . S
C554 C550 1.395 . S
C554 H563 0.930 . S
C555 Gd491 2.805 . S
C555 O531 1.263 . S
C555 O532 1.252 . S
C555 C549 1.500 . S
H556 C539 0.929 . S
H557 C540 0.930 . S
H558 C541 0.931 . S
H559 C542 0.930 . S
H560 C551 0.929 . S
H561 C552 0.930 . S
H562 C553 0.931 . S
H563 C554 0.930 . S
C564 C566 1.422 . S
C564 C568 1.415 . S
C564 N570 1.369 . S
C565 C566 1.421 . S
C565 C567 1.417 . S
C565 C577 1.422 . S
C566 C564 1.422 . S
C566 C565 1.421 . S
C566 N576 1.359 . S
C567 C565 1.417 . S
C567 C569 1.329 . S
C567 H586 0.930 . S
C568 C564 1.415 . S
C568 C569 1.437 . S
C568 C572 1.413 . S
C569 C567 1.329 . S
C569 C568 1.437 . S
C569 H591 0.929 . S
N570 C564 1.369 . S
N570 C571 1.338 . S
N570 Gd575 2.622 . S
C571 N570 1.338 . S
C571 C573 1.378 . S
C571 H583 0.929 . S
C572 C568 1.413 . S
C572 C573 1.348 . S
C572 H588 0.931 . S
C573 C571 1.378 . S
C573 C572 1.348 . S
C573 H589 0.930 . S
Gd574 N594 2.622 . S
Gd574 N601 2.570 . S
Gd574 O608 2.353 . S
Gd574 O609 2.468 . S
Gd574 O610 2.427 . S
Gd574 O612 2.388 . S
Gd574 O613 2.386 . S
Gd574 O617 2.307 . S
Gd574 C627 2.805 . S
Gd575 N570 2.622 . S
Gd575 N576 2.570 . S
Gd575 O607 2.386 . S
Gd575 O611 2.307 . S
Gd575 O614 2.353 . S
Gd575 O615 2.468 . S
Gd575 O616 2.427 . S
Gd575 O618 2.388 . S
Gd575 C639 2.805 . S
N576 C566 1.359 . S
N576 Gd575 2.570 . S
N576 C578 1.343 . S
C577 C565 1.422 . S
C577 C579 1.321 . S
C577 H585 0.931 . S
C578 N576 1.343 . S
C578 C579 1.390 . S
C578 H580 0.931 . S
C579 C577 1.321 . S
C579 C578 1.390 . S
C579 H581 0.930 . S
H580 C578 0.931 . S
H581 C579 0.930 . S
H582 C605 0.931 . S
H583 C571 0.929 . S
H584 C606 0.930 . S
H585 C577 0.931 . S
H586 C567 0.930 . S
H587 C596 0.929 . S
H588 C572 0.931 . S
H589 C573 0.930 . S
H590 C628 0.930 . S
H591 C569 0.929 . S
H592 C597 0.931 . S
H593 C598 0.930 . S
N594 Gd574 2.622 . S
N594 C595 1.369 . S
N594 C596 1.338 . S
C595 N594 1.369 . S
C595 C599 1.415 . S
C595 C602 1.422 . S
C596 H587 0.929 . S
C596 N594 1.338 . S
C596 C598 1.378 . S
C597 H592 0.931 . S
C597 C598 1.348 . S
C597 C599 1.413 . S
C598 H593 0.930 . S
C598 C596 1.378 . S
C598 C597 1.348 . S
C599 C595 1.415 . S
C599 C597 1.413 . S
C599 C629 1.437 . S
H600 C629 0.929 . S
N601 Gd574 2.570 . S
N601 C602 1.359 . S
N601 C605 1.343 . S
C602 C595 1.422 . S
C602 N601 1.359 . S
C602 C604 1.421 . S
C603 C604 1.422 . S
C603 C606 1.321 . S
C603 H630 0.931 . S
C604 C602 1.421 . S
C604 C603 1.422 . S
C604 C628 1.417 . S
C605 H582 0.931 . S
C605 N601 1.343 . S
C605 C606 1.390 . S
C606 H584 0.930 . S
C606 C603 1.321 . S
C606 C605 1.390 . S
O607 Gd575 2.386 . S
O607 C619 1.265 . S
O608 Gd574 2.353 . S
O608 C619 1.242 . S
O609 Gd574 2.468 . S
O609 C627 1.263 . S
O610 Gd574 2.427 . S
O610 C627 1.252 . S
O611 Gd575 2.307 . S
O611 C620 1.261 . S
O612 Gd574 2.388 . S
O612 C620 1.252 . S
O613 Gd574 2.386 . S
O613 C631 1.265 . S
O614 Gd575 2.353 . S
O614 C631 1.242 . S
O615 Gd575 2.468 . S
O615 C639 1.263 . S
O616 Gd575 2.427 . S
O616 C639 1.252 . S
O617 Gd574 2.307 . S
O617 C632 1.261 . S
O618 Gd575 2.388 . S
O618 C632 1.252 . S
C619 O607 1.265 . S
C619 O608 1.242 . S
C620 O611 1.261 . S
C620 O612 1.252 . S
C621 C624 1.394 . S
C621 C626 1.370 . S
C621 C627 1.500 . S
C622 C625 1.383 . S
C622 C626 1.395 . S
C623 C624 1.396 . S
C623 C625 1.365 . S
C623 H640 0.929 . S
C624 C621 1.394 . S
C624 C623 1.396 . S
C624 H641 0.930 . S
C625 C622 1.383 . S
C625 C623 1.365 . S
C625 H642 0.931 . S
C626 C621 1.370 . S
C626 C622 1.395 . S
C626 H643 0.930 . S
C627 Gd574 2.805 . S
C627 O609 1.263 . S
C627 O610 1.252 . S
C627 C621 1.500 . S
C628 H590 0.930 . S
C628 C604 1.417 . S
C628 C629 1.329 . S
C629 C599 1.437 . S
C629 H600 0.929 . S
C629 C628 1.329 . S
H630 C603 0.931 . S
C631 O613 1.265 . S
C631 O614 1.242 . S
C632 O617 1.261 . S
C632 O618 1.252 . S
C633 C636 1.394 . S
C633 C638 1.370 . S
C633 C639 1.500 . S
C634 C637 1.383 . S
C634 C638 1.395 . S
C635 C636 1.396 . S
C635 C637 1.365 . S
C635 H644 0.929 . S
C636 C633 1.394 . S
C636 C635 1.396 . S
C636 H645 0.930 . S
C637 C634 1.383 . S
C637 C635 1.365 . S
C637 H646 0.931 . S
C638 C633 1.370 . S
C638 C634 1.395 . S
C638 H647 0.930 . S
C639 Gd575 2.805 . S
C639 O615 1.263 . S
C639 O616 1.252 . S
C639 C633 1.500 . S
H640 C623 0.929 . S
H641 C624 0.930 . S
H642 C625 0.931 . S
H643 C626 0.930 . S
H644 C635 0.929 . S
H645 C636 0.930 . S
H646 C637 0.931 . S
H647 C638 0.930 . S
H648 C660 0.930 . S
H649 C662 0.930 . S
H650 C663 0.930 . S
H651 C667 0.959 . S
H652 C667 0.959 . S
H653 C667 0.961 . S
H654 C668 0.986 . S
H655 C668 0.955 1_545 S
H656 C668 0.958 . S
H657 C671 0.929 . S
H658 C672 0.931 . S
H659 C674 0.930 . S
C660 H648 0.930 . S
C660 C661 1.399 . S
C660 C665 1.399 1_565 S
C661 C660 1.399 . S
C661 C662 1.376 1_565 S
C662 H649 0.930 . S
C662 C661 1.376 1_545 S
C662 C663 1.388 . S
C663 H650 0.930 . S
C663 C662 1.388 . S
C663 C664 1.390 . S
C664 C663 1.390 . S
C664 C665 1.394 . S
C664 C670 1.465 . S
C665 C660 1.399 1_545 S
C665 C664 1.394 . S
C665 C666 1.516 . S
C666 C665 1.516 . S
C666 C667 1.502 . S
C666 C668 1.542 1_545 S
C666 C669 1.526 . S
C667 H651 0.959 . S
C667 H652 0.959 . S
C667 H653 0.961 . S
C667 C666 1.502 . S
C668 H654 0.986 . S
C668 H655 0.955 1_565 S
C668 H656 0.958 . S
C668 C666 1.542 1_565 S
C669 C666 1.526 . S
C669 C670 1.396 . S
C669 C674 1.390 . S
C670 C664 1.465 . S
C670 C669 1.396 . S
C670 C671 1.399 . S
C671 H657 0.929 . S
C671 C670 1.399 . S
C671 C672 1.385 . S
C672 H658 0.931 . S
C672 C671 1.385 . S
C672 C673 1.389 . S
C673 C672 1.389 . S
C673 C674 1.387 . S
C674 H659 0.930 . S
C674 C669 1.390 . S
C674 C673 1.387 . S
H675 C687 0.930 . S
H676 C689 0.930 . S
H677 C690 0.930 . S
H678 C694 0.959 . S
H679 C694 0.959 . S
H680 C694 0.961 . S
H681 C695 0.960 . S
H682 C695 0.961 . S
H683 C695 0.959 . S
H684 C698 0.929 . S
H685 C699 0.931 . S
H686 C701 0.930 . S
C687 H675 0.930 . S
C687 C688 1.399 . S
C687 C692 1.399 . S
C688 C687 1.399 . S
C688 C689 1.376 . S
C689 H676 0.930 . S
C689 C688 1.376 . S
C689 C690 1.388 . S
C690 H677 0.930 . S
C690 C689 1.388 . S
C690 C691 1.390 . S
C691 C690 1.390 . S
C691 C692 1.394 . S
C691 C697 1.465 . S
C692 C687 1.399 . S
C692 C691 1.394 . S
C692 C693 1.516 . S
C693 C692 1.516 . S
C693 C694 1.502 . S
C693 C695 1.561 . S
C693 C696 1.526 . S
C694 H678 0.959 . S
C694 H679 0.959 . S
C694 H680 0.961 . S
C694 C693 1.502 . S
C695 H681 0.960 . S
C695 H682 0.961 . S
C695 H683 0.959 . S
C695 C693 1.561 . S
C696 C693 1.526 . S
C696 C697 1.396 . S
C696 C701 1.390 . S
C697 C691 1.465 . S
C697 C696 1.396 . S
C697 C698 1.399 . S
C698 H684 0.929 . S
C698 C697 1.399 . S
C698 C699 1.385 . S
C699 H685 0.931 . S
C699 C698 1.385 . S
C699 C700 1.389 . S
C700 C699 1.389 . S
C700 C701 1.387 . S
C701 H686 0.930 . S
C701 C696 1.390 . S
C701 C700 1.387 . S
H702 C714 0.930 . S
H703 C716 0.930 . S
H704 C717 0.930 . S
H705 C721 0.959 . S
H706 C721 0.959 . S
H707 C721 0.961 . S
H708 C722 0.960 . S
H709 C722 0.961 . S
H710 C722 0.959 . S
H711 C725 0.929 . S
H712 C726 0.931 . S
H713 C728 0.930 . S
C714 H702 0.930 . S
C714 C715 1.399 . S
C714 C719 1.399 . S
C715 C714 1.399 . S
C715 C716 1.376 . S
C716 H703 0.930 . S
C716 C715 1.376 . S
C716 C717 1.388 . S
C717 H704 0.930 . S
C717 C716 1.388 . S
C717 C718 1.390 . S
C718 C717 1.390 . S
C718 C719 1.394 . S
C718 C724 1.465 . S
C719 C714 1.399 . S
C719 C718 1.394 . S
C719 C720 1.516 . S
C720 C719 1.516 . S
C720 C721 1.502 . S
C720 C722 1.561 . S
C720 C723 1.526 . S
C721 H705 0.959 . S
C721 H706 0.959 . S
C721 H707 0.961 . S
C721 C720 1.502 . S
C722 H708 0.960 . S
C722 H709 0.961 . S
C722 H710 0.959 . S
C722 C720 1.561 . S
C723 C720 1.526 . S
C723 C724 1.396 . S
C723 C728 1.390 . S
C724 C718 1.465 . S
C724 C723 1.396 . S
C724 C725 1.399 . S
C725 H711 0.929 . S
C725 C724 1.399 . S
C725 C726 1.385 . S
C726 H712 0.931 . S
C726 C725 1.385 . S
C726 C727 1.389 . S
C727 C726 1.389 . S
C727 C728 1.387 . S
C728 H713 0.930 . S
C728 C723 1.390 . S
C728 C727 1.387 . S
H729 C741 0.930 . S
H730 C743 0.930 . S
H731 C744 0.930 . S
H732 C748 0.959 . S
H733 C748 0.959 . S
H734 C748 0.961 . S
H735 C749 0.960 . S
H736 C749 0.961 . S
H737 C749 0.959 . S
H738 C752 0.929 . S
H739 C753 0.931 . S
H740 C755 0.930 . S
C741 H729 0.930 . S
C741 C742 1.399 1_545 S
C741 C746 1.399 . S
C742 C741 1.399 1_565 S
C742 C743 1.376 . S
C743 H730 0.930 . S
C743 C742 1.376 . S
C743 C744 1.388 1_565 S
C744 H731 0.930 . S
C744 C743 1.388 1_545 S
C744 C745 1.390 . S
C745 C744 1.390 . S
C745 C746 1.394 . S
C745 C751 1.465 . S
C746 C741 1.399 . S
C746 C745 1.394 . S
C746 C747 1.516 . S
C747 C746 1.516 . S
C747 C748 1.502 . S
C747 C749 1.561 . S
C747 C750 1.526 . S
C748 H732 0.959 . S
C748 H733 0.959 . S
C748 H734 0.961 . S
C748 C747 1.502 . S
C749 H735 0.960 . S
C749 H736 0.961 . S
C749 H737 0.959 . S
C749 C747 1.561 . S
C750 C747 1.526 . S
C750 C751 1.396 . S
C750 C755 1.390 . S
C751 C745 1.465 . S
C751 C750 1.396 . S
C751 C752 1.399 . S
C752 H738 0.929 . S
C752 C751 1.399 . S
C752 C753 1.385 . S
C753 H739 0.931 . S
C753 C752 1.385 . S
C753 C754 1.389 . S
C754 C753 1.389 . S
C754 C755 1.387 . S
C755 H740 0.930 . S
C755 C750 1.390 . S
C755 C754 1.387 . S
H756 C768 0.925 1_545 S
H757 C770 0.930 . S
H758 C771 0.930 . S
H759 C775 0.959 . S
H760 C775 0.959 . S
H761 C775 0.961 . S
H762 C776 0.960 . S
H763 C776 0.961 . S
H764 C776 0.959 . S
H765 C779 0.929 . S
H766 C780 0.931 1_455 S
H767 C782 0.930 . S
C768 H756 0.925 1_565 S
C768 C769 1.399 1_565 S
C768 C773 1.399 . S
C769 C768 1.399 1_545 S
C769 C770 1.376 . S
C770 H757 0.930 . S
C770 C769 1.376 . S
C770 C771 1.388 1_545 S
C771 H758 0.930 . S
C771 C770 1.388 1_565 S
C771 C772 1.390 . S
C772 C771 1.390 . S
C772 C773 1.394 . S
C772 C778 1.465 . S
C773 C768 1.399 . S
C773 C772 1.394 . S
C773 C774 1.516 . S
C774 C773 1.516 . S
C774 C775 1.502 . S
C774 C776 1.561 . S
C774 C777 1.526 . S
C775 H759 0.959 . S
C775 H760 0.959 . S
C775 H761 0.961 . S
C775 C774 1.502 . S
C776 H762 0.960 . S
C776 H763 0.961 . S
C776 H764 0.959 . S
C776 C774 1.561 . S
C777 C774 1.526 . S
C777 C778 1.396 . S
C777 C782 1.390 . S
C778 C772 1.465 . S
C778 C777 1.396 . S
C778 C779 1.399 . S
C779 H765 0.929 . S
C779 C778 1.399 . S
C779 C780 1.385 . S
C780 H766 0.931 1_655 S
C780 C779 1.385 . S
C780 C781 1.389 . S
C781 C780 1.389 . S
C781 C782 1.387 . S
C782 H767 0.930 . S
C782 C777 1.390 . S
C782 C781 1.387 . S
H783 C795 0.930 . S
H784 C797 0.930 . S
H785 C798 0.930 . S
H786 C802 0.959 . S
H787 C802 0.959 . S
H788 C802 0.961 . S
H789 C803 0.960 . S
H790 C803 0.961 . S
H791 C803 0.959 . S
H792 C806 0.929 . S
H793 C807 0.931 . S
H794 C809 0.930 . S
C795 H783 0.930 . S
C795 C796 1.399 . S
C795 C800 1.399 . S
C796 C795 1.399 . S
C796 C797 1.376 . S
C797 H784 0.930 . S
C797 C796 1.376 . S
C797 C798 1.388 . S
C798 H785 0.930 . S
C798 C797 1.388 . S
C798 C799 1.390 . S
C799 C798 1.390 . S
C799 C800 1.394 . S
C799 C805 1.465 . S
C800 C795 1.399 . S
C800 C799 1.394 . S
C800 C801 1.516 . S
C801 C800 1.516 . S
C801 C802 1.502 . S
C801 C803 1.561 . S
C801 C804 1.526 . S
C802 H786 0.959 . S
C802 H787 0.959 . S
C802 H788 0.961 . S
C802 C801 1.502 . S
C803 H789 0.960 . S
C803 H790 0.961 . S
C803 H791 0.959 . S
C803 C801 1.561 . S
C804 C801 1.526 . S
C804 C805 1.396 . S
C804 C809 1.390 . S
C805 C799 1.465 . S
C805 C804 1.396 . S
C805 C806 1.399 . S
C806 H792 0.929 . S
C806 C805 1.399 . S
C806 C807 1.385 . S
C807 H793 0.931 . S
C807 C806 1.385 . S
C807 C808 1.389 . S
C808 C807 1.389 . S
C808 C809 1.387 . S
C809 H794 0.930 . S
C809 C804 1.390 . S
C809 C808 1.387 . S
H810 C822 0.930 . S
H811 C824 0.930 . S
H812 C825 0.930 . S
H813 C829 0.959 . S
H814 C829 0.959 . S
H815 C829 0.961 . S
H816 C830 0.960 . S
H817 C830 0.961 . S
H818 C830 0.959 . S
H819 C833 0.929 . S
H820 C834 0.931 . S
H821 C836 0.930 . S
C822 H810 0.930 . S
C822 C823 1.399 . S
C822 C827 1.399 . S
C823 C822 1.399 . S
C823 C824 1.376 . S
C824 H811 0.930 . S
C824 C823 1.376 . S
C824 C825 1.388 . S
C825 H812 0.930 . S
C825 C824 1.388 . S
C825 C826 1.390 . S
C826 C825 1.390 . S
C826 C827 1.394 . S
C826 C832 1.465 . S
C827 C822 1.399 . S
C827 C826 1.394 . S
C827 C828 1.516 . S
C828 C827 1.516 . S
C828 C829 1.502 . S
C828 C830 1.561 . S
C828 C831 1.526 . S
C829 H813 0.959 . S
C829 H814 0.959 . S
C829 H815 0.961 . S
C829 C828 1.502 . S
C830 H816 0.960 . S
C830 H817 0.961 . S
C830 H818 0.959 . S
C830 C828 1.561 . S
C831 C828 1.526 . S
C831 C832 1.396 . S
C831 C836 1.390 . S
C832 C826 1.465 . S
C832 C831 1.396 . S
C832 C833 1.399 . S
C833 H819 0.929 . S
C833 C832 1.399 . S
C833 C834 1.385 . S
C834 H820 0.931 . S
C834 C833 1.385 . S
C834 C835 1.389 . S
C835 C834 1.389 . S
C835 C836 1.387 . S
C836 H821 0.930 . S
C836 C831 1.390 . S
C836 C835 1.387 . S
H837 C849 0.930 . S
H838 C851 0.930 . S
H839 C852 0.930 . S
H840 C856 0.958 . S
H841 C856 0.959 . S
H842 C856 0.964 1_545 S
H843 C857 0.960 1_545 S
H844 C857 0.961 . S
H845 C857 0.959 . S
H846 C860 0.929 . S
H847 C861 0.931 . S
H848 C863 0.930 . S
C849 H837 0.930 . S
C849 C850 1.399 . S
C849 C854 1.399 1_545 S
C850 C849 1.399 . S
C850 C851 1.376 1_545 S
C851 H838 0.930 . S
C851 C850 1.376 1_565 S
C851 C852 1.388 . S
C852 H839 0.930 . S
C852 C851 1.388 . S
C852 C853 1.390 . S
C853 C852 1.390 . S
C853 C854 1.394 . S
C853 C859 1.465 . S
C854 C849 1.399 1_565 S
C854 C853 1.394 . S
C854 C855 1.516 . S
C855 C854 1.516 . S
C855 C856 1.500 . S
C855 C857 1.561 . S
C855 C858 1.526 . S
C856 H840 0.958 . S
C856 H841 0.959 . S
C856 H842 0.964 1_565 S
C856 C855 1.500 . S
C857 H843 0.960 1_565 S
C857 H844 0.961 . S
C857 H845 0.959 . S
C857 C855 1.561 . S
C858 C855 1.526 . S
C858 C859 1.396 . S
C858 C863 1.390 . S
C859 C853 1.465 . S
C859 C858 1.396 . S
C859 C860 1.399 . S
C860 H846 0.929 . S
C860 C859 1.399 . S
C860 C861 1.385 . S
C861 H847 0.931 . S
C861 C860 1.385 . S
C861 C862 1.389 . S
C862 C861 1.389 . S
C862 C863 1.387 . S
C863 H848 0.930 . S
C863 C858 1.390 . S
C863 C862 1.387 . S
H864 C876 0.930 . S
H865 C878 0.930 . S
H866 C879 0.930 . S
H867 C883 0.959 . S
H868 C883 0.959 . S
H869 C883 0.961 . S
H870 C884 0.960 . S
H871 C884 0.961 . S
H872 C884 0.959 . S
H873 C887 0.929 . S
H874 C888 0.931 . S
H875 C890 0.930 . S
C876 H864 0.930 . S
C876 C877 1.399 . S
C876 C881 1.399 . S
C877 C876 1.399 . S
C877 C878 1.376 . S
C878 H865 0.930 . S
C878 C877 1.376 . S
C878 C879 1.388 . S
C879 H866 0.930 . S
C879 C878 1.388 . S
C879 C880 1.390 . S
C880 C879 1.390 . S
C880 C881 1.394 . S
C880 C886 1.465 . S
C881 C876 1.399 . S
C881 C880 1.394 . S
C881 C882 1.516 . S
C882 C881 1.516 . S
C882 C883 1.502 . S
C882 C884 1.561 . S
C882 C885 1.526 . S
C883 H867 0.959 . S
C883 H868 0.959 . S
C883 H869 0.961 . S
C883 C882 1.502 . S
C884 H870 0.960 . S
C884 H871 0.961 . S
C884 H872 0.959 . S
C884 C882 1.561 . S
C885 C882 1.526 . S
C885 C886 1.396 . S
C885 C890 1.390 . S
C886 C880 1.465 . S
C886 C885 1.396 . S
C886 C887 1.399 . S
C887 H873 0.929 . S
C887 C886 1.399 . S
C887 C888 1.385 . S
C888 H874 0.931 . S
C888 C887 1.385 . S
C888 C889 1.389 . S
C889 C888 1.389 . S
C889 C890 1.387 . S
C890 H875 0.930 . S
C890 C885 1.390 . S
C890 C889 1.387 . S
H891 C903 0.930 . S
H892 C905 0.930 . S
H893 C906 0.930 . S
H894 C910 0.959 . S
H895 C910 0.959 . S
H896 C910 0.961 . S
H897 C911 0.960 . S
H898 C911 0.961 . S
H899 C911 0.959 . S
H900 C914 0.929 . S
H901 C915 0.931 . S
H902 C917 0.930 . S
C903 H891 0.930 . S
C903 C904 1.399 . S
C903 C908 1.399 . S
C904 C903 1.399 . S
C904 C905 1.376 . S
C905 H892 0.930 . S
C905 C904 1.376 . S
C905 C906 1.388 . S
C906 H893 0.930 . S
C906 C905 1.388 . S
C906 C907 1.390 . S
C907 C906 1.390 . S
C907 C908 1.394 . S
C907 C913 1.465 . S
C908 C903 1.399 . S
C908 C907 1.394 . S
C908 C909 1.516 . S
C909 C908 1.516 . S
C909 C910 1.502 . S
C909 C911 1.561 . S
C909 C912 1.526 . S
C910 H894 0.959 . S
C910 H895 0.959 . S
C910 H896 0.961 . S
C910 C909 1.502 . S
C911 H897 0.960 . S
C911 H898 0.961 . S
C911 H899 0.959 . S
C911 C909 1.561 . S
C912 C909 1.526 . S
C912 C913 1.396 . S
C912 C917 1.390 . S
C913 C907 1.465 . S
C913 C912 1.396 . S
C913 C914 1.399 . S
C914 H900 0.929 . S
C914 C913 1.399 . S
C914 C915 1.385 . S
C915 H901 0.931 . S
C915 C914 1.385 . S
C915 C916 1.389 . S
C916 C915 1.389 . S
C916 C917 1.387 . S
C917 H902 0.930 . S
C917 C912 1.390 . S
C917 C916 1.387 . S
H918 C930 0.930 . S
H919 C932 0.930 . S
H920 C933 0.930 . S
H921 C937 0.959 . S
H922 C937 0.959 . S
H923 C937 0.961 . S
H924 C938 0.960 . S
H925 C938 0.961 . S
H926 C938 0.959 . S
H927 C941 0.929 . S
H928 C942 0.931 . S
H929 C944 0.930 . S
C930 H918 0.930 . S
C930 C931 1.399 . S
C930 C935 1.399 . S
C931 C930 1.399 . S
C931 C932 1.376 . S
C932 H919 0.930 . S
C932 C931 1.376 . S
C932 C933 1.388 . S
C933 H920 0.930 . S
C933 C932 1.388 . S
C933 C934 1.390 . S
C934 C933 1.390 . S
C934 C935 1.394 . S
C934 C940 1.465 . S
C935 C930 1.399 . S
C935 C934 1.394 . S
C935 C936 1.516 . S
C936 C935 1.516 . S
C936 C937 1.502 . S
C936 C938 1.561 . S
C936 C939 1.526 . S
C937 H921 0.959 . S
C937 H922 0.959 . S
C937 H923 0.961 . S
C937 C936 1.502 . S
C938 H924 0.960 . S
C938 H925 0.961 . S
C938 H926 0.959 . S
C938 C936 1.561 . S
C939 C936 1.526 . S
C939 C940 1.396 . S
C939 C944 1.390 . S
C940 C934 1.465 . S
C940 C939 1.396 . S
C940 C941 1.399 . S
C941 H927 0.929 . S
C941 C940 1.399 . S
C941 C942 1.385 . S
C942 H928 0.931 . S
C942 C941 1.385 . S
C942 C943 1.389 . S
C943 C942 1.389 . S
C943 C944 1.387 . S
C944 H929 0.930 . S
C944 C939 1.390 . S
C944 C943 1.387 . S
H945 C957 0.930 . S
H946 C959 0.930 . S
H947 C960 0.930 . S
H948 C964 0.959 . S
H949 C964 0.959 . S
H950 C964 0.961 . S
H951 C965 0.960 . S
H952 C965 0.961 . S
H953 C965 0.959 . S
H954 C968 0.929 . S
H955 C969 0.931 . S
H956 C971 0.930 . S
C957 H945 0.930 . S
C957 C958 1.399 . S
C957 C962 1.399 . S
C958 C957 1.399 . S
C958 C959 1.376 . S
C959 H946 0.930 . S
C959 C958 1.376 . S
C959 C960 1.388 . S
C960 H947 0.930 . S
C960 C959 1.388 . S
C960 C961 1.390 . S
C961 C960 1.390 . S
C961 C962 1.394 . S
C961 C967 1.465 . S
C962 C957 1.399 . S
C962 C961 1.394 . S
C962 C963 1.516 . S
C963 C962 1.516 . S
C963 C964 1.502 . S
C963 C965 1.561 . S
C963 C966 1.526 . S
C964 H948 0.959 . S
C964 H949 0.959 . S
C964 H950 0.961 . S
C964 C963 1.502 . S
C965 H951 0.960 . S
C965 H952 0.961 . S
C965 H953 0.959 . S
C965 C963 1.561 . S
C966 C963 1.526 . S
C966 C967 1.396 . S
C966 C971 1.390 . S
C967 C961 1.465 . S
C967 C966 1.396 . S
C967 C968 1.399 . S
C968 H954 0.929 . S
C968 C967 1.399 . S
C968 C969 1.385 . S
C969 H955 0.931 . S
C969 C968 1.385 . S
C969 C970 1.389 . S
C970 C969 1.389 . S
C970 C971 1.387 . S
C971 H956 0.930 . S
C971 C966 1.390 . S
C971 C970 1.387 . S
H972 C984 0.930 . S
H973 C986 0.930 . S
H974 C987 0.930 . S
H975 C991 0.959 . S
H976 C991 0.959 . S
H977 C991 0.961 . S
H978 C992 0.960 . S
H979 C992 0.961 . S
H980 C992 0.959 . S
H981 C995 0.929 . S
H982 C996 0.931 . S
H983 C998 0.930 . S
C984 H972 0.930 . S
C984 C985 1.399 . S
C984 C989 1.399 . S
C985 C984 1.399 . S
C985 C986 1.376 . S
C986 H973 0.930 . S
C986 C985 1.376 . S
C986 C987 1.388 . S
C987 H974 0.930 . S
C987 C986 1.388 . S
C987 C988 1.390 . S
C988 C987 1.390 . S
C988 C989 1.394 . S
C988 C994 1.465 . S
C989 C984 1.399 . S
C989 C988 1.394 . S
C989 C990 1.516 . S
C990 C989 1.516 . S
C990 C991 1.502 . S
C990 C992 1.561 . S
C990 C993 1.526 . S
C991 H975 0.959 . S
C991 H976 0.959 . S
C991 H977 0.961 . S
C991 C990 1.502 . S
C992 H978 0.960 . S
C992 H979 0.961 . S
C992 H980 0.959 . S
C992 C990 1.561 . S
C993 C990 1.526 . S
C993 C994 1.396 . S
C993 C998 1.390 . S
C994 C988 1.465 . S
C994 C993 1.396 . S
C994 C995 1.399 . S
C995 H981 0.929 . S
C995 C994 1.399 . S
C995 C996 1.385 . S
C996 H982 0.931 . S
C996 C995 1.385 . S
C996 C997 1.389 . S
C997 C996 1.389 . S
C997 C998 1.387 . S
C998 H983 0.930 . S
C998 C993 1.390 . S
C998 C997 1.387 . S
H999 C1011 0.930 . S
H1000 C1013 0.930 . S
H1001 C1014 0.930 . S
H1002 C1018 0.959 . S
H1003 C1018 0.959 . S
H1004 C1018 0.961 . S
H1005 C1019 0.960 . S
H1006 C1019 0.961 . S
H1007 C1019 0.959 . S
H1008 C1022 0.929 . S
H1009 C1023 0.931 . S
H1010 C1025 0.930 . S
C1011 H999 0.930 . S
C1011 C1012 1.399 . S
C1011 C1016 1.399 . S
C1012 C1011 1.399 . S
C1012 C1013 1.376 . S
C1013 H1000 0.930 . S
C1013 C1012 1.376 . S
C1013 C1014 1.388 . S
C1014 H1001 0.930 . S
C1014 C1013 1.388 . S
C1014 C1015 1.390 . S
C1015 C1014 1.390 . S
C1015 C1016 1.394 . S
C1015 C1021 1.465 . S
C1016 C1011 1.399 . S
C1016 C1015 1.394 . S
C1016 C1017 1.516 . S
C1017 C1016 1.516 . S
C1017 C1018 1.502 . S
C1017 C1019 1.561 . S
C1017 C1020 1.526 . S
C1018 H1002 0.959 . S
C1018 H1003 0.959 . S
C1018 H1004 0.961 . S
C1018 C1017 1.502 . S
C1019 H1005 0.960 . S
C1019 H1006 0.961 . S
C1019 H1007 0.959 . S
C1019 C1017 1.561 . S
C1020 C1017 1.526 . S
C1020 C1021 1.396 . S
C1020 C1025 1.390 . S
C1021 C1015 1.465 . S
C1021 C1020 1.396 . S
C1021 C1022 1.399 . S
C1022 H1008 0.929 . S
C1022 C1021 1.399 . S
C1022 C1023 1.385 . S
C1023 H1009 0.931 . S
C1023 C1022 1.385 . S
C1023 C1024 1.389 . S
C1024 C1023 1.389 . S
C1024 C1025 1.387 . S
C1025 H1010 0.930 . S
C1025 C1020 1.390 . S
C1025 C1024 1.387 . S
H1026 C1038 0.930 . S
H1027 C1040 0.969 . S
H1028 C1041 0.930 . S
H1029 C1045 0.959 . S
H1030 C1045 0.959 . S
H1031 C1045 0.961 . S
H1032 C1046 0.960 . S
H1033 C1046 0.961 . S
H1034 C1046 0.959 . S
H1035 C1049 0.929 . S
H1036 C1050 0.931 . S
H1037 C1052 0.930 . S
C1038 H1026 0.930 . S
C1038 C1039 1.399 . S
C1038 C1043 1.399 . S
C1039 C1038 1.399 . S
C1039 C1040 1.376 . S
C1040 H1027 0.969 . S
C1040 C1039 1.376 . S
C1040 C1041 1.388 . S
C1041 H1028 0.930 . S
C1041 C1040 1.388 . S
C1041 C1042 1.390 . S
C1042 C1041 1.390 . S
C1042 C1043 1.394 . S
C1042 C1048 1.465 . S
C1043 C1038 1.399 . S
C1043 C1042 1.394 . S
C1043 C1044 1.516 . S
C1044 C1043 1.516 . S
C1044 C1045 1.502 . S
C1044 C1046 1.561 . S
C1044 C1047 1.526 . S
C1045 H1029 0.959 . S
C1045 H1030 0.959 . S
C1045 H1031 0.961 . S
C1045 C1044 1.502 . S
C1046 H1032 0.960 . S
C1046 H1033 0.961 . S
C1046 H1034 0.959 . S
C1046 C1044 1.561 . S
C1047 C1044 1.526 . S
C1047 C1048 1.396 . S
C1047 C1052 1.390 . S
C1048 C1042 1.465 . S
C1048 C1047 1.396 . S
C1048 C1049 1.399 . S
C1049 H1035 0.929 . S
C1049 C1048 1.399 . S
C1049 C1050 1.385 . S
C1050 H1036 0.931 . S
C1050 C1049 1.385 . S
C1050 C1051 1.389 . S
C1051 C1050 1.389 . S
C1051 C1052 1.387 . S
C1052 H1037 0.930 . S
C1052 C1047 1.390 . S
C1052 C1051 1.387 . S
H1053 C1065 0.930 . S
H1054 C1067 0.930 . S
H1055 C1068 0.930 . S
H1056 C1072 0.959 . S
H1057 C1072 0.959 . S
H1058 C1072 0.961 . S
H1059 C1073 0.960 . S
H1060 C1073 0.961 . S
H1061 C1073 0.959 . S
H1062 C1076 0.929 . S
H1063 C1077 0.931 . S
H1064 C1079 0.930 . S
C1065 H1053 0.930 . S
C1065 C1066 1.399 . S
C1065 C1070 1.399 . S
C1066 C1065 1.399 . S
C1066 C1067 1.376 . S
C1067 H1054 0.930 . S
C1067 C1066 1.376 . S
C1067 C1068 1.388 . S
C1068 H1055 0.930 . S
C1068 C1067 1.388 . S
C1068 C1069 1.390 . S
C1069 C1068 1.390 . S
C1069 C1070 1.394 . S
C1069 C1075 1.465 . S
C1070 C1065 1.399 . S
C1070 C1069 1.394 . S
C1070 C1071 1.516 . S
C1071 C1070 1.516 . S
C1071 C1072 1.502 . S
C1071 C1073 1.561 . S
C1071 C1074 1.526 . S
C1072 H1056 0.959 . S
C1072 H1057 0.959 . S
C1072 H1058 0.961 . S
C1072 C1071 1.502 . S
C1073 H1059 0.960 . S
C1073 H1060 0.961 . S
C1073 H1061 0.959 . S
C1073 C1071 1.561 . S
C1074 C1071 1.526 . S
C1074 C1075 1.396 . S
C1074 C1079 1.390 . S
C1075 C1069 1.465 . S
C1075 C1074 1.396 . S
C1075 C1076 1.399 . S
C1076 H1062 0.929 . S
C1076 C1075 1.399 . S
C1076 C1077 1.385 . S
C1077 H1063 0.931 . S
C1077 C1076 1.385 . S
C1077 C1078 1.389 . S
C1078 C1077 1.389 . S
C1078 C1079 1.387 . S
C1079 H1064 0.930 . S
C1079 C1074 1.390 . S
C1079 C1078 1.387 . S
H1080 C1092 0.930 . S
H1081 C1094 0.930 . S
H1082 C1095 0.930 . S
H1083 C1099 0.959 . S
H1084 C1099 0.959 1_655 S
H1085 C1099 0.961 . S
H1086 C1100 0.960 . S
H1087 C1100 0.961 . S
H1088 C1100 0.959 . S
H1089 C1103 0.929 . S
H1090 C1104 0.931 . S
H1091 C1106 0.930 . S
C1092 H1080 0.930 . S
C1092 C1093 1.399 . S
C1092 C1097 1.399 . S
C1093 C1092 1.399 . S
C1093 C1094 1.376 . S
C1094 H1081 0.930 . S
C1094 C1093 1.376 . S
C1094 C1095 1.388 . S
C1095 H1082 0.930 . S
C1095 C1094 1.388 . S
C1095 C1096 1.390 . S
C1096 C1095 1.390 . S
C1096 C1097 1.394 . S
C1096 C1102 1.465 . S
C1097 C1092 1.399 . S
C1097 C1096 1.394 . S
C1097 C1098 1.516 . S
C1098 C1097 1.516 . S
C1098 C1099 1.502 . S
C1098 C1100 1.561 . S
C1098 C1101 1.526 . S
C1099 H1083 0.959 . S
C1099 H1084 0.959 1_455 S
C1099 H1085 0.961 . S
C1099 C1098 1.502 . S
C1100 H1086 0.960 . S
C1100 H1087 0.961 . S
C1100 H1088 0.959 . S
C1100 C1098 1.561 . S
C1101 C1098 1.526 . S
C1101 C1102 1.396 . S
C1101 C1106 1.390 . S
C1102 C1096 1.465 . S
C1102 C1101 1.396 . S
C1102 C1103 1.399 . S
C1103 H1089 0.929 . S
C1103 C1102 1.399 . S
C1103 C1104 1.385 . S
C1104 H1090 0.931 . S
C1104 C1103 1.385 . S
C1104 C1105 1.389 . S
C1105 C1104 1.389 . S
C1105 C1106 1.387 . S
C1106 H1091 0.930 . S
C1106 C1101 1.390 . S
C1106 C1105 1.387 . S
H1107 C1119 0.930 . S
H1108 C1121 0.930 . S
H1109 C1122 0.930 . S
H1110 C1126 0.959 . S
H1111 C1126 0.959 . S
H1112 C1126 0.961 . S
H1113 C1127 0.960 . S
H1114 C1127 0.961 . S
H1115 C1127 0.959 . S
H1116 C1130 0.929 . S
H1117 C1131 0.931 . S
H1118 C1133 0.930 . S
C1119 H1107 0.930 . S
C1119 C1120 1.399 . S
C1119 C1124 1.399 . S
C1120 C1119 1.399 . S
C1120 C1121 1.376 . S
C1121 H1108 0.930 . S
C1121 C1120 1.376 . S
C1121 C1122 1.388 . S
C1122 H1109 0.930 . S
C1122 C1121 1.388 . S
C1122 C1123 1.390 . S
C1123 C1122 1.390 . S
C1123 C1124 1.394 . S
C1123 C1129 1.465 . S
C1124 C1119 1.399 . S
C1124 C1123 1.394 . S
C1124 C1125 1.516 . S
C1125 C1124 1.516 . S
C1125 C1126 1.502 . S
C1125 C1127 1.561 . S
C1125 C1128 1.526 . S
C1126 H1110 0.959 . S
C1126 H1111 0.959 . S
C1126 H1112 0.961 . S
C1126 C1125 1.502 . S
C1127 H1113 0.960 . S
C1127 H1114 0.961 . S
C1127 H1115 0.959 . S
C1127 C1125 1.561 . S
C1128 C1125 1.526 . S
C1128 C1129 1.396 . S
C1128 C1133 1.390 . S
C1129 C1123 1.465 . S
C1129 C1128 1.396 . S
C1129 C1130 1.399 . S
C1130 H1116 0.929 . S
C1130 C1129 1.399 . S
C1130 C1131 1.385 . S
C1131 H1117 0.931 . S
C1131 C1130 1.385 . S
C1131 C1132 1.389 . S
C1132 C1131 1.389 . S
C1132 C1133 1.387 . S
C1133 H1118 0.930 . S
C1133 C1128 1.390 . S
C1133 C1132 1.387 . S
H1134 C1146 0.930 . S
H1135 C1148 0.930 . S
H1136 C1149 0.930 . S
H1137 C1153 0.959 . S
H1138 C1153 0.959 . S
H1139 C1153 0.961 . S
H1140 C1154 0.960 . S
H1141 C1154 0.961 . S
H1142 C1154 0.959 . S
H1143 C1157 0.929 . S
H1144 C1158 0.931 . S
H1145 C1160 0.930 . S
C1146 H1134 0.930 . S
C1146 C1147 1.399 . S
C1146 C1151 1.399 . S
C1147 C1146 1.399 . S
C1147 C1148 1.376 . S
C1148 H1135 0.930 . S
C1148 C1147 1.376 . S
C1148 C1149 1.388 . S
C1149 H1136 0.930 . S
C1149 C1148 1.388 . S
C1149 C1150 1.390 . S
C1150 C1149 1.390 . S
C1150 C1151 1.394 . S
C1150 C1156 1.465 . S
C1151 C1146 1.399 . S
C1151 C1150 1.394 . S
C1151 C1152 1.516 . S
C1152 C1151 1.516 . S
C1152 C1153 1.502 . S
C1152 C1154 1.561 . S
C1152 C1155 1.526 . S
C1153 H1137 0.959 . S
C1153 H1138 0.959 . S
C1153 H1139 0.961 . S
C1153 C1152 1.502 . S
C1154 H1140 0.960 . S
C1154 H1141 0.961 . S
C1154 H1142 0.959 . S
C1154 C1152 1.561 . S
C1155 C1152 1.526 . S
C1155 C1156 1.396 . S
C1155 C1160 1.390 . S
C1156 C1150 1.465 . S
C1156 C1155 1.396 . S
C1156 C1157 1.399 . S
C1157 H1143 0.929 . S
C1157 C1156 1.399 . S
C1157 C1158 1.385 . S
C1158 H1144 0.931 . S
C1158 C1157 1.385 . S
C1158 C1159 1.389 . S
C1159 C1158 1.389 . S
C1159 C1160 1.387 . S
C1160 H1145 0.930 . S
C1160 C1155 1.390 . S
C1160 C1159 1.387 . S
H1161 C1173 0.930 . S
H1162 C1175 0.930 . S
H1163 C1176 0.930 . S
H1164 C1180 0.959 . S
H1165 C1180 0.959 . S
H1166 C1180 0.961 . S
H1167 C1181 0.960 . S
H1168 C1181 0.961 . S
H1169 C1181 0.959 . S
H1170 C1184 0.929 . S
H1171 C1185 0.931 . S
H1172 C1187 0.930 . S
C1173 H1161 0.930 . S
C1173 C1174 1.399 . S
C1173 C1178 1.399 . S
C1174 C1173 1.399 . S
C1174 C1175 1.376 . S
C1175 H1162 0.930 . S
C1175 C1174 1.376 . S
C1175 C1176 1.388 . S
C1176 H1163 0.930 . S
C1176 C1175 1.388 . S
C1176 C1177 1.390 . S
C1177 C1176 1.390 . S
C1177 C1178 1.394 . S
C1177 C1183 1.465 . S
C1178 C1173 1.399 . S
C1178 C1177 1.394 . S
C1178 C1179 1.516 . S
C1179 C1178 1.516 . S
C1179 C1180 1.502 . S
C1179 C1181 1.561 . S
C1179 C1182 1.526 . S
C1180 H1164 0.959 . S
C1180 H1165 0.959 . S
C1180 H1166 0.961 . S
C1180 C1179 1.502 . S
C1181 H1167 0.960 . S
C1181 H1168 0.961 . S
C1181 H1169 0.959 . S
C1181 C1179 1.561 . S
C1182 C1179 1.526 . S
C1182 C1183 1.396 . S
C1182 C1187 1.390 . S
C1183 C1177 1.465 . S
C1183 C1182 1.396 . S
C1183 C1184 1.399 . S
C1184 H1170 0.929 . S
C1184 C1183 1.399 . S
C1184 C1185 1.385 . S
C1185 H1171 0.931 . S
C1185 C1184 1.385 . S
C1185 C1186 1.389 . S
C1186 C1185 1.389 . S
C1186 C1187 1.387 . S
C1187 H1172 0.930 . S
C1187 C1182 1.390 . S
C1187 C1186 1.387 . S
H1188 C1200 0.930 . S
H1189 C1202 0.930 . S
H1190 C1203 0.930 . S
H1191 C1207 0.959 . S
H1192 C1207 0.959 . S
H1193 C1207 0.961 . S
H1194 C1208 0.960 . S
H1195 C1208 0.961 . S
H1196 C1208 0.959 . S
H1197 C1211 0.929 . S
H1198 C1212 0.931 1_455 S
H1199 C1214 0.930 . S
C1200 H1188 0.930 . S
C1200 C1201 1.399 . S
C1200 C1205 1.399 . S
C1201 C1200 1.399 . S
C1201 C1202 1.376 . S
C1202 H1189 0.930 . S
C1202 C1201 1.376 . S
C1202 C1203 1.388 . S
C1203 H1190 0.930 . S
C1203 C1202 1.388 . S
C1203 C1204 1.390 . S
C1204 C1203 1.390 . S
C1204 C1205 1.394 . S
C1204 C1210 1.465 . S
C1205 C1200 1.399 . S
C1205 C1204 1.394 . S
C1205 C1206 1.516 . S
C1206 C1205 1.516 . S
C1206 C1207 1.502 . S
C1206 C1208 1.561 . S
C1206 C1209 1.526 . S
C1207 H1191 0.959 . S
C1207 H1192 0.959 . S
C1207 H1193 0.961 . S
C1207 C1206 1.502 . S
C1208 H1194 0.960 . S
C1208 H1195 0.961 . S
C1208 H1196 0.959 . S
C1208 C1206 1.561 . S
C1209 C1206 1.526 . S
C1209 C1210 1.396 . S
C1209 C1214 1.390 . S
C1210 C1204 1.465 . S
C1210 C1209 1.396 . S
C1210 C1211 1.399 . S
C1211 H1197 0.929 . S
C1211 C1210 1.399 . S
C1211 C1212 1.385 . S
C1212 H1198 0.931 1_655 S
C1212 C1211 1.385 . S
C1212 C1213 1.389 . S
C1213 C1212 1.389 . S
C1213 C1214 1.387 . S
C1214 H1199 0.930 . S
C1214 C1209 1.390 . S
C1214 C1213 1.387 . S
H1215 C1227 0.930 . S
H1216 C1229 0.930 . S
H1217 C1230 0.930 . S
H1218 C1234 0.959 . S
H1219 C1234 0.959 . S
H1220 C1234 0.961 . S
H1221 C1235 0.960 . S
H1222 C1235 0.961 . S
H1223 C1235 0.959 . S
H1224 C1238 0.929 . S
H1225 C1239 0.931 . S
H1226 C1241 0.930 . S
C1227 H1215 0.930 . S
C1227 C1228 1.399 . S
C1227 C1232 1.399 . S
C1228 C1227 1.399 . S
C1228 C1229 1.376 . S
C1229 H1216 0.930 . S
C1229 C1228 1.376 . S
C1229 C1230 1.388 . S
C1230 H1217 0.930 . S
C1230 C1229 1.388 . S
C1230 C1231 1.390 . S
C1231 C1230 1.390 . S
C1231 C1232 1.394 . S
C1231 C1237 1.465 . S
C1232 C1227 1.399 . S
C1232 C1231 1.394 . S
C1232 C1233 1.516 . S
C1233 C1232 1.516 . S
C1233 C1234 1.502 . S
C1233 C1235 1.561 . S
C1233 C1236 1.526 . S
C1234 H1218 0.959 . S
C1234 H1219 0.959 . S
C1234 H1220 0.961 . S
C1234 C1233 1.502 . S
C1235 H1221 0.960 . S
C1235 H1222 0.961 . S
C1235 H1223 0.959 . S
C1235 C1233 1.561 . S
C1236 C1233 1.526 . S
C1236 C1237 1.396 . S
C1236 C1241 1.390 . S
C1237 C1231 1.465 . S
C1237 C1236 1.396 . S
C1237 C1238 1.399 . S
C1238 H1224 0.929 . S
C1238 C1237 1.399 . S
C1238 C1239 1.385 . S
C1239 H1225 0.931 . S
C1239 C1238 1.385 . S
C1239 C1240 1.389 . S
C1240 C1239 1.389 . S
C1240 C1241 1.387 . S
C1241 H1226 0.930 . S
C1241 C1236 1.390 . S
C1241 C1240 1.387 . S
H1242 C1254 0.930 . S
H1243 C1256 0.930 . S
H1244 C1257 0.930 . S
H1245 C1261 0.959 . S
H1246 C1261 0.959 . S
H1247 C1261 0.961 . S
H1248 C1262 0.960 . S
H1249 C1262 0.961 . S
H1250 C1262 0.959 . S
H1251 C1265 0.929 . S
H1252 C1266 0.931 . S
H1253 C1268 0.930 . S
C1254 H1242 0.930 . S
C1254 C1255 1.399 . S
C1254 C1259 1.399 . S
C1255 C1254 1.399 . S
C1255 C1256 1.376 . S
C1256 H1243 0.930 . S
C1256 C1255 1.376 . S
C1256 C1257 1.388 . S
C1257 H1244 0.930 . S
C1257 C1256 1.388 . S
C1257 C1258 1.390 . S
C1258 C1257 1.390 . S
C1258 C1259 1.394 . S
C1258 C1264 1.465 . S
C1259 C1254 1.399 . S
C1259 C1258 1.394 . S
C1259 C1260 1.516 . S
C1260 C1259 1.516 . S
C1260 C1261 1.502 . S
C1260 C1262 1.561 . S
C1260 C1263 1.526 . S
C1261 H1245 0.959 . S
C1261 H1246 0.959 . S
C1261 H1247 0.961 . S
C1261 C1260 1.502 . S
C1262 H1248 0.960 . S
C1262 H1249 0.961 . S
C1262 H1250 0.959 . S
C1262 C1260 1.561 . S
C1263 C1260 1.526 . S
C1263 C1264 1.396 . S
C1263 C1268 1.390 . S
C1264 C1258 1.465 . S
C1264 C1263 1.396 . S
C1264 C1265 1.399 . S
C1265 H1251 0.929 . S
C1265 C1264 1.399 . S
C1265 C1266 1.385 . S
C1266 H1252 0.931 . S
C1266 C1265 1.385 . S
C1266 C1267 1.389 . S
C1267 C1266 1.389 . S
C1267 C1268 1.387 . S
C1268 H1253 0.930 . S
C1268 C1263 1.390 . S
C1268 C1267 1.387 . S
H1269 C1281 0.930 . S
H1270 C1283 0.930 . S
H1271 C1284 0.930 . S
H1272 C1288 0.959 . S
H1273 C1288 0.959 . S
H1274 C1288 0.961 . S
H1275 C1289 0.960 . S
H1276 C1289 0.961 . S
H1277 C1289 0.959 . S
H1278 C1292 0.929 . S
H1279 C1293 0.931 . S
H1280 C1295 0.930 . S
C1281 H1269 0.930 . S
C1281 C1282 1.399 . S
C1281 C1286 1.399 . S
C1282 C1281 1.399 . S
C1282 C1283 1.376 . S
C1283 H1270 0.930 . S
C1283 C1282 1.376 . S
C1283 C1284 1.388 . S
C1284 H1271 0.930 . S
C1284 C1283 1.388 . S
C1284 C1285 1.390 . S
C1285 C1284 1.390 . S
C1285 C1286 1.394 . S
C1285 C1291 1.465 . S
C1286 C1281 1.399 . S
C1286 C1285 1.394 . S
C1286 C1287 1.516 . S
C1287 C1286 1.516 . S
C1287 C1288 1.502 . S
C1287 C1289 1.561 . S
C1287 C1290 1.526 . S
C1288 H1272 0.959 . S
C1288 H1273 0.959 . S
C1288 H1274 0.961 . S
C1288 C1287 1.502 . S
C1289 H1275 0.960 . S
C1289 H1276 0.961 . S
C1289 H1277 0.959 . S
C1289 C1287 1.561 . S
C1290 C1287 1.526 . S
C1290 C1291 1.396 . S
C1290 C1295 1.390 . S
C1291 C1285 1.465 . S
C1291 C1290 1.396 . S
C1291 C1292 1.399 . S
C1292 H1278 0.929 . S
C1292 C1291 1.399 . S
C1292 C1293 1.385 . S
C1293 H1279 0.931 . S
C1293 C1292 1.385 . S
C1293 C1294 1.389 . S
C1294 C1293 1.389 . S
C1294 C1295 1.387 . S
C1295 H1280 0.930 . S
C1295 C1290 1.390 . S
C1295 C1294 1.387 . S
C661 C235 1.475 . S
C673 C368 1.482 . S
C700 C452 1.446 . S
C688 C289 1.460 . S
C727 C451 1.476 . S
C715 C157 1.460 . S
C742 C211 1.464 . S
C754 C367 1.470 . S
C781 C548 1.475 . S
C769 C79 1.477 . S
C808 C632 1.445 . S
C796 C118 1.468 . S
C823 C1 1.457 . S
C835 C631 1.476 . S
C850 C40 1.481 . S
C862 C547 1.456 . S
C889 C370 1.318 . S
C877 C55 1.500 1_554 S
C916 C454 1.348 . S
C904 C16 1.514 . S
C943 C466 1.421 . S
C931 C133 1.532 1_556 S
C970 C382 1.435 . S
C958 C94 1.529 . S
C997 C550 1.264 . S
C985 C196 1.525 1_556 S
C1012 C172 1.522 . S
C1024 C634 1.270 . S
C1051 C622 1.401 . S
C1039 C274 1.528 1_554 S
C1066 C250 1.544 . S
C1078 C538 1.392 . S
C1105 C379 1.573 . S
C1093 C21 1.560 . S
C1132 C463 1.569 . S
C1120 C60 1.574 . S
C1147 C99 1.557 . S
C1159 C464 1.532 . S
C1186 C380 1.540 . S
C1174 C138 1.566 . S
C1213 C535 1.586 . S
C1201 C177 1.578 . S
C1228 C216 1.557 . S
C1240 C619 1.588 . S
C1255 C255 1.547 . S
C1267 C620 1.538 . S
C1282 C294 1.575 . S
C1294 C536 1.572 . S
