# Generated by pormake.
# Topology rtl, (3,6)-cn, num edge types: 1
# Building blocks:
#     Node 0, Type 0, BuildingBlock: ESEHIV_clean_linker_0, # of connection points: 3
#     Node 1, Type 0, BuildingBlock: ESEHIV_clean_linker_0, # of connection points: 3
#     Node 2, Type 0, BuildingBlock: ESEHIV_clean_linker_0, # of connection points: 3
#     Node 3, Type 0, BuildingBlock: ESEHIV_clean_linker_0, # of connection points: 3
#     Node 4, Type 1, BuildingBlock: FUNLAD_clean_sbu_0, # of connection points: 6
#     Node 5, Type 1, BuildingBlock: FUNLAD_clean_sbu_0, # of connection points: 6
#     Edge 6, Type (0, 1), BuildingBlock: FUNLAD_clean_linker_1, # of connection points: 2
#     Edge 7, Type (0, 1), BuildingBlock: FUNLAD_clean_linker_1, # of connection points: 2
#     Edge 8, Type (0, 1), BuildingBlock: FUNLAD_clean_linker_1, # of connection points: 2
#     Edge 9, Type (0, 1), BuildingBlock: FUNLAD_clean_linker_1, # of connection points: 2
#     Edge 10, Type (0, 1), BuildingBlock: FUNLAD_clean_linker_1, # of connection points: 2
#     Edge 11, Type (0, 1), BuildingBlock: FUNLAD_clean_linker_1, # of connection points: 2
#     Edge 12, Type (0, 1), BuildingBlock: FUNLAD_clean_linker_1, # of connection points: 2
#     Edge 13, Type (0, 1), BuildingBlock: FUNLAD_clean_linker_1, # of connection points: 2
#     Edge 14, Type (0, 1), BuildingBlock: FUNLAD_clean_linker_1, # of connection points: 2
#     Edge 15, Type (0, 1), BuildingBlock: FUNLAD_clean_linker_1, # of connection points: 2
#     Edge 16, Type (0, 1), BuildingBlock: FUNLAD_clean_linker_1, # of connection points: 2
#     Edge 17, Type (0, 1), BuildingBlock: FUNLAD_clean_linker_1, # of connection points: 2
# Relax obj value: 0.025
# Max RMSD: 0.103
# Mean RMSD: 0.085
data_MOF--net-rtl--node1-FUNLAD_clean_sbu_0--node2-ESEHIV_clean_linker_0--edge1-FUNLAD_clean_linker_1
_symmetry_space_group_name_H-M    P1
_symmetry_Int_Tables_number       1
_symmetry_cell_setting            triclinic
loop_
_symmetry_equiv_pos_as_xyz
'x, y, z'
_cell_length_a     40.456192
_cell_length_b     32.731269
_cell_length_c     22.652696
_cell_angle_alpha  90.029586
_cell_angle_beta   90.84422
_cell_angle_gamma 90.746669
loop_
_atom_site_label
_atom_site_type_symbol
_atom_site_fract_x
_atom_site_fract_y
_atom_site_fract_z
_atom_type_partial_charge
H0 H 0.08886 0.82286 0.01378 0.0
H1 H 0.14931 0.74299 0.11821 0.0
H2 H 0.16843 0.7592 0.93284 0.0
C3 C 0.10878 0.80111 0.01641 0.0
C4 C 0.1276 0.79257 0.96641 0.0
C5 C 0.11657 0.78373 0.07123 0.0
C6 C 0.14335 0.75694 0.07606 0.0
C7 C 0.16269 0.74828 0.02666 0.0
C8 C 0.15446 0.76616 0.97189 0.0
H9 H 0.55687 0.7038 0.51289 0.0
H10 H 0.6334 0.76215 0.41243 0.0
H11 H 0.64013 0.75986 0.60231 0.0
C12 C 0.57992 0.72108 0.51131 0.0
C13 C 0.59716 0.73005 0.56388 0.0
C14 C 0.59318 0.73143 0.45656 0.0
C15 C 0.62325 0.75328 0.45462 0.0
C16 C 0.64068 0.76326 0.50684 0.0
C17 C 0.62743 0.7516 0.5616 0.0
H18 H 0.93071 0.17287 0.00608 0.0
H19 H 0.85834 0.23531 0.10811 0.0
H20 H 0.85163 0.23577 0.91793 0.0
C21 C 0.90839 0.19074 0.00808 0.0
C22 C 0.89245 0.20304 0.9556 0.0
C23 C 0.89621 0.2025 0.06313 0.0
C24 C 0.86798 0.22671 0.06548 0.0
C25 C 0.85153 0.23899 0.01362 0.0
C26 C 0.86425 0.22747 0.95857 0.0
H27 H 0.42231 0.33111 0.50838 0.0
H28 H 0.33416 0.28066 0.58432 0.0
H29 H 0.35221 0.26578 0.39868 0.0
C30 C 0.39986 0.31288 0.50437 0.0
C31 C 0.38993 0.29906 0.44825 0.0
C32 C 0.37997 0.30608 0.5538 0.0
C33 C 0.35001 0.28452 0.54656 0.0
C34 C 0.34005 0.26924 0.49084 0.0
C35 C 0.35998 0.27709 0.44171 0.0
C36 C 0.03176 0.9386 0.43159 0.0
N37 N 0.06787 0.0431 0.51889 0.0
C38 C 0.09713 0.02333 0.52416 0.0
C39 C 0.12692 0.04528 0.52525 0.0
C40 C 0.1268 0.08797 0.52036 0.0
C41 C 0.09617 0.10775 0.51573 0.0
C42 C 0.06688 0.08455 0.515 0.0
Zn43 Zn 0.02515 0.00886 0.51569 0.0
C44 C 0.97851 0.03592 0.42182 0.0
N45 N 0.93757 0.93438 0.50764 0.0
C46 C 0.93855 0.89288 0.50985 0.0
C47 C 0.90829 0.95433 0.50646 0.0
C48 C 0.87845 0.93258 0.50848 0.0
C49 C 0.87864 0.88962 0.51127 0.0
C50 C 0.90924 0.86986 0.51181 0.0
Zn51 Zn 0.98025 0.96856 0.51039 0.0
O52 O 0.04676 0.96946 0.45358 0.0
C53 C 0.02647 0.94076 0.60353 0.0
O54 O 0.00237 0.93016 0.4471 0.0
H55 H 0.90805 0.98735 0.50515 0.0
H56 H 0.09742 0.99037 0.52722 0.0
H57 H 0.96211 0.87762 0.51105 0.0
O58 O 0.04293 0.97172 0.58606 0.0
O59 O 0.99892 0.93184 0.57903 0.0
H60 H 0.04333 0.09967 0.51127 0.0
O61 O 0.95909 0.00744 0.57446 0.0
O62 O 0.00298 0.04767 0.57811 0.0
O63 O 0.96214 0.00559 0.44127 0.0
O64 O 0.00644 0.04517 0.44506 0.0
C65 C 0.9741 0.03858 0.59566 0.0
H66 H 0.14995 0.0289 0.5293 0.0
H67 H 0.09453 0.14065 0.5135 0.0
H68 H 0.85581 0.94969 0.50954 0.0
H69 H 0.9105 0.83686 0.51429 0.0
C70 C 0.48818 0.45133 0.9175 0.0
N71 N 0.57726 0.45159 0.01454 0.0
C72 C 0.57744 0.41007 0.01158 0.0
C73 C 0.60739 0.38924 0.00921 0.0
C74 C 0.63743 0.4115 0.01006 0.0
C75 C 0.63635 0.45419 0.01405 0.0
C76 C 0.60597 0.47368 0.01641 0.0
Zn77 Zn 0.53392 0.48314 0.01069 0.0
C78 C 0.53933 0.55253 0.92429 0.0
N79 N 0.44546 0.55289 0.99883 0.0
C80 C 0.41586 0.53277 0.99541 0.0
C81 C 0.44714 0.5944 0.0009 0.0
C82 C 0.41827 0.61729 0.00045 0.0
C83 C 0.38735 0.59741 0.99827 0.0
C84 C 0.38635 0.55447 0.99489 0.0
Zn85 Zn 0.4882 0.52034 0.00314 0.0
O86 O 0.51589 0.44451 0.94236 0.0
C87 C 0.48231 0.45128 0.08945 0.0
O88 O 0.47105 0.48144 0.93409 0.0
H89 H 0.47092 0.60982 0.00343 0.0
H90 H 0.55432 0.39312 0.00965 0.0
H91 H 0.4151 0.49975 0.99339 0.0
O92 O 0.51194 0.4442 0.07478 0.0
O93 O 0.46696 0.48091 0.06612 0.0
H94 H 0.60535 0.50666 0.01847 0.0
O95 O 0.50611 0.55865 0.07207 0.0
O96 O 0.55124 0.52228 0.0791 0.0
O97 O 0.50998 0.55936 0.94036 0.0
O98 O 0.55494 0.52265 0.9463 0.0
C99 C 0.53408 0.5521 0.0962 0.0
H100 H 0.60667 0.35635 0.00493 0.0
H101 H 0.65888 0.47247 0.01466 0.0
H102 H 0.42012 0.65032 0.00258 0.0
H103 H 0.36329 0.53756 0.99131 0.0
H104 H 0.29584 0.24896 0.43921 0.0
C105 C 0.30803 0.24712 0.48223 0.0
H106 H 0.30583 0.22144 0.5678 0.0
H107 H 0.15183 0.20205 0.58061 0.0
H108 H 0.16219 0.25698 0.65066 0.0
H109 H 0.2174 0.28946 0.65975 0.0
H110 H 0.26262 0.26708 0.59917 0.0
C111 C 0.29392 0.22448 0.52481 0.0
C112 C 0.26045 0.20561 0.51692 0.0
C113 C 0.23415 0.21944 0.5522 0.0
C114 C 0.2022 0.2011 0.54643 0.0
C115 C 0.17652 0.21513 0.58283 0.0
C116 C 0.18212 0.24663 0.62325 0.0
C117 C 0.21321 0.26488 0.62841 0.0
C118 C 0.23899 0.25164 0.59341 0.0
H119 H 0.18057 0.09404 0.53791 0.0
C120 C 0.15903 0.11036 0.52156 0.0
H121 H 0.14296 0.16637 0.48444 0.0
H122 H 0.30595 0.16904 0.44616 0.0
H123 H 0.29498 0.11595 0.37361 0.0
H124 H 0.23867 0.08757 0.35885 0.0
H125 H 0.19312 0.11165 0.41738 0.0
C126 C 0.16344 0.14875 0.50171 0.0
C127 C 0.19656 0.16905 0.50533 0.0
C128 C 0.22263 0.15583 0.46902 0.0
C129 C 0.2548 0.17351 0.4757 0.0
C130 C 0.28077 0.15797 0.44133 0.0
C131 C 0.27486 0.12726 0.39976 0.0
C132 C 0.24319 0.11118 0.39159 0.0
C133 C 0.21729 0.12514 0.42571 0.0
H134 H 0.19071 0.69862 0.07026 0.0
C135 C 0.19094 0.71996 0.03346 0.0
H136 H 0.21882 0.74178 0.96113 0.0
H137 H 0.33705 0.64855 0.10908 0.0
H138 H 0.33149 0.70275 0.18123 0.0
H139 H 0.28641 0.75252 0.17237 0.0
H140 H 0.2464 0.7481 0.09178 0.0
C141 C 0.21713 0.7204 0.99754 0.0
C142 C 0.24416 0.69038 0.004 0.0
C143 C 0.26768 0.69401 0.0508 0.0
C144 C 0.29428 0.66611 0.05487 0.0
C145 C 0.31691 0.66962 0.10296 0.0
C146 C 0.31391 0.70047 0.14485 0.0
C147 C 0.28848 0.72842 0.13994 0.0
C148 C 0.26559 0.72543 0.09354 0.0
H149 H 0.35978 0.65501 0.98891 0.0
C150 C 0.35705 0.6226 0.99868 0.0
H151 H 0.32268 0.57628 0.02338 0.0
H152 H 0.20262 0.67416 0.91016 0.0
H153 H 0.20852 0.62028 0.83758 0.0
H154 H 0.25527 0.57274 0.84362 0.0
H155 H 0.29639 0.57871 0.92237 0.0
C156 C 0.32687 0.60816 0.01255 0.0
C157 C 0.29776 0.63543 0.01124 0.0
C158 C 0.27389 0.63132 0.96519 0.0
C159 C 0.24709 0.6589 0.96148 0.0
C160 C 0.22363 0.65423 0.91483 0.0
C161 C 0.22668 0.62339 0.87293 0.0
C162 C 0.25299 0.59661 0.87635 0.0
C163 C 0.27641 0.60038 0.9218 0.0
H164 H 0.67678 0.80354 0.46218 0.0
C165 C 0.6726 0.78582 0.50208 0.0
H166 H 0.69455 0.76554 0.58229 0.0
H167 H 0.8216 0.82677 0.41878 0.0
H168 H 0.80843 0.76753 0.35815 0.0
H169 H 0.75946 0.7244 0.3786 0.0
H170 H 0.7231 0.74066 0.45922 0.0
C171 C 0.69727 0.78344 0.54232 0.0
C172 C 0.72887 0.80632 0.534 0.0
C173 C 0.75057 0.7954 0.4881 0.0
C174 C 0.77953 0.8193 0.47779 0.0
C175 C 0.79987 0.80894 0.42981 0.0
C176 C 0.79251 0.7751 0.39445 0.0
C177 C 0.76489 0.7509 0.40585 0.0
C178 C 0.7441 0.76074 0.45207 0.0
H179 H 0.85022 0.83306 0.53089 0.0
C180 C 0.84783 0.86461 0.51649 0.0
H181 H 0.8135 0.90967 0.4894 0.0
H182 H 0.69332 0.83431 0.62729 0.0
H183 H 0.70768 0.89192 0.69048 0.0
H184 H 0.75871 0.93221 0.6744 0.0
H185 H 0.79565 0.91526 0.59488 0.0
C186 C 0.81735 0.87863 0.50433 0.0
C187 C 0.78734 0.85311 0.51483 0.0
C188 C 0.76614 0.86328 0.56175 0.0
C189 C 0.73689 0.83982 0.57139 0.0
C190 C 0.71598 0.85092 0.61822 0.0
C191 C 0.72391 0.88394 0.65483 0.0
C192 C 0.75263 0.90664 0.64574 0.0
C193 C 0.77359 0.8966 0.59985 0.0
H194 H 0.8069 0.25799 0.06079 0.0
C195 C 0.81993 0.26116 0.01932 0.0
H196 H 0.81895 0.28948 0.93523 0.0
H197 H 0.6636 0.30642 0.92473 0.0
H198 H 0.67301 0.25836 0.84541 0.0
H199 H 0.72843 0.23016 0.82955 0.0
H200 H 0.77484 0.2501 0.89254 0.0
C201 C 0.80675 0.28508 0.97712 0.0
C202 C 0.77377 0.30393 0.98519 0.0
C203 C 0.74684 0.29169 0.94818 0.0
C204 C 0.71477 0.30746 0.9579 0.0
C205 C 0.68841 0.29507 0.9198 0.0
C206 C 0.69346 0.26752 0.87403 0.0
C207 C 0.72467 0.25167 0.86507 0.0
C208 C 0.75112 0.26344 0.90158 0.0
H209 H 0.69102 0.41176 0.99251 0.0
C210 C 0.67024 0.39207 0.00421 0.0
H211 H 0.65635 0.33118 0.02552 0.0
H212 H 0.82081 0.33893 0.05823 0.0
H213 H 0.81109 0.38499 0.13984 0.0
H214 H 0.75465 0.40724 0.16252 0.0
H215 H 0.70775 0.38434 0.10285 0.0
C216 C 0.67606 0.35224 0.01367 0.0
C217 C 0.70961 0.33524 0.0048 0.0
C218 C 0.73652 0.34735 0.04203 0.0
C219 C 0.7688 0.33267 0.03107 0.0
C220 C 0.79555 0.34748 0.06637 0.0
C221 C 0.79036 0.37421 0.11308 0.0
C222 C 0.75861 0.38688 0.12568 0.0
C223 C 0.73192 0.37371 0.09077 0.0
H224 H 0.07134 0.80513 0.11411 0.0
C225 C 0.0967 0.79581 0.12259 0.0
H226 H 0.13533 0.7945 0.18668 0.0
H227 H 0.03222 0.93811 0.27644 0.0
H228 H 0.05012 0.97548 0.19003 0.0
H229 H 0.08823 0.9444 0.11932 0.0
H230 H 0.10795 0.87559 0.13395 0.0
C231 C 0.10984 0.80224 0.17664 0.0
C232 C 0.09039 0.82285 0.22301 0.0
C233 C 0.08068 0.8641 0.21539 0.0
C234 C 0.0604 0.88292 0.25795 0.0
C235 C 0.04903 0.92304 0.24708 0.0
C236 C 0.05889 0.94475 0.19737 0.0
C237 C 0.08021 0.9272 0.15745 0.0
C238 C 0.0911 0.88744 0.16616 0.0
H239 H 0.07367 0.9234 0.37549 0.0
C240 C 0.04863 0.9142 0.3869 0.0
H241 H 0.00936 0.87239 0.3694 0.0
H242 H 0.10495 0.7438 0.2511 0.0
H243 H 0.08893 0.70748 0.33989 0.0
H244 H 0.05603 0.74133 0.41616 0.0
H245 H 0.0387 0.8116 0.40397 0.0
C246 C 0.03405 0.88286 0.35797 0.0
C247 C 0.05183 0.86152 0.31012 0.0
C248 C 0.06175 0.8205 0.318 0.0
C249 C 0.08103 0.80111 0.27431 0.0
C250 C 0.09048 0.76004 0.2831 0.0
C251 C 0.08145 0.73886 0.33383 0.0
C252 C 0.06291 0.75791 0.37677 0.0
C253 C 0.05313 0.79826 0.36923 0.0
H254 H 0.5568 0.70877 0.62124 0.0
C255 C 0.58335 0.71438 0.61978 0.0
H256 H 0.629 0.70437 0.66429 0.0
H257 H 0.55838 0.67538 0.91124 0.0
H258 H 0.58331 0.74229 0.92869 0.0
H259 H 0.61017 0.78019 0.84795 0.0
H260 H 0.61239 0.75135 0.74926 0.0
C261 C 0.6023 0.70071 0.66459 0.0
C262 C 0.58725 0.67723 0.71377 0.0
C263 C 0.58618 0.69452 0.77102 0.0
C264 C 0.57052 0.67279 0.81745 0.0
C265 C 0.56985 0.69069 0.87433 0.0
C266 C 0.58406 0.72905 0.88494 0.0
C267 C 0.59919 0.75038 0.83947 0.0
C268 C 0.6003 0.7335 0.78306 0.0
H269 H 0.57912 0.56868 0.86282 0.0
C270 C 0.55511 0.57787 0.87879 0.0
H271 H 0.51689 0.62122 0.87167 0.0
H272 H 0.58878 0.63272 0.61098 0.0
H273 H 0.56255 0.56685 0.59296 0.0
H274 H 0.53208 0.53133 0.67176 0.0
H275 H 0.52813 0.56126 0.76923 0.0
C276 C 0.54042 0.61073 0.85528 0.0
C277 C 0.5561 0.6338 0.80646 0.0
C278 C 0.55707 0.6165 0.74912 0.0
C279 C 0.57336 0.63779 0.70305 0.0
C280 C 0.57554 0.61877 0.64702 0.0
C281 C 0.5608 0.58076 0.63615 0.0
C282 C 0.54373 0.56071 0.68054 0.0
C283 C 0.54182 0.57818 0.73644 0.0
H284 H 0.91287 0.21113 0.15576 0.0
C285 C 0.91243 0.18975 0.11898 0.0
H286 H 0.92263 0.12975 0.09117 0.0
H287 H 0.02962 0.08169 0.27923 0.0
H288 H 0.06077 0.08042 0.18874 0.0
H289 H 0.03686 0.10682 0.09573 0.0
H290 H 0.98144 0.13401 0.09246 0.0
C291 C 0.92361 0.15166 0.12724 0.0
C292 C 0.93842 0.13831 0.18459 0.0
C293 C 0.9713 0.12372 0.18615 0.0
C294 C 0.98541 0.10944 0.2401 0.0
C295 C 0.01782 0.09355 0.23978 0.0
C296 C 0.03602 0.09261 0.18809 0.0
C297 C 0.02254 0.10741 0.13571 0.0
C298 C 0.99061 0.12285 0.13447 0.0
H299 H 0.94216 0.04732 0.35104 0.0
C300 C 0.96514 0.05861 0.37097 0.0
H301 H 0.00383 0.10235 0.36567 0.0
H302 H 0.8728 0.15779 0.19665 0.0
H303 H 0.84317 0.16346 0.28819 0.0
H304 H 0.87044 0.14785 0.38351 0.0
H305 H 0.92725 0.12505 0.38729 0.0
C306 C 0.98033 0.09138 0.34751 0.0
C307 C 0.96687 0.11058 0.2927 0.0
C308 C 0.93461 0.12709 0.29173 0.0
C309 C 0.91979 0.13919 0.23729 0.0
C310 C 0.8862 0.15103 0.23699 0.0
C311 C 0.8687 0.15395 0.28928 0.0
C312 C 0.88398 0.14494 0.34289 0.0
C313 C 0.91651 0.13158 0.34436 0.0
H314 H 0.36825 0.33086 0.64198 0.0
C315 C 0.38839 0.32446 0.6122 0.0
H316 H 0.44028 0.32797 0.60117 0.0
H317 H 0.4608 0.48482 0.75841 0.0
H318 H 0.46719 0.51345 0.66046 0.0
H319 H 0.4546 0.47205 0.5717 0.0
H320 H 0.43566 0.40175 0.58035 0.0
C321 C 0.41945 0.33448 0.62911 0.0
C322 C 0.42616 0.35917 0.68308 0.0
C323 C 0.43694 0.40035 0.67713 0.0
C324 C 0.44384 0.42435 0.72822 0.0
C325 C 0.45493 0.46528 0.72106 0.0
C326 C 0.45875 0.48211 0.66507 0.0
C327 C 0.45168 0.4588 0.61512 0.0
C328 C 0.44088 0.41842 0.62076 0.0
H329 H 0.49228 0.3994 0.85622 0.0
C330 C 0.47676 0.42479 0.86868 0.0
H331 H 0.43361 0.45803 0.84828 0.0
H332 H 0.40786 0.28052 0.70988 0.0
H333 H 0.40025 0.2524 0.80792 0.0
H334 H 0.4099 0.295 0.89657 0.0
H335 H 0.42756 0.36586 0.8877 0.0
C336 C 0.44879 0.43188 0.83804 0.0
C337 C 0.44 0.40708 0.78508 0.0
C338 C 0.42877 0.36609 0.79109 0.0
C339 C 0.42224 0.34191 0.73997 0.0
C340 C 0.4123 0.30059 0.74719 0.0
C341 C 0.40798 0.28401 0.80322 0.0
C342 C 0.41349 0.30796 0.85314 0.0
C343 C 0.42376 0.34854 0.84743 0.0
H344 H 0.54944 0.71069 0.4045 0.0
C345 C 0.57596 0.71637 0.40251 0.0
H346 H 0.619 0.70684 0.35239 0.0
H347 H 0.51747 0.56244 0.25109 0.0
H348 H 0.52356 0.53253 0.3485 0.0
H349 H 0.55461 0.56888 0.42748 0.0
H350 H 0.57913 0.63552 0.40988 0.0
C351 C 0.59237 0.70309 0.35524 0.0
C352 C 0.57502 0.68013 0.30713 0.0
C353 C 0.56208 0.64031 0.31779 0.0
C354 C 0.54564 0.61845 0.27155 0.0
C355 C 0.53137 0.57968 0.28402 0.0
C356 C 0.53449 0.56225 0.33985 0.0
C357 C 0.55186 0.58278 0.38436 0.0
C358 C 0.56561 0.62126 0.3737 0.0
H359 H 0.57005 0.57003 0.16557 0.0
C360 C 0.54668 0.57814 0.14462 0.0
H361 H 0.50739 0.62023 0.14272 0.0
H362 H 0.59646 0.75592 0.27259 0.0
H363 H 0.59151 0.78496 0.17425 0.0
H364 H 0.56479 0.74588 0.09306 0.0
H365 H 0.54266 0.67762 0.10975 0.0
C366 C 0.53023 0.61072 0.16415 0.0
C367 C 0.54377 0.63548 0.21408 0.0
C368 C 0.55638 0.67536 0.20357 0.0
C369 C 0.57206 0.69772 0.2502 0.0
C370 C 0.58452 0.73749 0.23858 0.0
C371 C 0.58182 0.75452 0.18238 0.0
C372 C 0.56676 0.73253 0.13667 0.0
C373 C 0.55416 0.69338 0.14685 0.0
H374 H 0.90392 0.21261 0.86123 0.0
C375 C 0.90507 0.19072 0.89725 0.0
H376 H 0.91695 0.1307 0.92287 0.0
H377 H 0.91764 0.1257 0.62708 0.0
H378 H 0.8605 0.14712 0.62972 0.0
H379 H 0.83419 0.16322 0.72435 0.0
H380 H 0.86507 0.15925 0.81644 0.0
C381 C 0.9164 0.15293 0.88725 0.0
C382 C 0.93091 0.14076 0.82984 0.0
C383 C 0.91174 0.14101 0.77678 0.0
C384 C 0.92617 0.12895 0.72267 0.0
C385 C 0.90734 0.1324 0.66974 0.0
C386 C 0.87459 0.14495 0.67057 0.0
C387 C 0.85984 0.15422 0.7238 0.0
C388 C 0.87802 0.15221 0.7764 0.0
H389 H 0.93564 0.04962 0.66117 0.0
C390 C 0.95858 0.06175 0.64339 0.0
H391 H 0.99593 0.10708 0.65137 0.0
H392 H 0.9752 0.1386 0.92265 0.0
H393 H 0.03119 0.11343 0.9205 0.0
H394 H 0.05466 0.08745 0.82811 0.0
H395 H 0.02242 0.08686 0.73728 0.0
C396 C 0.97254 0.09533 0.66773 0.0
C397 C 0.95882 0.11362 0.72233 0.0
C398 C 0.97797 0.11337 0.77529 0.0
C399 C 0.96414 0.12737 0.82889 0.0
C400 C 0.9841 0.12748 0.88088 0.0
C401 C 0.01638 0.11324 0.88029 0.0
C402 C 0.02961 0.09867 0.82828 0.0
C403 C 0.01078 0.09862 0.77632 0.0
H404 H 0.43707 0.31679 0.4069 0.0
C405 C 0.41109 0.31007 0.39762 0.0
H406 H 0.37313 0.31338 0.33233 0.0
H407 H 0.48321 0.45164 0.24584 0.0
H408 H 0.46604 0.48966 0.33176 0.0
H409 H 0.42664 0.45949 0.40207 0.0
H410 H 0.40474 0.39099 0.38749 0.0
C411 C 0.39906 0.31837 0.34343 0.0
C412 C 0.42057 0.33788 0.29845 0.0
C413 C 0.4319 0.37881 0.30639 0.0
C414 C 0.45321 0.39701 0.2643 0.0
C415 C 0.46577 0.43699 0.27506 0.0
C416 C 0.45633 0.45907 0.32445 0.0
C417 C 0.43426 0.44203 0.36413 0.0
C418 C 0.42206 0.40246 0.3554 0.0
H419 H 0.44033 0.43539 0.14558 0.0
C420 C 0.46542 0.42686 0.13468 0.0
H421 H 0.50451 0.38636 0.15376 0.0
H422 H 0.40384 0.25892 0.27082 0.0
H423 H 0.42011 0.22152 0.18347 0.0
H424 H 0.45533 0.25409 0.10846 0.0
H425 H 0.47472 0.32419 0.12044 0.0
C426 C 0.47979 0.39629 0.16453 0.0
C427 C 0.46157 0.37519 0.21259 0.0
C428 C 0.45056 0.33423 0.20496 0.0
C429 C 0.43002 0.31555 0.24797 0.0
C430 C 0.41934 0.2746 0.23931 0.0
C431 C 0.4285 0.25281 0.18942 0.0
C432 C 0.44834 0.27116 0.14718 0.0
C433 C 0.45928 0.3114 0.15457 0.0
H434 H 0.14169 0.81673 0.87888 0.0
C435 C 0.12114 0.81294 0.90892 0.0
H436 H 0.07008 0.8232 0.92092 0.0
H437 H 0.06089 0.97915 0.76139 0.0
H438 H 0.05744 0.00919 0.85896 0.0
H439 H 0.06794 0.96789 0.94818 0.0
H440 H 0.08166 0.89621 0.94043 0.0
C441 C 0.09131 0.82702 0.89264 0.0
C442 C 0.0868 0.85185 0.83834 0.0
C443 C 0.07932 0.89389 0.84372 0.0
C444 C 0.07375 0.91784 0.79232 0.0
C445 C 0.06567 0.95958 0.79896 0.0
C446 C 0.0636 0.97725 0.85472 0.0
C447 C 0.06947 0.95399 0.90495 0.0
C448 C 0.07726 0.91282 0.89983 0.0
H449 H 0.02305 0.8897 0.66631 0.0
C450 C 0.0384 0.91549 0.65285 0.0
H451 H 0.08169 0.95035 0.67131 0.0
H452 H 0.09888 0.77157 0.8124 0.0
H453 H 0.10453 0.74227 0.7148 0.0
H454 H 0.0983 0.78493 0.62565 0.0
H455 H 0.08587 0.85705 0.63368 0.0
C456 C 0.06661 0.92385 0.68259 0.0
C457 C 0.07572 0.89967 0.73572 0.0
C458 C 0.08438 0.858 0.73026 0.0
C459 C 0.08929 0.83382 0.78167 0.0
C460 C 0.09605 0.79173 0.77493 0.0
C461 C 0.09917 0.77445 0.71911 0.0
C462 C 0.09556 0.79843 0.66892 0.0
C463 C 0.08824 0.83972 0.67414 0.0
loop_
_geom_bond_atom_site_label_1
_geom_bond_atom_site_label_2
_geom_bond_distance
_geom_bond_site_symmetry_2
_ccdc_geom_bond_type
H0 C3 0.931 . S
H1 C6 0.928 . S
H2 C8 0.930 . S
C3 H0 0.931 . S
C3 C4 1.413 1_554 S
C3 C5 1.360 . S
C4 C3 1.413 1_556 S
C4 C8 1.429 . S
C5 C3 1.360 . S
C5 C6 1.372 . S
C6 H1 0.928 . S
C6 C5 1.372 . S
C6 C7 1.404 . S
C7 C6 1.404 . S
C7 C8 1.391 1_554 S
C8 H2 0.930 . S
C8 C4 1.429 . S
C8 C7 1.391 1_556 S
H9 C12 0.931 . S
H10 C15 0.928 . S
H11 C17 0.930 . S
C12 H9 0.931 . S
C12 C13 1.413 . S
C12 C14 1.360 . S
C13 C12 1.413 . S
C13 C17 1.429 . S
C14 C12 1.360 . S
C14 C15 1.372 . S
C15 H10 0.928 . S
C15 C14 1.372 . S
C15 C16 1.404 . S
C16 C15 1.404 . S
C16 C17 1.391 . S
C17 H11 0.930 . S
C17 C13 1.429 . S
C17 C16 1.391 . S
H18 C21 0.931 . S
H19 C24 0.928 . S
H20 C26 0.930 . S
C21 H18 0.931 . S
C21 C22 1.413 1_554 S
C21 C23 1.360 . S
C22 C21 1.413 1_556 S
C22 C26 1.429 . S
C23 C21 1.360 . S
C23 C24 1.372 . S
C24 H19 0.928 . S
C24 C23 1.372 . S
C24 C25 1.404 . S
C25 C24 1.404 . S
C25 C26 1.391 1_554 S
C26 H20 0.930 . S
C26 C22 1.429 . S
C26 C25 1.391 1_556 S
H27 C30 0.931 . S
H28 C33 0.928 . S
H29 C35 0.930 . S
C30 H27 0.931 . S
C30 C31 1.413 . S
C30 C32 1.360 . S
C31 C30 1.413 . S
C31 C35 1.429 . S
C32 C30 1.360 . S
C32 C33 1.372 . S
C33 H28 0.928 . S
C33 C32 1.372 . S
C33 C34 1.404 . S
C34 C33 1.404 . S
C34 C35 1.391 . S
C35 H29 0.930 . S
C35 C31 1.429 . S
C35 C34 1.391 . S
C36 O52 1.251 . S
C36 O54 1.254 1_455 S
N37 C38 1.333 . S
N37 C42 1.307 . S
N37 Zn43 2.020 . S
C38 N37 1.333 . S
C38 C39 1.379 . S
C38 H56 0.952 . S
C39 C38 1.379 . S
C39 C40 1.390 . S
C39 H66 0.949 . S
C40 C39 1.390 . S
C40 C41 1.357 . S
C41 C40 1.357 . S
C41 C42 1.370 . S
C41 H67 0.950 . S
C42 N37 1.307 . S
C42 C41 1.370 . S
C42 H60 0.948 . S
Zn43 N37 2.020 . S
Zn43 O52 2.039 1_545 S
Zn43 O58 2.034 1_545 S
Zn43 O62 2.025 . S
Zn43 O64 2.024 . S
C44 O63 1.246 . S
C44 O64 1.249 1_655 S
N45 C46 1.307 . S
N45 C47 1.333 . S
N45 Zn51 2.020 . S
C46 N45 1.307 . S
C46 C50 1.370 . S
C46 H57 0.948 . S
C47 N45 1.333 . S
C47 C48 1.379 . S
C47 H55 0.952 . S
C48 C47 1.379 . S
C48 C49 1.390 . S
C48 H68 0.949 . S
C49 C48 1.390 . S
C49 C50 1.357 . S
C50 C46 1.370 . S
C50 C49 1.357 . S
C50 H69 0.950 . S
Zn51 N45 2.020 . S
Zn51 O54 2.025 . S
Zn51 O59 2.024 . S
Zn51 O61 2.039 1_565 S
Zn51 O63 2.034 1_565 S
O52 C36 1.251 . S
O52 Zn43 2.039 1_565 S
C53 O58 1.246 . S
C53 O59 1.249 1_455 S
O54 C36 1.254 1_655 S
O54 Zn51 2.025 . S
H55 C47 0.952 . S
H56 C38 0.952 . S
H57 C46 0.948 . S
O58 Zn43 2.034 1_565 S
O58 C53 1.246 . S
O59 Zn51 2.024 . S
O59 C53 1.249 1_655 S
H60 C42 0.948 . S
O61 Zn51 2.039 1_545 S
O61 C65 1.251 . S
O62 Zn43 2.025 . S
O62 C65 1.254 1_455 S
O63 C44 1.246 . S
O63 Zn51 2.034 1_545 S
O64 Zn43 2.024 . S
O64 C44 1.249 1_455 S
C65 O61 1.251 . S
C65 O62 1.254 1_655 S
H66 C39 0.949 . S
H67 C41 0.950 . S
H68 C48 0.949 . S
H69 C50 0.950 . S
C70 O86 1.251 . S
C70 O88 1.254 . S
N71 C72 1.333 1_554 S
N71 C76 1.307 . S
N71 Zn77 2.020 . S
C72 N71 1.333 1_556 S
C72 C73 1.379 . S
C72 H90 0.952 . S
C73 C72 1.379 . S
C73 C74 1.390 1_556 S
C73 H100 0.949 . S
C74 C73 1.390 1_554 S
C74 C75 1.357 . S
C75 C74 1.357 . S
C75 C76 1.370 . S
C75 H101 0.950 . S
C76 N71 1.307 . S
C76 C75 1.370 . S
C76 H94 0.948 . S
Zn77 N71 2.020 . S
Zn77 O86 2.039 1_554 S
Zn77 O92 2.034 . S
Zn77 O96 2.025 . S
Zn77 O98 2.024 1_554 S
C78 O97 1.246 . S
C78 O98 1.249 . S
N79 C80 1.307 1_554 S
N79 C81 1.333 . S
N79 Zn85 2.020 . S
C80 N79 1.307 1_556 S
C80 C84 1.370 . S
C80 H91 0.948 . S
C81 N79 1.333 . S
C81 C82 1.379 . S
C81 H89 0.952 . S
C82 C81 1.379 . S
C82 C83 1.390 . S
C82 H102 0.949 . S
C83 C82 1.390 . S
C83 C84 1.357 1_554 S
C84 C80 1.370 . S
C84 C83 1.357 1_556 S
C84 H103 0.950 . S
Zn85 N79 2.020 . S
Zn85 O88 2.025 1_554 S
Zn85 O93 2.024 . S
Zn85 O95 2.039 . S
Zn85 O97 2.034 1_554 S
O86 C70 1.251 . S
O86 Zn77 2.039 1_556 S
C87 O92 1.246 . S
C87 O93 1.249 . S
O88 C70 1.254 . S
O88 Zn85 2.025 1_556 S
H89 C81 0.952 . S
H90 C72 0.952 . S
H91 C80 0.948 . S
O92 Zn77 2.034 . S
O92 C87 1.246 . S
O93 Zn85 2.024 . S
O93 C87 1.249 . S
H94 C76 0.948 . S
O95 Zn85 2.039 . S
O95 C99 1.251 . S
O96 Zn77 2.025 . S
O96 C99 1.254 . S
O97 C78 1.246 . S
O97 Zn85 2.034 1_556 S
O98 Zn77 2.024 1_556 S
O98 C78 1.249 . S
C99 O95 1.251 . S
C99 O96 1.254 . S
H100 C73 0.949 . S
H101 C75 0.950 . S
H102 C82 0.949 . S
H103 C84 0.950 . S
H104 C105 0.951 . S
C105 H104 0.951 . S
C105 C111 1.265 . S
H106 C111 0.950 . S
H107 C115 0.949 . S
H108 C116 0.950 . S
H109 C117 0.951 . S
H110 C118 0.951 . S
C111 C105 1.265 . S
C111 H106 0.950 . S
C111 C112 1.478 . S
C112 C111 1.478 . S
C112 C113 1.397 . S
C112 C129 1.394 . S
C113 C112 1.397 . S
C113 C114 1.438 . S
C113 C118 1.429 . S
C114 C113 1.438 . S
C114 C115 1.428 . S
C114 C127 1.394 . S
C115 H107 0.949 . S
C115 C114 1.428 . S
C115 C116 1.345 . S
C116 H108 0.950 . S
C116 C115 1.345 . S
C116 C117 1.424 . S
C117 H109 0.951 . S
C117 C116 1.424 . S
C117 C118 1.347 . S
C118 H110 0.951 . S
C118 C113 1.429 . S
C118 C117 1.347 . S
H119 C120 0.951 . S
C120 H119 0.951 . S
C120 C126 1.265 . S
H121 C126 0.950 . S
H122 C130 0.949 . S
H123 C131 0.950 . S
H124 C132 0.951 . S
H125 C133 0.951 . S
C126 C120 1.265 . S
C126 H121 0.950 . S
C126 C127 1.478 . S
C127 C114 1.394 . S
C127 C126 1.478 . S
C127 C128 1.397 . S
C128 C127 1.397 . S
C128 C129 1.438 . S
C128 C133 1.429 . S
C129 C112 1.394 . S
C129 C128 1.438 . S
C129 C130 1.428 . S
C130 H122 0.949 . S
C130 C129 1.428 . S
C130 C131 1.345 . S
C131 H123 0.950 . S
C131 C130 1.345 . S
C131 C132 1.424 . S
C132 H124 0.951 . S
C132 C131 1.424 . S
C132 C133 1.347 . S
C133 H125 0.951 . S
C133 C128 1.429 . S
C133 C132 1.347 . S
H134 C135 0.951 . S
C135 H134 0.951 . S
C135 C141 1.265 . S
H136 C141 0.950 . S
H137 C145 0.949 . S
H138 C146 0.950 . S
H139 C147 0.951 . S
H140 C148 0.951 . S
C141 C135 1.265 . S
C141 H136 0.950 . S
C141 C142 1.478 . S
C142 C141 1.478 . S
C142 C143 1.397 . S
C142 C159 1.394 1_554 S
C143 C142 1.397 . S
C143 C144 1.438 . S
C143 C148 1.429 . S
C144 C143 1.438 . S
C144 C145 1.428 . S
C144 C157 1.394 . S
C145 H137 0.949 . S
C145 C144 1.428 . S
C145 C146 1.345 . S
C146 H138 0.950 . S
C146 C145 1.345 . S
C146 C147 1.424 . S
C147 H139 0.951 . S
C147 C146 1.424 . S
C147 C148 1.347 . S
C148 H140 0.951 . S
C148 C143 1.429 . S
C148 C147 1.347 . S
H149 C150 0.951 . S
C150 H149 0.951 . S
C150 C156 1.265 . S
H151 C156 0.950 . S
H152 C160 0.949 . S
H153 C161 0.950 . S
H154 C162 0.951 . S
H155 C163 0.951 . S
C156 C150 1.265 . S
C156 H151 0.950 . S
C156 C157 1.478 . S
C157 C144 1.394 . S
C157 C156 1.478 . S
C157 C158 1.397 1_554 S
C158 C157 1.397 1_556 S
C158 C159 1.438 . S
C158 C163 1.429 . S
C159 C142 1.394 1_556 S
C159 C158 1.438 . S
C159 C160 1.428 . S
C160 H152 0.949 . S
C160 C159 1.428 . S
C160 C161 1.345 . S
C161 H153 0.950 . S
C161 C160 1.345 . S
C161 C162 1.424 . S
C162 H154 0.951 . S
C162 C161 1.424 . S
C162 C163 1.347 . S
C163 H155 0.951 . S
C163 C158 1.429 . S
C163 C162 1.347 . S
H164 C165 0.951 . S
C165 H164 0.951 . S
C165 C171 1.265 . S
H166 C171 0.950 . S
H167 C175 0.949 . S
H168 C176 0.950 . S
H169 C177 0.951 . S
H170 C178 0.951 . S
C171 C165 1.265 . S
C171 H166 0.950 . S
C171 C172 1.478 . S
C172 C171 1.478 . S
C172 C173 1.397 . S
C172 C189 1.394 . S
C173 C172 1.397 . S
C173 C174 1.438 . S
C173 C178 1.429 . S
C174 C173 1.438 . S
C174 C175 1.428 . S
C174 C187 1.394 . S
C175 H167 0.949 . S
C175 C174 1.428 . S
C175 C176 1.345 . S
C176 H168 0.950 . S
C176 C175 1.345 . S
C176 C177 1.424 . S
C177 H169 0.951 . S
C177 C176 1.424 . S
C177 C178 1.347 . S
C178 H170 0.951 . S
C178 C173 1.429 . S
C178 C177 1.347 . S
H179 C180 0.951 . S
C180 H179 0.951 . S
C180 C186 1.265 . S
H181 C186 0.950 . S
H182 C190 0.949 . S
H183 C191 0.950 . S
H184 C192 0.951 . S
H185 C193 0.951 . S
C186 C180 1.265 . S
C186 H181 0.950 . S
C186 C187 1.478 . S
C187 C174 1.394 . S
C187 C186 1.478 . S
C187 C188 1.397 . S
C188 C187 1.397 . S
C188 C189 1.438 . S
C188 C193 1.429 . S
C189 C172 1.394 . S
C189 C188 1.438 . S
C189 C190 1.428 . S
C190 H182 0.949 . S
C190 C189 1.428 . S
C190 C191 1.345 . S
C191 H183 0.950 . S
C191 C190 1.345 . S
C191 C192 1.424 . S
C192 H184 0.951 . S
C192 C191 1.424 . S
C192 C193 1.347 . S
C193 H185 0.951 . S
C193 C188 1.429 . S
C193 C192 1.347 . S
H194 C195 0.951 . S
C195 H194 0.951 . S
C195 C201 1.265 1_554 S
H196 C201 0.950 . S
H197 C205 0.949 . S
H198 C206 0.950 . S
H199 C207 0.951 . S
H200 C208 0.951 . S
C201 C195 1.265 1_556 S
C201 H196 0.950 . S
C201 C202 1.478 1_556 S
C202 C201 1.478 1_554 S
C202 C203 1.397 1_554 S
C202 C219 1.394 . S
C203 C202 1.397 1_556 S
C203 C204 1.438 . S
C203 C208 1.429 . S
C204 C203 1.438 . S
C204 C205 1.428 . S
C204 C217 1.394 1_556 S
C205 H197 0.949 . S
C205 C204 1.428 . S
C205 C206 1.345 . S
C206 H198 0.950 . S
C206 C205 1.345 . S
C206 C207 1.424 . S
C207 H199 0.951 . S
C207 C206 1.424 . S
C207 C208 1.347 . S
C208 H200 0.951 . S
C208 C203 1.429 . S
C208 C207 1.347 . S
H209 C210 0.951 1_556 S
C210 H209 0.951 1_554 S
C210 C216 1.265 . S
H211 C216 0.950 . S
H212 C220 0.949 . S
H213 C221 0.950 . S
H214 C222 0.951 . S
H215 C223 0.951 . S
C216 C210 1.265 . S
C216 H211 0.950 . S
C216 C217 1.478 . S
C217 C204 1.394 1_554 S
C217 C216 1.478 . S
C217 C218 1.397 . S
C218 C217 1.397 . S
C218 C219 1.438 . S
C218 C223 1.429 . S
C219 C202 1.394 . S
C219 C218 1.438 . S
C219 C220 1.428 . S
C220 H212 0.949 . S
C220 C219 1.428 . S
C220 C221 1.345 . S
C221 H213 0.950 . S
C221 C220 1.345 . S
C221 C222 1.424 . S
C222 H214 0.951 . S
C222 C221 1.424 . S
C222 C223 1.347 . S
C223 H215 0.951 . S
C223 C218 1.429 . S
C223 C222 1.347 . S
H224 C225 0.951 . S
C225 H224 0.951 . S
C225 C231 1.265 . S
H226 C231 0.950 . S
H227 C235 0.949 . S
H228 C236 0.948 . S
H229 C237 0.951 . S
H230 C238 0.951 . S
C231 C225 1.265 . S
C231 H226 0.950 . S
C231 C232 1.478 . S
C232 C231 1.478 . S
C232 C233 1.397 . S
C232 C249 1.394 . S
C233 C232 1.397 . S
C233 C234 1.438 . S
C233 C238 1.429 . S
C234 C233 1.438 . S
C234 C235 1.428 . S
C234 C247 1.394 . S
C235 H227 0.949 . S
C235 C234 1.428 . S
C235 C236 1.345 . S
C236 H228 0.948 . S
C236 C235 1.345 . S
C236 C237 1.424 . S
C237 H229 0.951 . S
C237 C236 1.424 . S
C237 C238 1.347 . S
C238 H230 0.951 . S
C238 C233 1.429 . S
C238 C237 1.347 . S
H239 C240 0.951 . S
C240 H239 0.951 . S
C240 C246 1.265 . S
H241 C246 0.950 . S
H242 C250 0.949 . S
H243 C251 0.950 . S
H244 C252 0.951 . S
H245 C253 0.951 . S
C246 C240 1.265 . S
C246 H241 0.950 . S
C246 C247 1.478 . S
C247 C234 1.394 . S
C247 C246 1.478 . S
C247 C248 1.397 . S
C248 C247 1.397 . S
C248 C249 1.438 . S
C248 C253 1.429 . S
C249 C232 1.394 . S
C249 C248 1.438 . S
C249 C250 1.428 . S
C250 H242 0.949 . S
C250 C249 1.428 . S
C250 C251 1.345 . S
C251 H243 0.950 . S
C251 C250 1.345 . S
C251 C252 1.424 . S
C252 H244 0.951 . S
C252 C251 1.424 . S
C252 C253 1.347 . S
C253 H245 0.951 . S
C253 C248 1.429 . S
C253 C252 1.347 . S
H254 C255 0.951 . S
C255 H254 0.951 . S
C255 C261 1.265 . S
H256 C261 0.950 . S
H257 C265 0.949 . S
H258 C266 0.950 . S
H259 C267 0.951 . S
H260 C268 0.951 . S
C261 C255 1.265 . S
C261 H256 0.950 . S
C261 C262 1.478 . S
C262 C261 1.478 . S
C262 C263 1.397 . S
C262 C279 1.394 . S
C263 C262 1.397 . S
C263 C264 1.438 . S
C263 C268 1.429 . S
C264 C263 1.438 . S
C264 C265 1.428 . S
C264 C277 1.394 . S
C265 H257 0.949 . S
C265 C264 1.428 . S
C265 C266 1.345 . S
C266 H258 0.950 . S
C266 C265 1.345 . S
C266 C267 1.424 . S
C267 H259 0.951 . S
C267 C266 1.424 . S
C267 C268 1.347 . S
C268 H260 0.951 . S
C268 C263 1.429 . S
C268 C267 1.347 . S
H269 C270 0.951 . S
C270 H269 0.951 . S
C270 C276 1.265 . S
H271 C276 0.950 . S
H272 C280 0.949 . S
H273 C281 0.950 . S
H274 C282 0.951 . S
H275 C283 0.951 . S
C276 C270 1.265 . S
C276 H271 0.950 . S
C276 C277 1.478 . S
C277 C264 1.394 . S
C277 C276 1.478 . S
C277 C278 1.397 . S
C278 C277 1.397 . S
C278 C279 1.438 . S
C278 C283 1.429 . S
C279 C262 1.394 . S
C279 C278 1.438 . S
C279 C280 1.428 . S
C280 H272 0.949 . S
C280 C279 1.428 . S
C280 C281 1.345 . S
C281 H273 0.950 . S
C281 C280 1.345 . S
C281 C282 1.424 . S
C282 H274 0.951 . S
C282 C281 1.424 . S
C282 C283 1.347 . S
C283 H275 0.951 . S
C283 C278 1.429 . S
C283 C282 1.347 . S
H284 C285 0.951 . S
C285 H284 0.951 . S
C285 C291 1.265 . S
H286 C291 0.950 . S
H287 C295 0.949 . S
H288 C296 0.950 . S
H289 C297 0.951 . S
H290 C298 0.951 . S
C291 C285 1.265 . S
C291 H286 0.950 . S
C291 C292 1.478 . S
C292 C291 1.478 . S
C292 C293 1.397 . S
C292 C309 1.394 . S
C293 C292 1.397 . S
C293 C294 1.438 . S
C293 C298 1.429 . S
C294 C293 1.438 . S
C294 C295 1.428 1_655 S
C294 C307 1.394 . S
C295 H287 0.949 . S
C295 C294 1.428 1_455 S
C295 C296 1.345 . S
C296 H288 0.950 . S
C296 C295 1.345 . S
C296 C297 1.424 . S
C297 H289 0.951 . S
C297 C296 1.424 . S
C297 C298 1.347 1_455 S
C298 H290 0.951 . S
C298 C293 1.429 . S
C298 C297 1.347 1_655 S
H299 C300 0.951 . S
C300 H299 0.951 . S
C300 C306 1.265 . S
H301 C306 0.950 . S
H302 C310 0.949 . S
H303 C311 0.950 . S
H304 C312 0.951 . S
H305 C313 0.951 . S
C306 C300 1.265 . S
C306 H301 0.950 . S
C306 C307 1.478 . S
C307 C294 1.394 . S
C307 C306 1.478 . S
C307 C308 1.397 . S
C308 C307 1.397 . S
C308 C309 1.438 . S
C308 C313 1.429 . S
C309 C292 1.394 . S
C309 C308 1.438 . S
C309 C310 1.428 . S
C310 H302 0.949 . S
C310 C309 1.428 . S
C310 C311 1.345 . S
C311 H303 0.950 . S
C311 C310 1.345 . S
C311 C312 1.424 . S
C312 H304 0.951 . S
C312 C311 1.424 . S
C312 C313 1.347 . S
C313 H305 0.951 . S
C313 C308 1.429 . S
C313 C312 1.347 . S
H314 C315 0.951 . S
C315 H314 0.951 . S
C315 C321 1.265 . S
H316 C321 0.950 . S
H317 C325 0.949 . S
H318 C326 0.950 . S
H319 C327 0.951 . S
H320 C328 0.951 . S
C321 C315 1.265 . S
C321 H316 0.950 . S
C321 C322 1.478 . S
C322 C321 1.478 . S
C322 C323 1.397 . S
C322 C339 1.394 . S
C323 C322 1.397 . S
C323 C324 1.438 . S
C323 C328 1.429 . S
C324 C323 1.438 . S
C324 C325 1.428 . S
C324 C337 1.394 . S
C325 H317 0.949 . S
C325 C324 1.428 . S
C325 C326 1.345 . S
C326 H318 0.950 . S
C326 C325 1.345 . S
C326 C327 1.424 . S
C327 H319 0.951 . S
C327 C326 1.424 . S
C327 C328 1.347 . S
C328 H320 0.951 . S
C328 C323 1.429 . S
C328 C327 1.347 . S
H329 C330 0.951 . S
C330 H329 0.951 . S
C330 C336 1.265 . S
H331 C336 0.950 . S
H332 C340 0.949 . S
H333 C341 0.950 . S
H334 C342 0.951 . S
H335 C343 0.951 . S
C336 C330 1.265 . S
C336 H331 0.950 . S
C336 C337 1.478 . S
C337 C324 1.394 . S
C337 C336 1.478 . S
C337 C338 1.397 . S
C338 C337 1.397 . S
C338 C339 1.438 . S
C338 C343 1.429 . S
C339 C322 1.394 . S
C339 C338 1.438 . S
C339 C340 1.428 . S
C340 H332 0.949 . S
C340 C339 1.428 . S
C340 C341 1.345 . S
C341 H333 0.950 . S
C341 C340 1.345 . S
C341 C342 1.424 . S
C342 H334 0.951 . S
C342 C341 1.424 . S
C342 C343 1.347 . S
C343 H335 0.951 . S
C343 C338 1.429 . S
C343 C342 1.347 . S
H344 C345 0.951 . S
C345 H344 0.951 . S
C345 C351 1.265 . S
H346 C351 0.950 . S
H347 C355 0.949 . S
H348 C356 0.950 . S
H349 C357 0.951 . S
H350 C358 0.951 . S
C351 C345 1.265 . S
C351 H346 0.950 . S
C351 C352 1.478 . S
C352 C351 1.478 . S
C352 C353 1.397 . S
C352 C369 1.394 . S
C353 C352 1.397 . S
C353 C354 1.438 . S
C353 C358 1.429 . S
C354 C353 1.438 . S
C354 C355 1.428 . S
C354 C367 1.394 . S
C355 H347 0.949 . S
C355 C354 1.428 . S
C355 C356 1.345 . S
C356 H348 0.950 . S
C356 C355 1.345 . S
C356 C357 1.424 . S
C357 H349 0.951 . S
C357 C356 1.424 . S
C357 C358 1.347 . S
C358 H350 0.951 . S
C358 C353 1.429 . S
C358 C357 1.347 . S
H359 C360 0.951 . S
C360 H359 0.951 . S
C360 C366 1.265 . S
H361 C366 0.950 . S
H362 C370 0.949 . S
H363 C371 0.950 . S
H364 C372 0.951 . S
H365 C373 0.951 . S
C366 C360 1.265 . S
C366 H361 0.950 . S
C366 C367 1.478 . S
C367 C354 1.394 . S
C367 C366 1.478 . S
C367 C368 1.397 . S
C368 C367 1.397 . S
C368 C369 1.438 . S
C368 C373 1.429 . S
C369 C352 1.394 . S
C369 C368 1.438 . S
C369 C370 1.428 . S
C370 H362 0.949 . S
C370 C369 1.428 . S
C370 C371 1.345 . S
C371 H363 0.950 . S
C371 C370 1.345 . S
C371 C372 1.424 . S
C372 H364 0.951 . S
C372 C371 1.424 . S
C372 C373 1.347 . S
C373 H365 0.951 . S
C373 C368 1.429 . S
C373 C372 1.347 . S
H374 C375 0.951 . S
C375 H374 0.951 . S
C375 C381 1.265 . S
H376 C381 0.950 . S
H377 C385 0.949 . S
H378 C386 0.950 . S
H379 C387 0.951 . S
H380 C388 0.951 . S
C381 C375 1.265 . S
C381 H376 0.950 . S
C381 C382 1.478 . S
C382 C381 1.478 . S
C382 C383 1.397 . S
C382 C399 1.394 . S
C383 C382 1.397 . S
C383 C384 1.438 . S
C383 C388 1.429 . S
C384 C383 1.438 . S
C384 C385 1.428 . S
C384 C397 1.394 . S
C385 H377 0.949 . S
C385 C384 1.428 . S
C385 C386 1.345 . S
C386 H378 0.950 . S
C386 C385 1.345 . S
C386 C387 1.424 . S
C387 H379 0.951 . S
C387 C386 1.424 . S
C387 C388 1.347 . S
C388 H380 0.951 . S
C388 C383 1.429 . S
C388 C387 1.347 . S
H389 C390 0.951 . S
C390 H389 0.951 . S
C390 C396 1.265 . S
H391 C396 0.950 . S
H392 C400 0.949 . S
H393 C401 0.950 . S
H394 C402 0.951 . S
H395 C403 0.951 . S
C396 C390 1.265 . S
C396 H391 0.950 . S
C396 C397 1.478 . S
C397 C384 1.394 . S
C397 C396 1.478 . S
C397 C398 1.397 . S
C398 C397 1.397 . S
C398 C399 1.438 . S
C398 C403 1.429 1_655 S
C399 C382 1.394 . S
C399 C398 1.438 . S
C399 C400 1.428 . S
C400 H392 0.949 . S
C400 C399 1.428 . S
C400 C401 1.345 1_655 S
C401 H393 0.950 . S
C401 C400 1.345 1_455 S
C401 C402 1.424 . S
C402 H394 0.951 . S
C402 C401 1.424 . S
C402 C403 1.347 . S
C403 H395 0.951 . S
C403 C398 1.429 1_455 S
C403 C402 1.347 . S
H404 C405 0.951 . S
C405 H404 0.951 . S
C405 C411 1.265 . S
H406 C411 0.950 . S
H407 C415 0.949 . S
H408 C416 0.950 . S
H409 C417 0.951 . S
H410 C418 0.951 . S
C411 C405 1.265 . S
C411 H406 0.950 . S
C411 C412 1.478 . S
C412 C411 1.478 . S
C412 C413 1.397 . S
C412 C429 1.394 . S
C413 C412 1.397 . S
C413 C414 1.438 . S
C413 C418 1.429 . S
C414 C413 1.438 . S
C414 C415 1.428 . S
C414 C427 1.394 . S
C415 H407 0.949 . S
C415 C414 1.428 . S
C415 C416 1.345 . S
C416 H408 0.950 . S
C416 C415 1.345 . S
C416 C417 1.424 . S
C417 H409 0.951 . S
C417 C416 1.424 . S
C417 C418 1.347 . S
C418 H410 0.951 . S
C418 C413 1.429 . S
C418 C417 1.347 . S
H419 C420 0.951 . S
C420 H419 0.951 . S
C420 C426 1.265 . S
H421 C426 0.950 . S
H422 C430 0.949 . S
H423 C431 0.950 . S
H424 C432 0.951 . S
H425 C433 0.951 . S
C426 C420 1.265 . S
C426 H421 0.950 . S
C426 C427 1.478 . S
C427 C414 1.394 . S
C427 C426 1.478 . S
C427 C428 1.397 . S
C428 C427 1.397 . S
C428 C429 1.438 . S
C428 C433 1.429 . S
C429 C412 1.394 . S
C429 C428 1.438 . S
C429 C430 1.428 . S
C430 H422 0.949 . S
C430 C429 1.428 . S
C430 C431 1.345 . S
C431 H423 0.950 . S
C431 C430 1.345 . S
C431 C432 1.424 . S
C432 H424 0.951 . S
C432 C431 1.424 . S
C432 C433 1.347 . S
C433 H425 0.951 . S
C433 C428 1.429 . S
C433 C432 1.347 . S
H434 C435 0.951 . S
C435 H434 0.951 . S
C435 C441 1.265 . S
H436 C441 0.950 . S
H437 C445 0.949 . S
H438 C446 0.951 . S
H439 C447 0.951 . S
H440 C448 0.951 . S
C441 C435 1.265 . S
C441 H436 0.950 . S
C441 C442 1.478 . S
C442 C441 1.478 . S
C442 C443 1.397 . S
C442 C459 1.394 . S
C443 C442 1.397 . S
C443 C444 1.438 . S
C443 C448 1.429 . S
C444 C443 1.438 . S
C444 C445 1.428 . S
C444 C457 1.394 . S
C445 H437 0.949 . S
C445 C444 1.428 . S
C445 C446 1.345 . S
C446 H438 0.951 . S
C446 C445 1.345 . S
C446 C447 1.424 . S
C447 H439 0.951 . S
C447 C446 1.424 . S
C447 C448 1.347 . S
C448 H440 0.951 . S
C448 C443 1.429 . S
C448 C447 1.347 . S
H449 C450 0.951 . S
C450 H449 0.951 . S
C450 C456 1.265 . S
H451 C456 0.950 . S
H452 C460 0.949 . S
H453 C461 0.950 . S
H454 C462 0.951 . S
H455 C463 0.951 . S
C456 C450 1.265 . S
C456 H451 0.950 . S
C456 C457 1.478 . S
C457 C444 1.394 . S
C457 C456 1.478 . S
C457 C458 1.397 . S
C458 C457 1.397 . S
C458 C459 1.438 . S
C458 C463 1.429 . S
C459 C442 1.394 . S
C459 C458 1.438 . S
C459 C460 1.428 . S
C460 H452 0.949 . S
C460 C459 1.428 . S
C460 C461 1.345 . S
C461 H453 0.950 . S
C461 C460 1.345 . S
C461 C462 1.424 . S
C462 H454 0.951 . S
C462 C461 1.424 . S
C462 C463 1.347 . S
C463 H455 0.951 . S
C463 C458 1.429 . S
C463 C462 1.347 . S
C120 C40 1.531 . S
C105 C34 1.497 . S
C135 C7 1.510 . S
C150 C83 1.506 . S
C165 C16 1.539 . S
C180 C49 1.528 . S
C195 C25 1.467 . S
C210 C74 1.489 . S
C240 C36 1.519 . S
C225 C5 1.513 . S
C270 C78 1.560 . S
C255 C13 1.557 . S
C285 C23 1.518 . S
C300 C44 1.518 . S
C315 C32 1.528 . S
C330 C70 1.556 . S
C360 C99 1.560 . S
C345 C14 1.551 . S
C390 C65 1.513 . S
C375 C22 1.521 . S
C420 C87 1.553 . S
C405 C31 1.526 . S
C435 C4 1.492 . S
C450 C53 1.507 . S
