# Generated by pormake.
# Topology pth, (4,4)-cn, num edge types: 1
# Building blocks:
#     Node 0, Type 0, BuildingBlock: QUQFOY_clean_sbu_3, # of connection points: 4
#     Node 1, Type 0, BuildingBlock: QUQFOY_clean_sbu_3, # of connection points: 4
#     Node 2, Type 0, BuildingBlock: QUQFOY_clean_sbu_3, # of connection points: 4
#     Node 3, Type 1, BuildingBlock: NAHDIM_clean_linker_0, # of connection points: 4
#     Node 4, Type 1, BuildingBlock: NAHDIM_clean_linker_0, # of connection points: 4
#     Node 5, Type 1, BuildingBlock: NAHDIM_clean_linker_0, # of connection points: 4
#     Edge 6, Type (0, 1), BuildingBlock: XIVTED_clean_linker_0, # of connection points: 2
#     Edge 7, Type (0, 1), BuildingBlock: XIVTED_clean_linker_0, # of connection points: 2
#     Edge 8, Type (0, 1), BuildingBlock: XIVTED_clean_linker_0, # of connection points: 2
#     Edge 9, Type (0, 1), BuildingBlock: XIVTED_clean_linker_0, # of connection points: 2
#     Edge 10, Type (0, 1), BuildingBlock: XIVTED_clean_linker_0, # of connection points: 2
#     Edge 11, Type (0, 1), BuildingBlock: XIVTED_clean_linker_0, # of connection points: 2
#     Edge 12, Type (0, 1), BuildingBlock: XIVTED_clean_linker_0, # of connection points: 2
#     Edge 13, Type (0, 1), BuildingBlock: XIVTED_clean_linker_0, # of connection points: 2
#     Edge 14, Type (0, 1), BuildingBlock: XIVTED_clean_linker_0, # of connection points: 2
#     Edge 15, Type (0, 1), BuildingBlock: XIVTED_clean_linker_0, # of connection points: 2
#     Edge 16, Type (0, 1), BuildingBlock: XIVTED_clean_linker_0, # of connection points: 2
#     Edge 17, Type (0, 1), BuildingBlock: XIVTED_clean_linker_0, # of connection points: 2
# Relax obj value: 0.008
# Max RMSD: 0.056
# Mean RMSD: 0.049
data_MOF--net-pth--node1-QUQFOY_clean_sbu_3--node2-NAHDIM_clean_linker_0--edge1-XIVTED_clean_linker_0
_symmetry_space_group_name_H-M    P1
_symmetry_Int_Tables_number       1
_symmetry_cell_setting            triclinic
loop_
_symmetry_equiv_pos_as_xyz
'x, y, z'
_cell_length_a     32.217165
_cell_length_b     31.927626
_cell_length_c     83.96473
_cell_angle_alpha  89.796442
_cell_angle_beta   91.265074
_cell_angle_gamma 120.74393
loop_
_atom_site_label
_atom_site_type_symbol
_atom_site_fract_x
_atom_site_fract_y
_atom_site_fract_z
_atom_type_partial_charge
C0 C -0.00227 0.13066 0.07505 0.0
O1 O 0.97234 0.12828 0.06293 0.0
Cd2 Cd 0.9626 0.07677 0.04037 0.0
O3 O 0.01855 0.10593 0.07555 0.0
Cd4 Cd 0.02864 0.04758 0.05958 0.0
C5 C 0.08226 0.12797 0.03071 0.0
O6 O 0.94658 -0.00255 0.04779 0.0
O7 O 0.00487 0.99396 0.03684 0.0
O8 O 0.01905 0.00973 0.08522 0.0
C9 C 0.96002 0.97823 0.03741 0.0
O10 O 0.03926 0.11654 0.02684 0.0
C11 C 0.05112 -0.00159 0.08358 0.0
O12 O 0.09175 0.11309 0.04363 0.0
O13 O 0.0743 0.0108 0.07069 0.0
C14 C 0.14032 0.07321 0.40357 0.0
O15 O 0.1616 0.08824 0.39042 0.0
Cd16 Cd 0.12206 0.09916 0.36749 0.0
O17 O 0.09651 0.06197 0.40486 0.0
Cd18 Cd 0.03044 0.05837 0.3884 0.0
C19 C 0.03287 0.98137 0.361 0.0
O20 O 0.07999 0.13809 0.37678 0.0
O21 O 0.00746 0.0954 0.3669 0.0
O22 O 0.00939 0.08628 0.41205 0.0
C23 C 0.04668 0.1361 0.36792 0.0
O24 O 0.07024 0.01867 0.35571 0.0
C25 C 0.96538 0.05268 0.41213 0.0
O26 O 0.01277 0.98424 0.37352 0.0
O27 O 0.95122 0.0202 0.40128 0.0
C28 C 0.9659 0.09965 0.70337 0.0
O29 O 0.96768 0.1272 0.71456 0.0
Cd30 Cd 0.00623 0.13212 0.73977 0.0
O31 O 0.98826 0.0764 0.7047 0.0
Cd32 Cd 0.04467 0.06812 0.72328 0.0
C33 C 0.95339 0.00977 0.74907 0.0
O34 O 0.08589 0.1502 0.73396 0.0
O35 O 0.09964 0.09981 0.74677 0.0
O36 O 0.09732 0.08253 0.70115 0.0
C37 C 0.10845 0.14311 0.74517 0.0
O38 O 0.95784 0.05125 0.75156 0.0
C39 C 0.09793 0.04327 0.70252 0.0
O40 O 0.97946 0.00475 0.73894 0.0
O41 O 0.07297 0.01459 0.71355 0.0
C42 C 0.90098 0.62515 0.31166 0.0
C43 C 0.95059 0.66692 0.30681 0.0
C44 C 0.97014 0.64898 0.28109 0.0
C45 C 0.01985 0.66697 0.28119 0.0
C46 C 0.03909 0.64524 0.27165 0.0
C47 C 0.0076 0.60406 0.26209 0.0
C48 C 0.95723 0.586 0.262 0.0
C49 C 0.93926 0.60946 0.27128 0.0
C50 C 0.09297 0.66589 0.27196 0.0
C51 C 0.92224 0.54137 0.25238 0.0
C52 C 0.09451 0.35369 0.31449 0.0
C53 C 0.10867 0.39731 0.30473 0.0
C54 C 0.07755 0.42032 0.28175 0.0
C55 C 0.03756 0.40333 0.27143 0.0
C56 C 0.02949 0.43574 0.26248 0.0
C57 C 0.06355 0.48636 0.26346 0.0
C58 C 0.1048 0.50375 0.27362 0.0
C59 C 0.11111 0.47057 0.28282 0.0
C60 C 0.98439 0.41578 0.25209 0.0
C61 C 0.14222 0.55734 0.27479 0.0
C62 C 0.12671 0.44678 0.16505 0.0
C63 C 0.07821 0.42572 0.16929 0.0
C64 C 0.06113 0.4544 0.17578 0.0
C65 C 0.09347 0.50494 0.17828 0.0
C66 C 0.14179 0.52651 0.17333 0.0
C67 C 0.15759 0.4971 0.16656 0.0
C68 C 0.00884 0.4305 0.18031 0.0
C69 C 0.17711 0.58027 0.17568 0.0
C70 C 0.92687 0.72739 0.16325 0.0
C71 C 0.97747 0.73663 0.16013 0.0
C72 C -0.00687 0.6698 0.16052 0.0
C73 C 0.96522 0.61912 0.16126 0.0
C74 C 0.98275 0.59231 0.16916 0.0
C75 C 0.02995 0.61702 0.17602 0.0
C76 C 0.05964 0.66807 0.17425 0.0
C77 C 0.04068 0.69408 0.16664 0.0
C78 C 0.95027 0.53784 0.17064 0.0
C79 C 0.11084 0.69522 0.1808 0.0
C80 C 0.02706 0.57818 0.25303 0.0
C81 C 0.03786 0.54705 0.2615 0.0
C82 C 0.05584 0.52099 0.25387 0.0
C83 C 0.06391 0.52631 0.23733 0.0
C84 C 0.08362 0.50196 0.22942 0.0
C85 C 0.08896 0.50525 0.213 0.0
C86 C 0.07471 0.53297 0.20386 0.0
C87 C 0.07761 0.53444 0.18706 0.0
C88 C 0.0638 0.5629 0.17834 0.0
C89 C 0.04675 0.58986 0.18597 0.0
C90 C 0.04328 0.58858 0.20276 0.0
C91 C 0.02603 0.61505 0.21084 0.0
C92 C 0.02185 0.61274 0.22733 0.0
C93 C 0.03347 0.58282 0.23635 0.0
C94 C 0.05165 0.55647 0.22848 0.0
C95 C 0.05687 0.55962 0.2117 0.0
C96 C 0.17574 0.36925 0.1672 0.0
C97 C 0.13056 0.3724 0.16384 0.0
O98 O 0.95153 0.66975 0.29032 0.0
O99 O 0.97309 0.69433 0.15394 0.0
O100 O 0.14496 0.41977 0.15949 0.0
O101 O 0.08219 0.38724 0.29059 0.0
H102 H 0.97856 0.65894 0.31139 0.0
H103 H 0.89393 0.5905 0.30612 0.0
H104 H 0.87211 0.63232 0.30765 0.0
H105 H 0.89952 0.62045 0.32479 0.0
H106 H 0.04345 0.69807 0.28871 0.0
H107 H 0.90085 0.59617 0.27129 0.0
H108 H 0.10124 0.64054 0.27842 0.0
H109 H 0.11292 0.70204 0.27801 0.0
H110 H 0.1063 0.66956 0.25965 0.0
H111 H 0.88405 0.52851 0.25519 0.0
H112 H 0.92936 0.51128 0.25463 0.0
H113 H 0.9272 0.54986 0.2395 0.0
H114 H 0.14828 0.42256 0.30354 0.0
H115 H 0.06145 0.3657 0.3359 0.0
H116 H 0.12782 0.35053 0.31554 0.0
H117 H 0.07437 0.32104 0.30627 0.0
H118 H 0.01191 0.36448 0.27073 0.0
H119 H 0.1425 0.48406 0.29068 0.0
H120 H -0.0058 0.41847 0.23939 0.0
H121 H 0.9666 0.4374 0.25376 0.0
H122 H 0.95804 0.37697 0.25468 0.0
H123 H 0.17525 0.56422 0.2815 0.0
H124 H 0.12666 0.57669 0.28095 0.0
H125 H 0.15258 0.57309 0.2627 0.0
H126 H 0.11016 0.36284 0.17512 0.0
H127 H 0.05373 0.38695 0.16757 0.0
H128 H 0.19475 0.51302 0.16298 0.0
H129 H 0.00642 0.42882 0.19349 0.0
H130 H 0.98692 0.39285 0.17544 0.0
H131 H -0.00701 0.45232 0.17596 0.0
H132 H 0.21377 0.59121 0.17152 0.0
H133 H 0.17973 0.58999 0.1885 0.0
H134 H 0.16391 0.60154 0.16907 0.0
H135 H -0.00247 0.74646 0.1718 0.0
H136 H 0.929 0.76016 0.16868 0.0
H137 H 0.90817 0.69661 0.17165 0.0
H138 H 0.90512 0.71799 0.15197 0.0
H139 H 0.92883 0.60083 0.15622 0.0
H140 H 0.06281 0.73328 0.16551 0.0
H141 H 0.94628 0.52746 0.1834 0.0
H142 H 0.96687 0.51915 0.16468 0.0
H143 H 0.91381 0.52448 0.16522 0.0
H144 H 0.13123 0.73337 0.17651 0.0
H145 H 0.13017 0.67625 0.17735 0.0
H146 H 0.11039 0.69594 0.19401 0.0
H147 H 0.03159 0.54254 0.2742 0.0
H148 H 0.09478 0.4797 0.23581 0.0
H149 H 0.10395 0.48533 0.20757 0.0
H150 H 0.06563 0.56347 0.16545 0.0
H151 H 0.01544 0.63784 0.20451 0.0
H152 H 0.00859 0.63405 0.23289 0.0
H153 H 0.19764 0.37793 0.15632 0.0
H154 H 0.16566 0.33213 0.17126 0.0
H155 H 0.19821 0.39569 0.17675 0.0
C156 C 0.33869 0.94455 0.65456 0.0
C157 C 0.33466 0.985 0.6461 0.0
C158 C 0.36211 -0.00459 0.61904 0.0
C159 C 0.39259 0.0461 0.61823 0.0
C160 C 0.4319 0.06669 0.60798 0.0
C161 C 0.44087 0.03579 0.59847 0.0
C162 C 0.40864 0.98467 0.59874 0.0
C163 C 0.36907 0.96523 0.60887 0.0
C164 C 0.46476 0.1213 0.60771 0.0
C165 C 0.41715 0.95038 0.5889 0.0
C166 C 0.76446 0.04739 0.64176 0.0
C167 C 0.72416 0.037 0.63062 0.0
C168 C 0.67928 0.07421 0.62019 0.0
C169 C 0.65119 0.03649 0.6092 0.0
C170 C 0.61623 0.03803 0.59941 0.0
C171 C 0.61023 0.07893 0.60021 0.0
C172 C 0.63935 0.11762 0.61092 0.0
C173 C 0.67329 0.11453 0.62087 0.0
C174 C 0.58509 -0.00471 0.58844 0.0
C175 C 0.63421 0.1619 0.61199 0.0
C176 C 0.69146 0.07888 0.50086 0.0
C177 C 0.65839 0.04004 0.51031 0.0
C178 C 0.61957 0.04071 0.51723 0.0
C179 C 0.61451 0.08199 0.51528 0.0
C180 C 0.64754 0.12118 0.5058 0.0
C181 C 0.68528 0.11881 0.49856 0.0
C182 C 0.58436 -0.00284 0.52681 0.0
C183 C 0.64343 0.1658 0.50353 0.0
C184 C 0.22257 0.93875 0.50401 0.0
C185 C 0.26897 0.98434 0.49887 0.0
C186 C 0.34982 -0.0047 0.50019 0.0
C187 C 0.37202 0.96808 0.50282 0.0
C188 C 0.41901 0.98977 0.50931 0.0
C189 C 0.44479 0.04038 0.51279 0.0
C190 C 0.42396 0.06892 0.50883 0.0
C191 C 0.37638 0.04597 0.50268 0.0
C192 C 0.44019 0.95813 0.51309 0.0
C193 C 0.45118 0.1232 0.51177 0.0
C194 C 0.4865 0.05629 0.5896 0.0
C195 C 0.52783 0.06514 0.59822 0.0
C196 C 0.57112 0.07921 0.59063 0.0
C197 C 0.57391 0.08607 0.57397 0.0
C198 C 0.61709 0.10092 0.56598 0.0
C199 C 0.61808 0.10223 0.54942 0.0
C200 C 0.57591 0.08873 0.54027 0.0
C201 C 0.57504 0.08381 0.52351 0.0
C202 C 0.5328 0.07145 0.51473 0.0
C203 C 0.49056 0.06168 0.52233 0.0
C204 C 0.4904 0.06479 0.53915 0.0
C205 C 0.44804 0.05318 0.54725 0.0
C206 C 0.44714 0.05221 0.56381 0.0
C207 C 0.48828 0.06196 0.57289 0.0
C208 C 0.532 0.07623 0.56502 0.0
C209 C 0.53307 0.07772 0.54813 0.0
C210 C 0.77551 0.0604 0.51217 0.0
C211 C 0.74589 0.04727 0.49653 0.0
O212 O 0.32679 0.97482 0.62992 0.0
O213 O 0.30271 0.97125 0.49541 0.0
O214 O 0.72954 0.07943 0.49385 0.0
O215 O 0.71185 0.07274 0.6304 0.0
H216 H 0.3699 0.01913 0.64847 0.0
H217 H 0.37184 0.9453 0.65073 0.0
H218 H 0.30728 0.90803 0.65154 0.0
H219 H 0.34123 0.95017 0.66768 0.0
H220 H 0.38603 0.06944 0.6258 0.0
H221 H 0.34482 0.92615 0.60949 0.0
H222 H 0.49988 0.13129 0.61358 0.0
H223 H 0.44916 0.14047 0.614 0.0
H224 H 0.47203 0.13426 0.59522 0.0
H225 H 0.39075 0.91151 0.5914 0.0
H226 H 0.45416 0.95725 0.59129 0.0
H227 H 0.41421 0.95689 0.57604 0.0
H228 H 0.6928 -0.00104 0.63098 0.0
H229 H 0.74847 0.01699 0.65072 0.0
H230 H 0.76826 0.07619 0.65045 0.0
H231 H 0.82429 0.05993 0.62569 0.0
H232 H 0.65568 0.00523 0.60837 0.0
H233 H 0.69526 0.1436 0.62931 0.0
H234 H 0.59527 0.00618 0.57591 0.0
H235 H 0.5464 0.98375 0.5895 0.0
H236 H 0.58929 0.96348 0.591 0.0
H237 H 0.66354 0.19141 0.61938 0.0
H238 H 0.59903 0.15149 0.61733 0.0
H239 H 0.63439 0.17615 0.59989 0.0
H240 H 0.71481 0.00944 0.49734 0.0
H241 H 0.66214 0.00876 0.51243 0.0
H242 H 0.71077 0.14866 0.49128 0.0
H243 H 0.59291 0.0055 0.5397 0.0
H244 H 0.5864 0.96427 0.52403 0.0
H245 H 0.54669 0.98844 0.52456 0.0
H246 H 0.67395 0.19464 0.49675 0.0
H247 H 0.64234 0.18091 0.51531 0.0
H248 H 0.60912 0.15556 0.49702 0.0
H249 H 0.28182 0.01045 0.50911 0.0
H250 H 0.19507 0.9481 0.50736 0.0
H251 H 0.23034 0.92249 0.51455 0.0
H252 H 0.20752 0.91119 0.49423 0.0
H253 H 0.35145 0.92917 0.50049 0.0
H254 H 0.35988 0.06751 0.5 0.0
H255 H 0.45096 0.96179 0.52589 0.0
H256 H 0.47314 0.97034 0.50604 0.0
H257 H 0.41446 0.91903 0.51034 0.0
H258 H 0.43347 0.14118 0.5057 0.0
H259 H 0.48879 0.13978 0.50759 0.0
H260 H 0.45306 0.1305 0.52476 0.0
H261 H 0.52559 0.05853 0.61095 0.0
H262 H 0.65026 0.11044 0.57244 0.0
H263 H 0.65201 0.11274 0.54385 0.0
H264 H 0.53181 0.06608 0.50194 0.0
H265 H 0.41471 0.0437 0.54093 0.0
H266 H 0.41339 0.04235 0.56939 0.0
H267 H 0.78962 0.03546 0.51418 0.0
H268 H 0.75254 0.05682 0.52236 0.0
H269 H 0.80636 0.09856 0.51193 0.0
C270 C 0.66634 0.66587 0.78368 0.0
C271 C 0.68005 0.70669 0.7959 0.0
C272 C 0.65416 0.67197 0.82207 0.0
C273 C 0.62762 0.69335 0.82678 0.0
C274 C 0.59028 0.67003 0.83769 0.0
C275 C 0.57936 0.62441 0.84399 0.0
C276 C 0.60761 0.60392 0.8398 0.0
C277 C 0.64521 0.62842 0.82903 0.0
C278 C 0.56175 0.69356 0.8422 0.0
C279 C 0.59709 0.55542 0.84632 0.0
C280 C 0.17841 0.37328 0.84046 0.0
C281 C 0.22716 0.38138 0.83528 0.0
C282 C 0.30551 0.45718 0.83557 0.0
C283 C 0.33418 0.436 0.83776 0.0
C284 C 0.38252 0.46429 0.84299 0.0
C285 C 0.40234 0.51458 0.84611 0.0
C286 C 0.37459 0.53657 0.84276 0.0
C287 C 0.32649 0.50749 0.83741 0.0
C288 C 0.4117 0.44007 0.84596 0.0
C289 C 0.39493 0.59026 0.84568 0.0
C290 C 0.32974 0.44887 0.9472 0.0
C291 C 0.35741 0.42967 0.94162 0.0
C292 C 0.40109 0.45958 0.93396 0.0
C293 C 0.41723 0.50959 0.93186 0.0
C294 C 0.39052 0.52942 0.93816 0.0
C295 C 0.34724 0.49874 0.94592 0.0
C296 C 0.42944 0.43759 0.92777 0.0
C297 C 0.40689 0.58261 0.93621 0.0
C298 C 0.80283 0.73063 0.94423 0.0
C299 C 0.76507 0.74164 0.95044 0.0
C300 C 0.6823 0.67452 0.94748 0.0
C301 C 0.66091 0.6245 0.94485 0.0
C302 C 0.617 0.59843 0.9363 0.0
C303 C 0.59345 0.62303 0.93072 0.0
C304 C 0.61395 0.67335 0.93401 0.0
C305 C 0.65849 0.69872 0.94228 0.0
C306 C 0.59599 0.54471 0.93315 0.0
C307 C 0.58876 0.70021 0.92882 0.0
C308 C 0.53639 0.59672 0.85405 0.0
C309 C 0.49136 0.56944 0.84628 0.0
C310 C 0.44924 0.54251 0.85488 0.0
C311 C 0.45173 0.54233 0.87171 0.0
C312 C 0.4099 0.51545 0.8807 0.0
C313 C 0.41262 0.51489 0.89721 0.0
C314 C 0.45725 0.54136 0.90542 0.0
C315 C 0.46036 0.54034 0.92222 0.0
C316 C 0.50504 0.5678 0.93007 0.0
C317 C 0.54721 0.59591 0.92156 0.0
C318 C 0.54502 0.59675 0.90471 0.0
C319 C 0.58683 0.62393 0.89573 0.0
C320 C 0.58414 0.62434 0.87914 0.0
C321 C 0.53961 0.59718 0.8709 0.0
C322 C 0.49706 0.56967 0.87973 0.0
C323 C 0.49978 0.56938 0.89663 0.0
C324 C 0.20544 0.37234 0.94409 0.0
C325 C 0.25192 0.37339 0.94906 0.0
O326 O 0.68804 0.69233 0.8107 0.0
O327 O 0.72552 0.69838 0.95533 0.0
O328 O 0.28613 0.4204 0.95386 0.0
O329 O 0.25747 0.43036 0.83204 0.0
H330 H 0.64885 0.71258 0.79615 0.0
H331 H 0.63165 0.63316 0.78697 0.0
H332 H 0.69435 0.65547 0.78331 0.0
H333 H 0.66164 0.67757 0.77163 0.0
H334 H 0.63591 0.72811 0.82184 0.0
H335 H 0.6665 0.61268 0.82547 0.0
H336 H 0.52456 0.67194 0.83706 0.0
H337 H 0.57831 0.73152 0.8378 0.0
H338 H 0.55886 0.69388 0.85535 0.0
H339 H 0.62162 0.54385 0.84156 0.0
H340 H 0.55919 0.52703 0.84329 0.0
H341 H 0.60098 0.55767 0.8595 0.0
H342 H 0.24194 0.37029 0.84551 0.0
H343 H 0.15352 0.33425 0.84324 0.0
H344 H 0.16161 0.38443 0.83093 0.0
H345 H 0.18349 0.39525 0.85134 0.0
H346 H 0.31877 0.39733 0.83569 0.0
H347 H 0.30431 0.5236 0.83535 0.0
H348 H 0.41782 0.43893 0.85898 0.0
H349 H 0.44764 0.46153 0.84046 0.0
H350 H 0.39326 0.40224 0.84115 0.0
H351 H 0.3698 0.60238 0.84152 0.0
H352 H 0.42967 0.61174 0.83948 0.0
H353 H 0.40246 0.59835 0.85862 0.0
H354 H 0.26391 0.36209 0.9384 0.0
H355 H 0.3449 0.39137 0.94323 0.0
H356 H 0.3259 0.51324 0.95053 0.0
H357 H 0.42926 0.43857 0.91455 0.0
H358 H 0.41429 0.39921 0.93157 0.0
H359 H 0.46765 0.45933 0.93202 0.0
H360 H 0.38222 0.59247 0.94193 0.0
H361 H 0.40884 0.59139 0.92334 0.0
H362 H 0.44373 0.60545 0.94152 0.0
H363 H 0.75491 0.75803 0.94047 0.0
H364 H 0.83449 0.76424 0.93966 0.0
H365 H 0.78688 0.7037 0.93429 0.0
H366 H 0.81522 0.71525 0.95385 0.0
H367 H 0.67942 0.60619 0.94918 0.0
H368 H 0.67444 0.73723 0.94488 0.0
H369 H 0.58729 0.53657 0.92024 0.0
H370 H 0.5618 0.5236 0.93966 0.0
H371 H 0.62098 0.53209 0.93698 0.0
H372 H 0.60716 0.73808 0.93361 0.0
H373 H 0.55082 0.68045 0.93284 0.0
H374 H 0.58773 0.70166 0.91562 0.0
H375 H 0.48906 0.56923 0.83336 0.0
H376 H 0.37446 0.4943 0.87509 0.0
H377 H 0.37919 0.49339 0.90345 0.0
H378 H 0.50709 0.56685 0.94298 0.0
H379 H 0.62214 0.6452 0.90142 0.0
H380 H 0.61744 0.64603 0.87285 0.0
H381 H 0.19116 0.38308 0.95424 0.0
H382 H 0.17751 0.33526 0.9399 0.0
H383 H 0.2128 0.3982 0.93418 0.0
H384 H 0.00104 0.21814 0.07417 0.0
H385 H 0.06769 0.27482 0.16687 0.0
H386 H 0.0133 0.11901 0.10628 0.0
H387 H 0.12509 0.38738 0.13132 0.0
H388 H 0.02578 0.21383 0.14567 0.0
H389 H 0.02499 0.27718 0.09623 0.0
C390 C 0.00788 0.20849 0.08592 0.0
C391 C 0.00564 0.16392 0.08843 0.0
C392 C 0.04696 0.252 0.14258 0.0
C393 C 0.0323 0.23059 0.11355 0.0
C394 C 0.07066 0.28672 0.15464 0.0
C395 C 0.09966 0.3362 0.15088 0.0
C396 C 0.05197 0.26689 0.12666 0.0
C397 C 0.10281 0.34972 0.1348 0.0
C398 C 0.02176 0.24219 0.09842 0.0
C399 C 0.01511 0.15322 0.10384 0.0
N400 N 0.07926 0.3152 0.12326 0.0
N401 N 0.02805 0.18634 0.11582 0.0
H402 H 0.98091 0.12701 0.43198 0.0
H403 H 0.73883 0.96993 0.4799 0.0
H404 H 0.87473 0.97826 0.41949 0.0
H405 H 0.82253 0.12693 0.48241 0.0
H406 H 0.79079 0.97133 0.45891 0.0
H407 H 0.92621 0.12676 0.45173 0.0
C408 C 0.9461 0.09421 0.43342 0.0
C409 C 0.93238 0.05248 0.42411 0.0
C410 C 0.79755 0.00552 0.46392 0.0
C411 C 0.8697 0.05198 0.44674 0.0
C412 C 0.76789 0.00476 0.47589 0.0
C413 C 0.7761 0.04844 0.48279 0.0
C414 C 0.83628 0.05024 0.45895 0.0
C415 C 0.81477 0.09249 0.47732 0.0
C416 C 0.91482 0.09422 0.44465 0.0
C417 C 0.88673 0.01119 0.42641 0.0
N418 N 0.84361 0.09227 0.46576 0.0
N419 N 0.85712 0.01187 0.43758 0.0
H420 H 0.88009 0.00318 0.76679 0.0
H421 H 0.77228 0.7244 0.79071 0.0
H422 H 0.94179 0.91841 0.75111 0.0
H423 H 0.68905 0.79571 0.79022 0.0
H424 H 0.84153 0.79927 0.78063 0.0
H425 H 0.81661 0.93117 0.77991 0.0
C426 C 0.88052 0.96952 0.76618 0.0
C427 C 0.9162 0.96679 0.75772 0.0
C428 C 0.80809 0.79843 0.78277 0.0
C429 C 0.84358 0.88422 0.77281 0.0
C430 C 0.76864 0.75582 0.7885 0.0
C431 C 0.72454 0.75354 0.79097 0.0
C432 C 0.80367 0.83929 0.77978 0.0
C433 C 0.72213 0.79566 0.78827 0.0
C434 C 0.84414 0.92839 0.77364 0.0
C435 C 0.91481 0.9221 0.75738 0.0
N436 N 0.76106 0.83673 0.78279 0.0
N437 N 0.87906 0.88253 0.76482 0.0
H438 H 0.04057 -0.00016 0.11551 0.0
H439 H 0.98621 0.7349 0.12727 0.0
H440 H 0.07399 0.92788 0.07894 0.0
H441 H 0.02487 0.83385 0.16716 0.0
H442 H 0.01868 0.80433 0.10923 0.0
H443 H 0.03586 0.94007 0.13477 0.0
C444 C 0.04778 0.97188 0.11163 0.0
C445 C 0.05743 0.96847 0.09565 0.0
C446 C 0.02102 0.8109 0.12196 0.0
C447 C 0.05079 0.89933 0.11745 0.0
C448 C 0.00248 0.77129 0.13227 0.0
C449 C 0.00325 0.77872 0.14878 0.0
C450 C 0.03905 0.85801 0.12815 0.0
C451 C 0.02391 0.82668 0.15452 0.0
C452 C 0.04518 0.93787 0.12261 0.0
C453 C 0.06656 0.9317 0.09119 0.0
N454 N 0.04033 0.86446 0.14422 0.0
N455 N 0.06195 0.89775 0.10198 0.0
H456 H 0.22019 0.06368 0.40387 0.0
H457 H 0.23107 0.0437 0.49855 0.0
H458 H 0.11867 0.0704 0.43491 0.0
H459 H 0.28092 0.9737 0.46672 0.0
H460 H 0.20518 0.07244 0.4754 0.0
H461 H 0.25835 0.04912 0.42715 0.0
C462 C 0.20625 0.06256 0.41558 0.0
C463 C 0.16593 0.06773 0.41747 0.0
C464 C 0.22238 0.05132 0.47353 0.0
C465 C 0.20958 0.05175 0.44402 0.0
C466 C 0.23731 0.03516 0.48669 0.0
C467 C 0.25855 0.00672 0.48457 0.0
C468 C 0.22903 0.03918 0.45814 0.0
C469 C 0.26523 -0.004 0.46894 0.0
C470 C 0.2279 0.05411 0.42882 0.0
C471 C 0.14932 0.06601 0.43291 0.0
N472 N 0.25055 0.01231 0.45631 0.0
N473 N 0.17124 0.05817 0.4456 0.0
H474 H 0.14936 0.13509 0.77315 0.0
H475 H 0.21435 0.399 0.80395 0.0
H476 H 0.13127 0.23797 0.7448 0.0
H477 H 0.22262 0.29321 0.83379 0.0
H478 H 0.19495 0.3446 0.78103 0.0
H479 H 0.18751 0.19664 0.79432 0.0
C480 C 0.15387 0.17077 0.77131 0.0
C481 C 0.13653 0.18125 0.75729 0.0
C482 C 0.20155 0.33344 0.79255 0.0
C483 C 0.17989 0.25164 0.78144 0.0
C484 C 0.21279 0.36457 0.8056 0.0
C485 C 0.2204 0.35062 0.82073 0.0
C486 C 0.19729 0.28773 0.79466 0.0
C487 C 0.21726 0.30534 0.82229 0.0
C488 C 0.17556 0.20585 0.78341 0.0
C489 C 0.14361 0.22815 0.7555 0.0
N490 N 0.20567 0.27534 0.80943 0.0
N491 N 0.16437 0.26145 0.76748 0.0
H492 H 0.93722 0.16134 0.69171 0.0
H493 H 0.74283 0.9568 0.62138 0.0
H494 H 0.92799 0.02408 0.68198 0.0
H495 H 0.80506 0.14129 0.62122 0.0
H496 H 0.81444 0.97913 0.64631 0.0
H497 H 0.88667 0.14898 0.66787 0.0
C498 C 0.92466 0.1287 0.68455 0.0
C499 C 0.93681 0.09367 0.6888 0.0
C500 C 0.81112 0.00792 0.64076 0.0
C501 C 0.87893 0.07931 0.66179 0.0
C502 C 0.769 0.99403 0.62474 0.0
C503 C 0.76052 0.04613 0.62006 0.0
C504 C 0.84642 0.06934 0.64797 0.0
C505 C 0.80794 0.11028 0.62482 0.0
C506 C 0.8961 0.12186 0.67094 0.0
C507 C 0.91968 0.05211 0.67908 0.0
N508 N 0.84347 0.11418 0.63958 0.0
N509 N 0.89109 0.0458 0.6661 0.0
H510 H 0.98219 0.97481 0.00675 0.0
H511 H 0.75256 0.72689 0.98327 0.0
H512 H 0.86375 0.90853 0.03917 0.0
H513 H 0.82757 0.83944 0.94848 0.0
H514 H 0.79507 0.78729 0.00454 0.0
H515 H 0.92936 0.91968 0.98567 0.0
C516 C 0.94495 0.94855 0.00941 0.0
C517 C 0.92719 0.94591 0.0247 0.0
C518 C 0.80151 0.79873 -0.00777 0.0
C519 C 0.86689 0.88245 0.0007 0.0
C520 C 0.77736 0.76437 0.98007 0.0
C521 C 0.7864 0.77829 0.96402 0.0
C522 C 0.8359 0.84679 0.98831 0.0
C523 C 0.8195 0.82729 0.96068 0.0
C524 C 0.91481 0.91741 -0.00264 0.0
C525 C 0.8786 0.91158 0.02749 0.0
N526 N 0.84358 0.85962 0.9727 0.0
N527 N 0.85012 0.88046 0.01563 0.0
H528 H 0.98394 0.88998 0.37385 0.0
H529 H 0.95435 0.74828 0.29262 0.0
H530 H 0.0416 0.96502 0.32971 0.0
H531 H 0.96934 0.69375 0.33821 0.0
H532 H 0.97073 0.82366 0.30573 0.0
H533 H 0.96152 0.81264 0.36051 0.0
C534 C -0.00875 0.89008 0.36132 0.0
C535 C 0.01479 0.93393 0.35287 0.0
C536 C 0.97037 0.79508 0.31283 0.0
C537 C 0.98905 0.84594 0.3376 0.0
C538 C 0.96112 0.75201 0.30537 0.0
C539 C 0.96086 0.71459 0.31433 0.0
C540 C 0.9783 0.80042 0.32939 0.0
C541 C 0.96932 0.72168 0.33087 0.0
C542 C 0.97881 0.84609 0.35377 0.0
C543 C 0.02378 0.93206 0.33668 0.0
N544 N 0.97745 0.76361 0.33788 0.0
N545 N 0.01074 0.88877 0.32955 0.0
H546 H 0.16737 0.10565 0.68234 0.0
H547 H 0.23908 0.91483 0.65219 0.0
H548 H 0.09758 0.95757 0.69919 0.0
H549 H 0.33867 0.07017 0.65387 0.0
H550 H 0.17798 0.9275 0.66441 0.0
H551 H 0.22133 0.09022 0.66671 0.0
C552 C 0.16311 0.06974 0.68265 0.0
C553 C 0.12822 0.03293 0.69219 0.0
C554 C 0.21329 0.9587 0.66211 0.0
C555 C 0.18967 0.01507 0.67426 0.0
C556 C 0.24827 0.95154 0.65521 0.0
C557 C 0.29481 0.99142 0.65263 0.0
C558 C 0.22447 0.00611 0.66598 0.0
C559 C 0.30376 0.03833 0.65609 0.0
C560 C 0.19402 0.06106 0.67377 0.0
C561 C 0.12428 0.98707 0.6921 0.0
N562 N 0.26903 0.04439 0.66266 0.0
N563 N 0.15473 0.9794 0.68327 0.0
H564 H 0.08514 0.11226 -0.00064 0.0
H565 H 0.25585 0.38839 0.98172 0.0
H566 H 0.16463 0.21522 0.03718 0.0
H567 H 0.22233 0.27671 0.94653 0.0
H568 H 0.22705 0.32644 0.00248 0.0
H569 H 0.13909 0.17118 0.97999 0.0
C570 C 0.11479 0.14707 0.00356 0.0
C571 C 0.12069 0.15921 0.01978 0.0
C572 C 0.22709 0.31566 0.99027 0.0
C573 C 0.18145 0.22737 -0.00225 0.0
C574 C 0.24354 0.35101 0.97841 0.0
C575 C 0.24188 0.33766 0.96238 0.0
C576 C 0.20759 0.26652 0.98602 0.0
C577 C 0.22454 0.28851 0.95876 0.0
C578 C 0.14555 0.18068 -0.00747 0.0
C579 C 0.1593 0.20467 0.02472 0.0
N580 N 0.20746 0.25462 0.97044 0.0
N581 N 0.18774 0.2377 0.01368 0.0
H582 H 0.12511 0.22801 0.36958 0.0
H583 H -0.00272 0.3503 0.30747 0.0
H584 H 0.98185 0.14463 0.34843 0.0
H585 H 0.16536 0.44414 0.33523 0.0
H586 H 0.9849 0.26652 0.32485 0.0
H587 H 0.13373 0.30144 0.35744 0.0
C588 C 0.09551 0.2251 0.36232 0.0
C589 C 0.0527 0.18011 0.35998 0.0
C590 C 0.01763 0.30156 0.3264 0.0
C591 C 0.06233 0.26408 0.34616 0.0
C592 C 0.02356 0.35339 0.31635 0.0
C593 C 0.08686 0.40582 0.31749 0.0
C594 C 0.06668 0.30767 0.33863 0.0
C595 C 0.12951 0.41246 0.33385 0.0
C596 C 0.10043 0.2671 0.35545 0.0
C597 C 0.01549 0.17858 0.35051 0.0
N598 N 0.1161 0.36048 0.34171 0.0
N599 N 0.02118 0.22011 0.3439 0.0
loop_
_geom_bond_atom_site_label_1
_geom_bond_atom_site_label_2
_geom_bond_distance
_geom_bond_site_symmetry_2
_ccdc_geom_bond_type
C0 O1 1.306 1_455 S
C0 O3 1.160 . S
O1 C0 1.306 1_655 S
O1 Cd2 2.228 . S
Cd2 O1 2.228 . S
Cd2 O6 2.273 . S
Cd2 O10 2.277 1_655 S
O3 C0 1.160 . S
O3 Cd4 2.203 . S
Cd4 O3 2.203 . S
Cd4 O6 2.411 1_455 S
Cd4 O7 2.333 1_545 S
Cd4 O8 2.352 1_545 S
Cd4 O12 2.277 . S
Cd4 O13 2.356 1_545 S
C5 O10 1.209 . S
C5 O12 1.226 . S
O6 Cd2 2.273 . S
O6 Cd4 2.411 1_655 S
O6 C9 1.320 1_545 S
O7 Cd4 2.333 1_565 S
O7 C9 1.214 1_455 S
O8 Cd4 2.352 1_565 S
O8 C11 1.258 . S
C9 O6 1.320 1_565 S
C9 O7 1.214 1_655 S
O10 Cd2 2.277 1_455 S
O10 C5 1.209 . S
C11 O8 1.258 . S
C11 O13 1.282 . S
O12 Cd4 2.277 . S
O12 C5 1.226 . S
O13 Cd4 2.356 1_565 S
O13 C11 1.282 . S
C14 O15 1.306 . S
C14 O17 1.160 . S
O15 C14 1.306 . S
O15 Cd16 2.228 . S
Cd16 O15 2.228 . S
Cd16 O20 2.273 . S
Cd16 O24 2.277 . S
O17 C14 1.160 . S
O17 Cd18 2.203 . S
Cd18 O17 2.203 . S
Cd18 O20 2.411 . S
Cd18 O21 2.333 1_455 S
Cd18 O22 2.352 1_455 S
Cd18 O26 2.277 1_445 S
Cd18 O27 2.356 1_455 S
C19 O24 1.209 1_565 S
C19 O26 1.226 1_455 S
O20 Cd16 2.273 . S
O20 Cd18 2.411 . S
O20 C23 1.320 . S
O21 Cd18 2.333 1_655 S
O21 C23 1.214 1_655 S
O22 Cd18 2.352 1_655 S
O22 C25 1.258 . S
C23 O20 1.320 . S
C23 O21 1.214 1_455 S
O24 Cd16 2.277 . S
O24 C19 1.209 1_545 S
C25 O22 1.258 . S
C25 O27 1.282 . S
O26 Cd18 2.277 1_665 S
O26 C19 1.226 1_655 S
O27 Cd18 2.356 1_655 S
O27 C25 1.282 . S
C28 O29 1.306 . S
C28 O31 1.160 . S
O29 C28 1.306 . S
O29 Cd30 2.228 . S
Cd30 O29 2.228 . S
Cd30 O34 2.273 1_655 S
Cd30 O38 2.277 . S
O31 C28 1.160 . S
O31 Cd32 2.203 1_655 S
Cd32 O31 2.203 1_455 S
Cd32 O34 2.411 . S
Cd32 O35 2.333 . S
Cd32 O36 2.352 . S
Cd32 O40 2.277 1_445 S
Cd32 O41 2.356 . S
C33 O38 1.209 1_565 S
C33 O40 1.226 . S
O34 Cd30 2.273 1_455 S
O34 Cd32 2.411 . S
O34 C37 1.320 . S
O35 Cd32 2.333 . S
O35 C37 1.214 . S
O36 Cd32 2.352 . S
O36 C39 1.258 . S
C37 O34 1.320 . S
C37 O35 1.214 . S
O38 Cd30 2.277 . S
O38 C33 1.209 1_545 S
C39 O36 1.258 . S
C39 O41 1.282 . S
O40 Cd32 2.277 1_665 S
O40 C33 1.226 . S
O41 Cd32 2.356 . S
O41 C39 1.282 . S
C42 C43 1.560 1_655 S
C42 H103 0.959 . S
C42 H104 0.959 . S
C42 H105 0.960 . S
C43 C42 1.560 1_455 S
C43 O98 1.426 1_455 S
C43 H102 0.980 . S
C44 C45 1.407 . S
C44 C49 1.418 1_455 S
C44 O98 1.334 1_455 S
C45 C44 1.407 . S
C45 C46 1.360 . S
C45 H106 0.929 . S
C46 C45 1.360 . S
C46 C47 1.401 . S
C46 C50 1.527 . S
C47 C46 1.401 . S
C47 C48 1.405 1_455 S
C47 C80 1.587 . S
C48 C47 1.405 1_655 S
C48 C49 1.332 . S
C48 C51 1.496 . S
C49 C44 1.418 1_655 S
C49 C48 1.332 . S
C49 H107 0.929 . S
C50 C46 1.527 . S
C50 H108 0.959 . S
C50 H109 0.961 . S
C50 H110 0.961 . S
C51 C48 1.496 . S
C51 H111 0.960 . S
C51 H112 0.960 . S
C51 H113 0.961 . S
C52 C53 1.517 . S
C52 H115 0.961 . S
C52 H116 0.960 . S
C52 H117 0.959 . S
C53 C52 1.517 . S
C53 O101 1.468 . S
C53 H114 0.980 . S
C54 C55 1.349 . S
C54 C59 1.367 . S
C54 O101 1.408 . S
C55 C54 1.349 . S
C55 C56 1.407 . S
C55 H118 0.930 . S
C56 C55 1.407 . S
C56 C57 1.449 . S
C56 C60 1.535 1_455 S
C57 C56 1.449 . S
C57 C58 1.384 . S
C57 C82 1.553 . S
C58 C57 1.384 . S
C58 C59 1.364 . S
C58 C61 1.450 . S
C59 C54 1.367 . S
C59 C58 1.364 . S
C59 H119 0.931 . S
C60 C56 1.535 1_655 S
C60 H120 0.959 . S
C60 H121 0.961 . S
C60 H122 0.959 . S
C61 C58 1.450 . S
C61 H123 0.960 . S
C61 H124 0.960 . S
C61 H125 0.960 . S
C62 C63 1.309 . S
C62 C67 1.304 . S
C62 O100 1.435 . S
C63 C62 1.309 . S
C63 C64 1.476 . S
C63 H127 0.930 . S
C64 C63 1.476 . S
C64 C65 1.400 . S
C64 C68 1.567 1_455 S
C65 C64 1.400 . S
C65 C66 1.373 . S
C65 C87 1.432 . S
C66 C65 1.373 . S
C66 C67 1.339 . S
C66 C69 1.530 . S
C67 C62 1.304 . S
C67 C66 1.339 . S
C67 H128 0.930 . S
C68 C64 1.567 1_655 S
C68 H129 0.961 . S
C68 H130 0.960 . S
C68 H131 0.958 . S
C69 C66 1.530 . S
C69 H132 0.961 . S
C69 H133 0.960 . S
C69 H134 0.960 . S
C70 C71 1.555 . S
C70 H136 0.963 . S
C70 H137 0.943 1_455 S
C70 H138 0.951 1_455 S
C71 C70 1.555 . S
C71 O99 1.412 . S
C71 H135 0.980 . S
C72 C73 1.288 1_455 S
C72 C77 1.377 . S
C72 O99 1.393 . S
C73 C72 1.288 1_655 S
C73 C74 1.369 . S
C73 H139 0.932 . S
C74 C73 1.369 . S
C74 C75 1.398 1_655 S
C74 C78 1.527 . S
C75 C74 1.398 1_455 S
C75 C76 1.380 . S
C75 C89 1.497 . S
C76 C75 1.380 . S
C76 C77 1.383 . S
C76 C79 1.603 . S
C77 C72 1.377 . S
C77 C76 1.383 . S
C77 H140 0.929 . S
C78 C74 1.527 . S
C78 H141 0.961 . S
C78 H142 0.959 . S
C78 H143 0.959 . S
C79 C76 1.603 . S
C79 H144 0.960 . S
C79 H145 0.962 . S
C79 H146 0.961 . S
C80 C47 1.587 . S
C80 C81 1.360 . S
C80 C93 1.412 . S
C81 C80 1.360 . S
C81 C82 1.365 . S
C81 H147 0.929 . S
C82 C57 1.553 . S
C82 C81 1.365 . S
C82 C83 1.404 . S
C83 C82 1.404 . S
C83 C84 1.395 . S
C83 C94 1.451 . S
C84 C83 1.395 . S
C84 C85 1.322 . S
C84 H148 0.930 . S
C85 C84 1.322 . S
C85 C86 1.459 . S
C85 H149 0.929 . S
C86 C85 1.459 . S
C86 C87 1.445 . S
C86 C95 1.395 . S
C87 C65 1.432 . S
C87 C86 1.445 . S
C87 C88 1.370 . S
C88 C87 1.370 . S
C88 C89 1.438 . S
C88 H150 0.930 . S
C89 C75 1.497 . S
C89 C88 1.438 . S
C89 C90 1.360 . S
C90 C89 1.360 . S
C90 C91 1.401 . S
C90 C95 1.446 . S
C91 C90 1.401 . S
C91 C92 1.347 . S
C91 H151 0.929 . S
C92 C91 1.347 . S
C92 C93 1.455 . S
C92 H152 0.930 . S
C93 C80 1.412 . S
C93 C92 1.455 . S
C93 C94 1.331 . S
C94 C83 1.451 . S
C94 C93 1.331 . S
C94 C95 1.497 . S
C95 C86 1.395 . S
C95 C90 1.446 . S
C95 C94 1.497 . S
C96 C97 1.582 . S
C96 H153 0.962 . S
C96 H154 0.959 . S
C96 H155 0.958 . S
C97 C96 1.582 . S
C97 O100 1.458 . S
C97 H126 0.980 . S
O98 C43 1.426 1_655 S
O98 C44 1.334 1_655 S
O99 C71 1.412 . S
O99 C72 1.393 . S
O100 C62 1.435 . S
O100 C97 1.458 . S
O101 C53 1.468 . S
O101 C54 1.408 . S
H102 C43 0.980 . S
H103 C42 0.959 . S
H104 C42 0.959 . S
H105 C42 0.960 . S
H106 C45 0.929 . S
H107 C49 0.929 . S
H108 C50 0.959 . S
H109 C50 0.961 . S
H110 C50 0.961 . S
H111 C51 0.960 . S
H112 C51 0.960 . S
H113 C51 0.961 . S
H114 C53 0.980 . S
H115 C52 0.961 . S
H116 C52 0.960 . S
H117 C52 0.959 . S
H118 C55 0.930 . S
H119 C59 0.931 . S
H120 C60 0.959 . S
H121 C60 0.961 . S
H122 C60 0.959 . S
H123 C61 0.960 . S
H124 C61 0.960 . S
H125 C61 0.960 . S
H126 C97 0.980 . S
H127 C63 0.930 . S
H128 C67 0.930 . S
H129 C68 0.961 . S
H130 C68 0.960 . S
H131 C68 0.958 . S
H132 C69 0.961 . S
H133 C69 0.960 . S
H134 C69 0.960 . S
H135 C71 0.980 . S
H136 C70 0.963 . S
H137 C70 0.943 1_655 S
H138 C70 0.951 1_655 S
H139 C73 0.932 . S
H140 C77 0.929 . S
H141 C78 0.961 . S
H142 C78 0.959 . S
H143 C78 0.959 . S
H144 C79 0.960 . S
H145 C79 0.962 . S
H146 C79 0.961 . S
H147 C81 0.929 . S
H148 C84 0.930 . S
H149 C85 0.929 . S
H150 C88 0.930 . S
H151 C91 0.929 . S
H152 C92 0.930 . S
H153 C96 0.962 . S
H154 C96 0.959 . S
H155 C96 0.958 . S
C156 C157 1.560 1_565 S
C156 H217 0.959 . S
C156 H218 0.959 . S
C156 H219 0.960 1_565 S
C157 C156 1.560 1_545 S
C157 O212 1.426 . S
C157 H216 0.980 . S
C158 C159 1.407 . S
C158 C163 1.418 1_545 S
C158 O212 1.334 . S
C159 C158 1.407 . S
C159 C160 1.360 . S
C159 H220 0.929 . S
C160 C159 1.360 . S
C160 C161 1.401 . S
C160 C164 1.527 . S
C161 C160 1.401 . S
C161 C162 1.405 . S
C161 C194 1.587 . S
C162 C161 1.405 . S
C162 C163 1.332 1_545 S
C162 C165 1.496 1_545 S
C163 C158 1.418 1_565 S
C163 C162 1.332 1_565 S
C163 H221 0.929 . S
C164 C160 1.527 . S
C164 H222 0.959 . S
C164 H223 0.961 . S
C164 H224 0.961 . S
C165 C162 1.496 1_565 S
C165 H225 0.960 . S
C165 H226 0.960 . S
C165 H227 0.961 . S
C166 C167 1.517 . S
C166 H229 0.961 . S
C166 H230 0.960 . S
C166 H231 0.959 . S
C167 C166 1.517 . S
C167 O215 1.468 . S
C167 H228 0.980 . S
C168 C169 1.349 . S
C168 C173 1.367 . S
C168 O215 1.408 . S
C169 C168 1.349 . S
C169 C170 1.407 . S
C169 H232 0.930 . S
C170 C169 1.407 . S
C170 C171 1.449 . S
C170 C174 1.535 . S
C171 C170 1.449 . S
C171 C172 1.384 . S
C171 C196 1.553 . S
C172 C171 1.384 . S
C172 C173 1.364 . S
C172 C175 1.450 . S
C173 C168 1.367 . S
C173 C172 1.364 . S
C173 H233 0.931 . S
C174 C170 1.535 . S
C174 H234 0.959 . S
C174 H235 0.961 1_545 S
C174 H236 0.959 1_545 S
C175 C172 1.450 . S
C175 H237 0.960 . S
C175 H238 0.960 . S
C175 H239 0.960 . S
C176 C177 1.309 . S
C176 C181 1.304 . S
C176 O214 1.435 . S
C177 C176 1.309 . S
C177 C178 1.476 . S
C177 H241 0.930 . S
C178 C177 1.476 . S
C178 C179 1.400 . S
C178 C182 1.567 1_545 S
C179 C178 1.400 . S
C179 C180 1.373 . S
C179 C201 1.432 . S
C180 C179 1.373 . S
C180 C181 1.339 . S
C180 C183 1.530 . S
C181 C176 1.304 . S
C181 C180 1.339 . S
C181 H242 0.930 . S
C182 C178 1.567 1_565 S
C182 H243 0.951 1_565 S
C182 H244 0.960 . S
C182 H245 0.958 . S
C183 C180 1.530 . S
C183 H246 0.961 . S
C183 H247 0.960 . S
C183 H248 0.960 . S
C184 C185 1.530 . S
C184 H250 0.961 . S
C184 H251 0.961 1_545 S
C184 H252 0.959 1_545 S
C185 C184 1.530 . S
C185 O213 1.412 . S
C185 H249 0.980 . S
C186 C187 1.288 1_545 S
C186 C191 1.377 . S
C186 O213 1.393 . S
C187 C186 1.288 1_565 S
C187 C188 1.369 1_565 S
C187 H253 0.932 . S
C188 C187 1.369 1_545 S
C188 C189 1.398 . S
C188 C192 1.527 1_545 S
C189 C188 1.398 . S
C189 C190 1.380 . S
C189 C203 1.497 . S
C190 C189 1.380 . S
C190 C191 1.383 . S
C190 C193 1.603 . S
C191 C186 1.377 . S
C191 C190 1.383 . S
C191 H254 0.929 . S
C192 C188 1.527 1_565 S
C192 H255 0.961 . S
C192 H256 0.959 . S
C192 H257 0.959 . S
C193 C190 1.603 . S
C193 H258 0.960 . S
C193 H259 0.962 . S
C193 H260 0.961 . S
C194 C161 1.587 . S
C194 C195 1.360 . S
C194 C207 1.412 . S
C195 C194 1.360 . S
C195 C196 1.365 . S
C195 H261 0.929 . S
C196 C171 1.553 . S
C196 C195 1.365 . S
C196 C197 1.404 . S
C197 C196 1.404 . S
C197 C198 1.395 . S
C197 C208 1.451 . S
C198 C197 1.395 . S
C198 C199 1.322 . S
C198 H262 0.930 . S
C199 C198 1.322 . S
C199 C200 1.459 . S
C199 H263 0.929 . S
C200 C199 1.459 . S
C200 C201 1.445 . S
C200 C209 1.395 . S
C201 C179 1.432 . S
C201 C200 1.445 . S
C201 C202 1.370 . S
C202 C201 1.370 . S
C202 C203 1.438 . S
C202 H264 0.930 . S
C203 C189 1.497 . S
C203 C202 1.438 . S
C203 C204 1.360 . S
C204 C203 1.360 . S
C204 C205 1.401 . S
C204 C209 1.446 . S
C205 C204 1.401 . S
C205 C206 1.347 . S
C205 H265 0.929 . S
C206 C205 1.347 . S
C206 C207 1.455 . S
C206 H266 0.930 . S
C207 C194 1.412 . S
C207 C206 1.455 . S
C207 C208 1.331 . S
C208 C197 1.451 . S
C208 C207 1.331 . S
C208 C209 1.497 . S
C209 C200 1.395 . S
C209 C204 1.446 . S
C209 C208 1.497 . S
C210 C211 1.582 . S
C210 H267 0.962 . S
C210 H268 0.959 . S
C210 H269 0.958 . S
C211 C210 1.582 . S
C211 O214 1.458 . S
C211 H240 0.980 . S
O212 C157 1.426 . S
O212 C158 1.334 . S
O213 C185 1.412 . S
O213 C186 1.393 . S
O214 C176 1.435 . S
O214 C211 1.458 . S
O215 C167 1.468 . S
O215 C168 1.408 . S
H216 C157 0.980 . S
H217 C156 0.959 . S
H218 C156 0.959 . S
H219 C156 0.960 1_545 S
H220 C159 0.929 . S
H221 C163 0.929 . S
H222 C164 0.959 . S
H223 C164 0.961 . S
H224 C164 0.961 . S
H225 C165 0.960 . S
H226 C165 0.960 . S
H227 C165 0.961 . S
H228 C167 0.980 . S
H229 C166 0.961 . S
H230 C166 0.960 . S
H231 C166 0.959 . S
H232 C169 0.930 . S
H233 C173 0.931 . S
H234 C174 0.959 . S
H235 C174 0.961 1_565 S
H236 C174 0.959 1_565 S
H237 C175 0.960 . S
H238 C175 0.960 . S
H239 C175 0.960 . S
H240 C211 0.980 . S
H241 C177 0.930 . S
H242 C181 0.930 . S
H243 C182 0.951 1_545 S
H244 C182 0.960 . S
H245 C182 0.958 . S
H246 C183 0.961 . S
H247 C183 0.960 . S
H248 C183 0.960 . S
H249 C185 0.980 . S
H250 C184 0.961 . S
H251 C184 0.961 1_565 S
H252 C184 0.959 1_565 S
H253 C187 0.932 . S
H254 C191 0.929 . S
H255 C192 0.961 . S
H256 C192 0.959 . S
H257 C192 0.959 . S
H258 C193 0.960 . S
H259 C193 0.962 . S
H260 C193 0.961 . S
H261 C195 0.929 . S
H262 C198 0.930 . S
H263 C199 0.929 . S
H264 C202 0.930 . S
H265 C205 0.929 . S
H266 C206 0.930 . S
H267 C210 0.962 . S
H268 C210 0.959 . S
H269 C210 0.958 . S
C270 C271 1.560 . S
C270 H331 0.959 . S
C270 H332 0.959 . S
C270 H333 0.960 . S
C271 C270 1.560 . S
C271 O326 1.426 . S
C271 H330 0.980 . S
C272 C273 1.407 . S
C272 C277 1.418 . S
C272 O326 1.334 . S
C273 C272 1.407 . S
C273 C274 1.360 . S
C273 H334 0.929 . S
C274 C273 1.360 . S
C274 C275 1.401 . S
C274 C278 1.527 . S
C275 C274 1.401 . S
C275 C276 1.405 . S
C275 C308 1.587 . S
C276 C275 1.405 . S
C276 C277 1.332 . S
C276 C279 1.496 . S
C277 C272 1.418 . S
C277 C276 1.332 . S
C277 H335 0.929 . S
C278 C274 1.527 . S
C278 H336 0.959 . S
C278 H337 0.961 . S
C278 H338 0.961 . S
C279 C276 1.496 . S
C279 H339 0.960 . S
C279 H340 0.960 . S
C279 H341 0.961 . S
C280 C281 1.517 . S
C280 H343 0.961 . S
C280 H344 0.960 . S
C280 H345 0.959 . S
C281 C280 1.517 . S
C281 O329 1.468 . S
C281 H342 0.980 . S
C282 C283 1.349 . S
C282 C287 1.367 . S
C282 O329 1.408 . S
C283 C282 1.349 . S
C283 C284 1.407 . S
C283 H346 0.930 . S
C284 C283 1.407 . S
C284 C285 1.449 . S
C284 C288 1.535 . S
C285 C284 1.449 . S
C285 C286 1.384 . S
C285 C310 1.553 . S
C286 C285 1.384 . S
C286 C287 1.364 . S
C286 C289 1.450 . S
C287 C282 1.367 . S
C287 C286 1.364 . S
C287 H347 0.931 . S
C288 C284 1.535 . S
C288 H348 0.959 . S
C288 H349 0.961 . S
C288 H350 0.959 . S
C289 C286 1.450 . S
C289 H351 0.960 . S
C289 H352 0.960 . S
C289 H353 0.960 . S
C290 C291 1.309 . S
C290 C295 1.304 . S
C290 O328 1.435 . S
C291 C290 1.309 . S
C291 C292 1.476 . S
C291 H355 0.930 . S
C292 C291 1.476 . S
C292 C293 1.400 . S
C292 C296 1.567 . S
C293 C292 1.400 . S
C293 C294 1.373 . S
C293 C315 1.432 . S
C294 C293 1.373 . S
C294 C295 1.339 . S
C294 C297 1.530 . S
C295 C290 1.304 . S
C295 C294 1.339 . S
C295 H356 0.930 . S
C296 C292 1.567 . S
C296 H357 0.961 . S
C296 H358 0.960 . S
C296 H359 0.958 . S
C297 C294 1.530 . S
C297 H360 0.961 . S
C297 H361 0.960 . S
C297 H362 0.960 . S
C298 C299 1.530 . S
C298 H364 0.961 . S
C298 H365 0.961 . S
C298 H366 0.959 . S
C299 C298 1.530 . S
C299 O327 1.412 . S
C299 H363 0.980 . S
C300 C301 1.288 . S
C300 C305 1.377 . S
C300 O327 1.393 . S
C301 C300 1.288 . S
C301 C302 1.369 . S
C301 H367 0.932 . S
C302 C301 1.369 . S
C302 C303 1.398 . S
C302 C306 1.527 . S
C303 C302 1.398 . S
C303 C304 1.380 . S
C303 C317 1.497 . S
C304 C303 1.380 . S
C304 C305 1.383 . S
C304 C307 1.603 . S
C305 C300 1.377 . S
C305 C304 1.383 . S
C305 H368 0.929 . S
C306 C302 1.527 . S
C306 H369 0.961 . S
C306 H370 0.959 . S
C306 H371 0.959 . S
C307 C304 1.603 . S
C307 H372 0.960 . S
C307 H373 0.962 . S
C307 H374 0.961 . S
C308 C275 1.587 . S
C308 C309 1.360 . S
C308 C321 1.412 . S
C309 C308 1.360 . S
C309 C310 1.365 . S
C309 H375 0.929 . S
C310 C285 1.553 . S
C310 C309 1.365 . S
C310 C311 1.404 . S
C311 C310 1.404 . S
C311 C312 1.395 . S
C311 C322 1.451 . S
C312 C311 1.395 . S
C312 C313 1.322 . S
C312 H376 0.930 . S
C313 C312 1.322 . S
C313 C314 1.459 . S
C313 H377 0.929 . S
C314 C313 1.459 . S
C314 C315 1.445 . S
C314 C323 1.395 . S
C315 C293 1.432 . S
C315 C314 1.445 . S
C315 C316 1.370 . S
C316 C315 1.370 . S
C316 C317 1.438 . S
C316 H378 0.930 . S
C317 C303 1.497 . S
C317 C316 1.438 . S
C317 C318 1.360 . S
C318 C317 1.360 . S
C318 C319 1.401 . S
C318 C323 1.446 . S
C319 C318 1.401 . S
C319 C320 1.347 . S
C319 H379 0.929 . S
C320 C319 1.347 . S
C320 C321 1.455 . S
C320 H380 0.930 . S
C321 C308 1.412 . S
C321 C320 1.455 . S
C321 C322 1.331 . S
C322 C311 1.451 . S
C322 C321 1.331 . S
C322 C323 1.497 . S
C323 C314 1.395 . S
C323 C318 1.446 . S
C323 C322 1.497 . S
C324 C325 1.582 . S
C324 H381 0.962 . S
C324 H382 0.959 . S
C324 H383 0.958 . S
C325 C324 1.582 . S
C325 O328 1.458 . S
C325 H354 0.980 . S
O326 C271 1.426 . S
O326 C272 1.334 . S
O327 C299 1.412 . S
O327 C300 1.393 . S
O328 C290 1.435 . S
O328 C325 1.458 . S
O329 C281 1.468 . S
O329 C282 1.408 . S
H330 C271 0.980 . S
H331 C270 0.959 . S
H332 C270 0.959 . S
H333 C270 0.960 . S
H334 C273 0.929 . S
H335 C277 0.929 . S
H336 C278 0.959 . S
H337 C278 0.961 . S
H338 C278 0.961 . S
H339 C279 0.960 . S
H340 C279 0.960 . S
H341 C279 0.961 . S
H342 C281 0.980 . S
H343 C280 0.961 . S
H344 C280 0.960 . S
H345 C280 0.959 . S
H346 C283 0.930 . S
H347 C287 0.931 . S
H348 C288 0.959 . S
H349 C288 0.961 . S
H350 C288 0.959 . S
H351 C289 0.960 . S
H352 C289 0.960 . S
H353 C289 0.960 . S
H354 C325 0.980 . S
H355 C291 0.930 . S
H356 C295 0.930 . S
H357 C296 0.961 . S
H358 C296 0.960 . S
H359 C296 0.958 . S
H360 C297 0.961 . S
H361 C297 0.960 . S
H362 C297 0.960 . S
H363 C299 0.980 . S
H364 C298 0.961 . S
H365 C298 0.961 . S
H366 C298 0.959 . S
H367 C301 0.932 . S
H368 C305 0.929 . S
H369 C306 0.961 . S
H370 C306 0.959 . S
H371 C306 0.959 . S
H372 C307 0.960 . S
H373 C307 0.962 . S
H374 C307 0.961 . S
H375 C309 0.929 . S
H376 C312 0.930 . S
H377 C313 0.929 . S
H378 C316 0.930 . S
H379 C319 0.929 . S
H380 C320 0.930 . S
H381 C324 0.962 . S
H382 C324 0.959 . S
H383 C324 0.958 . S
H384 C390 0.930 . S
H385 C394 0.930 . S
H386 C399 0.929 . S
H387 C397 0.929 . S
H388 C392 0.929 . S
H389 C398 0.929 . S
C390 H384 0.930 . S
C390 C391 1.367 . S
C390 C398 1.378 . S
C391 C390 1.367 . S
C391 C399 1.433 . S
C392 H388 0.929 . S
C392 C394 1.378 . S
C392 C396 1.350 . S
C393 C396 1.463 . S
C393 C398 1.350 . S
C393 N401 1.427 . S
C394 H385 0.930 . S
C394 C392 1.378 . S
C394 C395 1.367 . S
C395 C394 1.367 . S
C395 C397 1.433 . S
C396 C392 1.350 . S
C396 C393 1.463 . S
C396 N400 1.427 . S
C397 H387 0.929 . S
C397 C395 1.433 . S
C397 N400 1.384 . S
C398 H389 0.929 . S
C398 C390 1.378 . S
C398 C393 1.350 . S
C399 H386 0.929 . S
C399 C391 1.433 . S
C399 N401 1.384 . S
N400 C396 1.427 . S
N400 C397 1.384 . S
N401 C393 1.427 . S
N401 C399 1.384 . S
H402 C408 0.930 . S
H403 C412 0.930 1_565 S
H404 C417 0.929 1_565 S
H405 C415 0.929 . S
H406 C410 0.929 1_565 S
H407 C416 0.929 . S
C408 H402 0.930 . S
C408 C409 1.367 . S
C408 C416 1.378 . S
C409 C408 1.367 . S
C409 C417 1.433 . S
C410 H406 0.929 1_545 S
C410 C412 1.378 . S
C410 C414 1.350 . S
C411 C414 1.463 . S
C411 C416 1.350 . S
C411 N419 1.427 . S
C412 H403 0.930 1_545 S
C412 C410 1.378 . S
C412 C413 1.367 . S
C413 C412 1.367 . S
C413 C415 1.433 . S
C414 C410 1.350 . S
C414 C411 1.463 . S
C414 N418 1.427 . S
C415 H405 0.929 . S
C415 C413 1.433 . S
C415 N418 1.384 . S
C416 H407 0.929 . S
C416 C408 1.378 . S
C416 C411 1.350 . S
C417 H404 0.929 1_545 S
C417 C409 1.433 . S
C417 N419 1.384 . S
N418 C414 1.427 . S
N418 C415 1.384 . S
N419 C411 1.427 . S
N419 C417 1.384 . S
H420 C426 0.930 1_545 S
H421 C430 0.930 . S
H422 C435 0.929 . S
H423 C433 0.929 . S
H424 C428 0.929 . S
H425 C434 0.929 . S
C426 H420 0.930 1_565 S
C426 C427 1.367 . S
C426 C434 1.378 . S
C427 C426 1.367 . S
C427 C435 1.433 . S
C428 H424 0.929 . S
C428 C430 1.378 . S
C428 C432 1.350 . S
C429 C432 1.463 . S
C429 C434 1.350 . S
C429 N437 1.427 . S
C430 H421 0.930 . S
C430 C428 1.378 . S
C430 C431 1.367 . S
C431 C430 1.367 . S
C431 C433 1.433 . S
C432 C428 1.350 . S
C432 C429 1.463 . S
C432 N436 1.427 . S
C433 H423 0.929 . S
C433 C431 1.433 . S
C433 N436 1.384 . S
C434 H425 0.929 . S
C434 C426 1.378 . S
C434 C429 1.350 . S
C435 H422 0.929 . S
C435 C427 1.433 . S
C435 N437 1.384 . S
N436 C432 1.427 . S
N436 C433 1.384 . S
N437 C429 1.427 . S
N437 C435 1.384 . S
H438 C444 0.930 1_655 S
H439 C448 0.930 . S
H440 C453 0.929 . S
H441 C451 0.929 . S
H442 C446 0.929 . S
H443 C452 0.929 1_655 S
C444 H438 0.930 1_455 S
C444 C445 1.367 . S
C444 C452 1.378 . S
C445 C444 1.367 . S
C445 C453 1.433 . S
C446 H442 0.929 . S
C446 C448 1.378 . S
C446 C450 1.350 . S
C447 C450 1.463 . S
C447 C452 1.350 . S
C447 N455 1.427 . S
C448 H439 0.930 . S
C448 C446 1.378 . S
C448 C449 1.367 . S
C449 C448 1.367 . S
C449 C451 1.433 . S
C450 C446 1.350 . S
C450 C447 1.463 . S
C450 N454 1.427 . S
C451 H441 0.929 . S
C451 C449 1.433 . S
C451 N454 1.384 . S
C452 H443 0.929 1_455 S
C452 C444 1.378 . S
C452 C447 1.350 . S
C453 H440 0.929 . S
C453 C445 1.433 . S
C453 N455 1.384 . S
N454 C450 1.427 . S
N454 C451 1.384 . S
N455 C447 1.427 . S
N455 C453 1.384 . S
H456 C462 0.930 . S
H457 C466 0.930 . S
H458 C471 0.929 . S
H459 C469 0.929 . S
H460 C464 0.929 . S
H461 C470 0.929 . S
C462 H456 0.930 . S
C462 C463 1.367 . S
C462 C470 1.378 . S
C463 C462 1.367 . S
C463 C471 1.433 . S
C464 H460 0.929 . S
C464 C466 1.378 . S
C464 C468 1.350 . S
C465 C468 1.463 . S
C465 C470 1.350 . S
C465 N473 1.427 . S
C466 H457 0.930 . S
C466 C464 1.378 . S
C466 C467 1.367 . S
C467 C466 1.367 . S
C467 C469 1.433 . S
C468 C464 1.350 . S
C468 C465 1.463 . S
C468 N472 1.427 . S
C469 H459 0.929 . S
C469 C467 1.433 . S
C469 N472 1.384 . S
C470 H461 0.929 . S
C470 C462 1.378 . S
C470 C465 1.350 . S
C471 H458 0.929 . S
C471 C463 1.433 . S
C471 N473 1.384 . S
N472 C468 1.427 . S
N472 C469 1.384 . S
N473 C465 1.427 . S
N473 C471 1.384 . S
H474 C480 0.930 . S
H475 C484 0.930 . S
H476 C489 0.929 . S
H477 C487 0.929 . S
H478 C482 0.929 . S
H479 C488 0.929 . S
C480 H474 0.930 . S
C480 C481 1.367 . S
C480 C488 1.378 . S
C481 C480 1.367 . S
C481 C489 1.433 . S
C482 H478 0.929 . S
C482 C484 1.378 . S
C482 C486 1.350 . S
C483 C486 1.463 . S
C483 C488 1.350 . S
C483 N491 1.427 . S
C484 H475 0.930 . S
C484 C482 1.378 . S
C484 C485 1.367 . S
C485 C484 1.367 . S
C485 C487 1.433 . S
C486 C482 1.350 . S
C486 C483 1.463 . S
C486 N490 1.427 . S
C487 H477 0.929 . S
C487 C485 1.433 . S
C487 N490 1.384 . S
C488 H479 0.929 . S
C488 C480 1.378 . S
C488 C483 1.350 . S
C489 H476 0.929 . S
C489 C481 1.433 . S
C489 N491 1.384 . S
N490 C486 1.427 . S
N490 C487 1.384 . S
N491 C483 1.427 . S
N491 C489 1.384 . S
H492 C498 0.930 . S
H493 C502 0.930 1_565 S
H494 C507 0.929 1_565 S
H495 C505 0.929 . S
H496 C500 0.929 1_565 S
H497 C506 0.929 . S
C498 H492 0.930 . S
C498 C499 1.367 . S
C498 C506 1.378 . S
C499 C498 1.367 . S
C499 C507 1.433 . S
C500 H496 0.929 1_545 S
C500 C502 1.378 . S
C500 C504 1.350 . S
C501 C504 1.463 . S
C501 C506 1.350 . S
C501 N509 1.427 . S
C502 H493 0.930 1_545 S
C502 C500 1.378 . S
C502 C503 1.367 . S
C503 C502 1.367 . S
C503 C505 1.433 . S
C504 C500 1.350 . S
C504 C501 1.463 . S
C504 N508 1.427 . S
C505 H495 0.929 . S
C505 C503 1.433 . S
C505 N508 1.384 . S
C506 H497 0.929 . S
C506 C498 1.378 . S
C506 C501 1.350 . S
C507 H494 0.929 1_545 S
C507 C499 1.433 . S
C507 N509 1.384 . S
N508 C504 1.427 . S
N508 C505 1.384 . S
N509 C501 1.427 . S
N509 C507 1.384 . S
H510 C516 0.930 . S
H511 C520 0.930 1_554 S
H512 C525 0.929 . S
H513 C523 0.929 . S
H514 C518 0.929 . S
H515 C524 0.929 1_556 S
C516 H510 0.930 . S
C516 C517 1.367 . S
C516 C524 1.378 . S
C517 C516 1.367 . S
C517 C525 1.433 . S
C518 H514 0.929 . S
C518 C520 1.378 1_554 S
C518 C522 1.350 . S
C519 C522 1.463 . S
C519 C524 1.350 . S
C519 N527 1.427 . S
C520 H511 0.930 1_556 S
C520 C518 1.378 1_556 S
C520 C521 1.367 . S
C521 C520 1.367 . S
C521 C523 1.433 . S
C522 C518 1.350 . S
C522 C519 1.463 . S
C522 N526 1.427 1_554 S
C523 H513 0.929 . S
C523 C521 1.433 . S
C523 N526 1.384 . S
C524 H515 0.929 1_554 S
C524 C516 1.378 . S
C524 C519 1.350 . S
C525 H512 0.929 . S
C525 C517 1.433 . S
C525 N527 1.384 . S
N526 C522 1.427 1_556 S
N526 C523 1.384 . S
N527 C519 1.427 . S
N527 C525 1.384 . S
H528 C534 0.930 . S
H529 C538 0.935 . S
H530 C543 0.929 1_655 S
H531 C541 0.929 . S
H532 C536 0.929 1_655 S
H533 C542 0.929 . S
C534 H528 0.930 . S
C534 C535 1.367 . S
C534 C542 1.378 . S
C535 C534 1.367 . S
C535 C543 1.433 . S
C536 H532 0.929 1_455 S
C536 C538 1.378 . S
C536 C540 1.350 . S
C537 C540 1.463 . S
C537 C542 1.350 . S
C537 N545 1.427 . S
C538 H529 0.935 . S
C538 C536 1.378 . S
C538 C539 1.367 . S
C539 C538 1.367 . S
C539 C541 1.433 . S
C540 C536 1.350 . S
C540 C537 1.463 . S
C540 N544 1.427 . S
C541 H531 0.929 . S
C541 C539 1.433 . S
C541 N544 1.384 . S
C542 H533 0.929 . S
C542 C534 1.378 . S
C542 C537 1.350 . S
C543 H530 0.929 1_455 S
C543 C535 1.433 . S
C543 N545 1.384 . S
N544 C540 1.427 . S
N544 C541 1.384 . S
N545 C537 1.427 . S
N545 C543 1.384 . S
H546 C552 0.930 . S
H547 C556 0.930 1_565 S
H548 C561 0.929 1_565 S
H549 C559 0.929 . S
H550 C554 0.929 1_565 S
H551 C560 0.929 . S
C552 H546 0.930 . S
C552 C553 1.367 . S
C552 C560 1.378 . S
C553 C552 1.367 . S
C553 C561 1.433 . S
C554 H550 0.929 1_545 S
C554 C556 1.378 . S
C554 C558 1.350 . S
C555 C558 1.463 . S
C555 C560 1.350 . S
C555 N563 1.427 . S
C556 H547 0.930 1_545 S
C556 C554 1.378 . S
C556 C557 1.367 . S
C557 C556 1.367 . S
C557 C559 1.433 . S
C558 C554 1.350 . S
C558 C555 1.463 . S
C558 N562 1.427 . S
C559 H549 0.929 . S
C559 C557 1.433 . S
C559 N562 1.384 . S
C560 H551 0.929 . S
C560 C552 1.378 . S
C560 C555 1.350 . S
C561 H548 0.929 1_545 S
C561 C553 1.433 . S
C561 N563 1.384 . S
N562 C558 1.427 . S
N562 C559 1.384 . S
N563 C555 1.427 . S
N563 C561 1.384 . S
H564 C570 0.930 . S
H565 C574 0.930 . S
H566 C579 0.929 . S
H567 C577 0.929 . S
H568 C572 0.929 . S
H569 C578 0.929 1_556 S
C570 H564 0.930 . S
C570 C571 1.367 . S
C570 C578 1.378 . S
C571 C570 1.367 . S
C571 C579 1.433 . S
C572 H568 0.929 . S
C572 C574 1.378 1_554 S
C572 C576 1.332 1_554 S
C573 C576 1.425 1_554 S
C573 C578 1.350 . S
C573 N581 1.427 . S
C574 H565 0.930 . S
C574 C572 1.378 1_556 S
C574 C575 1.367 . S
C575 C574 1.367 . S
C575 C577 1.433 . S
C576 C572 1.332 1_556 S
C576 C573 1.425 1_556 S
C576 N580 1.486 . S
C577 H567 0.929 . S
C577 C575 1.433 . S
C577 N580 1.384 . S
C578 H569 0.929 1_554 S
C578 C570 1.378 . S
C578 C573 1.350 . S
C579 H566 0.929 . S
C579 C571 1.433 . S
C579 N581 1.384 . S
N580 C576 1.486 . S
N580 C577 1.384 . S
N581 C573 1.427 . S
N581 C579 1.384 . S
H582 C588 0.930 . S
H583 C592 0.930 1_655 S
H584 C597 0.929 . S
H585 C595 0.929 . S
H586 C590 0.929 1_655 S
H587 C596 0.929 . S
C588 H582 0.930 . S
C588 C589 1.367 . S
C588 C596 1.378 . S
C589 C588 1.367 . S
C589 C597 1.433 1_455 S
C590 H586 0.929 1_455 S
C590 C592 1.378 . S
C590 C594 1.350 . S
C591 C594 1.463 . S
C591 C596 1.350 . S
C591 N599 1.416 1_455 S
C592 H583 0.930 1_455 S
C592 C590 1.378 . S
C592 C593 1.367 . S
C593 C592 1.367 . S
C593 C595 1.433 . S
C594 C590 1.350 . S
C594 C591 1.463 . S
C594 N598 1.427 . S
C595 H585 0.929 . S
C595 C593 1.433 . S
C595 N598 1.384 . S
C596 H587 0.929 . S
C596 C588 1.378 . S
C596 C591 1.350 . S
C597 H584 0.929 . S
C597 C589 1.433 1_655 S
C597 N599 1.376 . S
N598 C594 1.427 . S
N598 C595 1.384 . S
N599 C591 1.416 1_655 S
N599 C597 1.376 . S
C395 C97 1.134 . S
C391 C0 1.533 . S
C409 C25 1.569 . S
C413 C211 1.171 . S
C427 C33 1.355 . S
C431 C271 1.033 . S
C445 C11 1.365 . S
C449 C71 1.103 . S
C467 C185 1.126 . S
C463 C14 1.418 . S
C481 C37 1.524 . S
C485 C281 0.934 . S
C503 C167 0.922 . S
C499 C28 1.493 . S
C517 C9 1.451 . S
C521 C299 1.151 . S
C539 C43 1.096 . S
C535 C19 1.378 . S
C557 C157 1.055 . S
C553 C39 1.335 . S
C575 C325 1.217 . S
C571 C5 1.584 . S
C589 C23 1.559 . S
C593 C53 0.972 . S
