# Generated by pormake.
# Topology nom, (4,4)-cn, num edge types: 1
# Building blocks:
#     Node 0, Type 0, BuildingBlock: KUFVIS_clean_linker_0, # of connection points: 4
#     Node 1, Type 0, BuildingBlock: KUFVIS_clean_linker_0, # of connection points: 4
#     Node 2, Type 0, BuildingBlock: KUFVIS_clean_linker_0, # of connection points: 4
#     Node 3, Type 0, BuildingBlock: KUFVIS_clean_linker_0, # of connection points: 4
#     Node 4, Type 0, BuildingBlock: KUFVIS_clean_linker_0, # of connection points: 4
#     Node 5, Type 0, BuildingBlock: KUFVIS_clean_linker_0, # of connection points: 4
#     Node 6, Type 1, BuildingBlock: AZAVOO_clean_sbu_0, # of connection points: 4
#     Node 7, Type 1, BuildingBlock: AZAVOO_clean_sbu_0, # of connection points: 4
#     Node 8, Type 1, BuildingBlock: AZAVOO_clean_sbu_0, # of connection points: 4
#     Node 9, Type 1, BuildingBlock: AZAVOO_clean_sbu_0, # of connection points: 4
#     Node 10, Type 1, BuildingBlock: AZAVOO_clean_sbu_0, # of connection points: 4
#     Node 11, Type 1, BuildingBlock: AZAVOO_clean_sbu_0, # of connection points: 4
#     Edge 12, Type (0, 1), BuildingBlock: KIFKEQ_clean_linker_1, # of connection points: 2
#     Edge 13, Type (0, 1), BuildingBlock: KIFKEQ_clean_linker_1, # of connection points: 2
#     Edge 14, Type (0, 1), BuildingBlock: KIFKEQ_clean_linker_1, # of connection points: 2
#     Edge 15, Type (0, 1), BuildingBlock: KIFKEQ_clean_linker_1, # of connection points: 2
#     Edge 16, Type (0, 1), BuildingBlock: KIFKEQ_clean_linker_1, # of connection points: 2
#     Edge 17, Type (0, 1), BuildingBlock: KIFKEQ_clean_linker_1, # of connection points: 2
#     Edge 18, Type (0, 1), BuildingBlock: KIFKEQ_clean_linker_1, # of connection points: 2
#     Edge 19, Type (0, 1), BuildingBlock: KIFKEQ_clean_linker_1, # of connection points: 2
#     Edge 20, Type (0, 1), BuildingBlock: KIFKEQ_clean_linker_1, # of connection points: 2
#     Edge 21, Type (0, 1), BuildingBlock: KIFKEQ_clean_linker_1, # of connection points: 2
#     Edge 22, Type (0, 1), BuildingBlock: KIFKEQ_clean_linker_1, # of connection points: 2
#     Edge 23, Type (0, 1), BuildingBlock: KIFKEQ_clean_linker_1, # of connection points: 2
#     Edge 24, Type (0, 1), BuildingBlock: KIFKEQ_clean_linker_1, # of connection points: 2
#     Edge 25, Type (0, 1), BuildingBlock: KIFKEQ_clean_linker_1, # of connection points: 2
#     Edge 26, Type (0, 1), BuildingBlock: KIFKEQ_clean_linker_1, # of connection points: 2
#     Edge 27, Type (0, 1), BuildingBlock: KIFKEQ_clean_linker_1, # of connection points: 2
#     Edge 28, Type (0, 1), BuildingBlock: KIFKEQ_clean_linker_1, # of connection points: 2
#     Edge 29, Type (0, 1), BuildingBlock: KIFKEQ_clean_linker_1, # of connection points: 2
#     Edge 30, Type (0, 1), BuildingBlock: KIFKEQ_clean_linker_1, # of connection points: 2
#     Edge 31, Type (0, 1), BuildingBlock: KIFKEQ_clean_linker_1, # of connection points: 2
#     Edge 32, Type (0, 1), BuildingBlock: KIFKEQ_clean_linker_1, # of connection points: 2
#     Edge 33, Type (0, 1), BuildingBlock: KIFKEQ_clean_linker_1, # of connection points: 2
#     Edge 34, Type (0, 1), BuildingBlock: KIFKEQ_clean_linker_1, # of connection points: 2
#     Edge 35, Type (0, 1), BuildingBlock: KIFKEQ_clean_linker_1, # of connection points: 2
# Relax obj value: 0.031
# Max RMSD: 0.159
# Mean RMSD: 0.094
data_MOF--net-nom--node1-AZAVOO_clean_sbu_0--node2-KUFVIS_clean_linker_0--edge1-KIFKEQ_clean_linker_1
_symmetry_space_group_name_H-M    P1
_symmetry_Int_Tables_number       1
_symmetry_cell_setting            triclinic
loop_
_symmetry_equiv_pos_as_xyz
'x, y, z'
_cell_length_a     46.164613
_cell_length_b     46.569136
_cell_length_c     46.702629
_cell_angle_alpha  91.750512
_cell_angle_beta   91.716697
_cell_angle_gamma 120.03711
loop_
_atom_site_label
_atom_site_type_symbol
_atom_site_fract_x
_atom_site_fract_y
_atom_site_fract_z
_atom_type_partial_charge
H0 H 0.13986 0.59632 0.33366 0.0
H1 H 0.05692 0.56926 0.2745 0.0
H2 H 0.04069 0.5436 0.36355 0.0
H3 H 0.99287 0.54137 0.35546 0.0
H4 H 0.90882 0.48846 0.29612 0.0
H5 H 1.00745 0.52584 0.2661 0.0
C6 C 0.11296 0.58451 0.32944 0.0
C7 C 0.09164 0.57171 0.35201 0.0
C8 C 0.10049 0.58305 0.30157 0.0
C9 C 0.06579 0.56854 0.296 0.0
C10 C 0.04316 0.55325 0.318 0.0
C11 C 0.0568 0.55493 0.34607 0.0
C12 C 1.00573 0.53565 0.31178 0.0
C13 C 0.98358 0.53114 0.33387 0.0
C14 C 0.94881 0.51369 0.32809 0.0
C15 C 0.93581 0.50188 0.30019 0.0
C16 C 0.95681 0.50735 0.27756 0.0
C17 C 0.99164 0.52318 0.28359 0.0
H18 H 0.55979 0.13329 0.49559 0.0
H19 H 0.51119 0.05435 0.43087 0.0
H20 H 0.52353 0.03342 0.51895 0.0
H21 H 0.4774 0.9853 0.50751 0.0
H22 H 0.4563 0.90722 0.44546 0.0
H23 H 0.51317 1.00814 0.42165 0.0
C24 C 0.54702 0.10694 0.48949 0.0
C25 C 0.54139 0.08425 0.5104 0.0
C26 C 0.53714 0.09633 0.46077 0.0
C27 C 0.5198 0.06214 0.45304 0.0
C28 C 0.51435 0.03852 0.47381 0.0
C29 C 0.52605 0.0503 0.50253 0.0
C30 C 0.4975 1.00196 0.46564 0.0
C31 C 0.48017 0.97793 0.48603 0.0
C32 C 0.4666 0.94396 0.47895 0.0
C33 C 0.46834 0.93363 0.45104 0.0
C34 C 0.48455 0.95652 0.43019 0.0
C35 C 0.49943 0.99065 0.43762 0.0
H36 H 0.55334 0.42848 0.59586 0.0
H37 H 0.52289 0.47476 0.65916 0.0
H38 H 0.53087 0.50337 0.5711 0.0
H39 H 0.48993 0.51377 0.58322 0.0
H40 H 0.48915 0.58241 0.64596 0.0
H41 H 0.53827 0.52826 0.66759 0.0
C42 C 0.54454 0.44555 0.60119 0.0
C43 C 0.54135 0.46436 0.57983 0.0
C44 C 0.53814 0.44936 0.62966 0.0
C45 C 0.5285 0.47267 0.63711 0.0
C46 C 0.52557 0.49254 0.61614 0.0
C47 C 0.53232 0.48816 0.58749 0.0
C48 C 0.51592 0.51798 0.62412 0.0
C49 C 0.49779 0.5263 0.60428 0.0
C50 C 0.48904 0.55039 0.6117 0.0
C51 C 0.49772 0.56548 0.63941 0.0
C52 C 0.51483 0.55713 0.65966 0.0
C53 C 0.52432 0.53382 0.65186 0.0
H54 H 0.13934 0.55714 0.78518 0.0
H55 H 0.06531 0.5181 0.84798 0.0
H56 H 0.04045 0.53831 0.76341 0.0
H57 H 0.99171 0.49266 0.77042 0.0
H58 H 0.91846 0.46786 0.83344 0.0
H59 H 0.02242 0.52538 0.85963 0.0
C60 C 0.11392 0.5488 0.79126 0.0
C61 C 0.09054 0.54803 0.77115 0.0
C62 C 0.10509 0.53884 0.81906 0.0
C63 C 0.07209 0.52735 0.82681 0.0
C64 C 0.04792 0.52645 0.80676 0.0
C65 C 0.05797 0.53796 0.77913 0.0
C66 C 1.012 0.5118 0.81393 0.0
C67 C 0.98598 0.49495 0.79237 0.0
C68 C 0.95218 0.4801 0.79907 0.0
C69 C 0.94442 0.48082 0.82771 0.0
C70 C 0.96964 0.49646 0.84944 0.0
C71 C 1.00329 0.51284 0.84252 0.0
H72 H 0.45058 0.91539 -0.00197 0.0
H73 H 0.52109 0.98194 0.94038 0.0
H74 H 0.50077 0.02029 0.01795 0.0
H75 H 0.5575 0.05803 0.01478 0.0
H76 H 0.6046 0.12931 0.95112 0.0
H77 H 0.52542 0.03121 0.9251 0.0
C78 C 0.4672 0.94051 -0.00816 0.0
C79 C 0.47344 0.9673 0.01057 0.0
C80 C 0.48407 0.94547 0.96643 0.0
C81 C 0.50743 0.97807 0.95969 0.0
C82 C 0.51359 1.00552 0.97799 0.0
C83 C 0.49637 0.99972 0.00347 0.0
C84 C 0.53842 0.04005 0.9708 0.0
C85 C 0.5592 0.06422 -0.00751 0.0
C86 C 0.5831 0.09635 -0.01469 0.0
C87 C 0.58638 0.10431 0.95655 0.0
C88 C 0.56584 0.08092 0.93482 0.0
C89 C 0.54163 0.049 0.94201 0.0
H90 H 0.50449 0.62113 0.10395 0.0
H91 H 0.53355 0.57736 0.1701 0.0
H92 H 0.52493 0.54326 0.08133 0.0
H93 H 0.57302 0.54152 0.09879 0.0
H94 H 0.57389 0.47449 0.15923 0.0
H95 H 0.51556 0.52111 0.17474 0.0
C96 C 0.51232 0.6037 0.11025 0.0
C97 C 0.51455 0.58288 0.08931 0.0
C98 C 0.51858 0.60142 0.13933 0.0
C99 C 0.52792 0.57834 0.14758 0.0
C100 C 0.53101 0.55748 0.12674 0.0
C101 C 0.52364 0.55963 0.09761 0.0
C102 C 0.54217 0.53376 0.1353 0.0
C103 C 0.56395 0.5283 0.11818 0.0
C104 C 0.57558 0.5071 0.12696 0.0
C105 C 0.56462 0.4906 0.1523 0.0
C106 C 0.54315 0.49562 0.16952 0.0
C107 C 0.53208 0.51731 0.16115 0.0
Mg108 Mg 0.64224 0.38177 0.34994 0.0
O109 O 0.62883 0.40395 0.38869 0.0
O110 O 0.64981 0.45818 0.38212 0.0
Mg111 Mg 0.67545 0.47055 0.33986 0.0
C112 C 0.63374 0.43263 0.39673 0.0
C113 C 0.60676 0.30659 0.35945 0.0
O114 O 0.5946 0.30744 0.3339 0.0
O115 O 0.69733 0.40647 0.36657 0.0
O116 O 0.71528 0.4598 0.35874 0.0
O117 O 0.59453 0.37145 0.32743 0.0
O118 O 0.64262 0.41829 0.32494 0.0
C119 C 0.72049 0.43697 0.36748 0.0
C120 C 0.61079 0.40144 0.31889 0.0
O121 O 0.62787 0.33387 0.37269 0.0
Mg122 Mg 0.28866 0.65551 0.58278 0.0
O123 O 0.25116 0.63275 0.54364 0.0
O124 O 0.21841 0.57849 0.55052 0.0
Mg125 Mg 0.23312 0.56692 0.59387 0.0
C126 C 0.22704 0.6038 0.5356 0.0
C127 C 0.32806 0.73025 0.57418 0.0
O128 O 0.3153 0.72829 0.5993 0.0
O129 O 0.31836 0.63084 0.56737 0.0
O130 O 0.28408 0.57825 0.57791 0.0
O131 O 0.25279 0.66655 0.60468 0.0
O132 O 0.25287 0.61927 0.60728 0.0
C133 C 0.31176 0.60079 0.56883 0.0
C134 C 0.2388 0.63652 0.61308 0.0
O135 O 0.3219 0.70352 0.56054 0.0
Mg136 Mg 0.65307 0.27495 0.74283 0.0
O137 O 0.64092 0.23888 0.70347 0.0
O138 O 0.664 0.20767 0.71318 0.0
Mg139 Mg 0.69135 0.22395 0.75724 0.0
C140 C 0.64671 0.21544 0.69668 0.0
C141 C 0.62773 0.3237 0.73418 0.0
O142 O 0.63154 0.32416 0.76222 0.0
O143 O 0.7072 0.30714 0.73018 0.0
O144 O 0.72891 0.27547 0.74205 0.0
O145 O 0.60685 0.23734 0.76279 0.0
O146 O 0.65621 0.24075 0.7685 0.0
C147 C 0.73211 0.3024 0.73282 0.0
C148 C 0.62463 0.22516 0.77283 0.0
O149 O 0.63553 0.30582 0.71876 0.0
Mg150 Mg 0.41207 0.65564 0.85452 0.0
O151 O 0.42646 0.63422 0.89281 0.0
O152 O 0.40883 0.58093 0.88062 0.0
Mg153 Mg 0.38184 0.56764 0.8365 0.0
C154 C 0.4236 0.60617 0.89825 0.0
C155 C 0.44321 0.73044 0.86964 0.0
O156 O 0.45535 0.72981 0.84469 0.0
O157 O 0.35737 0.62932 0.8667 0.0
O158 O 0.34062 0.57637 0.85415 0.0
O159 O 0.46005 0.66772 0.8346 0.0
O160 O 0.4128 0.62009 0.82679 0.0
C161 C 0.33471 0.59866 0.86423 0.0
C162 C 0.44434 0.63793 0.82282 0.0
O163 O 0.42416 0.70301 0.88083 0.0
Mg164 Mg 0.77038 0.40032 0.03801 0.0
O165 O 0.80532 0.41429 0.07889 0.0
O166 O 0.83812 0.39219 0.07204 0.0
Mg167 Mg 0.82597 0.36617 0.02766 0.0
C168 C 0.82873 0.4089 0.08739 0.0
C169 C 0.72395 0.42898 0.04313 0.0
O170 O 0.73155 0.43195 0.01608 0.0
O171 O 0.73902 0.34604 0.05031 0.0
O172 O 0.77406 0.3272 0.04147 0.0
O173 O 0.80788 0.44684 0.01869 0.0
O174 O 0.80743 0.39924 0.01439 0.0
C175 C 0.74577 0.32255 0.04915 0.0
C176 C 0.82197 0.43045 0.00974 0.0
O177 O 0.73594 0.41567 0.0595 0.0
Mg178 Mg 0.38483 0.77162 0.19367 0.0
O179 O 0.4109 0.80808 0.2333 0.0
O180 O 0.4627 0.84462 0.22077 0.0
Mg181 Mg 0.47135 0.83004 0.17646 0.0
C182 C 0.43962 0.83412 0.23865 0.0
C183 C 0.31149 0.72748 0.20403 0.0
O184 O 0.31238 0.7388 0.17845 0.0
O185 O 0.41274 0.74375 0.20413 0.0
O186 O 0.46451 0.78097 0.19251 0.0
O187 O 0.36997 0.80657 0.17597 0.0
O188 O 0.41735 0.8079 0.16717 0.0
C189 C 0.4436 0.75271 0.20165 0.0
C190 C 0.39874 0.82112 0.16451 0.0
O191 O 0.33909 0.73655 0.21802 0.0
H192 H 0.11122 0.63466 0.26859 0.0
H193 H 0.14629 0.56641 0.28579 0.0
H194 H 0.16147 0.66848 0.24213 0.0
H195 H 0.19621 0.59981 0.25935 0.0
H196 H 0.29968 0.69338 0.25315 0.0
H197 H 0.2455 0.65527 0.27196 0.0
H198 H 0.19504 0.67129 0.20017 0.0
H199 H 0.24915 0.70954 0.18141 0.0
C200 C 0.12909 0.62631 0.26578 0.0
C201 C 0.12505 0.59807 0.27918 0.0
C202 C 0.15794 0.64572 0.25084 0.0
C203 C 0.18312 0.63714 0.24922 0.0
C204 C 0.17765 0.60746 0.2608 0.0
C205 C 0.14893 0.58814 0.27561 0.0
C206 C 0.27706 0.68876 0.24137 0.0
C207 C 0.27878 0.70448 0.21579 0.0
C208 C 0.24599 0.66674 0.25201 0.0
C209 C 0.21597 0.66008 0.2374 0.0
C210 C 0.2177 0.676 0.21195 0.0
C211 C 0.24875 0.69782 0.20119 0.0
H212 H 0.49616 0.10802 0.42531 0.0
H213 H 0.59987 0.14344 0.4496 0.0
H214 H 0.5128 0.15817 0.39862 0.0
H215 H 0.61666 0.193 0.42277 0.0
H216 H 0.62889 0.29528 0.4106 0.0
H217 H 0.61152 0.24204 0.43139 0.0
H218 H 0.54337 0.19119 0.35799 0.0
H219 H 0.56041 0.24455 0.33731 0.0
C220 C 0.52252 0.12607 0.42416 0.0
C221 C 0.54676 0.12206 0.43947 0.0
C222 C 0.53209 0.15481 0.40903 0.0
C223 C 0.56604 0.1799 0.40905 0.0
C224 C 0.59028 0.17461 0.4229 0.0
C225 C 0.58074 0.14608 0.43798 0.0
C226 C 0.61022 0.27279 0.39887 0.0
C227 C 0.59614 0.27423 0.37227 0.0
C228 C 0.60041 0.2422 0.41068 0.0
C229 C 0.57623 0.21229 0.39622 0.0
C230 C 0.5619 0.21374 0.36974 0.0
C231 C 0.57181 0.24436 0.35786 0.0
H232 H 0.43367 0.50727 0.5773 0.0
H233 H 0.4967 0.6113 0.60219 0.0
H234 H 0.39237 0.51895 0.55532 0.0
H235 H 0.45464 0.6227 0.58245 0.0
H236 H 0.37515 0.64047 0.54973 0.0
H237 H 0.42036 0.62772 0.54826 0.0
H238 H 0.3529 0.5289 0.57527 0.0
H239 H 0.3079 0.54097 0.57515 0.0
C240 C 0.43908 0.53275 0.57753 0.0
C241 C 0.46809 0.55822 0.59215 0.0
C242 C 0.41512 0.53944 0.56531 0.0
C243 C 0.41943 0.57164 0.56786 0.0
C244 C 0.45008 0.59757 0.57995 0.0
C245 C 0.47418 0.59097 0.59168 0.0
C246 C 0.36987 0.61579 0.55467 0.0
C247 C 0.33797 0.592 0.56305 0.0
C248 C 0.39588 0.60849 0.55404 0.0
C249 C 0.3907 0.57739 0.56214 0.0
C250 C 0.35813 0.55299 0.56855 0.0
C251 C 0.33216 0.56011 0.5688 0.0
H252 H 0.89453 0.48217 0.79188 0.0
H253 H 0.94664 0.43477 0.75711 0.0
H254 H 0.84349 0.44179 0.76532 0.0
H255 H 0.89581 0.39512 0.72904 0.0
H256 H 0.79076 0.30159 0.738 0.0
H257 H 0.84677 0.34892 0.74378 0.0
H258 H 0.80848 0.41428 0.72413 0.0
H259 H 0.75174 0.36661 0.71952 0.0
C260 C 0.89527 0.46361 0.77784 0.0
C261 C 0.92436 0.46115 0.77713 0.0
C262 C 0.86602 0.4406 0.76226 0.0
C263 C 0.86519 0.41465 0.74534 0.0
C264 C 0.8953 0.41428 0.74237 0.0
C265 C 0.92458 0.43725 0.7582 0.0
C266 C 0.7942 0.32594 0.73432 0.0
C267 C 0.76652 0.3303 0.72905 0.0
C268 C 0.8266 0.35325 0.73737 0.0
C269 C 0.83228 0.38568 0.73497 0.0
C270 C 0.80497 0.38975 0.72685 0.0
C271 C 0.7724 0.36236 0.72401 0.0
H272 H 0.53091 0.93422 0.94159 0.0
H273 H 0.42438 0.88974 0.95097 0.0
H274 H 0.52172 0.8827 0.91758 0.0
H275 H 0.41526 0.83833 0.92724 0.0
H276 H 0.41667 0.74089 0.91792 0.0
H277 H 0.42706 0.7939 0.93936 0.0
H278 H 0.49604 0.84574 0.87391 0.0
H279 H 0.48597 0.79285 0.85263 0.0
C280 C 0.5055 0.9137 0.93804 0.0
C281 C 0.47841 0.91601 0.94838 0.0
C282 C 0.50024 0.88412 0.9244 0.0
C283 C 0.4678 0.85624 0.9209 0.0
C284 C 0.44063 0.85907 0.9302 0.0
C285 C 0.44586 0.88859 0.94369 0.0
C286 C 0.43416 0.76359 0.90818 0.0
C287 C 0.45041 0.76258 0.88353 0.0
C288 C 0.43994 0.79396 0.92033 0.0
C289 C 0.46222 0.82405 0.90821 0.0
C290 C 0.47891 0.82306 0.88387 0.0
C291 C 0.47299 0.79269 0.87162 0.0
H292 H 0.63681 0.52074 0.1473 0.0
H293 H 0.56992 0.48235 0.07183 0.0
H294 H 0.67373 0.50376 0.1258 0.0
H295 H 0.60659 0.46454 0.05024 0.0
H296 H 0.69521 0.45871 0.0132 0.0
H297 H 0.66146 0.48145 0.03139 0.0
H298 H 0.67011 0.45074 0.11606 0.0
H299 H 0.70439 0.42857 0.09801 0.0
C300 C 0.63038 0.5091 0.12583 0.0
C301 C 0.60058 0.50276 0.11118 0.0
C302 C 0.65128 0.49902 0.11365 0.0
C303 C 0.64279 0.48215 0.08654 0.0
C304 C 0.6139 0.47753 0.07114 0.0
C305 C 0.59296 0.4878 0.08338 0.0
C306 C 0.68992 0.45679 0.03572 0.0
C307 C 0.70262 0.44189 0.05419 0.0
C308 C 0.67043 0.46973 0.0461 0.0
C309 C 0.66325 0.46817 0.07521 0.0
C310 C 0.67569 0.45295 0.09361 0.0
C311 C 0.69514 0.43999 0.08323 0.0
H312 H 0.4852 0.89989 0.49432 0.0
H313 H 0.41156 0.92894 0.50975 0.0
H314 H 0.45273 0.8494 0.51983 0.0
H315 H 0.37854 0.87796 0.53524 0.0
H316 H 0.34096 0.79082 0.5962 0.0
H317 H 0.37674 0.84526 0.57735 0.0
H318 H 0.39894 0.79868 0.50665 0.0
H319 H 0.36344 0.7443 0.52555 0.0
C320 C 0.46234 0.8957 0.50379 0.0
C321 C 0.45075 0.91813 0.50007 0.0
C322 C 0.44358 0.86667 0.5181 0.0
C323 C 0.41273 0.85935 0.52901 0.0
C324 C 0.40224 0.88293 0.52706 0.0
C325 C 0.42113 0.91215 0.51264 0.0
C326 C 0.35351 0.79217 0.57663 0.0
C327 C 0.34942 0.76318 0.5624 0.0
C328 C 0.37388 0.82339 0.56581 0.0
C329 C 0.39086 0.82632 0.54066 0.0
C330 C 0.38664 0.79731 0.52637 0.0
C331 C 0.36611 0.7661 0.53707 0.0
H332 H 0.51121 0.38247 0.6282 0.0
H333 H 0.57874 0.47206 0.6786 0.0
H334 H 0.53076 0.35139 0.65603 0.0
H335 H 0.59873 0.44103 0.70646 0.0
H336 H 0.61148 0.36637 0.76111 0.0
H337 H 0.58532 0.39561 0.73968 0.0
H338 H 0.58465 0.35259 0.65624 0.0
H339 H 0.61043 0.32317 0.67758 0.0
C340 C 0.52971 0.39529 0.64574 0.0
C341 C 0.54365 0.42965 0.65119 0.0
C342 C 0.54115 0.37762 0.66146 0.0
C343 C 0.56684 0.39392 0.68298 0.0
C344 C 0.57892 0.42779 0.68999 0.0
C345 C 0.56739 0.44553 0.67419 0.0
C346 C 0.60577 0.36317 0.73817 0.0
C347 C 0.61299 0.34237 0.72104 0.0
C348 C 0.59085 0.37999 0.72593 0.0
C349 C 0.58259 0.37615 0.69634 0.0
C350 C 0.5901 0.35557 0.67921 0.0
C351 C 0.60516 0.33892 0.6914 0.0
H352 H 0.13213 0.49931 0.81618 0.0
H353 H 0.13831 0.58269 0.86444 0.0
H354 H 0.18633 0.51206 0.83707 0.0
H355 H 0.1927 0.59541 0.88628 0.0
H356 H 0.30613 0.63788 0.86691 0.0
H357 H 0.2466 0.61936 0.86626 0.0
H358 H 0.22421 0.51826 0.87521 0.0
H359 H 0.28373 0.5367 0.87472 0.0
C360 C 0.14455 0.51948 0.83238 0.0
C361 C 0.13116 0.53993 0.83888 0.0
C362 C 0.1757 0.5269 0.84442 0.0
C363 C 0.19425 0.55509 0.86317 0.0
C364 C 0.17935 0.57384 0.87158 0.0
C365 C 0.14804 0.56634 0.85946 0.0
C366 C 0.28857 0.61181 0.8694 0.0
C367 C 0.29963 0.58868 0.87023 0.0
C368 C 0.25432 0.60115 0.86922 0.0
C369 C 0.23041 0.56715 0.87018 0.0
C370 C 0.24181 0.5445 0.8737 0.0
C371 C 0.27598 0.55509 0.87351 0.0
H372 H 0.65041 0.12605 -0.00803 0.0
H373 H 0.56518 0.12718 0.02586 0.0
H374 H 0.68791 0.17889 0.01747 0.0
H375 H 0.60281 0.18038 0.05206 0.0
H376 H 0.75382 0.27123 0.06551 0.0
H377 H 0.71232 0.21227 0.06081 0.0
H378 H 0.63639 0.23619 0.03545 0.0
H379 H 0.67779 0.29526 0.04113 0.0
C380 C 0.63988 0.13713 0.00589 0.0
C381 C 0.60506 0.12263 0.00713 0.0
C382 C 0.66133 0.16745 0.02059 0.0
C383 C 0.64843 0.18414 0.03675 0.0
C384 C 0.61355 0.16837 0.03959 0.0
C385 C 0.59202 0.13778 0.02492 0.0
C386 C 0.72805 0.26391 0.0597 0.0
C387 C 0.71919 0.28788 0.0532 0.0
C388 C 0.70428 0.23008 0.05687 0.0
C389 C 0.67116 0.21938 0.04708 0.0
C390 C 0.66161 0.24344 0.04313 0.0
C391 C 0.68539 0.27739 0.04631 0.0
H392 H 0.55146 0.6685 0.14259 0.0
H393 H 0.4745 0.58289 0.18208 0.0
H394 H 0.53487 0.70392 0.16785 0.0
H395 H 0.45779 0.6185 0.20805 0.0
H396 H 0.40675 0.68474 0.19675 0.0
H397 H 0.42869 0.64699 0.19142 0.0
H398 H 0.529 0.72872 0.21124 0.0
H399 H 0.50715 0.76654 0.21557 0.0
C400 C 0.53171 0.65753 0.15756 0.0
C401 C 0.51422 0.62309 0.16043 0.0
C402 C 0.5222 0.6778 0.17217 0.0
C403 C 0.49478 0.66407 0.18991 0.0
C404 C 0.47878 0.6298 0.19434 0.0
C405 C 0.48853 0.60947 0.17977 0.0
C406 C 0.43336 0.69445 0.20078 0.0
C407 C 0.4553 0.72871 0.20596 0.0
C408 C 0.44598 0.67277 0.19783 0.0
C409 C 0.48074 0.68494 0.20029 0.0
C410 C 0.5022 0.71867 0.20847 0.0
C411 C 0.48966 0.74033 0.21106 0.0
H412 H 0.91911 0.4614 0.36222 0.0
H413 H 0.92183 0.55189 0.34056 0.0
H414 H 0.86526 0.44225 0.38394 0.0
H415 H 0.86783 0.53278 0.36098 0.0
H416 H 0.769 0.49562 0.39293 0.0
H417 H 0.82903 0.51614 0.3966 0.0
H418 H 0.81118 0.42102 0.36228 0.0
H419 H 0.75113 0.40019 0.36013 0.0
C420 C 0.9088 0.47778 0.36332 0.0
C421 C 0.92462 0.50825 0.35014 0.0
C422 C 0.87769 0.46663 0.37527 0.0
C423 C 0.86166 0.48558 0.37379 0.0
C424 C 0.87927 0.5175 0.36293 0.0
C425 C 0.9104 0.52866 0.35124 0.0
C426 C 0.77793 0.47885 0.38697 0.0
C427 C 0.75545 0.44646 0.37584 0.0
C428 C 0.81239 0.49067 0.38888 0.0
C429 C 0.82526 0.47062 0.37908 0.0
C430 C 0.80243 0.43726 0.37024 0.0
C431 C 0.76786 0.42524 0.36886 0.0
H432 H 0.1436 0.62868 0.37628 0.0
H433 H 0.07429 0.52694 0.3945 0.0
H434 H 0.17521 0.63613 0.42075 0.0
H435 H 0.10466 0.53506 0.44064 0.0
H436 H 0.19065 0.54759 0.50114 0.0
H437 H 0.15495 0.53998 0.4588 0.0
H438 H 0.17906 0.64231 0.46993 0.0
H439 H 0.21624 0.65023 0.51114 0.0
C440 C 0.13482 0.60797 0.39011 0.0
C441 C 0.10684 0.57699 0.38158 0.0
C442 C 0.15275 0.61238 0.41593 0.0
C443 C 0.14281 0.58615 0.4344 0.0
C444 C 0.11356 0.55564 0.42668 0.0
C445 C 0.0958 0.55106 0.40046 0.0
C446 C 0.18848 0.56849 0.49432 0.0
C447 C 0.20657 0.59962 0.5092 0.0
C448 C 0.16764 0.56404 0.47024 0.0
C449 C 0.16389 0.59046 0.4608 0.0
C450 C 0.18176 0.62151 0.47606 0.0
C451 C 0.20313 0.62612 0.49975 0.0
H452 H 0.59101 0.08359 0.54285 0.0
H453 H 0.51796 0.11538 0.54423 0.0
H454 H 0.61664 0.11477 0.58846 0.0
H455 H 0.5423 0.14536 0.59035 0.0
H456 H 0.61794 0.22926 0.65095 0.0
H457 H 0.59096 0.19472 0.60735 0.0
H458 H 0.61195 0.12016 0.63842 0.0
H459 H 0.64007 0.15526 0.6814 0.0
C460 C 0.5799 0.09646 0.55347 0.0
C461 C 0.55258 0.09713 0.54032 0.0
C462 C 0.59452 0.11438 0.57954 0.0
C463 C 0.58185 0.13303 0.59297 0.0
C464 C 0.5533 0.13205 0.58033 0.0
C465 C 0.53902 0.11452 0.55416 0.0
C466 C 0.61693 0.20557 0.6484 0.0
C467 C 0.63126 0.19512 0.66964 0.0
C468 C 0.60117 0.18557 0.6235 0.0
C469 C 0.59896 0.15442 0.6194 0.0
C470 C 0.61349 0.14411 0.64062 0.0
C471 C 0.62957 0.16426 0.66535 0.0
H472 H 0.54066 0.62163 0.67872 0.0
H473 H 0.49606 0.52197 0.70786 0.0
H474 H 0.53051 0.64081 0.72439 0.0
H475 H 0.48643 0.54123 0.75398 0.0
H476 H 0.41752 0.57685 0.79512 0.0
H477 H 0.44422 0.55754 0.76191 0.0
H478 H 0.53749 0.6501 0.77682 0.0
H479 H 0.51056 0.66962 0.81031 0.0
C480 C 0.52984 0.60411 0.69537 0.0
C481 C 0.51871 0.57027 0.68968 0.0
C482 C 0.52412 0.61509 0.72161 0.0
C483 C 0.50708 0.5924 0.74262 0.0
C484 C 0.49911 0.55918 0.73799 0.0
C485 C 0.50495 0.54821 0.71173 0.0
C486 C 0.44389 0.59287 0.79192 0.0
C487 C 0.46181 0.62486 0.80529 0.0
C488 C 0.45933 0.58167 0.77295 0.0
C489 C 0.49304 0.60226 0.76672 0.0
C490 C 0.51143 0.63373 0.78106 0.0
C491 C 0.49599 0.64489 0.80023 0.0
H492 H 0.97578 0.5437 0.88943 0.0
H493 H 0.9403 0.43907 0.87596 0.0
H494 H 0.94851 0.53321 0.93541 0.0
H495 H 0.91259 0.42824 0.92092 0.0
H496 H 0.86886 0.41144 0.00376 0.0
H497 H 0.9148 0.43331 0.97165 0.0
H498 H 0.89041 0.50775 0.94696 0.0
H499 H 0.84525 0.48654 0.98003 0.0
C500 C 0.96289 0.51865 0.89677 0.0
C501 C 0.95989 0.49211 0.87941 0.0
C502 C 0.94706 0.51256 0.92285 0.0
C503 C 0.92815 0.47985 0.93181 0.0
C504 C 0.92727 0.45378 0.91507 0.0
C505 C 0.94295 0.45987 0.88918 0.0
C506 C 0.87357 0.43272 -0.00818 0.0
C507 C 0.85293 0.44674 -0.00611 0.0
C508 C 0.89997 0.44533 0.97341 0.0
C509 C 0.9059 0.47186 0.95625 0.0
C510 C 0.88677 0.48744 0.95995 0.0
C511 C 0.86066 0.47511 0.97874 0.0
H512 H 0.40823 0.92682 0.0228 0.0
H513 H 0.50688 0.99076 0.06253 0.0
H514 H 0.38911 0.90023 0.06795 0.0
H515 H 0.48764 0.96453 0.10793 0.0
H516 H 0.36315 0.85206 0.15165 0.0
H517 H 0.37966 0.899 0.121 0.0
H518 H 0.47592 0.90622 0.11215 0.0
H519 H 0.45947 0.85956 0.14193 0.0
C520 C 0.42537 0.93612 0.04157 0.0
C521 C 0.45916 0.96025 0.03913 0.0
C522 C 0.4144 0.92106 0.06748 0.0
C523 C 0.43714 0.92986 0.09124 0.0
C524 C 0.46977 0.95699 0.08976 0.0
C525 C 0.48071 0.97214 0.06385 0.0
C526 C 0.38806 0.86412 0.14357 0.0
C527 C 0.40995 0.85192 0.14915 0.0
C528 C 0.3975 0.89102 0.12614 0.0
C529 C 0.42914 0.90642 0.11438 0.0
C530 C 0.45162 0.89537 0.12137 0.0
C531 C 0.44205 0.86833 0.13836 0.0
H532 H 0.56052 0.52759 0.22212 0.0
H533 H 0.51247 0.43006 0.17962 0.0
H534 H 0.569 0.50466 0.26596 0.0
H535 H 0.52109 0.40708 0.22308 0.0
H536 H 0.54378 0.3726 0.30423 0.0
H537 H 0.51607 0.39531 0.27478 0.0
H538 H 0.61075 0.48599 0.26931 0.0
H539 H 0.63827 0.46345 0.29828 0.0
C540 C 0.55031 0.501 0.22266 0.0
C541 C 0.53612 0.48054 0.19761 0.0
C542 C 0.55548 0.48793 0.24758 0.0
C543 C 0.54638 0.45423 0.24772 0.0
C544 C 0.52834 0.43311 0.22371 0.0
C545 C 0.52336 0.44622 0.1988 0.0
C546 C 0.55854 0.39758 0.29708 0.0
C547 C 0.5933 0.41616 0.3035 0.0
C548 C 0.54264 0.41058 0.28032 0.0
C549 C 0.56116 0.44251 0.26989 0.0
C550 C 0.59559 0.4616 0.2775 0.0
C551 C 0.61148 0.44853 0.29399 0.0
H552 H 0.47273 0.97734 0.37903 0.0
H553 H 0.49601 0.90624 0.41465 0.0
H554 H 0.46272 0.94904 0.3315 0.0
H555 H 0.48463 0.87744 0.36764 0.0
H556 H 0.41213 0.8124 0.29032 0.0
H557 H 0.42642 0.8451 0.33599 0.0
H558 H 0.49669 0.93281 0.2942 0.0
H559 H 0.48307 0.90022 0.24875 0.0
C560 C 0.47632 0.95614 0.37664 0.0
C561 C 0.48462 0.94371 0.40066 0.0
C562 C 0.47032 0.93982 0.34956 0.0
C563 C 0.47218 0.91069 0.34624 0.0
C564 C 0.4823 0.89942 0.36986 0.0
C565 C 0.48884 0.91596 0.3967 0.0
C566 C 0.4305 0.83866 0.2909 0.0
C567 C 0.44665 0.85369 0.26607 0.0
C568 C 0.43877 0.85729 0.31697 0.0
C569 C 0.46273 0.89137 0.31847 0.0
C570 C 0.47812 0.9066 0.29352 0.0
C571 C 0.47042 0.88787 0.26762 0.0
H572 H 0.57522 0.51172 0.54089 0.0
H573 H 0.52512 0.40588 0.55111 0.0
H574 H 0.59413 0.50374 0.49478 0.0
H575 H 0.54669 0.39821 0.50684 0.0
H576 H 0.5737 0.38833 0.41715 0.0
H577 H 0.54679 0.39659 0.45811 0.0
H578 H 0.63425 0.49353 0.47698 0.0
H579 H 0.65971 0.48592 0.43474 0.0
C580 C 0.56799 0.48673 0.53322 0.0
C581 C 0.54913 0.45953 0.54998 0.0
C582 C 0.5794 0.48216 0.50699 0.0
C583 C 0.57271 0.45038 0.49716 0.0
C584 C 0.55235 0.42306 0.51334 0.0
C585 C 0.54035 0.42754 0.53912 0.0
C586 C 0.5871 0.41128 0.43023 0.0
C587 C 0.61879 0.43641 0.42297 0.0
C588 C 0.57175 0.4161 0.45378 0.0
C589 C 0.5882 0.44582 0.4711 0.0
C590 C 0.62028 0.47067 0.4639 0.0
C591 C 0.63517 0.46618 0.43991 0.0
H592 H 0.11538 0.51905 0.73678 0.0
H593 H 0.08897 0.59575 0.73934 0.0
H594 H 0.14306 0.53895 0.69245 0.0
H595 H 0.11618 0.61561 0.69399 0.0
H596 H 0.22021 0.66956 0.65027 0.0
H597 H 0.17459 0.64527 0.68287 0.0
H598 H 0.14118 0.548 0.64293 0.0
H599 H 0.18749 0.5723 0.61116 0.0
C600 C 0.11479 0.53971 0.72727 0.0
C601 C 0.10055 0.55621 0.74148 0.0
C602 C 0.13038 0.55099 0.7017 0.0
C603 C 0.13206 0.57907 0.68969 0.0
C604 C 0.11565 0.59417 0.70291 0.0
C605 C 0.09988 0.58273 0.72865 0.0
C606 C 0.20271 0.64307 0.6482 0.0
C607 C 0.20796 0.6226 0.62894 0.0
C608 C 0.17638 0.62915 0.6667 0.0
C609 C 0.15459 0.59456 0.66589 0.0
C610 C 0.15811 0.5746 0.64466 0.0
C611 C 0.18473 0.58846 0.62655 0.0
H612 H 0.62344 0.111 0.90686 0.0
H613 H 0.51723 0.07403 0.89564 0.0
H614 H 0.63247 0.1381 0.86181 0.0
H615 H 0.52598 0.10044 0.84963 0.0
H616 H 0.56956 0.20216 0.80448 0.0
H617 H 0.55038 0.1581 0.83823 0.0
H618 H 0.62531 0.13489 0.81089 0.0
H619 H 0.64497 0.17952 0.77791 0.0
C620 C 0.60192 0.10802 0.89427 0.0
C621 C 0.56974 0.0909 0.90482 0.0
C622 C 0.60699 0.12327 0.86827 0.0
C623 C 0.57995 0.12167 0.85216 0.0
C624 C 0.54736 0.10248 0.86175 0.0
C625 C 0.54229 0.08712 0.88789 0.0
C626 C 0.58149 0.18721 0.80535 0.0
C627 C 0.60942 0.19491 0.78923 0.0
C628 C 0.57035 0.16178 0.82454 0.0
C629 C 0.58672 0.14333 0.82763 0.0
C630 C 0.61276 0.14923 0.80958 0.0
C631 C 0.62414 0.17492 0.79073 0.0
H632 H 0.53965 0.6382 0.05854 0.0
H633 H 0.46917 0.53288 0.05242 0.0
H634 H 0.51971 0.64381 0.01125 0.0
H635 H 0.44823 0.53841 0.00546 0.0
H636 H 0.43411 0.55546 0.91224 0.0
H637 H 0.45934 0.54971 0.95651 0.0
H638 H 0.47143 0.64264 -0.00935 0.0
H639 H 0.44725 0.64899 0.94588 0.0
C640 C 0.52004 0.61621 0.04685 0.0
C641 C 0.50587 0.58513 0.05903 0.0
C642 C 0.50837 0.61943 0.01992 0.0
C643 C 0.48198 0.59167 0.00468 0.0
C644 C 0.46878 0.56029 0.01643 0.0
C645 C 0.48075 0.55704 0.04331 0.0
C646 C 0.44214 0.57471 0.92918 0.0
C647 C 0.43858 0.60269 0.92551 0.0
C648 C 0.45652 0.57132 0.95465 0.0
C649 C 0.46747 0.59568 0.97721 0.0
C650 C 0.46386 0.62366 0.97355 0.0
C651 C 0.44975 0.62721 0.94794 0.0
H652 H 0.90565 0.5134 0.25375 0.0
H653 H 0.97326 0.4776 0.23396 0.0
H654 H 0.87507 0.48987 0.20828 0.0
H655 H 0.94419 0.45627 0.18696 0.0
H656 H 0.86144 0.38664 0.12149 0.0
H657 H 0.89436 0.41258 0.16602 0.0
H658 H 0.87314 0.49278 0.15925 0.0
H659 H 0.83861 0.4656 0.11559 0.0
C660 C 0.91422 0.50072 0.23951 0.0
C661 C 0.94151 0.49676 0.24784 0.0
C662 C 0.89692 0.48763 0.21308 0.0
C663 C 0.90683 0.47082 0.19379 0.0
C664 C 0.93527 0.46835 0.20148 0.0
C665 C 0.95233 0.48105 0.22827 0.0
C666 C 0.86363 0.4097 0.1297 0.0
C667 C 0.84722 0.42395 0.1152 0.0
C668 C 0.88289 0.42484 0.15509 0.0
C669 C 0.88676 0.455 0.16636 0.0
C670 C 0.87035 0.46929 0.15166 0.0
C671 C 0.85052 0.45375 0.12656 0.0
loop_
_geom_bond_atom_site_label_1
_geom_bond_atom_site_label_2
_geom_bond_distance
_geom_bond_site_symmetry_2
_ccdc_geom_bond_type
H0 C6 0.930 . S
H1 C9 0.931 . S
H2 C11 0.931 . S
H3 C13 0.930 . S
H4 C15 0.930 . S
H5 C17 0.931 . S
C6 H0 0.930 . S
C6 C7 1.380 . S
C6 C8 1.394 . S
C7 C6 1.380 . S
C7 C11 1.382 . S
C8 C6 1.394 . S
C8 C9 1.400 . S
C9 H1 0.931 . S
C9 C8 1.400 . S
C9 C10 1.375 . S
C10 C9 1.375 . S
C10 C11 1.415 . S
C10 C12 1.501 1_455 S
C11 H2 0.931 . S
C11 C7 1.382 . S
C11 C10 1.415 . S
C12 C10 1.501 1_655 S
C12 C13 1.384 . S
C12 C17 1.408 . S
C13 H3 0.930 . S
C13 C12 1.384 . S
C13 C14 1.389 . S
C14 C13 1.389 . S
C14 C15 1.405 . S
C15 H4 0.930 . S
C15 C14 1.405 . S
C15 C16 1.364 . S
C16 C15 1.364 . S
C16 C17 1.400 . S
C17 H5 0.931 . S
C17 C12 1.408 . S
C17 C16 1.400 . S
H18 C24 0.930 . S
H19 C27 0.931 . S
H20 C29 0.931 . S
H21 C31 0.930 . S
H22 C33 0.930 . S
H23 C35 0.936 . S
C24 H18 0.930 . S
C24 C25 1.380 . S
C24 C26 1.394 . S
C25 C24 1.380 . S
C25 C29 1.382 . S
C26 C24 1.394 . S
C26 C27 1.400 . S
C27 H19 0.931 . S
C27 C26 1.400 . S
C27 C28 1.375 . S
C28 C27 1.375 . S
C28 C29 1.415 . S
C28 C30 1.501 1_545 S
C29 H20 0.931 . S
C29 C25 1.382 . S
C29 C28 1.415 . S
C30 C28 1.501 1_565 S
C30 C31 1.384 . S
C30 C35 1.408 . S
C31 H21 0.930 . S
C31 C30 1.384 . S
C31 C32 1.389 . S
C32 C31 1.389 . S
C32 C33 1.405 . S
C33 H22 0.930 . S
C33 C32 1.405 . S
C33 C34 1.364 . S
C34 C33 1.364 . S
C34 C35 1.400 . S
C35 H23 0.936 . S
C35 C30 1.408 . S
C35 C34 1.400 . S
H36 C42 0.930 . S
H37 C45 0.931 . S
H38 C47 0.931 . S
H39 C49 0.930 . S
H40 C51 0.930 . S
H41 C53 0.931 . S
C42 H36 0.930 . S
C42 C43 1.380 . S
C42 C44 1.394 . S
C43 C42 1.380 . S
C43 C47 1.382 . S
C44 C42 1.394 . S
C44 C45 1.400 . S
C45 H37 0.931 . S
C45 C44 1.400 . S
C45 C46 1.375 . S
C46 C45 1.375 . S
C46 C47 1.415 . S
C46 C48 1.501 . S
C47 H38 0.931 . S
C47 C43 1.382 . S
C47 C46 1.415 . S
C48 C46 1.501 . S
C48 C49 1.384 . S
C48 C53 1.408 . S
C49 H39 0.930 . S
C49 C48 1.384 . S
C49 C50 1.389 . S
C50 C49 1.389 . S
C50 C51 1.405 . S
C51 H40 0.930 . S
C51 C50 1.405 . S
C51 C52 1.364 . S
C52 C51 1.364 . S
C52 C53 1.400 . S
C53 H41 0.931 . S
C53 C48 1.408 . S
C53 C52 1.400 . S
H54 C60 0.930 . S
H55 C63 0.931 . S
H56 C65 0.931 . S
H57 C67 0.930 . S
H58 C69 0.930 . S
H59 C71 0.931 . S
C60 H54 0.930 . S
C60 C61 1.380 . S
C60 C62 1.394 . S
C61 C60 1.380 . S
C61 C65 1.382 . S
C62 C60 1.394 . S
C62 C63 1.400 . S
C63 H55 0.931 . S
C63 C62 1.400 . S
C63 C64 1.375 . S
C64 C63 1.375 . S
C64 C65 1.415 . S
C64 C66 1.501 1_455 S
C65 H56 0.931 . S
C65 C61 1.382 . S
C65 C64 1.415 . S
C66 C64 1.501 1_655 S
C66 C67 1.384 . S
C66 C71 1.408 . S
C67 H57 0.930 . S
C67 C66 1.384 . S
C67 C68 1.389 . S
C68 C67 1.389 . S
C68 C69 1.405 . S
C69 H58 0.930 . S
C69 C68 1.405 . S
C69 C70 1.364 . S
C70 C69 1.364 . S
C70 C71 1.400 . S
C71 H59 0.931 . S
C71 C66 1.408 . S
C71 C70 1.400 . S
H72 C78 0.930 . S
H73 C81 0.931 . S
H74 C83 0.931 1_545 S
H75 C85 0.930 . S
H76 C87 0.930 . S
H77 C89 0.931 . S
C78 H72 0.930 . S
C78 C79 1.380 . S
C78 C80 1.394 1_554 S
C79 C78 1.380 . S
C79 C83 1.382 . S
C80 C78 1.394 1_556 S
C80 C81 1.400 . S
C81 H73 0.931 . S
C81 C80 1.400 . S
C81 C82 1.375 . S
C82 C81 1.375 . S
C82 C83 1.415 1_556 S
C82 C84 1.501 1_565 S
C83 H74 0.931 1_565 S
C83 C79 1.382 . S
C83 C82 1.415 1_554 S
C84 C82 1.501 1_545 S
C84 C85 1.384 1_556 S
C84 C89 1.408 . S
C85 H75 0.930 . S
C85 C84 1.384 1_554 S
C85 C86 1.389 1_554 S
C86 C85 1.389 1_556 S
C86 C87 1.405 . S
C87 H76 0.930 . S
C87 C86 1.405 . S
C87 C88 1.364 . S
C88 C87 1.364 . S
C88 C89 1.400 . S
C89 H77 0.931 . S
C89 C84 1.408 . S
C89 C88 1.400 . S
H90 C96 0.930 . S
H91 C99 0.931 . S
H92 C101 0.931 . S
H93 C103 0.930 . S
H94 C105 0.930 . S
H95 C107 0.931 . S
C96 H90 0.930 . S
C96 C97 1.380 . S
C96 C98 1.394 . S
C97 C96 1.380 . S
C97 C101 1.382 . S
C98 C96 1.394 . S
C98 C99 1.400 . S
C99 H91 0.931 . S
C99 C98 1.400 . S
C99 C100 1.375 . S
C100 C99 1.375 . S
C100 C101 1.415 . S
C100 C102 1.501 . S
C101 H92 0.931 . S
C101 C97 1.382 . S
C101 C100 1.415 . S
C102 C100 1.501 . S
C102 C103 1.384 . S
C102 C107 1.408 . S
C103 H93 0.930 . S
C103 C102 1.384 . S
C103 C104 1.389 . S
C104 C103 1.389 . S
C104 C105 1.405 . S
C105 H94 0.930 . S
C105 C104 1.405 . S
C105 C106 1.364 . S
C106 C105 1.364 . S
C106 C107 1.400 . S
C107 H95 0.931 . S
C107 C102 1.408 . S
C107 C106 1.400 . S
Mg108 O109 2.028 . S
Mg108 O115 1.986 . S
Mg108 O117 2.114 . S
Mg108 O118 2.251 . S
Mg108 O121 2.010 . S
O109 Mg108 2.028 . S
O109 C112 1.250 . S
O110 Mg111 2.028 . S
O110 C112 1.248 . S
Mg111 O110 2.028 . S
Mg111 O116 2.032 . S
Mg111 O118 2.079 . S
C112 O109 1.250 . S
C112 O110 1.248 . S
C113 O114 1.264 . S
C113 O121 1.249 . S
O114 C113 1.264 . S
O115 Mg108 1.986 . S
O115 C119 1.246 . S
O116 Mg111 2.032 . S
O116 C119 1.259 . S
O117 Mg108 2.114 . S
O117 C120 1.252 . S
O118 Mg108 2.251 . S
O118 Mg111 2.079 . S
O118 C120 1.273 . S
C119 O115 1.246 . S
C119 O116 1.259 . S
C120 O117 1.252 . S
C120 O118 1.273 . S
O121 Mg108 2.010 . S
O121 C113 1.249 . S
Mg122 O123 2.028 . S
Mg122 O129 1.986 . S
Mg122 O131 2.114 . S
Mg122 O132 2.251 . S
Mg122 O135 2.010 . S
O123 Mg122 2.028 . S
O123 C126 1.250 . S
O124 Mg125 2.028 . S
O124 C126 1.248 . S
Mg125 O124 2.028 . S
Mg125 O130 2.032 . S
Mg125 O132 2.079 . S
C126 O123 1.250 . S
C126 O124 1.248 . S
C127 O128 1.264 . S
C127 O135 1.249 . S
O128 C127 1.264 . S
O129 Mg122 1.986 . S
O129 C133 1.246 . S
O130 Mg125 2.032 . S
O130 C133 1.259 . S
O131 Mg122 2.114 . S
O131 C134 1.252 . S
O132 Mg122 2.251 . S
O132 Mg125 2.079 . S
O132 C134 1.273 . S
C133 O129 1.246 . S
C133 O130 1.259 . S
C134 O131 1.252 . S
C134 O132 1.273 . S
O135 Mg122 2.010 . S
O135 C127 1.249 . S
Mg136 O137 2.028 . S
Mg136 O143 1.986 . S
Mg136 O145 2.114 . S
Mg136 O146 2.251 . S
Mg136 O149 2.010 . S
O137 Mg136 2.028 . S
O137 C140 1.250 . S
O138 Mg139 2.028 . S
O138 C140 1.248 . S
Mg139 O138 2.028 . S
Mg139 O144 2.032 . S
Mg139 O146 2.079 . S
C140 O137 1.250 . S
C140 O138 1.248 . S
C141 O142 1.264 . S
C141 O149 1.249 . S
O142 C141 1.264 . S
O143 Mg136 1.986 . S
O143 C147 1.246 . S
O144 Mg139 2.032 . S
O144 C147 1.259 . S
O145 Mg136 2.114 . S
O145 C148 1.252 . S
O146 Mg136 2.251 . S
O146 Mg139 2.079 . S
O146 C148 1.273 . S
C147 O143 1.246 . S
C147 O144 1.259 . S
C148 O145 1.252 . S
C148 O146 1.273 . S
O149 Mg136 2.010 . S
O149 C141 1.249 . S
Mg150 O151 2.028 . S
Mg150 O157 1.986 . S
Mg150 O159 2.114 . S
Mg150 O160 2.251 . S
Mg150 O163 2.010 . S
O151 Mg150 2.028 . S
O151 C154 1.250 . S
O152 Mg153 2.028 . S
O152 C154 1.248 . S
Mg153 O152 2.028 . S
Mg153 O158 2.032 . S
Mg153 O160 2.079 . S
C154 O151 1.250 . S
C154 O152 1.248 . S
C155 O156 1.264 . S
C155 O163 1.249 . S
O156 C155 1.264 . S
O157 Mg150 1.986 . S
O157 C161 1.246 . S
O158 Mg153 2.032 . S
O158 C161 1.259 . S
O159 Mg150 2.114 . S
O159 C162 1.252 . S
O160 Mg150 2.251 . S
O160 Mg153 2.079 . S
O160 C162 1.273 . S
C161 O157 1.246 . S
C161 O158 1.259 . S
C162 O159 1.252 . S
C162 O160 1.273 . S
O163 Mg150 2.010 . S
O163 C155 1.249 . S
Mg164 O165 2.028 . S
Mg164 O171 1.986 . S
Mg164 O173 2.114 . S
Mg164 O174 2.251 . S
Mg164 O177 2.010 . S
O165 Mg164 2.028 . S
O165 C168 1.250 . S
O166 Mg167 2.028 . S
O166 C168 1.248 . S
Mg167 O166 2.028 . S
Mg167 O172 2.032 . S
Mg167 O174 2.079 . S
C168 O165 1.250 . S
C168 O166 1.248 . S
C169 O170 1.264 . S
C169 O177 1.249 . S
O170 C169 1.264 . S
O171 Mg164 1.986 . S
O171 C175 1.246 . S
O172 Mg167 2.032 . S
O172 C175 1.259 . S
O173 Mg164 2.114 . S
O173 C176 1.252 . S
O174 Mg164 2.251 . S
O174 Mg167 2.079 . S
O174 C176 1.273 . S
C175 O171 1.246 . S
C175 O172 1.259 . S
C176 O173 1.252 . S
C176 O174 1.273 . S
O177 Mg164 2.010 . S
O177 C169 1.249 . S
Mg178 O179 2.028 . S
Mg178 O185 1.986 . S
Mg178 O187 2.114 . S
Mg178 O188 2.251 . S
Mg178 O191 2.010 . S
O179 Mg178 2.028 . S
O179 C182 1.250 . S
O180 Mg181 2.028 . S
O180 C182 1.248 . S
Mg181 O180 2.028 . S
Mg181 O186 2.032 . S
Mg181 O188 2.079 . S
C182 O179 1.250 . S
C182 O180 1.248 . S
C183 O184 1.264 . S
C183 O191 1.249 . S
O184 C183 1.264 . S
O185 Mg178 1.986 . S
O185 C189 1.246 . S
O186 Mg181 2.032 . S
O186 C189 1.259 . S
O187 Mg178 2.114 . S
O187 C190 1.252 . S
O188 Mg178 2.251 . S
O188 Mg181 2.079 . S
O188 C190 1.273 . S
C189 O185 1.246 . S
C189 O186 1.259 . S
C190 O187 1.252 . S
C190 O188 1.273 . S
O191 Mg178 2.010 . S
O191 C183 1.249 . S
H192 C200 0.950 . S
H193 C205 0.950 . S
H194 C202 0.950 . S
H195 C204 0.950 . S
H196 C206 0.950 . S
H197 C208 0.950 . S
H198 C210 0.950 . S
H199 C211 0.950 . S
C200 H192 0.950 . S
C200 C201 1.386 . S
C200 C202 1.391 . S
C201 C200 1.386 . S
C201 C205 1.393 . S
C202 H194 0.950 . S
C202 C200 1.391 . S
C202 C203 1.400 . S
C203 C202 1.400 . S
C203 C204 1.398 . S
C203 C209 1.491 . S
C204 H195 0.950 . S
C204 C203 1.398 . S
C204 C205 1.391 . S
C205 H193 0.950 . S
C205 C201 1.393 . S
C205 C204 1.391 . S
C206 H196 0.950 . S
C206 C207 1.386 . S
C206 C208 1.391 . S
C207 C206 1.386 . S
C207 C211 1.393 . S
C208 H197 0.950 . S
C208 C206 1.391 . S
C208 C209 1.400 . S
C209 C203 1.491 . S
C209 C208 1.400 . S
C209 C210 1.398 . S
C210 H198 0.950 . S
C210 C209 1.398 . S
C210 C211 1.391 . S
C211 H199 0.950 . S
C211 C207 1.393 . S
C211 C210 1.391 . S
H212 C220 0.950 . S
H213 C225 0.950 . S
H214 C222 0.950 . S
H215 C224 0.950 . S
H216 C226 0.950 . S
H217 C228 0.950 . S
H218 C230 0.950 . S
H219 C231 0.950 . S
C220 H212 0.950 . S
C220 C221 1.386 . S
C220 C222 1.391 . S
C221 C220 1.386 . S
C221 C225 1.393 . S
C222 H214 0.950 . S
C222 C220 1.391 . S
C222 C223 1.400 . S
C223 C222 1.400 . S
C223 C224 1.398 . S
C223 C229 1.491 . S
C224 H215 0.950 . S
C224 C223 1.398 . S
C224 C225 1.391 . S
C225 H213 0.950 . S
C225 C221 1.393 . S
C225 C224 1.391 . S
C226 H216 0.950 . S
C226 C227 1.386 . S
C226 C228 1.391 . S
C227 C226 1.386 . S
C227 C231 1.393 . S
C228 H217 0.950 . S
C228 C226 1.391 . S
C228 C229 1.400 . S
C229 C223 1.491 . S
C229 C228 1.400 . S
C229 C230 1.398 . S
C230 H218 0.950 . S
C230 C229 1.398 . S
C230 C231 1.391 . S
C231 H219 0.950 . S
C231 C227 1.393 . S
C231 C230 1.391 . S
H232 C240 0.950 . S
H233 C245 0.950 . S
H234 C242 0.950 . S
H235 C244 0.950 . S
H236 C246 0.950 . S
H237 C248 0.950 . S
H238 C250 0.950 . S
H239 C251 0.950 . S
C240 H232 0.950 . S
C240 C241 1.386 . S
C240 C242 1.391 . S
C241 C240 1.386 . S
C241 C245 1.393 . S
C242 H234 0.950 . S
C242 C240 1.391 . S
C242 C243 1.400 . S
C243 C242 1.400 . S
C243 C244 1.398 . S
C243 C249 1.491 . S
C244 H235 0.950 . S
C244 C243 1.398 . S
C244 C245 1.391 . S
C245 H233 0.950 . S
C245 C241 1.393 . S
C245 C244 1.391 . S
C246 H236 0.950 . S
C246 C247 1.386 . S
C246 C248 1.391 . S
C247 C246 1.386 . S
C247 C251 1.393 . S
C248 H237 0.950 . S
C248 C246 1.391 . S
C248 C249 1.400 . S
C249 C243 1.491 . S
C249 C248 1.400 . S
C249 C250 1.398 . S
C250 H238 0.950 . S
C250 C249 1.398 . S
C250 C251 1.391 . S
C251 H239 0.950 . S
C251 C247 1.393 . S
C251 C250 1.391 . S
H252 C260 0.950 . S
H253 C265 0.950 . S
H254 C262 0.950 . S
H255 C264 0.950 . S
H256 C266 0.950 . S
H257 C268 0.950 . S
H258 C270 0.950 . S
H259 C271 0.950 . S
C260 H252 0.950 . S
C260 C261 1.386 . S
C260 C262 1.391 . S
C261 C260 1.386 . S
C261 C265 1.393 . S
C262 H254 0.950 . S
C262 C260 1.391 . S
C262 C263 1.400 . S
C263 C262 1.400 . S
C263 C264 1.398 . S
C263 C269 1.491 . S
C264 H255 0.950 . S
C264 C263 1.398 . S
C264 C265 1.391 . S
C265 H253 0.950 . S
C265 C261 1.393 . S
C265 C264 1.391 . S
C266 H256 0.950 . S
C266 C267 1.386 . S
C266 C268 1.391 . S
C267 C266 1.386 . S
C267 C271 1.393 . S
C268 H257 0.950 . S
C268 C266 1.391 . S
C268 C269 1.400 . S
C269 C263 1.491 . S
C269 C268 1.400 . S
C269 C270 1.398 . S
C270 H258 0.950 . S
C270 C269 1.398 . S
C270 C271 1.391 . S
C271 H259 0.950 . S
C271 C267 1.393 . S
C271 C270 1.391 . S
H272 C280 0.950 . S
H273 C285 0.950 . S
H274 C282 0.950 . S
H275 C284 0.950 . S
H276 C286 0.950 . S
H277 C288 0.950 . S
H278 C290 0.950 . S
H279 C291 0.950 . S
C280 H272 0.950 . S
C280 C281 1.386 . S
C280 C282 1.391 . S
C281 C280 1.386 . S
C281 C285 1.393 . S
C282 H274 0.950 . S
C282 C280 1.391 . S
C282 C283 1.400 . S
C283 C282 1.400 . S
C283 C284 1.398 . S
C283 C289 1.491 . S
C284 H275 0.950 . S
C284 C283 1.398 . S
C284 C285 1.391 . S
C285 H273 0.950 . S
C285 C281 1.393 . S
C285 C284 1.391 . S
C286 H276 0.950 . S
C286 C287 1.386 . S
C286 C288 1.391 . S
C287 C286 1.386 . S
C287 C291 1.393 . S
C288 H277 0.950 . S
C288 C286 1.391 . S
C288 C289 1.400 . S
C289 C283 1.491 . S
C289 C288 1.400 . S
C289 C290 1.398 . S
C290 H278 0.950 . S
C290 C289 1.398 . S
C290 C291 1.391 . S
C291 H279 0.950 . S
C291 C287 1.393 . S
C291 C290 1.391 . S
H292 C300 0.950 . S
H293 C305 0.950 . S
H294 C302 0.950 . S
H295 C304 0.950 . S
H296 C306 0.950 . S
H297 C308 0.950 . S
H298 C310 0.950 . S
H299 C311 0.950 . S
C300 H292 0.950 . S
C300 C301 1.386 . S
C300 C302 1.391 . S
C301 C300 1.386 . S
C301 C305 1.393 . S
C302 H294 0.950 . S
C302 C300 1.391 . S
C302 C303 1.400 . S
C303 C302 1.400 . S
C303 C304 1.398 . S
C303 C309 1.491 . S
C304 H295 0.950 . S
C304 C303 1.398 . S
C304 C305 1.391 . S
C305 H293 0.950 . S
C305 C301 1.393 . S
C305 C304 1.391 . S
C306 H296 0.950 . S
C306 C307 1.386 . S
C306 C308 1.391 . S
C307 C306 1.386 . S
C307 C311 1.393 . S
C308 H297 0.950 . S
C308 C306 1.391 . S
C308 C309 1.400 . S
C309 C303 1.491 . S
C309 C308 1.400 . S
C309 C310 1.398 . S
C310 H298 0.950 . S
C310 C309 1.398 . S
C310 C311 1.391 . S
C311 H299 0.950 . S
C311 C307 1.393 . S
C311 C310 1.391 . S
H312 C320 0.950 . S
H313 C325 0.950 . S
H314 C322 0.950 . S
H315 C324 0.950 . S
H316 C326 0.950 . S
H317 C328 0.950 . S
H318 C330 0.950 . S
H319 C331 0.950 . S
C320 H312 0.950 . S
C320 C321 1.386 . S
C320 C322 1.391 . S
C321 C320 1.386 . S
C321 C325 1.393 . S
C322 H314 0.950 . S
C322 C320 1.391 . S
C322 C323 1.400 . S
C323 C322 1.400 . S
C323 C324 1.398 . S
C323 C329 1.491 . S
C324 H315 0.950 . S
C324 C323 1.398 . S
C324 C325 1.391 . S
C325 H313 0.950 . S
C325 C321 1.393 . S
C325 C324 1.391 . S
C326 H316 0.950 . S
C326 C327 1.386 . S
C326 C328 1.391 . S
C327 C326 1.386 . S
C327 C331 1.393 . S
C328 H317 0.950 . S
C328 C326 1.391 . S
C328 C329 1.400 . S
C329 C323 1.491 . S
C329 C328 1.400 . S
C329 C330 1.398 . S
C330 H318 0.950 . S
C330 C329 1.398 . S
C330 C331 1.391 . S
C331 H319 0.950 . S
C331 C327 1.393 . S
C331 C330 1.391 . S
H332 C340 0.950 . S
H333 C345 0.950 . S
H334 C342 0.950 . S
H335 C344 0.950 . S
H336 C346 0.950 . S
H337 C348 0.950 . S
H338 C350 0.950 . S
H339 C351 0.950 . S
C340 H332 0.950 . S
C340 C341 1.386 . S
C340 C342 1.391 . S
C341 C340 1.386 . S
C341 C345 1.393 . S
C342 H334 0.950 . S
C342 C340 1.391 . S
C342 C343 1.400 . S
C343 C342 1.400 . S
C343 C344 1.398 . S
C343 C349 1.491 . S
C344 H335 0.950 . S
C344 C343 1.398 . S
C344 C345 1.391 . S
C345 H333 0.950 . S
C345 C341 1.393 . S
C345 C344 1.391 . S
C346 H336 0.950 . S
C346 C347 1.386 . S
C346 C348 1.391 . S
C347 C346 1.386 . S
C347 C351 1.393 . S
C348 H337 0.950 . S
C348 C346 1.391 . S
C348 C349 1.400 . S
C349 C343 1.491 . S
C349 C348 1.400 . S
C349 C350 1.398 . S
C350 H338 0.950 . S
C350 C349 1.398 . S
C350 C351 1.391 . S
C351 H339 0.950 . S
C351 C347 1.393 . S
C351 C350 1.391 . S
H352 C360 0.950 . S
H353 C365 0.950 . S
H354 C362 0.950 . S
H355 C364 0.950 . S
H356 C366 0.950 . S
H357 C368 0.950 . S
H358 C370 0.950 . S
H359 C371 0.950 . S
C360 H352 0.950 . S
C360 C361 1.386 . S
C360 C362 1.391 . S
C361 C360 1.386 . S
C361 C365 1.393 . S
C362 H354 0.950 . S
C362 C360 1.391 . S
C362 C363 1.400 . S
C363 C362 1.400 . S
C363 C364 1.398 . S
C363 C369 1.491 . S
C364 H355 0.950 . S
C364 C363 1.398 . S
C364 C365 1.391 . S
C365 H353 0.950 . S
C365 C361 1.393 . S
C365 C364 1.391 . S
C366 H356 0.950 . S
C366 C367 1.386 . S
C366 C368 1.391 . S
C367 C366 1.386 . S
C367 C371 1.393 . S
C368 H357 0.950 . S
C368 C366 1.391 . S
C368 C369 1.400 . S
C369 C363 1.491 . S
C369 C368 1.400 . S
C369 C370 1.398 . S
C370 H358 0.950 . S
C370 C369 1.398 . S
C370 C371 1.391 . S
C371 H359 0.950 . S
C371 C367 1.393 . S
C371 C370 1.391 . S
H372 C380 0.950 . S
H373 C385 0.950 . S
H374 C382 0.924 1_556 S
H375 C384 0.950 . S
H376 C386 0.950 . S
H377 C388 0.950 . S
H378 C390 0.950 1_556 S
H379 C391 0.950 . S
C380 H372 0.950 . S
C380 C381 1.386 1_556 S
C380 C382 1.383 1_556 S
C381 C380 1.386 1_554 S
C381 C385 1.393 . S
C382 H374 0.924 1_554 S
C382 C380 1.383 1_554 S
C382 C383 1.435 . S
C383 C382 1.435 . S
C383 C384 1.398 . S
C383 C389 1.491 . S
C384 H375 0.950 . S
C384 C383 1.398 . S
C384 C385 1.391 . S
C385 H373 0.950 . S
C385 C381 1.393 . S
C385 C384 1.391 . S
C386 H376 0.950 . S
C386 C387 1.386 . S
C386 C388 1.391 . S
C387 C386 1.386 . S
C387 C391 1.393 . S
C388 H377 0.950 . S
C388 C386 1.391 . S
C388 C389 1.400 . S
C389 C383 1.491 . S
C389 C388 1.400 . S
C389 C390 1.398 . S
C390 H378 0.950 1_554 S
C390 C389 1.398 . S
C390 C391 1.391 . S
C391 H379 0.950 . S
C391 C387 1.393 . S
C391 C390 1.391 . S
H392 C400 0.950 . S
H393 C405 0.950 . S
H394 C402 0.950 . S
H395 C404 0.950 . S
H396 C406 0.950 . S
H397 C408 0.950 . S
H398 C410 0.950 . S
H399 C411 0.950 . S
C400 H392 0.950 . S
C400 C401 1.386 . S
C400 C402 1.391 . S
C401 C400 1.386 . S
C401 C405 1.393 . S
C402 H394 0.950 . S
C402 C400 1.391 . S
C402 C403 1.400 . S
C403 C402 1.400 . S
C403 C404 1.398 . S
C403 C409 1.491 . S
C404 H395 0.950 . S
C404 C403 1.398 . S
C404 C405 1.391 . S
C405 H393 0.950 . S
C405 C401 1.393 . S
C405 C404 1.391 . S
C406 H396 0.950 . S
C406 C407 1.386 . S
C406 C408 1.391 . S
C407 C406 1.386 . S
C407 C411 1.393 . S
C408 H397 0.950 . S
C408 C406 1.391 . S
C408 C409 1.400 . S
C409 C403 1.491 . S
C409 C408 1.400 . S
C409 C410 1.398 . S
C410 H398 0.950 . S
C410 C409 1.398 . S
C410 C411 1.391 . S
C411 H399 0.950 . S
C411 C407 1.393 . S
C411 C410 1.391 . S
H412 C420 0.950 . S
H413 C425 0.950 . S
H414 C422 0.950 . S
H415 C424 0.950 . S
H416 C426 0.950 . S
H417 C428 0.950 . S
H418 C430 0.950 . S
H419 C431 0.950 . S
C420 H412 0.950 . S
C420 C421 1.386 . S
C420 C422 1.391 . S
C421 C420 1.386 . S
C421 C425 1.393 . S
C422 H414 0.950 . S
C422 C420 1.391 . S
C422 C423 1.400 . S
C423 C422 1.400 . S
C423 C424 1.398 . S
C423 C429 1.491 . S
C424 H415 0.950 . S
C424 C423 1.398 . S
C424 C425 1.391 . S
C425 H413 0.950 . S
C425 C421 1.393 . S
C425 C424 1.391 . S
C426 H416 0.950 . S
C426 C427 1.386 . S
C426 C428 1.391 . S
C427 C426 1.386 . S
C427 C431 1.393 . S
C428 H417 0.950 . S
C428 C426 1.391 . S
C428 C429 1.400 . S
C429 C423 1.491 . S
C429 C428 1.400 . S
C429 C430 1.398 . S
C430 H418 0.950 . S
C430 C429 1.398 . S
C430 C431 1.391 . S
C431 H419 0.950 . S
C431 C427 1.393 . S
C431 C430 1.391 . S
H432 C440 0.950 . S
H433 C445 0.950 . S
H434 C442 0.950 . S
H435 C444 0.950 . S
H436 C446 0.950 . S
H437 C448 0.950 . S
H438 C450 0.950 . S
H439 C451 0.950 . S
C440 H432 0.950 . S
C440 C441 1.386 . S
C440 C442 1.391 . S
C441 C440 1.386 . S
C441 C445 1.393 . S
C442 H434 0.950 . S
C442 C440 1.391 . S
C442 C443 1.400 . S
C443 C442 1.400 . S
C443 C444 1.398 . S
C443 C449 1.491 . S
C444 H435 0.950 . S
C444 C443 1.398 . S
C444 C445 1.391 . S
C445 H433 0.950 . S
C445 C441 1.393 . S
C445 C444 1.391 . S
C446 H436 0.950 . S
C446 C447 1.386 . S
C446 C448 1.391 . S
C447 C446 1.386 . S
C447 C451 1.393 . S
C448 H437 0.950 . S
C448 C446 1.391 . S
C448 C449 1.400 . S
C449 C443 1.491 . S
C449 C448 1.400 . S
C449 C450 1.398 . S
C450 H438 0.950 . S
C450 C449 1.398 . S
C450 C451 1.391 . S
C451 H439 0.950 . S
C451 C447 1.393 . S
C451 C450 1.391 . S
H452 C460 0.950 . S
H453 C465 0.950 . S
H454 C462 0.950 . S
H455 C464 0.950 . S
H456 C466 0.950 . S
H457 C468 0.950 . S
H458 C470 0.950 . S
H459 C471 0.950 . S
C460 H452 0.950 . S
C460 C461 1.386 . S
C460 C462 1.391 . S
C461 C460 1.386 . S
C461 C465 1.393 . S
C462 H454 0.950 . S
C462 C460 1.391 . S
C462 C463 1.400 . S
C463 C462 1.400 . S
C463 C464 1.398 . S
C463 C469 1.491 . S
C464 H455 0.950 . S
C464 C463 1.398 . S
C464 C465 1.391 . S
C465 H453 0.950 . S
C465 C461 1.393 . S
C465 C464 1.391 . S
C466 H456 0.950 . S
C466 C467 1.386 . S
C466 C468 1.391 . S
C467 C466 1.386 . S
C467 C471 1.393 . S
C468 H457 0.950 . S
C468 C466 1.391 . S
C468 C469 1.400 . S
C469 C463 1.491 . S
C469 C468 1.400 . S
C469 C470 1.398 . S
C470 H458 0.950 . S
C470 C469 1.398 . S
C470 C471 1.391 . S
C471 H459 0.950 . S
C471 C467 1.393 . S
C471 C470 1.391 . S
H472 C480 0.950 . S
H473 C485 0.950 . S
H474 C482 0.950 . S
H475 C484 0.950 . S
H476 C486 0.950 . S
H477 C488 0.950 . S
H478 C490 0.950 . S
H479 C491 0.950 . S
C480 H472 0.950 . S
C480 C481 1.386 . S
C480 C482 1.391 . S
C481 C480 1.386 . S
C481 C485 1.393 . S
C482 H474 0.950 . S
C482 C480 1.391 . S
C482 C483 1.400 . S
C483 C482 1.400 . S
C483 C484 1.398 . S
C483 C489 1.491 . S
C484 H475 0.950 . S
C484 C483 1.398 . S
C484 C485 1.391 . S
C485 H473 0.950 . S
C485 C481 1.393 . S
C485 C484 1.391 . S
C486 H476 0.950 . S
C486 C487 1.386 . S
C486 C488 1.391 . S
C487 C486 1.386 . S
C487 C491 1.393 . S
C488 H477 0.950 . S
C488 C486 1.391 . S
C488 C489 1.400 . S
C489 C483 1.491 . S
C489 C488 1.400 . S
C489 C490 1.398 . S
C490 H478 0.950 . S
C490 C489 1.398 . S
C490 C491 1.391 . S
C491 H479 0.950 . S
C491 C487 1.393 . S
C491 C490 1.391 . S
H492 C500 0.950 . S
H493 C505 0.950 . S
H494 C502 0.950 . S
H495 C504 0.950 . S
H496 C506 0.950 . S
H497 C508 0.950 . S
H498 C510 0.950 . S
H499 C511 0.950 . S
C500 H492 0.950 . S
C500 C501 1.386 . S
C500 C502 1.391 . S
C501 C500 1.386 . S
C501 C505 1.393 . S
C502 H494 0.950 . S
C502 C500 1.391 . S
C502 C503 1.400 . S
C503 C502 1.400 . S
C503 C504 1.398 . S
C503 C509 1.491 . S
C504 H495 0.950 . S
C504 C503 1.398 . S
C504 C505 1.391 . S
C505 H493 0.950 . S
C505 C501 1.393 . S
C505 C504 1.391 . S
C506 H496 0.950 . S
C506 C507 1.382 1_554 S
C506 C508 1.391 1_554 S
C507 C506 1.382 1_556 S
C507 C511 1.410 . S
C508 H497 0.950 . S
C508 C506 1.391 1_556 S
C508 C509 1.400 . S
C509 C503 1.491 . S
C509 C508 1.400 . S
C509 C510 1.398 . S
C510 H498 0.950 . S
C510 C509 1.398 . S
C510 C511 1.391 . S
C511 H499 0.950 . S
C511 C507 1.410 . S
C511 C510 1.391 . S
H512 C520 0.950 . S
H513 C525 0.950 . S
H514 C522 0.950 . S
H515 C524 0.950 . S
H516 C526 0.950 . S
H517 C528 0.950 . S
H518 C530 0.950 . S
H519 C531 0.950 . S
C520 H512 0.950 . S
C520 C521 1.386 . S
C520 C522 1.391 . S
C521 C520 1.386 . S
C521 C525 1.393 . S
C522 H514 0.950 . S
C522 C520 1.391 . S
C522 C523 1.400 . S
C523 C522 1.400 . S
C523 C524 1.398 . S
C523 C529 1.491 . S
C524 H515 0.950 . S
C524 C523 1.398 . S
C524 C525 1.391 . S
C525 H513 0.950 . S
C525 C521 1.393 . S
C525 C524 1.391 . S
C526 H516 0.950 . S
C526 C527 1.386 . S
C526 C528 1.391 . S
C527 C526 1.386 . S
C527 C531 1.393 . S
C528 H517 0.950 . S
C528 C526 1.391 . S
C528 C529 1.400 . S
C529 C523 1.491 . S
C529 C528 1.400 . S
C529 C530 1.398 . S
C530 H518 0.950 . S
C530 C529 1.398 . S
C530 C531 1.391 . S
C531 H519 0.950 . S
C531 C527 1.393 . S
C531 C530 1.391 . S
H532 C540 0.950 . S
H533 C545 0.950 . S
H534 C542 0.950 . S
H535 C544 0.950 . S
H536 C546 0.950 . S
H537 C548 0.950 . S
H538 C550 0.950 . S
H539 C551 0.950 . S
C540 H532 0.950 . S
C540 C541 1.386 . S
C540 C542 1.391 . S
C541 C540 1.386 . S
C541 C545 1.393 . S
C542 H534 0.950 . S
C542 C540 1.391 . S
C542 C543 1.400 . S
C543 C542 1.400 . S
C543 C544 1.398 . S
C543 C549 1.491 . S
C544 H535 0.950 . S
C544 C543 1.398 . S
C544 C545 1.391 . S
C545 H533 0.950 . S
C545 C541 1.393 . S
C545 C544 1.391 . S
C546 H536 0.950 . S
C546 C547 1.386 . S
C546 C548 1.391 . S
C547 C546 1.386 . S
C547 C551 1.393 . S
C548 H537 0.950 . S
C548 C546 1.391 . S
C548 C549 1.400 . S
C549 C543 1.491 . S
C549 C548 1.400 . S
C549 C550 1.398 . S
C550 H538 0.950 . S
C550 C549 1.398 . S
C550 C551 1.391 . S
C551 H539 0.950 . S
C551 C547 1.393 . S
C551 C550 1.391 . S
H552 C560 0.950 . S
H553 C565 0.950 . S
H554 C562 0.950 . S
H555 C564 0.950 . S
H556 C566 0.950 . S
H557 C568 0.950 . S
H558 C570 0.950 . S
H559 C571 0.950 . S
C560 H552 0.950 . S
C560 C561 1.386 . S
C560 C562 1.391 . S
C561 C560 1.386 . S
C561 C565 1.393 . S
C562 H554 0.950 . S
C562 C560 1.391 . S
C562 C563 1.400 . S
C563 C562 1.400 . S
C563 C564 1.398 . S
C563 C569 1.491 . S
C564 H555 0.950 . S
C564 C563 1.398 . S
C564 C565 1.391 . S
C565 H553 0.950 . S
C565 C561 1.393 . S
C565 C564 1.391 . S
C566 H556 0.950 . S
C566 C567 1.386 . S
C566 C568 1.391 . S
C567 C566 1.386 . S
C567 C571 1.393 . S
C568 H557 0.950 . S
C568 C566 1.391 . S
C568 C569 1.400 . S
C569 C563 1.491 . S
C569 C568 1.400 . S
C569 C570 1.398 . S
C570 H558 0.950 . S
C570 C569 1.398 . S
C570 C571 1.391 . S
C571 H559 0.950 . S
C571 C567 1.393 . S
C571 C570 1.391 . S
H572 C580 0.950 . S
H573 C585 0.950 . S
H574 C582 0.950 . S
H575 C584 0.950 . S
H576 C586 0.950 . S
H577 C588 0.950 . S
H578 C590 0.950 . S
H579 C591 0.950 . S
C580 H572 0.950 . S
C580 C581 1.386 . S
C580 C582 1.391 . S
C581 C580 1.386 . S
C581 C585 1.393 . S
C582 H574 0.950 . S
C582 C580 1.391 . S
C582 C583 1.400 . S
C583 C582 1.400 . S
C583 C584 1.398 . S
C583 C589 1.491 . S
C584 H575 0.950 . S
C584 C583 1.398 . S
C584 C585 1.391 . S
C585 H573 0.950 . S
C585 C581 1.393 . S
C585 C584 1.391 . S
C586 H576 0.950 . S
C586 C587 1.386 . S
C586 C588 1.391 . S
C587 C586 1.386 . S
C587 C591 1.393 . S
C588 H577 0.950 . S
C588 C586 1.391 . S
C588 C589 1.400 . S
C589 C583 1.491 . S
C589 C588 1.400 . S
C589 C590 1.398 . S
C590 H578 0.950 . S
C590 C589 1.398 . S
C590 C591 1.391 . S
C591 H579 0.950 . S
C591 C587 1.393 . S
C591 C590 1.391 . S
H592 C600 0.950 . S
H593 C605 0.950 . S
H594 C602 0.950 . S
H595 C604 0.950 . S
H596 C606 0.950 . S
H597 C608 0.950 . S
H598 C610 0.950 . S
H599 C611 0.950 . S
C600 H592 0.950 . S
C600 C601 1.386 . S
C600 C602 1.391 . S
C601 C600 1.386 . S
C601 C605 1.393 . S
C602 H594 0.950 . S
C602 C600 1.391 . S
C602 C603 1.400 . S
C603 C602 1.400 . S
C603 C604 1.398 . S
C603 C609 1.491 . S
C604 H595 0.950 . S
C604 C603 1.398 . S
C604 C605 1.391 . S
C605 H593 0.950 . S
C605 C601 1.393 . S
C605 C604 1.391 . S
C606 H596 0.950 . S
C606 C607 1.386 . S
C606 C608 1.391 . S
C607 C606 1.386 . S
C607 C611 1.393 . S
C608 H597 0.950 . S
C608 C606 1.391 . S
C608 C609 1.400 . S
C609 C603 1.491 . S
C609 C608 1.400 . S
C609 C610 1.398 . S
C610 H598 0.950 . S
C610 C609 1.398 . S
C610 C611 1.391 . S
C611 H599 0.950 . S
C611 C607 1.393 . S
C611 C610 1.391 . S
H612 C620 0.950 . S
H613 C625 0.950 . S
H614 C622 0.950 . S
H615 C624 0.950 . S
H616 C626 0.950 . S
H617 C628 0.950 . S
H618 C630 0.950 . S
H619 C631 0.950 . S
C620 H612 0.950 . S
C620 C621 1.386 . S
C620 C622 1.391 . S
C621 C620 1.386 . S
C621 C625 1.393 . S
C622 H614 0.950 . S
C622 C620 1.391 . S
C622 C623 1.400 . S
C623 C622 1.400 . S
C623 C624 1.398 . S
C623 C629 1.491 . S
C624 H615 0.950 . S
C624 C623 1.398 . S
C624 C625 1.391 . S
C625 H613 0.950 . S
C625 C621 1.393 . S
C625 C624 1.391 . S
C626 H616 0.950 . S
C626 C627 1.386 . S
C626 C628 1.391 . S
C627 C626 1.386 . S
C627 C631 1.393 . S
C628 H617 0.950 . S
C628 C626 1.391 . S
C628 C629 1.400 . S
C629 C623 1.491 . S
C629 C628 1.400 . S
C629 C630 1.398 . S
C630 H618 0.950 . S
C630 C629 1.398 . S
C630 C631 1.391 . S
C631 H619 0.950 . S
C631 C627 1.393 . S
C631 C630 1.391 . S
H632 C640 0.950 . S
H633 C645 0.950 . S
H634 C642 0.950 . S
H635 C644 0.950 . S
H636 C646 0.950 . S
H637 C648 0.950 . S
H638 C650 0.950 . S
H639 C651 0.950 . S
C640 H632 0.950 . S
C640 C641 1.386 . S
C640 C642 1.391 . S
C641 C640 1.386 . S
C641 C645 1.393 . S
C642 H634 0.950 . S
C642 C640 1.391 . S
C642 C643 1.400 . S
C643 C642 1.400 . S
C643 C644 1.398 . S
C643 C649 1.491 . S
C644 H635 0.950 . S
C644 C643 1.398 . S
C644 C645 1.391 . S
C645 H633 0.950 . S
C645 C641 1.393 . S
C645 C644 1.391 . S
C646 H636 0.950 . S
C646 C647 1.386 . S
C646 C648 1.391 . S
C647 C646 1.386 . S
C647 C651 1.393 . S
C648 H637 0.950 . S
C648 C646 1.391 . S
C648 C649 1.400 1_556 S
C649 C643 1.491 . S
C649 C648 1.400 1_554 S
C649 C650 1.398 . S
C650 H638 0.950 . S
C650 C649 1.398 . S
C650 C651 1.391 1_554 S
C651 H639 0.950 . S
C651 C647 1.393 . S
C651 C650 1.391 1_556 S
H652 C660 0.950 . S
H653 C665 0.950 . S
H654 C662 0.950 . S
H655 C664 0.950 . S
H656 C666 0.950 . S
H657 C668 0.950 . S
H658 C670 0.950 . S
H659 C671 0.950 . S
C660 H652 0.950 . S
C660 C661 1.386 . S
C660 C662 1.391 . S
C661 C660 1.386 . S
C661 C665 1.393 . S
C662 H654 0.950 . S
C662 C660 1.391 . S
C662 C663 1.400 . S
C663 C662 1.400 . S
C663 C664 1.398 . S
C663 C669 1.491 . S
C664 H655 0.950 . S
C664 C663 1.398 . S
C664 C665 1.391 . S
C665 H653 0.950 . S
C665 C661 1.393 . S
C665 C664 1.391 . S
C666 H656 0.950 . S
C666 C667 1.386 . S
C666 C668 1.391 . S
C667 C666 1.386 . S
C667 C671 1.393 . S
C668 H657 0.950 . S
C668 C666 1.391 . S
C668 C669 1.400 . S
C669 C663 1.491 . S
C669 C668 1.400 . S
C669 C670 1.398 . S
C670 H658 0.950 . S
C670 C669 1.398 . S
C670 C671 1.391 . S
C671 H659 0.950 . S
C671 C667 1.393 . S
C671 C670 1.391 . S
C207 C183 1.268 . S
C201 C8 1.452 . S
C221 C26 1.477 . S
C227 C113 1.288 . S
C241 C50 1.461 . S
C247 C133 1.500 . S
C261 C68 1.418 . S
C267 C147 1.441 . S
C287 C155 1.232 . S
C281 C80 1.424 . S
C301 C104 1.448 . S
C307 C169 1.278 . S
C321 C32 1.488 . S
C327 C127 1.321 . S
C341 C44 1.427 . S
C347 C141 1.243 . S
C361 C62 1.383 . S
C367 C161 1.433 . S
C387 C175 1.461 . S
C381 C86 1.427 1_554 S
C407 C189 1.472 . S
C401 C98 1.425 . S
C427 C119 1.482 . S
C421 C14 1.463 . S
C441 C7 1.445 . S
C447 C126 1.462 . S
C461 C25 1.434 . S
C467 C140 1.459 . S
C487 C162 1.478 . S
C481 C52 1.414 . S
C501 C70 1.426 . S
C507 C176 1.476 1_556 S
C527 C190 1.457 . S
C521 C79 1.395 . S
C547 C120 1.445 . S
C541 C106 1.400 . S
C567 C182 1.454 . S
C561 C34 1.437 . S
C581 C43 1.417 . S
C587 C112 1.438 . S
C607 C134 1.472 . S
C601 C61 1.424 . S
C621 C88 1.436 . S
C627 C148 1.476 . S
C641 C97 1.483 . S
C647 C154 1.494 . S
C661 C16 1.477 . S
C667 C168 1.489 . S
