# Generated by pormake.
# Topology wbl, (4,4)-cn, num edge types: 1
# Building blocks:
#     Node 0, Type 0, BuildingBlock: MIFKUJ_clean_linker_1, # of connection points: 4
#     Node 1, Type 0, BuildingBlock: MIFKUJ_clean_linker_1, # of connection points: 4
#     Node 2, Type 0, BuildingBlock: MIFKUJ_clean_linker_1, # of connection points: 4
#     Node 3, Type 0, BuildingBlock: MIFKUJ_clean_linker_1, # of connection points: 4
#     Node 4, Type 0, BuildingBlock: MIFKUJ_clean_linker_1, # of connection points: 4
#     Node 5, Type 0, BuildingBlock: MIFKUJ_clean_linker_1, # of connection points: 4
#     Node 6, Type 0, BuildingBlock: MIFKUJ_clean_linker_1, # of connection points: 4
#     Node 7, Type 0, BuildingBlock: MIFKUJ_clean_linker_1, # of connection points: 4
#     Node 8, Type 1, BuildingBlock: KUFVIS_clean_sbu_0, # of connection points: 4
#     Node 9, Type 1, BuildingBlock: KUFVIS_clean_sbu_0, # of connection points: 4
#     Node 10, Type 1, BuildingBlock: KUFVIS_clean_sbu_0, # of connection points: 4
#     Node 11, Type 1, BuildingBlock: KUFVIS_clean_sbu_0, # of connection points: 4
#     Node 12, Type 1, BuildingBlock: KUFVIS_clean_sbu_0, # of connection points: 4
#     Node 13, Type 1, BuildingBlock: KUFVIS_clean_sbu_0, # of connection points: 4
#     Node 14, Type 1, BuildingBlock: KUFVIS_clean_sbu_0, # of connection points: 4
#     Node 15, Type 1, BuildingBlock: KUFVIS_clean_sbu_0, # of connection points: 4
#     Edge 16, Type (0, 1), None
#     Edge 17, Type (0, 1), None
#     Edge 18, Type (0, 1), None
#     Edge 19, Type (0, 1), None
#     Edge 20, Type (0, 1), None
#     Edge 21, Type (0, 1), None
#     Edge 22, Type (0, 1), None
#     Edge 23, Type (0, 1), None
#     Edge 24, Type (0, 1), None
#     Edge 25, Type (0, 1), None
#     Edge 26, Type (0, 1), None
#     Edge 27, Type (0, 1), None
#     Edge 28, Type (0, 1), None
#     Edge 29, Type (0, 1), None
#     Edge 30, Type (0, 1), None
#     Edge 31, Type (0, 1), None
#     Edge 32, Type (0, 1), None
#     Edge 33, Type (0, 1), None
#     Edge 34, Type (0, 1), None
#     Edge 35, Type (0, 1), None
#     Edge 36, Type (0, 1), None
#     Edge 37, Type (0, 1), None
#     Edge 38, Type (0, 1), None
#     Edge 39, Type (0, 1), None
#     Edge 40, Type (0, 1), None
#     Edge 41, Type (0, 1), None
#     Edge 42, Type (0, 1), None
#     Edge 43, Type (0, 1), None
#     Edge 44, Type (0, 1), None
#     Edge 45, Type (0, 1), None
#     Edge 46, Type (0, 1), None
#     Edge 47, Type (0, 1), None
# Relax obj value: 0.146
# Max RMSD: 0.147
# Mean RMSD: 0.134
data_MOF--net-wbl--node1-KUFVIS_clean_sbu_0--node2-MIFKUJ_clean_linker_1--edge1-none
_symmetry_space_group_name_H-M    P1
_symmetry_Int_Tables_number       1
_symmetry_cell_setting            triclinic
loop_
_symmetry_equiv_pos_as_xyz
'x, y, z'
_cell_length_a     24.951243
_cell_length_b     24.905743
_cell_length_c     40.133653
_cell_angle_alpha  90.019181
_cell_angle_beta   90.105064
_cell_angle_gamma 90.025276
loop_
_atom_site_label
_atom_site_type_symbol
_atom_site_fract_x
_atom_site_fract_y
_atom_site_fract_z
_atom_type_partial_charge
H0 H 0.01551 0.14538 0.38976 0.0
H1 H 0.96255 0.17331 0.43826 0.0
H2 H 0.83428 0.06892 0.40689 0.0
H3 H 0.88623 0.04204 0.35818 0.0
H4 H 0.03989 0.03839 0.39083 0.0
H5 H 0.9424 0.15527 0.30948 0.0
H6 H 0.853 0.18015 0.28813 0.0
H7 H 0.82621 0.0144 0.26048 0.0
H8 H 0.91367 0.99057 0.2812 0.0
H9 H 0.05934 0.88891 0.28323 0.0
H10 H 0.13886 0.83946 0.26346 0.0
H11 H 0.23534 0.98129 0.27991 0.0
H12 H 0.15734 0.02863 0.30074 0.0
H13 H 0.01589 0.01425 0.2695 0.0
H14 H 0.05839 0.88344 0.34439 0.0
H15 H 0.0942 0.81797 0.38421 0.0
H16 H 0.16413 0.94709 0.44103 0.0
H17 H 0.13274 0.01206 0.39988 0.0
C18 C 0.95508 0.09145 0.37019 0.0
C19 C 0.97488 0.13062 0.39234 0.0
C20 C 0.94463 0.14666 0.42004 0.0
C21 C 0.89442 0.12332 0.42611 0.0
C22 C 0.87268 0.08793 0.40244 0.0
C23 C 0.90242 0.07269 0.37449 0.0
C24 C 0.99288 0.0612 0.34837 0.0
C25 C 0.03408 0.03284 0.36443 0.0
C26 C 0.9842 0.0522 0.31391 0.0
C27 C 0.93471 0.07094 0.29698 0.0
C28 C 0.91732 0.12473 0.29821 0.0
C29 C 0.86638 0.13894 0.286 0.0
C30 C 0.83218 0.09934 0.27283 0.0
C31 C 0.85109 0.04619 0.27051 0.0
C32 C 0.9016 0.03234 0.28219 0.0
C33 C 0.10289 0.96205 0.29404 0.0
C34 C 0.0976 0.90933 0.28191 0.0
C35 C 0.14294 0.88123 0.27051 0.0
C36 C 0.1936 0.90614 0.27053 0.0
C37 C 0.19719 0.9605 0.27985 0.0
C38 C 0.15253 0.98787 0.29174 0.0
C39 C 0.05985 0.9892 0.31301 0.0
C40 C 0.01999 0.0186 0.29627 0.0
C41 C 0.06397 0.99329 0.34796 0.0
C42 C 0.09372 0.95306 0.36848 0.0
C43 C 0.08405 0.89762 0.36427 0.0
C44 C 0.10351 0.86012 0.3874 0.0
C45 C 0.13088 0.87777 0.41582 0.0
C46 C 0.14259 0.93265 0.41934 0.0
C47 C 0.12465 0.96983 0.39581 0.0
H48 H 0.02538 0.36945 0.53667 0.0
H49 H 0.97916 0.28822 0.51786 0.0
H50 H 0.82644 0.36481 0.53501 0.0
H51 H 0.87309 0.44581 0.55459 0.0
H52 H 0.01935 0.48639 0.51903 0.0
H53 H 0.98347 0.36173 0.61214 0.0
H54 H 0.95026 0.31677 0.66226 0.0
H55 H 0.85274 0.45462 0.68521 0.0
H56 H 0.88757 0.50059 0.63566 0.0
H57 H 0.01565 0.61647 0.64019 0.0
H58 H 0.07266 0.65614 0.68324 0.0
H59 H 0.21047 0.57615 0.64199 0.0
H60 H 0.15225 0.53091 0.6014 0.0
H61 H 0.99797 0.51583 0.6399 0.0
H62 H 0.98724 0.60246 0.52936 0.0
H63 H 0.01356 0.68795 0.50647 0.0
H64 H 0.17999 0.65215 0.52711 0.0
H65 H 0.1528 0.56359 0.54852 0.0
C66 C 0.95267 0.41344 0.54717 0.0
C67 C 0.98198 0.36923 0.53562 0.0
C68 C 0.95551 0.32283 0.52497 0.0
C69 C 0.89921 0.32023 0.52504 0.0
C70 C 0.86982 0.36588 0.53444 0.0
C71 C 0.8964 0.41202 0.54574 0.0
C72 C 0.98103 0.45814 0.564 0.0
C73 C 0.01674 0.49098 0.54585 0.0
C74 C 0.97303 0.46834 0.59826 0.0
C75 C 0.9384 0.43476 0.62018 0.0
C76 C 0.95303 0.38143 0.62696 0.0
C77 C 0.93423 0.3558 0.65572 0.0
C78 C 0.89901 0.38235 0.67744 0.0
C79 C 0.87935 0.43314 0.66858 0.0
C80 C 0.89923 0.45936 0.64026 0.0
C81 C 0.07966 0.57167 0.61677 0.0
C82 C 0.05824 0.60804 0.63992 0.0
C83 C 0.0908 0.63062 0.66452 0.0
C84 C 0.14564 0.61837 0.66603 0.0
C85 C 0.16817 0.58562 0.64143 0.0
C86 C 0.13507 0.561 0.61763 0.0
C87 C 0.0431 0.53722 0.59667 0.0
C88 C 1.00366 0.50828 0.61373 0.0
C89 C 0.04723 0.53143 0.56176 0.0
C90 C 0.06767 0.57712 0.54169 0.0
C91 C 0.02958 0.61212 0.52825 0.0
C92 C 0.04493 0.66157 0.51544 0.0
C93 C 0.09902 0.67801 0.51591 0.0
C94 C 0.13798 0.64124 0.52694 0.0
C95 C 0.12235 0.59085 0.53957 0.0
H96 H 0.51582 0.6456 0.88967 0.0
H97 H 0.46281 0.67356 0.93814 0.0
H98 H 0.33458 0.56913 0.90674 0.0
H99 H 0.38659 0.54222 0.85807 0.0
H100 H 0.54024 0.53863 0.89077 0.0
H101 H 0.4427 0.65537 0.80936 0.0
H102 H 0.35327 0.68014 0.788 0.0
H103 H 0.3267 0.51435 0.76036 0.0
H104 H 0.41416 0.49062 0.78111 0.0
H105 H 0.55964 0.38907 0.78318 0.0
H106 H 0.6391 0.33951 0.76343 0.0
H107 H 0.73578 0.48118 0.77997 0.0
H108 H 0.65783 0.52863 0.80077 0.0
H109 H 0.51632 0.51434 0.76944 0.0
H110 H 0.55871 0.38362 0.84438 0.0
H111 H 0.59444 0.31816 0.88422 0.0
H112 H 0.66438 0.44727 0.94104 0.0
H113 H 0.63306 0.51223 0.89987 0.0
C114 C 0.45543 0.59164 0.87008 0.0
C115 C 0.4752 0.63083 0.89223 0.0
C116 C 0.44491 0.6469 0.91991 0.0
C117 C 0.3947 0.62356 0.92596 0.0
C118 C 0.37298 0.58815 0.9023 0.0
C119 C 0.40276 0.57288 0.87437 0.0
C120 C 0.49325 0.56138 0.84829 0.0
C121 C 0.53445 0.53305 0.86436 0.0
C122 C 0.4846 0.55234 0.81383 0.0
C123 C 0.43511 0.57102 0.79688 0.0
C124 C 0.41766 0.6248 0.79809 0.0
C125 C 0.3667 0.63894 0.78587 0.0
C126 C 0.33256 0.59929 0.7727 0.0
C127 C 0.35153 0.54617 0.77039 0.0
C128 C 0.40204 0.53238 0.78209 0.0
C129 C 0.60329 0.46214 0.79403 0.0
C130 C 0.59793 0.40944 0.78188 0.0
C131 C 0.64324 0.38127 0.7705 0.0
C132 C 0.69394 0.40609 0.77054 0.0
C133 C 0.6976 0.46045 0.77989 0.0
C134 C 0.65297 0.48788 0.79176 0.0
C135 C 0.56025 0.48935 0.81297 0.0
C136 C 0.52041 0.51873 0.79621 0.0
C137 C 0.56434 0.49347 0.84792 0.0
C138 C 0.59404 0.45324 0.86846 0.0
C139 C 0.58435 0.3978 0.86426 0.0
C140 C 0.60377 0.36031 0.88741 0.0
C141 C 0.63112 0.37795 0.91584 0.0
C142 C 0.64286 0.43283 0.91935 0.0
C143 C 0.62495 0.47 0.89581 0.0
H144 H 0.52533 0.86989 0.03661 0.0
H145 H 0.47923 0.78863 0.01774 0.0
H146 H 0.3264 0.86503 0.03486 0.0
H147 H 0.37294 0.94605 0.05451 0.0
H148 H 0.51933 0.98672 0.01905 0.0
H149 H 0.48305 0.86206 0.11206 0.0
H150 H 0.44979 0.8171 0.16217 0.0
H151 H 0.35243 0.95505 0.18515 0.0
H152 H 0.38729 1.001 0.1356 0.0
H153 H 0.51538 0.11673 0.14028 0.0
H154 H 0.57235 0.15638 0.18336 0.0
H155 H 0.7102 0.07645 0.14211 0.0
H156 H 0.65201 0.03124 0.10149 0.0
H157 H 0.4976 0.01618 0.13989 0.0
H158 H 0.4872 0.10288 0.02944 0.0
H159 H 0.51361 0.18833 0.00655 0.0
H160 H 0.68 0.15233 0.02717 0.0
H161 H 0.65271 0.0638 0.04858 0.0
C162 C 0.45256 0.91378 0.04711 0.0
C163 C 0.48194 0.86962 0.03555 0.0
C164 C 0.45553 0.82321 0.02486 0.0
C165 C 0.39923 0.82054 0.0249 0.0
C166 C 0.36979 0.86615 0.03431 0.0
C167 C 0.3963 0.9123 0.04566 0.0
C168 C 0.48086 0.95848 0.06398 0.0
C169 C 0.51665 0.99131 0.04587 0.0
C170 C 0.47276 0.9687 0.09823 0.0
C171 C 0.43806 0.93514 0.12011 0.0
C172 C 0.45262 0.88178 0.12688 0.0
C173 C 0.4338 0.85615 0.15563 0.0
C174 C 0.39863 0.88274 0.17737 0.0
C175 C 0.379 0.93355 0.16851 0.0
C176 C 0.39891 0.95976 0.14019 0.0
C177 C 0.57941 0.07197 0.11685 0.0
C178 C 0.55797 0.10831 0.14001 0.0
C179 C 0.5905 0.13088 0.16463 0.0
C180 C 0.64535 0.11864 0.16615 0.0
C181 C 0.6679 0.08591 0.14154 0.0
C182 C 0.63482 0.06131 0.11772 0.0
C183 C 0.54287 0.03755 0.09671 0.0
C184 C 0.50336 0.00864 0.11372 0.0
C185 C 0.5471 0.03175 0.06181 0.0
C186 C 0.56759 0.07744 0.04176 0.0
C187 C 0.52955 0.11248 0.02833 0.0
C188 C 0.54495 0.16192 0.01552 0.0
C189 C 0.59906 0.17829 0.01598 0.0
C190 C 0.63798 0.14147 0.02701 0.0
C191 C 0.62229 0.0911 0.03964 0.0
H192 H 0.99838 0.64328 0.87472 0.0
H193 H 0.05135 0.67141 0.82627 0.0
H194 H 0.17919 0.5662 0.85712 0.0
H195 H 0.12727 0.53924 0.90584 0.0
H196 H 0.97353 0.53603 0.87364 0.0
H197 H 0.0706 0.65346 0.95521 0.0
H198 H 0.15995 0.67893 0.97642 0.0
H199 H 0.18864 0.51297 0.00269 0.0
H200 H 0.10108 0.48863 0.98227 0.0
H201 H 0.9534 0.38705 0.98129 0.0
H202 H 0.87345 0.33831 0.0011 0.0
H203 H 0.77851 0.48128 0.98532 0.0
H204 H 0.8569 0.52791 0.96441 0.0
H205 H 0.99815 0.51254 0.99499 0.0
H206 H 0.95415 0.38147 0.92038 0.0
H207 H 0.91764 0.31612 0.88071 0.0
H208 H 0.84848 0.44553 0.82389 0.0
H209 H 0.88039 0.51039 0.86497 0.0
C210 C 0.05862 0.589 0.89406 0.0
C211 C 0.03891 0.62834 0.87203 0.0
C212 C 0.06916 0.64448 0.84437 0.0
C213 C 0.11925 0.621 0.83816 0.0
C214 C 0.14087 0.58529 0.86166 0.0
C215 C 0.11115 0.57 0.88961 0.0
C216 C 0.02081 0.55894 0.91597 0.0
C217 C 0.97943 0.53063 0.90005 0.0
C218 C 0.02962 0.55016 0.95042 0.0
C219 C 0.07917 0.56905 0.96718 0.0
C220 C 0.09608 0.62301 0.96618 0.0
C221 C 0.147 0.63754 0.97829 0.0
C222 C 0.18169 0.59808 0.99106 0.0
C223 C 0.16335 0.54467 0.99302 0.0
C224 C 0.11281 0.53052 0.98151 0.0
C225 C 0.91062 0.4607 0.97076 0.0
C226 C 0.91539 0.40787 0.98276 0.0
C227 C 0.8698 0.38018 0.99418 0.0
C228 C 0.81943 0.40561 0.99435 0.0
C229 C 0.81641 0.46008 0.98522 0.0
C230 C 0.86131 0.48705 0.97329 0.0
C231 C 0.95375 0.48742 0.95164 0.0
C232 C 0.99387 0.51675 0.96822 0.0
C233 C 0.9494 0.49135 0.91669 0.0
C234 C 0.91918 0.45124 0.89632 0.0
C235 C 0.92846 0.39576 0.90056 0.0
C236 C 0.90862 0.35832 0.8775 0.0
C237 C 0.88132 0.37607 0.8491 0.0
C238 C 0.86994 0.431 0.84557 0.0
C239 C 0.88821 0.46812 0.86905 0.0
H240 H 0.52285 0.59964 0.23704 0.0
H241 H 0.49668 0.68512 0.25995 0.0
H242 H 0.33078 0.65186 0.23616 0.0
H243 H 0.35769 0.56323 0.21475 0.0
H244 H 0.49073 0.48479 0.2458 0.0
H245 H 0.49633 0.61599 0.12533 0.0
H246 H 0.44016 0.65604 0.082 0.0
H247 H 0.3018 0.57454 0.12141 0.0
H248 H 0.35927 0.52894 0.16223 0.0
H249 H 0.53013 0.36096 0.15286 0.0
H250 H 0.56406 0.31691 0.10263 0.0
H251 H 0.65987 0.45627 0.08032 0.0
H252 H 0.62441 0.50127 0.13002 0.0
H253 H 0.51427 0.51515 0.12521 0.0
H254 H 0.48604 0.36806 0.22802 0.0
H255 H 0.53254 0.28712 0.24695 0.0
H256 H 0.68497 0.36499 0.23084 0.0
H257 H 0.63805 0.44569 0.21115 0.0
C258 C 0.44269 0.57553 0.22309 0.0
C259 C 0.48061 0.6098 0.23747 0.0
C260 C 0.46536 0.65927 0.2503 0.0
C261 C 0.41156 0.67645 0.24894 0.0
C262 C 0.37261 0.64036 0.23703 0.0
C263 C 0.38811 0.58995 0.22436 0.0
C264 C 0.46347 0.52999 0.20301 0.0
C265 C 0.49384 0.48958 0.21902 0.0
C266 C 0.46823 0.53601 0.16815 0.0
C267 C 0.43198 0.57045 0.14785 0.0
C268 C 0.45378 0.60729 0.12513 0.0
C269 C 0.42172 0.63008 0.10037 0.0
C270 C 0.36697 0.61755 0.09826 0.0
C271 C 0.34403 0.58422 0.12242 0.0
C272 C 0.37668 0.55938 0.14635 0.0
C273 C 0.57428 0.43468 0.14516 0.0
C274 C 0.56045 0.38117 0.13821 0.0
C275 C 0.57965 0.35606 0.10937 0.0
C276 C 0.61446 0.38334 0.08774 0.0
C277 C 0.63356 0.43425 0.09686 0.0
C278 C 0.6133 0.45992 0.12527 0.0
C279 C 0.53886 0.46772 0.16691 0.0
C280 C 0.50817 0.50745 0.15132 0.0
C281 C 0.53019 0.45717 0.20107 0.0
C282 C 0.5586 0.41265 0.21802 0.0
C283 C 0.52942 0.36818 0.22933 0.0
C284 C 0.55606 0.32195 0.24006 0.0
C285 C 0.61237 0.31978 0.2403 0.0
C286 C 0.64157 0.36571 0.23117 0.0
C287 C 0.61485 0.41168 0.21979 0.0
H288 H 0.45398 0.88158 0.42033 0.0
H289 H 0.41751 0.81629 0.38061 0.0
H290 H 0.34824 0.94577 0.3239 0.0
H291 H 0.38014 0.01056 0.36502 0.0
H292 H 0.47325 0.03626 0.37372 0.0
H293 H 0.4532 0.88703 0.48126 0.0
H294 H 0.37327 0.83822 0.50104 0.0
H295 H 0.27825 0.98116 0.48533 0.0
H296 H 0.35663 0.02786 0.46445 0.0
H297 H 0.5704 0.15349 0.45538 0.0
H298 H 0.65976 0.17886 0.47662 0.0
H299 H 0.68835 0.01283 0.50278 0.0
H300 H 0.60079 0.98858 0.48232 0.0
H301 H 0.49791 0.01248 0.49504 0.0
H302 H 0.49806 0.14348 0.37488 0.0
H303 H 0.55101 0.17169 0.32643 0.0
H304 H 0.67891 0.06653 0.35723 0.0
H305 H 0.62702 0.03948 0.40594 0.0
C306 C 0.41896 0.95138 0.39633 0.0
C307 C 0.42828 0.89589 0.40052 0.0
C308 C 0.40846 0.85849 0.37743 0.0
C309 C 0.38113 0.87627 0.34905 0.0
C310 C 0.36973 0.9312 0.34556 0.0
C311 C 0.38798 0.96829 0.36907 0.0
C312 C 0.44916 0.99146 0.41673 0.0
C313 C 0.47916 0.0308 0.40013 0.0
C314 C 0.4535 0.98745 0.45168 0.0
C315 C 0.41037 0.96067 0.47077 0.0
C316 C 0.41517 0.90783 0.48274 0.0
C317 C 0.3696 0.88009 0.49415 0.0
C318 C 0.31922 0.9055 0.49432 0.0
C319 C 0.31617 0.95998 0.48522 0.0
C320 C 0.36105 0.98699 0.47331 0.0
C321 C 0.57892 0.06905 0.46729 0.0
C322 C 0.59586 0.123 0.46633 0.0
C323 C 0.64678 0.13748 0.47846 0.0
C324 C 0.68145 0.09797 0.49121 0.0
C325 C 0.66308 0.04457 0.49313 0.0
C326 C 0.61253 0.03047 0.48159 0.0
C327 C 0.52936 0.05021 0.45051 0.0
C328 C 0.49362 0.01675 0.46828 0.0
C329 C 0.52054 0.0591 0.41607 0.0
C330 C 0.55834 0.08921 0.39418 0.0
C331 C 0.5386 0.12858 0.37218 0.0
C332 C 0.56884 0.14476 0.34452 0.0
C333 C 0.61894 0.12132 0.3383 0.0
C334 C 0.64058 0.08559 0.36178 0.0
C335 C 0.61088 0.07025 0.38973 0.0
H336 H 0.02276 0.09906 0.7373 0.0
H337 H 0.99667 0.18454 0.76023 0.0
H338 H 0.8308 0.15164 0.7362 0.0
H339 H 0.85761 0.063 0.71477 0.0
H340 H 0.9907 0.98436 0.74587 0.0
H341 H 0.99613 0.11575 0.62549 0.0
H342 H 0.93994 0.15584 0.58219 0.0
H343 H 0.80163 0.07414 0.62152 0.0
H344 H 0.85913 0.0285 0.66231 0.0
H345 H 0.02994 0.86062 0.65285 0.0
H346 H 0.06386 0.8166 0.60261 0.0
H347 H 0.15968 0.95597 0.58032 0.0
H348 H 0.12422 1.00095 0.63004 0.0
H349 H 0.01405 0.01483 0.62527 0.0
H350 H 0.98605 0.86757 0.72798 0.0
H351 H 0.03266 0.78665 0.74685 0.0
H352 H 0.18499 0.86476 0.7308 0.0
H353 H 0.13796 0.94544 0.71117 0.0
C354 C 0.94261 0.07512 0.72322 0.0
C355 C 0.98054 0.10929 0.73768 0.0
C356 C 0.96534 0.15877 0.75052 0.0
C357 C 0.91158 0.17606 0.74909 0.0
C358 C 0.8726 0.14006 0.73712 0.0
C359 C 0.88805 0.08964 0.72444 0.0
C360 C 0.96337 0.02961 0.70311 0.0
C361 C 0.99377 0.98919 0.71909 0.0
C362 C 0.96807 0.03566 0.66824 0.0
C363 C 0.9318 0.07011 0.64797 0.0
C364 C 0.95359 0.10702 0.62529 0.0
C365 C 0.92151 0.12982 0.60053 0.0
C366 C 0.86678 0.11725 0.59841 0.0
C367 C 0.84385 0.08385 0.62254 0.0
C368 C 0.87651 0.05899 0.64646 0.0
C369 C 0.07409 0.93434 0.64516 0.0
C370 C 0.06026 0.88084 0.63819 0.0
C371 C 0.07945 0.85574 0.60936 0.0
C372 C 0.11428 0.88303 0.58773 0.0
C373 C 0.13338 0.93394 0.59686 0.0
C374 C 0.11311 0.9596 0.62527 0.0
C375 C 0.0387 0.96736 0.66694 0.0
C376 C 0.00799 0.0071 0.65138 0.0
C377 C 0.03009 0.9568 0.7011 0.0
C378 C 0.05855 0.91228 0.71802 0.0
C379 C 0.02943 0.86774 0.72929 0.0
C380 C 0.05613 0.82153 0.73998 0.0
C381 C 0.11245 0.81944 0.74022 0.0
C382 C 0.14159 0.86542 0.73113 0.0
C383 C 0.1148 0.91138 0.71979 0.0
Mn384 Mn 0.32902 0.68505 0.01919 0.0
Mn385 Mn 0.341 0.55118 0.01741 0.0
C386 C 0.33674 0.63648 0.06901 0.0
C387 C 0.37233 0.76832 0.0197 0.0
C388 C 0.23797 0.6097 1.00063 0.0
O389 O 0.35192 0.66926 0.97096 0.0
O390 O 0.37304 0.58127 0.9762 0.0
C391 C 0.45803 0.54846 0.02723 0.0
N392 N 0.40846 0.5295 0.03466 0.0
C393 C 0.44397 0.46756 0.07477 0.0
C394 C 0.49577 0.48256 0.06514 0.0
C395 C 0.50277 0.52576 0.04313 0.0
C396 C 0.40106 0.49342 0.05931 0.0
H397 H 0.463 0.58064 0.00943 0.0
C398 C 0.37135 0.62529 0.95965 0.0
O399 O 0.32234 0.76423 0.01084 0.0
O400 O 0.39709 0.72424 0.02699 0.0
N401 N 0.31125 0.51655 0.05572 0.0
C402 C 0.25938 0.51461 0.06622 0.0
C403 C 0.24537 0.4805 0.09267 0.0
C404 C 0.28478 0.44861 0.10797 0.0
C405 C 0.33794 0.45164 0.0969 0.0
C406 C 0.34941 0.48624 0.07037 0.0
H407 H 0.22896 0.53905 0.05467 0.0
O408 O 0.31651 0.68443 0.06913 0.0
O409 O 0.34982 0.61917 0.03986 0.0
O410 O 0.25256 0.65701 0.00923 0.0
O411 O 0.26961 0.56951 1.00055 0.0
C412 C 0.38024 0.42255 0.11152 0.0
C413 C 0.43319 0.43033 0.10031 0.0
H414 H 0.53038 0.46356 0.07608 0.0
H415 H 0.54264 0.54051 0.03783 0.0
H416 H 0.20431 0.47878 0.10124 0.0
H417 H 0.27391 0.42254 0.12847 0.0
H418 H 0.37269 0.3951 0.13191 0.0
H419 H 0.46535 0.40881 0.11229 0.0
Mn420 Mn 0.32479 0.82753 0.26965 0.0
Mn421 Mn 0.45826 0.83668 0.27423 0.0
C422 C 0.36712 0.84002 0.32135 0.0
C423 C 0.24401 0.87546 0.2659 0.0
C424 C 0.39941 0.73326 0.25761 0.0
O425 O 0.34705 0.84538 0.22164 0.0
O426 O 0.43444 0.86606 0.23047 0.0
C427 C 0.46386 0.95449 0.28025 0.0
N428 N 0.47939 0.90507 0.29073 0.0
C429 C 0.53297 0.94272 0.3347 0.0
C430 C 0.5222 0.994 0.3221 0.0
C431 C 0.48475 1.00009 0.29628 0.0
C432 C 0.50981 0.89897 0.31835 0.0
H433 H 0.43554 0.95869 0.26001 0.0
C434 C 0.3926 0.86312 0.21183 0.0
O435 O 0.24574 0.82462 0.25843 0.0
O436 O 0.289 0.89786 0.27351 0.0
N437 N 0.48599 0.80907 0.31533 0.0
C438 C 0.48479 0.75787 0.32729 0.0
C439 C 0.5124 0.74544 0.35681 0.0
C440 C 0.54111 0.78567 0.37367 0.0
C441 C 0.54154 0.83808 0.36097 0.0
C442 C 0.51349 0.84799 0.33135 0.0
H443 H 0.46303 0.72668 0.31446 0.0
O444 O 0.31916 0.82011 0.31995 0.0
O445 O 0.38822 0.84864 0.29259 0.0
O446 O 0.35145 0.74912 0.26358 0.0
O447 O 0.43991 0.76453 0.25855 0.0
C448 C 0.5675 0.88119 0.37697 0.0
C449 C 0.56329 0.93347 0.36378 0.0
H450 H 0.54001 0.02916 0.33327 0.0
H451 H 0.47263 0.03987 0.28853 0.0
H452 H 0.51159 0.70492 0.36653 0.0
H453 H 0.56208 0.77602 0.39656 0.0
H454 H 0.58963 0.87484 0.39987 0.0
H455 H 0.58198 0.96634 0.37687 0.0
Mn456 Mn 0.18723 0.82815 0.49506 0.0
Mn457 Mn 0.0539 0.83877 0.49078 0.0
C458 C 0.14481 0.84139 0.44345 0.0
C459 C 0.2685 0.87527 0.4989 0.0
C460 C 0.11167 0.73469 0.50714 0.0
O461 O 0.16533 0.84575 0.54319 0.0
O462 O 0.0783 0.86791 0.53449 0.0
C463 C 0.04986 0.95663 0.48466 0.0
N464 N 0.03351 0.90737 0.47431 0.0
C465 C 0.98021 0.94555 0.43042 0.0
C466 C 0.99177 0.99673 0.44292 0.0
C467 C 0.02953 1.00243 0.46862 0.0
C468 C 1.00288 0.90156 0.44675 0.0
H469 H 0.07836 0.96055 0.50483 0.0
C470 C 0.1201 0.86411 0.5531 0.0
O471 O 0.26627 0.82439 0.50617 0.0
O472 O 0.22373 0.89816 0.4914 0.0
N473 N 0.02562 0.8114 0.44975 0.0
C474 C 0.02602 0.76014 0.43785 0.0
C475 C 0.99809 0.74796 0.40839 0.0
C476 C 0.96985 0.7885 0.39155 0.0
C477 C 0.97018 0.84095 0.40422 0.0
C478 C 0.99851 0.8506 0.43377 0.0
H479 H 0.04735 0.72869 0.45069 0.0
O480 O 0.19259 0.82108 0.44471 0.0
O481 O 0.12395 0.85001 0.47229 0.0
O482 O 0.15973 0.75 0.50092 0.0
O483 O 0.07154 0.76643 0.50644 0.0
C484 C 0.94466 0.88432 0.38826 0.0
C485 C 0.9496 0.93657 0.40142 0.0
H486 H 0.97433 0.03207 0.43177 0.0
H487 H 0.04224 0.04209 0.47629 0.0
H488 H 0.99827 0.7074 0.39871 0.0
H489 H 0.94862 0.77905 0.36873 0.0
H490 H 0.9223 0.87818 0.36541 0.0
H491 H 0.93125 0.96963 0.38834 0.0
Mn492 Mn 0.184 0.68467 0.7453 0.0
Mn493 Mn 0.1738 0.55058 0.74621 0.0
C494 C 0.1764 0.63681 0.6952 0.0
C495 C 0.13979 0.76743 0.74531 0.0
C496 C 0.27613 0.6103 0.76318 0.0
O497 O 0.16145 0.66781 0.79343 0.0
O498 O 0.14167 0.57953 0.78775 0.0
C499 C 0.05668 0.54558 0.73702 0.0
N500 N 0.10652 0.52803 0.72903 0.0
C501 C 0.07162 0.46635 0.68849 0.0
C502 C 0.0197 0.47982 0.69868 0.0
C503 C 0.01216 0.52221 0.72123 0.0
C504 C 0.11425 0.4927 0.70398 0.0
H505 H 0.05133 0.57719 0.75518 0.0
C506 C 0.14275 0.62337 0.80453 0.0
O507 O 0.18984 0.76379 0.7541 0.0
O508 O 0.11546 0.72316 0.73784 0.0
N509 N 0.20373 0.51723 0.70751 0.0
C510 C 0.25552 0.51646 0.69679 0.0
C511 C 0.26979 0.48334 0.6699 0.0
C512 C 0.23074 0.45123 0.65439 0.0
C513 C 0.17765 0.45304 0.66571 0.0
C514 C 0.1659 0.4867 0.69266 0.0
H515 H 0.28566 0.54107 0.7085 0.0
O516 O 0.19623 0.68495 0.69535 0.0
O517 O 0.16378 0.61885 0.72428 0.0
O518 O 0.26087 0.65755 0.75496 0.0
O519 O 0.24502 0.56969 0.763 0.0
C520 C 0.13567 0.42366 0.6509 0.0
C521 C 0.08272 0.43014 0.66243 0.0
H522 H 0.9853 0.46031 0.68777 0.0
H523 H 0.97208 0.53595 0.72691 0.0
H524 H 0.31078 0.48256 0.66116 0.0
H525 H 0.2418 0.42593 0.63356 0.0
H526 H 0.14344 0.39696 0.63015 0.0
H527 H 0.05078 0.4084 0.65032 0.0
Mn528 Mn 0.82885 0.18481 0.51935 0.0
Mn529 Mn 0.84072 0.05092 0.51754 0.0
C530 C 0.83654 0.13621 0.56917 0.0
C531 C 0.87224 0.26803 0.51986 0.0
C532 C 0.73773 0.10954 0.50079 0.0
O533 O 0.8517 0.16903 0.47113 0.0
O534 O 0.87278 0.08102 0.47634 0.0
C535 C 0.95776 0.0481 0.52735 0.0
N536 N 0.90817 0.02918 0.53478 0.0
C537 C 0.94365 0.96719 0.57487 0.0
C538 C 0.99546 0.98215 0.56523 0.0
C539 C 1.00248 0.02536 0.54324 0.0
C540 C 0.90076 0.99309 0.55943 0.0
H541 H 0.96274 0.08029 0.50956 0.0
C542 C 0.8711 0.12505 0.4598 0.0
O543 O 0.82224 0.26399 0.51102 0.0
O544 O 0.89696 0.22393 0.52715 0.0
N545 N 0.81096 0.01628 0.55585 0.0
C546 C 0.75908 0.01435 0.56634 0.0
C547 C 0.74506 0.98022 0.59278 0.0
C548 C 0.78445 0.94831 0.60807 0.0
C549 C 0.83761 0.95131 0.597 0.0
C550 C 0.8491 0.98594 0.57048 0.0
H551 H 0.72868 0.03881 0.55479 0.0
O552 O 0.81636 0.18418 0.5693 0.0
O553 O 0.8496 0.1189 0.54001 0.0
O554 O 0.75236 0.15683 0.5094 0.0
O555 O 0.76935 0.06933 0.50069 0.0
C556 C 0.8799 0.92219 0.61162 0.0
C557 C 0.93286 0.92995 0.60041 0.0
H558 H 0.03006 0.96311 0.57617 0.0
H559 H 0.04236 0.04008 0.53793 0.0
H560 H 0.70399 0.97851 0.60134 0.0
H561 H 0.77357 0.92222 0.62856 0.0
H562 H 0.87234 0.89473 0.632 0.0
H563 H 0.965 0.90841 0.61239 0.0
Mn564 Mn 0.82501 0.3273 0.76971 0.0
Mn565 Mn 0.95851 0.33625 0.77434 0.0
C566 C 0.86732 0.33977 0.82142 0.0
C567 C 0.74431 0.37534 0.76592 0.0
C568 C 0.89952 0.2329 0.75775 0.0
O569 O 0.84735 0.3451 0.7217 0.0
O570 O 0.93477 0.36557 0.73055 0.0
C571 C 0.96427 0.45406 0.78026 0.0
N572 N 0.97971 0.40464 0.79079 0.0
C573 C 0.03328 0.44232 0.83476 0.0
C574 C 0.02261 0.49358 0.82211 0.0
C575 C 0.98521 0.49966 0.79625 0.0
C576 C 0.01008 0.39856 0.81844 0.0
H577 H 0.93599 0.45825 0.76 0.0
C578 C 0.89294 0.36272 0.7119 0.0
O579 O 0.74597 0.3245 0.75847 0.0
O580 O 0.78933 0.39768 0.77354 0.0
N581 N 0.98615 0.30868 0.81547 0.0
C582 C 0.98486 0.25751 0.82748 0.0
C583 C 0.01241 0.2451 0.85703 0.0
C584 C 0.04115 0.28533 0.87387 0.0
C585 C 0.04167 0.33772 0.86113 0.0
C586 C 0.01368 0.3476 0.83148 0.0
H587 H 0.96307 0.22633 0.81466 0.0
O588 O 0.81934 0.31992 0.82001 0.0
O589 O 0.88846 0.34834 0.79266 0.0
O590 O 0.85157 0.24885 0.76367 0.0
O591 O 0.94007 0.26409 0.75872 0.0
C592 C 0.06766 0.38083 0.8771 0.0
C593 C 0.06354 0.43308 0.86387 0.0
H594 H 0.04044 0.52874 0.83326 0.0
H595 H 0.97316 0.53944 0.78847 0.0
H596 H 0.01154 0.20461 0.86678 0.0
H597 H 0.06207 0.27571 0.89677 0.0
H598 H 0.08975 0.3745 0.90003 0.0
H599 H 0.08225 0.46597 0.87695 0.0
Mn600 Mn 0.68741 0.32834 0.9951 0.0
Mn601 Mn 0.55409 0.33906 0.9908 0.0
C602 C 0.64502 0.34158 0.94348 0.0
C603 C 0.7687 0.37541 0.99893 0.0
C604 C 0.61178 0.23495 0.0072 0.0
O605 O 0.66549 0.34597 0.04322 0.0
O606 O 0.5785 0.36825 0.03449 0.0
C607 C 0.55011 0.45691 0.9846 0.0
N608 N 0.53375 0.40765 0.97428 0.0
C609 C 0.48049 0.44579 0.93035 0.0
C610 C 0.49206 0.49698 0.94284 0.0
C611 C 0.52981 0.5027 0.96853 0.0
C612 C 0.50313 0.40181 0.94671 0.0
H613 H 0.57861 0.46084 0.00478 0.0
C614 C 0.62028 0.3644 0.05312 0.0
O615 O 0.76644 0.32454 0.00622 0.0
O616 O 0.72394 0.39833 0.99143 0.0
N617 N 0.52581 0.31164 0.94978 0.0
C618 C 0.5262 0.26037 0.9379 0.0
C619 C 0.49829 0.24816 0.90844 0.0
C620 C 0.47007 0.28869 0.89157 0.0
C621 C 0.47042 0.34116 0.90421 0.0
C622 C 0.49874 0.35083 0.93377 0.0
H623 H 0.5475 0.22893 0.95076 0.0
O624 O 0.69278 0.32124 0.94475 0.0
O625 O 0.62415 0.35022 0.9723 0.0
O626 O 0.65985 0.25021 0.00097 0.0
O627 O 0.57168 0.26673 0.0065 0.0
C628 C 0.44493 0.38452 0.88822 0.0
C629 C 0.44989 0.43678 0.90135 0.0
H630 H 0.47464 0.53231 0.93167 0.0
H631 H 0.54253 0.54236 0.97619 0.0
H632 H 0.49845 0.20759 0.89878 0.0
H633 H 0.44885 0.27922 0.86875 0.0
H634 H 0.42258 0.37835 0.86537 0.0
H635 H 0.43157 0.46983 0.88826 0.0
Mn636 Mn 0.68374 0.18493 0.24543 0.0
Mn637 Mn 0.67335 0.05086 0.24633 0.0
C638 C 0.67609 0.13707 0.19533 0.0
C639 C 0.63964 0.26775 0.24542 0.0
C640 C 0.77577 0.11042 0.26332 0.0
O641 O 0.66116 0.1681 0.29356 0.0
O642 O 0.64126 0.07984 0.28787 0.0
C643 C 0.55622 0.04609 0.23712 0.0
N644 N 0.60604 0.02842 0.22915 0.0
C645 C 0.57105 0.96681 0.18861 0.0
C646 C 0.51914 0.9804 0.19877 0.0
C647 C 0.51167 0.02282 0.22131 0.0
C648 C 0.61372 0.99307 0.20411 0.0
H649 H 0.55093 0.07771 0.25527 0.0
C650 C 0.6424 0.12368 0.30466 0.0
O651 O 0.68968 0.26404 0.25422 0.0
O652 O 0.61525 0.22351 0.23796 0.0
N653 N 0.70323 0.01745 0.20764 0.0
C654 C 0.75502 0.0166 0.19692 0.0
C655 C 0.76924 0.98345 0.17004 0.0
C656 C 0.73014 0.9514 0.15453 0.0
C657 C 0.67705 0.95329 0.16584 0.0
C658 C 0.66536 0.98698 0.19279 0.0
H659 H 0.7852 0.04117 0.20863 0.0
O660 O 0.69598 0.18518 0.19547 0.0
O661 O 0.66344 0.11913 0.2244 0.0
O662 O 0.76058 0.15769 0.2551 0.0
O663 O 0.74461 0.06985 0.26312 0.0
C664 C 0.63503 0.92398 0.15103 0.0
C665 C 0.58209 0.93055 0.16256 0.0
H666 H 0.48471 0.96097 0.18785 0.0
H667 H 0.47162 0.03664 0.22698 0.0
H668 H 0.81023 0.9826 0.1613 0.0
H669 H 0.74117 0.92608 0.13369 0.0
H670 H 0.64276 0.89726 0.13029 0.0
H671 H 0.55012 0.90887 0.15045 0.0
loop_
_geom_bond_atom_site_label_1
_geom_bond_atom_site_label_2
_geom_bond_distance
_geom_bond_site_symmetry_2
_ccdc_geom_bond_type
H0 C19 0.949 . S
H1 C20 0.950 . S
H2 C22 0.950 . S
H3 C23 0.950 . S
H4 C25 0.950 . S
H5 C28 0.950 . S
H6 C29 0.950 . S
H7 C31 0.951 . S
H8 C32 0.949 1_565 S
H9 C34 0.949 . S
H10 C35 0.950 . S
H11 C37 0.950 . S
H12 C38 0.950 . S
H13 C40 0.950 . S
H14 C43 0.950 . S
H15 C44 0.950 . S
H16 C46 0.951 . S
H17 C47 0.949 1_545 S
C18 C19 1.376 . S
C18 C23 1.386 . S
C18 C24 1.483 . S
C19 H0 0.949 . S
C19 C18 1.376 . S
C19 C20 1.397 . S
C20 H1 0.950 . S
C20 C19 1.397 . S
C20 C21 1.391 . S
C21 C20 1.391 . S
C21 C22 1.405 . S
C22 H2 0.950 . S
C22 C21 1.405 . S
C22 C23 1.367 . S
C23 H3 0.950 . S
C23 C18 1.386 . S
C23 C22 1.367 . S
C24 C18 1.483 . S
C24 C25 1.382 1_655 S
C24 C26 1.403 . S
C25 H4 0.950 . S
C25 C24 1.382 1_455 S
C25 C41 1.411 1_545 S
C26 C24 1.403 . S
C26 C27 1.489 . S
C26 C40 1.411 1_545 S
C27 C26 1.489 . S
C27 C28 1.383 . S
C27 C32 1.382 . S
C28 H5 0.950 . S
C28 C27 1.383 . S
C28 C29 1.395 . S
C29 H6 0.950 . S
C29 C28 1.395 . S
C29 C30 1.288 . S
C30 C29 1.288 . S
C30 C31 1.392 . S
C31 H7 0.951 . S
C31 C30 1.392 . S
C31 C32 1.392 . S
C32 H8 0.949 1_545 S
C32 C27 1.382 . S
C32 C31 1.392 . S
C33 C34 1.376 . S
C33 C38 1.386 . S
C33 C39 1.483 . S
C34 H9 0.949 . S
C34 C33 1.376 . S
C34 C35 1.397 . S
C35 H10 0.950 . S
C35 C34 1.397 . S
C35 C36 1.391 . S
C36 C35 1.391 . S
C36 C37 1.405 . S
C37 H11 0.950 . S
C37 C36 1.405 . S
C37 C38 1.367 . S
C38 H12 0.950 . S
C38 C33 1.386 . S
C38 C37 1.367 . S
C39 C33 1.483 . S
C39 C40 1.382 1_455 S
C39 C41 1.403 . S
C40 H13 0.950 . S
C40 C26 1.411 1_565 S
C40 C39 1.382 1_655 S
C41 C25 1.411 1_565 S
C41 C39 1.403 . S
C41 C42 1.489 . S
C42 C41 1.489 . S
C42 C43 1.383 . S
C42 C47 1.382 . S
C43 H14 0.950 . S
C43 C42 1.383 . S
C43 C44 1.395 . S
C44 H15 0.950 . S
C44 C43 1.395 . S
C44 C45 1.288 . S
C45 C44 1.288 . S
C45 C46 1.392 . S
C46 H16 0.951 . S
C46 C45 1.392 . S
C46 C47 1.392 . S
C47 H17 0.949 1_565 S
C47 C42 1.382 . S
C47 C46 1.392 . S
H48 C67 0.949 1_455 S
H49 C68 0.950 . S
H50 C70 0.950 . S
H51 C71 0.950 . S
H52 C73 0.950 . S
H53 C76 0.950 . S
H54 C77 0.950 . S
H55 C79 0.951 . S
H56 C80 0.949 . S
H57 C82 0.949 1_655 S
H58 C83 0.950 . S
H59 C85 0.950 . S
H60 C86 0.950 . S
H61 C88 0.950 . S
H62 C91 0.950 . S
H63 C92 0.950 . S
H64 C94 0.951 . S
H65 C95 0.949 . S
C66 C67 1.376 . S
C66 C71 1.386 . S
C66 C72 1.483 . S
C67 H48 0.949 1_655 S
C67 C66 1.376 . S
C67 C68 1.397 . S
C68 H49 0.950 . S
C68 C67 1.397 . S
C68 C69 1.391 . S
C69 C68 1.391 . S
C69 C70 1.405 . S
C70 H50 0.950 . S
C70 C69 1.405 . S
C70 C71 1.367 . S
C71 H51 0.950 . S
C71 C66 1.386 . S
C71 C70 1.367 . S
C72 C66 1.483 . S
C72 C73 1.382 1_655 S
C72 C74 1.403 . S
C73 H52 0.950 . S
C73 C72 1.382 1_455 S
C73 C89 1.411 . S
C74 C72 1.403 . S
C74 C75 1.489 . S
C74 C88 1.411 . S
C75 C74 1.489 . S
C75 C76 1.383 . S
C75 C80 1.382 . S
C76 H53 0.950 . S
C76 C75 1.383 . S
C76 C77 1.395 . S
C77 H54 0.950 . S
C77 C76 1.395 . S
C77 C78 1.288 . S
C78 C77 1.288 . S
C78 C79 1.392 . S
C79 H55 0.951 . S
C79 C78 1.392 . S
C79 C80 1.392 . S
C80 H56 0.949 . S
C80 C75 1.382 . S
C80 C79 1.392 . S
C81 C82 1.376 . S
C81 C86 1.386 . S
C81 C87 1.483 . S
C82 H57 0.949 1_455 S
C82 C81 1.376 . S
C82 C83 1.397 . S
C83 H58 0.950 . S
C83 C82 1.397 . S
C83 C84 1.391 . S
C84 C83 1.391 . S
C84 C85 1.405 . S
C85 H59 0.950 . S
C85 C84 1.405 . S
C85 C86 1.367 . S
C86 H60 0.950 . S
C86 C81 1.386 . S
C86 C85 1.367 . S
C87 C81 1.483 . S
C87 C88 1.382 1_455 S
C87 C89 1.403 . S
C88 H61 0.950 . S
C88 C74 1.411 . S
C88 C87 1.382 1_655 S
C89 C73 1.411 . S
C89 C87 1.403 . S
C89 C90 1.489 . S
C90 C89 1.489 . S
C90 C91 1.383 . S
C90 C95 1.382 . S
C91 H62 0.950 . S
C91 C90 1.383 . S
C91 C92 1.395 . S
C92 H63 0.950 . S
C92 C91 1.395 . S
C92 C93 1.288 . S
C93 C92 1.288 . S
C93 C94 1.392 . S
C94 H64 0.951 . S
C94 C93 1.392 . S
C94 C95 1.392 . S
C95 H65 0.949 . S
C95 C90 1.382 . S
C95 C94 1.392 . S
H96 C115 0.949 . S
H97 C116 0.950 . S
H98 C118 0.950 . S
H99 C119 0.950 . S
H100 C121 0.950 . S
H101 C124 0.950 . S
H102 C125 0.950 . S
H103 C127 0.951 . S
H104 C128 0.949 . S
H105 C130 0.949 . S
H106 C131 0.950 . S
H107 C133 0.950 . S
H108 C134 0.950 . S
H109 C136 0.950 . S
H110 C139 0.950 . S
H111 C140 0.950 . S
H112 C142 0.951 . S
H113 C143 0.949 . S
C114 C115 1.376 . S
C114 C119 1.386 . S
C114 C120 1.483 . S
C115 H96 0.949 . S
C115 C114 1.376 . S
C115 C116 1.397 . S
C116 H97 0.950 . S
C116 C115 1.397 . S
C116 C117 1.391 . S
C117 C116 1.391 . S
C117 C118 1.405 . S
C118 H98 0.950 . S
C118 C117 1.405 . S
C118 C119 1.367 . S
C119 H99 0.950 . S
C119 C114 1.386 . S
C119 C118 1.367 . S
C120 C114 1.483 . S
C120 C121 1.382 . S
C120 C122 1.403 . S
C121 H100 0.950 . S
C121 C120 1.382 . S
C121 C137 1.411 . S
C122 C120 1.403 . S
C122 C123 1.489 . S
C122 C136 1.411 . S
C123 C122 1.489 . S
C123 C124 1.383 . S
C123 C128 1.382 . S
C124 H101 0.950 . S
C124 C123 1.383 . S
C124 C125 1.395 . S
C125 H102 0.950 . S
C125 C124 1.395 . S
C125 C126 1.288 . S
C126 C125 1.288 . S
C126 C127 1.392 . S
C127 H103 0.951 . S
C127 C126 1.392 . S
C127 C128 1.392 . S
C128 H104 0.949 . S
C128 C123 1.382 . S
C128 C127 1.392 . S
C129 C130 1.376 . S
C129 C134 1.386 . S
C129 C135 1.483 . S
C130 H105 0.949 . S
C130 C129 1.376 . S
C130 C131 1.397 . S
C131 H106 0.950 . S
C131 C130 1.397 . S
C131 C132 1.391 . S
C132 C131 1.391 . S
C132 C133 1.405 . S
C133 H107 0.950 . S
C133 C132 1.405 . S
C133 C134 1.367 . S
C134 H108 0.950 . S
C134 C129 1.386 . S
C134 C133 1.367 . S
C135 C129 1.483 . S
C135 C136 1.382 . S
C135 C137 1.403 . S
C136 H109 0.950 . S
C136 C122 1.411 . S
C136 C135 1.382 . S
C137 C121 1.411 . S
C137 C135 1.403 . S
C137 C138 1.489 . S
C138 C137 1.489 . S
C138 C139 1.383 . S
C138 C143 1.382 . S
C139 H110 0.950 . S
C139 C138 1.383 . S
C139 C140 1.395 . S
C140 H111 0.950 . S
C140 C139 1.395 . S
C140 C141 1.288 . S
C141 C140 1.288 . S
C141 C142 1.392 . S
C142 H112 0.951 . S
C142 C141 1.392 . S
C142 C143 1.392 . S
C143 H113 0.949 . S
C143 C138 1.382 . S
C143 C142 1.392 . S
H144 C163 0.949 . S
H145 C164 0.950 1_556 S
H146 C166 0.950 . S
H147 C167 0.950 . S
H148 C169 0.950 1_565 S
H149 C172 0.950 . S
H150 C173 0.950 . S
H151 C175 0.951 . S
H152 C176 0.949 . S
H153 C178 0.949 . S
H154 C179 0.950 . S
H155 C181 0.950 . S
H156 C182 0.950 . S
H157 C184 0.950 . S
H158 C187 0.950 . S
H159 C188 0.950 . S
H160 C190 0.951 1_556 S
H161 C191 0.949 . S
C162 C163 1.376 . S
C162 C167 1.386 . S
C162 C168 1.483 . S
C163 H144 0.949 . S
C163 C162 1.376 . S
C163 C164 1.397 . S
C164 H145 0.950 1_554 S
C164 C163 1.397 . S
C164 C165 1.391 . S
C165 C164 1.391 . S
C165 C166 1.405 . S
C166 H146 0.950 . S
C166 C165 1.405 . S
C166 C167 1.367 . S
C167 H147 0.950 . S
C167 C162 1.386 . S
C167 C166 1.367 . S
C168 C162 1.483 . S
C168 C169 1.380 1_565 S
C168 C170 1.403 . S
C169 H148 0.950 1_545 S
C169 C168 1.380 1_545 S
C169 C185 1.414 . S
C170 C168 1.403 . S
C170 C171 1.489 . S
C170 C184 1.411 1_565 S
C171 C170 1.489 . S
C171 C172 1.383 . S
C171 C176 1.382 . S
C172 H149 0.950 . S
C172 C171 1.383 . S
C172 C173 1.395 . S
C173 H150 0.950 . S
C173 C172 1.395 . S
C173 C174 1.288 . S
C174 C173 1.288 . S
C174 C175 1.392 . S
C175 H151 0.951 . S
C175 C174 1.392 . S
C175 C176 1.392 . S
C176 H152 0.949 . S
C176 C171 1.382 . S
C176 C175 1.392 . S
C177 C178 1.376 . S
C177 C182 1.386 . S
C177 C183 1.483 . S
C178 H153 0.949 . S
C178 C177 1.376 . S
C178 C179 1.397 . S
C179 H154 0.950 . S
C179 C178 1.397 . S
C179 C180 1.391 . S
C180 C179 1.391 . S
C180 C181 1.405 . S
C181 H155 0.950 . S
C181 C180 1.405 . S
C181 C182 1.367 . S
C182 H156 0.950 . S
C182 C177 1.386 . S
C182 C181 1.367 . S
C183 C177 1.483 . S
C183 C184 1.382 . S
C183 C185 1.403 . S
C184 H157 0.950 . S
C184 C170 1.411 1_545 S
C184 C183 1.382 . S
C185 C169 1.414 . S
C185 C183 1.403 . S
C185 C186 1.489 . S
C186 C185 1.489 . S
C186 C187 1.383 . S
C186 C191 1.382 . S
C187 H158 0.950 . S
C187 C186 1.383 . S
C187 C188 1.395 . S
C188 H159 0.950 . S
C188 C187 1.395 . S
C188 C189 1.288 . S
C189 C188 1.288 . S
C189 C190 1.392 . S
C190 H160 0.951 1_554 S
C190 C189 1.392 . S
C190 C191 1.392 . S
C191 H161 0.949 . S
C191 C186 1.382 . S
C191 C190 1.392 . S
H192 C211 0.949 . S
H193 C212 0.950 . S
H194 C214 0.950 . S
H195 C215 0.950 . S
H196 C217 0.950 . S
H197 C220 0.950 . S
H198 C221 0.950 . S
H199 C223 0.951 . S
H200 C224 0.949 . S
H201 C226 0.949 . S
H202 C227 0.950 . S
H203 C229 0.950 . S
H204 C230 0.950 . S
H205 C232 0.950 . S
H206 C235 0.950 . S
H207 C236 0.950 . S
H208 C238 0.951 . S
H209 C239 0.949 . S
C210 C211 1.376 . S
C210 C215 1.386 . S
C210 C216 1.483 . S
C211 H192 0.949 . S
C211 C210 1.376 . S
C211 C212 1.397 . S
C212 H193 0.950 . S
C212 C211 1.397 . S
C212 C213 1.391 . S
C213 C212 1.391 . S
C213 C214 1.405 . S
C214 H194 0.950 . S
C214 C213 1.405 . S
C214 C215 1.367 . S
C215 H195 0.950 . S
C215 C210 1.386 . S
C215 C214 1.367 . S
C216 C210 1.483 . S
C216 C217 1.382 1_455 S
C216 C218 1.403 . S
C217 H196 0.950 . S
C217 C216 1.382 1_655 S
C217 C233 1.411 . S
C218 C216 1.403 . S
C218 C219 1.489 . S
C218 C232 1.411 . S
C219 C218 1.489 . S
C219 C220 1.383 . S
C219 C224 1.382 . S
C220 H197 0.950 . S
C220 C219 1.383 . S
C220 C221 1.395 . S
C221 H198 0.950 . S
C221 C220 1.395 . S
C221 C222 1.288 1_556 S
C222 C221 1.288 1_554 S
C222 C223 1.392 . S
C223 H199 0.951 . S
C223 C222 1.392 . S
C223 C224 1.392 1_554 S
C224 H200 0.949 . S
C224 C219 1.382 . S
C224 C223 1.392 1_556 S
C225 C226 1.376 . S
C225 C230 1.386 . S
C225 C231 1.483 . S
C226 H201 0.949 . S
C226 C225 1.376 . S
C226 C227 1.397 1_556 S
C227 H202 0.950 . S
C227 C226 1.397 1_554 S
C227 C228 1.391 . S
C228 C227 1.391 . S
C228 C229 1.405 1_554 S
C229 H203 0.950 . S
C229 C228 1.405 1_556 S
C229 C230 1.367 . S
C230 H204 0.950 . S
C230 C225 1.386 . S
C230 C229 1.367 . S
C231 C225 1.483 . S
C231 C232 1.382 1_655 S
C231 C233 1.403 . S
C232 H205 0.950 . S
C232 C218 1.411 . S
C232 C231 1.382 1_455 S
C233 C217 1.411 . S
C233 C231 1.403 . S
C233 C234 1.489 . S
C234 C233 1.489 . S
C234 C235 1.383 . S
C234 C239 1.382 . S
C235 H206 0.950 . S
C235 C234 1.383 . S
C235 C236 1.395 . S
C236 H207 0.950 . S
C236 C235 1.395 . S
C236 C237 1.288 . S
C237 C236 1.288 . S
C237 C238 1.392 . S
C238 H208 0.951 . S
C238 C237 1.392 . S
C238 C239 1.392 . S
C239 H209 0.949 . S
C239 C234 1.382 . S
C239 C238 1.392 . S
H240 C259 0.949 . S
H241 C260 0.950 . S
H242 C262 0.950 . S
H243 C263 0.950 . S
H244 C265 0.950 . S
H245 C268 0.950 . S
H246 C269 0.950 . S
H247 C271 0.951 . S
H248 C272 0.949 . S
H249 C274 0.949 . S
H250 C275 0.950 . S
H251 C277 0.950 . S
H252 C278 0.950 . S
H253 C280 0.950 . S
H254 C283 0.950 . S
H255 C284 0.950 . S
H256 C286 0.951 . S
H257 C287 0.949 . S
C258 C259 1.376 . S
C258 C263 1.386 . S
C258 C264 1.483 . S
C259 H240 0.949 . S
C259 C258 1.376 . S
C259 C260 1.397 . S
C260 H241 0.950 . S
C260 C259 1.397 . S
C260 C261 1.391 . S
C261 C260 1.391 . S
C261 C262 1.405 . S
C262 H242 0.950 . S
C262 C261 1.405 . S
C262 C263 1.367 . S
C263 H243 0.950 . S
C263 C258 1.386 . S
C263 C262 1.367 . S
C264 C258 1.483 . S
C264 C265 1.382 . S
C264 C266 1.403 . S
C265 H244 0.950 . S
C265 C264 1.382 . S
C265 C281 1.411 . S
C266 C264 1.403 . S
C266 C267 1.489 . S
C266 C280 1.411 . S
C267 C266 1.489 . S
C267 C268 1.383 . S
C267 C272 1.382 . S
C268 H245 0.950 . S
C268 C267 1.383 . S
C268 C269 1.395 . S
C269 H246 0.950 . S
C269 C268 1.395 . S
C269 C270 1.288 . S
C270 C269 1.288 . S
C270 C271 1.392 . S
C271 H247 0.951 . S
C271 C270 1.392 . S
C271 C272 1.392 . S
C272 H248 0.949 . S
C272 C267 1.382 . S
C272 C271 1.392 . S
C273 C274 1.376 . S
C273 C278 1.386 . S
C273 C279 1.483 . S
C274 H249 0.949 . S
C274 C273 1.376 . S
C274 C275 1.397 . S
C275 H250 0.950 . S
C275 C274 1.397 . S
C275 C276 1.391 . S
C276 C275 1.391 . S
C276 C277 1.405 . S
C277 H251 0.950 . S
C277 C276 1.405 . S
C277 C278 1.367 . S
C278 H252 0.950 . S
C278 C273 1.386 . S
C278 C277 1.367 . S
C279 C273 1.483 . S
C279 C280 1.382 . S
C279 C281 1.403 . S
C280 H253 0.950 . S
C280 C266 1.411 . S
C280 C279 1.382 . S
C281 C265 1.411 . S
C281 C279 1.403 . S
C281 C282 1.489 . S
C282 C281 1.489 . S
C282 C283 1.383 . S
C282 C287 1.382 . S
C283 H254 0.950 . S
C283 C282 1.383 . S
C283 C284 1.395 . S
C284 H255 0.950 . S
C284 C283 1.395 . S
C284 C285 1.288 . S
C285 C284 1.288 . S
C285 C286 1.392 . S
C286 H256 0.951 . S
C286 C285 1.392 . S
C286 C287 1.392 . S
C287 H257 0.949 . S
C287 C282 1.382 . S
C287 C286 1.392 . S
H288 C307 0.949 . S
H289 C308 0.950 . S
H290 C310 0.950 . S
H291 C311 0.950 . S
H292 C313 0.950 . S
H293 C316 0.950 . S
H294 C317 0.950 . S
H295 C319 0.951 . S
H296 C320 0.949 1_545 S
H297 C322 0.949 . S
H298 C323 0.950 . S
H299 C325 0.950 . S
H300 C326 0.950 . S
H301 C328 0.950 . S
H302 C331 0.950 . S
H303 C332 0.950 . S
H304 C334 0.951 . S
H305 C335 0.949 1_565 S
C306 C307 1.376 . S
C306 C311 1.386 . S
C306 C312 1.483 . S
C307 H288 0.949 . S
C307 C306 1.376 . S
C307 C308 1.397 . S
C308 H289 0.950 . S
C308 C307 1.397 . S
C308 C309 1.391 . S
C309 C308 1.391 . S
C309 C310 1.405 . S
C310 H290 0.950 . S
C310 C309 1.405 . S
C310 C311 1.367 . S
C311 H291 0.950 . S
C311 C306 1.386 . S
C311 C310 1.367 . S
C312 C306 1.483 . S
C312 C313 1.382 . S
C312 C314 1.403 . S
C313 H292 0.950 . S
C313 C312 1.382 . S
C313 C329 1.411 1_565 S
C314 C312 1.403 . S
C314 C315 1.489 . S
C314 C328 1.411 1_565 S
C315 C314 1.489 . S
C315 C316 1.383 . S
C315 C320 1.382 . S
C316 H293 0.950 . S
C316 C315 1.383 . S
C316 C317 1.395 . S
C317 H294 0.950 . S
C317 C316 1.395 . S
C317 C318 1.288 . S
C318 C317 1.288 . S
C318 C319 1.392 . S
C319 H295 0.951 . S
C319 C318 1.392 . S
C319 C320 1.392 . S
C320 H296 0.949 1_565 S
C320 C315 1.382 . S
C320 C319 1.392 . S
C321 C322 1.376 . S
C321 C326 1.386 . S
C321 C327 1.483 . S
C322 H297 0.949 . S
C322 C321 1.376 . S
C322 C323 1.397 . S
C323 H298 0.950 . S
C323 C322 1.397 . S
C323 C324 1.391 . S
C324 C323 1.391 . S
C324 C325 1.405 . S
C325 H299 0.950 . S
C325 C324 1.405 . S
C325 C326 1.367 . S
C326 H300 0.950 . S
C326 C321 1.386 . S
C326 C325 1.367 . S
C327 C321 1.483 . S
C327 C328 1.382 . S
C327 C329 1.403 . S
C328 H301 0.950 . S
C328 C314 1.411 1_545 S
C328 C327 1.382 . S
C329 C313 1.411 1_545 S
C329 C327 1.403 . S
C329 C330 1.489 . S
C330 C329 1.489 . S
C330 C331 1.383 . S
C330 C335 1.382 . S
C331 H302 0.950 . S
C331 C330 1.383 . S
C331 C332 1.395 . S
C332 H303 0.950 . S
C332 C331 1.395 . S
C332 C333 1.288 . S
C333 C332 1.288 . S
C333 C334 1.392 . S
C334 H304 0.951 . S
C334 C333 1.392 . S
C334 C335 1.392 . S
C335 H305 0.949 1_545 S
C335 C330 1.382 . S
C335 C334 1.392 . S
H336 C355 0.949 1_455 S
H337 C356 0.950 . S
H338 C358 0.950 . S
H339 C359 0.950 . S
H340 C361 0.950 . S
H341 C364 0.950 . S
H342 C365 0.950 . S
H343 C367 0.951 . S
H344 C368 0.949 . S
H345 C370 0.949 1_655 S
H346 C371 0.950 . S
H347 C373 0.950 . S
H348 C374 0.950 . S
H349 C376 0.950 . S
H350 C379 0.950 . S
H351 C380 0.950 . S
H352 C382 0.951 . S
H353 C383 0.949 . S
C354 C355 1.376 . S
C354 C359 1.386 . S
C354 C360 1.483 . S
C355 H336 0.949 1_655 S
C355 C354 1.376 . S
C355 C356 1.397 . S
C356 H337 0.950 . S
C356 C355 1.397 . S
C356 C357 1.391 . S
C357 C356 1.391 . S
C357 C358 1.405 . S
C358 H338 0.950 . S
C358 C357 1.405 . S
C358 C359 1.367 . S
C359 H339 0.950 . S
C359 C354 1.386 . S
C359 C358 1.367 . S
C360 C354 1.483 . S
C360 C361 1.382 1_655 S
C360 C362 1.403 . S
C361 H340 0.950 . S
C361 C360 1.382 1_455 S
C361 C377 1.411 1_545 S
C362 C360 1.403 . S
C362 C363 1.489 . S
C362 C376 1.411 1_545 S
C363 C362 1.489 . S
C363 C364 1.383 . S
C363 C368 1.382 . S
C364 H341 0.950 . S
C364 C363 1.383 . S
C364 C365 1.395 . S
C365 H342 0.950 . S
C365 C364 1.395 . S
C365 C366 1.288 . S
C366 C365 1.288 . S
C366 C367 1.392 . S
C367 H343 0.951 . S
C367 C366 1.392 . S
C367 C368 1.392 . S
C368 H344 0.949 . S
C368 C363 1.382 . S
C368 C367 1.392 . S
C369 C370 1.376 . S
C369 C374 1.386 . S
C369 C375 1.483 . S
C370 H345 0.949 1_455 S
C370 C369 1.376 . S
C370 C371 1.397 . S
C371 H346 0.950 . S
C371 C370 1.397 . S
C371 C372 1.391 . S
C372 C371 1.391 . S
C372 C373 1.405 . S
C373 H347 0.950 . S
C373 C372 1.405 . S
C373 C374 1.367 . S
C374 H348 0.950 . S
C374 C369 1.386 . S
C374 C373 1.367 . S
C375 C369 1.483 . S
C375 C376 1.382 1_455 S
C375 C377 1.403 . S
C376 H349 0.950 . S
C376 C362 1.411 1_565 S
C376 C375 1.382 1_655 S
C377 C361 1.411 1_565 S
C377 C375 1.403 . S
C377 C378 1.489 . S
C378 C377 1.489 . S
C378 C379 1.383 . S
C378 C383 1.382 . S
C379 H350 0.950 . S
C379 C378 1.383 . S
C379 C380 1.395 . S
C380 H351 0.950 . S
C380 C379 1.395 . S
C380 C381 1.288 . S
C381 C380 1.288 . S
C381 C382 1.392 . S
C382 H352 0.951 . S
C382 C381 1.392 . S
C382 C383 1.392 . S
C383 H353 0.949 . S
C383 C378 1.382 . S
C383 C382 1.392 . S
Mn384 O389 2.095 1_554 S
Mn384 O399 2.162 . S
Mn384 O400 2.297 . S
Mn384 O408 2.385 . S
Mn384 O409 2.209 . S
Mn384 O410 2.094 1_554 S
Mn385 O390 2.119 . S
Mn385 N392 2.258 1_556 S
Mn385 N401 2.285 1_556 S
Mn385 O409 2.217 1_556 S
Mn385 O411 2.117 . S
C386 O408 1.234 . S
C386 O409 1.283 . S
C387 O399 1.281 . S
C387 O400 1.236 . S
C388 O410 1.240 . S
C388 O411 1.264 . S
O389 Mn384 2.095 1_556 S
O389 C398 1.250 . S
O390 Mn385 2.119 . S
O390 C398 1.258 . S
C391 N392 1.314 1_556 S
C391 C395 1.453 1_556 S
C391 H397 0.949 . S
N392 Mn385 2.258 1_554 S
N392 C391 1.314 1_554 S
N392 C396 1.362 . S
C393 C394 1.258 . S
C393 C396 1.431 . S
C393 C413 1.449 . S
C394 C393 1.258 . S
C394 C395 1.477 . S
C394 H414 0.931 . S
C395 C391 1.453 1_554 S
C395 C394 1.477 . S
C395 H415 0.914 1_554 S
C396 N392 1.362 . S
C396 C393 1.431 . S
C396 C406 1.476 . S
H397 C391 0.949 . S
C398 O389 1.250 . S
C398 O390 1.258 . S
O399 Mn384 2.162 . S
O399 C387 1.281 . S
O400 Mn384 2.297 . S
O400 C387 1.236 . S
N401 Mn385 2.285 1_554 S
N401 C402 1.328 . S
N401 C406 1.318 . S
C402 N401 1.328 . S
C402 C403 1.457 . S
C402 H407 0.929 . S
C403 C402 1.457 . S
C403 C404 1.291 . S
C403 H416 0.931 . S
C404 C403 1.291 . S
C404 C405 1.373 . S
C404 H417 0.929 . S
C405 C404 1.373 . S
C405 C406 1.396 . S
C405 C412 1.403 . S
C406 C396 1.476 . S
C406 N401 1.318 . S
C406 C405 1.396 . S
H407 C402 0.929 . S
O408 Mn384 2.385 . S
O408 C386 1.234 . S
O409 Mn384 2.209 . S
O409 Mn385 2.217 1_554 S
O409 C386 1.283 . S
O410 Mn384 2.094 1_556 S
O410 C388 1.240 . S
O411 Mn385 2.117 . S
O411 C388 1.264 . S
C412 C405 1.403 . S
C412 C413 1.399 . S
C412 H418 0.929 . S
C413 C393 1.449 . S
C413 C412 1.399 . S
C413 H419 0.930 . S
H414 C394 0.931 . S
H415 C395 0.914 1_556 S
H416 C403 0.931 . S
H417 C404 0.929 . S
H418 C412 0.929 . S
H419 C413 0.930 . S
Mn420 O425 2.095 . S
Mn420 O435 2.162 . S
Mn420 O436 2.297 . S
Mn420 O444 2.385 . S
Mn420 O445 2.209 . S
Mn420 O446 2.094 . S
Mn421 O426 2.121 . S
Mn421 N428 2.257 . S
Mn421 N437 2.282 . S
Mn421 O445 2.215 . S
Mn421 O447 2.117 . S
C422 O444 1.234 . S
C422 O445 1.283 . S
C423 O435 1.281 . S
C423 O436 1.236 . S
C424 O446 1.240 . S
C424 O447 1.264 . S
O425 Mn420 2.095 . S
O425 C434 1.250 . S
O426 Mn421 2.121 . S
O426 C434 1.258 . S
C427 N428 1.326 . S
C427 C431 1.460 . S
C427 H433 0.929 . S
N428 Mn421 2.257 . S
N428 C427 1.326 . S
N428 C432 1.362 . S
C429 C430 1.258 . S
C429 C432 1.431 . S
C429 C449 1.449 . S
C430 C429 1.258 . S
C430 C431 1.477 . S
C430 H450 0.931 . S
C431 C427 1.460 . S
C431 C430 1.477 . S
C431 H451 0.927 1_565 S
C432 N428 1.362 . S
C432 C429 1.431 . S
C432 C442 1.476 . S
H433 C427 0.929 . S
C434 O425 1.250 . S
C434 O426 1.258 . S
O435 Mn420 2.162 . S
O435 C423 1.281 . S
O436 Mn420 2.297 . S
O436 C423 1.236 . S
N437 Mn421 2.282 . S
N437 C438 1.328 . S
N437 C442 1.318 . S
C438 N437 1.328 . S
C438 C439 1.457 . S
C438 H443 0.929 . S
C439 C438 1.457 . S
C439 C440 1.291 . S
C439 H452 0.931 . S
C440 C439 1.291 . S
C440 C441 1.373 . S
C440 H453 0.929 . S
C441 C440 1.373 . S
C441 C442 1.396 . S
C441 C448 1.403 . S
C442 C432 1.476 . S
C442 N437 1.318 . S
C442 C441 1.396 . S
H443 C438 0.929 . S
O444 Mn420 2.385 . S
O444 C422 1.234 . S
O445 Mn420 2.209 . S
O445 Mn421 2.215 . S
O445 C422 1.283 . S
O446 Mn420 2.094 . S
O446 C424 1.240 . S
O447 Mn421 2.117 . S
O447 C424 1.264 . S
C448 C441 1.403 . S
C448 C449 1.399 . S
C448 H454 0.929 . S
C449 C429 1.449 . S
C449 C448 1.399 . S
C449 H455 0.930 . S
H450 C430 0.931 . S
H451 C431 0.927 1_545 S
H452 C439 0.931 . S
H453 C440 0.929 . S
H454 C448 0.929 . S
H455 C449 0.930 . S
Mn456 O461 2.095 . S
Mn456 O471 2.162 . S
Mn456 O472 2.297 . S
Mn456 O480 2.385 . S
Mn456 O481 2.209 . S
Mn456 O482 2.094 . S
Mn457 O462 2.121 . S
Mn457 N464 2.257 . S
Mn457 N473 2.282 . S
Mn457 O481 2.215 . S
Mn457 O483 2.117 . S
C458 O480 1.234 . S
C458 O481 1.283 . S
C459 O471 1.281 . S
C459 O472 1.236 . S
C460 O482 1.240 . S
C460 O483 1.264 . S
O461 Mn456 2.095 . S
O461 C470 1.250 . S
O462 Mn457 2.121 . S
O462 C470 1.258 . S
C463 N464 1.326 . S
C463 C467 1.460 1_455 S
C463 H469 0.929 . S
N464 Mn457 2.257 . S
N464 C463 1.326 . S
N464 C468 1.362 1_455 S
C465 C466 1.258 . S
C465 C468 1.431 . S
C465 C485 1.449 . S
C466 C465 1.258 . S
C466 C467 1.477 . S
C466 H486 0.931 . S
C467 C463 1.460 1_655 S
C467 C466 1.477 . S
C467 H487 0.930 . S
C468 N464 1.362 1_655 S
C468 C465 1.431 . S
C468 C478 1.476 . S
H469 C463 0.929 . S
C470 O461 1.250 . S
C470 O462 1.258 . S
O471 Mn456 2.162 . S
O471 C459 1.281 . S
O472 Mn456 2.297 . S
O472 C459 1.236 . S
N473 Mn457 2.282 . S
N473 C474 1.328 . S
N473 C478 1.318 1_455 S
C474 N473 1.328 . S
C474 C475 1.457 . S
C474 H479 0.929 . S
C475 C474 1.457 . S
C475 C476 1.291 1_455 S
C475 H488 0.931 . S
C476 C475 1.291 1_655 S
C476 C477 1.373 . S
C476 H489 0.929 . S
C477 C476 1.373 . S
C477 C478 1.396 . S
C477 C484 1.403 . S
C478 C468 1.476 . S
C478 N473 1.318 1_655 S
C478 C477 1.396 . S
H479 C474 0.929 . S
O480 Mn456 2.385 . S
O480 C458 1.234 . S
O481 Mn456 2.209 . S
O481 Mn457 2.215 . S
O481 C458 1.283 . S
O482 Mn456 2.094 . S
O482 C460 1.240 . S
O483 Mn457 2.117 . S
O483 C460 1.264 . S
C484 C477 1.403 . S
C484 C485 1.399 . S
C484 H490 0.929 . S
C485 C465 1.449 . S
C485 C484 1.399 . S
C485 H491 0.930 . S
H486 C466 0.931 . S
H487 C467 0.930 . S
H488 C475 0.931 . S
H489 C476 0.929 . S
H490 C484 0.929 . S
H491 C485 0.930 . S
Mn492 O497 2.095 . S
Mn492 O507 2.162 . S
Mn492 O508 2.297 . S
Mn492 O516 2.385 . S
Mn492 O517 2.209 . S
Mn492 O518 2.094 . S
Mn493 O498 2.121 . S
Mn493 N500 2.257 . S
Mn493 N509 2.282 . S
Mn493 O517 2.215 . S
Mn493 O519 2.117 . S
C494 O516 1.234 . S
C494 O517 1.283 . S
C495 O507 1.281 . S
C495 O508 1.236 . S
C496 O518 1.240 . S
C496 O519 1.264 . S
O497 Mn492 2.095 . S
O497 C506 1.250 . S
O498 Mn493 2.121 . S
O498 C506 1.258 . S
C499 N500 1.326 . S
C499 C503 1.460 . S
C499 H505 0.929 . S
N500 Mn493 2.257 . S
N500 C499 1.326 . S
N500 C504 1.362 . S
C501 C502 1.258 . S
C501 C504 1.431 . S
C501 C521 1.449 . S
C502 C501 1.258 . S
C502 C503 1.477 . S
C502 H522 0.931 . S
C503 C499 1.460 . S
C503 C502 1.477 . S
C503 H523 0.930 . S
C504 N500 1.362 . S
C504 C501 1.431 . S
C504 C514 1.476 . S
H505 C499 0.929 . S
C506 O497 1.250 . S
C506 O498 1.258 . S
O507 Mn492 2.162 . S
O507 C495 1.281 . S
O508 Mn492 2.297 . S
O508 C495 1.236 . S
N509 Mn493 2.282 . S
N509 C510 1.328 . S
N509 C514 1.318 . S
C510 N509 1.328 . S
C510 C511 1.457 . S
C510 H515 0.929 . S
C511 C510 1.457 . S
C511 C512 1.291 . S
C511 H524 0.931 . S
C512 C511 1.291 . S
C512 C513 1.373 . S
C512 H525 0.929 . S
C513 C512 1.373 . S
C513 C514 1.396 . S
C513 C520 1.403 . S
C514 C504 1.476 . S
C514 N509 1.318 . S
C514 C513 1.396 . S
H515 C510 0.929 . S
O516 Mn492 2.385 . S
O516 C494 1.234 . S
O517 Mn492 2.209 . S
O517 Mn493 2.215 . S
O517 C494 1.283 . S
O518 Mn492 2.094 . S
O518 C496 1.240 . S
O519 Mn493 2.117 . S
O519 C496 1.264 . S
C520 C513 1.403 . S
C520 C521 1.399 . S
C520 H526 0.929 . S
C521 C501 1.449 . S
C521 C520 1.399 . S
C521 H527 0.930 . S
H522 C502 0.931 . S
H523 C503 0.930 . S
H524 C511 0.931 . S
H525 C512 0.929 . S
H526 C520 0.929 . S
H527 C521 0.930 . S
Mn528 O533 2.095 . S
Mn528 O543 2.162 . S
Mn528 O544 2.297 . S
Mn528 O552 2.385 . S
Mn528 O553 2.209 . S
Mn528 O554 2.094 . S
Mn529 O534 2.121 . S
Mn529 N536 2.257 . S
Mn529 N545 2.282 . S
Mn529 O553 2.215 . S
Mn529 O555 2.117 . S
C530 O552 1.234 . S
C530 O553 1.283 . S
C531 O543 1.281 . S
C531 O544 1.236 . S
C532 O554 1.240 . S
C532 O555 1.264 . S
O533 Mn528 2.095 . S
O533 C542 1.250 . S
O534 Mn529 2.121 . S
O534 C542 1.258 . S
C535 N536 1.326 . S
C535 C539 1.460 1_545 S
C535 H541 0.929 . S
N536 Mn529 2.257 . S
N536 C535 1.326 . S
N536 C540 1.362 1_545 S
C537 C538 1.258 . S
C537 C540 1.431 . S
C537 C557 1.449 . S
C538 C537 1.258 . S
C538 C539 1.477 . S
C538 H558 0.931 . S
C539 C535 1.460 1_565 S
C539 C538 1.477 . S
C539 H559 0.930 . S
C540 N536 1.362 1_565 S
C540 C537 1.431 . S
C540 C550 1.476 . S
H541 C535 0.929 . S
C542 O533 1.250 . S
C542 O534 1.258 . S
O543 Mn528 2.162 . S
O543 C531 1.281 . S
O544 Mn528 2.297 . S
O544 C531 1.236 . S
N545 Mn529 2.282 . S
N545 C546 1.328 . S
N545 C550 1.318 1_545 S
C546 N545 1.328 . S
C546 C547 1.457 . S
C546 H551 0.929 . S
C547 C546 1.457 . S
C547 C548 1.291 1_545 S
C547 H560 0.931 . S
C548 C547 1.291 1_565 S
C548 C549 1.373 . S
C548 H561 0.929 . S
C549 C548 1.373 . S
C549 C550 1.396 . S
C549 C556 1.403 . S
C550 C540 1.476 . S
C550 N545 1.318 1_565 S
C550 C549 1.396 . S
H551 C546 0.929 . S
O552 Mn528 2.385 . S
O552 C530 1.234 . S
O553 Mn528 2.209 . S
O553 Mn529 2.215 . S
O553 C530 1.283 . S
O554 Mn528 2.094 . S
O554 C532 1.240 . S
O555 Mn529 2.117 . S
O555 C532 1.264 . S
C556 C549 1.403 . S
C556 C557 1.399 . S
C556 H562 0.929 . S
C557 C537 1.449 . S
C557 C556 1.399 . S
C557 H563 0.930 . S
H558 C538 0.931 . S
H559 C539 0.930 . S
H560 C547 0.931 . S
H561 C548 0.929 . S
H562 C556 0.929 . S
H563 C557 0.930 . S
Mn564 O569 2.095 . S
Mn564 O579 2.162 . S
Mn564 O580 2.297 . S
Mn564 O588 2.385 . S
Mn564 O589 2.209 . S
Mn564 O590 2.094 . S
Mn565 O570 2.121 . S
Mn565 N572 2.257 . S
Mn565 N581 2.282 . S
Mn565 O589 2.215 . S
Mn565 O591 2.117 . S
C566 O588 1.234 . S
C566 O589 1.283 . S
C567 O579 1.281 . S
C567 O580 1.236 . S
C568 O590 1.240 . S
C568 O591 1.264 . S
O569 Mn564 2.095 . S
O569 C578 1.250 . S
O570 Mn565 2.121 . S
O570 C578 1.258 . S
C571 N572 1.326 . S
C571 C575 1.460 1_655 S
C571 H577 0.929 . S
N572 Mn565 2.257 . S
N572 C571 1.326 . S
N572 C576 1.362 1_655 S
C573 C574 1.258 . S
C573 C576 1.431 . S
C573 C593 1.449 . S
C574 C573 1.258 . S
C574 C575 1.477 . S
C574 H594 0.931 . S
C575 C571 1.460 1_455 S
C575 C574 1.477 . S
C575 H595 0.930 . S
C576 N572 1.362 1_455 S
C576 C573 1.431 . S
C576 C586 1.476 . S
H577 C571 0.929 . S
C578 O569 1.250 . S
C578 O570 1.258 . S
O579 Mn564 2.162 . S
O579 C567 1.281 . S
O580 Mn564 2.297 . S
O580 C567 1.236 . S
N581 Mn565 2.282 . S
N581 C582 1.328 . S
N581 C586 1.318 1_655 S
C582 N581 1.328 . S
C582 C583 1.457 . S
C582 H587 0.929 . S
C583 C582 1.457 . S
C583 C584 1.291 1_655 S
C583 H596 0.931 . S
C584 C583 1.291 1_455 S
C584 C585 1.373 . S
C584 H597 0.929 . S
C585 C584 1.373 . S
C585 C586 1.396 . S
C585 C592 1.403 . S
C586 C576 1.476 . S
C586 N581 1.318 1_455 S
C586 C585 1.396 . S
H587 C582 0.929 . S
O588 Mn564 2.385 . S
O588 C566 1.234 . S
O589 Mn564 2.209 . S
O589 Mn565 2.215 . S
O589 C566 1.283 . S
O590 Mn564 2.094 . S
O590 C568 1.240 . S
O591 Mn565 2.117 . S
O591 C568 1.264 . S
C592 C585 1.403 . S
C592 C593 1.399 . S
C592 H598 0.929 . S
C593 C573 1.449 . S
C593 C592 1.399 . S
C593 H599 0.930 . S
H594 C574 0.931 . S
H595 C575 0.930 . S
H596 C583 0.931 . S
H597 C584 0.929 . S
H598 C592 0.929 . S
H599 C593 0.930 . S
Mn600 O605 2.095 . S
Mn600 O615 2.162 . S
Mn600 O616 2.297 1_554 S
Mn600 O624 2.385 1_554 S
Mn600 O625 2.209 1_554 S
Mn600 O626 2.094 . S
Mn601 O606 2.121 . S
Mn601 N608 2.257 1_554 S
Mn601 N617 2.282 1_554 S
Mn601 O625 2.215 1_554 S
Mn601 O627 2.117 . S
C602 O624 1.234 . S
C602 O625 1.283 . S
C603 O615 1.281 1_556 S
C603 O616 1.236 . S
C604 O626 1.240 . S
C604 O627 1.264 . S
O605 Mn600 2.095 . S
O605 C614 1.250 . S
O606 Mn601 2.121 . S
O606 C614 1.258 . S
C607 N608 1.326 1_554 S
C607 C611 1.460 . S
C607 H613 0.929 . S
N608 Mn601 2.257 1_556 S
N608 C607 1.326 1_556 S
N608 C612 1.362 . S
C609 C610 1.258 . S
C609 C612 1.431 . S
C609 C629 1.449 . S
C610 C609 1.258 . S
C610 C611 1.477 1_556 S
C610 H630 0.931 . S
C611 C607 1.460 . S
C611 C610 1.477 1_554 S
C611 H631 0.930 . S
C612 N608 1.362 . S
C612 C609 1.431 . S
C612 C622 1.476 . S
H613 C607 0.929 . S
C614 O605 1.250 . S
C614 O606 1.258 . S
O615 Mn600 2.162 . S
O615 C603 1.281 1_554 S
O616 Mn600 2.297 1_556 S
O616 C603 1.236 . S
N617 Mn601 2.282 1_556 S
N617 C618 1.328 . S
N617 C622 1.318 . S
C618 N617 1.328 . S
C618 C619 1.457 . S
C618 H623 0.929 . S
C619 C618 1.457 . S
C619 C620 1.291 . S
C619 H632 0.931 . S
C620 C619 1.291 . S
C620 C621 1.373 . S
C620 H633 0.929 . S
C621 C620 1.373 . S
C621 C622 1.396 . S
C621 C628 1.403 . S
C622 C612 1.476 . S
C622 N617 1.318 . S
C622 C621 1.396 . S
H623 C618 0.929 . S
O624 Mn600 2.385 1_556 S
O624 C602 1.234 . S
O625 Mn600 2.209 1_556 S
O625 Mn601 2.215 1_556 S
O625 C602 1.283 . S
O626 Mn600 2.094 . S
O626 C604 1.240 . S
O627 Mn601 2.117 . S
O627 C604 1.264 . S
C628 C621 1.403 . S
C628 C629 1.399 . S
C628 H634 0.929 . S
C629 C609 1.449 . S
C629 C628 1.399 . S
C629 H635 0.930 . S
H630 C610 0.931 . S
H631 C611 0.930 . S
H632 C619 0.931 . S
H633 C620 0.929 . S
H634 C628 0.929 . S
H635 C629 0.930 . S
Mn636 O641 2.095 . S
Mn636 O651 2.162 . S
Mn636 O652 2.297 . S
Mn636 O660 2.385 . S
Mn636 O661 2.209 . S
Mn636 O662 2.094 . S
Mn637 O642 2.121 . S
Mn637 N644 2.257 . S
Mn637 N653 2.282 . S
Mn637 O661 2.215 . S
Mn637 O663 2.117 . S
C638 O660 1.234 . S
C638 O661 1.283 . S
C639 O651 1.281 . S
C639 O652 1.236 . S
C640 O662 1.240 . S
C640 O663 1.264 . S
O641 Mn636 2.095 . S
O641 C650 1.250 . S
O642 Mn637 2.121 . S
O642 C650 1.258 . S
C643 N644 1.326 . S
C643 C647 1.460 1_545 S
C643 H649 0.929 . S
N644 Mn637 2.257 . S
N644 C643 1.326 . S
N644 C648 1.362 1_545 S
C645 C646 1.258 . S
C645 C648 1.431 . S
C645 C665 1.449 . S
C646 C645 1.258 . S
C646 C647 1.477 . S
C646 H666 0.931 . S
C647 C643 1.460 1_565 S
C647 C646 1.477 . S
C647 H667 0.930 . S
C648 N644 1.362 1_565 S
C648 C645 1.431 . S
C648 C658 1.476 . S
H649 C643 0.929 . S
C650 O641 1.250 . S
C650 O642 1.258 . S
O651 Mn636 2.162 . S
O651 C639 1.281 . S
O652 Mn636 2.297 . S
O652 C639 1.236 . S
N653 Mn637 2.282 . S
N653 C654 1.328 . S
N653 C658 1.318 1_545 S
C654 N653 1.328 . S
C654 C655 1.457 . S
C654 H659 0.929 . S
C655 C654 1.457 . S
C655 C656 1.291 1_545 S
C655 H668 0.931 . S
C656 C655 1.291 1_565 S
C656 C657 1.373 . S
C656 H669 0.929 . S
C657 C656 1.373 . S
C657 C658 1.396 . S
C657 C664 1.403 . S
C658 C648 1.476 . S
C658 N653 1.318 1_565 S
C658 C657 1.396 . S
H659 C654 0.929 . S
O660 Mn636 2.385 . S
O660 C638 1.234 . S
O661 Mn636 2.209 . S
O661 Mn637 2.215 . S
O661 C638 1.283 . S
O662 Mn636 2.094 . S
O662 C640 1.240 . S
O663 Mn637 2.117 . S
O663 C640 1.264 . S
C664 C657 1.403 . S
C664 C665 1.399 . S
C664 H670 0.929 . S
C665 C645 1.449 . S
C665 C664 1.399 . S
C665 H671 0.930 . S
H666 C646 0.931 . S
H667 C647 0.930 . S
H668 C655 0.931 . S
H669 C656 0.929 . S
H670 C664 0.929 . S
H671 C665 0.930 . S
C423 C36 1.685 . S
C460 C93 1.708 . S
C496 C126 1.732 . S
C165 C387 1.730 . S
C222 C388 1.735 1_554 S
C261 C424 1.627 . S
C459 C318 1.732 . S
C495 C381 1.812 . S
C132 C567 1.683 . S
C604 C189 1.708 . S
C30 C640 1.733 . S
C531 C69 1.732 . S
C324 C532 1.702 . S
C357 C568 1.625 . S
C603 C228 1.682 1_556 S
C285 C639 1.814 . S
C458 C45 2.145 . S
C494 C84 2.141 . S
C117 C398 1.767 . S
C174 C434 1.708 . S
C213 C506 1.778 . S
C386 C270 2.034 . S
C422 C309 2.117 . S
C470 C372 1.822 . S
C602 C141 2.165 . S
C638 C180 2.157 . S
C21 C542 1.780 . S
C578 C78 1.716 . S
C650 C333 1.787 . S
C366 C530 2.019 . S
C566 C237 2.150 . S
C614 C276 1.810 . S
