# Generated by pormake.
# Topology eea, (3,6)-cn, num edge types: 1
# Building blocks:
#     Node 0, Type 0, BuildingBlock: QEWDON_clean_linker_0, # of connection points: 3
#     Node 1, Type 0, BuildingBlock: QEWDON_clean_linker_0, # of connection points: 3
#     Node 2, Type 0, BuildingBlock: QEWDON_clean_linker_0, # of connection points: 3
#     Node 3, Type 0, BuildingBlock: QEWDON_clean_linker_0, # of connection points: 3
#     Node 4, Type 0, BuildingBlock: QEWDON_clean_linker_0, # of connection points: 3
#     Node 5, Type 0, BuildingBlock: QEWDON_clean_linker_0, # of connection points: 3
#     Node 6, Type 0, BuildingBlock: QEWDON_clean_linker_0, # of connection points: 3
#     Node 7, Type 0, BuildingBlock: QEWDON_clean_linker_0, # of connection points: 3
#     Node 8, Type 0, BuildingBlock: QEWDON_clean_linker_0, # of connection points: 3
#     Node 9, Type 0, BuildingBlock: QEWDON_clean_linker_0, # of connection points: 3
#     Node 10, Type 0, BuildingBlock: QEWDON_clean_linker_0, # of connection points: 3
#     Node 11, Type 0, BuildingBlock: QEWDON_clean_linker_0, # of connection points: 3
#     Node 12, Type 0, BuildingBlock: QEWDON_clean_linker_0, # of connection points: 3
#     Node 13, Type 0, BuildingBlock: QEWDON_clean_linker_0, # of connection points: 3
#     Node 14, Type 0, BuildingBlock: QEWDON_clean_linker_0, # of connection points: 3
#     Node 15, Type 0, BuildingBlock: QEWDON_clean_linker_0, # of connection points: 3
#     Node 16, Type 0, BuildingBlock: QEWDON_clean_linker_0, # of connection points: 3
#     Node 17, Type 0, BuildingBlock: QEWDON_clean_linker_0, # of connection points: 3
#     Node 18, Type 1, BuildingBlock: CUKXOW_clean_sbu_0, # of connection points: 6
#     Node 19, Type 1, BuildingBlock: CUKXOW_clean_sbu_0, # of connection points: 6
#     Node 20, Type 1, BuildingBlock: CUKXOW_clean_sbu_0, # of connection points: 6
#     Node 21, Type 1, BuildingBlock: CUKXOW_clean_sbu_0, # of connection points: 6
#     Node 22, Type 1, BuildingBlock: CUKXOW_clean_sbu_0, # of connection points: 6
#     Node 23, Type 1, BuildingBlock: CUKXOW_clean_sbu_0, # of connection points: 6
#     Node 24, Type 1, BuildingBlock: CUKXOW_clean_sbu_0, # of connection points: 6
#     Node 25, Type 1, BuildingBlock: CUKXOW_clean_sbu_0, # of connection points: 6
#     Node 26, Type 1, BuildingBlock: CUKXOW_clean_sbu_0, # of connection points: 6
#     Edge 27, Type (0, 1), None
#     Edge 28, Type (0, 1), None
#     Edge 29, Type (0, 1), None
#     Edge 30, Type (0, 1), None
#     Edge 31, Type (0, 1), None
#     Edge 32, Type (0, 1), None
#     Edge 33, Type (0, 1), None
#     Edge 34, Type (0, 1), None
#     Edge 35, Type (0, 1), None
#     Edge 36, Type (0, 1), None
#     Edge 37, Type (0, 1), None
#     Edge 38, Type (0, 1), None
#     Edge 39, Type (0, 1), None
#     Edge 40, Type (0, 1), None
#     Edge 41, Type (0, 1), None
#     Edge 42, Type (0, 1), None
#     Edge 43, Type (0, 1), None
#     Edge 44, Type (0, 1), None
#     Edge 45, Type (0, 1), None
#     Edge 46, Type (0, 1), None
#     Edge 47, Type (0, 1), None
#     Edge 48, Type (0, 1), None
#     Edge 49, Type (0, 1), None
#     Edge 50, Type (0, 1), None
#     Edge 51, Type (0, 1), None
#     Edge 52, Type (0, 1), None
#     Edge 53, Type (0, 1), None
#     Edge 54, Type (0, 1), None
#     Edge 55, Type (0, 1), None
#     Edge 56, Type (0, 1), None
#     Edge 57, Type (0, 1), None
#     Edge 58, Type (0, 1), None
#     Edge 59, Type (0, 1), None
#     Edge 60, Type (0, 1), None
#     Edge 61, Type (0, 1), None
#     Edge 62, Type (0, 1), None
#     Edge 63, Type (0, 1), None
#     Edge 64, Type (0, 1), None
#     Edge 65, Type (0, 1), None
#     Edge 66, Type (0, 1), None
#     Edge 67, Type (0, 1), None
#     Edge 68, Type (0, 1), None
#     Edge 69, Type (0, 1), None
#     Edge 70, Type (0, 1), None
#     Edge 71, Type (0, 1), None
#     Edge 72, Type (0, 1), None
#     Edge 73, Type (0, 1), None
#     Edge 74, Type (0, 1), None
#     Edge 75, Type (0, 1), None
#     Edge 76, Type (0, 1), None
#     Edge 77, Type (0, 1), None
#     Edge 78, Type (0, 1), None
#     Edge 79, Type (0, 1), None
#     Edge 80, Type (0, 1), None
# Relax obj value: 0.053
# Max RMSD: 0.221
# Mean RMSD: 0.105
data_MOF--net-eea--node1-CUKXOW_clean_sbu_0--node2-QEWDON_clean_linker_0--edge1-none
_symmetry_space_group_name_H-M    P1
_symmetry_Int_Tables_number       1
_symmetry_cell_setting            triclinic
loop_
_symmetry_equiv_pos_as_xyz
'x, y, z'
_cell_length_a     31.593893
_cell_length_b     27.656706
_cell_length_c     18.217684
_cell_angle_alpha  92.757259
_cell_angle_beta   93.193012
_cell_angle_gamma 120.32584
loop_
_atom_site_label
_atom_site_type_symbol
_atom_site_fract_x
_atom_site_fract_y
_atom_site_fract_z
_atom_type_partial_charge
H0 H 0.30704 0.18961 0.52289 0.0
C1 C 0.30114 0.1562 0.48248 0.0
C2 C 0.32976 0.13092 0.49026 0.0
C3 C 0.26172 0.13477 0.4272 0.0
H4 H 0.3411 0.06463 0.4499 0.0
C5 C 0.3202 0.08548 0.44085 0.0
C6 C 0.27927 0.06127 0.38804 0.0
C7 C 0.25024 0.08638 0.38116 0.0
C8 C 0.22403 0.15082 0.43405 0.0
H9 H 0.21678 0.06607 0.34398 0.0
C10 C 0.22772 0.19977 0.40624 0.0
C11 C 0.18989 0.21204 0.41593 0.0
C12 C 0.18377 0.11578 0.47241 0.0
H13 H 0.18079 0.07857 0.49451 0.0
C14 C 0.14737 0.12848 0.48358 0.0
H15 H 0.25868 0.22678 0.3763 0.0
C16 C 0.15041 0.17602 0.45623 0.0
H17 H 0.12121 0.18436 0.46704 0.0
H18 H 0.1165 0.10124 0.51347 0.0
H19 H 0.83705 0.12227 0.44133 0.0
C20 C 0.87423 0.14912 0.42666 0.0
C21 C 0.90635 0.19914 0.47083 0.0
C22 C 0.89025 0.13326 0.36436 0.0
H23 H 0.9798 0.27184 0.48611 0.0
C24 C 0.95486 0.23336 0.45221 0.0
C25 C 0.97122 0.21769 0.38997 0.0
C26 C 0.93865 0.1679 0.34656 0.0
C27 C 0.85775 0.07982 0.31825 0.0
H28 H 0.95148 0.15507 0.29963 0.0
C29 C 0.83057 0.02889 0.35064 0.0
C30 C 0.8038 0.97811 0.3058 0.0
C31 C 0.85641 0.07915 0.2408 0.0
H32 H 0.87653 0.1178 0.21447 0.0
C33 C 0.82937 0.02862 0.19653 0.0
H34 H 0.83111 0.02851 0.41016 0.0
C35 C 0.80334 0.97823 0.22882 0.0
H36 H 0.78219 0.93931 0.19365 0.0
H37 H 0.82862 0.02853 0.13704 0.0
H38 H 0.92903 0.72454 0.51925 0.0
C39 C 0.90153 0.72401 0.48061 0.0
C40 C 0.85124 0.6896 0.48997 0.0
C41 C 0.91634 0.76197 0.42577 0.0
H42 H 0.7779 0.67066 0.45488 0.0
C43 C 0.8163 0.69345 0.44374 0.0
C44 C 0.83113 0.73306 0.39134 0.0
C45 C 0.88084 0.76506 0.37991 0.0
C46 C 0.96739 0.80889 0.42835 0.0
H47 H 0.89256 0.79757 0.34187 0.0
C48 C 1.00337 0.80338 0.39316 0.0
C49 C 0.04888 0.85158 0.38521 0.0
C50 C 0.978 0.86204 0.45826 0.0
H51 H 0.95045 0.86684 0.48523 0.0
C52 C 1.02339 0.90959 0.45111 0.0
H53 H 0.99527 0.76255 0.36953 0.0
C54 C 0.05857 0.90456 0.41426 0.0
H55 H 0.09377 0.94207 0.40943 0.0
H56 H 0.03113 0.95052 0.47343 0.0
H57 H 0.20767 0.30043 0.55736 0.0
C58 C 0.17836 0.30186 0.58379 0.0
C59 C 0.15994 0.33557 0.55751 0.0
C60 C 0.15567 0.26599 0.63923 0.0
H61 H 0.10055 0.35286 0.56049 0.0
C62 C 0.11766 0.33128 0.58523 0.0
C63 C 0.09587 0.29639 0.64191 0.0
C64 C 0.11707 0.2672 0.67154 0.0
C65 C 0.16468 0.21976 0.65575 0.0
H66 H 0.09983 0.23995 0.71484 0.0
C67 C 0.21224 0.22891 0.6737 0.0
C68 C 0.21775 0.18465 0.69794 0.0
C69 C 0.12358 0.16526 0.65735 0.0
H70 H 0.08665 0.15645 0.64129 0.0
C71 C 0.12929 0.1216 0.68046 0.0
H72 H 0.2443 0.27026 0.67152 0.0
C73 C 0.17601 0.13131 0.7016 0.0
H74 H 0.17958 0.09647 0.71884 0.0
H75 H 0.09738 0.08015 0.68211 0.0
H76 H 0.77248 0.92101 0.58033 0.0
C77 C 0.78378 0.8915 0.5955 0.0
C78 C 0.76109 0.83826 0.55635 0.0
C79 C 0.81941 0.90601 0.65542 0.0
H80 H 0.75528 0.75702 0.54915 0.0
C81 C 0.77362 0.79863 0.57824 0.0
C82 C 0.80984 0.81248 0.63735 0.0
C83 C 0.83329 0.86659 0.67434 0.0
C84 C 0.83856 0.96 0.7023 0.0
H85 H 0.86096 0.87712 0.71981 0.0
C86 C 0.84822 1.01031 0.67157 0.0
C87 C 0.8627 0.05939 0.71789 0.0
C88 C 0.84443 0.96045 0.77961 0.0
H89 H 0.83628 0.92257 0.80538 0.0
C90 C 0.8593 1.00932 0.82512 0.0
H91 H 0.84438 1.01138 0.61229 0.0
C92 C 0.86816 0.05843 0.79457 0.0
H93 H 0.87944 0.09591 0.83094 0.0
H94 H 0.86344 1.00895 0.88445 0.0
H95 H 0.14878 0.85935 0.52051 0.0
C96 C 0.17875 0.88984 0.55954 0.0
C97 C 0.22787 0.90781 0.54614 0.0
C98 C 0.16866 0.91475 0.62028 0.0
H99 H 0.30412 0.9657 0.58064 0.0
C100 C 0.26658 0.94982 0.59417 0.0
C101 C 0.2574 0.97813 0.65114 0.0
C102 C 0.20841 0.95933 0.66519 0.0
C103 C 0.11819 0.90471 0.62755 0.0
H104 H 0.20104 0.98224 0.70769 0.0
C105 C 0.07919 0.85371 0.64925 0.0
C106 C 0.03397 0.8498 0.66368 0.0
C107 C 0.11045 0.9498 0.61727 0.0
H108 H 0.13953 0.989 0.60012 0.0
C109 C 0.06573 0.94541 0.63008 0.0
H110 H 0.08471 0.81873 0.65793 0.0
C111 C 0.028 0.89615 0.65365 0.0
H112 H 0.99366 0.89413 0.6636 0.0
H113 H 0.06034 0.98052 0.62207 0.0
H114 H 0.97372 0.52296 0.85622 0.0
C115 C 0.96782 0.48955 0.81581 0.0
C116 C 0.99643 0.46426 0.8236 0.0
C117 C 0.9284 0.46812 0.76053 0.0
H118 H 1.00777 0.39796 0.78324 0.0
C119 C 0.98687 0.41882 0.77418 0.0
C120 C 0.94595 0.39461 0.72137 0.0
C121 C 0.91692 0.41973 0.71449 0.0
C122 C 0.89071 0.48417 0.76739 0.0
H123 H 0.88346 0.39942 0.67731 0.0
C124 C 0.8944 0.53312 0.73958 0.0
C125 C 0.85658 0.5454 0.74927 0.0
C126 C 0.85045 0.44913 0.80575 0.0
H127 H 0.84748 0.41192 0.82785 0.0
C128 C 0.81405 0.46183 0.81692 0.0
H129 H 0.92535 0.56013 0.70963 0.0
C130 C 0.8171 0.50937 0.78958 0.0
H131 H 0.7879 0.51772 0.8004 0.0
H132 H 0.78319 0.4346 0.84682 0.0
H133 H 0.50373 0.45561 0.77466 0.0
C134 C 0.54091 0.48246 0.75999 0.0
C135 C 0.57303 0.53247 0.80416 0.0
C136 C 0.55693 0.4666 0.69769 0.0
H137 H 0.64647 0.60518 0.81945 0.0
C138 C 0.62154 0.5667 0.78554 0.0
C139 C 0.6379 0.55104 0.72331 0.0
C140 C 0.60533 0.50124 0.67989 0.0
C141 C 0.52443 0.41316 0.65158 0.0
H142 H 0.61816 0.48841 0.63296 0.0
C143 C 0.49725 0.36223 0.68397 0.0
C144 C 0.47048 0.31145 0.63914 0.0
C145 C 0.5231 0.41249 0.57413 0.0
H146 H 0.54321 0.45114 0.5478 0.0
C147 C 0.49605 0.36196 0.52986 0.0
H148 H 0.49779 0.36186 0.74349 0.0
C149 C 0.47002 0.31157 0.56216 0.0
H150 H 0.44887 0.27265 0.52699 0.0
H151 H 0.49531 0.36186 0.47037 0.0
H152 H 0.59569 0.05788 0.85259 0.0
C153 C 0.56819 0.05734 0.81394 0.0
C154 C 0.5179 0.02293 0.82329 0.0
C155 C 0.583 0.09531 0.75911 0.0
H156 H 0.44456 1.00398 0.7882 0.0
C157 C 0.48296 0.02678 0.77706 0.0
C158 C 0.4978 0.06639 0.72467 0.0
C159 C 0.54751 0.09839 0.71324 0.0
C160 C 0.63406 0.14223 0.7617 0.0
H161 H 0.55923 0.13091 0.67521 0.0
C162 C 0.67003 0.13673 0.7265 0.0
C163 C 0.71554 0.18494 0.71855 0.0
C164 C 0.64466 0.19537 0.79162 0.0
H165 H 0.6171 0.20017 0.81859 0.0
C166 C 0.69005 0.24293 0.78447 0.0
H167 H 0.66194 0.0959 0.70285 0.0
C168 C 0.72523 0.23791 0.74761 0.0
H169 H 0.76042 0.27543 0.74278 0.0
H170 H 0.69778 0.28386 0.8068 0.0
H171 H 0.87434 0.63378 0.8907 0.0
C172 C 0.84504 0.63521 0.91714 0.0
C173 C 0.82662 0.66893 0.89086 0.0
C174 C 0.82235 0.59935 0.97258 0.0
H175 H 0.76723 0.68622 0.89384 0.0
C176 C 0.78434 0.66464 0.91858 0.0
C177 C 0.76255 0.62976 0.97526 0.0
C178 C 0.78375 0.60057 1.0049 0.0
C179 C 0.83135 0.55311 0.9891 0.0
H180 H 0.76652 0.57331 0.0482 0.0
C181 C 0.87891 0.56226 1.00704 0.0
C182 C 0.88441 0.51799 0.03128 0.0
C183 C 0.79025 0.49861 0.9907 0.0
H184 H 0.75332 0.48982 0.97464 0.0
C185 C 0.79595 0.45495 0.0138 0.0
H186 H 0.91097 0.6036 1.00486 0.0
C187 C 0.84267 0.46465 0.03494 0.0
H188 H 0.84624 0.42981 0.05217 0.0
H189 H 0.76404 0.41351 0.01545 0.0
H190 H 0.43916 0.25435 0.91367 0.0
C191 C 0.45045 0.22484 0.92884 0.0
C192 C 0.42776 0.1716 0.88968 0.0
C193 C 0.4861 0.23934 0.98874 0.0
H194 H 0.42194 0.09035 0.88248 0.0
C195 C 0.44028 0.13195 0.91157 0.0
C196 C 0.47651 0.1458 0.97067 0.0
C197 C 0.49997 0.19992 1.00765 0.0
C198 C 0.50526 0.29334 0.03562 0.0
H199 H 0.52765 0.21045 0.05312 0.0
C200 C 0.5149 0.34365 1.0049 0.0
C201 C 0.52941 0.39273 0.05121 0.0
C202 C 0.51117 0.2938 0.11293 0.0
H203 H 0.50304 0.25593 0.1387 0.0
C204 C 0.52607 0.34269 0.15844 0.0
H205 H 0.51104 0.34471 0.94562 0.0
C206 C 0.53492 0.39179 0.12789 0.0
H207 H 0.54623 0.42928 0.16426 0.0
H208 H 0.53025 0.34233 0.21776 0.0
H209 H 0.81544 0.19269 0.85384 0.0
C210 C 0.84541 0.22317 0.89287 0.0
C211 C 0.89452 0.24114 0.87947 0.0
C212 C 0.83532 0.24808 0.95361 0.0
H213 H 0.97078 0.29904 0.91396 0.0
C214 C 0.93324 0.28316 0.92749 0.0
C215 C 0.92406 0.31146 0.98447 0.0
C216 C 0.87507 0.29266 0.99852 0.0
C217 C 0.78485 0.23804 0.96089 0.0
H218 H 0.8677 0.31557 0.04102 0.0
C219 C 0.74585 0.18704 0.98258 0.0
C220 C 0.70064 0.18313 0.99702 0.0
C221 C 0.77712 0.28314 0.95063 0.0
H222 H 0.80619 0.32234 0.93348 0.0
C223 C 0.73239 0.27875 0.96344 0.0
H224 H 0.75137 0.15206 0.99125 0.0
C225 C 0.69467 0.22948 0.987 0.0
H226 H 0.66032 0.22746 0.99696 0.0
H227 H 0.727 0.31386 0.95544 0.0
H228 H 0.64037 0.85627 0.18956 0.0
C229 C 0.63447 0.82287 0.14915 0.0
C230 C 0.66308 0.79758 0.15693 0.0
C231 C 0.59505 0.80144 0.09387 0.0
H232 H 0.67442 0.73129 0.11656 0.0
C233 C 0.65352 0.75215 0.10751 0.0
C234 C 0.6126 0.72793 0.0547 0.0
C235 C 0.58357 0.75305 0.04783 0.0
C236 C 0.55736 0.81749 0.10073 0.0
H237 H 0.55011 0.73273 1.01065 0.0
C238 C 0.56105 0.86644 0.07291 0.0
C239 C 0.52323 0.87872 0.0826 0.0
C240 C 0.51711 0.78246 0.13909 0.0
H241 H 0.51413 0.74525 0.1612 0.0
C242 C 0.48071 0.79516 0.15027 0.0
H243 H 0.59201 0.89345 0.04296 0.0
C244 C 0.48376 0.8427 0.12291 0.0
H245 H 0.45456 0.85105 0.13373 0.0
H246 H 0.44985 0.76793 0.18016 0.0
H247 H 0.1704 0.78894 0.10801 0.0
C248 C 0.20757 0.81579 0.09334 0.0
C249 C 0.2397 0.86581 0.1375 0.0
C250 C 0.22359 0.79993 0.03103 0.0
H251 H 0.31314 0.93851 0.15279 0.0
C252 C 0.2882 0.90003 0.11888 0.0
C253 C 0.30456 0.88437 0.05664 0.0
C254 C 0.27199 0.83457 1.01323 0.0
C255 C 0.1911 0.7465 0.98492 0.0
H256 H 0.28482 0.82174 0.96629 0.0
C257 C 0.16392 0.69556 0.01731 0.0
C258 C 0.13714 0.64478 0.97248 0.0
C259 C 0.18975 0.74582 0.90747 0.0
H260 H 0.20987 0.78447 0.88114 0.0
C261 C 0.16271 0.69529 0.8632 0.0
H262 H 0.16445 0.69519 0.07683 0.0
C263 C 0.13668 0.6449 0.8955 0.0
H264 H 0.11552 0.60599 0.86032 0.0
H265 H 0.16196 0.6952 0.80371 0.0
H266 H 0.26235 0.39118 0.18591 0.0
C267 C 0.23485 0.39065 0.14727 0.0
C268 C 0.18456 0.35625 0.15663 0.0
C269 C 0.24967 0.42862 0.09243 0.0
H270 H 0.11122 0.33732 0.12154 0.0
C271 C 0.14962 0.36011 0.1104 0.0
C272 C 0.16446 0.39972 0.05801 0.0
C273 C 0.21417 0.43171 0.04657 0.0
C274 C 0.30072 0.47553 0.09502 0.0
H275 H 0.2259 0.46423 1.00855 0.0
C276 C 0.33669 0.47003 0.05982 0.0
C277 C 0.38221 0.51823 0.05188 0.0
C278 C 0.31133 0.52868 0.12495 0.0
H279 H 0.28378 0.53348 0.15193 0.0
C280 C 0.35673 0.57624 0.11781 0.0
H281 H 0.3286 0.4292 0.03617 0.0
C282 C 0.3919 0.5712 0.08094 0.0
H283 H 0.4271 0.60872 0.07612 0.0
H284 H 0.36446 0.61716 0.14014 0.0
H285 H 0.54101 0.9671 0.22403 0.0
C286 C 0.51171 0.96854 0.25047 0.0
C287 C 0.49328 1.00225 0.22419 0.0
C288 C 0.48902 0.93268 0.30592 0.0
H289 H 0.4339 0.01954 0.22717 0.0
C290 C 0.451 0.99797 0.25191 0.0
C291 C 0.42922 0.96308 0.30859 0.0
C292 C 0.45042 0.9339 0.33823 0.0
C293 C 0.49801 0.88644 0.32243 0.0
H294 H 0.43319 0.90665 0.38154 0.0
C295 C 0.54557 0.89558 0.34037 0.0
C296 C 0.55108 0.85132 0.36462 0.0
C297 C 0.45691 0.83194 0.32404 0.0
H298 H 0.41999 0.82314 0.30799 0.0
C299 C 0.46262 0.78828 0.34715 0.0
H300 H 0.57764 0.93692 0.33819 0.0
C301 C 0.50934 0.79798 0.36828 0.0
H302 H 0.51291 0.76314 0.38552 0.0
H303 H 0.43071 0.74684 0.3488 0.0
H304 H 0.10582 0.58768 0.24701 0.0
C305 C 0.11711 0.55816 0.26218 0.0
C306 C 0.09442 0.50492 0.22302 0.0
C307 C 0.15276 0.57267 0.32208 0.0
H308 H 0.0886 0.42367 0.21582 0.0
C309 C 0.10694 0.46528 0.24491 0.0
C310 C 0.14317 0.47913 0.30401 0.0
C311 C 0.16663 0.53325 0.34099 0.0
C312 C 0.17192 0.62666 0.36896 0.0
H313 H 0.19431 0.54377 0.38645 0.0
C314 C 0.18156 0.67698 0.33824 0.0
C315 C 0.19607 0.72606 0.38455 0.0
C316 C 0.17783 0.62713 0.44627 0.0
H317 H 0.1697 0.58926 0.47204 0.0
C318 C 0.19273 0.67601 0.49178 0.0
H319 H 0.1777 0.67804 0.27896 0.0
C320 C 0.20158 0.72512 0.46123 0.0
H321 H 0.21289 0.76261 0.4976 0.0
H322 H 0.19691 0.67565 0.5511 0.0
H323 H 0.48211 0.52602 0.18717 0.0
C324 C 0.51207 0.5565 0.2262 0.0
C325 C 0.56119 0.57447 0.2128 0.0
C326 C 0.50199 0.5814 0.28694 0.0
H327 H 0.63744 0.63236 0.2473 0.0
C328 C 0.5999 0.61649 0.26083 0.0
C329 C 0.59073 0.64478 0.3178 0.0
C330 C 0.54173 0.62599 0.33186 0.0
C331 C 0.45151 0.57137 0.29422 0.0
H332 H 0.53437 0.64889 0.37436 0.0
C333 C 0.41251 0.52036 0.31591 0.0
C334 C 0.3673 0.51645 0.33035 0.0
C335 C 0.44378 0.61646 0.28396 0.0
H336 H 0.47286 0.65567 0.26682 0.0
C337 C 0.39906 0.61208 0.29678 0.0
H338 H 0.41804 0.48538 0.32458 0.0
C339 C 0.36133 0.56281 0.32034 0.0
H340 H 0.32699 0.56079 0.3303 0.0
H341 H 0.39367 0.64719 0.28879 0.0
Tb342 Tb 0.56324 0.0591 0.04068 0.0
C343 C 0.52074 0.92627 0.05115 0.0
Tb344 Tb 0.44996 0.97364 1.00846 0.0
O345 O 0.55503 0.0762 0.15751 0.0
O346 O 0.50432 1.00386 0.09732 0.0
O347 O 0.56113 0.97685 0.04605 0.0
C348 C 0.35598 0.91777 0.03788 0.0
O349 O 0.47537 0.91806 0.04284 0.0
C350 C 0.5022 0.99705 0.89292 0.0
C351 C 0.48722 0.10232 0.9957 0.0
O352 O 0.37386 0.90526 0.98206 0.0
O353 O 0.39102 0.96209 0.07661 0.0
O354 O 0.45936 0.9516 0.8955 0.0
O355 O 0.50931 0.0282 0.95034 0.0
O356 O 0.44894 0.05119 0.99901 0.0
O357 O 0.53385 0.11375 1.00552 0.0
C358 C 0.65871 0.13303 0.02427 0.0
O359 O 0.63136 0.08484 0.98563 0.0
O360 O 0.63227 0.13768 0.07317 0.0
C361 C 0.51158 0.03162 0.1575 0.0
Tb362 Tb 1.00339 0.49805 0.04768 0.0
C363 C 0.10648 0.59139 1.00358 0.0
Tb364 Tb 0.07628 0.46447 1.00411 0.0
O365 O 1.01545 0.48676 0.16474 0.0
O366 O 0.07037 0.50808 0.09672 0.0
O367 O 0.06043 0.57734 1.0128 0.0
C368 C 0.13048 0.41786 0.03151 0.0
O369 O 0.12314 0.55593 1.00918 0.0
C370 C 0.02956 0.47692 0.89069 0.0
C371 C 0.96416 0.36835 1.01345 0.0
O372 O 0.13706 0.4511 0.97952 0.0
O373 O 0.09458 0.41244 0.068 0.0
O374 O 0.0712 0.47793 0.88798 0.0
O375 O 1.01294 0.4593 0.95159 0.0
O376 O 1.0105 0.38106 1.0097 0.0
O377 O 0.95271 0.40812 0.02103 0.0
C378 C 0.93282 0.52421 0.04901 0.0
O379 O 0.96754 0.54279 1.0049 0.0
O380 O 0.93955 0.4933 0.09394 0.0
C381 C 0.05805 0.4915 0.15903 0.0
Tb382 Tb 0.51278 0.54043 0.99439 0.0
C383 C 0.53979 0.44602 0.02221 0.0
Tb384 Tb 0.61936 0.57232 0.02065 0.0
O385 O 0.51748 0.54942 0.87493 0.0
O386 O 0.56355 0.53038 0.93346 0.0
O387 O 0.50629 0.46149 0.02683 0.0
C388 C 0.71339 0.61498 0.99562 0.0
O389 O 0.58552 0.48115 1.00671 0.0
C390 C 0.5737 0.55958 0.14175 0.0
C391 C 0.59504 0.67018 0.02178 0.0
O392 O 0.69267 0.586 0.05053 0.0
O393 O 0.68077 0.61864 0.95392 0.0
O394 O 0.61279 0.55551 0.13704 0.0
O395 O 0.56775 0.57884 0.08335 0.0
O396 O 0.62858 0.65573 1.01242 0.0
O397 O 0.54803 0.63146 0.02477 0.0
C398 C 0.42116 0.51506 0.01596 0.0
O399 O 0.44241 0.48867 0.04083 0.0
O400 O 0.45085 0.55377 0.97654 0.0
C401 C 0.55694 0.54611 0.87276 0.0
Tb402 Tb 0.2299 0.39243 0.37401 0.0
C403 C 0.1874 0.2596 0.38448 0.0
Tb404 Tb 0.11662 0.30696 0.34179 0.0
O405 O 0.2217 0.40952 0.49084 0.0
O406 O 0.17098 0.33719 0.43065 0.0
O407 O 0.22779 0.31017 0.37938 0.0
C408 C 1.02264 0.25109 0.37121 0.0
O409 O 0.14203 0.25139 0.37617 0.0
C410 C 0.16886 0.33038 0.22625 0.0
C411 C 0.15388 0.43565 0.32903 0.0
O412 O 0.04052 0.23858 0.3154 0.0
O413 O 0.05768 0.29542 0.40994 0.0
O414 O 0.12602 0.28492 0.22883 0.0
O415 O 0.17597 0.36152 0.28367 0.0
O416 O 0.1156 0.38451 0.33234 0.0
O417 O 0.20051 0.44707 0.33885 0.0
C418 C 0.32537 0.46636 0.35759 0.0
O419 O 0.29802 0.41817 0.31895 0.0
O420 O 0.29894 0.47101 0.4065 0.0
C421 C 0.17824 0.36495 0.49083 0.0
Tb422 Tb 0.67005 0.83138 0.38101 0.0
C423 C 0.77314 0.92471 0.3369 0.0
Tb424 Tb 0.74294 0.7978 0.33743 0.0
O425 O 0.68212 0.82008 0.49807 0.0
O426 O 0.73704 0.84141 0.43005 0.0
O427 O 0.72709 0.91066 0.34613 0.0
C428 C 0.79715 0.75119 0.36484 0.0
O429 O 0.7898 0.88926 0.3425 0.0
C430 C 0.69622 0.81024 0.22402 0.0
C431 C 0.63082 0.70167 0.34678 0.0
O432 O 0.80372 0.78443 0.31284 0.0
O433 O 0.76124 0.74577 0.40133 0.0
O434 O 0.73785 0.81125 0.2213 0.0
O435 O 0.6796 0.79262 0.28492 0.0
O436 O 0.67716 0.71439 0.34303 0.0
O437 O 0.61938 0.74145 0.35436 0.0
C438 C 0.59949 0.85753 0.38235 0.0
O439 O 0.6342 0.87612 0.33823 0.0
O440 O 0.60622 0.82663 0.42727 0.0
C441 C 0.72472 0.82483 0.49236 0.0
Tb442 Tb 0.17945 0.87376 0.32774 0.0
C443 C 0.20646 0.77935 0.35555 0.0
Tb444 Tb 0.28603 0.90565 0.354 0.0
O445 O 0.18415 0.88276 0.20828 0.0
O446 O 0.23022 0.86371 0.2668 0.0
O447 O 0.17296 0.79483 0.36018 0.0
C448 C 0.38005 0.9483 0.32896 0.0
O449 O 0.25219 0.81448 0.34006 0.0
C450 C 0.24038 0.89291 0.47509 0.0
C451 C 0.26172 1.00351 0.35512 0.0
O452 O 0.35934 0.91933 0.38387 0.0
O453 O 0.34744 0.95197 0.28726 0.0
O454 O 0.27946 0.88885 0.47039 0.0
O455 O 0.23442 0.91217 0.41669 0.0
O456 O 0.29526 0.98906 0.34577 0.0
O457 O 0.2147 0.96479 0.35811 0.0
C458 C 0.08784 0.8484 0.3493 0.0
O459 O 0.10908 0.82201 0.37418 0.0
O460 O 0.11752 0.88711 0.30988 0.0
C461 C 0.22361 0.87944 0.2061 0.0
Tb462 Tb 0.89657 0.72578 0.70735 0.0
C463 C 0.85408 0.59295 0.71782 0.0
Tb464 Tb 0.7833 0.64031 0.67513 0.0
O465 O 0.88837 0.74288 0.82419 0.0
O466 O 0.83766 0.67054 0.76399 0.0
O467 O 0.89447 0.64353 0.71272 0.0
C468 C 0.68932 0.58444 0.70455 0.0
O469 O 0.80871 0.58474 0.70951 0.0
C470 C 0.83554 0.66373 0.55959 0.0
C471 C 0.82056 0.769 0.66238 0.0
O472 O 0.7072 0.57193 0.64873 0.0
O473 O 0.72436 0.62876 0.74328 0.0
O474 O 0.7927 0.61827 0.56218 0.0
O475 O 0.84265 0.69487 0.61701 0.0
O476 O 0.78227 0.71786 0.66568 0.0
O477 O 0.86719 0.78042 0.67219 0.0
C478 C 0.99205 0.79971 0.69093 0.0
O479 O 0.9647 0.75152 0.65229 0.0
O480 O 0.96561 0.80436 0.73984 0.0
C481 C 0.84491 0.6983 0.82417 0.0
Tb482 Tb 0.33672 0.16472 0.71434 0.0
C483 C 0.43982 0.25805 0.67024 0.0
Tb484 Tb 0.40961 0.13114 0.67077 0.0
O485 O 0.34879 0.15343 0.8314 0.0
O486 O 0.40371 0.17475 0.76338 0.0
O487 O 0.39377 0.24401 0.67947 0.0
C488 C 0.46382 0.08453 0.69817 0.0
O489 O 0.45647 0.2226 0.67583 0.0
C490 C 0.36289 0.14358 0.55735 0.0
C491 C 0.29749 0.03502 0.68012 0.0
O492 O 0.47039 0.11777 0.64618 0.0
O493 O 0.42791 0.07911 0.73466 0.0
O494 O 0.40453 0.1446 0.55464 0.0
O495 O 0.34627 0.12596 0.61825 0.0
O496 O 0.34383 0.04773 0.67637 0.0
O497 O 0.28605 0.07479 0.6877 0.0
C498 C 0.26616 0.19087 0.71568 0.0
O499 O 0.30087 0.20946 0.67156 0.0
O500 O 0.27289 0.15997 0.76061 0.0
C501 C 0.39139 0.15817 0.8257 0.0
Tb502 Tb 0.84611 0.20711 0.66106 0.0
C503 C 0.8731 0.11268 0.68889 0.0
Tb504 Tb 0.95269 0.23897 0.68732 0.0
O505 O 0.85081 0.2161 0.5416 0.0
O506 O 0.89688 0.19705 0.60013 0.0
O507 O 0.8396 0.12817 0.69352 0.0
C508 C 0.0467 0.28161 0.66227 0.0
O509 O 0.91883 0.1478 0.67338 0.0
C510 C 0.90703 0.22624 0.80842 0.0
C511 C 0.92839 0.33685 0.68846 0.0
O512 O 0.02599 0.25264 0.71718 0.0
O513 O 1.01409 0.28529 0.62058 0.0
O514 O 0.94611 0.22217 0.80371 0.0
O515 O 0.90108 0.24551 0.75001 0.0
O516 O 0.96192 0.32239 0.67911 0.0
O517 O 0.88137 0.29814 0.69143 0.0
C518 C 0.7545 0.18177 0.68263 0.0
O519 O 0.77573 0.15535 0.70747 0.0
O520 O 0.7842 0.2205 0.64324 0.0
C521 C 0.89026 0.21278 0.53943 0.0
loop_
_geom_bond_atom_site_label_1
_geom_bond_atom_site_label_2
_geom_bond_distance
_geom_bond_site_symmetry_2
_ccdc_geom_bond_type
H0 C1 0.949 . S
C1 H0 0.949 . S
C1 C2 1.395 . S
C1 C3 1.391 . S
C2 C1 1.395 . S
C2 C5 1.390 . S
C3 C1 1.391 . S
C3 C7 1.387 . S
C3 C8 1.491 . S
H4 C5 0.950 . S
C5 C2 1.390 . S
C5 H4 0.950 . S
C5 C6 1.378 . S
C6 C5 1.378 . S
C6 C7 1.409 . S
C7 C3 1.387 . S
C7 C6 1.409 . S
C7 H9 0.951 . S
C8 C3 1.491 . S
C8 C10 1.382 . S
C8 C12 1.404 . S
H9 C7 0.951 . S
C10 C8 1.382 . S
C10 C11 1.390 . S
C10 H15 0.949 . S
C11 C10 1.390 . S
C11 C16 1.399 . S
C12 C8 1.404 . S
C12 H13 0.950 . S
C12 C14 1.375 . S
H13 C12 0.950 . S
C14 C12 1.375 . S
C14 C16 1.382 . S
C14 H18 0.950 . S
H15 C10 0.949 . S
C16 C11 1.399 . S
C16 C14 1.382 . S
C16 H17 0.952 . S
H17 C16 0.952 . S
H18 C14 0.950 . S
H19 C20 0.949 . S
C20 H19 0.949 . S
C20 C21 1.395 . S
C20 C22 1.391 . S
C21 C20 1.395 . S
C21 C24 1.390 . S
C22 C20 1.391 . S
C22 C26 1.387 . S
C22 C27 1.491 . S
H23 C24 0.950 . S
C24 C21 1.390 . S
C24 H23 0.950 . S
C24 C25 1.378 . S
C25 C24 1.378 . S
C25 C26 1.409 . S
C26 C22 1.387 . S
C26 C25 1.409 . S
C26 H28 0.951 . S
C27 C22 1.491 . S
C27 C29 1.382 . S
C27 C31 1.404 . S
H28 C26 0.951 . S
C29 C27 1.382 . S
C29 C30 1.390 1_545 S
C29 H34 0.949 . S
C30 C29 1.390 1_565 S
C30 C35 1.399 . S
C31 C27 1.404 . S
C31 H32 0.950 . S
C31 C33 1.375 1_545 S
H32 C31 0.950 . S
C33 C31 1.375 1_565 S
C33 C35 1.382 . S
C33 H37 0.950 . S
H34 C29 0.949 . S
C35 C30 1.399 . S
C35 C33 1.382 . S
C35 H36 0.952 . S
H36 C35 0.952 . S
H37 C33 0.950 . S
H38 C39 0.949 . S
C39 H38 0.949 . S
C39 C40 1.395 . S
C39 C41 1.391 . S
C40 C39 1.395 . S
C40 C43 1.390 . S
C41 C39 1.391 . S
C41 C45 1.387 . S
C41 C46 1.491 . S
H42 C43 0.950 . S
C43 C40 1.390 . S
C43 H42 0.950 . S
C43 C44 1.378 . S
C44 C43 1.378 . S
C44 C45 1.409 . S
C45 C41 1.387 . S
C45 C44 1.409 . S
C45 H47 0.951 . S
C46 C41 1.491 . S
C46 C48 1.382 . S
C46 C50 1.404 . S
H47 C45 0.951 . S
C48 C46 1.382 . S
C48 C49 1.390 1_655 S
C48 H53 0.949 . S
C49 C48 1.390 1_455 S
C49 C54 1.399 . S
C50 C46 1.404 . S
C50 H51 0.950 . S
C50 C52 1.375 1_655 S
H51 C50 0.950 . S
C52 C50 1.375 1_455 S
C52 C54 1.382 . S
C52 H56 0.950 . S
H53 C48 0.949 . S
C54 C49 1.399 . S
C54 C52 1.382 . S
C54 H55 0.952 . S
H55 C54 0.952 . S
H56 C52 0.950 . S
H57 C58 0.949 . S
C58 H57 0.949 . S
C58 C59 1.395 . S
C58 C60 1.391 . S
C59 C58 1.395 . S
C59 C62 1.390 . S
C60 C58 1.391 . S
C60 C64 1.387 . S
C60 C65 1.491 . S
H61 C62 0.950 . S
C62 C59 1.390 . S
C62 H61 0.950 . S
C62 C63 1.378 . S
C63 C62 1.378 . S
C63 C64 1.409 . S
C64 C60 1.387 . S
C64 C63 1.409 . S
C64 H66 0.951 . S
C65 C60 1.491 . S
C65 C67 1.382 . S
C65 C69 1.404 . S
H66 C64 0.951 . S
C67 C65 1.382 . S
C67 C68 1.390 . S
C67 H72 0.949 . S
C68 C67 1.390 . S
C68 C73 1.399 . S
C69 C65 1.404 . S
C69 H70 0.950 . S
C69 C71 1.375 . S
H70 C69 0.950 . S
C71 C69 1.375 . S
C71 C73 1.382 . S
C71 H75 0.950 . S
H72 C67 0.949 . S
C73 C68 1.399 . S
C73 C71 1.382 . S
C73 H74 0.952 . S
H74 C73 0.952 . S
H75 C71 0.950 . S
H76 C77 0.949 . S
C77 H76 0.949 . S
C77 C78 1.395 . S
C77 C79 1.391 . S
C78 C77 1.395 . S
C78 C81 1.390 . S
C79 C77 1.391 . S
C79 C83 1.387 . S
C79 C84 1.491 . S
H80 C81 0.950 . S
C81 C78 1.390 . S
C81 H80 0.950 . S
C81 C82 1.378 . S
C82 C81 1.378 . S
C82 C83 1.409 . S
C83 C79 1.387 . S
C83 C82 1.409 . S
C83 H85 0.951 . S
C84 C79 1.491 . S
C84 C86 1.382 . S
C84 C88 1.404 . S
H85 C83 0.951 . S
C86 C84 1.382 . S
C86 C87 1.390 1_565 S
C86 H91 0.949 . S
C87 C86 1.390 1_545 S
C87 C92 1.399 . S
C88 C84 1.404 . S
C88 H89 0.950 . S
C88 C90 1.375 1_565 S
H89 C88 0.950 . S
C90 C88 1.375 1_545 S
C90 C92 1.382 . S
C90 H94 0.950 . S
H91 C86 0.949 . S
C92 C87 1.399 . S
C92 C90 1.382 . S
C92 H93 0.952 . S
H93 C92 0.952 . S
H94 C90 0.950 . S
H95 C96 0.949 . S
C96 H95 0.949 . S
C96 C97 1.395 . S
C96 C98 1.391 . S
C97 C96 1.395 . S
C97 C100 1.390 . S
C98 C96 1.391 . S
C98 C102 1.387 . S
C98 C103 1.491 . S
H99 C100 0.950 . S
C100 C97 1.390 . S
C100 H99 0.950 . S
C100 C101 1.378 . S
C101 C100 1.378 . S
C101 C102 1.409 . S
C102 C98 1.387 . S
C102 C101 1.409 . S
C102 H104 0.951 . S
C103 C98 1.491 . S
C103 C105 1.382 . S
C103 C107 1.404 . S
H104 C102 0.951 . S
C105 C103 1.382 . S
C105 C106 1.390 . S
C105 H110 0.949 . S
C106 C105 1.390 . S
C106 C111 1.399 1_455 S
C107 C103 1.404 . S
C107 H108 0.950 . S
C107 C109 1.375 . S
H108 C107 0.950 . S
C109 C107 1.375 . S
C109 C111 1.382 1_455 S
C109 H113 0.950 . S
H110 C105 0.949 . S
C111 C106 1.399 1_655 S
C111 C109 1.382 1_655 S
C111 H112 0.952 . S
H112 C111 0.952 . S
H113 C109 0.950 . S
H114 C115 0.949 . S
C115 H114 0.949 . S
C115 C116 1.395 . S
C115 C117 1.391 . S
C116 C115 1.395 . S
C116 C119 1.390 . S
C117 C115 1.391 . S
C117 C121 1.387 . S
C117 C122 1.491 . S
H118 C119 0.950 . S
C119 C116 1.390 . S
C119 H118 0.950 . S
C119 C120 1.378 . S
C120 C119 1.378 . S
C120 C121 1.409 . S
C121 C117 1.387 . S
C121 C120 1.409 . S
C121 H123 0.951 . S
C122 C117 1.491 . S
C122 C124 1.382 . S
C122 C126 1.404 . S
H123 C121 0.951 . S
C124 C122 1.382 . S
C124 C125 1.390 . S
C124 H129 0.949 . S
C125 C124 1.390 . S
C125 C130 1.399 . S
C126 C122 1.404 . S
C126 H127 0.950 . S
C126 C128 1.375 . S
H127 C126 0.950 . S
C128 C126 1.375 . S
C128 C130 1.382 . S
C128 H132 0.950 . S
H129 C124 0.949 . S
C130 C125 1.399 . S
C130 C128 1.382 . S
C130 H131 0.952 . S
H131 C130 0.952 . S
H132 C128 0.950 . S
H133 C134 0.949 . S
C134 H133 0.949 . S
C134 C135 1.395 . S
C134 C136 1.391 . S
C135 C134 1.395 . S
C135 C138 1.390 . S
C136 C134 1.391 . S
C136 C140 1.387 . S
C136 C141 1.491 . S
H137 C138 0.950 . S
C138 C135 1.390 . S
C138 H137 0.950 . S
C138 C139 1.378 . S
C139 C138 1.378 . S
C139 C140 1.409 . S
C140 C136 1.387 . S
C140 C139 1.409 . S
C140 H142 0.951 . S
C141 C136 1.491 . S
C141 C143 1.382 . S
C141 C145 1.404 . S
H142 C140 0.951 . S
C143 C141 1.382 . S
C143 C144 1.390 . S
C143 H148 0.949 . S
C144 C143 1.390 . S
C144 C149 1.399 . S
C145 C141 1.404 . S
C145 H146 0.950 . S
C145 C147 1.375 . S
H146 C145 0.950 . S
C147 C145 1.375 . S
C147 C149 1.382 . S
C147 H151 0.950 . S
H148 C143 0.949 . S
C149 C144 1.399 . S
C149 C147 1.382 . S
C149 H150 0.952 . S
H150 C149 0.952 . S
H151 C147 0.950 . S
H152 C153 0.949 . S
C153 H152 0.949 . S
C153 C154 1.395 . S
C153 C155 1.391 . S
C154 C153 1.395 . S
C154 C157 1.390 . S
C155 C153 1.391 . S
C155 C159 1.387 . S
C155 C160 1.491 . S
H156 C157 0.950 . S
C157 C154 1.390 . S
C157 H156 0.950 . S
C157 C158 1.378 . S
C158 C157 1.378 . S
C158 C159 1.409 . S
C159 C155 1.387 . S
C159 C158 1.409 . S
C159 H161 0.951 . S
C160 C155 1.491 . S
C160 C162 1.382 . S
C160 C164 1.404 . S
H161 C159 0.951 . S
C162 C160 1.382 . S
C162 C163 1.390 . S
C162 H167 0.949 . S
C163 C162 1.390 . S
C163 C168 1.399 . S
C164 C160 1.404 . S
C164 H165 0.950 . S
C164 C166 1.375 . S
H165 C164 0.950 . S
C166 C164 1.375 . S
C166 C168 1.382 . S
C166 H170 0.950 . S
H167 C162 0.949 . S
C168 C163 1.399 . S
C168 C166 1.382 . S
C168 H169 0.952 . S
H169 C168 0.952 . S
H170 C166 0.950 . S
H171 C172 0.949 . S
C172 H171 0.949 . S
C172 C173 1.395 . S
C172 C174 1.391 . S
C173 C172 1.395 . S
C173 C176 1.390 . S
C174 C172 1.391 . S
C174 C178 1.387 . S
C174 C179 1.491 . S
H175 C176 0.950 . S
C176 C173 1.390 . S
C176 H175 0.950 . S
C176 C177 1.378 . S
C177 C176 1.378 . S
C177 C178 1.409 . S
C178 C174 1.387 . S
C178 C177 1.409 . S
C178 H180 0.951 1_556 S
C179 C174 1.491 . S
C179 C181 1.382 . S
C179 C183 1.404 . S
H180 C178 0.951 1_554 S
C181 C179 1.382 . S
C181 C182 1.390 . S
C181 H186 0.949 . S
C182 C181 1.390 . S
C182 C187 1.399 1_556 S
C183 C179 1.404 . S
C183 H184 0.950 . S
C183 C185 1.375 . S
H184 C183 0.950 . S
C185 C183 1.375 . S
C185 C187 1.382 1_556 S
C185 H189 0.950 1_556 S
H186 C181 0.949 . S
C187 C182 1.399 1_554 S
C187 C185 1.382 1_554 S
C187 H188 0.952 . S
H188 C187 0.952 . S
H189 C185 0.950 1_554 S
H190 C191 0.949 . S
C191 H190 0.949 . S
C191 C192 1.395 . S
C191 C193 1.391 . S
C192 C191 1.395 . S
C192 C195 1.390 . S
C193 C191 1.391 . S
C193 C197 1.387 1_556 S
C193 C198 1.491 1_556 S
H194 C195 0.950 . S
C195 C192 1.390 . S
C195 H194 0.950 . S
C195 C196 1.378 . S
C196 C195 1.378 . S
C196 C197 1.409 1_556 S
C197 C193 1.387 1_554 S
C197 C196 1.409 1_554 S
C197 H199 0.951 . S
C198 C193 1.491 1_554 S
C198 C200 1.382 . S
C198 C202 1.404 . S
H199 C197 0.951 . S
C200 C198 1.382 . S
C200 C201 1.390 . S
C200 H205 0.949 1_554 S
C201 C200 1.390 . S
C201 C206 1.399 . S
C202 C198 1.404 . S
C202 H203 0.950 . S
C202 C204 1.375 . S
H203 C202 0.950 . S
C204 C202 1.375 . S
C204 C206 1.382 . S
C204 H208 0.950 . S
H205 C200 0.949 1_556 S
C206 C201 1.399 . S
C206 C204 1.382 . S
C206 H207 0.952 . S
H207 C206 0.952 . S
H208 C204 0.950 . S
H209 C210 0.949 . S
C210 H209 0.949 . S
C210 C211 1.395 . S
C210 C212 1.391 . S
C211 C210 1.395 . S
C211 C214 1.390 . S
C212 C210 1.391 . S
C212 C216 1.387 . S
C212 C217 1.491 . S
H213 C214 0.950 . S
C214 C211 1.390 . S
C214 H213 0.950 . S
C214 C215 1.378 . S
C215 C214 1.378 . S
C215 C216 1.409 . S
C216 C212 1.387 . S
C216 C215 1.409 . S
C216 H218 0.951 1_556 S
C217 C212 1.491 . S
C217 C219 1.382 . S
C217 C221 1.404 1_556 S
H218 C216 0.951 1_554 S
C219 C217 1.382 . S
C219 C220 1.390 1_556 S
C219 H224 0.949 . S
C220 C219 1.390 1_554 S
C220 C225 1.399 . S
C221 C217 1.404 1_554 S
C221 H222 0.950 . S
C221 C223 1.375 . S
H222 C221 0.950 . S
C223 C221 1.375 . S
C223 C225 1.382 . S
C223 H227 0.950 . S
H224 C219 0.949 . S
C225 C220 1.399 . S
C225 C223 1.382 . S
C225 H226 0.952 . S
H226 C225 0.952 . S
H227 C223 0.950 . S
H228 C229 0.949 . S
C229 H228 0.949 . S
C229 C230 1.395 . S
C229 C231 1.391 . S
C230 C229 1.395 . S
C230 C233 1.390 . S
C231 C229 1.391 . S
C231 C235 1.387 . S
C231 C236 1.491 . S
H232 C233 0.950 . S
C233 C230 1.390 . S
C233 H232 0.950 . S
C233 C234 1.378 . S
C234 C233 1.378 . S
C234 C235 1.409 . S
C235 C231 1.387 . S
C235 C234 1.409 . S
C235 H237 0.951 1_554 S
C236 C231 1.491 . S
C236 C238 1.382 . S
C236 C240 1.404 1_554 S
H237 C235 0.951 1_556 S
C238 C236 1.382 . S
C238 C239 1.390 1_554 S
C238 H243 0.949 . S
C239 C238 1.390 1_556 S
C239 C244 1.399 . S
C240 C236 1.404 1_556 S
C240 H241 0.950 . S
C240 C242 1.375 . S
H241 C240 0.950 . S
C242 C240 1.375 . S
C242 C244 1.382 . S
C242 H246 0.950 . S
H243 C238 0.949 . S
C244 C239 1.399 . S
C244 C242 1.382 . S
C244 H245 0.952 . S
H245 C244 0.952 . S
H246 C242 0.950 . S
H247 C248 0.949 . S
C248 H247 0.949 . S
C248 C249 1.395 . S
C248 C250 1.391 . S
C249 C248 1.395 . S
C249 C252 1.390 . S
C250 C248 1.391 . S
C250 C254 1.387 . S
C250 C255 1.491 . S
H251 C252 0.950 . S
C252 C249 1.390 . S
C252 H251 0.950 . S
C252 C253 1.378 . S
C253 C252 1.378 . S
C253 C254 1.409 . S
C254 C250 1.387 . S
C254 C253 1.409 . S
C254 H256 0.951 1_554 S
C255 C250 1.491 . S
C255 C257 1.382 . S
C255 C259 1.404 . S
H256 C254 0.951 1_556 S
C257 C255 1.382 . S
C257 C258 1.390 1_554 S
C257 H262 0.949 . S
C258 C257 1.390 1_556 S
C258 C263 1.399 . S
C259 C255 1.404 . S
C259 H260 0.950 . S
C259 C261 1.375 1_554 S
H260 C259 0.950 . S
C261 C259 1.375 1_556 S
C261 C263 1.382 . S
C261 H265 0.950 . S
H262 C257 0.949 . S
C263 C258 1.399 . S
C263 C261 1.382 . S
C263 H264 0.952 . S
H264 C263 0.952 . S
H265 C261 0.950 . S
H266 C267 0.949 . S
C267 H266 0.949 . S
C267 C268 1.395 . S
C267 C269 1.391 . S
C268 C267 1.395 . S
C268 C271 1.390 . S
C269 C267 1.391 . S
C269 C273 1.387 . S
C269 C274 1.491 . S
H270 C271 0.950 . S
C271 C268 1.390 . S
C271 H270 0.950 . S
C271 C272 1.378 . S
C272 C271 1.378 . S
C272 C273 1.409 . S
C273 C269 1.387 . S
C273 C272 1.409 . S
C273 H275 0.951 . S
C274 C269 1.491 . S
C274 C276 1.382 . S
C274 C278 1.404 . S
H275 C273 0.951 . S
C276 C274 1.382 . S
C276 C277 1.390 . S
C276 H281 0.949 . S
C277 C276 1.390 . S
C277 C282 1.399 . S
C278 C274 1.404 . S
C278 H279 0.950 . S
C278 C280 1.375 . S
H279 C278 0.950 . S
C280 C278 1.375 . S
C280 C282 1.382 . S
C280 H284 0.950 . S
H281 C276 0.949 . S
C282 C277 1.399 . S
C282 C280 1.382 . S
C282 H283 0.952 . S
H283 C282 0.952 . S
H284 C280 0.950 . S
H285 C286 0.949 . S
C286 H285 0.949 . S
C286 C287 1.395 . S
C286 C288 1.391 . S
C287 C286 1.395 . S
C287 C290 1.390 . S
C288 C286 1.391 . S
C288 C292 1.387 . S
C288 C293 1.491 . S
H289 C290 0.950 . S
C290 C287 1.390 . S
C290 H289 0.950 . S
C290 C291 1.378 . S
C291 C290 1.378 . S
C291 C292 1.409 . S
C292 C288 1.387 . S
C292 C291 1.409 . S
C292 H294 0.951 . S
C293 C288 1.491 . S
C293 C295 1.382 . S
C293 C297 1.404 . S
H294 C292 0.951 . S
C295 C293 1.382 . S
C295 C296 1.390 . S
C295 H300 0.949 . S
C296 C295 1.390 . S
C296 C301 1.399 . S
C297 C293 1.404 . S
C297 H298 0.950 . S
C297 C299 1.375 . S
H298 C297 0.950 . S
C299 C297 1.375 . S
C299 C301 1.382 . S
C299 H303 0.950 . S
H300 C295 0.949 . S
C301 C296 1.399 . S
C301 C299 1.382 . S
C301 H302 0.952 . S
H302 C301 0.952 . S
H303 C299 0.950 . S
H304 C305 0.949 . S
C305 H304 0.949 . S
C305 C306 1.395 . S
C305 C307 1.391 . S
C306 C305 1.395 . S
C306 C309 1.390 . S
C307 C305 1.391 . S
C307 C311 1.387 . S
C307 C312 1.491 . S
H308 C309 0.950 . S
C309 C306 1.390 . S
C309 H308 0.950 . S
C309 C310 1.378 . S
C310 C309 1.378 . S
C310 C311 1.409 . S
C311 C307 1.387 . S
C311 C310 1.409 . S
C311 H313 0.951 . S
C312 C307 1.491 . S
C312 C314 1.382 . S
C312 C316 1.404 . S
H313 C311 0.951 . S
C314 C312 1.382 . S
C314 C315 1.390 . S
C314 H319 0.949 . S
C315 C314 1.390 . S
C315 C320 1.399 . S
C316 C312 1.404 . S
C316 H317 0.950 . S
C316 C318 1.375 . S
H317 C316 0.950 . S
C318 C316 1.375 . S
C318 C320 1.382 . S
C318 H322 0.950 . S
H319 C314 0.949 . S
C320 C315 1.399 . S
C320 C318 1.382 . S
C320 H321 0.952 . S
H321 C320 0.952 . S
H322 C318 0.950 . S
H323 C324 0.949 . S
C324 H323 0.949 . S
C324 C325 1.395 . S
C324 C326 1.391 . S
C325 C324 1.395 . S
C325 C328 1.390 . S
C326 C324 1.391 . S
C326 C330 1.387 . S
C326 C331 1.491 . S
H327 C328 0.950 . S
C328 C325 1.390 . S
C328 H327 0.950 . S
C328 C329 1.378 . S
C329 C328 1.378 . S
C329 C330 1.409 . S
C330 C326 1.387 . S
C330 C329 1.409 . S
C330 H332 0.951 . S
C331 C326 1.491 . S
C331 C333 1.382 . S
C331 C335 1.404 . S
H332 C330 0.951 . S
C333 C331 1.382 . S
C333 C334 1.390 . S
C333 H338 0.949 . S
C334 C333 1.390 . S
C334 C339 1.399 . S
C335 C331 1.404 . S
C335 H336 0.950 . S
C335 C337 1.375 . S
H336 C335 0.950 . S
C337 C335 1.375 . S
C337 C339 1.382 . S
C337 H341 0.950 . S
H338 C333 0.949 . S
C339 C334 1.399 . S
C339 C337 1.382 . S
C339 H340 0.952 . S
H340 C339 0.952 . S
H341 C337 0.950 . S
Tb342 O345 2.453 . S
Tb342 O346 2.596 1_545 S
Tb342 O347 2.374 1_545 S
Tb342 O355 2.343 1_554 S
Tb342 O357 2.353 . S
Tb342 O359 2.427 . S
Tb342 O360 2.519 . S
C343 O347 1.251 . S
C343 O349 1.263 1_554 S
Tb344 O346 2.343 1_556 S
Tb344 O349 2.353 . S
Tb344 O352 2.421 1_556 S
Tb344 O353 2.513 1_556 S
Tb344 O354 2.453 . S
Tb344 O355 2.596 1_565 S
Tb344 O356 2.374 1_565 S
O345 Tb342 2.453 . S
O345 C361 1.245 1_545 S
O346 Tb342 2.596 1_565 S
O346 Tb344 2.343 1_554 S
O346 C361 1.259 . S
O347 Tb342 2.374 1_565 S
O347 C343 1.251 . S
C348 O352 1.279 . S
C348 O353 1.246 . S
O349 C343 1.263 1_556 S
O349 Tb344 2.353 . S
C350 O354 1.245 1_545 S
C350 O355 1.259 . S
C351 O356 1.250 1_554 S
C351 O357 1.263 . S
O352 Tb344 2.421 1_554 S
O352 C348 1.279 . S
O353 Tb344 2.513 1_554 S
O353 C348 1.246 . S
O354 Tb344 2.453 . S
O354 C350 1.245 1_565 S
O355 Tb342 2.343 1_556 S
O355 Tb344 2.596 1_545 S
O355 C350 1.259 . S
O356 Tb344 2.374 1_545 S
O356 C351 1.250 1_556 S
O357 Tb342 2.353 . S
O357 C351 1.263 . S
C358 O359 1.275 1_556 S
C358 O360 1.244 1_556 S
O359 Tb342 2.427 . S
O359 C358 1.275 1_554 S
O360 Tb342 2.519 . S
O360 C358 1.244 1_554 S
C361 O345 1.245 1_565 S
C361 O346 1.259 . S
Tb362 O365 2.453 1_655 S
Tb362 O366 2.596 1_655 S
Tb362 O367 2.374 1_655 S
Tb362 O375 2.343 1_554 S
Tb362 O377 2.353 . S
Tb362 O379 2.427 . S
Tb362 O380 2.513 1_554 S
C363 O367 1.251 . S
C363 O369 1.263 1_554 S
Tb364 O366 2.343 1_556 S
Tb364 O369 2.353 . S
Tb364 O372 2.427 1_556 S
Tb364 O373 2.513 1_556 S
Tb364 O374 2.453 1_455 S
Tb364 O375 2.596 1_455 S
Tb364 O376 2.374 1_455 S
O365 Tb362 2.453 1_455 S
O365 C381 1.245 . S
O366 Tb362 2.596 1_455 S
O366 Tb364 2.343 1_554 S
O366 C381 1.259 . S
O367 Tb362 2.374 1_455 S
O367 C363 1.251 . S
C368 O372 1.275 . S
C368 O373 1.246 . S
O369 C363 1.263 1_556 S
O369 Tb364 2.353 . S
C370 O374 1.245 . S
C370 O375 1.259 . S
C371 O376 1.250 1_554 S
C371 O377 1.263 . S
O372 Tb364 2.427 1_554 S
O372 C368 1.275 . S
O373 Tb364 2.513 1_554 S
O373 C368 1.246 . S
O374 Tb364 2.453 1_655 S
O374 C370 1.245 . S
O375 Tb362 2.343 1_556 S
O375 Tb364 2.596 1_655 S
O375 C370 1.259 . S
O376 Tb364 2.374 1_655 S
O376 C371 1.250 1_556 S
O377 Tb362 2.353 . S
O377 C371 1.263 . S
C378 O379 1.275 1_556 S
C378 O380 1.246 . S
O379 Tb362 2.427 . S
O379 C378 1.275 1_554 S
O380 Tb362 2.513 1_556 S
O380 C378 1.246 . S
C381 O365 1.245 . S
C381 O366 1.259 . S
Tb382 O385 2.453 . S
Tb382 O386 2.596 . S
Tb382 O387 2.374 . S
Tb382 O395 2.343 1_556 S
Tb382 O397 2.353 . S
Tb382 O399 2.427 1_556 S
Tb382 O400 2.513 1_556 S
C383 O387 1.251 1_554 S
C383 O389 1.263 . S
Tb384 O386 2.343 1_554 S
Tb384 O389 2.353 . S
Tb384 O392 2.427 . S
Tb384 O393 2.513 1_554 S
Tb384 O394 2.453 . S
Tb384 O395 2.596 . S
Tb384 O396 2.374 . S
O385 Tb382 2.453 . S
O385 C401 1.245 . S
O386 Tb382 2.596 . S
O386 Tb384 2.343 1_556 S
O386 C401 1.259 . S
O387 Tb382 2.374 . S
O387 C383 1.251 1_556 S
C388 O392 1.275 1_556 S
C388 O393 1.246 . S
O389 C383 1.263 . S
O389 Tb384 2.353 . S
C390 O394 1.245 . S
C390 O395 1.259 . S
C391 O396 1.250 . S
C391 O397 1.263 1_554 S
O392 Tb384 2.427 . S
O392 C388 1.275 1_554 S
O393 Tb384 2.513 1_556 S
O393 C388 1.246 . S
O394 Tb384 2.453 . S
O394 C390 1.245 . S
O395 Tb382 2.343 1_554 S
O395 Tb384 2.596 . S
O395 C390 1.259 . S
O396 Tb384 2.374 . S
O396 C391 1.250 . S
O397 Tb382 2.353 . S
O397 C391 1.263 1_556 S
C398 O399 1.275 . S
C398 O400 1.246 . S
O399 Tb382 2.427 1_554 S
O399 C398 1.275 . S
O400 Tb382 2.513 1_554 S
O400 C398 1.246 . S
C401 O385 1.245 . S
C401 O386 1.259 . S
Tb402 O405 2.453 . S
Tb402 O406 2.596 . S
Tb402 O407 2.374 . S
Tb402 O415 2.343 . S
Tb402 O417 2.353 . S
Tb402 O419 2.427 . S
Tb402 O420 2.513 . S
C403 O407 1.251 . S
C403 O409 1.263 . S
Tb404 O406 2.343 . S
Tb404 O409 2.353 . S
Tb404 O412 2.427 . S
Tb404 O413 2.513 . S
Tb404 O414 2.453 . S
Tb404 O415 2.596 . S
Tb404 O416 2.374 . S
O405 Tb402 2.453 . S
O405 C421 1.245 . S
O406 Tb402 2.596 . S
O406 Tb404 2.343 . S
O406 C421 1.259 . S
O407 Tb402 2.374 . S
O407 C403 1.251 . S
C408 O412 1.275 . S
C408 O413 1.246 . S
O409 C403 1.263 . S
O409 Tb404 2.353 . S
C410 O414 1.245 . S
C410 O415 1.259 . S
C411 O416 1.250 . S
C411 O417 1.263 . S
O412 Tb404 2.427 . S
O412 C408 1.275 . S
O413 Tb404 2.513 . S
O413 C408 1.246 . S
O414 Tb404 2.453 . S
O414 C410 1.245 . S
O415 Tb402 2.343 . S
O415 Tb404 2.596 . S
O415 C410 1.259 . S
O416 Tb404 2.374 . S
O416 C411 1.250 . S
O417 Tb402 2.353 . S
O417 C411 1.263 . S
C418 O419 1.275 . S
C418 O420 1.246 . S
O419 Tb402 2.427 . S
O419 C418 1.275 . S
O420 Tb402 2.513 . S
O420 C418 1.246 . S
C421 O405 1.245 . S
C421 O406 1.259 . S
Tb422 O425 2.453 . S
Tb422 O426 2.596 . S
Tb422 O427 2.374 . S
Tb422 O435 2.343 . S
Tb422 O437 2.353 . S
Tb422 O439 2.427 . S
Tb422 O440 2.513 . S
C423 O427 1.251 . S
C423 O429 1.263 . S
Tb424 O426 2.343 . S
Tb424 O429 2.353 . S
Tb424 O432 2.427 . S
Tb424 O433 2.513 . S
Tb424 O434 2.453 . S
Tb424 O435 2.596 . S
Tb424 O436 2.374 . S
O425 Tb422 2.453 . S
O425 C441 1.245 . S
O426 Tb422 2.596 . S
O426 Tb424 2.343 . S
O426 C441 1.259 . S
O427 Tb422 2.374 . S
O427 C423 1.251 . S
C428 O432 1.275 . S
C428 O433 1.246 . S
O429 C423 1.263 . S
O429 Tb424 2.353 . S
C430 O434 1.245 . S
C430 O435 1.259 . S
C431 O436 1.250 . S
C431 O437 1.263 . S
O432 Tb424 2.427 . S
O432 C428 1.275 . S
O433 Tb424 2.513 . S
O433 C428 1.246 . S
O434 Tb424 2.453 . S
O434 C430 1.245 . S
O435 Tb422 2.343 . S
O435 Tb424 2.596 . S
O435 C430 1.259 . S
O436 Tb424 2.374 . S
O436 C431 1.250 . S
O437 Tb422 2.353 . S
O437 C431 1.263 . S
C438 O439 1.275 . S
C438 O440 1.246 . S
O439 Tb422 2.427 . S
O439 C438 1.275 . S
O440 Tb422 2.513 . S
O440 C438 1.246 . S
C441 O425 1.245 . S
C441 O426 1.259 . S
Tb442 O445 2.453 . S
Tb442 O446 2.596 . S
Tb442 O447 2.374 . S
Tb442 O455 2.343 . S
Tb442 O457 2.353 . S
Tb442 O459 2.427 . S
Tb442 O460 2.513 . S
C443 O447 1.251 . S
C443 O449 1.263 . S
Tb444 O446 2.343 . S
Tb444 O449 2.353 . S
Tb444 O452 2.427 . S
Tb444 O453 2.513 . S
Tb444 O454 2.453 . S
Tb444 O455 2.596 . S
Tb444 O456 2.374 . S
O445 Tb442 2.453 . S
O445 C461 1.245 . S
O446 Tb442 2.596 . S
O446 Tb444 2.343 . S
O446 C461 1.259 . S
O447 Tb442 2.374 . S
O447 C443 1.251 . S
C448 O452 1.275 . S
C448 O453 1.246 . S
O449 C443 1.263 . S
O449 Tb444 2.353 . S
C450 O454 1.245 . S
C450 O455 1.259 . S
C451 O456 1.250 . S
C451 O457 1.263 . S
O452 Tb444 2.427 . S
O452 C448 1.275 . S
O453 Tb444 2.513 . S
O453 C448 1.246 . S
O454 Tb444 2.453 . S
O454 C450 1.245 . S
O455 Tb442 2.343 . S
O455 Tb444 2.596 . S
O455 C450 1.259 . S
O456 Tb444 2.374 . S
O456 C451 1.250 . S
O457 Tb442 2.353 . S
O457 C451 1.263 . S
C458 O459 1.275 . S
C458 O460 1.246 . S
O459 Tb442 2.427 . S
O459 C458 1.275 . S
O460 Tb442 2.513 . S
O460 C458 1.246 . S
C461 O445 1.245 . S
C461 O446 1.259 . S
Tb462 O465 2.453 . S
Tb462 O466 2.596 . S
Tb462 O467 2.374 . S
Tb462 O475 2.343 . S
Tb462 O477 2.353 . S
Tb462 O479 2.427 . S
Tb462 O480 2.513 . S
C463 O467 1.251 . S
C463 O469 1.263 . S
Tb464 O466 2.343 . S
Tb464 O469 2.353 . S
Tb464 O472 2.427 . S
Tb464 O473 2.513 . S
Tb464 O474 2.453 . S
Tb464 O475 2.596 . S
Tb464 O476 2.374 . S
O465 Tb462 2.453 . S
O465 C481 1.245 . S
O466 Tb462 2.596 . S
O466 Tb464 2.343 . S
O466 C481 1.259 . S
O467 Tb462 2.374 . S
O467 C463 1.251 . S
C468 O472 1.275 . S
C468 O473 1.246 . S
O469 C463 1.263 . S
O469 Tb464 2.353 . S
C470 O474 1.245 . S
C470 O475 1.259 . S
C471 O476 1.250 . S
C471 O477 1.263 . S
O472 Tb464 2.427 . S
O472 C468 1.275 . S
O473 Tb464 2.513 . S
O473 C468 1.246 . S
O474 Tb464 2.453 . S
O474 C470 1.245 . S
O475 Tb462 2.343 . S
O475 Tb464 2.596 . S
O475 C470 1.259 . S
O476 Tb464 2.374 . S
O476 C471 1.250 . S
O477 Tb462 2.353 . S
O477 C471 1.263 . S
C478 O479 1.275 . S
C478 O480 1.246 . S
O479 Tb462 2.427 . S
O479 C478 1.275 . S
O480 Tb462 2.513 . S
O480 C478 1.246 . S
C481 O465 1.245 . S
C481 O466 1.259 . S
Tb482 O485 2.453 . S
Tb482 O486 2.596 . S
Tb482 O487 2.374 . S
Tb482 O495 2.343 . S
Tb482 O497 2.353 . S
Tb482 O499 2.427 . S
Tb482 O500 2.513 . S
C483 O487 1.251 . S
C483 O489 1.263 . S
Tb484 O486 2.343 . S
Tb484 O489 2.353 . S
Tb484 O492 2.427 . S
Tb484 O493 2.513 . S
Tb484 O494 2.453 . S
Tb484 O495 2.596 . S
Tb484 O496 2.374 . S
O485 Tb482 2.453 . S
O485 C501 1.245 . S
O486 Tb482 2.596 . S
O486 Tb484 2.343 . S
O486 C501 1.259 . S
O487 Tb482 2.374 . S
O487 C483 1.251 . S
C488 O492 1.275 . S
C488 O493 1.246 . S
O489 C483 1.263 . S
O489 Tb484 2.353 . S
C490 O494 1.245 . S
C490 O495 1.259 . S
C491 O496 1.250 . S
C491 O497 1.263 . S
O492 Tb484 2.427 . S
O492 C488 1.275 . S
O493 Tb484 2.513 . S
O493 C488 1.246 . S
O494 Tb484 2.453 . S
O494 C490 1.245 . S
O495 Tb482 2.343 . S
O495 Tb484 2.596 . S
O495 C490 1.259 . S
O496 Tb484 2.374 . S
O496 C491 1.250 . S
O497 Tb482 2.353 . S
O497 C491 1.263 . S
C498 O499 1.275 . S
C498 O500 1.246 . S
O499 Tb482 2.427 . S
O499 C498 1.275 . S
O500 Tb482 2.513 . S
O500 C498 1.246 . S
C501 O485 1.245 . S
C501 O486 1.259 . S
Tb502 O505 2.453 . S
Tb502 O506 2.596 . S
Tb502 O507 2.374 . S
Tb502 O515 2.343 . S
Tb502 O517 2.353 . S
Tb502 O519 2.427 . S
Tb502 O520 2.513 . S
C503 O507 1.251 . S
C503 O509 1.263 . S
Tb504 O506 2.343 . S
Tb504 O509 2.353 . S
Tb504 O512 2.427 . S
Tb504 O513 2.513 . S
Tb504 O514 2.453 . S
Tb504 O515 2.596 . S
Tb504 O516 2.374 . S
O505 Tb502 2.453 . S
O505 C521 1.245 . S
O506 Tb502 2.596 . S
O506 Tb504 2.343 . S
O506 C521 1.259 . S
O507 Tb502 2.374 . S
O507 C503 1.251 . S
C508 O512 1.275 1_455 S
C508 O513 1.246 1_455 S
O509 C503 1.263 . S
O509 Tb504 2.353 . S
C510 O514 1.245 . S
C510 O515 1.259 . S
C511 O516 1.250 . S
C511 O517 1.263 . S
O512 Tb504 2.427 . S
O512 C508 1.275 1_655 S
O513 Tb504 2.513 . S
O513 C508 1.246 1_655 S
O514 Tb504 2.453 . S
O514 C510 1.245 . S
O515 Tb502 2.343 . S
O515 Tb504 2.596 . S
O515 C510 1.259 . S
O516 Tb504 2.374 . S
O516 C511 1.250 . S
O517 Tb502 2.353 . S
O517 C511 1.263 . S
C518 O519 1.275 . S
C518 O520 1.246 . S
O519 Tb502 2.427 . S
O519 C518 1.275 . S
O520 Tb502 2.513 . S
O520 C518 1.246 . S
C521 O505 1.245 . S
C521 O506 1.259 . S
C253 C348 1.632 . S
C272 C368 1.475 . S
C234 C391 1.550 . S
C215 C371 1.439 1_556 S
C388 C177 1.536 . S
C196 C351 1.650 1_556 S
C358 C220 1.388 1_556 S
C378 C182 1.302 . S
C201 C383 1.738 . S
C258 C363 1.646 1_556 S
C277 C398 1.237 . S
C343 C239 1.607 1_554 S
C408 C25 1.633 1_455 S
C44 C428 1.475 . S
C6 C451 1.550 1_545 S
C329 C431 1.439 . S
C291 C448 1.536 . S
C310 C411 1.650 . S
C334 C418 1.388 . S
C296 C438 1.302 . S
C443 C315 1.738 . S
C30 C423 1.646 . S
C458 C49 1.237 . S
C11 C403 1.607 . S
C468 C139 1.632 . S
C158 C488 1.475 . S
C511 C120 1.550 . S
C491 C101 1.439 1_545 S
C508 C63 1.536 . S
C82 C471 1.650 . S
C106 C478 1.388 1_455 S
C68 C498 1.302 . S
C503 C87 1.738 . S
C144 C483 1.646 . S
C163 C518 1.237 . S
C125 C463 1.607 . S
C287 C361 1.464 . S
C381 C306 1.804 . S
C325 C390 1.472 . S
C116 C370 1.643 . S
C135 C401 1.688 . S
C350 C154 1.299 . S
C59 C421 1.464 . S
C78 C441 1.805 . S
C97 C450 1.473 . S
C230 C430 1.643 . S
C461 C249 1.687 . S
C268 C410 1.299 . S
C173 C481 1.464 . S
C192 C501 1.805 . S
C510 C211 1.472 . S
C2 C490 1.642 . S
C21 C521 1.687 . S
C40 C470 1.299 . S
