# Generated by pormake.
# Topology zzz, (3,6)-cn, num edge types: 1
# Building blocks:
#     Node 0, Type 0, BuildingBlock: CUQRIR_clean_linker_1, # of connection points: 3
#     Node 1, Type 0, BuildingBlock: CUQRIR_clean_linker_1, # of connection points: 3
#     Node 2, Type 0, BuildingBlock: CUQRIR_clean_linker_1, # of connection points: 3
#     Node 3, Type 0, BuildingBlock: CUQRIR_clean_linker_1, # of connection points: 3
#     Node 4, Type 0, BuildingBlock: CUQRIR_clean_linker_1, # of connection points: 3
#     Node 5, Type 0, BuildingBlock: CUQRIR_clean_linker_1, # of connection points: 3
#     Node 6, Type 0, BuildingBlock: CUQRIR_clean_linker_1, # of connection points: 3
#     Node 7, Type 0, BuildingBlock: CUQRIR_clean_linker_1, # of connection points: 3
#     Node 8, Type 1, BuildingBlock: INOVEN_clean_sbu_0, # of connection points: 6
#     Node 9, Type 1, BuildingBlock: INOVEN_clean_sbu_0, # of connection points: 6
#     Node 10, Type 1, BuildingBlock: INOVEN_clean_sbu_0, # of connection points: 6
#     Node 11, Type 1, BuildingBlock: INOVEN_clean_sbu_0, # of connection points: 6
#     Edge 12, Type (0, 1), BuildingBlock: OJICUG_clean_linker_0, # of connection points: 2
#     Edge 13, Type (0, 1), BuildingBlock: OJICUG_clean_linker_0, # of connection points: 2
#     Edge 14, Type (0, 1), BuildingBlock: OJICUG_clean_linker_0, # of connection points: 2
#     Edge 15, Type (0, 1), BuildingBlock: OJICUG_clean_linker_0, # of connection points: 2
#     Edge 16, Type (0, 1), BuildingBlock: OJICUG_clean_linker_0, # of connection points: 2
#     Edge 17, Type (0, 1), BuildingBlock: OJICUG_clean_linker_0, # of connection points: 2
#     Edge 18, Type (0, 1), BuildingBlock: OJICUG_clean_linker_0, # of connection points: 2
#     Edge 19, Type (0, 1), BuildingBlock: OJICUG_clean_linker_0, # of connection points: 2
#     Edge 20, Type (0, 1), BuildingBlock: OJICUG_clean_linker_0, # of connection points: 2
#     Edge 21, Type (0, 1), BuildingBlock: OJICUG_clean_linker_0, # of connection points: 2
#     Edge 22, Type (0, 1), BuildingBlock: OJICUG_clean_linker_0, # of connection points: 2
#     Edge 23, Type (0, 1), BuildingBlock: OJICUG_clean_linker_0, # of connection points: 2
#     Edge 24, Type (0, 1), BuildingBlock: OJICUG_clean_linker_0, # of connection points: 2
#     Edge 25, Type (0, 1), BuildingBlock: OJICUG_clean_linker_0, # of connection points: 2
#     Edge 26, Type (0, 1), BuildingBlock: OJICUG_clean_linker_0, # of connection points: 2
#     Edge 27, Type (0, 1), BuildingBlock: OJICUG_clean_linker_0, # of connection points: 2
#     Edge 28, Type (0, 1), BuildingBlock: OJICUG_clean_linker_0, # of connection points: 2
#     Edge 29, Type (0, 1), BuildingBlock: OJICUG_clean_linker_0, # of connection points: 2
#     Edge 30, Type (0, 1), BuildingBlock: OJICUG_clean_linker_0, # of connection points: 2
#     Edge 31, Type (0, 1), BuildingBlock: OJICUG_clean_linker_0, # of connection points: 2
#     Edge 32, Type (0, 1), BuildingBlock: OJICUG_clean_linker_0, # of connection points: 2
#     Edge 33, Type (0, 1), BuildingBlock: OJICUG_clean_linker_0, # of connection points: 2
#     Edge 34, Type (0, 1), BuildingBlock: OJICUG_clean_linker_0, # of connection points: 2
#     Edge 35, Type (0, 1), BuildingBlock: OJICUG_clean_linker_0, # of connection points: 2
# Relax obj value: 0.434
# Max RMSD: 0.218
# Mean RMSD: 0.153
data_MOF--net-zzz--node1-INOVEN_clean_sbu_0--node2-CUQRIR_clean_linker_1--edge1-OJICUG_clean_linker_0
_symmetry_space_group_name_H-M    P1
_symmetry_Int_Tables_number       1
_symmetry_cell_setting            triclinic
loop_
_symmetry_equiv_pos_as_xyz
'x, y, z'
_cell_length_a     33.725132
_cell_length_b     33.935059
_cell_length_c     8.8482386
_cell_angle_alpha  89.272642
_cell_angle_beta   89.766178
_cell_angle_gamma 90.159681
loop_
_atom_site_label
_atom_site_type_symbol
_atom_site_fract_x
_atom_site_fract_y
_atom_site_fract_z
_atom_type_partial_charge
C0 C 0.77118 0.54975 0.43847 0.0
N1 N 0.79737 0.52186 0.48925 0.0
N2 N 0.74462 0.53407 0.3394 0.0
C3 C 0.77353 0.59258 0.47585 0.0
C4 C 0.75588 0.49606 0.33042 0.0
N5 N 0.7871 0.48847 0.42153 0.0
C6 C 0.73892 0.46744 0.21903 0.0
H7 H 0.78383 0.59627 0.59382 0.0
H8 H 0.74432 0.60699 0.46008 0.0
H9 H 0.79539 0.60707 0.39916 0.0
H10 H 0.75429 0.47134 0.10879 0.0
H11 H 0.70724 0.47369 0.19879 0.0
H12 H 0.74287 0.43653 0.25811 0.0
C13 C 1.02079 0.77015 0.41014 0.0
N14 N 1.03069 0.80855 0.38061 0.0
N15 N 1.01684 0.74947 0.27897 0.0
C16 C 1.0187 0.75219 0.5653 0.0
C17 C 1.02386 0.77737 0.17152 0.0
N18 N 1.03526 0.81175 0.23222 0.0
C19 C 1.02623 0.7694 1.00424 0.0
H20 H 0.04929 0.74735 0.60728 0.0
H21 H 1.00288 0.72347 0.56354 0.0
H22 H 1.00364 0.77262 0.64376 0.0
H23 H 1.00663 0.74444 0.97353 0.0
H24 H 0.05719 0.76206 0.97252 0.0
H25 H 1.01765 0.79618 0.939 0.0
C26 C 0.81091 1.02394 0.44013 0.0
N27 N 0.7812 0.05091 0.46028 0.0
N28 N 0.84154 0.03947 0.35524 0.0
C29 C 0.81028 0.98288 0.50388 0.0
C30 C 0.82895 0.07642 0.32253 0.0
N31 N 0.79327 0.08334 0.38698 0.0
C32 C 0.85199 0.10604 0.22739 0.0
H33 H 0.79148 0.9812 0.60701 0.0
H34 H 0.84083 0.97293 0.5302 0.0
H35 H 0.79766 0.96285 0.41829 0.0
H36 H 0.86841 0.091 0.13587 0.0
H37 H 0.87375 0.12136 0.29973 0.0
H38 H 0.83306 0.12909 0.17621 0.0
C39 C 0.55392 0.79992 0.42045 0.0
N40 N 0.52481 0.77432 0.46722 0.0
N41 N 0.53885 0.82915 0.33015 0.0
C42 C 0.59714 0.79451 0.45206 0.0
C43 C 0.50002 0.82004 0.32161 0.0
N44 N 0.49136 0.78745 0.40485 0.0
C45 C 0.47179 0.84003 0.21414 0.0
H46 H 0.60131 0.78217 0.56767 0.0
H47 H 0.61334 0.82287 0.43934 0.0
H48 H 0.6095 0.77323 0.3703 0.0
H49 H 0.47905 0.87169 0.20353 0.0
H50 H 0.44055 0.83581 0.25044 0.0
H51 H 0.47556 0.82749 0.09987 0.0
C52 C 0.30396 0.5159 0.28982 0.0
N53 N 0.27671 0.54297 0.24117 0.0
N54 N 0.33164 0.53282 0.38102 0.0
C55 C 0.30171 0.47271 0.25848 0.0
C56 C 0.31988 0.57072 0.38798 0.0
N57 N 0.28729 0.57708 0.30273 0.0
C58 C 0.33766 0.60035 0.49337 0.0
H59 H 0.28098 0.45865 0.34073 0.0
H60 H 0.33128 0.4588 0.27086 0.0
H61 H 0.29003 0.46784 0.14309 0.0
H62 H 0.36963 0.59464 0.50873 0.0
H63 H 0.32364 0.59701 0.60642 0.0
H64 H 0.33276 0.63091 0.45172 0.0
C65 C 0.04212 0.29268 0.33321 0.0
N66 N 1.0254 0.25587 0.33456 0.0
N67 N 0.04125 0.30912 0.47362 0.0
C68 C 0.05774 0.31327 0.19453 0.0
C69 C 1.02491 0.28003 0.55918 0.0
N70 N 1.01246 0.24959 0.47485 0.0
C71 C 1.02248 0.28061 0.7296 0.0
H72 H 0.09049 0.31554 0.20259 0.0
H73 H 0.04582 0.3437 0.18819 0.0
H74 H 0.04977 0.29709 0.09073 0.0
H75 H 0.9952 0.29571 0.76767 0.0
H76 H 0.04824 0.29684 0.77599 0.0
H77 H 1.02195 0.25007 0.77612 0.0
C78 C 0.26754 0.05175 0.24227 0.0
N79 N 0.29502 1.02293 0.21528 0.0
N80 N 0.2383 0.03862 0.33885 0.0
C81 C 0.27108 0.0933 0.18526 0.0
C82 C 0.24933 1.00126 0.37128 0.0
N83 N 0.28273 0.99165 0.29541 0.0
C84 C 0.22973 0.97544 0.4907 0.0
H85 H 0.24185 0.10823 0.18755 0.0
H86 H 0.28339 0.09377 0.06873 0.0
H87 H 0.29188 0.10955 0.25891 0.0
H88 H 0.23271 0.9438 0.46276 0.0
H89 H 0.19797 0.98277 0.50585 0.0
H90 H 0.24417 0.98055 0.60112 0.0
C91 C 0.52292 0.26892 0.27198 0.0
N92 N 0.5521 0.29502 0.23077 0.0
N93 N 0.53767 0.23917 0.36047 0.0
C94 C 0.47987 0.27433 0.23737 0.0
C95 C 0.57635 0.24852 0.37391 0.0
N96 N 0.58525 0.28171 0.29484 0.0
C97 C 0.60397 0.22821 0.48292 0.0
H98 H 0.46691 0.29496 0.3203 0.0
H99 H 0.46377 0.24581 0.24581 0.0
H100 H 0.47627 0.28745 0.12272 0.0
H101 H 0.6354 0.23251 0.44921 0.0
H102 H 0.59666 0.19654 0.49211 0.0
H103 H 0.59961 0.24052 0.59728 0.0
Gd104 Gd 0.07181 1.02588 0.93587 0.0
Gd105 Gd 1.00958 0.03868 0.79239 0.0
C106 C 0.04231 0.95815 0.70003 0.0
C107 C 0.1335 1.00085 0.08012 0.0
C108 C 0.16254 0.97002 0.05381 0.0
C109 C 0.16681 0.95405 0.90889 0.0
C110 C 0.17602 0.94871 0.17922 0.0
C111 C 0.17394 0.89069 0.02993 0.0
C112 C 0.18547 0.90907 0.16388 0.0
C113 C 0.17434 0.91373 0.89666 0.0
C114 C 0.09601 0.06423 0.67988 0.0
C115 C 0.03854 0.10956 1.0041 0.0
C116 C 0.94182 0.06039 0.68745 0.0
C117 C 0.91111 0.08576 0.7527 0.0
C118 C 0.87697 0.09303 0.6682 0.0
C119 C 0.92166 0.11299 0.86368 0.0
C120 C 0.88574 0.1617 0.72107 0.0
C121 C 0.90642 0.15121 0.85318 0.0
C122 C 0.86378 0.13184 0.6518 0.0
C123 C 0.98891 1.00406 0.06191 0.0
O124 O 0.06059 0.96419 0.83017 0.0
O125 O 1.0236 0.98828 0.64043 0.0
O126 O 0.13423 1.03034 0.98554 0.0
O127 O 0.09754 0.98856 0.11004 0.0
O128 O 0.10025 0.07686 0.81548 0.0
O129 O 0.07091 0.03589 0.68406 0.0
O130 O 1.02074 0.10191 0.87515 0.0
O131 O 0.05738 0.08025 0.07008 0.0
O132 O 0.94715 1.02659 0.7539 0.0
O133 O 0.97519 0.07791 0.65051 0.0
O134 O 0.98425 0.98813 0.93196 0.0
O135 O 1.01267 1.03264 0.04354 0.0
H136 H 0.15767 0.97051 0.80924 0.0
H137 H 0.17219 0.96039 0.29089 0.0
H138 H 0.18909 0.89179 0.26676 0.0
H139 H 0.16915 0.90001 0.78861 0.0
H140 H 0.86541 0.0706 0.59637 0.0
H141 H 0.94571 0.10694 0.94101 0.0
H142 H 0.91997 0.17384 0.92117 0.0
H143 H 0.8441 0.139 0.55931 0.0
Gd144 Gd 0.54658 0.05468 0.96154 0.0
Gd145 Gd 0.53 1.01231 0.71846 0.0
C146 C 0.61968 0.04136 0.72237 0.0
C147 C 0.56971 0.08762 0.20687 0.0
C148 C 0.59653 0.1188 0.25175 0.0
C149 C 0.60894 0.14827 0.14954 0.0
C150 C 0.61279 0.11663 0.39569 0.0
C151 C 0.66287 0.16411 0.31845 0.0
C152 C 0.64596 0.1389 0.42929 0.0
C153 C 0.64155 0.17173 0.18478 0.0
C154 C 0.51901 0.10357 0.73625 0.0
C155 C 0.45683 1.0267 0.95585 0.0
C156 C 0.50669 0.97898 0.47373 0.0
C157 C 0.47898 0.94863 0.42764 0.0
C158 C 0.46524 0.91965 0.52934 0.0
C159 C 0.46304 0.95143 0.2832 0.0
C160 C 0.41087 0.90607 0.35913 0.0
C161 C 0.42904 0.93046 0.24859 0.0
C162 C 0.43174 0.89754 0.49324 0.0
C163 C 0.55731 0.96368 0.9457 0.0
O164 O 0.61075 0.04857 0.86577 0.0
O165 O 0.59022 1.03223 0.63221 0.0
O166 O 0.53881 0.09887 0.13057 0.0
O167 O 0.58628 0.05591 0.1534 0.0
O168 O 0.50841 0.10451 0.87601 0.0
O169 O 0.54409 0.07619 0.71951 0.0
O170 O 0.46579 1.0196 0.81243 0.0
O171 O 0.48635 0.03493 0.04684 0.0
O172 O 0.53678 0.967 0.55308 0.0
O173 O 0.49099 1.01143 0.52438 0.0
O174 O 0.56829 0.96266 0.80631 0.0
O175 O 0.53211 0.99098 0.96059 0.0
H176 H 0.59555 0.151 0.0388 0.0
H177 H 0.60195 0.0953 0.47745 0.0
H178 H 0.66063 0.13263 0.53547 0.0
H179 H 0.65326 0.19173 0.09916 0.0
H180 H 0.47831 0.91637 0.64044 0.0
H181 H 0.47483 0.97235 0.2018 0.0
H182 H 0.4148 0.93732 0.14207 0.0
H183 H 0.41914 0.87798 0.5785 0.0
Gd184 Gd 0.51726 0.54377 0.98003 0.0
Gd185 Gd 0.56056 0.52705 0.7341 0.0
C186 C 0.53198 0.61562 0.73771 0.0
C187 C 0.48422 0.56648 0.22756 0.0
C188 C 0.4532 0.59291 0.2782 0.0
C189 C 0.42317 0.60601 0.18106 0.0
C190 C 0.45577 0.60767 0.42379 0.0
C191 C 0.40799 0.65806 0.35753 0.0
C192 C 0.43345 0.64012 0.46391 0.0
C193 C 0.39971 0.63791 0.22274 0.0
C194 C 0.46827 0.51661 0.75667 0.0
C195 C 0.54557 0.45496 0.97314 0.0
C196 C 0.59389 0.50429 0.48734 0.0
C197 C 0.62437 0.47725 0.43691 0.0
C198 C 0.65393 0.46332 0.53453 0.0
C199 C 0.6215 0.46261 0.29124 0.0
C200 C 0.66818 0.4112 0.35732 0.0
C201 C 0.64307 0.42969 0.2511 0.0
C202 C 0.67663 0.43087 0.49289 0.0
C203 C 0.60926 0.5539 0.95954 0.0
O204 O 0.52458 0.60713 0.88188 0.0
O205 O 0.54068 0.58637 0.64792 0.0
O206 O 0.47248 0.53614 0.15133 0.0
O207 O 0.51613 0.5831 0.17133 0.0
O208 O 0.46675 0.50631 0.89708 0.0
O209 O 0.49628 0.54126 0.73845 0.0
O210 O 0.55284 0.46369 0.8293 0.0
O211 O 0.53713 0.48409 0.06413 0.0
O212 O 0.60609 0.53412 0.56544 0.0
O213 O 0.56145 0.48824 0.54137 0.0
O214 O 0.61089 0.56458 0.81948 0.0
O215 O 0.58131 0.52915 0.97586 0.0
H216 H 0.41989 0.59364 0.06949 0.0
H217 H 0.4774 0.59616 0.50198 0.0
H218 H 0.4401 0.65358 0.57115 0.0
H219 H 0.37907 0.65001 0.14109 0.0
H220 H 0.65735 0.47547 0.64637 0.0
H221 H 0.60013 0.47461 0.21298 0.0
H222 H 0.6362 0.41642 0.14368 0.0
H223 H 0.69686 0.41817 0.57473 0.0
Gd224 Gd 1.02429 0.51019 0.99822 0.0
Gd225 Gd 0.04771 0.5516 0.75506 0.0
C226 C 0.953 0.53156 0.78124 0.0
C227 C 1.01477 0.47612 0.25838 0.0
C228 C 0.98577 0.44875 0.32434 0.0
C229 C 0.97599 0.41279 0.25612 0.0
C230 C 0.96416 0.46136 0.44886 0.0
C231 C 0.9177 0.40765 0.41697 0.0
C232 C 0.93079 0.44083 0.49649 0.0
C233 C 0.9421 0.39215 0.30307 0.0
C234 C 1.02799 0.46054 0.76047 0.0
C235 C 0.11928 0.53027 0.96722 0.0
C236 C 0.05732 0.5861 0.49571 0.0
C237 C 0.08652 0.613 0.42832 0.0
C238 C 0.09689 0.64898 0.49507 0.0
C239 C 0.10731 0.60013 0.30215 0.0
C240 C 0.15386 0.65402 0.32735 0.0
C241 C 0.14025 0.62066 0.2503 0.0
C242 C 0.13046 0.66953 0.4442 0.0
C243 C 0.04242 0.60054 0.99607 0.0
O244 O 0.96037 0.52132 0.92305 0.0
O245 O 0.98337 0.53991 0.69235 0.0
O246 O 0.03773 0.46233 0.15301 0.0
O247 O 1.00138 0.51139 0.22667 0.0
O248 O 0.99901 0.46283 0.85594 0.0
O249 O 0.05406 0.48654 0.78953 0.0
O250 O 0.11156 0.5404 0.82596 0.0
O251 O 0.08913 0.5219 0.05753 0.0
O252 O 1.03496 0.60014 0.60244 0.0
O253 O 0.07017 0.55056 0.52605 0.0
O254 O 0.07194 0.59913 0.90256 0.0
O255 O 1.01699 0.57453 0.96211 0.0
H256 H 0.99251 0.40226 0.15958 0.0
H257 H 0.97173 0.48861 0.50291 0.0
H258 H 0.91289 0.45376 0.58456 0.0
H259 H 0.93246 0.3669 0.23898 0.0
H260 H 0.08096 0.65974 0.5927 0.0
H261 H 0.0993 0.57283 0.24929 0.0
H262 H 0.15745 0.60772 0.16027 0.0
H263 H 0.14057 0.6949 0.50654 0.0
C264 C 0.20566 0.06405 0.5673 0.0
C265 C 0.20496 0.05829 0.4107 0.0
H266 H 0.17286 0.0707 0.77167 0.0
C267 C 0.16787 0.06 0.33864 0.0
H268 H 0.23357 0.06246 0.62717 0.0
C269 C 0.13198 0.0621 0.42245 0.0
C270 C 0.13272 0.06486 0.58109 0.0
H271 H 0.16705 0.05783 0.21773 0.0
H272 H 0.10391 0.06104 0.36367 0.0
C273 C 0.17036 0.06781 0.65044 0.0
C274 C 0.51411 0.21065 0.60185 0.0
C275 C 0.51862 0.20736 0.44444 0.0
H276 H 0.51113 0.18073 0.81683 0.0
C277 C 0.51761 0.16944 0.38244 0.0
H278 H 0.51584 0.23939 0.65333 0.0
C279 C 0.51583 0.13555 0.47639 0.0
C280 C 0.51516 0.13889 0.6343 0.0
H281 H 0.52146 0.16616 0.26187 0.0
H282 H 0.5164 0.10664 0.42657 0.0
C283 C 0.51221 0.17691 0.69552 0.0
C284 C 0.36042 0.51422 0.62767 0.0
C285 C 0.3639 0.51624 0.46929 0.0
H286 H 0.39029 0.51313 0.84148 0.0
C287 C 0.40208 0.51361 0.40576 0.0
H288 H 0.33152 0.5171 0.68011 0.0
C289 C 0.43609 0.51211 0.49842 0.0
C290 C 0.43265 0.51343 0.65656 0.0
H291 H 0.40554 0.51552 0.28433 0.0
H292 H 0.4652 0.51111 0.44697 0.0
C293 C 0.39425 0.51262 0.71996 0.0
C294 C 1.00285 0.36302 0.58271 0.0
C295 C 0.03837 0.35034 0.51635 0.0
H296 H 0.9734 0.40433 0.7213 0.0
C297 C 0.07129 0.37611 0.52012 0.0
H298 H 0.97671 0.34448 0.5801 0.0
C299 C 0.06848 0.4131 0.59355 0.0
C300 C 1.03317 0.42396 0.66882 0.0
H301 H 0.09931 0.3671 0.47175 0.0
H302 H 0.09417 0.43226 0.5967 0.0
C303 C 1.00089 0.39786 0.66312 0.0
C304 C 0.91486 0.04609 0.33935 0.0
C305 C 0.88028 1.0237 0.31335 0.0
H306 H 0.97597 0.0571 0.28633 0.0
C307 C 0.88389 0.99046 0.22113 0.0
H308 H 0.91337 0.07253 0.40488 0.0
C309 C 0.92031 0.98187 0.14882 0.0
C310 C 0.95404 1.00624 0.16758 0.0
H311 H 0.85794 0.97292 0.19598 0.0
H312 H 0.9213 0.95763 0.07046 0.0
C313 C 0.95108 0.0374 0.2694 0.0
C314 C 0.56074 0.85675 0.08447 0.0
C315 C 0.55751 0.86053 0.24221 0.0
H316 H 0.56287 0.88606 0.86793 0.0
C317 C 0.55955 0.89864 0.30223 0.0
H318 H 0.55817 0.8279 0.03444 0.0
C319 C 0.56122 0.93225 0.20666 0.0
C320 C 0.56088 0.92848 0.04882 0.0
H321 H 0.55668 0.90226 0.42296 0.0
H322 H 0.56146 0.9613 0.25545 0.0
C323 C 0.56265 0.89022 0.98911 0.0
C324 C 0.71696 0.55314 0.09097 0.0
C325 C 0.71319 0.55169 0.24943 0.0
H326 H 0.68745 0.55455 0.87634 0.0
C327 C 0.67509 0.55617 0.31176 0.0
H328 H 0.7458 0.54906 0.03934 0.0
C329 C 0.64127 0.55851 0.21819 0.0
C330 C 0.64486 0.55642 0.06018 0.0
H331 H 0.67145 0.55498 0.43317 0.0
H332 H 0.61214 0.56071 0.26899 0.0
C333 C 0.68335 0.55565 0.99771 0.0
C334 C 0.99349 0.68031 0.2407 0.0
C335 C 1.02451 0.70811 0.25015 0.0
H336 H 0.97472 0.62355 0.15733 0.0
C337 C 0.06133 0.69825 0.18657 0.0
H338 H 0.9644 0.68748 0.2844 0.0
C339 C 0.06609 0.66401 0.10302 0.0
C340 C 1.03547 0.63608 0.09166 0.0
H341 H 0.08555 0.71923 0.18876 0.0
H342 H 0.09402 0.65976 0.04481 0.0
C343 C 0.9992 0.64413 0.16512 0.0
C344 C 0.94426 0.24836 0.57995 0.0
C345 C 0.97617 0.22864 0.5096 0.0
H346 H 0.89017 0.24231 0.7075 0.0
C347 C 0.97212 0.18861 0.47847 0.0
H348 H 0.94521 0.27983 0.59674 0.0
C349 C 0.93867 0.16815 0.5284 0.0
C350 C 0.90976 0.18674 0.61848 0.0
H351 H 0.9955 0.1724 0.42397 0.0
H352 H 0.93754 0.13679 0.50922 0.0
C353 C 0.91202 0.22734 0.6391 0.0
C354 C 0.31702 0.93336 0.19877 0.0
C355 C 0.30529 0.95663 0.32039 0.0
H356 H 0.3599 0.8921 0.11998 0.0
C357 C 0.31888 0.94767 0.46588 0.0
H358 H 0.30543 0.93905 0.08668 0.0
C359 C 0.34841 0.91986 0.48609 0.0
C360 C 0.36713 0.90387 0.35861 0.0
H361 H 0.31002 0.96514 0.56155 0.0
H362 H 0.36149 0.91768 0.59743 0.0
C363 C 0.34729 0.90585 0.21895 0.0
C364 C 0.64241 0.31836 0.19099 0.0
C365 C 0.62039 0.30468 0.31539 0.0
H366 H 0.6818 0.36337 0.1096 0.0
C367 C 0.63023 0.31716 0.46064 0.0
H368 H 0.63617 0.3077 0.07875 0.0
C369 C 0.65741 0.34732 0.47913 0.0
C370 C 0.67168 0.36784 0.35103 0.0
H371 H 0.61373 0.30688 0.55854 0.0
H372 H 0.66014 0.35923 0.59156 0.0
C373 C 0.66917 0.34939 0.20956 0.0
C374 C 0.24735 0.62239 0.45248 0.0
C375 C 0.26249 0.61118 0.31183 0.0
H376 H 0.20178 0.65237 0.56884 0.0
C377 C 0.25 0.63099 0.18072 0.0
H378 H 0.25668 0.60768 0.55541 0.0
C379 C 0.21748 0.65632 0.18792 0.0
C380 C 0.19703 0.66037 0.3259 0.0
H381 H 0.2628 0.62397 0.07205 0.0
H382 H 0.20405 0.66628 0.08321 0.0
C383 C 0.21601 0.64865 0.45991 0.0
C384 C 0.06668 0.86583 0.09143 0.0
C385 C 0.06978 0.83071 0.17215 0.0
H386 H 0.09798 0.91247 0.9838 0.0
C387 C 0.10698 0.81263 0.19161 0.0
H388 H 0.03817 0.87995 0.07665 0.0
C389 C 0.14118 0.83005 0.13216 0.0
C390 C 0.13845 0.86592 0.05367 0.0
H391 H 0.10939 0.78531 0.2554 0.0
H392 H 0.16979 0.81677 0.15424 0.0
C393 C 0.10084 0.8836 0.03475 0.0
C394 C 0.75603 0.12542 0.21436 0.0
C395 C 0.76957 0.11743 0.36053 0.0
H396 H 0.71276 0.1538 0.08041 0.0
C397 C 0.75693 0.14066 0.48088 0.0
H398 H 0.76625 0.10811 0.11989 0.0
C399 C 0.72617 0.16747 0.45836 0.0
C400 C 0.70643 0.16826 0.31841 0.0
H401 H 0.7683 0.13552 0.59365 0.0
H402 H 0.713 0.18124 0.55628 0.0
C403 C 0.72576 0.15234 0.19205 0.0
C404 C 0.44512 0.75156 0.24541 0.0
C405 C 0.45598 0.76453 0.38896 0.0
H406 H 0.41398 0.70938 0.11951 0.0
C407 C 0.43458 0.75151 0.51596 0.0
H408 H 0.46103 0.76137 0.14542 0.0
C409 C 0.40756 0.72051 0.50156 0.0
C410 C 0.40418 0.70146 0.36152 0.0
H411 H 0.44146 0.76267 0.6269 0.0
H412 H 0.39544 0.70702 0.60337 0.0
C413 C 0.41756 0.72158 0.2311 0.0
C414 C 0.82105 0.43303 0.548 0.0
C415 C 0.81099 0.45367 0.41562 0.0
H416 H 0.86432 0.39568 0.65203 0.0
C417 C 0.82728 0.44211 0.27728 0.0
H418 H 0.80717 0.44023 0.65457 0.0
C419 C 0.85743 0.41444 0.27426 0.0
C420 C 0.87447 0.4019 0.41103 0.0
H421 H 0.8198 0.45736 0.17327 0.0
H422 H 0.87267 0.41025 0.16759 0.0
C423 C 0.85254 0.40636 0.54543 0.0
C424 C 1.00823 0.21576 0.10738 0.0
C425 C 1.03303 0.2235 0.23141 0.0
H426 H 0.99128 0.17454 0.93492 0.0
C427 C 0.06122 0.19474 0.27154 0.0
H428 H 0.98581 0.23696 0.07486 0.0
C429 C 0.06328 0.15852 0.19615 0.0
C430 C 0.03767 0.14986 0.07538 0.0
H431 H 0.08021 0.1995 0.36804 0.0
H432 H 0.08452 0.13683 0.23528 0.0
C433 C 1.01098 0.17966 0.02884 0.0
C434 C 0.3683 0.03372 0.23554 0.0
C435 C 0.3347 1.02671 0.14578 0.0
H436 H 0.43166 0.03945 0.24849 0.0
C437 C 0.34149 1.01913 0.99101 0.0
H438 H 0.36451 0.03873 0.35534 0.0
C439 C 0.38054 1.01888 0.9285 0.0
C440 C 0.41433 1.02613 1.01862 0.0
H441 H 0.31654 1.01269 0.91871 0.0
H442 H 0.38422 1.0128 0.80943 0.0
C443 C 0.40708 0.03375 0.17344 0.0
C444 C 0.5566 0.34152 1.00855 0.0
C445 C 0.54773 0.33432 0.16245 0.0
H446 H 0.56314 0.38445 0.82764 0.0
C447 C 0.53841 0.36691 0.25213 0.0
H448 H 0.56461 0.31713 0.93698 0.0
C449 C 0.53773 0.40547 0.19028 0.0
C450 C 0.54666 0.41307 0.03614 0.0
H451 H 0.53227 0.36254 0.37139 0.0
H452 H 0.53047 0.42953 0.26462 0.0
C453 C 0.556 0.38024 0.94619 0.0
C454 C 0.20581 0.52172 0.2499 0.0
C455 C 0.23863 0.53579 0.16681 0.0
H456 H 0.14349 0.50853 0.25355 0.0
C457 C 0.2324 0.54644 1.01401 0.0
H458 H 0.20937 0.51377 0.36795 0.0
C459 C 0.19427 0.54397 0.9475 0.0
C460 C 0.16106 0.53064 0.03172 0.0
H461 H 0.25697 0.55763 0.94692 0.0
H462 H 0.1907 0.55332 0.8309 0.0
C463 C 0.16786 0.51899 0.18364 0.0
C464 C 0.06119 0.84926 0.58686 0.0
C465 C 1.03148 0.8431 0.47794 0.0
H466 H 0.08947 0.89044 0.736 0.0
C467 C 1.00615 0.87487 0.44417 0.0
H468 H 0.08235 0.82612 0.61113 0.0
C469 C 1.0098 0.91136 0.51685 0.0
C470 C 0.03939 0.91804 0.62586 0.0
H471 H 0.98379 0.87162 0.3577 0.0
H472 H 0.98937 0.93465 0.48582 0.0
C473 C 0.06518 0.88627 0.65911 0.0
C474 C 0.73465 0.05348 0.68455 0.0
C475 C 0.74168 0.04571 0.53006 0.0
H476 H 0.69185 0.05857 0.86651 0.0
C477 C 0.70832 0.03699 0.4412 0.0
H478 H 0.75935 0.06123 0.75615 0.0
C479 C 0.66958 0.03545 0.50403 0.0
C480 C 0.66212 0.04324 0.65865 0.0
H481 H 0.71222 1.03178 0.32159 0.0
H482 H 0.64519 1.0285 0.4297 0.0
C483 C 0.69567 0.05224 0.74772 0.0
C484 C 0.53925 0.70242 0.45273 0.0
C485 C 0.52934 0.73543 0.53916 0.0
H486 H 0.54777 0.63984 0.44556 0.0
C487 C 0.52013 0.72896 0.69335 0.0
H488 H 0.54571 0.70617 0.33344 0.0
C489 C 0.52089 0.69056 0.75897 0.0
C490 C 0.53076 0.65731 0.67211 0.0
H491 H 0.51173 0.75367 0.76264 0.0
H492 H 0.51345 0.68692 0.8775 0.0
C493 C 0.54008 0.66421 0.51777 0.0
C494 C 0.86844 0.5424 0.49118 0.0
C495 C 0.83492 0.52802 0.56904 0.0
H496 H 0.93074 0.5552 0.49544 0.0
C497 C 0.83994 0.51631 0.72159 0.0
H498 H 0.86584 0.55121 0.3736 0.0
C499 C 0.87761 0.51806 0.79268 0.0
C500 C 0.91152 0.53171 0.71339 0.0
H501 H 0.81479 0.50493 0.78496 0.0
H502 H 0.88027 0.50794 0.90873 0.0
C503 C 0.90585 0.5444 0.56186 0.0
loop_
_geom_bond_atom_site_label_1
_geom_bond_atom_site_label_2
_geom_bond_distance
_geom_bond_site_symmetry_2
_ccdc_geom_bond_type
C0 N1 1.317 . S
C0 N2 1.348 . S
C0 C3 1.485 . S
N1 C0 1.317 . S
N1 N5 1.370 . S
N2 C0 1.348 . S
N2 C4 1.346 . S
C3 C0 1.485 . S
C3 H7 0.960 . S
C3 H8 0.961 . S
C3 H9 0.960 . S
C4 N2 1.346 . S
C4 N5 1.307 . S
C4 C6 1.486 . S
N5 N1 1.370 . S
N5 C4 1.307 . S
C6 C4 1.486 . S
C6 H10 0.960 . S
C6 H11 0.960 . S
C6 H12 0.959 . S
H7 C3 0.960 . S
H8 C3 0.961 . S
H9 C3 0.960 . S
H10 C6 0.960 . S
H11 C6 0.960 . S
H12 C6 0.959 . S
C13 N14 1.317 . S
C13 N15 1.348 . S
C13 C16 1.485 . S
N14 C13 1.317 . S
N14 N18 1.371 . S
N15 C13 1.348 . S
N15 C17 1.346 1_655 S
C16 C13 1.485 . S
C16 H20 0.960 1_655 S
C16 H21 0.961 . S
C16 H22 0.960 . S
C17 N15 1.346 1_455 S
C17 N18 1.307 1_455 S
C17 C19 1.486 . S
N18 N14 1.371 . S
N18 C17 1.307 1_655 S
C19 C17 1.486 . S
C19 H23 0.960 1_455 S
C19 H24 0.960 . S
C19 H25 0.959 . S
H20 C16 0.960 1_455 S
H21 C16 0.961 . S
H22 C16 0.960 . S
H23 C19 0.960 1_655 S
H24 C19 0.960 . S
H25 C19 0.959 . S
C26 N27 1.317 . S
C26 N28 1.348 . S
C26 C29 1.485 . S
N27 C26 1.317 . S
N27 N31 1.371 . S
N28 C26 1.348 . S
N28 C30 1.346 1_565 S
C29 C26 1.485 . S
C29 H33 0.960 1_565 S
C29 H34 0.961 . S
C29 H35 0.960 . S
C30 N28 1.346 1_545 S
C30 N31 1.307 1_545 S
C30 C32 1.486 . S
N31 N27 1.371 . S
N31 C30 1.307 1_565 S
C32 C30 1.486 . S
C32 H36 0.960 1_545 S
C32 H37 0.960 . S
C32 H38 0.959 . S
H33 C29 0.960 1_545 S
H34 C29 0.961 . S
H35 C29 0.960 . S
H36 C32 0.960 1_565 S
H37 C32 0.960 . S
H38 C32 0.959 . S
C39 N40 1.317 . S
C39 N41 1.348 . S
C39 C42 1.485 . S
N40 C39 1.317 . S
N40 N44 1.370 . S
N41 C39 1.348 . S
N41 C43 1.346 . S
C42 C39 1.485 . S
C42 H46 0.960 . S
C42 H47 0.961 . S
C42 H48 0.960 . S
C43 N41 1.346 . S
C43 N44 1.307 . S
C43 C45 1.486 . S
N44 N40 1.370 . S
N44 C43 1.307 . S
C45 C43 1.486 . S
C45 H49 0.960 . S
C45 H50 0.960 . S
C45 H51 0.959 . S
H46 C42 0.960 . S
H47 C42 0.961 . S
H48 C42 0.960 . S
H49 C45 0.960 . S
H50 C45 0.960 . S
H51 C45 0.959 . S
C52 N53 1.317 . S
C52 N54 1.348 1_556 S
C52 C55 1.485 . S
N53 C52 1.317 . S
N53 N57 1.370 1_556 S
N54 C52 1.348 1_554 S
N54 C56 1.346 . S
C55 C52 1.485 . S
C55 H59 0.960 . S
C55 H60 0.961 . S
C55 H61 0.960 . S
C56 N54 1.346 . S
C56 N57 1.307 . S
C56 C58 1.486 . S
N57 N53 1.370 1_554 S
N57 C56 1.307 . S
C58 C56 1.486 . S
C58 H62 0.960 . S
C58 H63 0.960 . S
C58 H64 0.959 . S
H59 C55 0.960 . S
H60 C55 0.961 . S
H61 C55 0.960 . S
H62 C58 0.960 . S
H63 C58 0.960 . S
H64 C58 0.959 . S
C65 N66 1.317 . S
C65 N67 1.350 1_556 S
C65 C68 1.485 . S
N66 C65 1.317 . S
N66 N70 1.371 1_556 S
N67 C65 1.350 1_554 S
N67 C69 1.345 1_655 S
C68 C65 1.485 . S
C68 H72 0.960 1_655 S
C68 H73 0.961 . S
C68 H74 0.960 . S
C69 N67 1.345 1_455 S
C69 N70 1.307 1_455 S
C69 C71 1.486 . S
N70 N66 1.371 1_554 S
N70 C69 1.307 1_655 S
C71 C69 1.486 . S
C71 H75 0.960 1_455 S
C71 H76 0.960 . S
C71 H77 0.959 . S
H72 C68 0.960 1_455 S
H73 C68 0.961 . S
H74 C68 0.960 . S
H75 C71 0.960 1_655 S
H76 C71 0.960 . S
H77 C71 0.959 . S
C78 N79 1.317 . S
C78 N80 1.350 1_556 S
C78 C81 1.485 . S
N79 C78 1.317 . S
N79 N83 1.371 1_556 S
N80 C78 1.350 1_554 S
N80 C82 1.345 1_565 S
C81 C78 1.485 . S
C81 H85 0.960 1_565 S
C81 H86 0.961 . S
C81 H87 0.960 . S
C82 N80 1.345 1_545 S
C82 N83 1.307 1_545 S
C82 C84 1.487 . S
N83 N79 1.371 1_554 S
N83 C82 1.307 1_565 S
C84 C82 1.487 . S
C84 H88 0.960 1_545 S
C84 H89 0.960 . S
C84 H90 0.959 . S
H85 C81 0.960 1_545 S
H86 C81 0.961 . S
H87 C81 0.960 . S
H88 C84 0.960 1_565 S
H89 C84 0.960 . S
H90 C84 0.959 . S
C91 N92 1.317 . S
C91 N93 1.348 1_556 S
C91 C94 1.485 . S
N92 C91 1.317 . S
N92 N96 1.370 1_556 S
N93 C91 1.348 1_554 S
N93 C95 1.346 . S
C94 C91 1.485 . S
C94 H98 0.960 . S
C94 H99 0.961 . S
C94 H100 0.960 . S
C95 N93 1.346 . S
C95 N96 1.307 . S
C95 C97 1.486 . S
N96 N92 1.370 1_554 S
N96 C95 1.307 . S
C97 C95 1.486 . S
C97 H101 0.960 . S
C97 H102 0.960 . S
C97 H103 0.959 . S
H98 C94 0.960 . S
H99 C94 0.961 . S
H100 C94 0.960 . S
H101 C97 0.960 . S
H102 C97 0.960 . S
H103 C97 0.959 . S
Gd104 C107 2.818 1_556 S
Gd104 O124 2.377 . S
Gd104 O126 2.448 1_556 S
Gd104 O127 2.506 1_556 S
Gd104 O128 2.435 . S
Gd104 O129 2.717 1_565 S
Gd104 O131 2.395 1_565 S
Gd104 O135 2.327 1_455 S
Gd105 C116 2.818 . S
Gd105 O125 2.395 1_545 S
Gd105 O129 2.327 1_655 S
Gd105 O130 2.377 . S
Gd105 O132 2.448 . S
Gd105 O133 2.506 . S
Gd105 O134 2.435 . S
Gd105 O135 2.717 1_545 S
C106 O124 1.240 1_655 S
C106 O125 1.240 . S
C107 Gd104 2.818 1_554 S
C107 C108 1.510 . S
C107 O126 1.249 . S
C107 O127 1.252 . S
C108 C107 1.510 . S
C108 C109 1.404 . S
C108 C110 1.352 . S
C109 C108 1.404 . S
C109 C113 1.389 . S
C109 H136 0.930 . S
C110 C108 1.352 . S
C110 C112 1.374 . S
C110 H137 0.931 1_455 S
C111 C112 1.359 . S
C111 C113 1.364 . S
C112 C110 1.374 . S
C112 C111 1.359 . S
C112 H138 0.931 . S
C113 C109 1.389 . S
C113 C111 1.364 . S
C113 H139 0.931 . S
C114 O128 1.256 . S
C114 O129 1.257 1_565 S
C115 O130 1.240 1_455 S
C115 O131 1.240 . S
C116 Gd105 2.818 . S
C116 C117 1.510 . S
C116 O132 1.249 . S
C116 O133 1.252 . S
C117 C116 1.510 . S
C117 C118 1.404 . S
C117 C119 1.352 . S
C118 C117 1.404 . S
C118 C122 1.389 . S
C118 H140 0.930 . S
C119 C117 1.352 . S
C119 C121 1.374 . S
C119 H141 0.931 1_655 S
C120 C121 1.359 . S
C120 C122 1.364 . S
C121 C119 1.374 . S
C121 C120 1.359 . S
C121 H142 0.931 . S
C122 C118 1.389 . S
C122 C120 1.364 . S
C122 H143 0.931 . S
C123 O134 1.256 . S
C123 O135 1.257 1_545 S
O124 Gd104 2.377 . S
O124 C106 1.240 1_455 S
O125 Gd105 2.395 1_565 S
O125 C106 1.240 . S
O126 Gd104 2.448 1_554 S
O126 C107 1.249 . S
O127 Gd104 2.506 1_554 S
O127 C107 1.252 . S
O128 Gd104 2.435 . S
O128 C114 1.256 . S
O129 Gd104 2.717 1_545 S
O129 Gd105 2.327 1_455 S
O129 C114 1.257 1_545 S
O130 Gd105 2.377 . S
O130 C115 1.240 1_655 S
O131 Gd104 2.395 1_545 S
O131 C115 1.240 . S
O132 Gd105 2.448 . S
O132 C116 1.249 . S
O133 Gd105 2.506 . S
O133 C116 1.252 . S
O134 Gd105 2.435 . S
O134 C123 1.256 . S
O135 Gd104 2.327 1_655 S
O135 Gd105 2.717 1_565 S
O135 C123 1.257 1_565 S
H136 C109 0.930 . S
H137 C110 0.931 1_655 S
H138 C112 0.931 . S
H139 C113 0.931 . S
H140 C118 0.930 . S
H141 C119 0.931 1_455 S
H142 C121 0.931 . S
H143 C122 0.931 . S
Gd144 C147 2.818 1_556 S
Gd144 O164 2.377 . S
Gd144 O166 2.448 1_556 S
Gd144 O167 2.506 1_556 S
Gd144 O168 2.435 . S
Gd144 O169 2.717 . S
Gd144 O171 2.395 . S
Gd144 O175 2.327 1_545 S
Gd145 C156 2.818 . S
Gd145 O165 2.395 . S
Gd145 O169 2.327 1_565 S
Gd145 O170 2.377 . S
Gd145 O172 2.448 . S
Gd145 O173 2.506 . S
Gd145 O174 2.435 . S
Gd145 O175 2.717 . S
C146 O164 1.240 1_565 S
C146 O165 1.240 . S
C147 Gd144 2.818 1_554 S
C147 C148 1.510 . S
C147 O166 1.249 . S
C147 O167 1.252 . S
C148 C147 1.510 . S
C148 C149 1.404 . S
C148 C150 1.352 . S
C149 C148 1.404 . S
C149 C153 1.389 . S
C149 H176 0.930 . S
C150 C148 1.352 . S
C150 C152 1.374 . S
C150 H177 0.931 1_545 S
C151 C152 1.359 . S
C151 C153 1.364 . S
C152 C150 1.374 . S
C152 C151 1.359 . S
C152 H178 0.931 . S
C153 C149 1.389 . S
C153 C151 1.364 . S
C153 H179 0.931 . S
C154 O168 1.256 . S
C154 O169 1.257 . S
C155 O170 1.240 1_545 S
C155 O171 1.240 . S
C156 Gd145 2.818 . S
C156 C157 1.510 . S
C156 O172 1.249 . S
C156 O173 1.252 . S
C157 C156 1.510 . S
C157 C158 1.404 . S
C157 C159 1.352 . S
C158 C157 1.404 . S
C158 C162 1.389 . S
C158 H180 0.930 . S
C159 C157 1.352 . S
C159 C161 1.374 . S
C159 H181 0.931 1_565 S
C160 C161 1.359 . S
C160 C162 1.364 . S
C161 C159 1.374 . S
C161 C160 1.359 . S
C161 H182 0.931 1_565 S
C162 C158 1.389 . S
C162 C160 1.364 . S
C162 H183 0.931 . S
C163 O174 1.256 . S
C163 O175 1.257 . S
O164 Gd144 2.377 . S
O164 C146 1.240 1_545 S
O165 Gd145 2.395 . S
O165 C146 1.240 . S
O166 Gd144 2.448 1_554 S
O166 C147 1.249 . S
O167 Gd144 2.506 1_554 S
O167 C147 1.252 . S
O168 Gd144 2.435 . S
O168 C154 1.256 . S
O169 Gd144 2.717 . S
O169 Gd145 2.327 1_545 S
O169 C154 1.257 . S
O170 Gd145 2.377 . S
O170 C155 1.240 1_565 S
O171 Gd144 2.395 . S
O171 C155 1.240 . S
O172 Gd145 2.448 . S
O172 C156 1.249 . S
O173 Gd145 2.506 . S
O173 C156 1.252 . S
O174 Gd145 2.435 . S
O174 C163 1.256 . S
O175 Gd144 2.327 1_565 S
O175 Gd145 2.717 . S
O175 C163 1.257 . S
H176 C149 0.930 . S
H177 C150 0.931 1_565 S
H178 C152 0.931 . S
H179 C153 0.931 . S
H180 C158 0.930 . S
H181 C159 0.931 1_545 S
H182 C161 0.931 1_545 S
H183 C162 0.931 . S
Gd184 C187 2.818 1_556 S
Gd184 O204 2.377 . S
Gd184 O206 2.448 1_556 S
Gd184 O207 2.506 1_556 S
Gd184 O208 2.435 . S
Gd184 O209 2.717 . S
Gd184 O211 2.395 . S
Gd184 O215 2.327 . S
Gd185 C196 2.818 . S
Gd185 O205 2.395 . S
Gd185 O209 2.327 . S
Gd185 O210 2.377 . S
Gd185 O212 2.448 . S
Gd185 O213 2.506 . S
Gd185 O214 2.435 . S
Gd185 O215 2.717 . S
C186 O204 1.240 . S
C186 O205 1.240 . S
C187 Gd184 2.818 1_554 S
C187 C188 1.510 . S
C187 O206 1.249 . S
C187 O207 1.252 . S
C188 C187 1.510 . S
C188 C189 1.404 . S
C188 C190 1.352 . S
C189 C188 1.404 . S
C189 C193 1.389 . S
C189 H216 0.930 . S
C190 C188 1.352 . S
C190 C192 1.374 . S
C190 H217 0.931 . S
C191 C192 1.359 . S
C191 C193 1.364 . S
C192 C190 1.374 . S
C192 C191 1.359 . S
C192 H218 0.931 . S
C193 C189 1.389 . S
C193 C191 1.364 . S
C193 H219 0.931 . S
C194 O208 1.256 . S
C194 O209 1.257 . S
C195 O210 1.240 . S
C195 O211 1.240 . S
C196 Gd185 2.818 . S
C196 C197 1.510 . S
C196 O212 1.249 . S
C196 O213 1.252 . S
C197 C196 1.510 . S
C197 C198 1.404 . S
C197 C199 1.352 . S
C198 C197 1.404 . S
C198 C202 1.389 . S
C198 H220 0.930 . S
C199 C197 1.352 . S
C199 C201 1.374 . S
C199 H221 0.931 . S
C200 C201 1.359 . S
C200 C202 1.364 . S
C201 C199 1.374 . S
C201 C200 1.359 . S
C201 H222 0.931 . S
C202 C198 1.389 . S
C202 C200 1.364 . S
C202 H223 0.931 . S
C203 O214 1.256 . S
C203 O215 1.257 . S
O204 Gd184 2.377 . S
O204 C186 1.240 . S
O205 Gd185 2.395 . S
O205 C186 1.240 . S
O206 Gd184 2.448 1_554 S
O206 C187 1.249 . S
O207 Gd184 2.506 1_554 S
O207 C187 1.252 . S
O208 Gd184 2.435 . S
O208 C194 1.256 . S
O209 Gd184 2.717 . S
O209 Gd185 2.327 . S
O209 C194 1.257 . S
O210 Gd185 2.377 . S
O210 C195 1.240 . S
O211 Gd184 2.395 . S
O211 C195 1.240 . S
O212 Gd185 2.448 . S
O212 C196 1.249 . S
O213 Gd185 2.506 . S
O213 C196 1.252 . S
O214 Gd185 2.435 . S
O214 C203 1.256 . S
O215 Gd184 2.327 . S
O215 Gd185 2.717 . S
O215 C203 1.257 . S
H216 C189 0.930 . S
H217 C190 0.931 . S
H218 C192 0.931 . S
H219 C193 0.931 . S
H220 C198 0.930 . S
H221 C199 0.931 . S
H222 C201 0.931 . S
H223 C202 0.931 . S
Gd224 C227 2.818 1_556 S
Gd224 O244 2.377 . S
Gd224 O246 2.448 1_556 S
Gd224 O247 2.506 1_556 S
Gd224 O248 2.435 . S
Gd224 O249 2.717 1_655 S
Gd224 O251 2.395 1_655 S
Gd224 O255 2.327 . S
Gd225 C236 2.818 . S
Gd225 O245 2.395 1_455 S
Gd225 O249 2.327 . S
Gd225 O250 2.377 . S
Gd225 O252 2.448 . S
Gd225 O253 2.506 . S
Gd225 O254 2.435 . S
Gd225 O255 2.717 1_455 S
C226 O244 1.240 . S
C226 O245 1.240 . S
C227 Gd224 2.818 1_554 S
C227 C228 1.510 . S
C227 O246 1.249 . S
C227 O247 1.252 . S
C228 C227 1.510 . S
C228 C229 1.404 . S
C228 C230 1.352 . S
C229 C228 1.404 . S
C229 C233 1.389 . S
C229 H256 0.930 . S
C230 C228 1.352 . S
C230 C232 1.374 . S
C230 H257 0.931 . S
C231 C232 1.359 . S
C231 C233 1.364 . S
C232 C230 1.374 . S
C232 C231 1.359 . S
C232 H258 0.931 . S
C233 C229 1.389 . S
C233 C231 1.364 . S
C233 H259 0.931 . S
C234 O248 1.269 . S
C234 O249 1.250 1_655 S
C235 O250 1.240 . S
C235 O251 1.240 . S
C236 Gd225 2.818 . S
C236 C237 1.510 . S
C236 O252 1.249 . S
C236 O253 1.252 . S
C237 C236 1.510 . S
C237 C238 1.404 . S
C237 C239 1.352 . S
C238 C237 1.404 . S
C238 C242 1.389 . S
C238 H260 0.930 . S
C239 C237 1.352 . S
C239 C241 1.374 . S
C239 H261 0.931 . S
C240 C241 1.359 . S
C240 C242 1.364 . S
C241 C239 1.374 . S
C241 C240 1.359 . S
C241 H262 0.931 . S
C242 C238 1.389 . S
C242 C240 1.364 . S
C242 H263 0.931 . S
C243 O254 1.256 . S
C243 O255 1.257 1_455 S
O244 Gd224 2.377 . S
O244 C226 1.240 . S
O245 Gd225 2.395 1_655 S
O245 C226 1.240 . S
O246 Gd224 2.448 1_554 S
O246 C227 1.249 . S
O247 Gd224 2.506 1_554 S
O247 C227 1.252 . S
O248 Gd224 2.435 . S
O248 C234 1.269 . S
O249 Gd224 2.717 1_455 S
O249 Gd225 2.327 . S
O249 C234 1.250 1_455 S
O250 Gd225 2.377 . S
O250 C235 1.240 . S
O251 Gd224 2.395 1_455 S
O251 C235 1.240 . S
O252 Gd225 2.448 . S
O252 C236 1.249 . S
O253 Gd225 2.506 . S
O253 C236 1.252 . S
O254 Gd225 2.435 . S
O254 C243 1.256 . S
O255 Gd224 2.327 . S
O255 Gd225 2.717 1_655 S
O255 C243 1.257 1_655 S
H256 C229 0.930 . S
H257 C230 0.931 . S
H258 C232 0.931 . S
H259 C233 0.931 . S
H260 C238 0.930 . S
H261 C239 0.931 . S
H262 C241 0.931 . S
H263 C242 0.931 . S
C264 C265 1.403 . S
C264 H268 0.950 . S
C264 C273 1.390 . S
C265 C264 1.403 . S
C265 C267 1.373 1_545 S
H266 C273 0.950 . S
C267 C265 1.373 1_565 S
C267 C269 1.390 . S
C267 H271 0.950 . S
H268 C264 0.950 . S
C269 C267 1.390 . S
C269 C270 1.387 1_565 S
C269 H272 0.950 . S
C270 C269 1.387 1_545 S
C270 C273 1.387 . S
H271 C267 0.950 . S
H272 C269 0.950 . S
C273 C264 1.390 . S
C273 H266 0.950 . S
C273 C270 1.387 . S
C274 C275 1.387 . S
C274 H278 0.950 . S
C274 C283 1.390 . S
C275 C274 1.387 . S
C275 C277 1.387 . S
H276 C283 0.950 . S
C277 C275 1.387 . S
C277 C279 1.390 . S
C277 H281 0.950 . S
H278 C274 0.950 . S
C279 C277 1.390 . S
C279 C280 1.387 . S
C279 H282 0.950 . S
C280 C279 1.387 . S
C280 C283 1.387 . S
H281 C277 0.950 . S
H282 C279 0.950 . S
C283 C274 1.390 . S
C283 H276 0.950 . S
C283 C280 1.387 . S
C284 C285 1.387 . S
C284 H288 0.950 . S
C284 C293 1.390 . S
C285 C284 1.387 . S
C285 C287 1.387 . S
H286 C293 0.950 . S
C287 C285 1.387 . S
C287 C289 1.390 . S
C287 H291 0.950 . S
H288 C284 0.950 . S
C289 C287 1.390 . S
C289 C290 1.387 . S
C289 H292 0.950 . S
C290 C289 1.387 . S
C290 C293 1.387 . S
H291 C287 0.950 . S
H292 C289 0.950 . S
C293 C284 1.390 . S
C293 H286 0.950 . S
C293 C290 1.387 . S
C294 C295 1.367 1_655 S
C294 H298 0.950 . S
C294 C303 1.390 . S
C295 C294 1.367 1_455 S
C295 C297 1.408 . S
H296 C303 0.950 . S
C297 C295 1.408 . S
C297 C299 1.390 . S
C297 H301 0.950 . S
H298 C294 0.950 . S
C299 C297 1.390 . S
C299 C300 1.387 . S
C299 H302 0.950 . S
C300 C299 1.387 . S
C300 C303 1.387 1_455 S
H301 C297 0.950 . S
H302 C299 0.950 . S
C303 C294 1.390 . S
C303 H296 0.950 . S
C303 C300 1.387 1_655 S
C304 C305 1.379 1_545 S
C304 H308 0.950 . S
C304 C313 1.390 . S
C305 C304 1.379 1_565 S
C305 C307 1.396 . S
H306 C313 0.950 . S
C307 C305 1.396 . S
C307 C309 1.390 . S
C307 H311 0.950 . S
H308 C304 0.950 . S
C309 C307 1.390 . S
C309 C310 1.387 . S
C309 H312 0.950 . S
C310 C309 1.387 . S
C310 C313 1.387 1_565 S
H311 C307 0.950 . S
H312 C309 0.950 . S
C313 C304 1.390 . S
C313 H306 0.950 . S
C313 C310 1.387 1_545 S
C314 C315 1.387 . S
C314 H318 0.950 . S
C314 C323 1.390 . S
C315 C314 1.387 . S
C315 C317 1.387 . S
H316 C323 0.950 . S
C317 C315 1.387 . S
C317 C319 1.390 . S
C317 H321 0.950 . S
H318 C314 0.950 . S
C319 C317 1.390 . S
C319 C320 1.387 . S
C319 H322 0.950 . S
C320 C319 1.387 . S
C320 C323 1.387 . S
H321 C317 0.950 . S
H322 C319 0.950 . S
C323 C314 1.390 . S
C323 H316 0.950 . S
C323 C320 1.387 . S
C324 C325 1.387 . S
C324 H328 0.950 . S
C324 C333 1.390 . S
C325 C324 1.387 . S
C325 C327 1.387 . S
H326 C333 0.950 . S
C327 C325 1.387 . S
C327 C329 1.390 . S
C327 H331 0.950 . S
H328 C324 0.950 . S
C329 C327 1.390 . S
C329 C330 1.387 . S
C329 H332 0.950 . S
C330 C329 1.387 . S
C330 C333 1.387 . S
H331 C327 0.950 . S
H332 C329 0.950 . S
C333 C324 1.390 . S
C333 H326 0.950 . S
C333 C330 1.387 . S
C334 C335 1.414 . S
C334 H338 0.950 . S
C334 C343 1.390 . S
C335 C334 1.414 . S
C335 C337 1.362 1_655 S
H336 C343 0.950 . S
C337 C335 1.362 1_455 S
C337 C339 1.390 . S
C337 H341 0.950 . S
H338 C334 0.950 . S
C339 C337 1.390 . S
C339 C340 1.387 1_455 S
C339 H342 0.950 . S
C340 C339 1.387 1_655 S
C340 C343 1.387 . S
H341 C337 0.950 . S
H342 C339 0.950 . S
C343 C334 1.390 . S
C343 H336 0.950 . S
C343 C340 1.387 . S
C344 C345 1.387 . S
C344 H348 0.950 . S
C344 C353 1.390 . S
C345 C344 1.387 . S
C345 C347 1.385 1_655 S
H346 C353 0.950 . S
C347 C345 1.385 1_455 S
C347 C349 1.370 1_455 S
C347 H351 0.973 . S
H348 C344 0.950 . S
C349 C347 1.370 1_655 S
C349 C350 1.387 . S
C349 H352 0.950 . S
C350 C349 1.387 . S
C350 C353 1.387 . S
H351 C347 0.973 . S
H352 C349 0.950 . S
C353 C344 1.390 . S
C353 H346 0.950 . S
C353 C350 1.387 . S
C354 C355 1.387 . S
C354 H358 0.950 . S
C354 C363 1.390 . S
C355 C354 1.387 . S
C355 C357 1.387 1_565 S
H356 C363 0.950 . S
C357 C355 1.387 1_545 S
C357 C359 1.390 1_545 S
C357 H361 0.950 . S
H358 C354 0.950 . S
C359 C357 1.390 1_565 S
C359 C360 1.387 . S
C359 H362 0.950 . S
C360 C359 1.387 . S
C360 C363 1.387 . S
H361 C357 0.950 . S
H362 C359 0.950 . S
C363 C354 1.390 . S
C363 H356 0.950 . S
C363 C360 1.387 . S
C364 C365 1.387 . S
C364 H368 0.944 1_554 S
C364 C373 1.390 . S
C365 C364 1.387 . S
C365 C367 1.387 . S
H366 C373 0.950 . S
C367 C365 1.387 . S
C367 C369 1.390 . S
C367 H371 0.950 . S
H368 C364 0.944 1_556 S
C369 C367 1.390 . S
C369 C370 1.387 . S
C369 H372 0.950 . S
C370 C369 1.387 . S
C370 C373 1.387 . S
H371 C367 0.950 . S
H372 C369 0.950 . S
C373 C364 1.390 . S
C373 H366 0.950 . S
C373 C370 1.387 . S
C374 C375 1.387 . S
C374 H378 0.950 . S
C374 C383 1.390 . S
C375 C374 1.387 . S
C375 C377 1.387 . S
H376 C383 0.950 . S
C377 C375 1.387 . S
C377 C379 1.390 . S
C377 H381 0.950 1_554 S
H378 C374 0.950 . S
C379 C377 1.390 . S
C379 C380 1.387 . S
C379 H382 0.950 . S
C380 C379 1.387 . S
C380 C383 1.387 . S
H381 C377 0.950 1_556 S
H382 C379 0.950 . S
C383 C374 1.390 . S
C383 H376 0.950 . S
C383 C380 1.387 . S
C384 C385 1.387 . S
C384 H388 0.950 . S
C384 C393 1.390 . S
C385 C384 1.387 . S
C385 C387 1.387 . S
H386 C393 0.950 . S
C387 C385 1.387 . S
C387 C389 1.390 . S
C387 H391 0.950 . S
H388 C384 0.950 . S
C389 C387 1.390 . S
C389 C390 1.387 . S
C389 H392 0.950 . S
C390 C389 1.387 . S
C390 C393 1.387 . S
H391 C387 0.950 . S
H392 C389 0.950 . S
C393 C384 1.390 . S
C393 H386 0.950 . S
C393 C390 1.387 . S
C394 C395 1.388 . S
C394 H398 0.944 1_545 S
C394 C403 1.396 . S
C395 C394 1.388 . S
C395 C397 1.387 . S
H396 C403 0.950 . S
C397 C395 1.387 . S
C397 C399 1.390 . S
C397 H401 0.950 . S
H398 C394 0.944 1_565 S
C399 C397 1.390 . S
C399 C400 1.387 . S
C399 H402 0.950 . S
C400 C399 1.387 . S
C400 C403 1.387 . S
H401 C397 0.950 . S
H402 C399 0.950 . S
C403 C394 1.396 . S
C403 H396 0.950 . S
C403 C400 1.387 . S
C404 C405 1.387 . S
C404 H408 0.950 . S
C404 C413 1.390 . S
C405 C404 1.387 . S
C405 C407 1.387 . S
H406 C413 0.950 . S
C407 C405 1.387 . S
C407 C409 1.390 . S
C407 H411 0.950 . S
H408 C404 0.950 . S
C409 C407 1.390 . S
C409 C410 1.387 . S
C409 H412 0.950 . S
C410 C409 1.387 . S
C410 C413 1.387 . S
H411 C407 0.950 . S
H412 C409 0.950 . S
C413 C404 1.390 . S
C413 H406 0.950 . S
C413 C410 1.387 . S
C414 C415 1.387 . S
C414 H418 0.950 . S
C414 C423 1.390 . S
C415 C414 1.387 . S
C415 C417 1.387 . S
H416 C423 0.950 . S
C417 C415 1.387 . S
C417 C419 1.390 . S
C417 H421 0.950 . S
H418 C414 0.950 . S
C419 C417 1.390 . S
C419 C420 1.387 . S
C419 H422 0.950 . S
C420 C419 1.387 . S
C420 C423 1.387 . S
H421 C417 0.950 . S
H422 C419 0.950 . S
C423 C414 1.390 . S
C423 H416 0.950 . S
C423 C420 1.387 . S
C424 C425 1.387 . S
C424 H428 0.950 . S
C424 C433 1.390 . S
C425 C424 1.387 . S
C425 C427 1.387 1_556 S
H426 C433 0.950 . S
C427 C425 1.387 1_554 S
C427 C429 1.390 . S
C427 H431 0.950 . S
H428 C424 0.950 . S
C429 C427 1.390 . S
C429 C430 1.387 1_554 S
C429 H432 0.950 . S
C430 C429 1.387 1_556 S
C430 C433 1.387 . S
H431 C427 0.950 . S
H432 C429 0.950 . S
C433 C424 1.390 . S
C433 H426 0.950 . S
C433 C430 1.387 . S
C434 C435 1.387 1_554 S
C434 H438 0.950 . S
C434 C443 1.390 . S
C435 C434 1.387 1_556 S
C435 C437 1.387 . S
H436 C443 0.950 . S
C437 C435 1.387 . S
C437 C439 1.390 . S
C437 H441 0.950 . S
H438 C434 0.950 . S
C439 C437 1.390 . S
C439 C440 1.387 . S
C439 H442 0.950 . S
C440 C439 1.387 . S
C440 C443 1.387 1_556 S
H441 C437 0.950 . S
H442 C439 0.950 . S
C443 C434 1.390 . S
C443 H436 0.950 . S
C443 C440 1.387 1_554 S
C444 C445 1.387 . S
C444 H448 0.950 . S
C444 C453 1.390 . S
C445 C444 1.387 . S
C445 C447 1.387 1_556 S
H446 C453 0.950 . S
C447 C445 1.387 1_554 S
C447 C449 1.390 . S
C447 H451 0.950 . S
H448 C444 0.950 . S
C449 C447 1.390 . S
C449 C450 1.387 1_554 S
C449 H452 0.950 . S
C450 C449 1.387 1_556 S
C450 C453 1.387 . S
H451 C447 0.950 . S
H452 C449 0.950 . S
C453 C444 1.390 . S
C453 H446 0.950 . S
C453 C450 1.387 . S
C454 C455 1.387 1_554 S
C454 H458 0.950 . S
C454 C463 1.390 . S
C455 C454 1.387 1_556 S
C455 C457 1.387 . S
H456 C463 0.950 . S
C457 C455 1.387 . S
C457 C459 1.390 . S
C457 H461 0.950 . S
H458 C454 0.950 . S
C459 C457 1.390 . S
C459 C460 1.387 . S
C459 H462 0.950 . S
C460 C459 1.387 . S
C460 C463 1.387 1_556 S
H461 C457 0.950 . S
H462 C459 0.950 . S
C463 C454 1.390 . S
C463 H456 0.950 . S
C463 C460 1.387 1_554 S
C464 C465 1.387 . S
C464 H468 0.950 . S
C464 C473 1.390 . S
C465 C464 1.387 . S
C465 C467 1.387 . S
H466 C473 0.950 . S
C467 C465 1.387 . S
C467 C469 1.390 . S
C467 H471 0.950 . S
H468 C464 0.950 . S
C469 C467 1.390 . S
C469 C470 1.387 . S
C469 H472 0.950 . S
C470 C469 1.387 . S
C470 C473 1.387 . S
H471 C467 0.950 . S
H472 C469 0.950 . S
C473 C464 1.390 . S
C473 H466 0.950 . S
C473 C470 1.387 . S
C474 C475 1.387 . S
C474 H478 0.950 . S
C474 C483 1.390 . S
C475 C474 1.387 . S
C475 C477 1.387 . S
H476 C483 0.950 . S
C477 C475 1.387 . S
C477 C479 1.390 . S
C477 H481 0.950 . S
H478 C474 0.950 . S
C479 C477 1.390 . S
C479 C480 1.387 . S
C479 H482 0.950 . S
C480 C479 1.387 . S
C480 C483 1.387 . S
H481 C477 0.950 . S
H482 C479 0.950 . S
C483 C474 1.390 . S
C483 H476 0.950 . S
C483 C480 1.387 . S
C484 C485 1.387 . S
C484 H488 0.950 . S
C484 C493 1.390 . S
C485 C484 1.387 . S
C485 C487 1.387 . S
H486 C493 0.950 . S
C487 C485 1.387 . S
C487 C489 1.390 . S
C487 H491 0.950 . S
H488 C484 0.950 . S
C489 C487 1.390 . S
C489 C490 1.387 . S
C489 H492 0.950 . S
C490 C489 1.387 . S
C490 C493 1.387 . S
H491 C487 0.950 . S
H492 C489 0.950 . S
C493 C484 1.390 . S
C493 H486 0.950 . S
C493 C490 1.387 . S
C494 C495 1.387 . S
C494 H498 0.950 . S
C494 C503 1.390 . S
C495 C494 1.387 . S
C495 C497 1.387 . S
H496 C503 0.950 . S
C497 C495 1.387 . S
C497 C499 1.390 . S
C497 H501 0.950 . S
H498 C494 0.950 . S
C499 C497 1.390 . S
C499 C500 1.387 . S
C499 H502 0.950 . S
C500 C499 1.387 . S
C500 C503 1.387 . S
H501 C497 0.950 . S
H502 C499 0.950 . S
C503 C494 1.390 . S
C503 H496 0.950 . S
C503 C500 1.387 . S
C265 N80 2.008 1_545 S
C270 C114 2.180 1_545 S
C280 C154 2.192 . S
C275 N93 2.022 . S
C290 C194 2.201 . S
C285 N54 2.035 . S
C300 C234 2.189 1_455 S
C295 N67 2.022 1_455 S
C310 C123 2.182 1_564 S
C305 N28 2.012 . S
C315 N41 2.023 . S
C320 C163 2.194 1_554 S
C325 N2 2.033 . S
C330 C203 2.200 1_554 S
C335 N15 2.023 . S
C340 C243 2.191 1_654 S
C350 C120 0.829 . S
C345 N70 0.848 . S
C360 C160 0.822 . S
C355 N83 0.843 . S
C370 C200 0.817 . S
C365 N96 0.839 . S
C375 N57 0.847 . S
C380 C240 0.821 . S
C385 N18 0.845 1_455 S
C390 C111 0.823 . S
C400 C151 0.821 . S
C395 N31 0.844 1_545 S
C410 C191 0.817 . S
C405 N44 0.841 . S
C415 N5 0.847 . S
C420 C231 0.825 . S
C425 N66 2.389 1_455 S
C430 C115 2.513 . S
C435 N79 2.361 1_545 S
C440 C155 2.485 . S
C450 C195 2.477 . S
C445 N92 2.354 . S
C460 C235 2.505 . S
C455 N53 2.379 . S
C465 N14 2.376 . S
C470 C106 2.518 . S
C480 C146 2.485 . S
C475 N27 2.347 . S
C490 C186 2.477 . S
C485 N40 2.336 . S
C495 N1 2.364 . S
C500 C226 2.510 . S
