# Generated by pormake.
# Topology anh, (6,3)-cn, num edge types: 1
# Building blocks:
#     Node 0, Type 0, BuildingBlock: INOVEN_clean_sbu_0, # of connection points: 6
#     Node 1, Type 0, BuildingBlock: INOVEN_clean_sbu_0, # of connection points: 6
#     Node 2, Type 0, BuildingBlock: INOVEN_clean_sbu_0, # of connection points: 6
#     Node 3, Type 1, BuildingBlock: BETDIP_clean_linker_0, # of connection points: 3
#     Node 4, Type 1, BuildingBlock: BETDIP_clean_linker_0, # of connection points: 3
#     Node 5, Type 1, BuildingBlock: BETDIP_clean_linker_0, # of connection points: 3
#     Node 6, Type 1, BuildingBlock: BETDIP_clean_linker_0, # of connection points: 3
#     Node 7, Type 1, BuildingBlock: BETDIP_clean_linker_0, # of connection points: 3
#     Node 8, Type 1, BuildingBlock: BETDIP_clean_linker_0, # of connection points: 3
#     Edge 9, Type (0, 1), BuildingBlock: XUDNAN_clean_linker_2, # of connection points: 2
#     Edge 10, Type (0, 1), BuildingBlock: XUDNAN_clean_linker_2, # of connection points: 2
#     Edge 11, Type (0, 1), BuildingBlock: XUDNAN_clean_linker_2, # of connection points: 2
#     Edge 12, Type (0, 1), BuildingBlock: XUDNAN_clean_linker_2, # of connection points: 2
#     Edge 13, Type (0, 1), BuildingBlock: XUDNAN_clean_linker_2, # of connection points: 2
#     Edge 14, Type (0, 1), BuildingBlock: XUDNAN_clean_linker_2, # of connection points: 2
#     Edge 15, Type (0, 1), BuildingBlock: XUDNAN_clean_linker_2, # of connection points: 2
#     Edge 16, Type (0, 1), BuildingBlock: XUDNAN_clean_linker_2, # of connection points: 2
#     Edge 17, Type (0, 1), BuildingBlock: XUDNAN_clean_linker_2, # of connection points: 2
#     Edge 18, Type (0, 1), BuildingBlock: XUDNAN_clean_linker_2, # of connection points: 2
#     Edge 19, Type (0, 1), BuildingBlock: XUDNAN_clean_linker_2, # of connection points: 2
#     Edge 20, Type (0, 1), BuildingBlock: XUDNAN_clean_linker_2, # of connection points: 2
#     Edge 21, Type (0, 1), BuildingBlock: XUDNAN_clean_linker_2, # of connection points: 2
#     Edge 22, Type (0, 1), BuildingBlock: XUDNAN_clean_linker_2, # of connection points: 2
#     Edge 23, Type (0, 1), BuildingBlock: XUDNAN_clean_linker_2, # of connection points: 2
#     Edge 24, Type (0, 1), BuildingBlock: XUDNAN_clean_linker_2, # of connection points: 2
#     Edge 25, Type (0, 1), BuildingBlock: XUDNAN_clean_linker_2, # of connection points: 2
#     Edge 26, Type (0, 1), BuildingBlock: XUDNAN_clean_linker_2, # of connection points: 2
# Relax obj value: 0.153
# Max RMSD: 0.183
# Mean RMSD: 0.125
data_MOF--net-anh--node1-INOVEN_clean_sbu_0--node2-BETDIP_clean_linker_0--edge1-XUDNAN_clean_linker_2
_symmetry_space_group_name_H-M    P1
_symmetry_Int_Tables_number       1
_symmetry_cell_setting            triclinic
loop_
_symmetry_equiv_pos_as_xyz
'x, y, z'
_cell_length_a     30.12179
_cell_length_b     37.736169
_cell_length_c     49.246045
_cell_angle_alpha  96.01061
_cell_angle_beta   87.754459
_cell_angle_gamma 129.8125
loop_
_atom_site_label
_atom_site_type_symbol
_atom_site_fract_x
_atom_site_fract_y
_atom_site_fract_z
_atom_type_partial_charge
Gd0 Gd 0.23173 0.585 0.13356 0.0
Gd1 Gd 0.16392 0.60874 0.16651 0.0
C2 C 0.29649 0.69297 0.15501 0.0
C3 C 0.30175 0.58467 0.10179 0.0
C4 C 0.36237 0.60654 0.10718 0.0
C5 C 0.39011 0.5951 0.08966 0.0
C6 C 0.39009 0.63415 0.13196 0.0
C7 C 0.46908 0.63305 0.12352 0.0
C8 C 0.44316 0.64749 0.14002 0.0
C9 C 0.44331 0.6084 0.09773 0.0
C10 C 0.22604 0.57512 0.18748 0.0
C11 C 1.10106 0.50336 0.14307 0.0
C12 C 0.11299 0.62255 0.20395 0.0
C13 C 1.05103 0.59274 0.20907 0.0
C14 C 1.01248 0.55539 0.18962 0.0
C15 C 1.03036 0.5978 0.23397 0.0
C16 C 0.9332 0.5273 0.21997 0.0
C17 C 0.97134 0.56535 0.23931 0.0
C18 C 0.95422 0.52317 0.19496 0.0
C19 C 0.1391 0.58974 0.11204 0.0
O20 O 0.30104 0.66179 0.14441 0.0
O21 O 0.24757 0.68129 0.1647 0.0
O22 O 0.26523 0.55126 0.11683 0.0
O23 O 0.29101 0.61288 0.10023 0.0
O24 O 0.22629 0.5485 0.16879 0.0
O25 O 0.23254 0.60701 0.17694 0.0
O26 O 0.10724 0.53092 0.16434 0.0
O27 O 0.1406 0.51928 0.12429 0.0
O28 O 0.12853 0.64209 0.18106 0.0
O29 O 0.13608 0.6036 0.20801 0.0
O30 O 1.10243 0.58232 0.13024 0.0
O31 O 0.18787 0.6111 0.1234 0.0
H32 H 0.36907 0.57354 0.07057 0.0
H33 H 0.36904 0.64289 0.14593 0.0
H34 H 0.46206 0.6665 0.15993 0.0
H35 H 0.4618 0.59615 0.08474 0.0
H36 H 1.02765 0.55056 0.17043 0.0
H37 H 1.05984 0.62614 0.24936 0.0
H38 H 0.95574 0.56934 0.25862 0.0
H39 H 0.92537 0.495 0.17941 0.0
Gd40 Gd 0.65711 0.05842 0.47926 0.0
Gd41 Gd 0.57963 0.08044 0.46594 0.0
C42 C 0.51929 0.97471 0.46314 0.0
C43 C 0.70062 0.02551 0.49941 0.0
C44 C 0.67862 0.97988 0.50621 0.0
C45 C 0.71728 0.9717 0.50942 0.0
C46 C 0.6193 0.94415 0.50921 0.0
C47 C 0.63762 0.89254 0.51908 0.0
C48 C 0.59895 0.90083 0.5155 0.0
C49 C 0.69704 0.92846 0.51586 0.0
C50 C 0.65885 0.07507 0.42753 0.0
C51 C 0.71871 0.16495 0.47975 0.0
C52 C 0.53585 0.11442 0.44781 0.0
C53 C 0.54915 0.15956 0.45215 0.0
C54 C 0.57188 0.18668 0.47743 0.0
C55 C 0.53812 0.17544 0.43105 0.0
C56 C 0.56856 0.24373 0.46108 0.0
C57 C 0.54791 0.21722 0.43542 0.0
C58 C 0.58114 0.22816 0.48192 0.0
C59 C 0.57958 0.06498 0.51811 0.0
O60 O 0.56622 0.98829 0.4763 0.0
O61 O 0.51716 1.00449 0.45278 0.0
O62 O 0.70041 0.02957 0.47337 0.0
O63 O 0.68297 0.04482 0.51448 0.0
O64 O 0.70416 0.08764 0.44068 0.0
O65 O 0.61427 0.05178 0.44143 0.0
O66 O 0.66921 0.15096 0.46944 0.0
O67 O 0.72369 0.13564 0.48847 0.0
O68 O 0.51643 0.09035 0.46886 0.0
O69 O 0.57374 0.11369 0.43448 0.0
O70 O 0.53393 0.0515 0.50492 0.0
O71 O 0.62319 0.08785 0.50365 0.0
H72 H 0.76323 0.99891 0.50716 0.0
H73 H 0.58869 0.94972 0.50684 0.0
H74 H 0.55288 0.87381 0.51748 0.0
H75 H 0.7281 0.92351 0.51887 0.0
H76 H 0.5813 0.17529 0.49395 0.0
H77 H 0.52122 0.15522 0.41129 0.0
H78 H 0.53884 0.22852 0.41873 0.0
H79 H 0.59636 0.24717 0.50204 0.0
Gd80 Gd 0.67122 0.56984 0.83953 0.0
Gd81 Gd 0.58368 0.46452 0.83399 0.0
C82 C 0.53286 0.5165 0.83627 0.0
C83 C 0.72451 0.65612 0.83456 0.0
C84 C 0.70574 0.68032 0.82451 0.0
C85 C 0.7252 0.72285 0.83808 0.0
C86 C 0.66547 0.65984 0.80249 0.0
C87 C 0.66303 0.72355 0.80826 0.0
C88 C 0.64461 0.68133 0.79437 0.0
C89 C 0.7041 0.7443 0.83005 0.0
C90 C 0.644 0.53071 0.88662 0.0
C91 C 0.72489 0.51928 0.83508 0.0
C92 C 0.52675 0.37805 0.84075 0.0
C93 C 0.53526 0.34377 0.83482 0.0
C94 C 0.49017 0.29717 0.83852 0.0
C95 C 0.58857 0.35735 0.82606 0.0
C96 C 0.55212 0.27804 0.82536 0.0
C97 C 0.59705 0.32488 0.82143 0.0
C98 C 0.4984 0.26455 0.83378 0.0
C99 C 0.60976 0.5018 0.78632 0.0
O100 O 0.58531 0.55186 0.82911 0.0
O101 O 0.52257 0.47926 0.84385 0.0
O102 O 0.70194 0.63745 0.85735 0.0
O103 O 0.72619 0.62911 0.81636 0.0
O104 O 0.69561 0.56773 0.88176 0.0
O105 O 0.60923 0.51798 0.86717 0.0
O106 O 0.67058 0.48008 0.83531 0.0
O107 O 0.73747 0.55995 0.83526 0.0
O108 O 0.51824 0.39162 0.81962 0.0
O109 O 0.56226 0.41233 0.85933 0.0
O110 O 0.55904 0.46403 0.79141 0.0
O111 O 0.64514 0.516 0.80586 0.0
H112 H 0.75584 0.73899 0.85529 0.0
H113 H 0.64941 0.62685 0.79177 0.0
H114 H 0.61386 0.66467 0.77721 0.0
H115 H 0.71876 0.77647 0.84142 0.0
H116 H 0.4486 0.28602 0.84518 0.0
H117 H 0.62376 0.39313 0.82305 0.0
H118 H 0.63913 0.33669 0.81525 0.0
H119 H 0.46248 0.22868 0.83652 0.0
H120 H 0.64568 0.05928 0.15044 0.0
H121 H 0.72178 0.15403 0.22361 0.0
H122 H 0.57826 1.00982 0.22873 0.0
H123 H 0.72624 0.20039 0.19231 0.0
C124 C 0.74771 0.19427 0.17663 0.0
C125 C 0.64654 0.06576 0.17246 0.0
C126 C 0.60678 0.02902 0.18814 0.0
C127 C 0.6865 0.11123 0.18506 0.0
C128 C 0.68865 0.11949 0.21371 0.0
C129 C 0.65011 0.08301 0.22971 0.0
C130 C 0.60863 0.03815 0.21662 0.0
N131 N 0.72559 0.14809 0.16879 0.0
H132 H 0.60684 0.54541 0.51632 0.0
H133 H 0.63728 0.60729 0.59908 0.0
H134 H 0.63614 0.49308 0.58118 0.0
H135 H 0.55436 0.59794 0.58173 0.0
C136 C 0.57773 0.61782 0.56457 0.0
C137 C 0.61632 0.54695 0.53761 0.0
C138 C 0.62203 0.51549 0.54614 0.0
C139 C 0.62029 0.57925 0.55667 0.0
C140 C 0.63339 0.58201 0.58425 0.0
C141 C 0.63971 0.55132 0.59298 0.0
C142 C 0.63348 0.51789 0.57401 0.0
N143 N 0.60874 0.60751 0.54811 0.0
H144 H 1.09086 0.52037 0.83236 0.0
H145 H 0.18074 0.55334 0.90887 0.0
H146 H 1.03401 0.54793 0.90682 0.0
H147 H 0.18228 0.49362 0.88613 0.0
C148 C 0.20197 0.51177 0.86803 0.0
C149 C 1.09557 0.52916 0.85429 0.0
C150 C 1.05825 0.53536 0.86784 0.0
C151 C 0.139 0.5342 0.86918 0.0
C152 C 0.14571 0.54695 0.89761 0.0
C153 C 0.10895 0.55316 0.91137 0.0
C154 C 1.06478 0.54603 0.89628 0.0
N155 N 0.17714 0.52836 0.8554 0.0
H156 H 0.16406 0.60954 0.46309 0.0
H157 H 0.10461 0.51222 0.39145 0.0
H158 H 0.25269 0.65608 0.38791 0.0
H159 H 1.01506 0.48332 0.41402 0.0
C160 C 1.02975 0.48126 0.43315 0.0
C161 C 0.16866 0.60212 0.44179 0.0
C162 C 0.21305 0.63823 0.42691 0.0
C163 C 0.12934 0.55655 0.42912 0.0
C164 C 0.13492 0.54726 0.40133 0.0
C165 C 0.17926 0.58292 0.38621 0.0
C166 C 0.21843 0.6282 0.39932 0.0
N167 N 1.08521 0.52033 0.44464 0.0
H168 H 0.62221 0.03114 0.78666 0.0
H169 H 0.60505 0.96594 0.70644 0.0
H170 H 0.60397 0.07958 0.7156 0.0
H171 H 0.53765 0.90145 0.73621 0.0
C172 C 0.57323 0.91388 0.7501 0.0
C173 C 0.61797 0.02956 0.76473 0.0
C174 C 0.61373 0.0602 0.75343 0.0
C175 C 0.6136 0.99498 0.74796 0.0
C176 C 0.60795 0.99237 0.7195 0.0
C177 C 0.60625 0.02378 0.7078 0.0
C178 C 0.60898 0.05742 0.7248 0.0
N179 N 0.6124 0.96173 0.75996 0.0
H180 H 0.60921 0.45542 0.14903 0.0
H181 H 0.57843 0.37498 0.07279 0.0
H182 H 0.61832 0.50599 0.07293 0.0
H183 H 0.5345 0.37851 0.16178 0.0
C184 C 0.56039 0.36887 0.15453 0.0
C185 C 0.60535 0.45117 0.12703 0.0
C186 C 0.61539 0.48641 0.11326 0.0
C187 C 0.58974 0.41012 0.11263 0.0
C188 C 0.58913 0.406 0.084 0.0
C189 C 0.60212 0.44188 0.0699 0.0
C190 C 0.61358 0.481 0.08452 0.0
N191 N 0.57564 0.37314 0.12668 0.0
H192 H 0.56677 0.6565 0.09899 0.0
H193 H 0.47225 0.61022 0.17344 0.0
H194 H 0.52893 0.58874 0.187 0.0
H195 H 0.56125 0.57157 0.08079 0.0
H196 H 0.63272 0.59929 0.06836 0.0
H197 H 0.60394 0.62866 0.06943 0.0
H198 H 0.6919 0.69865 0.09931 0.0
H199 H 0.72187 0.66971 0.09801 0.0
H200 H 0.71126 0.68968 0.13052 0.0
H201 H 0.561 0.54412 0.18285 0.0
H202 H 0.57458 0.48964 0.16426 0.0
H203 H 0.66619 0.57286 0.09663 0.0
C204 C 0.56056 0.64423 0.11881 0.0
C205 C 0.51535 0.63507 0.13513 0.0
C206 C 0.50731 0.61828 0.16078 0.0
C207 C 0.53944 0.60593 0.16869 0.0
C208 C 0.58051 0.61166 0.15109 0.0
C209 C 0.59298 0.63219 0.12711 0.0
C210 C 0.6316 0.62712 0.1097 0.0
C211 C 0.60575 0.60532 0.08039 0.0
C212 C 0.6928 0.67409 0.10938 0.0
C213 C 0.63146 0.59478 0.12561 0.0
C214 C 0.60326 0.58744 0.14984 0.0
C215 C 0.58574 0.55116 0.16467 0.0
C216 C 0.59398 0.52006 0.15378 0.0
C217 C 0.62078 0.52573 0.12838 0.0
C218 C 0.64384 0.56603 0.11555 0.0
H219 H 0.73363 0.22822 0.44934 0.0
H220 H 0.82189 0.21358 0.50895 0.0
H221 H 0.91001 0.29511 0.50596 0.0
H222 H 0.85198 0.29308 0.40695 0.0
H223 H 0.83561 0.32878 0.39793 0.0
H224 H 0.7784 0.27117 0.40695 0.0
H225 H 0.74781 0.30428 0.4447 0.0
H226 H 0.80493 0.36207 0.43577 0.0
H227 H 0.8005 0.34896 0.47042 0.0
H228 H 0.98995 0.37841 0.49504 0.0
H229 H 1.05552 0.45356 0.47529 0.0
H230 H 0.91548 0.41106 0.42118 0.0
C231 C 0.77108 0.2423 0.46218 0.0
C232 C 0.77059 0.21461 0.47966 0.0
C233 C 0.82111 0.23419 0.49556 0.0
C234 C 0.87131 0.28051 0.49402 0.0
C235 C 0.87046 0.30667 0.47632 0.0
C236 C 0.82161 0.28807 0.46059 0.0
C237 C 0.83272 0.32208 0.44177 0.0
C238 C 0.82419 0.30261 0.41162 0.0
C239 C 0.79421 0.33512 0.44858 0.0
C240 C 0.89572 0.36271 0.4491 0.0
C241 C 0.91662 0.35352 0.46935 0.0
C242 C 0.97392 0.38594 0.47924 0.0
C243 C 1.01084 0.42858 0.46796 0.0
C244 C 0.99046 0.43807 0.44676 0.0
C245 C 0.93211 0.40471 0.43742 0.0
H246 H 0.71862 0.81658 0.80658 0.0
H247 H 0.55086 0.67913 0.79238 0.0
H248 H 0.51 0.71355 0.77747 0.0
H249 H 0.66224 0.87476 0.83328 0.0
H250 H 0.71647 0.92695 0.81754 0.0
H251 H 0.73278 0.89173 0.82763 0.0
H252 H 0.76195 0.88545 0.77829 0.0
H253 H 0.74565 0.92054 0.76804 0.0
H254 H 0.71122 0.86396 0.7502 0.0
H255 H 0.48838 0.76171 0.76146 0.0
H256 H 0.4863 0.82152 0.74726 0.0
H257 H 0.66581 0.92856 0.77443 0.0
C258 C 0.6731 0.79372 0.80071 0.0
C259 C 0.63823 0.74497 0.80038 0.0
C260 C 0.57895 0.71641 0.79223 0.0
C261 C 0.55512 0.73567 0.78395 0.0
C262 C 0.59082 0.78365 0.78422 0.0
C263 C 0.64838 0.81241 0.7926 0.0
C264 C 0.67726 0.86289 0.79061 0.0
C265 C 0.69843 0.89072 0.81896 0.0
C266 C 0.72695 0.88446 0.77059 0.0
C267 C 0.62708 0.85787 0.77941 0.0
C268 C 0.57769 0.81178 0.77586 0.0
C269 C 0.52651 0.79795 0.76449 0.0
C270 C 0.52575 0.83209 0.75646 0.0
C271 C 0.57555 0.87949 0.76009 0.0
C272 C 0.62679 0.89259 0.7719 0.0
H273 H 0.85582 0.54124 0.23094 0.0
H274 H 0.87091 0.43433 0.21721 0.0
H275 H 0.76545 0.375 0.20906 0.0
H276 H 0.7 0.46133 0.26072 0.0
H277 H 0.68197 0.49116 0.24402 0.0
H278 H 0.75459 0.52242 0.25738 0.0
H279 H 0.79382 0.55001 0.20974 0.0
H280 H 0.72182 0.51837 0.19612 0.0
H281 H 0.76772 0.5075 0.18051 0.0
H282 H 0.67073 0.33487 0.1868 0.0
H283 H 0.58839 0.31405 0.15948 0.0
H284 H 0.62713 0.44243 0.19227 0.0
C285 C 0.83617 0.50498 0.22789 0.0
C286 C 0.8709 0.49202 0.22459 0.0
C287 C 0.84458 0.44459 0.21968 0.0
C288 C 0.78475 0.41072 0.21515 0.0
C289 C 0.75177 0.42482 0.21631 0.0
C290 C 0.77616 0.47065 0.22353 0.0
C291 C 0.73275 0.47768 0.21945 0.0
C292 C 0.71635 0.48879 0.24704 0.0
C293 C 0.7554 0.51558 0.20031 0.0
C294 C 0.68249 0.43003 0.20626 0.0
C295 C 0.69396 0.39978 0.20499 0.0
C296 C 0.65964 0.35719 0.18886 0.0
C297 C 0.61323 0.34568 0.17331 0.0
C298 C 0.60112 0.37622 0.17451 0.0
C299 C 0.63467 0.41792 0.19192 0.0
H300 H 0.51186 0.89792 0.4532 0.0
H301 H 0.40848 0.94042 0.46852 0.0
H302 H 0.31971 0.8582 0.46595 0.0
H303 H 0.41379 0.80517 0.40255 0.0
H304 H 0.42676 0.76748 0.41188 0.0
H305 H 0.4825 0.82941 0.41798 0.0
H306 H 0.48861 0.82199 0.46912 0.0
H307 H 0.43239 0.75998 0.46328 0.0
H308 H 0.42434 0.79323 0.48881 0.0
H309 H 0.24213 0.77166 0.46128 0.0
H310 H 0.17972 0.68703 0.44814 0.0
H311 H 0.33181 0.7002 0.43151 0.0
C312 C 0.47048 0.88973 0.45626 0.0
C313 C 0.4668 0.92533 0.46123 0.0
C314 C 0.41202 0.91353 0.46463 0.0
C315 C 0.36148 0.86698 0.46342 0.0
C316 C 0.36635 0.83257 0.45836 0.0
C317 C 0.41931 0.84329 0.45434 0.0
C318 C 0.41186 0.79971 0.44657 0.0
C319 C 0.43509 0.8005 0.41805 0.0
C320 C 0.44103 0.79336 0.46824 0.0
C321 C 0.34645 0.76294 0.44654 0.0
C322 C 0.32121 0.78261 0.45409 0.0
C323 C 0.26138 0.75584 0.45538 0.0
C324 C 0.22628 0.70783 0.44806 0.0
C325 C 0.25104 0.68726 0.43902 0.0
C326 C 0.31193 0.71515 0.43858 0.0
H327 H 0.61291 0.27144 0.78477 0.0
H328 H 0.51162 0.20595 0.85549 0.0
H329 H 0.52281 0.14652 0.8468 0.0
H330 H 0.55749 0.16955 0.74246 0.0
H331 H 0.62515 0.19182 0.72712 0.0
H332 H 0.61223 0.23088 0.73983 0.0
H333 H 0.70549 0.27884 0.77062 0.0
H334 H 0.71878 0.23991 0.75796 0.0
H335 H 0.7147 0.25032 0.79418 0.0
H336 H 0.53891 0.09107 0.82853 0.0
H337 H 0.55787 0.04336 0.80188 0.0
H338 H 0.65468 0.1478 0.74484 0.0
C339 C 0.59398 0.24517 0.79878 0.0
C340 C 0.56114 0.2434 0.82078 0.0
C341 C 0.53617 0.20773 0.83824 0.0
C342 C 0.54276 0.17403 0.83363 0.0
C343 C 0.57495 0.17662 0.81165 0.0
C344 C 0.60043 0.21141 0.79459 0.0
C345 C 0.63089 0.20524 0.77177 0.0
C346 C 0.60486 0.19899 0.74364 0.0
C347 C 0.69636 0.246 0.77376 0.0
C348 C 0.6173 0.16088 0.77828 0.0
C349 C 0.58535 0.14515 0.80147 0.0
C350 C 0.5648 0.10346 0.81061 0.0
C351 C 0.5763 0.07673 0.79539 0.0
C352 C 0.60827 0.09173 0.77125 0.0
C353 C 0.6299 0.13499 0.76306 0.0
H354 H 0.67367 0.84319 0.50113 0.0
H355 H 0.55435 0.83976 0.55565 0.0
H356 H 0.52193 0.76642 0.57068 0.0
H357 H 0.58228 0.7181 0.48232 0.0
H358 H 0.64226 0.71825 0.48204 0.0
H359 H 0.65312 0.76874 0.47393 0.0
H360 H 0.7337 0.81924 0.51195 0.0
H361 H 0.7231 0.76897 0.52018 0.0
H362 H 0.71788 0.80317 0.54637 0.0
H363 H 0.50734 0.69692 0.58229 0.0
H364 H 0.5105 0.63466 0.58923 0.0
H365 H 0.63945 0.68294 0.52749 0.0
C366 C 0.64061 0.82698 0.51618 0.0
C367 C 0.61638 0.84722 0.5271 0.0
C368 C 0.57288 0.82461 0.54661 0.0
C369 C 0.55436 0.78303 0.55539 0.0
C370 C 0.57959 0.76436 0.54444 0.0
C371 C 0.62161 0.78544 0.52519 0.0
C372 C 0.64323 0.75898 0.51747 0.0
C373 C 0.62938 0.73988 0.48714 0.0
C374 C 0.70833 0.78941 0.52442 0.0
C375 C 0.60758 0.72025 0.53581 0.0
C376 C 0.57094 0.72393 0.55107 0.0
C377 C 0.53537 0.69337 0.57026 0.0
C378 C 0.53751 0.65823 0.57408 0.0
C379 C 0.57481 0.6539 0.55878 0.0
C380 C 0.60999 0.68511 0.53924 0.0
H381 H 0.83675 0.58334 0.857 0.0
H382 H 0.72046 0.44871 0.81022 0.0
H383 H 0.79635 0.44141 0.80931 0.0
H384 H 0.97099 0.62113 0.82462 0.0
H385 H 1.0134 0.64866 0.85621 0.0
H386 H 0.95155 0.64503 0.85131 0.0
H387 H 0.90805 0.60413 0.89544 0.0
H388 H 0.96987 0.60793 0.90054 0.0
H389 H 0.89811 0.5524 0.89899 0.0
H390 H 0.88514 0.44747 0.81514 0.0
H391 H 0.97433 0.46352 0.83081 0.0
H392 H 1.0323 0.59346 0.87415 0.0
C393 C 0.8276 0.55266 0.84622 0.0
C394 C 0.77236 0.51655 0.83368 0.0
C395 C 0.76198 0.4766 0.82025 0.0
C396 C 0.80516 0.47233 0.81941 0.0
C397 C 0.85892 0.50825 0.83218 0.0
C398 C 0.87013 0.54756 0.84549 0.0
C399 C 0.93002 0.57964 0.85927 0.0
C400 C 0.96878 0.62639 0.84712 0.0
C401 C 0.92626 0.5864 0.8904 0.0
C402 C 0.95046 0.55211 0.8519 0.0
C403 C 0.90924 0.51129 0.83594 0.0
C404 C 0.91784 0.47955 0.82749 0.0
C405 C 0.96892 0.48908 0.83627 0.0
C406 C 1.01062 0.52978 0.8536 0.0
C407 C 1.00147 0.56207 0.86081 0.0
H408 H 0.31254 0.76853 0.18159 0.0
H409 H 0.39757 0.72979 0.12906 0.0
H410 H 0.48301 0.81228 0.12847 0.0
H411 H 0.36914 0.87356 0.15134 0.0
H412 H 0.37835 0.90516 0.18368 0.0
H413 H 0.32227 0.84306 0.17886 0.0
H414 H 0.36303 0.83476 0.22092 0.0
H415 H 0.41886 0.89679 0.22599 0.0
H416 H 0.43797 0.86004 0.22224 0.0
H417 H 0.56062 0.89906 0.13448 0.0
H418 H 0.62721 0.98302 0.15008 0.0
H419 H 0.49184 0.965 0.19857 0.0
C420 C 0.34893 0.77736 0.16984 0.0
C421 C 0.34813 0.7426 0.15533 0.0
C422 C 0.39705 0.75572 0.14042 0.0
C423 C 0.44576 0.80254 0.13978 0.0
C424 C 0.44505 0.83593 0.15419 0.0
C425 C 0.39813 0.82395 0.16911 0.0
C426 C 0.40962 0.86643 0.18401 0.0
C427 C 0.36732 0.87239 0.17385 0.0
C428 C 0.40724 0.86437 0.21513 0.0
C429 C 0.47057 0.90405 0.17541 0.0
C430 C 0.49002 0.88585 0.15793 0.0
C431 C 0.54576 0.91379 0.14801 0.0
C432 C 0.58314 0.96145 0.1568 0.0
C433 C 0.56467 0.98046 0.17549 0.0
C434 C 0.50719 0.95139 0.18433 0.0
H435 H 0.65136 0.32484 0.49324 0.0
H436 H 0.49669 0.25777 0.44238 0.0
H437 H 0.50044 0.32461 0.45466 0.0
H438 H 0.6108 0.36544 0.54722 0.0
H439 H 0.68262 0.41933 0.5557 0.0
H440 H 0.67296 0.36951 0.53988 0.0
H441 H 0.73908 0.41685 0.50084 0.0
H442 H 0.74909 0.46695 0.5166 0.0
H443 H 0.72244 0.44542 0.48164 0.0
H444 H 0.51485 0.39472 0.476 0.0
H445 H 0.53789 0.46203 0.50543 0.0
H446 H 0.68188 0.48288 0.54322 0.0
C447 C 0.61847 0.32425 0.48447 0.0
C448 C 0.57394 0.28594 0.46665 0.0
C449 C 0.53203 0.28696 0.45558 0.0
C450 C 0.53358 0.32474 0.46255 0.0
C451 C 0.57731 0.36136 0.48061 0.0
C452 C 0.61908 0.36148 0.49139 0.0
C453 C 0.65871 0.40334 0.512 0.0
C454 C 0.65607 0.3885 0.54037 0.0
C455 C 0.72102 0.43502 0.50217 0.0
C456 C 0.63164 0.42601 0.51172 0.0
C457 C 0.58526 0.40162 0.49319 0.0
C458 C 0.55163 0.41452 0.49028 0.0
C459 C 0.56527 0.45299 0.507 0.0
C460 C 0.61191 0.47797 0.52655 0.0
C461 C 0.64591 0.46451 0.52852 0.0
H462 H 0.43047 0.46788 0.86411 0.0
H463 H 0.52935 0.57371 0.80824 0.0
H464 H 0.45442 0.58204 0.80845 0.0
H465 H 0.28692 0.41484 0.83726 0.0
H466 H 0.25611 0.40574 0.8705 0.0
H467 H 0.31594 0.40623 0.86474 0.0
H468 H 0.37443 0.47094 0.90477 0.0
H469 H 0.31478 0.47059 0.91066 0.0
H470 H 0.38538 0.52382 0.90467 0.0
H471 H 0.36691 0.57876 0.81483 0.0
H472 H 0.27938 0.56784 0.82946 0.0
H473 H 0.24027 0.46757 0.88295 0.0
C474 C 0.43602 0.49239 0.85165 0.0
C475 C 0.48585 0.51977 0.83593 0.0
C476 C 0.49172 0.55214 0.8204 0.0
C477 C 0.44916 0.55708 0.82032 0.0
C478 C 0.40075 0.52976 0.83611 0.0
C479 C 0.39425 0.49831 0.85168 0.0
C480 C 0.3397 0.47489 0.86797 0.0
C481 C 0.29716 0.4223 0.85961 0.0
C482 C 0.35447 0.48572 0.89884 0.0
C483 C 0.31652 0.49795 0.85916 0.0
C484 C 0.35195 0.52916 0.84053 0.0
C485 C 0.33898 0.55439 0.82944 0.0
C486 C 0.289 0.54789 0.83779 0.0
C487 C 0.25279 0.5168 0.85731 0.0
C488 C 0.267 0.49155 0.86795 0.0
H489 H 1.00063 0.46351 0.16994 0.0
H490 H 1.08473 0.43058 0.112 0.0
H491 H 1.00072 0.34689 0.11197 0.0
H492 H 0.94131 0.37236 0.21005 0.0
H493 H 0.87505 0.36293 0.21549 0.0
H494 H 0.94032 0.41942 0.20898 0.0
H495 H 0.88689 0.418 0.16761 0.0
H496 H 0.8222 0.36152 0.17468 0.0
H497 H 0.85218 0.37015 0.14128 0.0
H498 H 0.90909 0.26579 0.12126 0.0
H499 H 0.81836 0.196 0.13807 0.0
H500 H 0.79599 0.28389 0.18929 0.0
C501 C 1.00132 0.43881 0.15703 0.0
C502 C 1.04937 0.45355 0.14107 0.0
C503 C 1.04827 0.42006 0.12434 0.0
C504 C 1.00077 0.37246 0.12421 0.0
C505 C 0.95449 0.35909 0.14063 0.0
C506 C 0.95425 0.39146 0.15646 0.0
C507 C 0.90019 0.36848 0.17278 0.0
C508 C 0.91511 0.38157 0.20365 0.0
C509 C 0.86317 0.38024 0.16355 0.0
C510 C 0.87097 0.31806 0.1646 0.0
C511 C 0.90234 0.31308 0.14577 0.0
C512 C 0.884 0.26938 0.1358 0.0
C513 C 0.83247 0.22996 0.14546 0.0
C514 C 0.80024 0.23472 0.1649 0.0
C515 C 0.8197 0.27931 0.17432 0.0
H516 H 0.16624 0.55456 0.06975 0.0
H517 H 1.09304 0.62217 0.08871 0.0
H518 H 1.0837 0.6246 0.03936 0.0
H519 H 0.24468 0.61166 0.01058 0.0
H520 H 0.22655 0.56024 0.99149 0.0
H521 H 0.23087 0.56618 0.02829 0.0
H522 H 0.12621 0.48848 0.02903 0.0
H523 H 0.12181 0.48208 0.99225 0.0
H524 H 1.06858 0.4806 0.01149 0.0
H525 H 1.08831 0.62417 0.98871 0.0
H526 H 1.08913 0.60873 0.93917 0.0
H527 H 0.14571 0.5306 0.95227 0.0
C528 C 0.14831 0.56984 0.06335 0.0
C529 C 0.13072 0.58858 0.08273 0.0
C530 C 0.10663 0.60769 0.07395 0.0
C531 C 1.10157 0.60948 0.04607 0.0
C532 C 0.1196 0.59098 0.02735 0.0
C533 C 0.14114 0.57049 0.03551 0.0
C534 C 0.15308 0.55004 0.01105 0.0
C535 C 0.21764 0.57344 0.01032 0.0
C536 C 0.11515 0.49716 0.01095 0.0
C537 C 0.1353 0.56262 0.98789 0.0
C538 C 0.11734 0.58707 -0.00215 0.0
C539 C 1.1009 0.60406 0.98063 0.0
C540 C 1.10101 0.59462 0.95241 0.0
C541 C 0.11564 0.56702 0.94147 0.0
C542 C 0.13411 0.55166 0.95967 0.0
H543 H 0.63608 0.01976 0.38121 0.0
H544 H 0.68387 0.1525 0.41139 0.0
H545 H 0.68563 0.16937 0.36379 0.0
H546 H 0.72775 0.06006 0.32368 0.0
H547 H 0.67732 1.00742 0.3016 0.0
H548 H 0.67768 1.00553 0.33796 0.0
H549 H 0.56867 0.96576 0.33823 0.0
H550 H 0.56803 0.96761 0.30186 0.0
H551 H 0.5443 0.99317 0.32417 0.0
H552 H 0.68107 0.17067 0.31265 0.0
H553 H 0.674 0.1579 0.2622 0.0
H554 H 0.63574 0.02634 0.26613 0.0
C555 C 0.64651 0.05217 0.37763 0.0
C556 C 0.6591 0.08472 0.39955 0.0
C557 C 0.67347 0.12711 0.39455 0.0
C558 C 0.67463 0.13691 0.36769 0.0
C559 C 0.66191 0.10401 0.3463 0.0
C560 C 0.64849 0.06263 0.351 0.0
C561 C 0.63837 0.0338 0.32453 0.0
C562 C 0.68295 0.02629 0.32179 0.0
C563 C 0.57614 0.98734 0.32206 0.0
C564 C 0.64795 0.06527 0.30418 0.0
C565 C 0.66115 0.10547 0.31706 0.0
C566 C 0.67109 0.13942 0.30234 0.0
C567 C 0.66736 0.132 0.27368 0.0
C568 C 0.6542 0.09108 0.26007 0.0
C569 C 0.6448 0.05761 0.27574 0.0
H570 H 0.54249 0.46056 0.73959 0.0
H571 H 0.71434 0.57955 0.77132 0.0
H572 H 0.74127 0.60623 0.72514 0.0
H573 H 0.58864 0.43866 0.67673 0.0
H574 H 0.52682 0.42042 0.65696 0.0
H575 H 0.52048 0.41241 0.69274 0.0
H576 H 0.48358 0.45852 0.70109 0.0
H577 H 0.48953 0.46649 0.66532 0.0
H578 H 0.52633 0.51614 0.69059 0.0
H579 H 0.74803 0.62022 0.67525 0.0
H580 H 0.73557 0.61812 0.62538 0.0
H581 H 0.56201 0.48674 0.62635 0.0
C582 C 0.58569 0.49241 0.73687 0.0
C583 C 0.62616 0.51848 0.75904 0.0
C584 C 0.68249 0.55956 0.75464 0.0
C585 C 0.69817 0.57482 0.72849 0.0
C586 C 0.65721 0.54812 0.70699 0.0
C587 C 0.60228 0.50758 0.7109 0.0
C588 C 0.56688 0.48421 0.68436 0.0
C589 C 0.54972 0.43608 0.67729 0.0
C590 C 0.51343 0.48119 0.68541 0.0
C591 C 0.61033 0.51797 0.66483 0.0
C592 C 0.66205 0.55488 0.67826 0.0
C593 C 0.70795 0.59128 0.6645 0.0
C594 C 0.70063 0.58985 0.63631 0.0
C595 C 0.64825 0.55198 0.62232 0.0
C596 C 0.60276 0.51562 0.63671 0.0
H597 H 0.65832 0.11436 0.56097 0.0
H598 H 0.4966 0.97931 0.53387 0.0
H599 H 0.49064 0.95188 0.57842 0.0
H600 H 0.71411 0.07572 0.60425 0.0
H601 H 0.74288 0.12343 0.63036 0.0
H602 H 0.73838 0.13061 0.59522 0.0
H603 H 0.6787 0.15682 0.60909 0.0
H604 H 0.68289 0.14965 0.64421 0.0
H605 H 0.61338 0.11967 0.62748 0.0
H606 H 0.50031 0.94009 0.62621 0.0
H607 H 0.52026 0.9466 0.67554 0.0
H608 H 0.67125 0.09123 0.67306 0.0
C609 C 0.6223 0.07884 0.5644 0.0
C610 C 0.57811 0.04865 0.54417 0.0
C611 C 0.53078 1.00275 0.54931 0.0
C612 C 0.52725 0.98686 0.57442 0.0
C613 C 0.57097 0.01764 0.59425 0.0
C614 C 0.61731 0.06282 0.58967 0.0
C615 C 0.65536 0.09007 0.61531 0.0
C616 C 0.7163 0.10588 0.61102 0.0
C617 C 0.65768 0.13149 0.62456 0.0
C618 C 0.62273 0.05337 0.63507 0.0
C619 C 0.57488 1.01158 0.62234 0.0
C620 C 0.53773 0.97257 0.6364 0.0
C621 C 0.54941 0.97652 0.66433 0.0
C622 C 0.59718 0.01935 0.67793 0.0
C623 C 0.63441 0.05813 0.66305 0.0
H624 H 0.7134 0.55699 0.93135 0.0
H625 H 0.53794 0.45138 0.89833 0.0
H626 H 0.51172 0.41032 0.93955 0.0
H627 H 0.72534 0.48331 0.96723 0.0
H628 H 0.76427 0.52605 -0.00372 0.0
H629 H 0.77108 0.5442 0.96286 0.0
H630 H 0.73921 0.59156 0.98134 0.0
H631 H 0.73313 0.57406 0.0148 0.0
H632 H 0.67209 0.56307 -0.00126 0.0
H633 H 0.50358 0.38267 0.98541 0.0
H634 H 0.51095 0.37672 0.03446 0.0
H635 H 0.68986 0.50262 0.03817 0.0
C636 C 0.6697 0.52492 0.93267 0.0
C637 C 0.62805 0.50665 0.91142 0.0
C638 C 0.57087 0.46531 0.91415 0.0
C639 C 0.55559 0.44172 0.93745 0.0
C640 C 0.59785 0.46037 0.95798 0.0
C641 C 0.65349 0.50144 0.95598 0.0
C642 C 0.68916 0.51672 0.982 0.0
C643 C 0.7405 0.5176 0.97677 0.0
C644 C 0.70956 0.56414 0.99498 0.0
C645 C 0.64471 0.47817 -0.00092 0.0
C646 C 0.5926 0.44546 0.98472 0.0
C647 C 0.54432 0.4078 -0.00323 0.0
C648 C 0.54892 0.40444 0.0245 0.0
C649 C 0.6011 0.4389 0.03976 0.0
C650 C 0.64982 0.47547 0.02669 0.0
H651 H 0.2354 0.6333 0.22956 0.0
H652 H 0.20005 0.5022 0.21148 0.0
H653 H 0.1847 0.48983 0.26046 0.0
H654 H 0.30986 0.66772 0.29424 0.0
H655 H 0.27838 0.69217 0.30974 0.0
H656 H 0.28792 0.69106 0.27342 0.0
H657 H 0.17897 0.64728 0.26492 0.0
H658 H 0.16855 0.64769 0.30117 0.0
H659 H 0.12607 0.59354 0.27954 0.0
H660 H 0.17309 0.49192 0.31148 0.0
H661 H 0.16563 0.50802 0.36063 0.0
H662 H 0.20353 0.63585 0.34475 0.0
C663 C 0.22406 0.60187 0.2359 0.0
C664 C 0.21846 0.56851 0.2168 0.0
C665 C 0.2045 0.52817 0.22587 0.0
C666 C 0.19559 0.5208 0.2536 0.0
C667 C 0.20061 0.55408 0.27191 0.0
C668 C 0.21435 0.59374 0.26342 0.0
C669 C 0.21604 0.62366 0.2871 0.0
C670 C 0.27666 0.67148 0.29137 0.0
C671 C 0.16964 0.62829 0.28293 0.0
C672 C 0.20179 0.5949 0.31031 0.0
C673 C 0.19302 0.5549 0.30114 0.0
C674 C 0.17963 0.52304 0.31888 0.0
C675 C 0.17517 0.53237 0.34675 0.0
C676 C 0.18398 0.57319 0.35662 0.0
C677 C 0.19732 0.60466 0.33799 0.0
loop_
_geom_bond_atom_site_label_1
_geom_bond_atom_site_label_2
_geom_bond_distance
_geom_bond_site_symmetry_2
_ccdc_geom_bond_type
Gd0 C3 2.818 . S
Gd0 O20 2.377 . S
Gd0 O22 2.448 . S
Gd0 O23 2.506 . S
Gd0 O24 2.435 . S
Gd0 O25 2.717 . S
Gd0 O27 2.395 . S
Gd0 O31 2.327 . S
Gd1 C12 2.818 1_455 S
Gd1 O21 2.395 . S
Gd1 O25 2.327 . S
Gd1 O26 2.377 1_455 S
Gd1 O28 2.448 1_455 S
Gd1 O29 2.506 1_455 S
Gd1 O30 2.435 . S
Gd1 O31 2.717 . S
C2 O20 1.240 . S
C2 O21 1.240 . S
C3 Gd0 2.818 . S
C3 C4 1.510 . S
C3 O22 1.249 . S
C3 O23 1.252 . S
C4 C3 1.510 . S
C4 C5 1.404 . S
C4 C6 1.352 . S
C5 C4 1.404 . S
C5 C9 1.389 . S
C5 H32 0.930 . S
C6 C4 1.352 . S
C6 C8 1.374 . S
C6 H33 0.931 . S
C7 C8 1.359 . S
C7 C9 1.364 . S
C8 C6 1.374 . S
C8 C7 1.359 . S
C8 H34 0.931 . S
C9 C5 1.389 . S
C9 C7 1.364 . S
C9 H35 0.931 . S
C10 O24 1.256 . S
C10 O25 1.257 . S
C11 O26 1.240 . S
C11 O27 1.240 1_655 S
C12 Gd1 2.818 1_655 S
C12 C13 1.510 . S
C12 O28 1.249 . S
C12 O29 1.252 . S
C13 C12 1.510 . S
C13 C14 1.404 . S
C13 C15 1.352 . S
C14 C13 1.404 . S
C14 C18 1.389 . S
C14 H36 0.930 . S
C15 C13 1.352 . S
C15 C17 1.374 . S
C15 H37 0.931 . S
C16 C17 1.359 . S
C16 C18 1.364 . S
C17 C15 1.374 . S
C17 C16 1.359 . S
C17 H38 0.931 . S
C18 C14 1.389 . S
C18 C16 1.364 . S
C18 H39 0.931 . S
C19 O30 1.256 . S
C19 O31 1.257 . S
O20 Gd0 2.377 . S
O20 C2 1.240 . S
O21 Gd1 2.395 . S
O21 C2 1.240 . S
O22 Gd0 2.448 . S
O22 C3 1.249 . S
O23 Gd0 2.506 . S
O23 C3 1.252 . S
O24 Gd0 2.435 . S
O24 C10 1.256 . S
O25 Gd0 2.717 . S
O25 Gd1 2.327 . S
O25 C10 1.257 . S
O26 Gd1 2.377 1_655 S
O26 C11 1.240 . S
O27 Gd0 2.395 . S
O27 C11 1.240 1_455 S
O28 Gd1 2.448 1_655 S
O28 C12 1.249 . S
O29 Gd1 2.506 1_655 S
O29 C12 1.252 . S
O30 Gd1 2.435 . S
O30 C19 1.256 . S
O31 Gd0 2.327 . S
O31 Gd1 2.717 . S
O31 C19 1.257 . S
H32 C5 0.930 . S
H33 C6 0.931 . S
H34 C8 0.931 . S
H35 C9 0.931 . S
H36 C14 0.930 . S
H37 C15 0.931 . S
H38 C17 0.931 . S
H39 C18 0.931 . S
Gd40 C43 2.818 1_545 S
Gd40 O60 2.377 1_545 S
Gd40 O62 2.448 1_545 S
Gd40 O63 2.506 1_545 S
Gd40 O64 2.435 . S
Gd40 O65 2.717 . S
Gd40 O67 2.395 . S
Gd40 O71 2.327 . S
Gd41 C52 2.818 . S
Gd41 O61 2.395 1_545 S
Gd41 O65 2.327 . S
Gd41 O66 2.377 . S
Gd41 O68 2.448 . S
Gd41 O69 2.506 . S
Gd41 O70 2.435 . S
Gd41 O71 2.717 . S
C42 O60 1.240 . S
C42 O61 1.240 . S
C43 Gd40 2.818 1_565 S
C43 C44 1.510 . S
C43 O62 1.249 . S
C43 O63 1.252 . S
C44 C43 1.510 . S
C44 C45 1.404 . S
C44 C46 1.352 . S
C45 C44 1.404 . S
C45 C49 1.389 . S
C45 H72 0.930 . S
C46 C44 1.352 . S
C46 C48 1.374 . S
C46 H73 0.931 . S
C47 C48 1.359 . S
C47 C49 1.364 . S
C48 C46 1.374 . S
C48 C47 1.359 . S
C48 H74 0.931 . S
C49 C45 1.389 . S
C49 C47 1.364 . S
C49 H75 0.931 . S
C50 O64 1.256 . S
C50 O65 1.257 . S
C51 O66 1.240 . S
C51 O67 1.240 . S
C52 Gd41 2.818 . S
C52 C53 1.510 . S
C52 O68 1.249 . S
C52 O69 1.252 . S
C53 C52 1.510 . S
C53 C54 1.404 . S
C53 C55 1.352 . S
C54 C53 1.404 . S
C54 C58 1.389 . S
C54 H76 0.930 . S
C55 C53 1.352 . S
C55 C57 1.374 . S
C55 H77 0.931 . S
C56 C57 1.359 . S
C56 C58 1.364 . S
C57 C55 1.374 . S
C57 C56 1.359 . S
C57 H78 0.931 . S
C58 C54 1.389 . S
C58 C56 1.364 . S
C58 H79 0.931 . S
C59 O70 1.256 . S
C59 O71 1.257 . S
O60 Gd40 2.377 1_565 S
O60 C42 1.240 . S
O61 Gd41 2.395 1_565 S
O61 C42 1.240 . S
O62 Gd40 2.448 1_565 S
O62 C43 1.249 . S
O63 Gd40 2.506 1_565 S
O63 C43 1.252 . S
O64 Gd40 2.435 . S
O64 C50 1.256 . S
O65 Gd40 2.717 . S
O65 Gd41 2.327 . S
O65 C50 1.257 . S
O66 Gd41 2.377 . S
O66 C51 1.240 . S
O67 Gd40 2.395 . S
O67 C51 1.240 . S
O68 Gd41 2.448 . S
O68 C52 1.249 . S
O69 Gd41 2.506 . S
O69 C52 1.252 . S
O70 Gd41 2.435 . S
O70 C59 1.256 . S
O71 Gd40 2.327 . S
O71 Gd41 2.717 . S
O71 C59 1.257 . S
H72 C45 0.930 . S
H73 C46 0.931 . S
H74 C48 0.931 . S
H75 C49 0.931 . S
H76 C54 0.930 . S
H77 C55 0.931 . S
H78 C57 0.931 . S
H79 C58 0.931 . S
Gd80 C83 2.818 . S
Gd80 O100 2.377 . S
Gd80 O102 2.448 . S
Gd80 O103 2.506 . S
Gd80 O104 2.435 . S
Gd80 O105 2.717 . S
Gd80 O107 2.395 . S
Gd80 O111 2.327 . S
Gd81 C92 2.818 . S
Gd81 O101 2.395 . S
Gd81 O105 2.327 . S
Gd81 O106 2.377 . S
Gd81 O108 2.448 . S
Gd81 O109 2.506 . S
Gd81 O110 2.435 . S
Gd81 O111 2.717 . S
C82 O100 1.240 . S
C82 O101 1.240 . S
C83 Gd80 2.818 . S
C83 C84 1.510 . S
C83 O102 1.249 . S
C83 O103 1.252 . S
C84 C83 1.510 . S
C84 C85 1.404 . S
C84 C86 1.352 . S
C85 C84 1.404 . S
C85 C89 1.389 . S
C85 H112 0.930 . S
C86 C84 1.352 . S
C86 C88 1.374 . S
C86 H113 0.931 . S
C87 C88 1.359 . S
C87 C89 1.364 . S
C88 C86 1.374 . S
C88 C87 1.359 . S
C88 H114 0.931 . S
C89 C85 1.389 . S
C89 C87 1.364 . S
C89 H115 0.931 . S
C90 O104 1.256 . S
C90 O105 1.257 . S
C91 O106 1.240 . S
C91 O107 1.240 . S
C92 Gd81 2.818 . S
C92 C93 1.510 . S
C92 O108 1.249 . S
C92 O109 1.252 . S
C93 C92 1.510 . S
C93 C94 1.404 . S
C93 C95 1.352 . S
C94 C93 1.404 . S
C94 C98 1.389 . S
C94 H116 0.930 . S
C95 C93 1.352 . S
C95 C97 1.374 . S
C95 H117 0.931 . S
C96 C97 1.359 . S
C96 C98 1.364 . S
C97 C95 1.374 . S
C97 C96 1.359 . S
C97 H118 0.931 . S
C98 C94 1.389 . S
C98 C96 1.364 . S
C98 H119 0.931 . S
C99 O110 1.256 . S
C99 O111 1.257 . S
O100 Gd80 2.377 . S
O100 C82 1.240 . S
O101 Gd81 2.395 . S
O101 C82 1.240 . S
O102 Gd80 2.448 . S
O102 C83 1.249 . S
O103 Gd80 2.506 . S
O103 C83 1.252 . S
O104 Gd80 2.435 . S
O104 C90 1.256 . S
O105 Gd80 2.717 . S
O105 Gd81 2.327 . S
O105 C90 1.257 . S
O106 Gd81 2.377 . S
O106 C91 1.240 . S
O107 Gd80 2.395 . S
O107 C91 1.240 . S
O108 Gd81 2.448 . S
O108 C92 1.249 . S
O109 Gd81 2.506 . S
O109 C92 1.252 . S
O110 Gd81 2.435 . S
O110 C99 1.256 . S
O111 Gd80 2.327 . S
O111 Gd81 2.717 . S
O111 C99 1.257 . S
H112 C85 0.930 . S
H113 C86 0.931 . S
H114 C88 0.931 . S
H115 C89 0.931 . S
H116 C94 0.930 . S
H117 C95 0.931 . S
H118 C97 0.931 . S
H119 C98 0.931 . S
H120 C125 0.930 . S
H121 C128 0.930 . S
H122 C130 0.930 1_565 S
H123 C124 1.016 . S
C124 H123 1.016 . S
C124 N131 1.286 . S
C125 H120 0.930 . S
C125 C126 1.397 1_545 S
C125 C127 1.361 . S
C126 C125 1.397 1_565 S
C126 C130 1.390 1_565 S
C127 C125 1.361 . S
C127 C128 1.393 . S
C127 N131 1.413 . S
C128 H121 0.930 . S
C128 C127 1.393 . S
C128 C129 1.399 . S
C129 C128 1.399 . S
C129 C130 1.381 . S
C130 H122 0.930 1_545 S
C130 C126 1.390 1_545 S
C130 C129 1.381 . S
N131 C124 1.286 . S
N131 C127 1.413 . S
H132 C137 0.930 . S
H133 C140 0.930 . S
H134 C142 0.930 . S
H135 C136 1.016 . S
C136 H135 1.016 . S
C136 N143 1.286 . S
C137 H132 0.930 . S
C137 C138 1.397 . S
C137 C139 1.361 . S
C138 C137 1.397 . S
C138 C142 1.390 . S
C139 C137 1.361 . S
C139 C140 1.393 . S
C139 N143 1.413 . S
C140 H133 0.930 . S
C140 C139 1.393 . S
C140 C141 1.399 . S
C141 C140 1.399 . S
C141 C142 1.381 . S
C142 H134 0.930 . S
C142 C138 1.390 . S
C142 C141 1.381 . S
N143 C136 1.286 . S
N143 C139 1.413 . S
H144 C149 0.930 . S
H145 C152 0.930 . S
H146 C154 0.940 . S
H147 C148 1.016 . S
C148 H147 1.016 . S
C148 N155 1.286 . S
C149 H144 0.930 . S
C149 C150 1.397 . S
C149 C151 1.361 . S
C150 C149 1.397 . S
C150 C154 1.390 . S
C151 C149 1.361 . S
C151 C152 1.393 . S
C151 N155 1.413 . S
C152 H145 0.930 . S
C152 C151 1.393 . S
C152 C153 1.399 . S
C153 C152 1.399 . S
C153 C154 1.381 . S
C154 H146 0.940 . S
C154 C150 1.390 . S
C154 C153 1.381 . S
N155 C148 1.286 . S
N155 C151 1.413 . S
H156 C161 0.930 . S
H157 C164 0.930 . S
H158 C166 0.930 . S
H159 C160 1.016 . S
C160 H159 1.016 . S
C160 N167 1.286 . S
C161 H156 0.930 . S
C161 C162 1.397 . S
C161 C163 1.361 1_455 S
C162 C161 1.397 . S
C162 C166 1.390 . S
C163 C161 1.361 1_655 S
C163 C164 1.393 . S
C163 N167 1.413 . S
C164 H157 0.930 . S
C164 C163 1.393 . S
C164 C165 1.399 1_655 S
C165 C164 1.399 1_455 S
C165 C166 1.381 . S
C166 H158 0.930 . S
C166 C162 1.390 . S
C166 C165 1.381 . S
N167 C160 1.286 . S
N167 C163 1.413 . S
H168 C173 0.930 . S
H169 C176 0.930 1_565 S
H170 C178 0.930 . S
H171 C172 1.016 . S
C172 H171 1.016 . S
C172 N179 1.286 . S
C173 H168 0.930 . S
C173 C174 1.397 . S
C173 C175 1.361 . S
C174 C173 1.397 . S
C174 C178 1.390 . S
C175 C173 1.361 . S
C175 C176 1.393 . S
C175 N179 1.413 1_545 S
C176 H169 0.930 1_545 S
C176 C175 1.393 . S
C176 C177 1.399 . S
C177 C176 1.399 . S
C177 C178 1.381 . S
C178 H170 0.930 . S
C178 C174 1.390 . S
C178 C177 1.381 . S
N179 C172 1.286 . S
N179 C175 1.413 1_565 S
H180 C185 0.930 . S
H181 C188 0.930 . S
H182 C190 0.930 . S
H183 C184 1.016 . S
C184 H183 1.016 . S
C184 N191 1.286 . S
C185 H180 0.930 . S
C185 C186 1.397 . S
C185 C187 1.361 . S
C186 C185 1.397 . S
C186 C190 1.390 . S
C187 C185 1.361 . S
C187 C188 1.393 . S
C187 N191 1.413 . S
C188 H181 0.930 . S
C188 C187 1.393 . S
C188 C189 1.399 . S
C189 C188 1.399 . S
C189 C190 1.381 . S
C190 H182 0.930 . S
C190 C186 1.390 . S
C190 C189 1.381 . S
N191 C184 1.286 . S
N191 C187 1.413 . S
H192 C204 0.930 . S
H193 C206 0.930 . S
H194 C207 0.930 . S
H195 C211 0.959 . S
H196 C211 0.959 . S
H197 C211 0.961 . S
H198 C212 0.960 . S
H199 C212 0.961 . S
H200 C212 0.959 . S
H201 C215 0.929 . S
H202 C216 0.931 . S
H203 C218 0.930 . S
C204 H192 0.930 . S
C204 C205 1.399 . S
C204 C209 1.399 . S
C205 C204 1.399 . S
C205 C206 1.376 . S
C206 H193 0.930 . S
C206 C205 1.376 . S
C206 C207 1.388 . S
C207 H194 0.930 . S
C207 C206 1.388 . S
C207 C208 1.390 . S
C208 C207 1.390 . S
C208 C209 1.394 . S
C208 C214 1.465 . S
C209 C204 1.399 . S
C209 C208 1.394 . S
C209 C210 1.516 . S
C210 C209 1.516 . S
C210 C211 1.502 . S
C210 C212 1.561 . S
C210 C213 1.526 . S
C211 H195 0.959 . S
C211 H196 0.959 . S
C211 H197 0.961 . S
C211 C210 1.502 . S
C212 H198 0.960 . S
C212 H199 0.961 . S
C212 H200 0.959 . S
C212 C210 1.561 . S
C213 C210 1.526 . S
C213 C214 1.396 . S
C213 C218 1.390 . S
C214 C208 1.465 . S
C214 C213 1.396 . S
C214 C215 1.399 . S
C215 H201 0.929 . S
C215 C214 1.399 . S
C215 C216 1.385 . S
C216 H202 0.931 . S
C216 C215 1.385 . S
C216 C217 1.389 . S
C217 C216 1.389 . S
C217 C218 1.387 . S
C218 H203 0.930 . S
C218 C213 1.390 . S
C218 C217 1.387 . S
H219 C231 0.930 . S
H220 C233 0.930 . S
H221 C234 0.930 . S
H222 C238 0.959 . S
H223 C238 0.959 . S
H224 C238 0.961 . S
H225 C239 0.960 . S
H226 C239 0.961 . S
H227 C239 0.959 . S
H228 C242 0.929 . S
H229 C243 0.931 . S
H230 C245 0.930 . S
C231 H219 0.930 . S
C231 C232 1.399 . S
C231 C236 1.399 . S
C232 C231 1.399 . S
C232 C233 1.376 . S
C233 H220 0.930 . S
C233 C232 1.376 . S
C233 C234 1.388 . S
C234 H221 0.930 . S
C234 C233 1.388 . S
C234 C235 1.390 . S
C235 C234 1.390 . S
C235 C236 1.394 . S
C235 C241 1.465 . S
C236 C231 1.399 . S
C236 C235 1.394 . S
C236 C237 1.516 . S
C237 C236 1.516 . S
C237 C238 1.502 . S
C237 C239 1.561 . S
C237 C240 1.526 . S
C238 H222 0.959 . S
C238 H223 0.959 . S
C238 H224 0.961 . S
C238 C237 1.502 . S
C239 H225 0.960 . S
C239 H226 0.961 . S
C239 H227 0.959 . S
C239 C237 1.561 . S
C240 C237 1.526 . S
C240 C241 1.396 . S
C240 C245 1.390 . S
C241 C235 1.465 . S
C241 C240 1.396 . S
C241 C242 1.399 . S
C242 H228 0.929 . S
C242 C241 1.399 . S
C242 C243 1.385 . S
C243 H229 0.931 . S
C243 C242 1.385 . S
C243 C244 1.389 . S
C244 C243 1.389 . S
C244 C245 1.387 . S
C245 H230 0.930 . S
C245 C240 1.390 . S
C245 C244 1.387 . S
H246 C258 0.930 . S
H247 C260 0.930 . S
H248 C261 0.930 . S
H249 C265 0.959 . S
H250 C265 0.959 . S
H251 C265 0.961 . S
H252 C266 0.960 . S
H253 C266 0.961 . S
H254 C266 0.959 . S
H255 C269 0.929 . S
H256 C270 0.931 . S
H257 C272 0.930 . S
C258 H246 0.930 . S
C258 C259 1.399 . S
C258 C263 1.399 . S
C259 C258 1.399 . S
C259 C260 1.376 . S
C260 H247 0.930 . S
C260 C259 1.376 . S
C260 C261 1.388 . S
C261 H248 0.930 . S
C261 C260 1.388 . S
C261 C262 1.390 . S
C262 C261 1.390 . S
C262 C263 1.394 . S
C262 C268 1.465 . S
C263 C258 1.399 . S
C263 C262 1.394 . S
C263 C264 1.516 . S
C264 C263 1.516 . S
C264 C265 1.502 . S
C264 C266 1.561 . S
C264 C267 1.526 . S
C265 H249 0.959 . S
C265 H250 0.959 . S
C265 H251 0.961 . S
C265 C264 1.502 . S
C266 H252 0.960 . S
C266 H253 0.961 . S
C266 H254 0.959 . S
C266 C264 1.561 . S
C267 C264 1.526 . S
C267 C268 1.396 . S
C267 C272 1.390 . S
C268 C262 1.465 . S
C268 C267 1.396 . S
C268 C269 1.399 . S
C269 H255 0.929 . S
C269 C268 1.399 . S
C269 C270 1.385 . S
C270 H256 0.931 . S
C270 C269 1.385 . S
C270 C271 1.389 . S
C271 C270 1.389 . S
C271 C272 1.387 . S
C272 H257 0.930 . S
C272 C267 1.390 . S
C272 C271 1.387 . S
H273 C285 0.930 . S
H274 C287 0.930 . S
H275 C288 0.930 . S
H276 C292 0.959 . S
H277 C292 0.959 . S
H278 C292 0.961 . S
H279 C293 0.960 . S
H280 C293 0.961 . S
H281 C293 0.959 . S
H282 C296 0.929 . S
H283 C297 0.931 . S
H284 C299 0.930 . S
C285 H273 0.930 . S
C285 C286 1.399 . S
C285 C290 1.399 . S
C286 C285 1.399 . S
C286 C287 1.376 . S
C287 H274 0.930 . S
C287 C286 1.376 . S
C287 C288 1.388 . S
C288 H275 0.930 . S
C288 C287 1.388 . S
C288 C289 1.390 . S
C289 C288 1.390 . S
C289 C290 1.394 . S
C289 C295 1.465 . S
C290 C285 1.399 . S
C290 C289 1.394 . S
C290 C291 1.516 . S
C291 C290 1.516 . S
C291 C292 1.502 . S
C291 C293 1.561 . S
C291 C294 1.526 . S
C292 H276 0.959 . S
C292 H277 0.959 . S
C292 H278 0.961 . S
C292 C291 1.502 . S
C293 H279 0.960 . S
C293 H280 0.961 . S
C293 H281 0.959 . S
C293 C291 1.561 . S
C294 C291 1.526 . S
C294 C295 1.396 . S
C294 C299 1.390 . S
C295 C289 1.465 . S
C295 C294 1.396 . S
C295 C296 1.399 . S
C296 H282 0.929 . S
C296 C295 1.399 . S
C296 C297 1.385 . S
C297 H283 0.931 . S
C297 C296 1.385 . S
C297 C298 1.389 . S
C298 C297 1.389 . S
C298 C299 1.387 . S
C299 H284 0.930 . S
C299 C294 1.390 . S
C299 C298 1.387 . S
H300 C312 0.930 . S
H301 C314 0.930 . S
H302 C315 0.930 . S
H303 C319 0.959 . S
H304 C319 0.959 . S
H305 C319 0.961 . S
H306 C320 0.960 . S
H307 C320 0.961 . S
H308 C320 0.959 . S
H309 C323 0.929 . S
H310 C324 0.931 . S
H311 C326 0.930 . S
C312 H300 0.930 . S
C312 C313 1.399 . S
C312 C317 1.399 . S
C313 C312 1.399 . S
C313 C314 1.376 . S
C314 H301 0.930 . S
C314 C313 1.376 . S
C314 C315 1.388 . S
C315 H302 0.930 . S
C315 C314 1.388 . S
C315 C316 1.390 . S
C316 C315 1.390 . S
C316 C317 1.394 . S
C316 C322 1.465 . S
C317 C312 1.399 . S
C317 C316 1.394 . S
C317 C318 1.516 . S
C318 C317 1.516 . S
C318 C319 1.502 . S
C318 C320 1.561 . S
C318 C321 1.526 . S
C319 H303 0.959 . S
C319 H304 0.959 . S
C319 H305 0.961 . S
C319 C318 1.502 . S
C320 H306 0.960 . S
C320 H307 0.961 . S
C320 H308 0.959 . S
C320 C318 1.561 . S
C321 C318 1.526 . S
C321 C322 1.396 . S
C321 C326 1.390 . S
C322 C316 1.465 . S
C322 C321 1.396 . S
C322 C323 1.399 . S
C323 H309 0.929 . S
C323 C322 1.399 . S
C323 C324 1.385 . S
C324 H310 0.931 . S
C324 C323 1.385 . S
C324 C325 1.389 . S
C325 C324 1.389 . S
C325 C326 1.387 . S
C326 H311 0.930 . S
C326 C321 1.390 . S
C326 C325 1.387 . S
H327 C339 0.930 . S
H328 C341 0.930 . S
H329 C342 0.930 . S
H330 C346 0.959 . S
H331 C346 0.959 . S
H332 C346 0.961 . S
H333 C347 0.960 . S
H334 C347 0.961 . S
H335 C347 0.959 . S
H336 C350 0.929 . S
H337 C351 0.931 . S
H338 C353 0.930 . S
C339 H327 0.930 . S
C339 C340 1.399 . S
C339 C344 1.399 . S
C340 C339 1.399 . S
C340 C341 1.376 . S
C341 H328 0.930 . S
C341 C340 1.376 . S
C341 C342 1.388 . S
C342 H329 0.930 . S
C342 C341 1.388 . S
C342 C343 1.390 . S
C343 C342 1.390 . S
C343 C344 1.394 . S
C343 C349 1.465 . S
C344 C339 1.399 . S
C344 C343 1.394 . S
C344 C345 1.516 . S
C345 C344 1.516 . S
C345 C346 1.502 . S
C345 C347 1.561 . S
C345 C348 1.526 . S
C346 H330 0.959 . S
C346 H331 0.959 . S
C346 H332 0.961 . S
C346 C345 1.502 . S
C347 H333 0.960 . S
C347 H334 0.961 . S
C347 H335 0.959 . S
C347 C345 1.561 . S
C348 C345 1.526 . S
C348 C349 1.396 . S
C348 C353 1.390 . S
C349 C343 1.465 . S
C349 C348 1.396 . S
C349 C350 1.399 . S
C350 H336 0.929 . S
C350 C349 1.399 . S
C350 C351 1.385 . S
C351 H337 0.931 . S
C351 C350 1.385 . S
C351 C352 1.389 . S
C352 C351 1.389 . S
C352 C353 1.387 . S
C353 H338 0.930 . S
C353 C348 1.390 . S
C353 C352 1.387 . S
H354 C366 0.930 . S
H355 C368 0.930 . S
H356 C369 0.930 . S
H357 C373 0.959 . S
H358 C373 0.959 . S
H359 C373 0.961 . S
H360 C374 0.960 . S
H361 C374 0.961 . S
H362 C374 0.959 . S
H363 C377 0.929 . S
H364 C378 0.931 . S
H365 C380 0.930 . S
C366 H354 0.930 . S
C366 C367 1.399 . S
C366 C371 1.399 . S
C367 C366 1.399 . S
C367 C368 1.376 . S
C368 H355 0.930 . S
C368 C367 1.376 . S
C368 C369 1.388 . S
C369 H356 0.930 . S
C369 C368 1.388 . S
C369 C370 1.390 . S
C370 C369 1.390 . S
C370 C371 1.394 . S
C370 C376 1.465 . S
C371 C366 1.399 . S
C371 C370 1.394 . S
C371 C372 1.516 . S
C372 C371 1.516 . S
C372 C373 1.502 . S
C372 C374 1.561 . S
C372 C375 1.526 . S
C373 H357 0.959 . S
C373 H358 0.959 . S
C373 H359 0.961 . S
C373 C372 1.502 . S
C374 H360 0.960 . S
C374 H361 0.961 . S
C374 H362 0.959 . S
C374 C372 1.561 . S
C375 C372 1.526 . S
C375 C376 1.396 . S
C375 C380 1.390 . S
C376 C370 1.465 . S
C376 C375 1.396 . S
C376 C377 1.399 . S
C377 H363 0.929 . S
C377 C376 1.399 . S
C377 C378 1.385 . S
C378 H364 0.931 . S
C378 C377 1.385 . S
C378 C379 1.389 . S
C379 C378 1.389 . S
C379 C380 1.387 . S
C380 H365 0.930 . S
C380 C375 1.390 . S
C380 C379 1.387 . S
H381 C393 0.930 . S
H382 C395 0.930 . S
H383 C396 0.930 . S
H384 C400 0.959 . S
H385 C400 0.959 . S
H386 C400 0.961 . S
H387 C401 0.960 . S
H388 C401 0.961 . S
H389 C401 0.959 . S
H390 C404 0.929 . S
H391 C405 0.931 . S
H392 C407 0.930 . S
C393 H381 0.930 . S
C393 C394 1.399 . S
C393 C398 1.399 . S
C394 C393 1.399 . S
C394 C395 1.376 . S
C395 H382 0.930 . S
C395 C394 1.376 . S
C395 C396 1.388 . S
C396 H383 0.930 . S
C396 C395 1.388 . S
C396 C397 1.390 . S
C397 C396 1.390 . S
C397 C398 1.394 . S
C397 C403 1.465 . S
C398 C393 1.399 . S
C398 C397 1.394 . S
C398 C399 1.516 . S
C399 C398 1.516 . S
C399 C400 1.502 . S
C399 C401 1.561 . S
C399 C402 1.526 . S
C400 H384 0.959 . S
C400 H385 0.959 . S
C400 H386 0.961 . S
C400 C399 1.502 . S
C401 H387 0.960 . S
C401 H388 0.961 . S
C401 H389 0.959 . S
C401 C399 1.561 . S
C402 C399 1.526 . S
C402 C403 1.396 . S
C402 C407 1.390 . S
C403 C397 1.465 . S
C403 C402 1.396 . S
C403 C404 1.399 . S
C404 H390 0.929 . S
C404 C403 1.399 . S
C404 C405 1.385 . S
C405 H391 0.931 . S
C405 C404 1.385 . S
C405 C406 1.389 . S
C406 C405 1.389 . S
C406 C407 1.387 . S
C407 H392 0.930 . S
C407 C402 1.390 . S
C407 C406 1.387 . S
H408 C420 0.930 . S
H409 C422 0.930 . S
H410 C423 0.930 . S
H411 C427 0.959 . S
H412 C427 0.959 . S
H413 C427 0.961 . S
H414 C428 0.960 . S
H415 C428 0.961 . S
H416 C428 0.959 . S
H417 C431 0.929 . S
H418 C432 0.931 . S
H419 C434 0.930 . S
C420 H408 0.930 . S
C420 C421 1.399 . S
C420 C425 1.399 . S
C421 C420 1.399 . S
C421 C422 1.376 . S
C422 H409 0.930 . S
C422 C421 1.376 . S
C422 C423 1.388 . S
C423 H410 0.930 . S
C423 C422 1.388 . S
C423 C424 1.390 . S
C424 C423 1.390 . S
C424 C425 1.394 . S
C424 C430 1.465 . S
C425 C420 1.399 . S
C425 C424 1.394 . S
C425 C426 1.516 . S
C426 C425 1.516 . S
C426 C427 1.502 . S
C426 C428 1.561 . S
C426 C429 1.526 . S
C427 H411 0.959 . S
C427 H412 0.959 . S
C427 H413 0.961 . S
C427 C426 1.502 . S
C428 H414 0.960 . S
C428 H415 0.961 . S
C428 H416 0.959 . S
C428 C426 1.561 . S
C429 C426 1.526 . S
C429 C430 1.396 . S
C429 C434 1.390 . S
C430 C424 1.465 . S
C430 C429 1.396 . S
C430 C431 1.399 . S
C431 H417 0.929 . S
C431 C430 1.399 . S
C431 C432 1.385 . S
C432 H418 0.931 . S
C432 C431 1.385 . S
C432 C433 1.389 . S
C433 C432 1.389 . S
C433 C434 1.387 . S
C434 H419 0.930 . S
C434 C429 1.390 . S
C434 C433 1.387 . S
H435 C447 0.930 . S
H436 C449 0.930 . S
H437 C450 0.930 . S
H438 C454 0.959 . S
H439 C454 0.959 . S
H440 C454 0.961 . S
H441 C455 0.960 . S
H442 C455 0.961 . S
H443 C455 0.959 . S
H444 C458 0.929 . S
H445 C459 0.931 . S
H446 C461 0.930 . S
C447 H435 0.930 . S
C447 C448 1.399 . S
C447 C452 1.399 . S
C448 C447 1.399 . S
C448 C449 1.376 . S
C449 H436 0.930 . S
C449 C448 1.376 . S
C449 C450 1.388 . S
C450 H437 0.930 . S
C450 C449 1.388 . S
C450 C451 1.390 . S
C451 C450 1.390 . S
C451 C452 1.394 . S
C451 C457 1.465 . S
C452 C447 1.399 . S
C452 C451 1.394 . S
C452 C453 1.516 . S
C453 C452 1.516 . S
C453 C454 1.502 . S
C453 C455 1.561 . S
C453 C456 1.526 . S
C454 H438 0.959 . S
C454 H439 0.959 . S
C454 H440 0.961 . S
C454 C453 1.502 . S
C455 H441 0.960 . S
C455 H442 0.961 . S
C455 H443 0.959 . S
C455 C453 1.561 . S
C456 C453 1.526 . S
C456 C457 1.396 . S
C456 C461 1.390 . S
C457 C451 1.465 . S
C457 C456 1.396 . S
C457 C458 1.399 . S
C458 H444 0.929 . S
C458 C457 1.399 . S
C458 C459 1.385 . S
C459 H445 0.931 . S
C459 C458 1.385 . S
C459 C460 1.389 . S
C460 C459 1.389 . S
C460 C461 1.387 . S
C461 H446 0.930 . S
C461 C456 1.390 . S
C461 C460 1.387 . S
H462 C474 0.930 . S
H463 C476 0.930 . S
H464 C477 0.930 . S
H465 C481 0.959 . S
H466 C481 0.959 . S
H467 C481 0.961 . S
H468 C482 0.960 . S
H469 C482 0.961 . S
H470 C482 0.959 . S
H471 C485 0.929 . S
H472 C486 0.931 . S
H473 C488 0.930 . S
C474 H462 0.930 . S
C474 C475 1.399 . S
C474 C479 1.399 . S
C475 C474 1.399 . S
C475 C476 1.376 . S
C476 H463 0.930 . S
C476 C475 1.376 . S
C476 C477 1.388 . S
C477 H464 0.930 . S
C477 C476 1.388 . S
C477 C478 1.390 . S
C478 C477 1.390 . S
C478 C479 1.394 . S
C478 C484 1.465 . S
C479 C474 1.399 . S
C479 C478 1.394 . S
C479 C480 1.516 . S
C480 C479 1.516 . S
C480 C481 1.502 . S
C480 C482 1.561 . S
C480 C483 1.526 . S
C481 H465 0.959 . S
C481 H466 0.959 . S
C481 H467 0.961 . S
C481 C480 1.502 . S
C482 H468 0.960 . S
C482 H469 0.961 . S
C482 H470 0.959 . S
C482 C480 1.561 . S
C483 C480 1.526 . S
C483 C484 1.396 . S
C483 C488 1.390 . S
C484 C478 1.465 . S
C484 C483 1.396 . S
C484 C485 1.399 . S
C485 H471 0.929 . S
C485 C484 1.399 . S
C485 C486 1.385 . S
C486 H472 0.931 . S
C486 C485 1.385 . S
C486 C487 1.389 . S
C487 C486 1.389 . S
C487 C488 1.387 . S
C488 H473 0.930 . S
C488 C483 1.390 . S
C488 C487 1.387 . S
H489 C501 0.930 . S
H490 C503 0.930 . S
H491 C504 0.930 . S
H492 C508 0.959 . S
H493 C508 0.959 . S
H494 C508 0.961 . S
H495 C509 0.960 . S
H496 C509 0.961 . S
H497 C509 0.959 . S
H498 C512 0.929 . S
H499 C513 0.931 . S
H500 C515 0.930 . S
C501 H489 0.930 . S
C501 C502 1.399 . S
C501 C506 1.399 . S
C502 C501 1.399 . S
C502 C503 1.376 . S
C503 H490 0.930 . S
C503 C502 1.376 . S
C503 C504 1.388 . S
C504 H491 0.930 . S
C504 C503 1.388 . S
C504 C505 1.390 . S
C505 C504 1.390 . S
C505 C506 1.394 . S
C505 C511 1.465 . S
C506 C501 1.399 . S
C506 C505 1.394 . S
C506 C507 1.516 . S
C507 C506 1.516 . S
C507 C508 1.502 . S
C507 C509 1.561 . S
C507 C510 1.526 . S
C508 H492 0.959 . S
C508 H493 0.959 . S
C508 H494 0.961 . S
C508 C507 1.502 . S
C509 H495 0.960 . S
C509 H496 0.961 . S
C509 H497 0.959 . S
C509 C507 1.561 . S
C510 C507 1.526 . S
C510 C511 1.396 . S
C510 C515 1.390 . S
C511 C505 1.465 . S
C511 C510 1.396 . S
C511 C512 1.399 . S
C512 H498 0.929 . S
C512 C511 1.399 . S
C512 C513 1.385 . S
C513 H499 0.931 . S
C513 C512 1.385 . S
C513 C514 1.389 . S
C514 C513 1.389 . S
C514 C515 1.387 . S
C515 H500 0.930 . S
C515 C510 1.390 . S
C515 C514 1.387 . S
H516 C528 0.930 . S
H517 C530 0.930 . S
H518 C531 0.930 . S
H519 C535 0.959 . S
H520 C535 0.959 1_556 S
H521 C535 0.961 . S
H522 C536 0.960 . S
H523 C536 0.961 1_556 S
H524 C536 0.959 . S
H525 C539 0.929 . S
H526 C540 0.931 . S
H527 C542 0.930 . S
C528 H516 0.930 . S
C528 C529 1.399 . S
C528 C533 1.399 . S
C529 C528 1.399 . S
C529 C530 1.376 . S
C530 H517 0.930 . S
C530 C529 1.376 . S
C530 C531 1.388 . S
C531 H518 0.930 . S
C531 C530 1.388 . S
C531 C532 1.390 . S
C532 C531 1.390 . S
C532 C533 1.394 . S
C532 C538 1.465 1_554 S
C533 C528 1.399 . S
C533 C532 1.394 . S
C533 C534 1.516 . S
C534 C533 1.516 . S
C534 C535 1.502 . S
C534 C536 1.561 1_455 S
C534 C537 1.526 1_554 S
C535 H519 0.959 . S
C535 H520 0.959 1_554 S
C535 H521 0.961 . S
C535 C534 1.502 . S
C536 H522 0.960 . S
C536 H523 0.961 1_554 S
C536 H524 0.959 . S
C536 C534 1.561 1_655 S
C537 C534 1.526 1_556 S
C537 C538 1.396 . S
C537 C542 1.390 . S
C538 C532 1.465 1_556 S
C538 C537 1.396 . S
C538 C539 1.399 . S
C539 H525 0.929 . S
C539 C538 1.399 . S
C539 C540 1.385 . S
C540 H526 0.931 . S
C540 C539 1.385 . S
C540 C541 1.389 . S
C541 C540 1.389 . S
C541 C542 1.387 . S
C542 H527 0.930 . S
C542 C537 1.390 . S
C542 C541 1.387 . S
H543 C555 0.930 1_565 S
H544 C557 0.930 . S
H545 C558 0.930 . S
H546 C562 0.959 1_545 S
H547 C562 0.959 . S
H548 C562 0.961 . S
H549 C563 0.960 . S
H550 C563 0.961 . S
H551 C563 0.959 . S
H552 C566 0.929 . S
H553 C567 0.931 . S
H554 C569 0.930 1_565 S
C555 H543 0.930 1_545 S
C555 C556 1.399 . S
C555 C560 1.399 . S
C556 C555 1.399 . S
C556 C557 1.376 . S
C557 H544 0.930 . S
C557 C556 1.376 . S
C557 C558 1.388 . S
C558 H545 0.930 . S
C558 C557 1.388 . S
C558 C559 1.390 . S
C559 C558 1.390 . S
C559 C560 1.394 . S
C559 C565 1.465 . S
C560 C555 1.399 . S
C560 C559 1.394 . S
C560 C561 1.516 1_545 S
C561 C560 1.516 1_565 S
C561 C562 1.502 . S
C561 C563 1.561 . S
C561 C564 1.526 1_565 S
C562 H546 0.959 1_565 S
C562 H547 0.959 . S
C562 H548 0.961 . S
C562 C561 1.502 . S
C563 H549 0.960 . S
C563 H550 0.961 . S
C563 H551 0.959 . S
C563 C561 1.561 . S
C564 C561 1.526 1_545 S
C564 C565 1.396 . S
C564 C569 1.390 . S
C565 C559 1.465 . S
C565 C564 1.396 . S
C565 C566 1.399 . S
C566 H552 0.929 . S
C566 C565 1.399 . S
C566 C567 1.385 . S
C567 H553 0.931 . S
C567 C566 1.385 . S
C567 C568 1.389 . S
C568 C567 1.389 . S
C568 C569 1.387 . S
C569 H554 0.930 1_545 S
C569 C564 1.390 . S
C569 C568 1.387 . S
H570 C582 0.930 . S
H571 C584 0.930 . S
H572 C585 0.930 . S
H573 C589 0.959 . S
H574 C589 0.959 . S
H575 C589 0.961 . S
H576 C590 0.960 . S
H577 C590 0.961 . S
H578 C590 0.959 . S
H579 C593 0.929 . S
H580 C594 0.931 . S
H581 C596 0.930 . S
C582 H570 0.930 . S
C582 C583 1.399 . S
C582 C587 1.399 . S
C583 C582 1.399 . S
C583 C584 1.376 . S
C584 H571 0.930 . S
C584 C583 1.376 . S
C584 C585 1.388 . S
C585 H572 0.930 . S
C585 C584 1.388 . S
C585 C586 1.390 . S
C586 C585 1.390 . S
C586 C587 1.394 . S
C586 C592 1.465 . S
C587 C582 1.399 . S
C587 C586 1.394 . S
C587 C588 1.516 . S
C588 C587 1.516 . S
C588 C589 1.502 . S
C588 C590 1.561 . S
C588 C591 1.526 . S
C589 H573 0.959 . S
C589 H574 0.959 . S
C589 H575 0.961 . S
C589 C588 1.502 . S
C590 H576 0.960 . S
C590 H577 0.961 . S
C590 H578 0.959 . S
C590 C588 1.561 . S
C591 C588 1.526 . S
C591 C592 1.396 . S
C591 C596 1.390 . S
C592 C586 1.465 . S
C592 C591 1.396 . S
C592 C593 1.399 . S
C593 H579 0.929 . S
C593 C592 1.399 . S
C593 C594 1.385 . S
C594 H580 0.931 . S
C594 C593 1.385 . S
C594 C595 1.389 . S
C595 C594 1.389 . S
C595 C596 1.387 . S
C596 H581 0.930 . S
C596 C591 1.390 . S
C596 C595 1.387 . S
H597 C609 0.930 . S
H598 C611 0.930 . S
H599 C612 0.930 . S
H600 C616 0.959 . S
H601 C616 0.959 . S
H602 C616 0.961 . S
H603 C617 0.960 . S
H604 C617 0.961 . S
H605 C617 0.959 . S
H606 C620 0.929 . S
H607 C621 0.931 . S
H608 C623 0.930 . S
C609 H597 0.930 . S
C609 C610 1.399 . S
C609 C614 1.399 . S
C610 C609 1.399 . S
C610 C611 1.376 1_545 S
C611 H598 0.930 . S
C611 C610 1.376 1_565 S
C611 C612 1.388 . S
C612 H599 0.930 . S
C612 C611 1.388 . S
C612 C613 1.390 1_565 S
C613 C612 1.390 1_545 S
C613 C614 1.394 . S
C613 C619 1.465 . S
C614 C609 1.399 . S
C614 C613 1.394 . S
C614 C615 1.516 . S
C615 C614 1.516 . S
C615 C616 1.502 . S
C615 C617 1.561 . S
C615 C618 1.526 . S
C616 H600 0.959 . S
C616 H601 0.959 . S
C616 H602 0.961 . S
C616 C615 1.502 . S
C617 H603 0.960 . S
C617 H604 0.961 . S
C617 H605 0.959 . S
C617 C615 1.561 . S
C618 C615 1.526 . S
C618 C619 1.396 . S
C618 C623 1.390 . S
C619 C613 1.465 . S
C619 C618 1.396 . S
C619 C620 1.399 1_545 S
C620 H606 0.929 . S
C620 C619 1.399 1_565 S
C620 C621 1.385 . S
C621 H607 0.931 . S
C621 C620 1.385 . S
C621 C622 1.389 1_565 S
C622 C621 1.389 1_545 S
C622 C623 1.387 . S
C623 H608 0.930 . S
C623 C618 1.390 . S
C623 C622 1.387 . S
H624 C636 0.930 . S
H625 C638 0.930 . S
H626 C639 0.930 . S
H627 C643 0.959 . S
H628 C643 0.959 1_554 S
H629 C643 0.961 . S
H630 C644 0.960 . S
H631 C644 0.961 1_554 S
H632 C644 0.959 . S
H633 C647 0.929 1_556 S
H634 C648 0.931 . S
H635 C650 0.930 . S
C636 H624 0.930 . S
C636 C637 1.399 . S
C636 C641 1.399 . S
C637 C636 1.399 . S
C637 C638 1.376 . S
C638 H625 0.930 . S
C638 C637 1.376 . S
C638 C639 1.388 . S
C639 H626 0.930 . S
C639 C638 1.388 . S
C639 C640 1.390 . S
C640 C639 1.390 . S
C640 C641 1.394 . S
C640 C646 1.465 . S
C641 C636 1.399 . S
C641 C640 1.394 . S
C641 C642 1.516 . S
C642 C641 1.516 . S
C642 C643 1.502 . S
C642 C644 1.561 . S
C642 C645 1.526 1_556 S
C643 H627 0.959 . S
C643 H628 0.959 1_556 S
C643 H629 0.961 . S
C643 C642 1.502 . S
C644 H630 0.960 . S
C644 H631 0.961 1_556 S
C644 H632 0.959 . S
C644 C642 1.561 . S
C645 C642 1.526 1_554 S
C645 C646 1.396 1_554 S
C645 C650 1.390 . S
C646 C640 1.465 . S
C646 C645 1.396 1_556 S
C646 C647 1.399 1_556 S
C647 H633 0.929 1_554 S
C647 C646 1.399 1_554 S
C647 C648 1.385 . S
C648 H634 0.931 . S
C648 C647 1.385 . S
C648 C649 1.389 . S
C649 C648 1.389 . S
C649 C650 1.387 . S
C650 H635 0.930 . S
C650 C645 1.390 . S
C650 C649 1.387 . S
H651 C663 0.930 . S
H652 C665 0.930 1_655 S
H653 C666 0.930 . S
H654 C670 0.959 . S
H655 C670 0.959 . S
H656 C670 0.961 . S
H657 C671 0.960 . S
H658 C671 0.961 . S
H659 C671 0.959 . S
H660 C674 0.929 . S
H661 C675 0.931 . S
H662 C677 0.930 . S
C663 H651 0.930 . S
C663 C664 1.399 . S
C663 C668 1.399 . S
C664 C663 1.399 . S
C664 C665 1.376 . S
C665 H652 0.930 1_455 S
C665 C664 1.376 . S
C665 C666 1.388 1_455 S
C666 H653 0.930 . S
C666 C665 1.388 1_655 S
C666 C667 1.390 1_655 S
C667 C666 1.390 1_455 S
C667 C668 1.394 . S
C667 C673 1.465 . S
C668 C663 1.399 . S
C668 C667 1.394 . S
C668 C669 1.516 . S
C669 C668 1.516 . S
C669 C670 1.502 . S
C669 C671 1.561 . S
C669 C672 1.526 . S
C670 H654 0.959 . S
C670 H655 0.959 . S
C670 H656 0.961 . S
C670 C669 1.502 . S
C671 H657 0.960 . S
C671 H658 0.961 . S
C671 H659 0.959 . S
C671 C669 1.561 . S
C672 C669 1.526 . S
C672 C673 1.396 . S
C672 C677 1.390 . S
C673 C667 1.465 . S
C673 C672 1.396 . S
C673 C674 1.399 1_455 S
C674 H660 0.929 . S
C674 C673 1.399 1_655 S
C674 C675 1.385 . S
C675 H661 0.931 . S
C675 C674 1.385 . S
C675 C676 1.389 1_655 S
C676 C675 1.389 1_455 S
C676 C677 1.387 . S
C677 H662 0.930 . S
C677 C672 1.390 . S
C677 C676 1.387 . S
C205 C7 0.913 . S
C217 C186 0.923 . S
C232 C51 1.925 . S
C244 C160 1.868 . S
C259 C87 1.238 . S
C271 C172 1.242 . S
C286 C16 0.322 . S
C298 C184 0.203 . S
C325 C162 1.823 . S
C313 C42 1.865 . S
C352 C174 1.138 . S
C340 C96 1.153 . S
C367 C47 1.251 . S
C379 C136 1.251 . S
C394 C91 3.346 . S
C406 C150 3.306 1_655 S
C421 C2 1.919 . S
C433 C126 1.896 . S
C460 C138 1.155 . S
C448 C56 1.148 . S
C487 C148 2.680 . S
C475 C82 2.770 . S
C502 C11 1.950 . S
C514 C124 1.896 . S
C541 C153 1.769 . S
C529 C19 1.651 . S
C556 C50 1.450 . S
C568 C129 1.479 . S
C583 C99 1.516 . S
C595 C141 1.532 . S
C622 C177 1.522 . S
C610 C59 1.495 . S
C649 C189 1.263 . S
C637 C90 1.238 . S
C664 C10 1.405 . S
C676 C165 1.450 . S
