# Generated by pormake.
# Topology zzz, (3,6)-cn, num edge types: 1
# Building blocks:
#     Node 0, Type 0, BuildingBlock: CUQRIR_clean_linker_1, # of connection points: 3
#     Node 1, Type 0, BuildingBlock: CUQRIR_clean_linker_1, # of connection points: 3
#     Node 2, Type 0, BuildingBlock: CUQRIR_clean_linker_1, # of connection points: 3
#     Node 3, Type 0, BuildingBlock: CUQRIR_clean_linker_1, # of connection points: 3
#     Node 4, Type 0, BuildingBlock: CUQRIR_clean_linker_1, # of connection points: 3
#     Node 5, Type 0, BuildingBlock: CUQRIR_clean_linker_1, # of connection points: 3
#     Node 6, Type 0, BuildingBlock: CUQRIR_clean_linker_1, # of connection points: 3
#     Node 7, Type 0, BuildingBlock: CUQRIR_clean_linker_1, # of connection points: 3
#     Node 8, Type 1, BuildingBlock: NUHQIS_clean_sbu_0, # of connection points: 6
#     Node 9, Type 1, BuildingBlock: NUHQIS_clean_sbu_0, # of connection points: 6
#     Node 10, Type 1, BuildingBlock: NUHQIS_clean_sbu_0, # of connection points: 6
#     Node 11, Type 1, BuildingBlock: NUHQIS_clean_sbu_0, # of connection points: 6
#     Edge 12, Type (0, 1), BuildingBlock: XIVTED_clean_linker_0, # of connection points: 2
#     Edge 13, Type (0, 1), BuildingBlock: XIVTED_clean_linker_0, # of connection points: 2
#     Edge 14, Type (0, 1), BuildingBlock: XIVTED_clean_linker_0, # of connection points: 2
#     Edge 15, Type (0, 1), BuildingBlock: XIVTED_clean_linker_0, # of connection points: 2
#     Edge 16, Type (0, 1), BuildingBlock: XIVTED_clean_linker_0, # of connection points: 2
#     Edge 17, Type (0, 1), BuildingBlock: XIVTED_clean_linker_0, # of connection points: 2
#     Edge 18, Type (0, 1), BuildingBlock: XIVTED_clean_linker_0, # of connection points: 2
#     Edge 19, Type (0, 1), BuildingBlock: XIVTED_clean_linker_0, # of connection points: 2
#     Edge 20, Type (0, 1), BuildingBlock: XIVTED_clean_linker_0, # of connection points: 2
#     Edge 21, Type (0, 1), BuildingBlock: XIVTED_clean_linker_0, # of connection points: 2
#     Edge 22, Type (0, 1), BuildingBlock: XIVTED_clean_linker_0, # of connection points: 2
#     Edge 23, Type (0, 1), BuildingBlock: XIVTED_clean_linker_0, # of connection points: 2
#     Edge 24, Type (0, 1), BuildingBlock: XIVTED_clean_linker_0, # of connection points: 2
#     Edge 25, Type (0, 1), BuildingBlock: XIVTED_clean_linker_0, # of connection points: 2
#     Edge 26, Type (0, 1), BuildingBlock: XIVTED_clean_linker_0, # of connection points: 2
#     Edge 27, Type (0, 1), BuildingBlock: XIVTED_clean_linker_0, # of connection points: 2
#     Edge 28, Type (0, 1), BuildingBlock: XIVTED_clean_linker_0, # of connection points: 2
#     Edge 29, Type (0, 1), BuildingBlock: XIVTED_clean_linker_0, # of connection points: 2
#     Edge 30, Type (0, 1), BuildingBlock: XIVTED_clean_linker_0, # of connection points: 2
#     Edge 31, Type (0, 1), BuildingBlock: XIVTED_clean_linker_0, # of connection points: 2
#     Edge 32, Type (0, 1), BuildingBlock: XIVTED_clean_linker_0, # of connection points: 2
#     Edge 33, Type (0, 1), BuildingBlock: XIVTED_clean_linker_0, # of connection points: 2
#     Edge 34, Type (0, 1), BuildingBlock: XIVTED_clean_linker_0, # of connection points: 2
#     Edge 35, Type (0, 1), BuildingBlock: XIVTED_clean_linker_0, # of connection points: 2
# Relax obj value: 0.292
# Max RMSD: 0.162
# Mean RMSD: 0.136
data_MOF--net-zzz--node1-NUHQIS_clean_sbu_0--node2-CUQRIR_clean_linker_1--edge1-XIVTED_clean_linker_0
_symmetry_space_group_name_H-M    P1
_symmetry_Int_Tables_number       1
_symmetry_cell_setting            triclinic
loop_
_symmetry_equiv_pos_as_xyz
'x, y, z'
_cell_length_a     48.767502
_cell_length_b     48.829598
_cell_length_c     12.560342
_cell_angle_alpha  89.994174
_cell_angle_beta   89.658462
_cell_angle_gamma 90.043191
loop_
_atom_site_label
_atom_site_type_symbol
_atom_site_fract_x
_atom_site_fract_y
_atom_site_fract_z
_atom_type_partial_charge
C0 C 0.75992 0.51496 0.41501 0.0
N1 N 0.78177 0.4985 0.43566 0.0
N2 N 0.74024 0.5011 0.36069 0.0
C3 C 0.75861 0.54487 0.44123 0.0
C4 C 0.75115 0.47586 0.34789 0.0
N5 N 0.77631 0.47421 0.3926 0.0
C6 C 0.73792 0.45339 0.2843 0.0
H7 H 0.76909 0.54899 0.51778 0.0
H8 H 0.73702 0.55196 0.44549 0.0
H9 H 0.76939 0.55653 0.37774 0.0
H10 H 0.74118 0.45747 0.19823 0.0
H11 H 0.71548 0.45305 0.29944 0.0
H12 H 0.7468 0.43313 0.30425 0.0
C13 C 0.03334 0.75622 0.42632 0.0
N14 N 0.04796 0.77963 0.44204 0.0
N15 N 0.04828 0.7375 0.36995 0.0
C16 C 1.0042 0.75219 0.46158 0.0
C17 C 0.07239 0.75063 0.35158 0.0
N18 N 0.07209 0.77613 0.39411 0.0
C19 C 0.09574 0.73893 0.28658 0.0
H20 H 1.00038 0.76293 0.53811 0.0
H21 H 0.9994 0.73008 0.47019 0.0
H22 H 0.99041 0.76112 0.40086 0.0
H23 H 0.088 0.73173 0.20851 0.0
H24 H 0.10456 0.72108 0.32862 0.0
H25 H 0.11263 0.75376 0.27394 0.0
C26 C 0.78328 1.01404 0.44582 0.0
N27 N 0.75694 1.00555 0.4607 0.0
N28 N 0.79426 1.00271 0.35599 0.0
C29 C 0.79731 0.03538 0.51182 0.0
C30 C 0.77341 0.98731 0.31702 0.0
N31 N 0.75094 0.98892 0.38027 0.0
C32 C 0.77439 0.97173 0.21388 0.0
H33 H 0.80207 0.05342 0.46124 0.0
H34 H 0.81706 0.02714 0.54129 0.0
H35 H 0.78442 0.04182 0.58044 0.0
H36 H 0.79551 0.96439 0.19691 0.0
H37 H 0.76795 0.98541 0.14813 0.0
H38 H 0.76009 0.95404 0.21673 0.0
C39 C 0.51328 0.78785 0.42942 0.0
N40 N 0.49767 0.7656 0.45459 0.0
N41 N 0.49816 0.80705 0.37723 0.0
C42 C 0.54375 0.78939 0.44356 0.0
C43 C 0.4729 0.79554 0.37234 0.0
N44 N 0.47262 0.77036 0.41752 0.0
C45 C 0.44828 0.80909 0.32349 0.0
H46 H 0.55089 0.77432 0.5034 0.0
H47 H 0.54983 0.81032 0.46825 0.0
H48 H 0.5539 0.78497 0.36615 0.0
H49 H 0.44804 0.80503 0.23665 0.0
H50 H 0.44919 0.8316 0.33537 0.0
H51 H 0.42903 0.80093 0.35893 0.0
C52 C 0.29489 0.52844 0.1576 0.0
N53 N 0.2739 0.54531 0.13016 0.0
N54 N 0.31625 0.54295 0.19829 0.0
C55 C 0.29331 0.4978 0.15586 0.0
C56 C 0.30729 0.56914 0.19511 0.0
N57 N 0.28152 0.57067 0.15561 0.0
C58 C 0.32352 0.5931 0.23623 0.0
H59 H 0.28174 0.49075 0.22711 0.0
H60 H 0.31413 0.48864 0.15735 0.0
H61 H 0.28215 0.49076 0.08414 0.0
H62 H 0.34542 0.59088 0.213 0.0
H63 H 0.32253 0.59335 0.3245 0.0
H64 H 0.31547 0.61275 0.20501 0.0
C65 C 0.02254 0.29195 0.156 0.0
N66 N 0.02792 0.26475 0.14451 0.0
N67 N 0.02705 0.30021 0.25848 0.0
C68 C 1.01172 0.31001 0.06943 0.0
C69 C 0.03523 0.27686 0.30784 0.0
N70 N 0.03587 0.25568 0.23897 0.0
C71 C 0.04264 0.27445 0.42345 0.0
H72 H 0.02909 0.32139 0.03296 0.0
H73 H 0.99706 0.32517 0.10275 0.0
H74 H 1.00162 0.29774 1.00649 0.0
H75 H 0.02387 0.26978 0.47039 0.0
H76 H 0.05166 0.29383 0.45326 0.0
H77 H 0.05743 0.25747 0.43554 0.0
C78 C 0.24325 0.02293 0.1443 0.0
N79 N 0.26601 1.00861 0.11546 0.0
N80 N 0.22464 1.00644 0.19486 0.0
C81 C 0.23963 0.05302 0.12527 0.0
C82 C 0.23731 0.98163 0.19614 0.0
N83 N 0.26224 0.98299 0.14814 0.0
C84 C 0.22588 0.95635 0.24934 0.0
H85 H 0.24884 0.06449 0.19242 0.0
H86 H 0.21757 0.05837 0.12014 0.0
H87 H 0.25035 0.05929 0.05098 0.0
H88 H 0.20934 0.9477 0.19935 0.0
H89 H 0.21697 0.96165 0.32819 0.0
H90 H 0.24145 0.94008 0.25926 0.0
C91 C 0.50817 0.25142 0.15006 0.0
N92 N 0.49915 0.27729 0.13065 0.0
N93 N 0.49335 0.23955 0.23002 0.0
C94 C 0.53299 0.23873 0.0992 0.0
C95 C 0.47522 0.25935 0.2584 0.0
N96 N 0.47866 0.28215 0.19853 0.0
C97 C 0.45486 0.257 0.34826 0.0
H98 H 0.52709 0.21915 0.06078 0.0
H99 H 0.54825 0.23388 0.16161 0.0
H100 H 0.54239 0.25248 0.03887 0.0
H101 H 0.46474 0.26346 0.42353 0.0
H102 H 0.44779 0.23552 0.35738 0.0
H103 H 0.43699 0.27056 0.33407 0.0
Tb104 Tb 0.03244 0.02009 0.89031 0.0
Eu105 Eu 0.99261 0.02971 0.6897 0.0
C106 C 0.05793 0.0272 0.66017 0.0
C107 C 1.01251 0.08017 0.83206 0.0
C108 C 0.08319 0.99658 0.09626 0.0
C109 C 0.12115 0.96495 0.07475 0.0
C110 C 0.10457 0.98575 0.03402 0.0
C111 C 0.07997 0.98794 0.20182 0.0
C112 C 0.09615 0.96689 0.24187 0.0
C113 C 0.11618 0.95426 0.17729 0.0
C114 C 0.06271 1.01532 0.05204 0.0
O115 O 0.99148 0.02759 0.95918 0.0
O116 O 0.96481 1.01427 0.81988 0.0
O117 O 1.01076 0.98778 0.66568 0.0
O118 O 0.02432 0.97767 0.83553 0.0
C119 C 0.96761 0.01979 0.92125 0.0
O120 O 0.97006 0.05571 0.58046 0.0
O121 O 0.96719 1.01169 0.56524 0.0
O122 O 0.03558 0.04033 0.63153 0.0
O123 O 0.05883 1.01352 0.75054 0.0
O124 O 0.03311 0.06441 0.86001 0.0
O125 O 0.99133 0.06965 0.78246 0.0
C126 C 0.01869 0.96989 0.73706 0.0
O127 O 0.06947 0.02925 0.96734 0.0
O128 O 0.03789 1.00558 0.04585 0.0
C129 C 0.96898 0.03825 0.40897 0.0
C130 C 0.9929 0.06507 0.23518 0.0
C131 C 0.96491 0.06912 0.26041 0.0
C132 C 0.95315 0.05592 0.34756 0.0
C133 C 0.99489 0.02999 0.37168 0.0
C134 C 1.0066 0.04299 0.28341 0.0
C135 C 0.96198 0.03529 0.5216 0.0
H136 H 0.13686 0.95625 0.02377 0.0
H137 H 0.1077 0.99243 0.95262 0.0
H138 H 0.06379 0.99636 0.25148 0.0
H139 H 0.09138 0.95928 0.32076 0.0
H140 H 0.95301 0.08526 0.22417 0.0
H141 H 0.93293 0.06214 0.37445 0.0
H142 H 1.00731 1.01595 0.4176 0.0
H143 H 0.02765 0.03827 0.2626 0.0
Tb144 Tb 0.51939 0.04029 0.89564 0.0
Eu145 Eu 0.50878 1.0007 0.69181 0.0
C146 C 0.50711 0.06721 0.66922 0.0
C147 C 0.45924 0.02024 0.83966 0.0
C148 C 0.52951 0.05999 0.17385 0.0
C149 C 0.55595 0.06835 0.33274 0.0
C150 C 0.54122 0.07836 0.24592 0.0
C151 C 0.52832 0.03208 0.19983 0.0
C152 C 0.54374 0.02203 0.28453 0.0
C153 C 0.56044 0.03995 0.34344 0.0
C154 C 0.52569 0.0684 0.06283 0.0
O155 O 0.53069 0.99929 0.95391 0.0
O156 O 0.50586 0.97354 0.8367 0.0
O157 O 0.55397 0.99936 0.73128 0.0
O158 O 0.55682 0.04258 0.79698 0.0
C159 C 0.51907 0.97592 0.92696 0.0
O160 O 0.4933 0.96287 0.62268 0.0
O161 O 0.51856 0.98993 0.52698 0.0
O162 O 0.51046 0.04341 0.6217 0.0
O163 O 0.50611 0.0694 0.77385 0.0
O164 O 0.47817 0.02311 0.91296 0.0
O165 O 0.46633 1.01597 0.73958 0.0
C166 C 0.56859 0.02122 0.75228 0.0
O167 O 0.54563 0.06102 0.99965 0.0
O168 O 0.50192 0.06326 0.02088 0.0
C169 C 0.48682 0.96116 0.4379 0.0
C170 C 0.44657 0.94673 0.2889 0.0
C171 C 0.46305 0.92648 0.33554 0.0
C172 C 0.48284 0.93368 0.41016 0.0
C173 C 0.47218 0.98167 0.3848 0.0
C174 C 0.4522 0.97449 0.31048 0.0
C175 C 0.50425 0.96737 0.52944 0.0
H176 H 0.56708 0.08284 0.38146 0.0
H177 H 0.54161 0.10011 0.22892 0.0
H178 H 0.51842 1.0177 0.14693 0.0
H179 H 0.5456 1.00005 0.29258 0.0
H180 H 0.45945 0.90498 0.31954 0.0
H181 H 0.49395 0.91764 0.45093 0.0
H182 H 0.47503 1.00304 0.40519 0.0
H183 H 0.43972 0.99059 0.27665 0.0
Tb184 Tb 0.50666 0.52471 0.89612 0.0
Eu185 Eu 0.54569 0.51341 0.68976 0.0
C186 C 0.47993 0.51709 0.66916 0.0
C187 C 0.52599 0.46469 0.84302 0.0
C188 C 0.45882 0.54954 0.11477 0.0
C189 C 0.42072 0.58146 0.10771 0.0
C190 C 0.43638 0.56071 0.06045 0.0
C191 C 0.46397 0.55774 0.21955 0.0
C192 C 0.44867 0.57869 0.26611 0.0
C193 C 0.42765 0.59177 0.20891 0.0
C194 C 0.4781 0.53041 0.06374 0.0
O195 O 0.54809 0.51596 0.95607 0.0
O196 O 0.57415 0.52996 0.8147 0.0
O197 O 0.52925 0.55607 0.66823 0.0
O198 O 0.51551 0.56666 0.8385 0.0
C199 C 0.57178 0.52416 0.9163 0.0
O200 O 0.56818 0.48567 0.58535 0.0
O201 O 0.56848 0.52899 0.5518 0.0
O202 O 0.50219 0.504 0.63793 0.0
O203 O 0.47924 0.53044 0.76041 0.0
O204 O 0.5051 0.48049 0.86728 0.0
O205 O 0.54717 0.47472 0.79096 0.0
C206 C 0.52151 0.57412 0.73976 0.0
O207 O 0.46992 0.51717 0.97967 0.0
O208 O 0.5032 0.5392 0.05287 0.0
C209 C 0.56493 0.49832 0.40768 0.0
C210 C 0.541 0.46578 0.25035 0.0
C211 C 0.56975 0.46666 0.26085 0.0
C212 C 0.58161 0.48239 0.34127 0.0
C213 C 0.53719 0.50189 0.38204 0.0
C214 C 0.52522 0.4857 0.30334 0.0
C215 C 0.57411 0.50462 0.51587 0.0
H216 H 0.40416 0.59042 0.0625 0.0
H217 H 0.43164 0.55428 0.9801 0.0
H218 H 0.48088 0.54895 0.26353 0.0
H219 H 0.45489 0.5859 0.34377 0.0
H220 H 0.58261 0.45233 0.21765 0.0
H221 H 0.60317 0.47974 0.3588 0.0
H222 H 0.52413 0.51461 0.43147 0.0
H223 H 0.50312 0.4861 0.29575 0.0
Tb224 Tb 0.01916 0.50686 0.8994 0.0
Eu225 Eu 0.03357 0.54291 0.68743 0.0
C226 C 0.02566 0.47679 0.67329 0.0
C227 C 0.08128 0.52498 0.84897 0.0
C228 C 0.99414 0.45766 0.10922 0.0
C229 C 0.96298 0.41996 0.076 0.0
C230 C 0.98346 0.43785 0.04015 0.0
C231 C 0.98612 0.45776 0.21623 0.0
C232 C 0.96541 0.44028 0.25167 0.0
C233 C 0.95233 0.4223 0.18029 0.0
C234 C 1.01081 0.4805 0.06987 0.0
O235 O 1.0096 0.54976 0.93816 0.0
O236 O 0.04072 0.57064 0.82901 0.0
O237 O 0.98717 0.54204 0.70245 0.0
O238 O 0.98086 0.50432 0.80901 0.0
C239 C 0.02509 0.57098 0.91434 0.0
O240 O 0.02956 0.58161 0.60137 0.0
O241 O 0.04913 0.54673 0.52555 0.0
O242 O 0.02551 0.50049 0.62401 0.0
O243 O 0.0263 0.47509 0.77812 0.0
O244 O 0.06173 0.52043 0.91956 0.0
O245 O 0.07538 0.52978 0.74843 0.0
C246 C 0.97135 0.52247 0.74078 0.0
O247 O 0.03035 0.47482 1.00223 0.0
O248 O 0.99711 0.50221 0.04192 0.0
C249 C 0.06345 0.59021 0.46778 0.0
C250 C 0.10778 0.61874 0.37522 0.0
C251 C 0.09764 0.62631 0.47626 0.0
C252 C 0.07574 0.61202 0.52259 0.0
C253 C 0.07224 0.58394 0.36431 0.0
C254 C 0.09428 0.59785 0.31874 0.0
C255 C 0.0426 0.57254 0.51739 0.0
H256 H 0.95412 0.40577 0.01964 0.0
H257 H 0.98973 0.4373 0.95727 0.0
H258 H 0.99442 0.4728 0.27079 0.0
H259 H 0.95805 0.44295 0.33244 0.0
H260 H 0.10724 0.6426 0.52113 0.0
H261 H 0.06909 0.61742 0.60229 0.0
H262 H 0.06283 0.56732 0.3204 0.0
H263 H 0.1016 0.59111 0.24153 0.0
H264 H 0.21479 0.04855 0.33347 0.0
H265 H 0.08869 0.98231 0.61047 0.0
H266 H 0.1756 0.98022 0.17985 0.0
H267 H 0.08134 0.06829 0.53886 0.0
H268 H 0.12789 0.97946 0.48682 0.0
H269 H 0.1727 0.05593 0.43979 0.0
C270 C 0.19728 0.03536 0.32075 0.0
C271 C 0.19896 1.01349 0.24803 0.0
C272 C 0.11768 0.99893 0.4984 0.0
C273 C 0.15132 0.02108 0.37296 0.0
C274 C 0.09545 1.00063 0.56927 0.0
C275 C 0.08176 0.0256 0.58533 0.0
C276 C 0.12702 0.02252 0.44559 0.0
C277 C 0.09129 0.04864 0.52875 0.0
C278 C 0.17337 0.03946 0.38207 0.0
C279 C 0.17565 0.99676 0.23692 0.0
N280 N 0.11361 0.04668 0.46264 0.0
N281 N 0.15313 1.00051 0.30009 0.0
H282 H 0.49194 0.18747 0.15264 0.0
H283 H 0.50877 0.12087 0.7353 0.0
H284 H 0.50625 0.23393 0.43792 0.0
H285 H 0.50145 0.07194 0.45088 0.0
H286 H 0.50744 0.16221 0.62611 0.0
H287 H 0.49605 0.1448 0.2569 0.0
C288 C 0.49628 0.18862 0.23694 0.0
C289 C 0.49862 0.21423 0.2869 0.0
C290 C 0.50613 0.14247 0.58722 0.0
C291 C 0.50283 0.16566 0.40738 0.0
C292 C 0.50676 0.11873 0.64988 0.0
C293 C 0.50524 0.09266 0.60281 0.0
C294 C 0.50381 0.14044 0.47588 0.0
C295 C 0.5028 0.09149 0.49114 0.0
C296 C 0.49842 0.16432 0.29667 0.0
C297 C 0.50397 0.21462 0.39664 0.0
N298 N 0.50212 0.11495 0.43175 0.0
N299 N 0.50572 0.19085 0.45298 0.0
H300 H 0.31565 0.53629 0.41049 0.0
H301 H 0.47617 0.50207 0.45774 0.0
H302 H 0.36821 0.53055 0.13554 0.0
H303 H 0.42754 0.53434 0.71658 0.0
H304 H 0.43629 0.5059 0.3405 0.0
H305 H 0.35542 0.52831 0.52574 0.0
C306 C 0.33557 0.53262 0.37467 0.0
C307 C 0.33865 0.53345 0.26369 0.0
C308 C 0.43435 0.51205 0.42303 0.0
C309 C 0.38449 0.52492 0.39465 0.0
C310 C 0.45715 0.50985 0.49029 0.0
C311 C 0.45545 0.51799 0.59766 0.0
C312 C 0.40933 0.52199 0.46352 0.0
C313 C 0.43003 0.52786 0.63468 0.0
C314 C 0.35831 0.5284 0.4402 0.0
C315 C 0.36498 0.52942 0.22073 0.0
N316 N 0.40808 0.52946 0.56815 0.0
N317 N 0.38691 0.52531 0.28617 0.0
H318 H 0.99701 0.31144 0.43545 0.0
H319 H 0.03514 0.47109 0.45789 0.0
H320 H 0.04741 0.34979 0.19572 0.0
H321 H 1.01353 0.4239 0.73648 0.0
H322 H 0.03317 0.42918 0.35059 0.0
H323 H 0.99569 0.35469 0.53449 0.0
C324 C 1.00771 0.32906 0.40339 0.0
C325 C 0.02275 0.32681 0.308 0.0
C326 C 0.02888 0.42801 0.43517 0.0
C327 C 0.02097 0.3768 0.42051 0.0
C328 C 0.02996 0.45197 0.49683 0.0
C329 C 0.02469 0.45119 0.60725 0.0
C330 C 0.022 0.40294 0.4833 0.0
C331 C 1.01801 0.42564 0.65223 0.0
C332 C 1.00695 0.35376 0.46001 0.0
C333 C 0.03559 0.35058 0.26879 0.0
N334 N 1.01674 0.40268 0.59025 0.0
N335 N 0.0345 0.37452 0.32527 0.0
H336 H 0.80021 0.02528 0.16099 0.0
H337 H 0.96472 1.01217 0.13948 0.0
H338 H 0.84649 0.99444 0.42556 0.0
H339 H 0.91374 0.02463 0.86454 0.0
H340 H 0.92309 1.00984 0.25151 0.0
H341 H 0.84279 0.03049 0.05863 0.0
C342 C 0.81947 0.0198 0.19769 0.0
C343 C 0.81979 1.00923 0.30155 0.0
C344 C 0.92108 1.01328 0.16679 0.0
C345 C 0.869 1.01515 0.18467 0.0
C346 C 0.94484 1.01466 0.10274 0.0
C347 C 0.94284 0.01865 0.99212 0.0
C348 C 0.89507 1.01649 0.1204 0.0
C349 C 0.91643 0.02141 0.9491 0.0
C350 C 0.84382 0.02271 0.13923 0.0
C351 C 0.84538 1.00278 0.3459 0.0
N352 N 0.89377 0.02044 0.01304 0.0
N353 N 0.86895 1.00571 0.28717 0.0
H354 H 0.52192 0.85371 0.45331 0.0
H355 H 0.54133 0.97135 0.12945 0.0
H356 H 0.4943 0.81516 0.1654 0.0
H357 H 0.49888 0.9244 0.89091 0.0
H358 H 0.54045 0.93138 0.24713 0.0
H359 H 0.53133 0.89582 0.35231 0.0
C360 C 0.51821 0.85407 0.36844 0.0
C361 C 0.50724 0.83094 0.31774 0.0
C362 C 0.53123 0.92967 0.1694 0.0
C363 C 0.51683 0.87952 0.20112 0.0
C364 C 0.53177 0.95269 0.10176 0.0
C365 C 0.51999 0.95157 0.99983 0.0
C366 C 0.51896 0.90508 0.13467 0.0
C367 C 0.50819 0.92656 0.96846 0.0
C368 C 0.52329 0.87828 0.31047 0.0
C369 C 0.50244 0.83262 0.20784 0.0
N370 N 0.50802 0.90456 0.0351 0.0
N371 N 0.50693 0.85642 0.15396 0.0
H372 H 0.68816 0.50167 0.43566 0.0
H373 H 0.62555 0.53305 0.85725 0.0
H374 H 0.73732 0.52094 0.16072 0.0
H375 H 0.57527 0.51651 0.13342 0.0
H376 H 0.66631 0.53149 0.96957 0.0
H377 H 0.64643 0.51024 0.33094 0.0
C378 C 0.69006 0.50845 0.35387 0.0
C379 C 0.7161 0.51123 0.30714 0.0
C380 C 0.64638 0.52828 1.00596 0.0
C381 C 0.6686 0.52011 0.1852 0.0
C382 C 0.62298 0.52918 0.94162 0.0
C383 C 0.59675 0.52463 0.98531 0.0
C384 C 0.64379 0.52276 0.11551 0.0
C385 C 0.59499 0.51978 0.09564 0.0
C386 C 0.66631 0.51305 0.29367 0.0
C387 C 0.71758 0.51918 0.19994 0.0
N388 N 0.61809 0.51886 0.15655 0.0
N389 N 0.69425 0.52318 0.14257 0.0
H390 H 0.07402 0.68867 0.39072 0.0
H391 H 0.98217 0.59635 0.01891 0.0
H392 H 1.0045 0.7267 0.24164 0.0
H393 H 0.06982 0.6005 0.97638 0.0
H394 H 0.98459 0.63659 0.13818 0.0
H395 H 0.06708 0.64809 0.27889 0.0
C396 C 0.05707 0.68833 0.33553 0.0
C397 C 0.0402 0.71141 0.32399 0.0
C398 C 1.00321 0.62861 0.10245 0.0
C399 C 0.03148 0.66425 0.19956 0.0
C400 C 1.00189 0.60566 0.03487 0.0
C401 C 0.02582 0.59519 0.98687 0.0
C402 C 0.02875 0.64049 0.12539 0.0
C403 C 0.05084 0.60804 1.01058 0.0
C404 C 0.05312 0.66511 0.27232 0.0
C405 C 1.01796 0.70937 0.25337 0.0
N406 N 0.05169 0.6297 0.07903 0.0
N407 N 1.01422 0.68621 0.19362 0.0
H408 H 0.07921 0.2214 0.22722 0.0
H409 H 0.97676 0.10402 0.08846 0.0
H410 H 0.99293 0.22562 0.29695 0.0
H411 H 0.04584 0.08116 0.28364 0.0
H412 H 0.99075 0.15171 0.10445 0.0
H413 H 0.07492 0.17132 0.20245 0.0
C414 C 0.05969 0.21147 0.24191 0.0
C415 C 0.03637 0.22717 0.26517 0.0
C416 C 1.00337 0.13594 0.13973 0.0
C417 C 0.03104 0.17134 0.23049 0.0
C418 C 0.99538 0.10872 0.13133 0.0
C419 C 1.00882 0.08863 0.19148 0.0
C420 C 0.02631 0.14274 0.20072 0.0
C421 C 0.034 0.09587 0.23899 0.0
C422 C 0.05716 0.18325 0.22578 0.0
C423 C 1.01129 0.21388 0.28058 0.0
N424 N 0.0417 0.12258 0.24454 0.0
N425 N 1.00909 0.18675 0.26032 0.0
H426 H 0.2838 0.96203 0.32652 0.0
H427 H 0.4104 0.90717 0.35095 0.0
H428 H 0.29158 0.96143 0.9851 0.0
H429 H 0.4227 0.96938 0.11091 0.0
H430 H 0.36252 0.90355 0.29844 0.0
H431 H 0.32874 0.94047 0.34017 0.0
C432 C 0.29452 0.95614 0.25433 0.0
C433 C 0.28407 0.96326 0.15462 0.0
C434 C 0.37595 0.91744 0.25556 0.0
C435 C 0.33593 0.93993 0.16926 0.0
C436 C 0.40336 0.91941 0.28463 0.0
C437 C 0.42047 0.93909 0.23671 0.0
C438 C 0.3656 0.93529 0.17835 0.0
C439 C 0.41 0.95447 0.15169 0.0
C440 C 0.32022 0.94402 0.26194 0.0
C441 C 0.2992 0.95626 0.06326 0.0
N442 N 0.383 0.9526 0.12631 0.0
N443 N 0.32493 0.94585 0.07268 0.0
H444 H 0.49269 0.30682 0.37975 0.0
H445 H 0.49163 0.45706 0.14444 0.0
H446 H 0.44948 0.31995 0.08676 0.0
H447 H 0.55895 0.41457 0.29416 0.0
H448 H 0.46538 0.41368 0.14606 0.0
H449 H 0.50158 0.35575 0.39148 0.0
C450 C 0.48383 0.32027 0.32068 0.0
C451 C 0.47123 0.30946 0.23036 0.0
C452 C 0.48601 0.41418 0.17745 0.0
C453 C 0.48257 0.365 0.23973 0.0
C454 C 0.50108 0.43869 0.17558 0.0
C455 C 0.52758 0.43964 0.21962 0.0
C456 C 0.4974 0.39103 0.22629 0.0
C457 C 0.53885 0.41516 0.25824 0.0
C458 C 0.48942 0.34809 0.32595 0.0
C459 C 0.46013 0.32773 0.15575 0.0
N460 N 0.52356 0.39214 0.26218 0.0
N461 N 0.46699 0.35476 0.15945 0.0
H462 H 0.27266 0.59652 0.34172 0.0
H463 H 0.12326 0.62991 0.16777 0.0
H464 H 0.24617 0.59387 0.01542 0.0
H465 H 0.1535 0.63159 0.49019 0.0
H466 H 0.17054 0.63177 0.10242 0.0
H467 H 0.2335 0.62488 0.38639 0.0
C468 C 0.25907 0.60279 0.27849 0.0
C469 C 0.26249 0.59269 0.17488 0.0
C470 C 0.16674 0.63253 0.18741 0.0
C471 C 0.21638 0.62371 0.22685 0.0
C472 C 0.13976 0.63132 0.22488 0.0
C473 C 0.13441 0.62937 0.33477 0.0
C474 C 0.18839 0.63185 0.26052 0.0
C475 C 0.15647 0.63253 0.40485 0.0
C476 C 0.23642 0.61874 0.30425 0.0
C477 C 0.24384 0.6009 0.09665 0.0
N478 N 0.1825 0.63296 0.36651 0.0
N479 N 0.22108 0.61533 0.12477 0.0
H480 H 0.09981 0.80937 0.52878 0.0
H481 H 0.12787 0.91028 0.04915 0.0
H482 H 0.08477 0.79336 0.19727 0.0
H483 H 0.13 0.93575 0.37848 0.0
H484 H 0.12993 0.86308 0.10589 0.0
H485 H 0.12498 0.85124 0.47832 0.0
C486 C 0.10244 0.81444 0.44544 0.0
C487 C 0.09044 0.79811 0.36675 0.0
C488 C 0.13046 0.87898 0.16595 0.0
C489 C 0.1191 0.84525 0.30846 0.0
C490 C 0.12966 0.90618 0.13349 0.0
C491 C 0.12748 0.92723 0.2093 0.0
C492 C 0.12848 0.87272 0.27475 0.0
C493 C 0.13018 0.92016 0.31732 0.0
C494 C 0.11682 0.83812 0.41663 0.0
C495 C 0.09413 0.80532 0.25985 0.0
N496 N 0.1296 0.89342 0.34721 0.0
N497 N 0.10798 0.82842 0.23389 0.0
H498 H 0.72537 1.01406 0.22103 0.0
H499 H 0.57438 0.98971 0.43505 0.0
H500 H 0.71328 0.95484 0.47033 0.0
H501 H 0.60951 0.06673 0.33172 0.0
H502 H 0.62067 0.96953 0.42994 0.0
H503 H 0.67625 0.0231 0.22056 0.0
C504 C 0.71207 1.00198 0.27201 0.0
C505 C 0.72319 0.98417 0.34721 0.0
C506 C 0.61793 0.99092 0.40989 0.0
C507 C 0.66742 0.99531 0.35156 0.0
C508 C 0.59165 1.00256 0.41349 0.0
C509 C 0.5876 0.0299 0.38092 0.0
C510 C 0.63994 1.00672 0.37215 0.0
C511 C 0.611 0.04562 0.35689 0.0
C512 C 0.68419 1.00761 0.27386 0.0
C513 C 0.70521 0.96913 0.41262 0.0
N514 N 0.63591 0.03366 0.35082 0.0
N515 N 0.67805 0.97557 0.41575 0.0
H516 H 0.44822 0.73636 0.56089 0.0
H517 H 0.41368 0.63625 0.08706 0.0
H518 H 0.45285 0.75554 0.22672 0.0
H519 H 0.41823 0.60998 0.4151 0.0
H520 H 0.41148 0.68327 0.14625 0.0
H521 H 0.42353 0.69389 0.5172 0.0
C522 C 0.44334 0.73194 0.47873 0.0
C523 C 0.45269 0.74923 0.39712 0.0
C524 C 0.41247 0.66723 0.20568 0.0
C525 C 0.42443 0.70126 0.34651 0.0
C526 C 0.41338 0.64011 0.17189 0.0
C527 C 0.41724 0.61888 0.24584 0.0
C528 C 0.416 0.67334 0.31392 0.0
C529 C 0.41659 0.62569 0.35472 0.0
C530 C 0.42923 0.70784 0.45379 0.0
C531 C 0.4457 0.74292 0.29198 0.0
N532 N 0.41689 0.6524 0.38546 0.0
N533 N 0.43232 0.71931 0.26964 0.0
H534 H 0.80578 0.441 0.52292 0.0
H535 H 0.90863 0.41493 0.04611 0.0
H536 H 0.79375 0.4631 0.19484 0.0
H537 H 0.93148 0.40559 0.3762 0.0
H538 H 0.86099 0.41478 0.09856 0.0
H539 H 0.84628 0.41399 0.46999 0.0
C540 C 0.81155 0.43984 0.43978 0.0
C541 C 0.79701 0.45463 0.36309 0.0
C542 C 0.87638 0.41225 0.1596 0.0
C543 C 0.84227 0.42341 0.30166 0.0
C544 C 0.90387 0.41193 0.12953 0.0
C545 C 0.92449 0.41159 0.20725 0.0
C546 C 0.86939 0.41282 0.26806 0.0
C547 C 0.91638 0.40743 0.31381 0.0
C548 C 0.83436 0.42426 0.40945 0.0
C549 C 0.80456 0.45194 0.25602 0.0
N550 N 0.88945 0.40917 0.34166 0.0
N551 N 0.82681 0.43689 0.22858 0.0
H552 H 0.0674 0.24248 0.02221 0.0
H553 H 0.97094 0.11886 0.82494 0.0
H554 H 0.98026 0.24262 0.07307 0.0
H555 H 0.05709 0.11079 0.89344 0.0
H556 H 0.97368 0.16775 0.87225 0.0
H557 H 0.06343 0.19882 0.9266 0.0
C558 C 0.04723 0.23398 1.00826 0.0
C559 C 0.02411 0.24653 0.05415 0.0
C560 C 0.99202 0.15531 0.87566 0.0
C561 C 0.01933 0.19579 0.94749 0.0
C562 C 0.99049 0.12733 0.84876 0.0
C563 C 1.01378 0.11037 0.85559 0.0
C564 C 1.01711 0.16671 0.90848 0.0
C565 C 0.0385 0.12277 0.88744 0.0
C566 C 0.045 0.20874 0.95561 0.0
C567 C 0.99852 0.23401 0.03697 0.0
N568 N 0.03948 0.14996 0.91249 0.0
N569 N 0.99682 0.20923 0.98635 0.0
H570 H 0.311 0.02102 0.22909 0.0
H571 H 0.41173 1.01628 0.71832 0.0
H572 H 0.28088 1.01622 0.90897 0.0
H573 H 0.43895 0.02557 0.04256 0.0
H574 H 0.36388 1.01776 0.78254 0.0
H575 H 0.3579 0.02553 0.1594 0.0
C576 C 0.31428 0.02197 0.14382 0.0
C577 C 0.292 0.01889 0.07473 0.0
C578 C 0.38038 0.01956 0.83942 0.0
C579 C 0.34593 0.02295 0.99312 0.0
C580 C 0.40776 0.01863 0.80274 0.0
C581 C 0.42969 0.02077 0.87465 0.0
C582 C 0.37473 0.02262 0.94901 0.0
C583 C 0.423 0.02384 0.98336 0.0
C584 C 0.34109 0.02411 0.10374 0.0
C585 C 0.29745 0.01921 0.96469 0.0
N586 N 0.39637 0.0246 0.01674 0.0
N587 N 0.32381 0.02092 0.92728 0.0
H588 H 0.54233 0.30985 0.1801 0.0
H589 H 0.48107 0.43123 0.85435 0.0
H590 H 0.48188 0.2951 0.93942 0.0
H591 H 0.5684 0.4307 0.90449 0.0
H592 H 0.47909 0.38297 0.90849 0.0
H593 H 0.55214 0.35493 0.09906 0.0
C594 C 0.53203 0.31563 0.10738 0.0
C595 C 0.51159 0.29853 0.06519 0.0
C596 C 0.49874 0.39333 0.90671 0.0
C597 C 0.52145 0.35062 0.97599 0.0
C598 C 0.49987 0.42094 0.87636 0.0
C599 C 0.52499 0.43505 0.87354 0.0
C600 C 0.52274 0.3797 0.938 0.0
C601 C 0.54865 0.42057 0.90396 0.0
C602 C 0.53732 0.34148 0.0621 0.0
C603 C 0.4981 0.30745 0.97306 0.0
N604 N 0.54692 0.39384 0.93635 0.0
N605 N 0.50271 0.33306 0.93328 0.0
H606 H 0.22705 0.54118 0.24632 0.0
H607 H 0.1296 0.52964 0.73184 0.0
H608 H 0.25882 0.53419 0.92767 0.0
H609 H 0.09989 0.52367 0.0552 0.0
H610 H 0.17674 0.5322 0.79991 0.0
H611 H 0.18027 0.5352 0.17732 0.0
C612 C 0.22411 0.53777 0.16198 0.0
C613 C 0.24679 0.53769 0.09274 0.0
C614 C 0.15989 0.53024 0.85591 0.0
C615 C 0.1932 0.53153 1.01189 0.0
C616 C 0.13288 0.52883 0.81698 0.0
C617 C 0.11044 0.52635 0.88737 0.0
C618 C 0.16472 0.52943 0.96641 0.0
C619 C 0.11629 0.52545 0.99717 0.0
C620 C 0.19742 0.53457 0.12224 0.0
C621 C 0.24187 0.5339 0.98364 0.0
N622 N 0.14262 0.52707 0.03288 0.0
N623 N 0.2157 0.53114 0.94653 0.0
H624 H 0.03041 0.8245 0.33717 0.0
H625 H 0.03363 0.9233 0.85278 0.0
H626 H 0.04708 0.79397 0.65095 0.0
H627 H 1.01129 0.94928 0.5366 0.0
H628 H 0.03848 0.87605 0.78511 0.0
H629 H 0.02249 0.87027 0.41232 0.0
C630 C 0.03172 0.82742 0.42244 0.0
C631 C 0.03878 0.80536 0.48819 0.0
C632 C 0.03244 0.89215 0.73086 0.0
C633 C 0.0306 0.85806 0.57578 0.0
C634 C 0.02971 0.9192 0.76953 0.0
C635 C 0.02197 0.94063 0.70092 0.0
C636 C 0.02752 0.88637 0.62256 0.0
C637 C 1.01723 0.93376 0.59347 0.0
C638 C 0.02749 0.85359 0.46557 0.0
C639 C 0.04108 0.81037 0.59804 0.0
N640 N 0.0201 0.90753 0.5582 0.0
N641 N 0.03714 0.83614 0.63837 0.0
H642 H 0.72584 0.05124 0.44164 0.0
H643 H 0.60344 0.97752 0.73362 0.0
H644 H 0.73871 0.98061 0.63886 0.0
H645 H 0.60197 0.06543 0.70335 0.0
H646 H 0.65202 0.97771 0.68263 0.0
H647 H 0.68044 0.05776 0.52553 0.0
C648 C 0.71964 0.03793 0.5064 0.0
C649 C 0.73628 1.01563 0.53475 0.0
C650 C 0.64118 0.99701 0.68816 0.0
C651 C 0.68377 0.02196 0.62689 0.0
C652 C 0.61334 0.99692 0.71671 0.0
C653 C 0.5985 0.02152 0.72393 0.0
C654 C 0.65442 0.02182 0.66363 0.0
C655 C 0.6126 0.04599 0.70019 0.0
C656 C 0.69355 0.04137 0.55306 0.0
C657 C 0.72676 0.99833 0.61629 0.0
N658 N 0.63961 0.04551 0.66984 0.0
N659 N 0.70099 1.00143 0.65752 0.0
H660 H 0.51085 0.7201 0.34354 0.0
H661 H 0.51003 0.6212 0.85811 0.0
H662 H 0.50223 0.75111 0.66205 0.0
H663 H 0.52753 0.5943 0.53757 0.0
H664 H 0.50687 0.66863 0.79167 0.0
H665 H 0.51756 0.67383 0.4157 0.0
C666 C 0.51111 0.71714 0.42897 0.0
C667 C 0.50658 0.73944 0.49705 0.0
C668 C 0.51147 0.65229 0.73616 0.0
C669 C 0.51335 0.68632 0.58133 0.0
C670 C 0.51321 0.62514 0.7741 0.0
C671 C 0.51912 0.60342 0.70391 0.0
C672 C 0.51551 0.65787 0.62698 0.0
C673 C 0.52302 0.61008 0.59559 0.0
C674 C 0.51464 0.69071 0.47045 0.0
C675 C 0.50624 0.73447 0.60727 0.0
N676 N 0.5211 0.63644 0.56097 0.0
N677 N 0.50939 0.70848 0.64602 0.0
H678 H 0.82308 0.52916 0.35168 0.0
H679 H 0.9292 0.48943 0.81505 0.0
H680 H 0.79967 0.48349 0.63024 0.0
H681 H 0.9469 0.55055 0.57632 0.0
H682 H 0.88244 0.48556 0.74523 0.0
H683 H 0.86894 0.53641 0.42901 0.0
C684 C 0.82756 0.52103 0.42986 0.0
C685 C 0.80764 0.5058 0.48497 0.0
C686 C 0.89651 0.49992 0.70841 0.0
C687 C 0.86019 0.51336 0.57344 0.0
C688 C 0.92332 0.50213 0.7483 0.0
C689 C 0.94227 0.52043 0.70217 0.0
C690 C 0.88842 0.51586 0.62052 0.0
C691 C 0.93318 0.53625 0.61532 0.0
C692 C 0.85374 0.52498 0.47387 0.0
C693 C 0.81453 0.49533 0.58543 0.0
N694 N 0.90714 0.53348 0.57725 0.0
N695 N 0.84019 0.49908 0.62597 0.0
loop_
_geom_bond_atom_site_label_1
_geom_bond_atom_site_label_2
_geom_bond_distance
_geom_bond_site_symmetry_2
_ccdc_geom_bond_type
C0 N1 1.317 . S
C0 N2 1.348 . S
C0 C3 1.485 . S
N1 C0 1.317 . S
N1 N5 1.370 . S
N2 C0 1.348 . S
N2 C4 1.346 . S
C3 C0 1.485 . S
C3 H7 0.960 . S
C3 H8 0.961 . S
C3 H9 0.960 . S
C4 N2 1.346 . S
C4 N5 1.307 . S
C4 C6 1.486 . S
N5 N1 1.370 . S
N5 C4 1.307 . S
C6 C4 1.486 . S
C6 H10 0.960 . S
C6 H11 0.960 . S
C6 H12 0.959 . S
H7 C3 0.960 . S
H8 C3 0.961 . S
H9 C3 0.960 . S
H10 C6 0.960 . S
H11 C6 0.960 . S
H12 C6 0.959 . S
C13 N14 1.317 . S
C13 N15 1.350 . S
C13 C16 1.485 . S
N14 C13 1.317 . S
N14 N18 1.371 . S
N15 C13 1.350 . S
N15 C17 1.345 1_655 S
C16 C13 1.485 . S
C16 H20 0.960 1_655 S
C16 H21 0.961 . S
C16 H22 0.960 . S
C17 N15 1.345 1_455 S
C17 N18 1.307 1_455 S
C17 C19 1.486 . S
N18 N14 1.371 . S
N18 C17 1.307 1_655 S
C19 C17 1.486 . S
C19 H23 0.922 1_455 S
C19 H24 0.991 . S
C19 H25 0.967 . S
H20 C16 0.960 1_455 S
H21 C16 0.961 . S
H22 C16 0.960 . S
H23 C19 0.922 1_655 S
H24 C19 0.991 . S
H25 C19 0.967 . S
C26 N27 1.317 . S
C26 N28 1.350 . S
C26 C29 1.485 . S
N27 C26 1.317 . S
N27 N31 1.371 . S
N28 C26 1.350 . S
N28 C30 1.345 1_565 S
C29 C26 1.485 . S
C29 H33 0.960 1_565 S
C29 H34 0.961 . S
C29 H35 0.960 . S
C30 N28 1.345 1_545 S
C30 N31 1.307 1_545 S
C30 C32 1.486 . S
N31 N27 1.371 . S
N31 C30 1.307 1_565 S
C32 C30 1.486 . S
C32 H36 0.922 1_545 S
C32 H37 0.991 . S
C32 H38 0.967 . S
H33 C29 0.960 1_545 S
H34 C29 0.961 . S
H35 C29 0.960 . S
H36 C32 0.922 1_565 S
H37 C32 0.991 . S
H38 C32 0.967 . S
C39 N40 1.317 . S
C39 N41 1.348 . S
C39 C42 1.485 . S
N40 C39 1.317 . S
N40 N44 1.370 . S
N41 C39 1.348 . S
N41 C43 1.346 . S
C42 C39 1.485 . S
C42 H46 0.960 . S
C42 H47 0.961 . S
C42 H48 0.960 . S
C43 N41 1.346 . S
C43 N44 1.307 . S
C43 C45 1.486 . S
N44 N40 1.370 . S
N44 C43 1.307 . S
C45 C43 1.486 . S
C45 H49 0.960 . S
C45 H50 0.960 . S
C45 H51 0.959 . S
H46 C42 0.960 . S
H47 C42 0.961 . S
H48 C42 0.960 . S
H49 C45 0.960 . S
H50 C45 0.960 . S
H51 C45 0.959 . S
C52 N53 1.317 . S
C52 N54 1.348 1_556 S
C52 C55 1.485 . S
N53 C52 1.317 . S
N53 N57 1.370 1_556 S
N54 C52 1.348 1_554 S
N54 C56 1.346 . S
C55 C52 1.485 . S
C55 H59 0.960 . S
C55 H60 0.961 . S
C55 H61 0.960 . S
C56 N54 1.346 . S
C56 N57 1.307 . S
C56 C58 1.486 . S
N57 N53 1.370 1_554 S
N57 C56 1.307 . S
C58 C56 1.486 . S
C58 H62 0.960 . S
C58 H63 0.960 . S
C58 H64 0.959 . S
H59 C55 0.960 . S
H60 C55 0.961 . S
H61 C55 0.960 . S
H62 C58 0.960 . S
H63 C58 0.960 . S
H64 C58 0.959 . S
C65 N66 1.317 . S
C65 N67 1.350 1_556 S
C65 C68 1.485 . S
N66 C65 1.317 . S
N66 N70 1.370 1_556 S
N67 C65 1.350 1_554 S
N67 C69 1.345 1_655 S
C68 C65 1.485 . S
C68 H72 0.960 1_655 S
C68 H73 0.961 . S
C68 H74 0.960 . S
C69 N67 1.345 1_455 S
C69 N70 1.307 1_455 S
C69 C71 1.486 . S
N70 N66 1.370 1_554 S
N70 C69 1.307 1_655 S
C71 C69 1.486 . S
C71 H75 0.960 1_455 S
C71 H76 0.960 . S
C71 H77 0.959 . S
H72 C68 0.960 1_455 S
H73 C68 0.961 . S
H74 C68 0.960 . S
H75 C71 0.960 1_655 S
H76 C71 0.960 . S
H77 C71 0.959 . S
C78 N79 1.317 . S
C78 N80 1.350 1_556 S
C78 C81 1.485 . S
N79 C78 1.317 . S
N79 N83 1.370 1_556 S
N80 C78 1.350 1_554 S
N80 C82 1.345 1_565 S
C81 C78 1.485 . S
C81 H85 0.960 1_565 S
C81 H86 0.961 . S
C81 H87 0.960 . S
C82 N80 1.345 1_545 S
C82 N83 1.307 1_545 S
C82 C84 1.487 . S
N83 N79 1.370 1_554 S
N83 C82 1.307 1_565 S
C84 C82 1.487 . S
C84 H88 0.960 1_545 S
C84 H89 0.960 . S
C84 H90 0.959 . S
H85 C81 0.960 1_545 S
H86 C81 0.961 . S
H87 C81 0.960 . S
H88 C84 0.960 1_565 S
H89 C84 0.960 . S
H90 C84 0.959 . S
C91 N92 1.317 . S
C91 N93 1.348 1_556 S
C91 C94 1.485 . S
N92 C91 1.317 . S
N92 N96 1.370 1_556 S
N93 C91 1.348 1_554 S
N93 C95 1.346 . S
C94 C91 1.485 . S
C94 H98 0.960 . S
C94 H99 0.961 . S
C94 H100 0.960 . S
C95 N93 1.346 . S
C95 N96 1.307 . S
C95 C97 1.486 . S
N96 N92 1.370 1_554 S
N96 C95 1.307 . S
C97 C95 1.486 . S
C97 H101 0.960 . S
C97 H102 0.960 . S
C97 H103 0.959 . S
H98 C94 0.960 . S
H99 C94 0.961 . S
H100 C94 0.960 . S
H101 C97 0.960 . S
H102 C97 0.960 . S
H103 C97 0.959 . S
Tb104 C114 2.825 1_556 S
Tb104 O115 2.347 1_455 S
Tb104 O118 2.366 . S
Tb104 O123 2.418 . S
Tb104 O124 2.384 1_565 S
Tb104 O127 2.479 . S
Tb104 O128 2.471 1_556 S
Eu105 O116 2.418 . S
Eu105 O117 2.384 1_545 S
Eu105 O120 2.479 . S
Eu105 O121 2.471 . S
Eu105 O122 2.347 1_655 S
Eu105 O125 2.366 . S
Eu105 C135 2.825 . S
C106 O122 1.259 1_565 S
C106 O123 1.265 . S
C107 O124 1.255 . S
C107 O125 1.265 1_455 S
C108 C110 1.380 . S
C108 C111 1.374 . S
C108 C114 1.507 . S
C109 C110 1.384 . S
C109 C113 1.387 . S
C109 H136 0.930 . S
C110 C108 1.380 . S
C110 C109 1.384 . S
C110 H137 0.931 . S
C111 C108 1.374 . S
C111 C112 1.390 . S
C111 H138 0.930 1_455 S
C112 C111 1.390 . S
C112 C113 1.391 . S
C112 H139 0.930 1_455 S
C113 C109 1.387 . S
C113 C112 1.391 . S
C114 Tb104 2.825 1_554 S
C114 C108 1.507 . S
C114 O127 1.238 1_554 S
C114 O128 1.247 . S
O115 Tb104 2.347 1_655 S
O115 C119 1.259 1_565 S
O116 Eu105 2.418 . S
O116 C119 1.265 . S
O117 Eu105 2.384 1_565 S
O117 C126 1.255 . S
O118 Tb104 2.366 . S
O118 C126 1.265 1_455 S
C119 O115 1.259 1_545 S
C119 O116 1.265 . S
O120 Eu105 2.479 . S
O120 C135 1.238 . S
O121 Eu105 2.471 . S
O121 C135 1.247 . S
O122 Eu105 2.347 1_455 S
O122 C106 1.259 1_545 S
O123 Tb104 2.418 . S
O123 C106 1.265 . S
O124 Tb104 2.384 1_545 S
O124 C107 1.255 . S
O125 Eu105 2.366 . S
O125 C107 1.265 1_655 S
C126 O117 1.255 . S
C126 O118 1.265 1_655 S
O127 Tb104 2.479 . S
O127 C114 1.238 1_556 S
O128 Tb104 2.471 1_554 S
O128 C114 1.247 . S
C129 C132 1.380 . S
C129 C133 1.374 . S
C129 C135 1.507 . S
C130 C131 1.387 . S
C130 C134 1.391 . S
C131 C130 1.387 . S
C131 C132 1.384 . S
C131 H140 0.930 . S
C132 C129 1.380 . S
C132 C131 1.384 . S
C132 H141 0.931 . S
C133 C129 1.374 . S
C133 C134 1.390 . S
C133 H142 0.930 1_655 S
C134 C130 1.391 . S
C134 C133 1.390 . S
C134 H143 0.930 1_655 S
C135 Eu105 2.825 . S
C135 O120 1.238 . S
C135 O121 1.247 . S
C135 C129 1.507 . S
H136 C109 0.930 . S
H137 C110 0.931 . S
H138 C111 0.930 1_655 S
H139 C112 0.930 1_655 S
H140 C131 0.930 . S
H141 C132 0.931 . S
H142 C133 0.930 1_455 S
H143 C134 0.930 1_455 S
Tb144 C154 2.825 1_556 S
Tb144 O155 2.347 1_545 S
Tb144 O158 2.366 . S
Tb144 O163 2.418 . S
Tb144 O164 2.384 . S
Tb144 O167 2.479 . S
Tb144 O168 2.471 1_556 S
Eu145 O156 2.418 . S
Eu145 O157 2.384 . S
Eu145 O160 2.479 . S
Eu145 O161 2.471 . S
Eu145 O162 2.347 1_565 S
Eu145 O165 2.366 . S
Eu145 C175 2.825 . S
C146 O162 1.259 . S
C146 O163 1.265 . S
C147 O164 1.255 . S
C147 O165 1.265 1_545 S
C148 C150 1.380 . S
C148 C151 1.374 . S
C148 C154 1.507 . S
C149 C150 1.384 . S
C149 C153 1.387 . S
C149 H176 0.930 . S
C150 C148 1.380 . S
C150 C149 1.384 . S
C150 H177 0.931 . S
C151 C148 1.374 . S
C151 C152 1.390 . S
C151 H178 0.930 1_545 S
C152 C151 1.390 . S
C152 C153 1.391 . S
C152 H179 0.930 1_545 S
C153 C149 1.387 . S
C153 C152 1.391 . S
C154 Tb144 2.825 1_554 S
C154 C148 1.507 . S
C154 O167 1.238 1_554 S
C154 O168 1.247 . S
O155 Tb144 2.347 1_565 S
O155 C159 1.259 . S
O156 Eu145 2.418 . S
O156 C159 1.265 . S
O157 Eu145 2.384 . S
O157 C166 1.255 . S
O158 Tb144 2.366 . S
O158 C166 1.265 1_545 S
C159 O155 1.259 . S
C159 O156 1.265 . S
O160 Eu145 2.479 . S
O160 C175 1.238 . S
O161 Eu145 2.471 . S
O161 C175 1.247 . S
O162 Eu145 2.347 1_545 S
O162 C146 1.259 . S
O163 Tb144 2.418 . S
O163 C146 1.265 . S
O164 Tb144 2.384 . S
O164 C147 1.255 . S
O165 Eu145 2.366 . S
O165 C147 1.265 1_565 S
C166 O157 1.255 . S
C166 O158 1.265 1_565 S
O167 Tb144 2.479 . S
O167 C154 1.238 1_556 S
O168 Tb144 2.471 1_554 S
O168 C154 1.247 . S
C169 C172 1.380 . S
C169 C173 1.374 . S
C169 C175 1.507 . S
C170 C171 1.387 . S
C170 C174 1.391 . S
C171 C170 1.387 . S
C171 C172 1.384 . S
C171 H180 0.930 . S
C172 C169 1.380 . S
C172 C171 1.384 . S
C172 H181 0.931 . S
C173 C169 1.374 . S
C173 C174 1.390 . S
C173 H182 0.930 1_565 S
C174 C170 1.391 . S
C174 C173 1.390 . S
C174 H183 0.930 1_565 S
C175 Eu145 2.825 . S
C175 O160 1.238 . S
C175 O161 1.247 . S
C175 C169 1.507 . S
H176 C149 0.930 . S
H177 C150 0.931 . S
H178 C151 0.930 1_565 S
H179 C152 0.930 1_565 S
H180 C171 0.930 . S
H181 C172 0.931 . S
H182 C173 0.930 1_545 S
H183 C174 0.930 1_545 S
Tb184 C194 2.825 1_556 S
Tb184 O195 2.347 . S
Tb184 O198 2.366 . S
Tb184 O203 2.418 . S
Tb184 O204 2.384 . S
Tb184 O207 2.479 . S
Tb184 O208 2.471 1_556 S
Eu185 O196 2.418 . S
Eu185 O197 2.384 . S
Eu185 O200 2.479 . S
Eu185 O201 2.471 . S
Eu185 O202 2.347 . S
Eu185 O205 2.366 . S
Eu185 C215 2.825 . S
C186 O202 1.259 . S
C186 O203 1.265 . S
C187 O204 1.255 . S
C187 O205 1.265 . S
C188 C190 1.380 . S
C188 C191 1.374 . S
C188 C194 1.507 . S
C189 C190 1.384 . S
C189 C193 1.387 . S
C189 H216 0.930 . S
C190 C188 1.380 . S
C190 C189 1.384 . S
C190 H217 0.931 . S
C191 C188 1.374 . S
C191 C192 1.390 . S
C191 H218 0.930 . S
C192 C191 1.390 . S
C192 C193 1.391 . S
C192 H219 0.930 . S
C193 C189 1.387 . S
C193 C192 1.391 . S
C194 Tb184 2.825 1_554 S
C194 C188 1.507 . S
C194 O207 1.238 1_554 S
C194 O208 1.247 . S
O195 Tb184 2.347 . S
O195 C199 1.259 . S
O196 Eu185 2.418 . S
O196 C199 1.265 . S
O197 Eu185 2.384 . S
O197 C206 1.255 . S
O198 Tb184 2.366 . S
O198 C206 1.265 . S
C199 O195 1.259 . S
C199 O196 1.265 . S
O200 Eu185 2.479 . S
O200 C215 1.238 . S
O201 Eu185 2.471 . S
O201 C215 1.247 . S
O202 Eu185 2.347 . S
O202 C186 1.259 . S
O203 Tb184 2.418 . S
O203 C186 1.265 . S
O204 Tb184 2.384 . S
O204 C187 1.255 . S
O205 Eu185 2.366 . S
O205 C187 1.265 . S
C206 O197 1.255 . S
C206 O198 1.265 . S
O207 Tb184 2.479 . S
O207 C194 1.238 1_556 S
O208 Tb184 2.471 1_554 S
O208 C194 1.247 . S
C209 C212 1.380 . S
C209 C213 1.374 . S
C209 C215 1.507 . S
C210 C211 1.387 . S
C210 C214 1.391 . S
C211 C210 1.387 . S
C211 C212 1.384 . S
C211 H220 0.930 . S
C212 C209 1.380 . S
C212 C211 1.384 . S
C212 H221 0.931 . S
C213 C209 1.374 . S
C213 C214 1.390 . S
C213 H222 0.930 . S
C214 C210 1.391 . S
C214 C213 1.390 . S
C214 H223 0.930 . S
C215 Eu185 2.825 . S
C215 O200 1.238 . S
C215 O201 1.247 . S
C215 C209 1.507 . S
H216 C189 0.930 . S
H217 C190 0.931 . S
H218 C191 0.930 . S
H219 C192 0.930 . S
H220 C211 0.930 . S
H221 C212 0.931 . S
H222 C213 0.930 . S
H223 C214 0.930 . S
Tb224 C234 2.825 1_556 S
Tb224 O235 2.347 . S
Tb224 O238 2.366 . S
Tb224 O243 2.418 . S
Tb224 O244 2.384 1_655 S
Tb224 O247 2.479 . S
Tb224 O248 2.471 1_556 S
Eu225 O236 2.418 . S
Eu225 O237 2.384 1_455 S
Eu225 O240 2.479 . S
Eu225 O241 2.471 . S
Eu225 O242 2.347 . S
Eu225 O245 2.366 . S
Eu225 C255 2.825 . S
C226 O242 1.259 1_655 S
C226 O243 1.265 . S
C227 O244 1.255 . S
C227 O245 1.265 . S
C228 C230 1.380 . S
C228 C231 1.374 . S
C228 C234 1.507 . S
C229 C230 1.384 . S
C229 C233 1.387 . S
C229 H256 0.930 . S
C230 C228 1.380 . S
C230 C229 1.384 . S
C230 H257 0.931 . S
C231 C228 1.374 . S
C231 C232 1.390 . S
C231 H258 0.930 . S
C232 C231 1.390 . S
C232 C233 1.391 . S
C232 H259 0.930 . S
C233 C229 1.387 . S
C233 C232 1.391 . S
C234 Tb224 2.825 1_554 S
C234 C228 1.507 . S
C234 O247 1.238 1_554 S
C234 O248 1.247 . S
O235 Tb224 2.347 . S
O235 C239 1.259 1_655 S
O236 Eu225 2.418 . S
O236 C239 1.265 . S
O237 Eu225 2.384 1_655 S
O237 C246 1.255 . S
O238 Tb224 2.366 . S
O238 C246 1.265 . S
C239 O235 1.259 1_455 S
C239 O236 1.265 . S
O240 Eu225 2.479 . S
O240 C255 1.238 . S
O241 Eu225 2.471 . S
O241 C255 1.247 . S
O242 Eu225 2.347 . S
O242 C226 1.259 1_455 S
O243 Tb224 2.418 . S
O243 C226 1.265 . S
O244 Tb224 2.384 1_455 S
O244 C227 1.255 . S
O245 Eu225 2.366 . S
O245 C227 1.265 . S
C246 O237 1.255 . S
C246 O238 1.265 . S
O247 Tb224 2.479 . S
O247 C234 1.238 1_556 S
O248 Tb224 2.471 1_554 S
O248 C234 1.247 . S
C249 C252 1.380 . S
C249 C253 1.374 . S
C249 C255 1.507 . S
C250 C251 1.387 . S
C250 C254 1.391 . S
C251 C250 1.387 . S
C251 C252 1.384 . S
C251 H260 0.930 . S
C252 C249 1.380 . S
C252 C251 1.384 . S
C252 H261 0.931 . S
C253 C249 1.374 . S
C253 C254 1.390 . S
C253 H262 0.930 . S
C254 C250 1.391 . S
C254 C253 1.390 . S
C254 H263 0.930 . S
C255 Eu225 2.825 . S
C255 O240 1.238 . S
C255 O241 1.247 . S
C255 C249 1.507 . S
H256 C229 0.930 . S
H257 C230 0.931 . S
H258 C231 0.930 . S
H259 C232 0.930 . S
H260 C251 0.930 . S
H261 C252 0.931 . S
H262 C253 0.930 . S
H263 C254 0.930 . S
H264 C270 0.930 . S
H265 C274 0.930 . S
H266 C279 0.929 . S
H267 C277 0.929 . S
H268 C272 0.929 . S
H269 C278 0.929 . S
C270 H264 0.930 . S
C270 C271 1.389 . S
C270 C278 1.378 . S
C271 C270 1.389 . S
C271 C279 1.411 1_545 S
C272 H268 0.929 . S
C272 C274 1.378 . S
C272 C276 1.375 . S
C273 C276 1.461 1_545 S
C273 C278 1.383 . S
C273 N281 1.394 1_545 S
C274 H265 0.930 . S
C274 C272 1.378 . S
C274 C275 1.382 . S
C275 C274 1.382 . S
C275 C277 1.418 1_565 S
C276 C272 1.375 . S
C276 C273 1.461 1_565 S
C276 N280 1.402 1_565 S
C277 H267 0.929 . S
C277 C275 1.418 1_545 S
C277 N280 1.384 . S
C278 H269 0.929 . S
C278 C270 1.378 . S
C278 C273 1.383 . S
C279 H266 0.929 . S
C279 C271 1.411 1_565 S
C279 N281 1.384 . S
N280 C276 1.402 1_545 S
N280 C277 1.384 . S
N281 C273 1.394 1_565 S
N281 C279 1.384 . S
H282 C288 0.930 . S
H283 C292 0.930 . S
H284 C297 0.929 . S
H285 C295 0.929 . S
H286 C290 0.929 . S
H287 C296 0.929 . S
C288 H282 0.930 . S
C288 C289 1.367 . S
C288 C296 1.378 . S
C289 C288 1.367 . S
C289 C297 1.433 . S
C290 H286 0.929 . S
C290 C292 1.378 . S
C290 C294 1.350 . S
C291 C294 1.463 . S
C291 C296 1.350 . S
C291 N299 1.427 . S
C292 H283 0.930 . S
C292 C290 1.378 . S
C292 C293 1.367 . S
C293 C292 1.367 . S
C293 C295 1.433 . S
C294 C290 1.350 . S
C294 C291 1.463 . S
C294 N298 1.427 . S
C295 H285 0.929 . S
C295 C293 1.433 . S
C295 N298 1.384 . S
C296 H287 0.929 . S
C296 C288 1.378 . S
C296 C291 1.350 . S
C297 H284 0.929 . S
C297 C289 1.433 . S
C297 N299 1.384 . S
N298 C294 1.427 . S
N298 C295 1.384 . S
N299 C291 1.427 . S
N299 C297 1.384 . S
H300 C306 0.930 . S
H301 C310 0.930 . S
H302 C315 0.929 . S
H303 C313 0.929 . S
H304 C308 0.929 . S
H305 C314 0.929 . S
C306 H300 0.930 . S
C306 C307 1.367 . S
C306 C314 1.378 . S
C307 C306 1.367 . S
C307 C315 1.433 . S
C308 H304 0.929 . S
C308 C310 1.378 . S
C308 C312 1.350 . S
C309 C312 1.463 . S
C309 C314 1.350 . S
C309 N317 1.427 . S
C310 H301 0.930 . S
C310 C308 1.378 . S
C310 C311 1.367 . S
C311 C310 1.367 . S
C311 C313 1.433 . S
C312 C308 1.350 . S
C312 C309 1.463 . S
C312 N316 1.427 . S
C313 H303 0.929 . S
C313 C311 1.433 . S
C313 N316 1.384 . S
C314 H305 0.929 . S
C314 C306 1.378 . S
C314 C309 1.350 . S
C315 H302 0.929 . S
C315 C307 1.433 . S
C315 N317 1.384 . S
N316 C312 1.427 . S
N316 C313 1.384 . S
N317 C309 1.427 . S
N317 C315 1.384 . S
H318 C324 0.930 . S
H319 C328 0.930 . S
H320 C333 0.929 . S
H321 C331 0.929 . S
H322 C326 0.929 . S
H323 C332 0.929 . S
C324 H318 0.930 . S
C324 C325 1.373 . S
C324 C332 1.378 . S
C325 C324 1.373 . S
C325 C333 1.427 1_655 S
C326 H322 0.929 . S
C326 C328 1.378 . S
C326 C330 1.350 . S
C327 C330 1.462 1_655 S
C327 C332 1.354 . S
C327 N335 1.423 1_655 S
C328 H319 0.930 . S
C328 C326 1.378 . S
C328 C329 1.367 . S
C329 C328 1.367 . S
C329 C331 1.433 1_455 S
C330 C326 1.350 . S
C330 C327 1.462 1_455 S
C330 N334 1.427 1_455 S
C331 H321 0.929 . S
C331 C329 1.433 1_655 S
C331 N334 1.384 . S
C332 H323 0.929 . S
C332 C324 1.378 . S
C332 C327 1.354 . S
C333 H320 0.929 . S
C333 C325 1.427 1_455 S
C333 N335 1.384 . S
N334 C330 1.427 1_655 S
N334 C331 1.384 . S
N335 C327 1.423 1_455 S
N335 C333 1.384 . S
H336 C342 0.930 . S
H337 C346 0.930 . S
H338 C351 0.929 . S
H339 C349 0.929 . S
H340 C344 0.929 . S
H341 C350 0.929 . S
C342 H336 0.930 . S
C342 C343 1.382 . S
C342 C350 1.378 . S
C343 C342 1.382 . S
C343 C351 1.418 1_545 S
C344 H340 0.929 . S
C344 C346 1.378 . S
C344 C348 1.364 . S
C345 C348 1.461 1_545 S
C345 C350 1.372 . S
C345 N353 1.405 1_545 S
C346 H337 0.930 . S
C346 C344 1.378 . S
C346 C347 1.374 1_554 S
C347 C346 1.374 1_556 S
C347 C349 1.426 1_565 S
C348 C344 1.364 . S
C348 C345 1.461 1_565 S
C348 N352 1.413 1_565 S
C349 H339 0.929 . S
C349 C347 1.426 1_545 S
C349 N352 1.384 1_556 S
C350 H341 0.929 . S
C350 C342 1.378 . S
C350 C345 1.372 . S
C351 H338 0.929 . S
C351 C343 1.418 1_565 S
C351 N353 1.384 . S
N352 C348 1.413 1_545 S
N352 C349 1.384 1_554 S
N353 C345 1.405 1_565 S
N353 C351 1.384 . S
H354 C360 0.930 . S
H355 C364 0.930 . S
H356 C369 0.929 . S
H357 C367 0.929 . S
H358 C362 0.929 . S
H359 C368 0.929 . S
C360 H354 0.930 . S
C360 C361 1.367 . S
C360 C368 1.378 . S
C361 C360 1.367 . S
C361 C369 1.433 . S
C362 H358 0.929 . S
C362 C364 1.378 . S
C362 C366 1.350 . S
C363 C366 1.463 . S
C363 C368 1.350 . S
C363 N371 1.427 . S
C364 H355 0.930 . S
C364 C362 1.378 . S
C364 C365 1.367 1_554 S
C365 C364 1.367 1_556 S
C365 C367 1.433 . S
C366 C362 1.350 . S
C366 C363 1.463 . S
C366 N370 1.427 . S
C367 H357 0.929 . S
C367 C365 1.433 . S
C367 N370 1.384 1_556 S
C368 H359 0.929 . S
C368 C360 1.378 . S
C368 C363 1.350 . S
C369 H356 0.929 . S
C369 C361 1.433 . S
C369 N371 1.384 . S
N370 C366 1.427 . S
N370 C367 1.384 1_554 S
N371 C363 1.427 . S
N371 C369 1.384 . S
H372 C378 0.930 . S
H373 C382 0.930 . S
H374 C387 0.929 . S
H375 C385 0.929 . S
H376 C380 0.929 . S
H377 C386 0.929 . S
C378 H372 0.930 . S
C378 C379 1.367 . S
C378 C386 1.378 . S
C379 C378 1.367 . S
C379 C387 1.433 . S
C380 H376 0.929 . S
C380 C382 1.378 1_554 S
C380 C384 1.350 . S
C381 C384 1.463 . S
C381 C386 1.350 . S
C381 N389 1.427 . S
C382 H373 0.930 . S
C382 C380 1.378 1_556 S
C382 C383 1.367 . S
C383 C382 1.367 . S
C383 C385 1.433 1_556 S
C384 C380 1.350 . S
C384 C381 1.463 . S
C384 N388 1.427 . S
C385 H375 0.929 . S
C385 C383 1.433 1_554 S
C385 N388 1.384 . S
C386 H377 0.929 . S
C386 C378 1.378 . S
C386 C381 1.350 . S
C387 H374 0.929 . S
C387 C379 1.433 . S
C387 N389 1.384 . S
N388 C384 1.427 . S
N388 C385 1.384 . S
N389 C381 1.427 . S
N389 C387 1.384 . S
H390 C396 0.930 . S
H391 C400 0.930 . S
H392 C405 0.929 . S
H393 C403 0.929 . S
H394 C398 0.929 . S
H395 C404 0.929 . S
C396 H390 0.930 . S
C396 C397 1.370 . S
C396 C404 1.378 . S
C397 C396 1.370 . S
C397 C405 1.430 1_455 S
C398 H394 0.929 . S
C398 C400 1.378 . S
C398 C402 1.350 . S
C399 C402 1.462 1_455 S
C399 C404 1.351 . S
C399 N407 1.426 1_455 S
C400 H391 0.930 . S
C400 C398 1.378 . S
C400 C401 1.367 1_554 S
C401 C400 1.367 1_556 S
C401 C403 1.433 1_655 S
C402 C398 1.350 . S
C402 C399 1.462 1_655 S
C402 N406 1.427 1_655 S
C403 H393 0.929 . S
C403 C401 1.433 1_455 S
C403 N406 1.384 1_556 S
C404 H395 0.929 . S
C404 C396 1.378 . S
C404 C399 1.351 . S
C405 H392 0.929 . S
C405 C397 1.430 1_655 S
C405 N407 1.384 . S
N406 C402 1.427 1_455 S
N406 C403 1.384 1_554 S
N407 C399 1.426 1_655 S
N407 C405 1.384 . S
H408 C414 0.932 1_556 S
H409 C418 0.930 . S
H410 C423 0.929 . S
H411 C421 0.929 . S
H412 C416 0.929 . S
H413 C422 0.929 . S
C414 H408 0.932 1_554 S
C414 C415 1.367 . S
C414 C422 1.376 1_455 S
C415 C414 1.367 . S
C415 C423 1.433 1_455 S
C416 H412 0.929 . S
C416 C418 1.378 . S
C416 C420 1.350 . S
C417 C420 1.463 . S
C417 C422 1.350 . S
C417 N425 1.427 . S
C418 H409 0.930 . S
C418 C416 1.378 . S
C418 C419 1.367 . S
C419 C418 1.367 . S
C419 C421 1.433 . S
C420 C416 1.350 . S
C420 C417 1.463 . S
C420 N424 1.427 . S
C421 H411 0.929 . S
C421 C419 1.433 . S
C421 N424 1.384 . S
C422 H413 0.929 . S
C422 C414 1.376 1_655 S
C422 C417 1.350 . S
C423 H410 0.929 . S
C423 C415 1.433 1_655 S
C423 N425 1.384 . S
N424 C420 1.427 . S
N424 C421 1.384 . S
N425 C417 1.427 . S
N425 C423 1.384 . S
H426 C432 0.930 . S
H427 C436 0.930 . S
H428 C441 0.929 . S
H429 C439 0.929 1_545 S
H430 C434 0.929 . S
H431 C440 0.929 . S
C432 H426 0.930 . S
C432 C433 1.367 . S
C432 C440 1.378 . S
C433 C432 1.367 . S
C433 C441 1.433 1_545 S
C434 H430 0.929 . S
C434 C436 1.378 . S
C434 C438 1.350 . S
C435 C438 1.463 . S
C435 C440 1.350 1_565 S
C435 N443 1.427 . S
C436 H427 0.930 . S
C436 C434 1.378 . S
C436 C437 1.367 . S
C437 C436 1.367 . S
C437 C439 1.433 . S
C438 C434 1.350 . S
C438 C435 1.463 . S
C438 N442 1.424 1_565 S
C439 H429 0.929 1_565 S
C439 C437 1.433 . S
C439 N442 1.383 1_565 S
C440 H431 0.929 . S
C440 C432 1.378 . S
C440 C435 1.350 1_545 S
C441 H428 0.929 . S
C441 C433 1.433 1_565 S
C441 N443 1.384 . S
N442 C438 1.424 1_545 S
N442 C439 1.383 1_545 S
N443 C435 1.427 . S
N443 C441 1.384 . S
H444 C450 0.930 . S
H445 C454 0.930 . S
H446 C459 0.929 . S
H447 C457 0.929 . S
H448 C452 0.929 . S
H449 C458 0.929 . S
C450 H444 0.930 . S
C450 C451 1.367 . S
C450 C458 1.378 . S
C451 C450 1.367 . S
C451 C459 1.433 . S
C452 H448 0.929 . S
C452 C454 1.378 . S
C452 C456 1.350 . S
C453 C456 1.463 . S
C453 C458 1.350 . S
C453 N461 1.427 . S
C454 H445 0.930 . S
C454 C452 1.378 . S
C454 C455 1.367 . S
C455 C454 1.367 . S
C455 C457 1.433 . S
C456 C452 1.350 . S
C456 C453 1.463 . S
C456 N460 1.427 . S
C457 H447 0.929 . S
C457 C455 1.433 . S
C457 N460 1.384 . S
C458 H449 0.929 . S
C458 C450 1.378 . S
C458 C453 1.350 . S
C459 H446 0.929 . S
C459 C451 1.433 . S
C459 N461 1.384 . S
N460 C456 1.427 . S
N460 C457 1.384 . S
N461 C453 1.427 . S
N461 C459 1.384 . S
H462 C468 0.930 . S
H463 C472 0.930 . S
H464 C477 0.929 . S
H465 C475 0.929 . S
H466 C470 0.929 . S
H467 C476 0.929 . S
C468 H462 0.930 . S
C468 C469 1.367 . S
C468 C476 1.378 . S
C469 C468 1.367 . S
C469 C477 1.433 . S
C470 H466 0.929 . S
C470 C472 1.378 . S
C470 C474 1.350 . S
C471 C474 1.463 . S
C471 C476 1.350 . S
C471 N479 1.427 . S
C472 H463 0.930 . S
C472 C470 1.378 . S
C472 C473 1.367 . S
C473 C472 1.367 . S
C473 C475 1.433 . S
C474 C470 1.350 . S
C474 C471 1.463 . S
C474 N478 1.427 . S
C475 H465 0.929 . S
C475 C473 1.433 . S
C475 N478 1.384 . S
C476 H467 0.929 . S
C476 C468 1.378 . S
C476 C471 1.350 . S
C477 H464 0.929 . S
C477 C469 1.433 . S
C477 N479 1.384 . S
N478 C474 1.427 . S
N478 C475 1.384 . S
N479 C471 1.427 . S
N479 C477 1.384 . S
H480 C486 0.930 . S
H481 C490 0.930 . S
H482 C495 0.929 . S
H483 C493 0.929 . S
H484 C488 0.929 1_655 S
H485 C494 0.929 . S
C486 H480 0.930 . S
C486 C487 1.367 1_455 S
C486 C494 1.378 . S
C487 C486 1.367 1_655 S
C487 C495 1.433 . S
C488 H484 0.929 1_455 S
C488 C490 1.378 . S
C488 C492 1.350 . S
C489 C492 1.463 . S
C489 C494 1.350 . S
C489 N497 1.427 1_455 S
C490 H481 0.930 . S
C490 C488 1.378 . S
C490 C491 1.367 . S
C491 C490 1.367 . S
C491 C493 1.433 . S
C492 C488 1.350 . S
C492 C489 1.463 . S
C492 N496 1.427 . S
C493 H483 0.929 . S
C493 C491 1.433 . S
C493 N496 1.384 . S
C494 H485 0.929 . S
C494 C486 1.378 . S
C494 C489 1.350 . S
C495 H482 0.929 . S
C495 C487 1.433 . S
C495 N497 1.384 . S
N496 C492 1.427 . S
N496 C493 1.384 . S
N497 C489 1.427 1_655 S
N497 C495 1.384 . S
H498 C504 0.930 . S
H499 C508 0.930 1_565 S
H500 C513 0.929 . S
H501 C511 0.929 . S
H502 C506 0.913 1_565 S
H503 C512 0.929 . S
C504 H498 0.930 . S
C504 C505 1.367 1_545 S
C504 C512 1.378 . S
C505 C504 1.367 1_565 S
C505 C513 1.433 . S
C506 H502 0.913 1_545 S
C506 C508 1.382 . S
C506 C510 1.361 . S
C507 C510 1.463 . S
C507 C512 1.350 . S
C507 N515 1.427 1_545 S
C508 H499 0.930 1_545 S
C508 C506 1.382 . S
C508 C509 1.367 . S
C509 C508 1.367 . S
C509 C511 1.433 . S
C510 C506 1.361 . S
C510 C507 1.463 . S
C510 N514 1.427 . S
C511 H501 0.929 . S
C511 C509 1.433 . S
C511 N514 1.384 . S
C512 H503 0.929 . S
C512 C504 1.378 . S
C512 C507 1.350 . S
C513 H500 0.929 . S
C513 C505 1.433 . S
C513 N515 1.384 . S
N514 C510 1.427 . S
N514 C511 1.384 . S
N515 C507 1.427 1_565 S
N515 C513 1.384 . S
H516 C522 0.930 . S
H517 C526 0.930 . S
H518 C531 0.929 . S
H519 C529 0.929 . S
H520 C524 0.929 . S
H521 C530 0.929 . S
C522 H516 0.930 . S
C522 C523 1.367 . S
C522 C530 1.378 . S
C523 C522 1.367 . S
C523 C531 1.433 . S
C524 H520 0.929 . S
C524 C526 1.378 . S
C524 C528 1.350 . S
C525 C528 1.463 . S
C525 C530 1.350 . S
C525 N533 1.427 . S
C526 H517 0.930 . S
C526 C524 1.378 . S
C526 C527 1.367 . S
C527 C526 1.367 . S
C527 C529 1.433 . S
C528 C524 1.350 . S
C528 C525 1.463 . S
C528 N532 1.427 . S
C529 H519 0.929 . S
C529 C527 1.433 . S
C529 N532 1.384 . S
C530 H521 0.929 . S
C530 C522 1.378 . S
C530 C525 1.350 . S
C531 H518 0.929 . S
C531 C523 1.433 . S
C531 N533 1.384 . S
N532 C528 1.427 . S
N532 C529 1.384 . S
N533 C525 1.427 . S
N533 C531 1.384 . S
H534 C540 0.930 . S
H535 C544 0.930 . S
H536 C549 0.929 . S
H537 C547 0.929 . S
H538 C542 0.929 . S
H539 C548 0.929 . S
C540 H534 0.930 . S
C540 C541 1.367 . S
C540 C548 1.378 . S
C541 C540 1.367 . S
C541 C549 1.433 . S
C542 H538 0.929 . S
C542 C544 1.378 . S
C542 C546 1.350 . S
C543 C546 1.463 . S
C543 C548 1.350 . S
C543 N551 1.427 . S
C544 H535 0.930 . S
C544 C542 1.378 . S
C544 C545 1.367 . S
C545 C544 1.367 . S
C545 C547 1.433 . S
C546 C542 1.350 . S
C546 C543 1.463 . S
C546 N550 1.427 . S
C547 H537 0.929 . S
C547 C545 1.433 . S
C547 N550 1.384 . S
C548 H539 0.929 . S
C548 C540 1.378 . S
C548 C543 1.350 . S
C549 H536 0.929 . S
C549 C541 1.433 . S
C549 N551 1.384 . S
N550 C546 1.427 . S
N550 C547 1.384 . S
N551 C543 1.427 . S
N551 C549 1.384 . S
H552 C558 0.930 . S
H553 C562 0.930 . S
H554 C567 0.929 1_554 S
H555 C565 0.929 . S
H556 C560 0.929 . S
H557 C566 0.929 . S
C558 H552 0.930 . S
C558 C559 1.367 . S
C558 C566 1.378 . S
C559 C558 1.367 . S
C559 C567 1.433 1_455 S
C560 H556 0.929 . S
C560 C562 1.378 . S
C560 C564 1.350 1_655 S
C561 C564 1.463 . S
C561 C566 1.350 . S
C561 N569 1.427 1_455 S
C562 H553 0.930 . S
C562 C560 1.378 . S
C562 C563 1.367 1_655 S
C563 C562 1.367 1_455 S
C563 C565 1.433 . S
C564 C560 1.350 1_455 S
C564 C561 1.463 . S
C564 N568 1.427 . S
C565 H555 0.929 . S
C565 C563 1.433 . S
C565 N568 1.384 . S
C566 H557 0.929 . S
C566 C558 1.378 . S
C566 C561 1.350 . S
C567 H554 0.929 1_556 S
C567 C559 1.433 1_655 S
C567 N569 1.384 . S
N568 C564 1.427 . S
N568 C565 1.384 . S
N569 C561 1.427 1_655 S
N569 C567 1.384 . S
H570 C576 0.930 . S
H571 C580 0.924 1_565 S
H572 C585 0.929 . S
H573 C583 0.929 1_554 S
H574 C578 0.929 1_565 S
H575 C584 0.929 . S
C576 H570 0.930 . S
C576 C577 1.367 1_554 S
C576 C584 1.378 . S
C577 C576 1.367 1_556 S
C577 C585 1.433 1_545 S
C578 H574 0.929 1_545 S
C578 C580 1.378 . S
C578 C582 1.350 . S
C579 C582 1.463 . S
C579 C584 1.350 1_556 S
C579 N587 1.427 1_545 S
C580 H571 0.924 1_545 S
C580 C578 1.378 . S
C580 C581 1.367 . S
C581 C580 1.367 . S
C581 C583 1.433 . S
C582 C578 1.350 . S
C582 C579 1.463 . S
C582 N586 1.427 . S
C583 H573 0.929 1_556 S
C583 C581 1.433 . S
C583 N586 1.384 . S
C584 H575 0.929 . S
C584 C576 1.378 . S
C584 C579 1.350 1_554 S
C585 H572 0.929 . S
C585 C577 1.433 1_565 S
C585 N587 1.384 . S
N586 C582 1.427 . S
N586 C583 1.384 . S
N587 C579 1.427 1_565 S
N587 C585 1.384 . S
H588 C594 0.930 1_554 S
H589 C598 0.930 . S
H590 C603 0.929 . S
H591 C601 0.929 . S
H592 C596 0.929 . S
H593 C602 0.929 1_554 S
C594 H588 0.930 1_556 S
C594 C595 1.367 . S
C594 C602 1.378 . S
C595 C594 1.367 . S
C595 C603 1.433 . S
C596 H592 0.929 . S
C596 C598 1.378 . S
C596 C600 1.350 . S
C597 C600 1.463 . S
C597 C602 1.350 . S
C597 N605 1.427 . S
C598 H589 0.930 . S
C598 C596 1.378 . S
C598 C599 1.367 . S
C599 C598 1.367 . S
C599 C601 1.433 . S
C600 C596 1.350 . S
C600 C597 1.463 . S
C600 N604 1.427 . S
C601 H591 0.929 . S
C601 C599 1.433 . S
C601 N604 1.384 . S
C602 H593 0.929 1_556 S
C602 C594 1.378 . S
C602 C597 1.350 . S
C603 H590 0.929 . S
C603 C595 1.433 . S
C603 N605 1.384 . S
N604 C600 1.427 . S
N604 C601 1.384 . S
N605 C597 1.427 . S
N605 C603 1.384 . S
H606 C612 0.930 . S
H607 C616 0.930 . S
H608 C621 0.929 . S
H609 C619 0.929 1_554 S
H610 C614 0.929 . S
H611 C620 0.929 1_554 S
C612 H606 0.930 . S
C612 C613 1.367 1_554 S
C612 C620 1.378 1_554 S
C613 C612 1.367 1_556 S
C613 C621 1.433 . S
C614 H610 0.929 . S
C614 C616 1.378 . S
C614 C618 1.350 . S
C615 C618 1.463 . S
C615 C620 1.350 . S
C615 N623 1.427 . S
C616 H607 0.930 . S
C616 C614 1.378 . S
C616 C617 1.367 . S
C617 C616 1.367 . S
C617 C619 1.433 . S
C618 C614 1.350 . S
C618 C615 1.463 . S
C618 N622 1.427 . S
C619 H609 0.929 1_556 S
C619 C617 1.433 . S
C619 N622 1.384 . S
C620 H611 0.929 1_556 S
C620 C612 1.378 1_556 S
C620 C615 1.350 . S
C621 H608 0.929 . S
C621 C613 1.433 . S
C621 N623 1.384 . S
N622 C618 1.427 . S
N622 C619 1.384 . S
N623 C615 1.427 . S
N623 C621 1.384 . S
H624 C630 0.930 . S
H625 C634 0.930 . S
H626 C639 0.929 . S
H627 C637 0.929 . S
H628 C632 0.929 . S
H629 C638 0.929 . S
C630 H624 0.930 . S
C630 C631 1.367 . S
C630 C638 1.378 . S
C631 C630 1.367 . S
C631 C639 1.433 1_655 S
C632 H628 0.929 . S
C632 C634 1.378 . S
C632 C636 1.350 1_455 S
C633 C636 1.463 . S
C633 C638 1.350 . S
C633 N641 1.427 1_655 S
C634 H625 0.930 . S
C634 C632 1.378 . S
C634 C635 1.367 1_455 S
C635 C634 1.367 1_655 S
C635 C637 1.433 . S
C636 C632 1.350 1_655 S
C636 C633 1.463 . S
C636 N640 1.427 . S
C637 H627 0.929 . S
C637 C635 1.433 . S
C637 N640 1.384 . S
C638 H629 0.929 . S
C638 C630 1.378 . S
C638 C633 1.350 . S
C639 H626 0.929 . S
C639 C631 1.433 1_455 S
C639 N641 1.384 . S
N640 C636 1.427 . S
N640 C637 1.384 . S
N641 C633 1.427 1_455 S
N641 C639 1.384 . S
H642 C648 0.930 . S
H643 C652 0.930 . S
H644 C657 0.929 . S
H645 C655 0.929 . S
H646 C650 0.929 . S
H647 C656 0.929 . S
C648 H642 0.930 . S
C648 C649 1.367 1_545 S
C648 C656 1.378 . S
C649 C648 1.367 1_565 S
C649 C657 1.433 . S
C650 H646 0.929 . S
C650 C652 1.378 . S
C650 C654 1.350 . S
C651 C654 1.463 . S
C651 C656 1.350 1_565 S
C651 N659 1.427 . S
C652 H643 0.930 . S
C652 C650 1.378 . S
C652 C653 1.367 . S
C653 C652 1.367 . S
C653 C655 1.433 1_565 S
C654 C650 1.350 . S
C654 C651 1.463 . S
C654 N658 1.427 1_565 S
C655 H645 0.929 . S
C655 C653 1.433 1_545 S
C655 N658 1.384 . S
C656 H647 0.929 . S
C656 C648 1.378 . S
C656 C651 1.350 1_545 S
C657 H644 0.929 . S
C657 C649 1.433 . S
C657 N659 1.384 . S
N658 C654 1.427 1_545 S
N658 C655 1.384 . S
N659 C651 1.427 . S
N659 C657 1.384 . S
H660 C666 0.930 . S
H661 C670 0.930 . S
H662 C675 0.929 . S
H663 C673 0.929 . S
H664 C668 0.929 . S
H665 C674 0.929 . S
C666 H660 0.930 . S
C666 C667 1.367 . S
C666 C674 1.378 . S
C667 C666 1.367 . S
C667 C675 1.433 . S
C668 H664 0.929 . S
C668 C670 1.378 . S
C668 C672 1.350 . S
C669 C672 1.463 . S
C669 C674 1.350 . S
C669 N677 1.427 . S
C670 H661 0.930 . S
C670 C668 1.378 . S
C670 C671 1.367 . S
C671 C670 1.367 . S
C671 C673 1.433 . S
C672 C668 1.350 . S
C672 C669 1.463 . S
C672 N676 1.427 . S
C673 H663 0.929 . S
C673 C671 1.433 . S
C673 N676 1.384 . S
C674 H665 0.929 . S
C674 C666 1.378 . S
C674 C669 1.350 . S
C675 H662 0.929 . S
C675 C667 1.433 . S
C675 N677 1.384 . S
N676 C672 1.427 . S
N676 C673 1.384 . S
N677 C669 1.427 . S
N677 C675 1.384 . S
H678 C684 0.930 . S
H679 C688 0.930 . S
H680 C693 0.929 . S
H681 C691 0.929 . S
H682 C686 0.929 . S
H683 C692 0.929 . S
C684 H678 0.930 . S
C684 C685 1.367 . S
C684 C692 1.378 . S
C685 C684 1.367 . S
C685 C693 1.433 . S
C686 H682 0.929 . S
C686 C688 1.378 . S
C686 C690 1.350 . S
C687 C690 1.463 . S
C687 C692 1.350 . S
C687 N695 1.427 . S
C688 H679 0.930 . S
C688 C686 1.378 . S
C688 C689 1.367 . S
C689 C688 1.367 . S
C689 C691 1.433 . S
C690 C686 1.350 . S
C690 C687 1.463 . S
C690 N694 1.427 . S
C691 H681 0.929 . S
C691 C689 1.433 . S
C691 N694 1.384 . S
C692 H683 0.929 . S
C692 C684 1.378 . S
C692 C687 1.350 . S
C693 H680 0.929 . S
C693 C685 1.433 . S
C693 N695 1.384 . S
N694 C690 1.427 . S
N694 C691 1.384 . S
N695 C687 1.427 . S
N695 C693 1.384 . S
C271 N80 1.892 1_545 S
C275 C106 1.972 . S
C293 C146 1.987 . S
C289 N93 1.905 . S
C311 C186 1.998 . S
C307 N54 1.910 . S
C329 C226 1.988 1_455 S
C325 N67 1.898 . S
C347 C119 1.978 1_565 S
C343 N28 1.891 1_545 S
C361 N41 1.900 . S
C365 C159 1.994 . S
C379 N2 1.918 . S
C383 C199 1.998 . S
C397 N15 1.897 1_455 S
C401 C239 1.989 1_655 S
C419 C130 0.426 . S
C415 N70 0.417 1_455 S
C437 C170 0.449 . S
C433 N83 0.444 1_545 S
C455 C210 0.434 . S
C451 N96 0.427 . S
C469 N57 0.434 . S
C473 C250 0.441 . S
C487 N18 0.406 . S
C491 C113 0.413 . S
C509 C153 0.419 . S
C505 N31 0.413 . S
C527 C193 0.447 . S
C523 N44 0.439 . S
C541 N5 0.409 . S
C545 C233 0.422 . S
C559 N66 2.190 1_455 S
C563 C107 2.285 . S
C577 N79 2.145 1_545 S
C581 C147 2.253 . S
C599 C187 2.238 . S
C595 N92 2.131 . S
C617 C227 2.272 . S
C613 N53 2.161 . S
C631 N14 2.176 . S
C635 C126 2.294 . S
C653 C166 2.256 . S
C649 N27 2.143 . S
C671 C206 2.236 . S
C667 N40 2.119 . S
C685 N1 2.165 . S
C689 C246 2.278 . S
